# Generated by pormake.
# Topology uoy, (4)-cn, num edge types: 1
# Building blocks:
#     Node 0, Type 0, BuildingBlock: QUQFOY_clean_sbu_3, # of connection points: 4
#     Node 1, Type 0, BuildingBlock: QUQFOY_clean_sbu_3, # of connection points: 4
#     Node 2, Type 0, BuildingBlock: QUQFOY_clean_sbu_3, # of connection points: 4
#     Node 3, Type 0, BuildingBlock: QUQFOY_clean_sbu_3, # of connection points: 4
#     Node 4, Type 0, BuildingBlock: QUQFOY_clean_sbu_3, # of connection points: 4
#     Node 5, Type 0, BuildingBlock: QUQFOY_clean_sbu_3, # of connection points: 4
#     Node 6, Type 0, BuildingBlock: QUQFOY_clean_sbu_3, # of connection points: 4
#     Node 7, Type 0, BuildingBlock: QUQFOY_clean_sbu_3, # of connection points: 4
#     Node 8, Type 0, BuildingBlock: QUQFOY_clean_sbu_3, # of connection points: 4
#     Node 9, Type 0, BuildingBlock: QUQFOY_clean_sbu_3, # of connection points: 4
#     Node 10, Type 0, BuildingBlock: QUQFOY_clean_sbu_3, # of connection points: 4
#     Node 11, Type 0, BuildingBlock: QUQFOY_clean_sbu_3, # of connection points: 4
#     Node 12, Type 0, BuildingBlock: QUQFOY_clean_sbu_3, # of connection points: 4
#     Node 13, Type 0, BuildingBlock: QUQFOY_clean_sbu_3, # of connection points: 4
#     Node 14, Type 0, BuildingBlock: QUQFOY_clean_sbu_3, # of connection points: 4
#     Node 15, Type 0, BuildingBlock: QUQFOY_clean_sbu_3, # of connection points: 4
#     Edge 16, Type (0, 0), BuildingBlock: AJUNOK_clean_linker_0, # of connection points: 2
#     Edge 17, Type (0, 0), BuildingBlock: AJUNOK_clean_linker_0, # of connection points: 2
#     Edge 18, Type (0, 0), BuildingBlock: AJUNOK_clean_linker_0, # of connection points: 2
#     Edge 19, Type (0, 0), BuildingBlock: AJUNOK_clean_linker_0, # of connection points: 2
#     Edge 20, Type (0, 0), BuildingBlock: AJUNOK_clean_linker_0, # of connection points: 2
#     Edge 21, Type (0, 0), BuildingBlock: AJUNOK_clean_linker_0, # of connection points: 2
#     Edge 22, Type (0, 0), BuildingBlock: AJUNOK_clean_linker_0, # of connection points: 2
#     Edge 23, Type (0, 0), BuildingBlock: AJUNOK_clean_linker_0, # of connection points: 2
#     Edge 24, Type (0, 0), BuildingBlock: AJUNOK_clean_linker_0, # of connection points: 2
#     Edge 25, Type (0, 0), BuildingBlock: AJUNOK_clean_linker_0, # of connection points: 2
#     Edge 26, Type (0, 0), BuildingBlock: AJUNOK_clean_linker_0, # of connection points: 2
#     Edge 27, Type (0, 0), BuildingBlock: AJUNOK_clean_linker_0, # of connection points: 2
#     Edge 28, Type (0, 0), BuildingBlock: AJUNOK_clean_linker_0, # of connection points: 2
#     Edge 29, Type (0, 0), BuildingBlock: AJUNOK_clean_linker_0, # of connection points: 2
#     Edge 30, Type (0, 0), BuildingBlock: AJUNOK_clean_linker_0, # of connection points: 2
#     Edge 31, Type (0, 0), BuildingBlock: AJUNOK_clean_linker_0, # of connection points: 2
#     Edge 32, Type (0, 0), BuildingBlock: AJUNOK_clean_linker_0, # of connection points: 2
#     Edge 33, Type (0, 0), BuildingBlock: AJUNOK_clean_linker_0, # of connection points: 2
#     Edge 34, Type (0, 0), BuildingBlock: AJUNOK_clean_linker_0, # of connection points: 2
#     Edge 35, Type (0, 0), BuildingBlock: AJUNOK_clean_linker_0, # of connection points: 2
#     Edge 36, Type (0, 0), BuildingBlock: AJUNOK_clean_linker_0, # of connection points: 2
#     Edge 37, Type (0, 0), BuildingBlock: AJUNOK_clean_linker_0, # of connection points: 2
#     Edge 38, Type (0, 0), BuildingBlock: AJUNOK_clean_linker_0, # of connection points: 2
#     Edge 39, Type (0, 0), BuildingBlock: AJUNOK_clean_linker_0, # of connection points: 2
#     Edge 40, Type (0, 0), BuildingBlock: AJUNOK_clean_linker_0, # of connection points: 2
#     Edge 41, Type (0, 0), BuildingBlock: AJUNOK_clean_linker_0, # of connection points: 2
#     Edge 42, Type (0, 0), BuildingBlock: AJUNOK_clean_linker_0, # of connection points: 2
#     Edge 43, Type (0, 0), BuildingBlock: AJUNOK_clean_linker_0, # of connection points: 2
#     Edge 44, Type (0, 0), BuildingBlock: AJUNOK_clean_linker_0, # of connection points: 2
#     Edge 45, Type (0, 0), BuildingBlock: AJUNOK_clean_linker_0, # of connection points: 2
#     Edge 46, Type (0, 0), BuildingBlock: AJUNOK_clean_linker_0, # of connection points: 2
#     Edge 47, Type (0, 0), BuildingBlock: AJUNOK_clean_linker_0, # of connection points: 2
# Relax obj value: 0.036
# Max RMSD: 0.062
# Mean RMSD: 0.062
data_MOF--net-uoy--node1-QUQFOY_clean_sbu_3--edge1-AJUNOK_clean_linker_0
_symmetry_space_group_name_H-M    P1
_symmetry_Int_Tables_number       1
_symmetry_cell_setting            triclinic
loop_
_symmetry_equiv_pos_as_xyz
'x, y, z'
_cell_length_a     21.221812
_cell_length_b     21.238462
_cell_length_c     83.849046
_cell_angle_alpha  89.971117
_cell_angle_beta   90.2295
_cell_angle_gamma 89.929968
loop_
_atom_site_label
_atom_site_type_symbol
_atom_site_fract_x
_atom_site_fract_y
_atom_site_fract_z
_atom_type_partial_charge
C0 C 0.27605 0.21757 0.19402 0.0
O1 O 0.31349 0.25429 0.18678 0.0
Cd2 Cd 0.33711 0.23552 0.15919 0.0
O3 O 0.2502 0.1721 0.18673 0.0
Cd4 Cd 0.23698 0.122 0.1613 0.0
C5 C 0.39101 0.08224 0.16154 0.0
O6 O 0.23726 0.21846 0.14641 0.0
O7 O 0.23951 0.13218 0.13271 0.0
O8 O 0.12747 0.12054 0.16856 0.0
C9 C 0.2359 0.1918 0.1329 0.0
O10 O 0.40264 0.14042 0.15927 0.0
C11 C 0.11938 0.06228 0.16604 0.0
O12 O 0.33467 0.06317 0.16336 0.0
O13 O 0.16699 0.03104 0.16133 0.0
C14 C 0.77205 0.79374 0.44086 0.0
O15 O 0.73714 0.83054 0.4328 0.0
Cd16 Cd 0.76237 0.85332 0.40559 0.0
O17 O 0.81918 0.76722 0.43444 0.0
Cd18 Cd 0.87373 0.75433 0.40943 0.0
C19 C 0.9145 0.9075 0.40991 0.0
O20 O 0.77979 0.75262 0.39345 0.0
O21 O 0.86791 0.75735 0.38064 0.0
O22 O 0.87501 0.64433 0.41641 0.0
C23 C 0.80856 0.75044 0.38026 0.0
O24 O 0.85689 0.91921 0.40675 0.0
C25 C 0.93346 0.6363 0.41414 0.0
O26 O 0.93299 0.85118 0.41214 0.0
O27 O 0.96511 0.68434 0.40997 0.0
C28 C 0.22101 0.26724 0.69422 0.0
O29 O 0.1829 0.23307 0.68638 0.0
Cd30 Cd 0.15118 0.26032 0.65976 0.0
O31 O 0.24471 0.31606 0.68792 0.0
Cd32 Cd 0.24777 0.3736 0.66307 0.0
C33 C 0.09359 0.41022 0.66546 0.0
O34 O 0.24582 0.28393 0.64554 0.0
O35 O 0.23327 0.37537 0.63459 0.0
O36 O 0.36033 0.37882 0.66663 0.0
C37 C 0.24079 0.31654 0.63293 0.0
O38 O 0.08279 0.35286 0.66195 0.0
C39 C 0.36385 0.43829 0.66571 0.0
O40 O 0.14979 0.4295 0.6675 0.0
O41 O 0.31249 0.4682 0.66376 0.0
C42 C 0.7071 0.71435 0.94121 0.0
O43 O 0.7453 0.67802 0.93409 0.0
Cd44 Cd 0.72563 0.64647 0.90709 0.0
O45 O 0.65892 0.73566 0.93402 0.0
Cd46 Cd 0.60602 0.73937 0.90855 0.0
C47 C 0.57667 0.58327 0.91064 0.0
O48 O 0.70102 0.74201 0.89328 0.0
O49 O 0.61468 0.7316 0.8798 0.0
O50 O 0.59847 0.85008 0.91404 0.0
C51 C 0.67408 0.73832 0.87983 0.0
O52 O 0.63534 0.57508 0.90825 0.0
C53 C 0.53934 0.85403 0.91209 0.0
O54 O 0.55388 0.63855 0.91189 0.0
O55 O 0.51036 0.80367 0.90842 0.0
C56 C 0.26298 0.27508 0.01345 0.0
O57 O 0.29692 0.2403 0.02232 0.0
Cd58 Cd 0.31935 0.26782 0.04942 0.0
O59 O 0.23796 0.32492 0.01894 0.0
Cd60 Cd 0.22495 0.38621 0.04313 0.0
C61 C 0.38109 0.41685 0.04376 0.0
O62 O 0.22023 0.2973 0.06038 0.0
O63 O 0.22747 0.38728 0.07216 0.0
O64 O 0.11463 0.39181 0.03651 0.0
C65 C 0.22154 0.32806 0.07329 0.0
O66 O 0.38878 0.35936 0.04766 0.0
C67 C 0.11058 0.45126 0.03742 0.0
O68 O 0.32631 0.43853 0.04075 0.0
O69 O 0.16088 0.48117 0.04068 0.0
C70 C 0.72572 0.73242 0.25907 0.0
O71 O 0.76006 0.76808 0.26759 0.0
Cd72 Cd 0.73598 0.79126 0.29483 0.0
O73 O 0.6784 0.70471 0.26506 0.0
Cd74 Cd 0.6248 0.68925 0.29026 0.0
C75 C 0.58188 0.84199 0.29029 0.0
O76 O 0.71447 0.69404 0.30777 0.0
O77 O 0.62313 0.70084 0.31888 0.0
O78 O 0.62702 0.57707 0.28593 0.0
C79 C 0.68248 0.69826 0.32045 0.0
O80 O 0.63934 0.85368 0.29364 0.0
C81 C 0.56799 0.56945 0.28715 0.0
O82 O 0.56375 0.78585 0.28754 0.0
O83 O 0.53479 0.61859 0.28932 0.0
C84 C 0.2267 0.23748 0.51053 0.0
O85 O 0.19036 0.27339 0.51838 0.0
Cd86 Cd 0.16093 0.24985 0.54528 0.0
O87 O 0.24978 0.18832 0.51691 0.0
Cd88 Cd 0.25571 0.1312 0.5419 0.0
C89 C 0.09964 0.10038 0.54049 0.0
O90 O 0.25667 0.22256 0.55856 0.0
O91 O 0.24651 0.13355 0.57072 0.0
O92 O 0.3674 0.12431 0.53735 0.0
C93 C 0.25208 0.1929 0.57159 0.0
O94 O 0.09124 0.15848 0.54361 0.0
C95 C 0.37077 0.06489 0.53855 0.0
O96 O 0.15493 0.07836 0.5385 0.0
O97 O 0.3196 0.03558 0.54113 0.0
C98 C 0.7586 0.71957 0.75943 0.0
O99 O 0.723 0.68368 0.76746 0.0
Cd100 Cd 0.75021 0.65422 0.79419 0.0
O101 O 0.80844 0.74204 0.76561 0.0
Cd102 Cd 0.8684 0.74774 0.79017 0.0
C103 C 0.89906 0.59206 0.7886 0.0
O104 O 0.77845 0.75009 0.80724 0.0
O105 O 0.86845 0.73907 0.81902 0.0
O106 O 0.8744 0.85892 0.78504 0.0
C107 C 0.80928 0.74592 0.82015 0.0
O108 O 0.84117 0.58394 0.79199 0.0
C109 C 0.9339 0.86258 0.78605 0.0
O110 O 0.92114 0.64719 0.78654 0.0
O111 O 0.96374 0.81176 0.78881 0.0
C112 C 0.75547 0.72547 0.69131 0.0
O113 O 0.79191 0.76165 0.6836 0.0
Cd114 Cd 0.82345 0.73418 0.65713 0.0
O115 O 0.73343 0.67613 0.68486 0.0
Cd116 Cd 0.72727 0.61797 0.66013 0.0
C117 C 0.88145 0.58386 0.66369 0.0
O118 O 0.72859 0.70848 0.64317 0.0
O119 O 0.73929 0.61875 0.63137 0.0
O120 O 0.61624 0.61726 0.66543 0.0
C121 C 0.73361 0.67803 0.63026 0.0
O122 O 0.89102 0.64164 0.66042 0.0
C123 C 0.60901 0.5584 0.66385 0.0
O124 O 0.82565 0.56243 0.66493 0.0
O125 O 0.65796 0.52622 0.66063 0.0
C126 C 0.26415 0.25917 0.94499 0.0
O127 O 0.22889 0.29584 0.93697 0.0
Cd128 Cd 0.24851 0.32003 0.90957 0.0
O129 O 0.3105 0.23171 0.93845 0.0
Cd130 Cd 0.36042 0.21844 0.9127 0.0
C131 C 0.40267 0.37135 0.91243 0.0
O132 O 0.26604 0.22151 0.89678 0.0
O133 O 0.35429 0.22767 0.88409 0.0
O134 O 0.36059 0.10658 0.91754 0.0
C135 C 0.29473 0.22342 0.88358 0.0
O136 O 0.34472 0.38325 0.90971 0.0
C137 C 0.41916 0.09908 0.91532 0.0
O138 O 0.42118 0.31507 0.91484 0.0
O139 O 0.45128 0.14819 0.91234 0.0
C140 C 0.7248 0.76229 0.191 0.0
O141 O 0.69037 0.72918 0.18188 0.0
Cd142 Cd 0.66646 0.76068 0.15513 0.0
O143 O 0.7493 0.81315 0.18599 0.0
Cd144 Cd 0.75993 0.87792 0.16224 0.0
C145 C 0.60389 0.9088 0.16173 0.0
O146 O 0.76488 0.79166 0.14411 0.0
O147 O 0.75568 0.88331 0.13325 0.0
O148 O 0.8708 0.88282 0.16812 0.0
C149 C 0.7626 0.82442 0.13152 0.0
O150 O 0.59658 0.85175 0.15743 0.0
C151 C 0.87458 0.94237 0.16779 0.0
O152 O 0.65848 0.9302 0.16503 0.0
O153 O 0.8238 0.97271 0.16529 0.0
C154 C 0.22635 0.24181 0.44217 0.0
O155 O 0.26229 0.20681 0.43396 0.0
Cd156 Cd 0.23899 0.17928 0.40685 0.0
O157 O 0.17715 0.26591 0.43599 0.0
Cd158 Cd 0.11866 0.27572 0.41121 0.0
C159 C 0.0883 0.11942 0.41175 0.0
O160 O 0.20833 0.27472 0.39421 0.0
O161 O 0.11827 0.2669 0.38238 0.0
O162 O 0.11319 0.38731 0.41598 0.0
C163 C 0.17775 0.26968 0.38128 0.0
O164 O 0.14635 0.11122 0.40849 0.0
C165 C 0.05361 0.39101 0.41514 0.0
O166 O 0.0662 0.17448 0.41411 0.0
O167 O 0.02367 0.34006 0.4127 0.0
C168 C 0.77079 0.78815 0.50935 0.0
O169 O 0.80887 0.75236 0.51678 0.0
Cd170 Cd 0.83685 0.77172 0.54401 0.0
O171 O 0.74486 0.83419 0.51639 0.0
Cd172 Cd 0.7349 0.88419 0.54212 0.0
C173 C 0.88832 0.92551 0.54098 0.0
O174 O 0.73867 0.78844 0.55722 0.0
O175 O 0.74323 0.87466 0.57082 0.0
O176 O 0.6235 0.88528 0.53649 0.0
C177 C 0.7402 0.81499 0.57071 0.0
O178 O 0.90074 0.86754 0.54337 0.0
C179 C 0.61582 0.94359 0.53903 0.0
O180 O 0.83159 0.94406 0.53935 0.0
O181 O 0.66451 0.97511 0.54285 0.0
C182 C 0.2222 0.26118 0.76227 0.0
O183 O 0.25511 0.29911 0.77051 0.0
Cd184 Cd 0.22392 0.32591 0.79714 0.0
O185 O 0.17326 0.23596 0.76809 0.0
Cd186 Cd 0.11167 0.22587 0.79209 0.0
C187 C 0.0724 0.37954 0.79017 0.0
O188 O 0.20021 0.22798 0.80987 0.0
O189 O 0.10824 0.23303 0.82083 0.0
O190 O 0.11245 0.11512 0.78606 0.0
C191 C 0.16752 0.2291 0.82248 0.0
O192 O 0.1293 0.39107 0.79412 0.0
C193 C 0.05335 0.10772 0.78705 0.0
O194 O 0.05406 0.32323 0.78787 0.0
O195 O 0.02065 0.15637 0.79018 0.0
C196 C 0.70523 0.72769 0.0096 0.0
O197 O 0.66891 0.76384 0.01736 0.0
Cd198 Cd 0.64713 0.74334 0.04495 0.0
O199 O 0.73218 0.68166 0.01646 0.0
Cd200 Cd 0.74711 0.63055 0.04183 0.0
C201 C 0.59355 0.59018 0.04255 0.0
O202 O 0.74731 0.7255 0.05742 0.0
O203 O 0.74415 0.63754 0.07042 0.0
O204 O 0.85729 0.6296 0.03515 0.0
C205 C 0.74847 0.69708 0.07071 0.0
O206 O 0.58206 0.64822 0.04509 0.0
C207 C 0.86521 0.57107 0.03733 0.0
O208 O 0.64966 0.57125 0.04017 0.0
O209 O 0.81707 0.53934 0.04139 0.0
C210 C 0.27784 0.18835 0.26195 0.0
O211 O 0.23966 0.15199 0.26904 0.0
Cd212 Cd 0.26047 0.11985 0.29596 0.0
O213 O 0.32634 0.20891 0.26913 0.0
Cd214 Cd 0.38053 0.21089 0.29444 0.0
C215 C 0.40845 0.05462 0.29217 0.0
O216 O 0.28482 0.2165 0.30938 0.0
O217 O 0.37058 0.20654 0.32318 0.0
O218 O 0.38944 0.32062 0.28809 0.0
C219 C 0.31145 0.21541 0.32291 0.0
O220 O 0.34976 0.04689 0.29459 0.0
C221 C 0.44831 0.32456 0.29044 0.0
O222 O 0.43157 0.10971 0.29103 0.0
O223 O 0.47672 0.27451 0.29471 0.0
C224 C 0.22591 0.2292 0.08901 0.0
C225 C 0.2234 0.29533 0.08875 0.0
C226 C 0.22986 0.19632 0.10337 0.0
C227 C 0.2313 0.22828 0.11802 0.0
H228 H 0.22544 0.20232 0.07803 0.0
H229 H 0.23202 0.14538 0.10292 0.0
S230 S 0.22384 0.40147 0.12389 0.0
N231 N 0.22113 0.39187 0.10437 0.0
N232 N 0.22857 0.3299 0.13149 0.0
C233 C 0.22807 0.29449 0.11798 0.0
C234 C 0.2241 0.32806 0.10331 0.0
C235 C 0.80906 0.73232 0.35098 0.0
C236 C 0.7749 0.73757 0.36524 0.0
C237 C 0.77877 0.71853 0.3366 0.0
C238 C 0.71318 0.70969 0.33594 0.0
H239 H 0.85968 0.73876 0.35088 0.0
H240 H 0.8071 0.71543 0.32591 0.0
S241 S 0.60214 0.7172 0.36999 0.0
N242 N 0.67187 0.73211 0.37789 0.0
N243 N 0.61492 0.70605 0.3508 0.0
C244 C 0.67838 0.71437 0.35012 0.0
C245 C 0.70924 0.72843 0.36479 0.0
C246 C 0.24987 0.19101 0.60119 0.0
C247 C 0.24905 0.22597 0.58697 0.0
C248 C 0.24695 0.22086 0.61598 0.0
C249 C 0.24286 0.28677 0.6171 0.0
H250 H 0.25308 0.14009 0.60094 0.0
H251 H 0.24794 0.19184 0.62661 0.0
S252 S 0.23812 0.39994 0.58335 0.0
N253 N 0.24322 0.33009 0.57484 0.0
N254 N 0.23764 0.38633 0.60272 0.0
C255 C 0.24165 0.32243 0.60297 0.0
C256 C 0.24482 0.29199 0.58788 0.0
C257 C 0.71052 0.74375 0.83588 0.0
C258 C 0.77675 0.74449 0.83559 0.0
C259 C 0.67784 0.74158 0.85026 0.0
C260 C 0.71017 0.74033 0.8649 0.0
H261 H 0.68341 0.74453 0.8249 0.0
H262 H 0.62683 0.74105 0.84985 0.0
S263 S 0.88379 0.74197 0.8707 0.0
N264 N 0.87377 0.74414 0.85118 0.0
N265 N 0.81224 0.74009 0.87832 0.0
C266 C 0.77649 0.74126 0.86483 0.0
C267 C 0.80982 0.74332 0.85014 0.0
C268 C 0.73536 0.81027 0.60024 0.0
C269 C 0.73947 0.77848 0.5856 0.0
C270 C 0.73351 0.77716 0.61458 0.0
C271 C 0.73587 0.71101 0.61484 0.0
H272 H 0.73315 0.86113 0.60066 0.0
H273 H 0.73016 0.80389 0.62555 0.0
S274 S 0.74785 0.60535 0.57974 0.0
N275 N 0.74661 0.67705 0.57215 0.0
N276 N 0.74314 0.61467 0.59924 0.0
C277 C 0.74037 0.67847 0.6003 0.0
C278 C 0.74215 0.71227 0.58564 0.0
C279 C 0.29473 0.22653 0.85399 0.0
C280 C 0.2605 0.22468 0.86829 0.0
C281 C 0.26403 0.22801 0.83927 0.0
C282 C 0.1979 0.22778 0.83827 0.0
H283 H 0.34579 0.22679 0.85412 0.0
H284 H 0.29261 0.22942 0.8286 0.0
S285 S 0.08626 0.22299 0.87222 0.0
N286 N 0.15674 0.22255 0.88061 0.0
N287 N 0.09886 0.22534 0.85282 0.0
C288 C 0.1629 0.22592 0.85247 0.0
C289 C 0.19425 0.22433 0.86751 0.0
C290 C 0.75631 0.69732 0.10022 0.0
C291 C 0.75314 0.73145 0.08589 0.0
C292 C 0.76018 0.72804 0.11487 0.0
C293 C 0.76085 0.79412 0.11576 0.0
H294 H 0.75562 0.64631 0.10019 0.0
H295 H 0.76205 0.69951 0.12557 0.0
S296 S 0.75524 0.90551 0.08166 0.0
N297 N 0.75215 0.83506 0.0734 0.0
N298 N 0.75943 0.89302 0.10107 0.0
C299 C 0.75842 0.82904 0.10153 0.0
C300 C 0.75455 0.79764 0.08655 0.0
C301 C 0.27607 0.24955 0.36612 0.0
C302 C 0.21026 0.25726 0.36614 0.0
C303 C 0.30825 0.23512 0.35211 0.0
C304 C 0.27583 0.22815 0.33758 0.0
H305 H 0.30315 0.25419 0.37703 0.0
H306 H 0.35897 0.22983 0.35269 0.0
S307 S 0.10318 0.24384 0.33119 0.0
N308 N 0.11358 0.25715 0.35041 0.0
N309 N 0.17409 0.22989 0.324 0.0
C310 C 0.20993 0.2358 0.3374 0.0
C311 C 0.17713 0.25046 0.35169 0.0
C312 C 0.3151 0.24923 0.22077 0.0
C313 C 0.26778 0.22174 0.21138 0.0
C314 C 0.31587 0.24083 0.23726 0.0
C315 C 0.26932 0.20466 0.24497 0.0
H316 H 0.35405 0.27397 0.21528 0.0
H317 H 0.35518 0.26042 0.24388 0.0
S318 S 0.12767 0.13461 0.22594 0.0
N319 N 0.16761 0.16583 0.21106 0.0
N320 N 0.16929 0.14964 0.24217 0.0
C321 C 0.21854 0.18192 0.23586 0.0
C322 C 0.21772 0.1906 0.21903 0.0
C323 C 0.80373 0.74522 0.46666 0.0
C324 C 0.7622 0.78474 0.45813 0.0
C325 C 0.8034 0.7434 0.48328 0.0
C326 C 0.76151 0.78099 0.49201 0.0
H327 H 0.83901 0.71746 0.46054 0.0
H328 H 0.83861 0.71487 0.48928 0.0
S329 S 0.63447 0.8825 0.47538 0.0
N330 N 0.67182 0.85517 0.4596 0.0
N331 N 0.67074 0.8514 0.49095 0.0
C332 C 0.71585 0.81635 0.48364 0.0
C333 C 0.71628 0.81829 0.46666 0.0
C334 C 0.26775 0.29991 0.72019 0.0
C335 C 0.23291 0.25546 0.71133 0.0
C336 C 0.26873 0.29837 0.73683 0.0
C337 C 0.23497 0.25228 0.74518 0.0
H338 H 0.29133 0.33873 0.71433 0.0
H339 H 0.29231 0.3362 0.74312 0.0
S340 S 0.15025 0.11582 0.72764 0.0
N341 N 0.17382 0.15731 0.71212 0.0
N342 N 0.17606 0.15412 0.74348 0.0
C343 C 0.20601 0.20344 0.73649 0.0
C344 C 0.20488 0.20508 0.71952 0.0
C345 C 0.75433 0.69334 -0.01582 0.0
C346 C 0.71304 0.73448 -0.0078 0.0
C347 C 0.7551 0.68995 0.96758 0.0
C348 C 0.71465 0.7276 0.95836 0.0
H349 H 0.78441 0.66115 -0.00925 0.0
H350 H 0.78519 0.65511 0.96203 0.0
S351 S 0.60692 0.85216 0.97336 0.0
N352 N 0.63735 0.82011 -0.0104 0.0
N353 N 0.63919 0.81431 0.95827 0.0
C354 C 0.67726 0.77304 0.96614 0.0
C355 C 0.6764 0.77639 -0.0169 0.0
C356 C 0.21643 0.30022 -0.01306 0.0
C357 C 0.25593 0.26149 -0.00374 0.0
C358 C 0.21635 0.29632 0.97033 0.0
C359 C 0.25583 0.25359 0.9624 0.0
H360 H 0.18719 0.33594 -0.00759 0.0
H361 H 0.18751 0.32942 0.96371 0.0
S362 S 0.35924 0.13341 -0.01864 0.0
N363 N 0.32911 0.17309 -0.00357 0.0
N364 N 0.32871 0.16539 0.96513 0.0
C365 C 0.29154 0.21082 0.97159 0.0
C366 C 0.29162 0.21483 -0.01144 0.0
C367 C 0.77268 0.77558 0.23425 0.0
C368 C 0.73514 0.72979 0.24166 0.0
C369 C 0.77169 0.78318 0.21773 0.0
C370 C 0.73323 0.74521 0.20796 0.0
H371 H 0.80025 0.80839 0.24128 0.0
H372 H 0.79918 0.82122 0.21269 0.0
S373 S 0.63624 0.60983 0.22129 0.0
N374 N 0.66605 0.63942 0.23787 0.0
N375 N 0.66399 0.65396 0.20672 0.0
C376 C 0.69997 0.69542 0.21508 0.0
C377 C 0.70098 0.68766 0.23196 0.0
C378 C 0.19508 0.28798 0.46823 0.0
C379 C 0.23693 0.24993 0.45947 0.0
C380 C 0.19508 0.28722 0.48487 0.0
C381 C 0.23689 0.24834 0.49337 0.0
H382 H 0.15964 0.31624 0.46225 0.0
H383 H 0.15945 0.31439 0.49103 0.0
S384 S 0.36508 0.15054 0.47623 0.0
N385 N 0.32795 0.18009 0.46059 0.0
N386 N 0.32821 0.17894 0.49196 0.0
C387 C 0.28308 0.21484 0.48483 0.0
C388 C 0.28309 0.21561 0.46785 0.0
C389 C 0.78713 0.77274 0.71721 0.0
C390 C 0.74487 0.73538 0.70847 0.0
C391 C 0.78801 0.77067 0.73384 0.0
C392 C 0.74666 0.73116 0.74232 0.0
H393 H 0.8227 0.80049 0.71122 0.0
H394 H 0.82395 0.79762 0.73999 0.0
S395 S 0.61683 0.63599 0.72499 0.0
N396 N 0.653 0.66678 0.70945 0.0
N397 N 0.65503 0.66248 0.7408 0.0
C398 C 0.69968 0.69887 0.73377 0.0
C399 C 0.69873 0.70106 0.7168 0.0
C400 C 0.0507 0.96723 0.16617 0.0
C401 C 0.05686 0.03271 0.16791 0.0
C402 C 0.99163 0.93835 0.16676 0.0
C403 C 0.93634 0.9739 0.16895 0.0
H404 H 0.09169 0.93797 0.16405 0.0
H405 H 0.98929 0.88789 0.16496 0.0
S406 S 0.92705 0.14636 0.17546 0.0
N407 N 0.00285 0.13203 0.17299 0.0
N408 N 0.89164 0.07747 0.1739 0.0
C409 C 0.94187 0.03914 0.17126 0.0
C410 C 0.00218 0.06861 0.1708 0.0
C411 C 0.05744 0.5082 0.41513 0.0
C412 C 0.02155 0.45264 0.41611 0.0
C413 C 0.02858 0.56739 0.41481 0.0
C414 C 0.96275 0.5734 0.41561 0.0
H415 H 0.10829 0.5061 0.4142 0.0
H416 H 0.05819 0.60865 0.41372 0.0
S417 S 0.84755 0.4426 0.41936 0.0
N418 N 0.91684 0.40738 0.41861 0.0
N419 N 0.86237 0.51872 0.41815 0.0
C420 C 0.92629 0.51831 0.41713 0.0
C421 C 0.95575 0.45791 0.41733 0.0
C422 C 0.4811 0.43448 0.66487 0.0
C423 C 0.42553 0.47032 0.66618 0.0
C424 C 0.54023 0.46332 0.66434 0.0
C425 C 0.54614 0.5291 0.66522 0.0
H426 H 0.47902 0.38366 0.66391 0.0
H427 H 0.5815 0.43372 0.66306 0.0
S428 S 0.41527 0.64415 0.66971 0.0
N429 N 0.38017 0.57492 0.66901 0.0
N430 N 0.49134 0.62937 0.66813 0.0
C431 C 0.49103 0.56552 0.66697 0.0
C432 C 0.43072 0.53608 0.66741 0.0
C433 C 0.51408 0.02997 0.91504 0.0
C434 C 0.44817 0.03582 0.91546 0.0
C435 C 0.54289 0.97086 0.91423 0.0
C436 C 0.50692 0.91527 0.91364 0.0
H437 H 0.54383 0.07139 0.91521 0.0
H438 H 0.59387 0.96898 0.91377 0.0
S439 S 0.33257 0.90453 0.91499 0.0
N440 N 0.34751 0.98073 0.91573 0.0
N441 N 0.40194 0.86954 0.91405 0.0
C442 C 0.44097 0.92023 0.91431 0.0
C443 C 0.41154 0.98052 0.91528 0.0
C444 C -0.00662 0.44719 0.03677 0.0
C445 C 0.04897 0.48308 0.03588 0.0
C446 C 0.93414 0.47601 0.03688 0.0
C447 C 0.92813 0.54178 0.03592 0.0
H448 H -0.00449 0.39641 0.0379 0.0
H449 H 0.89281 0.44641 0.03798 0.0
S450 S 0.05905 0.65675 0.032 0.0
N451 N 0.09431 0.58756 0.03309 0.0
N452 N 0.98285 0.64199 0.03311 0.0
C453 C 0.98326 0.57817 0.03437 0.0
C454 C 0.04371 0.54875 0.03441 0.0
C455 C 0.47353 0.50009 0.28653 0.0
C456 C 0.53942 0.50607 0.28689 0.0
C457 C 0.44484 0.44103 0.28738 0.0
C458 C 0.48087 0.38559 0.28876 0.0
H459 H 0.44363 0.5414 0.28578 0.0
H460 H 0.39382 0.43911 0.28727 0.0
S461 S 0.65535 0.37514 0.28944 0.0
N462 N 0.64027 0.45122 0.28808 0.0
N463 N 0.586 0.34007 0.2898 0.0
C464 C 0.54686 0.39063 0.28879 0.0
C465 C 0.57622 0.4509 0.2878 0.0
C466 C 0.54714 0.03887 0.53896 0.0
C467 C 0.55282 0.97307 0.53801 0.0
C468 C 0.48804 0.06799 0.53875 0.0
C469 C 0.43225 0.03244 0.53774 0.0
H470 H 0.58863 0.06827 0.54001 0.0
H471 H 0.48622 0.11882 0.53972 0.0
S472 S 0.42122 0.85866 0.53428 0.0
N473 N 0.49751 0.87307 0.53543 0.0
N474 N 0.38633 0.92806 0.53518 0.0
C475 C 0.43714 0.96665 0.53648 0.0
C476 C 0.49745 0.93692 0.53657 0.0
C477 C 0.95846 0.03884 0.78622 0.0
C478 C 0.02429 0.04486 0.78541 0.0
C479 C 0.92977 0.97967 0.78594 0.0
C480 C 0.9658 0.92414 0.78496 0.0
H481 H 0.92871 0.08007 0.78737 0.0
H482 H 0.87894 0.97757 0.78693 0.0
S483 S 0.13965 0.91412 0.78129 0.0
N484 N 0.12471 0.99022 0.78258 0.0
N485 N 0.07049 0.87887 0.78221 0.0
C486 C 0.03154 0.9294 0.78363 0.0
C487 C 0.06085 0.98979 0.7838 0.0
C488 C 0.55759 0.017 0.16306 0.0
C489 C 0.54854 0.95145 0.16233 0.0
C490 C 0.50644 0.05866 0.16285 0.0
C491 C 0.44398 0.03658 0.16204 0.0
H492 H 0.60467 0.03661 0.16353 0.0
H493 H 0.51618 0.10869 0.16331 0.0
S494 S 0.39435 0.86896 0.16051 0.0
N495 N 0.47202 0.86619 0.16119 0.0
N496 N 0.37592 0.94444 0.16083 0.0
C497 C 0.43411 0.97103 0.16158 0.0
C498 C 0.4863 0.92855 0.1617 0.0
C499 C 0.93809 0.02284 0.41065 0.0
C500 C 0.96011 0.96028 0.41095 0.0
C501 C 0.97977 0.07379 0.41127 0.0
C502 C 0.04533 0.06443 0.4121 0.0
H503 H 0.8881 0.03282 0.40986 0.0
H504 H 0.96028 0.12091 0.41079 0.0
S505 S 0.12755 0.90999 0.41389 0.0
N506 N 0.05211 0.89187 0.41265 0.0
N507 N 0.1304 0.98762 0.41379 0.0
C508 C 0.06811 0.00214 0.41268 0.0
C509 C 0.02558 0.95014 0.41213 0.0
C510 C 0.97803 0.43354 0.66428 0.0
C511 C 0.04019 0.45531 0.66636 0.0
C512 C 0.92695 0.47526 0.66388 0.0
C513 C 0.93586 0.54058 0.66543 0.0
H514 H 0.96857 0.38384 0.66266 0.0
H515 H 0.88027 0.45612 0.66189 0.0
S516 S 0.0883 0.62178 0.67256 0.0
N517 N 0.10716 0.54664 0.67105 0.0
N518 N 0.01111 0.62491 0.67023 0.0
C519 C -0.00257 0.56297 0.66806 0.0
C520 C 0.04953 0.52042 0.66856 0.0
C521 C 0.42663 0.4865 0.91177 0.0
C522 C 0.44862 0.424 0.91253 0.0
C523 C 0.46835 0.53739 0.91137 0.0
C524 C 0.534 0.52811 0.91163 0.0
H525 H 0.3766 0.49653 0.91141 0.0
H526 H 0.44869 0.5844 0.91064 0.0
S527 S 0.61633 0.37383 0.91406 0.0
N528 N 0.54075 0.35569 0.91389 0.0
N529 N 0.61923 0.45138 0.91312 0.0
C530 C 0.55684 0.46588 0.91259 0.0
C531 C 0.51421 0.4139 0.91306 0.0
C532 C 0.47817 0.56661 0.04196 0.0
C533 C 0.54071 0.54452 0.04248 0.0
C534 C 0.42712 0.52499 0.04217 0.0
C535 C 0.43635 0.45946 0.04304 0.0
H536 H 0.46829 0.61662 0.04138 0.0
H537 H 0.37998 0.54463 0.04185 0.0
S538 S 0.59087 0.37702 0.0444 0.0
N539 N 0.60908 0.45247 0.0437 0.0
N540 N 0.51317 0.37423 0.04412 0.0
C541 C 0.49869 0.43656 0.04344 0.0
C542 C 0.55078 0.47902 0.04314 0.0
C543 C 0.51655 0.00819 0.29133 0.0
C544 C 0.45089 -0.00076 0.29104 0.0
C545 C 0.55814 0.95715 0.29086 0.0
C546 C 0.53601 0.89478 0.28999 0.0
H547 H 0.53635 0.05508 0.29217 0.0
H548 H 0.60819 0.96694 0.29129 0.0
S549 S 0.36823 0.84548 0.28819 0.0
N550 N 0.36548 0.92301 0.2893 0.0
N551 N 0.44378 0.82695 0.2884 0.0
C552 C 0.47042 0.88501 0.28935 0.0
C553 C 0.42789 0.93718 0.2899 0.0
C554 C 0.00358 0.94983 0.54043 0.0
C555 C 0.94085 0.97152 0.54022 0.0
C556 C 0.05436 0.99177 0.54019 0.0
C557 C 0.0447 0.0573 0.53982 0.0
H558 H 0.01388 0.89989 0.54088 0.0
H559 H 0.1016 0.97243 0.54058 0.0
S560 S 0.88973 0.1388 0.53842 0.0
N561 N 0.87195 0.06324 0.53909 0.0
N562 N 0.9674 0.14204 0.53866 0.0
C563 C 0.98224 0.07979 0.53932 0.0
C564 C 0.9304 0.03698 0.5395 0.0
C565 C 0.0075 0.54608 0.78883 0.0
C566 C 0.94196 0.537 0.78785 0.0
C567 C 0.04911 0.49496 0.78931 0.0
C568 C 0.02704 0.43251 0.78871 0.0
H569 H 0.02702 0.5931 0.78963 0.0
H570 H 0.09906 0.50471 0.79035 0.0
S571 S 0.85971 0.38311 0.78493 0.0
N572 N 0.85691 0.46073 0.78545 0.0
N573 N 0.93507 0.36459 0.78631 0.0
C574 C 0.96163 0.4227 0.78721 0.0
C575 C 0.91916 0.47489 0.78681 0.0
loop_
_geom_bond_atom_site_label_1
_geom_bond_atom_site_label_2
_geom_bond_distance
_geom_bond_site_symmetry_2
_ccdc_geom_bond_type
C0 O1 1.306 . S
C0 O3 1.160 . S
O1 C0 1.306 . S
O1 Cd2 2.228 . S
Cd2 O1 2.228 . S
Cd2 O6 2.273 . S
Cd2 O10 2.277 . S
O3 C0 1.160 . S
O3 Cd4 2.203 . S
Cd4 O3 2.203 . S
Cd4 O6 2.411 . S
Cd4 O7 2.333 . S
Cd4 O8 2.352 . S
Cd4 O12 2.277 . S
Cd4 O13 2.356 . S
C5 O10 1.209 . S
C5 O12 1.226 . S
O6 Cd2 2.273 . S
O6 Cd4 2.411 . S
O6 C9 1.320 . S
O7 Cd4 2.333 . S
O7 C9 1.214 . S
O8 Cd4 2.352 . S
O8 C11 1.258 . S
C9 O6 1.320 . S
C9 O7 1.214 . S
O10 Cd2 2.277 . S
O10 C5 1.209 . S
C11 O8 1.258 . S
C11 O13 1.282 . S
O12 Cd4 2.277 . S
O12 C5 1.226 . S
O13 Cd4 2.356 . S
O13 C11 1.282 . S
C14 O15 1.306 . S
C14 O17 1.160 . S
O15 C14 1.306 . S
O15 Cd16 2.228 . S
Cd16 O15 2.228 . S
Cd16 O20 2.273 . S
Cd16 O24 2.277 . S
O17 C14 1.160 . S
O17 Cd18 2.203 . S
Cd18 O17 2.203 . S
Cd18 O20 2.411 . S
Cd18 O21 2.333 . S
Cd18 O22 2.352 . S
Cd18 O26 2.277 . S
Cd18 O27 2.356 . S
C19 O24 1.209 . S
C19 O26 1.226 . S
O20 Cd16 2.273 . S
O20 Cd18 2.411 . S
O20 C23 1.320 . S
O21 Cd18 2.333 . S
O21 C23 1.214 . S
O22 Cd18 2.352 . S
O22 C25 1.258 . S
C23 O20 1.320 . S
C23 O21 1.214 . S
O24 Cd16 2.277 . S
O24 C19 1.209 . S
C25 O22 1.258 . S
C25 O27 1.282 . S
O26 Cd18 2.277 . S
O26 C19 1.226 . S
O27 Cd18 2.356 . S
O27 C25 1.282 . S
C28 O29 1.306 . S
C28 O31 1.160 . S
O29 C28 1.306 . S
O29 Cd30 2.228 . S
Cd30 O29 2.228 . S
Cd30 O34 2.273 . S
Cd30 O38 2.277 . S
O31 C28 1.160 . S
O31 Cd32 2.203 . S
Cd32 O31 2.203 . S
Cd32 O34 2.411 . S
Cd32 O35 2.333 . S
Cd32 O36 2.352 . S
Cd32 O40 2.277 . S
Cd32 O41 2.356 . S
C33 O38 1.209 . S
C33 O40 1.226 . S
O34 Cd30 2.273 . S
O34 Cd32 2.411 . S
O34 C37 1.320 . S
O35 Cd32 2.333 . S
O35 C37 1.214 . S
O36 Cd32 2.352 . S
O36 C39 1.258 . S
C37 O34 1.320 . S
C37 O35 1.214 . S
O38 Cd30 2.277 . S
O38 C33 1.209 . S
C39 O36 1.258 . S
C39 O41 1.282 . S
O40 Cd32 2.277 . S
O40 C33 1.226 . S
O41 Cd32 2.356 . S
O41 C39 1.282 . S
C42 O43 1.306 . S
C42 O45 1.160 . S
O43 C42 1.306 . S
O43 Cd44 2.228 . S
Cd44 O43 2.228 . S
Cd44 O48 2.273 . S
Cd44 O52 2.277 . S
O45 C42 1.160 . S
O45 Cd46 2.203 . S
Cd46 O45 2.203 . S
Cd46 O48 2.411 . S
Cd46 O49 2.333 . S
Cd46 O50 2.352 . S
Cd46 O54 2.277 . S
Cd46 O55 2.356 . S
C47 O52 1.209 . S
C47 O54 1.226 . S
O48 Cd44 2.273 . S
O48 Cd46 2.411 . S
O48 C51 1.320 . S
O49 Cd46 2.333 . S
O49 C51 1.214 . S
O50 Cd46 2.352 . S
O50 C53 1.258 . S
C51 O48 1.320 . S
C51 O49 1.214 . S
O52 Cd44 2.277 . S
O52 C47 1.209 . S
C53 O50 1.258 . S
C53 O55 1.282 . S
O54 Cd46 2.277 . S
O54 C47 1.226 . S
O55 Cd46 2.356 . S
O55 C53 1.282 . S
C56 O57 1.306 . S
C56 O59 1.160 . S
O57 C56 1.306 . S
O57 Cd58 2.228 . S
Cd58 O57 2.228 . S
Cd58 O62 2.273 . S
Cd58 O66 2.277 . S
O59 C56 1.160 . S
O59 Cd60 2.203 . S
Cd60 O59 2.203 . S
Cd60 O62 2.411 . S
Cd60 O63 2.333 . S
Cd60 O64 2.352 . S
Cd60 O68 2.277 . S
Cd60 O69 2.356 . S
C61 O66 1.209 . S
C61 O68 1.226 . S
O62 Cd58 2.273 . S
O62 Cd60 2.411 . S
O62 C65 1.320 . S
O63 Cd60 2.333 . S
O63 C65 1.214 . S
O64 Cd60 2.352 . S
O64 C67 1.258 . S
C65 O62 1.320 . S
C65 O63 1.214 . S
O66 Cd58 2.277 . S
O66 C61 1.209 . S
C67 O64 1.258 . S
C67 O69 1.282 . S
O68 Cd60 2.277 . S
O68 C61 1.226 . S
O69 Cd60 2.356 . S
O69 C67 1.282 . S
C70 O71 1.306 . S
C70 O73 1.160 . S
O71 C70 1.306 . S
O71 Cd72 2.228 . S
Cd72 O71 2.228 . S
Cd72 O76 2.273 . S
Cd72 O80 2.277 . S
O73 C70 1.160 . S
O73 Cd74 2.203 . S
Cd74 O73 2.203 . S
Cd74 O76 2.411 . S
Cd74 O77 2.333 . S
Cd74 O78 2.352 . S
Cd74 O82 2.277 . S
Cd74 O83 2.356 . S
C75 O80 1.209 . S
C75 O82 1.226 . S
O76 Cd72 2.273 . S
O76 Cd74 2.411 . S
O76 C79 1.320 . S
O77 Cd74 2.333 . S
O77 C79 1.214 . S
O78 Cd74 2.352 . S
O78 C81 1.258 . S
C79 O76 1.320 . S
C79 O77 1.214 . S
O80 Cd72 2.277 . S
O80 C75 1.209 . S
C81 O78 1.258 . S
C81 O83 1.282 . S
O82 Cd74 2.277 . S
O82 C75 1.226 . S
O83 Cd74 2.356 . S
O83 C81 1.282 . S
C84 O85 1.306 . S
C84 O87 1.160 . S
O85 C84 1.306 . S
O85 Cd86 2.228 . S
Cd86 O85 2.228 . S
Cd86 O90 2.273 . S
Cd86 O94 2.277 . S
O87 C84 1.160 . S
O87 Cd88 2.203 . S
Cd88 O87 2.203 . S
Cd88 O90 2.411 . S
Cd88 O91 2.333 . S
Cd88 O92 2.352 . S
Cd88 O96 2.277 . S
Cd88 O97 2.356 . S
C89 O94 1.209 . S
C89 O96 1.226 . S
O90 Cd86 2.273 . S
O90 Cd88 2.411 . S
O90 C93 1.320 . S
O91 Cd88 2.333 . S
O91 C93 1.214 . S
O92 Cd88 2.352 . S
O92 C95 1.258 . S
C93 O90 1.320 . S
C93 O91 1.214 . S
O94 Cd86 2.277 . S
O94 C89 1.209 . S
C95 O92 1.258 . S
C95 O97 1.282 . S
O96 Cd88 2.277 . S
O96 C89 1.226 . S
O97 Cd88 2.356 . S
O97 C95 1.282 . S
C98 O99 1.306 . S
C98 O101 1.160 . S
O99 C98 1.306 . S
O99 Cd100 2.228 . S
Cd100 O99 2.228 . S
Cd100 O104 2.273 . S
Cd100 O108 2.277 . S
O101 C98 1.160 . S
O101 Cd102 2.203 . S
Cd102 O101 2.203 . S
Cd102 O104 2.411 . S
Cd102 O105 2.333 . S
Cd102 O106 2.352 . S
Cd102 O110 2.277 . S
Cd102 O111 2.356 . S
C103 O108 1.209 . S
C103 O110 1.226 . S
O104 Cd100 2.273 . S
O104 Cd102 2.411 . S
O104 C107 1.320 . S
O105 Cd102 2.333 . S
O105 C107 1.214 . S
O106 Cd102 2.352 . S
O106 C109 1.258 . S
C107 O104 1.320 . S
C107 O105 1.214 . S
O108 Cd100 2.277 . S
O108 C103 1.209 . S
C109 O106 1.258 . S
C109 O111 1.282 . S
O110 Cd102 2.277 . S
O110 C103 1.226 . S
O111 Cd102 2.356 . S
O111 C109 1.282 . S
C112 O113 1.306 . S
C112 O115 1.160 . S
O113 C112 1.306 . S
O113 Cd114 2.228 . S
Cd114 O113 2.228 . S
Cd114 O118 2.273 . S
Cd114 O122 2.277 . S
O115 C112 1.160 . S
O115 Cd116 2.203 . S
Cd116 O115 2.203 . S
Cd116 O118 2.411 . S
Cd116 O119 2.333 . S
Cd116 O120 2.352 . S
Cd116 O124 2.277 . S
Cd116 O125 2.356 . S
C117 O122 1.209 . S
C117 O124 1.226 . S
O118 Cd114 2.273 . S
O118 Cd116 2.411 . S
O118 C121 1.320 . S
O119 Cd116 2.333 . S
O119 C121 1.214 . S
O120 Cd116 2.352 . S
O120 C123 1.258 . S
C121 O118 1.320 . S
C121 O119 1.214 . S
O122 Cd114 2.277 . S
O122 C117 1.209 . S
C123 O120 1.258 . S
C123 O125 1.282 . S
O124 Cd116 2.277 . S
O124 C117 1.226 . S
O125 Cd116 2.356 . S
O125 C123 1.282 . S
C126 O127 1.306 . S
C126 O129 1.160 . S
O127 C126 1.306 . S
O127 Cd128 2.228 . S
Cd128 O127 2.228 . S
Cd128 O132 2.273 . S
Cd128 O136 2.277 . S
O129 C126 1.160 . S
O129 Cd130 2.203 . S
Cd130 O129 2.203 . S
Cd130 O132 2.411 . S
Cd130 O133 2.333 . S
Cd130 O134 2.352 . S
Cd130 O138 2.277 . S
Cd130 O139 2.356 . S
C131 O136 1.209 . S
C131 O138 1.226 . S
O132 Cd128 2.273 . S
O132 Cd130 2.411 . S
O132 C135 1.320 . S
O133 Cd130 2.333 . S
O133 C135 1.214 . S
O134 Cd130 2.352 . S
O134 C137 1.258 . S
C135 O132 1.320 . S
C135 O133 1.214 . S
O136 Cd128 2.277 . S
O136 C131 1.209 . S
C137 O134 1.258 . S
C137 O139 1.282 . S
O138 Cd130 2.277 . S
O138 C131 1.226 . S
O139 Cd130 2.356 . S
O139 C137 1.282 . S
C140 O141 1.306 . S
C140 O143 1.160 . S
O141 C140 1.306 . S
O141 Cd142 2.228 . S
Cd142 O141 2.228 . S
Cd142 O146 2.273 . S
Cd142 O150 2.277 . S
O143 C140 1.160 . S
O143 Cd144 2.203 . S
Cd144 O143 2.203 . S
Cd144 O146 2.411 . S
Cd144 O147 2.333 . S
Cd144 O148 2.352 . S
Cd144 O152 2.277 . S
Cd144 O153 2.356 . S
C145 O150 1.209 . S
C145 O152 1.226 . S
O146 Cd142 2.273 . S
O146 Cd144 2.411 . S
O146 C149 1.320 . S
O147 Cd144 2.333 . S
O147 C149 1.214 . S
O148 Cd144 2.352 . S
O148 C151 1.258 . S
C149 O146 1.320 . S
C149 O147 1.214 . S
O150 Cd142 2.277 . S
O150 C145 1.209 . S
C151 O148 1.258 . S
C151 O153 1.282 . S
O152 Cd144 2.277 . S
O152 C145 1.226 . S
O153 Cd144 2.356 . S
O153 C151 1.282 . S
C154 O155 1.306 . S
C154 O157 1.160 . S
O155 C154 1.306 . S
O155 Cd156 2.228 . S
Cd156 O155 2.228 . S
Cd156 O160 2.273 . S
Cd156 O164 2.277 . S
O157 C154 1.160 . S
O157 Cd158 2.203 . S
Cd158 O157 2.203 . S
Cd158 O160 2.411 . S
Cd158 O161 2.333 . S
Cd158 O162 2.352 . S
Cd158 O166 2.277 . S
Cd158 O167 2.356 . S
C159 O164 1.209 . S
C159 O166 1.226 . S
O160 Cd156 2.273 . S
O160 Cd158 2.411 . S
O160 C163 1.320 . S
O161 Cd158 2.333 . S
O161 C163 1.214 . S
O162 Cd158 2.352 . S
O162 C165 1.258 . S
C163 O160 1.320 . S
C163 O161 1.214 . S
O164 Cd156 2.277 . S
O164 C159 1.209 . S
C165 O162 1.258 . S
C165 O167 1.282 . S
O166 Cd158 2.277 . S
O166 C159 1.226 . S
O167 Cd158 2.356 . S
O167 C165 1.282 . S
C168 O169 1.306 . S
C168 O171 1.160 . S
O169 C168 1.306 . S
O169 Cd170 2.228 . S
Cd170 O169 2.228 . S
Cd170 O174 2.273 . S
Cd170 O178 2.277 . S
O171 C168 1.160 . S
O171 Cd172 2.203 . S
Cd172 O171 2.203 . S
Cd172 O174 2.411 . S
Cd172 O175 2.333 . S
Cd172 O176 2.352 . S
Cd172 O180 2.277 . S
Cd172 O181 2.356 . S
C173 O178 1.209 . S
C173 O180 1.226 . S
O174 Cd170 2.273 . S
O174 Cd172 2.411 . S
O174 C177 1.320 . S
O175 Cd172 2.333 . S
O175 C177 1.214 . S
O176 Cd172 2.352 . S
O176 C179 1.258 . S
C177 O174 1.320 . S
C177 O175 1.214 . S
O178 Cd170 2.277 . S
O178 C173 1.209 . S
C179 O176 1.258 . S
C179 O181 1.282 . S
O180 Cd172 2.277 . S
O180 C173 1.226 . S
O181 Cd172 2.356 . S
O181 C179 1.282 . S
C182 O183 1.306 . S
C182 O185 1.160 . S
O183 C182 1.306 . S
O183 Cd184 2.228 . S
Cd184 O183 2.228 . S
Cd184 O188 2.273 . S
Cd184 O192 2.277 . S
O185 C182 1.160 . S
O185 Cd186 2.203 . S
Cd186 O185 2.203 . S
Cd186 O188 2.411 . S
Cd186 O189 2.333 . S
Cd186 O190 2.352 . S
Cd186 O194 2.277 . S
Cd186 O195 2.356 . S
C187 O192 1.209 . S
C187 O194 1.226 . S
O188 Cd184 2.273 . S
O188 Cd186 2.411 . S
O188 C191 1.320 . S
O189 Cd186 2.333 . S
O189 C191 1.214 . S
O190 Cd186 2.352 . S
O190 C193 1.258 . S
C191 O188 1.320 . S
C191 O189 1.214 . S
O192 Cd184 2.277 . S
O192 C187 1.209 . S
C193 O190 1.258 . S
C193 O195 1.282 . S
O194 Cd186 2.277 . S
O194 C187 1.226 . S
O195 Cd186 2.356 . S
O195 C193 1.282 . S
C196 O197 1.306 . S
C196 O199 1.160 . S
O197 C196 1.306 . S
O197 Cd198 2.228 . S
Cd198 O197 2.228 . S
Cd198 O202 2.273 . S
Cd198 O206 2.277 . S
O199 C196 1.160 . S
O199 Cd200 2.203 . S
Cd200 O199 2.203 . S
Cd200 O202 2.411 . S
Cd200 O203 2.333 . S
Cd200 O204 2.352 . S
Cd200 O208 2.277 . S
Cd200 O209 2.356 . S
C201 O206 1.209 . S
C201 O208 1.226 . S
O202 Cd198 2.273 . S
O202 Cd200 2.411 . S
O202 C205 1.320 . S
O203 Cd200 2.333 . S
O203 C205 1.214 . S
O204 Cd200 2.352 . S
O204 C207 1.258 . S
C205 O202 1.320 . S
C205 O203 1.214 . S
O206 Cd198 2.277 . S
O206 C201 1.209 . S
C207 O204 1.258 . S
C207 O209 1.282 . S
O208 Cd200 2.277 . S
O208 C201 1.226 . S
O209 Cd200 2.356 . S
O209 C207 1.282 . S
C210 O211 1.306 . S
C210 O213 1.160 . S
O211 C210 1.306 . S
O211 Cd212 2.228 . S
Cd212 O211 2.228 . S
Cd212 O216 2.273 . S
Cd212 O220 2.277 . S
O213 C210 1.160 . S
O213 Cd214 2.203 . S
Cd214 O213 2.203 . S
Cd214 O216 2.411 . S
Cd214 O217 2.333 . S
Cd214 O218 2.352 . S
Cd214 O222 2.277 . S
Cd214 O223 2.356 . S
C215 O220 1.209 . S
C215 O222 1.226 . S
O216 Cd212 2.273 . S
O216 Cd214 2.411 . S
O216 C219 1.320 . S
O217 Cd214 2.333 . S
O217 C219 1.214 . S
O218 Cd214 2.352 . S
O218 C221 1.258 . S
C219 O216 1.320 . S
C219 O217 1.214 . S
O220 Cd212 2.277 . S
O220 C215 1.209 . S
C221 O218 1.258 . S
C221 O223 1.282 . S
O222 Cd214 2.277 . S
O222 C215 1.226 . S
O223 Cd214 2.356 . S
O223 C221 1.282 . S
C224 C225 1.369 . S
C224 C226 1.419 . S
C224 H228 0.930 . S
C225 C224 1.369 . S
C225 C234 1.429 . S
C226 C224 1.419 . S
C226 C227 1.363 . S
C226 H229 0.929 . S
C227 C226 1.363 . S
C227 C233 1.428 . S
H228 C224 0.930 . S
H229 C226 0.929 . S
S230 N231 1.613 . S
S230 N232 1.610 . S
N231 S230 1.613 . S
N231 C234 1.350 . S
N232 S230 1.610 . S
N232 C233 1.351 . S
C233 C227 1.428 . S
C233 N232 1.351 . S
C233 C234 1.434 . S
C234 C225 1.429 . S
C234 N231 1.350 . S
C234 C233 1.434 . S
C235 C236 1.369 . S
C235 C237 1.419 . S
C235 H239 0.930 . S
C236 C235 1.369 . S
C236 C245 1.429 . S
C237 C235 1.419 . S
C237 C238 1.363 . S
C237 H240 0.929 . S
C238 C237 1.363 . S
C238 C244 1.428 . S
H239 C235 0.930 . S
H240 C237 0.929 . S
S241 N242 1.613 . S
S241 N243 1.610 . S
N242 S241 1.613 . S
N242 C245 1.350 . S
N243 S241 1.610 . S
N243 C244 1.351 . S
C244 C238 1.428 . S
C244 N243 1.351 . S
C244 C245 1.434 . S
C245 C236 1.429 . S
C245 N242 1.350 . S
C245 C244 1.434 . S
C246 C247 1.369 . S
C246 C248 1.419 . S
C246 H250 0.930 . S
C247 C246 1.369 . S
C247 C256 1.429 . S
C248 C246 1.419 . S
C248 C249 1.363 . S
C248 H251 0.929 . S
C249 C248 1.363 . S
C249 C255 1.428 . S
H250 C246 0.930 . S
H251 C248 0.929 . S
S252 N253 1.613 . S
S252 N254 1.610 . S
N253 S252 1.613 . S
N253 C256 1.350 . S
N254 S252 1.610 . S
N254 C255 1.351 . S
C255 C249 1.428 . S
C255 N254 1.351 . S
C255 C256 1.434 . S
C256 C247 1.429 . S
C256 N253 1.350 . S
C256 C255 1.434 . S
C257 C258 1.369 . S
C257 C259 1.419 . S
C257 H261 0.930 . S
C258 C257 1.369 . S
C258 C267 1.429 . S
C259 C257 1.419 . S
C259 C260 1.363 . S
C259 H262 0.929 . S
C260 C259 1.363 . S
C260 C266 1.428 . S
H261 C257 0.930 . S
H262 C259 0.929 . S
S263 N264 1.613 . S
S263 N265 1.610 . S
N264 S263 1.613 . S
N264 C267 1.350 . S
N265 S263 1.610 . S
N265 C266 1.351 . S
C266 C260 1.428 . S
C266 N265 1.351 . S
C266 C267 1.434 . S
C267 C258 1.429 . S
C267 N264 1.350 . S
C267 C266 1.434 . S
C268 C269 1.369 . S
C268 C270 1.419 . S
C268 H272 0.930 . S
C269 C268 1.369 . S
C269 C278 1.429 . S
C270 C268 1.419 . S
C270 C271 1.363 . S
C270 H273 0.929 . S
C271 C270 1.363 . S
C271 C277 1.428 . S
H272 C268 0.930 . S
H273 C270 0.929 . S
S274 N275 1.613 . S
S274 N276 1.610 . S
N275 S274 1.613 . S
N275 C278 1.350 . S
N276 S274 1.610 . S
N276 C277 1.351 . S
C277 C271 1.428 . S
C277 N276 1.351 . S
C277 C278 1.434 . S
C278 C269 1.429 . S
C278 N275 1.350 . S
C278 C277 1.434 . S
C279 C280 1.369 . S
C279 C281 1.419 . S
C279 H283 0.930 . S
C280 C279 1.369 . S
C280 C289 1.429 . S
C281 C279 1.419 . S
C281 C282 1.363 . S
C281 H284 0.929 . S
C282 C281 1.363 . S
C282 C288 1.428 . S
H283 C279 0.930 . S
H284 C281 0.929 . S
S285 N286 1.613 . S
S285 N287 1.610 . S
N286 S285 1.613 . S
N286 C289 1.350 . S
N287 S285 1.610 . S
N287 C288 1.351 . S
C288 C282 1.428 . S
C288 N287 1.351 . S
C288 C289 1.434 . S
C289 C280 1.429 . S
C289 N286 1.350 . S
C289 C288 1.434 . S
C290 C291 1.369 . S
C290 C292 1.419 . S
C290 H294 0.930 . S
C291 C290 1.369 . S
C291 C300 1.429 . S
C292 C290 1.419 . S
C292 C293 1.363 . S
C292 H295 0.929 . S
C293 C292 1.363 . S
C293 C299 1.428 . S
H294 C290 0.930 . S
H295 C292 0.929 . S
S296 N297 1.613 . S
S296 N298 1.610 . S
N297 S296 1.613 . S
N297 C300 1.350 . S
N298 S296 1.610 . S
N298 C299 1.351 . S
C299 C293 1.428 . S
C299 N298 1.351 . S
C299 C300 1.434 . S
C300 C291 1.429 . S
C300 N297 1.350 . S
C300 C299 1.434 . S
C301 C302 1.369 . S
C301 C303 1.419 . S
C301 H305 0.930 . S
C302 C301 1.369 . S
C302 C311 1.429 . S
C303 C301 1.419 . S
C303 C304 1.363 . S
C303 H306 0.929 . S
C304 C303 1.363 . S
C304 C310 1.428 . S
H305 C301 0.930 . S
H306 C303 0.929 . S
S307 N308 1.613 . S
S307 N309 1.610 . S
N308 S307 1.613 . S
N308 C311 1.350 . S
N309 S307 1.610 . S
N309 C310 1.351 . S
C310 C304 1.428 . S
C310 N309 1.351 . S
C310 C311 1.434 . S
C311 C302 1.429 . S
C311 N308 1.350 . S
C311 C310 1.434 . S
C312 C313 1.369 . S
C312 C314 1.419 . S
C312 H316 0.930 . S
C313 C312 1.369 . S
C313 C322 1.429 . S
C314 C312 1.419 . S
C314 C315 1.363 . S
C314 H317 0.929 . S
C315 C314 1.363 . S
C315 C321 1.428 . S
H316 C312 0.930 . S
H317 C314 0.929 . S
S318 N319 1.613 . S
S318 N320 1.610 . S
N319 S318 1.613 . S
N319 C322 1.350 . S
N320 S318 1.610 . S
N320 C321 1.351 . S
C321 C315 1.428 . S
C321 N320 1.351 . S
C321 C322 1.434 . S
C322 C313 1.429 . S
C322 N319 1.350 . S
C322 C321 1.434 . S
C323 C324 1.369 . S
C323 C325 1.419 . S
C323 H327 0.930 . S
C324 C323 1.369 . S
C324 C333 1.429 . S
C325 C323 1.419 . S
C325 C326 1.363 . S
C325 H328 0.929 . S
C326 C325 1.363 . S
C326 C332 1.428 . S
H327 C323 0.930 . S
H328 C325 0.929 . S
S329 N330 1.613 . S
S329 N331 1.610 . S
N330 S329 1.613 . S
N330 C333 1.350 . S
N331 S329 1.610 . S
N331 C332 1.351 . S
C332 C326 1.428 . S
C332 N331 1.351 . S
C332 C333 1.434 . S
C333 C324 1.429 . S
C333 N330 1.350 . S
C333 C332 1.434 . S
C334 C335 1.369 . S
C334 C336 1.419 . S
C334 H338 0.930 . S
C335 C334 1.369 . S
C335 C344 1.429 . S
C336 C334 1.419 . S
C336 C337 1.363 . S
C336 H339 0.929 . S
C337 C336 1.363 . S
C337 C343 1.428 . S
H338 C334 0.930 . S
H339 C336 0.929 . S
S340 N341 1.613 . S
S340 N342 1.610 . S
N341 S340 1.613 . S
N341 C344 1.350 . S
N342 S340 1.610 . S
N342 C343 1.351 . S
C343 C337 1.428 . S
C343 N342 1.351 . S
C343 C344 1.434 . S
C344 C335 1.429 . S
C344 N341 1.350 . S
C344 C343 1.434 . S
C345 C346 1.369 . S
C345 C347 1.419 1_554 S
C345 H349 0.930 . S
C346 C345 1.369 . S
C346 C355 1.429 . S
C347 C345 1.419 1_556 S
C347 C348 1.363 . S
C347 H350 0.929 . S
C348 C347 1.363 . S
C348 C354 1.428 . S
H349 C345 0.930 . S
H350 C347 0.929 . S
S351 N352 1.613 . S
S351 N353 1.610 1_554 S
N352 S351 1.613 . S
N352 C355 1.350 . S
N353 S351 1.610 1_556 S
N353 C354 1.351 . S
C354 C348 1.428 . S
C354 N353 1.351 . S
C354 C355 1.434 1_556 S
C355 C346 1.429 . S
C355 N352 1.350 . S
C355 C354 1.434 1_554 S
C356 C357 1.369 . S
C356 C358 1.419 1_554 S
C356 H360 0.930 . S
C357 C356 1.369 . S
C357 C366 1.429 . S
C358 C356 1.419 1_556 S
C358 C359 1.363 . S
C358 H361 0.929 . S
C359 C358 1.363 . S
C359 C365 1.428 . S
H360 C356 0.930 . S
H361 C358 0.929 . S
S362 N363 1.613 . S
S362 N364 1.610 1_554 S
N363 S362 1.613 . S
N363 C366 1.350 . S
N364 S362 1.610 1_556 S
N364 C365 1.351 . S
C365 C359 1.428 . S
C365 N364 1.351 . S
C365 C366 1.434 1_556 S
C366 C357 1.429 . S
C366 N363 1.350 . S
C366 C365 1.434 1_554 S
C367 C368 1.369 . S
C367 C369 1.419 . S
C367 H371 0.930 . S
C368 C367 1.369 . S
C368 C377 1.429 . S
C369 C367 1.419 . S
C369 C370 1.363 . S
C369 H372 0.929 . S
C370 C369 1.363 . S
C370 C376 1.428 . S
H371 C367 0.930 . S
H372 C369 0.929 . S
S373 N374 1.613 . S
S373 N375 1.610 . S
N374 S373 1.613 . S
N374 C377 1.350 . S
N375 S373 1.610 . S
N375 C376 1.351 . S
C376 C370 1.428 . S
C376 N375 1.351 . S
C376 C377 1.434 . S
C377 C368 1.429 . S
C377 N374 1.350 . S
C377 C376 1.434 . S
C378 C379 1.369 . S
C378 C380 1.419 . S
C378 H382 0.930 . S
C379 C378 1.369 . S
C379 C388 1.429 . S
C380 C378 1.419 . S
C380 C381 1.363 . S
C380 H383 0.929 . S
C381 C380 1.363 . S
C381 C387 1.428 . S
H382 C378 0.930 . S
H383 C380 0.929 . S
S384 N385 1.613 . S
S384 N386 1.610 . S
N385 S384 1.613 . S
N385 C388 1.350 . S
N386 S384 1.610 . S
N386 C387 1.351 . S
C387 C381 1.428 . S
C387 N386 1.351 . S
C387 C388 1.434 . S
C388 C379 1.429 . S
C388 N385 1.350 . S
C388 C387 1.434 . S
C389 C390 1.369 . S
C389 C391 1.419 . S
C389 H393 0.930 . S
C390 C389 1.369 . S
C390 C399 1.429 . S
C391 C389 1.419 . S
C391 C392 1.363 . S
C391 H394 0.929 . S
C392 C391 1.363 . S
C392 C398 1.428 . S
H393 C389 0.930 . S
H394 C391 0.929 . S
S395 N396 1.613 . S
S395 N397 1.610 . S
N396 S395 1.613 . S
N396 C399 1.350 . S
N397 S395 1.610 . S
N397 C398 1.351 . S
C398 C392 1.428 . S
C398 N397 1.351 . S
C398 C399 1.434 . S
C399 C390 1.429 . S
C399 N396 1.350 . S
C399 C398 1.434 . S
C400 C401 1.369 1_565 S
C400 C402 1.419 1_455 S
C400 H404 0.930 . S
C401 C400 1.369 1_545 S
C401 C410 1.443 . S
C402 C400 1.419 1_655 S
C402 C403 1.363 . S
C402 H405 0.929 . S
C403 C402 1.363 . S
C403 C409 1.428 1_565 S
H404 C400 0.930 . S
H405 C402 0.929 . S
S406 N407 1.613 . S
S406 N408 1.610 . S
N407 S406 1.613 . S
N407 C410 1.348 1_655 S
N408 S406 1.610 . S
N408 C409 1.351 . S
C409 C403 1.428 1_545 S
C409 N408 1.351 . S
C409 C410 1.420 1_655 S
C410 C401 1.443 . S
C410 N407 1.348 1_455 S
C410 C409 1.420 1_455 S
C411 C412 1.369 . S
C411 C413 1.419 1_455 S
C411 H415 0.930 . S
C412 C411 1.369 . S
C412 C421 1.429 . S
C413 C411 1.419 1_655 S
C413 C414 1.363 . S
C413 H416 0.929 . S
C414 C413 1.363 . S
C414 C420 1.428 . S
H415 C411 0.930 . S
H416 C413 0.929 . S
S417 N418 1.613 1_655 S
S417 N419 1.610 . S
N418 S417 1.613 1_455 S
N418 C421 1.350 . S
N419 S417 1.610 . S
N419 C420 1.351 . S
C420 C414 1.428 . S
C420 N419 1.351 . S
C420 C421 1.434 1_655 S
C421 C412 1.429 . S
C421 N418 1.350 . S
C421 C420 1.434 1_455 S
C422 C423 1.369 . S
C422 C424 1.419 . S
C422 H426 0.930 . S
C423 C422 1.369 . S
C423 C432 1.429 . S
C424 C422 1.419 . S
C424 C425 1.363 . S
C424 H427 0.929 . S
C425 C424 1.363 . S
C425 C431 1.428 . S
H426 C422 0.930 . S
H427 C424 0.929 . S
S428 N429 1.613 . S
S428 N430 1.610 . S
N429 S428 1.613 . S
N429 C432 1.350 . S
N430 S428 1.610 . S
N430 C431 1.351 . S
C431 C425 1.428 . S
C431 N430 1.351 . S
C431 C432 1.434 . S
C432 C423 1.429 . S
C432 N429 1.350 . S
C432 C431 1.434 . S
C433 C434 1.369 . S
C433 C435 1.419 1_545 S
C433 H437 0.930 . S
C434 C433 1.369 . S
C434 C443 1.429 . S
C435 C433 1.419 1_565 S
C435 C436 1.363 . S
C435 H438 0.929 . S
C436 C435 1.363 . S
C436 C442 1.428 . S
H437 C433 0.930 . S
H438 C435 0.929 . S
S439 N440 1.613 1_565 S
S439 N441 1.610 . S
N440 S439 1.613 1_545 S
N440 C443 1.350 . S
N441 S439 1.610 . S
N441 C442 1.351 . S
C442 C436 1.428 . S
C442 N441 1.351 . S
C442 C443 1.434 1_565 S
C443 C434 1.429 . S
C443 N440 1.350 . S
C443 C442 1.434 1_545 S
C444 C445 1.369 . S
C444 C446 1.419 1_455 S
C444 H448 0.930 . S
C445 C444 1.369 . S
C445 C454 1.429 . S
C446 C444 1.419 1_655 S
C446 C447 1.363 . S
C446 H449 0.929 . S
C447 C446 1.363 . S
C447 C453 1.428 . S
H448 C444 0.930 . S
H449 C446 0.929 . S
S450 N451 1.613 . S
S450 N452 1.610 1_455 S
N451 S450 1.613 . S
N451 C454 1.350 . S
N452 S450 1.610 1_655 S
N452 C453 1.351 . S
C453 C447 1.428 . S
C453 N452 1.351 . S
C453 C454 1.434 1_655 S
C454 C445 1.429 . S
C454 N451 1.350 . S
C454 C453 1.434 1_455 S
C455 C456 1.369 . S
C455 C457 1.419 . S
C455 H459 0.930 . S
C456 C455 1.369 . S
C456 C465 1.429 . S
C457 C455 1.419 . S
C457 C458 1.363 . S
C457 H460 0.929 . S
C458 C457 1.363 . S
C458 C464 1.428 . S
H459 C455 0.930 . S
H460 C457 0.929 . S
S461 N462 1.613 . S
S461 N463 1.610 . S
N462 S461 1.613 . S
N462 C465 1.350 . S
N463 S461 1.610 . S
N463 C464 1.351 . S
C464 C458 1.428 . S
C464 N463 1.351 . S
C464 C465 1.434 . S
C465 C456 1.429 . S
C465 N462 1.350 . S
C465 C464 1.434 . S
C466 C467 1.369 1_545 S
C466 C468 1.419 . S
C466 H470 0.930 . S
C467 C466 1.369 1_565 S
C467 C476 1.429 . S
C468 C466 1.419 . S
C468 C469 1.363 . S
C468 H471 0.929 . S
C469 C468 1.363 . S
C469 C475 1.428 1_545 S
H470 C466 0.930 . S
H471 C468 0.929 . S
S472 N473 1.613 . S
S472 N474 1.610 . S
N473 S472 1.613 . S
N473 C476 1.350 . S
N474 S472 1.610 . S
N474 C475 1.351 . S
C475 C469 1.428 1_565 S
C475 N474 1.351 . S
C475 C476 1.434 . S
C476 C467 1.429 . S
C476 N473 1.350 . S
C476 C475 1.434 . S
C477 C478 1.369 1_655 S
C477 C479 1.419 1_545 S
C477 H481 0.930 . S
C478 C477 1.369 1_455 S
C478 C487 1.429 . S
C479 C477 1.419 1_565 S
C479 C480 1.363 . S
C479 H482 0.929 . S
C480 C479 1.363 . S
C480 C486 1.428 1_655 S
H481 C477 0.930 . S
H482 C479 0.929 . S
S483 N484 1.613 1_565 S
S483 N485 1.610 . S
N484 S483 1.613 1_545 S
N484 C487 1.350 . S
N485 S483 1.610 . S
N485 C486 1.351 . S
C486 C480 1.428 1_455 S
C486 N485 1.351 . S
C486 C487 1.434 1_565 S
C487 C478 1.429 . S
C487 N484 1.350 . S
C487 C486 1.434 1_545 S
C488 C489 1.375 . S
C488 C490 1.413 1_565 S
C488 H492 0.930 . S
C489 C488 1.375 . S
C489 C498 1.429 . S
C490 C488 1.413 1_545 S
C490 C491 1.363 . S
C490 H493 0.929 . S
C491 C490 1.363 . S
C491 C497 1.431 . S
H492 C488 0.930 . S
H493 C490 0.929 . S
S494 N495 1.613 . S
S494 N496 1.610 . S
N495 S494 1.613 . S
N495 C498 1.350 . S
N496 S494 1.610 . S
N496 C497 1.351 1_565 S
C497 C491 1.431 . S
C497 N496 1.351 1_545 S
C497 C498 1.431 1_545 S
C498 C489 1.429 . S
C498 N495 1.350 . S
C498 C497 1.431 1_565 S
C499 C500 1.369 . S
C499 C501 1.419 1_565 S
C499 H503 0.930 . S
C500 C499 1.369 . S
C500 C509 1.429 1_655 S
C501 C499 1.419 1_545 S
C501 C502 1.363 1_655 S
C501 H504 0.929 . S
C502 C501 1.363 1_455 S
C502 C508 1.428 . S
H503 C499 0.930 . S
H504 C501 0.929 . S
S505 N506 1.613 . S
S505 N507 1.610 1_565 S
N506 S505 1.613 . S
N506 C509 1.350 . S
N507 S505 1.610 1_545 S
N507 C508 1.351 . S
C508 C502 1.428 . S
C508 N507 1.351 . S
C508 C509 1.434 1_545 S
C509 C500 1.429 1_455 S
C509 N506 1.350 . S
C509 C508 1.434 1_565 S
C510 C511 1.369 . S
C510 C512 1.419 1_455 S
C510 H514 0.930 . S
C511 C510 1.369 . S
C511 C520 1.429 . S
C512 C510 1.419 1_655 S
C512 C513 1.363 . S
C512 H515 0.929 . S
C513 C512 1.363 . S
C513 C519 1.428 . S
H514 C510 0.930 . S
H515 C512 0.929 . S
S516 N517 1.613 . S
S516 N518 1.610 1_455 S
N517 S516 1.613 . S
N517 C520 1.350 . S
N518 S516 1.610 1_655 S
N518 C519 1.351 . S
C519 C513 1.428 . S
C519 N518 1.351 . S
C519 C520 1.434 1_655 S
C520 C511 1.429 . S
C520 N517 1.350 . S
C520 C519 1.434 1_455 S
C521 C522 1.369 . S
C521 C523 1.419 . S
C521 H525 0.930 . S
C522 C521 1.369 . S
C522 C531 1.429 . S
C523 C521 1.419 . S
C523 C524 1.363 . S
C523 H526 0.929 . S
C524 C523 1.363 . S
C524 C530 1.428 . S
H525 C521 0.930 . S
H526 C523 0.929 . S
S527 N528 1.613 . S
S527 N529 1.610 . S
N528 S527 1.613 . S
N528 C531 1.350 . S
N529 S527 1.610 . S
N529 C530 1.351 . S
C530 C524 1.428 . S
C530 N529 1.351 . S
C530 C531 1.434 . S
C531 C522 1.429 . S
C531 N528 1.350 . S
C531 C530 1.434 . S
C532 C533 1.369 . S
C532 C534 1.419 . S
C532 H536 0.930 . S
C533 C532 1.369 . S
C533 C542 1.429 . S
C534 C532 1.419 . S
C534 C535 1.363 . S
C534 H537 0.929 . S
C535 C534 1.363 . S
C535 C541 1.428 . S
H536 C532 0.930 . S
H537 C534 0.929 . S
S538 N539 1.613 . S
S538 N540 1.610 . S
N539 S538 1.613 . S
N539 C542 1.350 . S
N540 S538 1.610 . S
N540 C541 1.351 . S
C541 C535 1.428 . S
C541 N540 1.351 . S
C541 C542 1.434 . S
C542 C533 1.429 . S
C542 N539 1.350 . S
C542 C541 1.434 . S
C543 C544 1.369 . S
C543 C545 1.419 1_545 S
C543 H547 0.930 . S
C544 C543 1.369 . S
C544 C553 1.429 . S
C545 C543 1.419 1_565 S
C545 C546 1.363 . S
C545 H548 0.929 . S
C546 C545 1.363 . S
C546 C552 1.428 . S
H547 C543 0.930 . S
H548 C545 0.929 . S
S549 N550 1.613 1_565 S
S549 N551 1.610 . S
N550 S549 1.613 1_545 S
N550 C553 1.350 . S
N551 S549 1.610 . S
N551 C552 1.351 . S
C552 C546 1.428 . S
C552 N551 1.351 . S
C552 C553 1.434 1_565 S
C553 C544 1.429 . S
C553 N550 1.350 . S
C553 C552 1.434 1_545 S
C554 C555 1.369 . S
C554 C556 1.419 1_655 S
C554 H558 0.930 . S
C555 C554 1.369 . S
C555 C564 1.429 1_565 S
C556 C554 1.419 1_455 S
C556 C557 1.363 1_565 S
C556 H559 0.929 . S
C557 C556 1.363 1_545 S
C557 C563 1.428 . S
H558 C554 0.930 . S
H559 C556 0.929 . S
S560 N561 1.613 . S
S560 N562 1.610 . S
N561 S560 1.613 . S
N561 C564 1.350 . S
N562 S560 1.610 . S
N562 C563 1.351 1_655 S
C563 C557 1.428 . S
C563 N562 1.351 1_455 S
C563 C564 1.434 1_455 S
C564 C555 1.429 1_545 S
C564 N561 1.350 . S
C564 C563 1.434 1_655 S
C565 C566 1.369 1_455 S
C565 C567 1.419 . S
C565 H569 0.930 . S
C566 C565 1.369 1_655 S
C566 C575 1.429 . S
C567 C565 1.419 . S
C567 C568 1.363 . S
C567 H570 0.929 . S
C568 C567 1.363 . S
C568 C574 1.428 1_455 S
H569 C565 0.930 . S
H570 C567 0.929 . S
S571 N572 1.613 . S
S571 N573 1.610 . S
N572 S571 1.613 . S
N572 C575 1.350 . S
N573 S571 1.610 . S
N573 C574 1.351 . S
C574 C568 1.428 1_655 S
C574 N573 1.351 . S
C574 C575 1.434 . S
C575 C566 1.429 . S
C575 N572 1.350 . S
C575 C574 1.434 . S
C225 C65 1.385 . S
C227 C9 1.389 . S
C236 C23 1.389 . S
C238 C79 1.385 . S
C247 C93 1.389 . S
C249 C37 1.386 . S
C258 C107 1.388 . S
C260 C51 1.388 . S
C269 C177 1.390 . S
C271 C121 1.386 . S
C280 C135 1.389 . S
C282 C191 1.385 . S
C291 C205 1.389 . S
C293 C149 1.385 . S
C302 C163 1.387 . S
C304 C219 1.388 . S
C313 C0 1.438 . S
C315 C210 1.435 . S
C324 C14 1.433 . S
C326 C168 1.436 . S
C335 C28 1.434 . S
C337 C182 1.437 . S
C346 C196 1.434 . S
C348 C42 1.437 . S
C357 C56 1.434 . S
C359 C126 1.435 . S
C368 C70 1.438 . S
C370 C140 1.435 . S
C379 C154 1.437 . S
C381 C84 1.438 . S
C390 C112 1.438 . S
C392 C98 1.436 . S
C401 C11 1.570 . S
C403 C151 1.567 . S
C412 C165 1.568 . S
C414 C25 1.567 . S
C423 C39 1.567 . S
C425 C123 1.568 . S
C434 C137 1.569 . S
C436 C53 1.566 . S
C445 C67 1.567 . S
C447 C207 1.568 . S
C456 C81 1.570 . S
C458 C221 1.566 . S
C467 C179 1.570 . S
C469 C95 1.566 . S
C478 C193 1.569 . S
C480 C109 1.566 . S
C489 C145 1.437 . S
C491 C5 1.437 . S
C500 C19 1.435 . S
C502 C159 1.435 . S
C511 C33 1.435 . S
C513 C117 1.435 . S
C522 C131 1.435 . S
C524 C47 1.436 . S
C533 C201 1.437 . S
C535 C61 1.437 . S
C544 C215 1.437 . S
C546 C75 1.436 . S
C555 C173 1.436 . S
C557 C89 1.436 . S
C566 C103 1.436 . S
C568 C187 1.436 . S
