# Generated by pormake.
# Topology yfl, (5)-cn, num edge types: 1
# Building blocks:
#     Node 0, Type 0, BuildingBlock: XOMCOT_clean_sbu_0, # of connection points: 5
#     Node 1, Type 0, BuildingBlock: XOMCOT_clean_sbu_0, # of connection points: 5
#     Node 2, Type 0, BuildingBlock: XOMCOT_clean_sbu_0, # of connection points: 5
#     Node 3, Type 0, BuildingBlock: XOMCOT_clean_sbu_0, # of connection points: 5
#     Node 4, Type 0, BuildingBlock: XOMCOT_clean_sbu_0, # of connection points: 5
#     Node 5, Type 0, BuildingBlock: XOMCOT_clean_sbu_0, # of connection points: 5
#     Node 6, Type 0, BuildingBlock: XOMCOT_clean_sbu_0, # of connection points: 5
#     Node 7, Type 0, BuildingBlock: XOMCOT_clean_sbu_0, # of connection points: 5
#     Node 8, Type 0, BuildingBlock: XOMCOT_clean_sbu_0, # of connection points: 5
#     Node 9, Type 0, BuildingBlock: XOMCOT_clean_sbu_0, # of connection points: 5
#     Node 10, Type 0, BuildingBlock: XOMCOT_clean_sbu_0, # of connection points: 5
#     Node 11, Type 0, BuildingBlock: XOMCOT_clean_sbu_0, # of connection points: 5
#     Node 12, Type 0, BuildingBlock: XOMCOT_clean_sbu_0, # of connection points: 5
#     Node 13, Type 0, BuildingBlock: XOMCOT_clean_sbu_0, # of connection points: 5
#     Node 14, Type 0, BuildingBlock: XOMCOT_clean_sbu_0, # of connection points: 5
#     Node 15, Type 0, BuildingBlock: XOMCOT_clean_sbu_0, # of connection points: 5
#     Edge 16, Type (0, 0), BuildingBlock: TEMPAE_clean_linker_10, # of connection points: 2
#     Edge 17, Type (0, 0), BuildingBlock: TEMPAE_clean_linker_10, # of connection points: 2
#     Edge 18, Type (0, 0), BuildingBlock: TEMPAE_clean_linker_10, # of connection points: 2
#     Edge 19, Type (0, 0), BuildingBlock: TEMPAE_clean_linker_10, # of connection points: 2
#     Edge 20, Type (0, 0), BuildingBlock: TEMPAE_clean_linker_10, # of connection points: 2
#     Edge 21, Type (0, 0), BuildingBlock: TEMPAE_clean_linker_10, # of connection points: 2
#     Edge 22, Type (0, 0), BuildingBlock: TEMPAE_clean_linker_10, # of connection points: 2
#     Edge 23, Type (0, 0), BuildingBlock: TEMPAE_clean_linker_10, # of connection points: 2
#     Edge 24, Type (0, 0), BuildingBlock: TEMPAE_clean_linker_10, # of connection points: 2
#     Edge 25, Type (0, 0), BuildingBlock: TEMPAE_clean_linker_10, # of connection points: 2
#     Edge 26, Type (0, 0), BuildingBlock: TEMPAE_clean_linker_10, # of connection points: 2
#     Edge 27, Type (0, 0), BuildingBlock: TEMPAE_clean_linker_10, # of connection points: 2
#     Edge 28, Type (0, 0), BuildingBlock: TEMPAE_clean_linker_10, # of connection points: 2
#     Edge 29, Type (0, 0), BuildingBlock: TEMPAE_clean_linker_10, # of connection points: 2
#     Edge 30, Type (0, 0), BuildingBlock: TEMPAE_clean_linker_10, # of connection points: 2
#     Edge 31, Type (0, 0), BuildingBlock: TEMPAE_clean_linker_10, # of connection points: 2
#     Edge 32, Type (0, 0), BuildingBlock: TEMPAE_clean_linker_10, # of connection points: 2
#     Edge 33, Type (0, 0), BuildingBlock: TEMPAE_clean_linker_10, # of connection points: 2
#     Edge 34, Type (0, 0), BuildingBlock: TEMPAE_clean_linker_10, # of connection points: 2
#     Edge 35, Type (0, 0), BuildingBlock: TEMPAE_clean_linker_10, # of connection points: 2
#     Edge 36, Type (0, 0), BuildingBlock: TEMPAE_clean_linker_10, # of connection points: 2
#     Edge 37, Type (0, 0), BuildingBlock: TEMPAE_clean_linker_10, # of connection points: 2
#     Edge 38, Type (0, 0), BuildingBlock: TEMPAE_clean_linker_10, # of connection points: 2
#     Edge 39, Type (0, 0), BuildingBlock: TEMPAE_clean_linker_10, # of connection points: 2
#     Edge 40, Type (0, 0), BuildingBlock: TEMPAE_clean_linker_10, # of connection points: 2
#     Edge 41, Type (0, 0), BuildingBlock: TEMPAE_clean_linker_10, # of connection points: 2
#     Edge 42, Type (0, 0), BuildingBlock: TEMPAE_clean_linker_10, # of connection points: 2
#     Edge 43, Type (0, 0), BuildingBlock: TEMPAE_clean_linker_10, # of connection points: 2
#     Edge 44, Type (0, 0), BuildingBlock: TEMPAE_clean_linker_10, # of connection points: 2
#     Edge 45, Type (0, 0), BuildingBlock: TEMPAE_clean_linker_10, # of connection points: 2
#     Edge 46, Type (0, 0), BuildingBlock: TEMPAE_clean_linker_10, # of connection points: 2
#     Edge 47, Type (0, 0), BuildingBlock: TEMPAE_clean_linker_10, # of connection points: 2
#     Edge 48, Type (0, 0), BuildingBlock: TEMPAE_clean_linker_10, # of connection points: 2
#     Edge 49, Type (0, 0), BuildingBlock: TEMPAE_clean_linker_10, # of connection points: 2
#     Edge 50, Type (0, 0), BuildingBlock: TEMPAE_clean_linker_10, # of connection points: 2
#     Edge 51, Type (0, 0), BuildingBlock: TEMPAE_clean_linker_10, # of connection points: 2
#     Edge 52, Type (0, 0), BuildingBlock: TEMPAE_clean_linker_10, # of connection points: 2
#     Edge 53, Type (0, 0), BuildingBlock: TEMPAE_clean_linker_10, # of connection points: 2
#     Edge 54, Type (0, 0), BuildingBlock: TEMPAE_clean_linker_10, # of connection points: 2
#     Edge 55, Type (0, 0), BuildingBlock: TEMPAE_clean_linker_10, # of connection points: 2
# Relax obj value: 0.347
# Max RMSD: 0.254
# Mean RMSD: 0.254
data_MOF--net-yfl--node1-XOMCOT_clean_sbu_0--edge1-TEMPAE_clean_linker_10
_symmetry_space_group_name_H-M    P1
_symmetry_Int_Tables_number       1
_symmetry_cell_setting            triclinic
loop_
_symmetry_equiv_pos_as_xyz
'x, y, z'
_cell_length_a     30.404453
_cell_length_b     30.361292
_cell_length_c     103.52377
_cell_angle_alpha  89.954886
_cell_angle_beta   89.992042
_cell_angle_gamma 90.007948
loop_
_atom_site_label
_atom_site_type_symbol
_atom_site_fract_x
_atom_site_fract_y
_atom_site_fract_z
_atom_type_partial_charge
Co0 Co 0.04119 0.32193 0.31759 0.0
C1 C 0.11069 0.28705 0.33472 0.0
C2 C 0.13813 0.31657 0.3178 0.0
C3 C 0.17195 0.30595 0.32609 0.0
N4 N 0.09959 0.3037 0.32307 0.0
N5 N 0.15448 0.28742 0.33675 0.0
H6 H 0.08738 0.27965 0.34226 0.0
H7 H 0.1414 0.33546 0.309 0.0
C8 C 0.08359 0.29686 0.29212 0.0
O9 O 0.10156 0.26145 0.29715 0.0
N10 N 0.98342 0.34134 0.3123 0.0
C11 C 0.94529 0.33441 0.31859 0.0
C12 C 0.91136 0.3504 0.31111 0.0
C13 C 0.97238 0.36184 0.30122 0.0
N14 N 0.92841 0.36731 0.30012 0.0
C15 C 0.01877 0.23634 0.32744 0.0
C16 C 0.98964 0.20184 0.30427 0.0
C17 C 0.99123 0.17468 0.31518 0.0
C18 C 0.00527 0.19252 0.32693 0.0
C19 C 0.00419 0.24533 0.30517 0.0
N20 N 0.02071 0.26141 0.31651 0.0
H21 H 0.02652 0.25023 0.3367 0.0
H22 H 0.00159 0.26613 0.29675 0.0
H23 H 0.94226 0.31775 0.32778 0.0
H24 H 0.99591 0.37095 0.29388 0.0
O25 O 0.02586 0.33537 0.33537 0.0
O26 O 0.0571 0.3813 0.3214 0.0
O27 O 0.05992 0.3225 0.29895 0.0
C28 C 0.04147 0.37447 0.33292 0.0
H29 H 0.20638 0.31365 0.32469 0.0
H30 H 0.87678 0.34874 0.31352 0.0
H31 H 0.97785 0.18942 0.29509 0.0
H32 H 0.00507 0.17294 0.33568 0.0
Co33 Co 0.29816 0.92292 0.69041 0.0
C34 C 0.28087 0.84281 0.67566 0.0
C35 C 0.30343 0.82696 0.69474 0.0
C36 C 0.29968 0.7885 0.68774 0.0
N37 N 0.29177 0.86086 0.68708 0.0
N38 N 0.28579 0.79863 0.6757 0.0
H39 H 0.27256 0.86205 0.6672 0.0
H40 H 0.31595 0.83001 0.70447 0.0
C41 C 0.28115 0.93496 0.71881 0.0
O42 O 0.25617 0.96929 0.71634 0.0
N43 N 0.30571 0.98564 0.69357 0.0
C44 C 0.28955 0.01992 0.68676 0.0
C45 C 0.30415 0.05851 0.69222 0.0
C46 C 0.33165 0.00405 0.70267 0.0
N47 N 0.33027 0.04853 0.70234 0.0
C48 C 0.21797 0.94697 0.67779 0.0
C49 C 0.16142 0.91738 0.69678 0.0
C50 C 0.14399 0.93967 0.68608 0.0
C51 C 0.17286 0.95326 0.67631 0.0
C52 C 0.20682 0.91142 0.6978 0.0
N53 N 0.23472 0.92896 0.68882 0.0
H54 H 0.23942 0.95674 0.67 0.0
H55 H 0.21919 0.89247 0.70582 0.0
H56 H 0.26917 0.01777 0.67829 0.0
H57 H 0.35001 0.98509 0.70969 0.0
O58 O 0.31557 0.93249 0.67257 0.0
O59 O 0.36054 0.91736 0.68883 0.0
O60 O 0.29605 0.91138 0.70958 0.0
C61 C 0.35558 0.92605 0.67663 0.0
H62 H 0.30828 0.75589 0.69112 0.0
H63 H 0.2961 0.09139 0.68895 0.0
H64 H 0.14038 0.90522 0.70443 0.0
H65 H 0.16075 0.96855 0.66754 0.0
Co66 Co 0.91687 0.69606 0.30763 0.0
C67 C 0.83886 0.7153 0.3228 0.0
C68 C 0.82134 0.67996 0.30562 0.0
C69 C 0.78439 0.68418 0.31329 0.0
N70 N 0.85529 0.69941 0.31169 0.0
N71 N 0.79567 0.7063 0.32411 0.0
H72 H 0.85905 0.72997 0.33025 0.0
H73 H 0.82379 0.66179 0.29666 0.0
C74 C 0.9244 0.71097 0.27905 0.0
O75 O 0.95749 0.738 0.28103 0.0
N76 N 0.97934 0.6917 0.30383 0.0
C77 C 0.01339 0.71005 0.31021 0.0
C78 C 0.05204 0.69653 0.30458 0.0
C79 C -0.00196 0.66566 0.2948 0.0
N80 N 0.04238 0.66893 0.29478 0.0
C81 C 0.93766 0.77939 0.31913 0.0
C82 C 0.90083 0.83126 0.30004 0.0
C83 C 0.92277 0.85148 0.31032 0.0
C84 C 0.94026 0.82512 0.32014 0.0
C85 C 0.89835 0.78544 0.29953 0.0
N86 N 0.91932 0.76 0.30853 0.0
H87 H 0.95023 0.7596 0.32696 0.0
H88 H 0.87895 0.77076 0.29197 0.0
H89 H 0.01107 0.73105 0.31855 0.0
H90 H 0.97928 0.64567 0.28815 0.0
O91 O 0.92953 0.68089 0.32551 0.0
O92 O 0.91502 0.6337 0.30975 0.0
O93 O 0.9027 0.69548 0.28861 0.0
C94 C 0.9247 0.64016 0.32181 0.0
H95 H 0.75232 0.67026 0.31131 0.0
H96 H 0.08473 0.7062 0.30757 0.0
H97 H 0.88524 0.85075 0.29256 0.0
H98 H 0.95645 0.83968 0.32843 0.0
Co99 Co 0.67205 0.06093 0.68094 0.0
C100 C 0.69466 0.13234 0.66254 0.0
C101 C 0.66922 0.15777 0.68029 0.0
C102 C 0.67287 0.19197 0.67164 0.0
N103 N 0.68386 0.1203 0.67473 0.0
N104 N 0.68872 0.17581 0.66046 0.0
H105 H 0.70189 0.10941 0.65487 0.0
H106 H 0.65325 0.15977 0.68959 0.0
C107 C 0.69751 0.10629 0.70588 0.0
O108 O 0.73132 0.12583 0.70043 0.0
N109 N 0.65833 0.00237 0.68708 0.0
C110 C 0.66943 0.96379 0.68159 0.0
C111 C 0.65583 0.93009 0.68959 0.0
C112 C 0.63766 0.99179 0.69817 0.0
N113 N 0.63614 0.94777 0.70009 0.0
C114 C 0.75916 0.04785 0.67075 0.0
C115 C 0.79543 0.0163 0.69343 0.0
C116 C 0.82214 0.0197 0.68244 0.0
C117 C 0.80337 0.03554 0.67097 0.0
C118 C 0.75153 0.02933 0.69281 0.0
N119 N 0.73418 0.04621 0.68168 0.0
H120 H 0.7449 0.0574 0.66169 0.0
H121 H 0.73117 0.02464 0.70125 0.0
H122 H 0.68716 0.96045 0.67259 0.0
H123 H 0.62539 0.01597 0.70491 0.0
O124 O 0.65854 0.04197 0.6635 0.0
O125 O 0.61122 0.07076 0.67752 0.0
O126 O 0.67198 0.08153 0.69937 0.0
C127 C 0.61843 0.05418 0.66614 0.0
H128 H 0.66229 0.22557 0.67322 0.0
H129 H 0.66081 0.89533 0.68785 0.0
H130 H 0.80797 0.00269 0.70237 0.0
H131 H 0.82255 0.0383 0.66219 0.0
Co132 Co 0.06187 0.17218 0.93456 0.0
C133 C 0.13208 0.20213 0.91681 0.0
C134 C 0.1581 0.18904 0.93561 0.0
C135 C 0.19253 0.19888 0.92744 0.0
N136 N 0.11987 0.19193 0.929 0.0
N137 N 0.17593 0.20721 0.91564 0.0
H138 H 0.10996 0.20224 0.90865 0.0
H139 H 0.1616 0.17754 0.94542 0.0
C140 C 0.09624 0.2014 0.9609 0.0
O141 O 0.10266 0.2424 0.95732 0.0
N142 N 0.00455 0.15132 0.94003 0.0
C143 C 0.96683 0.15403 0.93326 0.0
C144 C 0.93279 0.13934 0.94091 0.0
C145 C 0.99304 0.13472 0.95165 0.0
N146 N 0.94924 0.12755 0.95252 0.0
C147 C 0.04325 0.2582 0.92446 0.0
C148 C 0.00092 0.29012 0.94615 0.0
C149 C 0.00732 0.31807 0.93556 0.0
C150 C 0.02816 0.3015 0.92455 0.0
C151 C 0.01714 0.2471 0.94572 0.0
N152 N 0.03972 0.23222 0.93516 0.0
H153 H 0.057 0.24551 0.91567 0.0
H154 H 0.01191 0.22591 0.95396 0.0
H155 H 0.964 0.16711 0.92358 0.0
H156 H 0.01585 0.13003 0.95954 0.0
O157 O 0.0467 0.15706 0.91689 0.0
O158 O 0.0794 0.11303 0.93107 0.0
O159 O 0.08125 0.17275 0.95307 0.0
C160 C 0.06325 0.11849 0.91956 0.0
H161 H 0.22714 0.19807 0.92987 0.0
H162 H 0.89847 0.13832 0.93817 0.0
H163 H 0.98434 0.30164 0.95477 0.0
H164 H 0.03221 0.32171 0.916 0.0
Co165 Co 0.19276 0.93582 0.06142 0.0
C166 C 0.20465 0.86132 0.07894 0.0
C167 C 0.17366 0.84061 0.06134 0.0
C168 C 0.17618 0.80501 0.06959 0.0
N169 N 0.19154 0.87572 0.06727 0.0
N170 N 0.19556 0.81822 0.08067 0.0
H171 H 0.21844 0.88269 0.08626 0.0
H172 H 0.15846 0.84113 0.0519 0.0
C173 C 0.21148 0.93127 0.03289 0.0
O174 O 0.23857 0.96487 0.03375 0.0
N175 N 0.19296 0.99687 0.05565 0.0
C176 C 0.21512 0.0315 0.06061 0.0
C177 C 0.20547 0.0685 0.0535 0.0
C178 C 0.16848 0.01399 0.04598 0.0
N179 N 0.17636 0.05738 0.04426 0.0
C180 C 0.27549 0.95585 0.07329 0.0
C181 C 0.32738 0.91009 0.056 0.0
C182 C 0.34768 0.93577 0.06552 0.0
C183 C 0.3211 0.9577 0.07451 0.0
C184 C 0.28163 0.9093 0.05513 0.0
N185 N 0.2564 0.93471 0.06311 0.0
H186 H 0.25553 0.97214 0.08045 0.0
H187 H 0.26681 0.88782 0.04809 0.0
H188 H 0.23662 0.03089 0.06885 0.0
H189 H 0.14677 0.99464 0.03994 0.0
O190 O 0.17628 0.95555 0.07861 0.0
O191 O 0.13032 0.93836 0.06275 0.0
O192 O 0.19399 0.91477 0.04301 0.0
C193 C 0.1359 0.95159 0.07456 0.0
H194 H 0.16377 0.77227 0.06766 0.0
H195 H 0.21905 0.10109 0.05496 0.0
H196 H 0.34668 0.89077 0.04928 0.0
H197 H 0.33528 0.97716 0.08222 0.0
Co198 Co 0.92459 0.79512 0.94023 0.0
C199 C 0.85158 0.77697 0.92293 0.0
C200 C 0.82839 0.8099 0.93996 0.0
C201 C 0.79374 0.80526 0.93142 0.0
N202 N 0.86448 0.79219 0.93453 0.0
N203 N 0.80857 0.78464 0.9207 0.0
H204 H 0.8741 0.76325 0.91592 0.0
H205 H 0.82773 0.82676 0.94916 0.0
C206 C 0.92592 0.7802 0.96869 0.0
O207 O 0.95928 0.75323 0.96708 0.0
N208 N 0.9857 0.79896 0.94567 0.0
C209 C 0.02052 0.77476 0.94188 0.0
C210 C 0.05726 0.7892 0.94833 0.0
C211 C 0.00224 0.82875 0.95404 0.0
N212 N 0.0459 0.82316 0.95606 0.0
C213 C 0.94697 0.71169 0.92898 0.0
C214 C 0.9053 0.66 0.94724 0.0
C215 C 0.92962 0.63961 0.93746 0.0
C216 C 0.9495 0.66591 0.92801 0.0
C217 C 0.90319 0.70583 0.94774 0.0
N218 N 0.92658 0.73114 0.93925 0.0
H219 H 0.96223 0.73155 0.92158 0.0
H220 H 0.88226 0.72062 0.95493 0.0
H221 H 0.02017 0.74828 0.935 0.0
H222 H 0.98211 0.85342 0.95869 0.0
O223 O 0.94284 0.81077 0.92278 0.0
O224 O 0.92367 0.85753 0.93821 0.0
O225 O 0.90532 0.79543 0.95889 0.0
C226 C 0.9371 0.85142 0.92646 0.0
H227 H 0.76066 0.81747 0.93284 0.0
H228 H 0.08955 0.77461 0.94752 0.0
H229 H 0.88782 0.64065 0.95439 0.0
H230 H 0.96781 0.65131 0.92012 0.0
Co231 Co 0.81632 0.06386 0.0652 0.0
C232 C 0.77526 0.13219 0.08088 0.0
C233 C 0.80528 0.16023 0.064 0.0
C234 C 0.79119 0.19396 0.07191 0.0
N235 N 0.79541 0.12167 0.06973 0.0
N236 N 0.77258 0.17613 0.08256 0.0
H237 H 0.76626 0.10812 0.08813 0.0
H238 H 0.82394 0.16363 0.05516 0.0
C239 C 0.79841 0.05982 0.03661 0.0
O240 O 0.77607 0.02326 0.03843 0.0
N241 N 0.83901 0.0052 0.06093 0.0
C242 C 0.84183 0.97005 0.06892 0.0
C243 C 0.85978 0.93508 0.06236 0.0
C244 C 0.85869 0.99155 0.04991 0.0
N245 N 0.86985 0.94851 0.05032 0.0
C246 C 0.74317 0.01033 0.07321 0.0
C247 C 0.68095 0.05259 0.05821 0.0
C248 C 0.66805 0.01684 0.06589 0.0
C249 C 0.69966 0.99592 0.07357 0.0
C250 C 0.72486 0.06577 0.05812 0.0
N251 N 0.75578 0.04343 0.06511 0.0
H252 H 0.7662 0.99575 0.07981 0.0
H253 H 0.73403 0.09416 0.05242 0.0
H254 H 0.83266 0.96959 0.07899 0.0
H255 H 0.86494 0.01236 0.04168 0.0
O256 O 0.83069 0.05332 0.08318 0.0
O257 O 0.87518 0.08277 0.06851 0.0
O258 O 0.81456 0.08043 0.04629 0.0
C259 C 0.86902 0.06988 0.08036 0.0
H260 H 0.79646 0.22878 0.07029 0.0
H261 H 0.86514 0.90232 0.06617 0.0
H262 H 0.65737 0.07014 0.05229 0.0
H263 H 0.69062 0.96942 0.08006 0.0
Co264 Co 0.56558 0.83009 0.81472 0.0
C265 C 0.63476 0.79156 0.83054 0.0
C266 C 0.66217 0.82142 0.81356 0.0
C267 C 0.69609 0.80911 0.82166 0.0
N268 N 0.62386 0.81054 0.81923 0.0
N269 N 0.67866 0.79071 0.8324 0.0
H270 H 0.61078 0.78233 0.83778 0.0
H271 H 0.66519 0.83973 0.80464 0.0
C272 C 0.56112 0.81328 0.78612 0.0
O273 O 0.52493 0.79047 0.78802 0.0
N274 N 0.50642 0.85148 0.81057 0.0
C275 C 0.47151 0.85307 0.81865 0.0
C276 C 0.43634 0.87164 0.81236 0.0
C277 C 0.49237 0.87235 0.79977 0.0
N278 N 0.44935 0.88328 0.80041 0.0
C279 C 0.51409 0.75479 0.82238 0.0
C280 C 0.55747 0.6949 0.80684 0.0
C281 C 0.52188 0.68049 0.81433 0.0
C282 C 0.50051 0.71091 0.82232 0.0
C283 C 0.56991 0.73907 0.8072 0.0
N284 N 0.54687 0.7689 0.8144 0.0
H285 H 0.499 0.77691 0.82914 0.0
H286 H 0.59809 0.74938 0.8016 0.0
H287 H 0.47141 0.84286 0.82863 0.0
H288 H 0.5129 0.87962 0.79155 0.0
O289 O 0.55465 0.84363 0.83274 0.0
O290 O 0.58294 0.88936 0.81818 0.0
O291 O 0.5819 0.82945 0.79577 0.0
C292 C 0.57019 0.88251 0.83001 0.0
H293 H 0.73067 0.81554 0.82007 0.0
H294 H 0.40376 0.87645 0.81632 0.0
H295 H 0.57539 0.67238 0.80067 0.0
H296 H 0.47418 0.7007 0.82871 0.0
Co297 Co 0.81212 0.42152 0.18574 0.0
C298 C 0.77131 0.35063 0.17109 0.0
C299 C 0.80122 0.32545 0.18836 0.0
C300 C 0.78736 0.29042 0.1809 0.0
N301 N 0.79128 0.363 0.1821 0.0
N302 N 0.76878 0.30646 0.17002 0.0
H303 H 0.76248 0.37347 0.16349 0.0
H304 H 0.81984 0.32357 0.19725 0.0
C305 C 0.79272 0.43272 0.214 0.0
O306 O 0.77195 0.46956 0.21129 0.0
N307 N 0.83482 0.48074 0.18912 0.0
C308 C 0.83716 0.51472 0.1807 0.0
C309 C 0.85678 0.55011 0.18662 0.0
C310 C 0.85629 0.49537 0.19973 0.0
N311 N 0.86837 0.53802 0.19866 0.0
C312 C 0.73943 0.47249 0.17603 0.0
C313 C 0.67666 0.43569 0.19204 0.0
C314 C 0.66417 0.46912 0.18346 0.0
C315 C 0.69604 0.48714 0.17525 0.0
C316 C 0.7204 0.4221 0.1925 0.0
N317 N 0.75166 0.44207 0.18504 0.0
H318 H 0.76266 0.48462 0.16907 0.0
H319 H 0.72913 0.39532 0.19888 0.0
H320 H 0.82698 0.51395 0.17073 0.0
H321 H 0.86302 0.47551 0.20815 0.0
O322 O 0.82823 0.42839 0.16774 0.0
O323 O 0.8712 0.40185 0.18326 0.0
O324 O 0.80859 0.40913 0.20489 0.0
C325 C 0.86635 0.41269 0.17118 0.0
H326 H 0.79285 0.25591 0.18298 0.0
H327 H 0.86236 0.5822 0.18237 0.0
H328 H 0.65293 0.4203 0.19841 0.0
H329 H 0.68733 0.51157 0.16805 0.0
Co330 Co 0.43383 0.20427 0.80802 0.0
C331 C 0.36299 0.21927 0.82663 0.0
C332 C 0.33866 0.18785 0.80948 0.0
C333 C 0.30497 0.19034 0.81835 0.0
N334 N 0.3749 0.20593 0.81473 0.0
N335 N 0.32047 0.2099 0.82914 0.0
H336 H 0.3858 0.23285 0.83359 0.0
H337 H 0.33734 0.172 0.80014 0.0
C338 C 0.4244 0.22228 0.7795 0.0
O339 O 0.45746 0.25015 0.77986 0.0
N340 N 0.49358 0.20131 0.80134 0.0
C341 C 0.53088 0.21847 0.80632 0.0
C342 C 0.56585 0.20657 0.79863 0.0
C343 C 0.5069 0.17758 0.79103 0.0
N344 N 0.55056 0.18125 0.78895 0.0
C345 C 0.46073 0.28652 0.81888 0.0
C346 C 0.41239 0.33997 0.80261 0.0
C347 C 0.44088 0.3594 0.81159 0.0
C348 C 0.46437 0.33207 0.82002 0.0
C349 C 0.4097 0.29415 0.80184 0.0
N350 N 0.43599 0.26805 0.80933 0.0
H351 H 0.47788 0.26613 0.82576 0.0
H352 H 0.38606 0.27994 0.7953 0.0
H353 H 0.53338 0.23774 0.81501 0.0
H354 H 0.485 0.15804 0.78512 0.0
O355 O 0.45569 0.18825 0.825 0.0
O356 O 0.43408 0.1417 0.80977 0.0
O357 O 0.40972 0.2051 0.78991 0.0
C358 C 0.44958 0.1477 0.82132 0.0
H359 H 0.27208 0.17738 0.81711 0.0
H360 H 0.59971 0.2167 0.79988 0.0
H361 H 0.39212 0.35998 0.79632 0.0
H362 H 0.48607 0.34564 0.8273 0.0
Co363 Co 0.19033 0.55913 0.18913 0.0
C364 C 0.20243 0.62776 0.16954 0.0
C365 C 0.17745 0.65509 0.18719 0.0
C366 C 0.18044 0.68823 0.17813 0.0
N367 N 0.19126 0.61732 0.18174 0.0
N368 N 0.19594 0.67091 0.16701 0.0
H369 H 0.2132 0.60372 0.16251 0.0
H370 H 0.16488 0.65823 0.19691 0.0
C371 C 0.21157 0.57213 0.21726 0.0
O372 O 0.23974 0.53932 0.21685 0.0
N373 N 0.18812 0.50018 0.19653 0.0
C374 C 0.20376 0.46203 0.19164 0.0
C375 C 0.19188 0.42788 0.19967 0.0
C376 C 0.16536 0.48817 0.20718 0.0
N377 N 0.16807 0.44451 0.20949 0.0
C378 C 0.27196 0.53081 0.17817 0.0
C379 C 0.32576 0.58375 0.19303 0.0
C380 C 0.34495 0.5537 0.18446 0.0
C381 C 0.31741 0.52783 0.17672 0.0
C382 C 0.28007 0.58566 0.19415 0.0
N383 N 0.25389 0.55723 0.1874 0.0
H384 H 0.25136 0.51202 0.17175 0.0
H385 H 0.26595 0.61044 0.20035 0.0
H386 H 0.22155 0.45835 0.18272 0.0
H387 H 0.1467 0.51089 0.21308 0.0
O388 O 0.17327 0.53485 0.17254 0.0
O389 O 0.12771 0.55832 0.1878 0.0
O390 O 0.19266 0.58538 0.20695 0.0
C391 C 0.13301 0.54106 0.17643 0.0
H392 H 0.17117 0.72226 0.17961 0.0
H393 H 0.20057 0.39355 0.19847 0.0
H394 H 0.34585 0.60579 0.19876 0.0
H395 H 0.33077 0.50486 0.16975 0.0
Co396 Co 0.56967 0.68274 0.43863 0.0
C397 C 0.62896 0.7006 0.41695 0.0
C398 C 0.66509 0.67995 0.43372 0.0
C399 C 0.69415 0.68568 0.42363 0.0
N400 N 0.62435 0.68933 0.42946 0.0
N401 N 0.6713 0.69844 0.41307 0.0
H402 H 0.60151 0.70828 0.4107 0.0
H403 H 0.67302 0.66859 0.44334 0.0
C404 C 0.58871 0.71388 0.46535 0.0
O405 O 0.55382 0.73933 0.46461 0.0
N406 N 0.51446 0.6743 0.44794 0.0
C407 C 0.4729 0.68074 0.44378 0.0
C408 C 0.44405 0.66527 0.45297 0.0
C409 C 0.50993 0.65298 0.45935 0.0
N410 N 0.46735 0.64802 0.46283 0.0
C411 C 0.52612 0.75926 0.42877 0.0
C412 C 0.58234 0.82024 0.43969 0.0
C413 C 0.54531 0.83495 0.43292 0.0
C414 C 0.51772 0.80394 0.42708 0.0
C415 C 0.58961 0.77517 0.44105 0.0
N416 N 0.55982 0.74537 0.43644 0.0
H417 H 0.50593 0.73598 0.42366 0.0
H418 H 0.6192 0.76431 0.44586 0.0
H419 H 0.46341 0.69319 0.43446 0.0
H420 H 0.53744 0.64073 0.4649 0.0
O421 O 0.542 0.66196 0.42304 0.0
O422 O 0.57536 0.61998 0.43764 0.0
O423 O 0.60091 0.69122 0.45558 0.0
C424 C 0.55346 0.6228 0.42686 0.0
H425 H 0.72927 0.68014 0.42404 0.0
H426 H 0.40858 0.66519 0.45213 0.0
H427 H 0.60549 0.84334 0.44386 0.0
H428 H 0.48946 0.81404 0.42143 0.0
Co429 Co 0.71649 0.46095 0.55874 0.0
C430 C 0.70796 0.38469 0.57633 0.0
C431 C 0.70929 0.36335 0.55662 0.0
C432 C 0.70636 0.32671 0.5645 0.0
N433 N 0.71015 0.39981 0.56408 0.0
N434 N 0.70593 0.34044 0.57687 0.0
H435 H 0.70841 0.40543 0.5848 0.0
H436 H 0.71168 0.36293 0.54621 0.0
C437 C 0.70693 0.46196 0.52924 0.0
O438 O 0.72558 0.50074 0.52807 0.0
N439 N 0.72228 0.52222 0.55394 0.0
C440 C 0.75533 0.55014 0.55677 0.0
C441 C 0.74506 0.59105 0.55184 0.0
C442 C 0.69144 0.54696 0.54808 0.0
N443 N 0.70502 0.58884 0.54621 0.0
C444 C 0.80045 0.44177 0.56908 0.0
C445 C 0.84938 0.46182 0.54739 0.0
C446 C 0.8713 0.45268 0.55901 0.0
C447 C 0.84611 0.4408 0.56981 0.0
C448 C 0.80356 0.46105 0.54699 0.0
N449 N 0.77964 0.45272 0.55787 0.0
H450 H 0.78178 0.43516 0.57773 0.0
H451 H 0.78793 0.46948 0.53809 0.0
H452 H 0.785 0.5414 0.56193 0.0
H453 H 0.66107 0.53336 0.54437 0.0
O454 O 0.7118 0.48046 0.57655 0.0
O455 O 0.65627 0.47127 0.56281 0.0
O456 O 0.70592 0.44195 0.54015 0.0
C457 C 0.66976 0.48263 0.57425 0.0
H458 H 0.70604 0.29267 0.5614 0.0
H459 H 0.76606 0.61979 0.55213 0.0
H460 H 0.86716 0.47157 0.53879 0.0
H461 H 0.86137 0.43209 0.57891 0.0
Co462 Co 0.40719 0.29857 0.44111 0.0
C463 C 0.334 0.26896 0.42527 0.0
C464 C 0.31049 0.29556 0.44318 0.0
C465 C 0.27487 0.28684 0.43531 0.0
N466 N 0.34736 0.28447 0.43678 0.0
N467 N 0.2899 0.27031 0.42402 0.0
H468 H 0.35644 0.26041 0.41755 0.0
H469 H 0.30968 0.31138 0.45254 0.0
C470 C 0.41827 0.27202 0.46867 0.0
O471 O 0.45387 0.25039 0.46525 0.0
N472 N 0.46779 0.31425 0.44531 0.0
C473 C 0.50419 0.30941 0.43797 0.0
C474 C 0.53961 0.32708 0.44439 0.0
C475 C 0.48152 0.3372 0.45575 0.0
N476 N 0.52542 0.34414 0.45565 0.0
C477 C 0.4472 0.22562 0.42819 0.0
C478 C 0.4145 0.16087 0.44428 0.0
C479 C 0.44415 0.14924 0.43449 0.0
C480 C 0.4594 0.18205 0.42612 0.0
C481 C 0.40298 0.20495 0.44593 0.0
N482 N 0.42203 0.23705 0.43856 0.0
H483 H 0.45732 0.24992 0.42123 0.0
H484 H 0.37886 0.21316 0.45319 0.0
H485 H 0.50544 0.2957 0.4284 0.0
H486 H 0.45984 0.3482 0.46337 0.0
O487 O 0.41655 0.31962 0.42374 0.0
O488 O 0.39343 0.36007 0.44025 0.0
O489 O 0.39412 0.29017 0.46006 0.0
C490 C 0.40467 0.35791 0.42814 0.0
H491 H 0.24084 0.29417 0.43748 0.0
H492 H 0.57314 0.32798 0.44088 0.0
H493 H 0.40088 0.13637 0.45075 0.0
H494 H 0.48028 0.17411 0.41797 0.0
Co495 Co 0.35035 0.51636 0.57475 0.0
C496 C 0.32511 0.58957 0.59158 0.0
C497 C 0.36327 0.61245 0.57547 0.0
C498 C 0.35477 0.64759 0.5835 0.0
N499 N 0.3446 0.57624 0.58058 0.0
N500 N 0.33098 0.63306 0.59368 0.0
H501 H 0.30903 0.56729 0.59823 0.0
H502 H 0.38304 0.61307 0.56679 0.0
C503 C 0.34427 0.52405 0.54566 0.0
O504 O 0.31599 0.49129 0.54545 0.0
N505 N 0.35726 0.45557 0.56905 0.0
C506 C 0.3413 0.41866 0.57459 0.0
C507 C 0.35314 0.38292 0.56722 0.0
C508 C 0.3811 0.44115 0.5589 0.0
N509 N 0.37752 0.39717 0.55715 0.0
C510 C 0.26349 0.48775 0.58119 0.0
C511 C 0.2202 0.53561 0.56239 0.0
C512 C 0.19627 0.50539 0.56987 0.0
C513 C 0.21827 0.4828 0.57976 0.0
C514 C 0.26529 0.54032 0.56441 0.0
N515 N 0.28692 0.51368 0.57293 0.0
H516 H 0.27948 0.47102 0.58906 0.0
H517 H 0.28274 0.56509 0.55897 0.0
H518 H 0.32274 0.4171 0.58344 0.0
H519 H 0.39961 0.46274 0.55265 0.0
O520 O 0.35583 0.49684 0.59259 0.0
O521 O 0.41076 0.51679 0.57964 0.0
O522 O 0.35918 0.53838 0.55643 0.0
C523 C 0.39773 0.50296 0.59089 0.0
H524 H 0.36619 0.681 0.58208 0.0
H525 H 0.34387 0.34913 0.56911 0.0
H526 H 0.20467 0.55492 0.55488 0.0
H527 H 0.2008 0.46146 0.58639 0.0
C528 C 0.13511 0.30514 0.27348 0.0
C529 C 0.09291 0.31004 0.27868 0.0
C530 C 0.14603 0.32451 0.26156 0.0
C531 C 0.11366 0.34847 0.25463 0.0
C532 C 0.07024 0.35103 0.2595 0.0
C533 C 0.06054 0.3321 0.27153 0.0
C534 C 0.19281 0.32149 0.25676 0.0
C535 C 0.03444 0.37542 0.25234 0.0
C536 C 0.15224 0.44131 0.23279 0.0
C537 C 0.15209 0.42106 0.22064 0.0
C538 C 0.13972 0.41804 0.24391 0.0
C539 C 0.12602 0.3736 0.24282 0.0
C540 C 0.12463 0.35332 0.23052 0.0
C541 C 0.13809 0.3772 0.21958 0.0
C542 C 0.14194 0.44082 0.25685 0.0
C543 C 0.10908 0.30642 0.22893 0.0
H544 H 0.16021 0.28837 0.27906 0.0
H545 H 0.02767 0.33531 0.27546 0.0
H546 H 0.19348 0.30931 0.24666 0.0
H547 H 0.20789 0.35479 0.25676 0.0
H548 H 0.21329 0.29936 0.26283 0.0
H549 H 0.00131 0.36827 0.25636 0.0
H550 H 0.04033 0.41139 0.25305 0.0
H551 H 0.03463 0.36662 0.24194 0.0
H552 H 0.16354 0.47503 0.23366 0.0
H553 H 0.13746 0.36169 0.21016 0.0
H554 H 0.16338 0.42195 0.26353 0.0
H555 H 0.1087 0.44223 0.26125 0.0
H556 H 0.15488 0.47487 0.25604 0.0
H557 H 0.13094 0.28382 0.23438 0.0
H558 H 0.10852 0.29598 0.21865 0.0
H559 H 0.07551 0.30276 0.233 0.0
C560 C 0.43919 0.92249 0.77966 0.0
C561 C 0.4217 0.89784 0.78992 0.0
C562 C 0.41377 0.93216 0.76869 0.0
C563 C 0.36997 0.91643 0.76791 0.0
C564 C 0.35156 0.89326 0.77847 0.0
C565 C 0.37758 0.88435 0.78933 0.0
C566 C 0.43438 0.95754 0.75769 0.0
C567 C 0.30512 0.87565 0.77799 0.0
C568 C 0.29474 0.96054 0.74151 0.0
C569 C 0.29946 0.92818 0.73193 0.0
C570 C 0.31715 0.95707 0.75335 0.0
C571 C 0.34486 0.92041 0.75563 0.0
C572 C 0.34884 0.88713 0.74614 0.0
C573 C 0.32603 0.89136 0.73445 0.0
C574 C 0.31206 0.99308 0.76328 0.0
C575 C 0.37807 0.84747 0.74821 0.0
H576 H 0.47301 0.93357 0.78012 0.0
H577 H 0.36392 0.86482 0.79711 0.0
H578 H 0.43891 0.93539 0.74927 0.0
H579 H 0.41244 0.98474 0.75457 0.0
H580 H 0.46688 0.97159 0.76035 0.0
H581 H 0.29428 0.86218 0.78745 0.0
H582 H 0.28188 0.90191 0.77501 0.0
H583 H 0.30305 0.84902 0.77068 0.0
H584 H 0.27466 0.98932 0.73962 0.0
H585 H 0.32997 0.86619 0.72712 0.0
H586 H 0.3444 0.00883 0.76511 0.0
H587 H 0.30066 0.97898 0.77258 0.0
H588 H 0.28835 0.01882 0.76017 0.0
H589 H 0.4127 0.85825 0.74943 0.0
H590 H 0.37655 0.82391 0.74001 0.0
H591 H 0.36837 0.82994 0.75717 0.0
C592 C 0.87034 0.6105 0.20932 0.0
C593 C 0.88379 0.56632 0.20887 0.0
C594 C 0.87991 0.63712 0.22001 0.0
C595 C 0.90383 0.61926 0.23049 0.0
C596 C 0.91967 0.57545 0.22981 0.0
C597 C 0.90921 0.54938 0.21903 0.0
C598 C 0.86228 0.6836 0.22039 0.0
C599 C 0.94613 0.55559 0.2407 0.0
C600 C 0.94882 0.69616 0.25633 0.0
C601 C 0.91708 0.69163 0.2661 0.0
C602 C 0.94491 0.67307 0.24463 0.0
C603 C 0.9084 0.64492 0.24265 0.0
C604 C 0.87579 0.64104 0.25235 0.0
C605 C 0.88049 0.66447 0.26393 0.0
C606 C 0.98042 0.67783 0.23453 0.0
C607 C 0.83632 0.61135 0.25061 0.0
H608 H 0.85027 0.62369 0.20159 0.0
H609 H 0.92025 0.51549 0.21865 0.0
H610 H 0.83636 0.68605 0.22791 0.0
H611 H 0.88873 0.70708 0.22304 0.0
H612 H 0.84796 0.69389 0.21099 0.0
H613 H 0.95854 0.52216 0.2383 0.0
H614 H 0.97456 0.57703 0.24306 0.0
H615 H 0.92548 0.55335 0.24951 0.0
H616 H 0.97749 0.7166 0.25799 0.0
H617 H 0.85585 0.6607 0.27142 0.0
H618 H 0.96578 0.68684 0.22507 0.0
H619 H -0.0025 0.64585 0.23322 0.0
H620 H 0.00517 0.70316 0.23719 0.0
H621 H 0.81767 0.62127 0.24187 0.0
H622 H 0.81377 0.61225 0.25905 0.0
H623 H 0.84729 0.57686 0.24914 0.0
C624 C 0.61943 0.15489 0.77895 0.0
C625 C 0.57482 0.16605 0.77788 0.0
C626 C 0.64406 0.14286 0.76803 0.0
C627 C 0.62366 0.14268 0.75574 0.0
C628 C 0.57846 0.15326 0.75464 0.0
C629 C 0.55456 0.16458 0.76573 0.0
C630 C 0.69188 0.13067 0.7696 0.0
C631 C 0.55549 0.15367 0.74171 0.0
C632 C 0.68885 0.15682 0.72472 0.0
C633 C 0.68612 0.11444 0.7195 0.0
C634 C 0.67027 0.16617 0.73684 0.0
C635 C 0.64933 0.13206 0.74392 0.0
C636 C 0.64936 0.08855 0.73903 0.0
C637 C 0.66747 0.08038 0.72682 0.0
C638 C 0.67048 0.21306 0.74167 0.0
C639 C 0.62813 0.05104 0.74633 0.0
H640 H 0.63502 0.15556 0.78836 0.0
H641 H 0.52028 0.17378 0.76483 0.0
H642 H 0.69797 0.09748 0.76549 0.0
H643 H 0.71281 0.15423 0.76418 0.0
H644 H 0.70234 0.1307 0.77988 0.0
H645 H 0.52016 0.16219 0.74261 0.0
H646 H 0.57146 0.17797 0.73522 0.0
H647 H 0.55816 0.12091 0.73705 0.0
H648 H 0.70304 0.18316 0.71899 0.0
H649 H 0.66603 0.0474 0.72285 0.0
H650 H 0.68266 0.21442 0.75176 0.0
H651 H 0.63637 0.2261 0.74168 0.0
H652 H 0.69122 0.23493 0.73559 0.0
H653 H 0.63848 0.05133 0.7566 0.0
H654 H 0.63644 0.01847 0.74209 0.0
H655 H 0.59186 0.05494 0.74612 0.0
C656 C 0.19089 0.11499 0.0281 0.0
C657 C 0.1619 0.08452 0.03368 0.0
C658 C 0.17922 0.13862 0.01699 0.0
C659 C 0.1372 0.13214 0.01143 0.0
C660 C 0.10688 0.10308 0.01741 0.0
C661 C 0.11983 0.07919 0.02839 0.0
C662 C 0.21293 0.16833 0.01074 0.0
C663 C 0.06148 0.09581 0.01188 0.0
C664 C 0.10073 0.2113 0.9849 0.0
C665 C 0.10902 0.18604 0.97386 0.0
C666 C 0.10913 0.19408 0.99729 0.0
C667 C 0.12727 0.15126 0.99853 0.0
C668 C 0.13678 0.12632 0.98734 0.0
C669 C 0.12703 0.1438 0.97517 0.0
C670 C 0.09762 0.22111 0.00904 0.0
C671 C 0.15716 0.08102 0.98819 0.0
H672 H 0.22365 0.11873 0.03207 0.0
H673 H 0.09726 0.05596 0.03279 0.0
H674 H 0.2234 0.15391 0.00138 0.0
H675 H 0.19852 0.20112 0.00865 0.0
H676 H 0.24253 0.17287 0.01689 0.0
H677 H 0.0399 0.07725 0.01863 0.0
H678 H 0.04565 0.1278 0.00958 0.0
H679 H 0.06398 0.07693 0.00274 0.0
H680 H 0.08624 0.24374 0.98386 0.0
H681 H 0.13363 0.12433 0.96661 0.0
H682 H 0.12716 0.22591 0.01516 0.0
H683 H 0.07297 0.20323 0.01497 0.0
H684 H 0.08405 0.25391 0.00644 0.0
H685 H 0.18867 0.08264 0.99358 0.0
H686 H 0.16362 0.06654 0.97852 0.0
H687 H 0.13505 0.05851 0.99358 0.0
C688 C 0.11934 0.83783 0.96561 0.0
C689 C 0.07367 0.84538 0.96539 0.0
C690 C 0.14589 0.85445 0.97555 0.0
C691 C 0.1267 0.88031 0.98539 0.0
C692 C 0.08148 0.89106 0.98474 0.0
C693 C 0.05542 0.873 0.97489 0.0
C694 C 0.19405 0.84229 0.9759 0.0
C695 C 0.05978 0.91963 0.99483 0.0
C696 C 0.17329 0.87566 0.01927 0.0
C697 C 0.19553 0.916 0.02017 0.0
C698 C 0.15183 0.86326 0.00787 0.0
C699 C 0.15261 0.89188 0.99708 0.0
C700 C 0.17645 0.93189 0.99774 0.0
C701 C 0.19777 0.94349 0.0093 0.0
C702 C 0.12688 0.82022 0.00756 0.0
C703 C 0.17748 0.96344 0.98647 0.0
H704 H 0.13455 0.81785 0.95822 0.0
H705 H 0.0205 0.87963 0.97499 0.0
H706 H 0.21461 0.87201 0.97743 0.0
H707 H 0.20018 0.81972 0.98415 0.0
H708 H 0.20491 0.82572 0.96688 0.0
H709 H 0.02937 0.93521 0.99103 0.0
H710 H 0.05076 0.89896 0.00327 0.0
H711 H 0.08212 0.94604 0.99826 0.0
H712 H 0.17161 0.85417 0.02762 0.0
H713 H 0.21443 0.97498 0.00998 0.0
H714 H 0.13735 0.80026 0.99913 0.0
H715 H 0.09119 0.82687 0.00647 0.0
H716 H 0.13185 0.80046 0.01648 0.0
H717 H 0.1866 0.94597 0.97746 0.0
H718 H 0.20104 0.99088 0.98804 0.0
H719 H 0.14416 0.97746 0.98499 0.0
C720 C 0.94872 0.7957 0.99145 0.0
C721 C 0.91716 0.79923 0.98161 0.0
C722 C 0.9437 0.81842 0.00317 0.0
C723 C 0.90596 0.84484 0.00516 0.0
C724 C 0.87352 0.84773 0.99538 0.0
C725 C 0.87954 0.82497 0.98372 0.0
C726 C 0.97952 0.81546 0.01324 0.0
C727 C 0.83296 0.87583 0.99712 0.0
C728 C 0.87002 0.8771 0.03897 0.0
C729 C 0.88326 0.92135 0.03959 0.0
C730 C 0.87831 0.85144 0.02797 0.0
C731 C 0.90065 0.87035 0.01734 0.0
C732 C 0.9158 0.9144 0.01811 0.0
C733 C 0.90663 0.93946 0.02918 0.0
C734 C 0.86156 0.80465 0.02752 0.0
C735 C 0.94009 0.93587 0.00706 0.0
H736 H 0.97827 0.7765 0.98984 0.0
H737 H 0.85513 0.82805 0.97614 0.0
H738 H 0.99333 0.84871 0.01507 0.0
H739 H 0.96569 0.80334 0.0225 0.0
H740 H 0.00671 0.79325 0.01025 0.0
H741 H 0.81036 0.87382 0.98871 0.0
H742 H 0.81486 0.86544 0.00591 0.0
H743 H 0.8427 0.91073 0.99849 0.0
H744 H 0.8514 0.86297 0.04686 0.0
H745 H 0.91737 0.97345 0.02962 0.0
H746 H 0.88864 0.78179 0.02495 0.0
H747 H 0.83603 0.80166 0.0199 0.0
H748 H 0.8471 0.794 0.03687 0.0
H749 H 0.96003 0.96434 0.01039 0.0
H750 H 0.9159 0.94793 0.99986 0.0
H751 H 0.96208 0.91216 0.00212 0.0
C752 C 0.81047 0.04095 0.01332 0.0
C753 C 0.81423 0.0713 0.02348 0.0
C754 C 0.83074 0.04877 0.00133 0.0
C755 C 0.85511 0.088 0.99944 0.0
C756 C 0.85789 0.11935 0.00952 0.0
C757 C 0.83744 0.11063 0.02141 0.0
C758 C 0.82748 0.01432 0.99087 0.0
C759 C 0.88358 0.16156 0.00788 0.0
C760 C 0.94536 0.09179 0.974 0.0
C761 C 0.92484 0.11511 0.96395 0.0
C762 C 0.92286 0.08203 0.9855 0.0
C763 C 0.87866 0.09586 0.98702 0.0
C764 C 0.85742 0.1185 0.97683 0.0
C765 C 0.88074 0.12789 0.96545 0.0
C766 C 0.947 0.05819 0.99617 0.0
C767 C 0.81037 0.13385 0.97809 0.0
H768 H 0.79306 0.01024 0.01485 0.0
H769 H 0.8406 0.13424 0.0292 0.0
H770 H 0.81509 0.02932 0.9818 0.0
H771 H 0.86065 0.00081 0.9888 0.0
H772 H 0.80541 0.9867 0.99361 0.0
H773 H 0.88069 0.18353 0.01642 0.0
H774 H 0.91886 0.15383 0.00635 0.0
H775 H 0.87194 0.17966 0.99922 0.0
H776 H 0.97918 0.08127 0.97293 0.0
H777 H 0.86464 0.14647 0.95789 0.0
H778 H 0.92569 0.03295 0.00072 0.0
H779 H 0.95629 0.08215 0.00378 0.0
H780 H 0.97747 0.04202 0.99262 0.0
H781 H 0.78872 0.10567 0.98056 0.0
H782 H 0.79799 0.14941 0.96908 0.0
H783 H 0.80773 0.15809 0.98607 0.0
C784 C 0.60974 0.85484 0.77085 0.0
C785 C 0.57272 0.8281 0.77288 0.0
C786 C 0.6186 0.87309 0.75866 0.0
C787 C 0.5899 0.86428 0.7482 0.0
C788 C 0.55291 0.83669 0.75012 0.0
C789 C 0.54479 0.8189 0.76243 0.0
C790 C 0.6582 0.90264 0.75704 0.0
C791 C 0.52138 0.82674 0.73923 0.0
C792 C 0.5927 0.94599 0.72036 0.0
C793 C 0.62142 0.92522 0.71163 0.0
C794 C 0.58134 0.92615 0.73216 0.0
C795 C 0.5987 0.88423 0.7353 0.0
C796 C 0.6263 0.86232 0.72637 0.0
C797 C 0.63745 0.88309 0.7147 0.0
C798 C 0.55176 0.95064 0.74142 0.0
C799 C 0.64521 0.81744 0.72933 0.0
H800 H 0.63143 0.86233 0.77886 0.0
H801 H 0.51589 0.79862 0.7639 0.0
H802 H 0.67989 0.88969 0.7493 0.0
H803 H 0.64746 0.93604 0.75403 0.0
H804 H 0.6777 0.90562 0.76607 0.0
H805 H 0.49535 0.80304 0.74215 0.0
H806 H 0.50534 0.8576 0.73596 0.0
H807 H 0.53948 0.81298 0.73085 0.0
H808 H 0.57932 0.97807 0.71806 0.0
H809 H 0.65994 0.86672 0.70819 0.0
H810 H 0.57033 0.95894 0.75032 0.0
H811 H 0.52374 0.9295 0.74435 0.0
H812 H 0.53864 0.98161 0.73719 0.0
H813 H 0.66768 0.81973 0.73775 0.0
H814 H 0.66379 0.80355 0.72104 0.0
H815 H 0.61851 0.79419 0.73197 0.0
C816 C 0.79866 0.45417 0.23733 0.0
C817 C 0.80606 0.42321 0.2275 0.0
C818 C 0.81599 0.44793 0.24978 0.0
C819 C 0.84127 0.40984 0.25246 0.0
C820 C 0.8479 0.37798 0.24267 0.0
C821 C 0.83011 0.38498 0.23034 0.0
C822 C 0.80833 0.48269 0.25996 0.0
C823 C 0.87493 0.33706 0.24511 0.0
C824 C 0.9259 0.40818 0.27942 0.0
C825 C 0.9048 0.38224 0.2888 0.0
C826 C 0.90503 0.41875 0.26772 0.0
C827 C 0.8618 0.40341 0.26537 0.0
C828 C 0.8395 0.37911 0.27502 0.0
C829 C 0.86128 0.36868 0.28658 0.0
C830 C 0.9299 0.44488 0.25768 0.0
C831 C 0.79324 0.36248 0.27291 0.0
H832 H 0.78042 0.48398 0.23522 0.0
H833 H 0.83609 0.36089 0.22282 0.0
H834 H 0.79433 0.46751 0.26881 0.0
H835 H 0.84012 0.498 0.2627 0.0
H836 H 0.78577 0.50906 0.25658 0.0
H837 H 0.876 0.31494 0.23657 0.0
H838 H 0.90911 0.34645 0.24766 0.0
H839 H 0.86123 0.31843 0.25341 0.0
H840 H 0.9591 0.4197 0.28109 0.0
H841 H 0.8446 0.34837 0.29363 0.0
H842 H 0.90957 0.4727 0.25416 0.0
H843 H 0.9371 0.42356 0.24924 0.0
H844 H 0.96147 0.45809 0.26145 0.0
H845 H 0.77157 0.38976 0.26969 0.0
H846 H 0.77902 0.3476 0.28179 0.0
H847 H 0.79325 0.33726 0.26516 0.0
C848 C 0.38397 0.06632 0.71952 0.0
C849 C 0.34814 0.07864 0.71177 0.0
C850 C 0.39842 0.09329 0.72968 0.0
C851 C 0.37663 0.13369 0.73212 0.0
C852 C 0.34185 0.14729 0.72398 0.0
C853 C 0.32798 0.1196 0.71393 0.0
C854 C 0.43573 0.07766 0.73815 0.0
C855 C 0.31762 0.18998 0.7263 0.0
C856 C 0.37567 0.17201 0.76692 0.0
C857 C 0.40905 0.20397 0.76701 0.0
C858 C 0.36463 0.14939 0.7556 0.0
C859 C 0.38706 0.15925 0.74398 0.0
C860 C 0.4196 0.19262 0.74384 0.0
C861 C 0.4303 0.2146 0.75538 0.0
C862 C 0.32959 0.11412 0.75615 0.0
C863 C 0.4434 0.20471 0.73154 0.0
H864 H 0.40029 0.03519 0.7178 0.0
H865 H 0.29998 0.12934 0.70815 0.0
H866 H 0.46136 0.10353 0.73887 0.0
H867 H 0.42334 0.07135 0.74807 0.0
H868 H 0.45112 0.04695 0.73447 0.0
H869 H 0.29508 0.19835 0.71821 0.0
H870 H 0.29794 0.18727 0.73529 0.0
H871 H 0.34117 0.2175 0.72764 0.0
H872 H 0.35888 0.16359 0.77582 0.0
H873 H 0.45614 0.23918 0.75534 0.0
H874 H 0.34309 0.08242 0.7526 0.0
H875 H 0.30185 0.12313 0.74971 0.0
H876 H 0.31659 0.10909 0.76607 0.0
H877 H 0.4572 0.17482 0.72689 0.0
H878 H 0.47048 0.22857 0.73325 0.0
H879 H 0.41984 0.21952 0.7246 0.0
C880 C 0.20633 0.5678 0.24143 0.0
C881 C 0.1948 0.58853 0.2298 0.0
C882 C 0.18535 0.57911 0.25307 0.0
C883 C 0.15212 0.61178 0.25302 0.0
C884 C 0.14153 0.63387 0.2414 0.0
C885 C 0.16317 0.6222 0.22997 0.0
C886 C 0.19814 0.55566 0.26537 0.0
C887 C 0.10631 0.66896 0.24094 0.0
C888 C 0.06033 0.6146 0.27777 0.0
C889 C 0.07244 0.65096 0.28535 0.0
C890 C 0.08703 0.60012 0.26757 0.0
C891 C 0.12705 0.62227 0.26495 0.0
C892 C 0.14063 0.65742 0.27296 0.0
C893 C 0.11311 0.67144 0.28302 0.0
C894 C 0.07138 0.56248 0.25921 0.0
C895 C 0.18305 0.68187 0.27047 0.0
H896 H 0.2307 0.54175 0.2414 0.0
H897 H 0.15412 0.63861 0.22106 0.0
H898 H 0.21312 0.57951 0.27219 0.0
H899 H 0.16859 0.54179 0.27018 0.0
H900 H 0.22201 0.52862 0.26362 0.0
H901 H 0.10128 0.68228 0.23105 0.0
H902 H 0.07465 0.65527 0.24445 0.0
H903 H 0.11522 0.69656 0.24745 0.0
H904 H 0.02951 0.59791 0.27963 0.0
H905 H 0.12278 0.69978 0.28867 0.0
H906 H 0.0977 0.53745 0.25816 0.0
H907 H 0.06356 0.57495 0.2494 0.0
H908 H 0.04155 0.54626 0.2632 0.0
H909 H 0.21057 0.65842 0.26901 0.0
H910 H 0.19166 0.70444 0.27853 0.0
H911 H 0.17987 0.70163 0.2615 0.0
C912 C 0.64102 0.61584 0.53385 0.0
C913 C 0.68539 0.62011 0.53742 0.0
C914 C 0.62418 0.63818 0.52309 0.0
C915 C 0.65212 0.66637 0.51593 0.0
C916 C 0.69534 0.67471 0.52033 0.0
C917 C 0.7116 0.65126 0.53098 0.0
C918 C 0.57777 0.62841 0.51871 0.0
C919 C 0.72577 0.70539 0.51312 0.0
C920 C 0.63362 0.66643 0.47983 0.0
C921 C 0.60882 0.70488 0.47806 0.0
C922 C 0.64824 0.65396 0.49211 0.0
C923 C 0.63866 0.68112 0.50286 0.0
C924 C 0.61523 0.72093 0.50108 0.0
C925 C 0.60015 0.73216 0.48869 0.0
C926 C 0.67255 0.6108 0.49362 0.0
C927 C 0.60507 0.75096 0.51231 0.0
H928 H 0.61998 0.59312 0.53903 0.0
H929 H 0.74577 0.65527 0.53363 0.0
H930 H 0.56016 0.65923 0.51621 0.0
H931 H 0.57884 0.60776 0.50987 0.0
H932 H 0.55858 0.61053 0.52619 0.0
H933 H 0.75496 0.7145 0.51899 0.0
H934 H 0.73741 0.68899 0.50418 0.0
H935 H 0.7083 0.73591 0.51022 0.0
H936 H 0.64012 0.64496 0.47169 0.0
H937 H 0.58102 0.76195 0.48735 0.0
H938 H 0.65335 0.58823 0.4999 0.0
H939 H 0.70478 0.61636 0.49837 0.0
H940 H 0.67834 0.59417 0.48422 0.0
H941 H 0.58115 0.73472 0.51885 0.0
H942 H 0.59095 0.7829 0.5091 0.0
H943 H 0.63526 0.7575 0.51801 0.0
C944 C 0.53418 0.39274 0.47467 0.0
C945 C 0.55208 0.36269 0.46582 0.0
C946 C 0.55951 0.40943 0.48492 0.0
C947 C 0.60379 0.39578 0.48634 0.0
C948 C 0.62214 0.36582 0.47738 0.0
C949 C 0.5961 0.34964 0.46726 0.0
C950 C 0.53896 0.44182 0.49417 0.0
C951 C 0.66919 0.35039 0.47858 0.0
C952 C 0.68207 0.46602 0.5062 0.0
C953 C 0.68292 0.44328 0.51802 0.0
C954 C 0.65643 0.45101 0.49583 0.0
C955 C 0.63093 0.41232 0.49728 0.0
C956 C 0.63182 0.38901 0.50913 0.0
C957 C 0.65786 0.40471 0.51935 0.0
C958 C 0.65618 0.47694 0.48337 0.0
C959 C 0.60469 0.34786 0.51109 0.0
H960 H 0.50044 0.40348 0.47355 0.0
H961 H 0.61005 0.32589 0.46063 0.0
H962 H 0.54343 0.43055 0.50428 0.0
H963 H 0.55573 0.4741 0.49327 0.0
H964 H 0.50329 0.44657 0.49232 0.0
H965 H 0.67877 0.32763 0.47067 0.0
H966 H 0.69178 0.3791 0.47847 0.0
H967 H 0.67389 0.33325 0.48795 0.0
H968 H 0.70093 0.49608 0.50509 0.0
H969 H 0.6578 0.38717 0.52847 0.0
H970 H 0.62265 0.48987 0.48151 0.0
H971 H 0.66494 0.45526 0.47514 0.0
H972 H 0.67948 0.50511 0.48359 0.0
H973 H 0.56929 0.35552 0.50975 0.0
H974 H 0.60929 0.33334 0.52085 0.0
H975 H 0.61364 0.32279 0.50375 0.0
C976 C 0.41985 0.39017 0.5368 0.0
C977 C 0.38959 0.37269 0.54569 0.0
C978 C 0.42641 0.3705 0.52469 0.0
C979 C 0.40279 0.33189 0.52145 0.0
C980 C 0.37439 0.31245 0.53064 0.0
C981 C 0.36797 0.33314 0.54261 0.0
C982 C 0.45687 0.3924 0.51511 0.0
C983 C 0.349 0.27098 0.5276 0.0
C984 C 0.37844 0.31346 0.48594 0.0
C985 C 0.41121 0.28318 0.48245 0.0
C986 C 0.37518 0.3292 0.49863 0.0
C987 C 0.40505 0.31391 0.50812 0.0
C988 C 0.43725 0.28226 0.50478 0.0
C989 C 0.44002 0.26733 0.49197 0.0
C990 C 0.34054 0.3632 0.5018 0.0
C991 C 0.4696 0.26517 0.51465 0.0
H992 H 0.43763 0.42 0.5391 0.0
H993 H 0.34434 0.31917 0.54925 0.0
H994 H 0.4804 0.36813 0.51107 0.0
H995 H 0.43741 0.40572 0.50692 0.0
H996 H 0.47574 0.41991 0.51951 0.0
H997 H 0.33188 0.2575 0.53622 0.0
H998 H 0.32405 0.27809 0.52006 0.0
H999 H 0.37132 0.24533 0.5237 0.0
H1000 H 0.35613 0.32607 0.47866 0.0
H1001 H 0.46554 0.24406 0.48936 0.0
H1002 H 0.35643 0.39367 0.50543 0.0
H1003 H 0.31876 0.35076 0.50959 0.0
H1004 H 0.31994 0.37181 0.4933 0.0
H1005 H 0.49146 0.29235 0.51782 0.0
H1006 H 0.49034 0.23813 0.51076 0.0
H1007 H 0.45195 0.25297 0.52332 0.0
C1008 C 0.35696 0.51852 0.5218 0.0
C1009 C 0.36223 0.54181 0.5334 0.0
C1010 C 0.37527 0.53418 0.5102 0.0
C1011 C 0.39911 0.57427 0.51018 0.0
C1012 C 0.40477 0.59776 0.52188 0.0
C1013 C 0.38639 0.58119 0.53334 0.0
C1014 C 0.36923 0.50772 0.49798 0.0
C1015 C 0.43005 0.64058 0.52227 0.0
C1016 C 0.47606 0.60013 0.48214 0.0
C1017 C 0.45023 0.62867 0.4746 0.0
C1018 C 0.45995 0.58216 0.49374 0.0
C1019 C 0.41678 0.59254 0.49786 0.0
C1020 C 0.39046 0.62104 0.49029 0.0
C1021 C 0.40751 0.63884 0.47882 0.0
C1022 C 0.48915 0.55215 0.5016 0.0
C1023 C 0.34432 0.63311 0.49438 0.0
H1024 H 0.33902 0.48767 0.52179 0.0
H1025 H 0.3908 0.59928 0.54226 0.0
H1026 H 0.3534 0.52828 0.49044 0.0
H1027 H 0.40178 0.4974 0.4942 0.0
H1028 H 0.34884 0.47783 0.49956 0.0
H1029 H 0.43211 0.65444 0.53218 0.0
H1030 H 0.46392 0.63551 0.51858 0.0
H1031 H 0.41401 0.66518 0.51589 0.0
H1032 H 0.50885 0.59145 0.47898 0.0
H1033 H 0.38744 0.6614 0.47328 0.0
H1034 H 0.47386 0.51909 0.50238 0.0
H1035 H 0.49273 0.56509 0.51156 0.0
H1036 H 0.52244 0.54861 0.4973 0.0
H1037 H 0.32415 0.60289 0.49549 0.0
H1038 H 0.32787 0.65526 0.48734 0.0
H1039 H 0.34513 0.64974 0.50392 0.0
C1040 C 0.93791 0.1156 0.30911 0.0
C1041 C 0.97855 0.12786 0.31436 0.0
C1042 C 0.92569 0.0711 0.30838 0.0
C1043 C 0.95529 0.03835 0.31277 0.0
C1044 C 0.99653 0.05068 0.31799 0.0
C1045 C 0.00747 0.09539 0.31884 0.0
C1046 C 0.88114 0.05913 0.30299 0.0
C1047 C 0.0293 0.01665 0.32254 0.0
C1048 C 0.91696 0.92357 0.32179 0.0
C1049 C 0.92809 0.89978 0.31067 0.0
C1050 C 0.92408 0.96915 0.32242 0.0
C1051 C 0.94362 0.99104 0.31179 0.0
C1052 C 0.95427 0.96719 0.30047 0.0
C1053 C 0.94599 0.92182 0.30001 0.0
C1054 C 0.91154 0.99371 0.33455 0.0
C1055 C 0.97586 0.98927 0.28903 0.0
H1056 H 0.91548 0.1409 0.30575 0.0
H1057 H 0.03906 0.10503 0.32279 0.0
H1058 H 0.88509 0.03815 0.2943 0.0
H1059 H 0.86237 0.03968 0.3102 0.0
H1060 H 0.86154 0.08864 0.30031 0.0
H1061 H 0.06018 0.03177 0.32617 0.0
H1062 H 0.01472 0.99645 0.33038 0.0
H1063 H 0.03758 0.99399 0.31449 0.0
H1064 H 0.90274 0.90644 0.32998 0.0
H1065 H 0.95489 0.90322 0.29146 0.0
H1066 H 0.89055 0.02243 0.33211 0.0
H1067 H 0.94154 0.00659 0.33933 0.0
H1068 H 0.89361 0.97248 0.34154 0.0
H1069 H 0.95576 0.01759 0.28572 0.0
H1070 H 0.98054 0.96633 0.28079 0.0
H1071 H 0.00846 0.00242 0.29192 0.0
C1072 C 0.08199 0.99014 0.68031 0.0
C1073 C 0.09621 0.94937 0.68515 0.0
C1074 C 0.03716 0.00052 0.67961 0.0
C1075 C 0.00575 0.9696 0.68402 0.0
C1076 C 0.01973 0.92832 0.68887 0.0
C1077 C 0.06482 0.9186 0.68932 0.0
C1078 C 0.02346 0.04481 0.67431 0.0
C1079 C 0.98708 0.89465 0.69371 0.0
C1080 C 0.89476 0.01556 0.69381 0.0
C1081 C 0.86902 0.00602 0.68291 0.0
C1082 C 0.9391 0.00308 0.69439 0.0
C1083 C 0.9583 0.98099 0.68377 0.0
C1084 C 0.93256 0.97107 0.67277 0.0
C1085 C 0.88814 0.98349 0.6725 0.0
C1086 C 0.96553 0.01402 0.70632 0.0
C1087 C 0.95206 0.94777 0.66122 0.0
H1088 H 0.106 0.01442 0.67727 0.0
H1089 H 0.07547 0.88679 0.6929 0.0
H1090 H 0.00013 0.04034 0.66618 0.0
H1091 H 0.0061 0.06389 0.68189 0.0
H1092 H 0.05193 0.06448 0.67085 0.0
H1093 H 0.00331 0.86397 0.6971 0.0
H1094 H 0.96772 0.90869 0.70181 0.0
H1095 H 0.9635 0.88611 0.68593 0.0
H1096 H 0.88044 0.03346 0.70182 0.0
H1097 H 0.86831 0.97526 0.66415 0.0
H1098 H 0.99269 0.03682 0.70377 0.0
H1099 H 0.98069 0.98369 0.71032 0.0
H1100 H 0.94517 0.02961 0.71397 0.0
H1101 H 0.9794 0.96765 0.65716 0.0
H1102 H 0.92741 0.94196 0.65349 0.0
H1103 H 0.96607 0.91561 0.66421 0.0
C1104 C 0.92925 0.56706 0.92603 0.0
C1105 C 0.93548 0.59128 0.93739 0.0
C1106 C 0.9374 0.52159 0.92574 0.0
C1107 C 0.95288 0.50023 0.93703 0.0
C1108 C 0.95832 0.52444 0.94859 0.0
C1109 C 0.94924 0.56968 0.94865 0.0
C1110 C 0.93053 0.49664 0.9133 0.0
C1111 C 0.9754 0.50296 0.96076 0.0
C1112 C 0.94998 0.37548 0.93964 0.0
C1113 C 0.99294 0.36452 0.93596 0.0
C1114 C 0.93613 0.41958 0.93985 0.0
C1115 C 0.96629 0.45327 0.93653 0.0
C1116 C 0.00982 0.44227 0.93291 0.0
C1117 C 0.0225 0.39796 0.93257 0.0
C1118 C 0.88928 0.43012 0.94356 0.0
C1119 C 0.04315 0.47734 0.92952 0.0
H1120 H 0.91818 0.58376 0.91736 0.0
H1121 H 0.95444 0.58855 0.95741 0.0
H1122 H 0.96263 0.48472 0.90959 0.0
H1123 H 0.90962 0.46726 0.91502 0.0
H1124 H 0.91488 0.5173 0.90572 0.0
H1125 H 0.97567 0.52595 0.9691 0.0
H1126 H 0.95497 0.47395 0.9633 0.0
H1127 H 0.00942 0.49095 0.95913 0.0
H1128 H 0.92707 0.34948 0.94216 0.0
H1129 H 0.05586 0.3894 0.92985 0.0
H1130 H 0.87309 0.44887 0.93567 0.0
H1131 H 0.88885 0.45132 0.95228 0.0
H1132 H 0.86966 0.40001 0.94556 0.0
H1133 H 0.03129 0.49705 0.92119 0.0
H1134 H 0.07577 0.46321 0.92703 0.0
H1135 H 0.04734 0.50025 0.93777 0.0
C1136 C 0.58765 0.03315 0.067 0.0
C1137 C 0.62167 0.00217 0.06616 0.0
C1138 C 0.54356 0.01979 0.06716 0.0
C1139 C 0.53336 0.97437 0.06642 0.0
C1140 C 0.56755 0.94288 0.06566 0.0
C1141 C 0.6114 0.95719 0.06557 0.0
C1142 C 0.5079 0.05429 0.06805 0.0
C1143 C 0.55779 0.89421 0.06477 0.0
C1144 C 0.41902 0.94223 0.07751 0.0
C1145 C 0.39609 0.94124 0.06575 0.0
C1146 C 0.46414 0.95166 0.07785 0.0
C1147 C 0.48675 0.96013 0.06616 0.0
C1148 C 0.46417 0.95754 0.05424 0.0
C1149 C 0.41906 0.94822 0.05418 0.0
C1150 C 0.48729 0.95398 0.09073 0.0
C1151 C 0.48727 0.96629 0.04157 0.0
H1152 H 0.59555 0.06789 0.06766 0.0
H1153 H 0.63769 0.93321 0.0648 0.0
H1154 H 0.48639 0.05253 0.05941 0.0
H1155 H 0.48691 0.04795 0.07662 0.0
H1156 H 0.52145 0.08819 0.06877 0.0
H1157 H 0.58821 0.87395 0.06457 0.0
H1158 H 0.53742 0.8837 0.07312 0.0
H1159 H 0.53854 0.88734 0.0559 0.0
H1160 H 0.40153 0.93618 0.08646 0.0
H1161 H 0.40143 0.94804 0.04508 0.0
H1162 H 0.49874 0.98816 0.0925 0.0
H1163 H 0.5168 0.9325 0.0907 0.0
H1164 H 0.46562 0.94391 0.09886 0.0
H1165 H 0.49811 0.00117 0.04119 0.0
H1166 H 0.46575 0.95978 0.03311 0.0
H1167 H 0.51713 0.94549 0.04076 0.0
C1168 C 0.45001 0.4298 0.82387 0.0
C1169 C 0.44702 0.40778 0.812 0.0
C1170 C 0.45977 0.47487 0.82438 0.0
C1171 C 0.46662 0.49839 0.81275 0.0
C1172 C 0.46219 0.47669 0.80073 0.0
C1173 C 0.45244 0.43158 0.8005 0.0
C1174 C 0.46399 0.49704 0.83738 0.0
C1175 C 0.46929 0.50076 0.78813 0.0
C1176 C 0.46278 0.62321 0.81354 0.0
C1177 C 0.50765 0.63384 0.81399 0.0
C1178 C 0.44886 0.57921 0.81313 0.0
C1179 C 0.4806 0.54515 0.81318 0.0
C1180 C 0.52593 0.55566 0.81365 0.0
C1181 C 0.53891 0.59991 0.81406 0.0
C1182 C 0.40025 0.56914 0.81259 0.0
C1183 C 0.56073 0.52015 0.81376 0.0
H1184 H 0.44517 0.41163 0.83277 0.0
H1185 H 0.45061 0.41459 0.79131 0.0
H1186 H 0.49825 0.50871 0.83876 0.0
H1187 H 0.44227 0.52636 0.83783 0.0
H1188 H 0.45544 0.4746 0.84548 0.0
H1189 H 0.46187 0.47979 0.77961 0.0
H1190 H 0.44829 0.5306 0.7877 0.0
H1191 H 0.50399 0.51186 0.78746 0.0
H1192 H 0.43854 0.64938 0.81333 0.0
H1193 H 0.5736 0.60797 0.8146 0.0
H1194 H 0.39075 0.54821 0.82092 0.0
H1195 H 0.39262 0.55029 0.80369 0.0
H1196 H 0.3798 0.59945 0.8127 0.0
H1197 H 0.55604 0.49839 0.82226 0.0
H1198 H 0.59457 0.5339 0.81407 0.0
H1199 H 0.55758 0.4993 0.80501 0.0
C1200 C 0.60847 0.52959 0.18216 0.0
C1201 C 0.61799 0.48446 0.18291 0.0
C1202 C 0.56485 0.5446 0.18201 0.0
C1203 C 0.53012 0.51367 0.18262 0.0
C1204 C 0.53953 0.46806 0.18321 0.0
C1205 C 0.58339 0.454 0.18333 0.0
C1206 C 0.55594 0.59348 0.1814 0.0
C1207 C 0.50327 0.4341 0.18382 0.0
C1208 C 0.41786 0.54577 0.19529 0.0
C1209 C 0.3933 0.54821 0.18385 0.0
C1210 C 0.4629 0.53614 0.195 0.0
C1211 C 0.48377 0.52876 0.18297 0.0
C1212 C 0.45958 0.53291 0.17136 0.0
C1213 C 0.41455 0.54262 0.17194 0.0
C1214 C 0.48771 0.53199 0.20758 0.0
C1215 C 0.48088 0.52555 0.15836 0.0
H1216 H 0.63517 0.55325 0.18195 0.0
H1217 H 0.59063 0.41907 0.1837 0.0
H1218 H 0.53428 0.60111 0.17307 0.0
H1219 H 0.53838 0.6041 0.19026 0.0
H1220 H 0.58664 0.61309 0.18048 0.0
H1221 H 0.5162 0.39988 0.18403 0.0
H1222 H 0.48298 0.43944 0.19259 0.0
H1223 H 0.48122 0.43763 0.17534 0.0
H1224 H 0.40149 0.54964 0.20452 0.0
H1225 H 0.39579 0.54519 0.16307 0.0
H1226 H 0.51789 0.55251 0.20734 0.0
H1227 H 0.49821 0.49732 0.20898 0.0
H1228 H 0.46749 0.54205 0.21602 0.0
H1229 H 0.51078 0.54624 0.15741 0.0
H1230 H 0.45828 0.5332 0.15024 0.0
H1231 H 0.49139 0.49068 0.15752 0.0
C1232 C 0.53524 0.90755 0.4436 0.0
C1233 C 0.53457 0.88226 0.43229 0.0
C1234 C 0.5216 0.95154 0.44346 0.0
C1235 C 0.50724 0.97055 0.43172 0.0
C1236 C 0.50768 0.94556 0.42019 0.0
C1237 C 0.52125 0.90151 0.42063 0.0
C1238 C 0.52135 0.97726 0.45595 0.0
C1239 C 0.49305 0.9651 0.40748 0.0
C1240 C 0.43045 0.06801 0.43461 0.0
C1241 C 0.45965 0.10334 0.43309 0.0
C1242 C 0.44542 0.02446 0.43394 0.0
C1243 C 0.49055 0.01627 0.43162 0.0
C1244 C 0.52 0.05174 0.42977 0.0
C1245 C 0.5042 0.09492 0.43058 0.0
C1246 C 0.41315 0.98726 0.43597 0.0
C1247 C 0.56833 0.04408 0.42725 0.0
H1248 H 0.54506 0.89246 0.45264 0.0
H1249 H 0.5212 0.88199 0.41186 0.0
H1250 H 0.5409 0.00789 0.45487 0.0
H1251 H 0.48719 0.98716 0.45836 0.0
H1252 H 0.53492 0.95798 0.46416 0.0
H1253 H 0.49727 0.94177 0.39931 0.0
H1254 H 0.45787 0.97458 0.40807 0.0
H1255 H 0.51203 0.99548 0.40537 0.0
H1256 H 0.39589 0.07441 0.43635 0.0
H1257 H 0.527 0.12216 0.42957 0.0
H1258 H 0.42269 0.96789 0.44462 0.0
H1259 H 0.41386 0.96456 0.42758 0.0
H1260 H 0.37893 -0.00073 0.4373 0.0
H1261 H 0.58359 0.02797 0.43576 0.0
H1262 H 0.58629 0.07522 0.42524 0.0
H1263 H 0.57268 0.02157 0.41891 0.0
C1264 C 0.13136 0.45478 0.56917 0.0
C1265 C 0.14884 0.49719 0.56743 0.0
C1266 C 0.08652 0.44649 0.56737 0.0
C1267 C 0.05871 0.48111 0.56331 0.0
C1268 C 0.0762 0.5236 0.56106 0.0
C1269 C 0.12097 0.53132 0.56334 0.0
C1270 C 0.06875 0.40097 0.57013 0.0
C1271 C 0.0475 0.56107 0.55646 0.0
C1272 C 0.94754 0.44943 0.54964 0.0
C1273 C 0.91967 0.45848 0.56013 0.0
C1274 C 0.99288 0.45737 0.55045 0.0
C1275 C 0.01085 0.4734 0.56213 0.0
C1276 C 0.98318 0.48178 0.57282 0.0
C1277 C 0.9379 0.47497 0.57161 0.0
C1278 C 0.02147 0.44904 0.53877 0.0
C1279 C 0.00139 0.49806 0.58553 0.0
H1280 H 0.15271 0.42787 0.57198 0.0
H1281 H 0.13385 0.56432 0.56212 0.0
H1282 H 0.0438 0.40273 0.57794 0.0
H1283 H 0.0521 0.38759 0.56145 0.0
H1284 H 0.09494 0.37757 0.57312 0.0
H1285 H 0.06693 0.59095 0.55404 0.0
H1286 H 0.02857 0.55092 0.5478 0.0
H1287 H 0.02336 0.56979 0.56407 0.0
H1288 H 0.93402 0.43614 0.54079 0.0
H1289 H 0.91674 0.48333 0.57966 0.0
H1290 H 0.04634 0.42344 0.54102 0.0
H1291 H 0.03962 0.4795 0.53617 0.0
H1292 H 0.00209 0.43813 0.53026 0.0
H1293 H 0.0272 0.4752 0.58907 0.0
H1294 H 0.97558 0.50104 0.59308 0.0
H1295 H 0.01702 0.53074 0.5842 0.0
C1296 C 0.92887 0.55987 0.32522 0.0
C1297 C 0.93394 0.60226 0.33028 0.0
C1298 C 0.94628 0.52327 0.33154 0.0
C1299 C 0.96847 0.52911 0.34348 0.0
C1300 C 0.96887 0.5711 0.34943 0.0
C1301 C 0.95186 0.60756 0.34266 0.0
C1302 C 0.94436 0.47917 0.32471 0.0
C1303 C 0.98825 0.57766 0.36271 0.0
C1304 C -0.00195 0.41363 0.34975 0.0
C1305 C 0.03495 0.41204 0.34165 0.0
C1306 C 0.9797 0.45449 0.35314 0.0
C1307 C -0.00187 0.49333 0.34787 0.0
C1308 C 0.04056 0.4917 0.34224 0.0
C1309 C 0.05867 0.45067 0.33924 0.0
C1310 C 0.9369 0.45565 0.36046 0.0
C1311 C 0.06282 0.5325 0.33703 0.0
H1312 H 0.91381 0.55545 0.31582 0.0
H1313 H 0.95446 0.64025 0.34679 0.0
H1314 H 0.97809 0.46775 0.32236 0.0
H1315 H 0.92887 0.45408 0.33101 0.0
H1316 H 0.92529 0.4806 0.31556 0.0
H1317 H 0.99227 0.61309 0.36511 0.0
H1318 H 0.96597 0.56254 0.36996 0.0
H1319 H 0.02056 0.56103 0.36365 0.0
H1320 H 0.98043 0.38359 0.35207 0.0
H1321 H 0.08837 0.44918 0.33345 0.0
H1322 H 0.90905 0.45373 0.35355 0.0
H1323 H 0.93368 0.48675 0.36601 0.0
H1324 H 0.93433 0.42721 0.36717 0.0
H1325 H 0.04633 0.54283 0.32795 0.0
H1326 H 0.09812 0.52653 0.33488 0.0
H1327 H 0.06035 0.56008 0.344 0.0
C1328 C 0.43615 0.92902 0.67382 0.0
C1329 C 0.3943 0.93354 0.66837 0.0
C1330 C 0.47312 0.94654 0.66771 0.0
C1331 C 0.46812 0.96818 0.65565 0.0
C1332 C 0.42701 0.96714 0.64925 0.0
C1333 C 0.39013 0.95025 0.6558 0.0
C1334 C 0.51643 0.94602 0.67494 0.0
C1335 C 0.42166 0.98606 0.63586 0.0
C1336 C 0.54066 0.06376 0.66023 0.0
C1337 C 0.58096 0.04323 0.65778 0.0
C1338 C 0.50121 0.04235 0.65735 0.0
C1339 C 0.50277 -0.00017 0.65173 0.0
C1340 C 0.54297 0.98393 0.64666 0.0
C1341 C 0.58219 0.00568 0.64993 0.0
C1342 C 0.459 0.06158 0.66261 0.0
C1343 C 0.54543 0.94069 0.63957 0.0
H1344 H 0.4397 0.91484 0.68338 0.0
H1345 H 0.35788 0.95242 0.65138 0.0
H1346 H 0.54273 0.93184 0.66881 0.0
H1347 H 0.52624 0.98014 0.67748 0.0
H1348 H 0.51473 0.92648 0.684 0.0
H1349 H 0.3877 0.98179 0.63211 0.0
H1350 H 0.42985 0.02164 0.63581 0.0
H1351 H 0.44495 0.96964 0.62917 0.0
H1352 H 0.53989 0.09383 0.66588 0.0
H1353 H 0.61348 0.99041 0.64765 0.0
H1354 H 0.44973 0.04392 0.67161 0.0
H1355 H 0.43171 0.05767 0.65563 0.0
H1356 H 0.46249 0.09714 0.66493 0.0
H1357 H 0.55285 0.91386 0.64651 0.0
H1358 H 0.57229 0.94137 0.6323 0.0
H1359 H 0.51393 0.93288 0.63467 0.0
C1360 C 0.02298 0.07907 0.90203 0.0
C1361 C 0.0572 0.08005 0.9111 0.0
C1362 C 0.00501 0.03857 0.89813 0.0
C1363 C 0.02077 -0.00066 0.90387 0.0
C1364 C 0.06087 0.00018 0.91082 0.0
C1365 C 0.07886 0.04084 0.91429 0.0
C1366 C 0.96528 0.03822 0.88944 0.0
C1367 C 0.08059 0.95883 0.91649 0.0
C1368 C 0.942 0.93185 0.92341 0.0
C1369 C 0.94938 0.88965 0.91845 0.0
C1370 C 0.96212 0.96872 0.91797 0.0
C1371 C 0.98935 0.96341 0.90694 0.0
C1372 C 0.99223 0.92167 0.90088 0.0
C1373 C 0.97264 0.8849 0.90684 0.0
C1374 C 0.95754 0.01243 0.92489 0.0
C1375 C 0.01806 0.91479 0.88861 0.0
H1376 H 0.00712 0.10947 0.8991 0.0
H1377 H 0.10671 0.0417 0.92083 0.0
H1378 H 0.96314 0.00685 0.88396 0.0
H1379 H 0.93502 0.04158 0.89534 0.0
H1380 H 0.96632 0.06625 0.88254 0.0
H1381 H 0.114 0.96465 0.92049 0.0
H1382 H 0.05922 0.94643 0.9244 0.0
H1383 H 0.0828 0.93277 0.90903 0.0
H1384 H 0.92291 0.93586 0.93218 0.0
H1385 H 0.97753 0.85238 0.90276 0.0
H1386 H 0.94448 0.03783 0.91823 0.0
H1387 H 0.99015 0.02379 0.92837 0.0
H1388 H 0.93512 0.0105 0.93335 0.0
H1389 H 0.02604 0.94619 0.88364 0.0
H1390 H -0.00087 0.89353 0.88188 0.0
H1391 H 0.04908 0.89716 0.89087 0.0
C1392 C 0.9449 0.09035 0.08616 0.0
C1393 C 0.90654 0.0672 0.08926 0.0
C1394 C 0.9859 0.07438 0.09006 0.0
C1395 C 0.98776 0.0346 0.0972 0.0
C1396 C 0.94895 0.01793 0.10292 0.0
C1397 C 0.90814 0.03408 0.09869 0.0
C1398 C 0.02669 0.09508 0.08436 0.0
C1399 C 0.95025 0.97842 0.11172 0.0
C1400 C 0.0556 0.95741 0.0773 0.0
C1401 C 0.0976 0.96449 0.08239 0.0
C1402 C 0.01869 0.97695 0.08283 0.0
C1403 C 0.02385 0.00371 0.09397 0.0
C1404 C 0.06545 0.00668 0.10006 0.0
C1405 C 0.10222 0.98714 0.09411 0.0
C1406 C 0.97497 0.97194 0.07596 0.0
C1407 C 0.0713 0.03127 0.1126 0.0
H1408 H 0.94339 0.1174 0.07933 0.0
H1409 H 0.87825 0.01716 0.10153 0.0
H1410 H 0.05387 0.09556 0.09148 0.0
H1411 H 0.03766 0.07539 0.07591 0.0
H1412 H 0.02046 0.12933 0.08104 0.0
H1413 H 0.92143 0.97809 0.11831 0.0
H1414 H 0.94928 0.94787 0.10585 0.0
H1415 H 0.98096 0.97807 0.11752 0.0
H1416 H 0.05174 0.93869 0.06846 0.0
H1417 H 0.13463 0.99137 0.09828 0.0
H1418 H 0.96351 0.00442 0.07237 0.0
H1419 H 0.94971 0.95897 0.08267 0.0
H1420 H 0.97689 0.94922 0.06757 0.0
H1421 H 0.05407 0.06345 0.11242 0.0
H1422 H 0.10654 0.03689 0.11491 0.0
H1423 H 0.05648 0.01161 0.12053 0.0
C1424 C 0.48301 0.11507 0.84134 0.0
C1425 C 0.46278 0.1097 0.82927 0.0
C1426 C 0.50214 0.07888 0.84771 0.0
C1427 C 0.50133 0.03703 0.8417 0.0
C1428 C 0.47733 0.03105 0.83006 0.0
C1429 C 0.45808 0.06743 0.8241 0.0
C1430 C 0.52376 0.08561 0.86068 0.0
C1431 C 0.47481 0.98701 0.82322 0.0
C1432 C 0.58995 0.95822 0.83616 0.0
C1433 C 0.56623 0.91987 0.83892 0.0
C1434 C 0.57293 -0.00062 0.83953 0.0
C1435 C 0.53153 0.00133 0.84577 0.0
C1436 C 0.51372 0.96269 0.85133 0.0
C1437 C 0.53105 0.92171 0.84765 0.0
C1438 C 0.5947 0.04005 0.83408 0.0
C1439 C 0.47212 0.96419 0.85921 0.0
H1440 H 0.48538 0.14765 0.84555 0.0
H1441 H 0.44144 0.06295 0.81494 0.0
H1442 H 0.5023 0.07137 0.86829 0.0
H1443 H 0.55586 0.06838 0.86126 0.0
H1444 H 0.52885 0.12106 0.86287 0.0
H1445 H 0.45424 0.9883 0.81436 0.0
H1446 H 0.50822 0.97599 0.82038 0.0
H1447 H 0.46064 0.96169 0.82971 0.0
H1448 H 0.61844 0.95649 0.82988 0.0
H1449 H 0.51355 0.89184 0.85021 0.0
H1450 H 0.59301 0.06775 0.84103 0.0
H1451 H 0.5773 0.05025 0.82514 0.0
H1452 H 0.62975 0.03393 0.83162 0.0
H1453 H 0.47024 0.93566 0.86591 0.0
H1454 H 0.44323 0.96275 0.85268 0.0
H1455 H 0.47014 0.99522 0.86484 0.0
C1456 C 0.90705 0.44742 0.15301 0.0
C1457 C 0.90509 0.41535 0.16274 0.0
C1458 C 0.94786 0.46464 0.14917 0.0
C1459 C 0.98635 0.4499 0.15549 0.0
C1460 C 0.98473 0.41124 0.16314 0.0
C1461 C 0.94373 0.39421 0.16665 0.0
C1462 C 0.94897 0.50328 0.14003 0.0
C1463 C 0.02523 0.39299 0.16968 0.0
C1464 C 0.09969 0.50059 0.15772 0.0
C1465 C 0.09471 0.52552 0.16903 0.0
C1466 C 0.06344 0.47879 0.15221 0.0
C1467 C 0.02191 0.48184 0.15832 0.0
C1468 C 0.01621 0.51044 0.16903 0.0
C1469 C 0.05267 0.53217 0.17414 0.0
C1470 C 0.06979 0.45154 0.14017 0.0
C1471 C 0.97245 0.51538 0.17589 0.0
H1472 H 0.87707 0.46288 0.1496 0.0
H1473 H 0.94207 0.36809 0.17379 0.0
H1474 H 0.94611 0.53433 0.14562 0.0
H1475 H 0.98036 0.50423 0.13457 0.0
H1476 H 0.92107 0.50189 0.13312 0.0
H1477 H 0.01973 0.359 0.17333 0.0
H1478 H 0.05365 0.39264 0.16299 0.0
H1479 H 0.03393 0.41426 0.17802 0.0
H1480 H 0.1321 0.49646 0.15353 0.0
H1481 H 0.0485 0.55235 0.18269 0.0
H1482 H 0.05212 0.46744 0.13204 0.0
H1483 H 0.05562 0.41812 0.14137 0.0
H1484 H 0.10504 0.44835 0.13751 0.0
H1485 H 0.9467 0.52611 0.16899 0.0
H1486 H 0.97376 0.53976 0.18387 0.0
H1487 H 0.96208 0.48328 0.18001 0.0
C1488 C 0.50679 0.58667 0.41014 0.0
C1489 C 0.53684 0.58314 0.42037 0.0
C1490 C 0.48214 0.55007 0.40619 0.0
C1491 C 0.48746 0.5097 0.41281 0.0
C1492 C 0.52155 0.5049 0.42206 0.0
C1493 C 0.54605 0.54179 0.42567 0.0
C1494 C 0.44779 0.55601 0.39583 0.0
C1495 C 0.52901 0.46211 0.42924 0.0
C1496 C 0.3989 0.43868 0.42586 0.0
C1497 C 0.41181 0.39828 0.42061 0.0
C1498 C 0.41914 0.47767 0.42188 0.0
C1499 C 0.45275 0.47566 0.41242 0.0
C1500 C 0.45985 0.43625 0.40549 0.0
C1501 C 0.4393 0.39754 0.40974 0.0
C1502 C 0.40932 0.51957 0.4292 0.0
C1503 C 0.49335 0.43363 0.39478 0.0
H1504 H 0.50028 0.61853 0.40581 0.0
H1505 H 0.57002 0.53879 0.43337 0.0
H1506 H 0.43984 0.52452 0.39092 0.0
H1507 H 0.41722 0.5691 0.40024 0.0
H1508 H 0.45902 0.58026 0.38849 0.0
H1509 H 0.55907 0.46307 0.43534 0.0
H1510 H 0.50043 0.45516 0.4356 0.0
H1511 H 0.53212 0.43432 0.42236 0.0
H1512 H 0.37642 0.43938 0.434 0.0
H1513 H 0.4484 0.36636 0.40539 0.0
H1514 H 0.40635 0.54782 0.42248 0.0
H1515 H 0.43677 0.52672 0.43596 0.0
H1516 H 0.37847 0.51698 0.4349 0.0
H1517 H 0.49533 0.46511 0.38936 0.0
H1518 H 0.48537 0.40655 0.38796 0.0
H1519 H 0.52623 0.42681 0.39898 0.0
C1520 C 0.45399 0.45292 0.59875 0.0
C1521 C 0.43052 0.49189 0.60064 0.0
C1522 C 0.49912 0.45156 0.60134 0.0
C1523 C 0.52017 0.49031 0.60582 0.0
C1524 C 0.49427 0.52483 0.6109 0.0
C1525 C 0.44927 0.52598 0.60788 0.0
C1526 C 0.52516 0.41219 0.59681 0.0
C1527 C 0.51526 0.5642 0.61723 0.0
C1528 C 0.64017 0.4814 0.59678 0.0
C1529 C 0.63762 0.49608 0.58398 0.0
C1530 C 0.60315 0.48407 0.6049 0.0
C1531 C 0.56329 0.50129 0.5999 0.0
C1532 C 0.563 0.52121 0.58746 0.0
C1533 C 0.60031 0.51832 0.57972 0.0
C1534 C 0.60635 0.46541 0.61837 0.0
C1535 C 0.522 0.54079 0.5815 0.0
H1536 H 0.43888 0.42625 0.59336 0.0
H1537 H 0.43062 0.55587 0.60959 0.0
H1538 H 0.54188 0.42022 0.58756 0.0
H1539 H 0.55074 0.4035 0.60399 0.0
H1540 H 0.5038 0.383 0.59522 0.0
H1541 H 0.49227 0.57973 0.62421 0.0
H1542 H 0.54603 0.55473 0.6223 0.0
H1543 H 0.52359 0.58911 0.60977 0.0
H1544 H 0.66964 0.46486 0.60014 0.0
H1545 H 0.59919 0.53067 0.56988 0.0
H1546 H 0.60911 0.42901 0.61784 0.0
H1547 H 0.57766 0.47419 0.62447 0.0
H1548 H 0.63676 0.47761 0.62311 0.0
H1549 H 0.49771 0.51425 0.57975 0.0
H1550 H 0.52869 0.55724 0.57211 0.0
H1551 H 0.50702 0.5655 0.58802 0.0
C1552 C 0.28174 0.23509 0.40271 0.0
C1553 C 0.26609 0.26447 0.41211 0.0
C1554 C 0.26326 0.23383 0.39031 0.0
C1555 C 0.22823 0.26264 0.38723 0.0
C1556 C 0.21071 0.29069 0.39687 0.0
C1557 C 0.22984 0.29123 0.4092 0.0
C1558 C 0.28255 0.20315 0.38033 0.0
C1559 C 0.17322 0.32178 0.39397 0.0
C1560 C 0.21286 0.30219 0.35275 0.0
C1561 C 0.17602 0.27787 0.34883 0.0
C1562 C 0.23097 0.29656 0.36511 0.0
C1563 C 0.21181 0.26582 0.37374 0.0
C1564 C 0.17575 0.23989 0.36965 0.0
C1565 C 0.15831 0.24624 0.35725 0.0
C1566 C 0.26957 0.32475 0.36911 0.0
C1567 C 0.15469 0.20651 0.37853 0.0
H1568 H 0.30933 0.21387 0.40499 0.0
H1569 H 0.21781 0.31429 0.41635 0.0
H1570 H 0.25615 0.18384 0.37558 0.0
H1571 H 0.29923 0.22268 0.37271 0.0
H1572 H 0.30681 0.17995 0.38459 0.0
H1573 H 0.16128 0.33903 0.40276 0.0
H1574 H 0.18411 0.34685 0.38685 0.0
H1575 H 0.14532 0.30359 0.38959 0.0
H1576 H 0.22646 0.32697 0.34638 0.0
H1577 H 0.13025 0.22691 0.35417 0.0
H1578 H 0.29678 0.30372 0.3727 0.0
H1579 H 0.25965 0.34678 0.37714 0.0
H1580 H 0.28213 0.34534 0.36103 0.0
H1581 H 0.17994 0.18385 0.38249 0.0
H1582 H 0.12905 0.18672 0.37356 0.0
H1583 H 0.13931 0.22366 0.38684 0.0
C1584 C 0.25918 0.78198 0.65371 0.0
C1585 C 0.28461 0.77036 0.66451 0.0
C1586 C 0.26248 0.75857 0.64207 0.0
C1587 C 0.29157 0.72233 0.64125 0.0
C1588 C 0.3154 0.7088 0.65231 0.0
C1589 C 0.31173 0.73304 0.66379 0.0
C1590 C 0.23644 0.77394 0.6305 0.0
C1591 C 0.34647 0.67003 0.65184 0.0
C1592 C 0.28427 0.64275 0.61303 0.0
C1593 C 0.31905 0.6572 0.60516 0.0
C1594 C 0.27446 0.66393 0.62473 0.0
C1595 C 0.29979 0.7007 0.6286 0.0
C1596 C 0.33408 0.71625 0.62055 0.0
C1597 C 0.34338 0.69426 0.60897 0.0
C1598 C 0.23764 0.64642 0.63306 0.0
C1599 C 0.36171 0.75556 0.62433 0.0
H1600 H 0.23744 0.81016 0.65425 0.0
H1601 H 0.33176 0.72387 0.672 0.0
H1602 H 0.25925 0.78699 0.62305 0.0
H1603 H 0.21837 0.74599 0.6261 0.0
H1604 H 0.2125 0.8002 0.63302 0.0
H1605 H 0.35938 0.66125 0.66154 0.0
H1606 H 0.3297 0.64082 0.6477 0.0
H1607 H 0.37472 0.67794 0.64545 0.0
H1608 H 0.2648 0.61465 0.61008 0.0
H1609 H 0.37063 0.70542 0.60309 0.0
H1610 H 0.21363 0.67295 0.63517 0.0
H1611 H 0.25108 0.63504 0.64246 0.0
H1612 H 0.22 0.61854 0.62844 0.0
H1613 H 0.34029 0.7844 0.62626 0.0
H1614 H 0.38585 0.76468 0.61673 0.0
H1615 H 0.37989 0.74826 0.63337 0.0
C1616 C 0.78104 0.7454 0.34451 0.0
C1617 C 0.77055 0.71153 0.33583 0.0
C1618 C 0.76232 0.74688 0.35688 0.0
C1619 C 0.73206 0.71387 0.36062 0.0
C1620 C 0.71917 0.6812 0.35163 0.0
C1621 C 0.73863 0.68038 0.33933 0.0
C1622 C 0.77681 0.78236 0.36617 0.0
C1623 C 0.68665 0.64566 0.35523 0.0
C1624 C 0.72618 0.68279 0.39608 0.0
C1625 C 0.68759 0.70414 0.40008 0.0
C1626 C 0.74117 0.68615 0.3833 0.0
C1627 C 0.71687 0.71124 0.37425 0.0
C1628 C 0.67821 0.73334 0.37822 0.0
C1629 C 0.66416 0.72969 0.39109 0.0
C1630 C 0.78275 0.66228 0.37945 0.0
C1631 C 0.65146 0.76038 0.36883 0.0
H1632 H 0.80504 0.77005 0.34176 0.0
H1633 H 0.73051 0.65394 0.33274 0.0
H1634 H 0.74786 0.79859 0.37061 0.0
H1635 H 0.79623 0.76733 0.3741 0.0
H1636 H 0.79736 0.80788 0.36139 0.0
H1637 H 0.67665 0.62555 0.34676 0.0
H1638 H 0.70156 0.6235 0.36255 0.0
H1639 H 0.6568 0.66037 0.35963 0.0
H1640 H 0.74424 0.6625 0.40284 0.0
H1641 H 0.63473 0.7469 0.39411 0.0
H1642 H 0.80679 0.68592 0.37532 0.0
H1643 H 0.77528 0.63765 0.37185 0.0
H1644 H 0.79842 0.64507 0.38773 0.0
H1645 H 0.6722 0.7866 0.36451 0.0
H1646 H 0.62246 0.77597 0.37349 0.0
H1647 H 0.63983 0.7392 0.3608 0.0
C1648 C 0.72412 0.18589 0.63923 0.0
C1649 C 0.69203 0.19834 0.64824 0.0
C1650 C 0.72744 0.20713 0.62722 0.0
C1651 C 0.69764 0.24136 0.6241 0.0
C1652 C 0.66487 0.25378 0.63311 0.0
C1653 C 0.6626 0.23225 0.64509 0.0
C1654 C 0.76317 0.19337 0.61793 0.0
C1655 C 0.63226 0.28989 0.6301 0.0
C1656 C 0.72894 0.32799 0.59936 0.0
C1657 C 0.70561 0.31403 0.58842 0.0
C1658 C 0.72741 0.30408 0.61093 0.0
C1659 C 0.70159 0.26537 0.61163 0.0
C1660 C 0.67856 0.25061 0.60054 0.0
C1661 C 0.68109 0.27502 0.58902 0.0
C1662 C 0.75291 0.32063 0.62247 0.0
C1663 C 0.65037 0.20971 0.60096 0.0
H1664 H 0.74707 0.1599 0.64168 0.0
H1665 H 0.63722 0.24146 0.65191 0.0
H1666 H 0.7485 0.18337 0.60857 0.0
H1667 H 0.78531 0.22164 0.61597 0.0
H1668 H 0.78317 0.16559 0.62172 0.0
H1669 H 0.60793 0.29464 0.63799 0.0
H1670 H 0.64986 0.32144 0.62851 0.0
H1671 H 0.61429 0.28209 0.62106 0.0
H1672 H 0.74859 0.35771 0.59884 0.0
H1673 H 0.66285 0.26439 0.58059 0.0
H1674 H 0.77502 0.29441 0.62615 0.0
H1675 H 0.72987 0.3292 0.63039 0.0
H1676 H 0.773 0.35016 0.62015 0.0
H1677 H 0.67015 0.18112 0.60424 0.0
H1678 H 0.63577 0.20183 0.5914 0.0
H1679 H 0.62335 0.21424 0.60804 0.0
C1680 C 0.24032 0.1934 0.90169 0.0
C1681 C 0.19955 0.21378 0.90373 0.0
C1682 C 0.26128 0.19581 0.88962 0.0
C1683 C 0.24104 0.21938 0.87942 0.0
C1684 C 0.20083 0.24161 0.8816 0.0
C1685 C 0.18054 0.23845 0.89373 0.0
C1686 C 0.30411 0.17157 0.88765 0.0
C1687 C 0.17846 0.26743 0.871 0.0
C1688 C 0.3104 0.24768 0.85003 0.0
C1689 C 0.29869 0.21394 0.84144 0.0
C1690 C 0.29153 0.25029 0.86238 0.0
C1691 C 0.26038 0.21825 0.86624 0.0
C1692 C 0.24793 0.1845 0.85755 0.0
C1693 C 0.26716 0.18283 0.84525 0.0
C1694 C 0.30529 0.28698 0.87135 0.0
C1695 C 0.21495 0.14958 0.86133 0.0
H1696 H 0.25494 0.17398 0.90934 0.0
H1697 H 0.14937 0.25481 0.89536 0.0
H1698 H 0.29922 0.14445 0.88061 0.0
H1699 H 0.32927 0.19404 0.88354 0.0
H1700 H 0.31704 0.15736 0.89678 0.0
H1701 H 0.14915 0.28561 0.87455 0.0
H1702 H 0.20175 0.29135 0.86665 0.0
H1703 H 0.16788 0.2447 0.86321 0.0
H1704 H 0.33442 0.27204 0.84707 0.0
H1705 H 0.25847 0.15628 0.83875 0.0
H1706 H 0.32079 0.27295 0.88014 0.0
H1707 H 0.27601 0.30589 0.87453 0.0
H1708 H 0.32893 0.31003 0.86673 0.0
H1709 H 0.22729 0.13089 0.8698 0.0
H1710 H 0.20831 0.12599 0.85337 0.0
H1711 H 0.18346 0.16518 0.86422 0.0
C1712 C 0.22822 0.67526 0.14512 0.0
C1713 C 0.20026 0.69253 0.15465 0.0
C1714 C 0.2305 0.69421 0.13276 0.0
C1715 C 0.20453 0.73161 0.12991 0.0
C1716 C 0.17712 0.74993 0.13956 0.0
C1717 C 0.17519 0.73009 0.15178 0.0
C1718 C 0.26008 0.67374 0.1227 0.0
C1719 C 0.1491 0.79001 0.13689 0.0
C1720 C 0.23241 0.80605 0.10162 0.0
C1721 C 0.20059 0.7936 0.09251 0.0
C1722 C 0.23487 0.78539 0.11372 0.0
C1723 C 0.20503 0.75115 0.11674 0.0
C1724 C 0.17404 0.73714 0.10741 0.0
C1725 C 0.17211 0.75861 0.09542 0.0
C1726 C 0.26841 0.80122 0.12343 0.0
C1727 C 0.14185 0.70051 0.11026 0.0
H1728 H 0.2483 0.64676 0.14728 0.0
H1729 H 0.15307 0.74344 0.15897 0.0
H1730 H 0.24009 0.66227 0.1144 0.0
H1731 H 0.28357 0.69863 0.11896 0.0
H1732 H 0.27902 0.64535 0.12657 0.0
H1733 H 0.13092 0.80126 0.14559 0.0
H1734 H 0.16995 0.8175 0.13337 0.0
H1735 H 0.12492 0.78247 0.12918 0.0
H1736 H 0.25511 0.83244 0.09937 0.0
H1737 H 0.14717 0.74896 0.08852 0.0
H1738 H 0.28838 0.77316 0.127 0.0
H1739 H 0.25133 0.81565 0.1319 0.0
H1740 H 0.29087 0.82646 0.11931 0.0
H1741 H 0.15958 0.6708 0.1137 0.0
H1742 H 0.12196 0.69144 0.10166 0.0
H1743 H 0.11917 0.71084 0.11809 0.0
C1744 C 0.80075 0.74609 0.89983 0.0
C1745 C 0.78622 0.77845 0.90853 0.0
C1746 C 0.78347 0.74329 0.8873 0.0
C1747 C 0.7505 0.77331 0.88338 0.0
C1748 C 0.73407 0.8046 0.89231 0.0
C1749 C 0.75218 0.80685 0.90476 0.0
C1750 C 0.80175 0.70937 0.87809 0.0
C1751 C 0.69858 0.83693 0.88852 0.0
C1752 C 0.73819 0.80509 0.8481 0.0
C1753 C 0.70029 0.78173 0.84453 0.0
C1754 C 0.75576 0.80142 0.86059 0.0
C1755 C 0.73486 0.77382 0.86976 0.0
C1756 C 0.69786 0.74857 0.86606 0.0
C1757 C 0.68115 0.7527 0.85348 0.0
C1758 C 0.79558 0.82859 0.86414 0.0
C1759 C 0.6748 0.7186 0.87554 0.0
H1760 H 0.82639 0.72341 0.90275 0.0
H1761 H 0.74091 0.83213 0.91134 0.0
H1762 H 0.7747 0.68992 0.87372 0.0
H1763 H 0.8193 0.72619 0.87008 0.0
H1764 H 0.82501 0.68641 0.8829 0.0
H1765 H 0.68722 0.85706 0.89684 0.0
H1766 H 0.71121 0.85942 0.88093 0.0
H1767 H 0.6699 0.81922 0.88441 0.0
H1768 H 0.75303 0.8279 0.84134 0.0
H1769 H 0.65232 0.73397 0.85073 0.0
H1770 H 0.82135 0.80732 0.86846 0.0
H1771 H 0.78633 0.85345 0.87151 0.0
H1772 H 0.80978 0.84601 0.85567 0.0
H1773 H 0.69873 0.69598 0.88016 0.0
H1774 H 0.64859 0.69868 0.87087 0.0
H1775 H 0.6597 0.73861 0.88333 0.0
C1776 C 0.78584 0.23498 0.09848 0.0
C1777 C 0.76196 0.19788 0.09452 0.0
C1778 C 0.78087 0.25226 0.11095 0.0
C1779 C 0.75106 0.23211 0.11966 0.0
C1780 C 0.725 0.19623 0.11548 0.0
C1781 C 0.73089 0.17945 0.10297 0.0
C1782 C 0.80932 0.2906 0.11503 0.0
C1783 C 0.69241 0.1743 0.12442 0.0
C1784 C 0.78355 0.24602 0.15474 0.0
C1785 C 0.75871 0.28295 0.1583 0.0
C1786 C 0.77968 0.2277 0.14236 0.0
C1787 C 0.75005 0.24661 0.13337 0.0
C1788 C 0.72275 0.28199 0.13721 0.0
C1789 C 0.72753 0.29983 0.14963 0.0
C1790 C 0.8094 0.18991 0.13864 0.0
C1791 C 0.69027 0.30258 0.12798 0.0
H1792 H 0.81024 0.24909 0.09208 0.0
H1793 H 0.71198 0.1511 0.09988 0.0
H1794 H 0.78873 0.31725 0.11916 0.0
H1795 H 0.83247 0.27977 0.12269 0.0
H1796 H 0.82871 0.30432 0.10687 0.0
H1797 H 0.67108 0.15039 0.11925 0.0
H1798 H 0.71035 0.1565 0.13215 0.0
H1799 H 0.67128 0.19929 0.12916 0.0
H1800 H 0.80797 0.23307 0.16133 0.0
H1801 H 0.70789 0.32802 0.15243 0.0
H1802 H 0.83345 0.20124 0.13128 0.0
H1803 H 0.78998 0.16286 0.13425 0.0
H1804 H 0.82783 0.17658 0.14704 0.0
H1805 H 0.70832 0.32104 0.12039 0.0
H1806 H 0.66755 0.32569 0.13294 0.0
H1807 H 0.67058 0.27679 0.12306 0.0
loop_
_geom_bond_atom_site_label_1
_geom_bond_atom_site_label_2
_geom_bond_distance
_geom_bond_site_symmetry_2
_ccdc_geom_bond_type
Co0 N4 2.148 . S
Co0 N10 2.128 1_455 S
Co0 N20 2.194 . S
Co0 O25 2.351 1_455 S
Co0 O26 2.155 . S
Co0 O27 2.096 . S
C1 N4 1.301 . S
C1 N5 1.328 . S
C1 H6 0.930 . S
C2 C3 1.333 . S
C2 N4 1.317 . S
C2 H7 0.930 . S
C3 C2 1.333 . S
C3 N5 1.350 . S
C3 H29 0.931 . S
N4 Co0 2.148 . S
N4 C1 1.301 . S
N4 C2 1.317 . S
N5 C1 1.328 . S
N5 C3 1.350 . S
H6 C1 0.930 . S
H7 C2 0.930 . S
C8 O9 1.224 . S
C8 O27 1.247 . S
O9 C8 1.224 . S
N10 Co0 2.128 1_655 S
N10 C11 1.355 . S
N10 C13 1.311 . S
C11 N10 1.355 . S
C11 C12 1.363 . S
C11 H23 0.929 . S
C12 C11 1.363 . S
C12 N14 1.375 . S
C12 H30 0.931 . S
C13 N10 1.311 . S
C13 N14 1.347 . S
C13 H24 0.929 . S
N14 C12 1.375 . S
N14 C13 1.347 . S
C15 C18 1.365 . S
C15 N20 1.328 1_655 S
C15 H21 0.929 . S
C16 C17 1.362 1_455 S
C16 C19 1.378 . S
C16 H31 0.929 . S
C17 C16 1.362 1_655 S
C17 C18 1.366 . S
C18 C15 1.365 . S
C18 C17 1.366 . S
C18 H32 0.930 . S
C19 C16 1.378 . S
C19 N20 1.315 . S
C19 H22 0.930 . S
N20 Co0 2.194 . S
N20 C15 1.328 1_455 S
N20 C19 1.315 . S
H21 C15 0.929 . S
H22 C19 0.930 . S
H23 C11 0.929 . S
H24 C13 0.929 . S
O25 Co0 2.351 1_655 S
O25 C28 1.244 . S
O26 Co0 2.155 . S
O26 C28 1.240 1_455 S
O27 Co0 2.096 . S
O27 C8 1.247 . S
C28 O25 1.244 . S
C28 O26 1.240 1_655 S
H29 C3 0.931 . S
H30 C12 0.931 . S
H31 C16 0.929 . S
H32 C18 0.930 . S
Co33 N37 2.148 . S
Co33 N43 2.128 1_565 S
Co33 N53 2.194 . S
Co33 O58 2.351 1_565 S
Co33 O59 2.155 . S
Co33 O60 2.096 . S
C34 N37 1.301 . S
C34 N38 1.328 . S
C34 H39 0.930 . S
C35 C36 1.333 . S
C35 N37 1.317 . S
C35 H40 0.930 . S
C36 C35 1.333 . S
C36 N38 1.350 . S
C36 H62 0.931 . S
N37 Co33 2.148 . S
N37 C34 1.301 . S
N37 C35 1.317 . S
N38 C34 1.328 . S
N38 C36 1.350 . S
H39 C34 0.930 . S
H40 C35 0.930 . S
C41 O42 1.224 . S
C41 O60 1.247 . S
O42 C41 1.224 . S
N43 Co33 2.128 1_545 S
N43 C44 1.355 . S
N43 C46 1.311 . S
C44 N43 1.355 . S
C44 C45 1.363 . S
C44 H56 0.929 . S
C45 C44 1.363 . S
C45 N47 1.375 . S
C45 H63 0.931 . S
C46 N43 1.311 . S
C46 N47 1.347 . S
C46 H57 0.929 . S
N47 C45 1.375 . S
N47 C46 1.347 . S
C48 C51 1.365 . S
C48 N53 1.328 1_545 S
C48 H54 0.929 . S
C49 C50 1.362 1_565 S
C49 C52 1.378 . S
C49 H64 0.929 . S
C50 C49 1.362 1_545 S
C50 C51 1.366 . S
C51 C48 1.365 . S
C51 C50 1.366 . S
C51 H65 0.930 . S
C52 C49 1.378 . S
C52 N53 1.315 . S
C52 H55 0.930 . S
N53 Co33 2.194 . S
N53 C48 1.328 1_565 S
N53 C52 1.315 . S
H54 C48 0.929 . S
H55 C52 0.930 . S
H56 C44 0.929 . S
H57 C46 0.929 . S
O58 Co33 2.351 1_545 S
O58 C61 1.244 . S
O59 Co33 2.155 . S
O59 C61 1.240 1_565 S
O60 Co33 2.096 . S
O60 C41 1.247 . S
C61 O58 1.244 . S
C61 O59 1.240 1_545 S
H62 C36 0.931 . S
H63 C45 0.931 . S
H64 C49 0.929 . S
H65 C51 0.930 . S
Co66 N70 2.148 . S
Co66 N76 2.128 1_655 S
Co66 N86 2.194 . S
Co66 O91 2.351 1_655 S
Co66 O92 2.155 . S
Co66 O93 2.096 . S
C67 N70 1.301 . S
C67 N71 1.328 . S
C67 H72 0.930 . S
C68 C69 1.333 . S
C68 N70 1.317 . S
C68 H73 0.930 . S
C69 C68 1.333 . S
C69 N71 1.350 . S
C69 H95 0.931 . S
N70 Co66 2.148 . S
N70 C67 1.301 . S
N70 C68 1.317 . S
N71 C67 1.328 . S
N71 C69 1.350 . S
H72 C67 0.930 . S
H73 C68 0.930 . S
C74 O75 1.224 . S
C74 O93 1.247 . S
O75 C74 1.224 . S
N76 Co66 2.128 1_455 S
N76 C77 1.355 . S
N76 C79 1.311 . S
C77 N76 1.355 . S
C77 C78 1.363 . S
C77 H89 0.929 . S
C78 C77 1.363 . S
C78 N80 1.375 . S
C78 H96 0.931 . S
C79 N76 1.311 . S
C79 N80 1.347 . S
C79 H90 0.929 . S
N80 C78 1.375 . S
N80 C79 1.347 . S
C81 C84 1.365 . S
C81 N86 1.328 1_455 S
C81 H87 0.929 . S
C82 C83 1.362 1_655 S
C82 C85 1.378 . S
C82 H97 0.929 . S
C83 C82 1.362 1_455 S
C83 C84 1.366 . S
C84 C81 1.365 . S
C84 C83 1.366 . S
C84 H98 0.930 . S
C85 C82 1.378 . S
C85 N86 1.315 . S
C85 H88 0.930 . S
N86 Co66 2.194 . S
N86 C81 1.328 1_655 S
N86 C85 1.315 . S
H87 C81 0.929 . S
H88 C85 0.930 . S
H89 C77 0.929 . S
H90 C79 0.929 . S
O91 Co66 2.351 1_455 S
O91 C94 1.244 . S
O92 Co66 2.155 . S
O92 C94 1.240 1_655 S
O93 Co66 2.096 . S
O93 C74 1.247 . S
C94 O91 1.244 . S
C94 O92 1.240 1_455 S
H95 C69 0.931 . S
H96 C78 0.931 . S
H97 C82 0.929 . S
H98 C84 0.930 . S
Co99 N103 2.148 . S
Co99 N109 2.128 1_545 S
Co99 N119 2.194 . S
Co99 O124 2.351 1_545 S
Co99 O125 2.155 . S
Co99 O126 2.096 . S
C100 N103 1.301 . S
C100 N104 1.328 . S
C100 H105 0.930 . S
C101 C102 1.333 . S
C101 N103 1.317 . S
C101 H106 0.930 . S
C102 C101 1.333 . S
C102 N104 1.350 . S
C102 H128 0.931 . S
N103 Co99 2.148 . S
N103 C100 1.301 . S
N103 C101 1.317 . S
N104 C100 1.328 . S
N104 C102 1.350 . S
H105 C100 0.930 . S
H106 C101 0.930 . S
C107 O108 1.224 . S
C107 O126 1.247 . S
O108 C107 1.224 . S
N109 Co99 2.128 1_565 S
N109 C110 1.355 . S
N109 C112 1.311 . S
C110 N109 1.355 . S
C110 C111 1.363 . S
C110 H122 0.929 . S
C111 C110 1.363 . S
C111 N113 1.375 . S
C111 H129 0.931 . S
C112 N109 1.311 . S
C112 N113 1.347 . S
C112 H123 0.929 . S
N113 C111 1.375 . S
N113 C112 1.347 . S
C114 C117 1.365 . S
C114 N119 1.328 1_565 S
C114 H120 0.929 . S
C115 C116 1.362 1_545 S
C115 C118 1.378 . S
C115 H130 0.929 . S
C116 C115 1.362 1_565 S
C116 C117 1.366 . S
C117 C114 1.365 . S
C117 C116 1.366 . S
C117 H131 0.930 . S
C118 C115 1.378 . S
C118 N119 1.315 . S
C118 H121 0.930 . S
N119 Co99 2.194 . S
N119 C114 1.328 1_545 S
N119 C118 1.315 . S
H120 C114 0.929 . S
H121 C118 0.930 . S
H122 C110 0.929 . S
H123 C112 0.929 . S
O124 Co99 2.351 1_565 S
O124 C127 1.244 . S
O125 Co99 2.155 . S
O125 C127 1.240 1_545 S
O126 Co99 2.096 . S
O126 C107 1.247 . S
C127 O124 1.244 . S
C127 O125 1.240 1_565 S
H128 C102 0.931 . S
H129 C111 0.931 . S
H130 C115 0.929 . S
H131 C117 0.930 . S
Co132 N136 2.148 . S
Co132 N142 2.128 1_455 S
Co132 N152 2.194 . S
Co132 O157 2.351 1_455 S
Co132 O158 2.155 . S
Co132 O159 2.096 . S
C133 N136 1.301 . S
C133 N137 1.328 . S
C133 H138 0.930 . S
C134 C135 1.333 . S
C134 N136 1.317 . S
C134 H139 0.930 . S
C135 C134 1.333 . S
C135 N137 1.350 . S
C135 H161 0.931 . S
N136 Co132 2.148 . S
N136 C133 1.301 . S
N136 C134 1.317 . S
N137 C133 1.328 . S
N137 C135 1.350 . S
H138 C133 0.930 . S
H139 C134 0.930 . S
C140 O141 1.224 . S
C140 O159 1.247 . S
O141 C140 1.224 . S
N142 Co132 2.128 1_655 S
N142 C143 1.355 . S
N142 C145 1.311 . S
C143 N142 1.355 . S
C143 C144 1.363 . S
C143 H155 0.929 . S
C144 C143 1.363 . S
C144 N146 1.375 . S
C144 H162 0.931 . S
C145 N142 1.311 . S
C145 N146 1.347 . S
C145 H156 0.929 . S
N146 C144 1.375 . S
N146 C145 1.347 . S
C147 C150 1.365 . S
C147 N152 1.328 1_655 S
C147 H153 0.929 . S
C148 C149 1.362 1_455 S
C148 C151 1.378 . S
C148 H163 0.929 . S
C149 C148 1.362 1_655 S
C149 C150 1.366 . S
C150 C147 1.365 . S
C150 C149 1.366 . S
C150 H164 0.930 . S
C151 C148 1.378 . S
C151 N152 1.315 . S
C151 H154 0.930 . S
N152 Co132 2.194 . S
N152 C147 1.328 1_455 S
N152 C151 1.315 . S
H153 C147 0.929 . S
H154 C151 0.930 . S
H155 C143 0.929 . S
H156 C145 0.929 . S
O157 Co132 2.351 1_655 S
O157 C160 1.244 . S
O158 Co132 2.155 . S
O158 C160 1.240 1_455 S
O159 Co132 2.096 . S
O159 C140 1.247 . S
C160 O157 1.244 . S
C160 O158 1.240 1_655 S
H161 C135 0.931 . S
H162 C144 0.931 . S
H163 C148 0.929 . S
H164 C150 0.930 . S
Co165 N169 2.148 . S
Co165 N175 2.128 1_565 S
Co165 N185 2.194 . S
Co165 O190 2.351 1_565 S
Co165 O191 2.155 . S
Co165 O192 2.096 . S
C166 N169 1.301 . S
C166 N170 1.328 . S
C166 H171 0.930 . S
C167 C168 1.333 . S
C167 N169 1.317 . S
C167 H172 0.930 . S
C168 C167 1.333 . S
C168 N170 1.350 . S
C168 H194 0.931 . S
N169 Co165 2.148 . S
N169 C166 1.301 . S
N169 C167 1.317 . S
N170 C166 1.328 . S
N170 C168 1.350 . S
H171 C166 0.930 . S
H172 C167 0.930 . S
C173 O174 1.224 . S
C173 O192 1.247 . S
O174 C173 1.224 . S
N175 Co165 2.128 1_545 S
N175 C176 1.355 . S
N175 C178 1.311 . S
C176 N175 1.355 . S
C176 C177 1.363 . S
C176 H188 0.929 . S
C177 C176 1.363 . S
C177 N179 1.375 . S
C177 H195 0.931 . S
C178 N175 1.311 . S
C178 N179 1.347 . S
C178 H189 0.929 . S
N179 C177 1.375 . S
N179 C178 1.347 . S
C180 C183 1.365 . S
C180 N185 1.328 1_545 S
C180 H186 0.929 . S
C181 C182 1.362 1_565 S
C181 C184 1.378 . S
C181 H196 0.929 . S
C182 C181 1.362 1_545 S
C182 C183 1.366 . S
C183 C180 1.365 . S
C183 C182 1.366 . S
C183 H197 0.930 . S
C184 C181 1.378 . S
C184 N185 1.315 . S
C184 H187 0.930 . S
N185 Co165 2.194 . S
N185 C180 1.328 1_565 S
N185 C184 1.315 . S
H186 C180 0.929 . S
H187 C184 0.930 . S
H188 C176 0.929 . S
H189 C178 0.929 . S
O190 Co165 2.351 1_545 S
O190 C193 1.244 . S
O191 Co165 2.155 . S
O191 C193 1.240 1_565 S
O192 Co165 2.096 . S
O192 C173 1.247 . S
C193 O190 1.244 . S
C193 O191 1.240 1_545 S
H194 C168 0.931 . S
H195 C177 0.931 . S
H196 C181 0.929 . S
H197 C183 0.930 . S
Co198 N202 2.148 . S
Co198 N208 2.128 1_655 S
Co198 N218 2.194 . S
Co198 O223 2.351 1_655 S
Co198 O224 2.155 . S
Co198 O225 2.096 . S
C199 N202 1.301 . S
C199 N203 1.328 . S
C199 H204 0.930 . S
C200 C201 1.333 . S
C200 N202 1.317 . S
C200 H205 0.930 . S
C201 C200 1.333 . S
C201 N203 1.350 . S
C201 H227 0.931 . S
N202 Co198 2.148 . S
N202 C199 1.301 . S
N202 C200 1.317 . S
N203 C199 1.328 . S
N203 C201 1.350 . S
H204 C199 0.930 . S
H205 C200 0.930 . S
C206 O207 1.224 . S
C206 O225 1.247 . S
O207 C206 1.224 . S
N208 Co198 2.128 1_455 S
N208 C209 1.355 . S
N208 C211 1.311 . S
C209 N208 1.355 . S
C209 C210 1.363 . S
C209 H221 0.929 . S
C210 C209 1.363 . S
C210 N212 1.375 . S
C210 H228 0.931 . S
C211 N208 1.311 . S
C211 N212 1.347 . S
C211 H222 0.929 . S
N212 C210 1.375 . S
N212 C211 1.347 . S
C213 C216 1.365 . S
C213 N218 1.328 1_455 S
C213 H219 0.929 . S
C214 C215 1.362 1_655 S
C214 C217 1.378 . S
C214 H229 0.929 . S
C215 C214 1.362 1_455 S
C215 C216 1.366 . S
C216 C213 1.365 . S
C216 C215 1.366 . S
C216 H230 0.930 . S
C217 C214 1.378 . S
C217 N218 1.315 . S
C217 H220 0.930 . S
N218 Co198 2.194 . S
N218 C213 1.328 1_655 S
N218 C217 1.315 . S
H219 C213 0.929 . S
H220 C217 0.930 . S
H221 C209 0.929 . S
H222 C211 0.929 . S
O223 Co198 2.351 1_455 S
O223 C226 1.244 . S
O224 Co198 2.155 . S
O224 C226 1.240 1_655 S
O225 Co198 2.096 . S
O225 C206 1.247 . S
C226 O223 1.244 . S
C226 O224 1.240 1_455 S
H227 C201 0.931 . S
H228 C210 0.931 . S
H229 C214 0.929 . S
H230 C216 0.930 . S
Co231 N235 2.148 . S
Co231 N241 2.128 1_545 S
Co231 N251 2.194 . S
Co231 O256 2.351 1_545 S
Co231 O257 2.155 . S
Co231 O258 2.096 . S
C232 N235 1.301 . S
C232 N236 1.328 . S
C232 H237 0.930 . S
C233 C234 1.333 . S
C233 N235 1.317 . S
C233 H238 0.930 . S
C234 C233 1.333 . S
C234 N236 1.350 . S
C234 H260 0.931 . S
N235 Co231 2.148 . S
N235 C232 1.301 . S
N235 C233 1.317 . S
N236 C232 1.328 . S
N236 C234 1.350 . S
H237 C232 0.930 . S
H238 C233 0.930 . S
C239 O240 1.224 . S
C239 O258 1.247 . S
O240 C239 1.224 . S
N241 Co231 2.128 1_565 S
N241 C242 1.355 . S
N241 C244 1.311 . S
C242 N241 1.355 . S
C242 C243 1.363 . S
C242 H254 0.929 . S
C243 C242 1.363 . S
C243 N245 1.375 . S
C243 H261 0.931 . S
C244 N241 1.311 . S
C244 N245 1.347 . S
C244 H255 0.929 . S
N245 C243 1.375 . S
N245 C244 1.347 . S
C246 C249 1.365 . S
C246 N251 1.328 1_565 S
C246 H252 0.929 . S
C247 C248 1.362 1_545 S
C247 C250 1.378 . S
C247 H262 0.929 . S
C248 C247 1.362 1_565 S
C248 C249 1.366 . S
C249 C246 1.365 . S
C249 C248 1.366 . S
C249 H263 0.930 . S
C250 C247 1.378 . S
C250 N251 1.315 . S
C250 H253 0.930 . S
N251 Co231 2.194 . S
N251 C246 1.328 1_545 S
N251 C250 1.315 . S
H252 C246 0.929 . S
H253 C250 0.930 . S
H254 C242 0.929 . S
H255 C244 0.929 . S
O256 Co231 2.351 1_565 S
O256 C259 1.244 . S
O257 Co231 2.155 . S
O257 C259 1.240 1_545 S
O258 Co231 2.096 . S
O258 C239 1.247 . S
C259 O256 1.244 . S
C259 O257 1.240 1_565 S
H260 C234 0.931 . S
H261 C243 0.931 . S
H262 C247 0.929 . S
H263 C249 0.930 . S
Co264 N268 2.148 . S
Co264 N274 2.128 . S
Co264 N284 2.194 . S
Co264 O289 2.351 . S
Co264 O290 2.155 . S
Co264 O291 2.096 . S
C265 N268 1.301 . S
C265 N269 1.328 . S
C265 H270 0.930 . S
C266 C267 1.333 . S
C266 N268 1.317 . S
C266 H271 0.930 . S
C267 C266 1.333 . S
C267 N269 1.350 . S
C267 H293 0.931 . S
N268 Co264 2.148 . S
N268 C265 1.301 . S
N268 C266 1.317 . S
N269 C265 1.328 . S
N269 C267 1.350 . S
H270 C265 0.930 . S
H271 C266 0.930 . S
C272 O273 1.224 . S
C272 O291 1.247 . S
O273 C272 1.224 . S
N274 Co264 2.128 . S
N274 C275 1.355 . S
N274 C277 1.311 . S
C275 N274 1.355 . S
C275 C276 1.363 . S
C275 H287 0.929 . S
C276 C275 1.363 . S
C276 N278 1.375 . S
C276 H294 0.931 . S
C277 N274 1.311 . S
C277 N278 1.347 . S
C277 H288 0.929 . S
N278 C276 1.375 . S
N278 C277 1.347 . S
C279 C282 1.365 . S
C279 N284 1.328 . S
C279 H285 0.929 . S
C280 C281 1.362 . S
C280 C283 1.378 . S
C280 H295 0.929 . S
C281 C280 1.362 . S
C281 C282 1.366 . S
C282 C279 1.365 . S
C282 C281 1.366 . S
C282 H296 0.930 . S
C283 C280 1.378 . S
C283 N284 1.315 . S
C283 H286 0.930 . S
N284 Co264 2.194 . S
N284 C279 1.328 . S
N284 C283 1.315 . S
H285 C279 0.929 . S
H286 C283 0.930 . S
H287 C275 0.929 . S
H288 C277 0.929 . S
O289 Co264 2.351 . S
O289 C292 1.244 . S
O290 Co264 2.155 . S
O290 C292 1.240 . S
O291 Co264 2.096 . S
O291 C272 1.247 . S
C292 O289 1.244 . S
C292 O290 1.240 . S
H293 C267 0.931 . S
H294 C276 0.931 . S
H295 C280 0.929 . S
H296 C282 0.930 . S
Co297 N301 2.148 . S
Co297 N307 2.128 . S
Co297 N317 2.194 . S
Co297 O322 2.351 . S
Co297 O323 2.155 . S
Co297 O324 2.096 . S
C298 N301 1.301 . S
C298 N302 1.328 . S
C298 H303 0.930 . S
C299 C300 1.333 . S
C299 N301 1.317 . S
C299 H304 0.930 . S
C300 C299 1.333 . S
C300 N302 1.350 . S
C300 H326 0.931 . S
N301 Co297 2.148 . S
N301 C298 1.301 . S
N301 C299 1.317 . S
N302 C298 1.328 . S
N302 C300 1.350 . S
H303 C298 0.930 . S
H304 C299 0.930 . S
C305 O306 1.224 . S
C305 O324 1.247 . S
O306 C305 1.224 . S
N307 Co297 2.128 . S
N307 C308 1.355 . S
N307 C310 1.311 . S
C308 N307 1.355 . S
C308 C309 1.363 . S
C308 H320 0.929 . S
C309 C308 1.363 . S
C309 N311 1.375 . S
C309 H327 0.931 . S
C310 N307 1.311 . S
C310 N311 1.347 . S
C310 H321 0.929 . S
N311 C309 1.375 . S
N311 C310 1.347 . S
C312 C315 1.365 . S
C312 N317 1.328 . S
C312 H318 0.929 . S
C313 C314 1.362 . S
C313 C316 1.378 . S
C313 H328 0.929 . S
C314 C313 1.362 . S
C314 C315 1.366 . S
C315 C312 1.365 . S
C315 C314 1.366 . S
C315 H329 0.930 . S
C316 C313 1.378 . S
C316 N317 1.315 . S
C316 H319 0.930 . S
N317 Co297 2.194 . S
N317 C312 1.328 . S
N317 C316 1.315 . S
H318 C312 0.929 . S
H319 C316 0.930 . S
H320 C308 0.929 . S
H321 C310 0.929 . S
O322 Co297 2.351 . S
O322 C325 1.244 . S
O323 Co297 2.155 . S
O323 C325 1.240 . S
O324 Co297 2.096 . S
O324 C305 1.247 . S
C325 O322 1.244 . S
C325 O323 1.240 . S
H326 C300 0.931 . S
H327 C309 0.931 . S
H328 C313 0.929 . S
H329 C315 0.930 . S
Co330 N334 2.148 . S
Co330 N340 2.128 . S
Co330 N350 2.194 . S
Co330 O355 2.351 . S
Co330 O356 2.155 . S
Co330 O357 2.096 . S
C331 N334 1.301 . S
C331 N335 1.328 . S
C331 H336 0.930 . S
C332 C333 1.333 . S
C332 N334 1.317 . S
C332 H337 0.930 . S
C333 C332 1.333 . S
C333 N335 1.350 . S
C333 H359 0.931 . S
N334 Co330 2.148 . S
N334 C331 1.301 . S
N334 C332 1.317 . S
N335 C331 1.328 . S
N335 C333 1.350 . S
H336 C331 0.930 . S
H337 C332 0.930 . S
C338 O339 1.224 . S
C338 O357 1.247 . S
O339 C338 1.224 . S
N340 Co330 2.128 . S
N340 C341 1.355 . S
N340 C343 1.311 . S
C341 N340 1.355 . S
C341 C342 1.363 . S
C341 H353 0.929 . S
C342 C341 1.363 . S
C342 N344 1.375 . S
C342 H360 0.931 . S
C343 N340 1.311 . S
C343 N344 1.347 . S
C343 H354 0.929 . S
N344 C342 1.375 . S
N344 C343 1.347 . S
C345 C348 1.365 . S
C345 N350 1.328 . S
C345 H351 0.929 . S
C346 C347 1.362 . S
C346 C349 1.378 . S
C346 H361 0.929 . S
C347 C346 1.362 . S
C347 C348 1.366 . S
C348 C345 1.365 . S
C348 C347 1.366 . S
C348 H362 0.930 . S
C349 C346 1.378 . S
C349 N350 1.315 . S
C349 H352 0.930 . S
N350 Co330 2.194 . S
N350 C345 1.328 . S
N350 C349 1.315 . S
H351 C345 0.929 . S
H352 C349 0.930 . S
H353 C341 0.929 . S
H354 C343 0.929 . S
O355 Co330 2.351 . S
O355 C358 1.244 . S
O356 Co330 2.155 . S
O356 C358 1.240 . S
O357 Co330 2.096 . S
O357 C338 1.247 . S
C358 O355 1.244 . S
C358 O356 1.240 . S
H359 C333 0.931 . S
H360 C342 0.931 . S
H361 C346 0.929 . S
H362 C348 0.930 . S
Co363 N367 2.148 . S
Co363 N373 2.128 . S
Co363 N383 2.194 . S
Co363 O388 2.351 . S
Co363 O389 2.155 . S
Co363 O390 2.096 . S
C364 N367 1.301 . S
C364 N368 1.328 . S
C364 H369 0.930 . S
C365 C366 1.333 . S
C365 N367 1.317 . S
C365 H370 0.930 . S
C366 C365 1.333 . S
C366 N368 1.350 . S
C366 H392 0.931 . S
N367 Co363 2.148 . S
N367 C364 1.301 . S
N367 C365 1.317 . S
N368 C364 1.328 . S
N368 C366 1.350 . S
H369 C364 0.930 . S
H370 C365 0.930 . S
C371 O372 1.224 . S
C371 O390 1.247 . S
O372 C371 1.224 . S
N373 Co363 2.128 . S
N373 C374 1.355 . S
N373 C376 1.311 . S
C374 N373 1.355 . S
C374 C375 1.363 . S
C374 H386 0.929 . S
C375 C374 1.363 . S
C375 N377 1.375 . S
C375 H393 0.931 . S
C376 N373 1.311 . S
C376 N377 1.347 . S
C376 H387 0.929 . S
N377 C375 1.375 . S
N377 C376 1.347 . S
C378 C381 1.365 . S
C378 N383 1.328 . S
C378 H384 0.929 . S
C379 C380 1.362 . S
C379 C382 1.378 . S
C379 H394 0.929 . S
C380 C379 1.362 . S
C380 C381 1.366 . S
C381 C378 1.365 . S
C381 C380 1.366 . S
C381 H395 0.930 . S
C382 C379 1.378 . S
C382 N383 1.315 . S
C382 H385 0.930 . S
N383 Co363 2.194 . S
N383 C378 1.328 . S
N383 C382 1.315 . S
H384 C378 0.929 . S
H385 C382 0.930 . S
H386 C374 0.929 . S
H387 C376 0.929 . S
O388 Co363 2.351 . S
O388 C391 1.244 . S
O389 Co363 2.155 . S
O389 C391 1.240 . S
O390 Co363 2.096 . S
O390 C371 1.247 . S
C391 O388 1.244 . S
C391 O389 1.240 . S
H392 C366 0.931 . S
H393 C375 0.931 . S
H394 C379 0.929 . S
H395 C381 0.930 . S
Co396 N400 2.148 . S
Co396 N406 2.128 . S
Co396 N416 2.194 . S
Co396 O421 2.351 . S
Co396 O422 2.155 . S
Co396 O423 2.096 . S
C397 N400 1.301 . S
C397 N401 1.328 . S
C397 H402 0.930 . S
C398 C399 1.333 . S
C398 N400 1.317 . S
C398 H403 0.930 . S
C399 C398 1.333 . S
C399 N401 1.350 . S
C399 H425 0.931 . S
N400 Co396 2.148 . S
N400 C397 1.301 . S
N400 C398 1.317 . S
N401 C397 1.328 . S
N401 C399 1.350 . S
H402 C397 0.930 . S
H403 C398 0.930 . S
C404 O405 1.224 . S
C404 O423 1.247 . S
O405 C404 1.224 . S
N406 Co396 2.128 . S
N406 C407 1.355 . S
N406 C409 1.311 . S
C407 N406 1.355 . S
C407 C408 1.363 . S
C407 H419 0.929 . S
C408 C407 1.363 . S
C408 N410 1.375 . S
C408 H426 0.931 . S
C409 N406 1.311 . S
C409 N410 1.347 . S
C409 H420 0.929 . S
N410 C408 1.375 . S
N410 C409 1.347 . S
C411 C414 1.365 . S
C411 N416 1.328 . S
C411 H417 0.929 . S
C412 C413 1.362 . S
C412 C415 1.378 . S
C412 H427 0.929 . S
C413 C412 1.362 . S
C413 C414 1.366 . S
C414 C411 1.365 . S
C414 C413 1.366 . S
C414 H428 0.930 . S
C415 C412 1.378 . S
C415 N416 1.315 . S
C415 H418 0.930 . S
N416 Co396 2.194 . S
N416 C411 1.328 . S
N416 C415 1.315 . S
H417 C411 0.929 . S
H418 C415 0.930 . S
H419 C407 0.929 . S
H420 C409 0.929 . S
O421 Co396 2.351 . S
O421 C424 1.244 . S
O422 Co396 2.155 . S
O422 C424 1.240 . S
O423 Co396 2.096 . S
O423 C404 1.247 . S
C424 O421 1.244 . S
C424 O422 1.240 . S
H425 C399 0.931 . S
H426 C408 0.931 . S
H427 C412 0.929 . S
H428 C414 0.930 . S
Co429 N433 2.148 . S
Co429 N439 2.128 . S
Co429 N449 2.194 . S
Co429 O454 2.351 . S
Co429 O455 2.155 . S
Co429 O456 2.096 . S
C430 N433 1.301 . S
C430 N434 1.328 . S
C430 H435 0.930 . S
C431 C432 1.333 . S
C431 N433 1.317 . S
C431 H436 0.930 . S
C432 C431 1.333 . S
C432 N434 1.350 . S
C432 H458 0.931 . S
N433 Co429 2.148 . S
N433 C430 1.301 . S
N433 C431 1.317 . S
N434 C430 1.328 . S
N434 C432 1.350 . S
H435 C430 0.930 . S
H436 C431 0.930 . S
C437 O438 1.224 . S
C437 O456 1.247 . S
O438 C437 1.224 . S
N439 Co429 2.128 . S
N439 C440 1.355 . S
N439 C442 1.311 . S
C440 N439 1.355 . S
C440 C441 1.363 . S
C440 H452 0.929 . S
C441 C440 1.363 . S
C441 N443 1.375 . S
C441 H459 0.931 . S
C442 N439 1.311 . S
C442 N443 1.347 . S
C442 H453 0.929 . S
N443 C441 1.375 . S
N443 C442 1.347 . S
C444 C447 1.365 . S
C444 N449 1.328 . S
C444 H450 0.929 . S
C445 C446 1.362 . S
C445 C448 1.378 . S
C445 H460 0.929 . S
C446 C445 1.362 . S
C446 C447 1.366 . S
C447 C444 1.365 . S
C447 C446 1.366 . S
C447 H461 0.930 . S
C448 C445 1.378 . S
C448 N449 1.315 . S
C448 H451 0.930 . S
N449 Co429 2.194 . S
N449 C444 1.328 . S
N449 C448 1.315 . S
H450 C444 0.929 . S
H451 C448 0.930 . S
H452 C440 0.929 . S
H453 C442 0.929 . S
O454 Co429 2.351 . S
O454 C457 1.244 . S
O455 Co429 2.155 . S
O455 C457 1.240 . S
O456 Co429 2.096 . S
O456 C437 1.247 . S
C457 O454 1.244 . S
C457 O455 1.240 . S
H458 C432 0.931 . S
H459 C441 0.931 . S
H460 C445 0.929 . S
H461 C447 0.930 . S
Co462 N466 2.148 . S
Co462 N472 2.128 . S
Co462 N482 2.194 . S
Co462 O487 2.351 . S
Co462 O488 2.155 . S
Co462 O489 2.096 . S
C463 N466 1.301 . S
C463 N467 1.328 . S
C463 H468 0.930 . S
C464 C465 1.333 . S
C464 N466 1.317 . S
C464 H469 0.930 . S
C465 C464 1.333 . S
C465 N467 1.350 . S
C465 H491 0.931 . S
N466 Co462 2.148 . S
N466 C463 1.301 . S
N466 C464 1.317 . S
N467 C463 1.328 . S
N467 C465 1.350 . S
H468 C463 0.930 . S
H469 C464 0.930 . S
C470 O471 1.224 . S
C470 O489 1.247 . S
O471 C470 1.224 . S
N472 Co462 2.128 . S
N472 C473 1.355 . S
N472 C475 1.311 . S
C473 N472 1.355 . S
C473 C474 1.363 . S
C473 H485 0.929 . S
C474 C473 1.363 . S
C474 N476 1.375 . S
C474 H492 0.931 . S
C475 N472 1.311 . S
C475 N476 1.347 . S
C475 H486 0.929 . S
N476 C474 1.375 . S
N476 C475 1.347 . S
C477 C480 1.365 . S
C477 N482 1.328 . S
C477 H483 0.929 . S
C478 C479 1.362 . S
C478 C481 1.378 . S
C478 H493 0.929 . S
C479 C478 1.362 . S
C479 C480 1.366 . S
C480 C477 1.365 . S
C480 C479 1.366 . S
C480 H494 0.930 . S
C481 C478 1.378 . S
C481 N482 1.315 . S
C481 H484 0.930 . S
N482 Co462 2.194 . S
N482 C477 1.328 . S
N482 C481 1.315 . S
H483 C477 0.929 . S
H484 C481 0.930 . S
H485 C473 0.929 . S
H486 C475 0.929 . S
O487 Co462 2.351 . S
O487 C490 1.244 . S
O488 Co462 2.155 . S
O488 C490 1.240 . S
O489 Co462 2.096 . S
O489 C470 1.247 . S
C490 O487 1.244 . S
C490 O488 1.240 . S
H491 C465 0.931 . S
H492 C474 0.931 . S
H493 C478 0.929 . S
H494 C480 0.930 . S
Co495 N499 2.148 . S
Co495 N505 2.128 . S
Co495 N515 2.194 . S
Co495 O520 2.351 . S
Co495 O521 2.155 . S
Co495 O522 2.096 . S
C496 N499 1.301 . S
C496 N500 1.328 . S
C496 H501 0.930 . S
C497 C498 1.333 . S
C497 N499 1.317 . S
C497 H502 0.930 . S
C498 C497 1.333 . S
C498 N500 1.350 . S
C498 H524 0.931 . S
N499 Co495 2.148 . S
N499 C496 1.301 . S
N499 C497 1.317 . S
N500 C496 1.328 . S
N500 C498 1.350 . S
H501 C496 0.930 . S
H502 C497 0.930 . S
C503 O504 1.224 . S
C503 O522 1.247 . S
O504 C503 1.224 . S
N505 Co495 2.128 . S
N505 C506 1.355 . S
N505 C508 1.311 . S
C506 N505 1.355 . S
C506 C507 1.363 . S
C506 H518 0.929 . S
C507 C506 1.363 . S
C507 N509 1.375 . S
C507 H525 0.931 . S
C508 N505 1.311 . S
C508 N509 1.347 . S
C508 H519 0.929 . S
N509 C507 1.375 . S
N509 C508 1.347 . S
C510 C513 1.365 . S
C510 N515 1.328 . S
C510 H516 0.929 . S
C511 C512 1.362 . S
C511 C514 1.378 . S
C511 H526 0.929 . S
C512 C511 1.362 . S
C512 C513 1.366 . S
C513 C510 1.365 . S
C513 C512 1.366 . S
C513 H527 0.930 . S
C514 C511 1.378 . S
C514 N515 1.315 . S
C514 H517 0.930 . S
N515 Co495 2.194 . S
N515 C510 1.328 . S
N515 C514 1.315 . S
H516 C510 0.929 . S
H517 C514 0.930 . S
H518 C506 0.929 . S
H519 C508 0.929 . S
O520 Co495 2.351 . S
O520 C523 1.244 . S
O521 Co495 2.155 . S
O521 C523 1.240 . S
O522 Co495 2.096 . S
O522 C503 1.247 . S
C523 O520 1.244 . S
C523 O521 1.240 . S
H524 C498 0.931 . S
H525 C507 0.931 . S
H526 C511 0.929 . S
H527 C513 0.930 . S
C528 C529 1.391 . S
C528 C530 1.394 . S
C528 H544 0.931 . S
C529 C528 1.391 . S
C529 C533 1.376 . S
C530 C528 1.394 . S
C530 C531 1.369 . S
C530 C534 1.531 . S
C531 C530 1.369 . S
C531 C532 1.410 . S
C531 C539 1.503 . S
C532 C531 1.410 . S
C532 C533 1.392 . S
C532 C535 1.511 . S
C533 C529 1.376 . S
C533 C532 1.392 . S
C533 H545 0.929 . S
C534 C530 1.531 . S
C534 H546 0.960 . S
C534 H547 0.962 . S
C534 H548 0.960 . S
C535 C532 1.511 . S
C535 H549 0.961 . S
C535 H550 0.961 . S
C535 H551 0.961 . S
C536 C537 1.370 . S
C536 C538 1.363 . S
C536 H552 0.931 . S
C537 C536 1.370 . S
C537 C541 1.408 . S
C538 C536 1.363 . S
C538 C539 1.370 . S
C538 C542 1.524 . S
C539 C531 1.503 . S
C539 C538 1.370 . S
C539 C540 1.403 . S
C540 C539 1.403 . S
C540 C541 1.404 . S
C540 C543 1.539 . S
C541 C537 1.408 . S
C541 C540 1.404 . S
C541 H553 0.930 . S
C542 C538 1.524 . S
C542 H554 0.956 . S
C542 H555 0.961 . S
C542 H556 0.961 . S
C543 C540 1.539 . S
C543 H557 0.958 . S
C543 H558 0.961 . S
C543 H559 0.960 . S
H544 C528 0.931 . S
H545 C533 0.929 . S
H546 C534 0.960 . S
H547 C534 0.962 . S
H548 C534 0.960 . S
H549 C535 0.961 . S
H550 C535 0.961 . S
H551 C535 0.961 . S
H552 C536 0.931 . S
H553 C541 0.930 . S
H554 C542 0.956 . S
H555 C542 0.961 . S
H556 C542 0.961 . S
H557 C543 0.958 . S
H558 C543 0.961 . S
H559 C543 0.960 . S
C560 C561 1.391 . S
C560 C562 1.394 . S
C560 H576 0.931 . S
C561 C560 1.391 . S
C561 C565 1.376 . S
C562 C560 1.394 . S
C562 C563 1.369 . S
C562 C566 1.531 . S
C563 C562 1.369 . S
C563 C564 1.410 . S
C563 C571 1.503 . S
C564 C563 1.410 . S
C564 C565 1.392 . S
C564 C567 1.511 . S
C565 C561 1.376 . S
C565 C564 1.392 . S
C565 H577 0.929 . S
C566 C562 1.531 . S
C566 H578 0.960 . S
C566 H579 0.962 . S
C566 H580 0.960 . S
C567 C564 1.511 . S
C567 H581 0.961 . S
C567 H582 0.961 . S
C567 H583 0.961 . S
C568 C569 1.370 . S
C568 C570 1.363 . S
C568 H584 0.931 . S
C569 C568 1.370 . S
C569 C573 1.408 . S
C570 C568 1.363 . S
C570 C571 1.370 . S
C570 C574 1.524 . S
C571 C563 1.503 . S
C571 C570 1.370 . S
C571 C572 1.403 . S
C572 C571 1.403 . S
C572 C573 1.404 . S
C572 C575 1.539 . S
C573 C569 1.408 . S
C573 C572 1.404 . S
C573 H585 0.930 . S
C574 C570 1.524 . S
C574 H586 0.956 . S
C574 H587 0.961 . S
C574 H588 0.961 . S
C575 C572 1.539 . S
C575 H589 0.958 . S
C575 H590 0.961 . S
C575 H591 0.960 . S
H576 C560 0.931 . S
H577 C565 0.929 . S
H578 C566 0.960 . S
H579 C566 0.962 . S
H580 C566 0.960 . S
H581 C567 0.961 . S
H582 C567 0.961 . S
H583 C567 0.961 . S
H584 C568 0.931 . S
H585 C573 0.930 . S
H586 C574 0.956 . S
H587 C574 0.961 . S
H588 C574 0.961 . S
H589 C575 0.958 . S
H590 C575 0.961 . S
H591 C575 0.960 . S
C592 C593 1.391 . S
C592 C594 1.394 . S
C592 H608 0.931 . S
C593 C592 1.391 . S
C593 C597 1.376 . S
C594 C592 1.394 . S
C594 C595 1.369 . S
C594 C598 1.531 . S
C595 C594 1.369 . S
C595 C596 1.410 . S
C595 C603 1.503 . S
C596 C595 1.410 . S
C596 C597 1.392 . S
C596 C599 1.511 . S
C597 C593 1.376 . S
C597 C596 1.392 . S
C597 H609 0.929 . S
C598 C594 1.531 . S
C598 H610 0.960 . S
C598 H611 0.962 . S
C598 H612 0.960 . S
C599 C596 1.511 . S
C599 H613 0.961 . S
C599 H614 0.961 . S
C599 H615 0.961 . S
C600 C601 1.370 . S
C600 C602 1.363 . S
C600 H616 0.931 . S
C601 C600 1.370 . S
C601 C605 1.408 . S
C602 C600 1.363 . S
C602 C603 1.370 . S
C602 C606 1.524 . S
C603 C595 1.503 . S
C603 C602 1.370 . S
C603 C604 1.403 . S
C604 C603 1.403 . S
C604 C605 1.404 . S
C604 C607 1.539 . S
C605 C601 1.408 . S
C605 C604 1.404 . S
C605 H617 0.930 . S
C606 C602 1.524 . S
C606 H618 0.956 . S
C606 H619 0.961 . S
C606 H620 0.961 . S
C607 C604 1.539 . S
C607 H621 0.958 . S
C607 H622 0.961 . S
C607 H623 0.960 . S
H608 C592 0.931 . S
H609 C597 0.929 . S
H610 C598 0.960 . S
H611 C598 0.962 . S
H612 C598 0.960 . S
H613 C599 0.961 . S
H614 C599 0.961 . S
H615 C599 0.961 . S
H616 C600 0.931 . S
H617 C605 0.930 . S
H618 C606 0.956 . S
H619 C606 0.961 . S
H620 C606 0.961 . S
H621 C607 0.958 . S
H622 C607 0.961 . S
H623 C607 0.960 . S
C624 C625 1.391 . S
C624 C626 1.394 . S
C624 H640 0.931 . S
C625 C624 1.391 . S
C625 C629 1.376 . S
C626 C624 1.394 . S
C626 C627 1.369 . S
C626 C630 1.531 . S
C627 C626 1.369 . S
C627 C628 1.410 . S
C627 C635 1.503 . S
C628 C627 1.410 . S
C628 C629 1.392 . S
C628 C631 1.511 . S
C629 C625 1.376 . S
C629 C628 1.392 . S
C629 H641 0.929 . S
C630 C626 1.531 . S
C630 H642 0.960 . S
C630 H643 0.962 . S
C630 H644 0.960 . S
C631 C628 1.511 . S
C631 H645 0.961 . S
C631 H646 0.961 . S
C631 H647 0.961 . S
C632 C633 1.370 . S
C632 C634 1.363 . S
C632 H648 0.931 . S
C633 C632 1.370 . S
C633 C637 1.408 . S
C634 C632 1.363 . S
C634 C635 1.370 . S
C634 C638 1.524 . S
C635 C627 1.503 . S
C635 C634 1.370 . S
C635 C636 1.403 . S
C636 C635 1.403 . S
C636 C637 1.404 . S
C636 C639 1.539 . S
C637 C633 1.408 . S
C637 C636 1.404 . S
C637 H649 0.930 . S
C638 C634 1.524 . S
C638 H650 0.956 . S
C638 H651 0.961 . S
C638 H652 0.961 . S
C639 C636 1.539 . S
C639 H653 0.958 . S
C639 H654 0.961 . S
C639 H655 0.960 . S
H640 C624 0.931 . S
H641 C629 0.929 . S
H642 C630 0.960 . S
H643 C630 0.962 . S
H644 C630 0.960 . S
H645 C631 0.961 . S
H646 C631 0.961 . S
H647 C631 0.961 . S
H648 C632 0.931 . S
H649 C637 0.930 . S
H650 C638 0.956 . S
H651 C638 0.961 . S
H652 C638 0.961 . S
H653 C639 0.958 . S
H654 C639 0.961 . S
H655 C639 0.960 . S
C656 C657 1.391 . S
C656 C658 1.394 . S
C656 H672 0.931 . S
C657 C656 1.391 . S
C657 C661 1.376 . S
C658 C656 1.394 . S
C658 C659 1.369 . S
C658 C662 1.531 1_554 S
C659 C658 1.369 . S
C659 C660 1.410 . S
C659 C667 1.503 1_554 S
C660 C659 1.410 . S
C660 C661 1.392 . S
C660 C663 1.511 . S
C661 C657 1.376 . S
C661 C660 1.392 . S
C661 H673 0.929 . S
C662 C658 1.531 1_556 S
C662 H674 0.960 . S
C662 H675 0.962 . S
C662 H676 0.960 . S
C663 C660 1.511 . S
C663 H677 0.961 . S
C663 H678 0.961 . S
C663 H679 0.961 . S
C664 C665 1.370 . S
C664 C666 1.363 . S
C664 H680 0.931 . S
C665 C664 1.370 . S
C665 C669 1.408 . S
C666 C664 1.363 . S
C666 C667 1.370 . S
C666 C670 1.524 . S
C667 C659 1.503 1_556 S
C667 C666 1.370 . S
C667 C668 1.403 . S
C668 C667 1.403 . S
C668 C669 1.404 . S
C668 C671 1.539 . S
C669 C665 1.408 . S
C669 C668 1.404 . S
C669 H681 0.930 . S
C670 C666 1.524 . S
C670 H682 0.963 . S
C670 H683 0.961 1_556 S
C670 H684 0.961 . S
C671 C668 1.539 . S
C671 H685 0.958 . S
C671 H686 0.961 . S
C671 H687 0.960 . S
H672 C656 0.931 . S
H673 C661 0.929 . S
H674 C662 0.960 . S
H675 C662 0.962 . S
H676 C662 0.960 . S
H677 C663 0.961 . S
H678 C663 0.961 . S
H679 C663 0.961 . S
H680 C664 0.931 . S
H681 C669 0.930 . S
H682 C670 0.963 . S
H683 C670 0.961 1_554 S
H684 C670 0.961 . S
H685 C671 0.958 . S
H686 C671 0.961 . S
H687 C671 0.960 . S
C688 C689 1.391 . S
C688 C690 1.394 . S
C688 H704 0.931 . S
C689 C688 1.391 . S
C689 C693 1.376 . S
C690 C688 1.394 . S
C690 C691 1.369 . S
C690 C694 1.531 . S
C691 C690 1.369 . S
C691 C692 1.410 . S
C691 C699 1.503 1_556 S
C692 C691 1.410 . S
C692 C693 1.392 . S
C692 C695 1.511 1_556 S
C693 C689 1.376 . S
C693 C692 1.392 . S
C693 H705 0.929 . S
C694 C690 1.531 . S
C694 H706 0.960 . S
C694 H707 0.962 . S
C694 H708 0.960 . S
C695 C692 1.511 1_554 S
C695 H709 0.961 . S
C695 H710 0.961 . S
C695 H711 0.961 . S
C696 C697 1.370 . S
C696 C698 1.363 . S
C696 H712 0.931 . S
C697 C696 1.370 . S
C697 C701 1.408 . S
C698 C696 1.363 . S
C698 C699 1.370 . S
C698 C702 1.524 . S
C699 C691 1.503 1_554 S
C699 C698 1.370 . S
C699 C700 1.403 . S
C700 C699 1.403 . S
C700 C701 1.404 . S
C700 C703 1.539 . S
C701 C697 1.408 . S
C701 C700 1.404 . S
C701 H713 0.930 . S
C702 C698 1.524 . S
C702 H714 0.956 . S
C702 H715 0.961 . S
C702 H716 0.961 . S
C703 C700 1.539 . S
C703 H717 0.958 . S
C703 H718 0.961 . S
C703 H719 0.960 . S
H704 C688 0.931 . S
H705 C693 0.929 . S
H706 C694 0.960 . S
H707 C694 0.962 . S
H708 C694 0.960 . S
H709 C695 0.961 . S
H710 C695 0.961 . S
H711 C695 0.961 . S
H712 C696 0.931 . S
H713 C701 0.930 . S
H714 C702 0.956 . S
H715 C702 0.961 . S
H716 C702 0.961 . S
H717 C703 0.958 . S
H718 C703 0.961 . S
H719 C703 0.960 . S
C720 C721 1.391 . S
C720 C722 1.394 . S
C720 H736 0.931 . S
C721 C720 1.391 . S
C721 C725 1.376 . S
C722 C720 1.394 . S
C722 C723 1.369 . S
C722 C726 1.531 . S
C723 C722 1.369 . S
C723 C724 1.410 . S
C723 C731 1.503 1_556 S
C724 C723 1.410 . S
C724 C725 1.392 . S
C724 C727 1.511 . S
C725 C721 1.376 . S
C725 C724 1.392 . S
C725 H737 0.929 . S
C726 C722 1.531 . S
C726 H738 0.960 1_556 S
C726 H739 0.962 . S
C726 H740 0.960 . S
C727 C724 1.511 . S
C727 H741 0.961 . S
C727 H742 0.961 . S
C727 H743 0.961 . S
C728 C729 1.370 . S
C728 C730 1.363 . S
C728 H744 0.931 . S
C729 C728 1.370 . S
C729 C733 1.408 . S
C730 C728 1.363 . S
C730 C731 1.370 . S
C730 C734 1.524 1_554 S
C731 C723 1.503 1_554 S
C731 C730 1.370 . S
C731 C732 1.403 . S
C732 C731 1.403 . S
C732 C733 1.404 . S
C732 C735 1.539 . S
C733 C729 1.408 . S
C733 C732 1.404 . S
C733 H745 0.930 . S
C734 C730 1.524 1_556 S
C734 H746 0.956 . S
C734 H747 0.961 . S
C734 H748 0.961 . S
C735 C732 1.539 . S
C735 H749 0.958 . S
C735 H750 0.961 . S
C735 H751 0.960 . S
H736 C720 0.931 . S
H737 C725 0.929 . S
H738 C726 0.960 1_554 S
H739 C726 0.962 . S
H740 C726 0.960 . S
H741 C727 0.961 . S
H742 C727 0.961 . S
H743 C727 0.961 . S
H744 C728 0.931 . S
H745 C733 0.930 . S
H746 C734 0.956 . S
H747 C734 0.961 . S
H748 C734 0.961 . S
H749 C735 0.958 . S
H750 C735 0.961 . S
H751 C735 0.960 . S
C752 C753 1.391 . S
C752 C754 1.394 . S
C752 H768 0.931 . S
C753 C752 1.391 . S
C753 C757 1.376 . S
C754 C752 1.394 . S
C754 C755 1.369 . S
C754 C758 1.531 . S
C755 C754 1.369 . S
C755 C756 1.410 . S
C755 C763 1.503 1_554 S
C756 C755 1.410 . S
C756 C757 1.392 . S
C756 C759 1.511 . S
C757 C753 1.376 . S
C757 C756 1.392 . S
C757 H769 0.929 . S
C758 C754 1.531 . S
C758 H770 0.960 1_554 S
C758 H771 0.962 . S
C758 H772 0.960 . S
C759 C756 1.511 . S
C759 H773 0.961 . S
C759 H774 0.961 . S
C759 H775 0.961 . S
C760 C761 1.370 . S
C760 C762 1.363 . S
C760 H776 0.931 . S
C761 C760 1.370 . S
C761 C765 1.408 . S
C762 C760 1.363 . S
C762 C763 1.370 . S
C762 C766 1.524 1_556 S
C763 C755 1.503 1_556 S
C763 C762 1.370 . S
C763 C764 1.403 . S
C764 C763 1.403 . S
C764 C765 1.404 . S
C764 C767 1.539 . S
C765 C761 1.408 . S
C765 C764 1.404 . S
C765 H777 0.930 . S
C766 C762 1.524 1_554 S
C766 H778 0.956 . S
C766 H779 0.961 . S
C766 H780 0.961 . S
C767 C764 1.539 . S
C767 H781 0.958 . S
C767 H782 0.961 . S
C767 H783 0.960 . S
H768 C752 0.931 . S
H769 C757 0.929 . S
H770 C758 0.960 1_556 S
H771 C758 0.962 . S
H772 C758 0.960 . S
H773 C759 0.961 . S
H774 C759 0.961 . S
H775 C759 0.961 . S
H776 C760 0.931 . S
H777 C765 0.930 . S
H778 C766 0.956 . S
H779 C766 0.961 . S
H780 C766 0.961 . S
H781 C767 0.958 . S
H782 C767 0.961 . S
H783 C767 0.960 . S
C784 C785 1.391 . S
C784 C786 1.394 . S
C784 H800 0.931 . S
C785 C784 1.391 . S
C785 C789 1.376 . S
C786 C784 1.394 . S
C786 C787 1.369 . S
C786 C790 1.531 . S
C787 C786 1.369 . S
C787 C788 1.410 . S
C787 C795 1.503 . S
C788 C787 1.410 . S
C788 C789 1.392 . S
C788 C791 1.511 . S
C789 C785 1.376 . S
C789 C788 1.392 . S
C789 H801 0.929 . S
C790 C786 1.531 . S
C790 H802 0.960 . S
C790 H803 0.962 . S
C790 H804 0.960 . S
C791 C788 1.511 . S
C791 H805 0.961 . S
C791 H806 0.961 . S
C791 H807 0.961 . S
C792 C793 1.370 . S
C792 C794 1.363 . S
C792 H808 0.931 . S
C793 C792 1.370 . S
C793 C797 1.408 . S
C794 C792 1.363 . S
C794 C795 1.370 . S
C794 C798 1.524 . S
C795 C787 1.503 . S
C795 C794 1.370 . S
C795 C796 1.403 . S
C796 C795 1.403 . S
C796 C797 1.404 . S
C796 C799 1.539 . S
C797 C793 1.408 . S
C797 C796 1.404 . S
C797 H809 0.930 . S
C798 C794 1.524 . S
C798 H810 0.956 . S
C798 H811 0.961 . S
C798 H812 0.961 . S
C799 C796 1.539 . S
C799 H813 0.958 . S
C799 H814 0.961 . S
C799 H815 0.960 . S
H800 C784 0.931 . S
H801 C789 0.929 . S
H802 C790 0.960 . S
H803 C790 0.962 . S
H804 C790 0.960 . S
H805 C791 0.961 . S
H806 C791 0.961 . S
H807 C791 0.961 . S
H808 C792 0.931 . S
H809 C797 0.930 . S
H810 C798 0.956 . S
H811 C798 0.961 . S
H812 C798 0.961 . S
H813 C799 0.958 . S
H814 C799 0.961 . S
H815 C799 0.960 . S
C816 C817 1.391 . S
C816 C818 1.394 . S
C816 H832 0.931 . S
C817 C816 1.391 . S
C817 C821 1.376 . S
C818 C816 1.394 . S
C818 C819 1.369 . S
C818 C822 1.531 . S
C819 C818 1.369 . S
C819 C820 1.410 . S
C819 C827 1.503 . S
C820 C819 1.410 . S
C820 C821 1.392 . S
C820 C823 1.511 . S
C821 C817 1.376 . S
C821 C820 1.392 . S
C821 H833 0.929 . S
C822 C818 1.531 . S
C822 H834 0.960 . S
C822 H835 0.962 . S
C822 H836 0.960 . S
C823 C820 1.511 . S
C823 H837 0.961 . S
C823 H838 0.961 . S
C823 H839 0.961 . S
C824 C825 1.370 . S
C824 C826 1.363 . S
C824 H840 0.931 . S
C825 C824 1.370 . S
C825 C829 1.408 . S
C826 C824 1.363 . S
C826 C827 1.370 . S
C826 C830 1.524 . S
C827 C819 1.503 . S
C827 C826 1.370 . S
C827 C828 1.403 . S
C828 C827 1.403 . S
C828 C829 1.404 . S
C828 C831 1.539 . S
C829 C825 1.408 . S
C829 C828 1.404 . S
C829 H841 0.930 . S
C830 C826 1.524 . S
C830 H842 0.956 . S
C830 H843 0.961 . S
C830 H844 0.961 . S
C831 C828 1.539 . S
C831 H845 0.958 . S
C831 H846 0.961 . S
C831 H847 0.960 . S
H832 C816 0.931 . S
H833 C821 0.929 . S
H834 C822 0.960 . S
H835 C822 0.962 . S
H836 C822 0.960 . S
H837 C823 0.961 . S
H838 C823 0.961 . S
H839 C823 0.961 . S
H840 C824 0.931 . S
H841 C829 0.930 . S
H842 C830 0.956 . S
H843 C830 0.961 . S
H844 C830 0.961 . S
H845 C831 0.958 . S
H846 C831 0.961 . S
H847 C831 0.960 . S
C848 C849 1.391 . S
C848 C850 1.394 . S
C848 H864 0.931 . S
C849 C848 1.391 . S
C849 C853 1.376 . S
C850 C848 1.394 . S
C850 C851 1.369 . S
C850 C854 1.531 . S
C851 C850 1.369 . S
C851 C852 1.410 . S
C851 C859 1.503 . S
C852 C851 1.410 . S
C852 C853 1.392 . S
C852 C855 1.511 . S
C853 C849 1.376 . S
C853 C852 1.392 . S
C853 H865 0.929 . S
C854 C850 1.531 . S
C854 H866 0.960 . S
C854 H867 0.962 . S
C854 H868 0.960 . S
C855 C852 1.511 . S
C855 H869 0.961 . S
C855 H870 0.961 . S
C855 H871 0.961 . S
C856 C857 1.370 . S
C856 C858 1.363 . S
C856 H872 0.931 . S
C857 C856 1.370 . S
C857 C861 1.408 . S
C858 C856 1.363 . S
C858 C859 1.370 . S
C858 C862 1.524 . S
C859 C851 1.503 . S
C859 C858 1.370 . S
C859 C860 1.403 . S
C860 C859 1.403 . S
C860 C861 1.404 . S
C860 C863 1.539 . S
C861 C857 1.408 . S
C861 C860 1.404 . S
C861 H873 0.930 . S
C862 C858 1.524 . S
C862 H874 0.956 . S
C862 H875 0.961 . S
C862 H876 0.961 . S
C863 C860 1.539 . S
C863 H877 0.958 . S
C863 H878 0.961 . S
C863 H879 0.960 . S
H864 C848 0.931 . S
H865 C853 0.929 . S
H866 C854 0.960 . S
H867 C854 0.962 . S
H868 C854 0.960 . S
H869 C855 0.961 . S
H870 C855 0.961 . S
H871 C855 0.961 . S
H872 C856 0.931 . S
H873 C861 0.930 . S
H874 C862 0.956 . S
H875 C862 0.961 . S
H876 C862 0.961 . S
H877 C863 0.958 . S
H878 C863 0.961 . S
H879 C863 0.960 . S
C880 C881 1.391 . S
C880 C882 1.394 . S
C880 H896 0.931 . S
C881 C880 1.391 . S
C881 C885 1.376 . S
C882 C880 1.394 . S
C882 C883 1.369 . S
C882 C886 1.531 . S
C883 C882 1.369 . S
C883 C884 1.410 . S
C883 C891 1.503 . S
C884 C883 1.410 . S
C884 C885 1.392 . S
C884 C887 1.511 . S
C885 C881 1.376 . S
C885 C884 1.392 . S
C885 H897 0.929 . S
C886 C882 1.531 . S
C886 H898 0.960 . S
C886 H899 0.962 . S
C886 H900 0.960 . S
C887 C884 1.511 . S
C887 H901 0.961 . S
C887 H902 0.961 . S
C887 H903 0.961 . S
C888 C889 1.370 . S
C888 C890 1.363 . S
C888 H904 0.931 . S
C889 C888 1.370 . S
C889 C893 1.408 . S
C890 C888 1.363 . S
C890 C891 1.370 . S
C890 C894 1.524 . S
C891 C883 1.503 . S
C891 C890 1.370 . S
C891 C892 1.403 . S
C892 C891 1.403 . S
C892 C893 1.404 . S
C892 C895 1.539 . S
C893 C889 1.408 . S
C893 C892 1.404 . S
C893 H905 0.930 . S
C894 C890 1.524 . S
C894 H906 0.956 . S
C894 H907 0.961 . S
C894 H908 0.961 . S
C895 C892 1.539 . S
C895 H909 0.958 . S
C895 H910 0.961 . S
C895 H911 0.960 . S
H896 C880 0.931 . S
H897 C885 0.929 . S
H898 C886 0.960 . S
H899 C886 0.962 . S
H900 C886 0.960 . S
H901 C887 0.961 . S
H902 C887 0.961 . S
H903 C887 0.961 . S
H904 C888 0.931 . S
H905 C893 0.930 . S
H906 C894 0.956 . S
H907 C894 0.961 . S
H908 C894 0.961 . S
H909 C895 0.958 . S
H910 C895 0.961 . S
H911 C895 0.960 . S
C912 C913 1.391 . S
C912 C914 1.394 . S
C912 H928 0.931 . S
C913 C912 1.391 . S
C913 C917 1.376 . S
C914 C912 1.394 . S
C914 C915 1.369 . S
C914 C918 1.531 . S
C915 C914 1.369 . S
C915 C916 1.410 . S
C915 C923 1.503 . S
C916 C915 1.410 . S
C916 C917 1.392 . S
C916 C919 1.511 . S
C917 C913 1.376 . S
C917 C916 1.392 . S
C917 H929 0.929 . S
C918 C914 1.531 . S
C918 H930 0.960 . S
C918 H931 0.962 . S
C918 H932 0.960 . S
C919 C916 1.511 . S
C919 H933 0.961 . S
C919 H934 0.961 . S
C919 H935 0.961 . S
C920 C921 1.370 . S
C920 C922 1.363 . S
C920 H936 0.931 . S
C921 C920 1.370 . S
C921 C925 1.408 . S
C922 C920 1.363 . S
C922 C923 1.370 . S
C922 C926 1.524 . S
C923 C915 1.503 . S
C923 C922 1.370 . S
C923 C924 1.403 . S
C924 C923 1.403 . S
C924 C925 1.404 . S
C924 C927 1.539 . S
C925 C921 1.408 . S
C925 C924 1.404 . S
C925 H937 0.930 . S
C926 C922 1.524 . S
C926 H938 0.956 . S
C926 H939 0.961 . S
C926 H940 0.961 . S
C927 C924 1.539 . S
C927 H941 0.958 . S
C927 H942 0.961 . S
C927 H943 0.960 . S
H928 C912 0.931 . S
H929 C917 0.929 . S
H930 C918 0.960 . S
H931 C918 0.962 . S
H932 C918 0.960 . S
H933 C919 0.961 . S
H934 C919 0.961 . S
H935 C919 0.961 . S
H936 C920 0.931 . S
H937 C925 0.930 . S
H938 C926 0.956 . S
H939 C926 0.961 . S
H940 C926 0.961 . S
H941 C927 0.958 . S
H942 C927 0.961 . S
H943 C927 0.960 . S
C944 C945 1.391 . S
C944 C946 1.394 . S
C944 H960 0.931 . S
C945 C944 1.391 . S
C945 C949 1.376 . S
C946 C944 1.394 . S
C946 C947 1.369 . S
C946 C950 1.531 . S
C947 C946 1.369 . S
C947 C948 1.410 . S
C947 C955 1.503 . S
C948 C947 1.410 . S
C948 C949 1.392 . S
C948 C951 1.511 . S
C949 C945 1.376 . S
C949 C948 1.392 . S
C949 H961 0.929 . S
C950 C946 1.531 . S
C950 H962 0.960 . S
C950 H963 0.962 . S
C950 H964 0.960 . S
C951 C948 1.511 . S
C951 H965 0.961 . S
C951 H966 0.961 . S
C951 H967 0.961 . S
C952 C953 1.370 . S
C952 C954 1.363 . S
C952 H968 0.931 . S
C953 C952 1.370 . S
C953 C957 1.408 . S
C954 C952 1.363 . S
C954 C955 1.370 . S
C954 C958 1.524 . S
C955 C947 1.503 . S
C955 C954 1.370 . S
C955 C956 1.403 . S
C956 C955 1.403 . S
C956 C957 1.404 . S
C956 C959 1.539 . S
C957 C953 1.408 . S
C957 C956 1.404 . S
C957 H969 0.930 . S
C958 C954 1.524 . S
C958 H970 0.956 . S
C958 H971 0.961 . S
C958 H972 0.961 . S
C959 C956 1.539 . S
C959 H973 0.958 . S
C959 H974 0.961 . S
C959 H975 0.960 . S
H960 C944 0.931 . S
H961 C949 0.929 . S
H962 C950 0.960 . S
H963 C950 0.962 . S
H964 C950 0.960 . S
H965 C951 0.961 . S
H966 C951 0.961 . S
H967 C951 0.961 . S
H968 C952 0.931 . S
H969 C957 0.930 . S
H970 C958 0.956 . S
H971 C958 0.961 . S
H972 C958 0.961 . S
H973 C959 0.958 . S
H974 C959 0.961 . S
H975 C959 0.960 . S
C976 C977 1.391 . S
C976 C978 1.394 . S
C976 H992 0.931 . S
C977 C976 1.391 . S
C977 C981 1.376 . S
C978 C976 1.394 . S
C978 C979 1.369 . S
C978 C982 1.531 . S
C979 C978 1.369 . S
C979 C980 1.410 . S
C979 C987 1.503 . S
C980 C979 1.410 . S
C980 C981 1.392 . S
C980 C983 1.511 . S
C981 C977 1.376 . S
C981 C980 1.392 . S
C981 H993 0.929 . S
C982 C978 1.531 . S
C982 H994 0.960 . S
C982 H995 0.962 . S
C982 H996 0.960 . S
C983 C980 1.511 . S
C983 H997 0.961 . S
C983 H998 0.961 . S
C983 H999 0.961 . S
C984 C985 1.370 . S
C984 C986 1.363 . S
C984 H1000 0.931 . S
C985 C984 1.370 . S
C985 C989 1.408 . S
C986 C984 1.363 . S
C986 C987 1.370 . S
C986 C990 1.524 . S
C987 C979 1.503 . S
C987 C986 1.370 . S
C987 C988 1.403 . S
C988 C987 1.403 . S
C988 C989 1.404 . S
C988 C991 1.539 . S
C989 C985 1.408 . S
C989 C988 1.404 . S
C989 H1001 0.930 . S
C990 C986 1.524 . S
C990 H1002 0.956 . S
C990 H1003 0.961 . S
C990 H1004 0.961 . S
C991 C988 1.539 . S
C991 H1005 0.958 . S
C991 H1006 0.961 . S
C991 H1007 0.960 . S
H992 C976 0.931 . S
H993 C981 0.929 . S
H994 C982 0.960 . S
H995 C982 0.962 . S
H996 C982 0.960 . S
H997 C983 0.961 . S
H998 C983 0.961 . S
H999 C983 0.961 . S
H1000 C984 0.931 . S
H1001 C989 0.930 . S
H1002 C990 0.956 . S
H1003 C990 0.961 . S
H1004 C990 0.961 . S
H1005 C991 0.958 . S
H1006 C991 0.961 . S
H1007 C991 0.960 . S
C1008 C1009 1.391 . S
C1008 C1010 1.394 . S
C1008 H1024 0.931 . S
C1009 C1008 1.391 . S
C1009 C1013 1.376 . S
C1010 C1008 1.394 . S
C1010 C1011 1.369 . S
C1010 C1014 1.531 . S
C1011 C1010 1.369 . S
C1011 C1012 1.410 . S
C1011 C1019 1.503 . S
C1012 C1011 1.410 . S
C1012 C1013 1.392 . S
C1012 C1015 1.511 . S
C1013 C1009 1.376 . S
C1013 C1012 1.392 . S
C1013 H1025 0.929 . S
C1014 C1010 1.531 . S
C1014 H1026 0.960 . S
C1014 H1027 0.962 . S
C1014 H1028 0.960 . S
C1015 C1012 1.511 . S
C1015 H1029 0.961 . S
C1015 H1030 0.961 . S
C1015 H1031 0.961 . S
C1016 C1017 1.370 . S
C1016 C1018 1.363 . S
C1016 H1032 0.931 . S
C1017 C1016 1.370 . S
C1017 C1021 1.408 . S
C1018 C1016 1.363 . S
C1018 C1019 1.370 . S
C1018 C1022 1.524 . S
C1019 C1011 1.503 . S
C1019 C1018 1.370 . S
C1019 C1020 1.403 . S
C1020 C1019 1.403 . S
C1020 C1021 1.404 . S
C1020 C1023 1.539 . S
C1021 C1017 1.408 . S
C1021 C1020 1.404 . S
C1021 H1033 0.930 . S
C1022 C1018 1.524 . S
C1022 H1034 0.956 . S
C1022 H1035 0.961 . S
C1022 H1036 0.961 . S
C1023 C1020 1.539 . S
C1023 H1037 0.958 . S
C1023 H1038 0.961 . S
C1023 H1039 0.960 . S
H1024 C1008 0.931 . S
H1025 C1013 0.929 . S
H1026 C1014 0.960 . S
H1027 C1014 0.962 . S
H1028 C1014 0.960 . S
H1029 C1015 0.961 . S
H1030 C1015 0.961 . S
H1031 C1015 0.961 . S
H1032 C1016 0.931 . S
H1033 C1021 0.930 . S
H1034 C1022 0.956 . S
H1035 C1022 0.961 . S
H1036 C1022 0.961 . S
H1037 C1023 0.958 . S
H1038 C1023 0.961 . S
H1039 C1023 0.960 . S
C1040 C1041 1.391 . S
C1040 C1042 1.394 . S
C1040 H1056 0.931 . S
C1041 C1040 1.391 . S
C1041 C1045 1.376 1_655 S
C1042 C1040 1.394 . S
C1042 C1043 1.369 1_655 S
C1042 C1046 1.531 . S
C1043 C1042 1.369 1_455 S
C1043 C1044 1.410 . S
C1043 C1051 1.503 1_545 S
C1044 C1043 1.410 . S
C1044 C1045 1.392 . S
C1044 C1047 1.511 . S
C1045 C1041 1.376 1_455 S
C1045 C1044 1.392 . S
C1045 H1057 0.929 . S
C1046 C1042 1.531 . S
C1046 H1058 0.960 1_545 S
C1046 H1059 0.962 . S
C1046 H1060 0.960 . S
C1047 C1044 1.511 . S
C1047 H1061 0.961 . S
C1047 H1062 0.954 1_545 S
C1047 H1063 0.961 . S
C1048 C1049 1.370 1_655 S
C1048 C1050 1.363 . S
C1048 H1064 0.931 . S
C1049 C1048 1.370 1_455 S
C1049 C1053 1.408 . S
C1050 C1048 1.363 . S
C1050 C1051 1.370 1_655 S
C1050 C1054 1.524 . S
C1051 C1043 1.503 1_565 S
C1051 C1050 1.370 1_455 S
C1051 C1052 1.403 . S
C1052 C1051 1.403 . S
C1052 C1053 1.404 . S
C1052 C1055 1.539 . S
C1053 C1049 1.408 . S
C1053 C1052 1.404 . S
C1053 H1065 0.930 . S
C1054 C1050 1.524 . S
C1054 H1066 0.956 . S
C1054 H1067 0.961 . S
C1054 H1068 0.961 . S
C1055 C1052 1.539 . S
C1055 H1069 0.958 . S
C1055 H1070 0.961 . S
C1055 H1071 0.960 1_565 S
H1056 C1040 0.931 . S
H1057 C1045 0.929 . S
H1058 C1046 0.960 1_565 S
H1059 C1046 0.962 . S
H1060 C1046 0.960 . S
H1061 C1047 0.961 . S
H1062 C1047 0.954 1_565 S
H1063 C1047 0.961 . S
H1064 C1048 0.931 . S
H1065 C1053 0.930 . S
H1066 C1054 0.956 . S
H1067 C1054 0.961 . S
H1068 C1054 0.961 . S
H1069 C1055 0.958 . S
H1070 C1055 0.961 . S
H1071 C1055 0.960 1_545 S
C1072 C1073 1.391 . S
C1072 C1074 1.394 . S
C1072 H1088 0.931 . S
C1073 C1072 1.391 . S
C1073 C1077 1.376 1_545 S
C1074 C1072 1.394 . S
C1074 C1075 1.389 . S
C1074 C1078 1.531 . S
C1075 C1074 1.389 . S
C1075 C1076 1.392 1_545 S
C1075 C1083 1.501 1_445 S
C1076 C1075 1.392 1_565 S
C1076 C1077 1.392 . S
C1076 C1079 1.511 . S
C1077 C1073 1.376 1_565 S
C1077 C1076 1.392 . S
C1077 H1089 0.929 . S
C1078 C1074 1.531 . S
C1078 H1090 0.960 1_455 S
C1078 H1091 0.962 . S
C1078 H1092 0.960 . S
C1079 C1076 1.511 . S
C1079 H1093 0.961 . S
C1079 H1094 0.961 . S
C1079 H1095 0.961 . S
C1080 C1081 1.374 . S
C1080 C1082 1.362 1_565 S
C1080 H1096 0.928 1_565 S
C1081 C1080 1.374 . S
C1081 C1085 1.408 . S
C1082 C1080 1.362 1_545 S
C1082 C1083 1.370 1_545 S
C1082 C1086 1.524 . S
C1083 C1075 1.501 1_665 S
C1083 C1082 1.370 1_565 S
C1083 C1084 1.403 . S
C1084 C1083 1.403 . S
C1084 C1085 1.404 . S
C1084 C1087 1.539 . S
C1085 C1081 1.408 . S
C1085 C1084 1.404 . S
C1085 H1097 0.930 . S
C1086 C1082 1.524 . S
C1086 H1098 0.956 . S
C1086 H1099 0.961 1_645 S
C1086 H1100 0.961 . S
C1087 C1084 1.539 . S
C1087 H1101 0.958 . S
C1087 H1102 0.961 . S
C1087 H1103 0.960 1_655 S
H1088 C1072 0.931 . S
H1089 C1077 0.929 . S
H1090 C1078 0.960 1_655 S
H1091 C1078 0.962 . S
H1092 C1078 0.960 . S
H1093 C1079 0.961 . S
H1094 C1079 0.961 . S
H1095 C1079 0.961 . S
H1096 C1080 0.928 1_545 S
H1097 C1085 0.930 . S
H1098 C1086 0.956 . S
H1099 C1086 0.961 1_465 S
H1100 C1086 0.961 . S
H1101 C1087 0.958 . S
H1102 C1087 0.961 . S
H1103 C1087 0.960 1_455 S
C1104 C1105 1.391 1_655 S
C1104 C1106 1.394 . S
C1104 H1120 0.931 . S
C1105 C1104 1.391 1_455 S
C1105 C1109 1.376 . S
C1106 C1104 1.394 . S
C1106 C1107 1.369 1_655 S
C1106 C1110 1.531 . S
C1107 C1106 1.369 1_455 S
C1107 C1108 1.410 . S
C1107 C1115 1.503 . S
C1108 C1107 1.410 . S
C1108 C1109 1.392 . S
C1108 C1111 1.511 . S
C1109 C1105 1.376 . S
C1109 C1108 1.392 . S
C1109 H1121 0.929 . S
C1110 C1106 1.531 . S
C1110 H1122 0.960 . S
C1110 H1123 0.962 . S
C1110 H1124 0.960 . S
C1111 C1108 1.511 . S
C1111 H1125 0.961 . S
C1111 H1126 0.961 . S
C1111 H1127 0.961 . S
C1112 C1113 1.370 . S
C1112 C1114 1.363 . S
C1112 H1128 0.931 . S
C1113 C1112 1.370 . S
C1113 C1117 1.408 1_655 S
C1114 C1112 1.363 . S
C1114 C1115 1.370 1_655 S
C1114 C1118 1.524 . S
C1115 C1107 1.503 . S
C1115 C1114 1.370 1_455 S
C1115 C1116 1.403 . S
C1116 C1115 1.403 . S
C1116 C1117 1.404 . S
C1116 C1119 1.539 . S
C1117 C1113 1.408 1_455 S
C1117 C1116 1.404 . S
C1117 H1129 0.930 . S
C1118 C1114 1.524 . S
C1118 H1130 0.956 . S
C1118 H1131 0.961 . S
C1118 H1132 0.961 . S
C1119 C1116 1.539 . S
C1119 H1133 0.958 . S
C1119 H1134 0.961 . S
C1119 H1135 0.960 . S
H1120 C1104 0.931 . S
H1121 C1109 0.929 . S
H1122 C1110 0.960 . S
H1123 C1110 0.962 . S
H1124 C1110 0.960 . S
H1125 C1111 0.961 . S
H1126 C1111 0.961 . S
H1127 C1111 0.961 . S
H1128 C1112 0.931 . S
H1129 C1117 0.930 . S
H1130 C1118 0.956 . S
H1131 C1118 0.961 . S
H1132 C1118 0.961 . S
H1133 C1119 0.958 . S
H1134 C1119 0.961 . S
H1135 C1119 0.960 . S
C1136 C1137 1.391 1_545 S
C1136 C1138 1.394 . S
C1136 H1152 0.931 . S
C1137 C1136 1.391 1_565 S
C1137 C1141 1.376 . S
C1138 C1136 1.394 . S
C1138 C1139 1.369 . S
C1138 C1142 1.531 . S
C1139 C1138 1.369 . S
C1139 C1140 1.410 1_545 S
C1139 C1147 1.503 . S
C1140 C1139 1.410 1_565 S
C1140 C1141 1.392 . S
C1140 C1143 1.511 . S
C1141 C1137 1.376 . S
C1141 C1140 1.392 . S
C1141 H1153 0.929 . S
C1142 C1138 1.531 . S
C1142 H1154 0.960 . S
C1142 H1155 0.962 . S
C1142 H1156 0.960 . S
C1143 C1140 1.511 . S
C1143 H1157 0.961 . S
C1143 H1158 0.961 . S
C1143 H1159 0.961 . S
C1144 C1145 1.370 1_565 S
C1144 C1146 1.363 . S
C1144 H1160 0.931 . S
C1145 C1144 1.370 1_545 S
C1145 C1149 1.408 . S
C1146 C1144 1.363 . S
C1146 C1147 1.370 1_565 S
C1146 C1150 1.524 . S
C1147 C1139 1.503 . S
C1147 C1146 1.370 1_545 S
C1147 C1148 1.403 . S
C1148 C1147 1.403 . S
C1148 C1149 1.404 . S
C1148 C1151 1.539 . S
C1149 C1145 1.408 . S
C1149 C1148 1.404 . S
C1149 H1161 0.930 . S
C1150 C1146 1.524 . S
C1150 H1162 0.956 . S
C1150 H1163 0.961 . S
C1150 H1164 0.961 . S
C1151 C1148 1.539 . S
C1151 H1165 0.958 . S
C1151 H1166 0.961 . S
C1151 H1167 0.960 . S
H1152 C1136 0.931 . S
H1153 C1141 0.929 . S
H1154 C1142 0.960 . S
H1155 C1142 0.962 . S
H1156 C1142 0.960 . S
H1157 C1143 0.961 . S
H1158 C1143 0.961 . S
H1159 C1143 0.961 . S
H1160 C1144 0.931 . S
H1161 C1149 0.930 . S
H1162 C1150 0.956 . S
H1163 C1150 0.961 . S
H1164 C1150 0.961 . S
H1165 C1151 0.958 . S
H1166 C1151 0.961 . S
H1167 C1151 0.960 . S
C1168 C1169 1.391 . S
C1168 C1170 1.394 . S
C1168 H1184 0.931 . S
C1169 C1168 1.391 . S
C1169 C1173 1.376 . S
C1170 C1168 1.394 . S
C1170 C1171 1.369 . S
C1170 C1174 1.531 . S
C1171 C1170 1.369 . S
C1171 C1172 1.410 . S
C1171 C1179 1.503 . S
C1172 C1171 1.410 . S
C1172 C1173 1.392 . S
C1172 C1175 1.511 . S
C1173 C1169 1.376 . S
C1173 C1172 1.392 . S
C1173 H1185 0.929 . S
C1174 C1170 1.531 . S
C1174 H1186 0.960 . S
C1174 H1187 0.962 . S
C1174 H1188 0.960 . S
C1175 C1172 1.511 . S
C1175 H1189 0.961 . S
C1175 H1190 0.961 . S
C1175 H1191 0.961 . S
C1176 C1177 1.370 . S
C1176 C1178 1.363 . S
C1176 H1192 0.931 . S
C1177 C1176 1.370 . S
C1177 C1181 1.408 . S
C1178 C1176 1.363 . S
C1178 C1179 1.370 . S
C1178 C1182 1.524 . S
C1179 C1171 1.503 . S
C1179 C1178 1.370 . S
C1179 C1180 1.403 . S
C1180 C1179 1.403 . S
C1180 C1181 1.404 . S
C1180 C1183 1.539 . S
C1181 C1177 1.408 . S
C1181 C1180 1.404 . S
C1181 H1193 0.930 . S
C1182 C1178 1.524 . S
C1182 H1194 0.956 . S
C1182 H1195 0.961 . S
C1182 H1196 0.961 . S
C1183 C1180 1.539 . S
C1183 H1197 0.958 . S
C1183 H1198 0.961 . S
C1183 H1199 0.960 . S
H1184 C1168 0.931 . S
H1185 C1173 0.929 . S
H1186 C1174 0.960 . S
H1187 C1174 0.962 . S
H1188 C1174 0.960 . S
H1189 C1175 0.961 . S
H1190 C1175 0.961 . S
H1191 C1175 0.961 . S
H1192 C1176 0.931 . S
H1193 C1181 0.930 . S
H1194 C1182 0.956 . S
H1195 C1182 0.961 . S
H1196 C1182 0.961 . S
H1197 C1183 0.958 . S
H1198 C1183 0.961 . S
H1199 C1183 0.960 . S
C1200 C1201 1.391 . S
C1200 C1202 1.394 . S
C1200 H1216 0.931 . S
C1201 C1200 1.391 . S
C1201 C1205 1.376 . S
C1202 C1200 1.394 . S
C1202 C1203 1.369 . S
C1202 C1206 1.531 . S
C1203 C1202 1.369 . S
C1203 C1204 1.410 . S
C1203 C1211 1.503 . S
C1204 C1203 1.410 . S
C1204 C1205 1.392 . S
C1204 C1207 1.511 . S
C1205 C1201 1.376 . S
C1205 C1204 1.392 . S
C1205 H1217 0.929 . S
C1206 C1202 1.531 . S
C1206 H1218 0.960 . S
C1206 H1219 0.962 . S
C1206 H1220 0.960 . S
C1207 C1204 1.511 . S
C1207 H1221 0.961 . S
C1207 H1222 0.961 . S
C1207 H1223 0.961 . S
C1208 C1209 1.370 . S
C1208 C1210 1.363 . S
C1208 H1224 0.931 . S
C1209 C1208 1.370 . S
C1209 C1213 1.408 . S
C1210 C1208 1.363 . S
C1210 C1211 1.370 . S
C1210 C1214 1.524 . S
C1211 C1203 1.503 . S
C1211 C1210 1.370 . S
C1211 C1212 1.403 . S
C1212 C1211 1.403 . S
C1212 C1213 1.404 . S
C1212 C1215 1.539 . S
C1213 C1209 1.408 . S
C1213 C1212 1.404 . S
C1213 H1225 0.930 . S
C1214 C1210 1.524 . S
C1214 H1226 0.956 . S
C1214 H1227 0.961 . S
C1214 H1228 0.961 . S
C1215 C1212 1.539 . S
C1215 H1229 0.958 . S
C1215 H1230 0.961 . S
C1215 H1231 0.960 . S
H1216 C1200 0.931 . S
H1217 C1205 0.929 . S
H1218 C1206 0.960 . S
H1219 C1206 0.962 . S
H1220 C1206 0.960 . S
H1221 C1207 0.961 . S
H1222 C1207 0.961 . S
H1223 C1207 0.961 . S
H1224 C1208 0.931 . S
H1225 C1213 0.930 . S
H1226 C1214 0.956 . S
H1227 C1214 0.961 . S
H1228 C1214 0.961 . S
H1229 C1215 0.958 . S
H1230 C1215 0.961 . S
H1231 C1215 0.960 . S
C1232 C1233 1.391 . S
C1232 C1234 1.394 . S
C1232 H1248 0.931 . S
C1233 C1232 1.391 . S
C1233 C1237 1.376 . S
C1234 C1232 1.394 . S
C1234 C1235 1.369 . S
C1234 C1238 1.531 . S
C1235 C1234 1.369 . S
C1235 C1236 1.410 . S
C1235 C1243 1.503 1_565 S
C1236 C1235 1.410 . S
C1236 C1237 1.392 . S
C1236 C1239 1.511 . S
C1237 C1233 1.376 . S
C1237 C1236 1.392 . S
C1237 H1249 0.929 . S
C1238 C1234 1.531 . S
C1238 H1250 0.960 1_565 S
C1238 H1251 0.962 . S
C1238 H1252 0.960 . S
C1239 C1236 1.511 . S
C1239 H1253 0.961 . S
C1239 H1254 0.961 1_565 S
C1239 H1255 0.961 . S
C1240 C1241 1.370 . S
C1240 C1242 1.363 . S
C1240 H1256 0.931 . S
C1241 C1240 1.370 . S
C1241 C1245 1.408 . S
C1242 C1240 1.363 . S
C1242 C1243 1.370 . S
C1242 C1246 1.524 . S
C1243 C1235 1.503 1_545 S
C1243 C1242 1.370 . S
C1243 C1244 1.403 . S
C1244 C1243 1.403 . S
C1244 C1245 1.404 . S
C1244 C1247 1.539 . S
C1245 C1241 1.408 . S
C1245 C1244 1.404 . S
C1245 H1257 0.930 . S
C1246 C1242 1.524 . S
C1246 H1258 0.956 . S
C1246 H1259 0.961 . S
C1246 H1260 0.961 . S
C1247 C1244 1.539 . S
C1247 H1261 0.958 . S
C1247 H1262 0.961 . S
C1247 H1263 0.960 1_545 S
H1248 C1232 0.931 . S
H1249 C1237 0.929 . S
H1250 C1238 0.960 1_545 S
H1251 C1238 0.962 . S
H1252 C1238 0.960 . S
H1253 C1239 0.961 . S
H1254 C1239 0.961 1_545 S
H1255 C1239 0.961 . S
H1256 C1240 0.931 . S
H1257 C1245 0.930 . S
H1258 C1246 0.956 . S
H1259 C1246 0.961 . S
H1260 C1246 0.961 . S
H1261 C1247 0.958 . S
H1262 C1247 0.961 . S
H1263 C1247 0.960 1_565 S
C1264 C1265 1.391 . S
C1264 C1266 1.394 . S
C1264 H1280 0.931 . S
C1265 C1264 1.391 . S
C1265 C1269 1.376 . S
C1266 C1264 1.394 . S
C1266 C1267 1.369 . S
C1266 C1270 1.531 . S
C1267 C1266 1.369 . S
C1267 C1268 1.410 . S
C1267 C1275 1.503 1_455 S
C1268 C1267 1.410 . S
C1268 C1269 1.392 . S
C1268 C1271 1.511 . S
C1269 C1265 1.376 . S
C1269 C1268 1.392 . S
C1269 H1281 0.929 . S
C1270 C1266 1.531 . S
C1270 H1282 0.960 1_455 S
C1270 H1283 0.962 . S
C1270 H1284 0.960 . S
C1271 C1268 1.511 . S
C1271 H1285 0.961 . S
C1271 H1286 0.961 . S
C1271 H1287 0.961 . S
C1272 C1273 1.370 . S
C1272 C1274 1.363 . S
C1272 H1288 0.931 . S
C1273 C1272 1.370 . S
C1273 C1277 1.408 . S
C1274 C1272 1.363 . S
C1274 C1275 1.370 . S
C1274 C1278 1.524 . S
C1275 C1267 1.503 1_655 S
C1275 C1274 1.370 . S
C1275 C1276 1.403 . S
C1276 C1275 1.403 . S
C1276 C1277 1.404 . S
C1276 C1279 1.539 . S
C1277 C1273 1.408 . S
C1277 C1276 1.404 . S
C1277 H1289 0.930 . S
C1278 C1274 1.524 . S
C1278 H1290 0.956 . S
C1278 H1291 0.955 1_655 S
C1278 H1292 0.961 . S
C1279 C1276 1.539 . S
C1279 H1293 0.958 . S
C1279 H1294 0.961 . S
C1279 H1295 0.960 1_655 S
H1280 C1264 0.931 . S
H1281 C1269 0.929 . S
H1282 C1270 0.960 1_655 S
H1283 C1270 0.962 . S
H1284 C1270 0.960 . S
H1285 C1271 0.961 . S
H1286 C1271 0.961 . S
H1287 C1271 0.961 . S
H1288 C1272 0.931 . S
H1289 C1277 0.930 . S
H1290 C1278 0.956 . S
H1291 C1278 0.955 1_455 S
H1292 C1278 0.961 . S
H1293 C1279 0.958 . S
H1294 C1279 0.961 . S
H1295 C1279 0.960 1_455 S
C1296 C1297 1.391 . S
C1296 C1298 1.394 . S
C1296 H1312 0.931 . S
C1297 C1296 1.391 . S
C1297 C1301 1.376 . S
C1298 C1296 1.394 . S
C1298 C1299 1.369 . S
C1298 C1302 1.531 1_455 S
C1299 C1298 1.369 . S
C1299 C1300 1.410 . S
C1299 C1307 1.503 . S
C1300 C1299 1.410 . S
C1300 C1301 1.392 . S
C1300 C1303 1.511 . S
C1301 C1297 1.376 . S
C1301 C1300 1.392 . S
C1301 H1313 0.929 . S
C1302 C1298 1.531 1_655 S
C1302 H1314 0.960 1_655 S
C1302 H1315 0.962 . S
C1302 H1316 0.960 . S
C1303 C1300 1.511 . S
C1303 H1317 0.961 . S
C1303 H1318 0.961 . S
C1303 H1319 0.961 . S
C1304 C1305 1.370 . S
C1304 C1306 1.363 . S
C1304 H1320 0.931 . S
C1305 C1304 1.370 . S
C1305 C1309 1.408 1_655 S
C1306 C1304 1.363 . S
C1306 C1307 1.370 1_655 S
C1306 C1310 1.524 . S
C1307 C1299 1.503 . S
C1307 C1306 1.370 1_455 S
C1307 C1308 1.403 . S
C1308 C1307 1.403 . S
C1308 C1309 1.404 . S
C1308 C1311 1.539 . S
C1309 C1305 1.408 1_455 S
C1309 C1308 1.404 . S
C1309 H1321 0.930 . S
C1310 C1306 1.524 . S
C1310 H1322 0.956 . S
C1310 H1323 0.961 . S
C1310 H1324 0.961 . S
C1311 C1308 1.539 . S
C1311 H1325 0.958 . S
C1311 H1326 0.961 . S
C1311 H1327 0.960 . S
H1312 C1296 0.931 . S
H1313 C1301 0.929 . S
H1314 C1302 0.960 1_455 S
H1315 C1302 0.962 . S
H1316 C1302 0.960 . S
H1317 C1303 0.961 . S
H1318 C1303 0.961 . S
H1319 C1303 0.961 . S
H1320 C1304 0.931 . S
H1321 C1309 0.930 . S
H1322 C1310 0.956 . S
H1323 C1310 0.961 . S
H1324 C1310 0.961 . S
H1325 C1311 0.958 . S
H1326 C1311 0.961 . S
H1327 C1311 0.960 . S
C1328 C1329 1.391 . S
C1328 C1330 1.394 . S
C1328 H1344 0.931 . S
C1329 C1328 1.391 . S
C1329 C1333 1.376 1_545 S
C1330 C1328 1.394 . S
C1330 C1331 1.369 . S
C1330 C1334 1.531 . S
C1331 C1330 1.369 . S
C1331 C1332 1.410 1_545 S
C1331 C1339 1.503 1_545 S
C1332 C1331 1.410 1_565 S
C1332 C1333 1.392 . S
C1332 C1335 1.511 . S
C1333 C1329 1.376 1_565 S
C1333 C1332 1.392 . S
C1333 H1345 0.929 . S
C1334 C1330 1.531 . S
C1334 H1346 0.960 . S
C1334 H1347 0.962 . S
C1334 H1348 0.960 . S
C1335 C1332 1.511 . S
C1335 H1349 0.961 . S
C1335 H1350 0.961 . S
C1335 H1351 0.961 . S
C1336 C1337 1.370 . S
C1336 C1338 1.363 . S
C1336 H1352 0.931 . S
C1337 C1336 1.370 . S
C1337 C1341 1.408 . S
C1338 C1336 1.363 . S
C1338 C1339 1.370 . S
C1338 C1342 1.524 1_565 S
C1339 C1331 1.503 1_565 S
C1339 C1338 1.370 . S
C1339 C1340 1.403 . S
C1340 C1339 1.403 . S
C1340 C1341 1.404 . S
C1340 C1343 1.539 . S
C1341 C1337 1.408 . S
C1341 C1340 1.404 . S
C1341 H1353 0.930 . S
C1342 C1338 1.524 1_545 S
C1342 H1354 0.956 . S
C1342 H1355 0.961 1_545 S
C1342 H1356 0.961 . S
C1343 C1340 1.539 . S
C1343 H1357 0.958 1_565 S
C1343 H1358 0.961 . S
C1343 H1359 0.960 . S
H1344 C1328 0.931 . S
H1345 C1333 0.929 . S
H1346 C1334 0.960 . S
H1347 C1334 0.962 . S
H1348 C1334 0.960 . S
H1349 C1335 0.961 . S
H1350 C1335 0.961 . S
H1351 C1335 0.961 . S
H1352 C1336 0.931 . S
H1353 C1341 0.930 . S
H1354 C1342 0.956 . S
H1355 C1342 0.961 1_565 S
H1356 C1342 0.961 . S
H1357 C1343 0.958 1_545 S
H1358 C1343 0.961 . S
H1359 C1343 0.960 . S
C1360 C1361 1.391 . S
C1360 C1362 1.394 . S
C1360 H1376 0.931 . S
C1361 C1360 1.391 . S
C1361 C1365 1.376 1_655 S
C1362 C1360 1.394 . S
C1362 C1363 1.369 1_655 S
C1362 C1366 1.531 . S
C1363 C1362 1.369 1_455 S
C1363 C1364 1.410 . S
C1363 C1371 1.503 1_545 S
C1364 C1363 1.410 . S
C1364 C1365 1.392 . S
C1364 C1367 1.511 . S
C1365 C1361 1.376 1_455 S
C1365 C1364 1.392 . S
C1365 H1377 0.929 . S
C1366 C1362 1.531 . S
C1366 H1378 0.960 1_545 S
C1366 H1379 0.962 . S
C1366 H1380 0.960 . S
C1367 C1364 1.511 . S
C1367 H1381 0.961 . S
C1367 H1382 0.961 . S
C1367 H1383 0.961 . S
C1368 C1369 1.370 1_655 S
C1368 C1370 1.363 . S
C1368 H1384 0.931 . S
C1369 C1368 1.370 1_455 S
C1369 C1373 1.408 . S
C1370 C1368 1.363 . S
C1370 C1371 1.370 1_655 S
C1370 C1374 1.524 . S
C1371 C1363 1.503 1_565 S
C1371 C1370 1.370 1_455 S
C1371 C1372 1.403 . S
C1372 C1371 1.403 . S
C1372 C1373 1.404 . S
C1372 C1375 1.539 . S
C1373 C1369 1.408 . S
C1373 C1372 1.404 . S
C1373 H1385 0.930 . S
C1374 C1370 1.524 . S
C1374 H1386 0.956 . S
C1374 H1387 0.961 . S
C1374 H1388 0.961 . S
C1375 C1372 1.539 . S
C1375 H1389 0.958 . S
C1375 H1390 0.961 . S
C1375 H1391 0.960 1_565 S
H1376 C1360 0.931 . S
H1377 C1365 0.929 . S
H1378 C1366 0.960 1_565 S
H1379 C1366 0.962 . S
H1380 C1366 0.960 . S
H1381 C1367 0.961 . S
H1382 C1367 0.961 . S
H1383 C1367 0.961 . S
H1384 C1368 0.931 . S
H1385 C1373 0.930 . S
H1386 C1374 0.956 . S
H1387 C1374 0.961 . S
H1388 C1374 0.961 . S
H1389 C1375 0.958 . S
H1390 C1375 0.961 . S
H1391 C1375 0.960 1_545 S
C1392 C1393 1.391 1_545 S
C1392 C1394 1.394 . S
C1392 H1408 0.931 . S
C1393 C1392 1.391 1_565 S
C1393 C1397 1.376 . S
C1394 C1392 1.394 . S
C1394 C1395 1.369 1_545 S
C1394 C1398 1.531 . S
C1395 C1394 1.369 1_565 S
C1395 C1396 1.410 . S
C1395 C1403 1.503 1_655 S
C1396 C1395 1.410 . S
C1396 C1397 1.392 . S
C1396 C1399 1.511 . S
C1397 C1393 1.376 . S
C1397 C1396 1.392 . S
C1397 H1409 0.929 . S
C1398 C1394 1.531 . S
C1398 H1410 0.960 . S
C1398 H1411 0.962 . S
C1398 H1412 0.960 . S
C1399 C1396 1.511 . S
C1399 H1413 0.961 . S
C1399 H1414 0.961 1_655 S
C1399 H1415 0.961 . S
C1400 C1401 1.370 . S
C1400 C1402 1.363 . S
C1400 H1416 0.931 . S
C1401 C1400 1.370 . S
C1401 C1405 1.408 1_545 S
C1402 C1400 1.363 . S
C1402 C1403 1.370 1_545 S
C1402 C1406 1.524 . S
C1403 C1395 1.503 1_455 S
C1403 C1402 1.370 1_565 S
C1403 C1404 1.403 . S
C1404 C1403 1.403 . S
C1404 C1405 1.404 . S
C1404 C1407 1.539 . S
C1405 C1401 1.408 1_565 S
C1405 C1404 1.404 . S
C1405 H1417 0.930 . S
C1406 C1402 1.524 . S
C1406 H1418 0.956 1_455 S
C1406 H1419 0.961 1_455 S
C1406 H1420 0.961 . S
C1407 C1404 1.539 . S
C1407 H1421 0.958 . S
C1407 H1422 0.961 . S
C1407 H1423 0.960 . S
H1408 C1392 0.931 . S
H1409 C1397 0.929 . S
H1410 C1398 0.960 . S
H1411 C1398 0.962 . S
H1412 C1398 0.960 . S
H1413 C1399 0.961 . S
H1414 C1399 0.961 1_455 S
H1415 C1399 0.961 . S
H1416 C1400 0.931 . S
H1417 C1405 0.930 . S
H1418 C1406 0.956 1_655 S
H1419 C1406 0.961 1_655 S
H1420 C1406 0.961 . S
H1421 C1407 0.958 . S
H1422 C1407 0.961 . S
H1423 C1407 0.960 . S
C1424 C1425 1.391 . S
C1424 C1426 1.394 . S
C1424 H1440 0.931 . S
C1425 C1424 1.391 . S
C1425 C1429 1.376 . S
C1426 C1424 1.394 . S
C1426 C1427 1.369 . S
C1426 C1430 1.531 . S
C1427 C1426 1.369 . S
C1427 C1428 1.410 . S
C1427 C1435 1.503 1_545 S
C1428 C1427 1.410 . S
C1428 C1429 1.392 . S
C1428 C1431 1.511 . S
C1429 C1425 1.376 . S
C1429 C1428 1.392 . S
C1429 H1441 0.929 . S
C1430 C1426 1.531 . S
C1430 H1442 0.960 . S
C1430 H1443 0.962 . S
C1430 H1444 0.960 . S
C1431 C1428 1.511 . S
C1431 H1445 0.961 . S
C1431 H1446 0.961 1_545 S
C1431 H1447 0.961 . S
C1432 C1433 1.370 . S
C1432 C1434 1.363 . S
C1432 H1448 0.931 . S
C1433 C1432 1.370 . S
C1433 C1437 1.408 . S
C1434 C1432 1.363 . S
C1434 C1435 1.370 . S
C1434 C1438 1.524 . S
C1435 C1427 1.503 1_565 S
C1435 C1434 1.370 . S
C1435 C1436 1.403 . S
C1436 C1435 1.403 . S
C1436 C1437 1.404 . S
C1436 C1439 1.539 . S
C1437 C1433 1.408 . S
C1437 C1436 1.404 . S
C1437 H1449 0.930 . S
C1438 C1434 1.524 . S
C1438 H1450 0.956 1_565 S
C1438 H1451 0.961 . S
C1438 H1452 0.961 . S
C1439 C1436 1.539 . S
C1439 H1453 0.958 . S
C1439 H1454 0.961 . S
C1439 H1455 0.960 . S
H1440 C1424 0.931 . S
H1441 C1429 0.929 . S
H1442 C1430 0.960 . S
H1443 C1430 0.962 . S
H1444 C1430 0.960 . S
H1445 C1431 0.961 . S
H1446 C1431 0.961 1_565 S
H1447 C1431 0.961 . S
H1448 C1432 0.931 . S
H1449 C1437 0.930 . S
H1450 C1438 0.956 1_545 S
H1451 C1438 0.961 . S
H1452 C1438 0.961 . S
H1453 C1439 0.958 . S
H1454 C1439 0.961 . S
H1455 C1439 0.960 . S
C1456 C1457 1.391 . S
C1456 C1458 1.394 . S
C1456 H1472 0.931 . S
C1457 C1456 1.391 . S
C1457 C1461 1.376 . S
C1458 C1456 1.394 . S
C1458 C1459 1.369 . S
C1458 C1462 1.531 . S
C1459 C1458 1.369 . S
C1459 C1460 1.410 . S
C1459 C1467 1.503 1_655 S
C1460 C1459 1.410 . S
C1460 C1461 1.392 . S
C1460 C1463 1.511 . S
C1461 C1457 1.376 . S
C1461 C1460 1.392 . S
C1461 H1473 0.929 . S
C1462 C1458 1.531 . S
C1462 H1474 0.960 1_655 S
C1462 H1475 0.962 . S
C1462 H1476 0.960 . S
C1463 C1460 1.511 . S
C1463 H1477 0.961 . S
C1463 H1478 0.961 . S
C1463 H1479 0.961 . S
C1464 C1465 1.370 . S
C1464 C1466 1.363 . S
C1464 H1480 0.931 . S
C1465 C1464 1.370 . S
C1465 C1469 1.408 . S
C1466 C1464 1.363 . S
C1466 C1467 1.370 . S
C1466 C1470 1.524 . S
C1467 C1459 1.503 1_455 S
C1467 C1466 1.370 . S
C1467 C1468 1.403 . S
C1468 C1467 1.403 . S
C1468 C1469 1.404 . S
C1468 C1471 1.539 . S
C1469 C1465 1.408 . S
C1469 C1468 1.404 . S
C1469 H1481 0.930 . S
C1470 C1466 1.524 . S
C1470 H1482 0.956 . S
C1470 H1483 0.961 1_455 S
C1470 H1484 0.961 . S
C1471 C1468 1.539 . S
C1471 H1485 0.958 . S
C1471 H1486 0.961 . S
C1471 H1487 0.960 1_455 S
H1472 C1456 0.931 . S
H1473 C1461 0.929 . S
H1474 C1462 0.960 1_455 S
H1475 C1462 0.962 . S
H1476 C1462 0.960 . S
H1477 C1463 0.961 . S
H1478 C1463 0.961 . S
H1479 C1463 0.961 . S
H1480 C1464 0.931 . S
H1481 C1469 0.930 . S
H1482 C1470 0.956 . S
H1483 C1470 0.961 1_655 S
H1484 C1470 0.961 . S
H1485 C1471 0.958 . S
H1486 C1471 0.961 . S
H1487 C1471 0.960 1_655 S
C1488 C1489 1.391 . S
C1488 C1490 1.394 . S
C1488 H1504 0.931 . S
C1489 C1488 1.391 . S
C1489 C1493 1.376 . S
C1490 C1488 1.394 . S
C1490 C1491 1.369 . S
C1490 C1494 1.531 . S
C1491 C1490 1.369 . S
C1491 C1492 1.410 . S
C1491 C1499 1.503 . S
C1492 C1491 1.410 . S
C1492 C1493 1.392 . S
C1492 C1495 1.511 . S
C1493 C1489 1.376 . S
C1493 C1492 1.392 . S
C1493 H1505 0.929 . S
C1494 C1490 1.531 . S
C1494 H1506 0.960 . S
C1494 H1507 0.962 . S
C1494 H1508 0.960 . S
C1495 C1492 1.511 . S
C1495 H1509 0.961 . S
C1495 H1510 0.961 . S
C1495 H1511 0.961 . S
C1496 C1497 1.370 . S
C1496 C1498 1.363 . S
C1496 H1512 0.931 . S
C1497 C1496 1.370 . S
C1497 C1501 1.408 . S
C1498 C1496 1.363 . S
C1498 C1499 1.370 . S
C1498 C1502 1.524 . S
C1499 C1491 1.503 . S
C1499 C1498 1.370 . S
C1499 C1500 1.403 . S
C1500 C1499 1.403 . S
C1500 C1501 1.404 . S
C1500 C1503 1.539 . S
C1501 C1497 1.408 . S
C1501 C1500 1.404 . S
C1501 H1513 0.930 . S
C1502 C1498 1.524 . S
C1502 H1514 0.956 . S
C1502 H1515 0.961 . S
C1502 H1516 0.961 . S
C1503 C1500 1.539 . S
C1503 H1517 0.958 . S
C1503 H1518 0.961 . S
C1503 H1519 0.960 . S
H1504 C1488 0.931 . S
H1505 C1493 0.929 . S
H1506 C1494 0.960 . S
H1507 C1494 0.962 . S
H1508 C1494 0.960 . S
H1509 C1495 0.961 . S
H1510 C1495 0.961 . S
H1511 C1495 0.961 . S
H1512 C1496 0.931 . S
H1513 C1501 0.930 . S
H1514 C1502 0.956 . S
H1515 C1502 0.961 . S
H1516 C1502 0.961 . S
H1517 C1503 0.958 . S
H1518 C1503 0.961 . S
H1519 C1503 0.960 . S
C1520 C1521 1.391 . S
C1520 C1522 1.394 . S
C1520 H1536 0.931 . S
C1521 C1520 1.391 . S
C1521 C1525 1.376 . S
C1522 C1520 1.394 . S
C1522 C1523 1.369 . S
C1522 C1526 1.531 . S
C1523 C1522 1.369 . S
C1523 C1524 1.410 . S
C1523 C1531 1.503 . S
C1524 C1523 1.410 . S
C1524 C1525 1.392 . S
C1524 C1527 1.511 . S
C1525 C1521 1.376 . S
C1525 C1524 1.392 . S
C1525 H1537 0.929 . S
C1526 C1522 1.531 . S
C1526 H1538 0.960 . S
C1526 H1539 0.962 . S
C1526 H1540 0.960 . S
C1527 C1524 1.511 . S
C1527 H1541 0.961 . S
C1527 H1542 0.961 . S
C1527 H1543 0.961 . S
C1528 C1529 1.370 . S
C1528 C1530 1.363 . S
C1528 H1544 0.931 . S
C1529 C1528 1.370 . S
C1529 C1533 1.408 . S
C1530 C1528 1.363 . S
C1530 C1531 1.370 . S
C1530 C1534 1.524 . S
C1531 C1523 1.503 . S
C1531 C1530 1.370 . S
C1531 C1532 1.403 . S
C1532 C1531 1.403 . S
C1532 C1533 1.404 . S
C1532 C1535 1.539 . S
C1533 C1529 1.408 . S
C1533 C1532 1.404 . S
C1533 H1545 0.930 . S
C1534 C1530 1.524 . S
C1534 H1546 0.956 . S
C1534 H1547 0.961 . S
C1534 H1548 0.961 . S
C1535 C1532 1.539 . S
C1535 H1549 0.958 . S
C1535 H1550 0.961 . S
C1535 H1551 0.960 . S
H1536 C1520 0.931 . S
H1537 C1525 0.929 . S
H1538 C1526 0.960 . S
H1539 C1526 0.962 . S
H1540 C1526 0.960 . S
H1541 C1527 0.961 . S
H1542 C1527 0.961 . S
H1543 C1527 0.961 . S
H1544 C1528 0.931 . S
H1545 C1533 0.930 . S
H1546 C1534 0.956 . S
H1547 C1534 0.961 . S
H1548 C1534 0.961 . S
H1549 C1535 0.958 . S
H1550 C1535 0.961 . S
H1551 C1535 0.960 . S
C1552 C1553 1.391 . S
C1552 C1554 1.394 . S
C1552 H1568 0.931 . S
C1553 C1552 1.391 . S
C1553 C1557 1.376 . S
C1554 C1552 1.394 . S
C1554 C1555 1.369 . S
C1554 C1558 1.531 . S
C1555 C1554 1.369 . S
C1555 C1556 1.410 . S
C1555 C1563 1.503 . S
C1556 C1555 1.410 . S
C1556 C1557 1.392 . S
C1556 C1559 1.511 . S
C1557 C1553 1.376 . S
C1557 C1556 1.392 . S
C1557 H1569 0.929 . S
C1558 C1554 1.531 . S
C1558 H1570 0.960 . S
C1558 H1571 0.962 . S
C1558 H1572 0.960 . S
C1559 C1556 1.511 . S
C1559 H1573 0.961 . S
C1559 H1574 0.961 . S
C1559 H1575 0.961 . S
C1560 C1561 1.370 . S
C1560 C1562 1.363 . S
C1560 H1576 0.931 . S
C1561 C1560 1.370 . S
C1561 C1565 1.408 . S
C1562 C1560 1.363 . S
C1562 C1563 1.370 . S
C1562 C1566 1.524 . S
C1563 C1555 1.503 . S
C1563 C1562 1.370 . S
C1563 C1564 1.403 . S
C1564 C1563 1.403 . S
C1564 C1565 1.404 . S
C1564 C1567 1.539 . S
C1565 C1561 1.408 . S
C1565 C1564 1.404 . S
C1565 H1577 0.930 . S
C1566 C1562 1.524 . S
C1566 H1578 0.956 . S
C1566 H1579 0.961 . S
C1566 H1580 0.961 . S
C1567 C1564 1.539 . S
C1567 H1581 0.958 . S
C1567 H1582 0.961 . S
C1567 H1583 0.960 . S
H1568 C1552 0.931 . S
H1569 C1557 0.929 . S
H1570 C1558 0.960 . S
H1571 C1558 0.962 . S
H1572 C1558 0.960 . S
H1573 C1559 0.961 . S
H1574 C1559 0.961 . S
H1575 C1559 0.961 . S
H1576 C1560 0.931 . S
H1577 C1565 0.930 . S
H1578 C1566 0.956 . S
H1579 C1566 0.961 . S
H1580 C1566 0.961 . S
H1581 C1567 0.958 . S
H1582 C1567 0.961 . S
H1583 C1567 0.960 . S
C1584 C1585 1.391 . S
C1584 C1586 1.394 . S
C1584 H1600 0.931 . S
C1585 C1584 1.391 . S
C1585 C1589 1.376 . S
C1586 C1584 1.394 . S
C1586 C1587 1.369 . S
C1586 C1590 1.531 . S
C1587 C1586 1.369 . S
C1587 C1588 1.410 . S
C1587 C1595 1.503 . S
C1588 C1587 1.410 . S
C1588 C1589 1.392 . S
C1588 C1591 1.511 . S
C1589 C1585 1.376 . S
C1589 C1588 1.392 . S
C1589 H1601 0.929 . S
C1590 C1586 1.531 . S
C1590 H1602 0.960 . S
C1590 H1603 0.962 . S
C1590 H1604 0.960 . S
C1591 C1588 1.511 . S
C1591 H1605 0.961 . S
C1591 H1606 0.961 . S
C1591 H1607 0.961 . S
C1592 C1593 1.370 . S
C1592 C1594 1.363 . S
C1592 H1608 0.931 . S
C1593 C1592 1.370 . S
C1593 C1597 1.408 . S
C1594 C1592 1.363 . S
C1594 C1595 1.370 . S
C1594 C1598 1.524 . S
C1595 C1587 1.503 . S
C1595 C1594 1.370 . S
C1595 C1596 1.403 . S
C1596 C1595 1.403 . S
C1596 C1597 1.404 . S
C1596 C1599 1.539 . S
C1597 C1593 1.408 . S
C1597 C1596 1.404 . S
C1597 H1609 0.930 . S
C1598 C1594 1.524 . S
C1598 H1610 0.956 . S
C1598 H1611 0.961 . S
C1598 H1612 0.961 . S
C1599 C1596 1.539 . S
C1599 H1613 0.958 . S
C1599 H1614 0.961 . S
C1599 H1615 0.960 . S
H1600 C1584 0.931 . S
H1601 C1589 0.929 . S
H1602 C1590 0.960 . S
H1603 C1590 0.962 . S
H1604 C1590 0.960 . S
H1605 C1591 0.961 . S
H1606 C1591 0.961 . S
H1607 C1591 0.961 . S
H1608 C1592 0.931 . S
H1609 C1597 0.930 . S
H1610 C1598 0.956 . S
H1611 C1598 0.961 . S
H1612 C1598 0.961 . S
H1613 C1599 0.958 . S
H1614 C1599 0.961 . S
H1615 C1599 0.960 . S
C1616 C1617 1.391 . S
C1616 C1618 1.394 . S
C1616 H1632 0.931 . S
C1617 C1616 1.391 . S
C1617 C1621 1.376 . S
C1618 C1616 1.394 . S
C1618 C1619 1.369 . S
C1618 C1622 1.531 . S
C1619 C1618 1.369 . S
C1619 C1620 1.410 . S
C1619 C1627 1.503 . S
C1620 C1619 1.410 . S
C1620 C1621 1.392 . S
C1620 C1623 1.511 . S
C1621 C1617 1.376 . S
C1621 C1620 1.392 . S
C1621 H1633 0.929 . S
C1622 C1618 1.531 . S
C1622 H1634 0.960 . S
C1622 H1635 0.962 . S
C1622 H1636 0.960 . S
C1623 C1620 1.511 . S
C1623 H1637 0.961 . S
C1623 H1638 0.961 . S
C1623 H1639 0.961 . S
C1624 C1625 1.370 . S
C1624 C1626 1.363 . S
C1624 H1640 0.931 . S
C1625 C1624 1.370 . S
C1625 C1629 1.408 . S
C1626 C1624 1.363 . S
C1626 C1627 1.370 . S
C1626 C1630 1.524 . S
C1627 C1619 1.503 . S
C1627 C1626 1.370 . S
C1627 C1628 1.403 . S
C1628 C1627 1.403 . S
C1628 C1629 1.404 . S
C1628 C1631 1.539 . S
C1629 C1625 1.408 . S
C1629 C1628 1.404 . S
C1629 H1641 0.930 . S
C1630 C1626 1.524 . S
C1630 H1642 0.956 . S
C1630 H1643 0.961 . S
C1630 H1644 0.961 . S
C1631 C1628 1.539 . S
C1631 H1645 0.958 . S
C1631 H1646 0.961 . S
C1631 H1647 0.960 . S
H1632 C1616 0.931 . S
H1633 C1621 0.929 . S
H1634 C1622 0.960 . S
H1635 C1622 0.962 . S
H1636 C1622 0.960 . S
H1637 C1623 0.961 . S
H1638 C1623 0.961 . S
H1639 C1623 0.961 . S
H1640 C1624 0.931 . S
H1641 C1629 0.930 . S
H1642 C1630 0.956 . S
H1643 C1630 0.961 . S
H1644 C1630 0.961 . S
H1645 C1631 0.958 . S
H1646 C1631 0.961 . S
H1647 C1631 0.960 . S
C1648 C1649 1.391 . S
C1648 C1650 1.394 . S
C1648 H1664 0.931 . S
C1649 C1648 1.391 . S
C1649 C1653 1.376 . S
C1650 C1648 1.394 . S
C1650 C1651 1.369 . S
C1650 C1654 1.531 . S
C1651 C1650 1.369 . S
C1651 C1652 1.410 . S
C1651 C1659 1.503 . S
C1652 C1651 1.410 . S
C1652 C1653 1.392 . S
C1652 C1655 1.511 . S
C1653 C1649 1.376 . S
C1653 C1652 1.392 . S
C1653 H1665 0.929 . S
C1654 C1650 1.531 . S
C1654 H1666 0.960 . S
C1654 H1667 0.962 . S
C1654 H1668 0.960 . S
C1655 C1652 1.511 . S
C1655 H1669 0.961 . S
C1655 H1670 0.961 . S
C1655 H1671 0.961 . S
C1656 C1657 1.370 . S
C1656 C1658 1.363 . S
C1656 H1672 0.931 . S
C1657 C1656 1.370 . S
C1657 C1661 1.408 . S
C1658 C1656 1.363 . S
C1658 C1659 1.370 . S
C1658 C1662 1.524 . S
C1659 C1651 1.503 . S
C1659 C1658 1.370 . S
C1659 C1660 1.403 . S
C1660 C1659 1.403 . S
C1660 C1661 1.404 . S
C1660 C1663 1.539 . S
C1661 C1657 1.408 . S
C1661 C1660 1.404 . S
C1661 H1673 0.930 . S
C1662 C1658 1.524 . S
C1662 H1674 0.956 . S
C1662 H1675 0.961 . S
C1662 H1676 0.961 . S
C1663 C1660 1.539 . S
C1663 H1677 0.958 . S
C1663 H1678 0.961 . S
C1663 H1679 0.960 . S
H1664 C1648 0.931 . S
H1665 C1653 0.929 . S
H1666 C1654 0.960 . S
H1667 C1654 0.962 . S
H1668 C1654 0.960 . S
H1669 C1655 0.961 . S
H1670 C1655 0.961 . S
H1671 C1655 0.961 . S
H1672 C1656 0.931 . S
H1673 C1661 0.930 . S
H1674 C1662 0.956 . S
H1675 C1662 0.961 . S
H1676 C1662 0.961 . S
H1677 C1663 0.958 . S
H1678 C1663 0.961 . S
H1679 C1663 0.960 . S
C1680 C1681 1.391 . S
C1680 C1682 1.394 . S
C1680 H1696 0.931 . S
C1681 C1680 1.391 . S
C1681 C1685 1.376 . S
C1682 C1680 1.394 . S
C1682 C1683 1.369 . S
C1682 C1686 1.531 . S
C1683 C1682 1.369 . S
C1683 C1684 1.410 . S
C1683 C1691 1.503 . S
C1684 C1683 1.410 . S
C1684 C1685 1.392 . S
C1684 C1687 1.511 . S
C1685 C1681 1.376 . S
C1685 C1684 1.392 . S
C1685 H1697 0.929 . S
C1686 C1682 1.531 . S
C1686 H1698 0.960 . S
C1686 H1699 0.962 . S
C1686 H1700 0.960 . S
C1687 C1684 1.511 . S
C1687 H1701 0.961 . S
C1687 H1702 0.961 . S
C1687 H1703 0.961 . S
C1688 C1689 1.370 . S
C1688 C1690 1.363 . S
C1688 H1704 0.931 . S
C1689 C1688 1.370 . S
C1689 C1693 1.408 . S
C1690 C1688 1.363 . S
C1690 C1691 1.370 . S
C1690 C1694 1.524 . S
C1691 C1683 1.503 . S
C1691 C1690 1.370 . S
C1691 C1692 1.403 . S
C1692 C1691 1.403 . S
C1692 C1693 1.404 . S
C1692 C1695 1.539 . S
C1693 C1689 1.408 . S
C1693 C1692 1.404 . S
C1693 H1705 0.930 . S
C1694 C1690 1.524 . S
C1694 H1706 0.956 . S
C1694 H1707 0.961 . S
C1694 H1708 0.961 . S
C1695 C1692 1.539 . S
C1695 H1709 0.958 . S
C1695 H1710 0.961 . S
C1695 H1711 0.960 . S
H1696 C1680 0.931 . S
H1697 C1685 0.929 . S
H1698 C1686 0.960 . S
H1699 C1686 0.962 . S
H1700 C1686 0.960 . S
H1701 C1687 0.961 . S
H1702 C1687 0.961 . S
H1703 C1687 0.961 . S
H1704 C1688 0.931 . S
H1705 C1693 0.930 . S
H1706 C1694 0.956 . S
H1707 C1694 0.961 . S
H1708 C1694 0.961 . S
H1709 C1695 0.958 . S
H1710 C1695 0.961 . S
H1711 C1695 0.960 . S
C1712 C1713 1.391 . S
C1712 C1714 1.394 . S
C1712 H1728 0.931 . S
C1713 C1712 1.391 . S
C1713 C1717 1.376 . S
C1714 C1712 1.394 . S
C1714 C1715 1.369 . S
C1714 C1718 1.531 . S
C1715 C1714 1.369 . S
C1715 C1716 1.410 . S
C1715 C1723 1.503 . S
C1716 C1715 1.410 . S
C1716 C1717 1.392 . S
C1716 C1719 1.511 . S
C1717 C1713 1.376 . S
C1717 C1716 1.392 . S
C1717 H1729 0.929 . S
C1718 C1714 1.531 . S
C1718 H1730 0.960 . S
C1718 H1731 0.962 . S
C1718 H1732 0.960 . S
C1719 C1716 1.511 . S
C1719 H1733 0.961 . S
C1719 H1734 0.961 . S
C1719 H1735 0.961 . S
C1720 C1721 1.370 . S
C1720 C1722 1.363 . S
C1720 H1736 0.931 . S
C1721 C1720 1.370 . S
C1721 C1725 1.408 . S
C1722 C1720 1.363 . S
C1722 C1723 1.370 . S
C1722 C1726 1.524 . S
C1723 C1715 1.503 . S
C1723 C1722 1.370 . S
C1723 C1724 1.403 . S
C1724 C1723 1.403 . S
C1724 C1725 1.404 . S
C1724 C1727 1.539 . S
C1725 C1721 1.408 . S
C1725 C1724 1.404 . S
C1725 H1737 0.930 . S
C1726 C1722 1.524 . S
C1726 H1738 0.956 . S
C1726 H1739 0.961 . S
C1726 H1740 0.961 . S
C1727 C1724 1.539 . S
C1727 H1741 0.958 . S
C1727 H1742 0.961 . S
C1727 H1743 0.960 . S
H1728 C1712 0.931 . S
H1729 C1717 0.929 . S
H1730 C1718 0.960 . S
H1731 C1718 0.962 . S
H1732 C1718 0.960 . S
H1733 C1719 0.961 . S
H1734 C1719 0.961 . S
H1735 C1719 0.961 . S
H1736 C1720 0.931 . S
H1737 C1725 0.930 . S
H1738 C1726 0.956 . S
H1739 C1726 0.961 . S
H1740 C1726 0.961 . S
H1741 C1727 0.958 . S
H1742 C1727 0.961 . S
H1743 C1727 0.960 . S
C1744 C1745 1.391 . S
C1744 C1746 1.394 . S
C1744 H1760 0.931 . S
C1745 C1744 1.391 . S
C1745 C1749 1.376 . S
C1746 C1744 1.394 . S
C1746 C1747 1.369 . S
C1746 C1750 1.531 . S
C1747 C1746 1.369 . S
C1747 C1748 1.410 . S
C1747 C1755 1.503 . S
C1748 C1747 1.410 . S
C1748 C1749 1.392 . S
C1748 C1751 1.511 . S
C1749 C1745 1.376 . S
C1749 C1748 1.392 . S
C1749 H1761 0.929 . S
C1750 C1746 1.531 . S
C1750 H1762 0.960 . S
C1750 H1763 0.962 . S
C1750 H1764 0.960 . S
C1751 C1748 1.511 . S
C1751 H1765 0.961 . S
C1751 H1766 0.961 . S
C1751 H1767 0.961 . S
C1752 C1753 1.370 . S
C1752 C1754 1.363 . S
C1752 H1768 0.931 . S
C1753 C1752 1.370 . S
C1753 C1757 1.408 . S
C1754 C1752 1.363 . S
C1754 C1755 1.370 . S
C1754 C1758 1.524 . S
C1755 C1747 1.503 . S
C1755 C1754 1.370 . S
C1755 C1756 1.403 . S
C1756 C1755 1.403 . S
C1756 C1757 1.404 . S
C1756 C1759 1.539 . S
C1757 C1753 1.408 . S
C1757 C1756 1.404 . S
C1757 H1769 0.930 . S
C1758 C1754 1.524 . S
C1758 H1770 0.956 . S
C1758 H1771 0.961 . S
C1758 H1772 0.961 . S
C1759 C1756 1.539 . S
C1759 H1773 0.958 . S
C1759 H1774 0.961 . S
C1759 H1775 0.960 . S
H1760 C1744 0.931 . S
H1761 C1749 0.929 . S
H1762 C1750 0.960 . S
H1763 C1750 0.962 . S
H1764 C1750 0.960 . S
H1765 C1751 0.961 . S
H1766 C1751 0.961 . S
H1767 C1751 0.961 . S
H1768 C1752 0.931 . S
H1769 C1757 0.930 . S
H1770 C1758 0.956 . S
H1771 C1758 0.961 . S
H1772 C1758 0.961 . S
H1773 C1759 0.958 . S
H1774 C1759 0.961 . S
H1775 C1759 0.960 . S
C1776 C1777 1.391 . S
C1776 C1778 1.394 . S
C1776 H1792 0.931 . S
C1777 C1776 1.391 . S
C1777 C1781 1.376 . S
C1778 C1776 1.394 . S
C1778 C1779 1.369 . S
C1778 C1782 1.531 . S
C1779 C1778 1.369 . S
C1779 C1780 1.410 . S
C1779 C1787 1.503 . S
C1780 C1779 1.410 . S
C1780 C1781 1.392 . S
C1780 C1783 1.511 . S
C1781 C1777 1.376 . S
C1781 C1780 1.392 . S
C1781 H1793 0.929 . S
C1782 C1778 1.531 . S
C1782 H1794 0.960 . S
C1782 H1795 0.962 . S
C1782 H1796 0.960 . S
C1783 C1780 1.511 . S
C1783 H1797 0.961 . S
C1783 H1798 0.961 . S
C1783 H1799 0.961 . S
C1784 C1785 1.370 . S
C1784 C1786 1.363 . S
C1784 H1800 0.931 . S
C1785 C1784 1.370 . S
C1785 C1789 1.408 . S
C1786 C1784 1.363 . S
C1786 C1787 1.370 . S
C1786 C1790 1.524 . S
C1787 C1779 1.503 . S
C1787 C1786 1.370 . S
C1787 C1788 1.403 . S
C1788 C1787 1.403 . S
C1788 C1789 1.404 . S
C1788 C1791 1.539 . S
C1789 C1785 1.408 . S
C1789 C1788 1.404 . S
C1789 H1801 0.930 . S
C1790 C1786 1.524 . S
C1790 H1802 0.956 . S
C1790 H1803 0.961 . S
C1790 H1804 0.961 . S
C1791 C1788 1.539 . S
C1791 H1805 0.958 . S
C1791 H1806 0.961 . S
C1791 H1807 0.960 . S
H1792 C1776 0.931 . S
H1793 C1781 0.929 . S
H1794 C1782 0.960 . S
H1795 C1782 0.962 . S
H1796 C1782 0.960 . S
H1797 C1783 0.961 . S
H1798 C1783 0.961 . S
H1799 C1783 0.961 . S
H1800 C1784 0.931 . S
H1801 C1789 0.930 . S
H1802 C1790 0.956 . S
H1803 C1790 0.961 . S
H1804 C1790 0.961 . S
H1805 C1791 0.958 . S
H1806 C1791 0.961 . S
H1807 C1791 0.960 . S
C529 C8 0.990 . S
C537 N377 0.996 . S
C561 N278 0.989 . S
C569 C41 0.988 . S
C593 N311 0.991 . S
C601 C74 0.987 . S
C625 N344 0.984 . S
C633 C107 0.985 . S
C657 N179 0.996 . S
C665 C140 0.989 . S
C689 N212 0.986 . S
C697 C173 0.986 . S
C721 C206 0.972 . S
C729 N245 0.992 . S
C753 C239 0.979 . S
C761 N146 0.995 . S
C785 C272 1.012 . S
C793 N113 1.006 . S
C817 C305 1.012 . S
C825 N14 1.005 . S
C849 N47 1.005 . S
C857 C338 1.003 . S
C881 C371 0.979 . S
C889 N80 0.995 . S
C913 N443 1.000 . S
C921 C404 1.000 . S
C945 N476 1.012 . S
C953 C437 1.004 . S
C977 N509 0.998 . S
C985 C470 0.999 . S
C1009 C503 1.016 . S
C1017 N410 1.005 . S
C1041 C17 1.481 . S
C1049 C83 1.516 . S
C1073 C50 1.504 . S
C1081 C116 1.514 . S
C1105 C215 1.522 . S
C1113 C149 1.503 . S
C1137 C248 1.485 . S
C1145 C182 1.510 . S
C1169 C347 1.528 . S
C1177 C281 1.498 . S
C1201 C314 1.508 . S
C1209 C380 1.512 . S
C1233 C413 1.480 . S
C1241 C479 1.518 . S
C1265 C512 1.496 . S
C1273 C446 1.516 . S
C1297 C94 0.652 . S
C1305 C28 0.586 . S
C1329 C61 0.510 . S
C1337 C127 0.586 . S
C1361 C160 0.618 . S
C1369 C226 0.653 . S
C1393 C259 0.724 . S
C1401 C193 0.619 . S
C1425 C358 0.518 . S
C1433 C292 0.572 . S
C1457 C325 0.518 . S
C1465 C391 0.581 . S
C1489 C424 0.578 . S
C1497 C490 0.641 . S
C1521 C523 0.519 . S
C1529 C457 0.581 . S
C1553 N467 1.484 . S
C1561 N5 1.516 . S
C1585 N38 1.505 . S
C1593 N500 1.500 . S
C1617 N71 1.485 . S
C1625 N401 1.516 . S
C1649 N104 1.523 . S
C1657 N434 1.494 . S
C1681 N137 1.489 . S
C1689 N335 1.503 . S
C1713 N368 1.514 . S
C1721 N170 1.497 . S
C1745 N203 1.503 . S
C1753 N269 1.511 . S
C1777 N236 1.485 . S
C1785 N302 1.514 . S
