# Generated by pormake.
# Topology zft, (5)-cn, num edge types: 1
# Building blocks:
#     Node 0, Type 0, BuildingBlock: XOMCOT_clean_sbu_0, # of connection points: 5
#     Node 1, Type 0, BuildingBlock: XOMCOT_clean_sbu_0, # of connection points: 5
#     Node 2, Type 0, BuildingBlock: XOMCOT_clean_sbu_0, # of connection points: 5
#     Node 3, Type 0, BuildingBlock: XOMCOT_clean_sbu_0, # of connection points: 5
#     Node 4, Type 0, BuildingBlock: XOMCOT_clean_sbu_0, # of connection points: 5
#     Node 5, Type 0, BuildingBlock: XOMCOT_clean_sbu_0, # of connection points: 5
#     Node 6, Type 0, BuildingBlock: XOMCOT_clean_sbu_0, # of connection points: 5
#     Node 7, Type 0, BuildingBlock: XOMCOT_clean_sbu_0, # of connection points: 5
#     Edge 8, Type (0, 0), BuildingBlock: UVAHIK_clean_linker_0, # of connection points: 2
#     Edge 9, Type (0, 0), BuildingBlock: UVAHIK_clean_linker_0, # of connection points: 2
#     Edge 10, Type (0, 0), BuildingBlock: UVAHIK_clean_linker_0, # of connection points: 2
#     Edge 11, Type (0, 0), BuildingBlock: UVAHIK_clean_linker_0, # of connection points: 2
#     Edge 12, Type (0, 0), BuildingBlock: UVAHIK_clean_linker_0, # of connection points: 2
#     Edge 13, Type (0, 0), BuildingBlock: UVAHIK_clean_linker_0, # of connection points: 2
#     Edge 14, Type (0, 0), BuildingBlock: UVAHIK_clean_linker_0, # of connection points: 2
#     Edge 15, Type (0, 0), BuildingBlock: UVAHIK_clean_linker_0, # of connection points: 2
#     Edge 16, Type (0, 0), BuildingBlock: UVAHIK_clean_linker_0, # of connection points: 2
#     Edge 17, Type (0, 0), BuildingBlock: UVAHIK_clean_linker_0, # of connection points: 2
#     Edge 18, Type (0, 0), BuildingBlock: UVAHIK_clean_linker_0, # of connection points: 2
#     Edge 19, Type (0, 0), BuildingBlock: UVAHIK_clean_linker_0, # of connection points: 2
#     Edge 20, Type (0, 0), BuildingBlock: UVAHIK_clean_linker_0, # of connection points: 2
#     Edge 21, Type (0, 0), BuildingBlock: UVAHIK_clean_linker_0, # of connection points: 2
#     Edge 22, Type (0, 0), BuildingBlock: UVAHIK_clean_linker_0, # of connection points: 2
#     Edge 23, Type (0, 0), BuildingBlock: UVAHIK_clean_linker_0, # of connection points: 2
#     Edge 24, Type (0, 0), BuildingBlock: UVAHIK_clean_linker_0, # of connection points: 2
#     Edge 25, Type (0, 0), BuildingBlock: UVAHIK_clean_linker_0, # of connection points: 2
#     Edge 26, Type (0, 0), BuildingBlock: UVAHIK_clean_linker_0, # of connection points: 2
#     Edge 27, Type (0, 0), BuildingBlock: UVAHIK_clean_linker_0, # of connection points: 2
# Relax obj value: 0.077
# Max RMSD: 0.162
# Mean RMSD: 0.162
data_MOF--net-zft--node1-XOMCOT_clean_sbu_0--edge1-UVAHIK_clean_linker_0
_symmetry_space_group_name_H-M    P1
_symmetry_Int_Tables_number       1
_symmetry_cell_setting            triclinic
loop_
_symmetry_equiv_pos_as_xyz
'x, y, z'
_cell_length_a     35.653493
_cell_length_b     35.624706
_cell_length_c     65.348152
_cell_angle_alpha  89.960381
_cell_angle_beta   89.95401
_cell_angle_gamma 89.920091
loop_
_atom_site_label
_atom_site_type_symbol
_atom_site_fract_x
_atom_site_fract_y
_atom_site_fract_z
_atom_type_partial_charge
Co0 Co 0.13383 0.26637 0.16374 0.0
C1 C 0.18045 0.32156 0.14183 0.0
C2 C 0.21111 0.27111 0.14839 0.0
C3 C 0.23541 0.2971 0.14019 0.0
N4 N 0.17672 0.28652 0.1494 0.0
N5 N 0.21622 0.32904 0.13618 0.0
H6 H 0.15758 0.3415 0.14134 0.0
H7 H 0.21851 0.24374 0.15432 0.0
C8 C 0.13209 0.18777 0.14678 0.0
O9 O 0.09661 0.19263 0.142 0.0
N10 N 0.09091 0.24643 0.17908 0.0
C11 C 0.06268 0.26692 0.18728 0.0
C12 C 0.03805 0.24358 0.19714 0.0
C13 C 0.08401 0.21087 0.18552 0.0
N14 N 0.05132 0.20833 0.19591 0.0
C15 C 0.07164 0.29309 0.13993 0.0
C16 C 0.09457 0.26429 0.10272 0.0
C17 C 0.05981 0.28261 0.10401 0.0
C18 C 0.04884 0.29772 0.12283 0.0
C19 C 0.11641 0.25986 0.12039 0.0
N20 N 0.10387 0.27251 0.13896 0.0
H21 H 0.06357 0.30699 0.1538 0.0
H22 H 0.14325 0.24589 0.11919 0.0
H23 H 0.06018 0.29711 0.18673 0.0
H24 H 0.1023 0.1872 0.1829 0.0
O25 O 0.12519 0.31507 0.17562 0.0
O26 O 0.1613 0.27077 0.18918 0.0
O27 O 0.15031 0.21401 0.15568 0.0
C28 C 0.14741 0.30458 0.19032 0.0
H29 H 0.26536 0.29328 0.13855 0.0
H30 H 0.01257 0.25197 0.20492 0.0
H31 H 0.10449 0.25303 0.08831 0.0
H32 H 0.0231 0.31371 0.12426 0.0
Co33 Co 0.25225 0.63471 0.41149 0.0
C34 C 0.19915 0.68658 0.39228 0.0
C35 C 0.24934 0.71524 0.40132 0.0
C36 C 0.22364 0.74139 0.39448 0.0
N37 N 0.23381 0.68098 0.39991 0.0
N38 N 0.19187 0.72335 0.38893 0.0
H39 H 0.17924 0.66409 0.39013 0.0
H40 H 0.2765 0.72104 0.40796 0.0
C41 C 0.33323 0.62991 0.39848 0.0
O42 O 0.32887 0.59383 0.39504 0.0
N43 N 0.27003 0.58809 0.42364 0.0
C44 C 0.25251 0.55455 0.42344 0.0
C45 C 0.27275 0.52944 0.43488 0.0
C46 C 0.30026 0.58301 0.43588 0.0
N47 N 0.30283 0.54722 0.44268 0.0
C48 C 0.21241 0.58824 0.38315 0.0
C49 C 0.25971 0.59708 0.35004 0.0
C50 C 0.22981 0.57179 0.34863 0.0
C51 C 0.2053 0.56844 0.36521 0.0
C52 C 0.26527 0.61711 0.36823 0.0
N53 N 0.24353 0.61029 0.38509 0.0
H54 H 0.19272 0.5854 0.39557 0.0
H55 H 0.28688 0.63819 0.36847 0.0
H56 H 0.22621 0.54843 0.41612 0.0
H57 H 0.31967 0.60513 0.43992 0.0
O58 O 0.20369 0.62659 0.42385 0.0
O59 O 0.25052 0.6571 0.43852 0.0
O60 O 0.30532 0.64991 0.40424 0.0
C61 C 0.216 0.64537 0.43948 0.0
H62 H 0.22748 0.77149 0.39479 0.0
H63 H 0.26581 0.50017 0.43722 0.0
H64 H 0.27827 0.60165 0.33715 0.0
H65 H 0.18125 0.54991 0.36453 0.0
Co66 Co 0.8868 0.75762 0.66258 0.0
C67 C 0.84187 0.70271 0.64001 0.0
C68 C 0.8105 0.75317 0.64548 0.0
C69 C 0.78691 0.72671 0.63704 0.0
N70 N 0.84487 0.73796 0.64732 0.0
N71 N 0.80662 0.6948 0.63379 0.0
H72 H 0.86481 0.68281 0.64018 0.0
H73 H 0.80256 0.78065 0.65104 0.0
C74 C 0.89154 0.83613 0.64563 0.0
O75 O 0.92708 0.83042 0.64127 0.0
N76 N 0.92881 0.77665 0.67881 0.0
C77 C 0.95477 0.75506 0.68828 0.0
C78 C 0.97634 0.77688 0.7008 0.0
C79 C 0.93443 0.81155 0.68655 0.0
N80 N 0.9636 0.81234 0.69976 0.0
C81 C 0.9504 0.72984 0.64015 0.0
C82 C 0.92999 0.75812 0.60238 0.0
C83 C 0.96426 0.73908 0.6043 0.0
C84 C 0.974 0.72435 0.62342 0.0
C85 C 0.9073 0.76335 0.61966 0.0
N86 N 0.91849 0.75076 0.63849 0.0
H87 H 0.95754 0.71627 0.65427 0.0
H88 H 0.88082 0.77781 0.61794 0.0
H89 H 0.95694 0.72489 0.6873 0.0
H90 H 0.91645 0.83541 0.68372 0.0
O91 O 0.89316 0.70876 0.67486 0.0
O92 O 0.85743 0.75425 0.68742 0.0
O93 O 0.87212 0.81036 0.6542 0.0
C94 C 0.87025 0.72011 0.68907 0.0
H95 H 0.75703 0.73004 0.63479 0.0
H96 H 0.99922 0.76721 0.71034 0.0
H97 H 0.92103 0.76926 0.58776 0.0
H98 H 0.99935 0.70792 0.62537 0.0
Co99 Co 0.76914 0.3882 0.91294 0.0
C100 C 0.82511 0.33618 0.89452 0.0
C101 C 0.77146 0.31007 0.89755 0.0
C102 C 0.79677 0.28359 0.89079 0.0
N103 N 0.78891 0.34353 0.89936 0.0
N104 N 0.83056 0.30012 0.8889 0.0
H105 H 0.84788 0.35554 0.89695 0.0
H106 H 0.74284 0.30443 0.90205 0.0
C107 C 0.70376 0.36396 0.88761 0.0
O108 O 0.72627 0.3635 0.87168 0.0
N109 N 0.75012 0.43202 0.92696 0.0
C110 C 0.76908 0.46437 0.9294 0.0
C111 C 0.74567 0.49033 0.93827 0.0
C112 C 0.71543 0.43856 0.93451 0.0
N113 N 0.71191 0.47421 0.94138 0.0
C114 C 0.81003 0.4245 0.88053 0.0
C115 C 0.75048 0.4652 0.86498 0.0
C116 C 0.78611 0.47001 0.85629 0.0
C117 C 0.81607 0.44919 0.86429 0.0
C118 C 0.7457 0.44017 0.88127 0.0
N119 N 0.77504 0.41913 0.88845 0.0
H120 H 0.83403 0.41123 0.88728 0.0
H121 H 0.71848 0.43854 0.88848 0.0
H122 H 0.79766 0.46908 0.92448 0.0
H123 H 0.69287 0.41828 0.93424 0.0
O124 O 0.81766 0.3966 0.92515 0.0
O125 O 0.77257 0.36171 0.93873 0.0
O126 O 0.71623 0.37334 0.90523 0.0
C127 C 0.80655 0.37493 0.93998 0.0
H128 H 0.79095 0.25417 0.88822 0.0
H129 H 0.75286 0.51906 0.94193 0.0
H130 H 0.72675 0.48161 0.85975 0.0
H131 H 0.84421 0.45233 0.85828 0.0
Co132 Co 0.63274 0.2551 0.5819 0.0
C133 C 0.69476 0.20266 0.59279 0.0
C134 C 0.693 0.25075 0.61248 0.0
C135 C 0.71892 0.22566 0.62014 0.0
N136 N 0.67768 0.23632 0.59534 0.0
N137 N 0.71994 0.19555 0.6077 0.0
H138 H 0.68712 0.1823 0.58128 0.0
H139 H 0.68412 0.27652 0.61977 0.0
C140 C 0.63221 0.34015 0.58847 0.0
O141 O 0.59644 0.34213 0.58392 0.0
N142 N 0.58716 0.27221 0.56857 0.0
C143 C 0.55232 0.26019 0.57309 0.0
C144 C 0.52723 0.27761 0.56034 0.0
C145 C 0.5829 0.29546 0.55233 0.0
N146 N 0.54629 0.30015 0.54741 0.0
C147 C 0.60103 0.2107 0.61364 0.0
C148 C 0.56704 0.2676 0.63557 0.0
C149 C 0.5606 0.23031 0.64142 0.0
C150 C 0.5786 0.2017 0.63045 0.0
C151 C 0.58966 0.27538 0.61864 0.0
N152 N 0.60553 0.24707 0.60749 0.0
H153 H 0.6143 0.18819 0.60527 0.0
H154 H 0.59314 0.30414 0.61447 0.0
H155 H 0.54535 0.2403 0.58499 0.0
H156 H 0.60594 0.30983 0.54492 0.0
O157 O 0.62384 0.20684 0.56939 0.0
O158 O 0.65768 0.25249 0.55558 0.0
O159 O 0.64891 0.30829 0.58955 0.0
C160 C 0.644 0.21872 0.55411 0.0
H161 H 0.73461 0.22859 0.63423 0.0
H162 H 0.49702 0.27503 0.56118 0.0
H163 H 0.55368 0.29064 0.64357 0.0
H164 H 0.57518 0.17252 0.63471 0.0
Co165 Co 0.2702 0.1352 0.83444 0.0
C166 C 0.32318 0.18818 0.85293 0.0
C167 C 0.27377 0.21631 0.842 0.0
C168 C 0.29952 0.24298 0.848 0.0
N169 N 0.28879 0.18206 0.84504 0.0
N170 N 0.33049 0.22516 0.85484 0.0
H171 H 0.34354 0.16618 0.85565 0.0
H172 H 0.24704 0.22154 0.83471 0.0
C173 C 0.1902 0.13057 0.84879 0.0
O174 O 0.19546 0.09482 0.85286 0.0
N175 N 0.25187 0.08816 0.82318 0.0
C176 C 0.26798 0.05395 0.82446 0.0
C177 C 0.24592 0.02841 0.81442 0.0
C178 C 0.22099 0.08307 0.81147 0.0
N179 N 0.21624 0.04662 0.80641 0.0
C180 C 0.31102 0.08973 0.86295 0.0
C181 C 0.26519 0.10057 0.8965 0.0
C182 C 0.29468 0.07469 0.89782 0.0
C183 C 0.31856 0.07043 0.88102 0.0
C184 C 0.25924 0.12009 0.87817 0.0
N185 N 0.28005 0.11211 0.86111 0.0
H186 H 0.33007 0.08599 0.85031 0.0
H187 H 0.23794 0.14155 0.87791 0.0
H188 H 0.29423 0.04746 0.83174 0.0
H189 H 0.20177 0.10536 0.80732 0.0
O190 O 0.31821 0.12624 0.82175 0.0
O191 O 0.27095 0.15618 0.80703 0.0
O192 O 0.21736 0.15063 0.84214 0.0
C193 C 0.30536 0.14405 0.8059 0.0
H194 H 0.29642 0.27311 0.84659 0.0
H195 H 0.25148 0.99864 0.81295 0.0
H196 H 0.24718 0.10586 0.90955 0.0
H197 H 0.3423 0.05144 0.88162 0.0
Co198 Co 0.38768 0.76671 0.08223 0.0
C199 C 0.33849 0.82172 0.10252 0.0
C200 C 0.31042 0.76909 0.0981 0.0
C201 C 0.28507 0.79462 0.10586 0.0
N202 N 0.34385 0.78616 0.09602 0.0
N203 N 0.30268 0.82781 0.10848 0.0
H204 H 0.35981 0.84325 0.10167 0.0
H205 H 0.3043 0.74069 0.09338 0.0
C206 C 0.39126 0.68487 0.0938 0.0
O207 O 0.42787 0.68758 0.09557 0.0
N208 N 0.43154 0.74774 0.0678 0.0
C209 C 0.46538 0.76441 0.06613 0.0
C210 C 0.48737 0.74405 0.05292 0.0
C211 C 0.43322 0.71793 0.05499 0.0
N212 N 0.46722 0.71477 0.04601 0.0
C213 C 0.4398 0.80286 0.10909 0.0
C214 C 0.43119 0.75568 0.1423 0.0
C215 C 0.45762 0.78463 0.14331 0.0
C216 C 0.46112 0.80894 0.12663 0.0
C217 C 0.40974 0.7511 0.12453 0.0
N218 N 0.416 0.77295 0.10763 0.0
H219 H 0.44247 0.82267 0.09673 0.0
H220 H 0.38774 0.73043 0.12471 0.0
H221 H 0.47361 0.79032 0.07328 0.0
H222 H 0.40987 0.69932 0.05201 0.0
O223 O 0.3965 0.81544 0.07029 0.0
O224 O 0.36153 0.77101 0.0563 0.0
O225 O 0.37157 0.7138 0.08937 0.0
C226 C 0.37523 0.80482 0.05526 0.0
H227 H 0.25565 0.78933 0.10873 0.0
H228 H 0.51606 0.75033 0.04871 0.0
H229 H 0.42656 0.73734 0.15528 0.0
H230 H 0.48054 0.8323 0.12704 0.0
Co231 Co 0.75248 0.8865 0.33229 0.0
C232 C 0.69747 0.83728 0.35247 0.0
C233 C 0.751 0.81015 0.34964 0.0
C234 C 0.72567 0.7848 0.35755 0.0
N235 N 0.73323 0.84299 0.34647 0.0
N236 N 0.6919 0.8018 0.35918 0.0
H237 H 0.67552 0.85806 0.35081 0.0
H238 H 0.77986 0.8044 0.34565 0.0
C239 C 0.83334 0.89273 0.34503 0.0
O240 O 0.82915 0.92931 0.3464 0.0
N241 N 0.77132 0.92998 0.31749 0.0
C242 C 0.75468 0.96381 0.31542 0.0
C243 C 0.77552 0.98549 0.30229 0.0
C244 C 0.8016 0.93132 0.30499 0.0
N245 N 0.80508 0.96513 0.29581 0.0
C246 C 0.71384 0.93922 0.35787 0.0
C247 C 0.759 0.93257 0.39199 0.0
C248 C 0.72948 0.95852 0.39221 0.0
C249 C 0.70621 0.96104 0.37507 0.0
C250 C 0.76513 0.9106 0.37454 0.0
N251 N 0.74428 0.9159 0.35719 0.0
H252 H 0.69478 0.9411 0.34513 0.0
H253 H 0.7862 0.88895 0.37531 0.0
H254 H 0.7286 0.97231 0.3223 0.0
H255 H 0.82039 0.90788 0.30246 0.0
O256 O 0.70427 0.89382 0.31952 0.0
O257 O 0.75007 0.85898 0.30669 0.0
O258 O 0.80538 0.87191 0.34041 0.0
C259 C 0.71607 0.872 0.30497 0.0
H260 H 0.73156 0.75579 0.36126 0.0
H261 H 0.76941 0.01415 0.29789 0.0
H262 H 0.77659 0.9287 0.40534 0.0
H263 H 0.68248 0.98007 0.37486 0.0
C264 C 0.13353 0.36164 0.21099 0.0
C265 C 0.15668 0.33049 0.20716 0.0
C266 C 0.1426 0.38721 0.22636 0.0
C267 C 0.22071 0.427 0.25444 0.0
H268 H 0.14512 0.45603 0.29408 0.0
C269 C 0.25302 0.52482 0.32315 0.0
C270 C 0.22415 0.54824 0.33026 0.0
C271 C 0.24611 0.49872 0.30761 0.0
C272 C 0.16643 0.44885 0.28293 0.0
H273 H 0.20755 0.30167 0.2163 0.0
H274 H 0.2239 0.34713 0.24307 0.0
H275 H 0.13046 0.40877 0.26845 0.0
H276 H 0.16618 0.56453 0.32603 0.0
H277 H 0.15442 0.5204 0.2983 0.0
H278 H 0.25638 0.46786 0.26842 0.0
C279 C 0.19859 0.35141 0.2342 0.0
C280 C 0.15805 0.42149 0.26836 0.0
C281 C 0.18913 0.32535 0.21903 0.0
C282 C 0.18879 0.54646 0.32092 0.0
C283 C 0.18203 0.52088 0.30518 0.0
C284 C 0.22897 0.45484 0.26884 0.0
C285 C 0.17534 0.38253 0.238 0.0
C286 C 0.18503 0.41039 0.25395 0.0
C287 C 0.21028 0.49592 0.29867 0.0
C288 C 0.20185 0.46628 0.28324 0.0
H289 H 0.10832 0.36627 0.20209 0.0
H290 H 0.12434 0.4111 0.22889 0.0
H291 H 0.24188 0.41914 0.24333 0.0
H292 H 0.28044 0.52545 0.33029 0.0
H293 H 0.26849 0.47981 0.3032 0.0
C294 C 0.97585 0.72077 0.56771 0.0
C295 C 0.98967 0.73356 0.58657 0.0
C296 C 1.00049 0.71278 0.55159 0.0
C297 C 0.10069 0.69054 0.54176 0.0
H298 H 0.07365 0.70958 0.48525 0.0
C299 C 0.20495 0.67291 0.47429 0.0
C300 C 0.19104 0.6547 0.45682 0.0
C301 C 0.18072 0.68307 0.49022 0.0
C302 C 0.08147 0.70386 0.50096 0.0
H303 H 0.0398 0.74976 0.60306 0.0
H304 H 0.08264 0.73674 0.57489 0.0
H305 H 0.03057 0.72766 0.51255 0.0
H306 H 0.14092 0.63269 0.44236 0.0
H307 H 0.09877 0.65043 0.47011 0.0
H308 H 0.15177 0.66708 0.5301 0.0
C309 C 0.05298 0.73172 0.57265 0.0
C310 C 0.05674 0.71413 0.51661 0.0
C311 C 0.02842 0.73937 0.58878 0.0
C312 C 0.15253 0.64664 0.45565 0.0
C313 C 0.12831 0.65706 0.47146 0.0
C314 C 0.12551 0.68054 0.52611 0.0
C315 C 0.03944 0.71773 0.55395 0.0
C316 C 0.06597 0.70749 0.53722 0.0
C317 C 0.14208 0.67552 0.48889 0.0
C318 C 0.11609 0.68691 0.50554 0.0
H319 H 0.94614 0.71571 0.56564 0.0
H320 H 0.98906 0.70165 0.5375 0.0
H321 H 0.10849 0.68431 0.55741 0.0
H322 H 0.23448 0.67957 0.4756 0.0
H323 H 0.19209 0.69749 0.50341 0.0
C324 C 0.76698 0.50122 0.82334 0.0
C325 C 0.79252 0.49767 0.83961 0.0
C326 C 0.7739 0.52643 0.80734 0.0
C327 C 0.85166 0.57674 0.78217 0.0
H328 H 0.77245 0.63646 0.75774 0.0
C329 C 0.8351 0.70764 0.72166 0.0
C330 C 0.85964 0.69524 0.70623 0.0
C331 C 0.82565 0.68396 0.73796 0.0
C332 C 0.79491 0.62015 0.7645 0.0
H333 H 0.84445 0.51913 0.85229 0.0
H334 H 0.85649 0.56291 0.82447 0.0
H335 H 0.75812 0.59511 0.78657 0.0
H336 H 0.89305 0.64817 0.69562 0.0
H337 H 0.87641 0.60693 0.7239 0.0
H338 H 0.88857 0.60203 0.76038 0.0
C339 C 0.83154 0.54565 0.82381 0.0
C340 C 0.78662 0.59617 0.78087 0.0
C341 C 0.82464 0.5205 0.83976 0.0
C342 C 0.87424 0.65866 0.70733 0.0
C343 C 0.86485 0.63506 0.7236 0.0
C344 C 0.8599 0.60057 0.76582 0.0
C345 C 0.80648 0.54865 0.80729 0.0
C346 C 0.81494 0.57422 0.7899 0.0
C347 C 0.84063 0.64747 0.73918 0.0
C348 C 0.83164 0.62251 0.75675 0.0
H349 H 0.7421 0.48384 0.82271 0.0
H350 H 0.75421 0.52781 0.79474 0.0
H351 H 0.87406 0.55991 0.78861 0.0
H352 H 0.8234 0.7357 0.72121 0.0
H353 H 0.80718 0.69447 0.74982 0.0
C354 C 0.87039 0.37391 0.9557 0.0
C355 C 0.83218 0.36449 0.95682 0.0
C356 C 0.89512 0.36312 0.97121 0.0
C357 C 0.89857 0.33683 0.02542 0.0
H358 H 0.99544 0.29412 0.01153 0.0
C359 C 0.99645 0.27938 0.08782 0.0
C360 C 0.03495 0.28692 0.08598 0.0
C361 C 0.97208 0.28639 0.07155 0.0
C362 C 0.9687 0.3064 0.01569 0.0
H363 H 0.78983 0.33655 0.97511 0.0
H364 H 0.83304 0.31801 0.00238 0.0
H365 H 0.95198 0.31188 0.98433 0.0
H366 H 0.07837 0.30689 0.06553 0.0
H367 H 0.0357 0.31996 0.03711 0.0
H368 H 0.91534 0.33228 0.05669 0.0
C369 C 0.84381 0.33379 0.98948 0.0
C370 C 0.94377 0.31649 9e-05 0.0
C371 C 0.81911 0.34429 0.97385 0.0
C372 C 0.04883 0.30057 0.06729 0.0
C373 C 0.02434 0.30799 0.05103 0.0
C374 C 0.92356 0.32706 0.04099 0.0
C375 C 0.88212 0.34295 0.98827 0.0
C376 C 0.90844 0.33179 0.0048 0.0
C377 C 0.98554 0.30153 0.05308 0.0
C378 C 0.95895 0.31163 0.03636 0.0
H379 H 0.88136 0.38937 0.94274 0.0
H380 H 0.92438 0.37094 0.96996 0.0
H381 H 0.87177 0.34908 0.02951 0.0
H382 H 0.98509 0.26829 0.10197 0.0
H383 H 0.94259 0.28013 0.07354 0.0
C384 C 0.68444 0.20011 0.52444 0.0
C385 C 0.65258 0.19394 0.53664 0.0
C386 C 0.6937 0.17499 0.50875 0.0
C387 C 0.6538 0.10654 0.47371 0.0
H388 H 0.75242 0.06055 0.47298 0.0
C389 C 0.68654 0.98484 0.41885 0.0
C390 C 0.72248 0.98286 0.41016 0.0
C391 C 0.67898 1.01003 0.4347 0.0
C392 C 0.72495 0.07351 0.4727 0.0
H393 H 0.60497 0.15733 0.54178 0.0
H394 H 0.62054 0.11415 0.51397 0.0
H395 H 0.73738 0.10752 0.49893 0.0
H396 H 0.77884 1.00518 0.41125 0.0
H397 H 0.76552 0.05028 0.43843 0.0
H398 H 0.6414 0.07383 0.44724 0.0
C399 C 0.63852 0.13812 0.51669 0.0
C400 C 0.71636 0.10033 0.48763 0.0
C401 C 0.6297 0.16275 0.5326 0.0
C402 C 0.75097 1.006 0.41786 0.0
C403 C 0.74327 0.03174 0.43349 0.0
C404 C 0.66255 0.08028 0.45857 0.0
C405 C 0.6708 0.14378 0.50476 0.0
C406 C 0.68059 0.11679 0.48838 0.0
C407 C 0.70702 0.03443 0.44198 0.0
C408 C 0.69812 0.06303 0.45797 0.0
H409 H 0.70268 0.22382 0.52732 0.0
H410 H 0.71865 0.18001 0.49969 0.0
H411 H 0.62613 0.11916 0.47385 0.0
H412 H 0.6642 0.96697 0.41329 0.0
H413 H 0.65103 1.01039 0.44117 0.0
C414 C 0.36664 0.1379 0.78778 0.0
C415 C 0.32965 0.15154 0.78803 0.0
C416 C 0.39067 0.1465 0.7716 0.0
C417 C 0.44192 0.18902 0.74296 0.0
H418 H 0.40832 0.18663 0.68657 0.0
C419 C 0.53372 0.24304 0.67632 0.0
C420 C 0.53429 0.22132 0.65837 0.0
C421 C 0.5082 0.2351 0.69199 0.0
C422 C 0.41818 0.18722 0.70224 0.0
H423 H 0.2886 0.18437 0.77133 0.0
H424 H 0.3308 0.19961 0.74296 0.0
H425 H 0.36451 0.17085 0.71401 0.0
H426 H 0.50816 0.17446 0.64274 0.0
H427 H 0.46417 0.16018 0.67022 0.0
H428 H 0.49571 0.20466 0.73124 0.0
C429 C 0.34106 0.18201 0.75527 0.0
C430 C 0.39297 0.17858 0.71796 0.0
C431 C 0.31694 0.17339 0.77153 0.0
C432 C 0.50879 0.19144 0.65647 0.0
C433 C 0.48323 0.18357 0.67211 0.0
C434 C 0.46706 0.19774 0.72727 0.0
C435 C 0.37834 0.16899 0.75526 0.0
C436 C 0.40464 0.17913 0.73849 0.0
C437 C 0.48259 0.20533 0.69004 0.0
C438 C 0.45555 0.19677 0.70672 0.0
H439 H 0.37726 0.12082 0.80022 0.0
H440 H 0.41899 0.13545 0.77188 0.0
H441 H 0.45168 0.1902 0.75864 0.0
H442 H 0.55316 0.26608 0.67833 0.0
H443 H 0.50824 0.2526 0.70553 0.0
C444 C 0.33423 0.82585 0.02628 0.0
C445 C 0.36649 0.83071 0.03831 0.0
C446 C 0.32504 0.85213 0.01113 0.0
C447 C 0.36583 0.9225 0.97732 0.0
H448 H 0.26801 0.9702 0.97786 0.0
C449 C 0.3358 0.04873 0.92536 0.0
C450 C 0.3003 0.05116 0.91622 0.0
C451 C 0.3425 0.02286 0.941 0.0
C452 C 0.29527 0.95682 0.97726 0.0
H453 H 0.41489 0.86615 0.04367 0.0
H454 H 0.39939 0.91134 0.01688 0.0
H455 H 0.28223 0.92072 0.00259 0.0
H456 H 0.24374 0.02925 0.91641 0.0
H457 H 0.25555 0.98312 0.9433 0.0
H458 H 0.37886 0.95741 0.95176 0.0
C459 C 0.38105 0.88751 0.01928 0.0
C460 C 0.30337 0.92854 0.99146 0.0
C461 C 0.38982 0.86173 0.03464 0.0
C462 C 0.27125 0.02813 0.92342 0.0
C463 C 0.27809 1.00174 0.93884 0.0
C464 C 0.35759 0.95028 0.96293 0.0
C465 C 0.34841 0.88318 0.00753 0.0
C466 C 0.33886 0.91144 0.99174 0.0
C467 C 0.31404 0.99825 0.94758 0.0
C468 C 0.32236 0.96821 0.96284 0.0
H469 H 0.31567 0.80227 0.02889 0.0
H470 H 0.2998 0.84814 0.00218 0.0
H471 H 0.39328 0.90942 0.97709 0.0
H472 H 0.35856 0.06644 0.92014 0.0
H473 H 0.37022 0.02185 0.94772 0.0
C474 C 0.69738 0.82912 0.27633 0.0
C475 C 0.69115 0.86178 0.28785 0.0
C476 C 0.6718 0.81833 0.26117 0.0
C477 C 0.57335 0.83631 0.24417 0.0
H478 H 0.60638 0.78778 0.19421 0.0
C479 C 0.48333 0.82541 0.17104 0.0
C480 C 0.48135 0.79006 0.16162 0.0
C481 C 0.50781 0.83146 0.18738 0.0
C482 C 0.59679 0.80097 0.2082 0.0
H483 H 0.65433 0.90959 0.29206 0.0
H484 H 0.61087 0.89194 0.26516 0.0
H485 H 0.65241 0.80457 0.22029 0.0
H486 H 0.50303 0.73326 0.16185 0.0
H487 H 0.54669 0.7441 0.1903 0.0
H488 H 0.51793 0.83405 0.23156 0.0
C489 C 0.63448 0.87365 0.26823 0.0
C490 C 0.62311 0.81052 0.22319 0.0
C491 C 0.65963 0.88403 0.28355 0.0
C492 C 0.50392 0.76068 0.16899 0.0
C493 C 0.52899 0.76694 0.18511 0.0
C494 C 0.54722 0.82733 0.22905 0.0
C495 C 0.63979 0.84031 0.25704 0.0
C496 C 0.61179 0.82867 0.24132 0.0
C497 C 0.53126 0.80245 0.19436 0.0
C498 C 0.55871 0.80982 0.21087 0.0
H499 H 0.72136 0.81132 0.27944 0.0
H500 H 0.67671 0.79229 0.25307 0.0
H501 H 0.5633 0.84928 0.25811 0.0
H502 H 0.46615 0.84847 0.16562 0.0
H503 H 0.50919 0.85915 0.19418 0.0
C504 C 0.24747 0.86999 0.1104 0.0
C505 C 0.28584 0.86338 0.11391 0.0
C506 C 0.23146 0.90492 0.11476 0.0
C507 C 0.25581 1.00489 0.12217 0.0
H508 H 0.15556 0.01089 0.14499 0.0
C509 C 0.18848 0.14543 0.14779 0.0
C510 C 0.1504 0.15099 0.14303 0.0
C511 C 0.20551 0.1105 0.14461 0.0
C512 C 0.18343 1.00972 0.13842 0.0
H513 H 0.33717 0.88831 0.1253 0.0
H514 H 0.3092 0.94927 0.133 0.0
H515 H 0.18434 0.94968 0.13934 0.0
H516 H 0.1005 0.1241 0.13101 0.0
H517 H 0.13025 0.06336 0.12536 0.0
H518 H 0.25482 0.06499 0.12124 0.0
C519 C 0.29163 0.92753 0.12653 0.0
C520 C 0.19996 0.9746 0.13518 0.0
C521 C 0.30767 0.89255 0.12214 0.0
C522 C 0.12984 0.12083 0.1349 0.0
C523 C 0.14685 0.08589 0.13178 0.0
C524 C 0.23929 0.04004 0.12544 0.0
C525 C 0.25334 0.93422 0.12279 0.0
C526 C 0.23629 0.9717 0.1269 0.0
C527 C 0.18486 0.08024 0.13665 0.0
C528 C 0.2028 0.04289 0.1335 0.0
H529 H 0.22987 0.84854 0.10373 0.0
H530 H 0.20204 0.90922 0.11135 0.0
H531 H 0.2836 1.00373 0.11549 0.0
H532 H 0.20517 0.16802 0.15408 0.0
H533 H 0.23474 0.10704 0.14871 0.0
C534 C 0.62616 0.80654 0.37142 0.0
C535 C 0.65649 0.78461 0.36451 0.0
C536 C 0.59134 0.79008 0.37561 0.0
C537 C 0.53487 0.70573 0.36362 0.0
H538 H 0.47539 0.73698 0.4103 0.0
C539 C 0.40115 0.6263 0.38848 0.0
C540 C 0.37017 0.64785 0.39479 0.0
C541 C 0.43598 0.64319 0.38501 0.0
C542 C 0.49146 0.72821 0.39707 0.0
H543 H 0.67363 0.72789 0.35674 0.0
H544 H 0.61345 0.69924 0.36445 0.0
H545 H 0.5363 0.76603 0.4041 0.0
H546 H 0.35166 0.70419 0.40243 0.0
H547 H 0.4123 0.73363 0.39621 0.0
H548 H 0.49009 0.66795 0.35657 0.0
C549 C 0.61642 0.72928 0.36638 0.0
C550 C 0.5264 0.74488 0.39351 0.0
C551 C 0.65119 0.74571 0.36221 0.0
C552 C 0.37492 0.6867 0.39761 0.0
C553 C 0.40977 0.70358 0.39416 0.0
C554 C 0.49997 0.68908 0.36718 0.0
C555 C 0.58594 0.75127 0.37297 0.0
C556 C 0.54861 0.73377 0.37677 0.0
C557 C 0.44075 0.68206 0.38779 0.0
C558 C 0.47784 0.70003 0.38397 0.0
H559 H 0.62926 0.83648 0.37357 0.0
H560 H 0.56844 0.80792 0.38052 0.0
H561 H 0.55087 0.69697 0.35036 0.0
H562 H 0.39859 0.59629 0.38626 0.0
H563 H 0.45934 0.62567 0.38039 0.0
C564 C 0.74067 0.14504 0.63101 0.0
C565 C 0.73913 0.16054 0.61125 0.0
C566 C 0.75739 0.10999 0.63429 0.0
C567 C 0.82881 0.04656 0.61705 0.0
H568 H 0.7674 0.96584 0.63845 0.0
C569 C 0.888 0.89588 0.62545 0.0
C570 C 0.87419 0.87306 0.64126 0.0
C571 C 0.87141 0.9307 0.62125 0.0
C572 C 0.78533 0.98809 0.63286 0.0
H573 H 0.75442 0.1521 0.57954 0.0
H574 H 0.78515 0.09117 0.58543 0.0
H575 H 0.73977 0.02755 0.63277 0.0
H576 H 0.83275 0.8691 0.6654 0.0
H577 H 0.80519 0.93043 0.65897 0.0
H578 H 0.87487 1.00822 0.61801 0.0
C579 C 0.77287 0.10602 0.59826 0.0
C580 C 0.76926 0.02339 0.62944 0.0
C581 C 0.75529 0.14067 0.59489 0.0
C582 C 0.84375 0.88593 0.65296 0.0
C583 C 0.82774 0.92111 0.64911 0.0
C584 C 0.84518 0.01151 0.62093 0.0
C585 C 0.77367 0.09022 0.61795 0.0
C586 C 0.79082 0.05287 0.62146 0.0
C587 C 0.84113 0.94405 0.6331 0.0
C588 C 0.82369 0.9816 0.62887 0.0
H589 H 0.72802 0.15959 0.64382 0.0
H590 H 0.75772 0.09833 0.64961 0.0
H591 H 0.84603 0.06903 0.61102 0.0
H592 H 0.91124 0.88651 0.61605 0.0
H593 H 0.88218 0.94684 0.60851 0.0
C594 C 0.38007 0.27181 0.84809 0.0
C595 C 0.36619 0.24167 0.85971 0.0
C596 C 0.41593 0.28608 0.8518 0.0
C597 C 0.48767 0.29929 0.88996 0.0
H598 H 0.55888 0.29598 0.84515 0.0
C599 C 0.64424 0.33691 0.90169 0.0
C600 C 0.66422 0.35233 0.88519 0.0
C601 C 0.60747 0.32407 0.89904 0.0
C602 C 0.53932 0.29795 0.85777 0.0
H603 H 0.37829 0.20349 0.88461 0.0
H604 H 0.44083 0.22947 0.89163 0.0
H605 H 0.4951 0.27373 0.83991 0.0
H606 H 0.66098 0.36787 0.85321 0.0
H607 H 0.59642 0.34761 0.84877 0.0
H608 H 0.53099 0.3249 0.90768 0.0
C609 C 0.42402 0.2416 0.8795 0.0
C610 C 0.50281 0.28484 0.85476 0.0
C611 C 0.38846 0.22672 0.87547 0.0
C612 C 0.6464 0.35566 0.86614 0.0
C613 C 0.60938 0.34367 0.86359 0.0
C614 C 0.52397 0.31324 0.89289 0.0
C615 C 0.43823 0.27105 0.8675 0.0
C616 C 0.47674 0.28528 0.87082 0.0
C617 C 0.58946 0.32713 0.8799 0.0
C618 C 0.55045 0.31269 0.87684 0.0
H619 H 0.36363 0.2835 0.8357 0.0
H620 H 0.42633 0.30882 0.84236 0.0
H621 H 0.46788 0.3001 0.90255 0.0
H622 H 0.6574 0.33375 0.91653 0.0
H623 H 0.59358 0.31099 0.91192 0.0
C624 C 0.68877 0.37524 0.60158 0.0
C625 C 0.65241 0.37546 0.59326 0.0
C626 C 0.70708 0.40909 0.60608 0.0
C627 C 0.68731 0.51044 0.61493 0.0
H628 H 0.79349 0.5232 0.60422 0.0
C629 C 0.75756 0.65591 0.61731 0.0
C630 C 0.79184 0.65859 0.62785 0.0
C631 C 0.74194 0.62088 0.61282 0.0
C632 C 0.76387 0.51995 0.60743 0.0
H633 H 0.60726 0.41151 0.58266 0.0
H634 H 0.63917 0.4699 0.59007 0.0
H635 H 0.76379 0.46267 0.59742 0.0
H636 H 0.83666 0.62581 0.64165 0.0
H637 H 0.80967 0.565 0.63352 0.0
H638 H 0.68725 0.56776 0.6247 0.0
C639 C 0.65333 0.44381 0.59368 0.0
C640 C 0.74686 0.48522 0.60361 0.0
C641 C 0.63505 0.41017 0.58931 0.0
C642 C 0.81055 0.62515 0.63327 0.0
C643 C 0.79501 0.59012 0.62865 0.0
C644 C 0.70423 0.54513 0.61861 0.0
C645 C 0.68945 0.44383 0.60227 0.0
C646 C 0.70826 0.48012 0.60715 0.0
C647 C 0.76028 0.58757 0.61863 0.0
C648 C 0.74263 0.55041 0.61479 0.0
H649 H 0.70293 0.34898 0.6048 0.0
H650 H 0.73478 0.40802 0.61284 0.0
H651 H 0.65773 0.50738 0.61831 0.0
H652 H 0.74263 0.6809 0.61256 0.0
H653 H 0.71542 0.61986 0.60476 0.0
C654 C 0.12309 0.12635 0.86014 0.0
C655 C 0.15309 0.14802 0.85272 0.0
C656 C 0.08802 0.14271 0.86376 0.0
C657 C 0.042 0.2344 0.87286 0.0
H658 H 0.95147 0.18055 0.8582 0.0
C659 C 0.89574 0.30401 0.87603 0.0
C660 C 0.86601 0.28257 0.88399 0.0
C661 C 0.9305 0.28747 0.87186 0.0
C662 C 0.97646 0.1958 0.86258 0.0
H663 H 0.16963 0.20398 0.84321 0.0
H664 H 0.10842 0.2324 0.84936 0.0
H665 H 0.01258 0.1521 0.85169 0.0
H666 H 0.84979 0.22671 0.89379 0.0
H667 H 0.91034 0.19787 0.88649 0.0
H668 H 1.00589 0.27808 0.88376 0.0
C669 C 0.11212 0.20282 0.85263 0.0
C670 C 0.01152 0.17948 0.85886 0.0
C671 C 0.14719 0.18646 0.849 0.0
C672 C 0.87181 0.24401 0.88742 0.0
C673 C 0.90659 0.22745 0.88324 0.0
C674 C 1.00695 0.25071 0.87657 0.0
C675 C 0.08208 0.18115 0.86006 0.0
C676 C 0.04474 0.19857 0.86395 0.0
C677 C 0.93644 0.24902 0.87552 0.0
C678 C 0.97373 0.23163 0.87148 0.0
H679 H 0.12663 0.09667 0.86321 0.0
H680 H 0.06568 0.12528 0.86974 0.0
H681 H 0.06696 0.24964 0.87728 0.0
H682 H 0.8921 0.3336 0.87285 0.0
H683 H 0.95264 0.30478 0.86558 0.0
C684 C 0.39324 0.61477 0.09729 0.0
C685 C 0.37255 0.64839 0.09757 0.0
C686 C 0.37546 0.58028 0.10056 0.0
C687 C 0.29269 0.5379 0.12455 0.0
H688 H 0.31311 0.4537 0.08865 0.0
C689 C 0.21169 0.39844 0.13256 0.0
C690 C 0.23179 0.36475 0.12978 0.0
C691 C 0.22777 0.43307 0.12758 0.0
C692 C 0.30741 0.47672 0.09901 0.0
H693 H 0.317 0.67214 0.10169 0.0
H694 H 0.28613 0.61198 0.10767 0.0
H695 H 0.34397 0.51374 0.08254 0.0
H696 H 0.28446 0.34173 0.11869 0.0
H697 H 0.31282 0.4018 0.11087 0.0
H698 H 0.257 0.50092 0.1414 0.0
C699 C 0.31607 0.61234 0.10486 0.0
C700 C 0.32505 0.51117 0.09545 0.0
C701 C 0.33374 0.64677 0.10132 0.0
C702 C 0.26814 0.36683 0.12141 0.0
C703 C 0.28434 0.40148 0.11663 0.0
C704 C 0.27538 0.50335 0.12827 0.0
C705 C 0.33671 0.57871 0.10445 0.0
C706 C 0.31788 0.54213 0.10817 0.0
C707 C 0.26454 0.43515 0.11982 0.0
C708 C 0.28247 0.47223 0.11556 0.0
H709 H 0.42314 0.61505 0.09435 0.0
H710 H 0.39213 0.55484 0.10031 0.0
H711 H 0.28696 0.56115 0.13477 0.0
H712 H 0.18377 0.39844 0.139 0.0
H713 H 0.2113 0.45827 0.12989 0.0
C714 C 0.90285 0.89779 0.3503 0.0
C715 C 0.87038 0.8755 0.34933 0.0
C716 C 0.9379 0.88149 0.3541 0.0
C717 C 0.9823 0.79837 0.37708 0.0
H718 H 0.06867 0.82646 0.34441 0.0
C719 C 0.12278 0.71929 0.38427 0.0
C720 C 0.15632 0.74007 0.38315 0.0
C721 C 0.08829 0.73585 0.37956 0.0
C722 C 0.04501 0.81863 0.35389 0.0
H723 H 0.84934 0.81855 0.35167 0.0
H724 H 0.91043 0.79021 0.35848 0.0
H725 H 1.00792 0.85562 0.3377 0.0
H726 H 0.17921 0.7948 0.37556 0.0
H727 H 0.11909 0.82389 0.36809 0.0
H728 H 0.01921 0.76198 0.39356 0.0
C729 C 0.90873 0.82031 0.35633 0.0
C730 C 1.01015 0.83531 0.34998 0.0
C731 C 0.87375 0.83655 0.35232 0.0
C732 C 0.15419 0.77785 0.37689 0.0
C733 C 0.11959 0.79451 0.37234 0.0
C734 C 0.01717 0.78196 0.38111 0.0
C735 C 0.94122 0.84258 0.35722 0.0
C736 C 0.97838 0.82524 0.36148 0.0
C737 C 0.08611 0.7738 0.37376 0.0
C738 C 0.04901 0.7917 0.36951 0.0
H739 H 0.90127 0.92786 0.34799 0.0
H740 H 0.96237 0.89942 0.35486 0.0
H741 H 0.95847 0.79044 0.38641 0.0
H742 H 0.12274 0.69031 0.38913 0.0
H743 H 0.06327 0.71874 0.38047 0.0
C744 C 0.8261 1.00406 0.26687 0.0
C745 C 0.83437 0.97798 0.28233 0.0
C746 C 0.85465 0.01984 0.2551 0.0
C747 C 0.95413 0.04423 0.25764 0.0
H748 H 0.93719 0.07178 0.20096 0.0
C749 C 0.05241 0.14509 0.21187 0.0
C750 C 0.03247 0.17507 0.20305 0.0
C751 C 0.03319 0.11385 0.21972 0.0
C752 C 0.94246 0.0641 0.21675 0.0
H753 H 0.879 0.94708 0.29723 0.0
H754 H 0.92939 0.97482 0.27653 0.0
H755 H 0.8943 0.02843 0.21788 0.0
H756 H 0.97726 0.19522 0.19469 0.0
H757 H 0.94389 0.14098 0.20809 0.0
H758 H 1.0017 0.08105 0.25658 0.0
C759 C 0.90065 0.98306 0.27359 0.0
C760 C 0.91786 0.03935 0.22646 0.0
C761 C 0.87185 0.96696 0.28531 0.0
C762 C 0.99327 0.17273 0.20163 0.0
C763 C 0.97422 0.14147 0.20911 0.0
C764 C 0.97891 0.06894 0.24785 0.0
C765 C 0.89236 1.01007 0.25851 0.0
C766 C 0.92253 0.03027 0.24724 0.0
C767 C 0.99384 0.11182 0.21842 0.0
C768 C 0.97246 0.0802 0.22754 0.0
H769 H 0.79745 0.0128 0.26411 0.0
H770 H 0.84721 0.04088 0.24383 0.0
H771 H 0.95844 0.03797 0.27368 0.0
H772 H 0.08265 0.14632 0.21317 0.0
H773 H 0.04899 0.09137 0.22682 0.0
C774 C 0.54736 0.36197 0.52975 0.0
C775 C 0.52962 0.32743 0.53381 0.0
C776 C 0.52809 0.39072 0.51945 0.0
C777 C 0.43511 0.42722 0.5155 0.0
H778 H 0.4581 0.47131 0.46271 0.0
C779 C 0.32254 0.49991 0.46798 0.0
C780 C 0.33151 0.53038 0.45526 0.0
C781 C 0.35044 0.48077 0.47866 0.0
C782 C 0.4517 0.45994 0.47768 0.0
H783 H 0.479 0.2951 0.52865 0.0
H784 H 0.44531 0.34541 0.51133 0.0
H785 H 0.5019 0.42628 0.4782 0.0
H786 H 0.37685 0.56541 0.44424 0.0
H787 H 0.42602 0.53215 0.46333 0.0
H788 H 0.38516 0.46032 0.51525 0.0
C789 C 0.47391 0.35029 0.51625 0.0
C790 C 0.4767 0.43408 0.48645 0.0
C791 C 0.49319 0.32157 0.52624 0.0
C792 C 0.36908 0.54216 0.45404 0.0
C793 C 0.39724 0.52285 0.46478 0.0
C794 C 0.41049 0.4533 0.50693 0.0
C795 C 0.49078 0.38539 0.51326 0.0
C796 C 0.46791 0.41669 0.50512 0.0
C797 C 0.38823 0.49163 0.47708 0.0
C798 C 0.41772 0.46899 0.48757 0.0
H799 H 0.57528 0.36753 0.53547 0.0
H800 H 0.5416 0.41764 0.51727 0.0
H801 H 0.42805 0.4145 0.53007 0.0
H802 H 0.29385 0.49041 0.46947 0.0
H803 H 0.34236 0.45657 0.48768 0.0
C804 C 0.98354 0.87883 0.7019 0.0
C805 C 0.97845 0.84353 0.71113 0.0
C806 C 1.00479 0.90661 0.71179 0.0
C807 C 0.08366 0.90979 0.74659 0.0
H808 H 0.06152 0.01484 0.75646 0.0
C809 C 0.17357 0.99332 0.80153 0.0
C810 C 0.1852 0.02948 0.79589 0.0
C811 C 0.14564 0.97491 0.79059 0.0
C812 C 0.06822 0.98567 0.75355 0.0
H813 H 0.98799 0.81092 0.7386 0.0
H814 H 0.02475 0.85901 0.75577 0.0
H815 H 0.01574 0.97541 0.73823 0.0
H816 H 0.17545 0.07555 0.77494 0.0
H817 H 0.12646 0.04287 0.75534 0.0
H818 H 0.13583 0.91939 0.76159 0.0
C819 C 0.01323 0.86508 0.74079 0.0
C820 C 0.04205 0.96319 0.74318 0.0
C821 C 0.99223 0.83757 0.73098 0.0
C822 C 0.16702 0.04762 0.77955 0.0
C823 C 0.13902 0.02895 0.76839 0.0
C824 C 0.10968 0.93209 0.75674 0.0
C825 C 0.02104 0.89926 0.73099 0.0
C826 C 0.04924 0.92479 0.74013 0.0
C827 C 0.12874 0.99198 0.77353 0.0
C828 C 0.10194 0.97001 0.76088 0.0
H829 H 0.97318 0.884 0.68658 0.0
H830 H 0.01038 0.9328 0.70395 0.0
H831 H 0.09034 0.8805 0.74398 0.0
H832 H 0.18632 0.97907 0.81441 0.0
H833 H 0.13759 0.94693 0.79537 0.0
C834 C 0.67336 0.53113 0.94579 0.0
C835 C 0.67879 0.49257 0.94919 0.0
C836 C 0.64249 0.54974 0.95411 0.0
C837 C 0.57623 0.54555 -0.00319 0.0
H838 H 0.52861 0.62692 0.96708 0.0
C839 C 0.47091 0.64821 0.03535 0.0
C840 C 0.48042 0.68607 0.03227 0.0
C841 C 0.4877 0.62002 0.02346 0.0
C842 C 0.54153 0.60421 0.97557 0.0
H843 H 0.65555 0.44307 0.96366 0.0
H844 H 0.60121 0.47581 0.97837 0.0
H845 H 0.57188 0.58502 0.94932 0.0
H846 H 0.51312 0.72433 0.01375 0.0
H847 H 0.54211 0.67555 0.99298 0.0
H848 H 0.54673 0.56565 0.02324 0.0
C849 C 0.62111 0.49156 0.96926 0.0
C850 C 0.56636 0.58024 0.96542 0.0
C851 C 0.65202 0.47278 0.96075 0.0
C852 C 0.50555 0.69535 0.01653 0.0
C853 C 0.52187 0.66739 0.00453 0.0
C854 C 0.55126 0.56955 0.00699 0.0
C855 C 0.61615 0.53035 0.96612 0.0
C856 C 0.58502 0.55144 0.97607 0.0
C857 C 0.51374 0.62934 0.00808 0.0
C858 C 0.53465 0.59992 0.99662 0.0
H859 H 0.69312 0.54707 0.93671 0.0
H860 H 0.63988 0.57969 0.95158 0.0
H861 H 0.59027 0.52378 0.00549 0.0
H862 H 0.4518 0.64035 0.0475 0.0
H863 H 0.48078 0.59095 0.0265 0.0
loop_
_geom_bond_atom_site_label_1
_geom_bond_atom_site_label_2
_geom_bond_distance
_geom_bond_site_symmetry_2
_ccdc_geom_bond_type
Co0 N4 2.148 . S
Co0 N10 2.128 . S
Co0 N20 2.194 . S
Co0 O25 2.351 . S
Co0 O26 2.155 . S
Co0 O27 2.096 . S
C1 N4 1.301 . S
C1 N5 1.328 . S
C1 H6 0.930 . S
C2 C3 1.333 . S
C2 N4 1.317 . S
C2 H7 0.930 . S
C3 C2 1.333 . S
C3 N5 1.350 . S
C3 H29 0.931 . S
N4 Co0 2.148 . S
N4 C1 1.301 . S
N4 C2 1.317 . S
N5 C1 1.328 . S
N5 C3 1.350 . S
H6 C1 0.930 . S
H7 C2 0.930 . S
C8 O9 1.224 . S
C8 O27 1.247 . S
O9 C8 1.224 . S
N10 Co0 2.128 . S
N10 C11 1.355 . S
N10 C13 1.311 . S
C11 N10 1.355 . S
C11 C12 1.363 . S
C11 H23 0.929 . S
C12 C11 1.363 . S
C12 N14 1.375 . S
C12 H30 0.931 1_455 S
C13 N10 1.311 . S
C13 N14 1.347 . S
C13 H24 0.929 . S
N14 C12 1.375 . S
N14 C13 1.347 . S
C15 C18 1.365 . S
C15 N20 1.328 . S
C15 H21 0.929 . S
C16 C17 1.362 . S
C16 C19 1.378 . S
C16 H31 0.929 . S
C17 C16 1.362 . S
C17 C18 1.366 . S
C18 C15 1.365 . S
C18 C17 1.366 . S
C18 H32 0.930 . S
C19 C16 1.378 . S
C19 N20 1.315 . S
C19 H22 0.930 . S
N20 Co0 2.194 . S
N20 C15 1.328 . S
N20 C19 1.315 . S
H21 C15 0.929 . S
H22 C19 0.930 . S
H23 C11 0.929 . S
H24 C13 0.929 . S
O25 Co0 2.351 . S
O25 C28 1.244 . S
O26 Co0 2.155 . S
O26 C28 1.240 . S
O27 Co0 2.096 . S
O27 C8 1.247 . S
C28 O25 1.244 . S
C28 O26 1.240 . S
H29 C3 0.931 . S
H30 C12 0.931 1_655 S
H31 C16 0.929 . S
H32 C18 0.930 . S
Co33 N37 2.148 . S
Co33 N43 2.128 . S
Co33 N53 2.194 . S
Co33 O58 2.351 . S
Co33 O59 2.155 . S
Co33 O60 2.096 . S
C34 N37 1.301 . S
C34 N38 1.328 . S
C34 H39 0.930 . S
C35 C36 1.333 . S
C35 N37 1.317 . S
C35 H40 0.930 . S
C36 C35 1.333 . S
C36 N38 1.350 . S
C36 H62 0.931 . S
N37 Co33 2.148 . S
N37 C34 1.301 . S
N37 C35 1.317 . S
N38 C34 1.328 . S
N38 C36 1.350 . S
H39 C34 0.930 . S
H40 C35 0.930 . S
C41 O42 1.224 . S
C41 O60 1.247 . S
O42 C41 1.224 . S
N43 Co33 2.128 . S
N43 C44 1.355 . S
N43 C46 1.311 . S
C44 N43 1.355 . S
C44 C45 1.363 . S
C44 H56 0.929 . S
C45 C44 1.363 . S
C45 N47 1.375 . S
C45 H63 0.931 . S
C46 N43 1.311 . S
C46 N47 1.347 . S
C46 H57 0.929 . S
N47 C45 1.375 . S
N47 C46 1.347 . S
C48 C51 1.365 . S
C48 N53 1.328 . S
C48 H54 0.929 . S
C49 C50 1.362 . S
C49 C52 1.378 . S
C49 H64 0.929 . S
C50 C49 1.362 . S
C50 C51 1.366 . S
C51 C48 1.365 . S
C51 C50 1.366 . S
C51 H65 0.930 . S
C52 C49 1.378 . S
C52 N53 1.315 . S
C52 H55 0.930 . S
N53 Co33 2.194 . S
N53 C48 1.328 . S
N53 C52 1.315 . S
H54 C48 0.929 . S
H55 C52 0.930 . S
H56 C44 0.929 . S
H57 C46 0.929 . S
O58 Co33 2.351 . S
O58 C61 1.244 . S
O59 Co33 2.155 . S
O59 C61 1.240 . S
O60 Co33 2.096 . S
O60 C41 1.247 . S
C61 O58 1.244 . S
C61 O59 1.240 . S
H62 C36 0.931 . S
H63 C45 0.931 . S
H64 C49 0.929 . S
H65 C51 0.930 . S
Co66 N70 2.148 . S
Co66 N76 2.128 . S
Co66 N86 2.194 . S
Co66 O91 2.351 . S
Co66 O92 2.155 . S
Co66 O93 2.096 . S
C67 N70 1.301 . S
C67 N71 1.328 . S
C67 H72 0.930 . S
C68 C69 1.333 . S
C68 N70 1.317 . S
C68 H73 0.930 . S
C69 C68 1.333 . S
C69 N71 1.350 . S
C69 H95 0.931 . S
N70 Co66 2.148 . S
N70 C67 1.301 . S
N70 C68 1.317 . S
N71 C67 1.328 . S
N71 C69 1.350 . S
H72 C67 0.930 . S
H73 C68 0.930 . S
C74 O75 1.224 . S
C74 O93 1.247 . S
O75 C74 1.224 . S
N76 Co66 2.128 . S
N76 C77 1.355 . S
N76 C79 1.311 . S
C77 N76 1.355 . S
C77 C78 1.363 . S
C77 H89 0.929 . S
C78 C77 1.363 . S
C78 N80 1.375 . S
C78 H96 0.931 1_655 S
C79 N76 1.311 . S
C79 N80 1.347 . S
C79 H90 0.929 . S
N80 C78 1.375 . S
N80 C79 1.347 . S
C81 C84 1.365 . S
C81 N86 1.328 . S
C81 H87 0.929 . S
C82 C83 1.362 . S
C82 C85 1.378 . S
C82 H97 0.929 . S
C83 C82 1.362 . S
C83 C84 1.366 . S
C84 C81 1.365 . S
C84 C83 1.366 . S
C84 H98 0.930 . S
C85 C82 1.378 . S
C85 N86 1.315 . S
C85 H88 0.930 . S
N86 Co66 2.194 . S
N86 C81 1.328 . S
N86 C85 1.315 . S
H87 C81 0.929 . S
H88 C85 0.930 . S
H89 C77 0.929 . S
H90 C79 0.929 . S
O91 Co66 2.351 . S
O91 C94 1.244 . S
O92 Co66 2.155 . S
O92 C94 1.240 . S
O93 Co66 2.096 . S
O93 C74 1.247 . S
C94 O91 1.244 . S
C94 O92 1.240 . S
H95 C69 0.931 . S
H96 C78 0.931 1_455 S
H97 C82 0.929 . S
H98 C84 0.930 . S
Co99 N103 2.148 . S
Co99 N109 2.128 . S
Co99 N119 2.194 . S
Co99 O124 2.351 . S
Co99 O125 2.155 . S
Co99 O126 2.096 . S
C100 N103 1.301 . S
C100 N104 1.328 . S
C100 H105 0.930 . S
C101 C102 1.333 . S
C101 N103 1.317 . S
C101 H106 0.930 . S
C102 C101 1.333 . S
C102 N104 1.350 . S
C102 H128 0.931 . S
N103 Co99 2.148 . S
N103 C100 1.301 . S
N103 C101 1.317 . S
N104 C100 1.328 . S
N104 C102 1.350 . S
H105 C100 0.930 . S
H106 C101 0.930 . S
C107 O108 1.224 . S
C107 O126 1.247 . S
O108 C107 1.224 . S
N109 Co99 2.128 . S
N109 C110 1.355 . S
N109 C112 1.311 . S
C110 N109 1.355 . S
C110 C111 1.363 . S
C110 H122 0.929 . S
C111 C110 1.363 . S
C111 N113 1.375 . S
C111 H129 0.931 . S
C112 N109 1.311 . S
C112 N113 1.347 . S
C112 H123 0.929 . S
N113 C111 1.375 . S
N113 C112 1.347 . S
C114 C117 1.365 . S
C114 N119 1.328 . S
C114 H120 0.929 . S
C115 C116 1.362 . S
C115 C118 1.378 . S
C115 H130 0.929 . S
C116 C115 1.362 . S
C116 C117 1.366 . S
C117 C114 1.365 . S
C117 C116 1.366 . S
C117 H131 0.930 . S
C118 C115 1.378 . S
C118 N119 1.315 . S
C118 H121 0.930 . S
N119 Co99 2.194 . S
N119 C114 1.328 . S
N119 C118 1.315 . S
H120 C114 0.929 . S
H121 C118 0.930 . S
H122 C110 0.929 . S
H123 C112 0.929 . S
O124 Co99 2.351 . S
O124 C127 1.244 . S
O125 Co99 2.155 . S
O125 C127 1.240 . S
O126 Co99 2.096 . S
O126 C107 1.247 . S
C127 O124 1.244 . S
C127 O125 1.240 . S
H128 C102 0.931 . S
H129 C111 0.931 . S
H130 C115 0.929 . S
H131 C117 0.930 . S
Co132 N136 2.148 . S
Co132 N142 2.128 . S
Co132 N152 2.194 . S
Co132 O157 2.351 . S
Co132 O158 2.155 . S
Co132 O159 2.096 . S
C133 N136 1.301 . S
C133 N137 1.328 . S
C133 H138 0.930 . S
C134 C135 1.333 . S
C134 N136 1.317 . S
C134 H139 0.930 . S
C135 C134 1.333 . S
C135 N137 1.350 . S
C135 H161 0.931 . S
N136 Co132 2.148 . S
N136 C133 1.301 . S
N136 C134 1.317 . S
N137 C133 1.328 . S
N137 C135 1.350 . S
H138 C133 0.930 . S
H139 C134 0.930 . S
C140 O141 1.224 . S
C140 O159 1.247 . S
O141 C140 1.224 . S
N142 Co132 2.128 . S
N142 C143 1.355 . S
N142 C145 1.311 . S
C143 N142 1.355 . S
C143 C144 1.363 . S
C143 H155 0.929 . S
C144 C143 1.363 . S
C144 N146 1.375 . S
C144 H162 0.931 . S
C145 N142 1.311 . S
C145 N146 1.347 . S
C145 H156 0.929 . S
N146 C144 1.375 . S
N146 C145 1.347 . S
C147 C150 1.365 . S
C147 N152 1.328 . S
C147 H153 0.929 . S
C148 C149 1.362 . S
C148 C151 1.378 . S
C148 H163 0.929 . S
C149 C148 1.362 . S
C149 C150 1.366 . S
C150 C147 1.365 . S
C150 C149 1.366 . S
C150 H164 0.930 . S
C151 C148 1.378 . S
C151 N152 1.315 . S
C151 H154 0.930 . S
N152 Co132 2.194 . S
N152 C147 1.328 . S
N152 C151 1.315 . S
H153 C147 0.929 . S
H154 C151 0.930 . S
H155 C143 0.929 . S
H156 C145 0.929 . S
O157 Co132 2.351 . S
O157 C160 1.244 . S
O158 Co132 2.155 . S
O158 C160 1.240 . S
O159 Co132 2.096 . S
O159 C140 1.247 . S
C160 O157 1.244 . S
C160 O158 1.240 . S
H161 C135 0.931 . S
H162 C144 0.931 . S
H163 C148 0.929 . S
H164 C150 0.930 . S
Co165 N169 2.148 . S
Co165 N175 2.128 . S
Co165 N185 2.194 . S
Co165 O190 2.351 . S
Co165 O191 2.155 . S
Co165 O192 2.096 . S
C166 N169 1.301 . S
C166 N170 1.328 . S
C166 H171 0.930 . S
C167 C168 1.333 . S
C167 N169 1.317 . S
C167 H172 0.930 . S
C168 C167 1.333 . S
C168 N170 1.350 . S
C168 H194 0.931 . S
N169 Co165 2.148 . S
N169 C166 1.301 . S
N169 C167 1.317 . S
N170 C166 1.328 . S
N170 C168 1.350 . S
H171 C166 0.930 . S
H172 C167 0.930 . S
C173 O174 1.224 . S
C173 O192 1.247 . S
O174 C173 1.224 . S
N175 Co165 2.128 . S
N175 C176 1.355 . S
N175 C178 1.311 . S
C176 N175 1.355 . S
C176 C177 1.363 . S
C176 H188 0.929 . S
C177 C176 1.363 . S
C177 N179 1.375 . S
C177 H195 0.931 1_545 S
C178 N175 1.311 . S
C178 N179 1.347 . S
C178 H189 0.929 . S
N179 C177 1.375 . S
N179 C178 1.347 . S
C180 C183 1.365 . S
C180 N185 1.328 . S
C180 H186 0.929 . S
C181 C182 1.362 . S
C181 C184 1.378 . S
C181 H196 0.929 . S
C182 C181 1.362 . S
C182 C183 1.366 . S
C183 C180 1.365 . S
C183 C182 1.366 . S
C183 H197 0.930 . S
C184 C181 1.378 . S
C184 N185 1.315 . S
C184 H187 0.930 . S
N185 Co165 2.194 . S
N185 C180 1.328 . S
N185 C184 1.315 . S
H186 C180 0.929 . S
H187 C184 0.930 . S
H188 C176 0.929 . S
H189 C178 0.929 . S
O190 Co165 2.351 . S
O190 C193 1.244 . S
O191 Co165 2.155 . S
O191 C193 1.240 . S
O192 Co165 2.096 . S
O192 C173 1.247 . S
C193 O190 1.244 . S
C193 O191 1.240 . S
H194 C168 0.931 . S
H195 C177 0.931 1_565 S
H196 C181 0.929 . S
H197 C183 0.930 . S
Co198 N202 2.148 . S
Co198 N208 2.128 . S
Co198 N218 2.194 . S
Co198 O223 2.351 . S
Co198 O224 2.155 . S
Co198 O225 2.096 . S
C199 N202 1.301 . S
C199 N203 1.328 . S
C199 H204 0.930 . S
C200 C201 1.333 . S
C200 N202 1.317 . S
C200 H205 0.930 . S
C201 C200 1.333 . S
C201 N203 1.350 . S
C201 H227 0.931 . S
N202 Co198 2.148 . S
N202 C199 1.301 . S
N202 C200 1.317 . S
N203 C199 1.328 . S
N203 C201 1.350 . S
H204 C199 0.930 . S
H205 C200 0.930 . S
C206 O207 1.224 . S
C206 O225 1.247 . S
O207 C206 1.224 . S
N208 Co198 2.128 . S
N208 C209 1.355 . S
N208 C211 1.311 . S
C209 N208 1.355 . S
C209 C210 1.363 . S
C209 H221 0.929 . S
C210 C209 1.363 . S
C210 N212 1.375 . S
C210 H228 0.931 . S
C211 N208 1.311 . S
C211 N212 1.347 . S
C211 H222 0.929 . S
N212 C210 1.375 . S
N212 C211 1.347 . S
C213 C216 1.365 . S
C213 N218 1.328 . S
C213 H219 0.929 . S
C214 C215 1.362 . S
C214 C217 1.378 . S
C214 H229 0.929 . S
C215 C214 1.362 . S
C215 C216 1.366 . S
C216 C213 1.365 . S
C216 C215 1.366 . S
C216 H230 0.930 . S
C217 C214 1.378 . S
C217 N218 1.315 . S
C217 H220 0.930 . S
N218 Co198 2.194 . S
N218 C213 1.328 . S
N218 C217 1.315 . S
H219 C213 0.929 . S
H220 C217 0.930 . S
H221 C209 0.929 . S
H222 C211 0.929 . S
O223 Co198 2.351 . S
O223 C226 1.244 . S
O224 Co198 2.155 . S
O224 C226 1.240 . S
O225 Co198 2.096 . S
O225 C206 1.247 . S
C226 O223 1.244 . S
C226 O224 1.240 . S
H227 C201 0.931 . S
H228 C210 0.931 . S
H229 C214 0.929 . S
H230 C216 0.930 . S
Co231 N235 2.148 . S
Co231 N241 2.128 . S
Co231 N251 2.194 . S
Co231 O256 2.351 . S
Co231 O257 2.155 . S
Co231 O258 2.096 . S
C232 N235 1.301 . S
C232 N236 1.328 . S
C232 H237 0.930 . S
C233 C234 1.333 . S
C233 N235 1.317 . S
C233 H238 0.930 . S
C234 C233 1.333 . S
C234 N236 1.350 . S
C234 H260 0.931 . S
N235 Co231 2.148 . S
N235 C232 1.301 . S
N235 C233 1.317 . S
N236 C232 1.328 . S
N236 C234 1.350 . S
H237 C232 0.930 . S
H238 C233 0.930 . S
C239 O240 1.224 . S
C239 O258 1.247 . S
O240 C239 1.224 . S
N241 Co231 2.128 . S
N241 C242 1.355 . S
N241 C244 1.311 . S
C242 N241 1.355 . S
C242 C243 1.363 . S
C242 H254 0.929 . S
C243 C242 1.363 . S
C243 N245 1.375 . S
C243 H261 0.931 1_565 S
C244 N241 1.311 . S
C244 N245 1.347 . S
C244 H255 0.929 . S
N245 C243 1.375 . S
N245 C244 1.347 . S
C246 C249 1.365 . S
C246 N251 1.328 . S
C246 H252 0.929 . S
C247 C248 1.362 . S
C247 C250 1.378 . S
C247 H262 0.929 . S
C248 C247 1.362 . S
C248 C249 1.366 . S
C249 C246 1.365 . S
C249 C248 1.366 . S
C249 H263 0.930 . S
C250 C247 1.378 . S
C250 N251 1.315 . S
C250 H253 0.930 . S
N251 Co231 2.194 . S
N251 C246 1.328 . S
N251 C250 1.315 . S
H252 C246 0.929 . S
H253 C250 0.930 . S
H254 C242 0.929 . S
H255 C244 0.929 . S
O256 Co231 2.351 . S
O256 C259 1.244 . S
O257 Co231 2.155 . S
O257 C259 1.240 . S
O258 Co231 2.096 . S
O258 C239 1.247 . S
C259 O256 1.244 . S
C259 O257 1.240 . S
H260 C234 0.931 . S
H261 C243 0.931 1_545 S
H262 C247 0.929 . S
H263 C249 0.930 . S
C264 C265 1.349 . S
C264 C266 1.327 . S
C264 H289 0.950 . S
C265 C264 1.349 . S
C265 C281 1.349 . S
C266 C264 1.327 . S
C266 C285 1.429 . S
C266 H290 0.950 . S
C267 C284 1.574 . S
C267 C286 1.368 . S
C267 H291 0.949 . S
H268 C272 0.949 . S
C269 C270 1.349 . S
C269 C271 1.327 . S
C269 H292 0.950 . S
C270 C269 1.349 . S
C270 C282 1.349 . S
C271 C269 1.327 . S
C271 C287 1.429 . S
C271 H293 0.950 . S
C272 H268 0.949 . S
C272 C280 1.574 . S
C272 C288 1.368 . S
H273 C281 0.950 . S
H274 C279 0.950 . S
H275 C280 0.949 . S
H276 C282 0.950 . S
H277 C283 0.950 . S
H278 C284 0.949 . S
C279 H274 0.950 . S
C279 C281 1.327 . S
C279 C285 1.429 . S
C280 C272 1.574 . S
C280 H275 0.949 . S
C280 C286 1.368 . S
C281 C265 1.349 . S
C281 H273 0.950 . S
C281 C279 1.327 . S
C282 C270 1.349 . S
C282 H276 0.950 . S
C282 C283 1.327 . S
C283 H277 0.950 . S
C283 C282 1.327 . S
C283 C287 1.429 . S
C284 C267 1.574 . S
C284 H278 0.949 . S
C284 C288 1.368 . S
C285 C266 1.429 . S
C285 C279 1.429 . S
C285 C286 1.523 . S
C286 C267 1.368 . S
C286 C280 1.368 . S
C286 C285 1.523 . S
C287 C271 1.429 . S
C287 C283 1.429 . S
C287 C288 1.523 . S
C288 C272 1.368 . S
C288 C284 1.368 . S
C288 C287 1.523 . S
H289 C264 0.950 . S
H290 C266 0.950 . S
H291 C267 0.949 . S
H292 C269 0.950 . S
H293 C271 0.950 . S
C294 C295 1.349 1_655 S
C294 C296 1.327 1_655 S
C294 H319 0.950 . S
C295 C294 1.349 1_455 S
C295 C311 1.349 . S
C296 C294 1.327 1_455 S
C296 C315 1.429 . S
C296 H320 0.950 1_455 S
C297 C314 1.574 . S
C297 C316 1.368 . S
C297 H321 0.949 . S
H298 C302 0.949 . S
C299 C300 1.349 . S
C299 C301 1.327 . S
C299 H322 0.950 . S
C300 C299 1.349 . S
C300 C312 1.349 . S
C301 C299 1.327 . S
C301 C317 1.429 . S
C301 H323 0.950 . S
C302 H298 0.949 . S
C302 C310 1.574 . S
C302 C318 1.368 . S
H303 C311 0.950 . S
H304 C309 0.950 . S
H305 C310 0.949 . S
H306 C312 0.950 . S
H307 C313 0.950 . S
H308 C314 0.949 . S
C309 H304 0.950 . S
C309 C311 1.327 . S
C309 C315 1.429 . S
C310 C302 1.574 . S
C310 H305 0.949 . S
C310 C316 1.368 . S
C311 C295 1.349 . S
C311 H303 0.950 . S
C311 C309 1.327 . S
C312 C300 1.349 . S
C312 H306 0.950 . S
C312 C313 1.327 . S
C313 H307 0.950 . S
C313 C312 1.327 . S
C313 C317 1.429 . S
C314 C297 1.574 . S
C314 H308 0.949 . S
C314 C318 1.368 . S
C315 C296 1.429 . S
C315 C309 1.429 . S
C315 C316 1.523 . S
C316 C297 1.368 . S
C316 C310 1.368 . S
C316 C315 1.523 . S
C317 C301 1.429 . S
C317 C313 1.429 . S
C317 C318 1.523 . S
C318 C302 1.368 . S
C318 C314 1.368 . S
C318 C317 1.523 . S
H319 C294 0.950 . S
H320 C296 0.950 1_655 S
H321 C297 0.949 . S
H322 C299 0.950 . S
H323 C301 0.950 . S
C324 C325 1.349 . S
C324 C326 1.327 . S
C324 H349 0.950 . S
C325 C324 1.349 . S
C325 C341 1.349 . S
C326 C324 1.327 . S
C326 C345 1.429 . S
C326 H350 0.950 . S
C327 C344 1.574 . S
C327 C346 1.368 . S
C327 H351 0.949 . S
H328 C332 0.949 . S
C329 C330 1.349 . S
C329 C331 1.327 . S
C329 H352 0.950 . S
C330 C329 1.349 . S
C330 C342 1.349 . S
C331 C329 1.327 . S
C331 C347 1.429 . S
C331 H353 0.950 . S
C332 H328 0.949 . S
C332 C340 1.574 . S
C332 C348 1.368 . S
H333 C341 0.950 . S
H334 C339 0.950 . S
H335 C340 0.949 . S
H336 C342 0.950 . S
H337 C343 0.950 . S
H338 C344 0.949 . S
C339 H334 0.950 . S
C339 C341 1.327 . S
C339 C345 1.429 . S
C340 C332 1.574 . S
C340 H335 0.949 . S
C340 C346 1.368 . S
C341 C325 1.349 . S
C341 H333 0.950 . S
C341 C339 1.327 . S
C342 C330 1.349 . S
C342 H336 0.950 . S
C342 C343 1.327 . S
C343 H337 0.950 . S
C343 C342 1.327 . S
C343 C347 1.429 . S
C344 C327 1.574 . S
C344 H338 0.949 . S
C344 C348 1.368 . S
C345 C326 1.429 . S
C345 C339 1.429 . S
C345 C346 1.523 . S
C346 C327 1.368 . S
C346 C340 1.368 . S
C346 C345 1.523 . S
C347 C331 1.429 . S
C347 C343 1.429 . S
C347 C348 1.523 . S
C348 C332 1.368 . S
C348 C344 1.368 . S
C348 C347 1.523 . S
H349 C324 0.950 . S
H350 C326 0.950 . S
H351 C327 0.949 . S
H352 C329 0.950 . S
H353 C331 0.950 . S
C354 C355 1.349 . S
C354 C356 1.327 . S
C354 H379 0.950 . S
C355 C354 1.349 . S
C355 C371 1.349 . S
C356 C354 1.327 . S
C356 C375 1.429 . S
C356 H380 0.950 . S
C357 C374 1.574 . S
C357 C376 1.368 . S
C357 H381 0.949 . S
H358 C362 0.949 . S
C359 C360 1.349 . S
C359 C361 1.327 . S
C359 H382 0.950 . S
C360 C359 1.349 . S
C360 C372 1.349 1_655 S
C361 C359 1.327 . S
C361 C377 1.429 . S
C361 H383 0.950 . S
C362 H358 0.949 . S
C362 C370 1.574 . S
C362 C378 1.368 . S
H363 C371 0.950 . S
H364 C369 0.950 1_554 S
H365 C370 0.949 1_556 S
H366 C372 0.950 . S
H367 C373 0.950 . S
H368 C374 0.949 . S
C369 H364 0.950 1_556 S
C369 C371 1.327 . S
C369 C375 1.429 . S
C370 C362 1.574 . S
C370 H365 0.949 1_554 S
C370 C376 1.368 . S
C371 C355 1.349 . S
C371 H363 0.950 . S
C371 C369 1.327 . S
C372 C360 1.349 1_455 S
C372 H366 0.950 . S
C372 C373 1.327 1_455 S
C373 H367 0.950 . S
C373 C372 1.327 1_655 S
C373 C377 1.429 . S
C374 C357 1.574 . S
C374 H368 0.949 . S
C374 C378 1.368 . S
C375 C356 1.429 . S
C375 C369 1.429 . S
C375 C376 1.523 1_556 S
C376 C357 1.368 . S
C376 C370 1.368 . S
C376 C375 1.523 1_554 S
C377 C361 1.429 . S
C377 C373 1.429 . S
C377 C378 1.523 . S
C378 C362 1.368 . S
C378 C374 1.368 . S
C378 C377 1.523 . S
H379 C354 0.950 . S
H380 C356 0.950 . S
H381 C357 0.949 . S
H382 C359 0.950 . S
H383 C361 0.950 . S
C384 C385 1.349 . S
C384 C386 1.327 . S
C384 H409 0.950 . S
C385 C384 1.349 . S
C385 C401 1.349 . S
C386 C384 1.327 . S
C386 C405 1.429 . S
C386 H410 0.950 . S
C387 C404 1.574 . S
C387 C406 1.368 . S
C387 H411 0.949 . S
H388 C392 0.949 . S
C389 C390 1.349 1_565 S
C389 C391 1.327 1_565 S
C389 H412 0.950 . S
C390 C389 1.349 1_545 S
C390 C402 1.349 . S
C391 C389 1.327 1_545 S
C391 C407 1.429 . S
C391 H413 0.950 1_545 S
C392 H388 0.949 . S
C392 C400 1.574 . S
C392 C408 1.368 . S
H393 C401 0.950 . S
H394 C399 0.950 . S
H395 C400 0.949 . S
H396 C402 0.950 . S
H397 C403 0.950 . S
H398 C404 0.949 . S
C399 H394 0.950 . S
C399 C401 1.327 . S
C399 C405 1.429 . S
C400 C392 1.574 . S
C400 H395 0.949 . S
C400 C406 1.368 . S
C401 C385 1.349 . S
C401 H393 0.950 . S
C401 C399 1.327 . S
C402 C390 1.349 . S
C402 H396 0.950 . S
C402 C403 1.327 . S
C403 H397 0.950 . S
C403 C402 1.327 . S
C403 C407 1.429 . S
C404 C387 1.574 . S
C404 H398 0.949 . S
C404 C408 1.368 . S
C405 C386 1.429 . S
C405 C399 1.429 . S
C405 C406 1.523 . S
C406 C387 1.368 . S
C406 C400 1.368 . S
C406 C405 1.523 . S
C407 C391 1.429 . S
C407 C403 1.429 . S
C407 C408 1.523 . S
C408 C392 1.368 . S
C408 C404 1.368 . S
C408 C407 1.523 . S
H409 C384 0.950 . S
H410 C386 0.950 . S
H411 C387 0.949 . S
H412 C389 0.950 . S
H413 C391 0.950 1_565 S
C414 C415 1.349 . S
C414 C416 1.327 . S
C414 H439 0.950 . S
C415 C414 1.349 . S
C415 C431 1.349 . S
C416 C414 1.327 . S
C416 C435 1.429 . S
C416 H440 0.950 . S
C417 C434 1.574 . S
C417 C436 1.368 . S
C417 H441 0.949 . S
H418 C422 0.949 . S
C419 C420 1.349 . S
C419 C421 1.327 . S
C419 H442 0.950 . S
C420 C419 1.349 . S
C420 C432 1.349 . S
C421 C419 1.327 . S
C421 C437 1.429 . S
C421 H443 0.950 . S
C422 H418 0.949 . S
C422 C430 1.574 . S
C422 C438 1.368 . S
H423 C431 0.950 . S
H424 C429 0.950 . S
H425 C430 0.949 . S
H426 C432 0.950 . S
H427 C433 0.950 . S
H428 C434 0.949 . S
C429 H424 0.950 . S
C429 C431 1.327 . S
C429 C435 1.429 . S
C430 C422 1.574 . S
C430 H425 0.949 . S
C430 C436 1.368 . S
C431 C415 1.349 . S
C431 H423 0.950 . S
C431 C429 1.327 . S
C432 C420 1.349 . S
C432 H426 0.950 . S
C432 C433 1.327 . S
C433 H427 0.950 . S
C433 C432 1.327 . S
C433 C437 1.429 . S
C434 C417 1.574 . S
C434 H428 0.949 . S
C434 C438 1.368 . S
C435 C416 1.429 . S
C435 C429 1.429 . S
C435 C436 1.523 . S
C436 C417 1.368 . S
C436 C430 1.368 . S
C436 C435 1.523 . S
C437 C421 1.429 . S
C437 C433 1.429 . S
C437 C438 1.523 . S
C438 C422 1.368 . S
C438 C434 1.368 . S
C438 C437 1.523 . S
H439 C414 0.950 . S
H440 C416 0.950 . S
H441 C417 0.949 . S
H442 C419 0.950 . S
H443 C421 0.950 . S
C444 C445 1.349 . S
C444 C446 1.327 . S
C444 H469 0.950 . S
C445 C444 1.349 . S
C445 C461 1.349 . S
C446 C444 1.327 . S
C446 C465 1.429 . S
C446 H470 0.950 . S
C447 C464 1.574 . S
C447 C466 1.368 . S
C447 H471 0.949 . S
H448 C452 0.949 . S
C449 C450 1.349 1_545 S
C449 C451 1.327 1_545 S
C449 H472 0.950 . S
C450 C449 1.349 1_565 S
C450 C462 1.349 . S
C451 C449 1.327 1_565 S
C451 C467 1.429 . S
C451 H473 0.950 1_565 S
C452 H448 0.949 . S
C452 C460 1.574 . S
C452 C468 1.368 . S
H453 C461 0.950 . S
H454 C459 0.950 . S
H455 C460 0.949 . S
H456 C462 0.950 . S
H457 C463 0.950 . S
H458 C464 0.949 . S
C459 H454 0.950 . S
C459 C461 1.327 . S
C459 C465 1.429 . S
C460 C452 1.574 . S
C460 H455 0.949 . S
C460 C466 1.368 . S
C461 C445 1.349 . S
C461 H453 0.950 . S
C461 C459 1.327 . S
C462 C450 1.349 . S
C462 H456 0.950 . S
C462 C463 1.327 . S
C463 H457 0.950 . S
C463 C462 1.327 . S
C463 C467 1.429 . S
C464 C447 1.574 . S
C464 H458 0.949 . S
C464 C468 1.368 . S
C465 C446 1.429 . S
C465 C459 1.429 . S
C465 C466 1.523 1_554 S
C466 C447 1.368 . S
C466 C460 1.368 . S
C466 C465 1.523 1_556 S
C467 C451 1.429 . S
C467 C463 1.429 . S
C467 C468 1.523 . S
C468 C452 1.368 . S
C468 C464 1.368 . S
C468 C467 1.523 . S
H469 C444 0.950 . S
H470 C446 0.950 . S
H471 C447 0.949 . S
H472 C449 0.950 . S
H473 C451 0.950 1_545 S
C474 C475 1.349 . S
C474 C476 1.327 . S
C474 H499 0.950 . S
C475 C474 1.349 . S
C475 C491 1.349 . S
C476 C474 1.327 . S
C476 C495 1.429 . S
C476 H500 0.950 . S
C477 C494 1.574 . S
C477 C496 1.368 . S
C477 H501 0.949 . S
H478 C482 0.949 . S
C479 C480 1.349 . S
C479 C481 1.327 . S
C479 H502 0.950 . S
C480 C479 1.349 . S
C480 C492 1.349 . S
C481 C479 1.327 . S
C481 C497 1.429 . S
C481 H503 0.950 . S
C482 H478 0.949 . S
C482 C490 1.574 . S
C482 C498 1.368 . S
H483 C491 0.950 . S
H484 C489 0.950 . S
H485 C490 0.949 . S
H486 C492 0.950 . S
H487 C493 0.950 . S
H488 C494 0.949 . S
C489 H484 0.950 . S
C489 C491 1.327 . S
C489 C495 1.429 . S
C490 C482 1.574 . S
C490 H485 0.949 . S
C490 C496 1.368 . S
C491 C475 1.349 . S
C491 H483 0.950 . S
C491 C489 1.327 . S
C492 C480 1.349 . S
C492 H486 0.950 . S
C492 C493 1.327 . S
C493 H487 0.950 . S
C493 C492 1.327 . S
C493 C497 1.429 . S
C494 C477 1.574 . S
C494 H488 0.949 . S
C494 C498 1.368 . S
C495 C476 1.429 . S
C495 C489 1.429 . S
C495 C496 1.523 . S
C496 C477 1.368 . S
C496 C490 1.368 . S
C496 C495 1.523 . S
C497 C481 1.429 . S
C497 C493 1.429 . S
C497 C498 1.523 . S
C498 C482 1.368 . S
C498 C494 1.368 . S
C498 C497 1.523 . S
H499 C474 0.950 . S
H500 C476 0.950 . S
H501 C477 0.949 . S
H502 C479 0.950 . S
H503 C481 0.950 . S
C504 C505 1.349 . S
C504 C506 1.327 . S
C504 H529 0.950 . S
C505 C504 1.349 . S
C505 C521 1.349 . S
C506 C504 1.327 . S
C506 C525 1.429 . S
C506 H530 0.950 . S
C507 C524 1.574 . S
C507 C526 1.368 1_545 S
C507 H531 0.949 . S
H508 C512 0.949 . S
C509 C510 1.349 . S
C509 C511 1.327 . S
C509 H532 0.950 . S
C510 C509 1.349 . S
C510 C522 1.349 . S
C511 C509 1.327 . S
C511 C527 1.429 . S
C511 H533 0.950 . S
C512 H508 0.949 . S
C512 C520 1.574 . S
C512 C528 1.368 . S
H513 C521 0.950 . S
H514 C519 0.950 . S
H515 C520 0.949 1_565 S
H516 C522 0.950 . S
H517 C523 0.950 . S
H518 C524 0.949 . S
C519 H514 0.950 . S
C519 C521 1.327 . S
C519 C525 1.429 . S
C520 C512 1.574 . S
C520 H515 0.949 1_545 S
C520 C526 1.368 1_545 S
C521 C505 1.349 . S
C521 H513 0.950 . S
C521 C519 1.327 . S
C522 C510 1.349 . S
C522 H516 0.950 . S
C522 C523 1.327 . S
C523 H517 0.950 . S
C523 C522 1.327 . S
C523 C527 1.429 . S
C524 C507 1.574 . S
C524 H518 0.949 . S
C524 C528 1.368 . S
C525 C506 1.429 . S
C525 C519 1.429 . S
C525 C526 1.523 . S
C526 C507 1.368 1_565 S
C526 C520 1.368 1_565 S
C526 C525 1.523 . S
C527 C511 1.429 . S
C527 C523 1.429 . S
C527 C528 1.523 . S
C528 C512 1.368 . S
C528 C524 1.368 . S
C528 C527 1.523 . S
H529 C504 0.950 . S
H530 C506 0.950 . S
H531 C507 0.949 . S
H532 C509 0.950 . S
H533 C511 0.950 . S
C534 C535 1.349 . S
C534 C536 1.327 . S
C534 H559 0.950 . S
C535 C534 1.349 . S
C535 C551 1.349 . S
C536 C534 1.327 . S
C536 C555 1.429 . S
C536 H560 0.950 . S
C537 C554 1.574 . S
C537 C556 1.368 . S
C537 H561 0.949 . S
H538 C542 0.949 . S
C539 C540 1.349 . S
C539 C541 1.327 . S
C539 H562 0.950 . S
C540 C539 1.349 . S
C540 C552 1.349 . S
C541 C539 1.327 . S
C541 C557 1.429 . S
C541 H563 0.950 . S
C542 H538 0.949 . S
C542 C550 1.574 . S
C542 C558 1.368 . S
H543 C551 0.950 . S
H544 C549 0.950 . S
H545 C550 0.949 . S
H546 C552 0.950 . S
H547 C553 0.950 . S
H548 C554 0.949 . S
C549 H544 0.950 . S
C549 C551 1.327 . S
C549 C555 1.429 . S
C550 C542 1.574 . S
C550 H545 0.949 . S
C550 C556 1.368 . S
C551 C535 1.349 . S
C551 H543 0.950 . S
C551 C549 1.327 . S
C552 C540 1.349 . S
C552 H546 0.950 . S
C552 C553 1.327 . S
C553 H547 0.950 . S
C553 C552 1.327 . S
C553 C557 1.429 . S
C554 C537 1.574 . S
C554 H548 0.949 . S
C554 C558 1.368 . S
C555 C536 1.429 . S
C555 C549 1.429 . S
C555 C556 1.523 . S
C556 C537 1.368 . S
C556 C550 1.368 . S
C556 C555 1.523 . S
C557 C541 1.429 . S
C557 C553 1.429 . S
C557 C558 1.523 . S
C558 C542 1.368 . S
C558 C554 1.368 . S
C558 C557 1.523 . S
H559 C534 0.950 . S
H560 C536 0.950 . S
H561 C537 0.949 . S
H562 C539 0.950 . S
H563 C541 0.950 . S
C564 C565 1.349 . S
C564 C566 1.327 . S
C564 H589 0.950 . S
C565 C564 1.349 . S
C565 C581 1.349 . S
C566 C564 1.327 . S
C566 C585 1.429 . S
C566 H590 0.950 . S
C567 C584 1.574 . S
C567 C586 1.368 1_565 S
C567 H591 0.949 1_565 S
H568 C572 0.949 . S
C569 C570 1.349 . S
C569 C571 1.327 . S
C569 H592 0.950 . S
C570 C569 1.349 . S
C570 C582 1.349 . S
C571 C569 1.327 . S
C571 C587 1.429 . S
C571 H593 0.950 . S
C572 H568 0.949 . S
C572 C580 1.574 . S
C572 C588 1.368 . S
H573 C581 0.950 . S
H574 C579 0.950 . S
H575 C580 0.949 . S
H576 C582 0.950 . S
H577 C583 0.950 . S
H578 C584 0.949 . S
C579 H574 0.950 . S
C579 C581 1.327 . S
C579 C585 1.429 . S
C580 C572 1.574 . S
C580 H575 0.949 . S
C580 C586 1.368 1_565 S
C581 C565 1.349 . S
C581 H573 0.950 . S
C581 C579 1.327 . S
C582 C570 1.349 . S
C582 H576 0.950 . S
C582 C583 1.327 . S
C583 H577 0.950 . S
C583 C582 1.327 . S
C583 C587 1.429 . S
C584 C567 1.574 . S
C584 H578 0.949 . S
C584 C588 1.368 . S
C585 C566 1.429 . S
C585 C579 1.429 . S
C585 C586 1.523 . S
C586 C567 1.368 1_545 S
C586 C580 1.368 1_545 S
C586 C585 1.523 . S
C587 C571 1.429 . S
C587 C583 1.429 . S
C587 C588 1.523 . S
C588 C572 1.368 . S
C588 C584 1.368 . S
C588 C587 1.523 . S
H589 C564 0.950 . S
H590 C566 0.950 . S
H591 C567 0.949 1_545 S
H592 C569 0.950 . S
H593 C571 0.950 . S
C594 C595 1.349 . S
C594 C596 1.327 . S
C594 H619 0.950 . S
C595 C594 1.349 . S
C595 C611 1.349 . S
C596 C594 1.327 . S
C596 C615 1.429 . S
C596 H620 0.950 . S
C597 C614 1.574 . S
C597 C616 1.368 . S
C597 H621 0.949 . S
H598 C602 0.949 . S
C599 C600 1.349 . S
C599 C601 1.327 . S
C599 H622 0.950 . S
C600 C599 1.349 . S
C600 C612 1.349 . S
C601 C599 1.327 . S
C601 C617 1.429 . S
C601 H623 0.950 . S
C602 H598 0.949 . S
C602 C610 1.574 . S
C602 C618 1.368 . S
H603 C611 0.950 . S
H604 C609 0.950 . S
H605 C610 0.949 . S
H606 C612 0.950 . S
H607 C613 0.950 . S
H608 C614 0.949 . S
C609 H604 0.950 . S
C609 C611 1.327 . S
C609 C615 1.429 . S
C610 C602 1.574 . S
C610 H605 0.949 . S
C610 C616 1.368 . S
C611 C595 1.349 . S
C611 H603 0.950 . S
C611 C609 1.327 . S
C612 C600 1.349 . S
C612 H606 0.950 . S
C612 C613 1.327 . S
C613 H607 0.950 . S
C613 C612 1.327 . S
C613 C617 1.429 . S
C614 C597 1.574 . S
C614 H608 0.949 . S
C614 C618 1.368 . S
C615 C596 1.429 . S
C615 C609 1.429 . S
C615 C616 1.523 . S
C616 C597 1.368 . S
C616 C610 1.368 . S
C616 C615 1.523 . S
C617 C601 1.429 . S
C617 C613 1.429 . S
C617 C618 1.523 . S
C618 C602 1.368 . S
C618 C614 1.368 . S
C618 C617 1.523 . S
H619 C594 0.950 . S
H620 C596 0.950 . S
H621 C597 0.949 . S
H622 C599 0.950 . S
H623 C601 0.950 . S
C624 C625 1.349 . S
C624 C626 1.327 . S
C624 H649 0.950 . S
C625 C624 1.349 . S
C625 C641 1.349 . S
C626 C624 1.327 . S
C626 C645 1.429 . S
C626 H650 0.950 . S
C627 C644 1.574 . S
C627 C646 1.368 . S
C627 H651 0.949 . S
H628 C632 0.949 . S
C629 C630 1.349 . S
C629 C631 1.327 . S
C629 H652 0.950 . S
C630 C629 1.349 . S
C630 C642 1.349 . S
C631 C629 1.327 . S
C631 C647 1.429 . S
C631 H653 0.950 . S
C632 H628 0.949 . S
C632 C640 1.574 . S
C632 C648 1.368 . S
H633 C641 0.950 . S
H634 C639 0.950 . S
H635 C640 0.949 . S
H636 C642 0.950 . S
H637 C643 0.950 . S
H638 C644 0.949 . S
C639 H634 0.950 . S
C639 C641 1.327 . S
C639 C645 1.429 . S
C640 C632 1.574 . S
C640 H635 0.949 . S
C640 C646 1.368 . S
C641 C625 1.349 . S
C641 H633 0.950 . S
C641 C639 1.327 . S
C642 C630 1.349 . S
C642 H636 0.950 . S
C642 C643 1.327 . S
C643 H637 0.950 . S
C643 C642 1.327 . S
C643 C647 1.429 . S
C644 C627 1.574 . S
C644 H638 0.949 . S
C644 C648 1.368 . S
C645 C626 1.429 . S
C645 C639 1.429 . S
C645 C646 1.523 . S
C646 C627 1.368 . S
C646 C640 1.368 . S
C646 C645 1.523 . S
C647 C631 1.429 . S
C647 C643 1.429 . S
C647 C648 1.523 . S
C648 C632 1.368 . S
C648 C644 1.368 . S
C648 C647 1.523 . S
H649 C624 0.950 . S
H650 C626 0.950 . S
H651 C627 0.949 . S
H652 C629 0.950 . S
H653 C631 0.950 . S
C654 C655 1.349 . S
C654 C656 1.327 . S
C654 H679 0.950 . S
C655 C654 1.349 . S
C655 C671 1.349 . S
C656 C654 1.327 . S
C656 C675 1.429 . S
C656 H680 0.950 . S
C657 C674 1.574 . S
C657 C676 1.368 . S
C657 H681 0.949 . S
H658 C662 0.949 . S
C659 C660 1.349 . S
C659 C661 1.327 . S
C659 H682 0.950 . S
C660 C659 1.349 . S
C660 C672 1.349 . S
C661 C659 1.327 . S
C661 C677 1.429 . S
C661 H683 0.950 . S
C662 H658 0.949 . S
C662 C670 1.574 1_655 S
C662 C678 1.368 . S
H663 C671 0.950 . S
H664 C669 0.950 . S
H665 C670 0.949 . S
H666 C672 0.950 . S
H667 C673 0.950 . S
H668 C674 0.949 . S
C669 H664 0.950 . S
C669 C671 1.327 . S
C669 C675 1.429 . S
C670 C662 1.574 1_455 S
C670 H665 0.949 . S
C670 C676 1.368 . S
C671 C655 1.349 . S
C671 H663 0.950 . S
C671 C669 1.327 . S
C672 C660 1.349 . S
C672 H666 0.950 . S
C672 C673 1.327 . S
C673 H667 0.950 . S
C673 C672 1.327 . S
C673 C677 1.429 . S
C674 C657 1.574 . S
C674 H668 0.949 . S
C674 C678 1.368 1_455 S
C675 C656 1.429 . S
C675 C669 1.429 . S
C675 C676 1.523 . S
C676 C657 1.368 . S
C676 C670 1.368 . S
C676 C675 1.523 . S
C677 C661 1.429 . S
C677 C673 1.429 . S
C677 C678 1.523 . S
C678 C662 1.368 . S
C678 C674 1.368 1_655 S
C678 C677 1.523 . S
H679 C654 0.950 . S
H680 C656 0.950 . S
H681 C657 0.949 . S
H682 C659 0.950 . S
H683 C661 0.950 . S
C684 C685 1.349 . S
C684 C686 1.327 . S
C684 H709 0.950 . S
C685 C684 1.349 . S
C685 C701 1.349 . S
C686 C684 1.327 . S
C686 C705 1.429 . S
C686 H710 0.950 . S
C687 C704 1.574 . S
C687 C706 1.368 . S
C687 H711 0.949 . S
H688 C692 0.949 . S
C689 C690 1.349 . S
C689 C691 1.327 . S
C689 H712 0.950 . S
C690 C689 1.349 . S
C690 C702 1.349 . S
C691 C689 1.327 . S
C691 C707 1.429 . S
C691 H713 0.950 . S
C692 H688 0.949 . S
C692 C700 1.574 . S
C692 C708 1.368 . S
H693 C701 0.950 . S
H694 C699 0.950 . S
H695 C700 0.949 . S
H696 C702 0.950 . S
H697 C703 0.950 . S
H698 C704 0.949 . S
C699 H694 0.950 . S
C699 C701 1.327 . S
C699 C705 1.429 . S
C700 C692 1.574 . S
C700 H695 0.949 . S
C700 C706 1.368 . S
C701 C685 1.349 . S
C701 H693 0.950 . S
C701 C699 1.327 . S
C702 C690 1.349 . S
C702 H696 0.950 . S
C702 C703 1.327 . S
C703 H697 0.950 . S
C703 C702 1.327 . S
C703 C707 1.429 . S
C704 C687 1.574 . S
C704 H698 0.949 . S
C704 C708 1.368 . S
C705 C686 1.429 . S
C705 C699 1.429 . S
C705 C706 1.523 . S
C706 C687 1.368 . S
C706 C700 1.368 . S
C706 C705 1.523 . S
C707 C691 1.429 . S
C707 C703 1.429 . S
C707 C708 1.523 . S
C708 C692 1.368 . S
C708 C704 1.368 . S
C708 C707 1.523 . S
H709 C684 0.950 . S
H710 C686 0.950 . S
H711 C687 0.949 . S
H712 C689 0.950 . S
H713 C691 0.950 . S
C714 C715 1.349 . S
C714 C716 1.327 . S
C714 H739 0.950 . S
C715 C714 1.349 . S
C715 C731 1.349 . S
C716 C714 1.327 . S
C716 C735 1.429 . S
C716 H740 0.950 . S
C717 C734 1.574 . S
C717 C736 1.368 . S
C717 H741 0.949 . S
H718 C722 0.949 1_455 S
C719 C720 1.349 . S
C719 C721 1.327 . S
C719 H742 0.950 . S
C720 C719 1.349 . S
C720 C732 1.349 . S
C721 C719 1.327 . S
C721 C737 1.429 . S
C721 H743 0.950 . S
C722 H718 0.949 1_655 S
C722 C730 1.574 . S
C722 C738 1.368 1_655 S
H723 C731 0.950 . S
H724 C729 0.950 . S
H725 C730 0.949 . S
H726 C732 0.950 . S
H727 C733 0.950 . S
H728 C734 0.949 . S
C729 H724 0.950 . S
C729 C731 1.327 . S
C729 C735 1.429 . S
C730 C722 1.574 . S
C730 H725 0.949 . S
C730 C736 1.368 . S
C731 C715 1.349 . S
C731 H723 0.950 . S
C731 C729 1.327 . S
C732 C720 1.349 . S
C732 H726 0.950 . S
C732 C733 1.327 . S
C733 H727 0.950 . S
C733 C732 1.327 . S
C733 C737 1.429 . S
C734 C717 1.574 . S
C734 H728 0.949 . S
C734 C738 1.368 1_655 S
C735 C716 1.429 . S
C735 C729 1.429 . S
C735 C736 1.523 . S
C736 C717 1.368 . S
C736 C730 1.368 . S
C736 C735 1.523 . S
C737 C721 1.429 . S
C737 C733 1.429 . S
C737 C738 1.523 . S
C738 C722 1.368 1_455 S
C738 C734 1.368 1_455 S
C738 C737 1.523 . S
H739 C714 0.950 . S
H740 C716 0.950 . S
H741 C717 0.949 . S
H742 C719 0.950 . S
H743 C721 0.950 . S
C744 C745 1.349 . S
C744 C746 1.331 . S
C744 H769 0.950 . S
C745 C744 1.349 . S
C745 C761 1.349 1_565 S
C746 C744 1.331 . S
C746 C765 1.423 1_565 S
C746 H770 0.952 . S
C747 C764 1.574 . S
C747 C766 1.368 . S
C747 H771 0.949 . S
H748 C752 0.949 . S
C749 C750 1.349 . S
C749 C751 1.327 1_455 S
C749 H772 0.950 . S
C750 C749 1.349 . S
C750 C762 1.349 1_455 S
C751 C749 1.327 1_655 S
C751 C767 1.429 . S
C751 H773 0.950 . S
C752 H748 0.949 . S
C752 C760 1.574 . S
C752 C768 1.368 . S
H753 C761 0.950 . S
H754 C759 0.950 . S
H755 C760 0.949 . S
H756 C762 0.950 . S
H757 C763 0.950 . S
H758 C764 0.949 . S
C759 H754 0.950 . S
C759 C761 1.327 . S
C759 C765 1.429 . S
C760 C752 1.574 . S
C760 H755 0.949 . S
C760 C766 1.368 . S
C761 C745 1.349 1_545 S
C761 H753 0.950 . S
C761 C759 1.327 . S
C762 C750 1.349 1_655 S
C762 H756 0.950 . S
C762 C763 1.327 . S
C763 H757 0.950 . S
C763 C762 1.327 . S
C763 C767 1.429 . S
C764 C747 1.574 . S
C764 H758 0.949 . S
C764 C768 1.368 . S
C765 C746 1.423 1_545 S
C765 C759 1.429 . S
C765 C766 1.523 . S
C766 C747 1.368 . S
C766 C760 1.368 . S
C766 C765 1.523 . S
C767 C751 1.429 . S
C767 C763 1.429 . S
C767 C768 1.523 . S
C768 C752 1.368 . S
C768 C764 1.368 . S
C768 C767 1.523 . S
H769 C744 0.950 . S
H770 C746 0.952 . S
H771 C747 0.949 . S
H772 C749 0.950 . S
H773 C751 0.950 . S
C774 C775 1.349 . S
C774 C776 1.327 . S
C774 H799 0.950 . S
C775 C774 1.349 . S
C775 C791 1.349 . S
C776 C774 1.327 . S
C776 C795 1.429 . S
C776 H800 0.950 . S
C777 C794 1.574 . S
C777 C796 1.368 . S
C777 H801 0.949 . S
H778 C782 0.949 . S
C779 C780 1.349 . S
C779 C781 1.327 . S
C779 H802 0.950 . S
C780 C779 1.349 . S
C780 C792 1.349 . S
C781 C779 1.327 . S
C781 C797 1.429 . S
C781 H803 0.950 . S
C782 H778 0.949 . S
C782 C790 1.574 . S
C782 C798 1.368 . S
H783 C791 0.950 . S
H784 C789 0.950 . S
H785 C790 0.949 . S
H786 C792 0.950 . S
H787 C793 0.950 . S
H788 C794 0.949 . S
C789 H784 0.950 . S
C789 C791 1.327 . S
C789 C795 1.429 . S
C790 C782 1.574 . S
C790 H785 0.949 . S
C790 C796 1.368 . S
C791 C775 1.349 . S
C791 H783 0.950 . S
C791 C789 1.327 . S
C792 C780 1.349 . S
C792 H786 0.950 . S
C792 C793 1.327 . S
C793 H787 0.950 . S
C793 C792 1.327 . S
C793 C797 1.429 . S
C794 C777 1.574 . S
C794 H788 0.949 . S
C794 C798 1.368 . S
C795 C776 1.429 . S
C795 C789 1.429 . S
C795 C796 1.523 . S
C796 C777 1.368 . S
C796 C790 1.368 . S
C796 C795 1.523 . S
C797 C781 1.429 . S
C797 C793 1.429 . S
C797 C798 1.523 . S
C798 C782 1.368 . S
C798 C794 1.368 . S
C798 C797 1.523 . S
H799 C774 0.950 . S
H800 C776 0.950 . S
H801 C777 0.949 . S
H802 C779 0.950 . S
H803 C781 0.950 . S
C804 C805 1.349 . S
C804 C806 1.327 . S
C804 H829 0.950 . S
C805 C804 1.349 . S
C805 C821 1.349 1_655 S
C806 C804 1.327 . S
C806 C825 1.429 1_655 S
C806 H830 0.950 . S
C807 C824 1.574 . S
C807 C826 1.368 . S
C807 H831 0.949 . S
H808 C812 0.949 . S
C809 C810 1.349 1_565 S
C809 C811 1.327 . S
C809 H832 0.950 . S
C810 C809 1.349 1_545 S
C810 C822 1.349 . S
C811 C809 1.327 . S
C811 C827 1.429 . S
C811 H833 0.950 . S
C812 H808 0.949 . S
C812 C820 1.574 . S
C812 C828 1.368 . S
H813 C821 0.950 . S
H814 C819 0.950 . S
H815 C820 0.949 . S
H816 C822 0.950 . S
H817 C823 0.950 . S
H818 C824 0.949 . S
C819 H814 0.950 . S
C819 C821 1.327 . S
C819 C825 1.429 . S
C820 C812 1.574 . S
C820 H815 0.949 . S
C820 C826 1.368 . S
C821 C805 1.349 1_455 S
C821 H813 0.950 . S
C821 C819 1.327 . S
C822 C810 1.349 . S
C822 H816 0.950 . S
C822 C823 1.327 . S
C823 H817 0.950 . S
C823 C822 1.327 . S
C823 C827 1.429 1_545 S
C824 C807 1.574 . S
C824 H818 0.949 . S
C824 C828 1.368 . S
C825 C806 1.429 1_455 S
C825 C819 1.429 . S
C825 C826 1.523 . S
C826 C807 1.368 . S
C826 C820 1.368 . S
C826 C825 1.523 . S
C827 C811 1.429 . S
C827 C823 1.429 1_565 S
C827 C828 1.523 . S
C828 C812 1.368 . S
C828 C824 1.368 . S
C828 C827 1.523 . S
H829 C804 0.950 . S
H830 C806 0.950 . S
H831 C807 0.949 . S
H832 C809 0.950 . S
H833 C811 0.950 . S
C834 C835 1.349 . S
C834 C836 1.327 . S
C834 H859 0.950 . S
C835 C834 1.349 . S
C835 C851 1.349 . S
C836 C834 1.327 . S
C836 C855 1.429 . S
C836 H860 0.950 . S
C837 C854 1.574 . S
C837 C856 1.368 1_554 S
C837 H861 0.949 . S
H838 C842 0.949 . S
C839 C840 1.349 . S
C839 C841 1.327 . S
C839 H862 0.950 . S
C840 C839 1.349 . S
C840 C852 1.349 . S
C841 C839 1.327 . S
C841 C857 1.429 . S
C841 H863 0.950 . S
C842 H838 0.949 . S
C842 C850 1.574 . S
C842 C858 1.368 1_556 S
H843 C851 0.950 . S
H844 C849 0.950 . S
H845 C850 0.949 . S
H846 C852 0.950 . S
H847 C853 0.950 . S
H848 C854 0.949 . S
C849 H844 0.950 . S
C849 C851 1.327 . S
C849 C855 1.429 . S
C850 C842 1.574 . S
C850 H845 0.949 . S
C850 C856 1.368 . S
C851 C835 1.349 . S
C851 H843 0.950 . S
C851 C849 1.327 . S
C852 C840 1.349 . S
C852 H846 0.950 . S
C852 C853 1.327 . S
C853 H847 0.950 . S
C853 C852 1.327 . S
C853 C857 1.429 . S
C854 C837 1.574 . S
C854 H848 0.949 . S
C854 C858 1.368 . S
C855 C836 1.429 . S
C855 C849 1.429 . S
C855 C856 1.523 . S
C856 C837 1.368 1_556 S
C856 C850 1.368 . S
C856 C855 1.523 . S
C857 C841 1.429 . S
C857 C853 1.429 . S
C857 C858 1.523 . S
C858 C842 1.368 1_554 S
C858 C854 1.368 . S
C858 C857 1.523 . S
H859 C834 0.950 . S
H860 C836 0.950 . S
H861 C837 0.949 . S
H862 C839 0.950 . S
H863 C841 0.950 . S
C265 C28 1.049 . S
C270 C50 1.044 . S
C295 C83 1.044 1_455 S
C300 C61 1.049 . S
C325 C116 1.044 . S
C330 C94 1.048 . S
C355 C127 1.048 . S
C360 C17 1.044 1_655 S
C385 C160 1.048 . S
C390 C248 1.044 1_545 S
C415 C193 1.048 . S
C420 C149 1.044 . S
C445 C226 1.049 . S
C450 C182 1.044 1_565 S
C475 C259 1.049 . S
C480 C215 1.044 . S
C505 N203 1.793 . S
C510 C8 1.791 . S
C535 N236 1.793 . S
C540 C41 1.791 . S
C565 N137 1.793 . S
C570 C74 1.791 . S
C595 N170 1.793 . S
C600 C107 1.791 . S
C625 C140 1.791 . S
C630 N71 1.793 . S
C655 C173 1.791 . S
C660 N104 1.793 . S
C685 C206 1.791 . S
C690 N5 1.793 . S
C715 C239 1.791 . S
C720 N38 1.793 . S
C745 N245 1.463 . S
C750 N14 1.463 . S
C775 N146 1.463 . S
C780 N47 1.463 . S
C805 N80 1.462 . S
C810 N179 1.462 . S
C835 N113 1.463 . S
C840 N212 1.463 . S
