# Generated by pormake.
# Topology vmf, (6)-cn, num edge types: 1
# Building blocks:
#     Node 0, Type 0, BuildingBlock: OJICUG_clean_sbu_0, # of connection points: 6
#     Node 1, Type 0, BuildingBlock: OJICUG_clean_sbu_0, # of connection points: 6
#     Node 2, Type 0, BuildingBlock: OJICUG_clean_sbu_0, # of connection points: 6
#     Node 3, Type 0, BuildingBlock: OJICUG_clean_sbu_0, # of connection points: 6
#     Node 4, Type 0, BuildingBlock: OJICUG_clean_sbu_0, # of connection points: 6
#     Node 5, Type 0, BuildingBlock: OJICUG_clean_sbu_0, # of connection points: 6
#     Node 6, Type 0, BuildingBlock: OJICUG_clean_sbu_0, # of connection points: 6
#     Node 7, Type 0, BuildingBlock: OJICUG_clean_sbu_0, # of connection points: 6
#     Edge 8, Type (0, 0), BuildingBlock: EZIPEK_clean_linker_0, # of connection points: 2
#     Edge 9, Type (0, 0), BuildingBlock: EZIPEK_clean_linker_0, # of connection points: 2
#     Edge 10, Type (0, 0), BuildingBlock: EZIPEK_clean_linker_0, # of connection points: 2
#     Edge 11, Type (0, 0), BuildingBlock: EZIPEK_clean_linker_0, # of connection points: 2
#     Edge 12, Type (0, 0), BuildingBlock: EZIPEK_clean_linker_0, # of connection points: 2
#     Edge 13, Type (0, 0), BuildingBlock: EZIPEK_clean_linker_0, # of connection points: 2
#     Edge 14, Type (0, 0), BuildingBlock: EZIPEK_clean_linker_0, # of connection points: 2
#     Edge 15, Type (0, 0), BuildingBlock: EZIPEK_clean_linker_0, # of connection points: 2
#     Edge 16, Type (0, 0), BuildingBlock: EZIPEK_clean_linker_0, # of connection points: 2
#     Edge 17, Type (0, 0), BuildingBlock: EZIPEK_clean_linker_0, # of connection points: 2
#     Edge 18, Type (0, 0), BuildingBlock: EZIPEK_clean_linker_0, # of connection points: 2
#     Edge 19, Type (0, 0), BuildingBlock: EZIPEK_clean_linker_0, # of connection points: 2
#     Edge 20, Type (0, 0), BuildingBlock: EZIPEK_clean_linker_0, # of connection points: 2
#     Edge 21, Type (0, 0), BuildingBlock: EZIPEK_clean_linker_0, # of connection points: 2
#     Edge 22, Type (0, 0), BuildingBlock: EZIPEK_clean_linker_0, # of connection points: 2
#     Edge 23, Type (0, 0), BuildingBlock: EZIPEK_clean_linker_0, # of connection points: 2
#     Edge 24, Type (0, 0), BuildingBlock: EZIPEK_clean_linker_0, # of connection points: 2
#     Edge 25, Type (0, 0), BuildingBlock: EZIPEK_clean_linker_0, # of connection points: 2
#     Edge 26, Type (0, 0), BuildingBlock: EZIPEK_clean_linker_0, # of connection points: 2
#     Edge 27, Type (0, 0), BuildingBlock: EZIPEK_clean_linker_0, # of connection points: 2
#     Edge 28, Type (0, 0), BuildingBlock: EZIPEK_clean_linker_0, # of connection points: 2
#     Edge 29, Type (0, 0), BuildingBlock: EZIPEK_clean_linker_0, # of connection points: 2
#     Edge 30, Type (0, 0), BuildingBlock: EZIPEK_clean_linker_0, # of connection points: 2
#     Edge 31, Type (0, 0), BuildingBlock: EZIPEK_clean_linker_0, # of connection points: 2
# Relax obj value: 0.306
# Max RMSD: 0.281
# Mean RMSD: 0.281
data_MOF--net-vmf--node1-OJICUG_clean_sbu_0--edge1-EZIPEK_clean_linker_0
_symmetry_space_group_name_H-M    P1
_symmetry_Int_Tables_number       1
_symmetry_cell_setting            triclinic
loop_
_symmetry_equiv_pos_as_xyz
'x, y, z'
_cell_length_a     21.882569
_cell_length_b     33.156909
_cell_length_c     22.007942
_cell_angle_alpha  89.965507
_cell_angle_beta   102.5309
_cell_angle_gamma 89.935105
loop_
_atom_site_label
_atom_site_type_symbol
_atom_site_fract_x
_atom_site_fract_y
_atom_site_fract_z
_atom_type_partial_charge
Sc0 Sc 0.22085 0.34315 0.1748 0.0
Sc1 Sc 0.2239 0.25243 0.25421 0.0
Sc2 Sc 0.10994 0.32437 0.26357 0.0
O3 O 0.18474 0.30702 0.23159 0.0
C4 C 0.17825 0.40775 0.26362 0.0
C5 C 0.34335 0.30738 0.24287 0.0
C6 C 0.20692 0.28365 0.38173 0.0
C7 C 0.22207 0.2557 0.11719 0.0
C8 C 0.07627 0.34905 0.11648 0.0
C9 C 0.08095 0.23204 0.2532 0.0
O10 O 0.20516 0.398 0.22029 0.0
O11 O 0.31696 0.27344 0.24662 0.0
O12 O 0.15643 0.30326 0.35814 0.0
O13 O 0.23881 0.29238 0.1215 0.0
O14 O 0.05993 0.34415 0.16884 0.0
O15 O 0.13819 0.22161 0.26352 0.0
O16 O 0.13282 0.34825 0.11145 0.0
O17 O 0.2048 0.23597 0.15962 0.0
O18 O 0.06322 0.26818 0.24326 0.0
O19 O 0.31262 0.33995 0.2327 0.0
O20 O 0.14616 0.38348 0.28837 0.0
O21 O 0.24185 0.26772 0.34921 0.0
Sc22 Sc 0.88476 0.32845 0.72132 0.0
Sc23 Sc 0.77535 0.25694 0.74507 0.0
Sc24 Sc 0.77544 0.35223 0.81059 0.0
O25 O 0.8115 0.31298 0.7573 0.0
C26 C 0.92107 0.35683 0.86647 0.0
C27 C 0.91763 0.23598 0.74148 0.0
C28 C 0.78427 0.27013 0.88411 0.0
C29 C 0.78669 0.28161 0.61063 0.0
C30 C 0.81524 0.41333 0.71514 0.0
C31 C 0.65343 0.31217 0.75008 0.0
O32 O 0.9372 0.34815 0.81506 0.0
O33 O 0.86156 0.22529 0.73978 0.0
O34 O 0.76032 0.30478 0.87133 0.0
O35 O 0.83399 0.30513 0.62957 0.0
O36 O 0.7872 0.40506 0.75822 0.0
O37 O 0.68154 0.27833 0.75051 0.0
O38 O 0.84856 0.38784 0.694 0.0
O39 O 0.75633 0.26484 0.64707 0.0
O40 O 0.68249 0.34547 0.75592 0.0
O41 O 0.93376 0.27251 0.74101 0.0
O42 O 0.86456 0.36002 0.87102 0.0
O43 O 0.79789 0.24779 0.84243 0.0
Sc44 Sc 0.88766 0.66339 0.72165 0.0
Sc45 Sc 0.78409 0.73239 0.76618 0.0
Sc46 Sc 0.78854 0.6303 0.81347 0.0
O47 O 0.8184 0.67572 0.76555 0.0
C48 C 0.80719 0.58117 0.7001 0.0
C49 C 0.78981 0.71724 0.62469 0.0
C50 C 0.66208 0.6806 0.77004 0.0
C51 C 0.92391 0.7545 0.75602 0.0
C52 C 0.93193 0.62422 0.85544 0.0
C53 C 0.80264 0.70334 0.90629 0.0
O54 O 0.85515 0.6024 0.69848 0.0
O55 O 0.77039 0.73528 0.66782 0.0
O56 O 0.69187 0.64916 0.79217 0.0
O57 O 0.93289 0.71994 0.73591 0.0
O58 O 0.88065 0.60504 0.84541 0.0
O59 O 0.79302 0.73098 0.86506 0.0
O60 O 0.94615 0.64604 0.8126 0.0
O61 O 0.87427 0.76348 0.77463 0.0
O62 O 0.80767 0.66622 0.89475 0.0
O63 O 0.82953 0.68778 0.63432 0.0
O64 O 0.76962 0.5911 0.73416 0.0
O65 O 0.68861 0.71211 0.75552 0.0
Sc66 Sc 0.21854 0.64139 0.16921 0.0
Sc67 Sc 0.21851 0.73206 0.24623 0.0
Sc68 Sc 0.10845 0.66041 0.25813 0.0
O69 O 0.18223 0.67714 0.22559 0.0
C70 C 0.07462 0.63198 0.11238 0.0
C71 C 0.21406 0.72856 0.11008 0.0
C72 C 0.0755 0.74952 0.24874 0.0
C73 C 0.33925 0.67978 0.23431 0.0
C74 C 0.17849 0.5782 0.26231 0.0
C75 C 0.20635 0.70475 0.37405 0.0
O76 O 0.13057 0.63512 0.1061 0.0
O77 O 0.1922 0.74701 0.15105 0.0
O78 O 0.05894 0.71478 0.22847 0.0
O79 O 0.31044 0.64639 0.22669 0.0
O80 O 0.15005 0.60352 0.28938 0.0
O81 O 0.2436 0.71637 0.34084 0.0
O82 O 0.20245 0.5869 0.21628 0.0
O83 O 0.31099 0.71344 0.23438 0.0
O84 O 0.15382 0.68688 0.35128 0.0
O85 O 0.23542 0.69274 0.11593 0.0
O86 O 0.0592 0.63612 0.16537 0.0
O87 O 0.1329 0.75952 0.26377 0.0
Sc88 Sc 0.73086 0.85075 0.18128 0.0
Sc89 Sc 0.72565 0.75784 0.25021 0.0
Sc90 Sc 0.61169 0.82842 0.25845 0.0
O91 O 0.68914 0.81263 0.23084 0.0
C92 C 0.67962 0.91128 0.27026 0.0
C93 C 0.84693 0.81564 0.26316 0.0
C94 C 0.69679 0.7795 0.37629 0.0
C95 C 0.75539 0.76449 0.12727 0.0
C96 C 0.59021 0.8566 0.11287 0.0
C97 C 0.57903 0.73829 0.23417 0.0
O98 O 0.70375 0.90445 0.22379 0.0
O99 O 0.82002 0.7812 0.25802 0.0
O100 O 0.64761 0.80015 0.35156 0.0
O101 O 0.76594 0.80215 0.13317 0.0
O102 O 0.57095 0.85367 0.16413 0.0
O103 O 0.63619 0.72729 0.24717 0.0
O104 O 0.64739 0.8531 0.11018 0.0
O105 O 0.71729 0.74733 0.15446 0.0
O106 O 0.56254 0.77474 0.22607 0.0
O107 O 0.81652 0.84829 0.25027 0.0
O108 O 0.65227 0.88439 0.29539 0.0
O109 O 0.73629 0.76741 0.34614 0.0
Sc110 Sc 0.39271 0.82428 0.72272 0.0
Sc111 Sc 0.27769 0.75867 0.75407 0.0
Sc112 Sc 0.28321 0.85902 0.80619 0.0
O113 O 0.31734 0.81416 0.75973 0.0
C114 C 0.43031 0.85953 0.86349 0.0
C115 C 0.41878 0.73203 0.75941 0.0
C116 C 0.27102 0.7821 0.88733 0.0
C117 C 0.29681 0.77444 0.61721 0.0
C118 C 0.33086 0.91171 0.70583 0.0
C119 C 0.15806 0.81887 0.74503 0.0
O120 O 0.4457 0.84539 0.81449 0.0
O121 O 0.36358 0.72358 0.76455 0.0
O122 O 0.26277 0.81889 0.87341 0.0
O123 O 0.34205 0.79975 0.63278 0.0
O124 O 0.29827 0.90658 0.74606 0.0
O125 O 0.18458 0.78456 0.74523 0.0
O126 O 0.36501 0.88433 0.69051 0.0
O127 O 0.26803 0.75846 0.65554 0.0
O128 O 0.18845 0.85183 0.75393 0.0
O129 O 0.43498 0.76699 0.74667 0.0
O130 O 0.37404 0.86739 0.8661 0.0
O131 O 0.28653 0.75556 0.8521 0.0
Sc132 Sc 0.39322 0.16408 0.72973 0.0
Sc133 Sc 0.27702 0.23001 0.7569 0.0
Sc134 Sc 0.27692 0.12887 0.80369 0.0
O135 O 0.31539 0.1742 0.76231 0.0
C136 C 0.32812 0.07793 0.70309 0.0
C137 C 0.29968 0.21446 0.62189 0.0
C138 C 0.15466 0.17222 0.74134 0.0
C139 C 0.41905 0.25595 0.76495 0.0
C140 C 0.42278 0.12635 0.86928 0.0
C141 C 0.26737 0.20496 0.88816 0.0
O142 O 0.36612 0.10495 0.69488 0.0
O143 O 0.26885 0.22987 0.65899 0.0
O144 O 0.1838 0.13871 0.74803 0.0
O145 O 0.43632 0.22063 0.75584 0.0
O146 O 0.36566 0.11763 0.86706 0.0
O147 O 0.28551 0.23169 0.85483 0.0
O148 O 0.44154 0.14173 0.82279 0.0
O149 O 0.363 0.26471 0.76664 0.0
O150 O 0.25621 0.16863 0.87206 0.0
O151 O 0.34559 0.18962 0.6389 0.0
O152 O 0.29219 0.08242 0.74066 0.0
O153 O 0.18278 0.20607 0.7467 0.0
Sc154 Sc 0.70842 0.12853 0.1768 0.0
Sc155 Sc 0.71715 0.2269 0.23535 0.0
Sc156 Sc 0.60502 0.15989 0.26494 0.0
O157 O 0.67826 0.17191 0.2273 0.0
C158 C 0.56466 0.12389 0.12898 0.0
C159 C 0.71268 0.20242 0.09411 0.0
C160 C 0.57831 0.25205 0.22949 0.0
C161 C 0.83684 0.17448 0.23793 0.0
C162 C 0.68313 0.07761 0.28556 0.0
C163 C 0.69339 0.20935 0.37119 0.0
O164 O 0.61576 0.10426 0.13998 0.0
O165 O 0.72667 0.22605 0.14064 0.0
O166 O 0.56759 0.21927 0.25455 0.0
O167 O 0.80588 0.14743 0.20321 0.0
O168 O 0.63294 0.09759 0.28299 0.0
O169 O 0.71273 0.23074 0.33124 0.0
O170 O 0.72323 0.0883 0.25469 0.0
O171 O 0.81067 0.20247 0.2626 0.0
O172 O 0.65889 0.17788 0.35717 0.0
O173 O 0.69267 0.16692 0.09754 0.0
O174 O 0.55071 0.14713 0.17035 0.0
O175 O 0.62786 0.25833 0.20946 0.0
C176 C 0.4836 0.28903 0.17314 0.0
C177 C 0.53036 0.28363 0.22783 0.0
C178 C 0.45821 0.30562 0.29217 0.0
C179 C 0.40983 0.30748 0.23797 0.0
N180 N 0.38132 0.31611 0.12645 0.0
N181 N 0.57008 0.30045 0.33503 0.0
C182 C 0.42423 0.30435 0.17814 0.0
C183 C 0.52018 0.29698 0.28594 0.0
N184 N 0.49497 0.27735 0.11717 0.0
N185 N 0.44438 0.31036 0.34935 0.0
H186 H 0.61565 0.29412 0.33048 0.0
H187 H 0.56712 0.313 0.37766 0.0
H188 H 0.39968 0.31828 0.35476 0.0
H189 H 0.47628 0.30488 0.39106 0.0
H190 H 0.46035 0.27506 0.07656 0.0
H191 H 0.53945 0.26862 0.11231 0.0
H192 H 0.39041 0.31681 0.08195 0.0
H193 H 0.33902 0.32958 0.12917 0.0
C194 C 0.57238 0.30917 0.81485 0.0
C195 C 0.58678 0.31193 0.75499 0.0
C196 C 0.4763 0.30123 0.70736 0.0
C197 C 0.4665 0.28778 0.76548 0.0
N198 N 0.5003 0.28438 0.87628 0.0
N199 N 0.55164 0.31511 0.6437 0.0
C200 C 0.51294 0.29405 0.82004 0.0
C201 C 0.53818 0.31009 0.70094 0.0
N202 N 0.61513 0.32155 0.86618 0.0
N203 N 0.42619 0.30536 0.65872 0.0
H204 H 0.5961 0.32343 0.63823 0.0
H205 H 0.51959 0.30958 0.60211 0.0
H206 H 0.38069 0.29891 0.66325 0.0
H207 H 0.42904 0.31886 0.61668 0.0
H208 H 0.60656 0.32222 0.91087 0.0
H209 H 0.65672 0.33562 0.86274 0.0
H210 H 0.53399 0.28334 0.91771 0.0
H211 H 0.45517 0.27658 0.88047 0.0
C212 C 0.48453 0.68319 0.71571 0.0
C213 C 0.46869 0.70105 0.76862 0.0
C214 C 0.57697 0.69765 0.82544 0.0
C215 C 0.59469 0.68322 0.77091 0.0
N216 N 0.56575 0.65401 0.66861 0.0
N217 N 0.49226 0.70746 0.87909 0.0
C218 C 0.5483 0.67276 0.71749 0.0
C219 C 0.51265 0.70201 0.82544 0.0
N220 N 0.43832 0.67727 0.66394 0.0
N221 N 0.62137 0.70994 0.8756 0.0
H222 H 0.44451 0.7095 0.87861 0.0
H223 H 0.52144 0.70533 0.9232 0.0
H224 H 0.66906 0.70902 0.87634 0.0
H225 H 0.61072 0.72432 0.9141 0.0
H226 H 0.44558 0.66614 0.62193 0.0
H227 H 0.39148 0.68335 0.66401 0.0
H228 H 0.53463 0.64425 0.62873 0.0
H229 H 0.61223 0.64652 0.66924 0.0
C230 C 0.44803 0.68917 0.29437 0.0
C231 C 0.40727 0.68075 0.23688 0.0
C232 C 0.49208 0.69336 0.18223 0.0
C233 C 0.5284 0.70942 0.23797 0.0
N234 N 0.54186 0.72309 0.34781 0.0
N235 N 0.38967 0.67107 0.12592 0.0
C236 C 0.50731 0.7065 0.29464 0.0
C237 C 0.42949 0.68087 0.18077 0.0
N238 N 0.42931 0.68106 0.34847 0.0
N239 N 0.51742 0.69095 0.1308 0.0
H240 H 0.34507 0.65946 0.12401 0.0
H241 H 0.39988 0.67531 0.08234 0.0
H242 H 0.56323 0.70008 0.13154 0.0
H243 H 0.49547 0.6772 0.08932 0.0
H244 H 0.45867 0.68317 0.39243 0.0
H245 H 0.38569 0.66845 0.34888 0.0
H246 H 0.52589 0.7266 0.38874 0.0
H247 H 0.58568 0.73558 0.34983 0.0
C248 C 0.99355 0.76246 0.31063 0.0
C249 C 0.02653 0.77582 0.26511 0.0
C250 C 0.95158 0.83147 0.2371 0.0
C251 C 0.9165 0.81528 0.27879 0.0
N252 N 0.91939 0.77971 0.37383 0.0
N253 N 0.04675 0.8287 0.19683 0.0
C254 C 0.94378 0.78606 0.32256 0.0
C255 C 0.00928 0.81263 0.23285 0.0
N256 N 0.00673 0.72612 0.33989 0.0
N257 N 0.92796 0.86278 0.19884 0.0
H258 H 0.08755 0.81463 0.19053 0.0
H259 H 0.03993 0.85719 0.17662 0.0
H260 H 0.88975 0.87983 0.20478 0.0
H261 H 0.94591 0.87184 0.16092 0.0
H262 H 0.97892 0.71329 0.36763 0.0
H263 H 0.0428 0.70734 0.33346 0.0
H264 H 0.94014 0.76082 0.4104 0.0
H265 H 0.882 0.79694 0.38212 0.0
C266 C 0.99013 0.78947 0.69195 0.0
C267 C 0.97263 0.78512 0.75062 0.0
C268 C 0.07015 0.81869 0.80209 0.0
C269 C 0.08993 0.81864 0.7446 0.0
N270 N 0.06258 0.81781 0.63354 0.0
N271 N 0.98844 0.80414 0.85848 0.0
C272 C 0.04746 0.80872 0.68901 0.0
C273 C 0.0099 0.80306 0.80465 0.0
N274 N 0.95361 0.77304 0.6395 0.0
N275 N 0.11047 0.8319 0.85461 0.0
H276 H 0.94518 0.79249 0.86179 0.0
H277 H 0.01094 0.81896 0.89875 0.0
H278 H 0.15194 0.84682 0.85304 0.0
H279 H 0.10375 0.82792 0.89957 0.0
H280 H 0.96716 0.77063 0.59716 0.0
H281 H 0.91049 0.75971 0.63887 0.0
H282 H 0.03206 0.81459 0.59043 0.0
H283 H 0.10417 0.83261 0.63148 0.0
C284 C 0.00838 0.19453 0.79799 0.0
C285 C 0.96732 0.20537 0.74136 0.0
C286 C 0.04298 0.18056 0.68248 0.0
C287 C 0.0862 0.17318 0.73926 0.0
N288 N 0.10287 0.15914 0.84891 0.0
N289 N 0.93566 0.19631 0.63082 0.0
C290 C 0.06628 0.1754 0.79642 0.0
C291 C 0.98142 0.1941 0.68381 0.0
N292 N 0.99284 0.20397 0.85309 0.0
N293 N 0.06172 0.17586 0.6277 0.0
H294 H 0.8901 0.20525 0.63165 0.0
H295 H 0.94102 0.18575 0.58775 0.0
H296 H 0.10502 0.16322 0.62611 0.0
H297 H 0.03544 0.18519 0.58474 0.0
H298 H 0.02367 0.20173 0.89622 0.0
H299 H 0.9489 0.2154 0.85497 0.0
H300 H 0.08971 0.15753 0.89154 0.0
H301 H 0.14389 0.14341 0.84799 0.0
C302 C 0.01117 0.18973 0.30408 0.0
C303 C 0.03073 0.20168 0.24944 0.0
C304 C 0.9271 0.18784 0.18637 0.0
C305 C 0.90544 0.17795 0.24112 0.0
N306 N 0.9296 0.15983 0.34954 0.0
N307 N 0.01601 0.19794 0.13864 0.0
C308 C 0.94864 0.17557 0.29934 0.0
C309 C 0.99155 0.19534 0.19057 0.0
N310 N 0.05185 0.19344 0.36029 0.0
N311 N 0.88554 0.19406 0.13135 0.0
H312 H 0.06339 0.20395 0.14139 0.0
H313 H 0.99117 0.19016 0.09427 0.0
H314 H 0.83766 0.19134 0.12708 0.0
H315 H 0.89791 0.20569 0.09173 0.0
H316 H 0.03948 0.18934 0.40292 0.0
H317 H 0.09863 0.20136 0.36373 0.0
H318 H 0.95931 0.15477 0.39263 0.0
H319 H 0.88435 0.14884 0.34644 0.0
C320 C 0.99652 0.39033 0.95595 0.0
C321 C 0.96697 0.3549 0.92777 0.0
C322 C 0.99505 0.31956 0.02898 0.0
C323 C 0.02924 0.35381 0.05613 0.0
N324 N 0.06522 0.42156 0.04548 0.0
N325 N 0.94489 0.28417 0.93478 0.0
C326 C 0.03064 0.38916 0.01942 0.0
C327 C 0.96824 0.31911 0.96374 0.0
N328 N 0.99056 0.4253 0.9223 0.0
N329 N 0.98779 0.28741 0.06565 0.0
H330 H 0.92527 0.28269 0.88721 0.0
H331 H 0.94982 0.25603 0.95624 0.0
H332 H 0.00795 0.28605 0.11303 0.0
H333 H 0.95744 0.26356 0.05055 0.0
H334 H 0.00512 0.45332 0.94115 0.0
H335 H 0.96834 0.42646 0.87529 0.0
H336 H 0.07474 0.44648 0.02035 0.0
H337 H 0.0864 0.42288 0.09274 0.0
C338 C 0.00083 0.66282 0.0211 0.0
C339 C 0.02682 0.62738 0.05236 0.0
C340 C 0.99008 0.58897 0.95469 0.0
C341 C 0.97004 0.6254 0.92172 0.0
N342 N 0.96541 0.69836 0.924 0.0
N343 N 0.04993 0.55674 0.0487 0.0
C344 C 0.97804 0.66263 0.95508 0.0
C345 C 0.02203 0.59038 0.01903 0.0
N346 N 0.99732 0.69698 0.05493 0.0
N347 N 0.97911 0.55291 0.92431 0.0
H348 H 0.07008 0.5564 0.09627 0.0
H349 H 0.0554 0.52982 0.02615 0.0
H350 H 0.96175 0.55072 0.8764 0.0
H351 H 0.98474 0.52515 0.94689 0.0
H352 H 0.97387 0.72299 0.0363 0.0
H353 H 0.01328 0.69813 0.1031 0.0
H354 H 0.98231 0.72583 0.94366 0.0
H355 H 0.94244 0.70083 0.87757 0.0
C356 C 0.52485 0.82139 0.02019 0.0
C357 C 0.54462 0.85818 0.05133 0.0
C358 C 0.49969 0.89558 0.95459 0.0
C359 C 0.47643 0.85895 0.92492 0.0
N360 N 0.45835 0.78762 0.933 0.0
N361 N 0.54682 0.93062 0.05087 0.0
C362 C 0.48717 0.82204 0.95859 0.0
C363 C 0.53086 0.89542 0.01915 0.0
N364 N 0.54385 0.78546 0.04882 0.0
N365 N 0.49315 0.93032 0.92036 0.0
H366 H 0.56942 0.93119 0.0978 0.0
H367 H 0.53399 0.95907 0.03251 0.0
H368 H 0.47062 0.93107 0.87341 0.0
H369 H 0.51405 0.95753 0.93655 0.0
H370 H 0.53844 0.75783 0.02577 0.0
H371 H 0.5687 0.78334 0.09487 0.0
H372 H 0.45501 0.76183 0.95912 0.0
H373 H 0.43235 0.78594 0.88737 0.0
C374 C 0.52172 0.16071 0.02738 0.0
C375 C 0.52667 0.12442 0.06278 0.0
C376 C 0.47571 0.08792 0.96679 0.0
C377 C 0.46577 0.12487 0.93309 0.0
N378 N 0.46853 0.19765 0.93651 0.0
N379 N 0.50217 0.05395 0.06746 0.0
C380 C 0.48645 0.16149 0.96464 0.0
C381 C 0.50215 0.08808 0.03261 0.0
N382 N 0.55278 0.19454 0.05258 0.0
N383 N 0.46092 0.05252 0.93532 0.0
H384 H 0.52045 0.05323 0.11536 0.0
H385 H 0.47961 0.02738 0.05034 0.0
H386 H 0.44247 0.05157 0.88744 0.0
H387 H 0.47154 0.02421 0.95518 0.0
H388 H 0.55801 0.21988 0.02617 0.0
H389 H 0.57789 0.19636 0.09844 0.0
H390 H 0.47327 0.2248 0.96087 0.0
H391 H 0.44292 0.20038 0.89091 0.0
C392 C 0.23181 0.5142 0.30391 0.0
C393 C 0.17579 0.53535 0.2784 0.0
C394 C 0.11894 0.47213 0.25321 0.0
C395 C 0.17523 0.45086 0.2776 0.0
N396 N 0.28106 0.4498 0.33758 0.0
N397 N 0.06305 0.53545 0.24249 0.0
C398 C 0.23044 0.47141 0.30691 0.0
C399 C 0.11825 0.51462 0.25833 0.0
N400 N 0.28632 0.53512 0.32346 0.0
N401 N 0.06751 0.45211 0.22052 0.0
H402 H 0.06002 0.56677 0.24152 0.0
H403 H 0.01932 0.52167 0.23504 0.0
H404 H 0.06511 0.42087 0.21581 0.0
H405 H 0.0285 0.46653 0.1938 0.0
H406 H 0.3302 0.52162 0.33604 0.0
H407 H 0.28779 0.56659 0.32499 0.0
H408 H 0.32134 0.4628 0.36417 0.0
H409 H 0.28068 0.41837 0.34039 0.0
C410 C 0.85827 0.51871 0.66985 0.0
C411 C 0.80259 0.53934 0.6736 0.0
C412 C 0.75042 0.47387 0.67339 0.0
C413 C 0.81029 0.45524 0.69075 0.0
N414 N 0.92343 0.46199 0.70926 0.0
N415 N 0.69066 0.53647 0.65918 0.0
C416 C 0.86495 0.4779 0.68878 0.0
C417 C 0.7467 0.51674 0.66848 0.0
N418 N 0.90399 0.53759 0.64716 0.0
N419 N 0.69781 0.45047 0.66084 0.0
H420 H 0.6868 0.56713 0.64806 0.0
H421 H 0.64869 0.52282 0.66246 0.0
H422 H 0.69978 0.41902 0.6619 0.0
H423 H 0.6529 0.46175 0.6442 0.0
H424 H 0.94401 0.52267 0.64051 0.0
H425 H 0.89708 0.56593 0.62617 0.0
H426 H 0.96394 0.47932 0.71402 0.0
H427 H 0.93181 0.43302 0.72741 0.0
C428 C 0.62806 0.97421 0.29833 0.0
C429 C 0.68342 0.95266 0.29531 0.0
C430 C 0.74526 0.01436 0.31951 0.0
C431 C 0.68846 0.03617 0.31292 0.0
N432 N 0.58683 0.03374 0.3385 0.0
N433 N 0.79602 0.9487 0.32379 0.0
C434 C 0.63324 0.01511 0.31648 0.0
C435 C 0.74281 0.97165 0.31297 0.0
N436 N 0.57034 0.95696 0.27977 0.0
N437 N 0.80072 0.03478 0.33179 0.0
H438 H 0.79477 0.91726 0.32144 0.0
H439 H 0.8409 0.96013 0.33939 0.0
H440 H 0.80298 0.06529 0.34387 0.0
H441 H 0.84386 0.0219 0.33086 0.0
H442 H 0.52892 0.97337 0.27525 0.0
H443 H 0.56343 0.92744 0.26366 0.0
H444 H 0.54711 0.01861 0.34533 0.0
H445 H 0.59283 0.06237 0.35854 0.0
C446 C 0.27592 0.97269 0.65466 0.0
C447 C 0.33304 0.95301 0.68121 0.0
C448 C 0.38825 0.01705 0.68206 0.0
C449 C 0.33017 0.03751 0.67414 0.0
N450 N 0.21834 0.03601 0.63898 0.0
N451 N 0.44492 0.95725 0.72339 0.0
C452 C 0.27373 0.01557 0.65495 0.0
C453 C 0.38997 0.97512 0.69437 0.0
N454 N 0.2242 0.95018 0.63016 0.0
N455 N 0.44154 0.03724 0.67795 0.0
H456 H 0.44925 0.92676 0.73477 0.0
H457 H 0.48556 0.9736 0.74097 0.0
H458 H 0.44138 0.06709 0.66334 0.0
H459 H 0.48414 0.0227 0.67965 0.0
H460 H 0.18185 0.96239 0.60654 0.0
H461 H 0.22562 0.91871 0.62902 0.0
H462 H 0.1746 0.02227 0.63131 0.0
H463 H 0.21676 0.06737 0.63444 0.0
C464 C 0.21408 0.22528 0.52883 0.0
C465 C 0.2789 0.22803 0.55621 0.0
C466 C 0.29122 0.27769 0.47707 0.0
C467 C 0.22637 0.27456 0.44946 0.0
N468 N 0.12337 0.25486 0.46077 0.0
N469 N 0.38178 0.25069 0.54944 0.0
C470 C 0.18688 0.25119 0.47876 0.0
C471 C 0.31835 0.25258 0.52847 0.0
N472 N 0.17921 0.19601 0.54889 0.0
N473 N 0.32603 0.30616 0.45498 0.0
H474 H 0.40337 0.23276 0.5868 0.0
H475 H 0.41358 0.26434 0.52699 0.0
H476 H 0.3062 0.32582 0.41895 0.0
H477 H 0.37221 0.31309 0.47571 0.0
H478 H 0.1335 0.18908 0.52638 0.0
H479 H 0.19869 0.17554 0.58385 0.0
H480 H 0.09249 0.24187 0.48505 0.0
H481 H 0.10137 0.27448 0.42593 0.0
C482 C 0.69976 0.26985 0.51809 0.0
C483 C 0.76534 0.2699 0.54375 0.0
C484 C 0.78115 0.22387 0.461 0.0
C485 C 0.71559 0.22306 0.43649 0.0
N486 N 0.61127 0.24055 0.44523 0.0
N487 N 0.86963 0.25558 0.5295 0.0
C488 C 0.67448 0.24473 0.46612 0.0
C489 C 0.8065 0.24945 0.51227 0.0
N490 N 0.66235 0.29574 0.54201 0.0
N491 N 0.81888 0.19854 0.43643 0.0
H492 H 0.89059 0.27417 0.56606 0.0
H493 H 0.90135 0.24522 0.50401 0.0
H494 H 0.80122 0.17877 0.39996 0.0
H495 H 0.8662 0.19403 0.45571 0.0
H496 H 0.61495 0.30016 0.5232 0.0
H497 H 0.68054 0.31598 0.57766 0.0
H498 H 0.57814 0.25234 0.46783 0.0
H499 H 0.59164 0.2226 0.40712 0.0
C500 C 0.71224 0.72159 0.45193 0.0
C501 C 0.70812 0.76416 0.44129 0.0
C502 C 0.76227 0.77549 0.54943 0.0
C503 C 0.76356 0.7329 0.56081 0.0
N504 N 0.72261 0.66723 0.52693 0.0
N505 N 0.71764 0.83139 0.48295 0.0
C506 C 0.73359 0.70645 0.51325 0.0
C507 C 0.7289 0.79099 0.49124 0.0
N508 N 0.69768 0.69527 0.40318 0.0
N509 N 0.79542 0.80122 0.59294 0.0
H510 H 0.69501 0.84381 0.44047 0.0
H511 H 0.72541 0.85213 0.51933 0.0
H512 H 0.8205 0.79211 0.63647 0.0
H513 H 0.80274 0.83148 0.58404 0.0
H514 H 0.70791 0.66456 0.40735 0.0
H515 H 0.67933 0.70426 0.35763 0.0
H516 H 0.69455 0.6479 0.4954 0.0
H517 H 0.73586 0.65505 0.57154 0.0
C518 C 0.31274 0.7328 0.5268 0.0
C519 C 0.27574 0.7608 0.55172 0.0
C520 C 0.18963 0.75046 0.46093 0.0
C521 C 0.22375 0.71868 0.43998 0.0
N522 N 0.31426 0.6754 0.45884 0.0
N523 N 0.1764 0.79378 0.54574 0.0
C524 C 0.2843 0.70863 0.47492 0.0
C525 C 0.21322 0.76858 0.51991 0.0
N526 N 0.37537 0.72979 0.55179 0.0
N527 N 0.13724 0.76569 0.42264 0.0
H528 H 0.19368 0.81063 0.5858 0.0
H529 H 0.12823 0.79642 0.52901 0.0
H530 H 0.11998 0.75445 0.37838 0.0
H531 H 0.11444 0.79175 0.43226 0.0
H532 H 0.40596 0.71332 0.53111 0.0
H533 H 0.39785 0.74678 0.58993 0.0
H534 H 0.35602 0.66423 0.48565 0.0
H535 H 0.29402 0.65671 0.42176 0.0
C536 C 0.28586 0.2162 0.06028 0.0
C537 C 0.22821 0.23501 0.06148 0.0
C538 C 0.19729 0.23557 0.94892 0.0
C539 C 0.25483 0.21631 0.94757 0.0
N540 N 0.34683 0.17957 -0.00033 0.0
N541 N 0.12349 0.25464 0.0116 0.0
C542 C 0.29697 0.20377 0.00261 0.0
C543 C 0.18188 0.24202 0.00706 0.0
N544 N 0.33086 0.21196 0.11378 0.0
N545 N 0.15824 0.24811 0.89494 0.0
H546 H 0.11135 0.25916 0.05442 0.0
H547 H 0.08574 0.25721 0.97381 0.0
H548 H 0.16742 0.24301 0.85106 0.0
H549 H 0.11853 0.26571 0.89348 0.0
H550 H 0.37695 0.20375 0.1144 0.0
H551 H 0.32297 0.21878 0.15769 0.0
H552 H 0.37516 0.16598 0.03845 0.0
H553 H 0.35705 0.17051 0.95774 0.0
C554 C 0.7185 0.25769 0.02209 0.0
C555 C 0.728 0.21625 0.03591 0.0
C556 C 0.79237 0.21086 0.95779 0.0
C557 C 0.78205 0.25262 0.94551 0.0
N558 N 0.76872 0.31666 0.99302 0.0
N559 N 0.78404 0.15395 0.02395 0.0
C560 C 0.75563 0.27647 0.98621 0.0
C561 C 0.76694 0.19253 0.00513 0.0
N562 N 0.67418 0.27924 0.04338 0.0
N563 N 0.82922 0.18932 0.92677 0.0
H564 H 0.76919 0.13856 0.05915 0.0
H565 H 0.81784 0.13737 0.00815 0.0
H566 H 0.86218 0.20315 0.9059 0.0
H567 H 0.8286 0.158 0.92329 0.0
H568 H 0.66347 0.30913 0.03041 0.0
H569 H 0.64398 0.26598 0.06831 0.0
H570 H 0.75293 0.3346 0.02542 0.0
H571 H 0.80241 0.33029 0.9727 0.0
C572 C 0.83825 0.74754 -0.00102 0.0
C573 C 0.80243 0.7141 0.97064 0.0
C574 C 0.76473 0.70244 0.06548 0.0
C575 C 0.78631 0.74112 0.08539 0.0
N576 N 0.87459 0.7852 0.0941 0.0
N577 N 0.72591 0.66115 0.9766 0.0
C578 C 0.83275 0.75937 0.05911 0.0
C579 C 0.76521 0.69118 0.00414 0.0
N580 N 0.87558 0.76875 0.96806 0.0
N581 N 0.74745 0.67575 0.10593 0.0
H582 H 0.71958 0.65261 0.93023 0.0
H583 H 0.69346 0.64752 -0.0016 0.0
H584 H 0.7547 0.68159 0.15353 0.0
H585 H 0.73583 0.64584 0.09426 0.0
H586 H 0.89579 0.79638 0.98329 0.0
H587 H 0.88473 0.75965 0.92572 0.0
H588 H 0.9132 0.79718 0.07993 0.0
H589 H 0.87518 0.78993 0.14101 0.0
C590 C 0.27026 0.77621 0.05715 0.0
C591 C 0.21933 0.74959 0.05418 0.0
C592 C 0.19861 0.74764 0.9414 0.0
C593 C 0.25454 0.76984 0.94469 0.0
N594 N 0.34332 0.80675 0.00276 0.0
N595 N 0.13374 0.71007 -0.00287 0.0
C596 C 0.28998 0.78503 0.00175 0.0
C597 C 0.18261 0.73573 -0.00278 0.0
N598 N 0.29973 0.79256 0.11292 0.0
N599 N 0.15975 0.7394 0.88517 0.0
H600 H 0.11788 0.70359 0.03741 0.0
H601 H 0.11067 0.69409 0.95819 0.0
H602 H 0.17035 0.74683 0.84269 0.0
H603 H 0.11471 0.72788 0.88028 0.0
H604 H 0.33376 0.8149 0.11772 0.0
H605 H 0.28713 0.78595 0.15484 0.0
H606 H 0.37554 0.81464 0.04306 0.0
H607 H 0.35733 0.81554 0.9625 0.0
loop_
_geom_bond_atom_site_label_1
_geom_bond_atom_site_label_2
_geom_bond_distance
_geom_bond_site_symmetry_2
_ccdc_geom_bond_type
Sc0 O3 2.025 . S
Sc0 O10 2.105 . S
Sc0 O13 2.105 . S
Sc0 O16 2.105 . S
Sc0 O19 2.105 . S
Sc1 O3 2.025 . S
Sc1 O11 2.105 . S
Sc1 O15 2.105 . S
Sc1 O17 2.105 . S
Sc1 O21 2.105 . S
Sc2 O3 2.025 . S
Sc2 O12 2.105 . S
Sc2 O14 2.105 . S
Sc2 O18 2.105 . S
Sc2 O20 2.105 . S
O3 Sc0 2.025 . S
O3 Sc1 2.025 . S
O3 Sc2 2.025 . S
C4 O10 1.268 . S
C4 O20 1.268 . S
C5 O11 1.268 . S
C5 O19 1.268 . S
C6 O12 1.268 . S
C6 O21 1.268 . S
C7 O13 1.268 . S
C7 O17 1.268 . S
C8 O14 1.268 . S
C8 O16 1.268 . S
C9 O15 1.268 . S
C9 O18 1.268 . S
O10 Sc0 2.105 . S
O10 C4 1.268 . S
O11 Sc1 2.105 . S
O11 C5 1.268 . S
O12 Sc2 2.105 . S
O12 C6 1.268 . S
O13 Sc0 2.105 . S
O13 C7 1.268 . S
O14 Sc2 2.105 . S
O14 C8 1.268 . S
O15 Sc1 2.105 . S
O15 C9 1.268 . S
O16 Sc0 2.105 . S
O16 C8 1.268 . S
O17 Sc1 2.105 . S
O17 C7 1.268 . S
O18 Sc2 2.105 . S
O18 C9 1.268 . S
O19 Sc0 2.105 . S
O19 C5 1.268 . S
O20 Sc2 2.105 . S
O20 C4 1.268 . S
O21 Sc1 2.105 . S
O21 C6 1.268 . S
Sc22 O25 2.025 . S
Sc22 O32 2.105 . S
Sc22 O35 2.105 . S
Sc22 O38 2.105 . S
Sc22 O41 2.105 . S
Sc23 O25 2.025 . S
Sc23 O33 2.105 . S
Sc23 O37 2.105 . S
Sc23 O39 2.105 . S
Sc23 O43 2.105 . S
Sc24 O25 2.025 . S
Sc24 O34 2.105 . S
Sc24 O36 2.105 . S
Sc24 O40 2.105 . S
Sc24 O42 2.105 . S
O25 Sc22 2.025 . S
O25 Sc23 2.025 . S
O25 Sc24 2.025 . S
C26 O32 1.268 . S
C26 O42 1.268 . S
C27 O33 1.268 . S
C27 O41 1.268 . S
C28 O34 1.268 . S
C28 O43 1.268 . S
C29 O35 1.268 . S
C29 O39 1.268 . S
C30 O36 1.268 . S
C30 O38 1.268 . S
C31 O37 1.268 . S
C31 O40 1.268 . S
O32 Sc22 2.105 . S
O32 C26 1.268 . S
O33 Sc23 2.105 . S
O33 C27 1.268 . S
O34 Sc24 2.105 . S
O34 C28 1.268 . S
O35 Sc22 2.105 . S
O35 C29 1.268 . S
O36 Sc24 2.105 . S
O36 C30 1.268 . S
O37 Sc23 2.105 . S
O37 C31 1.268 . S
O38 Sc22 2.105 . S
O38 C30 1.268 . S
O39 Sc23 2.105 . S
O39 C29 1.268 . S
O40 Sc24 2.105 . S
O40 C31 1.268 . S
O41 Sc22 2.105 . S
O41 C27 1.268 . S
O42 Sc24 2.105 . S
O42 C26 1.268 . S
O43 Sc23 2.105 . S
O43 C28 1.268 . S
Sc44 O47 2.025 . S
Sc44 O54 2.105 . S
Sc44 O57 2.105 . S
Sc44 O60 2.105 . S
Sc44 O63 2.105 . S
Sc45 O47 2.025 . S
Sc45 O55 2.105 . S
Sc45 O59 2.105 . S
Sc45 O61 2.105 . S
Sc45 O65 2.105 . S
Sc46 O47 2.025 . S
Sc46 O56 2.105 . S
Sc46 O58 2.105 . S
Sc46 O62 2.105 . S
Sc46 O64 2.105 . S
O47 Sc44 2.025 . S
O47 Sc45 2.025 . S
O47 Sc46 2.025 . S
C48 O54 1.268 . S
C48 O64 1.268 . S
C49 O55 1.268 . S
C49 O63 1.268 . S
C50 O56 1.268 . S
C50 O65 1.268 . S
C51 O57 1.268 . S
C51 O61 1.268 . S
C52 O58 1.268 . S
C52 O60 1.268 . S
C53 O59 1.268 . S
C53 O62 1.268 . S
O54 Sc44 2.105 . S
O54 C48 1.268 . S
O55 Sc45 2.105 . S
O55 C49 1.268 . S
O56 Sc46 2.105 . S
O56 C50 1.268 . S
O57 Sc44 2.105 . S
O57 C51 1.268 . S
O58 Sc46 2.105 . S
O58 C52 1.268 . S
O59 Sc45 2.105 . S
O59 C53 1.268 . S
O60 Sc44 2.105 . S
O60 C52 1.268 . S
O61 Sc45 2.105 . S
O61 C51 1.268 . S
O62 Sc46 2.105 . S
O62 C53 1.268 . S
O63 Sc44 2.105 . S
O63 C49 1.268 . S
O64 Sc46 2.105 . S
O64 C48 1.268 . S
O65 Sc45 2.105 . S
O65 C50 1.268 . S
Sc66 O69 2.025 . S
Sc66 O76 2.105 . S
Sc66 O79 2.105 . S
Sc66 O82 2.105 . S
Sc66 O85 2.105 . S
Sc67 O69 2.025 . S
Sc67 O77 2.105 . S
Sc67 O81 2.105 . S
Sc67 O83 2.105 . S
Sc67 O87 2.105 . S
Sc68 O69 2.025 . S
Sc68 O78 2.105 . S
Sc68 O80 2.105 . S
Sc68 O84 2.105 . S
Sc68 O86 2.105 . S
O69 Sc66 2.025 . S
O69 Sc67 2.025 . S
O69 Sc68 2.025 . S
C70 O76 1.268 . S
C70 O86 1.268 . S
C71 O77 1.268 . S
C71 O85 1.268 . S
C72 O78 1.268 . S
C72 O87 1.268 . S
C73 O79 1.268 . S
C73 O83 1.268 . S
C74 O80 1.268 . S
C74 O82 1.268 . S
C75 O81 1.268 . S
C75 O84 1.268 . S
O76 Sc66 2.105 . S
O76 C70 1.268 . S
O77 Sc67 2.105 . S
O77 C71 1.268 . S
O78 Sc68 2.105 . S
O78 C72 1.268 . S
O79 Sc66 2.105 . S
O79 C73 1.268 . S
O80 Sc68 2.105 . S
O80 C74 1.268 . S
O81 Sc67 2.105 . S
O81 C75 1.268 . S
O82 Sc66 2.105 . S
O82 C74 1.268 . S
O83 Sc67 2.105 . S
O83 C73 1.268 . S
O84 Sc68 2.105 . S
O84 C75 1.268 . S
O85 Sc66 2.105 . S
O85 C71 1.268 . S
O86 Sc68 2.105 . S
O86 C70 1.268 . S
O87 Sc67 2.105 . S
O87 C72 1.268 . S
Sc88 O91 2.025 . S
Sc88 O98 2.105 . S
Sc88 O101 2.105 . S
Sc88 O104 2.105 . S
Sc88 O107 2.105 . S
Sc89 O91 2.025 . S
Sc89 O99 2.105 . S
Sc89 O103 2.105 . S
Sc89 O105 2.105 . S
Sc89 O109 2.105 . S
Sc90 O91 2.025 . S
Sc90 O100 2.105 . S
Sc90 O102 2.105 . S
Sc90 O106 2.105 . S
Sc90 O108 2.105 . S
O91 Sc88 2.025 . S
O91 Sc89 2.025 . S
O91 Sc90 2.025 . S
C92 O98 1.268 . S
C92 O108 1.268 . S
C93 O99 1.268 . S
C93 O107 1.268 . S
C94 O100 1.268 . S
C94 O109 1.268 . S
C95 O101 1.268 . S
C95 O105 1.268 . S
C96 O102 1.268 . S
C96 O104 1.268 . S
C97 O103 1.268 . S
C97 O106 1.268 . S
O98 Sc88 2.105 . S
O98 C92 1.268 . S
O99 Sc89 2.105 . S
O99 C93 1.268 . S
O100 Sc90 2.105 . S
O100 C94 1.268 . S
O101 Sc88 2.105 . S
O101 C95 1.268 . S
O102 Sc90 2.105 . S
O102 C96 1.268 . S
O103 Sc89 2.105 . S
O103 C97 1.268 . S
O104 Sc88 2.105 . S
O104 C96 1.268 . S
O105 Sc89 2.105 . S
O105 C95 1.268 . S
O106 Sc90 2.105 . S
O106 C97 1.268 . S
O107 Sc88 2.105 . S
O107 C93 1.268 . S
O108 Sc90 2.105 . S
O108 C92 1.268 . S
O109 Sc89 2.105 . S
O109 C94 1.268 . S
Sc110 O113 2.025 . S
Sc110 O120 2.105 . S
Sc110 O123 2.105 . S
Sc110 O126 2.105 . S
Sc110 O129 2.105 . S
Sc111 O113 2.025 . S
Sc111 O121 2.105 . S
Sc111 O125 2.105 . S
Sc111 O127 2.105 . S
Sc111 O131 2.105 . S
Sc112 O113 2.025 . S
Sc112 O122 2.105 . S
Sc112 O124 2.105 . S
Sc112 O128 2.105 . S
Sc112 O130 2.105 . S
O113 Sc110 2.025 . S
O113 Sc111 2.025 . S
O113 Sc112 2.025 . S
C114 O120 1.268 . S
C114 O130 1.268 . S
C115 O121 1.268 . S
C115 O129 1.268 . S
C116 O122 1.268 . S
C116 O131 1.268 . S
C117 O123 1.268 . S
C117 O127 1.268 . S
C118 O124 1.268 . S
C118 O126 1.268 . S
C119 O125 1.268 . S
C119 O128 1.268 . S
O120 Sc110 2.105 . S
O120 C114 1.268 . S
O121 Sc111 2.105 . S
O121 C115 1.268 . S
O122 Sc112 2.105 . S
O122 C116 1.268 . S
O123 Sc110 2.105 . S
O123 C117 1.268 . S
O124 Sc112 2.105 . S
O124 C118 1.268 . S
O125 Sc111 2.105 . S
O125 C119 1.268 . S
O126 Sc110 2.105 . S
O126 C118 1.268 . S
O127 Sc111 2.105 . S
O127 C117 1.268 . S
O128 Sc112 2.105 . S
O128 C119 1.268 . S
O129 Sc110 2.105 . S
O129 C115 1.268 . S
O130 Sc112 2.105 . S
O130 C114 1.268 . S
O131 Sc111 2.105 . S
O131 C116 1.268 . S
Sc132 O135 2.025 . S
Sc132 O142 2.105 . S
Sc132 O145 2.105 . S
Sc132 O148 2.105 . S
Sc132 O151 2.105 . S
Sc133 O135 2.025 . S
Sc133 O143 2.105 . S
Sc133 O147 2.105 . S
Sc133 O149 2.105 . S
Sc133 O153 2.105 . S
Sc134 O135 2.025 . S
Sc134 O144 2.105 . S
Sc134 O146 2.105 . S
Sc134 O150 2.105 . S
Sc134 O152 2.105 . S
O135 Sc132 2.025 . S
O135 Sc133 2.025 . S
O135 Sc134 2.025 . S
C136 O142 1.268 . S
C136 O152 1.268 . S
C137 O143 1.268 . S
C137 O151 1.268 . S
C138 O144 1.268 . S
C138 O153 1.268 . S
C139 O145 1.268 . S
C139 O149 1.268 . S
C140 O146 1.268 . S
C140 O148 1.268 . S
C141 O147 1.268 . S
C141 O150 1.268 . S
O142 Sc132 2.105 . S
O142 C136 1.268 . S
O143 Sc133 2.105 . S
O143 C137 1.268 . S
O144 Sc134 2.105 . S
O144 C138 1.268 . S
O145 Sc132 2.105 . S
O145 C139 1.268 . S
O146 Sc134 2.105 . S
O146 C140 1.268 . S
O147 Sc133 2.105 . S
O147 C141 1.268 . S
O148 Sc132 2.105 . S
O148 C140 1.268 . S
O149 Sc133 2.105 . S
O149 C139 1.268 . S
O150 Sc134 2.105 . S
O150 C141 1.268 . S
O151 Sc132 2.105 . S
O151 C137 1.268 . S
O152 Sc134 2.105 . S
O152 C136 1.268 . S
O153 Sc133 2.105 . S
O153 C138 1.268 . S
Sc154 O157 2.025 . S
Sc154 O164 2.105 . S
Sc154 O167 2.105 . S
Sc154 O170 2.105 . S
Sc154 O173 2.105 . S
Sc155 O157 2.025 . S
Sc155 O165 2.105 . S
Sc155 O169 2.105 . S
Sc155 O171 2.105 . S
Sc155 O175 2.105 . S
Sc156 O157 2.025 . S
Sc156 O166 2.105 . S
Sc156 O168 2.105 . S
Sc156 O172 2.105 . S
Sc156 O174 2.105 . S
O157 Sc154 2.025 . S
O157 Sc155 2.025 . S
O157 Sc156 2.025 . S
C158 O164 1.268 . S
C158 O174 1.268 . S
C159 O165 1.268 . S
C159 O173 1.268 . S
C160 O166 1.268 . S
C160 O175 1.268 . S
C161 O167 1.268 . S
C161 O171 1.268 . S
C162 O168 1.268 . S
C162 O170 1.268 . S
C163 O169 1.268 . S
C163 O172 1.268 . S
O164 Sc154 2.105 . S
O164 C158 1.268 . S
O165 Sc155 2.105 . S
O165 C159 1.268 . S
O166 Sc156 2.105 . S
O166 C160 1.268 . S
O167 Sc154 2.105 . S
O167 C161 1.268 . S
O168 Sc156 2.105 . S
O168 C162 1.268 . S
O169 Sc155 2.105 . S
O169 C163 1.268 . S
O170 Sc154 2.105 . S
O170 C162 1.268 . S
O171 Sc155 2.105 . S
O171 C161 1.268 . S
O172 Sc156 2.105 . S
O172 C163 1.268 . S
O173 Sc154 2.105 . S
O173 C159 1.268 . S
O174 Sc156 2.105 . S
O174 C158 1.268 . S
O175 Sc155 2.105 . S
O175 C160 1.268 . S
C176 C177 1.363 . S
C176 C182 1.379 . S
C176 N184 1.356 . S
C177 C176 1.363 . S
C177 C183 1.363 . S
C178 C179 1.363 . S
C178 C183 1.379 . S
C178 N185 1.356 . S
C179 C178 1.363 . S
C179 C182 1.363 . S
N180 C182 1.356 . S
N180 H192 0.984 . S
N180 H193 0.985 . S
N181 C183 1.356 . S
N181 H186 0.984 . S
N181 H187 0.985 . S
C182 C176 1.379 . S
C182 C179 1.363 . S
C182 N180 1.356 . S
C183 C177 1.363 . S
C183 C178 1.379 . S
C183 N181 1.356 . S
N184 C176 1.356 . S
N184 H190 0.984 . S
N184 H191 0.984 . S
N185 C178 1.356 . S
N185 H188 0.984 . S
N185 H189 0.985 . S
H186 N181 0.984 . S
H187 N181 0.985 . S
H188 N185 0.984 . S
H189 N185 0.985 . S
H190 N184 0.984 . S
H191 N184 0.984 . S
H192 N180 0.984 . S
H193 N180 0.985 . S
C194 C195 1.363 . S
C194 C200 1.379 . S
C194 N202 1.356 . S
C195 C194 1.363 . S
C195 C201 1.363 . S
C196 C197 1.363 . S
C196 C201 1.379 . S
C196 N203 1.356 . S
C197 C196 1.363 . S
C197 C200 1.363 . S
N198 C200 1.356 . S
N198 H210 0.984 . S
N198 H211 0.985 . S
N199 C201 1.356 . S
N199 H204 0.984 . S
N199 H205 0.985 . S
C200 C194 1.379 . S
C200 C197 1.363 . S
C200 N198 1.356 . S
C201 C195 1.363 . S
C201 C196 1.379 . S
C201 N199 1.356 . S
N202 C194 1.356 . S
N202 H208 0.984 . S
N202 H209 0.984 . S
N203 C196 1.356 . S
N203 H206 0.984 . S
N203 H207 0.985 . S
H204 N199 0.984 . S
H205 N199 0.985 . S
H206 N203 0.984 . S
H207 N203 0.985 . S
H208 N202 0.984 . S
H209 N202 0.984 . S
H210 N198 0.984 . S
H211 N198 0.985 . S
C212 C213 1.363 . S
C212 C218 1.379 . S
C212 N220 1.356 . S
C213 C212 1.363 . S
C213 C219 1.363 . S
C214 C215 1.363 . S
C214 C219 1.379 . S
C214 N221 1.356 . S
C215 C214 1.363 . S
C215 C218 1.363 . S
N216 C218 1.356 . S
N216 H228 0.984 . S
N216 H229 0.985 . S
N217 C219 1.356 . S
N217 H222 0.984 . S
N217 H223 0.985 . S
C218 C212 1.379 . S
C218 C215 1.363 . S
C218 N216 1.356 . S
C219 C213 1.363 . S
C219 C214 1.379 . S
C219 N217 1.356 . S
N220 C212 1.356 . S
N220 H226 0.984 . S
N220 H227 0.984 . S
N221 C214 1.356 . S
N221 H224 0.984 . S
N221 H225 0.985 . S
H222 N217 0.984 . S
H223 N217 0.985 . S
H224 N221 0.984 . S
H225 N221 0.985 . S
H226 N220 0.984 . S
H227 N220 0.984 . S
H228 N216 0.984 . S
H229 N216 0.985 . S
C230 C231 1.363 . S
C230 C236 1.379 . S
C230 N238 1.356 . S
C231 C230 1.363 . S
C231 C237 1.363 . S
C232 C233 1.363 . S
C232 C237 1.379 . S
C232 N239 1.356 . S
C233 C232 1.363 . S
C233 C236 1.363 . S
N234 C236 1.356 . S
N234 H246 0.984 . S
N234 H247 0.985 . S
N235 C237 1.356 . S
N235 H240 0.984 . S
N235 H241 0.985 . S
C236 C230 1.379 . S
C236 C233 1.363 . S
C236 N234 1.356 . S
C237 C231 1.363 . S
C237 C232 1.379 . S
C237 N235 1.356 . S
N238 C230 1.356 . S
N238 H244 0.984 . S
N238 H245 0.984 . S
N239 C232 1.356 . S
N239 H242 0.984 . S
N239 H243 0.985 . S
H240 N235 0.984 . S
H241 N235 0.985 . S
H242 N239 0.984 . S
H243 N239 0.985 . S
H244 N238 0.984 . S
H245 N238 0.984 . S
H246 N234 0.984 . S
H247 N234 0.985 . S
C248 C249 1.363 1_655 S
C248 C254 1.379 . S
C248 N256 1.356 1_655 S
C249 C248 1.363 1_455 S
C249 C255 1.363 . S
C250 C251 1.363 . S
C250 C255 1.379 1_655 S
C250 N257 1.356 . S
C251 C250 1.363 . S
C251 C254 1.363 . S
N252 C254 1.356 . S
N252 H264 0.984 . S
N252 H265 0.985 . S
N253 C255 1.356 . S
N253 H258 0.984 . S
N253 H259 0.985 . S
C254 C248 1.379 . S
C254 C251 1.363 . S
C254 N252 1.356 . S
C255 C249 1.363 . S
C255 C250 1.379 1_455 S
C255 N253 1.356 . S
N256 C248 1.356 1_455 S
N256 H262 0.984 . S
N256 H263 0.984 . S
N257 C250 1.356 . S
N257 H260 0.984 . S
N257 H261 0.985 . S
H258 N253 0.984 . S
H259 N253 0.985 . S
H260 N257 0.984 . S
H261 N257 0.985 . S
H262 N256 0.984 . S
H263 N256 0.984 . S
H264 N252 0.984 . S
H265 N252 0.985 . S
C266 C267 1.363 . S
C266 C272 1.379 1_655 S
C266 N274 1.356 . S
C267 C266 1.363 . S
C267 C273 1.363 . S
C268 C269 1.363 . S
C268 C273 1.379 1_455 S
C268 N275 1.356 . S
C269 C268 1.363 . S
C269 C272 1.363 . S
N270 C272 1.356 . S
N270 H282 0.984 . S
N270 H283 0.985 . S
N271 C273 1.356 . S
N271 H276 0.984 . S
N271 H277 0.985 . S
C272 C266 1.379 1_455 S
C272 C269 1.363 . S
C272 N270 1.356 . S
C273 C267 1.363 . S
C273 C268 1.379 1_655 S
C273 N271 1.356 . S
N274 C266 1.356 . S
N274 H280 0.984 . S
N274 H281 0.984 . S
N275 C268 1.356 . S
N275 H278 0.984 . S
N275 H279 0.985 . S
H276 N271 0.984 . S
H277 N271 0.985 . S
H278 N275 0.984 . S
H279 N275 0.985 . S
H280 N274 0.984 . S
H281 N274 0.984 . S
H282 N270 0.984 . S
H283 N270 0.985 . S
C284 C285 1.363 . S
C284 C290 1.379 1_655 S
C284 N292 1.356 . S
C285 C284 1.363 . S
C285 C291 1.363 . S
C286 C287 1.363 . S
C286 C291 1.379 1_455 S
C286 N293 1.356 . S
C287 C286 1.363 . S
C287 C290 1.363 . S
N288 C290 1.356 . S
N288 H300 0.984 . S
N288 H301 0.985 . S
N289 C291 1.356 . S
N289 H294 0.984 . S
N289 H295 0.985 . S
C290 C284 1.379 1_455 S
C290 C287 1.363 . S
C290 N288 1.356 . S
C291 C285 1.363 . S
C291 C286 1.379 1_655 S
C291 N289 1.356 . S
N292 C284 1.356 . S
N292 H298 0.984 . S
N292 H299 0.984 . S
N293 C286 1.356 . S
N293 H296 0.984 . S
N293 H297 0.985 . S
H294 N289 0.984 . S
H295 N289 0.985 . S
H296 N293 0.984 . S
H297 N293 0.985 . S
H298 N292 0.984 . S
H299 N292 0.984 . S
H300 N288 0.984 . S
H301 N288 0.985 . S
C302 C303 1.363 . S
C302 C308 1.379 1_455 S
C302 N310 1.356 . S
C303 C302 1.363 . S
C303 C309 1.363 1_455 S
C304 C305 1.363 . S
C304 C309 1.379 . S
C304 N311 1.356 . S
C305 C304 1.363 . S
C305 C308 1.363 . S
N306 C308 1.356 . S
N306 H318 0.984 . S
N306 H319 0.985 . S
N307 C309 1.356 1_455 S
N307 H312 0.984 . S
N307 H313 0.985 1_455 S
C308 C302 1.379 1_655 S
C308 C305 1.363 . S
C308 N306 1.356 . S
C309 C303 1.363 1_655 S
C309 C304 1.379 . S
C309 N307 1.356 1_655 S
N310 C302 1.356 . S
N310 H316 0.984 . S
N310 H317 0.984 . S
N311 C304 1.356 . S
N311 H314 0.984 . S
N311 H315 0.985 . S
H312 N307 0.984 . S
H313 N307 0.985 1_655 S
H314 N311 0.984 . S
H315 N311 0.985 . S
H316 N310 0.984 . S
H317 N310 0.984 . S
H318 N306 0.984 . S
H319 N306 0.985 . S
C320 C321 1.363 . S
C320 C326 1.379 1_656 S
C320 N328 1.356 . S
C321 C320 1.363 . S
C321 C327 1.363 . S
C322 C323 1.363 . S
C322 C327 1.379 1_454 S
C322 N329 1.356 . S
C323 C322 1.363 . S
C323 C326 1.363 . S
N324 C326 1.356 . S
N324 H336 0.984 . S
N324 H337 0.985 . S
N325 C327 1.356 . S
N325 H330 0.984 . S
N325 H331 0.985 . S
C326 C320 1.379 1_454 S
C326 C323 1.363 . S
C326 N324 1.356 . S
C327 C321 1.363 . S
C327 C322 1.379 1_656 S
C327 N325 1.356 . S
N328 C320 1.356 . S
N328 H334 0.984 1_655 S
N328 H335 0.984 . S
N329 C322 1.356 . S
N329 H332 0.984 . S
N329 H333 0.985 1_455 S
H330 N325 0.984 . S
H331 N325 0.985 . S
H332 N329 0.984 . S
H333 N329 0.985 1_655 S
H334 N328 0.984 1_455 S
H335 N328 0.984 . S
H336 N324 0.984 . S
H337 N324 0.985 . S
C338 C339 1.363 . S
C338 C344 1.379 1_454 S
C338 N346 1.356 . S
C339 C338 1.363 . S
C339 C345 1.363 . S
C340 C341 1.363 . S
C340 C345 1.379 1_656 S
C340 N347 1.356 . S
C341 C340 1.363 . S
C341 C344 1.363 . S
N342 C344 1.356 . S
N342 H354 0.984 . S
N342 H355 0.985 . S
N343 C345 1.356 . S
N343 H348 0.984 . S
N343 H349 0.985 . S
C344 C338 1.379 1_656 S
C344 C341 1.363 . S
C344 N342 1.356 . S
C345 C339 1.363 . S
C345 C340 1.379 1_454 S
C345 N343 1.356 . S
N346 C338 1.356 . S
N346 H352 0.984 1_455 S
N346 H353 0.984 . S
N347 C340 1.356 . S
N347 H350 0.984 . S
N347 H351 0.985 1_655 S
H348 N343 0.984 . S
H349 N343 0.985 . S
H350 N347 0.984 . S
H351 N347 0.985 1_455 S
H352 N346 0.984 1_655 S
H353 N346 0.984 . S
H354 N342 0.984 . S
H355 N342 0.985 . S
C356 C357 1.363 . S
C356 C362 1.379 1_554 S
C356 N364 1.356 . S
C357 C356 1.363 . S
C357 C363 1.363 . S
C358 C359 1.363 . S
C358 C363 1.379 1_556 S
C358 N365 1.356 . S
C359 C358 1.363 . S
C359 C362 1.363 . S
N360 C362 1.356 . S
N360 H372 0.984 . S
N360 H373 0.985 . S
N361 C363 1.356 . S
N361 H366 0.984 . S
N361 H367 0.985 . S
C362 C356 1.379 1_556 S
C362 C359 1.363 . S
C362 N360 1.356 . S
C363 C357 1.363 . S
C363 C358 1.379 1_554 S
C363 N361 1.356 . S
N364 C356 1.356 . S
N364 H370 0.984 . S
N364 H371 0.984 . S
N365 C358 1.356 . S
N365 H368 0.984 . S
N365 H369 0.985 . S
H366 N361 0.984 . S
H367 N361 0.985 . S
H368 N365 0.984 . S
H369 N365 0.985 . S
H370 N364 0.984 . S
H371 N364 0.984 . S
H372 N360 0.984 . S
H373 N360 0.985 . S
C374 C375 1.363 . S
C374 C380 1.379 1_554 S
C374 N382 1.356 . S
C375 C374 1.363 . S
C375 C381 1.363 . S
C376 C377 1.363 . S
C376 C381 1.379 1_556 S
C376 N383 1.356 . S
C377 C376 1.363 . S
C377 C380 1.363 . S
N378 C380 1.356 . S
N378 H390 0.984 . S
N378 H391 0.985 . S
N379 C381 1.356 . S
N379 H384 0.984 . S
N379 H385 0.985 . S
C380 C374 1.379 1_556 S
C380 C377 1.363 . S
C380 N378 1.356 . S
C381 C375 1.363 . S
C381 C376 1.379 1_554 S
C381 N379 1.356 . S
N382 C374 1.356 . S
N382 H388 0.984 . S
N382 H389 0.984 . S
N383 C376 1.356 . S
N383 H386 0.984 . S
N383 H387 0.985 . S
H384 N379 0.984 . S
H385 N379 0.985 . S
H386 N383 0.984 . S
H387 N383 0.985 . S
H388 N382 0.984 . S
H389 N382 0.984 . S
H390 N378 0.984 . S
H391 N378 0.985 . S
C392 C393 1.363 . S
C392 C398 1.379 . S
C392 N400 1.356 . S
C393 C392 1.363 . S
C393 C399 1.363 . S
C394 C395 1.363 . S
C394 C399 1.379 . S
C394 N401 1.356 . S
C395 C394 1.363 . S
C395 C398 1.363 . S
N396 C398 1.356 . S
N396 H408 0.984 . S
N396 H409 0.985 . S
N397 C399 1.356 . S
N397 H402 0.984 . S
N397 H403 0.985 . S
C398 C392 1.379 . S
C398 C395 1.363 . S
C398 N396 1.356 . S
C399 C393 1.363 . S
C399 C394 1.379 . S
C399 N397 1.356 . S
N400 C392 1.356 . S
N400 H406 0.984 . S
N400 H407 0.984 . S
N401 C394 1.356 . S
N401 H404 0.984 . S
N401 H405 0.985 . S
H402 N397 0.984 . S
H403 N397 0.985 . S
H404 N401 0.984 . S
H405 N401 0.985 . S
H406 N400 0.984 . S
H407 N400 0.984 . S
H408 N396 0.984 . S
H409 N396 0.985 . S
C410 C411 1.363 . S
C410 C416 1.379 . S
C410 N418 1.356 . S
C411 C410 1.363 . S
C411 C417 1.363 . S
C412 C413 1.363 . S
C412 C417 1.379 . S
C412 N419 1.356 . S
C413 C412 1.363 . S
C413 C416 1.363 . S
N414 C416 1.356 . S
N414 H426 0.984 . S
N414 H427 0.985 . S
N415 C417 1.356 . S
N415 H420 0.984 . S
N415 H421 0.985 . S
C416 C410 1.379 . S
C416 C413 1.363 . S
C416 N414 1.356 . S
C417 C411 1.363 . S
C417 C412 1.379 . S
C417 N415 1.356 . S
N418 C410 1.356 . S
N418 H424 0.984 . S
N418 H425 0.984 . S
N419 C412 1.356 . S
N419 H422 0.984 . S
N419 H423 0.985 . S
H420 N415 0.984 . S
H421 N415 0.985 . S
H422 N419 0.984 . S
H423 N419 0.985 . S
H424 N418 0.984 . S
H425 N418 0.984 . S
H426 N414 0.984 . S
H427 N414 0.985 . S
C428 C429 1.363 . S
C428 C434 1.379 1_565 S
C428 N436 1.356 . S
C429 C428 1.363 . S
C429 C435 1.363 . S
C430 C431 1.363 . S
C430 C435 1.379 1_545 S
C430 N437 1.356 . S
C431 C430 1.363 . S
C431 C434 1.363 . S
N432 C434 1.356 . S
N432 H444 0.984 . S
N432 H445 0.985 . S
N433 C435 1.356 . S
N433 H438 0.984 . S
N433 H439 0.985 . S
C434 C428 1.379 1_545 S
C434 C431 1.363 . S
C434 N432 1.356 . S
C435 C429 1.363 . S
C435 C430 1.379 1_565 S
C435 N433 1.356 . S
N436 C428 1.356 . S
N436 H442 0.984 . S
N436 H443 0.984 . S
N437 C430 1.356 . S
N437 H440 0.984 . S
N437 H441 0.985 . S
H438 N433 0.984 . S
H439 N433 0.985 . S
H440 N437 0.984 . S
H441 N437 0.985 . S
H442 N436 0.984 . S
H443 N436 0.984 . S
H444 N432 0.984 . S
H445 N432 0.985 . S
C446 C447 1.363 . S
C446 C452 1.379 1_565 S
C446 N454 1.356 . S
C447 C446 1.363 . S
C447 C453 1.363 . S
C448 C449 1.363 . S
C448 C453 1.379 1_545 S
C448 N455 1.356 . S
C449 C448 1.363 . S
C449 C452 1.363 . S
N450 C452 1.356 . S
N450 H462 0.984 . S
N450 H463 0.985 . S
N451 C453 1.356 . S
N451 H456 0.984 . S
N451 H457 0.985 . S
C452 C446 1.379 1_545 S
C452 C449 1.363 . S
C452 N450 1.356 . S
C453 C447 1.363 . S
C453 C448 1.379 1_565 S
C453 N451 1.356 . S
N454 C446 1.356 . S
N454 H460 0.984 . S
N454 H461 0.984 . S
N455 C448 1.356 . S
N455 H458 0.984 . S
N455 H459 0.985 . S
H456 N451 0.984 . S
H457 N451 0.985 . S
H458 N455 0.984 . S
H459 N455 0.985 . S
H460 N454 0.984 . S
H461 N454 0.984 . S
H462 N450 0.984 . S
H463 N450 0.985 . S
C464 C465 1.363 . S
C464 C470 1.379 . S
C464 N472 1.356 . S
C465 C464 1.363 . S
C465 C471 1.363 . S
C466 C467 1.363 . S
C466 C471 1.379 . S
C466 N473 1.356 . S
C467 C466 1.363 . S
C467 C470 1.363 . S
N468 C470 1.356 . S
N468 H480 0.984 . S
N468 H481 0.985 . S
N469 C471 1.356 . S
N469 H474 0.984 . S
N469 H475 0.985 . S
C470 C464 1.379 . S
C470 C467 1.363 . S
C470 N468 1.356 . S
C471 C465 1.363 . S
C471 C466 1.379 . S
C471 N469 1.356 . S
N472 C464 1.356 . S
N472 H478 0.984 . S
N472 H479 0.984 . S
N473 C466 1.356 . S
N473 H476 0.984 . S
N473 H477 0.985 . S
H474 N469 0.984 . S
H475 N469 0.985 . S
H476 N473 0.984 . S
H477 N473 0.985 . S
H478 N472 0.984 . S
H479 N472 0.984 . S
H480 N468 0.984 . S
H481 N468 0.985 . S
C482 C483 1.363 . S
C482 C488 1.379 . S
C482 N490 1.356 . S
C483 C482 1.363 . S
C483 C489 1.363 . S
C484 C485 1.363 . S
C484 C489 1.379 . S
C484 N491 1.356 . S
C485 C484 1.363 . S
C485 C488 1.363 . S
N486 C488 1.356 . S
N486 H498 0.984 . S
N486 H499 0.985 . S
N487 C489 1.356 . S
N487 H492 0.984 . S
N487 H493 0.985 . S
C488 C482 1.379 . S
C488 C485 1.363 . S
C488 N486 1.356 . S
C489 C483 1.363 . S
C489 C484 1.379 . S
C489 N487 1.356 . S
N490 C482 1.356 . S
N490 H496 0.984 . S
N490 H497 0.984 . S
N491 C484 1.356 . S
N491 H494 0.984 . S
N491 H495 0.985 . S
H492 N487 0.984 . S
H493 N487 0.985 . S
H494 N491 0.984 . S
H495 N491 0.985 . S
H496 N490 0.984 . S
H497 N490 0.984 . S
H498 N486 0.984 . S
H499 N486 0.985 . S
C500 C501 1.363 . S
C500 C506 1.379 . S
C500 N508 1.356 . S
C501 C500 1.363 . S
C501 C507 1.363 . S
C502 C503 1.363 . S
C502 C507 1.379 . S
C502 N509 1.356 . S
C503 C502 1.363 . S
C503 C506 1.363 . S
N504 C506 1.356 . S
N504 H516 0.984 . S
N504 H517 0.985 . S
N505 C507 1.356 . S
N505 H510 0.984 . S
N505 H511 0.985 . S
C506 C500 1.379 . S
C506 C503 1.363 . S
C506 N504 1.356 . S
C507 C501 1.363 . S
C507 C502 1.379 . S
C507 N505 1.356 . S
N508 C500 1.356 . S
N508 H514 0.984 . S
N508 H515 0.984 . S
N509 C502 1.356 . S
N509 H512 0.984 . S
N509 H513 0.985 . S
H510 N505 0.984 . S
H511 N505 0.985 . S
H512 N509 0.984 . S
H513 N509 0.985 . S
H514 N508 0.984 . S
H515 N508 0.984 . S
H516 N504 0.984 . S
H517 N504 0.985 . S
C518 C519 1.363 . S
C518 C524 1.379 . S
C518 N526 1.356 . S
C519 C518 1.363 . S
C519 C525 1.363 . S
C520 C521 1.363 . S
C520 C525 1.379 . S
C520 N527 1.356 . S
C521 C520 1.363 . S
C521 C524 1.363 . S
N522 C524 1.356 . S
N522 H534 0.984 . S
N522 H535 0.985 . S
N523 C525 1.356 . S
N523 H528 0.984 . S
N523 H529 0.985 . S
C524 C518 1.379 . S
C524 C521 1.363 . S
C524 N522 1.356 . S
C525 C519 1.363 . S
C525 C520 1.379 . S
C525 N523 1.356 . S
N526 C518 1.356 . S
N526 H532 0.984 . S
N526 H533 0.984 . S
N527 C520 1.356 . S
N527 H530 0.984 . S
N527 H531 0.985 . S
H528 N523 0.984 . S
H529 N523 0.985 . S
H530 N527 0.984 . S
H531 N527 0.985 . S
H532 N526 0.984 . S
H533 N526 0.984 . S
H534 N522 0.984 . S
H535 N522 0.985 . S
C536 C537 1.363 . S
C536 C542 1.379 1_554 S
C536 N544 1.356 . S
C537 C536 1.363 . S
C537 C543 1.363 . S
C538 C539 1.363 . S
C538 C543 1.379 1_556 S
C538 N545 1.356 . S
C539 C538 1.363 . S
C539 C542 1.363 . S
N540 C542 1.356 . S
N540 H552 0.984 . S
N540 H553 0.985 . S
N541 C543 1.356 . S
N541 H546 0.984 . S
N541 H547 0.985 . S
C542 C536 1.379 1_556 S
C542 C539 1.363 . S
C542 N540 1.356 . S
C543 C537 1.363 . S
C543 C538 1.379 1_554 S
C543 N541 1.356 . S
N544 C536 1.356 . S
N544 H550 0.984 . S
N544 H551 0.984 . S
N545 C538 1.356 . S
N545 H548 0.984 . S
N545 H549 0.985 . S
H546 N541 0.984 . S
H547 N541 0.985 . S
H548 N545 0.984 . S
H549 N545 0.985 . S
H550 N544 0.984 . S
H551 N544 0.984 . S
H552 N540 0.984 . S
H553 N540 0.985 . S
C554 C555 1.363 . S
C554 C560 1.379 1_554 S
C554 N562 1.356 . S
C555 C554 1.363 . S
C555 C561 1.363 . S
C556 C557 1.363 . S
C556 C561 1.379 1_556 S
C556 N563 1.356 . S
C557 C556 1.363 . S
C557 C560 1.363 . S
N558 C560 1.356 . S
N558 H570 0.984 . S
N558 H571 0.985 . S
N559 C561 1.356 . S
N559 H564 0.984 . S
N559 H565 0.985 . S
C560 C554 1.379 1_556 S
C560 C557 1.363 . S
C560 N558 1.356 . S
C561 C555 1.363 . S
C561 C556 1.379 1_554 S
C561 N559 1.356 . S
N562 C554 1.356 . S
N562 H568 0.984 . S
N562 H569 0.984 . S
N563 C556 1.356 . S
N563 H566 0.984 . S
N563 H567 0.985 . S
H564 N559 0.984 . S
H565 N559 0.985 . S
H566 N563 0.984 . S
H567 N563 0.985 . S
H568 N562 0.984 . S
H569 N562 0.984 . S
H570 N558 0.984 . S
H571 N558 0.985 . S
C572 C573 1.363 . S
C572 C578 1.379 1_556 S
C572 N580 1.356 . S
C573 C572 1.363 . S
C573 C579 1.363 . S
C574 C575 1.363 . S
C574 C579 1.379 1_554 S
C574 N581 1.356 . S
C575 C574 1.363 . S
C575 C578 1.363 . S
N576 C578 1.356 . S
N576 H588 0.984 . S
N576 H589 0.985 . S
N577 C579 1.356 . S
N577 H582 0.984 . S
N577 H583 0.985 . S
C578 C572 1.379 1_554 S
C578 C575 1.363 . S
C578 N576 1.356 . S
C579 C573 1.363 . S
C579 C574 1.379 1_556 S
C579 N577 1.356 . S
N580 C572 1.356 . S
N580 H586 0.984 . S
N580 H587 0.984 . S
N581 C574 1.356 . S
N581 H584 0.984 . S
N581 H585 0.985 . S
H582 N577 0.984 . S
H583 N577 0.985 . S
H584 N581 0.984 . S
H585 N581 0.985 . S
H586 N580 0.984 . S
H587 N580 0.984 . S
H588 N576 0.984 . S
H589 N576 0.985 . S
C590 C591 1.363 . S
C590 C596 1.379 1_554 S
C590 N598 1.356 . S
C591 C590 1.363 . S
C591 C597 1.363 . S
C592 C593 1.363 . S
C592 C597 1.379 1_556 S
C592 N599 1.356 . S
C593 C592 1.363 . S
C593 C596 1.363 . S
N594 C596 1.356 . S
N594 H606 0.984 . S
N594 H607 0.985 . S
N595 C597 1.356 . S
N595 H600 0.984 . S
N595 H601 0.985 . S
C596 C590 1.379 1_556 S
C596 C593 1.363 . S
C596 N594 1.356 . S
C597 C591 1.363 . S
C597 C592 1.379 1_554 S
C597 N595 1.356 . S
N598 C590 1.356 . S
N598 H604 0.984 . S
N598 H605 0.984 . S
N599 C592 1.356 . S
N599 H602 0.984 . S
N599 H603 0.985 . S
H600 N595 0.984 . S
H601 N595 0.985 . S
H602 N599 0.984 . S
H603 N599 0.985 . S
H604 N598 0.984 . S
H605 N598 0.984 . S
H606 N594 0.984 . S
H607 N594 0.985 . S
C177 C160 1.378 . S
C179 C5 1.325 . S
C195 C31 1.325 . S
C197 C139 1.378 . S
C213 C115 1.378 . S
C215 C50 1.325 . S
C231 C73 1.325 . S
C233 C97 1.378 . S
C249 C72 1.378 . S
C251 C93 1.325 . S
C267 C51 1.378 . S
C269 C119 1.325 . S
C285 C27 1.378 . S
C287 C138 1.325 . S
C303 C9 1.378 . S
C305 C161 1.325 . S
C321 C26 1.855 . S
C323 C8 1.855 . S
C339 C70 1.855 . S
C341 C52 1.855 . S
C357 C96 1.855 . S
C359 C114 1.855 . S
C375 C158 1.855 . S
C377 C140 1.855 . S
C393 C74 1.489 . S
C395 C4 1.489 . S
C411 C48 1.489 . S
C413 C30 1.489 . S
C429 C92 1.489 . S
C431 C162 1.489 . S
C447 C118 1.489 . S
C449 C136 1.489 . S
C465 C137 1.776 . S
C467 C6 1.776 . S
C483 C29 1.776 . S
C485 C163 1.776 . S
C501 C94 1.776 . S
C503 C49 1.776 . S
C519 C117 1.776 . S
C521 C75 1.776 . S
C537 C7 1.081 . S
C539 C141 1.081 . S
C555 C159 1.081 . S
C557 C28 1.081 . S
C573 C53 1.081 . S
C575 C95 1.081 . S
C591 C71 1.081 . S
C593 C116 1.081 . S
