# Generated by pormake.
# Topology cag, (4)-cn, num edge types: 1
# Building blocks:
#     Node 0, Type 0, BuildingBlock: ICAMEG_clean_sbu_1, # of connection points: 4
#     Node 1, Type 0, BuildingBlock: ICAMEG_clean_sbu_1, # of connection points: 4
#     Node 2, Type 0, BuildingBlock: ICAMEG_clean_sbu_1, # of connection points: 4
#     Node 3, Type 0, BuildingBlock: ICAMEG_clean_sbu_1, # of connection points: 4
#     Node 4, Type 0, BuildingBlock: ICAMEG_clean_sbu_1, # of connection points: 4
#     Node 5, Type 0, BuildingBlock: ICAMEG_clean_sbu_1, # of connection points: 4
#     Node 6, Type 0, BuildingBlock: ICAMEG_clean_sbu_1, # of connection points: 4
#     Node 7, Type 0, BuildingBlock: ICAMEG_clean_sbu_1, # of connection points: 4
#     Node 8, Type 0, BuildingBlock: ICAMEG_clean_sbu_1, # of connection points: 4
#     Node 9, Type 0, BuildingBlock: ICAMEG_clean_sbu_1, # of connection points: 4
#     Node 10, Type 0, BuildingBlock: ICAMEG_clean_sbu_1, # of connection points: 4
#     Node 11, Type 0, BuildingBlock: ICAMEG_clean_sbu_1, # of connection points: 4
#     Node 12, Type 0, BuildingBlock: ICAMEG_clean_sbu_1, # of connection points: 4
#     Node 13, Type 0, BuildingBlock: ICAMEG_clean_sbu_1, # of connection points: 4
#     Node 14, Type 0, BuildingBlock: ICAMEG_clean_sbu_1, # of connection points: 4
#     Node 15, Type 0, BuildingBlock: ICAMEG_clean_sbu_1, # of connection points: 4
#     Edge 16, Type (0, 0), BuildingBlock: CIFDUS_clean_linker_0, # of connection points: 2
#     Edge 17, Type (0, 0), BuildingBlock: CIFDUS_clean_linker_0, # of connection points: 2
#     Edge 18, Type (0, 0), BuildingBlock: CIFDUS_clean_linker_0, # of connection points: 2
#     Edge 19, Type (0, 0), BuildingBlock: CIFDUS_clean_linker_0, # of connection points: 2
#     Edge 20, Type (0, 0), BuildingBlock: CIFDUS_clean_linker_0, # of connection points: 2
#     Edge 21, Type (0, 0), BuildingBlock: CIFDUS_clean_linker_0, # of connection points: 2
#     Edge 22, Type (0, 0), BuildingBlock: CIFDUS_clean_linker_0, # of connection points: 2
#     Edge 23, Type (0, 0), BuildingBlock: CIFDUS_clean_linker_0, # of connection points: 2
#     Edge 24, Type (0, 0), BuildingBlock: CIFDUS_clean_linker_0, # of connection points: 2
#     Edge 25, Type (0, 0), BuildingBlock: CIFDUS_clean_linker_0, # of connection points: 2
#     Edge 26, Type (0, 0), BuildingBlock: CIFDUS_clean_linker_0, # of connection points: 2
#     Edge 27, Type (0, 0), BuildingBlock: CIFDUS_clean_linker_0, # of connection points: 2
#     Edge 28, Type (0, 0), BuildingBlock: CIFDUS_clean_linker_0, # of connection points: 2
#     Edge 29, Type (0, 0), BuildingBlock: CIFDUS_clean_linker_0, # of connection points: 2
#     Edge 30, Type (0, 0), BuildingBlock: CIFDUS_clean_linker_0, # of connection points: 2
#     Edge 31, Type (0, 0), BuildingBlock: CIFDUS_clean_linker_0, # of connection points: 2
#     Edge 32, Type (0, 0), BuildingBlock: CIFDUS_clean_linker_0, # of connection points: 2
#     Edge 33, Type (0, 0), BuildingBlock: CIFDUS_clean_linker_0, # of connection points: 2
#     Edge 34, Type (0, 0), BuildingBlock: CIFDUS_clean_linker_0, # of connection points: 2
#     Edge 35, Type (0, 0), BuildingBlock: CIFDUS_clean_linker_0, # of connection points: 2
#     Edge 36, Type (0, 0), BuildingBlock: CIFDUS_clean_linker_0, # of connection points: 2
#     Edge 37, Type (0, 0), BuildingBlock: CIFDUS_clean_linker_0, # of connection points: 2
#     Edge 38, Type (0, 0), BuildingBlock: CIFDUS_clean_linker_0, # of connection points: 2
#     Edge 39, Type (0, 0), BuildingBlock: CIFDUS_clean_linker_0, # of connection points: 2
#     Edge 40, Type (0, 0), BuildingBlock: CIFDUS_clean_linker_0, # of connection points: 2
#     Edge 41, Type (0, 0), BuildingBlock: CIFDUS_clean_linker_0, # of connection points: 2
#     Edge 42, Type (0, 0), BuildingBlock: CIFDUS_clean_linker_0, # of connection points: 2
#     Edge 43, Type (0, 0), BuildingBlock: CIFDUS_clean_linker_0, # of connection points: 2
#     Edge 44, Type (0, 0), BuildingBlock: CIFDUS_clean_linker_0, # of connection points: 2
#     Edge 45, Type (0, 0), BuildingBlock: CIFDUS_clean_linker_0, # of connection points: 2
#     Edge 46, Type (0, 0), BuildingBlock: CIFDUS_clean_linker_0, # of connection points: 2
#     Edge 47, Type (0, 0), BuildingBlock: CIFDUS_clean_linker_0, # of connection points: 2
# Relax obj value: 0.157
# Max RMSD: 0.211
# Mean RMSD: 0.207
data_MOF--net-cag--node1-ICAMEG_clean_sbu_1--edge1-CIFDUS_clean_linker_0
_symmetry_space_group_name_H-M    P1
_symmetry_Int_Tables_number       1
_symmetry_cell_setting            triclinic
loop_
_symmetry_equiv_pos_as_xyz
'x, y, z'
_cell_length_a     39.246067
_cell_length_b     45.740934
_cell_length_c     39.274675
_cell_angle_alpha  90.00073
_cell_angle_beta   90.058369
_cell_angle_gamma 89.995001
loop_
_atom_site_label
_atom_site_type_symbol
_atom_site_fract_x
_atom_site_fract_y
_atom_site_fract_z
_atom_type_partial_charge
Co0 Co 0.36647 0.15697 0.05976 0.0
Co1 Co 0.37804 0.1282 0.13947 0.0
O2 O 0.35527 0.1556 0.10838 0.0
C3 C 0.36052 0.22061 0.07991 0.0
O4 O 0.37274 0.21509 0.11033 0.0
C5 C 0.32086 0.1038 0.18131 0.0
O6 O 0.33083 0.07729 0.17313 0.0
O7 O 0.36346 0.09453 0.1099 0.0
O8 O 0.37439 0.11383 0.05861 0.0
H9 H 0.45082 0.04123 0.16804 0.0
H10 H 0.30148 0.18173 0.08501 0.0
O11 O 0.35784 0.20024 0.05799 0.0
H12 H 0.26832 0.10846 0.99906 0.0
H13 H 0.3524 0.19003 0.93811 0.0
H14 H 0.4203 0.12988 0.01726 0.0
H15 H 0.32886 0.1176 0.01184 0.0
H16 H 0.3375 0.18764 0.999 0.0
O17 O 0.33475 0.12592 0.1671 0.0
H18 H 0.42216 0.07639 0.13002 0.0
H19 H 0.38188 0.1216 0.21548 0.0
H20 H 0.43586 0.13142 0.95649 0.0
H21 H 0.24059 0.17359 0.07271 0.0
H22 H 0.4018 0.16166 0.91644 0.0
H23 H 0.22366 0.13667 0.0295 0.0
O24 O 0.41545 0.16351 0.0712 0.0
H25 H 0.35955 0.22259 0.2024 0.0
H26 H 0.44365 0.1471 0.17178 0.0
H27 H 0.46175 0.1893 0.20626 0.0
H28 H 0.41947 0.22737 0.22203 0.0
H29 H 0.3428 0.18038 0.16718 0.0
H30 H 0.41007 0.0869 0.25438 0.0
H31 H 0.44485 0.04635 0.23071 0.0
O32 O 0.42212 0.13104 0.11357 0.0
C33 C 0.36787 0.09201 0.07771 0.0
C34 C 0.43569 0.05878 0.17867 0.0
C35 C 0.41284 0.08442 0.22712 0.0
N36 N 0.40022 0.10097 0.17044 0.0
C37 C 0.41937 0.07875 0.15726 0.0
C38 C 0.39691 0.10399 0.20494 0.0
C39 C 0.43234 0.06167 0.21382 0.0
C40 C 0.29434 0.16575 0.06604 0.0
N41 N 0.31877 0.1502 0.04912 0.0
C42 C 0.25981 0.16118 0.05924 0.0
C43 C 0.25033 0.14045 0.03502 0.0
C44 C 0.27536 0.12459 0.01796 0.0
C45 C 0.30964 0.12977 0.02541 0.0
C46 C 0.36743 0.17676 0.95531 0.0
C47 C 0.40527 0.14302 0.99999 0.0
C48 C 0.3592 0.17541 0.98986 0.0
N49 N 0.37796 0.15857 0.0117 0.0
C50 C 0.41424 0.14384 0.96561 0.0
C51 C 0.39514 0.16083 0.94316 0.0
C52 C 0.43429 0.14814 0.09088 0.0
C53 C 0.37821 0.20612 0.19576 0.0
C54 C 0.42526 0.16375 0.17799 0.0
C55 C 0.43558 0.18752 0.1978 0.0
C56 C 0.41184 0.20883 0.2067 0.0
N57 N 0.39223 0.16122 0.16731 0.0
C58 C 0.36883 0.18206 0.17597 0.0
Co59 Co 0.15587 0.86808 0.56187 0.0
Co60 Co 0.14398 0.89864 0.64072 0.0
O61 O 0.16666 0.87034 0.61059 0.0
C62 C 0.16868 0.80526 0.58376 0.0
O63 O 0.16835 0.81271 0.61596 0.0
C64 C 0.20091 0.92165 0.68466 0.0
O65 O 0.19168 0.94853 0.67728 0.0
O66 O 0.15994 0.93163 0.61074 0.0
O67 O 0.14915 0.91143 0.55982 0.0
H68 H 0.07326 0.98756 0.66609 0.0
H69 H 0.22099 0.84427 0.58934 0.0
O70 O 0.16289 0.82428 0.56075 0.0
H71 H 0.25467 0.91352 0.49935 0.0
H72 H 0.16904 0.83243 0.44112 0.0
H73 H 0.10306 0.89566 0.51849 0.0
H74 H 0.19408 0.90526 0.5124 0.0
H75 H 0.1839 0.83553 0.502 0.0
O76 O 0.18687 0.90017 0.66927 0.0
H77 H 0.10173 0.95135 0.62938 0.0
H78 H 0.13846 0.9062 0.71655 0.0
H79 H 0.08759 0.89344 0.45769 0.0
H80 H 0.28182 0.8515 0.57678 0.0
H81 H 0.12068 0.86165 0.41854 0.0
H82 H 0.29908 0.88638 0.53151 0.0
O83 O 0.10679 0.86249 0.57316 0.0
H84 H 0.15819 0.80509 0.70657 0.0
H85 H 0.07707 0.88161 0.67164 0.0
H86 H 0.05685 0.84041 0.70648 0.0
H87 H 0.09761 0.8018 0.72443 0.0
H88 H 0.17705 0.84634 0.67095 0.0
H89 H 0.11035 0.94193 0.75416 0.0
H90 H 0.07748 0.983 0.72897 0.0
O91 O 0.10031 0.8964 0.61393 0.0
C92 C 0.15567 0.93361 0.57844 0.0
C93 C 0.08758 0.9698 0.67738 0.0
C94 C 0.10838 0.94419 0.7268 0.0
N95 N 0.12198 0.92676 0.67072 0.0
C96 C 0.10383 0.94925 0.65671 0.0
C97 C 0.12426 0.92403 0.70534 0.0
C98 C 0.08994 0.96722 0.71265 0.0
C99 C 0.22813 0.85918 0.56931 0.0
N100 N 0.2038 0.87395 0.5513 0.0
C101 C 0.26271 0.86333 0.56244 0.0
C102 C 0.27238 0.88293 0.53709 0.0
C103 C 0.24748 0.89817 0.51905 0.0
C104 C 0.21316 0.89344 0.52661 0.0
C105 C 0.15445 0.84639 0.45791 0.0
C106 C 0.1177 0.88188 0.5016 0.0
C107 C 0.16266 0.84816 0.49246 0.0
N108 N 0.14448 0.8659 0.5138 0.0
C109 C 0.10877 0.88066 0.4672 0.0
C110 C 0.12732 0.8628 0.44526 0.0
C111 C 0.08804 0.87861 0.59201 0.0
C112 C 0.14015 0.82175 0.69891 0.0
C113 C 0.09481 0.86468 0.67869 0.0
C114 C 0.08328 0.8415 0.69874 0.0
C115 C 0.10617 0.81989 0.70887 0.0
N116 N 0.12817 0.86635 0.66889 0.0
C117 C 0.15072 0.84526 0.67883 0.0
Co118 Co 0.35939 0.88455 0.9717 0.0
Co119 Co 0.375 0.91609 0.893 0.0
O120 O 0.35034 0.88768 0.92215 0.0
C121 C 0.34575 0.8206 0.95102 0.0
O122 O 0.34071 0.82646 0.9187 0.0
C123 C 0.3035 0.91369 0.86148 0.0
O124 O 0.29288 0.89349 0.88268 0.0
O125 O 0.36222 0.9489 0.92429 0.0
O126 O 0.3663 0.92766 0.97543 0.0
H127 H 0.45544 0.99981 0.87292 0.0
H128 H 0.29501 0.86072 0.9422 0.0
O129 O 0.35312 0.84086 0.97204 0.0
H130 H 0.25866 0.93009 0.03092 0.0
H131 H 0.34099 0.84725 0.09109 0.0
H132 H 0.4109 0.91087 0.01772 0.0
H133 H 0.31961 0.92171 0.01985 0.0
H134 H 0.32852 0.8515 0.02977 0.0
O135 O 0.33328 0.9246 0.86427 0.0
H136 H 0.42465 0.96334 0.90738 0.0
H137 H 0.37687 0.92983 0.81844 0.0
H138 H 0.424 0.90747 0.07899 0.0
H139 H 0.23387 0.86807 0.95272 0.0
H140 H 0.38893 0.87547 0.11613 0.0
H141 H 0.21523 0.90304 0.99735 0.0
O142 O 0.40883 0.87871 0.96262 0.0
H143 H 0.35656 0.82309 0.826 0.0
H144 H 0.43913 0.89956 0.85731 0.0
H145 H 0.45712 0.85945 0.81974 0.0
H146 H 0.41562 0.82088 0.80355 0.0
H147 H 0.33996 0.86314 0.86394 0.0
H148 H 0.40685 0.96616 0.78312 0.0
H149 H 0.44661 1.00139 0.81031 0.0
O150 O 0.41827 0.90925 0.91898 0.0
C151 C 0.36381 0.95026 0.95675 0.0
C152 C 0.43826 0.98452 0.86076 0.0
C153 C 0.41094 0.96567 0.81037 0.0
N154 N 0.39913 0.94432 0.86497 0.0
C155 C 0.42082 0.96375 0.88013 0.0
C156 C 0.39392 0.94522 0.83054 0.0
C157 C 0.43326 0.98542 0.82564 0.0
C158 C 0.28731 0.87565 0.96192 0.0
N159 N 0.31109 0.89043 0.9806 0.0
C160 C 0.25254 0.87988 0.96766 0.0
C161 C 0.24209 0.89953 0.99265 0.0
C162 C 0.26644 0.91472 0.01146 0.0
C163 C 0.30097 0.90993 1.00499 0.0
C164 C 0.35642 0.86131 0.07519 0.0
C165 C 0.39537 0.89702 0.03373 0.0
C166 C 0.34955 0.86375 0.0404 0.0
N167 N 0.36882 0.88158 0.02016 0.0
C168 C 0.40298 0.89513 0.0684 0.0
C169 C 0.38331 0.87715 0.08922 0.0
C170 C 0.42885 0.89248 0.94267 0.0
C171 C 0.37482 0.8399 0.8326 0.0
C172 C 0.42087 0.88291 0.85059 0.0
C173 C 0.43123 0.86023 0.82918 0.0
C174 C 0.40796 0.83862 0.82009 0.0
N175 N 0.38816 0.88431 0.86253 0.0
C176 C 0.3654 0.86293 0.85397 0.0
Co177 Co 0.15995 0.13925 0.46265 0.0
Co178 Co 0.14373 0.10334 0.38679 0.0
O179 O 0.16871 0.13303 0.41355 0.0
C180 C 0.17387 0.20004 0.43398 0.0
O181 O 0.17297 0.19022 0.40265 0.0
C182 C 0.21514 0.10452 0.35606 0.0
O183 O 0.22542 0.12452 0.37769 0.0
O184 O 0.15719 0.0726 0.42036 0.0
O185 O 0.15171 0.0963 0.46995 0.0
H186 H 0.06344 0.0185 0.37385 0.0
H187 H 0.22491 0.16073 0.43225 0.0
O188 O 0.1683 0.18284 0.45892 0.0
H189 H 0.25935 0.09478 0.52528 0.0
H190 H 0.17973 0.18359 0.57851 0.0
H191 H 0.10791 0.11692 0.51072 0.0
H192 H 0.19864 0.1037 0.51335 0.0
H193 H 0.19188 0.17524 0.51772 0.0
O194 O 0.18526 0.09369 0.35824 0.0
H195 H 0.09454 0.05685 0.40521 0.0
H196 H 0.14093 0.08561 0.31342 0.0
H197 H 0.09507 0.12444 0.57154 0.0
H198 H 0.28585 0.15279 0.44361 0.0
H199 H 0.13112 0.15799 0.60587 0.0
H200 H 0.30352 0.11953 0.49039 0.0
O201 O 0.11065 0.14552 0.45285 0.0
H202 H 0.16181 0.19078 0.31021 0.0
H203 H 0.07883 0.11833 0.35153 0.0
H204 H 0.06029 0.156 0.3109 0.0
H205 H 0.10198 0.19254 0.28968 0.0
H206 H 0.17892 0.15328 0.35137 0.0
H207 H 0.1106 0.04738 0.28118 0.0
H208 H 0.07139 0.01358 0.31138 0.0
O209 O 0.10067 0.11155 0.41283 0.0
C210 C 0.15508 0.07279 0.45283 0.0
C211 C 0.08038 0.03316 0.36039 0.0
C212 C 0.10689 0.04933 0.30839 0.0
N213 N 0.11937 0.0736 0.36118 0.0
C214 C 0.09799 0.05497 0.37799 0.0
C215 C 0.1241 0.07088 0.32683 0.0
C216 C 0.08488 0.03038 0.32535 0.0
C217 C 0.23222 0.14647 0.45284 0.0
N218 N 0.20804 0.13285 0.47215 0.0
C219 C 0.26686 0.14194 0.45907 0.0
C220 C 0.27676 0.12325 0.48527 0.0
C221 C 0.252 0.10934 0.50483 0.0
C222 C 0.21761 0.11439 0.49784 0.0
C223 C 0.16387 0.16888 0.56384 0.0
C224 C 0.12384 0.13143 0.52552 0.0
C225 C 0.17056 0.16412 0.52936 0.0
N226 N 0.15074 0.14546 0.51069 0.0
C227 C 0.11639 0.13566 0.55993 0.0
C228 C 0.1366 0.1545 0.57917 0.0
C229 C 0.09035 0.13025 0.43466 0.0
C230 C 0.1434 0.17492 0.31914 0.0
C231 C 0.09708 0.13428 0.34289 0.0
C232 C 0.08645 0.1555 0.31963 0.0
C233 C 0.10984 0.17595 0.3077 0.0
N234 N 0.1301 0.13326 0.35402 0.0
C235 C 0.15307 0.15336 0.34242 0.0
Co236 Co 0.70331 0.89868 0.91481 0.0
Co237 Co 0.6852 0.86432 0.99081 0.0
O238 O 0.71073 0.86687 0.94779 0.0
C239 C 0.69375 0.86563 0.85014 0.0
O240 O 0.66261 0.87608 0.84894 0.0
C241 C 0.75668 0.84305 1.00875 0.0
O242 O 0.76908 0.85148 0.97935 0.0
O243 O 0.6994 0.90495 1.00277 0.0
O244 O 0.69516 0.92768 0.95227 0.0
H245 H 0.60472 0.90228 0.0799 0.0
H246 H 0.76635 0.86324 0.90892 0.0
O247 O 0.71243 0.87056 0.87617 0.0
H248 H 0.80567 0.96444 0.92701 0.0
H249 H 0.72867 0.95741 0.80913 0.0
H250 H 0.65239 0.94616 0.90796 0.0
H251 H 0.74435 0.95318 0.92425 0.0
H252 H 0.73843 0.9182 0.85108 0.0
O253 O 0.7256 0.84794 0.01618 0.0
H254 H 0.63689 0.90387 0.02605 0.0
H255 H 0.67976 0.82051 0.04718 0.0
H256 H 0.64182 0.98578 0.86672 0.0
H257 H 0.82796 0.8736 0.9109 0.0
H258 H 0.68009 0.99158 0.81684 0.0
H259 H 0.848 0.9245 0.92014 0.0
O260 O 0.65341 0.88979 0.91362 0.0
H261 H 0.70324 0.76269 0.94501 0.0
H262 H 0.61948 0.83139 0.9932 0.0
H263 H 0.60107 0.7819 0.97683 0.0
H264 H 0.64314 0.74704 0.95272 0.0
H265 H 0.72039 0.81252 0.96119 0.0
H266 H 0.64833 0.8182 0.10142 0.0
H267 H 0.61033 0.85921 0.11801 0.0
O268 O 0.64316 0.87966 0.96842 0.0
C269 C 0.69785 0.92815 0.98467 0.0
C270 C 0.62113 0.88424 0.07291 0.0
C271 C 0.64565 0.83708 0.08501 0.0
N272 N 0.66008 0.86227 0.03334 0.0
C273 C 0.63937 0.88499 0.04241 0.0
C274 C 0.66349 0.83857 0.05431 0.0
C275 C 0.62432 0.86009 0.0943 0.0
C276 C 0.77483 0.88548 0.91273 0.0
N277 N 0.75169 0.90754 0.91663 0.0
C278 C 0.80977 0.8912 0.91393 0.0
C279 C 0.821 0.91975 0.91916 0.0
C280 C 0.79727 0.94215 0.92307 0.0
C281 C 0.76253 0.93561 0.92173 0.0
C282 C 0.7118 0.9551 0.83075 0.0
C283 C 0.6692 0.94855 0.88636 0.0
C284 C 0.71716 0.9329 0.85457 0.0
N285 N 0.69597 0.92984 0.88196 0.0
C286 C 0.66307 0.97103 0.86308 0.0
C287 C 0.68455 0.97427 0.8351 0.0
C288 C 0.63299 0.88574 0.93846 0.0
C289 C 0.68469 0.77762 0.95567 0.0
C290 C 0.63793 0.81649 0.98258 0.0
C291 C 0.62736 0.78841 0.97344 0.0
C292 C 0.65097 0.76886 0.95994 0.0
N293 N 0.67113 0.82489 0.97862 0.0
C294 C 0.69433 0.80588 0.96509 0.0
Co295 Co 0.81567 0.11794 0.41557 0.0
Co296 Co 0.83487 0.15455 0.48941 0.0
O297 O 0.80767 0.15011 0.44778 0.0
C298 C 0.81581 0.14946 0.34875 0.0
O299 O 0.84723 0.14062 0.34363 0.0
C300 C 0.7634 0.17436 0.50893 0.0
O301 O 0.75053 0.16446 0.48036 0.0
O302 O 0.82263 0.11385 0.50304 0.0
O303 O 0.82859 0.09035 0.45323 0.0
H304 H 0.92058 0.12098 0.57614 0.0
H305 H 0.74934 0.14915 0.41319 0.0
O306 O 0.80132 0.14454 0.37725 0.0
H307 H 0.72032 0.04608 0.43562 0.0
H308 H 0.78876 0.05483 0.31363 0.0
H309 H 0.87015 0.07377 0.40678 0.0
H310 H 0.78011 0.06113 0.42836 0.0
H311 H 0.7782 0.09436 0.35494 0.0
O312 O 0.79484 0.1705 0.51579 0.0
H313 H 0.88626 0.11728 0.5237 0.0
H314 H 0.84072 0.19966 0.54438 0.0
H315 H 0.88161 0.03391 0.36613 0.0
H316 H 0.68912 0.13498 0.41963 0.0
H317 H 0.84078 0.02424 0.3191 0.0
H318 H 0.67426 0.08312 0.4311 0.0
O319 O 0.86452 0.13 0.41104 0.0
H320 H 0.81109 0.25427 0.44056 0.0
H321 H 0.89913 0.18963 0.48888 0.0
H322 H 0.91489 0.23919 0.47024 0.0
H323 H 0.87064 0.27202 0.44605 0.0
H324 H 0.79661 0.2044 0.45896 0.0
H325 H 0.87426 0.20406 0.59722 0.0
H326 H 0.91469 0.16461 0.61332 0.0
O327 O 0.87659 0.13985 0.46563 0.0
C328 C 0.82559 0.09036 0.48562 0.0
C329 C 0.90311 0.13835 0.56935 0.0
C330 C 0.87708 0.18495 0.58121 0.0
N331 N 0.86164 0.15829 0.53083 0.0
C332 C 0.88367 0.13641 0.53964 0.0
C333 C 0.85805 0.18227 0.55131 0.0
C334 C 0.89977 0.16282 0.59022 0.0
C335 C 0.74313 0.12651 0.41803 0.0
N336 N 0.76836 0.10606 0.42072 0.0
C337 C 0.70895 0.11863 0.42172 0.0
C338 C 0.70063 0.08955 0.42819 0.0
C339 C 0.72646 0.06877 0.43079 0.0
C340 C 0.76035 0.07747 0.42694 0.0
C341 C 0.80678 0.05886 0.33398 0.0
C342 C 0.85225 0.06973 0.38638 0.0
C343 C 0.80098 0.08127 0.35741 0.0
N344 N 0.82363 0.08652 0.38318 0.0
C345 C 0.85888 0.04711 0.36344 0.0
C346 C 0.83596 0.0417 0.33707 0.0
C347 C 0.88582 0.13453 0.43514 0.0
C348 C 0.83057 0.24023 0.45122 0.0
C349 C 0.87976 0.20362 0.47821 0.0
C350 C 0.88882 0.23175 0.46779 0.0
C351 C 0.86399 0.25016 0.45425 0.0
N352 N 0.84686 0.19406 0.47545 0.0
C353 C 0.82247 0.21195 0.4619 0.0
Co354 Co 0.70604 0.12077 0.12022 0.0
Co355 Co 0.69395 0.15899 0.04608 0.0
O356 O 0.71857 0.15288 0.08927 0.0
C357 C 0.73151 0.16968 0.16641 0.0
O358 O 0.73708 0.18719 0.14056 0.0
C359 C 0.76773 0.16947 0.02784 0.0
O360 O 0.77765 0.14877 0.04874 0.0
O361 O 0.70567 0.11829 0.03179 0.0
O362 O 0.69446 0.09484 0.08063 0.0
H363 H 0.61347 0.13019 0.95232 0.0
H364 H 0.77603 0.14764 0.12201 0.0
O365 O 0.71777 0.1447 0.16192 0.0
H366 H 0.79489 0.04183 0.10952 0.0
H367 H 0.71721 0.05653 0.22398 0.0
H368 H 0.64881 0.07846 0.12173 0.0
H369 H 0.73672 0.06158 0.11261 0.0
H370 H 0.73454 0.09584 0.18473 0.0
O371 O 0.73616 0.17475 0.02376 0.0
H372 H 0.6441 0.12395 1.00668 0.0
H373 H 0.69294 0.20601 0.99313 0.0
H374 H 0.63081 0.03874 0.16012 0.0
H375 H 0.83445 0.12881 0.11997 0.0
H376 H 0.6651 0.02755 0.21169 0.0
H377 H 0.84439 0.07548 0.11352 0.0
O378 O 0.65822 0.13559 0.12172 0.0
H379 H 0.72015 0.25786 0.09537 0.0
H380 H 0.63044 0.19527 0.04646 0.0
H381 H 0.61589 0.24494 0.06583 0.0
H382 H 0.66099 0.27669 0.09042 0.0
H383 H 0.73338 0.20785 0.07611 0.0
H384 H 0.6631 0.21297 0.93848 0.0
H385 H 0.62289 0.17496 0.9178 0.0
O386 O 0.65001 0.14475 0.06634 0.0
C387 C 0.7002 0.09484 0.04864 0.0
C388 C 0.63087 0.14694 0.96109 0.0
C389 C 0.65876 0.19338 0.95329 0.0
N390 N 0.67018 0.16463 1.00319 0.0
C391 C 0.64825 0.14355 0.99189 0.0
C392 C 0.67569 0.18925 0.98422 0.0
C393 C 0.63619 0.17205 0.94172 0.0
C394 C 0.77976 0.12443 0.12014 0.0
N395 N 0.75258 0.10582 0.11831 0.0
C396 C 0.81312 0.11386 0.11857 0.0
C397 C 0.81868 0.08397 0.11483 0.0
C398 C 0.79094 0.0651 0.11257 0.0
C399 C 0.75797 0.07647 0.11425 0.0
C400 C 0.70207 0.06118 0.20157 0.0
C401 C 0.66399 0.07365 0.14401 0.0
C402 C 0.71167 0.0835 0.1793 0.0
N403 N 0.69279 0.0894 0.15083 0.0
C404 C 0.65362 0.05116 0.16571 0.0
C405 C 0.67285 0.04492 0.19465 0.0
C406 C 0.63864 0.14044 0.09634 0.0
C407 C 0.70025 0.24421 0.08481 0.0
C408 C 0.65005 0.20871 0.05762 0.0
C409 C 0.64173 0.23694 0.06831 0.0
C410 C 0.66705 0.25476 0.08204 0.0
N411 N 0.68262 0.19845 0.06055 0.0
C412 C 0.70759 0.21586 0.07384 0.0
Co413 Co 0.81677 0.90113 0.62705 0.0
Co414 Co 0.8272 0.86076 0.55367 0.0
O415 O 0.80398 0.86785 0.59767 0.0
C416 C 0.79585 0.85328 0.67753 0.0
O417 O 0.78715 0.83473 0.65357 0.0
C418 C 0.7534 0.8428 0.54137 0.0
O419 O 0.7435 0.85489 0.56997 0.0
O420 O 0.81537 0.90122 0.53825 0.0
O421 O 0.82586 0.92609 0.58627 0.0
H422 H 0.90557 0.88747 0.45744 0.0
H423 H 0.74788 0.87296 0.63474 0.0
O424 O 0.80828 0.87824 0.67015 0.0
H425 H 0.72492 0.97747 0.61599 0.0
H426 H 0.8074 0.96829 0.72844 0.0
H427 H 0.87256 0.94485 0.62468 0.0
H428 H 0.78379 0.95915 0.61737 0.0
H429 H 0.79 0.92732 0.69154 0.0
O430 O 0.78434 0.84482 0.53187 0.0
H431 H 0.87644 0.89476 0.51237 0.0
H432 H 0.82643 0.81288 0.50168 0.0
H433 H 0.8906 0.98619 0.66069 0.0
H434 H 0.68882 0.89036 0.63434 0.0
H435 H 0.85794 0.99815 0.713 0.0
H436 H 0.67681 0.94302 0.62478 0.0
O437 O 0.86504 0.88766 0.62725 0.0
H438 H 0.80391 0.76341 0.60877 0.0
H439 H 0.89041 0.8244 0.55214 0.0
H440 H 0.90608 0.77526 0.5724 0.0
H441 H 0.8626 0.74428 0.60083 0.0
H442 H 0.78956 0.81281 0.58859 0.0
H443 H 0.85475 0.80489 0.44648 0.0
H444 H 0.89479 0.84227 0.42408 0.0
O445 O 0.87167 0.87526 0.57252 0.0
C446 C 0.82064 0.92514 0.55426 0.0
C447 C 0.88824 0.87099 0.46697 0.0
C448 C 0.85968 0.82466 0.4608 0.0
N449 N 0.84988 0.85423 0.51038 0.0
C450 C 0.87172 0.87496 0.49811 0.0
C451 C 0.84363 0.82937 0.49204 0.0
C452 C 0.88216 0.84564 0.44825 0.0
C453 C 0.74328 0.89588 0.6312 0.0
N454 N 0.7697 0.91491 0.62659 0.0
C455 C 0.70955 0.90564 0.63071 0.0
C456 C 0.70282 0.93516 0.62526 0.0
C457 C 0.72978 0.95447 0.6203 0.0
C458 C 0.76315 0.9439 0.62098 0.0
C459 C 0.82183 0.96331 0.70569 0.0
C460 C 0.85809 0.94998 0.64731 0.0
C461 C 0.81218 0.94006 0.68475 0.0
N462 N 0.83016 0.93373 0.65585 0.0
C463 C 0.86849 0.97339 0.66764 0.0
C464 C 0.85017 0.98007 0.69701 0.0
C465 C 0.88384 0.88166 0.6017 0.0
C466 C 0.82307 0.77665 0.59634 0.0
C467 C 0.87142 0.81123 0.56472 0.0
C468 C 0.88041 0.78333 0.57602 0.0
C469 C 0.856 0.76595 0.59192 0.0
N470 N 0.83902 0.82159 0.569 0.0
C471 C 0.81503 0.80467 0.5847 0.0
Co472 Co 0.85925 0.63944 0.06266 0.0
Co473 Co 0.87575 0.6055 0.13921 0.0
O474 O 0.85153 0.6356 0.11211 0.0
C475 C 0.84821 0.70323 0.0851 0.0
O476 O 0.8431 0.69694 0.1173 0.0
C477 C 0.80371 0.60366 0.16791 0.0
O478 O 0.79046 0.60842 0.13772 0.0
O479 O 0.85812 0.57374 0.10818 0.0
O480 O 0.86424 0.59627 0.05796 0.0
H481 H 0.94906 0.51635 0.15422 0.0
H482 H 0.79656 0.66393 0.09498 0.0
O483 O 0.85479 0.68321 0.06356 0.0
H484 H 0.75524 0.59849 1.00436 0.0
H485 H 0.83946 0.6795 0.94466 0.0
H486 H 0.90833 0.61232 0.01478 0.0
H487 H 0.81673 0.60481 0.0142 0.0
H488 H 0.82842 0.67457 1.00616 0.0
O489 O 0.83583 0.60101 0.17121 0.0
H490 H 0.91907 0.55462 0.12171 0.0
H491 H 0.88296 0.59247 0.21362 0.0
H492 H 0.91994 0.61635 0.95328 0.0
H493 H 0.73494 0.65873 0.08562 0.0
H494 H 0.88538 0.65014 0.91777 0.0
H495 H 0.71379 0.62573 0.04006 0.0
O496 O 0.90906 0.64368 0.07075 0.0
H497 H 0.86527 0.69697 0.20927 0.0
H498 H 0.94371 0.62014 0.16957 0.0
H499 H 0.96571 0.65992 0.20568 0.0
H500 H 0.92631 0.69869 0.22594 0.0
H501 H 0.84455 0.65698 0.17265 0.0
H502 H 0.91226 0.55444 0.24707 0.0
H503 H 0.94575 0.51608 0.21737 0.0
O504 O 0.91784 0.60938 0.11046 0.0
C505 C 0.85964 0.57327 0.07557 0.0
C506 C 0.93458 0.53296 0.16746 0.0
C507 C 0.91387 0.55431 0.21956 0.0
N508 N 0.89927 0.57582 0.1657 0.0
C509 C 0.91756 0.55473 0.14919 0.0
C510 C 0.89718 0.57572 0.20045 0.0
C511 C 0.93269 0.53281 0.20289 0.0
C512 C 0.7878 0.65 0.0747 0.0
N513 N 0.81051 0.63516 0.05481 0.0
C514 C 0.75274 0.64692 0.06969 0.0
C515 C 0.74088 0.62835 0.0442 0.0
C516 C 0.76412 0.61305 0.02419 0.0
C517 C 0.79898 0.61668 0.02996 0.0
C518 C 0.85466 0.66466 0.95985 0.0
C519 C 0.89304 0.62696 0.99949 0.0
C520 C 0.8486 0.66184 0.99473 0.0
N521 N 0.86756 0.64301 0.01406 0.0
C522 C 0.89979 0.6292 0.96468 0.0
C523 C 0.88041 0.64818 0.94478 0.0
C524 C 0.92882 0.62744 0.08829 0.0
C525 C 0.88272 0.68024 0.20057 0.0
C526 C 0.92655 0.63711 0.17779 0.0
C527 C 0.93908 0.6595 0.19848 0.0
C528 C 0.91696 0.68121 0.20988 0.0
N529 N 0.89296 0.63633 0.16864 0.0
C530 C 0.87112 0.65751 0.17984 0.0
Co531 Co 0.65649 0.37855 0.55715 0.0
Co532 Co 0.63754 0.41086 0.63404 0.0
O533 O 0.66313 0.3819 0.60679 0.0
C534 C 0.66903 0.31513 0.57965 0.0
O535 O 0.67306 0.32177 0.61191 0.0
C536 C 0.70913 0.4174 0.66277 0.0
O537 O 0.72244 0.41674 0.63211 0.0
O538 O 0.6544 0.44342 0.60396 0.0
O539 O 0.65032 0.42172 0.55299 0.0
H540 H 0.56084 0.49775 0.64985 0.0
H541 H 0.71931 0.35554 0.59096 0.0
O542 O 0.6623 0.33483 0.55771 0.0
H543 H 0.76028 0.42258 0.50186 0.0
H544 H 0.67985 0.34005 0.43916 0.0
H545 H 0.60778 0.40525 0.50847 0.0
H546 H 0.69883 0.41452 0.51005 0.0
H547 H 0.68942 0.34458 0.50098 0.0
O548 O 0.67698 0.41587 0.6665 0.0
H549 H 0.59255 0.46079 0.61697 0.0
H550 H 0.6292 0.42263 0.70856 0.0
H551 H 0.59761 0.4016 0.44666 0.0
H552 H 0.78089 0.36255 0.5833 0.0
H553 H 0.63378 0.36881 0.41156 0.0
H554 H 0.80187 0.39634 0.53849 0.0
O555 O 0.60657 0.37318 0.56393 0.0
H556 H 0.65064 0.3192 0.70328 0.0
H557 H 0.56965 0.39372 0.66256 0.0
H558 H 0.5487 0.35291 0.6977 0.0
H559 H 0.58938 0.31529 0.71845 0.0
H560 H 0.67032 0.3602 0.66761 0.0
H561 H 0.59816 0.45934 0.74239 0.0
H562 H 0.56353 0.49719 0.71303 0.0
O563 O 0.59603 0.40633 0.60453 0.0
C564 C 0.65367 0.44448 0.57136 0.0
C565 C 0.5758 0.48135 0.66294 0.0
C566 C 0.59679 0.45982 0.71487 0.0
N567 N 0.61268 0.4395 0.66078 0.0
C568 C 0.59378 0.46032 0.64445 0.0
C569 C 0.61444 0.43915 0.69555 0.0
C570 C 0.57734 0.48104 0.69838 0.0
C571 C 0.72801 0.3698 0.57099 0.0
N572 N 0.70524 0.38404 0.55054 0.0
C573 C 0.76304 0.37391 0.56695 0.0
C574 C 0.7748 0.39292 0.54188 0.0
C575 C 0.75149 0.40765 0.52134 0.0
C576 C 0.71665 0.403 0.52614 0.0
C577 C 0.66395 0.35445 0.45417 0.0
C578 C 0.62377 0.39106 0.49336 0.0
C579 C 0.66917 0.35705 0.48923 0.0
N580 N 0.64932 0.37533 0.50834 0.0
C581 C 0.61783 0.38903 0.45838 0.0
C582 C 0.63811 0.3706 0.4387 0.0
C583 C 0.58601 0.38866 0.58147 0.0
C584 C 0.63264 0.3354 0.69433 0.0
C585 C 0.58737 0.37724 0.67098 0.0
C586 C 0.57543 0.35428 0.69113 0.0
C587 C 0.59827 0.33321 0.70281 0.0
N588 N 0.62109 0.3792 0.66263 0.0
C589 C 0.64364 0.35869 0.67414 0.0
Co590 Co 0.85376 0.37397 0.94829 0.0
Co591 Co 0.87235 0.41164 0.87521 0.0
O592 O 0.84727 0.38086 0.89932 0.0
C593 C 0.86173 0.30947 0.95353 0.0
O594 O 0.89062 0.31426 0.96952 0.0
C595 C 0.80076 0.41716 0.84654 0.0
O596 O 0.78749 0.41293 0.87681 0.0
O597 O 0.85479 0.44147 0.90843 0.0
O598 O 0.86137 0.41665 0.95729 0.0
H599 H 0.9479 0.50012 0.86858 0.0
H600 H 0.79182 0.35111 0.91428 0.0
O601 O 0.84535 0.33096 0.94065 0.0
H602 H 0.74954 0.4174 1.00377 0.0
H603 H 0.82512 0.32997 0.0626 0.0
H604 H 0.90404 0.39397 0.99952 0.0
H605 H 0.81115 0.40943 0.9962 0.0
H606 H 0.81696 0.33883 1.00121 0.0
O607 O 0.83297 0.41829 0.84303 0.0
H608 H 0.91665 0.4605 0.89744 0.0
H609 H 0.8805 0.42918 0.8022 0.0
H610 H 0.91308 0.38575 0.06092 0.0
H611 H 0.72994 0.35807 0.92136 0.0
H612 H 0.87346 0.35353 0.09288 0.0
H613 H 0.70842 0.3915 0.96629 0.0
O614 O 0.90384 0.36856 0.94081 0.0
H615 H 0.86163 0.32403 0.79879 0.0
H616 H 0.94041 0.39818 0.84443 0.0
H617 H 0.9623 0.36027 0.80568 0.0
H618 H 0.92273 0.32287 0.78241 0.0
H619 H 0.84099 0.36212 0.8381 0.0
H620 H 0.91108 0.46864 0.77237 0.0
H621 H 0.94523 0.50439 0.80559 0.0
O622 O 0.91358 0.4054 0.90449 0.0
C623 C 0.85681 0.44049 0.94102 0.0
C624 C 0.93315 0.48465 0.85382 0.0
C625 C 0.91243 0.46701 0.79983 0.0
N626 N 0.89681 0.44246 0.85156 0.0
C627 C 0.91543 0.46213 0.87001 0.0
C628 C 0.89504 0.44478 0.81689 0.0
C629 C 0.93161 0.48705 0.81848 0.0
C630 C 0.78267 0.36546 0.93413 0.0
N631 N 0.80515 0.37976 0.95486 0.0
C632 C 0.74759 0.36941 0.93791 0.0
C633 C 0.73554 0.38822 0.96308 0.0
C634 C 0.75859 0.40278 0.98409 0.0
C635 C 0.7935 0.3983 0.97956 0.0
C636 C 0.84256 0.34405 0.04896 0.0
C637 C 0.8867 0.37991 0.01323 0.0
C638 C 0.83808 0.34916 0.01418 0.0
N639 N 0.86006 0.36688 0.99673 0.0
C640 C 0.89193 0.37534 0.048 0.0
C641 C 0.86969 0.35727 0.06592 0.0
C642 C 0.9241 0.38569 0.92496 0.0
C643 C 0.87914 0.34018 0.80878 0.0
C644 C 0.92316 0.38181 0.83485 0.0
C645 C 0.93564 0.36047 0.81269 0.0
C646 C 0.91342 0.33953 0.79962 0.0
N647 N 0.88951 0.38233 0.84376 0.0
C648 C 0.86759 0.36184 0.83102 0.0
Co649 Co 0.65854 0.64809 0.45769 0.0
Co650 Co 0.64203 0.61539 0.38071 0.0
O651 O 0.6672 0.64433 0.40835 0.0
C652 C 0.67513 0.71049 0.43493 0.0
O653 O 0.67793 0.70292 0.40282 0.0
C654 C 0.71383 0.60756 0.35241 0.0
O655 O 0.72726 0.60708 0.38305 0.0
O656 O 0.65858 0.58316 0.41137 0.0
O657 O 0.65043 0.60502 0.46176 0.0
H658 H 0.56586 0.52822 0.36431 0.0
H659 H 0.72367 0.66859 0.42632 0.0
O660 O 0.6667 0.69168 0.45733 0.0
H661 H 0.75791 0.60131 0.51808 0.0
H662 H 0.67818 0.68641 0.5765 0.0
H663 H 0.60668 0.62307 0.50419 0.0
H664 H 0.69727 0.61133 0.50716 0.0
H665 H 0.69035 0.68126 0.51524 0.0
O666 O 0.68178 0.61033 0.34875 0.0
H667 H 0.5971 0.56535 0.39741 0.0
H668 H 0.63441 0.60341 0.30611 0.0
H669 H 0.59389 0.62733 0.56542 0.0
H670 H 0.78452 0.65956 0.43669 0.0
H671 H 0.62976 0.6592 0.60203 0.0
H672 H 0.80211 0.62565 0.48285 0.0
O673 O 0.60908 0.6548 0.44844 0.0
H674 H 0.65605 0.70671 0.31111 0.0
H675 H 0.5745 0.63237 0.35091 0.0
H676 H 0.55405 0.67303 0.31522 0.0
H677 H 0.59501 0.71057 0.29493 0.0
H678 H 0.67522 0.66585 0.34733 0.0
H679 H 0.60386 0.56651 0.27206 0.0
H680 H 0.56913 0.52863 0.30115 0.0
O681 O 0.60016 0.61988 0.40953 0.0
C682 C 0.65569 0.58222 0.44386 0.0
C683 C 0.58088 0.54463 0.35133 0.0
C684 C 0.60225 0.56609 0.29957 0.0
N685 N 0.61757 0.58659 0.35377 0.0
C686 C 0.5986 0.56575 0.36994 0.0
C687 C 0.61964 0.58686 0.31901 0.0
C688 C 0.58275 0.54486 0.3159 0.0
C689 C 0.7309 0.65427 0.44685 0.0
N690 N 0.70669 0.64108 0.46655 0.0
C691 C 0.76552 0.64903 0.45243 0.0
C692 C 0.77537 0.62995 0.47827 0.0
C693 C 0.7506 0.61629 0.49803 0.0
C694 C 0.71623 0.62205 0.49169 0.0
C695 C 0.66238 0.67242 0.56082 0.0
C696 C 0.62253 0.63686 0.51996 0.0
C697 C 0.66907 0.6695 0.52607 0.0
N698 N 0.64934 0.65175 0.50612 0.0
C699 C 0.61511 0.63924 0.55461 0.0
C700 C 0.63523 0.65714 0.57513 0.0
C701 C 0.58916 0.63853 0.43101 0.0
C702 C 0.63792 0.69056 0.31988 0.0
C703 C 0.59233 0.64883 0.34274 0.0
C704 C 0.58067 0.6717 0.32226 0.0
C705 C 0.60368 0.69272 0.31083 0.0
N706 N 0.62591 0.64692 0.35168 0.0
C707 C 0.64863 0.66736 0.3404 0.0
Co708 Co 0.19496 0.40585 0.88954 0.0
Co709 Co 0.18731 0.36325 0.96108 0.0
O710 O 0.20828 0.37206 0.91696 0.0
C711 C 0.21377 0.35833 0.83859 0.0
O712 O 0.22188 0.33978 0.86271 0.0
C713 C 0.24826 0.3503 1.00477 0.0
O714 O 0.23629 0.36816 0.02808 0.0
O715 O 0.19952 0.40324 0.97792 0.0
O716 O 0.18824 0.42997 0.93137 0.0
H717 H 0.11583 0.38496 0.06407 0.0
H718 H 0.26315 0.37633 0.88248 0.0
O719 O 0.20162 0.38347 0.84573 0.0
H720 H 0.28855 0.48099 0.8965 0.0
H721 H 0.20024 0.47431 0.78905 0.0
H722 H 0.14061 0.45057 0.89598 0.0
H723 H 0.22929 0.4636 0.8968 0.0
H724 H 0.21872 0.43253 0.82414 0.0
O725 O 0.23269 0.34744 0.97641 0.0
H726 H 0.14189 0.39529 1.00824 0.0
H727 H 0.18965 0.31195 1.00852 0.0
H728 H 0.12158 0.49274 0.86184 0.0
H729 H 0.32255 0.39281 0.88134 0.0
H730 H 0.15145 0.50485 0.80792 0.0
H731 H 0.33578 0.44554 0.8884 0.0
O732 O 0.14655 0.39287 0.89138 0.0
H733 H 0.21076 0.26736 0.90293 0.0
H734 H 0.12393 0.32694 0.96112 0.0
H735 H 0.10828 0.27845 0.93877 0.0
H736 H 0.15191 0.24821 0.90953 0.0
H737 H 0.22511 0.3162 0.92517 0.0
H738 H 0.16411 0.30073 0.06435 0.0
H739 H 0.12689 0.33739 0.0925 0.0
O740 O 0.14148 0.37819 0.94573 0.0
C741 C 0.19455 0.42779 0.96311 0.0
C742 C 0.13201 0.36882 0.05206 0.0
C743 C 0.1591 0.32154 0.05222 0.0
N744 N 0.16731 0.35429 1.00513 0.0
C745 C 0.14686 0.37455 0.02046 0.0
C746 C 0.17348 0.32802 0.0206 0.0
C747 C 0.13822 0.34212 0.068 0.0
C748 C 0.26825 0.39931 0.88475 0.0
N749 N 0.24227 0.41896 0.88852 0.0
C750 C 0.30218 0.40854 0.88445 0.0
C751 C 0.3096 0.4381 0.88851 0.0
C752 C 0.28313 0.45798 0.89304 0.0
C753 C 0.24953 0.44795 0.89315 0.0
C754 C 0.18702 0.46925 0.81249 0.0
C755 C 0.15387 0.45576 0.87265 0.0
C756 C 0.19726 0.44553 0.83241 0.0
N757 N 0.18082 0.43912 0.86218 0.0
C758 C 0.14292 0.47964 0.85338 0.0
C759 C 0.15966 0.4864 0.82311 0.0
C760 C 0.12852 0.38596 0.91725 0.0
C761 C 0.19148 0.28035 0.91555 0.0
C762 C 0.14289 0.31419 0.94793 0.0
C763 C 0.13396 0.28661 0.93557 0.0
C764 C 0.15847 0.26963 0.91923 0.0
N765 N 0.1753 0.32465 0.94413 0.0
C766 C 0.19948 0.30804 0.92825 0.0
Co767 Co 0.31613 0.62089 0.39875 0.0
Co768 Co 0.32864 0.65643 0.47507 0.0
O769 O 0.30591 0.65274 0.43064 0.0
C770 C 0.32707 0.65337 0.33387 0.0
O771 O 0.35841 0.64331 0.33347 0.0
C772 C 0.25462 0.67097 0.48799 0.0
O773 O 0.24524 0.65519 0.46176 0.0
O774 O 0.31534 0.61543 0.48681 0.0
O775 O 0.32325 0.59244 0.43693 0.0
H776 H 0.40482 0.6222 0.56992 0.0
H777 H 0.25214 0.65441 0.38822 0.0
O778 O 0.30802 0.6485 0.35957 0.0
H779 H 0.21578 0.55235 0.40581 0.0
H780 H 0.2987 0.5605 0.29267 0.0
H781 H 0.36896 0.57472 0.3955 0.0
H782 H 0.27665 0.5654 0.40689 0.0
H783 H 0.2853 0.59986 0.33337 0.0
O784 O 0.28583 0.67208 0.4968 0.0
H785 H 0.37641 0.61901 0.514 0.0
H786 H 0.328 0.70078 0.5311 0.0
H787 H 0.38318 0.53499 0.35555 0.0
H788 H 0.19103 0.64218 0.38606 0.0
H789 H 0.34794 0.52769 0.30366 0.0
H790 H 0.17245 0.59086 0.39511 0.0
O791 O 0.36555 0.63124 0.40032 0.0
H792 H 0.30814 0.75689 0.42731 0.0
H793 H 0.39244 0.69178 0.48118 0.0
H794 H 0.4093 0.74178 0.46509 0.0
H795 H 0.36692 0.77481 0.43808 0.0
H796 H 0.29259 0.70656 0.44332 0.0
H797 H 0.35561 0.70468 0.58732 0.0
H798 H 0.39447 0.66528 0.607 0.0
O799 O 0.37291 0.64225 0.45552 0.0
C800 C 0.31854 0.59211 0.46909 0.0
C801 C 0.38802 0.63956 0.56158 0.0
C802 C 0.36035 0.68582 0.57137 0.0
N803 N 0.35075 0.65976 0.51916 0.0
C804 C 0.37193 0.63791 0.5299 0.0
C805 C 0.3447 0.68343 0.53954 0.0
C806 C 0.38217 0.66372 0.58239 0.0
C807 C 0.24435 0.63196 0.3918 0.0
N808 N 0.26805 0.61068 0.39784 0.0
C809 C 0.20966 0.6252 0.39073 0.0
C810 C 0.19925 0.59641 0.39587 0.0
C811 C 0.22354 0.57481 0.40195 0.0
C812 C 0.258 0.58238 0.40282 0.0
C813 C 0.31427 0.56347 0.31517 0.0
C814 C 0.35349 0.57169 0.373 0.0
C815 C 0.30684 0.58576 0.33829 0.0
N816 N 0.32639 0.58967 0.36677 0.0
C817 C 0.36167 0.54915 0.35046 0.0
C818 C 0.34189 0.54506 0.32135 0.0
C819 C 0.38465 0.63622 0.42605 0.0
C820 C 0.32684 0.74273 0.43909 0.0
C821 C 0.37399 0.70585 0.46911 0.0
C822 C 0.38362 0.73423 0.46022 0.0
C823 C 0.35982 0.75276 0.4451 0.0
N824 N 0.34158 0.69616 0.46322 0.0
C825 C 0.31815 0.71419 0.44832 0.0
Co826 Co 0.20261 0.61385 0.11259 0.0
Co827 Co 0.18601 0.65431 0.04039 0.0
O828 O 0.21181 0.64794 0.08304 0.0
C829 C 0.22258 0.66255 0.16229 0.0
O830 O 0.22923 0.68144 0.13805 0.0
C831 C 0.25742 0.67751 0.02456 0.0
O832 O 0.26978 0.66874 0.05387 0.0
O833 O 0.19953 0.61464 0.02406 0.0
O834 O 0.19342 0.5886 0.072 0.0
H835 H 0.10467 0.62447 0.94777 0.0
H836 H 0.26974 0.64557 0.11665 0.0
O837 O 0.21147 0.63703 0.1554 0.0
H838 H 0.29893 0.54233 0.09711 0.0
H839 H 0.22118 0.54704 0.21303 0.0
H840 H 0.1499 0.56736 0.1123 0.0
H841 H 0.23902 0.55761 0.10139 0.0
H842 H 0.23406 0.58889 0.17566 0.0
O843 O 0.22659 0.67202 0.01655 0.0
H844 H 0.13695 0.61828 1.00116 0.0
H845 H 0.18114 0.70242 0.9889 0.0
H846 H 0.13637 0.5251 0.14881 0.0
H847 H 0.3298 0.63124 0.11324 0.0
H848 H 0.17213 0.51471 0.1996 0.0
H849 H 0.34494 0.57922 0.1033 0.0
O850 O 0.15346 0.62478 0.11512 0.0
H851 H 0.2054 0.75223 0.09596 0.0
H852 H 0.12071 0.6878 0.04173 0.0
H853 H 0.1028 0.73595 0.06319 0.0
H854 H 0.14535 0.76868 0.0904 0.0
H855 H 0.222 0.70377 0.07468 0.0
H856 H 0.14961 0.70935 0.9352 0.0
H857 H 0.1109 0.67028 0.91438 0.0
O858 O 0.14359 0.63775 0.06109 0.0
C859 C 0.19688 0.59029 0.0398 0.0
C860 C 0.12139 0.64169 0.95662 0.0
C861 C 0.14665 0.68931 0.94954 0.0
N862 N 0.16079 0.66 0.9983 0.0
C863 C 0.13969 0.63834 0.98689 0.0
C864 C 0.16454 0.6852 0.97992 0.0
C865 C 0.12492 0.66738 0.93788 0.0
C866 C 0.27573 0.62291 0.11296 0.0
N867 N 0.25048 0.60252 0.10987 0.0
C868 C 0.31001 0.6149 0.11075 0.0
C869 C 0.31849 0.58574 0.1051 0.0
C870 C 0.2927 0.56505 0.10161 0.0
C871 C 0.25873 0.5739 0.10397 0.0
C872 C 0.20543 0.55132 0.19095 0.0
C873 C 0.16572 0.56291 0.13424 0.0
C874 C 0.21252 0.57506 0.16974 0.0
N875 N 0.19285 0.58052 0.14168 0.0
C876 C 0.15787 0.53898 0.15487 0.0
C877 C 0.17792 0.53318 0.18339 0.0
C878 C 0.13318 0.63032 0.09055 0.0
C879 C 0.18664 0.73823 0.08404 0.0
C880 C 0.13935 0.70171 0.05376 0.0
C881 C 0.12907 0.72907 0.06574 0.0
C882 C 0.15294 0.74742 0.08097 0.0
N883 N 0.1725 0.69283 0.05667 0.0
C884 C 0.19596 0.71072 0.07174 0.0
Co885 Co 0.31178 0.39747 0.60332 0.0
Co886 Co 0.32836 0.36133 0.52849 0.0
O887 O 0.30393 0.36485 0.57194 0.0
C888 C 0.32123 0.36607 0.66906 0.0
O889 O 0.35242 0.3764 0.67029 0.0
C890 C 0.25563 0.34429 0.51362 0.0
O891 O 0.24492 0.36239 0.53716 0.0
O892 O 0.31314 0.40156 0.51515 0.0
O893 O 0.31972 0.42527 0.56477 0.0
H894 H 0.40553 0.39676 0.43521 0.0
H895 H 0.2484 0.36273 0.61181 0.0
O896 O 0.30285 0.37045 0.64275 0.0
H897 H 0.20988 0.46366 0.59031 0.0
H898 H 0.28836 0.45928 0.70708 0.0
H899 H 0.36311 0.44482 0.60765 0.0
H900 H 0.27109 0.45192 0.59213 0.0
H901 H 0.2777 0.41899 0.66678 0.0
O902 O 0.28718 0.34309 0.50616 0.0
H903 H 0.37512 0.39996 0.48999 0.0
H904 H 0.33218 0.31581 0.47393 0.0
H905 H 0.37458 0.4855 0.64721 0.0
H906 H 0.18692 0.37364 0.61103 0.0
H907 H 0.33708 0.49292 0.69739 0.0
H908 H 0.16726 0.42439 0.60002 0.0
O909 O 0.36142 0.38816 0.60407 0.0
H910 H 0.31254 0.26102 0.57837 0.0
H911 H 0.39457 0.32906 0.5261 0.0
H912 H 0.414 0.28029 0.54435 0.0
H913 H 0.37278 0.2458 0.57057 0.0
H914 H 0.29437 0.31017 0.56021 0.0
H915 H 0.36187 0.31185 0.41885 0.0
H916 H 0.399 0.35245 0.39922 0.0
O917 O 0.37108 0.37799 0.54906 0.0
C918 C 0.31571 0.42516 0.53251 0.0
C919 C 0.38949 0.37888 0.44352 0.0
C920 C 0.36495 0.33125 0.43431 0.0
N921 N 0.35205 0.35804 0.48528 0.0
C922 C 0.37227 0.38054 0.47456 0.0
C923 C 0.3481 0.33367 0.4655 0.0
C924 C 0.38579 0.35403 0.42333 0.0
C925 C 0.24012 0.38494 0.60738 0.0
N926 N 0.26343 0.40663 0.60189 0.0
C927 C 0.20523 0.39095 0.60679 0.0
C928 C 0.19422 0.41941 0.60055 0.0
C929 C 0.21811 0.44144 0.59502 0.0
C930 C 0.25278 0.43461 0.59581 0.0
C931 C 0.30491 0.45626 0.68533 0.0
C932 C 0.34665 0.4479 0.6294 0.0
C933 C 0.29904 0.43344 0.66244 0.0
N934 N 0.31982 0.42947 0.6349 0.0
C935 C 0.35328 0.47098 0.65172 0.0
C936 C 0.33224 0.47513 0.67987 0.0
C937 C 0.38158 0.3842 0.57899 0.0
C938 C 0.33074 0.27583 0.56693 0.0
C939 C 0.37658 0.31433 0.53776 0.0
C940 C 0.38768 0.28666 0.5479 0.0
C941 C 0.36454 0.26731 0.56258 0.0
N942 N 0.34336 0.32253 0.54201 0.0
C943 C 0.32057 0.30369 0.55649 0.0
H944 H 0.34654 0.24224 0.01721 0.0
H945 H 0.34 0.26393 0.12388 0.0
H946 H 0.30735 0.30801 0.10988 0.0
H947 H 0.27558 0.33755 0.06748 0.0
H948 H 0.28228 0.31457 0.96103 0.0
H949 H 0.32 0.27405 0.97486 0.0
C950 C 0.33831 0.25674 0.03745 0.0
C951 C 0.34542 0.24956 0.0716 0.0
C952 C 0.31931 0.28179 0.02924 0.0
C953 C 0.33493 0.26887 0.09739 0.0
C954 C 0.31606 0.29402 0.08938 0.0
C955 C 0.28581 0.32404 0.04725 0.0
C956 C 0.2757 0.32905 0.01325 0.0
C957 C 0.30737 0.30034 0.05542 0.0
C958 C 0.28926 0.31118 0.98743 0.0
C959 C 0.31085 0.28789 0.9953 0.0
H960 H 0.25644 0.69308 0.55223 0.0
H961 H 0.19953 0.69705 0.45836 0.0
H962 H 0.16622 0.73808 0.48044 0.0
H963 H 0.15708 0.77584 0.52448 0.0
H964 H 0.21199 0.77013 0.61946 0.0
H965 H 0.24193 0.7267 0.59909 0.0
C966 C 0.23632 0.70261 0.53686 0.0
C967 C 0.23062 0.69213 0.50362 0.0
C968 C 0.21705 0.72605 0.54985 0.0
C969 C 0.20433 0.70457 0.48408 0.0
C970 C 0.18543 0.7282 0.49661 0.0
C971 C 0.1752 0.76478 0.54091 0.0
C972 C 0.18244 0.77637 0.57337 0.0
C973 C 0.19211 0.73956 0.52916 0.0
C974 C 0.2058 0.76167 0.59445 0.0
C975 C 0.22312 0.7369 0.58273 0.0
H976 H 0.30466 0.77769 0.9246 0.0
H977 H 0.36939 0.7977 1.01034 0.0
H978 H 0.35092 0.75323 0.03907 0.0
H979 H 0.31181 0.7114 0.04279 0.0
H980 H 0.24479 0.69255 0.95847 0.0
H981 H 0.2689 0.73327 0.92637 0.0
C982 C 0.31525 0.77198 0.94923 0.0
C983 C 0.33829 0.79115 0.96527 0.0
C984 C 0.30383 0.74657 0.96615 0.0
C985 C 0.35147 0.78349 0.99742 0.0
C986 C 0.34087 0.75803 0.01397 0.0
C987 C 0.30298 0.71578 0.01712 0.0
C988 C 0.27639 0.69892 1.00323 0.0
C989 C 0.31637 0.73979 0.99902 0.0
C990 C 0.2651 0.7052 0.96996 0.0
C991 C 0.27882 0.7286 0.95155 0.0
H992 H 0.26029 0.31532 0.45318 0.0
H993 H 0.20019 0.32041 0.54486 0.0
H994 H 0.16835 0.27686 0.52772 0.0
H995 H 0.16092 0.2348 0.4889 0.0
H996 H 0.21856 0.23148 0.39554 0.0
H997 H 0.24773 0.27683 0.41091 0.0
C998 C 0.23982 0.30716 0.46911 0.0
C999 C 0.23275 0.32105 0.50034 0.0
C1000 C 0.2213 0.28226 0.45889 0.0
C1001 C 0.20603 0.3103 0.52061 0.0
C1002 C 0.18796 0.28524 0.51093 0.0
C1003 C 0.1795 0.24427 0.4717 0.0
C1004 C 0.18767 0.22965 0.44119 0.0
C1005 C 0.19586 0.27066 0.48047 0.0
C1006 C 0.21164 0.24231 0.41908 0.0
C1007 C 0.2285 0.26819 0.42795 0.0
H1008 H 0.8054 0.74508 0.11075 0.0
H1009 H 0.87399 0.72736 0.02752 0.0
H1010 H 0.85481 0.77138 0.99825 0.0
H1011 H 0.81362 0.81153 0.99284 0.0
H1012 H 0.74286 0.82805 0.07461 0.0
H1013 H 0.76796 0.78842 0.10779 0.0
C1014 C 0.81673 0.75128 0.08664 0.0
C1015 C 0.84101 0.73285 0.07135 0.0
C1016 C 0.80485 0.77634 0.06934 0.0
C1017 C 0.85514 0.74105 0.03983 0.0
C1018 C 0.8441 0.76622 0.02296 0.0
C1019 C 0.80416 0.80691 0.01821 0.0
C1020 C 0.77617 0.82267 0.03098 0.0
C1021 C 0.81821 0.78355 0.03694 0.0
C1022 C 0.76419 0.81616 0.06392 0.0
C1023 C 0.7785 0.79341 0.08297 0.0
H1024 H 0.70621 0.20481 0.49157 0.0
H1025 H 0.77733 0.19179 0.57402 0.0
H1026 H 0.75146 0.23212 0.60551 0.0
H1027 H 0.71291 0.27482 0.60675 0.0
H1028 H 0.64457 0.28942 0.52236 0.0
H1029 H 0.66467 0.24481 0.49492 0.0
C1030 C 0.71559 0.21036 0.51674 0.0
C1031 C 0.7438 0.1953 0.53027 0.0
C1032 C 0.70121 0.23417 0.53436 0.0
C1033 C 0.75576 0.20306 0.56285 0.0
C1034 C 0.74103 0.22622 0.58089 0.0
C1035 C 0.70188 0.26783 0.58276 0.0
C1036 C 0.67729 0.28548 0.56665 0.0
C1037 C 0.71435 0.24249 0.5665 0.0
C1038 C 0.6636 0.27631 0.53529 0.0
C1039 C 0.67516 0.25081 0.51949 0.0
H1040 H 0.88097 0.26272 0.99274 0.0
H1041 H 0.80162 0.29232 0.92469 0.0
H1042 H 0.76703 0.24995 0.93945 0.0
H1043 H 0.75662 0.2075 0.97592 0.0
H1044 H 0.83487 0.17797 0.04508 0.0
H1045 H 0.87267 0.21701 0.02525 0.0
C1046 C 0.85641 0.25964 0.9806 0.0
C1047 C 0.84391 0.28096 0.95779 0.0
C1048 C 0.83625 0.23533 0.98963 0.0
C1049 C 0.81194 0.27647 0.94242 0.0
C1050 C 0.79201 0.25224 0.95095 0.0
C1051 C 0.78209 0.20933 0.98644 0.0
C1052 C 0.7927 0.18996 0.01227 0.0
C1053 C 0.80348 0.23202 0.97524 0.0
C1054 C 0.82598 0.19252 0.02521 0.0
C1055 C 0.84755 0.21498 0.01399 0.0
H1056 H 0.75936 0.82263 0.47619 0.0
H1057 H 0.69705 0.81495 0.56621 0.0
H1058 H 0.66561 0.77463 0.54016 0.0
H1059 H 0.65937 0.73853 0.49402 0.0
H1060 H 0.72032 0.74702 0.40321 0.0
H1061 H 0.74837 0.79014 0.42717 0.0
C1062 C 0.73854 0.81243 0.48992 0.0
C1063 C 0.73081 0.82174 0.52328 0.0
C1064 C 0.72041 0.78925 0.4747 0.0
C1065 C 0.70356 0.80838 0.54053 0.0
C1066 C 0.68566 0.78515 0.52571 0.0
C1067 C 0.67841 0.75009 0.47922 0.0
C1068 C 0.68785 0.73937 0.44691 0.0
C1069 C 0.69438 0.77496 0.49313 0.0
C1070 C 0.71241 0.75478 0.42804 0.0
C1071 C 0.72865 0.77936 0.44184 0.0
H1072 H 0.37135 0.08058 1.00972 0.0
H1073 H 0.36081 0.03745 0.10701 0.0
H1074 H 0.35854 0.99002 0.07801 0.0
H1075 H 0.36012 0.96106 0.0252 0.0
H1076 H 0.36815 1.0049 0.92807 0.0
H1077 H 0.37049 0.05207 0.9572 0.0
C1078 C 0.3682 0.06095 0.02484 0.0
C1079 C 0.36606 0.06283 0.06074 0.0
C1080 C 0.36641 0.0339 1.008 0.0
C1081 C 0.36241 0.03685 0.07949 0.0
C1082 C 0.36112 1.0097 0.06287 0.0
C1083 C 0.36207 0.98087 1.01021 0.0
C1084 C 0.36379 0.97922 0.97425 0.0
C1085 C 0.36311 1.00799 0.02714 0.0
C1086 C 0.36658 1.00533 0.9556 0.0
C1087 C 0.36802 0.03235 0.97229 0.0
H1088 H 0.153 0.94371 0.51021 0.0
H1089 H 0.16076 0.98905 0.60634 0.0
H1090 H 0.16107 0.03599 0.57604 0.0
H1091 H 0.15831 0.064 0.52209 0.0
H1092 H 0.15277 0.01741 0.42651 0.0
H1093 H 0.15252 0.97102 0.45706 0.0
C1094 C 0.15511 0.96371 0.52483 0.0
C1095 C 0.15704 0.96257 0.56076 0.0
C1096 C 0.1556 0.99048 0.50727 0.0
C1097 C 0.1594 0.98906 0.5788 0.0
C1098 C 0.15951 0.01594 0.56143 0.0
C1099 C 0.1573 0.04375 0.50782 0.0
C1100 C 0.15569 0.04445 0.47179 0.0
C1101 C 0.15753 0.01692 0.52562 0.0
C1102 C 0.15418 0.01778 0.45405 0.0
C1103 C 0.15398 0.99116 0.47155 0.0
H1104 H 0.7023 0.98211 0.95489 0.0
H1105 H 0.69349 0.93995 0.05295 0.0
H1106 H 0.69251 0.98765 0.08078 0.0
H1107 H 0.69375 0.04093 0.07742 0.0
H1108 H 0.70544 0.0835 0.97996 0.0
H1109 H 0.70541 0.03577 0.95174 0.0
C1110 C 0.70041 0.98321 0.98238 0.0
C1111 C 0.69817 0.95723 1.00173 0.0
C1112 C 0.70024 0.01077 0.99833 0.0
C1113 C 0.69547 0.95939 0.03734 0.0
C1114 C 0.69482 0.98672 0.0533 0.0
C1115 C 0.69662 0.03998 0.05001 0.0
C1116 C 0.69989 0.06601 0.03095 0.0
C1117 C 0.69719 0.01251 0.03405 0.0
C1118 C 0.70305 0.06398 0.99537 0.0
C1119 C 0.70304 0.03665 0.97921 0.0
H1120 H 0.82407 0.03572 0.45711 0.0
H1121 H 0.8282 0.07995 0.55427 0.0
H1122 H 0.82782 0.03284 0.58344 0.0
H1123 H 0.82589 0.97964 0.58154 0.0
H1124 H 0.81815 0.93489 0.48498 0.0
H1125 H 0.82024 0.982 0.45535 0.0
C1126 C 0.82458 0.03521 0.48468 0.0
C1127 C 0.82581 0.0616 0.50339 0.0
C1128 C 0.82365 1.008 0.50138 0.0
C1129 C 0.82699 0.06018 0.53913 0.0
C1130 C 0.82679 0.0332 0.55586 0.0
C1131 C 0.82429 0.97995 0.55401 0.0
C1132 C 0.82151 0.95351 0.53562 0.0
C1133 C 0.82495 1.00704 0.53725 0.0
C1134 C 0.82004 0.95475 0.49988 0.0
C1135 C 0.8213 0.98172 0.48292 0.0
H1136 H 0.85561 0.44607 1.01056 0.0
H1137 H 0.85537 0.49718 0.918 0.0
H1138 H 0.85565 0.54208 0.95168 0.0
H1139 H 0.85761 0.56668 1.00667 0.0
H1140 H 0.85674 0.51643 0.09979 0.0
H1141 H 0.85522 0.47114 0.06627 0.0
C1142 C 0.85535 0.46698 0.99758 0.0
C1143 C 0.8554 0.46802 0.9615 0.0
C1144 C 0.8554 0.49283 0.01717 0.0
C1145 C 0.8552 0.4955 0.94551 0.0
C1146 C 0.85544 0.52124 0.96481 0.0
C1147 C 0.85674 0.54595 0.01998 0.0
C1148 C 0.85714 0.54523 0.05603 0.0
C1149 C 0.85573 0.52014 1.00059 0.0
C1150 C 0.8563 0.51786 0.07227 0.0
C1151 C 0.8555 0.49193 0.05304 0.0
H1152 H 0.65738 0.45326 0.50268 0.0
H1153 H 0.6536 0.5003 0.598 0.0
H1154 H 0.65421 0.54666 0.56678 0.0
H1155 H 0.6544 0.57356 0.5127 0.0
H1156 H 0.65946 0.52645 0.41748 0.0
H1157 H 0.65978 0.48014 0.44876 0.0
C1158 C 0.65698 0.47355 0.5169 0.0
C1159 C 0.65555 0.47305 0.55294 0.0
C1160 C 0.65747 0.50009 0.49878 0.0
C1161 C 0.65484 0.49982 0.57046 0.0
C1162 C 0.65511 0.52637 0.55255 0.0
C1163 C 0.65588 0.55326 0.49856 0.0
C1164 C 0.65703 0.55373 0.4625 0.0
C1165 C 0.65625 0.52674 0.51673 0.0
C1166 C 0.65868 0.52696 0.44504 0.0
C1167 C 0.6588 0.50043 0.46297 0.0
H1168 H 0.19847 0.53473 0.0652 0.0
H1169 H 0.19439 0.58271 0.9705 0.0
H1170 H 0.19282 0.53668 0.93895 0.0
H1171 H 0.19204 0.48332 0.93831 0.0
H1172 H 0.19906 0.43503 0.0326 0.0
H1173 H 0.20006 0.48109 0.06438 0.0
C1174 C 0.19759 0.5353 0.03764 0.0
C1175 C 0.19679 0.56238 0.02032 0.0
C1176 C 0.19714 0.50875 0.01964 0.0
C1177 C 0.19525 0.56236 0.98457 0.0
C1178 C 0.19428 0.53601 0.96651 0.0
C1179 C 0.19412 0.48264 0.9658 0.0
C1180 C 0.19568 0.45552 0.98295 0.0
C1181 C 0.1952 0.50913 0.9838 0.0
C1182 C 0.19798 0.45544 0.01866 0.0
C1183 C 0.19851 0.4818 0.03684 0.0
H1184 H 0.3187 0.53808 0.43922 0.0
H1185 H 0.31601 0.58033 0.53759 0.0
H1186 H 0.31477 0.53257 0.56541 0.0
H1187 H 0.31507 0.47917 0.56195 0.0
H1188 H 0.31589 0.43668 0.46371 0.0
H1189 H 0.31706 0.48447 0.43572 0.0
C1190 C 0.31758 0.53701 0.46676 0.0
C1191 C 0.31727 0.56303 0.48619 0.0
C1192 C 0.31652 0.50944 0.48263 0.0
C1193 C 0.31611 0.56086 0.52188 0.0
C1194 C 0.31544 0.53351 0.53784 0.0
C1195 C 0.31522 0.48016 0.53438 0.0
C1196 C 0.31522 0.4541 0.51503 0.0
C1197 C 0.31566 0.50768 0.51847 0.0
C1198 C 0.31568 0.45619 0.47932 0.0
C1199 C 0.31644 0.48356 0.46329 0.0
H1200 H 0.58999 0.15915 0.05166 0.0
H1201 H 0.60206 0.12027 0.15114 0.0
H1202 H 0.5401 0.11844 0.1576 0.0
H1203 H 0.48278 0.12739 0.13471 0.0
H1204 H 0.47109 0.17074 0.03771 0.0
H1205 H 0.53295 0.17135 0.03066 0.0
C1206 C 0.5793 0.15068 0.07506 0.0
C1207 C 0.60096 0.14011 0.10101 0.0
C1208 C 0.5437 0.15043 0.079 0.0
C1209 C 0.58621 0.12875 0.13082 0.0
C1210 C 0.55073 0.12765 0.1345 0.0
C1211 C 0.49359 0.13741 0.11221 0.0
C1212 C 0.47202 0.14925 0.08691 0.0
C1213 C 0.52924 0.13844 0.10875 0.0
C1214 C 0.48687 0.16164 0.05772 0.0
C1215 C 0.52229 0.16195 0.05364 0.0
H1216 H 0.93187 0.86049 0.55794 0.0
H1217 H 0.92102 0.90711 0.65293 0.0
H1218 H 0.98294 0.91149 0.65721 0.0
H1219 H 0.03985 0.90254 0.63377 0.0
H1220 H 0.05088 0.85172 0.54175 0.0
H1221 H 0.98892 0.84883 0.53639 0.0
C1222 C 0.94289 0.87131 0.57985 0.0
C1223 C 0.92156 0.88328 0.60519 0.0
C1224 C 0.97855 0.87315 0.58258 0.0
C1225 C 0.93663 0.89751 0.63314 0.0
C1226 C 0.97209 0.90011 0.63556 0.0
C1227 C 0.02891 0.8904 0.61277 0.0
C1228 C 0.0503 0.87704 0.58844 0.0
C1229 C 0.99327 0.88801 0.61043 0.0
C1230 C 0.03524 0.86204 0.56102 0.0
C1231 C 0.99976 0.86037 0.55793 0.0
H1232 H 0.47916 0.90956 0.89885 0.0
H1233 H 0.46323 0.86822 0.99644 0.0
H1234 H 0.52474 0.863 1.00358 0.0
H1235 H 0.58258 0.87037 0.98248 0.0
H1236 H 0.59887 0.90831 0.88312 0.0
H1237 H 0.53726 0.91447 0.87624 0.0
C1238 C 0.48896 0.8991 0.92156 0.0
C1239 C 0.46632 0.88912 0.94696 0.0
C1240 C 0.52436 0.89554 0.92516 0.0
C1241 C 0.47985 0.87597 0.97637 0.0
C1242 C 0.51507 0.873 0.98049 0.0
C1243 C 0.57287 0.87969 0.95906 0.0
C1244 C 0.59558 0.88869 0.93325 0.0
C1245 C 0.53751 0.88266 0.95504 0.0
C1246 C 0.58214 0.90102 0.90333 0.0
C1247 C 0.54689 0.90461 0.89943 0.0
H1248 H 0.03907 0.11106 0.39283 0.0
H1249 H 0.05687 0.15707 0.48721 0.0
H1250 H 0.9955 0.16215 0.49541 0.0
H1251 H 0.93724 0.15291 0.47644 0.0
H1252 H 0.91885 0.11091 0.3797 0.0
H1253 H 0.98039 0.10516 0.37159 0.0
C1254 C 0.02972 0.12259 0.41497 0.0
C1255 C 0.05289 0.13384 0.43923 0.0
C1256 C 0.99433 0.12617 0.41908 0.0
C1257 C 0.03988 0.14831 0.468 0.0
C1258 C 1.00473 0.15121 0.47273 0.0
C1259 C 0.94646 0.14288 0.45325 0.0
C1260 C 0.92316 0.1325 0.42864 0.0
C1261 C 0.98177 0.14022 0.44846 0.0
C1262 C 0.93601 0.11926 0.39901 0.0
C1263 C 0.97123 0.11588 0.39442 0.0
H1264 H 0.08263 0.64972 0.04864 0.0
H1265 H 0.09915 0.60326 0.14294 0.0
H1266 H 0.03759 0.59679 0.1493 0.0
H1267 H 0.97941 0.60416 0.12788 0.0
H1268 H 0.96303 0.65506 0.03668 0.0
H1269 H 0.02457 0.65963 0.02912 0.0
C1270 C 0.07296 0.6385 0.0709 0.0
C1271 C 0.09574 0.62723 0.09544 0.0
C1272 C 0.03757 0.6355 0.07481 0.0
C1273 C 0.08237 0.61238 0.12378 0.0
C1274 C 0.04714 0.60859 0.12736 0.0
C1275 C 0.9891 0.61666 0.10659 0.0
C1276 C 0.96632 0.62959 0.08316 0.0
C1277 C 0.02452 0.62009 0.10304 0.0
C1278 C 0.97976 0.64506 0.05529 0.0
C1279 C 0.015 0.6477 0.05096 0.0
H1280 H 0.53425 0.41024 0.62054 0.0
H1281 H 0.55331 0.36197 0.528 0.0
H1282 H 0.49194 0.35733 0.51859 0.0
H1283 H 0.43309 0.36648 0.53699 0.0
H1284 H 0.41445 0.41018 0.63265 0.0
H1285 H 0.4757 0.4168 0.64063 0.0
C1286 C 0.5252 0.3983 0.59852 0.0
C1287 C 0.54866 0.38615 0.57527 0.0
C1288 C 0.48992 0.39485 0.59386 0.0
C1289 C 0.53603 0.37137 0.5465 0.0
C1290 C 0.50089 0.3687 0.54109 0.0
C1291 C 0.44228 0.37718 0.5598 0.0
C1292 C 0.41894 0.38764 0.58426 0.0
C1293 C 0.47761 0.3802 0.56472 0.0
C1294 C 0.43164 0.40174 0.61346 0.0
C1295 C 0.46672 0.4056 0.61802 0.0
H1296 H 0.07986 0.36117 0.95846 0.0
H1297 H 0.09189 0.41684 0.87042 0.0
H1298 H 0.03038 0.42297 0.86693 0.0
H1299 H 0.97364 0.41304 0.88865 0.0
H1300 H 0.95969 0.35277 0.97207 0.0
H1301 H 0.02172 0.34827 0.97788 0.0
C1302 C 0.06909 0.37439 0.93827 0.0
C1303 C 0.09077 0.38845 0.91468 0.0
C1304 C 0.03339 0.37713 0.93569 0.0
C1305 C 0.07609 0.40566 0.88887 0.0
C1306 C 0.04083 0.40925 0.88688 0.0
C1307 C 0.98385 0.39845 0.90781 0.0
C1308 C 0.96169 0.38295 0.92957 0.0
C1309 C 0.01929 0.39508 0.91009 0.0
C1310 C 0.97594 0.36483 0.95478 0.0
C1311 C 0.01145 0.36223 0.95808 0.0
H1312 H 0.53964 0.61381 0.39169 0.0
H1313 H 0.55354 0.66734 0.4812 0.0
H1314 H 0.49163 0.67047 0.48808 0.0
H1315 H 0.43382 0.65811 0.4684 0.0
H1316 H 0.42061 0.60938 0.37514 0.0
H1317 H 0.48236 0.60464 0.36976 0.0
C1318 C 0.52939 0.62667 0.41242 0.0
C1319 C 0.55154 0.64067 0.43562 0.0
C1320 C 0.49387 0.62925 0.4155 0.0
C1321 C 0.53731 0.65652 0.46278 0.0
C1322 C 0.50186 0.65831 0.46672 0.0
C1323 C 0.44429 0.64675 0.44664 0.0
C1324 C 0.42232 0.63424 0.42213 0.0
C1325 C 0.47991 0.64485 0.44313 0.0
C1326 C 0.4367 0.61935 0.39432 0.0
C1327 C 0.47206 0.61657 0.39126 0.0
H1328 H 0.28543 0.06321 0.21893 0.0
H1329 H 0.30936 0.15529 0.21457 0.0
H1330 H 0.2813 0.163 0.26897 0.0
H1331 H 0.25062 0.14385 0.31871 0.0
H1332 H 0.22223 0.05293 0.32179 0.0
H1333 H 0.25156 0.04448 0.26752 0.0
C1334 C 0.28421 0.08502 0.2297 0.0
C1335 C 0.2997 0.10856 0.2124 0.0
C1336 C 0.26762 0.08947 0.26119 0.0
C1337 C 0.29769 0.13667 0.22693 0.0
C1338 C 0.28179 0.14114 0.25832 0.0
C1339 C 0.2513 0.12211 0.30771 0.0
C1340 C 0.23503 0.09888 0.32462 0.0
C1341 C 0.26701 0.1177 0.27588 0.0
C1342 C 0.23507 0.07104 0.30949 0.0
C1343 C 0.25165 0.06626 0.27836 0.0
H1344 H 0.26912 0.87568 0.821 0.0
H1345 H 0.29557 0.96668 0.83073 0.0
H1346 H 0.26705 0.97744 0.77657 0.0
H1347 H 0.23465 0.96073 0.72599 0.0
H1348 H 0.21282 0.86872 0.71476 0.0
H1349 H 0.23972 0.85867 0.76925 0.0
C1350 C 0.26815 0.89793 0.81147 0.0
C1351 C 0.28368 0.92048 0.83024 0.0
C1352 C 0.25293 0.90372 0.77963 0.0
C1353 C 0.2833 0.94904 0.81699 0.0
C1354 C 0.26718 0.95515 0.78592 0.0
C1355 C 0.23606 0.93844 0.73527 0.0
C1356 C 0.22144 0.91561 0.71599 0.0
C1357 C 0.25204 0.93263 0.76684 0.0
C1358 C 0.22372 0.88685 0.72867 0.0
C1359 C 0.239 0.88102 0.76012 0.0
H1360 H 0.76083 0.86659 0.8326 0.0
H1361 H 0.6619 0.84044 0.79564 0.0
H1362 H 0.68629 0.82963 0.73972 0.0
H1363 H 0.73432 0.83359 0.69933 0.0
H1364 H 0.83134 0.86527 0.7351 0.0
H1365 H 0.80942 0.86763 0.79334 0.0
C1366 C 0.74471 0.8579 0.81256 0.0
C1367 C 0.70954 0.8543 0.81837 0.0
C1368 C 0.75865 0.85293 0.78004 0.0
C1369 C 0.68902 0.84344 0.79187 0.0
C1370 C 0.70295 0.83735 0.75983 0.0
C1371 C 0.75088 0.84013 0.72011 0.0
C1372 C 0.78456 0.84881 0.7131 0.0
C1373 C 0.73754 0.84281 0.75331 0.0
C1374 C 0.80546 0.85817 0.74002 0.0
C1375 C 0.79285 0.85971 0.77326 0.0
H1376 H 0.83566 0.17413 0.28825 0.0
H1377 H 0.74706 0.1435 0.34266 0.0
H1378 H 0.71241 0.14903 0.2917 0.0
H1379 H 0.70834 0.15759 0.22992 0.0
H1380 H 0.7952 0.1917 0.17597 0.0
H1381 H 0.82914 0.19022 0.22828 0.0
C1382 C 0.80865 0.16919 0.28907 0.0
C1383 C 0.79422 0.15807 0.31924 0.0
C1384 C 0.78846 0.17294 0.25962 0.0
C1385 C 0.75903 0.15206 0.31991 0.0
C1386 C 0.73909 0.15508 0.29065 0.0
C1387 C 0.73446 0.16537 0.22988 0.0
C1388 C 0.74924 0.17474 0.19919 0.0
C1389 C 0.75369 0.16479 0.26015 0.0
C1390 C 0.78312 0.18472 0.19939 0.0
C1391 C 0.80265 0.1836 0.22925 0.0
H1392 H 0.69343 0.60993 0.28582 0.0
H1393 H 0.78338 0.60074 0.34826 0.0
H1394 H 0.81866 0.59799 0.29698 0.0
H1395 H 0.82411 0.5989 0.23446 0.0
H1396 H 0.73407 0.60841 0.1722 0.0
H1397 H 0.69877 0.61014 0.22344 0.0
C1398 C 0.72074 0.60719 0.2884 0.0
C1399 C 0.73558 0.60549 0.32119 0.0
C1400 C 0.74091 0.60566 0.25874 0.0
C1401 C 0.77111 0.6021 0.3236 0.0
C1402 C 0.79134 0.60053 0.29419 0.0
C1403 C 0.79675 0.60118 0.23193 0.0
C1404 C 0.78191 0.60343 0.19918 0.0
C1405 C 0.77654 0.60234 0.26162 0.0
C1406 C 0.74634 0.60655 0.19682 0.0
C1407 C 0.72609 0.6076 0.2262 0.0
H1408 H 0.68909 0.41703 0.72949 0.0
H1409 H 0.77901 0.4207 0.66643 0.0
H1410 H 0.81488 0.42176 0.71742 0.0
H1411 H 0.82085 0.42065 0.77988 0.0
H1412 H 0.73087 0.41647 0.84283 0.0
H1413 H 0.695 0.41673 0.79187 0.0
C1414 C 0.71652 0.4182 0.72673 0.0
C1415 C 0.73118 0.41883 0.69385 0.0
C1416 C 0.73706 0.4187 0.75624 0.0
C1417 C 0.76687 0.42022 0.69117 0.0
C1418 C 0.78745 0.42081 0.72041 0.0
C1419 C 0.79339 0.41999 0.78261 0.0
C1420 C 0.77872 0.41862 0.81546 0.0
C1421 C 0.77284 0.41995 0.75309 0.0
C1422 C 0.74301 0.41759 0.81811 0.0
C1423 C 0.72243 0.41769 0.78889 0.0
H1424 H 0.25389 0.36819 0.68458 0.0
H1425 H 0.35141 0.3424 0.72553 0.0
H1426 H 0.32506 0.33315 0.78099 0.0
H1427 H 0.27567 0.33816 0.81945 0.0
H1428 H 0.18034 0.37013 0.77965 0.0
H1429 H 0.20423 0.37097 0.72209 0.0
C1430 C 0.26932 0.35996 0.70541 0.0
C1431 C 0.30462 0.35593 0.70087 0.0
C1432 C 0.2543 0.35601 0.73755 0.0
C1433 C 0.32422 0.34568 0.72834 0.0
C1434 C 0.30917 0.34049 0.76009 0.0
C1435 C 0.25993 0.34449 0.79795 0.0
C1436 C 0.22615 0.35361 0.80354 0.0
C1437 C 0.27442 0.34635 0.76524 0.0
C1438 C 0.20627 0.36271 0.77577 0.0
C1439 C 0.22 0.36335 0.74295 0.0
H1440 H 0.25988 0.65293 0.317 0.0
H1441 H 0.3589 0.67611 0.2778 0.0
H1442 H 0.33385 0.68569 0.22176 0.0
H1443 H 0.28493 0.68158 0.18225 0.0
H1444 H 0.18783 0.65271 0.22067 0.0
H1445 H 0.21073 0.65158 0.27864 0.0
C1446 C 0.27594 0.6607 0.29644 0.0
C1447 C 0.31128 0.66384 0.30168 0.0
C1448 C 0.2616 0.66497 0.26399 0.0
C1449 C 0.33166 0.6735 0.2745 0.0
C1450 C 0.31735 0.67889 0.2424 0.0
C1451 C 0.26863 0.67593 0.20354 0.0
C1452 C 0.2346 0.66774 0.19743 0.0
C1453 C 0.2825 0.67392 0.23659 0.0
C1454 C 0.21395 0.65947 0.22495 0.0
C1455 C 0.22712 0.65863 0.25801 0.0
loop_
_geom_bond_atom_site_label_1
_geom_bond_atom_site_label_2
_geom_bond_distance
_geom_bond_site_symmetry_2
_ccdc_geom_bond_type
Co0 O2 2.143 . S
Co0 O8 2.074 . S
Co0 O11 2.093 . S
Co0 O24 2.097 . S
Co0 N41 2.151 . S
Co0 N49 2.214 1_554 S
Co1 O2 2.160 . S
Co1 O7 2.058 . S
Co1 O17 2.057 . S
Co1 O32 2.037 . S
Co1 N36 2.145 . S
Co1 N57 2.257 . S
O2 Co0 2.143 . S
O2 Co1 2.160 . S
C3 O4 1.278 . S
C3 O11 1.224 . S
O4 C3 1.278 . S
C5 O6 1.245 . S
C5 O17 1.232 . S
O6 C5 1.245 . S
O7 Co1 2.058 . S
O7 C33 1.269 . S
O8 Co0 2.074 . S
O8 C33 1.257 . S
H9 C34 0.930 . S
H10 C40 0.930 . S
O11 Co0 2.093 . S
O11 C3 1.224 . S
H12 C44 0.929 . S
H13 C46 0.930 . S
H14 C47 0.930 1_554 S
H15 C45 0.929 1_556 S
H16 C48 0.928 . S
O17 Co1 2.057 . S
O17 C5 1.232 . S
H18 C37 0.929 . S
H19 C38 0.929 . S
H20 C50 0.931 . S
H21 C42 0.929 . S
H22 C51 0.930 . S
H23 C43 0.931 . S
O24 Co0 2.097 . S
O24 C52 1.214 . S
H25 C53 0.929 . S
H26 C54 0.929 . S
H27 C55 0.930 . S
H28 C56 0.929 . S
H29 C58 0.930 . S
H30 C35 0.930 . S
H31 C39 0.930 . S
O32 Co1 2.037 . S
O32 C52 1.234 . S
C33 O7 1.269 . S
C33 O8 1.257 . S
C34 H9 0.930 . S
C34 C37 1.388 . S
C34 C39 1.418 . S
C35 H30 0.930 . S
C35 C38 1.404 . S
C35 C39 1.353 . S
N36 Co1 2.145 . S
N36 C37 1.397 . S
N36 C38 1.334 . S
C37 H18 0.929 . S
C37 C34 1.388 . S
C37 N36 1.397 . S
C38 H19 0.929 . S
C38 C35 1.404 . S
C38 N36 1.334 . S
C39 H31 0.930 . S
C39 C34 1.418 . S
C39 C35 1.353 . S
C40 H10 0.930 . S
C40 N41 1.330 . S
C40 C42 1.446 . S
N41 Co0 2.151 . S
N41 C40 1.330 . S
N41 C45 1.418 . S
C42 H21 0.929 . S
C42 C40 1.446 . S
C42 C43 1.332 1_554 S
C43 H23 0.931 . S
C43 C42 1.332 1_556 S
C43 C44 1.267 . S
C44 H12 0.929 . S
C44 C43 1.267 . S
C44 C45 1.251 1_556 S
C45 H15 0.929 1_554 S
C45 N41 1.418 . S
C45 C44 1.251 1_554 S
C46 H13 0.930 . S
C46 C48 1.406 . S
C46 C51 1.261 . S
C47 H14 0.930 1_556 S
C47 N49 1.325 . S
C47 C50 1.357 . S
C48 H16 0.928 . S
C48 C46 1.406 . S
C48 N49 1.261 . S
N49 Co0 2.214 1_556 S
N49 C47 1.325 . S
N49 C48 1.261 . S
C50 H20 0.931 . S
C50 C47 1.357 . S
C50 C51 1.312 . S
C51 H22 0.930 . S
C51 C46 1.261 . S
C51 C50 1.312 . S
C52 O24 1.214 . S
C52 O32 1.234 . S
C53 H25 0.929 . S
C53 C56 1.391 . S
C53 C58 1.391 . S
C54 H26 0.929 . S
C54 C55 1.390 . S
C54 N57 1.391 . S
C55 H27 0.930 . S
C55 C54 1.390 . S
C55 C56 1.392 . S
C56 H28 0.929 . S
C56 C53 1.391 . S
C56 C55 1.392 . S
N57 Co1 2.257 . S
N57 C54 1.391 . S
N57 C58 1.388 . S
C58 H29 0.930 . S
C58 C53 1.391 . S
C58 N57 1.388 . S
Co59 O61 2.143 . S
Co59 O67 2.074 . S
Co59 O70 2.093 . S
Co59 O83 2.097 . S
Co59 N100 2.151 . S
Co59 N108 2.214 . S
Co60 O61 2.160 . S
Co60 O66 2.058 . S
Co60 O76 2.057 . S
Co60 O91 2.037 . S
Co60 N95 2.145 . S
Co60 N116 2.257 . S
O61 Co59 2.143 . S
O61 Co60 2.160 . S
C62 O63 1.278 . S
C62 O70 1.224 . S
O63 C62 1.278 . S
C64 O65 1.245 . S
C64 O76 1.232 . S
O65 C64 1.245 . S
O66 Co60 2.058 . S
O66 C92 1.269 . S
O67 Co59 2.074 . S
O67 C92 1.257 . S
H68 C93 0.930 . S
H69 C99 0.930 . S
O70 Co59 2.093 . S
O70 C62 1.224 . S
H71 C103 0.929 . S
H72 C105 0.930 . S
H73 C106 0.930 . S
H74 C104 0.929 . S
H75 C107 0.928 . S
O76 Co60 2.057 . S
O76 C64 1.232 . S
H77 C96 0.929 . S
H78 C97 0.929 . S
H79 C109 0.931 . S
H80 C101 0.929 . S
H81 C110 0.930 . S
H82 C102 0.931 . S
O83 Co59 2.097 . S
O83 C111 1.214 . S
H84 C112 0.929 . S
H85 C113 0.929 . S
H86 C114 0.930 . S
H87 C115 0.929 . S
H88 C117 0.930 . S
H89 C94 0.930 . S
H90 C98 0.930 . S
O91 Co60 2.037 . S
O91 C111 1.234 . S
C92 O66 1.269 . S
C92 O67 1.257 . S
C93 H68 0.930 . S
C93 C96 1.388 . S
C93 C98 1.418 . S
C94 H89 0.930 . S
C94 C97 1.404 . S
C94 C98 1.353 . S
N95 Co60 2.145 . S
N95 C96 1.397 . S
N95 C97 1.334 . S
C96 H77 0.929 . S
C96 C93 1.388 . S
C96 N95 1.397 . S
C97 H78 0.929 . S
C97 C94 1.404 . S
C97 N95 1.334 . S
C98 H90 0.930 . S
C98 C93 1.418 . S
C98 C94 1.353 . S
C99 H69 0.930 . S
C99 N100 1.330 . S
C99 C101 1.446 . S
N100 Co59 2.151 . S
N100 C99 1.330 . S
N100 C104 1.418 . S
C101 H80 0.929 . S
C101 C99 1.446 . S
C101 C102 1.332 . S
C102 H82 0.931 . S
C102 C101 1.332 . S
C102 C103 1.267 . S
C103 H71 0.929 . S
C103 C102 1.267 . S
C103 C104 1.251 . S
C104 H74 0.929 . S
C104 N100 1.418 . S
C104 C103 1.251 . S
C105 H72 0.930 . S
C105 C107 1.406 . S
C105 C110 1.261 . S
C106 H73 0.930 . S
C106 N108 1.325 . S
C106 C109 1.357 . S
C107 H75 0.928 . S
C107 C105 1.406 . S
C107 N108 1.261 . S
N108 Co59 2.214 . S
N108 C106 1.325 . S
N108 C107 1.261 . S
C109 H79 0.931 . S
C109 C106 1.357 . S
C109 C110 1.312 . S
C110 H81 0.930 . S
C110 C105 1.261 . S
C110 C109 1.312 . S
C111 O83 1.214 . S
C111 O91 1.234 . S
C112 H84 0.929 . S
C112 C115 1.391 . S
C112 C117 1.391 . S
C113 H85 0.929 . S
C113 C114 1.390 . S
C113 N116 1.391 . S
C114 H86 0.930 . S
C114 C113 1.390 . S
C114 C115 1.392 . S
C115 H87 0.929 . S
C115 C112 1.391 . S
C115 C114 1.392 . S
N116 Co60 2.257 . S
N116 C113 1.391 . S
N116 C117 1.388 . S
C117 H88 0.930 . S
C117 C112 1.391 . S
C117 N116 1.388 . S
Co118 O120 2.143 . S
Co118 O126 2.074 . S
Co118 O129 2.093 . S
Co118 O142 2.097 . S
Co118 N159 2.151 . S
Co118 N167 2.214 1_556 S
Co119 O120 2.160 . S
Co119 O125 2.058 . S
Co119 O135 2.057 . S
Co119 O150 2.037 . S
Co119 N154 2.145 . S
Co119 N175 2.257 . S
O120 Co118 2.143 . S
O120 Co119 2.160 . S
C121 O122 1.278 . S
C121 O129 1.224 . S
O122 C121 1.278 . S
C123 O124 1.245 . S
C123 O135 1.232 . S
O124 C123 1.245 . S
O125 Co119 2.058 . S
O125 C151 1.269 . S
O126 Co118 2.074 . S
O126 C151 1.257 . S
H127 C152 0.930 . S
H128 C158 0.930 . S
O129 Co118 2.093 . S
O129 C121 1.224 . S
H130 C162 0.929 . S
H131 C164 0.930 . S
H132 C165 0.930 1_556 S
H133 C163 0.929 1_554 S
H134 C166 0.928 . S
O135 Co119 2.057 . S
O135 C123 1.232 . S
H136 C155 0.929 . S
H137 C156 0.929 . S
H138 C168 0.931 . S
H139 C160 0.929 . S
H140 C169 0.930 . S
H141 C161 0.931 . S
O142 Co118 2.097 . S
O142 C170 1.214 . S
H143 C171 0.929 . S
H144 C172 0.929 . S
H145 C173 0.930 . S
H146 C174 0.929 . S
H147 C176 0.930 . S
H148 C153 0.930 . S
H149 C157 0.930 . S
O150 Co119 2.037 . S
O150 C170 1.234 . S
C151 O125 1.269 . S
C151 O126 1.257 . S
C152 H127 0.930 . S
C152 C155 1.388 . S
C152 C157 1.418 . S
C153 H148 0.930 . S
C153 C156 1.404 . S
C153 C157 1.353 . S
N154 Co119 2.145 . S
N154 C155 1.397 . S
N154 C156 1.334 . S
C155 H136 0.929 . S
C155 C152 1.388 . S
C155 N154 1.397 . S
C156 H137 0.929 . S
C156 C153 1.404 . S
C156 N154 1.334 . S
C157 H149 0.930 . S
C157 C152 1.418 . S
C157 C153 1.353 . S
C158 H128 0.930 . S
C158 N159 1.330 . S
C158 C160 1.446 . S
N159 Co118 2.151 . S
N159 C158 1.330 . S
N159 C163 1.418 . S
C160 H139 0.929 . S
C160 C158 1.446 . S
C160 C161 1.332 1_556 S
C161 H141 0.931 . S
C161 C160 1.332 1_554 S
C161 C162 1.267 . S
C162 H130 0.929 . S
C162 C161 1.267 . S
C162 C163 1.251 1_554 S
C163 H133 0.929 1_556 S
C163 N159 1.418 . S
C163 C162 1.251 1_556 S
C164 H131 0.930 . S
C164 C166 1.406 . S
C164 C169 1.261 . S
C165 H132 0.930 1_554 S
C165 N167 1.325 . S
C165 C168 1.357 . S
C166 H134 0.928 . S
C166 C164 1.406 . S
C166 N167 1.261 . S
N167 Co118 2.214 1_554 S
N167 C165 1.325 . S
N167 C166 1.261 . S
C168 H138 0.931 . S
C168 C165 1.357 . S
C168 C169 1.312 . S
C169 H140 0.930 . S
C169 C164 1.261 . S
C169 C168 1.312 . S
C170 O142 1.214 . S
C170 O150 1.234 . S
C171 H143 0.929 . S
C171 C174 1.391 . S
C171 C176 1.391 . S
C172 H144 0.929 . S
C172 C173 1.390 . S
C172 N175 1.391 . S
C173 H145 0.930 . S
C173 C172 1.390 . S
C173 C174 1.392 . S
C174 H146 0.929 . S
C174 C171 1.391 . S
C174 C173 1.392 . S
N175 Co119 2.257 . S
N175 C172 1.391 . S
N175 C176 1.388 . S
C176 H147 0.930 . S
C176 C171 1.391 . S
C176 N175 1.388 . S
Co177 O179 2.143 . S
Co177 O185 2.074 . S
Co177 O188 2.093 . S
Co177 O201 2.097 . S
Co177 N218 2.151 . S
Co177 N226 2.214 . S
Co178 O179 2.160 . S
Co178 O184 2.058 . S
Co178 O194 2.057 . S
Co178 O209 2.037 . S
Co178 N213 2.145 . S
Co178 N234 2.257 . S
O179 Co177 2.143 . S
O179 Co178 2.160 . S
C180 O181 1.278 . S
C180 O188 1.224 . S
O181 C180 1.278 . S
C182 O183 1.245 . S
C182 O194 1.232 . S
O183 C182 1.245 . S
O184 Co178 2.058 . S
O184 C210 1.269 . S
O185 Co177 2.074 . S
O185 C210 1.257 . S
H186 C211 0.930 . S
H187 C217 0.930 . S
O188 Co177 2.093 . S
O188 C180 1.224 . S
H189 C221 0.929 . S
H190 C223 0.930 . S
H191 C224 0.930 . S
H192 C222 0.929 . S
H193 C225 0.928 . S
O194 Co178 2.057 . S
O194 C182 1.232 . S
H195 C214 0.929 . S
H196 C215 0.929 . S
H197 C227 0.931 . S
H198 C219 0.929 . S
H199 C228 0.930 . S
H200 C220 0.931 . S
O201 Co177 2.097 . S
O201 C229 1.214 . S
H202 C230 0.929 . S
H203 C231 0.929 . S
H204 C232 0.930 . S
H205 C233 0.929 . S
H206 C235 0.930 . S
H207 C212 0.930 . S
H208 C216 0.930 . S
O209 Co178 2.037 . S
O209 C229 1.234 . S
C210 O184 1.269 . S
C210 O185 1.257 . S
C211 H186 0.930 . S
C211 C214 1.388 . S
C211 C216 1.418 . S
C212 H207 0.930 . S
C212 C215 1.404 . S
C212 C216 1.353 . S
N213 Co178 2.145 . S
N213 C214 1.397 . S
N213 C215 1.334 . S
C214 H195 0.929 . S
C214 C211 1.388 . S
C214 N213 1.397 . S
C215 H196 0.929 . S
C215 C212 1.404 . S
C215 N213 1.334 . S
C216 H208 0.930 . S
C216 C211 1.418 . S
C216 C212 1.353 . S
C217 H187 0.930 . S
C217 N218 1.330 . S
C217 C219 1.446 . S
N218 Co177 2.151 . S
N218 C217 1.330 . S
N218 C222 1.418 . S
C219 H198 0.929 . S
C219 C217 1.446 . S
C219 C220 1.332 . S
C220 H200 0.931 . S
C220 C219 1.332 . S
C220 C221 1.267 . S
C221 H189 0.929 . S
C221 C220 1.267 . S
C221 C222 1.251 . S
C222 H192 0.929 . S
C222 N218 1.418 . S
C222 C221 1.251 . S
C223 H190 0.930 . S
C223 C225 1.406 . S
C223 C228 1.261 . S
C224 H191 0.930 . S
C224 N226 1.325 . S
C224 C227 1.357 . S
C225 H193 0.928 . S
C225 C223 1.406 . S
C225 N226 1.261 . S
N226 Co177 2.214 . S
N226 C224 1.325 . S
N226 C225 1.261 . S
C227 H197 0.931 . S
C227 C224 1.357 . S
C227 C228 1.312 . S
C228 H199 0.930 . S
C228 C223 1.261 . S
C228 C227 1.312 . S
C229 O201 1.214 . S
C229 O209 1.234 . S
C230 H202 0.929 . S
C230 C233 1.391 . S
C230 C235 1.391 . S
C231 H203 0.929 . S
C231 C232 1.390 . S
C231 N234 1.391 . S
C232 H204 0.930 . S
C232 C231 1.390 . S
C232 C233 1.392 . S
C233 H205 0.929 . S
C233 C230 1.391 . S
C233 C232 1.392 . S
N234 Co178 2.257 . S
N234 C231 1.391 . S
N234 C235 1.388 . S
C235 H206 0.930 . S
C235 C230 1.391 . S
C235 N234 1.388 . S
Co236 O238 2.143 . S
Co236 O244 2.074 . S
Co236 O247 2.093 . S
Co236 O260 2.097 . S
Co236 N277 2.151 . S
Co236 N285 2.214 . S
Co237 O238 2.160 . S
Co237 O243 2.058 . S
Co237 O253 2.057 . S
Co237 O268 2.037 . S
Co237 N272 2.143 . S
Co237 N293 2.257 . S
O238 Co236 2.143 . S
O238 Co237 2.160 . S
C239 O240 1.278 . S
C239 O247 1.224 . S
O240 C239 1.278 . S
C241 O242 1.245 . S
C241 O253 1.232 . S
O242 C241 1.245 . S
O243 Co237 2.058 . S
O243 C269 1.269 . S
O244 Co236 2.074 . S
O244 C269 1.257 . S
H245 C270 0.930 . S
H246 C276 0.930 . S
O247 Co236 2.093 . S
O247 C239 1.224 . S
H248 C280 0.929 . S
H249 C282 0.930 . S
H250 C283 0.930 . S
H251 C281 0.929 . S
H252 C284 0.928 . S
O253 Co237 2.057 . S
O253 C241 1.232 . S
H254 C273 0.929 1_556 S
H255 C274 0.929 . S
H256 C286 0.931 . S
H257 C278 0.929 . S
H258 C287 0.930 1_545 S
H259 C279 0.931 . S
O260 Co236 2.097 . S
O260 C288 1.214 . S
H261 C289 0.929 . S
H262 C290 0.929 . S
H263 C291 0.930 . S
H264 C292 0.929 . S
H265 C294 0.930 . S
H266 C271 0.930 . S
H267 C275 0.930 . S
O268 Co237 2.037 . S
O268 C288 1.234 . S
C269 O243 1.269 . S
C269 O244 1.257 . S
C270 H245 0.930 . S
C270 C273 1.388 . S
C270 C275 1.418 . S
C271 H266 0.930 . S
C271 C274 1.404 . S
C271 C275 1.353 . S
N272 Co237 2.143 . S
N272 C273 1.398 1_556 S
N272 C274 1.335 1_556 S
C273 H254 0.929 1_554 S
C273 C270 1.388 . S
C273 N272 1.398 1_554 S
C274 H255 0.929 . S
C274 C271 1.404 . S
C274 N272 1.335 1_554 S
C275 H267 0.930 . S
C275 C270 1.418 . S
C275 C271 1.353 . S
C276 H246 0.930 . S
C276 N277 1.330 . S
C276 C278 1.446 . S
N277 Co236 2.151 . S
N277 C276 1.330 . S
N277 C281 1.418 . S
C278 H257 0.929 . S
C278 C276 1.446 . S
C278 C279 1.332 . S
C279 H259 0.931 . S
C279 C278 1.332 . S
C279 C280 1.267 . S
C280 H248 0.929 . S
C280 C279 1.267 . S
C280 C281 1.251 . S
C281 H251 0.929 . S
C281 N277 1.418 . S
C281 C280 1.251 . S
C282 H249 0.930 . S
C282 C284 1.406 . S
C282 C287 1.261 . S
C283 H250 0.930 . S
C283 N285 1.325 . S
C283 C286 1.357 . S
C284 H252 0.928 . S
C284 C282 1.406 . S
C284 N285 1.261 . S
N285 Co236 2.214 . S
N285 C283 1.325 . S
N285 C284 1.261 . S
C286 H256 0.931 . S
C286 C283 1.357 . S
C286 C287 1.312 . S
C287 H258 0.930 1_565 S
C287 C282 1.261 . S
C287 C286 1.312 . S
C288 O260 1.214 . S
C288 O268 1.234 . S
C289 H261 0.929 . S
C289 C292 1.391 . S
C289 C294 1.391 . S
C290 H262 0.929 . S
C290 C291 1.390 . S
C290 N293 1.391 . S
C291 H263 0.930 . S
C291 C290 1.390 . S
C291 C292 1.392 . S
C292 H264 0.929 . S
C292 C289 1.391 . S
C292 C291 1.392 . S
N293 Co237 2.257 . S
N293 C290 1.391 . S
N293 C294 1.388 . S
C294 H265 0.930 . S
C294 C289 1.391 . S
C294 N293 1.388 . S
Co295 O297 2.143 . S
Co295 O303 2.074 . S
Co295 O306 2.093 . S
Co295 O319 2.097 . S
Co295 N336 2.151 . S
Co295 N344 2.214 . S
Co296 O297 2.160 . S
Co296 O302 2.058 . S
Co296 O312 2.057 . S
Co296 O327 2.037 . S
Co296 N331 2.145 . S
Co296 N352 2.257 . S
O297 Co295 2.143 . S
O297 Co296 2.160 . S
C298 O299 1.278 . S
C298 O306 1.224 . S
O299 C298 1.278 . S
C300 O301 1.245 . S
C300 O312 1.232 . S
O301 C300 1.245 . S
O302 Co296 2.058 . S
O302 C328 1.269 . S
O303 Co295 2.074 . S
O303 C328 1.257 . S
H304 C329 0.930 . S
H305 C335 0.930 . S
O306 Co295 2.093 . S
O306 C298 1.224 . S
H307 C339 0.929 . S
H308 C341 0.930 . S
H309 C342 0.930 . S
H310 C340 0.929 . S
H311 C343 0.928 . S
O312 Co296 2.057 . S
O312 C300 1.232 . S
H313 C332 0.929 . S
H314 C333 0.929 . S
H315 C345 0.931 . S
H316 C337 0.929 . S
H317 C346 0.930 1_565 S
H318 C338 0.931 . S
O319 Co295 2.097 . S
O319 C347 1.214 . S
H320 C348 0.929 . S
H321 C349 0.929 . S
H322 C350 0.930 . S
H323 C351 0.929 . S
H324 C353 0.930 . S
H325 C330 0.930 . S
H326 C334 0.930 . S
O327 Co296 2.037 . S
O327 C347 1.234 . S
C328 O302 1.269 . S
C328 O303 1.257 . S
C329 H304 0.930 . S
C329 C332 1.388 . S
C329 C334 1.418 . S
C330 H325 0.930 . S
C330 C333 1.404 . S
C330 C334 1.353 . S
N331 Co296 2.145 . S
N331 C332 1.397 . S
N331 C333 1.334 . S
C332 H313 0.929 . S
C332 C329 1.388 . S
C332 N331 1.397 . S
C333 H314 0.929 . S
C333 C330 1.404 . S
C333 N331 1.334 . S
C334 H326 0.930 . S
C334 C329 1.418 . S
C334 C330 1.353 . S
C335 H305 0.930 . S
C335 N336 1.330 . S
C335 C337 1.446 . S
N336 Co295 2.151 . S
N336 C335 1.330 . S
N336 C340 1.418 . S
C337 H316 0.929 . S
C337 C335 1.446 . S
C337 C338 1.332 . S
C338 H318 0.931 . S
C338 C337 1.332 . S
C338 C339 1.267 . S
C339 H307 0.929 . S
C339 C338 1.267 . S
C339 C340 1.251 . S
C340 H310 0.929 . S
C340 N336 1.418 . S
C340 C339 1.251 . S
C341 H308 0.930 . S
C341 C343 1.406 . S
C341 C346 1.261 . S
C342 H309 0.930 . S
C342 N344 1.325 . S
C342 C345 1.357 . S
C343 H311 0.928 . S
C343 C341 1.406 . S
C343 N344 1.261 . S
N344 Co295 2.214 . S
N344 C342 1.325 . S
N344 C343 1.261 . S
C345 H315 0.931 . S
C345 C342 1.357 . S
C345 C346 1.312 . S
C346 H317 0.930 1_545 S
C346 C341 1.261 . S
C346 C345 1.312 . S
C347 O319 1.214 . S
C347 O327 1.234 . S
C348 H320 0.929 . S
C348 C351 1.391 . S
C348 C353 1.391 . S
C349 H321 0.929 . S
C349 C350 1.390 . S
C349 N352 1.391 . S
C350 H322 0.930 . S
C350 C349 1.390 . S
C350 C351 1.392 . S
C351 H323 0.929 . S
C351 C348 1.391 . S
C351 C350 1.392 . S
N352 Co296 2.257 . S
N352 C349 1.391 . S
N352 C353 1.388 . S
C353 H324 0.930 . S
C353 C348 1.391 . S
C353 N352 1.388 . S
Co354 O356 2.143 . S
Co354 O362 2.074 . S
Co354 O365 2.093 . S
Co354 O378 2.097 . S
Co354 N395 2.151 . S
Co354 N403 2.214 . S
Co355 O356 2.160 . S
Co355 O361 2.058 . S
Co355 O371 2.057 . S
Co355 O386 2.037 . S
Co355 N390 2.143 . S
Co355 N411 2.257 . S
O356 Co354 2.143 . S
O356 Co355 2.160 . S
C357 O358 1.278 . S
C357 O365 1.224 . S
O358 C357 1.278 . S
C359 O360 1.245 . S
C359 O371 1.232 . S
O360 C359 1.245 . S
O361 Co355 2.058 . S
O361 C387 1.269 . S
O362 Co354 2.074 . S
O362 C387 1.257 . S
H363 C388 0.930 . S
H364 C394 0.930 . S
O365 Co354 2.093 . S
O365 C357 1.224 . S
H366 C398 0.929 . S
H367 C400 0.930 . S
H368 C401 0.930 . S
H369 C399 0.929 . S
H370 C402 0.928 . S
O371 Co355 2.057 . S
O371 C359 1.232 . S
H372 C391 0.929 1_554 S
H373 C392 0.929 . S
H374 C404 0.931 . S
H375 C396 0.929 . S
H376 C405 0.930 1_565 S
H377 C397 0.931 . S
O378 Co354 2.097 . S
O378 C406 1.214 . S
H379 C407 0.929 . S
H380 C408 0.929 . S
H381 C409 0.930 . S
H382 C410 0.929 . S
H383 C412 0.930 . S
H384 C389 0.930 . S
H385 C393 0.930 . S
O386 Co355 2.037 . S
O386 C406 1.234 . S
C387 O361 1.269 . S
C387 O362 1.257 . S
C388 H363 0.930 . S
C388 C391 1.388 . S
C388 C393 1.418 . S
C389 H384 0.930 . S
C389 C392 1.404 . S
C389 C393 1.353 . S
N390 Co355 2.143 . S
N390 C391 1.398 1_554 S
N390 C392 1.335 1_554 S
C391 H372 0.929 1_556 S
C391 C388 1.388 . S
C391 N390 1.398 1_556 S
C392 H373 0.929 . S
C392 C389 1.404 . S
C392 N390 1.335 1_556 S
C393 H385 0.930 . S
C393 C388 1.418 . S
C393 C389 1.353 . S
C394 H364 0.930 . S
C394 N395 1.330 . S
C394 C396 1.446 . S
N395 Co354 2.151 . S
N395 C394 1.330 . S
N395 C399 1.418 . S
C396 H375 0.929 . S
C396 C394 1.446 . S
C396 C397 1.332 . S
C397 H377 0.931 . S
C397 C396 1.332 . S
C397 C398 1.267 . S
C398 H366 0.929 . S
C398 C397 1.267 . S
C398 C399 1.251 . S
C399 H369 0.929 . S
C399 N395 1.418 . S
C399 C398 1.251 . S
C400 H367 0.930 . S
C400 C402 1.406 . S
C400 C405 1.261 . S
C401 H368 0.930 . S
C401 N403 1.325 . S
C401 C404 1.357 . S
C402 H370 0.928 . S
C402 C400 1.406 . S
C402 N403 1.261 . S
N403 Co354 2.214 . S
N403 C401 1.325 . S
N403 C402 1.261 . S
C404 H374 0.931 . S
C404 C401 1.357 . S
C404 C405 1.312 . S
C405 H376 0.930 1_545 S
C405 C400 1.261 . S
C405 C404 1.312 . S
C406 O378 1.214 . S
C406 O386 1.234 . S
C407 H379 0.929 . S
C407 C410 1.391 . S
C407 C412 1.391 . S
C408 H380 0.929 . S
C408 C409 1.390 . S
C408 N411 1.391 . S
C409 H381 0.930 . S
C409 C408 1.390 . S
C409 C410 1.392 . S
C410 H382 0.929 . S
C410 C407 1.391 . S
C410 C409 1.392 . S
N411 Co355 2.257 . S
N411 C408 1.391 . S
N411 C412 1.388 . S
C412 H383 0.930 . S
C412 C407 1.391 . S
C412 N411 1.388 . S
Co413 O415 2.143 . S
Co413 O421 2.074 . S
Co413 O424 2.093 . S
Co413 O437 2.097 . S
Co413 N454 2.151 . S
Co413 N462 2.214 . S
Co414 O415 2.160 . S
Co414 O420 2.058 . S
Co414 O430 2.057 . S
Co414 O445 2.037 . S
Co414 N449 2.145 . S
Co414 N470 2.257 . S
O415 Co413 2.143 . S
O415 Co414 2.160 . S
C416 O417 1.278 . S
C416 O424 1.224 . S
O417 C416 1.278 . S
C418 O419 1.245 . S
C418 O430 1.232 . S
O419 C418 1.245 . S
O420 Co414 2.058 . S
O420 C446 1.269 . S
O421 Co413 2.074 . S
O421 C446 1.257 . S
H422 C447 0.930 . S
H423 C453 0.930 . S
O424 Co413 2.093 . S
O424 C416 1.224 . S
H425 C457 0.929 . S
H426 C459 0.930 . S
H427 C460 0.930 . S
H428 C458 0.929 . S
H429 C461 0.928 . S
O430 Co414 2.057 . S
O430 C418 1.232 . S
H431 C450 0.929 . S
H432 C451 0.929 . S
H433 C463 0.931 . S
H434 C455 0.929 . S
H435 C464 0.930 1_545 S
H436 C456 0.931 . S
O437 Co413 2.097 . S
O437 C465 1.214 . S
H438 C466 0.929 . S
H439 C467 0.929 . S
H440 C468 0.930 . S
H441 C469 0.929 . S
H442 C471 0.930 . S
H443 C448 0.930 . S
H444 C452 0.930 . S
O445 Co414 2.037 . S
O445 C465 1.234 . S
C446 O420 1.269 . S
C446 O421 1.257 . S
C447 H422 0.930 . S
C447 C450 1.388 . S
C447 C452 1.418 . S
C448 H443 0.930 . S
C448 C451 1.404 . S
C448 C452 1.353 . S
N449 Co414 2.145 . S
N449 C450 1.397 . S
N449 C451 1.334 . S
C450 H431 0.929 . S
C450 C447 1.388 . S
C450 N449 1.397 . S
C451 H432 0.929 . S
C451 C448 1.404 . S
C451 N449 1.334 . S
C452 H444 0.930 . S
C452 C447 1.418 . S
C452 C448 1.353 . S
C453 H423 0.930 . S
C453 N454 1.330 . S
C453 C455 1.446 . S
N454 Co413 2.151 . S
N454 C453 1.330 . S
N454 C458 1.418 . S
C455 H434 0.929 . S
C455 C453 1.446 . S
C455 C456 1.332 . S
C456 H436 0.931 . S
C456 C455 1.332 . S
C456 C457 1.267 . S
C457 H425 0.929 . S
C457 C456 1.267 . S
C457 C458 1.251 . S
C458 H428 0.929 . S
C458 N454 1.418 . S
C458 C457 1.251 . S
C459 H426 0.930 . S
C459 C461 1.406 . S
C459 C464 1.261 . S
C460 H427 0.930 . S
C460 N462 1.325 . S
C460 C463 1.357 . S
C461 H429 0.928 . S
C461 C459 1.406 . S
C461 N462 1.261 . S
N462 Co413 2.214 . S
N462 C460 1.325 . S
N462 C461 1.261 . S
C463 H433 0.931 . S
C463 C460 1.357 . S
C463 C464 1.312 . S
C464 H435 0.930 1_565 S
C464 C459 1.261 . S
C464 C463 1.312 . S
C465 O437 1.214 . S
C465 O445 1.234 . S
C466 H438 0.929 . S
C466 C469 1.391 . S
C466 C471 1.391 . S
C467 H439 0.929 . S
C467 C468 1.390 . S
C467 N470 1.391 . S
C468 H440 0.930 . S
C468 C467 1.390 . S
C468 C469 1.392 . S
C469 H441 0.929 . S
C469 C466 1.391 . S
C469 C468 1.392 . S
N470 Co414 2.257 . S
N470 C467 1.391 . S
N470 C471 1.388 . S
C471 H442 0.930 . S
C471 C466 1.391 . S
C471 N470 1.388 . S
Co472 O474 2.143 . S
Co472 O480 2.074 . S
Co472 O483 2.093 . S
Co472 O496 2.097 . S
Co472 N513 2.151 . S
Co472 N521 2.214 1_554 S
Co473 O474 2.160 . S
Co473 O479 2.058 . S
Co473 O489 2.057 . S
Co473 O504 2.037 . S
Co473 N508 2.145 . S
Co473 N529 2.257 . S
O474 Co472 2.143 . S
O474 Co473 2.160 . S
C475 O476 1.278 . S
C475 O483 1.224 . S
O476 C475 1.278 . S
C477 O478 1.245 . S
C477 O489 1.232 . S
O478 C477 1.245 . S
O479 Co473 2.058 . S
O479 C505 1.269 . S
O480 Co472 2.074 . S
O480 C505 1.257 . S
H481 C506 0.930 . S
H482 C512 0.930 . S
O483 Co472 2.093 . S
O483 C475 1.224 . S
H484 C516 0.929 . S
H485 C518 0.930 . S
H486 C519 0.930 1_554 S
H487 C517 0.929 1_556 S
H488 C520 0.928 . S
O489 Co473 2.057 . S
O489 C477 1.232 . S
H490 C509 0.929 . S
H491 C510 0.929 . S
H492 C522 0.931 . S
H493 C514 0.929 . S
H494 C523 0.930 . S
H495 C515 0.931 . S
O496 Co472 2.097 . S
O496 C524 1.214 . S
H497 C525 0.929 . S
H498 C526 0.929 . S
H499 C527 0.930 . S
H500 C528 0.929 . S
H501 C530 0.930 . S
H502 C507 0.930 . S
H503 C511 0.930 . S
O504 Co473 2.037 . S
O504 C524 1.234 . S
C505 O479 1.269 . S
C505 O480 1.257 . S
C506 H481 0.930 . S
C506 C509 1.388 . S
C506 C511 1.418 . S
C507 H502 0.930 . S
C507 C510 1.404 . S
C507 C511 1.353 . S
N508 Co473 2.145 . S
N508 C509 1.397 . S
N508 C510 1.334 . S
C509 H490 0.929 . S
C509 C506 1.388 . S
C509 N508 1.397 . S
C510 H491 0.929 . S
C510 C507 1.404 . S
C510 N508 1.334 . S
C511 H503 0.930 . S
C511 C506 1.418 . S
C511 C507 1.353 . S
C512 H482 0.930 . S
C512 N513 1.330 . S
C512 C514 1.446 . S
N513 Co472 2.151 . S
N513 C512 1.330 . S
N513 C517 1.418 . S
C514 H493 0.929 . S
C514 C512 1.446 . S
C514 C515 1.332 1_554 S
C515 H495 0.931 . S
C515 C514 1.332 1_556 S
C515 C516 1.267 . S
C516 H484 0.929 . S
C516 C515 1.267 . S
C516 C517 1.251 1_556 S
C517 H487 0.929 1_554 S
C517 N513 1.418 . S
C517 C516 1.251 1_554 S
C518 H485 0.930 . S
C518 C520 1.406 . S
C518 C523 1.261 . S
C519 H486 0.930 1_556 S
C519 N521 1.325 . S
C519 C522 1.357 . S
C520 H488 0.928 . S
C520 C518 1.406 . S
C520 N521 1.261 . S
N521 Co472 2.214 1_556 S
N521 C519 1.325 . S
N521 C520 1.261 . S
C522 H492 0.931 . S
C522 C519 1.357 . S
C522 C523 1.312 . S
C523 H494 0.930 . S
C523 C518 1.261 . S
C523 C522 1.312 . S
C524 O496 1.214 . S
C524 O504 1.234 . S
C525 H497 0.929 . S
C525 C528 1.391 . S
C525 C530 1.391 . S
C526 H498 0.929 . S
C526 C527 1.390 . S
C526 N529 1.391 . S
C527 H499 0.930 . S
C527 C526 1.390 . S
C527 C528 1.392 . S
C528 H500 0.929 . S
C528 C525 1.391 . S
C528 C527 1.392 . S
N529 Co473 2.257 . S
N529 C526 1.391 . S
N529 C530 1.388 . S
C530 H501 0.930 . S
C530 C525 1.391 . S
C530 N529 1.388 . S
Co531 O533 2.143 . S
Co531 O539 2.074 . S
Co531 O542 2.093 . S
Co531 O555 2.097 . S
Co531 N572 2.151 . S
Co531 N580 2.214 . S
Co532 O533 2.160 . S
Co532 O538 2.058 . S
Co532 O548 2.057 . S
Co532 O563 2.037 . S
Co532 N567 2.145 . S
Co532 N588 2.257 . S
O533 Co531 2.143 . S
O533 Co532 2.160 . S
C534 O535 1.278 . S
C534 O542 1.224 . S
O535 C534 1.278 . S
C536 O537 1.245 . S
C536 O548 1.232 . S
O537 C536 1.245 . S
O538 Co532 2.058 . S
O538 C564 1.269 . S
O539 Co531 2.074 . S
O539 C564 1.257 . S
H540 C565 0.930 . S
H541 C571 0.930 . S
O542 Co531 2.093 . S
O542 C534 1.224 . S
H543 C575 0.929 . S
H544 C577 0.930 . S
H545 C578 0.930 . S
H546 C576 0.929 . S
H547 C579 0.928 . S
O548 Co532 2.057 . S
O548 C536 1.232 . S
H549 C568 0.929 . S
H550 C569 0.929 . S
H551 C581 0.931 . S
H552 C573 0.929 . S
H553 C582 0.930 . S
H554 C574 0.931 . S
O555 Co531 2.097 . S
O555 C583 1.214 . S
H556 C584 0.929 . S
H557 C585 0.929 . S
H558 C586 0.930 . S
H559 C587 0.929 . S
H560 C589 0.930 . S
H561 C566 0.930 . S
H562 C570 0.930 . S
O563 Co532 2.037 . S
O563 C583 1.234 . S
C564 O538 1.269 . S
C564 O539 1.257 . S
C565 H540 0.930 . S
C565 C568 1.388 . S
C565 C570 1.418 . S
C566 H561 0.930 . S
C566 C569 1.404 . S
C566 C570 1.353 . S
N567 Co532 2.145 . S
N567 C568 1.397 . S
N567 C569 1.334 . S
C568 H549 0.929 . S
C568 C565 1.388 . S
C568 N567 1.397 . S
C569 H550 0.929 . S
C569 C566 1.404 . S
C569 N567 1.334 . S
C570 H562 0.930 . S
C570 C565 1.418 . S
C570 C566 1.353 . S
C571 H541 0.930 . S
C571 N572 1.330 . S
C571 C573 1.446 . S
N572 Co531 2.151 . S
N572 C571 1.330 . S
N572 C576 1.418 . S
C573 H552 0.929 . S
C573 C571 1.446 . S
C573 C574 1.332 . S
C574 H554 0.931 . S
C574 C573 1.332 . S
C574 C575 1.267 . S
C575 H543 0.929 . S
C575 C574 1.267 . S
C575 C576 1.251 . S
C576 H546 0.929 . S
C576 N572 1.418 . S
C576 C575 1.251 . S
C577 H544 0.930 . S
C577 C579 1.406 . S
C577 C582 1.261 . S
C578 H545 0.930 . S
C578 N580 1.325 . S
C578 C581 1.357 . S
C579 H547 0.928 . S
C579 C577 1.406 . S
C579 N580 1.261 . S
N580 Co531 2.214 . S
N580 C578 1.325 . S
N580 C579 1.261 . S
C581 H551 0.931 . S
C581 C578 1.357 . S
C581 C582 1.312 . S
C582 H553 0.930 . S
C582 C577 1.261 . S
C582 C581 1.312 . S
C583 O555 1.214 . S
C583 O563 1.234 . S
C584 H556 0.929 . S
C584 C587 1.391 . S
C584 C589 1.391 . S
C585 H557 0.929 . S
C585 C586 1.390 . S
C585 N588 1.391 . S
C586 H558 0.930 . S
C586 C585 1.390 . S
C586 C587 1.392 . S
C587 H559 0.929 . S
C587 C584 1.391 . S
C587 C586 1.392 . S
N588 Co532 2.257 . S
N588 C585 1.391 . S
N588 C589 1.388 . S
C589 H560 0.930 . S
C589 C584 1.391 . S
C589 N588 1.388 . S
Co590 O592 2.143 . S
Co590 O598 2.074 . S
Co590 O601 2.093 . S
Co590 O614 2.097 . S
Co590 N631 2.151 . S
Co590 N639 2.214 1_556 S
Co591 O592 2.160 . S
Co591 O597 2.058 . S
Co591 O607 2.057 . S
Co591 O622 2.037 . S
Co591 N626 2.145 . S
Co591 N647 2.257 . S
O592 Co590 2.143 . S
O592 Co591 2.160 . S
C593 O594 1.278 . S
C593 O601 1.224 . S
O594 C593 1.278 . S
C595 O596 1.245 . S
C595 O607 1.232 . S
O596 C595 1.245 . S
O597 Co591 2.058 . S
O597 C623 1.269 . S
O598 Co590 2.074 . S
O598 C623 1.257 . S
H599 C624 0.930 . S
H600 C630 0.930 . S
O601 Co590 2.093 . S
O601 C593 1.224 . S
H602 C634 0.929 . S
H603 C636 0.930 . S
H604 C637 0.930 1_556 S
H605 C635 0.929 1_554 S
H606 C638 0.928 . S
O607 Co591 2.057 . S
O607 C595 1.232 . S
H608 C627 0.929 . S
H609 C628 0.929 . S
H610 C640 0.931 . S
H611 C632 0.929 . S
H612 C641 0.930 . S
H613 C633 0.931 . S
O614 Co590 2.097 . S
O614 C642 1.214 . S
H615 C643 0.929 . S
H616 C644 0.929 . S
H617 C645 0.930 . S
H618 C646 0.929 . S
H619 C648 0.930 . S
H620 C625 0.930 . S
H621 C629 0.930 . S
O622 Co591 2.037 . S
O622 C642 1.234 . S
C623 O597 1.269 . S
C623 O598 1.257 . S
C624 H599 0.930 . S
C624 C627 1.388 . S
C624 C629 1.418 . S
C625 H620 0.930 . S
C625 C628 1.404 . S
C625 C629 1.353 . S
N626 Co591 2.145 . S
N626 C627 1.397 . S
N626 C628 1.334 . S
C627 H608 0.929 . S
C627 C624 1.388 . S
C627 N626 1.397 . S
C628 H609 0.929 . S
C628 C625 1.404 . S
C628 N626 1.334 . S
C629 H621 0.930 . S
C629 C624 1.418 . S
C629 C625 1.353 . S
C630 H600 0.930 . S
C630 N631 1.330 . S
C630 C632 1.446 . S
N631 Co590 2.151 . S
N631 C630 1.330 . S
N631 C635 1.418 . S
C632 H611 0.929 . S
C632 C630 1.446 . S
C632 C633 1.332 1_556 S
C633 H613 0.931 . S
C633 C632 1.332 1_554 S
C633 C634 1.267 . S
C634 H602 0.929 . S
C634 C633 1.267 . S
C634 C635 1.251 1_554 S
C635 H605 0.929 1_556 S
C635 N631 1.418 . S
C635 C634 1.251 1_556 S
C636 H603 0.930 . S
C636 C638 1.406 . S
C636 C641 1.261 . S
C637 H604 0.930 1_554 S
C637 N639 1.325 . S
C637 C640 1.357 . S
C638 H606 0.928 . S
C638 C636 1.406 . S
C638 N639 1.261 . S
N639 Co590 2.214 1_554 S
N639 C637 1.325 . S
N639 C638 1.261 . S
C640 H610 0.931 . S
C640 C637 1.357 . S
C640 C641 1.312 . S
C641 H612 0.930 . S
C641 C636 1.261 . S
C641 C640 1.312 . S
C642 O614 1.214 . S
C642 O622 1.234 . S
C643 H615 0.929 . S
C643 C646 1.391 . S
C643 C648 1.391 . S
C644 H616 0.929 . S
C644 C645 1.390 . S
C644 N647 1.391 . S
C645 H617 0.930 . S
C645 C644 1.390 . S
C645 C646 1.392 . S
C646 H618 0.929 . S
C646 C643 1.391 . S
C646 C645 1.392 . S
N647 Co591 2.257 . S
N647 C644 1.391 . S
N647 C648 1.388 . S
C648 H619 0.930 . S
C648 C643 1.391 . S
C648 N647 1.388 . S
Co649 O651 2.143 . S
Co649 O657 2.074 . S
Co649 O660 2.093 . S
Co649 O673 2.097 . S
Co649 N690 2.151 . S
Co649 N698 2.214 . S
Co650 O651 2.160 . S
Co650 O656 2.058 . S
Co650 O666 2.057 . S
Co650 O681 2.037 . S
Co650 N685 2.145 . S
Co650 N706 2.257 . S
O651 Co649 2.143 . S
O651 Co650 2.160 . S
C652 O653 1.278 . S
C652 O660 1.224 . S
O653 C652 1.278 . S
C654 O655 1.245 . S
C654 O666 1.232 . S
O655 C654 1.245 . S
O656 Co650 2.058 . S
O656 C682 1.269 . S
O657 Co649 2.074 . S
O657 C682 1.257 . S
H658 C683 0.930 . S
H659 C689 0.930 . S
O660 Co649 2.093 . S
O660 C652 1.224 . S
H661 C693 0.929 . S
H662 C695 0.930 . S
H663 C696 0.930 . S
H664 C694 0.929 . S
H665 C697 0.928 . S
O666 Co650 2.057 . S
O666 C654 1.232 . S
H667 C686 0.929 . S
H668 C687 0.929 . S
H669 C699 0.931 . S
H670 C691 0.929 . S
H671 C700 0.930 . S
H672 C692 0.931 . S
O673 Co649 2.097 . S
O673 C701 1.214 . S
H674 C702 0.929 . S
H675 C703 0.929 . S
H676 C704 0.930 . S
H677 C705 0.929 . S
H678 C707 0.930 . S
H679 C684 0.930 . S
H680 C688 0.930 . S
O681 Co650 2.037 . S
O681 C701 1.234 . S
C682 O656 1.269 . S
C682 O657 1.257 . S
C683 H658 0.930 . S
C683 C686 1.388 . S
C683 C688 1.418 . S
C684 H679 0.930 . S
C684 C687 1.404 . S
C684 C688 1.353 . S
N685 Co650 2.145 . S
N685 C686 1.397 . S
N685 C687 1.334 . S
C686 H667 0.929 . S
C686 C683 1.388 . S
C686 N685 1.397 . S
C687 H668 0.929 . S
C687 C684 1.404 . S
C687 N685 1.334 . S
C688 H680 0.930 . S
C688 C683 1.418 . S
C688 C684 1.353 . S
C689 H659 0.930 . S
C689 N690 1.330 . S
C689 C691 1.446 . S
N690 Co649 2.151 . S
N690 C689 1.330 . S
N690 C694 1.418 . S
C691 H670 0.929 . S
C691 C689 1.446 . S
C691 C692 1.332 . S
C692 H672 0.931 . S
C692 C691 1.332 . S
C692 C693 1.267 . S
C693 H661 0.929 . S
C693 C692 1.267 . S
C693 C694 1.251 . S
C694 H664 0.929 . S
C694 N690 1.418 . S
C694 C693 1.251 . S
C695 H662 0.930 . S
C695 C697 1.406 . S
C695 C700 1.261 . S
C696 H663 0.930 . S
C696 N698 1.325 . S
C696 C699 1.357 . S
C697 H665 0.928 . S
C697 C695 1.406 . S
C697 N698 1.261 . S
N698 Co649 2.214 . S
N698 C696 1.325 . S
N698 C697 1.261 . S
C699 H669 0.931 . S
C699 C696 1.357 . S
C699 C700 1.312 . S
C700 H671 0.930 . S
C700 C695 1.261 . S
C700 C699 1.312 . S
C701 O673 1.214 . S
C701 O681 1.234 . S
C702 H674 0.929 . S
C702 C705 1.391 . S
C702 C707 1.391 . S
C703 H675 0.929 . S
C703 C704 1.390 . S
C703 N706 1.391 . S
C704 H676 0.930 . S
C704 C703 1.390 . S
C704 C705 1.392 . S
C705 H677 0.929 . S
C705 C702 1.391 . S
C705 C704 1.392 . S
N706 Co650 2.257 . S
N706 C703 1.391 . S
N706 C707 1.388 . S
C707 H678 0.930 . S
C707 C702 1.391 . S
C707 N706 1.388 . S
Co708 O710 2.143 . S
Co708 O716 2.074 . S
Co708 O719 2.093 . S
Co708 O732 2.097 . S
Co708 N749 2.151 . S
Co708 N757 2.214 . S
Co709 O710 2.160 . S
Co709 O715 2.058 . S
Co709 O725 2.057 . S
Co709 O740 2.037 . S
Co709 N744 2.143 . S
Co709 N765 2.257 . S
O710 Co708 2.143 . S
O710 Co709 2.160 . S
C711 O712 1.278 . S
C711 O719 1.224 . S
O712 C711 1.278 . S
C713 O714 1.245 . S
C713 O725 1.232 . S
O714 C713 1.245 . S
O715 Co709 2.058 . S
O715 C741 1.269 . S
O716 Co708 2.074 . S
O716 C741 1.257 . S
H717 C742 0.930 . S
H718 C748 0.930 . S
O719 Co708 2.093 . S
O719 C711 1.224 . S
H720 C752 0.929 . S
H721 C754 0.930 . S
H722 C755 0.930 . S
H723 C753 0.929 . S
H724 C756 0.928 . S
O725 Co709 2.057 . S
O725 C713 1.232 . S
H726 C745 0.929 1_556 S
H727 C746 0.929 . S
H728 C758 0.931 . S
H729 C750 0.929 . S
H730 C759 0.930 . S
H731 C751 0.931 . S
O732 Co708 2.097 . S
O732 C760 1.214 . S
H733 C761 0.929 . S
H734 C762 0.929 . S
H735 C763 0.930 . S
H736 C764 0.929 . S
H737 C766 0.930 . S
H738 C743 0.930 . S
H739 C747 0.930 . S
O740 Co709 2.037 . S
O740 C760 1.234 . S
C741 O715 1.269 . S
C741 O716 1.257 . S
C742 H717 0.930 . S
C742 C745 1.388 . S
C742 C747 1.418 . S
C743 H738 0.930 . S
C743 C746 1.404 . S
C743 C747 1.353 . S
N744 Co709 2.143 . S
N744 C745 1.398 1_556 S
N744 C746 1.335 1_556 S
C745 H726 0.929 1_554 S
C745 C742 1.388 . S
C745 N744 1.398 1_554 S
C746 H727 0.929 . S
C746 C743 1.404 . S
C746 N744 1.335 1_554 S
C747 H739 0.930 . S
C747 C742 1.418 . S
C747 C743 1.353 . S
C748 H718 0.930 . S
C748 N749 1.330 . S
C748 C750 1.446 . S
N749 Co708 2.151 . S
N749 C748 1.330 . S
N749 C753 1.418 . S
C750 H729 0.929 . S
C750 C748 1.446 . S
C750 C751 1.332 . S
C751 H731 0.931 . S
C751 C750 1.332 . S
C751 C752 1.267 . S
C752 H720 0.929 . S
C752 C751 1.267 . S
C752 C753 1.251 . S
C753 H723 0.929 . S
C753 N749 1.418 . S
C753 C752 1.251 . S
C754 H721 0.930 . S
C754 C756 1.406 . S
C754 C759 1.261 . S
C755 H722 0.930 . S
C755 N757 1.325 . S
C755 C758 1.357 . S
C756 H724 0.928 . S
C756 C754 1.406 . S
C756 N757 1.261 . S
N757 Co708 2.214 . S
N757 C755 1.325 . S
N757 C756 1.261 . S
C758 H728 0.931 . S
C758 C755 1.357 . S
C758 C759 1.312 . S
C759 H730 0.930 . S
C759 C754 1.261 . S
C759 C758 1.312 . S
C760 O732 1.214 . S
C760 O740 1.234 . S
C761 H733 0.929 . S
C761 C764 1.391 . S
C761 C766 1.391 . S
C762 H734 0.929 . S
C762 C763 1.390 . S
C762 N765 1.391 . S
C763 H735 0.930 . S
C763 C762 1.390 . S
C763 C764 1.392 . S
C764 H736 0.929 . S
C764 C761 1.391 . S
C764 C763 1.392 . S
N765 Co709 2.257 . S
N765 C762 1.391 . S
N765 C766 1.388 . S
C766 H737 0.930 . S
C766 C761 1.391 . S
C766 N765 1.388 . S
Co767 O769 2.143 . S
Co767 O775 2.074 . S
Co767 O778 2.093 . S
Co767 O791 2.097 . S
Co767 N808 2.151 . S
Co767 N816 2.214 . S
Co768 O769 2.160 . S
Co768 O774 2.058 . S
Co768 O784 2.057 . S
Co768 O799 2.037 . S
Co768 N803 2.145 . S
Co768 N824 2.257 . S
O769 Co767 2.143 . S
O769 Co768 2.160 . S
C770 O771 1.278 . S
C770 O778 1.224 . S
O771 C770 1.278 . S
C772 O773 1.245 . S
C772 O784 1.232 . S
O773 C772 1.245 . S
O774 Co768 2.058 . S
O774 C800 1.269 . S
O775 Co767 2.074 . S
O775 C800 1.257 . S
H776 C801 0.930 . S
H777 C807 0.930 . S
O778 Co767 2.093 . S
O778 C770 1.224 . S
H779 C811 0.929 . S
H780 C813 0.930 . S
H781 C814 0.930 . S
H782 C812 0.929 . S
H783 C815 0.928 . S
O784 Co768 2.057 . S
O784 C772 1.232 . S
H785 C804 0.929 . S
H786 C805 0.929 . S
H787 C817 0.931 . S
H788 C809 0.929 . S
H789 C818 0.930 . S
H790 C810 0.931 . S
O791 Co767 2.097 . S
O791 C819 1.214 . S
H792 C820 0.929 . S
H793 C821 0.929 . S
H794 C822 0.930 . S
H795 C823 0.929 . S
H796 C825 0.930 . S
H797 C802 0.930 . S
H798 C806 0.930 . S
O799 Co768 2.037 . S
O799 C819 1.234 . S
C800 O774 1.269 . S
C800 O775 1.257 . S
C801 H776 0.930 . S
C801 C804 1.388 . S
C801 C806 1.418 . S
C802 H797 0.930 . S
C802 C805 1.404 . S
C802 C806 1.353 . S
N803 Co768 2.145 . S
N803 C804 1.397 . S
N803 C805 1.334 . S
C804 H785 0.929 . S
C804 C801 1.388 . S
C804 N803 1.397 . S
C805 H786 0.929 . S
C805 C802 1.404 . S
C805 N803 1.334 . S
C806 H798 0.930 . S
C806 C801 1.418 . S
C806 C802 1.353 . S
C807 H777 0.930 . S
C807 N808 1.330 . S
C807 C809 1.446 . S
N808 Co767 2.151 . S
N808 C807 1.330 . S
N808 C812 1.418 . S
C809 H788 0.929 . S
C809 C807 1.446 . S
C809 C810 1.332 . S
C810 H790 0.931 . S
C810 C809 1.332 . S
C810 C811 1.267 . S
C811 H779 0.929 . S
C811 C810 1.267 . S
C811 C812 1.251 . S
C812 H782 0.929 . S
C812 N808 1.418 . S
C812 C811 1.251 . S
C813 H780 0.930 . S
C813 C815 1.406 . S
C813 C818 1.261 . S
C814 H781 0.930 . S
C814 N816 1.325 . S
C814 C817 1.357 . S
C815 H783 0.928 . S
C815 C813 1.406 . S
C815 N816 1.261 . S
N816 Co767 2.214 . S
N816 C814 1.325 . S
N816 C815 1.261 . S
C817 H787 0.931 . S
C817 C814 1.357 . S
C817 C818 1.312 . S
C818 H789 0.930 . S
C818 C813 1.261 . S
C818 C817 1.312 . S
C819 O791 1.214 . S
C819 O799 1.234 . S
C820 H792 0.929 . S
C820 C823 1.391 . S
C820 C825 1.391 . S
C821 H793 0.929 . S
C821 C822 1.390 . S
C821 N824 1.391 . S
C822 H794 0.930 . S
C822 C821 1.390 . S
C822 C823 1.392 . S
C823 H795 0.929 . S
C823 C820 1.391 . S
C823 C822 1.392 . S
N824 Co768 2.257 . S
N824 C821 1.391 . S
N824 C825 1.388 . S
C825 H796 0.930 . S
C825 C820 1.391 . S
C825 N824 1.388 . S
Co826 O828 2.143 . S
Co826 O834 2.074 . S
Co826 O837 2.093 . S
Co826 O850 2.097 . S
Co826 N867 2.151 . S
Co826 N875 2.214 . S
Co827 O828 2.160 . S
Co827 O833 2.058 . S
Co827 O843 2.057 . S
Co827 O858 2.037 . S
Co827 N862 2.143 . S
Co827 N883 2.257 . S
O828 Co826 2.143 . S
O828 Co827 2.160 . S
C829 O830 1.278 . S
C829 O837 1.224 . S
O830 C829 1.278 . S
C831 O832 1.245 . S
C831 O843 1.232 . S
O832 C831 1.245 . S
O833 Co827 2.058 . S
O833 C859 1.269 . S
O834 Co826 2.074 . S
O834 C859 1.257 . S
H835 C860 0.930 . S
H836 C866 0.930 . S
O837 Co826 2.093 . S
O837 C829 1.224 . S
H838 C870 0.929 . S
H839 C872 0.930 . S
H840 C873 0.930 . S
H841 C871 0.929 . S
H842 C874 0.928 . S
O843 Co827 2.057 . S
O843 C831 1.232 . S
H844 C863 0.929 1_554 S
H845 C864 0.929 . S
H846 C876 0.931 . S
H847 C868 0.929 . S
H848 C877 0.930 . S
H849 C869 0.931 . S
O850 Co826 2.097 . S
O850 C878 1.214 . S
H851 C879 0.929 . S
H852 C880 0.929 . S
H853 C881 0.930 . S
H854 C882 0.929 . S
H855 C884 0.930 . S
H856 C861 0.930 . S
H857 C865 0.930 . S
O858 Co827 2.037 . S
O858 C878 1.234 . S
C859 O833 1.269 . S
C859 O834 1.257 . S
C860 H835 0.930 . S
C860 C863 1.388 . S
C860 C865 1.418 . S
C861 H856 0.930 . S
C861 C864 1.404 . S
C861 C865 1.353 . S
N862 Co827 2.143 . S
N862 C863 1.398 1_554 S
N862 C864 1.335 1_554 S
C863 H844 0.929 1_556 S
C863 C860 1.388 . S
C863 N862 1.398 1_556 S
C864 H845 0.929 . S
C864 C861 1.404 . S
C864 N862 1.335 1_556 S
C865 H857 0.930 . S
C865 C860 1.418 . S
C865 C861 1.353 . S
C866 H836 0.930 . S
C866 N867 1.330 . S
C866 C868 1.446 . S
N867 Co826 2.151 . S
N867 C866 1.330 . S
N867 C871 1.418 . S
C868 H847 0.929 . S
C868 C866 1.446 . S
C868 C869 1.332 . S
C869 H849 0.931 . S
C869 C868 1.332 . S
C869 C870 1.267 . S
C870 H838 0.929 . S
C870 C869 1.267 . S
C870 C871 1.251 . S
C871 H841 0.929 . S
C871 N867 1.418 . S
C871 C870 1.251 . S
C872 H839 0.930 . S
C872 C874 1.406 . S
C872 C877 1.261 . S
C873 H840 0.930 . S
C873 N875 1.325 . S
C873 C876 1.357 . S
C874 H842 0.928 . S
C874 C872 1.406 . S
C874 N875 1.261 . S
N875 Co826 2.214 . S
N875 C873 1.325 . S
N875 C874 1.261 . S
C876 H846 0.931 . S
C876 C873 1.357 . S
C876 C877 1.312 . S
C877 H848 0.930 . S
C877 C872 1.261 . S
C877 C876 1.312 . S
C878 O850 1.214 . S
C878 O858 1.234 . S
C879 H851 0.929 . S
C879 C882 1.391 . S
C879 C884 1.391 . S
C880 H852 0.929 . S
C880 C881 1.390 . S
C880 N883 1.391 . S
C881 H853 0.930 . S
C881 C880 1.390 . S
C881 C882 1.392 . S
C882 H854 0.929 . S
C882 C879 1.391 . S
C882 C881 1.392 . S
N883 Co827 2.257 . S
N883 C880 1.391 . S
N883 C884 1.388 . S
C884 H855 0.930 . S
C884 C879 1.391 . S
C884 N883 1.388 . S
Co885 O887 2.143 . S
Co885 O893 2.074 . S
Co885 O896 2.093 . S
Co885 O909 2.097 . S
Co885 N926 2.151 . S
Co885 N934 2.214 . S
Co886 O887 2.160 . S
Co886 O892 2.058 . S
Co886 O902 2.057 . S
Co886 O917 2.037 . S
Co886 N921 2.145 . S
Co886 N942 2.257 . S
O887 Co885 2.143 . S
O887 Co886 2.160 . S
C888 O889 1.278 . S
C888 O896 1.224 . S
O889 C888 1.278 . S
C890 O891 1.245 . S
C890 O902 1.232 . S
O891 C890 1.245 . S
O892 Co886 2.058 . S
O892 C918 1.269 . S
O893 Co885 2.074 . S
O893 C918 1.257 . S
H894 C919 0.930 . S
H895 C925 0.930 . S
O896 Co885 2.093 . S
O896 C888 1.224 . S
H897 C929 0.929 . S
H898 C931 0.930 . S
H899 C932 0.930 . S
H900 C930 0.929 . S
H901 C933 0.928 . S
O902 Co886 2.057 . S
O902 C890 1.232 . S
H903 C922 0.929 . S
H904 C923 0.929 . S
H905 C935 0.931 . S
H906 C927 0.929 . S
H907 C936 0.930 . S
H908 C928 0.931 . S
O909 Co885 2.097 . S
O909 C937 1.214 . S
H910 C938 0.929 . S
H911 C939 0.929 . S
H912 C940 0.930 . S
H913 C941 0.929 . S
H914 C943 0.930 . S
H915 C920 0.930 . S
H916 C924 0.930 . S
O917 Co886 2.037 . S
O917 C937 1.234 . S
C918 O892 1.269 . S
C918 O893 1.257 . S
C919 H894 0.930 . S
C919 C922 1.388 . S
C919 C924 1.418 . S
C920 H915 0.930 . S
C920 C923 1.404 . S
C920 C924 1.353 . S
N921 Co886 2.145 . S
N921 C922 1.397 . S
N921 C923 1.334 . S
C922 H903 0.929 . S
C922 C919 1.388 . S
C922 N921 1.397 . S
C923 H904 0.929 . S
C923 C920 1.404 . S
C923 N921 1.334 . S
C924 H916 0.930 . S
C924 C919 1.418 . S
C924 C920 1.353 . S
C925 H895 0.930 . S
C925 N926 1.330 . S
C925 C927 1.446 . S
N926 Co885 2.151 . S
N926 C925 1.330 . S
N926 C930 1.418 . S
C927 H906 0.929 . S
C927 C925 1.446 . S
C927 C928 1.332 . S
C928 H908 0.931 . S
C928 C927 1.332 . S
C928 C929 1.267 . S
C929 H897 0.929 . S
C929 C928 1.267 . S
C929 C930 1.251 . S
C930 H900 0.929 . S
C930 N926 1.418 . S
C930 C929 1.251 . S
C931 H898 0.930 . S
C931 C933 1.406 . S
C931 C936 1.261 . S
C932 H899 0.930 . S
C932 N934 1.325 . S
C932 C935 1.357 . S
C933 H901 0.928 . S
C933 C931 1.406 . S
C933 N934 1.261 . S
N934 Co885 2.214 . S
N934 C932 1.325 . S
N934 C933 1.261 . S
C935 H905 0.931 . S
C935 C932 1.357 . S
C935 C936 1.312 . S
C936 H907 0.930 . S
C936 C931 1.261 . S
C936 C935 1.312 . S
C937 O909 1.214 . S
C937 O917 1.234 . S
C938 H910 0.929 . S
C938 C941 1.391 . S
C938 C943 1.391 . S
C939 H911 0.929 . S
C939 C940 1.390 . S
C939 N942 1.391 . S
C940 H912 0.930 . S
C940 C939 1.390 . S
C940 C941 1.392 . S
C941 H913 0.929 . S
C941 C938 1.391 . S
C941 C940 1.392 . S
N942 Co886 2.257 . S
N942 C939 1.391 . S
N942 C943 1.388 . S
C943 H914 0.930 . S
C943 C938 1.391 . S
C943 N942 1.388 . S
H944 C950 0.930 . S
H945 C953 0.930 . S
H946 C954 0.930 . S
H947 C955 0.930 . S
H948 C958 0.930 . S
H949 C959 0.930 . S
C950 H944 0.930 . S
C950 C951 1.355 . S
C950 C952 1.415 . S
C951 C950 1.355 . S
C951 C953 1.419 . S
C952 C950 1.415 . S
C952 C957 1.425 . S
C952 C959 1.409 1_554 S
C953 H945 0.930 . S
C953 C951 1.419 . S
C953 C954 1.362 . S
C954 H946 0.930 . S
C954 C953 1.362 . S
C954 C957 1.409 . S
C955 H947 0.930 . S
C955 C956 1.355 1_554 S
C955 C957 1.415 . S
C956 C955 1.355 1_556 S
C956 C958 1.419 . S
C957 C952 1.425 . S
C957 C954 1.409 . S
C957 C955 1.415 . S
C958 H948 0.930 . S
C958 C956 1.419 . S
C958 C959 1.362 . S
C959 H949 0.930 . S
C959 C952 1.409 1_556 S
C959 C958 1.362 . S
H960 C966 0.930 . S
H961 C969 0.930 . S
H962 C970 0.930 . S
H963 C971 0.930 . S
H964 C974 0.930 . S
H965 C975 0.930 . S
C966 H960 0.930 . S
C966 C967 1.355 . S
C966 C968 1.415 . S
C967 C966 1.355 . S
C967 C969 1.419 . S
C968 C966 1.415 . S
C968 C973 1.425 . S
C968 C975 1.409 . S
C969 H961 0.930 . S
C969 C967 1.419 . S
C969 C970 1.362 . S
C970 H962 0.930 . S
C970 C969 1.362 . S
C970 C973 1.409 . S
C971 H963 0.930 . S
C971 C972 1.355 . S
C971 C973 1.415 . S
C972 C971 1.355 . S
C972 C974 1.419 . S
C973 C968 1.425 . S
C973 C970 1.409 . S
C973 C971 1.415 . S
C974 H964 0.930 . S
C974 C972 1.419 . S
C974 C975 1.362 . S
C975 H965 0.930 . S
C975 C968 1.409 . S
C975 C974 1.362 . S
H976 C982 0.930 . S
H977 C985 0.930 . S
H978 C986 0.930 . S
H979 C987 0.930 . S
H980 C990 0.930 . S
H981 C991 0.930 . S
C982 H976 0.930 . S
C982 C983 1.355 . S
C982 C984 1.415 . S
C983 C982 1.355 . S
C983 C985 1.419 . S
C984 C982 1.415 . S
C984 C989 1.409 1_556 S
C984 C991 1.409 . S
C985 H977 0.930 . S
C985 C983 1.419 . S
C985 C986 1.362 1_556 S
C986 H978 0.930 . S
C986 C985 1.362 1_554 S
C986 C989 1.413 . S
C987 H979 0.930 . S
C987 C988 1.355 . S
C987 C989 1.427 . S
C988 C987 1.355 . S
C988 C990 1.419 1_554 S
C989 C984 1.409 1_554 S
C989 C986 1.413 . S
C989 C987 1.427 . S
C990 H980 0.930 . S
C990 C988 1.419 1_556 S
C990 C991 1.362 . S
C991 H981 0.930 . S
C991 C984 1.409 . S
C991 C990 1.362 . S
H992 C998 0.930 . S
H993 C1001 0.930 . S
H994 C1002 0.930 . S
H995 C1003 0.930 . S
H996 C1006 0.930 . S
H997 C1007 0.930 . S
C998 H992 0.930 . S
C998 C999 1.355 . S
C998 C1000 1.415 . S
C999 C998 1.355 . S
C999 C1001 1.419 . S
C1000 C998 1.415 . S
C1000 C1005 1.425 . S
C1000 C1007 1.409 . S
C1001 H993 0.930 . S
C1001 C999 1.419 . S
C1001 C1002 1.362 . S
C1002 H994 0.930 . S
C1002 C1001 1.362 . S
C1002 C1005 1.409 . S
C1003 H995 0.930 . S
C1003 C1004 1.355 . S
C1003 C1005 1.415 . S
C1004 C1003 1.355 . S
C1004 C1006 1.419 . S
C1005 C1000 1.425 . S
C1005 C1002 1.409 . S
C1005 C1003 1.415 . S
C1006 H996 0.930 . S
C1006 C1004 1.419 . S
C1006 C1007 1.362 . S
C1007 H997 0.930 . S
C1007 C1000 1.409 . S
C1007 C1006 1.362 . S
H1008 C1014 0.930 . S
H1009 C1017 0.930 . S
H1010 C1018 0.930 . S
H1011 C1019 0.930 . S
H1012 C1022 0.930 . S
H1013 C1023 0.930 . S
C1014 H1008 0.930 . S
C1014 C1015 1.355 . S
C1014 C1016 1.415 . S
C1015 C1014 1.355 . S
C1015 C1017 1.419 . S
C1016 C1014 1.415 . S
C1016 C1021 1.422 . S
C1016 C1023 1.409 . S
C1017 H1009 0.930 . S
C1017 C1015 1.419 . S
C1017 C1018 1.362 1_554 S
C1018 H1010 0.930 . S
C1018 C1017 1.362 1_556 S
C1018 C1021 1.410 1_556 S
C1019 H1011 0.930 . S
C1019 C1020 1.355 . S
C1019 C1021 1.417 1_556 S
C1020 C1019 1.355 . S
C1020 C1022 1.419 1_556 S
C1021 C1016 1.422 . S
C1021 C1018 1.410 1_554 S
C1021 C1019 1.417 1_554 S
C1022 H1012 0.930 . S
C1022 C1020 1.419 1_554 S
C1022 C1023 1.362 . S
C1023 H1013 0.930 . S
C1023 C1016 1.409 . S
C1023 C1022 1.362 . S
H1024 C1030 0.930 . S
H1025 C1033 0.930 . S
H1026 C1034 0.930 . S
H1027 C1035 0.930 . S
H1028 C1038 0.930 . S
H1029 C1039 0.930 . S
C1030 H1024 0.930 . S
C1030 C1031 1.355 . S
C1030 C1032 1.415 . S
C1031 C1030 1.355 . S
C1031 C1033 1.419 . S
C1032 C1030 1.415 . S
C1032 C1037 1.425 . S
C1032 C1039 1.409 . S
C1033 H1025 0.930 . S
C1033 C1031 1.419 . S
C1033 C1034 1.362 . S
C1034 H1026 0.930 . S
C1034 C1033 1.362 . S
C1034 C1037 1.409 . S
C1035 H1027 0.930 . S
C1035 C1036 1.355 . S
C1035 C1037 1.415 . S
C1036 C1035 1.355 . S
C1036 C1038 1.419 . S
C1037 C1032 1.425 . S
C1037 C1034 1.409 . S
C1037 C1035 1.415 . S
C1038 H1028 0.930 . S
C1038 C1036 1.419 . S
C1038 C1039 1.362 . S
C1039 H1029 0.930 . S
C1039 C1032 1.409 . S
C1039 C1038 1.362 . S
H1040 C1046 0.930 . S
H1041 C1049 0.930 . S
H1042 C1050 0.930 . S
H1043 C1051 0.930 . S
H1044 C1054 0.930 . S
H1045 C1055 0.930 . S
C1046 H1040 0.930 . S
C1046 C1047 1.355 . S
C1046 C1048 1.415 . S
C1047 C1046 1.355 . S
C1047 C1049 1.419 . S
C1048 C1046 1.415 . S
C1048 C1053 1.425 . S
C1048 C1055 1.409 . S
C1049 H1041 0.930 . S
C1049 C1047 1.419 . S
C1049 C1050 1.362 . S
C1050 H1042 0.930 . S
C1050 C1049 1.362 . S
C1050 C1053 1.409 . S
C1051 H1043 0.930 . S
C1051 C1052 1.355 . S
C1051 C1053 1.415 1_554 S
C1052 C1051 1.355 . S
C1052 C1054 1.419 . S
C1053 C1048 1.425 . S
C1053 C1050 1.409 . S
C1053 C1051 1.415 1_556 S
C1054 H1044 0.930 . S
C1054 C1052 1.419 . S
C1054 C1055 1.362 1_554 S
C1055 H1045 0.930 . S
C1055 C1048 1.409 . S
C1055 C1054 1.362 1_556 S
H1056 C1062 0.930 . S
H1057 C1065 0.930 . S
H1058 C1066 0.930 . S
H1059 C1067 0.930 . S
H1060 C1070 0.930 . S
H1061 C1071 0.930 . S
C1062 H1056 0.930 . S
C1062 C1063 1.355 . S
C1062 C1064 1.415 . S
C1063 C1062 1.355 . S
C1063 C1065 1.419 . S
C1064 C1062 1.415 . S
C1064 C1069 1.425 . S
C1064 C1071 1.409 . S
C1065 H1057 0.930 . S
C1065 C1063 1.419 . S
C1065 C1066 1.362 . S
C1066 H1058 0.930 . S
C1066 C1065 1.362 . S
C1066 C1069 1.409 . S
C1067 H1059 0.930 . S
C1067 C1068 1.355 . S
C1067 C1069 1.415 . S
C1068 C1067 1.355 . S
C1068 C1070 1.419 . S
C1069 C1064 1.425 . S
C1069 C1066 1.409 . S
C1069 C1067 1.415 . S
C1070 H1060 0.930 . S
C1070 C1068 1.419 . S
C1070 C1071 1.362 . S
C1071 H1061 0.930 . S
C1071 C1064 1.409 . S
C1071 C1070 1.362 . S
H1072 C1078 0.930 . S
H1073 C1081 0.930 . S
H1074 C1082 0.913 1_565 S
H1075 C1083 0.930 . S
H1076 C1086 0.930 . S
H1077 C1087 0.913 1_545 S
C1078 H1072 0.930 . S
C1078 C1079 1.355 . S
C1078 C1080 1.416 . S
C1079 C1078 1.355 . S
C1079 C1081 1.419 . S
C1080 C1078 1.416 . S
C1080 C1085 1.425 1_544 S
C1080 C1087 1.397 1_544 S
C1081 H1073 0.930 . S
C1081 C1079 1.419 . S
C1081 C1082 1.391 . S
C1082 H1074 0.913 1_545 S
C1082 C1081 1.391 . S
C1082 C1085 1.397 1_544 S
C1083 H1075 0.930 . S
C1083 C1084 1.355 . S
C1083 C1085 1.416 . S
C1084 C1083 1.355 . S
C1084 C1086 1.419 . S
C1085 C1080 1.425 1_566 S
C1085 C1082 1.397 1_566 S
C1085 C1083 1.416 . S
C1086 H1076 0.930 . S
C1086 C1084 1.419 . S
C1086 C1087 1.391 . S
C1087 H1077 0.913 1_565 S
C1087 C1080 1.397 1_566 S
C1087 C1086 1.391 . S
H1088 C1094 0.930 . S
H1089 C1097 0.930 . S
H1090 C1098 0.930 . S
H1091 C1099 0.930 . S
H1092 C1102 0.930 . S
H1093 C1103 0.930 . S
C1094 H1088 0.930 . S
C1094 C1095 1.355 . S
C1094 C1096 1.415 . S
C1095 C1094 1.355 . S
C1095 C1097 1.419 . S
C1096 C1094 1.415 . S
C1096 C1101 1.425 1_565 S
C1096 C1103 1.408 1_565 S
C1097 H1089 0.930 . S
C1097 C1095 1.419 . S
C1097 C1098 1.362 . S
C1098 H1090 0.930 . S
C1098 C1097 1.362 . S
C1098 C1101 1.408 1_565 S
C1099 H1091 0.930 . S
C1099 C1100 1.355 . S
C1099 C1101 1.415 . S
C1100 C1099 1.355 . S
C1100 C1102 1.419 . S
C1101 C1096 1.425 1_545 S
C1101 C1098 1.408 1_545 S
C1101 C1099 1.415 . S
C1102 H1092 0.930 . S
C1102 C1100 1.419 . S
C1102 C1103 1.362 . S
C1103 H1093 0.930 . S
C1103 C1096 1.408 1_545 S
C1103 C1102 1.362 . S
H1104 C1110 0.930 . S
H1105 C1113 0.930 . S
H1106 C1114 0.930 . S
H1107 C1115 0.930 . S
H1108 C1118 0.930 . S
H1109 C1119 0.930 . S
C1110 H1104 0.930 . S
C1110 C1111 1.355 . S
C1110 C1112 1.415 1_556 S
C1111 C1110 1.355 . S
C1111 C1113 1.419 . S
C1112 C1110 1.415 1_554 S
C1112 C1117 1.425 1_564 S
C1112 C1119 1.409 1_565 S
C1113 H1105 0.930 . S
C1113 C1111 1.419 . S
C1113 C1114 1.362 . S
C1114 H1106 0.930 . S
C1114 C1113 1.362 . S
C1114 C1117 1.409 1_565 S
C1115 H1107 0.930 . S
C1115 C1116 1.355 . S
C1115 C1117 1.415 1_554 S
C1116 C1115 1.355 . S
C1116 C1118 1.419 . S
C1117 C1112 1.425 1_546 S
C1117 C1114 1.409 1_545 S
C1117 C1115 1.415 1_556 S
C1118 H1108 0.930 . S
C1118 C1116 1.419 . S
C1118 C1119 1.362 . S
C1119 H1109 0.930 . S
C1119 C1112 1.409 1_545 S
C1119 C1118 1.362 . S
H1120 C1126 0.930 . S
H1121 C1129 0.930 . S
H1122 C1130 0.930 . S
H1123 C1131 0.930 . S
H1124 C1134 0.930 . S
H1125 C1135 0.930 . S
C1126 H1120 0.930 . S
C1126 C1127 1.355 . S
C1126 C1128 1.415 . S
C1127 C1126 1.355 . S
C1127 C1129 1.419 . S
C1128 C1126 1.415 . S
C1128 C1133 1.425 1_545 S
C1128 C1135 1.409 1_545 S
C1129 H1121 0.930 . S
C1129 C1127 1.419 . S
C1129 C1130 1.362 . S
C1130 H1122 0.930 . S
C1130 C1129 1.362 . S
C1130 C1133 1.409 1_545 S
C1131 H1123 0.930 . S
C1131 C1132 1.355 . S
C1131 C1133 1.415 . S
C1132 C1131 1.355 . S
C1132 C1134 1.419 . S
C1133 C1128 1.425 1_565 S
C1133 C1130 1.409 1_565 S
C1133 C1131 1.415 . S
C1134 H1124 0.930 . S
C1134 C1132 1.419 . S
C1134 C1135 1.362 . S
C1135 H1125 0.930 . S
C1135 C1128 1.409 1_565 S
C1135 C1134 1.362 . S
H1136 C1142 0.930 . S
H1137 C1145 0.930 . S
H1138 C1146 0.930 . S
H1139 C1147 0.930 . S
H1140 C1150 0.930 . S
H1141 C1151 0.930 . S
C1142 H1136 0.930 . S
C1142 C1143 1.355 . S
C1142 C1144 1.415 1_556 S
C1143 C1142 1.355 . S
C1143 C1145 1.419 . S
C1144 C1142 1.415 1_554 S
C1144 C1149 1.425 1_554 S
C1144 C1151 1.409 . S
C1145 H1137 0.930 . S
C1145 C1143 1.419 . S
C1145 C1146 1.362 . S
C1146 H1138 0.930 . S
C1146 C1145 1.362 . S
C1146 C1149 1.409 . S
C1147 H1139 0.930 . S
C1147 C1148 1.355 . S
C1147 C1149 1.415 1_554 S
C1148 C1147 1.355 . S
C1148 C1150 1.419 . S
C1149 C1144 1.425 1_556 S
C1149 C1146 1.409 . S
C1149 C1147 1.415 1_556 S
C1150 H1140 0.930 . S
C1150 C1148 1.419 . S
C1150 C1151 1.362 . S
C1151 H1141 0.930 . S
C1151 C1144 1.409 . S
C1151 C1150 1.362 . S
H1152 C1158 0.930 . S
H1153 C1161 0.930 . S
H1154 C1162 0.930 . S
H1155 C1163 0.930 . S
H1156 C1166 0.930 . S
H1157 C1167 0.930 . S
C1158 H1152 0.930 . S
C1158 C1159 1.355 . S
C1158 C1160 1.415 . S
C1159 C1158 1.355 . S
C1159 C1161 1.419 . S
C1160 C1158 1.415 . S
C1160 C1165 1.425 . S
C1160 C1167 1.409 . S
C1161 H1153 0.930 . S
C1161 C1159 1.419 . S
C1161 C1162 1.362 . S
C1162 H1154 0.930 . S
C1162 C1161 1.362 . S
C1162 C1165 1.409 . S
C1163 H1155 0.930 . S
C1163 C1164 1.355 . S
C1163 C1165 1.415 . S
C1164 C1163 1.355 . S
C1164 C1166 1.419 . S
C1165 C1160 1.425 . S
C1165 C1162 1.409 . S
C1165 C1163 1.415 . S
C1166 H1156 0.930 . S
C1166 C1164 1.419 . S
C1166 C1167 1.362 . S
C1167 H1157 0.930 . S
C1167 C1160 1.409 . S
C1167 C1166 1.362 . S
H1168 C1174 0.930 1_556 S
H1169 C1177 0.930 . S
H1170 C1178 0.930 . S
H1171 C1179 0.930 1_554 S
H1172 C1182 0.930 . S
H1173 C1183 0.930 . S
C1174 H1168 0.930 1_554 S
C1174 C1175 1.355 . S
C1174 C1176 1.415 1_554 S
C1175 C1174 1.355 . S
C1175 C1177 1.419 . S
C1176 C1174 1.415 1_556 S
C1176 C1181 1.425 1_556 S
C1176 C1183 1.409 . S
C1177 H1169 0.930 . S
C1177 C1175 1.419 . S
C1177 C1178 1.362 . S
C1178 H1170 0.930 . S
C1178 C1177 1.362 . S
C1178 C1181 1.409 . S
C1179 H1171 0.930 1_556 S
C1179 C1180 1.355 . S
C1179 C1181 1.415 1_556 S
C1180 C1179 1.355 . S
C1180 C1182 1.419 . S
C1181 C1176 1.425 1_554 S
C1181 C1178 1.409 . S
C1181 C1179 1.415 1_554 S
C1182 H1172 0.930 . S
C1182 C1180 1.419 . S
C1182 C1183 1.362 . S
C1183 H1173 0.930 . S
C1183 C1176 1.409 . S
C1183 C1182 1.362 . S
H1184 C1190 0.930 . S
H1185 C1193 0.930 . S
H1186 C1194 0.930 . S
H1187 C1195 0.930 . S
H1188 C1198 0.930 . S
H1189 C1199 0.930 . S
C1190 H1184 0.930 . S
C1190 C1191 1.355 . S
C1190 C1192 1.415 . S
C1191 C1190 1.355 . S
C1191 C1193 1.419 . S
C1192 C1190 1.415 . S
C1192 C1197 1.425 . S
C1192 C1199 1.409 . S
C1193 H1185 0.930 . S
C1193 C1191 1.419 . S
C1193 C1194 1.362 . S
C1194 H1186 0.930 . S
C1194 C1193 1.362 . S
C1194 C1197 1.409 . S
C1195 H1187 0.930 . S
C1195 C1196 1.355 . S
C1195 C1197 1.415 . S
C1196 C1195 1.355 . S
C1196 C1198 1.419 . S
C1197 C1192 1.425 . S
C1197 C1194 1.409 . S
C1197 C1195 1.415 . S
C1198 H1188 0.930 . S
C1198 C1196 1.419 . S
C1198 C1199 1.362 . S
C1199 H1189 0.930 . S
C1199 C1192 1.409 . S
C1199 C1198 1.362 . S
H1200 C1206 0.930 . S
H1201 C1209 0.930 . S
H1202 C1210 0.930 . S
H1203 C1211 0.930 . S
H1204 C1214 0.930 . S
H1205 C1215 0.930 . S
C1206 H1200 0.930 . S
C1206 C1207 1.355 . S
C1206 C1208 1.415 . S
C1207 C1206 1.355 . S
C1207 C1209 1.419 . S
C1208 C1206 1.415 . S
C1208 C1213 1.425 . S
C1208 C1215 1.409 . S
C1209 H1201 0.930 . S
C1209 C1207 1.419 . S
C1209 C1210 1.362 . S
C1210 H1202 0.930 . S
C1210 C1209 1.362 . S
C1210 C1213 1.409 . S
C1211 H1203 0.930 . S
C1211 C1212 1.355 . S
C1211 C1213 1.415 . S
C1212 C1211 1.355 . S
C1212 C1214 1.419 . S
C1213 C1208 1.425 . S
C1213 C1210 1.409 . S
C1213 C1211 1.415 . S
C1214 H1204 0.930 . S
C1214 C1212 1.419 . S
C1214 C1215 1.362 . S
C1215 H1205 0.930 . S
C1215 C1208 1.409 . S
C1215 C1214 1.362 . S
H1216 C1222 0.930 . S
H1217 C1225 0.930 . S
H1218 C1226 0.930 . S
H1219 C1227 0.930 . S
H1220 C1230 0.930 . S
H1221 C1231 0.930 . S
C1222 H1216 0.930 . S
C1222 C1223 1.355 . S
C1222 C1224 1.415 . S
C1223 C1222 1.355 . S
C1223 C1225 1.419 . S
C1224 C1222 1.415 . S
C1224 C1229 1.425 . S
C1224 C1231 1.409 . S
C1225 H1217 0.930 . S
C1225 C1223 1.419 . S
C1225 C1226 1.362 . S
C1226 H1218 0.930 . S
C1226 C1225 1.362 . S
C1226 C1229 1.409 . S
C1227 H1219 0.930 . S
C1227 C1228 1.355 . S
C1227 C1229 1.415 1_455 S
C1228 C1227 1.355 . S
C1228 C1230 1.419 . S
C1229 C1224 1.425 . S
C1229 C1226 1.409 . S
C1229 C1227 1.415 1_655 S
C1230 H1220 0.930 . S
C1230 C1228 1.419 . S
C1230 C1231 1.362 1_455 S
C1231 H1221 0.930 . S
C1231 C1224 1.409 . S
C1231 C1230 1.362 1_655 S
H1232 C1238 0.930 . S
H1233 C1241 0.930 . S
H1234 C1242 0.930 . S
H1235 C1243 0.930 . S
H1236 C1246 0.930 . S
H1237 C1247 0.930 . S
C1238 H1232 0.930 . S
C1238 C1239 1.355 . S
C1238 C1240 1.415 . S
C1239 C1238 1.355 . S
C1239 C1241 1.419 . S
C1240 C1238 1.415 . S
C1240 C1245 1.425 . S
C1240 C1247 1.409 . S
C1241 H1233 0.930 . S
C1241 C1239 1.419 . S
C1241 C1242 1.362 . S
C1242 H1234 0.930 . S
C1242 C1241 1.362 . S
C1242 C1245 1.409 . S
C1243 H1235 0.930 . S
C1243 C1244 1.355 . S
C1243 C1245 1.415 . S
C1244 C1243 1.355 . S
C1244 C1246 1.419 . S
C1245 C1240 1.425 . S
C1245 C1242 1.409 . S
C1245 C1243 1.415 . S
C1246 H1236 0.930 . S
C1246 C1244 1.419 . S
C1246 C1247 1.362 . S
C1247 H1237 0.930 . S
C1247 C1240 1.409 . S
C1247 C1246 1.362 . S
H1248 C1254 0.930 . S
H1249 C1257 0.930 . S
H1250 C1258 0.930 . S
H1251 C1259 0.930 . S
H1252 C1262 0.930 . S
H1253 C1263 0.930 . S
C1254 H1248 0.930 . S
C1254 C1255 1.355 . S
C1254 C1256 1.415 1_455 S
C1255 C1254 1.355 . S
C1255 C1257 1.419 . S
C1256 C1254 1.415 1_655 S
C1256 C1261 1.425 . S
C1256 C1263 1.409 . S
C1257 H1249 0.930 . S
C1257 C1255 1.419 . S
C1257 C1258 1.362 1_455 S
C1258 H1250 0.930 . S
C1258 C1257 1.362 1_655 S
C1258 C1261 1.409 . S
C1259 H1251 0.930 . S
C1259 C1260 1.355 . S
C1259 C1261 1.415 . S
C1260 C1259 1.355 . S
C1260 C1262 1.419 . S
C1261 C1256 1.425 . S
C1261 C1258 1.409 . S
C1261 C1259 1.415 . S
C1262 H1252 0.930 . S
C1262 C1260 1.419 . S
C1262 C1263 1.362 . S
C1263 H1253 0.930 . S
C1263 C1256 1.409 . S
C1263 C1262 1.362 . S
H1264 C1270 0.930 . S
H1265 C1273 0.930 . S
H1266 C1274 0.930 . S
H1267 C1275 0.930 . S
H1268 C1278 0.930 . S
H1269 C1279 0.930 . S
C1270 H1264 0.930 . S
C1270 C1271 1.355 . S
C1270 C1272 1.415 . S
C1271 C1270 1.355 . S
C1271 C1273 1.419 . S
C1272 C1270 1.415 . S
C1272 C1277 1.425 . S
C1272 C1279 1.409 . S
C1273 H1265 0.930 . S
C1273 C1271 1.419 . S
C1273 C1274 1.362 . S
C1274 H1266 0.930 . S
C1274 C1273 1.362 . S
C1274 C1277 1.409 . S
C1275 H1267 0.930 . S
C1275 C1276 1.355 . S
C1275 C1277 1.415 1_655 S
C1276 C1275 1.355 . S
C1276 C1278 1.419 . S
C1277 C1272 1.425 . S
C1277 C1274 1.409 . S
C1277 C1275 1.415 1_455 S
C1278 H1268 0.930 . S
C1278 C1276 1.419 . S
C1278 C1279 1.362 1_655 S
C1279 H1269 0.930 . S
C1279 C1272 1.409 . S
C1279 C1278 1.362 1_455 S
H1280 C1286 0.930 . S
H1281 C1289 0.930 . S
H1282 C1290 0.930 . S
H1283 C1291 0.930 . S
H1284 C1294 0.930 . S
H1285 C1295 0.930 . S
C1286 H1280 0.930 . S
C1286 C1287 1.355 . S
C1286 C1288 1.415 . S
C1287 C1286 1.355 . S
C1287 C1289 1.419 . S
C1288 C1286 1.415 . S
C1288 C1293 1.425 . S
C1288 C1295 1.409 . S
C1289 H1281 0.930 . S
C1289 C1287 1.419 . S
C1289 C1290 1.362 . S
C1290 H1282 0.930 . S
C1290 C1289 1.362 . S
C1290 C1293 1.409 . S
C1291 H1283 0.930 . S
C1291 C1292 1.355 . S
C1291 C1293 1.415 . S
C1292 C1291 1.355 . S
C1292 C1294 1.419 . S
C1293 C1288 1.425 . S
C1293 C1290 1.409 . S
C1293 C1291 1.415 . S
C1294 H1284 0.930 . S
C1294 C1292 1.419 . S
C1294 C1295 1.362 . S
C1295 H1285 0.930 . S
C1295 C1288 1.409 . S
C1295 C1294 1.362 . S
H1296 C1302 0.930 . S
H1297 C1305 0.930 . S
H1298 C1306 0.930 . S
H1299 C1307 0.930 . S
H1300 C1310 0.930 . S
H1301 C1311 0.930 . S
C1302 H1296 0.930 . S
C1302 C1303 1.355 . S
C1302 C1304 1.415 . S
C1303 C1302 1.355 . S
C1303 C1305 1.419 . S
C1304 C1302 1.415 . S
C1304 C1309 1.425 . S
C1304 C1311 1.409 . S
C1305 H1297 0.930 . S
C1305 C1303 1.419 . S
C1305 C1306 1.362 . S
C1306 H1298 0.930 . S
C1306 C1305 1.362 . S
C1306 C1309 1.409 . S
C1307 H1299 0.930 . S
C1307 C1308 1.355 . S
C1307 C1309 1.415 1_655 S
C1308 C1307 1.355 . S
C1308 C1310 1.419 . S
C1309 C1304 1.425 . S
C1309 C1306 1.409 . S
C1309 C1307 1.415 1_455 S
C1310 H1300 0.930 . S
C1310 C1308 1.419 . S
C1310 C1311 1.362 1_655 S
C1311 H1301 0.930 . S
C1311 C1304 1.409 . S
C1311 C1310 1.362 1_455 S
H1312 C1318 0.930 . S
H1313 C1321 0.930 . S
H1314 C1322 0.930 . S
H1315 C1323 0.930 . S
H1316 C1326 0.930 . S
H1317 C1327 0.930 . S
C1318 H1312 0.930 . S
C1318 C1319 1.355 . S
C1318 C1320 1.415 . S
C1319 C1318 1.355 . S
C1319 C1321 1.419 . S
C1320 C1318 1.415 . S
C1320 C1325 1.425 . S
C1320 C1327 1.409 . S
C1321 H1313 0.930 . S
C1321 C1319 1.419 . S
C1321 C1322 1.362 . S
C1322 H1314 0.930 . S
C1322 C1321 1.362 . S
C1322 C1325 1.409 . S
C1323 H1315 0.930 . S
C1323 C1324 1.355 . S
C1323 C1325 1.415 . S
C1324 C1323 1.355 . S
C1324 C1326 1.419 . S
C1325 C1320 1.425 . S
C1325 C1322 1.409 . S
C1325 C1323 1.415 . S
C1326 H1316 0.930 . S
C1326 C1324 1.419 . S
C1326 C1327 1.362 . S
C1327 H1317 0.930 . S
C1327 C1320 1.409 . S
C1327 C1326 1.362 . S
H1328 C1334 0.930 . S
H1329 C1337 0.930 . S
H1330 C1338 0.930 . S
H1331 C1339 0.930 . S
H1332 C1342 0.930 . S
H1333 C1343 0.930 . S
C1334 H1328 0.930 . S
C1334 C1335 1.355 . S
C1334 C1336 1.415 . S
C1335 C1334 1.355 . S
C1335 C1337 1.419 . S
C1336 C1334 1.415 . S
C1336 C1341 1.425 . S
C1336 C1343 1.409 . S
C1337 H1329 0.930 . S
C1337 C1335 1.419 . S
C1337 C1338 1.362 . S
C1338 H1330 0.930 . S
C1338 C1337 1.362 . S
C1338 C1341 1.409 . S
C1339 H1331 0.930 . S
C1339 C1340 1.355 . S
C1339 C1341 1.415 . S
C1340 C1339 1.355 . S
C1340 C1342 1.419 . S
C1341 C1336 1.425 . S
C1341 C1338 1.409 . S
C1341 C1339 1.415 . S
C1342 H1332 0.930 . S
C1342 C1340 1.419 . S
C1342 C1343 1.362 . S
C1343 H1333 0.930 . S
C1343 C1336 1.409 . S
C1343 C1342 1.362 . S
H1344 C1350 0.930 . S
H1345 C1353 0.930 . S
H1346 C1354 0.930 . S
H1347 C1355 0.930 . S
H1348 C1358 0.930 . S
H1349 C1359 0.930 . S
C1350 H1344 0.930 . S
C1350 C1351 1.355 . S
C1350 C1352 1.415 . S
C1351 C1350 1.355 . S
C1351 C1353 1.419 . S
C1352 C1350 1.415 . S
C1352 C1357 1.425 . S
C1352 C1359 1.409 . S
C1353 H1345 0.930 . S
C1353 C1351 1.419 . S
C1353 C1354 1.362 . S
C1354 H1346 0.930 . S
C1354 C1353 1.362 . S
C1354 C1357 1.409 . S
C1355 H1347 0.930 . S
C1355 C1356 1.355 . S
C1355 C1357 1.415 . S
C1356 C1355 1.355 . S
C1356 C1358 1.419 . S
C1357 C1352 1.425 . S
C1357 C1354 1.409 . S
C1357 C1355 1.415 . S
C1358 H1348 0.930 . S
C1358 C1356 1.419 . S
C1358 C1359 1.362 . S
C1359 H1349 0.930 . S
C1359 C1352 1.409 . S
C1359 C1358 1.362 . S
H1360 C1366 0.930 . S
H1361 C1369 0.930 . S
H1362 C1370 0.930 . S
H1363 C1371 0.930 . S
H1364 C1374 0.930 . S
H1365 C1375 0.930 . S
C1366 H1360 0.930 . S
C1366 C1367 1.355 . S
C1366 C1368 1.415 . S
C1367 C1366 1.355 . S
C1367 C1369 1.419 . S
C1368 C1366 1.415 . S
C1368 C1373 1.425 . S
C1368 C1375 1.409 . S
C1369 H1361 0.930 . S
C1369 C1367 1.419 . S
C1369 C1370 1.362 . S
C1370 H1362 0.930 . S
C1370 C1369 1.362 . S
C1370 C1373 1.409 . S
C1371 H1363 0.930 . S
C1371 C1372 1.355 . S
C1371 C1373 1.415 . S
C1372 C1371 1.355 . S
C1372 C1374 1.419 . S
C1373 C1368 1.425 . S
C1373 C1370 1.409 . S
C1373 C1371 1.415 . S
C1374 H1364 0.930 . S
C1374 C1372 1.419 . S
C1374 C1375 1.362 . S
C1375 H1365 0.930 . S
C1375 C1368 1.409 . S
C1375 C1374 1.362 . S
H1376 C1382 0.930 . S
H1377 C1385 0.930 . S
H1378 C1386 0.930 . S
H1379 C1387 0.930 . S
H1380 C1390 0.930 . S
H1381 C1391 0.930 . S
C1382 H1376 0.930 . S
C1382 C1383 1.355 . S
C1382 C1384 1.415 . S
C1383 C1382 1.355 . S
C1383 C1385 1.419 . S
C1384 C1382 1.415 . S
C1384 C1389 1.425 . S
C1384 C1391 1.409 . S
C1385 H1377 0.930 . S
C1385 C1383 1.419 . S
C1385 C1386 1.362 . S
C1386 H1378 0.930 . S
C1386 C1385 1.362 . S
C1386 C1389 1.409 . S
C1387 H1379 0.930 . S
C1387 C1388 1.355 . S
C1387 C1389 1.415 . S
C1388 C1387 1.355 . S
C1388 C1390 1.419 . S
C1389 C1384 1.425 . S
C1389 C1386 1.409 . S
C1389 C1387 1.415 . S
C1390 H1380 0.930 . S
C1390 C1388 1.419 . S
C1390 C1391 1.362 . S
C1391 H1381 0.930 . S
C1391 C1384 1.409 . S
C1391 C1390 1.362 . S
H1392 C1398 0.930 . S
H1393 C1401 0.930 . S
H1394 C1402 0.930 . S
H1395 C1403 0.930 . S
H1396 C1406 0.930 . S
H1397 C1407 0.930 . S
C1398 H1392 0.930 . S
C1398 C1399 1.355 . S
C1398 C1400 1.415 . S
C1399 C1398 1.355 . S
C1399 C1401 1.419 . S
C1400 C1398 1.415 . S
C1400 C1405 1.425 . S
C1400 C1407 1.409 . S
C1401 H1393 0.930 . S
C1401 C1399 1.419 . S
C1401 C1402 1.362 . S
C1402 H1394 0.930 . S
C1402 C1401 1.362 . S
C1402 C1405 1.409 . S
C1403 H1395 0.930 . S
C1403 C1404 1.355 . S
C1403 C1405 1.415 . S
C1404 C1403 1.355 . S
C1404 C1406 1.419 . S
C1405 C1400 1.425 . S
C1405 C1402 1.409 . S
C1405 C1403 1.415 . S
C1406 H1396 0.930 . S
C1406 C1404 1.419 . S
C1406 C1407 1.362 . S
C1407 H1397 0.930 . S
C1407 C1400 1.409 . S
C1407 C1406 1.362 . S
H1408 C1414 0.930 . S
H1409 C1417 0.930 . S
H1410 C1418 0.930 . S
H1411 C1419 0.930 . S
H1412 C1422 0.930 . S
H1413 C1423 0.930 . S
C1414 H1408 0.930 . S
C1414 C1415 1.355 . S
C1414 C1416 1.415 . S
C1415 C1414 1.355 . S
C1415 C1417 1.419 . S
C1416 C1414 1.415 . S
C1416 C1421 1.425 . S
C1416 C1423 1.409 . S
C1417 H1409 0.930 . S
C1417 C1415 1.419 . S
C1417 C1418 1.362 . S
C1418 H1410 0.930 . S
C1418 C1417 1.362 . S
C1418 C1421 1.409 . S
C1419 H1411 0.930 . S
C1419 C1420 1.355 . S
C1419 C1421 1.415 . S
C1420 C1419 1.355 . S
C1420 C1422 1.419 . S
C1421 C1416 1.425 . S
C1421 C1418 1.409 . S
C1421 C1419 1.415 . S
C1422 H1412 0.930 . S
C1422 C1420 1.419 . S
C1422 C1423 1.362 . S
C1423 H1413 0.930 . S
C1423 C1416 1.409 . S
C1423 C1422 1.362 . S
H1424 C1430 0.930 . S
H1425 C1433 0.930 . S
H1426 C1434 0.930 . S
H1427 C1435 0.930 . S
H1428 C1438 0.930 . S
H1429 C1439 0.930 . S
C1430 H1424 0.930 . S
C1430 C1431 1.355 . S
C1430 C1432 1.415 . S
C1431 C1430 1.355 . S
C1431 C1433 1.419 . S
C1432 C1430 1.415 . S
C1432 C1437 1.425 . S
C1432 C1439 1.409 . S
C1433 H1425 0.930 . S
C1433 C1431 1.419 . S
C1433 C1434 1.362 . S
C1434 H1426 0.930 . S
C1434 C1433 1.362 . S
C1434 C1437 1.409 . S
C1435 H1427 0.930 . S
C1435 C1436 1.355 . S
C1435 C1437 1.415 . S
C1436 C1435 1.355 . S
C1436 C1438 1.419 . S
C1437 C1432 1.425 . S
C1437 C1434 1.409 . S
C1437 C1435 1.415 . S
C1438 H1428 0.930 . S
C1438 C1436 1.419 . S
C1438 C1439 1.362 . S
C1439 H1429 0.930 . S
C1439 C1432 1.409 . S
C1439 C1438 1.362 . S
H1440 C1446 0.930 . S
H1441 C1449 0.930 . S
H1442 C1450 0.930 . S
H1443 C1451 0.930 . S
H1444 C1454 0.930 . S
H1445 C1455 0.930 . S
C1446 H1440 0.930 . S
C1446 C1447 1.355 . S
C1446 C1448 1.415 . S
C1447 C1446 1.355 . S
C1447 C1449 1.419 . S
C1448 C1446 1.415 . S
C1448 C1453 1.425 . S
C1448 C1455 1.409 . S
C1449 H1441 0.930 . S
C1449 C1447 1.419 . S
C1449 C1450 1.362 . S
C1450 H1442 0.930 . S
C1450 C1449 1.362 . S
C1450 C1453 1.409 . S
C1451 H1443 0.930 . S
C1451 C1452 1.355 . S
C1451 C1453 1.415 . S
C1452 C1451 1.355 . S
C1452 C1454 1.419 . S
C1453 C1448 1.425 . S
C1453 C1450 1.409 . S
C1453 C1451 1.415 . S
C1454 H1444 0.930 . S
C1454 C1452 1.419 . S
C1454 C1455 1.362 . S
C1455 H1445 0.930 . S
C1455 C1448 1.409 . S
C1455 C1454 1.362 . S
C951 C3 1.612 . S
C956 C713 1.604 . S
C967 C772 1.631 . S
C972 C62 1.621 . S
C983 C121 1.607 . S
C988 C831 1.627 . S
C999 C890 1.614 . S
C1004 C180 1.627 . S
C1015 C475 1.608 . S
C1020 C241 1.627 . S
C1031 C300 1.604 . S
C1036 C534 1.610 . S
C1047 C593 1.619 . S
C1052 C359 1.631 . S
C1063 C418 1.631 . S
C1068 C652 1.618 . S
C1079 C33 1.782 . S
C1084 C151 1.784 . S
C1095 C92 1.783 . S
C1100 C210 1.782 . S
C1111 C269 1.600 . S
C1116 C387 1.595 . S
C1127 C328 1.615 . S
C1132 C446 1.609 . S
C1143 C623 1.790 . S
C1148 C505 1.791 . S
C1159 C564 1.804 . S
C1164 C682 1.805 . S
C1175 C859 1.612 . S
C1180 C741 1.618 . S
C1191 C800 1.641 . S
C1196 C918 1.639 . S
C1207 C406 1.672 . S
C1212 C52 1.679 . S
C1223 C465 1.635 . S
C1228 C111 1.648 . S
C1239 C170 1.667 . S
C1244 C288 1.672 . S
C1255 C229 1.651 . S
C1260 C347 1.652 . S
C1271 C878 1.638 . S
C1276 C524 1.661 . S
C1287 C583 1.679 . S
C1292 C937 1.672 . S
C1303 C760 1.675 . S
C1308 C642 1.673 . S
C1319 C701 1.679 . S
C1324 C819 1.672 . S
C1335 C5 1.809 . S
C1340 C182 1.814 . S
C1351 C123 1.808 . S
C1356 C64 1.808 . S
C1367 C239 1.302 . S
C1372 C416 1.274 . S
C1383 C298 1.309 . S
C1388 C357 1.301 . S
C1399 C654 1.825 . S
C1404 C477 1.825 . S
C1415 C536 1.813 . S
C1420 C595 1.819 . S
C1431 C888 1.305 . S
C1436 C711 1.274 . S
C1447 C770 1.282 . S
C1452 C829 1.287 . S
