# Generated by pormake.
# Topology qtz, (4)-cn, num edge types: 1
# Building blocks:
#     Node 0, Type 0, BuildingBlock: UXUYUI_clean_sbu_0, # of connection points: 4
#     Node 1, Type 0, BuildingBlock: UXUYUI_clean_sbu_0, # of connection points: 4
#     Node 2, Type 0, BuildingBlock: UXUYUI_clean_sbu_0, # of connection points: 4
#     Edge 3, Type (0, 0), BuildingBlock: MIFKUJ_clean_linker_0, # of connection points: 2
#     Edge 4, Type (0, 0), BuildingBlock: MIFKUJ_clean_linker_0, # of connection points: 2
#     Edge 5, Type (0, 0), BuildingBlock: MIFKUJ_clean_linker_0, # of connection points: 2
#     Edge 6, Type (0, 0), BuildingBlock: MIFKUJ_clean_linker_0, # of connection points: 2
#     Edge 7, Type (0, 0), BuildingBlock: MIFKUJ_clean_linker_0, # of connection points: 2
#     Edge 8, Type (0, 0), BuildingBlock: MIFKUJ_clean_linker_0, # of connection points: 2
# Relax obj value: 0.181
# Max RMSD: 0.212
# Mean RMSD: 0.212
data_MOF--net-qtz--node1-UXUYUI_clean_sbu_0--edge1-MIFKUJ_clean_linker_0
_symmetry_space_group_name_H-M    P1
_symmetry_Int_Tables_number       1
_symmetry_cell_setting            triclinic
loop_
_symmetry_equiv_pos_as_xyz
'x, y, z'
_cell_length_a     41.107197
_cell_length_b     41.089512
_cell_length_c     49.158401
_cell_angle_alpha  90.019862
_cell_angle_beta   89.990738
_cell_angle_gamma 119.83768
loop_
_atom_site_label
_atom_site_type_symbol
_atom_site_fract_x
_atom_site_fract_y
_atom_site_fract_z
_atom_type_partial_charge
Li0 Li 0.02407 0.49527 0.1468 0.0
Li1 Li 0.01721 0.53425 0.18161 0.0
Li2 Li 0.97018 0.46885 0.17734 0.0
Li3 Li 0.97865 0.51574 0.14322 0.0
C4 C 0.05797 0.49989 0.19768 0.0
N5 N 0.12803 0.52176 0.21919 0.0
C6 C 0.08938 0.53292 0.18873 0.0
C7 C 0.06228 0.47802 0.21757 0.0
C8 C 0.12451 0.54349 0.19988 0.0
C9 C 0.09792 0.48953 0.22817 0.0
C10 C 0.03862 0.57351 0.1242 0.0
C11 C 0.03176 0.62585 0.10956 0.0
N12 N 0.0452 0.62426 0.08462 0.0
C13 C 0.05286 0.57278 0.09853 0.0
C14 C 0.02845 0.6006 0.12987 0.0
C15 C 0.05581 0.59853 0.07876 0.0
C16 C 0.04945 0.48022 0.09854 0.0
N17 N 0.055 0.48202 0.12588 0.0
C18 C 0.10121 0.46334 0.12067 0.0
C19 C 0.07959 0.47285 0.13717 0.0
C20 C 0.09707 0.46267 0.09229 0.0
C21 C 0.07042 0.47081 0.08126 0.0
H22 H 0.02866 0.4862 0.09014 0.0
H23 H 0.08238 0.47243 0.15892 0.0
C24 C 0.03973 0.55995 0.23457 0.0
N25 N 0.04361 0.57166 0.20832 0.0
C26 C 0.06002 0.5853 0.25516 0.0
C27 C 0.0878 0.63441 0.22133 0.0
C28 C 0.06696 0.60804 0.20135 0.0
C29 C 0.08474 0.623 0.2486 0.0
H30 H 0.0213 0.53069 0.2394 0.0
H31 H 0.07017 0.61639 0.18025 0.0
C32 C 0.96291 0.42915 0.13009 0.0
N33 N 0.94751 0.35784 0.11581 0.0
C34 C 0.94039 0.41124 0.10752 0.0
C35 C 0.97766 0.41082 0.1454 0.0
C36 C 0.93291 0.37517 0.10063 0.0
C37 C 0.96953 0.37477 0.13784 0.0
C38 C 0.95615 0.52788 0.20399 0.0
C39 C 0.94162 0.50657 0.22763 0.0
C40 C 0.96525 0.56552 0.20391 0.0
C41 C 0.9371 0.52342 0.25092 0.0
C42 C 0.96039 0.58138 0.22762 0.0
N43 N 0.94656 0.56018 0.25045 0.0
C44 C 0.94597 0.41684 0.22005 0.0
C45 C 0.90133 0.40208 0.18483 0.0
C46 C 0.92075 0.38524 0.23473 0.0
N47 N 0.93574 0.42472 0.19576 0.0
C48 C 0.87526 0.37002 0.19875 0.0
C49 C 0.88472 0.36147 0.22421 0.0
H50 H 0.97337 0.43573 0.22834 0.0
H51 H 0.89409 0.40914 0.16541 0.0
C52 C 0.95077 0.51694 0.09145 0.0
N53 N 0.95244 0.52842 0.11758 0.0
C54 C 0.93065 0.5245 0.07205 0.0
C55 C 0.91521 0.55635 0.10675 0.0
C56 C 0.93528 0.54781 0.12552 0.0
C57 C 0.91227 0.54426 0.07964 0.0
H58 H 0.96467 0.50145 0.08583 0.0
H59 H 0.93706 0.55652 0.14645 0.0
O60 O 0.02304 0.48933 0.18761 0.0
O61 O 0.03481 0.54802 0.14369 0.0
O62 O 0.97062 0.4646 0.13688 0.0
O63 O 0.96128 0.51196 0.18107 0.0
H64 H 0.08679 0.55028 0.17337 0.0
H65 H 0.03838 0.45237 0.22473 0.0
H66 H 0.149 0.56898 0.19316 0.0
H67 H 0.10164 0.47284 0.24355 0.0
H68 H 0.02357 0.64665 0.11362 0.0
H69 H 0.06181 0.55276 0.09392 0.0
H70 H 0.01761 0.6018 0.14962 0.0
H71 H 0.06661 0.59811 0.05878 0.0
H72 H 0.12075 0.45629 0.13004 0.0
H73 H 0.06631 0.47063 0.05949 0.0
H74 H 0.05667 0.57541 0.27595 0.0
H75 H 0.10706 0.66309 0.21537 0.0
H76 H 0.92884 0.42511 0.09544 0.0
H77 H 0.99525 0.42423 0.16288 0.0
H78 H 0.91551 0.36097 0.08321 0.0
H79 H 0.98076 0.36027 0.14949 0.0
H80 H 0.93397 0.47737 0.2281 0.0
H81 H 0.97641 0.58253 0.18589 0.0
H82 H 0.92607 0.50726 0.26937 0.0
H83 H 0.96768 0.61056 0.22788 0.0
H84 H 0.92901 0.38018 0.25449 0.0
H85 H 0.84797 0.35225 0.18974 0.0
H86 H 0.9287 0.51407 0.05154 0.0
H87 H 0.90203 0.57214 0.11345 0.0
Li88 Li 0.53161 0.01875 0.47607 0.0
Li89 Li 0.49318 0.02422 0.51189 0.0
Li90 Li 0.51361 0.97855 0.51354 0.0
Li91 Li 0.46633 0.97159 0.48023 0.0
C92 C 0.57204 0.03809 0.53299 0.0
N93 N 0.62428 0.04409 0.57107 0.0
C94 C 0.57351 0.05366 0.55856 0.0
C95 C 0.59777 0.0264 0.52662 0.0
C96 C 0.59996 0.05627 0.57757 0.0
C97 C 0.62377 0.02939 0.54618 0.0
C98 C 0.49729 0.0603 0.46218 0.0
C99 C 0.48749 0.10173 0.43286 0.0
N100 N 0.51923 0.13146 0.44284 0.0
C101 C 0.52985 0.09132 0.47215 0.0
C102 C 0.47596 0.06554 0.44235 0.0
C103 C 0.54045 0.12703 0.46211 0.0
C104 C 0.55687 0.04438 0.42351 0.0
N105 N 0.56882 0.04631 0.44953 0.0
C106 C 0.63175 0.09017 0.43674 0.0
C107 C 0.6054 0.06851 0.45649 0.0
C108 C 0.62011 0.08912 0.40972 0.0
C109 C 0.58218 0.06554 0.40315 0.0
H110 H 0.52747 0.02678 0.41868 0.0
H111 H 0.61399 0.07009 0.47743 0.0
C112 C 0.48126 0.04978 0.56129 0.0
N113 N 0.48027 0.05435 0.53398 0.0
C114 C 0.47253 0.0706 0.57927 0.0
C115 C 0.4597 0.09889 0.54068 0.0
C116 C 0.46872 0.07754 0.52348 0.0
C117 C 0.46205 0.09595 0.56899 0.0
H118 H 0.48891 0.02991 0.5691 0.0
H119 H 0.46603 0.07937 0.50181 0.0
C120 C 0.52506 0.95893 0.45169 0.0
N121 N 0.55702 0.95208 0.40407 0.0
C122 C 0.50394 0.94697 0.42776 0.0
C123 C 0.56232 0.96685 0.45143 0.0
C124 C 0.52061 0.9438 0.4039 0.0
C125 C 0.57801 0.96341 0.42715 0.0
C126 C 0.42747 0.96253 0.52835 0.0
C127 C 0.41039 0.93971 0.55095 0.0
C128 C 0.40856 0.97737 0.51387 0.0
C129 C 0.37454 0.93202 0.55868 0.0
C130 C 0.37276 0.96902 0.52224 0.0
N131 N 0.35663 0.94671 0.54428 0.0
C132 C 0.51655 0.94987 0.56457 0.0
C133 C 0.54283 0.93173 0.52875 0.0
C134 C 0.52321 0.9281 0.58307 0.0
N135 N 0.5261 0.95096 0.538 0.0
C136 C 0.55031 0.90986 0.54657 0.0
C137 C 0.53994 0.90736 0.57408 0.0
H138 H 0.50308 0.96538 0.57122 0.0
H139 H 0.54996 0.93304 0.50748 0.0
C140 C 0.41296 0.94831 0.43827 0.0
N141 N 0.42188 0.93757 0.46193 0.0
C142 C 0.38117 0.92311 0.42373 0.0
C143 C 0.36781 0.87667 0.45867 0.0
C144 C 0.40004 0.90271 0.47242 0.0
C145 C 0.35826 0.88659 0.43378 0.0
H146 H 0.43119 0.97611 0.43032 0.0
H147 H 0.4079 0.89509 0.49136 0.0
O148 O 0.5459 0.03472 0.51422 0.0
O149 O 0.48663 0.02486 0.47123 0.0
O150 O 0.50935 0.96284 0.47518 0.0
O151 O 0.4627 0.97048 0.52076 0.0
H152 H 0.55473 0.06399 0.56364 0.0
H153 H 0.59736 0.01467 0.50689 0.0
H154 H 0.60124 0.06809 0.59747 0.0
H155 H 0.64351 0.02 0.54157 0.0
H156 H 0.47121 0.10616 0.41754 0.0
H157 H 0.54682 0.08802 0.48746 0.0
H158 H 0.4507 0.04193 0.43439 0.0
H159 H 0.56557 0.15124 0.46964 0.0
H160 H 0.66063 0.10845 0.44272 0.0
H161 H 0.57211 0.06367 0.38253 0.0
H162 H 0.47469 0.06739 0.60094 0.0
H163 H 0.4507 0.11728 0.53191 0.0
H164 H 0.47504 0.94036 0.42751 0.0
H165 H 0.57915 0.97594 0.46967 0.0
H166 H 0.5046 0.93479 0.38522 0.0
H167 H 0.6069 0.96979 0.42665 0.0
H168 H 0.42473 0.92811 0.56241 0.0
H169 H 0.42135 0.99521 0.49638 0.0
H170 H 0.36097 0.91439 0.57613 0.0
H171 H 0.35781 0.98032 0.51123 0.0
H172 H 0.51422 0.92662 0.60396 0.0
H173 H 0.56375 0.89483 0.53881 0.0
H174 H 0.37533 0.9318 0.40441 0.0
H175 H 0.3507 0.84904 0.46737 0.0
Li176 Li 0.48622 0.46199 0.81288 0.0
Li177 Li 0.52986 0.50551 0.84667 0.0
Li178 Li 0.46172 0.48652 0.8484 0.0
Li179 Li 0.50433 0.53018 0.81404 0.0
C180 C 0.4686 0.41895 0.86201 0.0
N181 N 0.43384 0.34586 0.88071 0.0
C182 C 0.48982 0.40448 0.87357 0.0
C183 C 0.42965 0.39642 0.86036 0.0
C184 C 0.47175 0.36741 0.88278 0.0
C185 C 0.41261 0.3595 0.86983 0.0
C186 C 0.57197 0.51493 0.80299 0.0
C187 C 0.63854 0.55808 0.80516 0.0
N188 N 0.64506 0.53013 0.79719 0.0
C189 C 0.5793 0.48671 0.79459 0.0
C190 C 0.60178 0.55099 0.80808 0.0
C191 C 0.61646 0.49493 0.79185 0.0
C192 C 0.4612 0.42069 0.76459 0.0
N193 N 0.47486 0.42076 0.78977 0.0
C194 C 0.47356 0.36307 0.78054 0.0
C195 C 0.48141 0.39293 0.79792 0.0
C196 C 0.45928 0.36215 0.75442 0.0
C197 C 0.45307 0.39144 0.7465 0.0
H198 H 0.45679 0.44351 0.75853 0.0
H199 H 0.49347 0.39426 0.81766 0.0
C200 C 0.58586 0.54519 0.88599 0.0
N201 N 0.57244 0.51622 0.86802 0.0
C202 C 0.61737 0.55376 0.90174 0.0
C203 C 0.62067 0.50261 0.88008 0.0
C204 C 0.58883 0.49474 0.86503 0.0
C205 C 0.63523 0.53242 0.89874 0.0
H206 H 0.57202 0.56154 0.88817 0.0
H207 H 0.57714 0.47146 0.85094 0.0
C208 C 0.41839 0.46975 0.79886 0.0
N209 N 0.34596 0.43824 0.77919 0.0
C210 C 0.40526 0.49259 0.78814 0.0
C211 C 0.39484 0.43083 0.79917 0.0
C212 C 0.36851 0.47615 0.77842 0.0
C213 C 0.35829 0.41546 0.78924 0.0
C214 C 0.5127 0.57231 0.85795 0.0
C215 C 0.48371 0.578 0.86709 0.0
C216 C 0.54795 0.6032 0.85247 0.0
C217 C 0.49035 0.61461 0.87023 0.0
C218 C 0.55345 0.63936 0.85581 0.0
N219 N 0.52478 0.64427 0.86453 0.0
C220 C 0.42263 0.4631 0.89752 0.0
C221 C 0.3912 0.47842 0.86382 0.0
C222 C 0.39378 0.45453 0.91609 0.0
N223 N 0.42074 0.47462 0.87195 0.0
C224 C 0.36163 0.46992 0.88164 0.0
C225 C 0.36278 0.45792 0.90818 0.0
H226 H 0.44669 0.46074 0.9035 0.0
H227 H 0.39084 0.48873 0.84373 0.0
C228 C 0.54111 0.58272 0.77235 0.0
N229 N 0.51438 0.57203 0.79193 0.0
C230 C 0.5489 0.6129 0.75531 0.0
C231 C 0.50174 0.62072 0.77911 0.0
C232 C 0.49455 0.59011 0.79545 0.0
C233 C 0.52908 0.63227 0.75864 0.0
H234 H 0.55612 0.56755 0.76975 0.0
H235 H 0.47287 0.58052 0.81076 0.0
O236 O 0.48595 0.45524 0.85291 0.0
O237 O 0.53578 0.50728 0.80613 0.0
O238 O 0.45438 0.48548 0.80839 0.0
O239 O 0.50663 0.53667 0.85458 0.0
H240 H 0.51996 0.42163 0.87528 0.0
H241 H 0.41266 0.40739 0.8522 0.0
H242 H 0.48786 0.35578 0.89161 0.0
H243 H 0.38248 0.34175 0.86863 0.0
H244 H 0.66188 0.58579 0.80923 0.0
H245 H 0.55656 0.4587 0.79043 0.0
H246 H 0.59656 0.57319 0.81442 0.0
H247 H 0.62256 0.47331 0.78553 0.0
H248 H 0.47953 0.34146 0.7872 0.0
H249 H 0.44198 0.39171 0.72657 0.0
H250 H 0.62786 0.57699 0.91592 0.0
H251 H 0.63335 0.48516 0.87753 0.0
H252 H 0.42317 0.52271 0.78746 0.0
H253 H 0.40476 0.41261 0.80664 0.0
H254 H 0.35792 0.49352 0.77024 0.0
H255 H 0.33977 0.38539 0.7894 0.0
H256 H 0.45632 0.55442 0.87158 0.0
H257 H 0.57073 0.59929 0.84553 0.0
H258 H 0.46813 0.61943 0.87715 0.0
H259 H 0.58052 0.66353 0.85146 0.0
H260 H 0.39565 0.44527 0.93636 0.0
H261 H 0.33859 0.47365 0.87496 0.0
H262 H 0.57021 0.62103 0.73974 0.0
H263 H 0.48543 0.63457 0.78196 0.0
H264 H 0.37013 0.48086 0.96099 0.0
H265 H 0.32043 0.47202 0.99245 0.0
H266 H 0.2373 0.40937 0.93115 0.0
H267 H 0.28711 0.41863 0.8994 0.0
H268 H 0.22406 0.45971 0.95309 0.0
H269 H 0.24865 0.36593 0.98801 0.0
H270 H 0.28709 0.33957 0.00506 0.0
H271 H 0.32399 0.41667 0.07217 0.0
H272 H 0.28617 0.44388 0.05532 0.0
H273 H 0.07648 0.41888 0.04647 0.0
H274 H 0.1173 0.40894 0.01542 0.0
H275 H 0.21255 0.47802 0.06641 0.0
H276 H 0.17205 0.48819 0.09743 0.0
H277 H 0.21401 0.4161 0.04844 0.0
H278 H 0.19475 0.51386 0.01001 0.0
H279 H 0.15629 0.54015 0.9928 0.0
H280 H 0.10888 0.45396 0.93186 0.0
H281 H 0.14672 0.42686 0.94898 0.0
C282 C 0.34123 0.46468 0.95437 0.0
C283 C 0.33246 0.4504 0.92777 0.0
C284 C 0.31282 0.45956 0.97239 0.0
C285 C 0.27508 0.4396 0.96428 0.0
C286 C 0.26623 0.42483 0.93784 0.0
C287 C 0.29466 0.4302 0.91973 0.0
C288 C 0.24518 0.43635 0.98286 0.0
C289 C 0.22136 0.4494 0.97376 0.0
C290 C 0.24207 0.42353 0.00998 0.0
C291 C 0.26475 0.40713 0.02027 0.0
C292 C 0.26516 0.37745 0.0063 0.0
C293 C 0.28681 0.36233 0.01594 0.0
C294 C 0.30802 0.37648 0.03965 0.0
C295 C 0.30755 0.40574 0.0538 0.0
C296 C 0.28597 0.42099 0.04423 0.0
C297 C 0.10612 0.43195 0.05104 0.0
C298 C 0.1211 0.45452 0.0743 0.0
C299 C 0.12935 0.42614 0.03335 0.0
C300 C 0.16798 0.44306 0.0385 0.0
C301 C 0.18278 0.46461 0.06213 0.0
C302 C 0.15959 0.47035 0.07985 0.0
C303 C 0.19345 0.43996 0.01871 0.0
C304 C 0.21642 0.4258 0.02762 0.0
C305 C 0.19575 0.45165 0.99137 0.0
C306 C 0.17323 0.46811 0.98096 0.0
C307 C 0.17592 0.50037 0.99307 0.0
C308 C 0.15426 0.51543 0.98332 0.0
C309 C 0.13007 0.49867 0.9613 0.0
C310 C 0.12757 0.46687 0.94894 0.0
C311 C 0.14912 0.45166 0.95865 0.0
H312 H 0.11333 0.51038 0.95378 0.0
H313 H 0.32477 0.36473 0.04709 0.0
H314 H 0.80997 0.3374 0.22993 0.0
H315 H 0.76486 0.28732 0.25919 0.0
H316 H 0.85094 0.26345 0.28547 0.0
H317 H 0.896 0.31254 0.25528 0.0
H318 H 0.78474 0.19955 0.27837 0.0
H319 H 0.82829 0.31685 0.32436 0.0
H320 H 0.84234 0.38229 0.32943 0.0
H321 H 0.72586 0.34732 0.31841 0.0
H322 H 0.71118 0.2817 0.31288 0.0
H323 H 0.69215 0.10421 0.40105 0.0
H324 H 0.73705 0.14747 0.36762 0.0
H325 H 0.65342 0.17269 0.33763 0.0
H326 H 0.60882 0.13036 0.37135 0.0
H327 H 0.71977 0.2355 0.34704 0.0
H328 H 0.6767 0.1173 0.30147 0.0
H329 H 0.66369 0.05212 0.2971 0.0
H330 H 0.7805 0.08897 0.30866 0.0
H331 H 0.79414 0.15436 0.31348 0.0
C332 C 0.81919 0.32102 0.24146 0.0
C333 C 0.85668 0.32916 0.24041 0.0
C334 C 0.79344 0.29264 0.2584 0.0
C335 C 0.80476 0.27217 0.27486 0.0
C336 C 0.84173 0.27912 0.27306 0.0
C337 C 0.86749 0.3074 0.256 0.0
C338 C 0.77841 0.2447 0.29479 0.0
C339 C 0.77085 0.20745 0.29361 0.0
C340 C 0.76 0.255 0.31444 0.0
C341 C 0.7687 0.29441 0.31795 0.0
C342 C 0.80571 0.32315 0.32282 0.0
C343 C 0.81378 0.36027 0.32581 0.0
C344 C 0.78502 0.36897 0.32418 0.0
C345 C 0.74811 0.34054 0.31963 0.0
C346 C 0.7399 0.30338 0.31659 0.0
C347 C 0.6834 0.11903 0.38733 0.0
C348 C 0.64695 0.11385 0.38876 0.0
C349 C 0.70893 0.14345 0.36812 0.0
C350 C 0.69841 0.16301 0.35003 0.0
C351 C 0.66202 0.15774 0.35135 0.0
C352 C 0.63649 0.13332 0.37048 0.0
C353 C 0.72568 0.1902 0.33042 0.0
C354 C 0.73359 0.22753 0.33177 0.0
C355 C 0.74451 0.17995 0.3111 0.0
C356 C 0.73638 0.14068 0.30812 0.0
C357 C 0.69957 0.11147 0.30331 0.0
C358 C 0.69208 0.0745 0.30071 0.0
C359 C 0.72123 0.0664 0.30267 0.0
C360 C 0.75794 0.09528 0.30718 0.0
C361 C 0.76557 0.13231 0.30983 0.0
H362 H 0.71538 0.03775 0.30065 0.0
H363 H 0.79133 0.39773 0.3265 0.0
H364 H 0.56036 0.91873 0.62795 0.0
H365 H 0.56301 0.87422 0.65953 0.0
H366 H 0.53424 0.79415 0.59432 0.0
H367 H 0.52953 0.83756 0.56302 0.0
H368 H 0.49303 0.7612 0.63672 0.0
H369 H 0.62422 0.84318 0.62156 0.0
H370 H 0.68331 0.90363 0.61933 0.0
H371 H 0.67511 0.92121 0.70458 0.0
H372 H 0.61565 0.86106 0.70725 0.0
H373 H 0.53368 0.63324 0.70337 0.0
H374 H 0.54056 0.68302 0.67249 0.0
H375 H 0.54599 0.75093 0.74115 0.0
H376 H 0.53903 0.70111 0.77223 0.0
H377 H 0.6001 0.79058 0.69803 0.0
H378 H 0.46766 0.70779 0.71191 0.0
H379 H 0.40971 0.64626 0.71331 0.0
H380 H 0.42224 0.62957 0.62856 0.0
H381 H 0.48064 0.69081 0.62678 0.0
C382 C 0.55448 0.89161 0.62034 0.0
C383 C 0.54468 0.88175 0.59293 0.0
C384 C 0.55646 0.86635 0.63836 0.0
C385 C 0.54917 0.83096 0.62924 0.0
C386 C 0.54007 0.82133 0.6018 0.0
C387 C 0.53778 0.8464 0.58385 0.0
C388 C 0.549 0.80311 0.6485 0.0
C389 C 0.51672 0.76754 0.6498 0.0
C390 C 0.57952 0.8116 0.66607 0.0
C391 C 0.61527 0.84779 0.66454 0.0
C392 C 0.63484 0.86008 0.63979 0.0
C393 C 0.66844 0.89426 0.63845 0.0
C394 C 0.6829 0.9163 0.66178 0.0
C395 C 0.66384 0.90414 0.68652 0.0
C396 C 0.63021 0.86999 0.68796 0.0
C397 C 0.53686 0.659 0.71187 0.0
C398 C 0.5357 0.66335 0.74014 0.0
C399 C 0.54065 0.68728 0.69425 0.0
C400 C 0.54359 0.72045 0.70462 0.0
C401 C 0.54377 0.72548 0.73284 0.0
C402 C 0.53954 0.69698 0.7505 0.0
C403 C 0.54439 0.74892 0.68588 0.0
C404 C 0.5766 0.78447 0.6848 0.0
C405 C 0.51397 0.7404 0.66831 0.0
C406 C 0.47872 0.7037 0.66929 0.0
C407 C 0.45824 0.69086 0.69363 0.0
C408 C 0.42528 0.65606 0.69448 0.0
C409 C 0.41235 0.63397 0.67105 0.0
C410 C 0.43232 0.64669 0.6467 0.0
C411 C 0.46533 0.68145 0.64576 0.0
H412 H 0.38682 0.60704 0.67175 0.0
H413 H 0.70892 0.94275 0.66071 0.0
H414 H 0.64343 0.54401 0.95345 0.0
H415 H 0.69659 0.55396 0.98156 0.0
H416 H 0.75498 0.54948 0.9099 0.0
H417 H 0.70124 0.53845 0.88179 0.0
H418 H 0.76027 0.5086 0.94745 0.0
H419 H 0.7816 0.63339 0.94512 0.0
H420 H 0.76618 0.68402 0.94896 0.0
H421 H 0.7407 0.6589 0.03369 0.0
H422 H 0.75545 0.60773 0.03029 0.0
H423 H 0.92581 0.56113 0.02526 0.0
H424 H 0.88437 0.56651 0.99208 0.0
H425 H 0.80485 0.54826 0.0557 0.0
H426 H 0.84526 0.54153 0.08882 0.0
H427 H 0.81694 0.6066 0.01886 0.0
H428 H 0.78992 0.47725 0.01824 0.0
H429 H 0.80697 0.42784 0.01356 0.0
H430 H 0.84617 0.46488 0.93228 0.0
H431 H 0.82983 0.5149 0.93665 0.0
C432 C 0.66782 0.54564 0.94369 0.0
C433 C 0.66831 0.54052 0.91549 0.0
C434 C 0.69826 0.55147 0.95974 0.0
C435 C 0.73009 0.55307 0.94781 0.0
C436 C 0.73078 0.54841 0.91955 0.0
C437 C 0.7001 0.54207 0.90353 0.0
C438 C 0.7616 0.55734 0.96507 0.0
C439 C 0.77317 0.53057 0.96264 0.0
C440 C 0.77818 0.58567 0.9852 0.0
C441 C 0.76939 0.61652 0.98739 0.0
C442 C 0.77246 0.63847 0.96453 0.0
C443 C 0.76387 0.6673 0.96664 0.0
C444 C 0.7524 0.67462 0.99154 0.0
C445 C 0.74957 0.65318 0.01441 0.0
C446 C 0.75809 0.62429 0.01241 0.0
C447 C 0.89946 0.55812 0.03221 0.0
C448 C 0.88881 0.55065 0.05973 0.0
C449 C 0.87598 0.56149 0.01325 0.0
C450 C 0.84157 0.55763 0.0215 0.0
C451 C 0.83145 0.55155 0.04902 0.0
C452 C 0.8547 0.54785 0.06794 0.0
C453 C 0.81495 0.55767 0.00132 0.0
C454 C 0.80432 0.58514 0.00329 0.0
C455 C 0.79952 0.53028 0.98057 0.0
C456 C 0.80907 0.50007 0.97789 0.0
C457 C 0.80247 0.47505 -0.00054 0.0
C458 C 0.81195 0.44691 -0.00315 0.0
C459 C 0.82776 0.4433 0.97267 0.0
C460 C 0.834 0.46776 0.95102 0.0
C461 C 0.82462 0.496 0.95354 0.0
H462 H 0.83507 0.42149 0.97068 0.0
H463 H 0.74577 0.69696 0.99313 0.0
H464 H 0.30815 0.89758 0.40389 0.0
H465 H 0.25829 0.85248 0.37432 0.0
H466 H 0.28422 0.76691 0.39829 0.0
H467 H 0.33524 0.81221 0.4268 0.0
H468 H 0.27861 0.76814 0.34519 0.0
H469 H 0.20441 0.76728 0.42086 0.0
H470 H 0.18166 0.79495 0.45525 0.0
H471 H 0.14261 0.83906 0.39198 0.0
H472 H 0.16559 0.81207 0.35719 0.0
H473 H 0.12286 0.61072 0.28892 0.0
H474 H 0.16535 0.65558 0.32243 0.0
H475 H 0.14467 0.74087 0.28943 0.0
H476 H 0.10129 0.69574 0.25607 0.0
H477 H 0.14662 0.74072 0.34655 0.0
H478 H 0.22132 0.74139 0.27112 0.0
H479 H 0.24336 0.7127 0.23704 0.0
H480 H 0.2812 0.66813 0.3008 0.0
H481 H 0.25885 0.6961 0.3353 0.0
C482 C 0.30329 0.86918 0.40284 0.0
C483 C 0.32578 0.85856 0.41768 0.0
C484 C 0.27448 0.84331 0.38616 0.0
C485 C 0.26732 0.80623 0.38428 0.0
C486 C 0.2892 0.79536 0.3995 0.0
C487 C 0.31814 0.82123 0.41601 0.0
C488 C 0.23852 0.77927 0.36528 0.0
C489 C 0.24963 0.76176 0.3458 0.0
C490 C 0.20096 0.77176 0.36554 0.0
C491 C 0.18706 0.78797 0.38642 0.0
C492 C 0.19125 0.78314 0.41428 0.0
C493 C 0.17826 0.79865 0.43384 0.0
C494 C 0.1608 0.81884 0.4258 0.0
C495 C 0.15619 0.82347 0.39818 0.0
C496 C 0.16916 0.80804 0.37852 0.0
C497 C 0.12682 0.63882 0.28907 0.0
C498 C 0.10882 0.64977 0.26983 0.0
C499 C 0.1513 0.66448 0.3081 0.0
C500 C 0.15839 0.70157 0.30817 0.0
C501 C 0.13958 0.71235 0.28961 0.0
C502 C 0.11511 0.68668 0.27047 0.0
C503 C 0.18675 0.72941 0.32687 0.0
C504 C 0.17562 0.74716 0.3461 0.0
C505 C 0.22432 0.73712 0.3265 0.0
C506 C 0.2381 0.72055 0.30579 0.0
C507 C 0.23408 0.72524 0.27788 0.0
C508 C 0.24667 0.70914 0.25849 0.0
C509 C 0.26359 0.68853 0.26675 0.0
C510 C 0.26805 0.68406 0.29443 0.0
C511 C 0.25546 0.70006 0.31391 0.0
H512 H 0.27331 0.67608 0.25171 0.0
H513 H 0.15075 0.83082 0.44098 0.0
H514 H 0.47757 0.36825 0.70058 0.0
H515 H 0.46909 0.31827 0.66952 0.0
H516 H 0.41705 0.23688 0.73378 0.0
H517 H 0.42572 0.28696 0.76508 0.0
H518 H 0.4683 0.22714 0.7086 0.0
H519 H 0.36515 0.24136 0.68042 0.0
H520 H 0.3328 0.27521 0.66557 0.0
H521 H 0.4013 0.31283 0.5938 0.0
H522 H 0.43446 0.27964 0.60841 0.0
H523 H 0.42397 0.07615 0.61745 0.0
H524 H 0.41534 0.117 0.64933 0.0
H525 H 0.47429 0.2104 0.59453 0.0
H526 H 0.48339 0.16996 0.56274 0.0
H527 H 0.41214 0.20853 0.61657 0.0
H528 H 0.51912 0.19957 0.64771 0.0
H529 H 0.5515 0.16577 0.66269 0.0
H530 H 0.47444 0.11781 0.72934 0.0
H531 H 0.44128 0.15094 0.71451 0.0
C532 C 0.46376 0.33963 0.70798 0.0
C533 C 0.45225 0.33149 0.73525 0.0
C534 C 0.45889 0.31107 0.6902 0.0
C535 C 0.44201 0.27376 0.69924 0.0
C536 C 0.43011 0.26548 0.72638 0.0
C537 C 0.43517 0.29409 0.74424 0.0
C538 C 0.43881 0.24384 0.68072 0.0
C539 C 0.4553 0.22255 0.6887 0.0
C540 C 0.42247 0.23831 0.65456 0.0
C541 C 0.40249 0.25821 0.64563 0.0
C542 C 0.37352 0.25707 0.66157 0.0
C543 C 0.355 0.27611 0.65318 0.0
C544 C 0.36504 0.29622 0.62879 0.0
C545 C 0.39357 0.29726 0.6127 0.0
C546 C 0.4122 0.2783 0.62101 0.0
C547 C 0.43515 0.1054 0.61222 0.0
C548 C 0.45458 0.11988 0.58764 0.0
C549 C 0.43006 0.12864 0.63039 0.0
C550 C 0.44447 0.16676 0.62435 0.0
C551 C 0.46283 0.18101 0.5995 0.0
C552 C 0.46794 0.15783 0.58134 0.0
C553 C 0.44204 0.19236 0.64439 0.0
C554 C 0.42459 0.21283 0.63665 0.0
C555 C 0.45741 0.19711 0.6708 0.0
C556 C 0.47747 0.17738 0.67982 0.0
C557 C 0.50891 0.18158 0.66544 0.0
C558 C 0.52743 0.16259 0.67392 0.0
C559 C 0.51496 0.13956 0.69691 0.0
C560 C 0.48402 0.13559 0.71151 0.0
C561 C 0.46536 0.15448 0.70308 0.0
H562 H 0.52934 0.12488 0.70345 0.0
H563 H 0.35067 0.31094 0.62233 0.0
loop_
_geom_bond_atom_site_label_1
_geom_bond_atom_site_label_2
_geom_bond_distance
_geom_bond_site_symmetry_2
_ccdc_geom_bond_type
Li0 N17 1.990 . S
Li0 O60 1.956 . S
Li0 O61 1.970 . S
Li0 O62 1.961 1_455 S
Li1 N25 1.990 . S
Li1 O60 1.970 . S
Li1 O61 1.956 . S
Li1 O63 1.961 1_455 S
Li2 N47 1.990 . S
Li2 O60 1.961 1_655 S
Li2 O62 1.956 . S
Li2 O63 1.970 . S
Li3 N53 1.990 . S
Li3 O61 1.961 1_655 S
Li3 O62 1.970 . S
Li3 O63 1.956 . S
C4 C6 1.348 . S
C4 C7 1.356 . S
C4 O60 1.325 . S
N5 C8 1.314 . S
N5 C9 1.279 . S
C6 C4 1.348 . S
C6 C8 1.353 . S
C6 H64 0.929 . S
C7 C4 1.356 . S
C7 C9 1.358 . S
C7 H65 0.930 . S
C8 N5 1.314 . S
C8 C6 1.353 . S
C8 H66 0.930 . S
C9 N5 1.279 . S
C9 C7 1.358 . S
C9 H67 0.930 . S
C10 C13 1.348 . S
C10 C14 1.356 . S
C10 O61 1.325 . S
C11 N12 1.279 . S
C11 C14 1.358 . S
C11 H68 0.930 . S
N12 C11 1.279 . S
N12 C15 1.314 . S
C13 C10 1.348 . S
C13 C15 1.353 . S
C13 H69 0.929 . S
C14 C10 1.356 . S
C14 C11 1.358 . S
C14 H70 0.930 . S
C15 N12 1.314 . S
C15 C13 1.353 . S
C15 H71 0.930 . S
C16 N17 1.314 . S
C16 C21 1.353 . S
C16 H22 0.930 . S
N17 Li0 1.990 . S
N17 C16 1.314 . S
N17 C19 1.279 . S
C18 C19 1.358 . S
C18 C20 1.356 . S
C18 H72 0.930 . S
C19 N17 1.279 . S
C19 C18 1.358 . S
C19 H23 0.930 . S
C20 C18 1.356 . S
C20 C21 1.348 . S
C21 C16 1.353 . S
C21 C20 1.348 . S
C21 H73 0.929 . S
H22 C16 0.930 . S
H23 C19 0.930 . S
C24 N25 1.314 . S
C24 C26 1.353 . S
C24 H30 0.930 . S
N25 Li1 1.990 . S
N25 C24 1.314 . S
N25 C28 1.279 . S
C26 C24 1.353 . S
C26 C29 1.348 . S
C26 H74 0.929 . S
C27 C28 1.358 . S
C27 C29 1.356 . S
C27 H75 0.930 . S
C28 N25 1.279 . S
C28 C27 1.358 . S
C28 H31 0.930 . S
C29 C26 1.348 . S
C29 C27 1.356 . S
H30 C24 0.930 . S
H31 C28 0.930 . S
C32 C34 1.348 . S
C32 C35 1.356 . S
C32 O62 1.325 . S
N33 C36 1.314 . S
N33 C37 1.279 . S
C34 C32 1.348 . S
C34 C36 1.353 . S
C34 H76 0.929 . S
C35 C32 1.356 . S
C35 C37 1.358 . S
C35 H77 0.930 . S
C36 N33 1.314 . S
C36 C34 1.353 . S
C36 H78 0.930 . S
C37 N33 1.279 . S
C37 C35 1.358 . S
C37 H79 0.930 . S
C38 C39 1.348 . S
C38 C40 1.356 . S
C38 O63 1.325 . S
C39 C38 1.348 . S
C39 C41 1.353 . S
C39 H80 0.929 . S
C40 C38 1.356 . S
C40 C42 1.358 . S
C40 H81 0.930 . S
C41 C39 1.353 . S
C41 N43 1.314 . S
C41 H82 0.930 . S
C42 C40 1.358 . S
C42 N43 1.279 . S
C42 H83 0.930 . S
N43 C41 1.314 . S
N43 C42 1.279 . S
C44 C46 1.353 . S
C44 N47 1.314 . S
C44 H50 0.930 . S
C45 N47 1.279 . S
C45 C48 1.358 . S
C45 H51 0.930 . S
C46 C44 1.353 . S
C46 C49 1.348 . S
C46 H84 0.929 . S
N47 Li2 1.990 . S
N47 C44 1.314 . S
N47 C45 1.279 . S
C48 C45 1.358 . S
C48 C49 1.356 . S
C48 H85 0.930 . S
C49 C46 1.348 . S
C49 C48 1.356 . S
H50 C44 0.930 . S
H51 C45 0.930 . S
C52 N53 1.314 . S
C52 C54 1.353 . S
C52 H58 0.930 . S
N53 Li3 1.990 . S
N53 C52 1.314 . S
N53 C56 1.279 . S
C54 C52 1.353 . S
C54 C57 1.348 . S
C54 H86 0.929 . S
C55 C56 1.358 . S
C55 C57 1.356 . S
C55 H87 0.930 . S
C56 N53 1.279 . S
C56 C55 1.358 . S
C56 H59 0.930 . S
C57 C54 1.348 . S
C57 C55 1.356 . S
H58 C52 0.930 . S
H59 C56 0.930 . S
O60 Li0 1.956 . S
O60 Li1 1.970 . S
O60 Li2 1.961 1_455 S
O60 C4 1.325 . S
O61 Li0 1.970 . S
O61 Li1 1.956 . S
O61 Li3 1.961 1_455 S
O61 C10 1.325 . S
O62 Li0 1.961 1_655 S
O62 Li2 1.956 . S
O62 Li3 1.970 . S
O62 C32 1.325 . S
O63 Li1 1.961 1_655 S
O63 Li2 1.970 . S
O63 Li3 1.956 . S
O63 C38 1.325 . S
H64 C6 0.929 . S
H65 C7 0.930 . S
H66 C8 0.930 . S
H67 C9 0.930 . S
H68 C11 0.930 . S
H69 C13 0.929 . S
H70 C14 0.930 . S
H71 C15 0.930 . S
H72 C18 0.930 . S
H73 C21 0.929 . S
H74 C26 0.929 . S
H75 C27 0.930 . S
H76 C34 0.929 . S
H77 C35 0.930 . S
H78 C36 0.930 . S
H79 C37 0.930 . S
H80 C39 0.929 . S
H81 C40 0.930 . S
H82 C41 0.930 . S
H83 C42 0.930 . S
H84 C46 0.929 . S
H85 C48 0.930 . S
H86 C54 0.929 . S
H87 C55 0.930 . S
Li88 N105 1.990 . S
Li88 O148 1.956 . S
Li88 O149 1.970 . S
Li88 O150 1.961 1_545 S
Li89 N113 1.990 . S
Li89 O148 1.970 . S
Li89 O149 1.956 . S
Li89 O151 1.961 1_545 S
Li90 N135 1.990 . S
Li90 O148 1.961 1_565 S
Li90 O150 1.956 . S
Li90 O151 1.970 . S
Li91 N141 1.990 . S
Li91 O149 1.961 1_565 S
Li91 O150 1.970 . S
Li91 O151 1.956 . S
C92 C94 1.348 . S
C92 C95 1.356 . S
C92 O148 1.325 . S
N93 C96 1.314 . S
N93 C97 1.279 . S
C94 C92 1.348 . S
C94 C96 1.353 . S
C94 H152 0.929 . S
C95 C92 1.356 . S
C95 C97 1.358 . S
C95 H153 0.930 . S
C96 N93 1.314 . S
C96 C94 1.353 . S
C96 H154 0.930 . S
C97 N93 1.279 . S
C97 C95 1.358 . S
C97 H155 0.930 . S
C98 C101 1.348 . S
C98 C102 1.356 . S
C98 O149 1.325 . S
C99 N100 1.279 . S
C99 C102 1.358 . S
C99 H156 0.930 . S
N100 C99 1.279 . S
N100 C103 1.314 . S
C101 C98 1.348 . S
C101 C103 1.353 . S
C101 H157 0.929 . S
C102 C98 1.356 . S
C102 C99 1.358 . S
C102 H158 0.930 . S
C103 N100 1.314 . S
C103 C101 1.353 . S
C103 H159 0.930 . S
C104 N105 1.314 . S
C104 C109 1.353 . S
C104 H110 0.930 . S
N105 Li88 1.990 . S
N105 C104 1.314 . S
N105 C107 1.279 . S
C106 C107 1.358 . S
C106 C108 1.356 . S
C106 H160 0.930 . S
C107 N105 1.279 . S
C107 C106 1.358 . S
C107 H111 0.930 . S
C108 C106 1.356 . S
C108 C109 1.348 . S
C109 C104 1.353 . S
C109 C108 1.348 . S
C109 H161 0.929 . S
H110 C104 0.930 . S
H111 C107 0.930 . S
C112 N113 1.314 . S
C112 C114 1.353 . S
C112 H118 0.930 . S
N113 Li89 1.990 . S
N113 C112 1.314 . S
N113 C116 1.279 . S
C114 C112 1.353 . S
C114 C117 1.348 . S
C114 H162 0.929 . S
C115 C116 1.358 . S
C115 C117 1.356 . S
C115 H163 0.930 . S
C116 N113 1.279 . S
C116 C115 1.358 . S
C116 H119 0.930 . S
C117 C114 1.348 . S
C117 C115 1.356 . S
H118 C112 0.930 . S
H119 C116 0.930 . S
C120 C122 1.348 . S
C120 C123 1.356 . S
C120 O150 1.325 . S
N121 C124 1.314 . S
N121 C125 1.279 . S
C122 C120 1.348 . S
C122 C124 1.353 . S
C122 H164 0.929 . S
C123 C120 1.356 . S
C123 C125 1.358 . S
C123 H165 0.930 . S
C124 N121 1.314 . S
C124 C122 1.353 . S
C124 H166 0.930 . S
C125 N121 1.279 . S
C125 C123 1.358 . S
C125 H167 0.930 . S
C126 C127 1.348 . S
C126 C128 1.356 . S
C126 O151 1.325 . S
C127 C126 1.348 . S
C127 C129 1.353 . S
C127 H168 0.929 . S
C128 C126 1.356 . S
C128 C130 1.358 . S
C128 H169 0.930 . S
C129 C127 1.353 . S
C129 N131 1.314 . S
C129 H170 0.930 . S
C130 C128 1.358 . S
C130 N131 1.279 . S
C130 H171 0.930 . S
N131 C129 1.314 . S
N131 C130 1.279 . S
C132 C134 1.353 . S
C132 N135 1.314 . S
C132 H138 0.930 . S
C133 N135 1.279 . S
C133 C136 1.358 . S
C133 H139 0.930 . S
C134 C132 1.353 . S
C134 C137 1.348 . S
C134 H172 0.929 . S
N135 Li90 1.990 . S
N135 C132 1.314 . S
N135 C133 1.279 . S
C136 C133 1.358 . S
C136 C137 1.356 . S
C136 H173 0.930 . S
C137 C134 1.348 . S
C137 C136 1.356 . S
H138 C132 0.930 . S
H139 C133 0.930 . S
C140 N141 1.314 . S
C140 C142 1.353 . S
C140 H146 0.930 . S
N141 Li91 1.990 . S
N141 C140 1.314 . S
N141 C144 1.279 . S
C142 C140 1.353 . S
C142 C145 1.348 . S
C142 H174 0.929 . S
C143 C144 1.358 . S
C143 C145 1.356 . S
C143 H175 0.930 . S
C144 N141 1.279 . S
C144 C143 1.358 . S
C144 H147 0.930 . S
C145 C142 1.348 . S
C145 C143 1.356 . S
H146 C140 0.930 . S
H147 C144 0.930 . S
O148 Li88 1.956 . S
O148 Li89 1.970 . S
O148 Li90 1.961 1_545 S
O148 C92 1.325 . S
O149 Li88 1.970 . S
O149 Li89 1.956 . S
O149 Li91 1.961 1_545 S
O149 C98 1.325 . S
O150 Li88 1.961 1_565 S
O150 Li90 1.956 . S
O150 Li91 1.970 . S
O150 C120 1.325 . S
O151 Li89 1.961 1_565 S
O151 Li90 1.970 . S
O151 Li91 1.956 . S
O151 C126 1.325 . S
H152 C94 0.929 . S
H153 C95 0.930 . S
H154 C96 0.930 . S
H155 C97 0.930 . S
H156 C99 0.930 . S
H157 C101 0.929 . S
H158 C102 0.930 . S
H159 C103 0.930 . S
H160 C106 0.930 . S
H161 C109 0.929 . S
H162 C114 0.929 . S
H163 C115 0.930 . S
H164 C122 0.929 . S
H165 C123 0.930 . S
H166 C124 0.930 . S
H167 C125 0.930 . S
H168 C127 0.929 . S
H169 C128 0.930 . S
H170 C129 0.930 . S
H171 C130 0.930 . S
H172 C134 0.929 . S
H173 C136 0.930 . S
H174 C142 0.929 . S
H175 C143 0.930 . S
Li176 N193 1.990 . S
Li176 O236 1.956 . S
Li176 O237 1.970 . S
Li176 O238 1.961 . S
Li177 N201 1.990 . S
Li177 O236 1.970 . S
Li177 O237 1.956 . S
Li177 O239 1.961 . S
Li178 N223 1.990 . S
Li178 O236 1.961 . S
Li178 O238 1.956 . S
Li178 O239 1.970 . S
Li179 N229 1.990 . S
Li179 O237 1.961 . S
Li179 O238 1.970 . S
Li179 O239 1.956 . S
C180 C182 1.348 . S
C180 C183 1.356 . S
C180 O236 1.325 . S
N181 C184 1.314 . S
N181 C185 1.279 . S
C182 C180 1.348 . S
C182 C184 1.353 . S
C182 H240 0.929 . S
C183 C180 1.356 . S
C183 C185 1.358 . S
C183 H241 0.930 . S
C184 N181 1.314 . S
C184 C182 1.353 . S
C184 H242 0.930 . S
C185 N181 1.279 . S
C185 C183 1.358 . S
C185 H243 0.930 . S
C186 C189 1.348 . S
C186 C190 1.356 . S
C186 O237 1.325 . S
C187 N188 1.279 . S
C187 C190 1.358 . S
C187 H244 0.930 . S
N188 C187 1.279 . S
N188 C191 1.314 . S
C189 C186 1.348 . S
C189 C191 1.353 . S
C189 H245 0.929 . S
C190 C186 1.356 . S
C190 C187 1.358 . S
C190 H246 0.930 . S
C191 N188 1.314 . S
C191 C189 1.353 . S
C191 H247 0.930 . S
C192 N193 1.314 . S
C192 C197 1.353 . S
C192 H198 0.930 . S
N193 Li176 1.990 . S
N193 C192 1.314 . S
N193 C195 1.279 . S
C194 C195 1.358 . S
C194 C196 1.356 . S
C194 H248 0.930 . S
C195 N193 1.279 . S
C195 C194 1.358 . S
C195 H199 0.930 . S
C196 C194 1.356 . S
C196 C197 1.348 . S
C197 C192 1.353 . S
C197 C196 1.348 . S
C197 H249 0.929 . S
H198 C192 0.930 . S
H199 C195 0.930 . S
C200 N201 1.314 . S
C200 C202 1.353 . S
C200 H206 0.930 . S
N201 Li177 1.990 . S
N201 C200 1.314 . S
N201 C204 1.279 . S
C202 C200 1.353 . S
C202 C205 1.348 . S
C202 H250 0.929 . S
C203 C204 1.358 . S
C203 C205 1.356 . S
C203 H251 0.930 . S
C204 N201 1.279 . S
C204 C203 1.358 . S
C204 H207 0.930 . S
C205 C202 1.348 . S
C205 C203 1.356 . S
H206 C200 0.930 . S
H207 C204 0.930 . S
C208 C210 1.348 . S
C208 C211 1.356 . S
C208 O238 1.325 . S
N209 C212 1.314 . S
N209 C213 1.279 . S
C210 C208 1.348 . S
C210 C212 1.353 . S
C210 H252 0.929 . S
C211 C208 1.356 . S
C211 C213 1.358 . S
C211 H253 0.930 . S
C212 N209 1.314 . S
C212 C210 1.353 . S
C212 H254 0.930 . S
C213 N209 1.279 . S
C213 C211 1.358 . S
C213 H255 0.930 . S
C214 C215 1.348 . S
C214 C216 1.356 . S
C214 O239 1.325 . S
C215 C214 1.348 . S
C215 C217 1.353 . S
C215 H256 0.929 . S
C216 C214 1.356 . S
C216 C218 1.358 . S
C216 H257 0.930 . S
C217 C215 1.353 . S
C217 N219 1.314 . S
C217 H258 0.930 . S
C218 C216 1.358 . S
C218 N219 1.279 . S
C218 H259 0.930 . S
N219 C217 1.314 . S
N219 C218 1.279 . S
C220 C222 1.353 . S
C220 N223 1.314 . S
C220 H226 0.930 . S
C221 N223 1.279 . S
C221 C224 1.358 . S
C221 H227 0.930 . S
C222 C220 1.353 . S
C222 C225 1.348 . S
C222 H260 0.929 . S
N223 Li178 1.990 . S
N223 C220 1.314 . S
N223 C221 1.279 . S
C224 C221 1.358 . S
C224 C225 1.356 . S
C224 H261 0.930 . S
C225 C222 1.348 . S
C225 C224 1.356 . S
H226 C220 0.930 . S
H227 C221 0.930 . S
C228 N229 1.314 . S
C228 C230 1.353 . S
C228 H234 0.930 . S
N229 Li179 1.990 . S
N229 C228 1.314 . S
N229 C232 1.279 . S
C230 C228 1.353 . S
C230 C233 1.348 . S
C230 H262 0.929 . S
C231 C232 1.358 . S
C231 C233 1.356 . S
C231 H263 0.930 . S
C232 N229 1.279 . S
C232 C231 1.358 . S
C232 H235 0.930 . S
C233 C230 1.348 . S
C233 C231 1.356 . S
H234 C228 0.930 . S
H235 C232 0.930 . S
O236 Li176 1.956 . S
O236 Li177 1.970 . S
O236 Li178 1.961 . S
O236 C180 1.325 . S
O237 Li176 1.970 . S
O237 Li177 1.956 . S
O237 Li179 1.961 . S
O237 C186 1.325 . S
O238 Li176 1.961 . S
O238 Li178 1.956 . S
O238 Li179 1.970 . S
O238 C208 1.325 . S
O239 Li177 1.961 . S
O239 Li178 1.970 . S
O239 Li179 1.956 . S
O239 C214 1.325 . S
H240 C182 0.929 . S
H241 C183 0.930 . S
H242 C184 0.930 . S
H243 C185 0.930 . S
H244 C187 0.930 . S
H245 C189 0.929 . S
H246 C190 0.930 . S
H247 C191 0.930 . S
H248 C194 0.930 . S
H249 C197 0.929 . S
H250 C202 0.929 . S
H251 C203 0.930 . S
H252 C210 0.929 . S
H253 C211 0.930 . S
H254 C212 0.930 . S
H255 C213 0.930 . S
H256 C215 0.929 . S
H257 C216 0.930 . S
H258 C217 0.930 . S
H259 C218 0.930 . S
H260 C222 0.929 . S
H261 C224 0.930 . S
H262 C230 0.929 . S
H263 C231 0.930 . S
H264 C282 0.951 . S
H265 C284 0.951 . S
H266 C286 0.950 . S
H267 C287 0.950 . S
H268 C289 0.950 . S
H269 C292 0.922 1_556 S
H270 C293 0.950 . S
H271 C295 0.950 . S
H272 C296 0.950 . S
H273 C297 0.951 . S
H274 C299 0.951 . S
H275 C301 0.950 . S
H276 C302 0.950 . S
H277 C304 0.950 . S
H278 C307 0.921 1_554 S
H279 C308 0.950 . S
H280 C310 0.950 . S
H281 C311 0.950 . S
C282 H264 0.951 . S
C282 C283 1.366 . S
C282 C284 1.388 . S
C283 C282 1.366 . S
C283 C287 1.385 . S
C284 H265 0.951 . S
C284 C282 1.388 . S
C284 C285 1.366 . S
C285 C284 1.366 . S
C285 C286 1.414 . S
C285 C288 1.499 . S
C286 H266 0.950 . S
C286 C285 1.414 . S
C286 C287 1.374 . S
C287 H267 0.950 . S
C287 C283 1.385 . S
C287 C286 1.374 . S
C288 C285 1.499 . S
C288 C289 1.373 . S
C288 C290 1.389 1_556 S
C289 H268 0.950 . S
C289 C288 1.373 . S
C289 C305 1.377 . S
C290 C288 1.389 1_554 S
C290 C291 1.524 . S
C290 C304 1.377 . S
C291 C290 1.524 . S
C291 C292 1.397 . S
C291 C296 1.363 . S
C292 H269 0.922 1_554 S
C292 C291 1.397 . S
C292 C293 1.334 . S
C293 H270 0.950 . S
C293 C292 1.334 . S
C293 C294 1.287 . S
C294 C293 1.287 . S
C294 C295 1.524 . S
C294 H313 0.913 . S
C295 H271 0.950 . S
C295 C294 1.524 . S
C295 C296 1.415 . S
C296 H272 0.950 . S
C296 C291 1.363 . S
C296 C295 1.415 . S
C297 H273 0.951 . S
C297 C298 1.366 . S
C297 C299 1.388 . S
C298 C297 1.366 . S
C298 C302 1.385 . S
C299 H274 0.951 . S
C299 C297 1.388 . S
C299 C300 1.366 . S
C300 C299 1.366 . S
C300 C301 1.414 . S
C300 C303 1.499 . S
C301 H275 0.950 . S
C301 C300 1.414 . S
C301 C302 1.374 . S
C302 H276 0.950 . S
C302 C298 1.385 . S
C302 C301 1.374 . S
C303 C300 1.499 . S
C303 C304 1.373 . S
C303 C305 1.389 1_554 S
C304 H277 0.950 . S
C304 C290 1.377 . S
C304 C303 1.373 . S
C305 C289 1.377 . S
C305 C303 1.389 1_556 S
C305 C306 1.524 . S
C306 C305 1.524 . S
C306 C307 1.397 . S
C306 C311 1.363 . S
C307 H278 0.921 1_556 S
C307 C306 1.397 . S
C307 C308 1.334 . S
C308 H279 0.950 . S
C308 C307 1.334 . S
C308 C309 1.287 . S
C309 C308 1.287 . S
C309 C310 1.524 . S
C309 H312 0.999 . S
C310 H280 0.950 . S
C310 C309 1.524 . S
C310 C311 1.415 . S
C311 H281 0.950 . S
C311 C306 1.363 . S
C311 C310 1.415 . S
H312 C309 0.999 . S
H313 C294 0.913 . S
H314 C332 0.951 . S
H315 C334 0.951 . S
H316 C336 0.950 . S
H317 C337 0.950 . S
H318 C339 0.950 . S
H319 C342 0.950 . S
H320 C343 0.950 . S
H321 C345 0.950 . S
H322 C346 0.950 . S
H323 C347 0.951 . S
H324 C349 0.951 . S
H325 C351 0.950 . S
H326 C352 0.950 . S
H327 C354 0.950 . S
H328 C357 0.950 . S
H329 C358 0.950 . S
H330 C360 0.950 . S
H331 C361 0.950 . S
C332 H314 0.951 . S
C332 C333 1.366 . S
C332 C334 1.388 . S
C333 C332 1.366 . S
C333 C337 1.385 . S
C334 H315 0.951 . S
C334 C332 1.388 . S
C334 C335 1.366 . S
C335 C334 1.366 . S
C335 C336 1.414 . S
C335 C338 1.499 . S
C336 H316 0.950 . S
C336 C335 1.414 . S
C336 C337 1.374 . S
C337 H317 0.950 . S
C337 C333 1.385 . S
C337 C336 1.374 . S
C338 C335 1.499 . S
C338 C339 1.373 . S
C338 C340 1.389 . S
C339 H318 0.950 . S
C339 C338 1.373 . S
C339 C355 1.377 . S
C340 C338 1.389 . S
C340 C341 1.524 . S
C340 C354 1.377 . S
C341 C340 1.524 . S
C341 C342 1.397 . S
C341 C346 1.363 . S
C342 H319 0.950 . S
C342 C341 1.397 . S
C342 C343 1.334 . S
C343 H320 0.950 . S
C343 C342 1.334 . S
C343 C344 1.287 . S
C344 C343 1.287 . S
C344 C345 1.524 . S
C344 H363 0.913 . S
C345 H321 0.950 . S
C345 C344 1.524 . S
C345 C346 1.415 . S
C346 H322 0.950 . S
C346 C341 1.363 . S
C346 C345 1.415 . S
C347 H323 0.951 . S
C347 C348 1.366 . S
C347 C349 1.388 . S
C348 C347 1.366 . S
C348 C352 1.385 . S
C349 H324 0.951 . S
C349 C347 1.388 . S
C349 C350 1.366 . S
C350 C349 1.366 . S
C350 C351 1.414 . S
C350 C353 1.499 . S
C351 H325 0.950 . S
C351 C350 1.414 . S
C351 C352 1.374 . S
C352 H326 0.950 . S
C352 C348 1.385 . S
C352 C351 1.374 . S
C353 C350 1.499 . S
C353 C354 1.373 . S
C353 C355 1.389 . S
C354 H327 0.950 . S
C354 C340 1.377 . S
C354 C353 1.373 . S
C355 C339 1.377 . S
C355 C353 1.389 . S
C355 C356 1.524 . S
C356 C355 1.524 . S
C356 C357 1.397 . S
C356 C361 1.363 . S
C357 H328 0.950 . S
C357 C356 1.397 . S
C357 C358 1.334 . S
C358 H329 0.950 . S
C358 C357 1.334 . S
C358 C359 1.287 . S
C359 C358 1.287 . S
C359 C360 1.524 . S
C359 H362 0.999 . S
C360 H330 0.950 . S
C360 C359 1.524 . S
C360 C361 1.415 . S
C361 H331 0.950 . S
C361 C356 1.363 . S
C361 C360 1.415 . S
H362 C359 0.999 . S
H363 C344 0.913 . S
H364 C382 0.951 . S
H365 C384 0.951 . S
H366 C386 0.950 . S
H367 C387 0.950 . S
H368 C389 0.950 . S
H369 C392 0.950 . S
H370 C393 0.950 . S
H371 C395 0.950 . S
H372 C396 0.950 . S
H373 C397 0.951 . S
H374 C399 0.951 . S
H375 C401 0.950 . S
H376 C402 0.950 . S
H377 C404 0.950 . S
H378 C407 0.950 . S
H379 C408 0.950 . S
H380 C410 0.950 . S
H381 C411 0.950 . S
C382 H364 0.951 . S
C382 C383 1.366 . S
C382 C384 1.388 . S
C383 C382 1.366 . S
C383 C387 1.385 . S
C384 H365 0.951 . S
C384 C382 1.388 . S
C384 C385 1.366 . S
C385 C384 1.366 . S
C385 C386 1.414 . S
C385 C388 1.499 . S
C386 H366 0.950 . S
C386 C385 1.414 . S
C386 C387 1.374 . S
C387 H367 0.950 . S
C387 C383 1.385 . S
C387 C386 1.374 . S
C388 C385 1.499 . S
C388 C389 1.373 . S
C388 C390 1.389 . S
C389 H368 0.950 . S
C389 C388 1.373 . S
C389 C405 1.377 . S
C390 C388 1.389 . S
C390 C391 1.524 . S
C390 C404 1.377 . S
C391 C390 1.524 . S
C391 C392 1.397 . S
C391 C396 1.363 . S
C392 H369 0.950 . S
C392 C391 1.397 . S
C392 C393 1.334 . S
C393 H370 0.950 . S
C393 C392 1.334 . S
C393 C394 1.287 . S
C394 C393 1.287 . S
C394 C395 1.524 . S
C394 H413 0.913 . S
C395 H371 0.950 . S
C395 C394 1.524 . S
C395 C396 1.415 . S
C396 H372 0.950 . S
C396 C391 1.363 . S
C396 C395 1.415 . S
C397 H373 0.951 . S
C397 C398 1.366 . S
C397 C399 1.388 . S
C398 C397 1.366 . S
C398 C402 1.385 . S
C399 H374 0.951 . S
C399 C397 1.388 . S
C399 C400 1.366 . S
C400 C399 1.366 . S
C400 C401 1.414 . S
C400 C403 1.499 . S
C401 H375 0.950 . S
C401 C400 1.414 . S
C401 C402 1.374 . S
C402 H376 0.950 . S
C402 C398 1.385 . S
C402 C401 1.374 . S
C403 C400 1.499 . S
C403 C404 1.373 . S
C403 C405 1.389 . S
C404 H377 0.950 . S
C404 C390 1.377 . S
C404 C403 1.373 . S
C405 C389 1.377 . S
C405 C403 1.389 . S
C405 C406 1.524 . S
C406 C405 1.524 . S
C406 C407 1.397 . S
C406 C411 1.363 . S
C407 H378 0.950 . S
C407 C406 1.397 . S
C407 C408 1.334 . S
C408 H379 0.950 . S
C408 C407 1.334 . S
C408 C409 1.287 . S
C409 C408 1.287 . S
C409 C410 1.524 . S
C409 H412 0.999 . S
C410 H380 0.950 . S
C410 C409 1.524 . S
C410 C411 1.415 . S
C411 H381 0.950 . S
C411 C406 1.363 . S
C411 C410 1.415 . S
H412 C409 0.999 . S
H413 C394 0.913 . S
H414 C432 0.951 . S
H415 C434 0.951 . S
H416 C436 0.950 . S
H417 C437 0.950 . S
H418 C439 0.950 . S
H419 C442 0.950 . S
H420 C443 0.950 1_556 S
H421 C445 0.950 . S
H422 C446 0.950 . S
H423 C447 0.951 . S
H424 C449 0.951 . S
H425 C451 0.950 . S
H426 C452 0.950 . S
H427 C454 0.950 . S
H428 C457 0.950 . S
H429 C458 0.950 1_554 S
H430 C460 0.950 . S
H431 C461 0.950 . S
C432 H414 0.951 . S
C432 C433 1.366 . S
C432 C434 1.388 . S
C433 C432 1.366 . S
C433 C437 1.385 . S
C434 H415 0.951 . S
C434 C432 1.388 . S
C434 C435 1.366 . S
C435 C434 1.366 . S
C435 C436 1.414 . S
C435 C438 1.499 . S
C436 H416 0.950 . S
C436 C435 1.414 . S
C436 C437 1.374 . S
C437 H417 0.950 . S
C437 C433 1.385 . S
C437 C436 1.374 . S
C438 C435 1.499 . S
C438 C439 1.373 . S
C438 C440 1.389 1_556 S
C439 H418 0.950 . S
C439 C438 1.373 . S
C439 C455 1.377 . S
C440 C438 1.389 1_554 S
C440 C441 1.524 . S
C440 C454 1.377 . S
C441 C440 1.524 . S
C441 C442 1.397 1_554 S
C441 C446 1.363 . S
C442 H419 0.950 . S
C442 C441 1.397 1_556 S
C442 C443 1.334 1_556 S
C443 H420 0.950 1_554 S
C443 C442 1.334 1_554 S
C443 C444 1.287 . S
C444 C443 1.287 . S
C444 C445 1.524 . S
C444 H463 0.913 . S
C445 H421 0.950 . S
C445 C444 1.524 . S
C445 C446 1.415 . S
C446 H422 0.950 . S
C446 C441 1.363 . S
C446 C445 1.415 . S
C447 H423 0.951 . S
C447 C448 1.366 . S
C447 C449 1.388 . S
C448 C447 1.366 . S
C448 C452 1.385 . S
C449 H424 0.951 . S
C449 C447 1.388 . S
C449 C450 1.366 . S
C450 C449 1.366 . S
C450 C451 1.414 . S
C450 C453 1.499 . S
C451 H425 0.950 . S
C451 C450 1.414 . S
C451 C452 1.374 . S
C452 H426 0.950 . S
C452 C448 1.385 . S
C452 C451 1.374 . S
C453 C450 1.499 . S
C453 C454 1.373 . S
C453 C455 1.389 1_554 S
C454 H427 0.950 . S
C454 C440 1.377 . S
C454 C453 1.373 . S
C455 C439 1.377 . S
C455 C453 1.389 1_556 S
C455 C456 1.524 . S
C456 C455 1.524 . S
C456 C457 1.397 1_556 S
C456 C461 1.363 . S
C457 H428 0.950 . S
C457 C456 1.397 1_554 S
C457 C458 1.334 1_554 S
C458 H429 0.950 1_556 S
C458 C457 1.334 1_556 S
C458 C459 1.287 . S
C459 C458 1.287 . S
C459 C460 1.524 . S
C459 H462 0.999 . S
C460 H430 0.950 . S
C460 C459 1.524 . S
C460 C461 1.415 . S
C461 H431 0.950 . S
C461 C456 1.363 . S
C461 C460 1.415 . S
H462 C459 0.999 . S
H463 C444 0.913 . S
H464 C482 0.951 . S
H465 C484 0.951 . S
H466 C486 0.950 . S
H467 C487 0.950 . S
H468 C489 0.950 . S
H469 C492 0.950 . S
H470 C493 0.950 . S
H471 C495 0.950 . S
H472 C496 0.950 . S
H473 C497 0.951 . S
H474 C499 0.951 . S
H475 C501 0.950 . S
H476 C502 0.950 . S
H477 C504 0.950 . S
H478 C507 0.950 . S
H479 C508 0.950 . S
H480 C510 0.950 . S
H481 C511 0.950 . S
C482 H464 0.951 . S
C482 C483 1.366 . S
C482 C484 1.388 . S
C483 C482 1.366 . S
C483 C487 1.385 . S
C484 H465 0.951 . S
C484 C482 1.388 . S
C484 C485 1.366 . S
C485 C484 1.366 . S
C485 C486 1.414 . S
C485 C488 1.499 . S
C486 H466 0.950 . S
C486 C485 1.414 . S
C486 C487 1.374 . S
C487 H467 0.950 . S
C487 C483 1.385 . S
C487 C486 1.374 . S
C488 C485 1.499 . S
C488 C489 1.373 . S
C488 C490 1.389 . S
C489 H468 0.950 . S
C489 C488 1.373 . S
C489 C505 1.377 . S
C490 C488 1.389 . S
C490 C491 1.524 . S
C490 C504 1.377 . S
C491 C490 1.524 . S
C491 C492 1.397 . S
C491 C496 1.363 . S
C492 H469 0.950 . S
C492 C491 1.397 . S
C492 C493 1.334 . S
C493 H470 0.950 . S
C493 C492 1.334 . S
C493 C494 1.287 . S
C494 C493 1.287 . S
C494 C495 1.524 . S
C494 H513 0.913 . S
C495 H471 0.950 . S
C495 C494 1.524 . S
C495 C496 1.415 . S
C496 H472 0.950 . S
C496 C491 1.363 . S
C496 C495 1.415 . S
C497 H473 0.951 . S
C497 C498 1.366 . S
C497 C499 1.388 . S
C498 C497 1.366 . S
C498 C502 1.385 . S
C499 H474 0.951 . S
C499 C497 1.388 . S
C499 C500 1.366 . S
C500 C499 1.366 . S
C500 C501 1.414 . S
C500 C503 1.499 . S
C501 H475 0.950 . S
C501 C500 1.414 . S
C501 C502 1.374 . S
C502 H476 0.950 . S
C502 C498 1.385 . S
C502 C501 1.374 . S
C503 C500 1.499 . S
C503 C504 1.373 . S
C503 C505 1.389 . S
C504 H477 0.950 . S
C504 C490 1.377 . S
C504 C503 1.373 . S
C505 C489 1.377 . S
C505 C503 1.389 . S
C505 C506 1.524 . S
C506 C505 1.524 . S
C506 C507 1.397 . S
C506 C511 1.363 . S
C507 H478 0.950 . S
C507 C506 1.397 . S
C507 C508 1.334 . S
C508 H479 0.950 . S
C508 C507 1.334 . S
C508 C509 1.287 . S
C509 C508 1.287 . S
C509 C510 1.524 . S
C509 H512 0.999 . S
C510 H480 0.950 . S
C510 C509 1.524 . S
C510 C511 1.415 . S
C511 H481 0.950 . S
C511 C506 1.363 . S
C511 C510 1.415 . S
H512 C509 0.999 . S
H513 C494 0.913 . S
H514 C532 0.951 . S
H515 C534 0.951 . S
H516 C536 0.950 . S
H517 C537 0.950 . S
H518 C539 0.950 . S
H519 C542 0.950 . S
H520 C543 0.950 . S
H521 C545 0.950 . S
H522 C546 0.950 . S
H523 C547 0.951 . S
H524 C549 0.951 . S
H525 C551 0.950 . S
H526 C552 0.950 . S
H527 C554 0.950 . S
H528 C557 0.950 . S
H529 C558 0.950 . S
H530 C560 0.950 . S
H531 C561 0.950 . S
C532 H514 0.951 . S
C532 C533 1.366 . S
C532 C534 1.388 . S
C533 C532 1.366 . S
C533 C537 1.385 . S
C534 H515 0.951 . S
C534 C532 1.388 . S
C534 C535 1.366 . S
C535 C534 1.366 . S
C535 C536 1.414 . S
C535 C538 1.499 . S
C536 H516 0.950 . S
C536 C535 1.414 . S
C536 C537 1.374 . S
C537 H517 0.950 . S
C537 C533 1.385 . S
C537 C536 1.374 . S
C538 C535 1.499 . S
C538 C539 1.373 . S
C538 C540 1.389 . S
C539 H518 0.950 . S
C539 C538 1.373 . S
C539 C555 1.377 . S
C540 C538 1.389 . S
C540 C541 1.524 . S
C540 C554 1.377 . S
C541 C540 1.524 . S
C541 C542 1.397 . S
C541 C546 1.363 . S
C542 H519 0.950 . S
C542 C541 1.397 . S
C542 C543 1.334 . S
C543 H520 0.950 . S
C543 C542 1.334 . S
C543 C544 1.287 . S
C544 C543 1.287 . S
C544 C545 1.524 . S
C544 H563 0.913 . S
C545 H521 0.950 . S
C545 C544 1.524 . S
C545 C546 1.415 . S
C546 H522 0.950 . S
C546 C541 1.363 . S
C546 C545 1.415 . S
C547 H523 0.951 . S
C547 C548 1.366 . S
C547 C549 1.388 . S
C548 C547 1.366 . S
C548 C552 1.385 . S
C549 H524 0.951 . S
C549 C547 1.388 . S
C549 C550 1.366 . S
C550 C549 1.366 . S
C550 C551 1.414 . S
C550 C553 1.499 . S
C551 H525 0.950 . S
C551 C550 1.414 . S
C551 C552 1.374 . S
C552 H526 0.950 . S
C552 C548 1.385 . S
C552 C551 1.374 . S
C553 C550 1.499 . S
C553 C554 1.373 . S
C553 C555 1.389 . S
C554 H527 0.950 . S
C554 C540 1.377 . S
C554 C553 1.373 . S
C555 C539 1.377 . S
C555 C553 1.389 . S
C555 C556 1.524 . S
C556 C555 1.524 . S
C556 C557 1.397 . S
C556 C561 1.363 . S
C557 H528 0.950 . S
C557 C556 1.397 . S
C557 C558 1.334 . S
C558 H529 0.950 . S
C558 C557 1.334 . S
C558 C559 1.287 . S
C559 C558 1.287 . S
C559 C560 1.524 . S
C559 H562 0.999 . S
C560 H530 0.950 . S
C560 C559 1.524 . S
C560 C561 1.415 . S
C561 H531 0.950 . S
C561 C556 1.363 . S
C561 C560 1.415 . S
H562 C559 0.999 . S
H563 C544 0.913 . S
C283 C225 1.112 . S
C298 C20 1.112 . S
C333 C49 1.113 . S
C348 C108 1.112 . S
C383 C137 1.112 . S
C398 C233 1.114 . S
C433 C205 1.112 . S
C448 C57 1.113 . S
C483 C145 1.112 . S
C498 C29 1.113 . S
C533 C196 1.112 . S
C548 C117 1.112 . S
