# Generated by pormake.
# Topology hbo, (4)-cn, num edge types: 1
# Building blocks:
#     Node 0, Type 0, BuildingBlock: KOZSID_clean_sbu_0, # of connection points: 4
#     Node 1, Type 0, BuildingBlock: KOZSID_clean_sbu_0, # of connection points: 4
#     Node 2, Type 0, BuildingBlock: KOZSID_clean_sbu_0, # of connection points: 4
#     Node 3, Type 0, BuildingBlock: KOZSID_clean_sbu_0, # of connection points: 4
#     Node 4, Type 0, BuildingBlock: KOZSID_clean_sbu_0, # of connection points: 4
#     Node 5, Type 0, BuildingBlock: KOZSID_clean_sbu_0, # of connection points: 4
#     Node 6, Type 0, BuildingBlock: KOZSID_clean_sbu_0, # of connection points: 4
#     Node 7, Type 0, BuildingBlock: KOZSID_clean_sbu_0, # of connection points: 4
#     Node 8, Type 0, BuildingBlock: KOZSID_clean_sbu_0, # of connection points: 4
#     Node 9, Type 0, BuildingBlock: KOZSID_clean_sbu_0, # of connection points: 4
#     Node 10, Type 0, BuildingBlock: KOZSID_clean_sbu_0, # of connection points: 4
#     Node 11, Type 0, BuildingBlock: KOZSID_clean_sbu_0, # of connection points: 4
#     Node 12, Type 0, BuildingBlock: KOZSID_clean_sbu_0, # of connection points: 4
#     Node 13, Type 0, BuildingBlock: KOZSID_clean_sbu_0, # of connection points: 4
#     Node 14, Type 0, BuildingBlock: KOZSID_clean_sbu_0, # of connection points: 4
#     Node 15, Type 0, BuildingBlock: KOZSID_clean_sbu_0, # of connection points: 4
#     Node 16, Type 0, BuildingBlock: KOZSID_clean_sbu_0, # of connection points: 4
#     Node 17, Type 0, BuildingBlock: KOZSID_clean_sbu_0, # of connection points: 4
#     Node 18, Type 0, BuildingBlock: KOZSID_clean_sbu_0, # of connection points: 4
#     Node 19, Type 0, BuildingBlock: KOZSID_clean_sbu_0, # of connection points: 4
#     Node 20, Type 0, BuildingBlock: KOZSID_clean_sbu_0, # of connection points: 4
#     Node 21, Type 0, BuildingBlock: KOZSID_clean_sbu_0, # of connection points: 4
#     Node 22, Type 0, BuildingBlock: KOZSID_clean_sbu_0, # of connection points: 4
#     Node 23, Type 0, BuildingBlock: KOZSID_clean_sbu_0, # of connection points: 4
#     Edge 24, Type (0, 0), BuildingBlock: OJICUG_clean_linker_0, # of connection points: 2
#     Edge 25, Type (0, 0), BuildingBlock: OJICUG_clean_linker_0, # of connection points: 2
#     Edge 26, Type (0, 0), BuildingBlock: OJICUG_clean_linker_0, # of connection points: 2
#     Edge 27, Type (0, 0), BuildingBlock: OJICUG_clean_linker_0, # of connection points: 2
#     Edge 28, Type (0, 0), BuildingBlock: OJICUG_clean_linker_0, # of connection points: 2
#     Edge 29, Type (0, 0), BuildingBlock: OJICUG_clean_linker_0, # of connection points: 2
#     Edge 30, Type (0, 0), BuildingBlock: OJICUG_clean_linker_0, # of connection points: 2
#     Edge 31, Type (0, 0), BuildingBlock: OJICUG_clean_linker_0, # of connection points: 2
#     Edge 32, Type (0, 0), BuildingBlock: OJICUG_clean_linker_0, # of connection points: 2
#     Edge 33, Type (0, 0), BuildingBlock: OJICUG_clean_linker_0, # of connection points: 2
#     Edge 34, Type (0, 0), BuildingBlock: OJICUG_clean_linker_0, # of connection points: 2
#     Edge 35, Type (0, 0), BuildingBlock: OJICUG_clean_linker_0, # of connection points: 2
#     Edge 36, Type (0, 0), BuildingBlock: OJICUG_clean_linker_0, # of connection points: 2
#     Edge 37, Type (0, 0), BuildingBlock: OJICUG_clean_linker_0, # of connection points: 2
#     Edge 38, Type (0, 0), BuildingBlock: OJICUG_clean_linker_0, # of connection points: 2
#     Edge 39, Type (0, 0), BuildingBlock: OJICUG_clean_linker_0, # of connection points: 2
#     Edge 40, Type (0, 0), BuildingBlock: OJICUG_clean_linker_0, # of connection points: 2
#     Edge 41, Type (0, 0), BuildingBlock: OJICUG_clean_linker_0, # of connection points: 2
#     Edge 42, Type (0, 0), BuildingBlock: OJICUG_clean_linker_0, # of connection points: 2
#     Edge 43, Type (0, 0), BuildingBlock: OJICUG_clean_linker_0, # of connection points: 2
#     Edge 44, Type (0, 0), BuildingBlock: OJICUG_clean_linker_0, # of connection points: 2
#     Edge 45, Type (0, 0), BuildingBlock: OJICUG_clean_linker_0, # of connection points: 2
#     Edge 46, Type (0, 0), BuildingBlock: OJICUG_clean_linker_0, # of connection points: 2
#     Edge 47, Type (0, 0), BuildingBlock: OJICUG_clean_linker_0, # of connection points: 2
#     Edge 48, Type (0, 0), BuildingBlock: OJICUG_clean_linker_0, # of connection points: 2
#     Edge 49, Type (0, 0), BuildingBlock: OJICUG_clean_linker_0, # of connection points: 2
#     Edge 50, Type (0, 0), BuildingBlock: OJICUG_clean_linker_0, # of connection points: 2
#     Edge 51, Type (0, 0), BuildingBlock: OJICUG_clean_linker_0, # of connection points: 2
#     Edge 52, Type (0, 0), BuildingBlock: OJICUG_clean_linker_0, # of connection points: 2
#     Edge 53, Type (0, 0), BuildingBlock: OJICUG_clean_linker_0, # of connection points: 2
#     Edge 54, Type (0, 0), BuildingBlock: OJICUG_clean_linker_0, # of connection points: 2
#     Edge 55, Type (0, 0), BuildingBlock: OJICUG_clean_linker_0, # of connection points: 2
#     Edge 56, Type (0, 0), BuildingBlock: OJICUG_clean_linker_0, # of connection points: 2
#     Edge 57, Type (0, 0), BuildingBlock: OJICUG_clean_linker_0, # of connection points: 2
#     Edge 58, Type (0, 0), BuildingBlock: OJICUG_clean_linker_0, # of connection points: 2
#     Edge 59, Type (0, 0), BuildingBlock: OJICUG_clean_linker_0, # of connection points: 2
#     Edge 60, Type (0, 0), BuildingBlock: OJICUG_clean_linker_0, # of connection points: 2
#     Edge 61, Type (0, 0), BuildingBlock: OJICUG_clean_linker_0, # of connection points: 2
#     Edge 62, Type (0, 0), BuildingBlock: OJICUG_clean_linker_0, # of connection points: 2
#     Edge 63, Type (0, 0), BuildingBlock: OJICUG_clean_linker_0, # of connection points: 2
#     Edge 64, Type (0, 0), BuildingBlock: OJICUG_clean_linker_0, # of connection points: 2
#     Edge 65, Type (0, 0), BuildingBlock: OJICUG_clean_linker_0, # of connection points: 2
#     Edge 66, Type (0, 0), BuildingBlock: OJICUG_clean_linker_0, # of connection points: 2
#     Edge 67, Type (0, 0), BuildingBlock: OJICUG_clean_linker_0, # of connection points: 2
#     Edge 68, Type (0, 0), BuildingBlock: OJICUG_clean_linker_0, # of connection points: 2
#     Edge 69, Type (0, 0), BuildingBlock: OJICUG_clean_linker_0, # of connection points: 2
#     Edge 70, Type (0, 0), BuildingBlock: OJICUG_clean_linker_0, # of connection points: 2
#     Edge 71, Type (0, 0), BuildingBlock: OJICUG_clean_linker_0, # of connection points: 2
# Relax obj value: 0.082
# Max RMSD: 0.325
# Mean RMSD: 0.298
data_MOF--net-hbo--node1-KOZSID_clean_sbu_0--edge1-OJICUG_clean_linker_0
_symmetry_space_group_name_H-M    P1
_symmetry_Int_Tables_number       1
_symmetry_cell_setting            triclinic
loop_
_symmetry_equiv_pos_as_xyz
'x, y, z'
_cell_length_a     54.032443
_cell_length_b     48.538326
_cell_length_c     48.500866
_cell_angle_alpha  90.291741
_cell_angle_beta   90.52667
_cell_angle_gamma 88.286612
loop_
_atom_site_label
_atom_site_type_symbol
_atom_site_fract_x
_atom_site_fract_y
_atom_site_fract_z
_atom_type_partial_charge
C0 C 0.19141 0.33471 0.32642 0.0
C1 C 0.19969 0.32951 0.35317 0.0
C2 C 0.19814 0.35401 0.36712 0.0
C3 C 0.18933 0.37283 0.3482 0.0
N4 N 0.18511 0.3618 0.32314 0.0
Co5 Co 0.17323 0.38254 0.2899 0.0
N6 N 0.1829 0.41869 0.30613 0.0
C7 C 0.18833 0.42305 0.33295 0.0
C8 C 0.19324 0.44989 0.33915 0.0
C9 C 0.19039 0.46367 0.31484 0.0
C10 C 0.18383 0.44438 0.29497 0.0
N11 N 0.16016 0.40399 0.25754 0.0
C12 C 0.16202 0.4312 0.25073 0.0
C13 C 0.14828 0.43717 0.2271 0.0
C14 C 0.13717 0.41321 0.21922 0.0
C15 C 0.14465 0.39383 0.23836 0.0
N16 N 0.16466 0.34621 0.27401 0.0
C17 C 0.14954 0.34247 0.25229 0.0
C18 C 0.14815 0.31512 0.24494 0.0
C19 C 0.16344 0.30091 0.26321 0.0
C20 C 0.17342 0.32035 0.28075 0.0
N21 N 0.13947 0.38665 0.30617 0.0
C22 C 0.08716 0.38899 0.31438 0.0
C23 C 0.10143 0.36458 0.3188 0.0
C24 C 0.12731 0.36389 0.3148 0.0
C25 C 0.10036 0.41265 0.3079 0.0
C26 C 0.12621 0.41112 0.3042 0.0
N27 N 0.2061 0.37684 0.27173 0.0
C28 C 0.22639 0.36224 0.2294 0.0
C29 C 0.24694 0.35148 0.24378 0.0
C30 C 0.24742 0.35544 0.27256 0.0
C31 C 0.22714 0.36878 0.28602 0.0
C32 C 0.20643 0.37443 0.24349 0.0
H33 H 0.22815 0.37124 0.30811 0.0
H34 H 0.19067 0.37993 0.23097 0.0
H35 H 0.13728 0.34445 0.31735 0.0
H36 H 0.13512 0.42962 0.29808 0.0
C37 C 0.19014 0.40125 0.35146 0.0
C38 C 0.18974 0.31356 0.30476 0.0
C39 C 0.17513 0.45228 0.26713 0.0
C40 C 0.14032 0.36534 0.2372 0.0
H41 H 0.20675 0.31028 0.36172 0.0
H42 H 0.20433 0.35795 0.38803 0.0
H43 H 0.19818 0.45847 0.35903 0.0
H44 H 0.19188 0.4857 0.31246 0.0
H45 H 0.14625 0.45687 0.21685 0.0
H46 H 0.12543 0.4102 0.20132 0.0
H47 H 0.13801 0.30658 0.22773 0.0
H48 H 0.16685 0.27883 0.26363 0.0
H49 H 0.09268 0.34578 0.32479 0.0
H50 H 0.09075 0.43219 0.30426 0.0
H51 H 0.225 0.35986 0.20721 0.0
H52 H 0.26321 0.34808 0.28462 0.0
C53 C 0.16857 0.68153 0.71911 0.0
C54 C 0.16877 0.68736 0.69113 0.0
C55 C 0.16286 0.6635 0.67769 0.0
C56 C 0.15922 0.64469 0.6982 0.0
N57 N 0.16238 0.6552 0.72364 0.0
Co58 Co 0.15582 0.63597 0.75867 0.0
N59 N 0.16045 0.59918 0.74071 0.0
C60 C 0.15938 0.59448 0.71329 0.0
C61 C 0.16207 0.56716 0.70634 0.0
C62 C 0.16459 0.5536 0.73087 0.0
C63 C 0.1632 0.57349 0.75159 0.0
N64 N 0.14754 0.61578 0.79286 0.0
C65 C 0.15039 0.58844 0.79938 0.0
C66 C 0.14121 0.58369 0.82546 0.0
C67 C 0.13235 0.60875 0.83538 0.0
C68 C 0.13646 0.62754 0.81488 0.0
N69 N 0.15243 0.67302 0.77581 0.0
C70 C 0.14245 0.67844 0.80053 0.0
C71 C 0.14623 0.70519 0.80881 0.0
C72 C 0.15953 0.71705 0.788 0.0
C73 C 0.16311 0.69695 0.76793 0.0
N74 N 0.11952 0.6367 0.74912 0.0
C75 C 0.06625 0.64169 0.74662 0.0
C76 C 0.08162 0.66361 0.7395 0.0
C77 C 0.10775 0.66081 0.74109 0.0
C78 C 0.07888 0.61666 0.75345 0.0
C79 C 0.10509 0.61453 0.75419 0.0
N80 N 0.19166 0.63737 0.77068 0.0
C81 C 0.21721 0.65009 0.81015 0.0
C82 C 0.23393 0.66371 0.79362 0.0
C83 C 0.23063 0.66085 0.76489 0.0
C84 C 0.20976 0.64713 0.75387 0.0
C85 C 0.19683 0.637 0.79855 0.0
H86 H 0.20763 0.64611 0.73176 0.0
H87 H 0.18454 0.62871 0.81327 0.0
H88 H 0.11843 0.67868 0.73667 0.0
H89 H 0.11358 0.59505 0.76014 0.0
C90 C 0.15763 0.61628 0.69458 0.0
C91 C 0.1755 0.70083 0.74086 0.0
C92 C 0.16099 0.5666 0.78096 0.0
C93 C 0.13463 0.65658 0.81718 0.0
H94 H 0.17335 0.7066 0.6815 0.0
H95 H 0.16257 0.65994 0.65564 0.0
H96 H 0.16214 0.55815 0.68589 0.0
H97 H 0.16614 0.53147 0.73319 0.0
H98 H 0.14108 0.56421 0.8362 0.0
H99 H 0.12478 0.6129 0.85562 0.0
H100 H 0.14129 0.71454 0.82838 0.0
H101 H 0.16609 0.73786 0.78796 0.0
H102 H 0.07378 0.68328 0.73301 0.0
H103 H 0.06885 0.59871 0.75928 0.0
H104 H 0.21887 0.65083 0.83241 0.0
H105 H 0.24383 0.66959 0.75103 0.0
C106 C 0.87093 0.68607 0.31127 0.0
C107 C 0.86469 0.69093 0.33861 0.0
C108 C 0.86945 0.66671 0.35234 0.0
C109 C 0.87837 0.64864 0.33268 0.0
N110 N 0.87963 0.65999 0.30754 0.0
Co111 Co 0.89248 0.64161 0.27381 0.0
N112 N 0.88617 0.60452 0.28901 0.0
C113 C 0.88276 0.59896 0.31592 0.0
C114 C 0.88051 0.57149 0.32119 0.0
C115 C 0.88307 0.55878 0.29617 0.0
C116 C 0.88676 0.57923 0.27682 0.0
N117 N 0.90668 0.62256 0.24086 0.0
C118 C 0.90634 0.59554 0.23291 0.0
C119 C 0.92032 0.5913 0.20936 0.0
C120 C 0.92988 0.61636 0.20263 0.0
C121 C 0.92135 0.6346 0.22242 0.0
N122 N 0.89762 0.679 0.25912 0.0
C123 C 0.91213 0.68507 0.23784 0.0
C124 C 0.90978 0.7125 0.23075 0.0
C125 C 0.89263 0.72411 0.24869 0.0
C126 C 0.88543 0.70313 0.26582 0.0
N127 N 0.92648 0.6406 0.29018 0.0
C128 C 0.97833 0.64241 0.30077 0.0
C129 C 0.96264 0.6658 0.3044 0.0
C130 C 0.93694 0.6644 0.29936 0.0
C131 C 0.96695 0.61771 0.29345 0.0
C132 C 0.94128 0.61723 0.28834 0.0
N133 N 0.85922 0.64424 0.25564 0.0
C134 C 0.83795 0.66087 0.21449 0.0
C135 C 0.81647 0.66768 0.22913 0.0
C136 C 0.81611 0.66 0.25714 0.0
C137 C 0.8376 0.64812 0.26996 0.0
C138 C 0.85865 0.64918 0.2278 0.0
H139 H 0.83709 0.64373 0.29176 0.0
H140 H 0.87482 0.64676 0.21538 0.0
H141 H 0.92569 0.68301 0.3017 0.0
H142 H 0.93377 0.59808 0.28143 0.0
C143 C 0.88038 0.6201 0.33547 0.0
C144 C 0.86808 0.70633 0.28925 0.0
C145 C 0.89455 0.57322 0.24833 0.0
C146 C 0.92338 0.66359 0.2222 0.0
H147 H 0.85702 0.70977 0.34751 0.0
H148 H 0.86544 0.66238 0.37368 0.0
H149 H 0.87766 0.56179 0.34091 0.0
H150 H 0.88367 0.53682 0.29289 0.0
H151 H 0.92349 0.57205 0.19842 0.0
H152 H 0.9412 0.62083 0.185 0.0
H153 H 0.91842 0.72259 0.21364 0.0
H154 H 0.88607 0.74538 0.24898 0.0
H155 H 0.97018 0.68529 0.3107 0.0
H156 H 0.97794 0.59896 0.2903 0.0
H157 H 0.83958 0.6662 0.19294 0.0
H158 H 0.79966 0.66396 0.26928 0.0
C159 C 0.86997 0.34243 0.71132 0.0
C160 C 0.86301 0.34187 0.68371 0.0
C161 C 0.86632 0.36786 0.67378 0.0
C162 C 0.87519 0.38265 0.69578 0.0
N163 N 0.87792 0.36752 0.71879 0.0
Co164 Co 0.89079 0.38051 0.75485 0.0
N165 N 0.88238 0.41963 0.74559 0.0
C166 C 0.87676 0.42918 0.72015 0.0
C167 C 0.87147 0.45695 0.71957 0.0
C168 C 0.87443 0.46569 0.74617 0.0
C169 C 0.88174 0.44271 0.76159 0.0
N170 N 0.90491 0.39411 0.79025 0.0
C171 C 0.9044 0.41985 0.80177 0.0
C172 C 0.91908 0.42024 0.82537 0.0
C173 C 0.92929 0.39409 0.82842 0.0
C174 C 0.92045 0.37908 0.80653 0.0
N175 N 0.89769 0.34112 0.76359 0.0
C176 C 0.91284 0.33163 0.78367 0.0
C177 C 0.91144 0.3035 0.78674 0.0
C178 C 0.89421 0.29506 0.76747 0.0
C179 C 0.88601 0.31851 0.75359 0.0
N180 N 0.92458 0.38365 0.73895 0.0
C181 C 0.97692 0.38272 0.73148 0.0
C182 C 0.96254 0.36002 0.72418 0.0
C183 C 0.93657 0.36104 0.72765 0.0
C184 C 0.96396 0.40658 0.74056 0.0
C185 C 0.9381 0.40665 0.74403 0.0
N186 N 0.85809 0.37563 0.77249 0.0
C187 C 0.83828 0.35229 0.80999 0.0
C188 C 0.81655 0.34951 0.79467 0.0
C189 C 0.815 0.36298 0.76898 0.0
C190 C 0.83609 0.37579 0.75813 0.0
C191 C 0.85839 0.36553 0.79888 0.0
H192 H 0.83501 0.38419 0.73756 0.0
H193 H 0.87486 0.3651 0.81129 0.0
H194 H 0.92638 0.34288 0.72254 0.0
H195 H 0.92942 0.42498 0.75255 0.0
C196 C 0.87498 0.41131 0.6976 0.0
C197 C 0.8681 0.3192 0.73013 0.0
C198 C 0.89205 0.44476 0.78971 0.0
C199 C 0.9236 0.35033 0.80232 0.0
H200 H 0.85559 0.32474 0.67227 0.0
H201 H 0.86111 0.37552 0.65355 0.0
H202 H 0.86615 0.46939 0.7019 0.0
H203 H 0.8726 0.48688 0.75312 0.0
H204 H 0.92238 0.43774 0.83868 0.0
H205 H 0.94142 0.38685 0.8449 0.0
H206 H 0.92069 0.29081 0.80221 0.0
H207 H 0.8882 0.27422 0.76424 0.0
H208 H 0.97129 0.34128 0.71628 0.0
H209 H 0.97382 0.42481 0.74645 0.0
H210 H 0.84017 0.34328 0.83033 0.0
H211 H 0.79825 0.36212 0.75664 0.0
C212 C 0.21589 0.18142 0.33107 0.0
C213 C 0.1928 0.18419 0.31829 0.0
C214 C 0.18452 0.15829 0.31416 0.0
C215 C 0.203 0.14117 0.3242 0.0
N216 N 0.22261 0.15434 0.33463 0.0
Co217 Co 0.25337 0.13608 0.35086 0.0
N218 N 0.24296 0.09821 0.3391 0.0
C219 C 0.22133 0.09235 0.32664 0.0
C220 C 0.2186 0.06502 0.32074 0.0
C221 C 0.23971 0.05232 0.3303 0.0
C222 C 0.25426 0.07275 0.34159 0.0
N223 N 0.28284 0.11697 0.36892 0.0
C224 C 0.28975 0.08953 0.37077 0.0
C225 C 0.31079 0.08599 0.38705 0.0
C226 C 0.31724 0.11175 0.39583 0.0
C227 C 0.29983 0.12966 0.38451 0.0
N228 N 0.26394 0.17404 0.3611 0.0
C229 C 0.28384 0.17975 0.3767 0.0
C230 C 0.28759 0.20752 0.37928 0.0
C231 C 0.26889 0.22022 0.36425 0.0
C232 C 0.25471 0.19948 0.35324 0.0
N233 N 0.23614 0.13304 0.38682 0.0
C234 C 0.22837 0.13469 0.44458 0.0
C235 C 0.22307 0.15778 0.42798 0.0
C236 C 0.22667 0.15641 0.39932 0.0
C237 C 0.23487 0.10992 0.43095 0.0
C238 C 0.23833 0.10949 0.40223 0.0
N239 N 0.27243 0.14107 0.31579 0.0
C240 C 0.31384 0.14728 0.29785 0.0
C241 C 0.30556 0.16885 0.2806 0.0
C242 C 0.27978 0.17349 0.27888 0.0
C243 C 0.26372 0.15895 0.29582 0.0
C244 C 0.29715 0.13351 0.3147 0.0
H245 H 0.24434 0.16342 0.29304 0.0
H246 H 0.30501 0.11742 0.32738 0.0
H247 H 0.22329 0.17497 0.38769 0.0
H248 H 0.24443 0.09034 0.39305 0.0
C249 C 0.20373 0.11286 0.32103 0.0
C250 C 0.23155 0.20492 0.33726 0.0
C251 C 0.27703 0.06625 0.35738 0.0
C252 C 0.29922 0.15843 0.3871 0.0
H253 H 0.18318 0.20282 0.3115 0.0
H254 H 0.16759 0.15259 0.30379 0.0
H255 H 0.20286 0.05539 0.31115 0.0
H256 H 0.24336 0.0303 0.32996 0.0
H257 H 0.32045 0.06676 0.392 0.0
H258 H 0.33287 0.1168 0.40882 0.0
H259 H 0.30234 0.21739 0.39047 0.0
H260 H 0.26586 0.24223 0.3619 0.0
H261 H 0.21691 0.17717 0.43711 0.0
H262 H 0.23877 0.09123 0.44248 0.0
H263 H 0.33325 0.14111 0.29872 0.0
H264 H 0.27179 0.18901 0.26527 0.0
C265 C 0.3615 0.81693 0.83728 0.0
C266 C 0.35265 0.84403 0.83475 0.0
C267 C 0.35513 0.85607 0.86006 0.0
C268 C 0.36497 0.83575 0.87669 0.0
N269 N 0.36904 0.8116 0.86348 0.0
Co270 Co 0.38235 0.77691 0.88058 0.0
N271 N 0.37325 0.79003 0.91834 0.0
C272 C 0.36701 0.81627 0.9252 0.0
C273 C 0.36151 0.81987 0.95246 0.0
C274 C 0.36495 0.79444 0.96383 0.0
C275 C 0.37269 0.77663 0.94289 0.0
N276 N 0.39705 0.74327 0.89863 0.0
C277 C 0.39651 0.73455 0.92544 0.0
C278 C 0.41143 0.71106 0.92883 0.0
C279 C 0.42181 0.70515 0.90358 0.0
C280 C 0.41281 0.72534 0.88604 0.0
N281 N 0.39 0.7642 0.84262 0.0
C282 C 0.40538 0.743 0.83612 0.0
C283 C 0.40545 0.73768 0.8082 0.0
C284 C 0.38896 0.7567 0.79663 0.0
C285 C 0.37962 0.77264 0.81812 0.0
N286 N 0.41603 0.79321 0.88415 0.0
C287 C 0.46857 0.8008 0.88496 0.0
C288 C 0.45393 0.80611 0.8612 0.0
C289 C 0.42798 0.80251 0.86129 0.0
C290 C 0.45556 0.79361 0.90881 0.0
C291 C 0.42966 0.79015 0.90803 0.0
N292 N 0.34978 0.75836 0.87514 0.0
C293 C 0.33074 0.7161 0.85953 0.0
C294 C 0.30919 0.73012 0.85061 0.0
C295 C 0.30784 0.75879 0.85576 0.0
C296 C 0.32803 0.77235 0.86851 0.0
C297 C 0.35039 0.73024 0.87138 0.0
H298 H 0.32625 0.79432 0.8718 0.0
H299 H 0.36664 0.71782 0.87552 0.0
H300 H 0.41779 0.80598 0.84231 0.0
H301 H 0.42105 0.78333 0.92662 0.0
C302 C 0.36462 0.83665 0.90527 0.0
C303 C 0.36216 0.79674 0.8147 0.0
C304 C 0.38328 0.74887 0.94839 0.0
C305 C 0.41596 0.72636 0.85718 0.0
H306 H 0.34442 0.85404 0.81691 0.0
H307 H 0.34867 0.87654 0.86608 0.0
H308 H 0.35565 0.83872 0.96284 0.0
H309 H 0.36296 0.78988 0.98536 0.0
H310 H 0.41463 0.69959 0.94767 0.0
H311 H 0.43409 0.68788 0.89853 0.0
H312 H 0.41546 0.72121 0.79758 0.0
H313 H 0.38428 0.7586 0.77497 0.0
H314 H 0.46244 0.81262 0.8423 0.0
H315 H 0.46538 0.78925 0.9279 0.0
H316 H 0.33315 0.69412 0.85608 0.0
H317 H 0.29142 0.77072 0.84984 0.0
C318 C 0.71559 0.85574 0.32464 0.0
C319 C 0.68999 0.85573 0.32166 0.0
C320 C 0.68049 0.85591 0.34769 0.0
C321 C 0.70072 0.8567 0.36492 0.0
N322 N 0.7224 0.8572 0.3516 0.0
Co323 Co 0.75474 0.86647 0.36891 0.0
N324 N 0.74295 0.85693 0.40666 0.0
C325 C 0.71925 0.85214 0.41319 0.0
C326 C 0.7158 0.84707 0.44058 0.0
C327 C 0.73861 0.84936 0.45245 0.0
C328 C 0.75492 0.8558 0.43155 0.0
N329 N 0.78612 0.87851 0.387 0.0
C330 C 0.79348 0.87841 0.4141 0.0
C331 C 0.81646 0.89011 0.41713 0.0
C332 C 0.82354 0.8981 0.39136 0.0
C333 C 0.80462 0.89081 0.37397 0.0
N334 N 0.7663 0.87386 0.33057 0.0
C335 C 0.78808 0.88483 0.32431 0.0
C336 C 0.79387 0.88198 0.29696 0.0
C337 C 0.77465 0.86818 0.28517 0.0
C338 C 0.75762 0.8638 0.30585 0.0
N339 N 0.74209 0.90534 0.3734 0.0
C340 C 0.73397 0.96333 0.37885 0.0
C341 C 0.73059 0.94983 0.35338 0.0
C342 C 0.73467 0.92096 0.35112 0.0
C343 C 0.73971 0.94669 0.40169 0.0
C344 C 0.74359 0.91818 0.39859 0.0
N345 N 0.76914 0.82809 0.36348 0.0
C346 C 0.8082 0.80249 0.35851 0.0
C347 C 0.79908 0.7874 0.33616 0.0
C348 C 0.77353 0.79026 0.33066 0.0
C349 C 0.75888 0.81007 0.34502 0.0
C350 C 0.79294 0.82194 0.3722 0.0
H351 H 0.7395 0.81128 0.34001 0.0
H352 H 0.80129 0.83243 0.3892 0.0
H353 H 0.73272 0.91155 0.33105 0.0
H354 H 0.74891 0.90701 0.41677 0.0
C355 C 0.70044 0.85386 0.3934 0.0
C356 C 0.73292 0.85112 0.30179 0.0
C357 C 0.77986 0.86623 0.43723 0.0
C358 C 0.80442 0.89283 0.34521 0.0
H359 H 0.67939 0.85459 0.30268 0.0
H360 H 0.66123 0.8547 0.35334 0.0
H361 H 0.69854 0.84338 0.4509 0.0
H362 H 0.74215 0.84847 0.4744 0.0
H363 H 0.82722 0.89217 0.43592 0.0
H364 H 0.84073 0.90748 0.3859 0.0
H365 H 0.81089 0.88752 0.28708 0.0
H366 H 0.77422 0.86141 0.26401 0.0
H367 H 0.72598 0.96157 0.33503 0.0
H368 H 0.74189 0.95572 0.422 0.0
H369 H 0.82723 0.7996 0.36537 0.0
H370 H 0.76493 0.7781 0.31465 0.0
C371 C 0.67781 0.21417 0.83075 0.0
C372 C 0.6762 0.1866 0.82329 0.0
C373 C 0.67087 0.1725 0.84679 0.0
C374 C 0.66899 0.19223 0.86708 0.0
N375 N 0.67262 0.21785 0.85787 0.0
Co376 Co 0.66635 0.25214 0.87966 0.0
N377 N 0.67037 0.2322 0.91546 0.0
C378 C 0.66989 0.20462 0.91834 0.0
C379 C 0.67239 0.19611 0.94516 0.0
C380 C 0.67409 0.21978 0.96036 0.0
C381 C 0.67231 0.24159 0.94193 0.0
N382 N 0.65802 0.28574 0.90212 0.0
C383 C 0.65948 0.29052 0.92996 0.0
C384 C 0.65066 0.31689 0.93622 0.0
C385 C 0.6435 0.32891 0.91166 0.0
C386 C 0.6482 0.30927 0.89169 0.0
N387 N 0.66385 0.2714 0.8435 0.0
C388 C 0.65535 0.29747 0.84011 0.0
C389 C 0.66066 0.30753 0.81449 0.0
C390 C 0.67334 0.28655 0.80101 0.0
C391 C 0.67477 0.26426 0.81885 0.0
N392 N 0.63014 0.24467 0.87879 0.0
C393 C 0.57713 0.24421 0.87572 0.0
C394 C 0.59211 0.23883 0.85245 0.0
C395 C 0.61822 0.23935 0.85436 0.0
C396 C 0.58992 0.24838 0.90082 0.0
C397 C 0.61601 0.24814 0.90196 0.0
N398 N 0.70225 0.26183 0.87903 0.0
C399 C 0.72756 0.30126 0.87022 0.0
C400 C 0.74247 0.28611 0.85196 0.0
C401 C 0.73933 0.25742 0.85108 0.0
C402 C 0.71947 0.24564 0.86528 0.0
C403 C 0.70824 0.28879 0.88393 0.0
H404 H 0.71724 0.22374 0.86329 0.0
H405 H 0.69748 0.30228 0.89691 0.0
H406 H 0.62873 0.23621 0.83573 0.0
H407 H 0.62461 0.25201 0.92165 0.0
C408 C 0.66792 0.18731 0.89535 0.0
C409 C 0.68547 0.2361 0.81205 0.0
C410 C 0.66871 0.27047 0.95094 0.0
C411 C 0.64763 0.31333 0.863 0.0
H412 H 0.67917 0.17752 0.80312 0.0
H413 H 0.66955 0.15042 0.849 0.0
H414 H 0.67266 0.17519 0.9528 0.0
H415 H 0.67527 0.22086 0.98263 0.0
H416 H 0.64974 0.32648 0.9564 0.0
H417 H 0.63659 0.34985 0.90866 0.0
H418 H 0.65742 0.32836 0.80717 0.0
H419 H 0.68131 0.28838 0.78086 0.0
H420 H 0.58391 0.23451 0.83254 0.0
H421 H 0.58005 0.25289 0.91967 0.0
H422 H 0.73027 0.32309 0.87337 0.0
H423 H 0.7512 0.24435 0.83838 0.0
C424 C 0.32257 0.834 0.69129 0.0
C425 C 0.34568 0.82059 0.69029 0.0
C426 C 0.35252 0.81983 0.6634 0.0
C427 C 0.33317 0.83221 0.64939 0.0
N428 N 0.31438 0.84102 0.66562 0.0
Co429 Co 0.28226 0.85848 0.65253 0.0
N430 N 0.28886 0.84742 0.61323 0.0
C431 C 0.31011 0.83584 0.60369 0.0
C432 C 0.30959 0.82942 0.5762 0.0
C433 C 0.28669 0.83791 0.56732 0.0
C434 C 0.27456 0.84939 0.59 0.0
N435 N 0.25132 0.87762 0.63835 0.0
C436 C 0.24137 0.8795 0.61226 0.0
C437 C 0.22102 0.89756 0.61183 0.0
C438 C 0.21825 0.90752 0.63824 0.0
C439 C 0.23708 0.89516 0.6534 0.0
N440 N 0.27574 0.86781 0.69196 0.0
C441 C 0.25776 0.88528 0.70086 0.0
C442 C 0.25684 0.8869 0.72915 0.0
C443 C 0.27539 0.86924 0.73864 0.0
C444 C 0.28669 0.85772 0.7156 0.0
N445 N 0.29871 0.89451 0.64766 0.0
C446 C 0.30217 0.95307 0.64978 0.0
C447 C 0.31094 0.93615 0.67156 0.0
C448 C 0.30934 0.90717 0.66997 0.0
C449 C 0.29469 0.93927 0.62561 0.0
C450 C 0.29363 0.91029 0.62481 0.0
N451 N 0.26386 0.82373 0.65963 0.0
C452 C 0.22559 0.80564 0.67746 0.0
C453 C 0.23783 0.78245 0.68869 0.0
C454 C 0.26323 0.77911 0.6825 0.0
C455 C 0.27568 0.79957 0.66766 0.0
C456 C 0.23862 0.82559 0.66326 0.0
H457 H 0.29511 0.79599 0.66383 0.0
H458 H 0.22762 0.84301 0.65663 0.0
H459 H 0.31502 0.89526 0.68777 0.0
H460 H 0.28656 0.90107 0.60629 0.0
C461 C 0.32998 0.83039 0.62114 0.0
C462 C 0.30892 0.83896 0.71693 0.0
C463 C 0.25148 0.86584 0.58718 0.0
C464 C 0.24102 0.89769 0.682 0.0
H465 H 0.3563 0.81127 0.70696 0.0
H466 H 0.36883 0.80961 0.65487 0.0
H467 H 0.32425 0.81995 0.564 0.0
H468 H 0.28017 0.83695 0.54619 0.0
H469 H 0.20961 0.90317 0.59416 0.0
H470 H 0.2041 0.92198 0.64551 0.0
H471 H 0.24391 0.89903 0.74147 0.0
H472 H 0.28022 0.86543 0.76002 0.0
H473 H 0.31826 0.94513 0.69028 0.0
H474 H 0.28811 0.95064 0.60774 0.0
H475 H 0.20582 0.80886 0.67989 0.0
H476 H 0.27381 0.76128 0.6898 0.0
C477 C 0.6756 0.8185 0.18686 0.0
C478 C 0.67367 0.84665 0.19207 0.0
C479 C 0.67012 0.85922 0.1671 0.0
C480 C 0.66951 0.83809 0.14825 0.0
N481 N 0.67232 0.813 0.15966 0.0
Co482 Co 0.66557 0.77766 0.14047 0.0
N483 N 0.67068 0.7943 0.10342 0.0
C484 C 0.67153 0.82154 0.09835 0.0
C485 C 0.6745 0.82761 0.07105 0.0
C486 C 0.67511 0.80269 0.05783 0.0
C487 C 0.67229 0.78267 0.07783 0.0
N488 N 0.65631 0.74325 0.12049 0.0
C489 C 0.65685 0.73658 0.09302 0.0
C490 C 0.64746 0.71067 0.08852 0.0
C491 C 0.64081 0.70086 0.11385 0.0
C492 C 0.64642 0.72126 0.13245 0.0
N493 N 0.66214 0.76144 0.17795 0.0
C494 C 0.65358 0.73629 0.18304 0.0
C495 C 0.65827 0.72793 0.2096 0.0
C496 C 0.67064 0.74906 0.22201 0.0
C497 C 0.67245 0.76977 0.20253 0.0
N498 N 0.62969 0.78891 0.13929 0.0
C499 C 0.57716 0.79734 0.13896 0.0
C500 C 0.59137 0.80029 0.16325 0.0
C501 C 0.61734 0.79611 0.16296 0.0
C502 C 0.59028 0.79099 0.11472 0.0
C503 C 0.61619 0.78699 0.1153 0.0
N504 N 0.70128 0.76452 0.14301 0.0
C505 C 0.72695 0.72289 0.1484 0.0
C506 C 0.74178 0.73517 0.16856 0.0
C507 C 0.73784 0.76366 0.17281 0.0
C508 C 0.71812 0.77801 0.1592 0.0
C509 C 0.70752 0.73784 0.1356 0.0
H510 H 0.71609 0.79977 0.16311 0.0
H511 H 0.69712 0.72652 0.12078 0.0
H512 H 0.62734 0.79815 0.18218 0.0
H513 H 0.62506 0.78141 0.09624 0.0
C514 C 0.66951 0.84086 0.11968 0.0
C515 C 0.68275 0.79772 0.20764 0.0
C516 C 0.66684 0.75388 0.07091 0.0
C517 C 0.64589 0.7193 0.16127 0.0
H518 H 0.67545 0.85704 0.21176 0.0
H519 H 0.66896 0.88114 0.1631 0.0
H520 H 0.6755 0.84777 0.06176 0.0
H521 H 0.67597 0.7998 0.03576 0.0
H522 H 0.646 0.69984 0.06904 0.0
H523 H 0.63356 0.68082 0.11826 0.0
H524 H 0.65474 0.708 0.21842 0.0
H525 H 0.67808 0.74826 0.24265 0.0
H526 H 0.58254 0.80572 0.18255 0.0
H527 H 0.58059 0.78811 0.09534 0.0
H528 H 0.72934 0.70126 0.14328 0.0
H529 H 0.74964 0.77481 0.18686 0.0
C530 C 0.71711 0.18253 0.69218 0.0
C531 C 0.69167 0.18347 0.6962 0.0
C532 C 0.68087 0.1822 0.67069 0.0
C533 C 0.70021 0.17988 0.65267 0.0
N534 N 0.72262 0.17944 0.66499 0.0
Co535 Co 0.75443 0.16884 0.64635 0.0
N536 N 0.73991 0.1761 0.60872 0.0
C537 C 0.71565 0.18082 0.60322 0.0
C538 C 0.71038 0.18504 0.57587 0.0
C539 C 0.73261 0.18231 0.56293 0.0
C540 C 0.75029 0.17623 0.58315 0.0
N541 N 0.78535 0.15602 0.62679 0.0
C542 C 0.79127 0.15542 0.59926 0.0
C543 C 0.81459 0.14346 0.59544 0.0
C544 C 0.82355 0.13639 0.62115 0.0
C545 C 0.80525 0.1443 0.63932 0.0
N546 N 0.76855 0.16324 0.68433 0.0
C547 C 0.79127 0.1525 0.68975 0.0
C548 C 0.79828 0.15587 0.7168 0.0
C549 C 0.77881 0.1697 0.72926 0.0
C550 C 0.76051 0.17366 0.70928 0.0
N551 N 0.74356 0.12978 0.64502 0.0
C552 C 0.73798 0.0713 0.64667 0.0
C553 C 0.73281 0.08838 0.66968 0.0
C554 C 0.73588 0.11712 0.66851 0.0
C555 C 0.74443 0.08498 0.62229 0.0
C556 C 0.74672 0.11386 0.62181 0.0
N557 N 0.76731 0.20735 0.64938 0.0
C558 C 0.80637 0.23071 0.65389 0.0
C559 C 0.79809 0.24561 0.67703 0.0
C560 C 0.7727 0.24418 0.68296 0.0
C561 C 0.7576 0.22569 0.66838 0.0
C562 C 0.79064 0.21258 0.64 0.0
H563 H 0.73842 0.22546 0.67388 0.0
H564 H 0.79831 0.20209 0.62244 0.0
H565 H 0.73282 0.12888 0.68712 0.0
H566 H 0.75218 0.12297 0.60273 0.0
C567 C 0.69821 0.18089 0.62413 0.0
C568 C 0.73539 0.18661 0.7144 0.0
C569 C 0.77564 0.16671 0.57635 0.0
C570 C 0.80678 0.14362 0.66819 0.0
H571 H 0.68192 0.18548 0.71553 0.0
H572 H 0.66127 0.18349 0.66584 0.0
H573 H 0.69242 0.189 0.56638 0.0
H574 H 0.73523 0.18323 0.54089 0.0
H575 H 0.82421 0.14057 0.57612 0.0
H576 H 0.84154 0.1272 0.62604 0.0
H577 H 0.81605 0.15045 0.72606 0.0
H578 H 0.77882 0.17672 0.75038 0.0
H579 H 0.72682 0.07977 0.68892 0.0
H580 H 0.74879 0.07358 0.60367 0.0
H581 H 0.82512 0.23265 0.64663 0.0
H582 H 0.7646 0.2563 0.69954 0.0
C583 C 0.379 0.20309 0.18559 0.0
C584 C 0.37279 0.17555 0.1854 0.0
C585 C 0.37545 0.16649 0.15877 0.0
C586 C 0.38325 0.1889 0.14441 0.0
N587 N 0.38585 0.21137 0.16036 0.0
Co588 Co 0.39826 0.24737 0.1484 0.0
N589 N 0.38938 0.23956 0.10927 0.0
C590 C 0.38369 0.21468 0.09889 0.0
C591 C 0.37796 0.2152 0.07133 0.0
C592 C 0.38069 0.24194 0.06359 0.0
C593 C 0.3883 0.25631 0.08693 0.0
N594 N 0.41226 0.28249 0.13568 0.0
C595 C 0.41148 0.29471 0.11041 0.0
C596 C 0.42604 0.31776 0.11035 0.0
C597 C 0.43644 0.31977 0.13627 0.0
C598 C 0.42782 0.29783 0.15078 0.0
N599 N 0.40548 0.25482 0.18788 0.0
C600 C 0.42039 0.27426 0.19765 0.0
C601 C 0.41913 0.27665 0.22594 0.0
C602 C 0.40225 0.25758 0.23421 0.0
C603 C 0.39413 0.24452 0.2105 0.0
N604 N 0.43199 0.23023 0.14333 0.0
C605 C 0.4841 0.2194 0.14119 0.0
C606 C 0.47018 0.21259 0.16448 0.0
C607 C 0.44431 0.21778 0.165 0.0
C608 C 0.47076 0.22989 0.11834 0.0
C609 C 0.44503 0.23503 0.11978 0.0
N610 N 0.36546 0.26621 0.15505 0.0
C611 C 0.34481 0.30616 0.17585 0.0
C612 C 0.32315 0.29187 0.17973 0.0
C613 C 0.32246 0.26477 0.16926 0.0
C614 C 0.34368 0.25247 0.15657 0.0
C615 C 0.36545 0.29316 0.16388 0.0
H616 H 0.34275 0.23145 0.14932 0.0
H617 H 0.38183 0.30498 0.16384 0.0
H618 H 0.43449 0.21292 0.18356 0.0
H619 H 0.43608 0.24447 0.10218 0.0
C620 C 0.38245 0.1916 0.11584 0.0
C621 C 0.37689 0.22128 0.20953 0.0
C622 C 0.39872 0.28394 0.08563 0.0
C623 C 0.43098 0.29296 0.17932 0.0
H624 H 0.36619 0.16365 0.2025 0.0
H625 H 0.37058 0.14657 0.15057 0.0
H626 H 0.37257 0.19815 0.05835 0.0
H627 H 0.3786 0.24961 0.04276 0.0
H628 H 0.42905 0.33146 0.09324 0.0
H629 H 0.44847 0.33565 0.14374 0.0
H630 H 0.4283 0.29149 0.23891 0.0
H631 H 0.3965 0.2539 0.25514 0.0
H632 H 0.47923 0.20371 0.18249 0.0
H633 H 0.48027 0.23556 0.09975 0.0
H634 H 0.34636 0.32708 0.18346 0.0
H635 H 0.30584 0.25304 0.17125 0.0
C636 C 0.83869 0.66299 0.78305 0.0
C637 C 0.81983 0.65384 0.76612 0.0
C638 C 0.83083 0.63699 0.74652 0.0
C639 C 0.85579 0.6367 0.75251 0.0
N640 N 0.86112 0.65213 0.77468 0.0
Co641 Co 0.89513 0.65957 0.78855 0.0
N642 N 0.91213 0.64386 0.75521 0.0
C643 C 0.90089 0.62828 0.73602 0.0
C644 C 0.91681 0.61876 0.71597 0.0
C645 C 0.93961 0.62849 0.72319 0.0
C646 C 0.9365 0.64344 0.74743 0.0
N647 N 0.92899 0.66871 0.80264 0.0
C648 C 0.95172 0.66762 0.79044 0.0
C649 C 0.97021 0.67422 0.8093 0.0
C650 C 0.95899 0.67913 0.83395 0.0
C651 C 0.93437 0.67526 0.82904 0.0
N652 N 0.87879 0.67332 0.82301 0.0
C653 C 0.89023 0.67737 0.84738 0.0
C654 C 0.87459 0.6866 0.86776 0.0
C655 C 0.85175 0.68872 0.8555 0.0
C656 C 0.8548 0.68059 0.82822 0.0
N657 N 0.89817 0.62181 0.80466 0.0
C658 C 0.89937 0.56331 0.81072 0.0
C659 C 0.92107 0.57804 0.80646 0.0
C660 C 0.92007 0.60687 0.80339 0.0
C661 C 0.87746 0.57932 0.81473 0.0
C662 C 0.87738 0.60828 0.81217 0.0
N663 N 0.89039 0.69642 0.77041 0.0
C664 C 0.86635 0.73957 0.77127 0.0
C665 C 0.86181 0.73828 0.74258 0.0
C666 C 0.87498 0.71766 0.7281 0.0
C667 C 0.88904 0.69737 0.74211 0.0
C668 C 0.8811 0.71894 0.78458 0.0
H669 H 0.89728 0.68166 0.72933 0.0
H670 H 0.88351 0.72054 0.8066 0.0
H671 H 0.93701 0.61661 0.79834 0.0
H672 H 0.85998 0.61949 0.81459 0.0
C673 C 0.87499 0.62577 0.73601 0.0
C674 C 0.83469 0.68076 0.80777 0.0
C675 C 0.95732 0.65589 0.76293 0.0
C676 C 0.91589 0.67785 0.84875 0.0
H677 H 0.80026 0.65893 0.76775 0.0
H678 H 0.82176 0.62703 0.72933 0.0
H679 H 0.91233 0.60662 0.69792 0.0
H680 H 0.9566 0.62485 0.71195 0.0
H681 H 0.99001 0.67392 0.80626 0.0
H682 H 0.96784 0.6842 0.85337 0.0
H683 H 0.87944 0.69271 0.88857 0.0
H684 H 0.83493 0.69614 0.86538 0.0
H685 H 0.93887 0.56746 0.80456 0.0
H686 H 0.86002 0.5697 0.81841 0.0
H687 H 0.85774 0.75561 0.78378 0.0
H688 H 0.87403 0.71652 0.70582 0.0
C689 C 0.88953 0.32752 0.28231 0.0
C690 C 0.89877 0.30471 0.2681 0.0
C691 C 0.91556 0.31437 0.2494 0.0
C692 C 0.91569 0.34253 0.2532 0.0
N693 N 0.90014 0.35093 0.27315 0.0
Co694 Co 0.89205 0.38983 0.28313 0.0
N695 N 0.90672 0.405 0.24907 0.0
C696 C 0.92286 0.39091 0.23287 0.0
C697 C 0.93176 0.40685 0.21203 0.0
C698 C 0.9209 0.43262 0.21568 0.0
C699 C 0.90582 0.4311 0.23857 0.0
N700 N 0.88246 0.42843 0.2934 0.0
C701 C 0.88104 0.45178 0.27805 0.0
C702 C 0.87211 0.47388 0.29376 0.0
C703 C 0.86903 0.46451 0.31992 0.0
C704 C 0.87577 0.43715 0.31879 0.0
N705 N 0.87884 0.37553 0.31819 0.0
C706 C 0.87506 0.39012 0.3415 0.0
C707 C 0.86672 0.37455 0.36285 0.0
C708 C 0.865 0.34849 0.35228 0.0
C709 C 0.8724 0.34979 0.32499 0.0
N710 N 0.92529 0.39338 0.30095 0.0
C711 C 0.97731 0.39286 0.31168 0.0
C712 C 0.96448 0.4167 0.30225 0.0
C713 C 0.93873 0.41658 0.29719 0.0
C714 C 0.96285 0.37001 0.3177 0.0
C715 C 0.93707 0.3708 0.31256 0.0
N716 N 0.85979 0.38451 0.26349 0.0
C717 C 0.81715 0.36965 0.26356 0.0
C718 C 0.8189 0.36043 0.23601 0.0
C719 C 0.84076 0.36565 0.22219 0.0
C720 C 0.86066 0.37738 0.23604 0.0
C721 C 0.83769 0.38186 0.27685 0.0
H722 H 0.87729 0.37848 0.22439 0.0
H723 H 0.83603 0.38777 0.29826 0.0
H724 H 0.93009 0.43492 0.28859 0.0
H725 H 0.92691 0.35247 0.31665 0.0
C726 C 0.92636 0.3621 0.23586 0.0
C727 C 0.8722 0.32661 0.30581 0.0
C728 C 0.89206 0.45512 0.25062 0.0
C729 C 0.87395 0.41875 0.34059 0.0
H730 H 0.8939 0.28346 0.271 0.0
H731 H 0.9256 0.30238 0.23405 0.0
H732 H 0.94425 0.40041 0.19575 0.0
H733 H 0.92388 0.45056 0.2031 0.0
H734 H 0.86879 0.49487 0.28731 0.0
H735 H 0.86241 0.47621 0.33757 0.0
H736 H 0.86098 0.38162 0.38307 0.0
H737 H 0.85839 0.33079 0.36317 0.0
H738 H 0.97439 0.43507 0.29734 0.0
H739 H 0.97143 0.35129 0.32585 0.0
H740 H 0.80033 0.36671 0.275 0.0
H741 H 0.84316 0.35915 0.20095 0.0
C742 C 0.18195 0.31487 0.76297 0.0
C743 C 0.17949 0.29531 0.78349 0.0
C744 C 0.16623 0.30777 0.80441 0.0
C745 C 0.1617 0.33446 0.79614 0.0
N746 N 0.17126 0.33957 0.77129 0.0
Co747 Co 0.17496 0.37709 0.75547 0.0
N748 N 0.16478 0.39706 0.78995 0.0
C749 C 0.15381 0.3851 0.81143 0.0
C750 C 0.14745 0.40353 0.83195 0.0
C751 C 0.15449 0.42878 0.82267 0.0
C752 C 0.16487 0.42445 0.79691 0.0
N753 N 0.1802 0.41428 0.73917 0.0
C754 C 0.18075 0.43995 0.75079 0.0
C755 C 0.18379 0.45993 0.73074 0.0
C756 C 0.18437 0.44666 0.70588 0.0
C757 C 0.18182 0.41938 0.71195 0.0
N758 N 0.1829 0.35798 0.72013 0.0
C759 C 0.18072 0.36961 0.6951 0.0
C760 C 0.18243 0.35101 0.67381 0.0
C761 C 0.18612 0.32596 0.6862 0.0
C762 C 0.18717 0.33088 0.71446 0.0
N763 N 0.13926 0.37886 0.74395 0.0
C764 C 0.08673 0.37961 0.73566 0.0
C765 C 0.09946 0.4036 0.74263 0.0
C766 C 0.12535 0.40283 0.74646 0.0
C767 C 0.10143 0.35539 0.73194 0.0
C768 C 0.12737 0.35546 0.73611 0.0
N769 N 0.21041 0.37374 0.76878 0.0
C770 C 0.25141 0.35186 0.76357 0.0
C771 C 0.25526 0.3508 0.79239 0.0
C772 C 0.23711 0.364 0.80855 0.0
C773 C 0.2153 0.37512 0.79665 0.0
C774 C 0.2292 0.36367 0.75226 0.0
H775 H 0.20218 0.38347 0.81102 0.0
H776 H 0.22701 0.36332 0.73016 0.0
H777 H 0.13384 0.42172 0.75243 0.0
H778 H 0.13769 0.33626 0.73356 0.0
C779 C 0.15319 0.35626 0.81305 0.0
C780 C 0.19318 0.30961 0.73519 0.0
C781 C 0.17383 0.447 0.7794 0.0
C782 C 0.18054 0.39815 0.69257 0.0
H783 H 0.18712 0.27457 0.78423 0.0
H784 H 0.16198 0.29888 0.82417 0.0
H785 H 0.1393 0.39906 0.85168 0.0
H786 H 0.15229 0.44818 0.83361 0.0
H787 H 0.18394 0.48205 0.73343 0.0
H788 H 0.18572 0.45591 0.68572 0.0
H789 H 0.18184 0.3552 0.65191 0.0
H790 H 0.18826 0.3064 0.67557 0.0
H791 H 0.08948 0.42294 0.74613 0.0
H792 H 0.09304 0.33628 0.72595 0.0
H793 H 0.26496 0.3427 0.74973 0.0
H794 H 0.23934 0.36538 0.83071 0.0
C795 C 0.18085 0.70522 0.27593 0.0
C796 C 0.17806 0.72366 0.25424 0.0
C797 C 0.16544 0.71042 0.23361 0.0
C798 C 0.1616 0.68438 0.24324 0.0
N799 N 0.17088 0.68039 0.26875 0.0
Co800 Co 0.17567 0.64358 0.28672 0.0
N801 N 0.16551 0.62212 0.25329 0.0
C802 C 0.15491 0.63328 0.23062 0.0
C803 C 0.14865 0.61391 0.2112 0.0
C804 C 0.15559 0.58888 0.22242 0.0
C805 C 0.16579 0.59431 0.24813 0.0
N806 N 0.18223 0.60717 0.30507 0.0
C807 C 0.18349 0.58094 0.29478 0.0
C808 C 0.1878 0.56192 0.31574 0.0
C809 C 0.18851 0.57645 0.3399 0.0
C810 C 0.18477 0.60346 0.33249 0.0
N811 N 0.18344 0.66442 0.32109 0.0
C812 C 0.18239 0.65415 0.34672 0.0
C813 C 0.18392 0.67384 0.367 0.0
C814 C 0.18625 0.69817 0.35329 0.0
C815 C 0.18657 0.69178 0.32534 0.0
N816 N 0.1402 0.64356 0.29801 0.0
C817 C 0.08769 0.64445 0.30411 0.0
C818 C 0.10138 0.61971 0.3 0.0
C819 C 0.12726 0.61969 0.2972 0.0
C820 C 0.10136 0.66866 0.30638 0.0
C821 C 0.12737 0.66776 0.3034 0.0
N822 N 0.21076 0.64483 0.27332 0.0
C823 C 0.24498 0.67597 0.26919 0.0
C824 C 0.24707 0.67041 0.24078 0.0
C825 C 0.23318 0.64862 0.23047 0.0
C826 C 0.21603 0.63566 0.24713 0.0
C827 C 0.22739 0.66231 0.28518 0.0
H828 H 0.20626 0.61928 0.23752 0.0
H829 H 0.22658 0.6673 0.30677 0.0
H830 H 0.13648 0.60019 0.29321 0.0
H831 H 0.13695 0.68691 0.3047 0.0
C832 C 0.15391 0.66197 0.22727 0.0
C833 C 0.19208 0.71163 0.30355 0.0
C834 C 0.17626 0.57263 0.26663 0.0
C835 C 0.18335 0.62576 0.35073 0.0
H836 H 0.18506 0.74411 0.25253 0.0
H837 H 0.1612 0.71828 0.21321 0.0
H838 H 0.14068 0.61756 0.19095 0.0
H839 H 0.15375 0.56895 0.21264 0.0
H840 H 0.1888 0.53969 0.31404 0.0
H841 H 0.19079 0.56821 0.36049 0.0
H842 H 0.18423 0.67077 0.38909 0.0
H843 H 0.1883 0.71821 0.36279 0.0
H844 H 0.09218 0.60031 0.29779 0.0
H845 H 0.09208 0.68836 0.3102 0.0
H846 H 0.25646 0.69113 0.27903 0.0
H847 H 0.23437 0.64222 0.20912 0.0
C848 C 0.7805 0.82136 0.66275 0.0
C849 C 0.76509 0.79944 0.65833 0.0
C850 C 0.74502 0.80959 0.64342 0.0
C851 C 0.74912 0.83716 0.63966 0.0
N852 N 0.77055 0.84489 0.65107 0.0
Co853 Co 0.7815 0.88358 0.65483 0.0
N854 N 0.74909 0.9003 0.64223 0.0
C855 C 0.73071 0.88615 0.63047 0.0
C856 C 0.71071 0.9028 0.62313 0.0
C857 C 0.71697 0.9291 0.63055 0.0
C858 C 0.74054 0.92718 0.64206 0.0
N859 N 0.79308 0.92204 0.66 0.0
C860 C 0.78057 0.94681 0.65972 0.0
C861 C 0.79683 0.96844 0.66211 0.0
C862 C 0.82014 0.95702 0.66346 0.0
C863 C 0.817 0.92921 0.66181 0.0
N864 N 0.81474 0.86766 0.6651 0.0
C865 C 0.83624 0.88084 0.66396 0.0
C866 C 0.85668 0.8641 0.66893 0.0
C867 C 0.84752 0.83861 0.67357 0.0
C868 C 0.82194 0.84147 0.67133 0.0
N869 N 0.79196 0.88369 0.61547 0.0
C870 C 0.79609 0.87927 0.55691 0.0
C871 C 0.78775 0.90384 0.56989 0.0
C872 C 0.78623 0.90574 0.5988 0.0
C873 C 0.804 0.85767 0.57459 0.0
C874 C 0.80164 0.8602 0.60344 0.0
N875 N 0.76908 0.88154 0.69389 0.0
C876 C 0.77105 0.85223 0.73451 0.0
C877 C 0.74501 0.8517 0.73606 0.0
C878 C 0.7319 0.87025 0.71891 0.0
C879 C 0.74412 0.88515 0.69868 0.0
C880 C 0.78261 0.86791 0.71398 0.0
H881 H 0.73246 0.89848 0.68638 0.0
H882 H 0.80252 0.86749 0.71363 0.0
H883 H 0.77912 0.9248 0.60742 0.0
H884 H 0.80679 0.84257 0.61592 0.0
C885 C 0.73186 0.85716 0.62994 0.0
C886 C 0.80495 0.81945 0.67703 0.0
C887 C 0.75416 0.95115 0.65281 0.0
C888 C 0.83614 0.90938 0.66231 0.0
H889 H 0.76783 0.77847 0.66538 0.0
H890 H 0.72879 0.79845 0.63733 0.0
H891 H 0.69332 0.8965 0.61423 0.0
H892 H 0.70539 0.94751 0.62809 0.0
H893 H 0.79259 0.99033 0.6613 0.0
H894 H 0.83738 0.96777 0.66483 0.0
H895 H 0.87583 0.86994 0.67018 0.0
H896 H 0.85833 0.82016 0.67866 0.0
H897 H 0.78124 0.92142 0.558 0.0
H898 H 0.81156 0.83848 0.5664 0.0
H899 H 0.78257 0.83982 0.74824 0.0
H900 H 0.71202 0.87307 0.7206 0.0
C901 C 0.67839 0.2503 0.204 0.0
C902 C 0.66801 0.26683 0.22447 0.0
C903 C 0.6525 0.28577 0.21146 0.0
C904 C 0.65418 0.27982 0.18377 0.0
N905 N 0.66969 0.25833 0.17857 0.0
Co906 Co 0.67843 0.2443 0.14112 0.0
N907 N 0.66294 0.27677 0.12136 0.0
C908 C 0.64727 0.29532 0.13319 0.0
C909 C 0.63798 0.31462 0.1149 0.0
C910 C 0.64806 0.30755 0.08984 0.0
C911 C 0.66303 0.28425 0.0941 0.0
N912 N 0.68831 0.23008 0.10371 0.0
C913 C 0.68733 0.24192 0.07821 0.0
C914 C 0.69514 0.22328 0.05796 0.0
C915 C 0.7008 0.19904 0.07087 0.0
C916 C 0.69618 0.20404 0.09815 0.0
N917 N 0.69253 0.21068 0.16005 0.0
C918 C 0.69895 0.1867 0.14758 0.0
C919 C 0.70906 0.16734 0.1651 0.0
C920 C 0.70913 0.17974 0.19037 0.0
C921 C 0.69859 0.20601 0.18694 0.0
N922 N 0.64563 0.22653 0.13799 0.0
C923 C 0.59373 0.21716 0.13846 0.0
C924 C 0.60594 0.22461 0.1142 0.0
C925 C 0.63164 0.22883 0.11432 0.0
C926 C 0.60885 0.21214 0.16183 0.0
C927 C 0.63452 0.21669 0.16111 0.0
N928 N 0.71038 0.26403 0.14623 0.0
C929 C 0.75024 0.26541 0.17013 0.0
C930 C 0.74827 0.29425 0.1731 0.0
C931 C 0.72807 0.30756 0.16017 0.0
C932 C 0.70962 0.29239 0.14716 0.0
C933 C 0.73157 0.25086 0.15598 0.0
H934 H 0.69411 0.30437 0.13959 0.0
H935 H 0.73401 0.22882 0.15421 0.0
H936 H 0.63975 0.23567 0.09549 0.0
H937 H 0.6451 0.21366 0.17988 0.0
C938 C 0.644 0.29551 0.16194 0.0
C939 C 0.69489 0.22588 0.20959 0.0
C940 C 0.67581 0.26898 0.07146 0.0
C941 C 0.69994 0.18498 0.11909 0.0
H942 H 0.67121 0.26523 0.24647 0.0
H943 H 0.64182 0.30237 0.22104 0.0
H944 H 0.62564 0.33202 0.1193 0.0
H945 H 0.64457 0.31814 0.07054 0.0
H946 H 0.69562 0.22629 0.0359 0.0
H947 H 0.7072 0.1799 0.06143 0.0
H948 H 0.71695 0.14725 0.15985 0.0
H949 H 0.71682 0.17053 0.20892 0.0
H950 H 0.59564 0.22867 0.09535 0.0
H951 H 0.60091 0.20531 0.18093 0.0
H952 H 0.76597 0.25409 0.17888 0.0
H953 H 0.72568 0.32977 0.16139 0.0
C954 C 0.26328 0.20551 0.66814 0.0
C955 C 0.28156 0.22488 0.66575 0.0
C956 C 0.30092 0.21234 0.65208 0.0
C957 C 0.29403 0.18577 0.64746 0.0
N958 N 0.27142 0.18065 0.65723 0.0
Co959 Co 0.25809 0.14288 0.66238 0.0
N960 N 0.28945 0.12318 0.65052 0.0
C961 C 0.30904 0.13547 0.63963 0.0
C962 C 0.32788 0.11727 0.63254 0.0
C963 C 0.31964 0.09173 0.63917 0.0
C964 C 0.29608 0.0957 0.6499 0.0
N965 N 0.24457 0.10552 0.6693 0.0
C966 C 0.25563 0.07983 0.66945 0.0
C967 C 0.2383 0.05974 0.67389 0.0
C968 C 0.21578 0.07302 0.676 0.0
C969 C 0.22042 0.10038 0.6728 0.0
N970 N 0.22602 0.16206 0.67181 0.0
C971 C 0.20386 0.15018 0.67136 0.0
C972 C 0.18424 0.16866 0.6731 0.0
C973 C 0.19464 0.19396 0.67494 0.0
C974 C 0.22013 0.18936 0.67487 0.0
N975 N 0.24678 0.14139 0.62321 0.0
C976 C 0.23635 0.14018 0.56562 0.0
C977 C 0.24356 0.11623 0.58005 0.0
C978 C 0.24856 0.11724 0.60847 0.0
C979 C 0.23375 0.16469 0.58112 0.0
C980 C 0.23895 0.16484 0.60967 0.0
N981 N 0.27077 0.14538 0.70125 0.0
C982 C 0.27687 0.18048 0.73604 0.0
C983 C 0.30234 0.17363 0.73782 0.0
C984 C 0.30997 0.14862 0.72534 0.0
C985 C 0.29385 0.13464 0.70768 0.0
C986 C 0.26128 0.16514 0.71881 0.0
H987 H 0.30095 0.11607 0.69821 0.0
H988 H 0.24197 0.17095 0.71839 0.0
H989 H 0.2546 0.09836 0.61812 0.0
H990 H 0.23706 0.18416 0.62061 0.0
C991 C 0.30995 0.16417 0.63909 0.0
C992 C 0.23818 0.21101 0.68022 0.0
C993 C 0.28117 0.073 0.66054 0.0
C994 C 0.20249 0.12163 0.67217 0.0
H995 H 0.28196 0.24547 0.67402 0.0
H996 H 0.31872 0.22103 0.64796 0.0
H997 H 0.34579 0.12205 0.6243 0.0
H998 H 0.33003 0.07246 0.63693 0.0
H999 H 0.24123 0.03761 0.67381 0.0
H1000 H 0.19799 0.06371 0.67859 0.0
H1001 H 0.16473 0.16424 0.67372 0.0
H1002 H 0.18462 0.2135 0.67693 0.0
H1003 H 0.24624 0.09675 0.56937 0.0
H1004 H 0.22782 0.18378 0.57131 0.0
H1005 H 0.26895 0.19829 0.74654 0.0
H1006 H 0.32856 0.14017 0.72824 0.0
C1007 C 0.37772 0.77191 0.19819 0.0
C1008 C 0.38605 0.75508 0.21951 0.0
C1009 C 0.40293 0.7364 0.20821 0.0
C1010 C 0.404 0.74273 0.18059 0.0
N1011 N 0.38898 0.76424 0.17404 0.0
Co1012 Co 0.38207 0.77778 0.13609 0.0
N1013 N 0.39701 0.74443 0.11775 0.0
C1014 C 0.41248 0.72618 0.13048 0.0
C1015 C 0.4215 0.70613 0.1128 0.0
C1016 C 0.41141 0.71243 0.08734 0.0
C1017 C 0.39664 0.73602 0.09077 0.0
N1018 N 0.37369 0.7917 0.09843 0.0
C1019 C 0.37375 0.77879 0.07343 0.0
C1020 C 0.36732 0.79727 0.05262 0.0
C1021 C 0.36386 0.82254 0.06466 0.0
C1022 C 0.36817 0.81824 0.09217 0.0
N1023 N 0.36873 0.81212 0.15367 0.0
C1024 C 0.36583 0.83676 0.14135 0.0
C1025 C 0.35734 0.85719 0.15883 0.0
C1026 C 0.35454 0.84454 0.18373 0.0
C1027 C 0.36139 0.81701 0.17986 0.0
N1028 N 0.41551 0.79404 0.13445 0.0
C1029 C 0.46757 0.80178 0.13604 0.0
C1030 C 0.45515 0.79517 0.11137 0.0
C1031 C 0.42939 0.79158 0.11099 0.0
C1032 C 0.45273 0.8066 0.1594 0.0
C1033 C 0.42691 0.80297 0.1581 0.0
N1034 N 0.34957 0.7595 0.13951 0.0
C1035 C 0.30857 0.76059 0.15993 0.0
C1036 C 0.31068 0.73234 0.1665 0.0
C1037 C 0.33148 0.71783 0.15656 0.0
C1038 C 0.35018 0.73143 0.14307 0.0
C1039 C 0.32804 0.77369 0.1461 0.0
H1040 H 0.36603 0.71876 0.13812 0.0
H1041 H 0.32619 0.79557 0.14243 0.0
H1042 H 0.42112 0.78505 0.09187 0.0
H1043 H 0.41639 0.80599 0.17675 0.0
C1044 C 0.41499 0.72652 0.15951 0.0
C1045 C 0.36015 0.79594 0.20119 0.0
C1046 C 0.38372 0.75074 0.06777 0.0
C1047 C 0.36596 0.83838 0.11271 0.0
H1048 H 0.38041 0.75605 0.24084 0.0
H1049 H 0.41232 0.71939 0.21868 0.0
H1050 H 0.4335 0.6886 0.11788 0.0
H1051 H 0.41468 0.70112 0.06837 0.0
H1052 H 0.36649 0.79327 0.0308 0.0
H1053 H 0.35901 0.84179 0.05451 0.0
H1054 H 0.3523 0.87831 0.15372 0.0
H1055 H 0.34768 0.85429 0.20239 0.0
H1056 H 0.46537 0.79126 0.0926 0.0
H1057 H 0.46102 0.8126 0.17884 0.0
H1058 H 0.29236 0.77266 0.16606 0.0
H1059 H 0.3344 0.69609 0.16076 0.0
C1060 C 0.76026 0.17818 0.32242 0.0
C1061 C 0.77794 0.17555 0.30196 0.0
C1062 C 0.80034 0.1712 0.31497 0.0
C1063 C 0.79522 0.17124 0.34264 0.0
N1064 N 0.77086 0.1746 0.348 0.0
Co1065 Co 0.75694 0.18052 0.3858 0.0
N1066 N 0.78888 0.17012 0.4054 0.0
C1067 C 0.81099 0.16682 0.39304 0.0
C1068 C 0.82989 0.16024 0.41122 0.0
C1069 C 0.81912 0.15953 0.43675 0.0
C1070 C 0.79415 0.16576 0.43285 0.0
N1071 N 0.74301 0.18767 0.42358 0.0
C1072 C 0.75227 0.18238 0.44935 0.0
C1073 C 0.73587 0.19131 0.46964 0.0
C1074 C 0.71569 0.20252 0.45645 0.0
C1075 C 0.72081 0.19983 0.42896 0.0
N1076 N 0.72433 0.18999 0.36716 0.0
C1077 C 0.70396 0.20033 0.37984 0.0
C1078 C 0.68423 0.20539 0.36262 0.0
C1079 C 0.69256 0.19847 0.33708 0.0
C1080 C 0.71713 0.18939 0.34012 0.0
N1081 N 0.74789 0.14105 0.38723 0.0
C1082 C 0.73805 0.08386 0.38658 0.0
C1083 C 0.71965 0.10362 0.39414 0.0
C1084 C 0.72502 0.13211 0.3946 0.0
C1085 C 0.7611 0.09354 0.3792 0.0
C1086 C 0.76548 0.12171 0.37941 0.0
N1087 N 0.76792 0.21943 0.38238 0.0
C1088 C 0.77706 0.2517 0.34612 0.0
C1089 C 0.80072 0.2562 0.35714 0.0
C1090 C 0.80572 0.24527 0.38352 0.0
C1091 C 0.78876 0.22775 0.39611 0.0
C1092 C 0.76084 0.23418 0.3594 0.0
H1093 H 0.79369 0.21924 0.41597 0.0
H1094 H 0.74355 0.23095 0.34918 0.0
H1095 H 0.71072 0.14675 0.40085 0.0
H1096 H 0.78343 0.12754 0.37297 0.0
C1097 C 0.81268 0.1683 0.3642 0.0
C1098 C 0.73399 0.18604 0.31658 0.0
C1099 C 0.77655 0.16963 0.45596 0.0
C1100 C 0.70387 0.20514 0.40798 0.0
H1101 H 0.77503 0.17749 0.27994 0.0
H1102 H 0.81829 0.1689 0.30538 0.0
H1103 H 0.8492 0.15623 0.40648 0.0
H1104 H 0.82859 0.15548 0.45614 0.0
H1105 H 0.73814 0.18976 0.49174 0.0
H1106 H 0.6989 0.21075 0.46577 0.0
H1107 H 0.66614 0.21394 0.3679 0.0
H1108 H 0.68192 0.20165 0.31837 0.0
H1109 H 0.70148 0.09711 0.40013 0.0
H1110 H 0.77585 0.0793 0.37293 0.0
H1111 H 0.77139 0.26025 0.32642 0.0
H1112 H 0.82289 0.24956 0.39416 0.0
C1113 C 0.34922 0.2792 0.86477 0.0
C1114 C 0.33173 0.25962 0.86997 0.0
C1115 C 0.34371 0.23874 0.88433 0.0
C1116 C 0.36789 0.24646 0.88693 0.0
N1117 N 0.37188 0.27094 0.87528 0.0
Co1118 Co 0.40503 0.2872 0.86995 0.0
N1119 N 0.42391 0.25316 0.8819 0.0
C1120 C 0.41375 0.23142 0.89412 0.0
C1121 C 0.43081 0.21089 0.90059 0.0
C1122 C 0.4532 0.22033 0.89216 0.0
C1123 C 0.44868 0.24633 0.8811 0.0
N1124 N 0.43787 0.30374 0.86285 0.0
C1125 C 0.46126 0.2923 0.86212 0.0
C1126 C 0.47863 0.31248 0.85822 0.0
C1127 C 0.46593 0.33716 0.85682 0.0
C1128 C 0.44159 0.33093 0.85999 0.0
N1129 N 0.38659 0.32218 0.86041 0.0
C1130 C 0.39626 0.34737 0.86012 0.0
C1131 C 0.37906 0.36812 0.85499 0.0
C1132 C 0.35706 0.35521 0.85165 0.0
C1133 C 0.3622 0.32721 0.85477 0.0
N1134 N 0.40615 0.29951 0.90915 0.0
C1135 C 0.40639 0.30471 0.96766 0.0
C1136 C 0.42846 0.30116 0.9527 0.0
C1137 C 0.42793 0.29838 0.92386 0.0
C1138 C 0.38436 0.30779 0.95205 0.0
C1139 C 0.3847 0.30556 0.92306 0.0
N1140 N 0.40272 0.27303 0.83115 0.0
C1141 C 0.37353 0.27293 0.79296 0.0
C1142 C 0.37478 0.24408 0.79185 0.0
C1143 C 0.39349 0.23064 0.80708 0.0
C1144 C 0.40751 0.24547 0.82614 0.0
C1145 C 0.3886 0.28708 0.81185 0.0
H1146 H 0.42083 0.23358 0.83788 0.0
H1147 H 0.38717 0.30924 0.81202 0.0
H1148 H 0.44526 0.29406 0.91382 0.0
H1149 H 0.36728 0.30745 0.91208 0.0
C1150 C 0.38793 0.22965 0.89578 0.0
C1151 C 0.34385 0.3059 0.85071 0.0
C1152 C 0.46829 0.26367 0.86972 0.0
C1153 C 0.42182 0.35006 0.86006 0.0
H1154 H 0.31248 0.26002 0.86371 0.0
H1155 H 0.33595 0.21952 0.89076 0.0
H1156 H 0.42732 0.19098 0.90946 0.0
H1157 H 0.47074 0.20909 0.8936 0.0
H1158 H 0.49858 0.31003 0.85804 0.0
H1159 H 0.47362 0.35734 0.85445 0.0
H1160 H 0.3823 0.38988 0.85259 0.0
H1161 H 0.33937 0.36516 0.84678 0.0
H1162 H 0.44624 0.29976 0.9631 0.0
H1163 H 0.36663 0.31064 0.96199 0.0
H1164 H 0.36051 0.28434 0.77997 0.0
H1165 H 0.39614 0.20845 0.80577 0.0
C1166 C 0.26577 0.81409 0.36361 0.0
C1167 C 0.28477 0.79445 0.36686 0.0
C1168 C 0.30383 0.80715 0.38036 0.0
C1169 C 0.2959 0.83402 0.38424 0.0
N1170 N 0.27299 0.83903 0.37413 0.0
Co1171 Co 0.25755 0.8766 0.36887 0.0
N1172 N 0.28798 0.8967 0.37982 0.0
C1173 C 0.30824 0.88474 0.39143 0.0
C1174 C 0.32615 0.9033 0.39793 0.0
C1175 C 0.31652 0.92863 0.39004 0.0
C1176 C 0.29322 0.92419 0.37902 0.0
N1177 N 0.24168 0.9138 0.36173 0.0
C1178 C 0.25137 0.93938 0.36003 0.0
C1179 C 0.23295 0.95933 0.35485 0.0
C1180 C 0.21099 0.94616 0.35437 0.0
C1181 C 0.21713 0.91896 0.35893 0.0
N1182 N 0.22617 0.85747 0.36047 0.0
C1183 C 0.20339 0.86931 0.36182 0.0
C1184 C 0.18472 0.85081 0.36077 0.0
C1185 C 0.19643 0.82558 0.35844 0.0
C1186 C 0.22166 0.83025 0.35751 0.0
N1187 N 0.24754 0.87842 0.40859 0.0
C1188 C 0.24144 0.87862 0.46727 0.0
C1189 C 0.24583 0.90293 0.45251 0.0
C1190 C 0.24879 0.9024 0.42358 0.0
C1191 C 0.23903 0.85447 0.45132 0.0
C1192 C 0.24196 0.85483 0.4224 0.0
N1193 N 0.2695 0.87299 0.32955 0.0
C1194 C 0.2711 0.84199 0.28979 0.0
C1195 C 0.29667 0.84568 0.28644 0.0
C1196 C 0.30714 0.86631 0.30269 0.0
C1197 C 0.29334 0.87992 0.32337 0.0
C1198 C 0.25786 0.85626 0.31082 0.0
H1199 H 0.30302 0.89521 0.33478 0.0
H1200 H 0.23846 0.85235 0.31248 0.0
H1201 H 0.25287 0.92147 0.41362 0.0
H1202 H 0.24052 0.83558 0.4114 0.0
C1203 C 0.31073 0.85589 0.39257 0.0
C1204 C 0.24065 0.80872 0.35167 0.0
C1205 C 0.27688 0.94648 0.36747 0.0
C1206 C 0.20034 0.89783 0.36067 0.0
H1207 H 0.28552 0.77343 0.35959 0.0
H1208 H 0.32195 0.79822 0.38513 0.0
H1209 H 0.34437 0.89888 0.40656 0.0
H1210 H 0.3257 0.94809 0.39177 0.0
H1211 H 0.23496 0.98136 0.35307 0.0
H1212 H 0.19266 0.95541 0.35159 0.0
H1213 H 0.16496 0.85519 0.36084 0.0
H1214 H 0.18739 0.80603 0.35685 0.0
H1215 H 0.24729 0.92245 0.46318 0.0
H1216 H 0.23585 0.83491 0.46106 0.0
H1217 H 0.26142 0.82735 0.27707 0.0
H1218 H 0.32621 0.87184 0.29981 0.0
C1219 C 0.67135 0.7711 0.82125 0.0
C1220 C 0.66414 0.75388 0.79999 0.0
C1221 C 0.64884 0.73479 0.81148 0.0
C1222 C 0.64752 0.7413 0.83914 0.0
N1223 N 0.66091 0.76331 0.84546 0.0
Co1224 Co 0.66732 0.77739 0.88321 0.0
N1225 N 0.65629 0.74339 0.90172 0.0
C1226 C 0.64219 0.72439 0.8894 0.0
C1227 C 0.6354 0.70414 0.90731 0.0
C1228 C 0.64542 0.71118 0.93251 0.0
C1229 C 0.65789 0.73541 0.92872 0.0
N1230 N 0.67497 0.7922 0.92066 0.0
C1231 C 0.67666 0.77967 0.94565 0.0
C1232 C 0.68155 0.79876 0.96635 0.0
C1233 C 0.68212 0.82399 0.95419 0.0
C1234 C 0.67775 0.8191 0.92681 0.0
N1235 N 0.67706 0.81212 0.86555 0.0
C1236 C 0.67742 0.83707 0.87765 0.0
C1237 C 0.68377 0.85763 0.85996 0.0
C1238 C 0.68782 0.84472 0.83518 0.0
C1239 C 0.68385 0.81692 0.83936 0.0
N1240 N 0.63215 0.7919 0.8857 0.0
C1241 C 0.5792 0.79961 0.88563 0.0
C1242 C 0.59266 0.79228 0.90968 0.0
C1243 C 0.61873 0.78872 0.90932 0.0
C1244 C 0.59347 0.8046 0.86203 0.0
C1245 C 0.6196 0.80089 0.86254 0.0
N1246 N 0.70163 0.76076 0.87887 0.0
C1247 C 0.74464 0.76377 0.86434 0.0
C1248 C 0.74597 0.73558 0.85648 0.0
C1249 C 0.72479 0.72053 0.86162 0.0
C1250 C 0.70347 0.73311 0.87279 0.0
C1251 C 0.72248 0.77587 0.8755 0.0
H1252 H 0.68787 0.72018 0.87432 0.0
H1253 H 0.72196 0.79766 0.88021 0.0
H1254 H 0.62778 0.78201 0.92808 0.0
H1255 H 0.62955 0.80423 0.8437 0.0
C1256 C 0.63857 0.72464 0.86045 0.0
C1257 C 0.68709 0.79555 0.81833 0.0
C1258 C 0.66946 0.75125 0.95152 0.0
C1259 C 0.67746 0.83912 0.90626 0.0
H1260 H 0.66956 0.75481 0.77861 0.0
H1261 H 0.64083 0.71733 0.80113 0.0
H1262 H 0.62479 0.68613 0.90257 0.0
H1263 H 0.64346 0.70002 0.95158 0.0
H1264 H 0.68326 0.79521 0.98824 0.0
H1265 H 0.68511 0.84362 0.9642 0.0
H1266 H 0.68667 0.87908 0.86487 0.0
H1267 H 0.69361 0.85451 0.8164 0.0
H1268 H 0.58312 0.78804 0.92864 0.0
H1269 H 0.58456 0.81109 0.84297 0.0
H1270 H 0.76041 0.77664 0.86151 0.0
H1271 H 0.72388 0.69906 0.85574 0.0
C1272 C 0.15268 0.52804 0.26143 0.0
C1273 C 0.17514 0.54203 0.25991 0.0
H1274 H 0.13495 0.48891 0.26451 0.0
C1275 C 0.1971 0.52594 0.25696 0.0
H1276 H 0.13548 0.53967 0.26436 0.0
C1277 C 0.19679 0.49685 0.25682 0.0
C1278 C 0.17451 0.48278 0.25982 0.0
H1279 H 0.21476 0.53591 0.25631 0.0
H1280 H 0.21422 0.48528 0.25615 0.0
C1281 C 0.15237 0.49888 0.26144 0.0
C1282 C 0.99987 0.67486 0.75243 0.0
C1283 C 0.98446 0.65203 0.75444 0.0
H1284 H 0.03641 0.69008 0.74965 0.0
C1285 C 0.99599 0.6257 0.7521 0.0
H1286 H 0.99189 0.6955 0.75445 0.0
C1287 C 1.02195 0.62234 0.74861 0.0
C1288 C 0.03777 0.64518 0.7479 0.0
H1289 H 0.98501 0.6075 0.75387 0.0
H1290 H 0.02944 0.60153 0.74685 0.0
C1291 C 0.02582 0.67157 0.74954 0.0
C1292 C 0.87434 0.50036 0.23215 0.0
C1293 C 0.8952 0.48434 0.24066 0.0
H1294 H 0.85788 0.54107 0.22763 0.0
C1295 C 0.91725 0.49813 0.24644 0.0
H1296 H 0.85693 0.49051 0.22821 0.0
C1297 C 0.91786 0.52719 0.24583 0.0
C1298 C 0.89639 0.54326 0.2396 0.0
H1299 H 0.93346 0.48657 0.25372 0.0
H1300 H 0.93453 0.53717 0.25263 0.0
C1301 C 0.87488 0.52939 0.23184 0.0
C1302 C 0.04479 0.35653 0.73968 0.0
C1303 C 0.05856 0.37987 0.73306 0.0
H1304 H 1.009 0.339 0.74453 0.0
C1305 C 0.04494 0.40376 0.72474 0.0
H1306 H 0.05412 0.33775 0.74662 0.0
C1307 C 1.01881 0.40452 0.72376 0.0
C1308 C 1.00507 0.38135 0.73083 0.0
H1309 H 0.05441 0.4221 0.71878 0.0
H1310 H 1.00936 0.42341 0.71728 0.0
C1311 C 1.01863 0.35723 0.7385 0.0
C1312 C 0.14669 0.49009 0.78875 0.0
C1313 C 0.17046 0.47734 0.78723 0.0
H1314 H 0.12499 0.52818 0.78873 0.0
C1315 C 0.19099 0.4946 0.78821 0.0
H1316 H 0.13043 0.47761 0.78743 0.0
C1317 C 0.18785 0.5236 0.78888 0.0
C1318 C 0.1641 0.53642 0.78891 0.0
H1319 H 0.20953 0.48567 0.78658 0.0
H1320 H 0.20407 0.53609 0.78755 0.0
C1321 C 0.14355 0.51916 0.7896 0.0
C1322 C 1.02061 0.62162 0.31433 0.0
C1323 C 1.00626 0.6438 0.30343 0.0
H1324 H 0.05669 0.60463 0.324 0.0
C1325 C 1.01903 0.66682 0.29397 0.0
H1326 H 1.01169 0.60368 0.32232 0.0
C1327 C 0.04514 0.6673 0.29469 0.0
C1328 C 0.05955 0.64483 0.30504 0.0
H1329 H 1.00889 0.68422 0.28507 0.0
H1330 H 0.054 0.68505 0.28625 0.0
C1331 C 0.04667 0.62216 0.31522 0.0
C1332 C 0.88074 0.51635 0.82143 0.0
C1333 C 0.89943 0.53189 0.80912 0.0
H1334 H 0.8639 0.4768 0.82535 0.0
C1335 C 0.91743 0.51704 0.79352 0.0
H1336 H 0.86669 0.52633 0.83405 0.0
C1337 C 0.91622 0.48837 0.78951 0.0
C1338 C 0.89683 0.47337 0.80055 0.0
H1339 H 0.9319 0.52757 0.78299 0.0
H1340 H 0.92963 0.47814 0.77617 0.0
C1341 C 0.87933 0.48765 0.81695 0.0
C1342 C 1.01912 0.36724 0.30716 0.0
C1343 C 1.00542 0.3915 0.314 0.0
H1344 H 0.05471 0.34741 0.30135 0.0
C1345 C 1.01902 0.41466 0.32197 0.0
H1346 H 1.00965 0.349 0.30045 0.0
C1347 C 0.04517 0.41371 0.32271 0.0
C1348 C 0.05893 0.38959 0.31533 0.0
H1349 H 1.00945 0.43368 0.32783 0.0
H1350 H 0.05456 0.43204 0.32924 0.0
C1351 C 0.04526 0.36632 0.30774 0.0
C1352 C 0.23927 0.16183 0.51808 0.0
C1353 C 0.23255 0.13955 0.53468 0.0
H1354 H 0.24351 0.17776 0.47729 0.0
C1355 C 0.2232 0.11613 0.52122 0.0
H1356 H 0.24691 0.18009 0.52733 0.0
C1357 C 0.22132 0.11475 0.49227 0.0
C1358 C 0.22858 0.13678 0.47567 0.0
H1359 H 0.2173 0.09869 0.53303 0.0
H1360 H 0.21413 0.0963 0.48292 0.0
C1361 C 0.23731 0.16048 0.48914 0.0
C1362 C 0.36478 0.73347 0.99353 0.0
C1363 C 0.38592 0.7403 0.97845 0.0
H1364 H 0.34762 0.73101 0.03336 0.0
C1365 C 0.4076 0.74605 0.99359 0.0
H1366 H 0.34757 0.72974 0.98271 0.0
C1367 C 0.40764 0.74672 0.02278 0.0
C1368 C 0.38599 0.74174 0.03777 0.0
H1369 H 0.424 0.75221 0.98282 0.0
H1370 H 0.42411 0.75326 0.03358 0.0
C1371 C 0.36479 0.73428 0.02266 0.0
C1372 C 0.79082 0.89565 0.47897 0.0
C1373 C 0.78827 0.86944 0.46698 0.0
H1374 H 0.7964 0.91946 0.5156 0.0
C1375 C 0.79054 0.84639 0.48441 0.0
H1376 H 0.78905 0.91391 0.46628 0.0
C1377 C 0.79365 0.84949 0.51312 0.0
C1378 C 0.79524 0.87582 0.52559 0.0
H1379 H 0.78852 0.82588 0.47593 0.0
H1380 H 0.79367 0.83103 0.52549 0.0
C1381 C 0.79454 0.89878 0.50764 0.0
C1382 C 0.69351 0.2812 0.02463 0.0
C1383 C 0.67263 0.2765 0.04106 0.0
H1384 H 0.70866 0.28314 0.98369 0.0
C1385 C 0.64975 0.27348 0.02727 0.0
H1386 H 0.71153 0.28302 0.03434 0.0
C1387 C 0.64809 0.27374 0.9981 0.0
C1388 C 0.66926 0.27693 0.98171 0.0
H1389 H 0.63338 0.26915 0.03902 0.0
H1390 H 0.63046 0.26974 0.98828 0.0
C1391 C 0.69189 0.28122 0.9955 0.0
C1392 C 0.25435 0.89669 0.51501 0.0
C1393 C 0.24058 0.87815 0.4988 0.0
H1394 H 0.26786 0.9079 0.55535 0.0
C1395 C 0.2272 0.85822 0.51322 0.0
H1396 H 0.26532 0.91213 0.5053 0.0
C1397 C 0.22876 0.85589 0.54225 0.0
C1398 C 0.24343 0.87363 0.55809 0.0
H1399 H 0.21594 0.84377 0.50208 0.0
H1400 H 0.21953 0.83917 0.55221 0.0
C1401 C 0.25574 0.89444 0.54402 0.0
C1402 C 0.68905 0.74077 0.02666 0.0
C1403 C 0.66662 0.7453 0.04078 0.0
H1404 H 0.70741 0.73806 0.98747 0.0
C1405 C 0.64462 0.74704 0.02496 0.0
H1406 H 0.70637 0.73994 0.03809 0.0
C1407 C 0.6452 0.74605 0.99582 0.0
C1408 C 0.66782 0.74315 0.98164 0.0
H1409 H 0.6271 0.75118 0.03507 0.0
H1410 H 0.62814 0.74967 0.98433 0.0
C1411 C 0.68963 0.73957 0.99759 0.0
C1412 C 0.77554 0.14153 0.52994 0.0
C1413 C 0.78268 0.16439 0.54595 0.0
H1414 H 0.76846 0.125 0.4893 0.0
C1415 C 0.79134 0.18738 0.53162 0.0
H1416 H 0.76806 0.1238 0.54004 0.0
C1417 C 0.7918 0.18797 0.50239 0.0
C1418 C 0.78343 0.16567 0.48636 0.0
H1419 H 0.79629 0.20568 0.54303 0.0
H1420 H 0.79701 0.20674 0.49228 0.0
C1421 C 0.77581 0.14221 0.50072 0.0
C1422 C 0.38554 0.31133 0.04341 0.0
C1423 C 0.40355 0.29504 0.05732 0.0
H1424 H 0.37258 0.32817 1.00496 0.0
C1425 C 0.42353 0.28404 0.04209 0.0
H1426 H 0.36967 0.31963 0.0545 0.0
C1427 C 0.42483 0.28793 1.01346 0.0
C1428 C 0.4063 0.30333 0.99897 0.0
H1429 H 0.43732 0.27076 0.05209 0.0
H1430 H 0.43977 0.27742 1.00264 0.0
C1431 C 0.38703 0.31568 1.01475 0.0
C1432 C 0.55255 0.22267 0.16393 0.0
C1433 C 0.56562 0.21586 0.1396 0.0
H1434 H 0.51736 0.22925 0.18359 0.0
C1435 C 0.55134 0.20898 0.11614 0.0
H1436 H 0.56242 0.22863 0.18243 0.0
C1437 C 0.52522 0.20957 0.11679 0.0
C1438 C 0.5122 0.21688 0.14097 0.0
H1439 H 0.5603 0.20304 0.09706 0.0
H1440 H 0.51521 0.20418 0.09819 0.0
C1441 C 0.52642 0.22309 0.16462 0.0
C1442 C 0.53701 0.79466 0.86112 0.0
C1443 C 0.55079 0.8012 0.8851 0.0
H1444 H 0.50138 0.78901 0.84214 0.0
C1445 C 0.53692 0.80846 0.9088 0.0
H1446 H 0.54649 0.78848 0.84242 0.0
C1447 C 0.51069 0.80877 0.90863 0.0
C1448 C 0.49692 0.80183 0.88477 0.0
H1449 H 0.54629 0.81421 0.92768 0.0
H1450 H 0.50123 0.81473 0.9274 0.0
C1451 C 0.51077 0.79498 0.86095 0.0
C1452 C 0.7159 1.01155 0.36773 0.0
C1453 C 0.73341 0.99439 0.38172 0.0
H1454 H 0.70301 0.05318 0.35887 0.0
C1455 C 0.7511 1.00724 0.39858 0.0
H1456 H 0.70191 1.00254 0.35467 0.0
C1457 C 0.75169 0.03603 0.40094 0.0
C1458 C 0.7345 0.05322 0.38676 0.0
H1459 H 0.76517 0.99505 0.40941 0.0
H1460 H 0.76609 0.04497 0.41351 0.0
C1461 C 0.71631 0.04059 0.3704 0.0
C1462 C 0.50768 0.24826 0.8958 0.0
C1463 C 0.49564 0.25504 0.87076 0.0
H1464 H 0.54161 0.23832 0.91703 0.0
C1465 C 0.51046 0.25666 0.84711 0.0
H1466 H 0.49709 0.24721 0.9146 0.0
C1467 C 0.53644 0.25277 0.84859 0.0
C1468 C 0.5488 0.24652 0.87376 0.0
H1469 H 0.50197 0.26212 0.82749 0.0
H1470 H 0.54674 0.25572 0.82989 0.0
C1471 C 0.53362 0.24373 0.89722 0.0
C1472 C 0.29186 0.98949 0.34359 0.0
C1473 C 0.28354 0.97679 0.36772 0.0
H1474 H 0.29712 0.02742 0.32172 0.0
C1475 C 0.27664 0.99418 0.38996 0.0
H1476 H 0.29674 0.97693 0.32582 0.0
C1477 C 0.27672 0.02327 0.38757 0.0
C1478 C 0.28378 0.03598 0.36287 0.0
H1479 H 0.26954 0.98527 0.40861 0.0
H1480 H 0.26962 0.03584 0.40441 0.0
C1481 C 0.29211 0.01854 0.34126 0.0
C1482 C 0.53503 0.79169 0.16164 0.0
C1483 C 0.54904 0.80003 0.13887 0.0
H1484 H 0.49908 0.7854 0.17866 0.0
C1485 C 0.53576 0.81013 0.11563 0.0
H1486 H 0.5442 0.78338 0.17984 0.0
C1487 C 0.50965 0.81123 0.11494 0.0
C1488 C 0.49564 0.80237 0.13748 0.0
H1489 H 0.54552 0.81737 0.09781 0.0
H1490 H 0.50044 0.81919 0.0966 0.0
C1491 C 0.50889 0.79286 0.16096 0.0
C1492 C 0.74441 0.99724 0.6755 0.0
C1493 C 0.74408 0.98065 0.65161 0.0
H1494 H 0.74384 0.03768 0.69294 0.0
C1495 C 0.73927 0.99385 0.62627 0.0
H1496 H 0.74854 0.9879 0.69532 0.0
C1497 C 0.73604 0.02282 0.62476 0.0
C1498 C 0.73805 0.03982 0.6485 0.0
H1499 H 0.73927 0.98189 0.60736 0.0
H1500 H 0.7326 0.03177 0.60468 0.0
C1501 C 0.7417 0.02616 0.67399 0.0
C1502 C 0.29455 0.03068 0.63218 0.0
C1503 C 0.28966 0.04292 0.65803 0.0
H1504 H 0.30312 0.99382 0.60919 0.0
C1505 C 0.29049 0.02563 0.68127 0.0
H1506 H 0.29384 0.0432 0.61375 0.0
C1507 C 0.29517 0.99697 0.67869 0.0
C1508 C 0.29946 0.98437 0.65272 0.0
H1509 H 0.28661 0.03421 0.70148 0.0
H1510 H 0.29442 0.98462 0.69715 0.0
C1511 C 0.29952 1.00204 0.62958 0.0
C1512 C 0.22212 0.2745 0.29988 0.0
C1513 C 0.19961 0.28468 0.31101 0.0
H1514 H 0.25003 0.24161 0.2995 0.0
C1515 C 0.18854 0.26899 0.33162 0.0
H1516 H 0.23141 0.2863 0.2844 0.0
C1517 C 0.19977 0.24428 0.34121 0.0
C1518 C 0.22203 0.23373 0.32983 0.0
H1519 H 0.17147 0.2764 0.34102 0.0
H1520 H 0.19064 0.2329 0.35715 0.0
C1521 C 0.23308 0.24922 0.30898 0.0
C1522 C 0.28321 0.68764 0.84537 0.0
C1523 C 0.28904 0.71416 0.8361 0.0
H1524 H 0.2625 0.65113 0.83929 0.0
C1525 C 0.2769 0.72376 0.81191 0.0
H1526 H 0.29189 0.67932 0.86387 0.0
C1527 C 0.25976 0.70724 0.79749 0.0
C1528 C 0.25399 0.68071 0.80698 0.0
H1529 H 0.28098 0.74385 0.8038 0.0
H1530 H 0.25063 0.71549 0.77921 0.0
C1531 C 0.26614 0.67134 0.83118 0.0
C1532 C 0.82465 0.72377 0.29758 0.0
C1533 C 0.84974 0.72981 0.29386 0.0
H1534 H 0.78927 0.73649 0.31359 0.0
C1535 C 0.85756 0.75598 0.30208 0.0
H1536 H 0.81821 0.70349 0.29266 0.0
C1537 C 0.84095 0.77499 0.31478 0.0
C1538 C 0.81606 0.76834 0.31975 0.0
H1539 H 0.87687 0.76105 0.30041 0.0
H1540 H 0.84786 0.79465 0.32148 0.0
C1541 C 0.80804 0.74272 0.31005 0.0
C1542 C 0.80281 0.30573 0.81721 0.0
C1543 C 0.7966 0.33182 0.80586 0.0
H1544 H 0.79091 0.27084 0.84025 0.0
C1545 C 0.77192 0.34149 0.80776 0.0
H1546 H 0.8216 0.29745 0.81588 0.0
C1547 C 0.75434 0.32624 0.82198 0.0
C1548 C 0.76082 0.30071 0.83443 0.0
H1549 H 0.76644 0.3614 0.79933 0.0
H1550 H 0.73564 0.33473 0.82364 0.0
C1551 C 0.78517 0.29033 0.8311 0.0
C1552 C 0.23012 0.73373 0.70546 0.0
C1553 C 0.22374 0.76203 0.7058 0.0
H1554 H 0.2202 0.69291 0.71609 0.0
C1555 C 0.20276 0.77036 0.72151 0.0
H1556 H 0.2457 0.72602 0.69354 0.0
C1557 C 0.18795 0.751 0.73481 0.0
C1558 C 0.19383 0.72262 0.73333 0.0
H1559 H 0.19724 0.79192 0.72299 0.0
H1560 H 0.1711 0.75823 0.74471 0.0
C1561 C 0.21545 0.71453 0.71883 0.0
C1562 C 0.7661 0.72321 0.21272 0.0
C1563 C 0.76087 0.71809 0.18458 0.0
H1564 H 0.78717 0.71135 0.24896 0.0
C1565 C 0.77325 0.69537 0.17207 0.0
H1566 H 0.75679 0.74017 0.22336 0.0
C1567 C 0.79012 0.67852 0.18691 0.0
C1568 C 0.79573 0.68379 0.21485 0.0
H1569 H 0.77025 0.69065 0.15049 0.0
H1570 H 0.79906 0.66136 0.1762 0.0
C1571 C 0.78323 0.7063 0.22763 0.0
C1572 C 0.8408 0.25456 0.69792 0.0
C1573 C 0.81566 0.26284 0.694 0.0
H1574 H 0.87701 0.26527 0.71296 0.0
C1575 C 0.80779 0.28812 0.70583 0.0
H1576 H 0.8477 0.2351 0.68961 0.0
C1577 C 0.82459 0.30507 0.71964 0.0
C1578 C 0.84984 0.29735 0.72262 0.0
H1579 H 0.78886 0.29565 0.70319 0.0
H1580 H 0.81807 0.32517 0.72654 0.0
C1581 C 0.85763 0.27158 0.71193 0.0
C1582 C 0.27561 0.30949 0.23598 0.0
C1583 C 0.26703 0.33609 0.22817 0.0
H1584 H 0.29935 0.2742 0.2264 0.0
C1585 C 0.27631 0.34713 0.20367 0.0
H1586 H 0.26866 0.30015 0.25449 0.0
C1587 C 0.29375 0.33236 0.18769 0.0
C1588 C 0.30227 0.30576 0.1953 0.0
H1589 H 0.27016 0.36746 0.19691 0.0
H1590 H 0.30077 0.34189 0.1693 0.0
C1591 C 0.29286 0.29441 0.21963 0.0
C1592 C 0.33336 0.21084 0.22222 0.0
C1593 C 0.35805 0.21414 0.23088 0.0
H1594 H 0.29816 0.19378 0.22984 0.0
C1595 C 0.36504 0.20393 0.25698 0.0
H1596 H 0.32753 0.21738 0.20185 0.0
C1597 C 0.34795 0.19005 0.27342 0.0
C1598 C 0.32346 0.18558 0.26409 0.0
H1599 H 0.38404 0.20521 0.26401 0.0
H1600 H 0.35421 0.18227 0.29324 0.0
C1601 C 0.31643 0.19689 0.23839 0.0
C1602 C 0.32601 0.79514 0.78068 0.0
C1603 C 0.34958 0.80486 0.78782 0.0
H1604 H 0.29451 0.79831 0.7529 0.0
C1605 C 0.35863 0.82689 0.77249 0.0
H1606 H 0.31817 0.77871 0.7925 0.0
C1607 C 0.34435 0.83941 0.75139 0.0
C1608 C 0.32107 0.82935 0.74364 0.0
H1609 H 0.37638 0.83536 0.77781 0.0
H1610 H 0.352 0.8564 0.7402 0.0
C1611 C 0.31211 0.80693 0.75856 0.0
C1612 C 0.70835 0.81162 0.28131 0.0
C1613 C 0.72429 0.83386 0.27708 0.0
H1614 H 0.68039 0.78605 0.26475 0.0
C1615 C 0.72851 0.84106 0.24948 0.0
H1616 H 0.7045 0.80488 0.30204 0.0
C1617 C 0.71739 0.82675 0.22744 0.0
C1618 C 0.69919 0.80682 0.23181 0.0
H1619 H 0.73892 0.85891 0.24446 0.0
H1620 H 0.72163 0.83309 0.20668 0.0
C1621 C 0.69504 0.79954 0.25941 0.0
C1622 C 0.7318 0.19365 0.76733 0.0
C1623 C 0.72694 0.20278 0.74023 0.0
H1624 H 0.72492 0.1987 0.81062 0.0
C1625 C 0.71035 0.22583 0.73751 0.0
H1626 H 0.7431 0.17532 0.77104 0.0
C1627 C 0.69719 0.23708 0.76022 0.0
C1628 C 0.7018 0.22776 0.78731 0.0
H1629 H 0.70593 0.23391 0.71723 0.0
H1630 H 0.68227 0.25169 0.75586 0.0
C1631 C 0.72041 0.2067 0.79032 0.0
C1632 C 0.82469 0.80395 0.72186 0.0
C1633 C 0.81414 0.79677 0.69616 0.0
H1634 H 0.84804 0.7923 0.75596 0.0
C1635 C 0.81773 0.76946 0.687 0.0
H1636 H 0.82302 0.82495 0.72933 0.0
C1637 C 0.83216 0.75034 0.70257 0.0
C1638 C 0.84406 0.75803 0.72753 0.0
H1639 H 0.81066 0.76322 0.66705 0.0
H1640 H 0.83444 0.72961 0.6945 0.0
C1641 C 0.83937 0.78506 0.7372 0.0
C1642 C 0.77423 0.30314 0.21639 0.0
C1643 C 0.76656 0.31082 0.18953 0.0
H1644 H 0.79595 0.31307 0.25249 0.0
C1645 C 0.7753 0.3357 0.17902 0.0
H1646 H 0.76767 0.28435 0.22538 0.0
C1647 C 0.79143 0.35207 0.1945 0.0
C1648 C 0.79913 0.3445 0.22131 0.0
H1649 H 0.76991 0.34241 0.15851 0.0
H1650 H 0.79812 0.3707 0.18531 0.0
C1651 C 0.79012 0.31986 0.23214 0.0
C1652 C 0.20132 0.25668 0.73207 0.0
C1653 C 0.20791 0.28377 0.72563 0.0
H1654 H 0.20763 0.21329 0.72573 0.0
C1655 C 0.22686 0.28633 0.70589 0.0
H1656 H 0.18598 0.25292 0.74545 0.0
C1657 C 0.23643 0.26342 0.69095 0.0
C1658 C 0.23006 0.23631 0.69752 0.0
H1659 H 0.23284 0.30658 0.7001 0.0
H1660 H 0.24746 0.26759 0.67315 0.0
C1661 C 0.21316 0.23356 0.71946 0.0
C1662 C 0.27384 0.67446 0.19821 0.0
C1663 C 0.26325 0.68679 0.22189 0.0
H1664 H 0.2953 0.67901 0.16188 0.0
C1665 C 0.2674 0.71511 0.22634 0.0
H1666 H 0.27172 0.65279 0.19385 0.0
C1667 C 0.28187 0.73028 0.20798 0.0
C1668 C 0.29257 0.71767 0.18449 0.0
H1669 H 0.25935 0.7257 0.24394 0.0
H1670 H 0.28519 0.75171 0.21261 0.0
C1671 C 0.28786 0.68962 0.1798 0.0
C1672 C 0.86275 0.28176 0.32945 0.0
C1673 C 0.85501 0.30376 0.31231 0.0
H1674 H 0.85206 0.24958 0.35686 0.0
C1675 C 0.82944 0.30889 0.30902 0.0
H1676 H 0.88231 0.27784 0.3333 0.0
C1677 C 0.81207 0.29344 0.3231 0.0
C1678 C 0.8196 0.27209 0.34122 0.0
H1679 H 0.82281 0.32623 0.29697 0.0
H1680 H 0.7927 0.29934 0.32071 0.0
C1681 C 0.84531 0.26607 0.3436 0.0
C1682 C 0.30118 0.33579 0.7937 0.0
C1683 C 0.27764 0.33645 0.806 0.0
H1684 H 0.34004 0.32577 0.79796 0.0
C1685 C 0.27586 0.32418 0.83234 0.0
H1686 H 0.30373 0.3451 0.77373 0.0
C1687 C 0.29687 0.31301 0.84631 0.0
C1688 C 0.32045 0.31315 0.83431 0.0
H1689 H 0.25819 0.32358 0.8426 0.0
H1690 H 0.29474 0.30542 0.86707 0.0
C1691 C 0.32215 0.32451 0.80765 0.0
C1692 C 0.23877 0.75597 0.34344 0.0
C1693 C 0.23262 0.78318 0.33538 0.0
H1694 H 0.23318 0.71274 0.33773 0.0
C1695 C 0.21502 0.78619 0.31366 0.0
H1696 H 0.2509 0.75196 0.36084 0.0
C1697 C 0.20205 0.76359 0.30296 0.0
C1698 C 0.20795 0.73638 0.31125 0.0
H1699 H 0.20961 0.80659 0.30643 0.0
H1700 H 0.18632 0.76807 0.28974 0.0
C1701 C 0.22762 0.73314 0.33066 0.0
C1702 C 0.80534 0.72257 0.81301 0.0
C1703 C 0.80996 0.69395 0.8159 0.0
H1704 H 0.782 0.75801 0.82273 0.0
C1705 C 0.79349 0.67933 0.83215 0.0
H1706 H 0.81801 0.7347 0.80133 0.0
C1707 C 0.77333 0.6928 0.84537 0.0
C1708 C 0.76844 0.72155 0.84264 0.0
H1709 H 0.79696 0.65756 0.83583 0.0
H1710 H 0.76204 0.68048 0.8585 0.0
C1711 C 0.78486 0.73608 0.8259 0.0
C1712 C 0.70713 0.82426 0.74931 0.0
C1713 C 0.7314 0.83294 0.75548 0.0
H1714 H 0.67416 0.80523 0.76382 0.0
C1715 C 0.74195 0.82414 0.78076 0.0
H1716 H 0.69833 0.82963 0.72987 0.0
C1717 C 0.72823 0.80908 0.79975 0.0
C1718 C 0.70346 0.80222 0.79434 0.0
H1719 H 0.76034 0.83016 0.78678 0.0
H1720 H 0.73646 0.80456 0.81972 0.0
C1721 C 0.69332 0.80942 0.76851 0.0
C1722 C 0.705 0.18315 0.27516 0.0
C1723 C 0.72505 0.19582 0.28834 0.0
H1724 H 0.6787 0.18385 0.24163 0.0
C1725 C 0.7343 0.21968 0.27603 0.0
H1726 H 0.69725 0.16492 0.28404 0.0
C1727 C 0.72391 0.23029 0.2512 0.0
C1728 C 0.70365 0.21769 0.23831 0.0
H1729 H 0.74946 0.23027 0.28574 0.0
H1730 H 0.73198 0.24808 0.24181 0.0
C1731 C 0.69411 0.19427 0.25104 0.0
C1732 C 0.34606 0.19104 0.74409 0.0
C1733 C 0.32081 0.19228 0.75162 0.0
H1734 H 0.38268 0.20608 0.75078 0.0
C1735 C 0.31359 0.21219 0.7716 0.0
H1736 H 0.35267 0.17698 0.72825 0.0
C1737 C 0.33091 0.22981 0.78363 0.0
C1738 C 0.35606 0.22777 0.77651 0.0
H1739 H 0.29466 0.21401 0.77855 0.0
H1740 H 0.32478 0.24442 0.79928 0.0
C1741 C 0.36341 0.20815 0.75665 0.0
C1742 C 0.30262 0.82043 0.24045 0.0
C1743 C 0.31235 0.82907 0.26601 0.0
H1744 H 0.30997 0.80312 0.2005 0.0
C1745 C 0.33769 0.82259 0.27138 0.0
H1746 H 0.28347 0.82505 0.23507 0.0
C1747 C 0.35293 0.80946 0.25142 0.0
C1748 C 0.34336 0.80213 0.22543 0.0
H1749 H 0.34602 0.82831 0.29089 0.0
H1750 H 0.37253 0.80657 0.25574 0.0
C1751 C 0.31787 0.80744 0.22055 0.0
loop_
_geom_bond_atom_site_label_1
_geom_bond_atom_site_label_2
_geom_bond_distance
_geom_bond_site_symmetry_2
_ccdc_geom_bond_type
C0 C1 1.443 . S
C0 N4 1.376 . S
C0 C38 1.389 . S
C1 C0 1.443 . S
C1 C2 1.340 . S
C1 H41 0.951 . S
C2 C1 1.340 . S
C2 C3 1.439 . S
C2 H42 0.950 . S
C3 C2 1.439 . S
C3 N4 1.374 . S
C3 C37 1.395 . S
N4 C0 1.376 . S
N4 C3 1.374 . S
N4 Co5 2.008 . S
Co5 N4 2.008 . S
Co5 N6 1.995 . S
Co5 N11 2.008 . S
Co5 N16 1.995 . S
Co5 N21 2.282 . S
Co5 N27 2.282 . S
N6 Co5 1.995 . S
N6 C7 1.376 . S
N6 C10 1.383 . S
C7 N6 1.376 . S
C7 C8 1.446 . S
C7 C37 1.391 . S
C8 C7 1.446 . S
C8 C9 1.339 . S
C8 H43 0.949 . S
C9 C8 1.339 . S
C9 C10 1.439 . S
C9 H44 0.950 . S
C10 N6 1.383 . S
C10 C9 1.439 . S
C10 C39 1.392 . S
N11 Co5 2.008 . S
N11 C12 1.376 . S
N11 C15 1.374 . S
C12 N11 1.376 . S
C12 C13 1.443 . S
C12 C39 1.389 . S
C13 C12 1.443 . S
C13 C14 1.340 . S
C13 H45 0.951 . S
C14 C13 1.340 . S
C14 C15 1.439 . S
C14 H46 0.950 . S
C15 N11 1.374 . S
C15 C14 1.439 . S
C15 C40 1.395 . S
N16 Co5 1.995 . S
N16 C17 1.376 . S
N16 C20 1.383 . S
C17 N16 1.376 . S
C17 C18 1.446 . S
C17 C40 1.391 . S
C18 C17 1.446 . S
C18 C19 1.339 . S
C18 H47 0.949 . S
C19 C18 1.339 . S
C19 C20 1.439 . S
C19 H48 0.950 . S
C20 N16 1.383 . S
C20 C19 1.439 . S
C20 C38 1.392 . S
N21 Co5 2.282 . S
N21 C24 1.332 . S
N21 C26 1.332 . S
C22 C23 1.386 . S
C22 C25 1.388 . S
C23 C22 1.386 . S
C23 C24 1.382 . S
C23 H49 0.950 . S
C24 N21 1.332 . S
C24 C23 1.382 . S
C24 H35 0.952 . S
C25 C22 1.388 . S
C25 C26 1.382 . S
C25 H50 0.950 . S
C26 N21 1.332 . S
C26 C25 1.382 . S
C26 H36 0.948 . S
N27 Co5 2.282 . S
N27 C31 1.332 . S
N27 C32 1.332 . S
C28 C29 1.388 . S
C28 C32 1.382 . S
C28 H51 0.950 . S
C29 C28 1.388 . S
C29 C30 1.386 . S
C30 C29 1.386 . S
C30 C31 1.382 . S
C30 H52 0.950 . S
C31 N27 1.332 . S
C31 C30 1.382 . S
C31 H33 0.952 . S
C32 N27 1.332 . S
C32 C28 1.382 . S
C32 H34 0.948 . S
H33 C31 0.952 . S
H34 C32 0.948 . S
H35 C24 0.952 . S
H36 C26 0.948 . S
C37 C3 1.395 . S
C37 C7 1.391 . S
C38 C0 1.389 . S
C38 C20 1.392 . S
C39 C10 1.392 . S
C39 C12 1.389 . S
C40 C15 1.395 . S
C40 C17 1.391 . S
H41 C1 0.951 . S
H42 C2 0.950 . S
H43 C8 0.949 . S
H44 C9 0.950 . S
H45 C13 0.951 . S
H46 C14 0.950 . S
H47 C18 0.949 . S
H48 C19 0.950 . S
H49 C23 0.950 . S
H50 C25 0.950 . S
H51 C28 0.950 . S
H52 C30 0.950 . S
C53 C54 1.443 . S
C53 N57 1.376 . S
C53 C91 1.389 . S
C54 C53 1.443 . S
C54 C55 1.340 . S
C54 H94 0.951 . S
C55 C54 1.340 . S
C55 C56 1.439 . S
C55 H95 0.950 . S
C56 C55 1.439 . S
C56 N57 1.374 . S
C56 C90 1.395 . S
N57 C53 1.376 . S
N57 C56 1.374 . S
N57 Co58 2.008 . S
Co58 N57 2.008 . S
Co58 N59 1.995 . S
Co58 N64 2.008 . S
Co58 N69 1.995 . S
Co58 N74 2.282 . S
Co58 N80 2.282 . S
N59 Co58 1.995 . S
N59 C60 1.376 . S
N59 C63 1.383 . S
C60 N59 1.376 . S
C60 C61 1.446 . S
C60 C90 1.391 . S
C61 C60 1.446 . S
C61 C62 1.339 . S
C61 H96 0.949 . S
C62 C61 1.339 . S
C62 C63 1.439 . S
C62 H97 0.950 . S
C63 N59 1.383 . S
C63 C62 1.439 . S
C63 C92 1.392 . S
N64 Co58 2.008 . S
N64 C65 1.376 . S
N64 C68 1.374 . S
C65 N64 1.376 . S
C65 C66 1.443 . S
C65 C92 1.389 . S
C66 C65 1.443 . S
C66 C67 1.340 . S
C66 H98 0.951 . S
C67 C66 1.340 . S
C67 C68 1.439 . S
C67 H99 0.950 . S
C68 N64 1.374 . S
C68 C67 1.439 . S
C68 C93 1.395 . S
N69 Co58 1.995 . S
N69 C70 1.376 . S
N69 C73 1.383 . S
C70 N69 1.376 . S
C70 C71 1.446 . S
C70 C93 1.391 . S
C71 C70 1.446 . S
C71 C72 1.339 . S
C71 H100 0.949 . S
C72 C71 1.339 . S
C72 C73 1.439 . S
C72 H101 0.950 . S
C73 N69 1.383 . S
C73 C72 1.439 . S
C73 C91 1.392 . S
N74 Co58 2.282 . S
N74 C77 1.332 . S
N74 C79 1.332 . S
C75 C76 1.386 . S
C75 C78 1.388 . S
C76 C75 1.386 . S
C76 C77 1.382 . S
C76 H102 0.950 . S
C77 N74 1.332 . S
C77 C76 1.382 . S
C77 H88 0.952 . S
C78 C75 1.388 . S
C78 C79 1.382 . S
C78 H103 0.950 . S
C79 N74 1.332 . S
C79 C78 1.382 . S
C79 H89 0.948 . S
N80 Co58 2.282 . S
N80 C84 1.332 . S
N80 C85 1.332 . S
C81 C82 1.388 . S
C81 C85 1.382 . S
C81 H104 0.950 . S
C82 C81 1.388 . S
C82 C83 1.386 . S
C83 C82 1.386 . S
C83 C84 1.382 . S
C83 H105 0.950 . S
C84 N80 1.332 . S
C84 C83 1.382 . S
C84 H86 0.952 . S
C85 N80 1.332 . S
C85 C81 1.382 . S
C85 H87 0.948 . S
H86 C84 0.952 . S
H87 C85 0.948 . S
H88 C77 0.952 . S
H89 C79 0.948 . S
C90 C56 1.395 . S
C90 C60 1.391 . S
C91 C53 1.389 . S
C91 C73 1.392 . S
C92 C63 1.392 . S
C92 C65 1.389 . S
C93 C68 1.395 . S
C93 C70 1.391 . S
H94 C54 0.951 . S
H95 C55 0.950 . S
H96 C61 0.949 . S
H97 C62 0.950 . S
H98 C66 0.951 . S
H99 C67 0.950 . S
H100 C71 0.949 . S
H101 C72 0.950 . S
H102 C76 0.950 . S
H103 C78 0.950 . S
H104 C81 0.950 . S
H105 C83 0.950 . S
C106 C107 1.443 . S
C106 N110 1.376 . S
C106 C144 1.389 . S
C107 C106 1.443 . S
C107 C108 1.340 . S
C107 H147 0.951 . S
C108 C107 1.340 . S
C108 C109 1.439 . S
C108 H148 0.950 . S
C109 C108 1.439 . S
C109 N110 1.374 . S
C109 C143 1.395 . S
N110 C106 1.376 . S
N110 C109 1.374 . S
N110 Co111 2.008 . S
Co111 N110 2.008 . S
Co111 N112 1.995 . S
Co111 N117 2.008 . S
Co111 N122 1.995 . S
Co111 N127 2.282 . S
Co111 N133 2.282 . S
N112 Co111 1.995 . S
N112 C113 1.376 . S
N112 C116 1.383 . S
C113 N112 1.376 . S
C113 C114 1.446 . S
C113 C143 1.391 . S
C114 C113 1.446 . S
C114 C115 1.339 . S
C114 H149 0.949 . S
C115 C114 1.339 . S
C115 C116 1.439 . S
C115 H150 0.950 . S
C116 N112 1.383 . S
C116 C115 1.439 . S
C116 C145 1.392 . S
N117 Co111 2.008 . S
N117 C118 1.376 . S
N117 C121 1.374 . S
C118 N117 1.376 . S
C118 C119 1.443 . S
C118 C145 1.389 . S
C119 C118 1.443 . S
C119 C120 1.340 . S
C119 H151 0.951 . S
C120 C119 1.340 . S
C120 C121 1.439 . S
C120 H152 0.950 . S
C121 N117 1.374 . S
C121 C120 1.439 . S
C121 C146 1.395 . S
N122 Co111 1.995 . S
N122 C123 1.376 . S
N122 C126 1.383 . S
C123 N122 1.376 . S
C123 C124 1.446 . S
C123 C146 1.391 . S
C124 C123 1.446 . S
C124 C125 1.339 . S
C124 H153 0.949 . S
C125 C124 1.339 . S
C125 C126 1.439 . S
C125 H154 0.950 . S
C126 N122 1.383 . S
C126 C125 1.439 . S
C126 C144 1.392 . S
N127 Co111 2.282 . S
N127 C130 1.332 . S
N127 C132 1.332 . S
C128 C129 1.386 . S
C128 C131 1.388 . S
C129 C128 1.386 . S
C129 C130 1.382 . S
C129 H155 0.950 . S
C130 N127 1.332 . S
C130 C129 1.382 . S
C130 H141 0.952 . S
C131 C128 1.388 . S
C131 C132 1.382 . S
C131 H156 0.950 . S
C132 N127 1.332 . S
C132 C131 1.382 . S
C132 H142 0.948 . S
N133 Co111 2.282 . S
N133 C137 1.332 . S
N133 C138 1.332 . S
C134 C135 1.388 . S
C134 C138 1.382 . S
C134 H157 0.950 . S
C135 C134 1.388 . S
C135 C136 1.386 . S
C136 C135 1.386 . S
C136 C137 1.382 . S
C136 H158 0.950 . S
C137 N133 1.332 . S
C137 C136 1.382 . S
C137 H139 0.952 . S
C138 N133 1.332 . S
C138 C134 1.382 . S
C138 H140 0.948 . S
H139 C137 0.952 . S
H140 C138 0.948 . S
H141 C130 0.952 . S
H142 C132 0.948 . S
C143 C109 1.395 . S
C143 C113 1.391 . S
C144 C106 1.389 . S
C144 C126 1.392 . S
C145 C116 1.392 . S
C145 C118 1.389 . S
C146 C121 1.395 . S
C146 C123 1.391 . S
H147 C107 0.951 . S
H148 C108 0.950 . S
H149 C114 0.949 . S
H150 C115 0.950 . S
H151 C119 0.951 . S
H152 C120 0.950 . S
H153 C124 0.949 . S
H154 C125 0.950 . S
H155 C129 0.950 . S
H156 C131 0.950 . S
H157 C134 0.950 . S
H158 C136 0.950 . S
C159 C160 1.443 . S
C159 N163 1.376 . S
C159 C197 1.389 . S
C160 C159 1.443 . S
C160 C161 1.340 . S
C160 H200 0.951 . S
C161 C160 1.340 . S
C161 C162 1.439 . S
C161 H201 0.950 . S
C162 C161 1.439 . S
C162 N163 1.374 . S
C162 C196 1.395 . S
N163 C159 1.376 . S
N163 C162 1.374 . S
N163 Co164 2.008 . S
Co164 N163 2.008 . S
Co164 N165 1.995 . S
Co164 N170 2.008 . S
Co164 N175 1.995 . S
Co164 N180 2.282 . S
Co164 N186 2.282 . S
N165 Co164 1.995 . S
N165 C166 1.376 . S
N165 C169 1.383 . S
C166 N165 1.376 . S
C166 C167 1.446 . S
C166 C196 1.391 . S
C167 C166 1.446 . S
C167 C168 1.339 . S
C167 H202 0.949 . S
C168 C167 1.339 . S
C168 C169 1.439 . S
C168 H203 0.950 . S
C169 N165 1.383 . S
C169 C168 1.439 . S
C169 C198 1.392 . S
N170 Co164 2.008 . S
N170 C171 1.376 . S
N170 C174 1.374 . S
C171 N170 1.376 . S
C171 C172 1.443 . S
C171 C198 1.389 . S
C172 C171 1.443 . S
C172 C173 1.340 . S
C172 H204 0.951 . S
C173 C172 1.340 . S
C173 C174 1.439 . S
C173 H205 0.950 . S
C174 N170 1.374 . S
C174 C173 1.439 . S
C174 C199 1.395 . S
N175 Co164 1.995 . S
N175 C176 1.376 . S
N175 C179 1.383 . S
C176 N175 1.376 . S
C176 C177 1.446 . S
C176 C199 1.391 . S
C177 C176 1.446 . S
C177 C178 1.339 . S
C177 H206 0.949 . S
C178 C177 1.339 . S
C178 C179 1.439 . S
C178 H207 0.950 . S
C179 N175 1.383 . S
C179 C178 1.439 . S
C179 C197 1.392 . S
N180 Co164 2.282 . S
N180 C183 1.332 . S
N180 C185 1.332 . S
C181 C182 1.386 . S
C181 C184 1.388 . S
C182 C181 1.386 . S
C182 C183 1.382 . S
C182 H208 0.950 . S
C183 N180 1.332 . S
C183 C182 1.382 . S
C183 H194 0.952 . S
C184 C181 1.388 . S
C184 C185 1.382 . S
C184 H209 0.950 . S
C185 N180 1.332 . S
C185 C184 1.382 . S
C185 H195 0.948 . S
N186 Co164 2.282 . S
N186 C190 1.332 . S
N186 C191 1.332 . S
C187 C188 1.388 . S
C187 C191 1.382 . S
C187 H210 0.950 . S
C188 C187 1.388 . S
C188 C189 1.386 . S
C189 C188 1.386 . S
C189 C190 1.382 . S
C189 H211 0.950 . S
C190 N186 1.332 . S
C190 C189 1.382 . S
C190 H192 0.952 . S
C191 N186 1.332 . S
C191 C187 1.382 . S
C191 H193 0.948 . S
H192 C190 0.952 . S
H193 C191 0.948 . S
H194 C183 0.952 . S
H195 C185 0.948 . S
C196 C162 1.395 . S
C196 C166 1.391 . S
C197 C159 1.389 . S
C197 C179 1.392 . S
C198 C169 1.392 . S
C198 C171 1.389 . S
C199 C174 1.395 . S
C199 C176 1.391 . S
H200 C160 0.951 . S
H201 C161 0.950 . S
H202 C167 0.949 . S
H203 C168 0.950 . S
H204 C172 0.951 . S
H205 C173 0.950 . S
H206 C177 0.949 . S
H207 C178 0.950 . S
H208 C182 0.950 . S
H209 C184 0.950 . S
H210 C187 0.950 . S
H211 C189 0.950 . S
C212 C213 1.443 . S
C212 N216 1.376 . S
C212 C250 1.389 . S
C213 C212 1.443 . S
C213 C214 1.340 . S
C213 H253 0.951 . S
C214 C213 1.340 . S
C214 C215 1.439 . S
C214 H254 0.950 . S
C215 C214 1.439 . S
C215 N216 1.374 . S
C215 C249 1.395 . S
N216 C212 1.376 . S
N216 C215 1.374 . S
N216 Co217 2.008 . S
Co217 N216 2.008 . S
Co217 N218 1.995 . S
Co217 N223 2.008 . S
Co217 N228 1.995 . S
Co217 N233 2.282 . S
Co217 N239 2.282 . S
N218 Co217 1.995 . S
N218 C219 1.376 . S
N218 C222 1.383 . S
C219 N218 1.376 . S
C219 C220 1.446 . S
C219 C249 1.391 . S
C220 C219 1.446 . S
C220 C221 1.339 . S
C220 H255 0.949 . S
C221 C220 1.339 . S
C221 C222 1.439 . S
C221 H256 0.950 . S
C222 N218 1.383 . S
C222 C221 1.439 . S
C222 C251 1.392 . S
N223 Co217 2.008 . S
N223 C224 1.376 . S
N223 C227 1.374 . S
C224 N223 1.376 . S
C224 C225 1.443 . S
C224 C251 1.389 . S
C225 C224 1.443 . S
C225 C226 1.340 . S
C225 H257 0.951 . S
C226 C225 1.340 . S
C226 C227 1.439 . S
C226 H258 0.950 . S
C227 N223 1.374 . S
C227 C226 1.439 . S
C227 C252 1.395 . S
N228 Co217 1.995 . S
N228 C229 1.376 . S
N228 C232 1.383 . S
C229 N228 1.376 . S
C229 C230 1.446 . S
C229 C252 1.391 . S
C230 C229 1.446 . S
C230 C231 1.339 . S
C230 H259 0.949 . S
C231 C230 1.339 . S
C231 C232 1.439 . S
C231 H260 0.950 . S
C232 N228 1.383 . S
C232 C231 1.439 . S
C232 C250 1.392 . S
N233 Co217 2.282 . S
N233 C236 1.332 . S
N233 C238 1.332 . S
C234 C235 1.386 . S
C234 C237 1.388 . S
C235 C234 1.386 . S
C235 C236 1.382 . S
C235 H261 0.950 . S
C236 N233 1.332 . S
C236 C235 1.382 . S
C236 H247 0.952 . S
C237 C234 1.388 . S
C237 C238 1.382 . S
C237 H262 0.950 . S
C238 N233 1.332 . S
C238 C237 1.382 . S
C238 H248 0.948 . S
N239 Co217 2.282 . S
N239 C243 1.332 . S
N239 C244 1.332 . S
C240 C241 1.388 . S
C240 C244 1.382 . S
C240 H263 0.950 . S
C241 C240 1.388 . S
C241 C242 1.386 . S
C242 C241 1.386 . S
C242 C243 1.382 . S
C242 H264 0.950 . S
C243 N239 1.332 . S
C243 C242 1.382 . S
C243 H245 0.952 . S
C244 N239 1.332 . S
C244 C240 1.382 . S
C244 H246 0.948 . S
H245 C243 0.952 . S
H246 C244 0.948 . S
H247 C236 0.952 . S
H248 C238 0.948 . S
C249 C215 1.395 . S
C249 C219 1.391 . S
C250 C212 1.389 . S
C250 C232 1.392 . S
C251 C222 1.392 . S
C251 C224 1.389 . S
C252 C227 1.395 . S
C252 C229 1.391 . S
H253 C213 0.951 . S
H254 C214 0.950 . S
H255 C220 0.949 . S
H256 C221 0.950 . S
H257 C225 0.951 . S
H258 C226 0.950 . S
H259 C230 0.949 . S
H260 C231 0.950 . S
H261 C235 0.950 . S
H262 C237 0.950 . S
H263 C240 0.950 . S
H264 C242 0.950 . S
C265 C266 1.443 . S
C265 N269 1.376 . S
C265 C303 1.389 . S
C266 C265 1.443 . S
C266 C267 1.340 . S
C266 H306 0.951 . S
C267 C266 1.340 . S
C267 C268 1.439 . S
C267 H307 0.950 . S
C268 C267 1.439 . S
C268 N269 1.374 . S
C268 C302 1.395 . S
N269 C265 1.376 . S
N269 C268 1.374 . S
N269 Co270 2.008 . S
Co270 N269 2.008 . S
Co270 N271 1.995 . S
Co270 N276 2.008 . S
Co270 N281 1.995 . S
Co270 N286 2.282 . S
Co270 N292 2.282 . S
N271 Co270 1.995 . S
N271 C272 1.376 . S
N271 C275 1.383 . S
C272 N271 1.376 . S
C272 C273 1.446 . S
C272 C302 1.391 . S
C273 C272 1.446 . S
C273 C274 1.339 . S
C273 H308 0.949 . S
C274 C273 1.339 . S
C274 C275 1.439 . S
C274 H309 0.950 . S
C275 N271 1.383 . S
C275 C274 1.439 . S
C275 C304 1.392 . S
N276 Co270 2.008 . S
N276 C277 1.376 . S
N276 C280 1.374 . S
C277 N276 1.376 . S
C277 C278 1.443 . S
C277 C304 1.389 . S
C278 C277 1.443 . S
C278 C279 1.340 . S
C278 H310 0.951 . S
C279 C278 1.340 . S
C279 C280 1.439 . S
C279 H311 0.950 . S
C280 N276 1.374 . S
C280 C279 1.439 . S
C280 C305 1.395 . S
N281 Co270 1.995 . S
N281 C282 1.376 . S
N281 C285 1.383 . S
C282 N281 1.376 . S
C282 C283 1.446 . S
C282 C305 1.391 . S
C283 C282 1.446 . S
C283 C284 1.339 . S
C283 H312 0.949 . S
C284 C283 1.339 . S
C284 C285 1.439 . S
C284 H313 0.950 . S
C285 N281 1.383 . S
C285 C284 1.439 . S
C285 C303 1.392 . S
N286 Co270 2.282 . S
N286 C289 1.332 . S
N286 C291 1.332 . S
C287 C288 1.386 . S
C287 C290 1.388 . S
C288 C287 1.386 . S
C288 C289 1.382 . S
C288 H314 0.950 . S
C289 N286 1.332 . S
C289 C288 1.382 . S
C289 H300 0.952 . S
C290 C287 1.388 . S
C290 C291 1.382 . S
C290 H315 0.950 . S
C291 N286 1.332 . S
C291 C290 1.382 . S
C291 H301 0.948 . S
N292 Co270 2.282 . S
N292 C296 1.332 . S
N292 C297 1.332 . S
C293 C294 1.388 . S
C293 C297 1.382 . S
C293 H316 0.950 . S
C294 C293 1.388 . S
C294 C295 1.386 . S
C295 C294 1.386 . S
C295 C296 1.382 . S
C295 H317 0.950 . S
C296 N292 1.332 . S
C296 C295 1.382 . S
C296 H298 0.952 . S
C297 N292 1.332 . S
C297 C293 1.382 . S
C297 H299 0.948 . S
H298 C296 0.952 . S
H299 C297 0.948 . S
H300 C289 0.952 . S
H301 C291 0.948 . S
C302 C268 1.395 . S
C302 C272 1.391 . S
C303 C265 1.389 . S
C303 C285 1.392 . S
C304 C275 1.392 . S
C304 C277 1.389 . S
C305 C280 1.395 . S
C305 C282 1.391 . S
H306 C266 0.951 . S
H307 C267 0.950 . S
H308 C273 0.949 . S
H309 C274 0.950 . S
H310 C278 0.951 . S
H311 C279 0.950 . S
H312 C283 0.949 . S
H313 C284 0.950 . S
H314 C288 0.950 . S
H315 C290 0.950 . S
H316 C293 0.950 . S
H317 C295 0.950 . S
C318 C319 1.443 . S
C318 N322 1.376 . S
C318 C356 1.389 . S
C319 C318 1.443 . S
C319 C320 1.340 . S
C319 H359 0.951 . S
C320 C319 1.340 . S
C320 C321 1.439 . S
C320 H360 0.950 . S
C321 C320 1.439 . S
C321 N322 1.374 . S
C321 C355 1.395 . S
N322 C318 1.376 . S
N322 C321 1.374 . S
N322 Co323 2.008 . S
Co323 N322 2.008 . S
Co323 N324 1.995 . S
Co323 N329 2.008 . S
Co323 N334 1.995 . S
Co323 N339 2.282 . S
Co323 N345 2.282 . S
N324 Co323 1.995 . S
N324 C325 1.376 . S
N324 C328 1.383 . S
C325 N324 1.376 . S
C325 C326 1.446 . S
C325 C355 1.391 . S
C326 C325 1.446 . S
C326 C327 1.339 . S
C326 H361 0.949 . S
C327 C326 1.339 . S
C327 C328 1.439 . S
C327 H362 0.950 . S
C328 N324 1.383 . S
C328 C327 1.439 . S
C328 C357 1.392 . S
N329 Co323 2.008 . S
N329 C330 1.376 . S
N329 C333 1.374 . S
C330 N329 1.376 . S
C330 C331 1.443 . S
C330 C357 1.389 . S
C331 C330 1.443 . S
C331 C332 1.340 . S
C331 H363 0.951 . S
C332 C331 1.340 . S
C332 C333 1.439 . S
C332 H364 0.950 . S
C333 N329 1.374 . S
C333 C332 1.439 . S
C333 C358 1.395 . S
N334 Co323 1.995 . S
N334 C335 1.376 . S
N334 C338 1.383 . S
C335 N334 1.376 . S
C335 C336 1.446 . S
C335 C358 1.391 . S
C336 C335 1.446 . S
C336 C337 1.339 . S
C336 H365 0.949 . S
C337 C336 1.339 . S
C337 C338 1.439 . S
C337 H366 0.950 . S
C338 N334 1.383 . S
C338 C337 1.439 . S
C338 C356 1.392 . S
N339 Co323 2.282 . S
N339 C342 1.332 . S
N339 C344 1.332 . S
C340 C341 1.386 . S
C340 C343 1.388 . S
C341 C340 1.386 . S
C341 C342 1.382 . S
C341 H367 0.950 . S
C342 N339 1.332 . S
C342 C341 1.382 . S
C342 H353 0.952 . S
C343 C340 1.388 . S
C343 C344 1.382 . S
C343 H368 0.950 . S
C344 N339 1.332 . S
C344 C343 1.382 . S
C344 H354 0.948 . S
N345 Co323 2.282 . S
N345 C349 1.332 . S
N345 C350 1.332 . S
C346 C347 1.388 . S
C346 C350 1.382 . S
C346 H369 0.950 . S
C347 C346 1.388 . S
C347 C348 1.386 . S
C348 C347 1.386 . S
C348 C349 1.382 . S
C348 H370 0.950 . S
C349 N345 1.332 . S
C349 C348 1.382 . S
C349 H351 0.952 . S
C350 N345 1.332 . S
C350 C346 1.382 . S
C350 H352 0.948 . S
H351 C349 0.952 . S
H352 C350 0.948 . S
H353 C342 0.952 . S
H354 C344 0.948 . S
C355 C321 1.395 . S
C355 C325 1.391 . S
C356 C318 1.389 . S
C356 C338 1.392 . S
C357 C328 1.392 . S
C357 C330 1.389 . S
C358 C333 1.395 . S
C358 C335 1.391 . S
H359 C319 0.951 . S
H360 C320 0.950 . S
H361 C326 0.949 . S
H362 C327 0.950 . S
H363 C331 0.951 . S
H364 C332 0.950 . S
H365 C336 0.949 . S
H366 C337 0.950 . S
H367 C341 0.950 . S
H368 C343 0.950 . S
H369 C346 0.950 . S
H370 C348 0.950 . S
C371 C372 1.443 . S
C371 N375 1.376 . S
C371 C409 1.389 . S
C372 C371 1.443 . S
C372 C373 1.340 . S
C372 H412 0.951 . S
C373 C372 1.340 . S
C373 C374 1.439 . S
C373 H413 0.950 . S
C374 C373 1.439 . S
C374 N375 1.374 . S
C374 C408 1.395 . S
N375 C371 1.376 . S
N375 C374 1.374 . S
N375 Co376 2.008 . S
Co376 N375 2.008 . S
Co376 N377 1.995 . S
Co376 N382 2.008 . S
Co376 N387 1.995 . S
Co376 N392 2.282 . S
Co376 N398 2.282 . S
N377 Co376 1.995 . S
N377 C378 1.376 . S
N377 C381 1.383 . S
C378 N377 1.376 . S
C378 C379 1.446 . S
C378 C408 1.391 . S
C379 C378 1.446 . S
C379 C380 1.339 . S
C379 H414 0.949 . S
C380 C379 1.339 . S
C380 C381 1.439 . S
C380 H415 0.950 . S
C381 N377 1.383 . S
C381 C380 1.439 . S
C381 C410 1.392 . S
N382 Co376 2.008 . S
N382 C383 1.376 . S
N382 C386 1.374 . S
C383 N382 1.376 . S
C383 C384 1.443 . S
C383 C410 1.389 . S
C384 C383 1.443 . S
C384 C385 1.340 . S
C384 H416 0.951 . S
C385 C384 1.340 . S
C385 C386 1.439 . S
C385 H417 0.950 . S
C386 N382 1.374 . S
C386 C385 1.439 . S
C386 C411 1.395 . S
N387 Co376 1.995 . S
N387 C388 1.376 . S
N387 C391 1.383 . S
C388 N387 1.376 . S
C388 C389 1.446 . S
C388 C411 1.391 . S
C389 C388 1.446 . S
C389 C390 1.339 . S
C389 H418 0.949 . S
C390 C389 1.339 . S
C390 C391 1.439 . S
C390 H419 0.950 . S
C391 N387 1.383 . S
C391 C390 1.439 . S
C391 C409 1.392 . S
N392 Co376 2.282 . S
N392 C395 1.332 . S
N392 C397 1.332 . S
C393 C394 1.386 . S
C393 C396 1.388 . S
C394 C393 1.386 . S
C394 C395 1.382 . S
C394 H420 0.950 . S
C395 N392 1.332 . S
C395 C394 1.382 . S
C395 H406 0.952 . S
C396 C393 1.388 . S
C396 C397 1.382 . S
C396 H421 0.950 . S
C397 N392 1.332 . S
C397 C396 1.382 . S
C397 H407 0.948 . S
N398 Co376 2.282 . S
N398 C402 1.332 . S
N398 C403 1.332 . S
C399 C400 1.388 . S
C399 C403 1.382 . S
C399 H422 0.950 . S
C400 C399 1.388 . S
C400 C401 1.386 . S
C401 C400 1.386 . S
C401 C402 1.382 . S
C401 H423 0.950 . S
C402 N398 1.332 . S
C402 C401 1.382 . S
C402 H404 0.952 . S
C403 N398 1.332 . S
C403 C399 1.382 . S
C403 H405 0.948 . S
H404 C402 0.952 . S
H405 C403 0.948 . S
H406 C395 0.952 . S
H407 C397 0.948 . S
C408 C374 1.395 . S
C408 C378 1.391 . S
C409 C371 1.389 . S
C409 C391 1.392 . S
C410 C381 1.392 . S
C410 C383 1.389 . S
C411 C386 1.395 . S
C411 C388 1.391 . S
H412 C372 0.951 . S
H413 C373 0.950 . S
H414 C379 0.949 . S
H415 C380 0.950 . S
H416 C384 0.951 . S
H417 C385 0.950 . S
H418 C389 0.949 . S
H419 C390 0.950 . S
H420 C394 0.950 . S
H421 C396 0.950 . S
H422 C399 0.950 . S
H423 C401 0.950 . S
C424 C425 1.443 . S
C424 N428 1.376 . S
C424 C462 1.389 . S
C425 C424 1.443 . S
C425 C426 1.340 . S
C425 H465 0.951 . S
C426 C425 1.340 . S
C426 C427 1.439 . S
C426 H466 0.950 . S
C427 C426 1.439 . S
C427 N428 1.374 . S
C427 C461 1.395 . S
N428 C424 1.376 . S
N428 C427 1.374 . S
N428 Co429 2.008 . S
Co429 N428 2.008 . S
Co429 N430 1.995 . S
Co429 N435 2.008 . S
Co429 N440 1.995 . S
Co429 N445 2.282 . S
Co429 N451 2.282 . S
N430 Co429 1.995 . S
N430 C431 1.376 . S
N430 C434 1.383 . S
C431 N430 1.376 . S
C431 C432 1.446 . S
C431 C461 1.391 . S
C432 C431 1.446 . S
C432 C433 1.339 . S
C432 H467 0.949 . S
C433 C432 1.339 . S
C433 C434 1.439 . S
C433 H468 0.950 . S
C434 N430 1.383 . S
C434 C433 1.439 . S
C434 C463 1.392 . S
N435 Co429 2.008 . S
N435 C436 1.376 . S
N435 C439 1.374 . S
C436 N435 1.376 . S
C436 C437 1.443 . S
C436 C463 1.389 . S
C437 C436 1.443 . S
C437 C438 1.340 . S
C437 H469 0.951 . S
C438 C437 1.340 . S
C438 C439 1.439 . S
C438 H470 0.950 . S
C439 N435 1.374 . S
C439 C438 1.439 . S
C439 C464 1.395 . S
N440 Co429 1.995 . S
N440 C441 1.376 . S
N440 C444 1.383 . S
C441 N440 1.376 . S
C441 C442 1.446 . S
C441 C464 1.391 . S
C442 C441 1.446 . S
C442 C443 1.339 . S
C442 H471 0.949 . S
C443 C442 1.339 . S
C443 C444 1.439 . S
C443 H472 0.950 . S
C444 N440 1.383 . S
C444 C443 1.439 . S
C444 C462 1.392 . S
N445 Co429 2.282 . S
N445 C448 1.332 . S
N445 C450 1.332 . S
C446 C447 1.386 . S
C446 C449 1.388 . S
C447 C446 1.386 . S
C447 C448 1.382 . S
C447 H473 0.950 . S
C448 N445 1.332 . S
C448 C447 1.382 . S
C448 H459 0.952 . S
C449 C446 1.388 . S
C449 C450 1.382 . S
C449 H474 0.950 . S
C450 N445 1.332 . S
C450 C449 1.382 . S
C450 H460 0.948 . S
N451 Co429 2.282 . S
N451 C455 1.332 . S
N451 C456 1.332 . S
C452 C453 1.388 . S
C452 C456 1.382 . S
C452 H475 0.950 . S
C453 C452 1.388 . S
C453 C454 1.386 . S
C454 C453 1.386 . S
C454 C455 1.382 . S
C454 H476 0.950 . S
C455 N451 1.332 . S
C455 C454 1.382 . S
C455 H457 0.952 . S
C456 N451 1.332 . S
C456 C452 1.382 . S
C456 H458 0.948 . S
H457 C455 0.952 . S
H458 C456 0.948 . S
H459 C448 0.952 . S
H460 C450 0.948 . S
C461 C427 1.395 . S
C461 C431 1.391 . S
C462 C424 1.389 . S
C462 C444 1.392 . S
C463 C434 1.392 . S
C463 C436 1.389 . S
C464 C439 1.395 . S
C464 C441 1.391 . S
H465 C425 0.951 . S
H466 C426 0.950 . S
H467 C432 0.949 . S
H468 C433 0.950 . S
H469 C437 0.951 . S
H470 C438 0.950 . S
H471 C442 0.949 . S
H472 C443 0.950 . S
H473 C447 0.950 . S
H474 C449 0.950 . S
H475 C452 0.950 . S
H476 C454 0.950 . S
C477 C478 1.443 . S
C477 N481 1.376 . S
C477 C515 1.389 . S
C478 C477 1.443 . S
C478 C479 1.340 . S
C478 H518 0.951 . S
C479 C478 1.340 . S
C479 C480 1.439 . S
C479 H519 0.950 . S
C480 C479 1.439 . S
C480 N481 1.374 . S
C480 C514 1.395 . S
N481 C477 1.376 . S
N481 C480 1.374 . S
N481 Co482 2.008 . S
Co482 N481 2.008 . S
Co482 N483 1.995 . S
Co482 N488 2.008 . S
Co482 N493 1.995 . S
Co482 N498 2.282 . S
Co482 N504 2.282 . S
N483 Co482 1.995 . S
N483 C484 1.376 . S
N483 C487 1.383 . S
C484 N483 1.376 . S
C484 C485 1.446 . S
C484 C514 1.391 . S
C485 C484 1.446 . S
C485 C486 1.339 . S
C485 H520 0.949 . S
C486 C485 1.339 . S
C486 C487 1.439 . S
C486 H521 0.950 . S
C487 N483 1.383 . S
C487 C486 1.439 . S
C487 C516 1.392 . S
N488 Co482 2.008 . S
N488 C489 1.376 . S
N488 C492 1.374 . S
C489 N488 1.376 . S
C489 C490 1.443 . S
C489 C516 1.389 . S
C490 C489 1.443 . S
C490 C491 1.340 . S
C490 H522 0.951 . S
C491 C490 1.340 . S
C491 C492 1.439 . S
C491 H523 0.950 . S
C492 N488 1.374 . S
C492 C491 1.439 . S
C492 C517 1.395 . S
N493 Co482 1.995 . S
N493 C494 1.376 . S
N493 C497 1.383 . S
C494 N493 1.376 . S
C494 C495 1.446 . S
C494 C517 1.391 . S
C495 C494 1.446 . S
C495 C496 1.339 . S
C495 H524 0.949 . S
C496 C495 1.339 . S
C496 C497 1.439 . S
C496 H525 0.950 . S
C497 N493 1.383 . S
C497 C496 1.439 . S
C497 C515 1.392 . S
N498 Co482 2.282 . S
N498 C501 1.332 . S
N498 C503 1.332 . S
C499 C500 1.386 . S
C499 C502 1.388 . S
C500 C499 1.386 . S
C500 C501 1.382 . S
C500 H526 0.950 . S
C501 N498 1.332 . S
C501 C500 1.382 . S
C501 H512 0.952 . S
C502 C499 1.388 . S
C502 C503 1.382 . S
C502 H527 0.950 . S
C503 N498 1.332 . S
C503 C502 1.382 . S
C503 H513 0.948 . S
N504 Co482 2.282 . S
N504 C508 1.332 . S
N504 C509 1.332 . S
C505 C506 1.388 . S
C505 C509 1.382 . S
C505 H528 0.950 . S
C506 C505 1.388 . S
C506 C507 1.386 . S
C507 C506 1.386 . S
C507 C508 1.382 . S
C507 H529 0.950 . S
C508 N504 1.332 . S
C508 C507 1.382 . S
C508 H510 0.952 . S
C509 N504 1.332 . S
C509 C505 1.382 . S
C509 H511 0.948 . S
H510 C508 0.952 . S
H511 C509 0.948 . S
H512 C501 0.952 . S
H513 C503 0.948 . S
C514 C480 1.395 . S
C514 C484 1.391 . S
C515 C477 1.389 . S
C515 C497 1.392 . S
C516 C487 1.392 . S
C516 C489 1.389 . S
C517 C492 1.395 . S
C517 C494 1.391 . S
H518 C478 0.951 . S
H519 C479 0.950 . S
H520 C485 0.949 . S
H521 C486 0.950 . S
H522 C490 0.951 . S
H523 C491 0.950 . S
H524 C495 0.949 . S
H525 C496 0.950 . S
H526 C500 0.950 . S
H527 C502 0.950 . S
H528 C505 0.950 . S
H529 C507 0.950 . S
C530 C531 1.443 . S
C530 N534 1.376 . S
C530 C568 1.389 . S
C531 C530 1.443 . S
C531 C532 1.340 . S
C531 H571 0.951 . S
C532 C531 1.340 . S
C532 C533 1.439 . S
C532 H572 0.950 . S
C533 C532 1.439 . S
C533 N534 1.374 . S
C533 C567 1.395 . S
N534 C530 1.376 . S
N534 C533 1.374 . S
N534 Co535 2.008 . S
Co535 N534 2.008 . S
Co535 N536 1.995 . S
Co535 N541 2.008 . S
Co535 N546 1.995 . S
Co535 N551 2.282 . S
Co535 N557 2.282 . S
N536 Co535 1.995 . S
N536 C537 1.376 . S
N536 C540 1.383 . S
C537 N536 1.376 . S
C537 C538 1.446 . S
C537 C567 1.391 . S
C538 C537 1.446 . S
C538 C539 1.339 . S
C538 H573 0.949 . S
C539 C538 1.339 . S
C539 C540 1.439 . S
C539 H574 0.950 . S
C540 N536 1.383 . S
C540 C539 1.439 . S
C540 C569 1.392 . S
N541 Co535 2.008 . S
N541 C542 1.376 . S
N541 C545 1.374 . S
C542 N541 1.376 . S
C542 C543 1.443 . S
C542 C569 1.389 . S
C543 C542 1.443 . S
C543 C544 1.340 . S
C543 H575 0.951 . S
C544 C543 1.340 . S
C544 C545 1.439 . S
C544 H576 0.950 . S
C545 N541 1.374 . S
C545 C544 1.439 . S
C545 C570 1.395 . S
N546 Co535 1.995 . S
N546 C547 1.376 . S
N546 C550 1.383 . S
C547 N546 1.376 . S
C547 C548 1.446 . S
C547 C570 1.391 . S
C548 C547 1.446 . S
C548 C549 1.339 . S
C548 H577 0.949 . S
C549 C548 1.339 . S
C549 C550 1.439 . S
C549 H578 0.950 . S
C550 N546 1.383 . S
C550 C549 1.439 . S
C550 C568 1.392 . S
N551 Co535 2.282 . S
N551 C554 1.332 . S
N551 C556 1.332 . S
C552 C553 1.386 . S
C552 C555 1.388 . S
C553 C552 1.386 . S
C553 C554 1.382 . S
C553 H579 0.950 . S
C554 N551 1.332 . S
C554 C553 1.382 . S
C554 H565 0.952 . S
C555 C552 1.388 . S
C555 C556 1.382 . S
C555 H580 0.950 . S
C556 N551 1.332 . S
C556 C555 1.382 . S
C556 H566 0.948 . S
N557 Co535 2.282 . S
N557 C561 1.332 . S
N557 C562 1.332 . S
C558 C559 1.388 . S
C558 C562 1.382 . S
C558 H581 0.950 . S
C559 C558 1.388 . S
C559 C560 1.386 . S
C560 C559 1.386 . S
C560 C561 1.382 . S
C560 H582 0.950 . S
C561 N557 1.332 . S
C561 C560 1.382 . S
C561 H563 0.952 . S
C562 N557 1.332 . S
C562 C558 1.382 . S
C562 H564 0.948 . S
H563 C561 0.952 . S
H564 C562 0.948 . S
H565 C554 0.952 . S
H566 C556 0.948 . S
C567 C533 1.395 . S
C567 C537 1.391 . S
C568 C530 1.389 . S
C568 C550 1.392 . S
C569 C540 1.392 . S
C569 C542 1.389 . S
C570 C545 1.395 . S
C570 C547 1.391 . S
H571 C531 0.951 . S
H572 C532 0.950 . S
H573 C538 0.949 . S
H574 C539 0.950 . S
H575 C543 0.951 . S
H576 C544 0.950 . S
H577 C548 0.949 . S
H578 C549 0.950 . S
H579 C553 0.950 . S
H580 C555 0.950 . S
H581 C558 0.950 . S
H582 C560 0.950 . S
C583 C584 1.443 . S
C583 N587 1.376 . S
C583 C621 1.389 . S
C584 C583 1.443 . S
C584 C585 1.340 . S
C584 H624 0.951 . S
C585 C584 1.340 . S
C585 C586 1.439 . S
C585 H625 0.950 . S
C586 C585 1.439 . S
C586 N587 1.374 . S
C586 C620 1.395 . S
N587 C583 1.376 . S
N587 C586 1.374 . S
N587 Co588 2.008 . S
Co588 N587 2.008 . S
Co588 N589 1.995 . S
Co588 N594 2.008 . S
Co588 N599 1.995 . S
Co588 N604 2.282 . S
Co588 N610 2.282 . S
N589 Co588 1.995 . S
N589 C590 1.376 . S
N589 C593 1.383 . S
C590 N589 1.376 . S
C590 C591 1.446 . S
C590 C620 1.391 . S
C591 C590 1.446 . S
C591 C592 1.339 . S
C591 H626 0.949 . S
C592 C591 1.339 . S
C592 C593 1.439 . S
C592 H627 0.950 . S
C593 N589 1.383 . S
C593 C592 1.439 . S
C593 C622 1.392 . S
N594 Co588 2.008 . S
N594 C595 1.376 . S
N594 C598 1.374 . S
C595 N594 1.376 . S
C595 C596 1.443 . S
C595 C622 1.389 . S
C596 C595 1.443 . S
C596 C597 1.340 . S
C596 H628 0.951 . S
C597 C596 1.340 . S
C597 C598 1.439 . S
C597 H629 0.950 . S
C598 N594 1.374 . S
C598 C597 1.439 . S
C598 C623 1.395 . S
N599 Co588 1.995 . S
N599 C600 1.376 . S
N599 C603 1.383 . S
C600 N599 1.376 . S
C600 C601 1.446 . S
C600 C623 1.391 . S
C601 C600 1.446 . S
C601 C602 1.339 . S
C601 H630 0.949 . S
C602 C601 1.339 . S
C602 C603 1.439 . S
C602 H631 0.950 . S
C603 N599 1.383 . S
C603 C602 1.439 . S
C603 C621 1.392 . S
N604 Co588 2.282 . S
N604 C607 1.332 . S
N604 C609 1.332 . S
C605 C606 1.386 . S
C605 C608 1.388 . S
C606 C605 1.386 . S
C606 C607 1.382 . S
C606 H632 0.950 . S
C607 N604 1.332 . S
C607 C606 1.382 . S
C607 H618 0.952 . S
C608 C605 1.388 . S
C608 C609 1.382 . S
C608 H633 0.950 . S
C609 N604 1.332 . S
C609 C608 1.382 . S
C609 H619 0.948 . S
N610 Co588 2.282 . S
N610 C614 1.332 . S
N610 C615 1.332 . S
C611 C612 1.388 . S
C611 C615 1.382 . S
C611 H634 0.950 . S
C612 C611 1.388 . S
C612 C613 1.386 . S
C613 C612 1.386 . S
C613 C614 1.382 . S
C613 H635 0.950 . S
C614 N610 1.332 . S
C614 C613 1.382 . S
C614 H616 0.952 . S
C615 N610 1.332 . S
C615 C611 1.382 . S
C615 H617 0.948 . S
H616 C614 0.952 . S
H617 C615 0.948 . S
H618 C607 0.952 . S
H619 C609 0.948 . S
C620 C586 1.395 . S
C620 C590 1.391 . S
C621 C583 1.389 . S
C621 C603 1.392 . S
C622 C593 1.392 . S
C622 C595 1.389 . S
C623 C598 1.395 . S
C623 C600 1.391 . S
H624 C584 0.951 . S
H625 C585 0.950 . S
H626 C591 0.949 . S
H627 C592 0.950 . S
H628 C596 0.951 . S
H629 C597 0.950 . S
H630 C601 0.949 . S
H631 C602 0.950 . S
H632 C606 0.950 . S
H633 C608 0.950 . S
H634 C611 0.950 . S
H635 C613 0.950 . S
C636 C637 1.443 . S
C636 N640 1.376 . S
C636 C674 1.389 . S
C637 C636 1.443 . S
C637 C638 1.340 . S
C637 H677 0.951 . S
C638 C637 1.340 . S
C638 C639 1.439 . S
C638 H678 0.950 . S
C639 C638 1.439 . S
C639 N640 1.374 . S
C639 C673 1.395 . S
N640 C636 1.376 . S
N640 C639 1.374 . S
N640 Co641 2.008 . S
Co641 N640 2.008 . S
Co641 N642 1.995 . S
Co641 N647 2.008 . S
Co641 N652 1.995 . S
Co641 N657 2.282 . S
Co641 N663 2.282 . S
N642 Co641 1.995 . S
N642 C643 1.376 . S
N642 C646 1.383 . S
C643 N642 1.376 . S
C643 C644 1.446 . S
C643 C673 1.391 . S
C644 C643 1.446 . S
C644 C645 1.339 . S
C644 H679 0.949 . S
C645 C644 1.339 . S
C645 C646 1.439 . S
C645 H680 0.950 . S
C646 N642 1.383 . S
C646 C645 1.439 . S
C646 C675 1.392 . S
N647 Co641 2.008 . S
N647 C648 1.376 . S
N647 C651 1.374 . S
C648 N647 1.376 . S
C648 C649 1.443 . S
C648 C675 1.389 . S
C649 C648 1.443 . S
C649 C650 1.340 . S
C649 H681 0.951 . S
C650 C649 1.340 . S
C650 C651 1.439 . S
C650 H682 0.950 . S
C651 N647 1.374 . S
C651 C650 1.439 . S
C651 C676 1.395 . S
N652 Co641 1.995 . S
N652 C653 1.376 . S
N652 C656 1.383 . S
C653 N652 1.376 . S
C653 C654 1.446 . S
C653 C676 1.391 . S
C654 C653 1.446 . S
C654 C655 1.339 . S
C654 H683 0.949 . S
C655 C654 1.339 . S
C655 C656 1.439 . S
C655 H684 0.950 . S
C656 N652 1.383 . S
C656 C655 1.439 . S
C656 C674 1.392 . S
N657 Co641 2.282 . S
N657 C660 1.332 . S
N657 C662 1.332 . S
C658 C659 1.386 . S
C658 C661 1.388 . S
C659 C658 1.386 . S
C659 C660 1.382 . S
C659 H685 0.950 . S
C660 N657 1.332 . S
C660 C659 1.382 . S
C660 H671 0.952 . S
C661 C658 1.388 . S
C661 C662 1.382 . S
C661 H686 0.950 . S
C662 N657 1.332 . S
C662 C661 1.382 . S
C662 H672 0.948 . S
N663 Co641 2.282 . S
N663 C667 1.332 . S
N663 C668 1.332 . S
C664 C665 1.388 . S
C664 C668 1.382 . S
C664 H687 0.950 . S
C665 C664 1.388 . S
C665 C666 1.386 . S
C666 C665 1.386 . S
C666 C667 1.382 . S
C666 H688 0.950 . S
C667 N663 1.332 . S
C667 C666 1.382 . S
C667 H669 0.952 . S
C668 N663 1.332 . S
C668 C664 1.382 . S
C668 H670 0.948 . S
H669 C667 0.952 . S
H670 C668 0.948 . S
H671 C660 0.952 . S
H672 C662 0.948 . S
C673 C639 1.395 . S
C673 C643 1.391 . S
C674 C636 1.389 . S
C674 C656 1.392 . S
C675 C646 1.392 . S
C675 C648 1.389 . S
C676 C651 1.395 . S
C676 C653 1.391 . S
H677 C637 0.951 . S
H678 C638 0.950 . S
H679 C644 0.949 . S
H680 C645 0.950 . S
H681 C649 0.951 . S
H682 C650 0.950 . S
H683 C654 0.949 . S
H684 C655 0.950 . S
H685 C659 0.950 . S
H686 C661 0.950 . S
H687 C664 0.950 . S
H688 C666 0.950 . S
C689 C690 1.443 . S
C689 N693 1.376 . S
C689 C727 1.389 . S
C690 C689 1.443 . S
C690 C691 1.340 . S
C690 H730 0.951 . S
C691 C690 1.340 . S
C691 C692 1.439 . S
C691 H731 0.950 . S
C692 C691 1.439 . S
C692 N693 1.374 . S
C692 C726 1.395 . S
N693 C689 1.376 . S
N693 C692 1.374 . S
N693 Co694 2.008 . S
Co694 N693 2.008 . S
Co694 N695 1.995 . S
Co694 N700 2.008 . S
Co694 N705 1.995 . S
Co694 N710 2.282 . S
Co694 N716 2.282 . S
N695 Co694 1.995 . S
N695 C696 1.376 . S
N695 C699 1.383 . S
C696 N695 1.376 . S
C696 C697 1.446 . S
C696 C726 1.391 . S
C697 C696 1.446 . S
C697 C698 1.339 . S
C697 H732 0.949 . S
C698 C697 1.339 . S
C698 C699 1.439 . S
C698 H733 0.950 . S
C699 N695 1.383 . S
C699 C698 1.439 . S
C699 C728 1.392 . S
N700 Co694 2.008 . S
N700 C701 1.376 . S
N700 C704 1.374 . S
C701 N700 1.376 . S
C701 C702 1.443 . S
C701 C728 1.389 . S
C702 C701 1.443 . S
C702 C703 1.340 . S
C702 H734 0.951 . S
C703 C702 1.340 . S
C703 C704 1.439 . S
C703 H735 0.950 . S
C704 N700 1.374 . S
C704 C703 1.439 . S
C704 C729 1.395 . S
N705 Co694 1.995 . S
N705 C706 1.376 . S
N705 C709 1.383 . S
C706 N705 1.376 . S
C706 C707 1.446 . S
C706 C729 1.391 . S
C707 C706 1.446 . S
C707 C708 1.339 . S
C707 H736 0.949 . S
C708 C707 1.339 . S
C708 C709 1.439 . S
C708 H737 0.950 . S
C709 N705 1.383 . S
C709 C708 1.439 . S
C709 C727 1.392 . S
N710 Co694 2.282 . S
N710 C713 1.332 . S
N710 C715 1.332 . S
C711 C712 1.386 . S
C711 C714 1.388 . S
C712 C711 1.386 . S
C712 C713 1.382 . S
C712 H738 0.950 . S
C713 N710 1.332 . S
C713 C712 1.382 . S
C713 H724 0.952 . S
C714 C711 1.388 . S
C714 C715 1.382 . S
C714 H739 0.950 . S
C715 N710 1.332 . S
C715 C714 1.382 . S
C715 H725 0.948 . S
N716 Co694 2.282 . S
N716 C720 1.332 . S
N716 C721 1.332 . S
C717 C718 1.388 . S
C717 C721 1.382 . S
C717 H740 0.950 . S
C718 C717 1.388 . S
C718 C719 1.386 . S
C719 C718 1.386 . S
C719 C720 1.382 . S
C719 H741 0.950 . S
C720 N716 1.332 . S
C720 C719 1.382 . S
C720 H722 0.952 . S
C721 N716 1.332 . S
C721 C717 1.382 . S
C721 H723 0.948 . S
H722 C720 0.952 . S
H723 C721 0.948 . S
H724 C713 0.952 . S
H725 C715 0.948 . S
C726 C692 1.395 . S
C726 C696 1.391 . S
C727 C689 1.389 . S
C727 C709 1.392 . S
C728 C699 1.392 . S
C728 C701 1.389 . S
C729 C704 1.395 . S
C729 C706 1.391 . S
H730 C690 0.951 . S
H731 C691 0.950 . S
H732 C697 0.949 . S
H733 C698 0.950 . S
H734 C702 0.951 . S
H735 C703 0.950 . S
H736 C707 0.949 . S
H737 C708 0.950 . S
H738 C712 0.950 . S
H739 C714 0.950 . S
H740 C717 0.950 . S
H741 C719 0.950 . S
C742 C743 1.443 . S
C742 N746 1.376 . S
C742 C780 1.389 . S
C743 C742 1.443 . S
C743 C744 1.340 . S
C743 H783 0.951 . S
C744 C743 1.340 . S
C744 C745 1.439 . S
C744 H784 0.950 . S
C745 C744 1.439 . S
C745 N746 1.374 . S
C745 C779 1.395 . S
N746 C742 1.376 . S
N746 C745 1.374 . S
N746 Co747 2.008 . S
Co747 N746 2.008 . S
Co747 N748 1.995 . S
Co747 N753 2.008 . S
Co747 N758 1.995 . S
Co747 N763 2.282 . S
Co747 N769 2.282 . S
N748 Co747 1.995 . S
N748 C749 1.376 . S
N748 C752 1.383 . S
C749 N748 1.376 . S
C749 C750 1.446 . S
C749 C779 1.391 . S
C750 C749 1.446 . S
C750 C751 1.339 . S
C750 H785 0.949 . S
C751 C750 1.339 . S
C751 C752 1.439 . S
C751 H786 0.950 . S
C752 N748 1.383 . S
C752 C751 1.439 . S
C752 C781 1.392 . S
N753 Co747 2.008 . S
N753 C754 1.376 . S
N753 C757 1.374 . S
C754 N753 1.376 . S
C754 C755 1.443 . S
C754 C781 1.389 . S
C755 C754 1.443 . S
C755 C756 1.340 . S
C755 H787 0.951 . S
C756 C755 1.340 . S
C756 C757 1.439 . S
C756 H788 0.950 . S
C757 N753 1.374 . S
C757 C756 1.439 . S
C757 C782 1.395 . S
N758 Co747 1.995 . S
N758 C759 1.376 . S
N758 C762 1.383 . S
C759 N758 1.376 . S
C759 C760 1.446 . S
C759 C782 1.391 . S
C760 C759 1.446 . S
C760 C761 1.339 . S
C760 H789 0.949 . S
C761 C760 1.339 . S
C761 C762 1.439 . S
C761 H790 0.950 . S
C762 N758 1.383 . S
C762 C761 1.439 . S
C762 C780 1.392 . S
N763 Co747 2.282 . S
N763 C766 1.332 . S
N763 C768 1.332 . S
C764 C765 1.386 . S
C764 C767 1.388 . S
C765 C764 1.386 . S
C765 C766 1.382 . S
C765 H791 0.950 . S
C766 N763 1.332 . S
C766 C765 1.382 . S
C766 H777 0.952 . S
C767 C764 1.388 . S
C767 C768 1.382 . S
C767 H792 0.950 . S
C768 N763 1.332 . S
C768 C767 1.382 . S
C768 H778 0.948 . S
N769 Co747 2.282 . S
N769 C773 1.332 . S
N769 C774 1.332 . S
C770 C771 1.388 . S
C770 C774 1.382 . S
C770 H793 0.950 . S
C771 C770 1.388 . S
C771 C772 1.386 . S
C772 C771 1.386 . S
C772 C773 1.382 . S
C772 H794 0.950 . S
C773 N769 1.332 . S
C773 C772 1.382 . S
C773 H775 0.952 . S
C774 N769 1.332 . S
C774 C770 1.382 . S
C774 H776 0.948 . S
H775 C773 0.952 . S
H776 C774 0.948 . S
H777 C766 0.952 . S
H778 C768 0.948 . S
C779 C745 1.395 . S
C779 C749 1.391 . S
C780 C742 1.389 . S
C780 C762 1.392 . S
C781 C752 1.392 . S
C781 C754 1.389 . S
C782 C757 1.395 . S
C782 C759 1.391 . S
H783 C743 0.951 . S
H784 C744 0.950 . S
H785 C750 0.949 . S
H786 C751 0.950 . S
H787 C755 0.951 . S
H788 C756 0.950 . S
H789 C760 0.949 . S
H790 C761 0.950 . S
H791 C765 0.950 . S
H792 C767 0.950 . S
H793 C770 0.950 . S
H794 C772 0.950 . S
C795 C796 1.443 . S
C795 N799 1.376 . S
C795 C833 1.389 . S
C796 C795 1.443 . S
C796 C797 1.340 . S
C796 H836 0.951 . S
C797 C796 1.340 . S
C797 C798 1.439 . S
C797 H837 0.950 . S
C798 C797 1.439 . S
C798 N799 1.374 . S
C798 C832 1.395 . S
N799 C795 1.376 . S
N799 C798 1.374 . S
N799 Co800 2.008 . S
Co800 N799 2.008 . S
Co800 N801 1.995 . S
Co800 N806 2.008 . S
Co800 N811 1.995 . S
Co800 N816 2.282 . S
Co800 N822 2.282 . S
N801 Co800 1.995 . S
N801 C802 1.376 . S
N801 C805 1.383 . S
C802 N801 1.376 . S
C802 C803 1.446 . S
C802 C832 1.391 . S
C803 C802 1.446 . S
C803 C804 1.339 . S
C803 H838 0.949 . S
C804 C803 1.339 . S
C804 C805 1.439 . S
C804 H839 0.950 . S
C805 N801 1.383 . S
C805 C804 1.439 . S
C805 C834 1.392 . S
N806 Co800 2.008 . S
N806 C807 1.376 . S
N806 C810 1.374 . S
C807 N806 1.376 . S
C807 C808 1.443 . S
C807 C834 1.389 . S
C808 C807 1.443 . S
C808 C809 1.340 . S
C808 H840 0.951 . S
C809 C808 1.340 . S
C809 C810 1.439 . S
C809 H841 0.950 . S
C810 N806 1.374 . S
C810 C809 1.439 . S
C810 C835 1.395 . S
N811 Co800 1.995 . S
N811 C812 1.376 . S
N811 C815 1.383 . S
C812 N811 1.376 . S
C812 C813 1.446 . S
C812 C835 1.391 . S
C813 C812 1.446 . S
C813 C814 1.339 . S
C813 H842 0.949 . S
C814 C813 1.339 . S
C814 C815 1.439 . S
C814 H843 0.950 . S
C815 N811 1.383 . S
C815 C814 1.439 . S
C815 C833 1.392 . S
N816 Co800 2.282 . S
N816 C819 1.332 . S
N816 C821 1.332 . S
C817 C818 1.386 . S
C817 C820 1.388 . S
C818 C817 1.386 . S
C818 C819 1.382 . S
C818 H844 0.950 . S
C819 N816 1.332 . S
C819 C818 1.382 . S
C819 H830 0.952 . S
C820 C817 1.388 . S
C820 C821 1.382 . S
C820 H845 0.950 . S
C821 N816 1.332 . S
C821 C820 1.382 . S
C821 H831 0.948 . S
N822 Co800 2.282 . S
N822 C826 1.332 . S
N822 C827 1.332 . S
C823 C824 1.388 . S
C823 C827 1.382 . S
C823 H846 0.950 . S
C824 C823 1.388 . S
C824 C825 1.386 . S
C825 C824 1.386 . S
C825 C826 1.382 . S
C825 H847 0.950 . S
C826 N822 1.332 . S
C826 C825 1.382 . S
C826 H828 0.952 . S
C827 N822 1.332 . S
C827 C823 1.382 . S
C827 H829 0.948 . S
H828 C826 0.952 . S
H829 C827 0.948 . S
H830 C819 0.952 . S
H831 C821 0.948 . S
C832 C798 1.395 . S
C832 C802 1.391 . S
C833 C795 1.389 . S
C833 C815 1.392 . S
C834 C805 1.392 . S
C834 C807 1.389 . S
C835 C810 1.395 . S
C835 C812 1.391 . S
H836 C796 0.951 . S
H837 C797 0.950 . S
H838 C803 0.949 . S
H839 C804 0.950 . S
H840 C808 0.951 . S
H841 C809 0.950 . S
H842 C813 0.949 . S
H843 C814 0.950 . S
H844 C818 0.950 . S
H845 C820 0.950 . S
H846 C823 0.950 . S
H847 C825 0.950 . S
C848 C849 1.443 . S
C848 N852 1.376 . S
C848 C886 1.389 . S
C849 C848 1.443 . S
C849 C850 1.340 . S
C849 H889 0.951 . S
C850 C849 1.340 . S
C850 C851 1.439 . S
C850 H890 0.950 . S
C851 C850 1.439 . S
C851 N852 1.374 . S
C851 C885 1.395 . S
N852 C848 1.376 . S
N852 C851 1.374 . S
N852 Co853 2.008 . S
Co853 N852 2.008 . S
Co853 N854 1.995 . S
Co853 N859 2.008 . S
Co853 N864 1.995 . S
Co853 N869 2.282 . S
Co853 N875 2.282 . S
N854 Co853 1.995 . S
N854 C855 1.376 . S
N854 C858 1.383 . S
C855 N854 1.376 . S
C855 C856 1.446 . S
C855 C885 1.391 . S
C856 C855 1.446 . S
C856 C857 1.339 . S
C856 H891 0.949 . S
C857 C856 1.339 . S
C857 C858 1.439 . S
C857 H892 0.950 . S
C858 N854 1.383 . S
C858 C857 1.439 . S
C858 C887 1.392 . S
N859 Co853 2.008 . S
N859 C860 1.376 . S
N859 C863 1.374 . S
C860 N859 1.376 . S
C860 C861 1.443 . S
C860 C887 1.389 . S
C861 C860 1.443 . S
C861 C862 1.340 . S
C861 H893 0.951 . S
C862 C861 1.340 . S
C862 C863 1.439 . S
C862 H894 0.950 . S
C863 N859 1.374 . S
C863 C862 1.439 . S
C863 C888 1.395 . S
N864 Co853 1.995 . S
N864 C865 1.376 . S
N864 C868 1.383 . S
C865 N864 1.376 . S
C865 C866 1.446 . S
C865 C888 1.391 . S
C866 C865 1.446 . S
C866 C867 1.339 . S
C866 H895 0.949 . S
C867 C866 1.339 . S
C867 C868 1.439 . S
C867 H896 0.950 . S
C868 N864 1.383 . S
C868 C867 1.439 . S
C868 C886 1.392 . S
N869 Co853 2.282 . S
N869 C872 1.332 . S
N869 C874 1.332 . S
C870 C871 1.386 . S
C870 C873 1.388 . S
C871 C870 1.386 . S
C871 C872 1.382 . S
C871 H897 0.950 . S
C872 N869 1.332 . S
C872 C871 1.382 . S
C872 H883 0.952 . S
C873 C870 1.388 . S
C873 C874 1.382 . S
C873 H898 0.950 . S
C874 N869 1.332 . S
C874 C873 1.382 . S
C874 H884 0.948 . S
N875 Co853 2.282 . S
N875 C879 1.332 . S
N875 C880 1.332 . S
C876 C877 1.388 . S
C876 C880 1.382 . S
C876 H899 0.950 . S
C877 C876 1.388 . S
C877 C878 1.386 . S
C878 C877 1.386 . S
C878 C879 1.382 . S
C878 H900 0.950 . S
C879 N875 1.332 . S
C879 C878 1.382 . S
C879 H881 0.952 . S
C880 N875 1.332 . S
C880 C876 1.382 . S
C880 H882 0.948 . S
H881 C879 0.952 . S
H882 C880 0.948 . S
H883 C872 0.952 . S
H884 C874 0.948 . S
C885 C851 1.395 . S
C885 C855 1.391 . S
C886 C848 1.389 . S
C886 C868 1.392 . S
C887 C858 1.392 . S
C887 C860 1.389 . S
C888 C863 1.395 . S
C888 C865 1.391 . S
H889 C849 0.951 . S
H890 C850 0.950 . S
H891 C856 0.949 . S
H892 C857 0.950 . S
H893 C861 0.951 . S
H894 C862 0.950 . S
H895 C866 0.949 . S
H896 C867 0.950 . S
H897 C871 0.950 . S
H898 C873 0.950 . S
H899 C876 0.950 . S
H900 C878 0.950 . S
C901 C902 1.443 . S
C901 N905 1.376 . S
C901 C939 1.389 . S
C902 C901 1.443 . S
C902 C903 1.340 . S
C902 H942 0.951 . S
C903 C902 1.340 . S
C903 C904 1.439 . S
C903 H943 0.950 . S
C904 C903 1.439 . S
C904 N905 1.374 . S
C904 C938 1.395 . S
N905 C901 1.376 . S
N905 C904 1.374 . S
N905 Co906 2.008 . S
Co906 N905 2.008 . S
Co906 N907 1.995 . S
Co906 N912 2.008 . S
Co906 N917 1.995 . S
Co906 N922 2.282 . S
Co906 N928 2.282 . S
N907 Co906 1.995 . S
N907 C908 1.376 . S
N907 C911 1.383 . S
C908 N907 1.376 . S
C908 C909 1.446 . S
C908 C938 1.391 . S
C909 C908 1.446 . S
C909 C910 1.339 . S
C909 H944 0.949 . S
C910 C909 1.339 . S
C910 C911 1.439 . S
C910 H945 0.950 . S
C911 N907 1.383 . S
C911 C910 1.439 . S
C911 C940 1.392 . S
N912 Co906 2.008 . S
N912 C913 1.376 . S
N912 C916 1.374 . S
C913 N912 1.376 . S
C913 C914 1.443 . S
C913 C940 1.389 . S
C914 C913 1.443 . S
C914 C915 1.340 . S
C914 H946 0.951 . S
C915 C914 1.340 . S
C915 C916 1.439 . S
C915 H947 0.950 . S
C916 N912 1.374 . S
C916 C915 1.439 . S
C916 C941 1.395 . S
N917 Co906 1.995 . S
N917 C918 1.376 . S
N917 C921 1.383 . S
C918 N917 1.376 . S
C918 C919 1.446 . S
C918 C941 1.391 . S
C919 C918 1.446 . S
C919 C920 1.339 . S
C919 H948 0.949 . S
C920 C919 1.339 . S
C920 C921 1.439 . S
C920 H949 0.950 . S
C921 N917 1.383 . S
C921 C920 1.439 . S
C921 C939 1.392 . S
N922 Co906 2.282 . S
N922 C925 1.332 . S
N922 C927 1.332 . S
C923 C924 1.386 . S
C923 C926 1.388 . S
C924 C923 1.386 . S
C924 C925 1.382 . S
C924 H950 0.950 . S
C925 N922 1.332 . S
C925 C924 1.382 . S
C925 H936 0.952 . S
C926 C923 1.388 . S
C926 C927 1.382 . S
C926 H951 0.950 . S
C927 N922 1.332 . S
C927 C926 1.382 . S
C927 H937 0.948 . S
N928 Co906 2.282 . S
N928 C932 1.332 . S
N928 C933 1.332 . S
C929 C930 1.388 . S
C929 C933 1.382 . S
C929 H952 0.950 . S
C930 C929 1.388 . S
C930 C931 1.386 . S
C931 C930 1.386 . S
C931 C932 1.382 . S
C931 H953 0.950 . S
C932 N928 1.332 . S
C932 C931 1.382 . S
C932 H934 0.952 . S
C933 N928 1.332 . S
C933 C929 1.382 . S
C933 H935 0.948 . S
H934 C932 0.952 . S
H935 C933 0.948 . S
H936 C925 0.952 . S
H937 C927 0.948 . S
C938 C904 1.395 . S
C938 C908 1.391 . S
C939 C901 1.389 . S
C939 C921 1.392 . S
C940 C911 1.392 . S
C940 C913 1.389 . S
C941 C916 1.395 . S
C941 C918 1.391 . S
H942 C902 0.951 . S
H943 C903 0.950 . S
H944 C909 0.949 . S
H945 C910 0.950 . S
H946 C914 0.951 . S
H947 C915 0.950 . S
H948 C919 0.949 . S
H949 C920 0.950 . S
H950 C924 0.950 . S
H951 C926 0.950 . S
H952 C929 0.950 . S
H953 C931 0.950 . S
C954 C955 1.443 . S
C954 N958 1.376 . S
C954 C992 1.389 . S
C955 C954 1.443 . S
C955 C956 1.340 . S
C955 H995 0.951 . S
C956 C955 1.340 . S
C956 C957 1.439 . S
C956 H996 0.950 . S
C957 C956 1.439 . S
C957 N958 1.374 . S
C957 C991 1.395 . S
N958 C954 1.376 . S
N958 C957 1.374 . S
N958 Co959 2.008 . S
Co959 N958 2.008 . S
Co959 N960 1.995 . S
Co959 N965 2.008 . S
Co959 N970 1.995 . S
Co959 N975 2.282 . S
Co959 N981 2.282 . S
N960 Co959 1.995 . S
N960 C961 1.376 . S
N960 C964 1.383 . S
C961 N960 1.376 . S
C961 C962 1.446 . S
C961 C991 1.391 . S
C962 C961 1.446 . S
C962 C963 1.339 . S
C962 H997 0.949 . S
C963 C962 1.339 . S
C963 C964 1.439 . S
C963 H998 0.950 . S
C964 N960 1.383 . S
C964 C963 1.439 . S
C964 C993 1.392 . S
N965 Co959 2.008 . S
N965 C966 1.376 . S
N965 C969 1.374 . S
C966 N965 1.376 . S
C966 C967 1.443 . S
C966 C993 1.389 . S
C967 C966 1.443 . S
C967 C968 1.340 . S
C967 H999 0.951 . S
C968 C967 1.340 . S
C968 C969 1.439 . S
C968 H1000 0.950 . S
C969 N965 1.374 . S
C969 C968 1.439 . S
C969 C994 1.395 . S
N970 Co959 1.995 . S
N970 C971 1.376 . S
N970 C974 1.383 . S
C971 N970 1.376 . S
C971 C972 1.446 . S
C971 C994 1.391 . S
C972 C971 1.446 . S
C972 C973 1.339 . S
C972 H1001 0.949 . S
C973 C972 1.339 . S
C973 C974 1.439 . S
C973 H1002 0.950 . S
C974 N970 1.383 . S
C974 C973 1.439 . S
C974 C992 1.392 . S
N975 Co959 2.282 . S
N975 C978 1.332 . S
N975 C980 1.332 . S
C976 C977 1.386 . S
C976 C979 1.388 . S
C977 C976 1.386 . S
C977 C978 1.382 . S
C977 H1003 0.950 . S
C978 N975 1.332 . S
C978 C977 1.382 . S
C978 H989 0.952 . S
C979 C976 1.388 . S
C979 C980 1.382 . S
C979 H1004 0.950 . S
C980 N975 1.332 . S
C980 C979 1.382 . S
C980 H990 0.948 . S
N981 Co959 2.282 . S
N981 C985 1.332 . S
N981 C986 1.332 . S
C982 C983 1.388 . S
C982 C986 1.382 . S
C982 H1005 0.950 . S
C983 C982 1.388 . S
C983 C984 1.386 . S
C984 C983 1.386 . S
C984 C985 1.382 . S
C984 H1006 0.950 . S
C985 N981 1.332 . S
C985 C984 1.382 . S
C985 H987 0.952 . S
C986 N981 1.332 . S
C986 C982 1.382 . S
C986 H988 0.948 . S
H987 C985 0.952 . S
H988 C986 0.948 . S
H989 C978 0.952 . S
H990 C980 0.948 . S
C991 C957 1.395 . S
C991 C961 1.391 . S
C992 C954 1.389 . S
C992 C974 1.392 . S
C993 C964 1.392 . S
C993 C966 1.389 . S
C994 C969 1.395 . S
C994 C971 1.391 . S
H995 C955 0.951 . S
H996 C956 0.950 . S
H997 C962 0.949 . S
H998 C963 0.950 . S
H999 C967 0.951 . S
H1000 C968 0.950 . S
H1001 C972 0.949 . S
H1002 C973 0.950 . S
H1003 C977 0.950 . S
H1004 C979 0.950 . S
H1005 C982 0.950 . S
H1006 C984 0.950 . S
C1007 C1008 1.443 . S
C1007 N1011 1.376 . S
C1007 C1045 1.389 . S
C1008 C1007 1.443 . S
C1008 C1009 1.340 . S
C1008 H1048 0.951 . S
C1009 C1008 1.340 . S
C1009 C1010 1.439 . S
C1009 H1049 0.950 . S
C1010 C1009 1.439 . S
C1010 N1011 1.374 . S
C1010 C1044 1.395 . S
N1011 C1007 1.376 . S
N1011 C1010 1.374 . S
N1011 Co1012 2.008 . S
Co1012 N1011 2.008 . S
Co1012 N1013 1.995 . S
Co1012 N1018 2.008 . S
Co1012 N1023 1.995 . S
Co1012 N1028 2.282 . S
Co1012 N1034 2.282 . S
N1013 Co1012 1.995 . S
N1013 C1014 1.376 . S
N1013 C1017 1.383 . S
C1014 N1013 1.376 . S
C1014 C1015 1.446 . S
C1014 C1044 1.391 . S
C1015 C1014 1.446 . S
C1015 C1016 1.339 . S
C1015 H1050 0.949 . S
C1016 C1015 1.339 . S
C1016 C1017 1.439 . S
C1016 H1051 0.950 . S
C1017 N1013 1.383 . S
C1017 C1016 1.439 . S
C1017 C1046 1.392 . S
N1018 Co1012 2.008 . S
N1018 C1019 1.376 . S
N1018 C1022 1.374 . S
C1019 N1018 1.376 . S
C1019 C1020 1.443 . S
C1019 C1046 1.389 . S
C1020 C1019 1.443 . S
C1020 C1021 1.340 . S
C1020 H1052 0.951 . S
C1021 C1020 1.340 . S
C1021 C1022 1.439 . S
C1021 H1053 0.950 . S
C1022 N1018 1.374 . S
C1022 C1021 1.439 . S
C1022 C1047 1.395 . S
N1023 Co1012 1.995 . S
N1023 C1024 1.376 . S
N1023 C1027 1.383 . S
C1024 N1023 1.376 . S
C1024 C1025 1.446 . S
C1024 C1047 1.391 . S
C1025 C1024 1.446 . S
C1025 C1026 1.339 . S
C1025 H1054 0.949 . S
C1026 C1025 1.339 . S
C1026 C1027 1.439 . S
C1026 H1055 0.950 . S
C1027 N1023 1.383 . S
C1027 C1026 1.439 . S
C1027 C1045 1.392 . S
N1028 Co1012 2.282 . S
N1028 C1031 1.332 . S
N1028 C1033 1.332 . S
C1029 C1030 1.386 . S
C1029 C1032 1.388 . S
C1030 C1029 1.386 . S
C1030 C1031 1.382 . S
C1030 H1056 0.950 . S
C1031 N1028 1.332 . S
C1031 C1030 1.382 . S
C1031 H1042 0.952 . S
C1032 C1029 1.388 . S
C1032 C1033 1.382 . S
C1032 H1057 0.950 . S
C1033 N1028 1.332 . S
C1033 C1032 1.382 . S
C1033 H1043 0.948 . S
N1034 Co1012 2.282 . S
N1034 C1038 1.332 . S
N1034 C1039 1.332 . S
C1035 C1036 1.388 . S
C1035 C1039 1.382 . S
C1035 H1058 0.950 . S
C1036 C1035 1.388 . S
C1036 C1037 1.386 . S
C1037 C1036 1.386 . S
C1037 C1038 1.382 . S
C1037 H1059 0.950 . S
C1038 N1034 1.332 . S
C1038 C1037 1.382 . S
C1038 H1040 0.952 . S
C1039 N1034 1.332 . S
C1039 C1035 1.382 . S
C1039 H1041 0.948 . S
H1040 C1038 0.952 . S
H1041 C1039 0.948 . S
H1042 C1031 0.952 . S
H1043 C1033 0.948 . S
C1044 C1010 1.395 . S
C1044 C1014 1.391 . S
C1045 C1007 1.389 . S
C1045 C1027 1.392 . S
C1046 C1017 1.392 . S
C1046 C1019 1.389 . S
C1047 C1022 1.395 . S
C1047 C1024 1.391 . S
H1048 C1008 0.951 . S
H1049 C1009 0.950 . S
H1050 C1015 0.949 . S
H1051 C1016 0.950 . S
H1052 C1020 0.951 . S
H1053 C1021 0.950 . S
H1054 C1025 0.949 . S
H1055 C1026 0.950 . S
H1056 C1030 0.950 . S
H1057 C1032 0.950 . S
H1058 C1035 0.950 . S
H1059 C1037 0.950 . S
C1060 C1061 1.443 . S
C1060 N1064 1.376 . S
C1060 C1098 1.389 . S
C1061 C1060 1.443 . S
C1061 C1062 1.340 . S
C1061 H1101 0.951 . S
C1062 C1061 1.340 . S
C1062 C1063 1.439 . S
C1062 H1102 0.950 . S
C1063 C1062 1.439 . S
C1063 N1064 1.374 . S
C1063 C1097 1.395 . S
N1064 C1060 1.376 . S
N1064 C1063 1.374 . S
N1064 Co1065 2.008 . S
Co1065 N1064 2.008 . S
Co1065 N1066 1.995 . S
Co1065 N1071 2.008 . S
Co1065 N1076 1.995 . S
Co1065 N1081 2.282 . S
Co1065 N1087 2.282 . S
N1066 Co1065 1.995 . S
N1066 C1067 1.376 . S
N1066 C1070 1.383 . S
C1067 N1066 1.376 . S
C1067 C1068 1.446 . S
C1067 C1097 1.391 . S
C1068 C1067 1.446 . S
C1068 C1069 1.339 . S
C1068 H1103 0.949 . S
C1069 C1068 1.339 . S
C1069 C1070 1.439 . S
C1069 H1104 0.950 . S
C1070 N1066 1.383 . S
C1070 C1069 1.439 . S
C1070 C1099 1.392 . S
N1071 Co1065 2.008 . S
N1071 C1072 1.376 . S
N1071 C1075 1.374 . S
C1072 N1071 1.376 . S
C1072 C1073 1.443 . S
C1072 C1099 1.389 . S
C1073 C1072 1.443 . S
C1073 C1074 1.340 . S
C1073 H1105 0.951 . S
C1074 C1073 1.340 . S
C1074 C1075 1.439 . S
C1074 H1106 0.950 . S
C1075 N1071 1.374 . S
C1075 C1074 1.439 . S
C1075 C1100 1.395 . S
N1076 Co1065 1.995 . S
N1076 C1077 1.376 . S
N1076 C1080 1.383 . S
C1077 N1076 1.376 . S
C1077 C1078 1.446 . S
C1077 C1100 1.391 . S
C1078 C1077 1.446 . S
C1078 C1079 1.339 . S
C1078 H1107 0.949 . S
C1079 C1078 1.339 . S
C1079 C1080 1.439 . S
C1079 H1108 0.950 . S
C1080 N1076 1.383 . S
C1080 C1079 1.439 . S
C1080 C1098 1.392 . S
N1081 Co1065 2.282 . S
N1081 C1084 1.332 . S
N1081 C1086 1.332 . S
C1082 C1083 1.386 . S
C1082 C1085 1.388 . S
C1083 C1082 1.386 . S
C1083 C1084 1.382 . S
C1083 H1109 0.950 . S
C1084 N1081 1.332 . S
C1084 C1083 1.382 . S
C1084 H1095 0.952 . S
C1085 C1082 1.388 . S
C1085 C1086 1.382 . S
C1085 H1110 0.950 . S
C1086 N1081 1.332 . S
C1086 C1085 1.382 . S
C1086 H1096 0.948 . S
N1087 Co1065 2.282 . S
N1087 C1091 1.332 . S
N1087 C1092 1.332 . S
C1088 C1089 1.388 . S
C1088 C1092 1.382 . S
C1088 H1111 0.950 . S
C1089 C1088 1.388 . S
C1089 C1090 1.386 . S
C1090 C1089 1.386 . S
C1090 C1091 1.382 . S
C1090 H1112 0.950 . S
C1091 N1087 1.332 . S
C1091 C1090 1.382 . S
C1091 H1093 0.952 . S
C1092 N1087 1.332 . S
C1092 C1088 1.382 . S
C1092 H1094 0.948 . S
H1093 C1091 0.952 . S
H1094 C1092 0.948 . S
H1095 C1084 0.952 . S
H1096 C1086 0.948 . S
C1097 C1063 1.395 . S
C1097 C1067 1.391 . S
C1098 C1060 1.389 . S
C1098 C1080 1.392 . S
C1099 C1070 1.392 . S
C1099 C1072 1.389 . S
C1100 C1075 1.395 . S
C1100 C1077 1.391 . S
H1101 C1061 0.951 . S
H1102 C1062 0.950 . S
H1103 C1068 0.949 . S
H1104 C1069 0.950 . S
H1105 C1073 0.951 . S
H1106 C1074 0.950 . S
H1107 C1078 0.949 . S
H1108 C1079 0.950 . S
H1109 C1083 0.950 . S
H1110 C1085 0.950 . S
H1111 C1088 0.950 . S
H1112 C1090 0.950 . S
C1113 C1114 1.443 . S
C1113 N1117 1.376 . S
C1113 C1151 1.389 . S
C1114 C1113 1.443 . S
C1114 C1115 1.340 . S
C1114 H1154 0.951 . S
C1115 C1114 1.340 . S
C1115 C1116 1.439 . S
C1115 H1155 0.950 . S
C1116 C1115 1.439 . S
C1116 N1117 1.374 . S
C1116 C1150 1.395 . S
N1117 C1113 1.376 . S
N1117 C1116 1.374 . S
N1117 Co1118 2.008 . S
Co1118 N1117 2.008 . S
Co1118 N1119 1.995 . S
Co1118 N1124 2.008 . S
Co1118 N1129 1.995 . S
Co1118 N1134 2.282 . S
Co1118 N1140 2.282 . S
N1119 Co1118 1.995 . S
N1119 C1120 1.376 . S
N1119 C1123 1.383 . S
C1120 N1119 1.376 . S
C1120 C1121 1.446 . S
C1120 C1150 1.391 . S
C1121 C1120 1.446 . S
C1121 C1122 1.339 . S
C1121 H1156 0.949 . S
C1122 C1121 1.339 . S
C1122 C1123 1.439 . S
C1122 H1157 0.950 . S
C1123 N1119 1.383 . S
C1123 C1122 1.439 . S
C1123 C1152 1.392 . S
N1124 Co1118 2.008 . S
N1124 C1125 1.376 . S
N1124 C1128 1.374 . S
C1125 N1124 1.376 . S
C1125 C1126 1.443 . S
C1125 C1152 1.389 . S
C1126 C1125 1.443 . S
C1126 C1127 1.340 . S
C1126 H1158 0.951 . S
C1127 C1126 1.340 . S
C1127 C1128 1.439 . S
C1127 H1159 0.950 . S
C1128 N1124 1.374 . S
C1128 C1127 1.439 . S
C1128 C1153 1.395 . S
N1129 Co1118 1.995 . S
N1129 C1130 1.376 . S
N1129 C1133 1.383 . S
C1130 N1129 1.376 . S
C1130 C1131 1.446 . S
C1130 C1153 1.391 . S
C1131 C1130 1.446 . S
C1131 C1132 1.339 . S
C1131 H1160 0.949 . S
C1132 C1131 1.339 . S
C1132 C1133 1.439 . S
C1132 H1161 0.950 . S
C1133 N1129 1.383 . S
C1133 C1132 1.439 . S
C1133 C1151 1.392 . S
N1134 Co1118 2.282 . S
N1134 C1137 1.332 . S
N1134 C1139 1.332 . S
C1135 C1136 1.386 . S
C1135 C1138 1.388 . S
C1136 C1135 1.386 . S
C1136 C1137 1.382 . S
C1136 H1162 0.950 . S
C1137 N1134 1.332 . S
C1137 C1136 1.382 . S
C1137 H1148 0.952 . S
C1138 C1135 1.388 . S
C1138 C1139 1.382 . S
C1138 H1163 0.950 . S
C1139 N1134 1.332 . S
C1139 C1138 1.382 . S
C1139 H1149 0.948 . S
N1140 Co1118 2.282 . S
N1140 C1144 1.332 . S
N1140 C1145 1.332 . S
C1141 C1142 1.388 . S
C1141 C1145 1.382 . S
C1141 H1164 0.950 . S
C1142 C1141 1.388 . S
C1142 C1143 1.386 . S
C1143 C1142 1.386 . S
C1143 C1144 1.382 . S
C1143 H1165 0.950 . S
C1144 N1140 1.332 . S
C1144 C1143 1.382 . S
C1144 H1146 0.952 . S
C1145 N1140 1.332 . S
C1145 C1141 1.382 . S
C1145 H1147 0.948 . S
H1146 C1144 0.952 . S
H1147 C1145 0.948 . S
H1148 C1137 0.952 . S
H1149 C1139 0.948 . S
C1150 C1116 1.395 . S
C1150 C1120 1.391 . S
C1151 C1113 1.389 . S
C1151 C1133 1.392 . S
C1152 C1123 1.392 . S
C1152 C1125 1.389 . S
C1153 C1128 1.395 . S
C1153 C1130 1.391 . S
H1154 C1114 0.951 . S
H1155 C1115 0.950 . S
H1156 C1121 0.949 . S
H1157 C1122 0.950 . S
H1158 C1126 0.951 . S
H1159 C1127 0.950 . S
H1160 C1131 0.949 . S
H1161 C1132 0.950 . S
H1162 C1136 0.950 . S
H1163 C1138 0.950 . S
H1164 C1141 0.950 . S
H1165 C1143 0.950 . S
C1166 C1167 1.443 . S
C1166 N1170 1.376 . S
C1166 C1204 1.389 . S
C1167 C1166 1.443 . S
C1167 C1168 1.340 . S
C1167 H1207 0.951 . S
C1168 C1167 1.340 . S
C1168 C1169 1.439 . S
C1168 H1208 0.950 . S
C1169 C1168 1.439 . S
C1169 N1170 1.374 . S
C1169 C1203 1.395 . S
N1170 C1166 1.376 . S
N1170 C1169 1.374 . S
N1170 Co1171 2.008 . S
Co1171 N1170 2.008 . S
Co1171 N1172 1.995 . S
Co1171 N1177 2.008 . S
Co1171 N1182 1.995 . S
Co1171 N1187 2.282 . S
Co1171 N1193 2.282 . S
N1172 Co1171 1.995 . S
N1172 C1173 1.376 . S
N1172 C1176 1.383 . S
C1173 N1172 1.376 . S
C1173 C1174 1.446 . S
C1173 C1203 1.391 . S
C1174 C1173 1.446 . S
C1174 C1175 1.339 . S
C1174 H1209 0.949 . S
C1175 C1174 1.339 . S
C1175 C1176 1.439 . S
C1175 H1210 0.950 . S
C1176 N1172 1.383 . S
C1176 C1175 1.439 . S
C1176 C1205 1.392 . S
N1177 Co1171 2.008 . S
N1177 C1178 1.376 . S
N1177 C1181 1.374 . S
C1178 N1177 1.376 . S
C1178 C1179 1.443 . S
C1178 C1205 1.389 . S
C1179 C1178 1.443 . S
C1179 C1180 1.340 . S
C1179 H1211 0.951 . S
C1180 C1179 1.340 . S
C1180 C1181 1.439 . S
C1180 H1212 0.950 . S
C1181 N1177 1.374 . S
C1181 C1180 1.439 . S
C1181 C1206 1.395 . S
N1182 Co1171 1.995 . S
N1182 C1183 1.376 . S
N1182 C1186 1.383 . S
C1183 N1182 1.376 . S
C1183 C1184 1.446 . S
C1183 C1206 1.391 . S
C1184 C1183 1.446 . S
C1184 C1185 1.339 . S
C1184 H1213 0.949 . S
C1185 C1184 1.339 . S
C1185 C1186 1.439 . S
C1185 H1214 0.950 . S
C1186 N1182 1.383 . S
C1186 C1185 1.439 . S
C1186 C1204 1.392 . S
N1187 Co1171 2.282 . S
N1187 C1190 1.332 . S
N1187 C1192 1.332 . S
C1188 C1189 1.386 . S
C1188 C1191 1.388 . S
C1189 C1188 1.386 . S
C1189 C1190 1.382 . S
C1189 H1215 0.950 . S
C1190 N1187 1.332 . S
C1190 C1189 1.382 . S
C1190 H1201 0.952 . S
C1191 C1188 1.388 . S
C1191 C1192 1.382 . S
C1191 H1216 0.950 . S
C1192 N1187 1.332 . S
C1192 C1191 1.382 . S
C1192 H1202 0.948 . S
N1193 Co1171 2.282 . S
N1193 C1197 1.332 . S
N1193 C1198 1.332 . S
C1194 C1195 1.388 . S
C1194 C1198 1.382 . S
C1194 H1217 0.950 . S
C1195 C1194 1.388 . S
C1195 C1196 1.386 . S
C1196 C1195 1.386 . S
C1196 C1197 1.382 . S
C1196 H1218 0.950 . S
C1197 N1193 1.332 . S
C1197 C1196 1.382 . S
C1197 H1199 0.952 . S
C1198 N1193 1.332 . S
C1198 C1194 1.382 . S
C1198 H1200 0.948 . S
H1199 C1197 0.952 . S
H1200 C1198 0.948 . S
H1201 C1190 0.952 . S
H1202 C1192 0.948 . S
C1203 C1169 1.395 . S
C1203 C1173 1.391 . S
C1204 C1166 1.389 . S
C1204 C1186 1.392 . S
C1205 C1176 1.392 . S
C1205 C1178 1.389 . S
C1206 C1181 1.395 . S
C1206 C1183 1.391 . S
H1207 C1167 0.951 . S
H1208 C1168 0.950 . S
H1209 C1174 0.949 . S
H1210 C1175 0.950 . S
H1211 C1179 0.951 . S
H1212 C1180 0.950 . S
H1213 C1184 0.949 . S
H1214 C1185 0.950 . S
H1215 C1189 0.950 . S
H1216 C1191 0.950 . S
H1217 C1194 0.950 . S
H1218 C1196 0.950 . S
C1219 C1220 1.443 . S
C1219 N1223 1.376 . S
C1219 C1257 1.389 . S
C1220 C1219 1.443 . S
C1220 C1221 1.340 . S
C1220 H1260 0.951 . S
C1221 C1220 1.340 . S
C1221 C1222 1.439 . S
C1221 H1261 0.950 . S
C1222 C1221 1.439 . S
C1222 N1223 1.374 . S
C1222 C1256 1.395 . S
N1223 C1219 1.376 . S
N1223 C1222 1.374 . S
N1223 Co1224 2.008 . S
Co1224 N1223 2.008 . S
Co1224 N1225 1.995 . S
Co1224 N1230 2.008 . S
Co1224 N1235 1.995 . S
Co1224 N1240 2.282 . S
Co1224 N1246 2.282 . S
N1225 Co1224 1.995 . S
N1225 C1226 1.376 . S
N1225 C1229 1.383 . S
C1226 N1225 1.376 . S
C1226 C1227 1.446 . S
C1226 C1256 1.391 . S
C1227 C1226 1.446 . S
C1227 C1228 1.339 . S
C1227 H1262 0.949 . S
C1228 C1227 1.339 . S
C1228 C1229 1.439 . S
C1228 H1263 0.950 . S
C1229 N1225 1.383 . S
C1229 C1228 1.439 . S
C1229 C1258 1.392 . S
N1230 Co1224 2.008 . S
N1230 C1231 1.376 . S
N1230 C1234 1.374 . S
C1231 N1230 1.376 . S
C1231 C1232 1.443 . S
C1231 C1258 1.389 . S
C1232 C1231 1.443 . S
C1232 C1233 1.340 . S
C1232 H1264 0.951 . S
C1233 C1232 1.340 . S
C1233 C1234 1.439 . S
C1233 H1265 0.950 . S
C1234 N1230 1.374 . S
C1234 C1233 1.439 . S
C1234 C1259 1.395 . S
N1235 Co1224 1.995 . S
N1235 C1236 1.376 . S
N1235 C1239 1.383 . S
C1236 N1235 1.376 . S
C1236 C1237 1.446 . S
C1236 C1259 1.391 . S
C1237 C1236 1.446 . S
C1237 C1238 1.339 . S
C1237 H1266 0.949 . S
C1238 C1237 1.339 . S
C1238 C1239 1.439 . S
C1238 H1267 0.950 . S
C1239 N1235 1.383 . S
C1239 C1238 1.439 . S
C1239 C1257 1.392 . S
N1240 Co1224 2.282 . S
N1240 C1243 1.332 . S
N1240 C1245 1.332 . S
C1241 C1242 1.386 . S
C1241 C1244 1.388 . S
C1242 C1241 1.386 . S
C1242 C1243 1.382 . S
C1242 H1268 0.950 . S
C1243 N1240 1.332 . S
C1243 C1242 1.382 . S
C1243 H1254 0.952 . S
C1244 C1241 1.388 . S
C1244 C1245 1.382 . S
C1244 H1269 0.950 . S
C1245 N1240 1.332 . S
C1245 C1244 1.382 . S
C1245 H1255 0.948 . S
N1246 Co1224 2.282 . S
N1246 C1250 1.332 . S
N1246 C1251 1.332 . S
C1247 C1248 1.388 . S
C1247 C1251 1.382 . S
C1247 H1270 0.950 . S
C1248 C1247 1.388 . S
C1248 C1249 1.386 . S
C1249 C1248 1.386 . S
C1249 C1250 1.382 . S
C1249 H1271 0.950 . S
C1250 N1246 1.332 . S
C1250 C1249 1.382 . S
C1250 H1252 0.952 . S
C1251 N1246 1.332 . S
C1251 C1247 1.382 . S
C1251 H1253 0.948 . S
H1252 C1250 0.952 . S
H1253 C1251 0.948 . S
H1254 C1243 0.952 . S
H1255 C1245 0.948 . S
C1256 C1222 1.395 . S
C1256 C1226 1.391 . S
C1257 C1219 1.389 . S
C1257 C1239 1.392 . S
C1258 C1229 1.392 . S
C1258 C1231 1.389 . S
C1259 C1234 1.395 . S
C1259 C1236 1.391 . S
H1260 C1220 0.951 . S
H1261 C1221 0.950 . S
H1262 C1227 0.949 . S
H1263 C1228 0.950 . S
H1264 C1232 0.951 . S
H1265 C1233 0.950 . S
H1266 C1237 0.949 . S
H1267 C1238 0.950 . S
H1268 C1242 0.950 . S
H1269 C1244 0.950 . S
H1270 C1247 0.950 . S
H1271 C1249 0.950 . S
C1272 C1273 1.387 . S
C1272 H1276 0.950 . S
C1272 C1281 1.390 . S
C1273 C1272 1.387 . S
C1273 C1275 1.387 . S
H1274 C1281 0.950 . S
C1275 C1273 1.387 . S
C1275 C1277 1.390 . S
C1275 H1279 0.950 . S
H1276 C1272 0.950 . S
C1277 C1275 1.390 . S
C1277 C1278 1.387 . S
C1277 H1280 0.950 . S
C1278 C1277 1.387 . S
C1278 C1281 1.387 . S
H1279 C1275 0.950 . S
H1280 C1277 0.950 . S
C1281 C1272 1.390 . S
C1281 H1274 0.950 . S
C1281 C1278 1.387 . S
C1282 C1283 1.387 . S
C1282 H1286 0.950 . S
C1282 C1291 1.403 . S
C1283 C1282 1.387 . S
C1283 C1285 1.387 . S
H1284 C1291 0.940 1_455 S
C1285 C1283 1.387 . S
C1285 C1287 1.390 . S
C1285 H1289 0.950 . S
H1286 C1282 0.950 . S
C1287 C1285 1.390 . S
C1287 C1288 1.387 1_655 S
C1287 H1290 0.950 . S
C1288 C1287 1.387 1_455 S
C1288 C1291 1.384 1_455 S
H1289 C1285 0.950 . S
H1290 C1287 0.950 . S
C1291 C1282 1.403 . S
C1291 H1284 0.940 1_655 S
C1291 C1288 1.384 1_655 S
C1292 C1293 1.387 . S
C1292 H1296 0.950 . S
C1292 C1301 1.390 . S
C1293 C1292 1.387 . S
C1293 C1295 1.387 . S
H1294 C1301 0.950 . S
C1295 C1293 1.387 . S
C1295 C1297 1.390 . S
C1295 H1299 0.950 . S
H1296 C1292 0.950 . S
C1297 C1295 1.390 . S
C1297 C1298 1.387 . S
C1297 H1300 0.950 . S
C1298 C1297 1.387 . S
C1298 C1301 1.387 . S
H1299 C1295 0.950 . S
H1300 C1297 0.950 . S
C1301 C1292 1.390 . S
C1301 H1294 0.950 . S
C1301 C1298 1.387 . S
C1302 C1303 1.387 . S
C1302 H1306 0.950 . S
C1302 C1311 1.390 1_455 S
C1303 C1302 1.387 . S
C1303 C1305 1.387 . S
H1304 C1311 0.950 . S
C1305 C1303 1.387 . S
C1305 C1307 1.390 1_455 S
C1305 H1309 0.950 . S
H1306 C1302 0.950 . S
C1307 C1305 1.390 1_655 S
C1307 C1308 1.387 . S
C1307 H1310 0.950 . S
C1308 C1307 1.387 . S
C1308 C1311 1.387 . S
H1309 C1305 0.950 . S
H1310 C1307 0.950 . S
C1311 C1302 1.390 1_655 S
C1311 H1304 0.950 . S
C1311 C1308 1.387 . S
C1312 C1313 1.387 . S
C1312 H1316 0.950 . S
C1312 C1321 1.390 . S
C1313 C1312 1.387 . S
C1313 C1315 1.387 . S
H1314 C1321 0.950 . S
C1315 C1313 1.387 . S
C1315 C1317 1.390 . S
C1315 H1319 0.950 . S
H1316 C1312 0.950 . S
C1317 C1315 1.390 . S
C1317 C1318 1.387 . S
C1317 H1320 0.950 . S
C1318 C1317 1.387 . S
C1318 C1321 1.387 . S
H1319 C1315 0.950 . S
H1320 C1317 0.950 . S
C1321 C1312 1.390 . S
C1321 H1314 0.950 . S
C1321 C1318 1.387 . S
C1322 C1323 1.387 . S
C1322 H1326 0.950 . S
C1322 C1331 1.390 1_655 S
C1323 C1322 1.387 . S
C1323 C1325 1.387 . S
H1324 C1331 0.950 . S
C1325 C1323 1.387 . S
C1325 C1327 1.390 1_655 S
C1325 H1329 0.950 . S
H1326 C1322 0.950 . S
C1327 C1325 1.390 1_455 S
C1327 C1328 1.387 . S
C1327 H1330 0.950 . S
C1328 C1327 1.387 . S
C1328 C1331 1.387 . S
H1329 C1325 0.950 . S
H1330 C1327 0.950 . S
C1331 C1322 1.390 1_455 S
C1331 H1324 0.950 . S
C1331 C1328 1.387 . S
C1332 C1333 1.387 . S
C1332 H1336 0.950 . S
C1332 C1341 1.390 . S
C1333 C1332 1.387 . S
C1333 C1335 1.387 . S
H1334 C1341 0.950 . S
C1335 C1333 1.387 . S
C1335 C1337 1.390 . S
C1335 H1339 0.950 . S
H1336 C1332 0.950 . S
C1337 C1335 1.390 . S
C1337 C1338 1.387 . S
C1337 H1340 0.950 . S
C1338 C1337 1.387 . S
C1338 C1341 1.387 . S
H1339 C1335 0.950 . S
H1340 C1337 0.950 . S
C1341 C1332 1.390 . S
C1341 H1334 0.950 . S
C1341 C1338 1.387 . S
C1342 C1343 1.387 . S
C1342 H1346 0.950 . S
C1342 C1351 1.390 1_655 S
C1343 C1342 1.387 . S
C1343 C1345 1.387 . S
H1344 C1351 0.950 . S
C1345 C1343 1.387 . S
C1345 C1347 1.390 1_655 S
C1345 H1349 0.950 . S
H1346 C1342 0.950 . S
C1347 C1345 1.390 1_455 S
C1347 C1348 1.387 . S
C1347 H1350 0.950 . S
C1348 C1347 1.387 . S
C1348 C1351 1.387 . S
H1349 C1345 0.950 . S
H1350 C1347 0.950 . S
C1351 C1342 1.390 1_455 S
C1351 H1344 0.950 . S
C1351 C1348 1.387 . S
C1352 C1353 1.387 . S
C1352 H1356 0.950 . S
C1352 C1361 1.390 . S
C1353 C1352 1.387 . S
C1353 C1355 1.387 . S
H1354 C1361 0.950 . S
C1355 C1353 1.387 . S
C1355 C1357 1.390 . S
C1355 H1359 0.950 . S
H1356 C1352 0.950 . S
C1357 C1355 1.390 . S
C1357 C1358 1.387 . S
C1357 H1360 0.950 . S
C1358 C1357 1.387 . S
C1358 C1361 1.387 . S
H1359 C1355 0.950 . S
H1360 C1357 0.950 . S
C1361 C1352 1.390 . S
C1361 H1354 0.950 . S
C1361 C1358 1.387 . S
C1362 C1363 1.387 . S
C1362 H1366 0.950 . S
C1362 C1371 1.390 1_556 S
C1363 C1362 1.387 . S
C1363 C1365 1.387 . S
H1364 C1371 0.950 . S
C1365 C1363 1.387 . S
C1365 C1367 1.390 1_556 S
C1365 H1369 0.950 . S
H1366 C1362 0.950 . S
C1367 C1365 1.390 1_554 S
C1367 C1368 1.387 . S
C1367 H1370 0.950 . S
C1368 C1367 1.387 . S
C1368 C1371 1.387 . S
H1369 C1365 0.950 . S
H1370 C1367 0.950 . S
C1371 C1362 1.390 1_554 S
C1371 H1364 0.950 . S
C1371 C1368 1.387 . S
C1372 C1373 1.387 . S
C1372 H1376 0.950 . S
C1372 C1381 1.390 . S
C1373 C1372 1.387 . S
C1373 C1375 1.387 . S
H1374 C1381 0.950 . S
C1375 C1373 1.387 . S
C1375 C1377 1.390 . S
C1375 H1379 0.950 . S
H1376 C1372 0.950 . S
C1377 C1375 1.390 . S
C1377 C1378 1.387 . S
C1377 H1380 0.950 . S
C1378 C1377 1.387 . S
C1378 C1381 1.387 . S
H1379 C1375 0.950 . S
H1380 C1377 0.950 . S
C1381 C1372 1.390 . S
C1381 H1374 0.950 . S
C1381 C1378 1.387 . S
C1382 C1383 1.387 . S
C1382 H1386 0.950 . S
C1382 C1391 1.390 1_554 S
C1383 C1382 1.387 . S
C1383 C1385 1.387 . S
H1384 C1391 0.950 . S
C1385 C1383 1.387 . S
C1385 C1387 1.390 1_554 S
C1385 H1389 0.950 . S
H1386 C1382 0.950 . S
C1387 C1385 1.390 1_556 S
C1387 C1388 1.387 . S
C1387 H1390 0.950 . S
C1388 C1387 1.387 . S
C1388 C1391 1.387 . S
H1389 C1385 0.950 . S
H1390 C1387 0.950 . S
C1391 C1382 1.390 1_556 S
C1391 H1384 0.950 . S
C1391 C1388 1.387 . S
C1392 C1393 1.387 . S
C1392 H1396 0.950 . S
C1392 C1401 1.390 . S
C1393 C1392 1.387 . S
C1393 C1395 1.387 . S
H1394 C1401 0.950 . S
C1395 C1393 1.387 . S
C1395 C1397 1.390 . S
C1395 H1399 0.950 . S
H1396 C1392 0.950 . S
C1397 C1395 1.390 . S
C1397 C1398 1.387 . S
C1397 H1400 0.950 . S
C1398 C1397 1.387 . S
C1398 C1401 1.387 . S
H1399 C1395 0.950 . S
H1400 C1397 0.950 . S
C1401 C1392 1.390 . S
C1401 H1394 0.950 . S
C1401 C1398 1.387 . S
C1402 C1403 1.387 . S
C1402 H1406 0.950 . S
C1402 C1411 1.390 1_554 S
C1403 C1402 1.387 . S
C1403 C1405 1.387 . S
H1404 C1411 0.950 . S
C1405 C1403 1.387 . S
C1405 C1407 1.390 1_554 S
C1405 H1409 0.950 . S
H1406 C1402 0.950 . S
C1407 C1405 1.390 1_556 S
C1407 C1408 1.387 . S
C1407 H1410 0.950 . S
C1408 C1407 1.387 . S
C1408 C1411 1.387 . S
H1409 C1405 0.950 . S
H1410 C1407 0.950 . S
C1411 C1402 1.390 1_556 S
C1411 H1404 0.950 . S
C1411 C1408 1.387 . S
C1412 C1413 1.387 . S
C1412 H1416 0.950 . S
C1412 C1421 1.390 . S
C1413 C1412 1.387 . S
C1413 C1415 1.387 . S
H1414 C1421 0.950 . S
C1415 C1413 1.387 . S
C1415 C1417 1.390 . S
C1415 H1419 0.950 . S
H1416 C1412 0.950 . S
C1417 C1415 1.390 . S
C1417 C1418 1.387 . S
C1417 H1420 0.950 . S
C1418 C1417 1.387 . S
C1418 C1421 1.387 . S
H1419 C1415 0.950 . S
H1420 C1417 0.950 . S
C1421 C1412 1.390 . S
C1421 H1414 0.950 . S
C1421 C1418 1.387 . S
C1422 C1423 1.387 . S
C1422 H1426 0.950 . S
C1422 C1431 1.390 . S
C1423 C1422 1.387 . S
C1423 C1425 1.387 . S
H1424 C1431 0.950 . S
C1425 C1423 1.387 . S
C1425 C1427 1.390 . S
C1425 H1429 0.950 . S
H1426 C1422 0.950 . S
C1427 C1425 1.390 . S
C1427 C1428 1.387 1_554 S
C1427 H1430 0.950 1_554 S
C1428 C1427 1.387 1_556 S
C1428 C1431 1.387 1_556 S
H1429 C1425 0.950 . S
H1430 C1427 0.950 1_556 S
C1431 C1422 1.390 . S
C1431 H1424 0.950 . S
C1431 C1428 1.387 1_554 S
C1432 C1433 1.387 . S
C1432 H1436 0.950 . S
C1432 C1441 1.390 . S
C1433 C1432 1.387 . S
C1433 C1435 1.387 . S
H1434 C1441 0.950 . S
C1435 C1433 1.387 . S
C1435 C1437 1.390 . S
C1435 H1439 0.950 . S
H1436 C1432 0.950 . S
C1437 C1435 1.390 . S
C1437 C1438 1.387 . S
C1437 H1440 0.950 . S
C1438 C1437 1.387 . S
C1438 C1441 1.387 . S
H1439 C1435 0.950 . S
H1440 C1437 0.950 . S
C1441 C1432 1.390 . S
C1441 H1434 0.950 . S
C1441 C1438 1.387 . S
C1442 C1443 1.387 . S
C1442 H1446 0.950 . S
C1442 C1451 1.390 . S
C1443 C1442 1.387 . S
C1443 C1445 1.387 . S
H1444 C1451 0.950 . S
C1445 C1443 1.387 . S
C1445 C1447 1.390 . S
C1445 H1449 0.950 . S
H1446 C1442 0.950 . S
C1447 C1445 1.390 . S
C1447 C1448 1.387 . S
C1447 H1450 0.950 . S
C1448 C1447 1.387 . S
C1448 C1451 1.387 . S
H1449 C1445 0.950 . S
H1450 C1447 0.950 . S
C1451 C1442 1.390 . S
C1451 H1444 0.950 . S
C1451 C1448 1.387 . S
C1452 C1453 1.387 . S
C1452 H1456 0.950 . S
C1452 C1461 1.390 1_565 S
C1453 C1452 1.387 . S
C1453 C1455 1.387 . S
H1454 C1461 0.950 . S
C1455 C1453 1.387 . S
C1455 C1457 1.390 1_565 S
C1455 H1459 0.950 . S
H1456 C1452 0.950 . S
C1457 C1455 1.390 1_545 S
C1457 C1458 1.387 . S
C1457 H1460 0.950 . S
C1458 C1457 1.387 . S
C1458 C1461 1.387 . S
H1459 C1455 0.950 . S
H1460 C1457 0.950 . S
C1461 C1452 1.390 1_545 S
C1461 H1454 0.950 . S
C1461 C1458 1.387 . S
C1462 C1463 1.387 . S
C1462 H1466 0.950 . S
C1462 C1471 1.390 . S
C1463 C1462 1.387 . S
C1463 C1465 1.387 . S
H1464 C1471 0.950 . S
C1465 C1463 1.387 . S
C1465 C1467 1.390 . S
C1465 H1469 0.950 . S
H1466 C1462 0.950 . S
C1467 C1465 1.390 . S
C1467 C1468 1.387 . S
C1467 H1470 0.950 . S
C1468 C1467 1.387 . S
C1468 C1471 1.387 . S
H1469 C1465 0.950 . S
H1470 C1467 0.950 . S
C1471 C1462 1.390 . S
C1471 H1464 0.950 . S
C1471 C1468 1.387 . S
C1472 C1473 1.387 . S
C1472 H1476 0.950 . S
C1472 C1481 1.390 1_565 S
C1473 C1472 1.387 . S
C1473 C1475 1.387 . S
H1474 C1481 0.950 . S
C1475 C1473 1.387 . S
C1475 C1477 1.390 1_565 S
C1475 H1479 0.950 . S
H1476 C1472 0.950 . S
C1477 C1475 1.390 1_545 S
C1477 C1478 1.387 . S
C1477 H1480 0.950 . S
C1478 C1477 1.387 . S
C1478 C1481 1.387 . S
H1479 C1475 0.950 . S
H1480 C1477 0.950 . S
C1481 C1472 1.390 1_545 S
C1481 H1474 0.950 . S
C1481 C1478 1.387 . S
C1482 C1483 1.387 . S
C1482 H1486 0.950 . S
C1482 C1491 1.390 . S
C1483 C1482 1.387 . S
C1483 C1485 1.387 . S
H1484 C1491 0.950 . S
C1485 C1483 1.387 . S
C1485 C1487 1.390 . S
C1485 H1489 0.950 . S
H1486 C1482 0.950 . S
C1487 C1485 1.390 . S
C1487 C1488 1.387 . S
C1487 H1490 0.950 . S
C1488 C1487 1.387 . S
C1488 C1491 1.387 . S
H1489 C1485 0.950 . S
H1490 C1487 0.950 . S
C1491 C1482 1.390 . S
C1491 H1484 0.950 . S
C1491 C1488 1.387 . S
C1492 C1493 1.387 . S
C1492 H1496 0.950 . S
C1492 C1501 1.390 1_565 S
C1493 C1492 1.387 . S
C1493 C1495 1.387 . S
H1494 C1501 0.950 . S
C1495 C1493 1.387 . S
C1495 C1497 1.390 1_565 S
C1495 H1499 0.950 . S
H1496 C1492 0.950 . S
C1497 C1495 1.390 1_545 S
C1497 C1498 1.387 . S
C1497 H1500 0.950 . S
C1498 C1497 1.387 . S
C1498 C1501 1.387 . S
H1499 C1495 0.950 . S
H1500 C1497 0.950 . S
C1501 C1492 1.390 1_545 S
C1501 H1494 0.950 . S
C1501 C1498 1.387 . S
C1502 C1503 1.387 . S
C1502 H1506 0.950 . S
C1502 C1511 1.390 1_545 S
C1503 C1502 1.387 . S
C1503 C1505 1.387 . S
H1504 C1511 0.950 . S
C1505 C1503 1.387 . S
C1505 C1507 1.390 1_545 S
C1505 H1509 0.950 . S
H1506 C1502 0.950 . S
C1507 C1505 1.390 1_565 S
C1507 C1508 1.387 . S
C1507 H1510 0.950 . S
C1508 C1507 1.387 . S
C1508 C1511 1.387 . S
H1509 C1505 0.950 . S
H1510 C1507 0.950 . S
C1511 C1502 1.390 1_565 S
C1511 H1504 0.950 . S
C1511 C1508 1.387 . S
C1512 C1513 1.387 . S
C1512 H1516 0.950 . S
C1512 C1521 1.390 . S
C1513 C1512 1.387 . S
C1513 C1515 1.387 . S
H1514 C1521 0.950 . S
C1515 C1513 1.387 . S
C1515 C1517 1.390 . S
C1515 H1519 0.950 . S
H1516 C1512 0.950 . S
C1517 C1515 1.390 . S
C1517 C1518 1.387 . S
C1517 H1520 0.950 . S
C1518 C1517 1.387 . S
C1518 C1521 1.387 . S
H1519 C1515 0.950 . S
H1520 C1517 0.950 . S
C1521 C1512 1.390 . S
C1521 H1514 0.950 . S
C1521 C1518 1.387 . S
C1522 C1523 1.387 . S
C1522 H1526 0.950 . S
C1522 C1531 1.390 . S
C1523 C1522 1.387 . S
C1523 C1525 1.387 . S
H1524 C1531 0.950 . S
C1525 C1523 1.387 . S
C1525 C1527 1.390 . S
C1525 H1529 0.950 . S
H1526 C1522 0.950 . S
C1527 C1525 1.390 . S
C1527 C1528 1.387 . S
C1527 H1530 0.950 . S
C1528 C1527 1.387 . S
C1528 C1531 1.387 . S
H1529 C1525 0.950 . S
H1530 C1527 0.950 . S
C1531 C1522 1.390 . S
C1531 H1524 0.950 . S
C1531 C1528 1.387 . S
C1532 C1533 1.387 . S
C1532 H1536 0.950 . S
C1532 C1541 1.390 . S
C1533 C1532 1.387 . S
C1533 C1535 1.387 . S
H1534 C1541 0.950 . S
C1535 C1533 1.387 . S
C1535 C1537 1.390 . S
C1535 H1539 0.950 . S
H1536 C1532 0.950 . S
C1537 C1535 1.390 . S
C1537 C1538 1.387 . S
C1537 H1540 0.950 . S
C1538 C1537 1.387 . S
C1538 C1541 1.387 . S
H1539 C1535 0.950 . S
H1540 C1537 0.950 . S
C1541 C1532 1.390 . S
C1541 H1534 0.950 . S
C1541 C1538 1.387 . S
C1542 C1543 1.387 . S
C1542 H1546 0.950 . S
C1542 C1551 1.390 . S
C1543 C1542 1.387 . S
C1543 C1545 1.387 . S
H1544 C1551 0.950 . S
C1545 C1543 1.387 . S
C1545 C1547 1.390 . S
C1545 H1549 0.950 . S
H1546 C1542 0.950 . S
C1547 C1545 1.390 . S
C1547 C1548 1.387 . S
C1547 H1550 0.950 . S
C1548 C1547 1.387 . S
C1548 C1551 1.387 . S
H1549 C1545 0.950 . S
H1550 C1547 0.950 . S
C1551 C1542 1.390 . S
C1551 H1544 0.950 . S
C1551 C1548 1.387 . S
C1552 C1553 1.387 . S
C1552 H1556 0.950 . S
C1552 C1561 1.390 . S
C1553 C1552 1.387 . S
C1553 C1555 1.387 . S
H1554 C1561 0.950 . S
C1555 C1553 1.387 . S
C1555 C1557 1.390 . S
C1555 H1559 0.950 . S
H1556 C1552 0.950 . S
C1557 C1555 1.390 . S
C1557 C1558 1.387 . S
C1557 H1560 0.950 . S
C1558 C1557 1.387 . S
C1558 C1561 1.387 . S
H1559 C1555 0.950 . S
H1560 C1557 0.950 . S
C1561 C1552 1.390 . S
C1561 H1554 0.950 . S
C1561 C1558 1.387 . S
C1562 C1563 1.387 . S
C1562 H1566 0.950 . S
C1562 C1571 1.390 . S
C1563 C1562 1.387 . S
C1563 C1565 1.387 . S
H1564 C1571 0.950 . S
C1565 C1563 1.387 . S
C1565 C1567 1.390 . S
C1565 H1569 0.950 . S
H1566 C1562 0.950 . S
C1567 C1565 1.390 . S
C1567 C1568 1.387 . S
C1567 H1570 0.950 . S
C1568 C1567 1.387 . S
C1568 C1571 1.387 . S
H1569 C1565 0.950 . S
H1570 C1567 0.950 . S
C1571 C1562 1.390 . S
C1571 H1564 0.950 . S
C1571 C1568 1.387 . S
C1572 C1573 1.387 . S
C1572 H1576 0.950 . S
C1572 C1581 1.390 . S
C1573 C1572 1.387 . S
C1573 C1575 1.387 . S
H1574 C1581 0.950 . S
C1575 C1573 1.387 . S
C1575 C1577 1.390 . S
C1575 H1579 0.950 . S
H1576 C1572 0.950 . S
C1577 C1575 1.390 . S
C1577 C1578 1.387 . S
C1577 H1580 0.950 . S
C1578 C1577 1.387 . S
C1578 C1581 1.387 . S
H1579 C1575 0.950 . S
H1580 C1577 0.950 . S
C1581 C1572 1.390 . S
C1581 H1574 0.950 . S
C1581 C1578 1.387 . S
C1582 C1583 1.387 . S
C1582 H1586 0.950 . S
C1582 C1591 1.390 . S
C1583 C1582 1.387 . S
C1583 C1585 1.387 . S
H1584 C1591 0.950 . S
C1585 C1583 1.387 . S
C1585 C1587 1.390 . S
C1585 H1589 0.950 . S
H1586 C1582 0.950 . S
C1587 C1585 1.390 . S
C1587 C1588 1.387 . S
C1587 H1590 0.950 . S
C1588 C1587 1.387 . S
C1588 C1591 1.387 . S
H1589 C1585 0.950 . S
H1590 C1587 0.950 . S
C1591 C1582 1.390 . S
C1591 H1584 0.950 . S
C1591 C1588 1.387 . S
C1592 C1593 1.387 . S
C1592 H1596 0.950 . S
C1592 C1601 1.390 . S
C1593 C1592 1.387 . S
C1593 C1595 1.387 . S
H1594 C1601 0.950 . S
C1595 C1593 1.387 . S
C1595 C1597 1.390 . S
C1595 H1599 0.950 . S
H1596 C1592 0.950 . S
C1597 C1595 1.390 . S
C1597 C1598 1.387 . S
C1597 H1600 0.950 . S
C1598 C1597 1.387 . S
C1598 C1601 1.387 . S
H1599 C1595 0.950 . S
H1600 C1597 0.950 . S
C1601 C1592 1.390 . S
C1601 H1594 0.950 . S
C1601 C1598 1.387 . S
C1602 C1603 1.387 . S
C1602 H1606 0.950 . S
C1602 C1611 1.390 . S
C1603 C1602 1.387 . S
C1603 C1605 1.387 . S
H1604 C1611 0.950 . S
C1605 C1603 1.387 . S
C1605 C1607 1.390 . S
C1605 H1609 0.950 . S
H1606 C1602 0.950 . S
C1607 C1605 1.390 . S
C1607 C1608 1.387 . S
C1607 H1610 0.950 . S
C1608 C1607 1.387 . S
C1608 C1611 1.387 . S
H1609 C1605 0.950 . S
H1610 C1607 0.950 . S
C1611 C1602 1.390 . S
C1611 H1604 0.950 . S
C1611 C1608 1.387 . S
C1612 C1613 1.387 . S
C1612 H1616 0.950 . S
C1612 C1621 1.390 . S
C1613 C1612 1.387 . S
C1613 C1615 1.387 . S
H1614 C1621 0.950 . S
C1615 C1613 1.387 . S
C1615 C1617 1.390 . S
C1615 H1619 0.950 . S
H1616 C1612 0.950 . S
C1617 C1615 1.390 . S
C1617 C1618 1.387 . S
C1617 H1620 0.950 . S
C1618 C1617 1.387 . S
C1618 C1621 1.387 . S
H1619 C1615 0.950 . S
H1620 C1617 0.950 . S
C1621 C1612 1.390 . S
C1621 H1614 0.950 . S
C1621 C1618 1.387 . S
C1622 C1623 1.387 . S
C1622 H1626 0.950 . S
C1622 C1631 1.390 . S
C1623 C1622 1.387 . S
C1623 C1625 1.387 . S
H1624 C1631 0.950 . S
C1625 C1623 1.387 . S
C1625 C1627 1.390 . S
C1625 H1629 0.950 . S
H1626 C1622 0.950 . S
C1627 C1625 1.390 . S
C1627 C1628 1.387 . S
C1627 H1630 0.950 . S
C1628 C1627 1.387 . S
C1628 C1631 1.387 . S
H1629 C1625 0.950 . S
H1630 C1627 0.950 . S
C1631 C1622 1.390 . S
C1631 H1624 0.950 . S
C1631 C1628 1.387 . S
C1632 C1633 1.387 . S
C1632 H1636 0.950 . S
C1632 C1641 1.390 . S
C1633 C1632 1.387 . S
C1633 C1635 1.387 . S
H1634 C1641 0.950 . S
C1635 C1633 1.387 . S
C1635 C1637 1.390 . S
C1635 H1639 0.950 . S
H1636 C1632 0.950 . S
C1637 C1635 1.390 . S
C1637 C1638 1.387 . S
C1637 H1640 0.950 . S
C1638 C1637 1.387 . S
C1638 C1641 1.387 . S
H1639 C1635 0.950 . S
H1640 C1637 0.950 . S
C1641 C1632 1.390 . S
C1641 H1634 0.950 . S
C1641 C1638 1.387 . S
C1642 C1643 1.387 . S
C1642 H1646 0.950 . S
C1642 C1651 1.390 . S
C1643 C1642 1.387 . S
C1643 C1645 1.387 . S
H1644 C1651 0.950 . S
C1645 C1643 1.387 . S
C1645 C1647 1.390 . S
C1645 H1649 0.950 . S
H1646 C1642 0.950 . S
C1647 C1645 1.390 . S
C1647 C1648 1.387 . S
C1647 H1650 0.950 . S
C1648 C1647 1.387 . S
C1648 C1651 1.387 . S
H1649 C1645 0.950 . S
H1650 C1647 0.950 . S
C1651 C1642 1.390 . S
C1651 H1644 0.950 . S
C1651 C1648 1.387 . S
C1652 C1653 1.387 . S
C1652 H1656 0.950 . S
C1652 C1661 1.390 . S
C1653 C1652 1.387 . S
C1653 C1655 1.387 . S
H1654 C1661 0.950 . S
C1655 C1653 1.387 . S
C1655 C1657 1.390 . S
C1655 H1659 0.950 . S
H1656 C1652 0.950 . S
C1657 C1655 1.390 . S
C1657 C1658 1.387 . S
C1657 H1660 0.950 . S
C1658 C1657 1.387 . S
C1658 C1661 1.387 . S
H1659 C1655 0.950 . S
H1660 C1657 0.950 . S
C1661 C1652 1.390 . S
C1661 H1654 0.950 . S
C1661 C1658 1.387 . S
C1662 C1663 1.387 . S
C1662 H1666 0.950 . S
C1662 C1671 1.390 . S
C1663 C1662 1.387 . S
C1663 C1665 1.387 . S
H1664 C1671 0.950 . S
C1665 C1663 1.387 . S
C1665 C1667 1.390 . S
C1665 H1669 0.950 . S
H1666 C1662 0.950 . S
C1667 C1665 1.390 . S
C1667 C1668 1.387 . S
C1667 H1670 0.950 . S
C1668 C1667 1.387 . S
C1668 C1671 1.387 . S
H1669 C1665 0.950 . S
H1670 C1667 0.950 . S
C1671 C1662 1.390 . S
C1671 H1664 0.950 . S
C1671 C1668 1.387 . S
C1672 C1673 1.387 . S
C1672 H1676 0.950 . S
C1672 C1681 1.390 . S
C1673 C1672 1.387 . S
C1673 C1675 1.387 . S
H1674 C1681 0.950 . S
C1675 C1673 1.387 . S
C1675 C1677 1.390 . S
C1675 H1679 0.950 . S
H1676 C1672 0.950 . S
C1677 C1675 1.390 . S
C1677 C1678 1.387 . S
C1677 H1680 0.950 . S
C1678 C1677 1.387 . S
C1678 C1681 1.387 . S
H1679 C1675 0.950 . S
H1680 C1677 0.950 . S
C1681 C1672 1.390 . S
C1681 H1674 0.950 . S
C1681 C1678 1.387 . S
C1682 C1683 1.387 . S
C1682 H1686 0.950 . S
C1682 C1691 1.390 . S
C1683 C1682 1.387 . S
C1683 C1685 1.387 . S
H1684 C1691 0.950 . S
C1685 C1683 1.387 . S
C1685 C1687 1.390 . S
C1685 H1689 0.950 . S
H1686 C1682 0.950 . S
C1687 C1685 1.390 . S
C1687 C1688 1.387 . S
C1687 H1690 0.950 . S
C1688 C1687 1.387 . S
C1688 C1691 1.387 . S
H1689 C1685 0.950 . S
H1690 C1687 0.950 . S
C1691 C1682 1.390 . S
C1691 H1684 0.950 . S
C1691 C1688 1.387 . S
C1692 C1693 1.387 . S
C1692 H1696 0.950 . S
C1692 C1701 1.390 . S
C1693 C1692 1.387 . S
C1693 C1695 1.387 . S
H1694 C1701 0.950 . S
C1695 C1693 1.387 . S
C1695 C1697 1.390 . S
C1695 H1699 0.950 . S
H1696 C1692 0.950 . S
C1697 C1695 1.390 . S
C1697 C1698 1.387 . S
C1697 H1700 0.950 . S
C1698 C1697 1.387 . S
C1698 C1701 1.387 . S
H1699 C1695 0.950 . S
H1700 C1697 0.950 . S
C1701 C1692 1.390 . S
C1701 H1694 0.950 . S
C1701 C1698 1.387 . S
C1702 C1703 1.387 . S
C1702 H1706 0.950 . S
C1702 C1711 1.390 . S
C1703 C1702 1.387 . S
C1703 C1705 1.387 . S
H1704 C1711 0.950 . S
C1705 C1703 1.387 . S
C1705 C1707 1.390 . S
C1705 H1709 0.950 . S
H1706 C1702 0.950 . S
C1707 C1705 1.390 . S
C1707 C1708 1.387 . S
C1707 H1710 0.950 . S
C1708 C1707 1.387 . S
C1708 C1711 1.387 . S
H1709 C1705 0.950 . S
H1710 C1707 0.950 . S
C1711 C1702 1.390 . S
C1711 H1704 0.950 . S
C1711 C1708 1.387 . S
C1712 C1713 1.387 . S
C1712 H1716 0.950 . S
C1712 C1721 1.390 . S
C1713 C1712 1.387 . S
C1713 C1715 1.387 . S
H1714 C1721 0.950 . S
C1715 C1713 1.387 . S
C1715 C1717 1.390 . S
C1715 H1719 0.950 . S
H1716 C1712 0.950 . S
C1717 C1715 1.390 . S
C1717 C1718 1.387 . S
C1717 H1720 0.950 . S
C1718 C1717 1.387 . S
C1718 C1721 1.387 . S
H1719 C1715 0.950 . S
H1720 C1717 0.950 . S
C1721 C1712 1.390 . S
C1721 H1714 0.950 . S
C1721 C1718 1.387 . S
C1722 C1723 1.387 . S
C1722 H1726 0.950 . S
C1722 C1731 1.390 . S
C1723 C1722 1.387 . S
C1723 C1725 1.387 . S
H1724 C1731 0.950 . S
C1725 C1723 1.387 . S
C1725 C1727 1.390 . S
C1725 H1729 0.950 . S
H1726 C1722 0.950 . S
C1727 C1725 1.390 . S
C1727 C1728 1.387 . S
C1727 H1730 0.950 . S
C1728 C1727 1.387 . S
C1728 C1731 1.387 . S
H1729 C1725 0.950 . S
H1730 C1727 0.950 . S
C1731 C1722 1.390 . S
C1731 H1724 0.950 . S
C1731 C1728 1.387 . S
C1732 C1733 1.387 . S
C1732 H1736 0.950 . S
C1732 C1741 1.390 . S
C1733 C1732 1.387 . S
C1733 C1735 1.387 . S
H1734 C1741 0.950 . S
C1735 C1733 1.387 . S
C1735 C1737 1.390 . S
C1735 H1739 0.950 . S
H1736 C1732 0.950 . S
C1737 C1735 1.390 . S
C1737 C1738 1.387 . S
C1737 H1740 0.950 . S
C1738 C1737 1.387 . S
C1738 C1741 1.387 . S
H1739 C1735 0.950 . S
H1740 C1737 0.950 . S
C1741 C1732 1.390 . S
C1741 H1734 0.950 . S
C1741 C1738 1.387 . S
C1742 C1743 1.387 . S
C1742 H1746 0.950 . S
C1742 C1751 1.390 . S
C1743 C1742 1.387 . S
C1743 C1745 1.387 . S
H1744 C1751 0.950 . S
C1745 C1743 1.387 . S
C1745 C1747 1.390 . S
C1745 H1749 0.950 . S
H1746 C1742 0.950 . S
C1747 C1745 1.390 . S
C1747 C1748 1.387 . S
C1747 H1750 0.950 . S
C1748 C1747 1.387 . S
C1748 C1751 1.387 . S
H1749 C1745 0.950 . S
H1750 C1747 0.950 . S
C1751 C1742 1.390 . S
C1751 H1744 0.950 . S
C1751 C1748 1.387 . S
C1273 C834 1.987 . S
C1278 C39 1.996 . S
C1283 C675 2.093 . S
C1288 C75 2.035 . S
C1293 C728 1.628 . S
C1298 C145 1.622 . S
C1303 C764 1.824 . S
C1308 C181 1.839 . S
C1313 C781 2.009 . S
C1318 C92 1.985 . S
C1323 C128 1.822 . S
C1328 C817 1.805 . S
C1333 C658 1.801 . S
C1338 C198 1.852 . S
C1343 C711 1.759 . S
C1348 C22 1.768 . S
C1353 C976 1.710 . S
C1358 C234 1.687 . S
C1363 C304 1.941 . S
C1368 C1046 1.943 . S
C1373 C357 1.841 . S
C1378 C870 1.779 . S
C1383 C940 2.114 . S
C1388 C410 2.110 . S
C1393 C1188 2.065 . S
C1398 C463 2.120 . S
C1403 C516 1.858 . S
C1408 C1258 1.849 . S
C1413 C569 2.153 . S
C1418 C1099 2.156 . S
C1423 C622 1.726 . S
C1428 C1135 1.615 . S
C1433 C923 1.679 . S
C1438 C605 1.674 . S
C1443 C1241 1.953 . S
C1448 C287 1.973 . S
C1453 C340 1.809 . S
C1458 C1082 1.789 . S
C1463 C1152 2.053 . S
C1468 C393 1.996 . S
C1473 C1205 2.077 . S
C1478 C251 2.117 . S
C1483 C499 1.841 . S
C1488 C1029 1.838 . S
C1493 C887 2.030 . S
C1498 C552 1.964 . S
C1503 C993 1.869 . S
C1508 C446 1.831 . S
C1513 C38 2.003 . S
C1518 C250 2.009 . S
C1523 C294 1.931 . S
C1528 C82 1.912 . S
C1533 C144 1.987 . S
C1538 C347 1.982 . S
C1543 C188 1.873 . S
C1548 C400 1.859 . S
C1553 C453 2.093 . S
C1558 C91 2.091 . S
C1563 C506 1.924 . S
C1568 C135 1.925 . S
C1573 C559 2.192 . S
C1578 C197 2.195 . S
C1583 C29 1.840 . S
C1588 C612 1.829 . S
C1593 C621 2.176 . S
C1598 C241 2.144 . S
C1603 C303 2.230 . S
C1608 C462 2.234 . S
C1613 C356 2.036 . S
C1618 C515 2.033 . S
C1623 C568 2.270 . S
C1628 C409 2.269 . S
C1633 C886 2.146 . S
C1638 C665 2.124 . S
C1643 C930 1.950 . S
C1648 C718 1.936 . S
C1653 C780 2.037 . S
C1658 C992 2.028 . S
C1663 C824 2.068 . S
C1668 C1036 2.071 . S
C1673 C727 2.107 . S
C1678 C1089 2.089 . S
C1683 C771 1.970 . S
C1688 C1151 1.984 . S
C1693 C1204 2.209 . S
C1698 C833 2.211 . S
C1703 C674 2.037 . S
C1708 C1248 2.008 . S
C1713 C877 1.943 . S
C1718 C1257 1.958 . S
C1723 C1098 2.081 . S
C1728 C939 2.081 . S
C1733 C983 2.157 . S
C1738 C1142 2.122 . S
C1743 C1195 2.067 . S
C1748 C1045 2.074 . S
