# Generated by pormake.
# Topology wje, (4)-cn, num edge types: 1
# Building blocks:
#     Node 0, Type 0, BuildingBlock: KUFVIS_clean_sbu_0, # of connection points: 4
#     Node 1, Type 0, BuildingBlock: KUFVIS_clean_sbu_0, # of connection points: 4
#     Node 2, Type 0, BuildingBlock: KUFVIS_clean_sbu_0, # of connection points: 4
#     Node 3, Type 0, BuildingBlock: KUFVIS_clean_sbu_0, # of connection points: 4
#     Node 4, Type 0, BuildingBlock: KUFVIS_clean_sbu_0, # of connection points: 4
#     Node 5, Type 0, BuildingBlock: KUFVIS_clean_sbu_0, # of connection points: 4
#     Node 6, Type 0, BuildingBlock: KUFVIS_clean_sbu_0, # of connection points: 4
#     Node 7, Type 0, BuildingBlock: KUFVIS_clean_sbu_0, # of connection points: 4
#     Node 8, Type 0, BuildingBlock: KUFVIS_clean_sbu_0, # of connection points: 4
#     Node 9, Type 0, BuildingBlock: KUFVIS_clean_sbu_0, # of connection points: 4
#     Node 10, Type 0, BuildingBlock: KUFVIS_clean_sbu_0, # of connection points: 4
#     Node 11, Type 0, BuildingBlock: KUFVIS_clean_sbu_0, # of connection points: 4
#     Edge 12, Type (0, 0), BuildingBlock: OJICUG_clean_linker_0, # of connection points: 2
#     Edge 13, Type (0, 0), BuildingBlock: OJICUG_clean_linker_0, # of connection points: 2
#     Edge 14, Type (0, 0), BuildingBlock: OJICUG_clean_linker_0, # of connection points: 2
#     Edge 15, Type (0, 0), BuildingBlock: OJICUG_clean_linker_0, # of connection points: 2
#     Edge 16, Type (0, 0), BuildingBlock: OJICUG_clean_linker_0, # of connection points: 2
#     Edge 17, Type (0, 0), BuildingBlock: OJICUG_clean_linker_0, # of connection points: 2
#     Edge 18, Type (0, 0), BuildingBlock: OJICUG_clean_linker_0, # of connection points: 2
#     Edge 19, Type (0, 0), BuildingBlock: OJICUG_clean_linker_0, # of connection points: 2
#     Edge 20, Type (0, 0), BuildingBlock: OJICUG_clean_linker_0, # of connection points: 2
#     Edge 21, Type (0, 0), BuildingBlock: OJICUG_clean_linker_0, # of connection points: 2
#     Edge 22, Type (0, 0), BuildingBlock: OJICUG_clean_linker_0, # of connection points: 2
#     Edge 23, Type (0, 0), BuildingBlock: OJICUG_clean_linker_0, # of connection points: 2
#     Edge 24, Type (0, 0), BuildingBlock: OJICUG_clean_linker_0, # of connection points: 2
#     Edge 25, Type (0, 0), BuildingBlock: OJICUG_clean_linker_0, # of connection points: 2
#     Edge 26, Type (0, 0), BuildingBlock: OJICUG_clean_linker_0, # of connection points: 2
#     Edge 27, Type (0, 0), BuildingBlock: OJICUG_clean_linker_0, # of connection points: 2
#     Edge 28, Type (0, 0), BuildingBlock: OJICUG_clean_linker_0, # of connection points: 2
#     Edge 29, Type (0, 0), BuildingBlock: OJICUG_clean_linker_0, # of connection points: 2
#     Edge 30, Type (0, 0), BuildingBlock: OJICUG_clean_linker_0, # of connection points: 2
#     Edge 31, Type (0, 0), BuildingBlock: OJICUG_clean_linker_0, # of connection points: 2
#     Edge 32, Type (0, 0), BuildingBlock: OJICUG_clean_linker_0, # of connection points: 2
#     Edge 33, Type (0, 0), BuildingBlock: OJICUG_clean_linker_0, # of connection points: 2
#     Edge 34, Type (0, 0), BuildingBlock: OJICUG_clean_linker_0, # of connection points: 2
#     Edge 35, Type (0, 0), BuildingBlock: OJICUG_clean_linker_0, # of connection points: 2
# Relax obj value: 0.154
# Max RMSD: 0.106
# Mean RMSD: 0.106
data_MOF--net-wje--node1-KUFVIS_clean_sbu_0--edge1-OJICUG_clean_linker_0
_symmetry_space_group_name_H-M    P1
_symmetry_Int_Tables_number       1
_symmetry_cell_setting            triclinic
loop_
_symmetry_equiv_pos_as_xyz
'x, y, z'
_cell_length_a     28.593708
_cell_length_b     28.604617
_cell_length_c     27.741967
_cell_angle_alpha  90.142858
_cell_angle_beta   90.072222
_cell_angle_gamma 119.97734
loop_
_atom_site_label
_atom_site_type_symbol
_atom_site_fract_x
_atom_site_fract_y
_atom_site_fract_z
_atom_type_partial_charge
Mn0 Mn 0.31615 0.01501 0.34706 0.0
Mn1 Mn 0.29372 0.95224 0.24054 0.0
C2 C 0.22784 0.94981 0.32615 0.0
C3 C 0.33529 0.01398 0.42909 0.0
C4 C 0.31584 0.06779 0.25051 0.0
O5 O 0.3908 0.02932 0.32905 0.0
O6 O 0.37012 0.98283 0.25954 0.0
C7 C 0.31317 0.86451 0.27184 0.0
N8 N 0.28113 0.8809 0.24996 0.0
C9 C 0.22054 0.79135 0.22126 0.0
C10 C 0.25281 0.7733 0.24324 0.0
C11 C 0.29893 0.80994 0.26932 0.0
C12 C 0.23528 0.84559 0.22713 0.0
H13 H 0.3495 0.8929 0.2907 0.0
C14 C 0.40332 0.01039 0.29291 0.0
O15 O 0.34378 0.05845 0.40869 0.0
O16 O 0.31723 0.97191 0.40197 0.0
N17 N 0.22155 0.91864 0.21657 0.0
C18 C 0.1942 0.94243 0.19867 0.0
C19 C 0.14738 0.91159 0.17105 0.0
C20 C 0.13031 0.85723 0.16088 0.0
C21 C 0.15896 0.83354 0.18009 0.0
C22 C 0.20417 0.86577 0.20863 0.0
H23 H 0.20898 0.98495 0.20416 0.0
O24 O 0.23757 0.98763 0.35709 0.0
O25 O 0.27076 0.95265 0.30693 0.0
O26 O 0.32007 0.07052 0.29663 0.0
O27 O 0.30617 0.02554 0.22671 0.0
C28 C 0.14618 0.78005 0.17029 0.0
C29 C 0.1756 0.75833 0.19218 0.0
H30 H 0.24279 0.73155 0.24005 0.0
H31 H 0.32408 0.79641 0.28646 0.0
H32 H 0.12559 0.93016 0.1562 0.0
H33 H 0.09558 0.83443 0.13778 0.0
H34 H 0.11485 0.75553 0.14497 0.0
H35 H 0.16437 0.71675 0.18512 0.0
Mn36 Mn 0.31232 0.32001 0.67946 0.0
Mn37 Mn 0.34635 0.28651 0.57535 0.0
C38 C 0.28394 0.23074 0.66464 0.0
C39 C 0.33586 0.34307 0.76024 0.0
C40 C 0.2562 0.31363 0.58231 0.0
O41 O 0.37444 0.39067 0.65731 0.0
O42 O 0.39411 0.36552 0.58677 0.0
C43 C 0.45605 0.31022 0.60343 0.0
N44 N 0.40498 0.27422 0.58835 0.0
C45 C 0.42273 0.20085 0.5946 0.0
C46 C 0.47549 0.23706 0.60988 0.0
C47 C 0.49231 0.29209 0.61404 0.0
C48 C 0.38881 0.22146 0.58295 0.0
H49 H 0.46916 0.35248 0.6078 0.0
C50 C 0.40326 0.40054 0.61974 0.0
O51 O 0.30152 0.35356 0.73896 0.0
O52 O 0.35701 0.32107 0.73445 0.0
N53 N 0.30495 0.21093 0.56209 0.0
C54 C 0.2515 0.18063 0.55104 0.0
C55 C 0.22763 0.12427 0.54801 0.0
C56 C 0.25878 0.09975 0.55715 0.0
C57 C 0.31381 0.13194 0.5682 0.0
C58 C 0.33574 0.18787 0.56935 0.0
H59 H 0.22706 0.19926 0.54571 0.0
O60 O 0.25775 0.24419 0.69436 0.0
O61 O 0.32492 0.27079 0.643 0.0
O62 O 0.2613 0.32375 0.62782 0.0
O63 O 0.28527 0.29839 0.55949 0.0
C64 C 0.34707 0.11065 0.58087 0.0
C65 C 0.40159 0.14481 0.59311 0.0
H66 H 0.50307 0.22292 0.61933 0.0
H67 H 0.53283 0.32036 0.62619 0.0
H68 H 0.18507 0.09969 0.53979 0.0
H69 H 0.23979 0.05618 0.55636 0.0
H70 H 0.33076 0.06813 0.58367 0.0
H71 H 0.42621 0.12739 0.60325 0.0
Mn72 Mn 0.99183 0.30674 1.01053 0.0
Mn73 Mn 0.05269 0.34549 0.90394 0.0
C74 C 0.05481 0.28153 0.98937 0.0
C75 C 0.99492 0.32808 0.09232 0.0
C76 C 0.93707 0.25267 0.9144 0.0
O77 O 0.97839 0.36756 0.99317 0.0
O78 O 0.02232 0.39163 0.92275 0.0
C79 C 0.14053 0.45278 0.93537 0.0
N80 N 0.12406 0.40432 0.91342 0.0
C81 C 0.21309 0.43386 0.88351 0.0
C82 C 0.23123 0.48424 0.90552 0.0
C83 C 0.19491 0.49342 0.9323 0.0
C84 C 0.15918 0.39398 0.89015 0.0
H85 H 0.11232 0.46055 0.95464 0.0
C86 C 0.99617 0.39825 0.95671 0.0
O87 O 0.94994 0.29252 0.07204 0.0
O88 O 0.03681 0.35105 0.0651 0.0
N89 N 0.08624 0.30699 0.87979 0.0
C90 C 0.06239 0.2559 0.86166 0.0
C91 C 0.09296 0.24018 0.83343 0.0
C92 C 0.14701 0.27777 0.82271 0.0
C93 C 0.17069 0.33013 0.84201 0.0
C94 C 0.13892 0.34272 0.87147 0.0
H95 H 0.01999 0.22799 0.86744 0.0
O96 O 0.01706 0.25418 0.02033 0.0
O97 O 0.05314 0.32232 0.97022 0.0
O98 O 0.93487 0.2553 0.96049 0.0
O99 O 0.97924 0.28443 0.89032 0.0
C100 C 0.22362 0.37127 0.8313 0.0
C101 C 0.24556 0.42235 0.85341 0.0
H102 H 0.27275 0.51625 0.90175 0.0
H103 H 0.20847 0.53215 0.94944 0.0
H104 H 0.07436 0.19983 0.81846 0.0
H105 H 0.16964 0.2661 0.79917 0.0
H106 H 0.24747 0.36479 0.80509 0.0
H107 H 0.28677 0.45304 0.84563 0.0
Mn108 Mn 0.6858 0.99386 0.34335 0.0
Mn109 Mn 0.70865 0.05606 0.23749 0.0
C110 C 0.77441 0.05537 0.32247 0.0
C111 C 0.66742 0.99638 0.42488 0.0
C112 C 0.68345 0.93953 0.24666 0.0
O113 O 0.61207 0.98228 0.32617 0.0
O114 O 0.63261 0.02774 0.25662 0.0
C115 C 0.69285 0.14567 0.2706 0.0
N116 N 0.72349 0.12805 0.24796 0.0
C117 C 0.78503 0.21691 0.21916 0.0
C118 C 0.75422 0.23626 0.24189 0.0
C119 C 0.70836 0.20057 0.26844 0.0
C120 C 0.76928 0.16244 0.2249 0.0
H121 H 0.65663 0.11801 0.28975 0.0
C122 C 0.59974 0.00158 0.29039 0.0
O123 O 0.65715 0.9513 0.40423 0.0
O124 O 0.68757 0.03879 0.39826 0.0
N125 N 0.78031 0.08782 0.21305 0.0
C126 C 0.8058 0.06268 0.19388 0.0
C127 C 0.85173 0.09228 0.16519 0.0
C128 C 0.86972 0.1468 0.15521 0.0
C129 C 0.84307 0.17192 0.17584 0.0
C130 C 0.7988 0.14091 0.20545 0.0
H131 H 0.79008 0.01998 0.19907 0.0
O132 O 0.76324 0.01726 0.35324 0.0
O133 O 0.73243 0.05505 0.30352 0.0
O134 O 0.67911 0.93702 0.29276 0.0
O135 O 0.694 0.98198 0.22297 0.0
C136 C 0.85669 0.22562 0.16622 0.0
C137 C 0.8292 0.24878 0.18922 0.0
H138 H 0.76511 0.27824 0.23882 0.0
H139 H 0.6843 0.21506 0.28613 0.0
H140 H 0.87196 0.07261 0.14925 0.0
H141 H 0.9035 0.16857 0.13109 0.0
H142 H 0.88721 0.24923 0.14026 0.0
H143 H 0.84113 0.29051 0.18221 0.0
Mn144 Mn 0.69695 0.68659 0.67506 0.0
Mn145 Mn 0.65957 0.70888 0.56774 0.0
C146 C 0.72168 0.77471 0.65452 0.0
C147 C 0.67398 0.66751 0.75645 0.0
C148 C 0.75307 0.68718 0.58018 0.0
O149 O 0.63737 0.61219 0.65595 0.0
O150 O 0.61337 0.63201 0.58535 0.0
C151 C 0.5515 0.68855 0.59702 0.0
N152 N 0.60034 0.721 0.57614 0.0
C153 C 0.57139 0.78127 0.54701 0.0
C154 C 0.52062 0.74857 0.5679 0.0
C155 C 0.51092 0.70241 0.59373 0.0
C156 C 0.61111 0.76696 0.55374 0.0
H157 H 0.5434 0.65217 0.61564 0.0
C158 C 0.60708 0.59906 0.61897 0.0
O159 O 0.71033 0.6588 0.73697 0.0
O160 O 0.65099 0.68599 0.72863 0.0
N161 N 0.69827 0.78117 0.54458 0.0
C162 C 0.74967 0.80872 0.52743 0.0
C163 C 0.76585 0.85552 0.50002 0.0
C164 C 0.72848 0.8723 0.48921 0.0
C165 C 0.67584 0.8434 0.50764 0.0
C166 C 0.6627 0.79834 0.53613 0.0
H167 H 0.77749 0.7941 0.53332 0.0
O168 O 0.74852 0.7644 0.68625 0.0
O169 O 0.68152 0.7322 0.63447 0.0
O170 O 0.75002 0.68249 0.62624 0.0
O171 O 0.72117 0.69698 0.55542 0.0
C172 C 0.63499 0.85571 0.49696 0.0
C173 C 0.58351 0.82608 0.51799 0.0
H174 H 0.48871 0.75826 0.56401 0.0
H175 H 0.47189 0.67691 0.61002 0.0
H176 H 0.80643 0.87749 0.48577 0.0
H177 H 0.74055 0.90699 0.46623 0.0
H178 H 0.64199 0.88686 0.47161 0.0
H179 H 0.55304 0.83697 0.51023 0.0
Mn180 Mn 0.00898 0.69491 1.01124 0.0
Mn181 Mn 0.94755 0.65618 0.90457 0.0
C182 C 0.94676 0.72113 0.99007 0.0
C183 C 0.00594 0.67313 0.09254 0.0
C184 C 0.0636 0.74819 0.91549 0.0
O185 O 0.02182 0.63371 0.9934 0.0
O186 O 0.97678 0.60914 0.92332 0.0
C187 C 0.85863 0.54992 0.93605 0.0
N188 N 0.8758 0.59833 0.91403 0.0
C189 C 0.78675 0.57042 0.88477 0.0
C190 C 0.76787 0.5201 0.90685 0.0
C191 C 0.80388 0.51014 0.93332 0.0
C192 C 0.84108 0.60947 0.89104 0.0
H193 H 0.88656 0.54157 0.95515 0.0
C194 C 0.00322 0.60259 0.95707 0.0
O195 O 0.0511 0.70864 0.07272 0.0
O196 O 0.96387 0.6507 0.06526 0.0
N197 N 0.91511 0.69562 0.8804 0.0
C198 C 0.93981 0.74644 0.86192 0.0
C199 C 0.90986 0.76263 0.8334 0.0
C200 C 0.85546 0.72579 0.8229 0.0
C201 C 0.83079 0.67381 0.84282 0.0
C202 C 0.86212 0.66066 0.87227 0.0
H203 H 0.98243 0.7737 0.86751 0.0
O204 O 0.98439 0.748 0.02151 0.0
O205 O 0.94791 0.68006 0.97078 0.0
O206 O 0.06588 0.74601 0.96159 0.0
O207 O 0.02139 0.71631 0.89123 0.0
C208 C 0.77725 0.63346 0.83266 0.0
C209 C 0.75455 0.5826 0.85498 0.0
H210 H 0.726 0.48874 0.90336 0.0
H211 H 0.78974 0.47147 0.95052 0.0
H212 H 0.92918 0.80269 0.81799 0.0
H213 H 0.83345 0.73774 0.7989 0.0
H214 H 0.75344 0.64031 0.80674 0.0
H215 H 0.71293 0.55256 0.84756 0.0
Mn216 Mn 0.97064 0.66603 0.37541 0.0
Mn217 Mn 0.04216 0.70747 0.47719 0.0
C218 C 0.03338 0.75639 0.38394 0.0
C219 C 0.96786 0.64026 0.29539 0.0
C220 C 0.92382 0.67742 0.47175 0.0
O221 O 0.96451 0.59714 0.40158 0.0
O222 O 0.01534 0.62861 0.46893 0.0
C223 C 0.13263 0.68968 0.4519 0.0
N224 N 0.11424 0.72395 0.4638 0.0
C225 C 0.20116 0.80118 0.44899 0.0
C226 C 0.22121 0.76691 0.43683 0.0
C227 C 0.18685 0.71083 0.43876 0.0
C228 C 0.1474 0.77786 0.46393 0.0
H229 H 0.10613 0.64651 0.45189 0.0
C230 C 0.9879 0.59102 0.43827 0.0
O231 O 0.92348 0.62904 0.31778 0.0
O232 O 0.01178 0.66236 0.32025 0.0
N233 N 0.07158 0.78319 0.48629 0.0
C234 C 0.04519 0.81077 0.49593 0.0
C235 C 0.07342 0.86733 0.49347 0.0
C236 C 0.12793 0.89467 0.47979 0.0
C237 C 0.15402 0.8652 0.47014 0.0
C238 C 0.12471 0.80924 0.47542 0.0
H239 H 0.00264 0.78976 0.50423 0.0
O240 O 0.99162 0.74112 0.35639 0.0
O241 O 0.03422 0.71784 0.40846 0.0
O242 O 0.91773 0.66585 0.42666 0.0
O243 O 0.96833 0.69228 0.49398 0.0
C244 C 0.2067 0.88878 0.452 0.0
C245 C 0.23119 0.85734 0.44336 0.0
H246 H 0.26255 0.7832 0.42498 0.0
H247 H 0.20179 0.68399 0.42904 0.0
H248 H 0.05281 0.88967 0.50062 0.0
H249 H 0.14912 0.93817 0.47604 0.0
H250 H 0.22708 0.93044 0.44175 0.0
H251 H 0.272 0.87604 0.42974 0.0
Mn252 Mn 0.2983 0.96731 0.7098 0.0
Mn253 Mn 0.32905 0.03686 0.8134 0.0
C254 C 0.27239 0.03125 0.72075 0.0
C255 C 0.32063 0.96369 0.62942 0.0
C256 C 0.24192 0.91833 0.80586 0.0
O257 O 0.36058 0.95969 0.73613 0.0
O258 O 0.38311 0.01329 0.80219 0.0
C259 C 0.43448 0.13177 0.78872 0.0
N260 N 0.38202 0.1106 0.80252 0.0
C261 C 0.3894 0.198 0.80089 0.0
C262 C 0.44355 0.22083 0.78697 0.0
C263 C 0.46622 0.18755 0.78096 0.0
C264 C 0.36004 0.14235 0.80917 0.0
H265 H 0.45193 0.10631 0.78323 0.0
C266 C 0.39177 0.98458 0.77176 0.0
O267 O 0.28642 0.92004 0.65198 0.0
O268 O 0.34349 0.00786 0.65411 0.0
N269 N 0.28006 0.0627 0.82546 0.0
C270 C 0.22608 0.03389 0.83471 0.0
C271 C 0.19669 0.06094 0.83909 0.0
C272 C 0.22293 0.11715 0.83337 0.0
C273 C 0.27846 0.14581 0.8238 0.0
C274 C 0.30593 0.11693 0.82083 0.0
H275 H 0.2054 0.99053 0.83808 0.0
O276 O 0.24566 0.99095 0.69162 0.0
O277 O 0.31093 0.03014 0.74484 0.0
O278 O 0.245 0.91396 0.76017 0.0
O279 O 0.27314 0.96172 0.82886 0.0
C280 C 0.30715 0.20164 0.81531 0.0
C281 C 0.36272 0.22789 0.80455 0.0
H282 H 0.4678 0.26369 0.77997 0.0
H283 H 0.50784 0.20474 0.76978 0.0
H284 H 0.15376 0.03843 0.84619 0.0
H285 H 0.19997 0.13782 0.83589 0.0
H286 H 0.28618 0.22413 0.81565 0.0
H287 H 0.38439 0.27072 0.79764 0.0
Mn288 Mn 0.33465 0.3036 0.0431 0.0
Mn289 Mn 0.29346 0.33243 0.14537 0.0
C290 C 0.24424 0.27578 0.05184 0.0
C291 C 0.36062 0.32907 0.96351 0.0
C292 C 0.32606 0.24607 0.13875 0.0
O293 O 0.40346 0.36592 0.07022 0.0
O294 O 0.37136 0.38694 0.13613 0.0
C295 C 0.30506 0.43835 0.12107 0.0
N296 N 0.27316 0.38545 0.13324 0.0
C297 C 0.19315 0.39207 0.12587 0.0
C298 C 0.22497 0.44665 0.11361 0.0
C299 C 0.28126 0.46995 0.11136 0.0
C300 C 0.2191 0.3629 0.13641 0.0
H301 H 0.34832 0.45633 0.11844 0.0
C302 C 0.40909 0.39651 0.10598 0.0
O303 O 0.37191 0.29533 0.98472 0.0
O304 O 0.33792 0.34962 0.98915 0.0
N305 N 0.21843 0.28326 0.15535 0.0
C306 C 0.19313 0.2293 0.1646 0.0
C307 C 0.13651 0.19943 0.16564 0.0
C308 C 0.1066 0.2252 0.15646 0.0
C309 C 0.13368 0.28075 0.14707 0.0
C310 C 0.19007 0.3087 0.14765 0.0
H311 H 0.21588 0.20897 0.17033 0.0
O312 O 0.25938 0.24981 0.02349 0.0
O313 O 0.28291 0.31453 0.07681 0.0
O314 O 0.33527 0.2501 0.09327 0.0
O315 O 0.31241 0.27641 0.16129 0.0
C316 C 0.1069 0.30904 0.13527 0.0
C317 C 0.13658 0.36494 0.12596 0.0
H318 H 0.20655 0.47079 0.10511 0.0
H319 H 0.30618 0.51194 0.10156 0.0
H320 H 0.11598 0.15651 0.17265 0.0
H321 H 0.06289 0.20188 0.15627 0.0
H322 H 0.06364 0.28747 0.13189 0.0
H323 H 0.1161 0.38691 0.11756 0.0
Mn324 Mn 0.03634 0.3313 0.37559 0.0
Mn325 Mn 0.968 0.29078 0.47858 0.0
C326 C 0.97312 0.24109 0.38477 0.0
C327 C 0.03615 0.35669 0.29576 0.0
C328 C 0.08689 0.32319 0.47079 0.0
O329 O 0.04333 0.40045 0.40285 0.0
O330 O 0.99103 0.36856 0.46917 0.0
C331 C 0.87296 0.30181 0.45537 0.0
N332 N 0.89436 0.27016 0.46735 0.0
C333 C 0.80754 0.19004 0.46219 0.0
C334 C 0.78438 0.22162 0.45013 0.0
C335 C 0.81728 0.27783 0.44681 0.0
C336 C 0.86301 0.21617 0.47132 0.0
H337 H 0.89812 0.345 0.45204 0.0
C338 C 0.0188 0.4062 0.43888 0.0
O339 O 0.08127 0.36787 0.31688 0.0
O340 O 0.9932 0.33463 0.32168 0.0
N341 N 0.94255 0.21583 0.48874 0.0
C342 C 0.9715 0.1907 0.49763 0.0
C343 C 0.94479 0.13414 0.49967 0.0
C344 C 0.8888 0.10408 0.492 0.0
C345 C 0.86002 0.13096 0.48291 0.0
C346 C 0.88854 0.18735 0.48221 0.0
H347 H 0.01473 0.21352 0.50243 0.0
O348 O 0.01382 0.25563 0.35616 0.0
O349 O 0.97408 0.28011 0.40989 0.0
O350 O 0.09117 0.33179 0.42522 0.0
O351 O 0.04335 0.31002 0.49379 0.0
C352 C 0.80442 0.10394 0.47298 0.0
C353 C 0.77802 0.13351 0.46373 0.0
H354 H 0.74154 0.20307 0.44268 0.0
H355 H 0.79987 0.30254 0.43716 0.0
H356 H 0.96741 0.11374 0.50646 0.0
H357 H 0.8684 0.06039 0.49277 0.0
H358 H 0.78225 0.06053 0.4713 0.0
H359 H 0.73527 0.1129 0.45675 0.0
Mn360 Mn 0.69963 0.03278 0.70811 0.0
Mn361 Mn 0.67186 0.96313 0.81028 0.0
C362 C 0.72762 0.97023 0.71663 0.0
C363 C 0.67481 0.03379 0.62835 0.0
C364 C 0.75788 0.08216 0.8039 0.0
O365 O 0.63692 0.03873 0.73505 0.0
O366 O 0.6172 0.98649 0.80129 0.0
C367 C 0.56569 0.86873 0.78608 0.0
N368 N 0.61874 0.88978 0.79808 0.0
C369 C 0.61217 0.80322 0.79022 0.0
C370 C 0.55744 0.78041 0.77812 0.0
C371 C 0.53404 0.81335 0.77621 0.0
C372 C 0.64139 0.85833 0.80095 0.0
H373 H 0.54762 0.89395 0.7837 0.0
C374 C 0.60692 0.0141 0.77107 0.0
O375 O 0.70817 0.07866 0.65018 0.0
O376 O 0.65392 0.99037 0.6536 0.0
N377 N 0.72118 0.93731 0.81997 0.0
C378 C 0.77524 0.966 0.82913 0.0
C379 C 0.80519 0.93931 0.82988 0.0
C380 C 0.77939 0.88366 0.8205 0.0
C381 C 0.72374 0.85514 0.81119 0.0
C382 C 0.69572 0.88353 0.81208 0.0
H383 H 0.79559 0.00907 0.83499 0.0
O384 O 0.7536 0.01148 0.68864 0.0
O385 O 0.68895 0.97012 0.7416 0.0
O386 O 0.75315 0.08706 0.7585 0.0
O387 O 0.72807 0.03817 0.82642 0.0
C388 C 0.69539 0.80008 0.79917 0.0
C389 C 0.63938 0.77384 0.78996 0.0
H390 H 0.53325 0.73787 0.76949 0.0
H391 H 0.49192 0.79623 0.76654 0.0
H392 H 0.84819 0.96173 0.83683 0.0
H393 H 0.80277 0.86332 0.82008 0.0
H394 H 0.71695 0.77839 0.79555 0.0
H395 H 0.6174 0.73142 0.78138 0.0
Mn396 Mn 0.66838 0.70349 0.0398 0.0
Mn397 Mn 0.70986 0.67605 0.14276 0.0
C398 C 0.75878 0.7311 0.04929 0.0
C399 C 0.64297 0.67828 0.95969 0.0
C400 C 0.67689 0.76205 0.13534 0.0
O401 O 0.59955 0.64114 0.06672 0.0
O402 O 0.63185 0.62186 0.13358 0.0
C403 C 0.69769 0.56958 0.1192 0.0
N404 N 0.7298 0.62258 0.13126 0.0
C405 C 0.80947 0.61503 0.1259 0.0
C406 C 0.77739 0.56032 0.11377 0.0
C407 C 0.72118 0.53747 0.1105 0.0
C408 C 0.7838 0.64478 0.1352 0.0
H409 H 0.65449 0.5519 0.11592 0.0
C410 C 0.59398 0.61163 0.10324 0.0
O411 O 0.63149 0.71184 0.98111 0.0
O412 O 0.66526 0.65745 0.9855 0.0
N413 N 0.78502 0.72504 0.15284 0.0
C414 C 0.81061 0.77915 0.16176 0.0
C415 C 0.86723 0.80861 0.16367 0.0
C416 C 0.89686 0.78227 0.15581 0.0
C417 C 0.86949 0.72658 0.1467 0.0
C418 C 0.81309 0.69911 0.14618 0.0
H419 H 0.78809 0.79985 0.16664 0.0
O420 O 0.7439 0.75708 0.02076 0.0
O421 O 0.71999 0.69275 0.07411 0.0
O422 O 0.66742 0.75725 0.08985 0.0
O423 O 0.69124 0.73248 0.15813 0.0
C424 C 0.89604 0.69761 0.13651 0.0
C425 C 0.86604 0.64162 0.12731 0.0
H426 H 0.79556 0.53573 0.10619 0.0
H427 H 0.69609 0.49538 0.10079 0.0
H428 H 0.888 0.85163 0.17047 0.0
H429 H 0.94058 0.80524 0.15645 0.0
H430 H 0.93941 0.71861 0.13449 0.0
H431 H 0.88636 0.6192 0.1202 0.0
C432 C 0.32515 0.11578 0.1715 0.0
C433 C 0.32165 0.11515 0.22232 0.0
H434 H 0.33005 0.15713 0.10551 0.0
C435 C 0.32256 0.1595 0.24522 0.0
H436 H 0.32486 0.08262 0.15231 0.0
C437 C 0.32534 0.20229 0.21813 0.0
C438 C 0.32785 0.20245 0.16726 0.0
H439 H 0.32001 0.16074 0.2841 0.0
H440 H 0.32482 0.23507 0.23725 0.0
C441 C 0.32845 0.15882 0.14444 0.0
C442 C 0.17304 0.32368 0.57683 0.0
C443 C 0.21445 0.31919 0.55387 0.0
H444 H 0.10098 0.32852 0.56908 0.0
C445 C 0.21503 0.31897 0.50294 0.0
H446 H 0.17099 0.32403 0.6158 0.0
C447 C 0.17508 0.32226 0.47591 0.0
C448 C 0.13281 0.32518 0.49891 0.0
H449 H 0.24631 0.31587 0.4837 0.0
H450 H 0.17655 0.32098 0.43695 0.0
C451 C 0.13272 0.32626 0.54983 0.0
C452 C 0.84458 0.17241 0.80909 0.0
C453 C 0.80166 0.12805 0.83221 0.0
H454 H 0.92037 0.24572 0.81637 0.0
C455 C 0.8027 0.12628 0.88309 0.0
H456 H 0.8456 0.17533 0.77015 0.0
C457 C 0.84563 0.167 0.90986 0.0
C458 C 0.8893 0.21057 0.88664 0.0
H459 H 0.77049 0.09291 0.90244 0.0
H460 H 0.84511 0.16363 0.94876 0.0
C461 C 0.88777 0.21281 0.83582 0.0
C462 C 0.67256 0.8484 0.14068 0.0
C463 C 0.67405 0.80539 0.16364 0.0
H464 H 0.67452 0.92393 0.14839 0.0
C465 C 0.67605 0.80576 0.21455 0.0
H466 H 0.67122 0.84988 0.10173 0.0
C467 C 0.67762 0.84819 0.24153 0.0
C468 C 0.6778 0.89203 0.21853 0.0
H469 H 0.67714 0.77342 0.23379 0.0
H470 H 0.68001 0.8472 0.28045 0.0
C471 C 0.67468 0.89113 0.16766 0.0
C472 C 0.83332 0.67324 0.47629 0.0
C473 C 0.87838 0.67632 0.49981 0.0
H474 H 0.75931 0.67447 0.48268 0.0
C475 C 0.88087 0.68113 0.55058 0.0
H476 H 0.8298 0.66975 0.43741 0.0
C477 C 0.83998 0.68346 0.57685 0.0
C478 C 0.79562 0.68175 0.55315 0.0
H479 H 0.91481 0.68361 0.5702 0.0
H480 H 0.84378 0.68776 0.61568 0.0
C481 C 0.79283 0.67621 0.50247 0.0
C482 C 0.15517 0.82839 0.81058 0.0
C483 C 0.19837 0.87255 0.83395 0.0
H484 H 0.07938 0.75523 0.8175 0.0
C485 C 0.1979 0.87417 0.88484 0.0
H486 H 0.15376 0.8256 0.77161 0.0
C487 C 0.15515 0.83347 0.91141 0.0
C488 C 0.11122 0.7901 0.88795 0.0
H489 H 0.23035 0.90741 0.90436 0.0
H490 H 0.15603 0.83673 0.95035 0.0
C491 C 0.11223 0.78799 0.83711 0.0
C492 C 0.47957 0.00958 0.33569 0.0
C493 C 0.45594 0.01281 0.29234 0.0
H494 H 0.54266 0.00134 0.36894 0.0
C495 C 0.47889 0.0104 0.24833 0.0
H496 H 0.46199 0.01019 0.37011 0.0
C497 C 0.52489 0.00526 0.24764 0.0
C498 C 0.54801 0.00109 0.29093 0.0
H499 H 0.46102 0.01215 0.21441 0.0
H500 H 0.5423 0.0044 0.21322 0.0
C501 C 0.52493 0.00326 0.33498 0.0
C502 C 0.53167 0.52249 0.66188 0.0
C503 C 0.55722 0.54606 0.61825 0.0
H504 H 0.46229 0.45924 0.69629 0.0
C505 C 0.53123 0.52199 0.57453 0.0
H506 H 0.55022 0.54063 0.69612 0.0
C507 C 0.48067 0.47486 0.57457 0.0
C508 C 0.45466 0.45218 0.61833 0.0
H509 H 0.54991 0.53974 0.54037 0.0
H510 H 0.46174 0.45651 0.54052 0.0
C511 C 0.48076 0.47644 0.66191 0.0
C512 C 0.00267 0.5262 1.00046 0.0
C513 C 0.00482 0.55197 0.95681 0.0
H514 H 0.99607 0.45614 0.03456 0.0
C515 C 0.0015 0.52561 0.9131 0.0
H516 H 0.004 0.54515 0.03471 0.0
C517 C 0.99692 0.47471 0.91301 0.0
C518 C 0.99423 0.4487 0.95664 0.0
H519 H 0.00242 0.54435 0.87895 0.0
H520 H 0.99561 0.45572 0.8788 0.0
C521 C 0.9969 0.47479 1.00038 0.0
C522 C 0.99752 0.51933 0.39668 0.0
C523 C 0.9924 0.5417 0.44012 0.0
H524 H 0.012 0.46081 0.36255 0.0
C525 C 0.99825 0.52046 0.48394 0.0
H526 H 0.99443 0.53548 0.36228 0.0
C527 C 0.00768 0.47673 0.48409 0.0
C528 C 0.01376 0.45522 0.44042 0.0
H529 H 0.99527 0.53748 0.51795 0.0
H530 H 0.01061 0.46 0.51819 0.0
C531 C 0.00873 0.47719 0.39683 0.0
C532 C 0.52532 0.00367 0.7293 0.0
C533 C 0.55286 0.00902 0.77278 0.0
H534 H 0.45234 0.98956 0.69518 0.0
C535 C 0.52591 0.00353 0.81658 0.0
H536 H 0.54454 0.0065 0.69494 0.0
C537 C 0.4729 0.99448 0.8167 0.0
C538 C 0.44532 0.98847 0.77304 0.0
H539 H 0.54597 0.00671 0.85058 0.0
H540 H 0.45342 0.99201 0.85082 0.0
C541 C 0.47206 0.99285 0.72943 0.0
C542 C 0.47988 0.47863 0.15042 0.0
C543 C 0.458 0.45052 0.10703 0.0
H544 H 0.5411 0.55212 0.18349 0.0
C545 C 0.47962 0.47683 0.06313 0.0
H546 H 0.46341 0.45949 0.18472 0.0
C547 C 0.52189 0.53003 0.06242 0.0
C548 C 0.54468 0.55799 0.10558 0.0
H549 H 0.46289 0.45671 0.02906 0.0
H550 H 0.53781 0.54877 0.02784 0.0
C551 C 0.52375 0.53165 0.1497 0.0
C552 C 0.08341 0.85453 0.36258 0.0
C553 C 0.08343 0.80588 0.36884 0.0
H554 H 0.12901 0.93814 0.34311 0.0
C555 C 0.12871 0.80296 0.35318 0.0
H556 H 0.04834 0.85743 0.37262 0.0
C557 C 0.17448 0.84879 0.33503 0.0
C558 C 0.17569 0.89843 0.33139 0.0
H559 H 0.12899 0.7653 0.35556 0.0
H560 H 0.21004 0.84608 0.32701 0.0
C561 C 0.12919 0.90039 0.34472 0.0
C562 C 0.32797 0.17694 0.68485 0.0
C563 C 0.28088 0.17841 0.67365 0.0
H564 H 0.36214 0.12865 0.70648 0.0
C565 C 0.23055 0.13166 0.68073 0.0
H566 H 0.36719 0.21304 0.68231 0.0
C567 C 0.22752 0.08406 0.69765 0.0
C568 C 0.27476 0.08272 0.7087 0.0
H569 H 0.19354 0.13222 0.67379 0.0
H570 H 0.18831 0.04833 0.70216 0.0
C571 C 0.32497 0.12921 0.70072 0.0
C572 C 0.19941 0.32689 0.02307 0.0
C573 C 0.19543 0.27768 0.03682 0.0
H574 H 0.15828 0.3669 0.99585 0.0
C575 C 0.14697 0.22962 0.02776 0.0
H576 H 0.23705 0.36447 0.02769 0.0
C577 C 0.10242 0.23088 1.00816 0.0
C578 C 0.10558 0.28014 0.99604 0.0
H579 H 0.14335 0.19105 0.03646 0.0
H580 H 0.06467 0.19327 1.00409 0.0
C581 C 0.15488 0.32817 1.00315 0.0
C582 C 0.91965 0.14413 0.35984 0.0
C583 C 0.92161 0.19319 0.36969 0.0
H584 H 0.87158 0.06223 0.33564 0.0
C585 C 0.8769 0.19866 0.3569 0.0
H586 H 0.95411 0.13934 0.36785 0.0
C587 C 0.83019 0.15508 0.33704 0.0
C588 C 0.8274 0.1052 0.32908 0.0
H589 H 0.87808 0.23676 0.36218 0.0
H590 H 0.79536 0.15964 0.33046 0.0
C591 C 0.87291 0.10049 0.34033 0.0
C592 C 0.675 0.82827 0.66762 0.0
C593 C 0.72302 0.82693 0.66068 0.0
H594 H 0.63877 0.87424 0.69206 0.0
C595 C 0.77234 0.87315 0.6728 0.0
H596 H 0.63624 0.79287 0.6603 0.0
C597 C 0.77368 0.91906 0.69229 0.0
C598 C 0.72565 0.91952 0.70129 0.0
H599 H 0.80995 0.87298 0.6689 0.0
H600 H 0.8123 0.95403 0.70105 0.0
C601 C 0.67636 0.87419 0.68747 0.0
C602 C 0.80254 0.67858 0.0217 0.0
C603 C 0.80721 0.72835 0.03471 0.0
H604 H 0.84281 0.63708 0.99602 0.0
C605 C 0.85613 0.77585 0.02584 0.0
H606 H 0.76458 0.64138 0.02627 0.0
C607 C 0.90044 0.77349 1.00719 0.0
C608 C 0.89652 0.72366 0.99579 0.0
H609 H 0.86032 0.81481 0.03406 0.0
H610 H 0.93858 0.81068 1.0033 0.0
C611 C 0.84678 0.6762 1.00269 0.0
C612 C 0.37602 0.99933 0.5033 0.0
C613 C 0.33597 0.007 0.48156 0.0
H614 H 0.40329 0.98025 0.56891 0.0
C615 C 0.28952 0.99503 0.50785 0.0
H616 H 0.41168 0.0071 0.48327 0.0
C617 C 0.28135 0.97245 0.55376 0.0
C618 C 0.32253 0.96774 0.57666 0.0
H619 H 0.25843 0.00137 0.49216 0.0
H620 H 0.24509 0.96388 0.57323 0.0
C621 C 0.37037 0.98207 0.55139 0.0
C622 C 0.30556 0.31099 0.89105 0.0
C623 C 0.35725 0.33228 0.91112 0.0
H624 H 0.25895 0.29569 0.82714 0.0
C625 C 0.40278 0.36085 0.88187 0.0
H626 H 0.26987 0.28861 0.9131 0.0
C627 C 0.39611 0.36758 0.83265 0.0
C628 C 0.34399 0.34611 0.81272 0.0
H629 H 0.443 0.37825 0.89702 0.0
H630 H 0.43143 0.38838 0.80995 0.0
C631 C 0.29911 0.31714 0.84232 0.0
C632 C 0.9991 0.30024 0.2239 0.0
C633 C 0.02912 0.3523 0.24333 0.0
H634 H 0.96702 0.2524 0.16064 0.0
C635 C 0.04544 0.3972 0.21338 0.0
H636 H 0.98614 0.26501 0.24649 0.0
C637 C 0.03172 0.38956 0.16418 0.0
C638 C 1.00143 0.33708 0.14485 0.0
H639 H 0.06796 0.4377 0.228 0.0
H640 H 0.04555 0.42444 0.14104 0.0
C641 C 0.98612 0.29283 0.17519 0.0
C642 C 0.69169 0.98596 0.50805 0.0
C643 C 0.66369 0.00203 0.47724 0.0
H644 H 0.71757 0.98452 0.5799 0.0
C645 C 0.64101 0.03201 0.49614 0.0
H646 H 0.71343 0.96713 0.49388 0.0
C647 C 0.64573 0.04474 0.5455 0.0
C648 C 0.67337 0.02766 0.57595 0.0
H649 H 0.62065 0.04636 0.47259 0.0
H650 H 0.62744 0.06708 0.55984 0.0
C651 C 0.69591 0.99796 0.55689 0.0
C652 C 0.60331 0.64756 0.87666 0.0
C653 C 0.64783 0.67641 0.90724 0.0
H654 H 0.57698 0.62072 0.80388 0.0
C655 C 0.70014 0.69945 0.88844 0.0
H656 H 0.56263 0.62884 0.89076 0.0
C657 C 0.70816 0.69438 0.83979 0.0
C658 C 0.66432 0.66502 0.80886 0.0
H659 H 0.73509 0.72196 0.9115 0.0
H660 H 0.74872 0.7162 0.82581 0.0
C661 C 0.61158 0.64208 0.82748 0.0
C662 C 0.002 0.69813 0.22467 0.0
C663 C 0.97319 0.64562 0.24302 0.0
H664 H 0.0331 0.74738 0.16238 0.0
C665 C 0.95723 0.60141 0.21205 0.0
H666 H 0.01473 0.73283 0.24814 0.0
C667 C 0.97022 0.6102 0.16286 0.0
C668 C 0.99964 0.66313 0.14472 0.0
H669 H 0.93571 0.56061 0.22587 0.0
H670 H 0.95678 0.57587 0.13888 0.0
C671 C 0.01451 0.70668 0.17602 0.0
loop_
_geom_bond_atom_site_label_1
_geom_bond_atom_site_label_2
_geom_bond_distance
_geom_bond_site_symmetry_2
_ccdc_geom_bond_type
Mn0 O5 2.095 . S
Mn0 O15 2.162 . S
Mn0 O16 2.297 1_545 S
Mn0 O24 2.385 1_545 S
Mn0 O25 2.209 1_545 S
Mn0 O26 2.094 . S
Mn1 O6 2.121 . S
Mn1 N8 2.257 . S
Mn1 N17 2.282 . S
Mn1 O25 2.215 . S
Mn1 O27 2.117 1_565 S
C2 O24 1.234 . S
C2 O25 1.283 . S
C3 O15 1.281 . S
C3 O16 1.236 1_545 S
C4 O26 1.240 . S
C4 O27 1.264 . S
O5 Mn0 2.095 . S
O5 C14 1.250 . S
O6 Mn1 2.121 . S
O6 C14 1.258 1_565 S
C7 N8 1.326 . S
C7 C11 1.460 . S
C7 H13 0.929 . S
N8 Mn1 2.257 . S
N8 C7 1.326 . S
N8 C12 1.362 . S
C9 C10 1.258 . S
C9 C12 1.431 . S
C9 C29 1.449 . S
C10 C9 1.258 . S
C10 C11 1.477 . S
C10 H30 0.931 . S
C11 C7 1.460 . S
C11 C10 1.477 . S
C11 H31 0.930 . S
C12 N8 1.362 . S
C12 C9 1.431 . S
C12 C22 1.476 . S
H13 C7 0.929 . S
C14 O5 1.250 . S
C14 O6 1.258 1_545 S
O15 Mn0 2.162 . S
O15 C3 1.281 . S
O16 Mn0 2.297 1_565 S
O16 C3 1.236 1_565 S
N17 Mn1 2.282 . S
N17 C18 1.328 . S
N17 C22 1.318 . S
C18 N17 1.328 . S
C18 C19 1.457 . S
C18 H23 0.929 . S
C19 C18 1.457 . S
C19 C20 1.291 . S
C19 H32 0.931 . S
C20 C19 1.291 . S
C20 C21 1.373 . S
C20 H33 0.929 . S
C21 C20 1.373 . S
C21 C22 1.396 . S
C21 C28 1.403 . S
C22 C12 1.476 . S
C22 N17 1.318 . S
C22 C21 1.396 . S
H23 C18 0.929 . S
O24 Mn0 2.385 1_565 S
O24 C2 1.234 . S
O25 Mn0 2.209 1_565 S
O25 Mn1 2.215 . S
O25 C2 1.283 . S
O26 Mn0 2.094 . S
O26 C4 1.240 . S
O27 Mn1 2.117 1_545 S
O27 C4 1.264 . S
C28 C21 1.403 . S
C28 C29 1.399 . S
C28 H34 0.929 . S
C29 C9 1.449 . S
C29 C28 1.399 . S
C29 H35 0.930 . S
H30 C10 0.931 . S
H31 C11 0.930 . S
H32 C19 0.931 . S
H33 C20 0.929 . S
H34 C28 0.929 . S
H35 C29 0.930 . S
Mn36 O41 2.095 . S
Mn36 O51 2.162 . S
Mn36 O52 2.297 . S
Mn36 O60 2.385 . S
Mn36 O61 2.209 . S
Mn36 O62 2.094 . S
Mn37 O42 2.121 . S
Mn37 N44 2.257 . S
Mn37 N53 2.282 . S
Mn37 O61 2.215 . S
Mn37 O63 2.117 . S
C38 O60 1.234 . S
C38 O61 1.283 . S
C39 O51 1.281 . S
C39 O52 1.236 . S
C40 O62 1.240 . S
C40 O63 1.264 . S
O41 Mn36 2.095 . S
O41 C50 1.250 . S
O42 Mn37 2.121 . S
O42 C50 1.258 . S
C43 N44 1.326 . S
C43 C47 1.460 . S
C43 H49 0.929 . S
N44 Mn37 2.257 . S
N44 C43 1.326 . S
N44 C48 1.362 . S
C45 C46 1.258 . S
C45 C48 1.431 . S
C45 C65 1.449 . S
C46 C45 1.258 . S
C46 C47 1.477 . S
C46 H66 0.931 . S
C47 C43 1.460 . S
C47 C46 1.477 . S
C47 H67 0.930 . S
C48 N44 1.362 . S
C48 C45 1.431 . S
C48 C58 1.476 . S
H49 C43 0.929 . S
C50 O41 1.250 . S
C50 O42 1.258 . S
O51 Mn36 2.162 . S
O51 C39 1.281 . S
O52 Mn36 2.297 . S
O52 C39 1.236 . S
N53 Mn37 2.282 . S
N53 C54 1.328 . S
N53 C58 1.318 . S
C54 N53 1.328 . S
C54 C55 1.457 . S
C54 H59 0.929 . S
C55 C54 1.457 . S
C55 C56 1.291 . S
C55 H68 0.931 . S
C56 C55 1.291 . S
C56 C57 1.373 . S
C56 H69 0.929 . S
C57 C56 1.373 . S
C57 C58 1.396 . S
C57 C64 1.403 . S
C58 C48 1.476 . S
C58 N53 1.318 . S
C58 C57 1.396 . S
H59 C54 0.929 . S
O60 Mn36 2.385 . S
O60 C38 1.234 . S
O61 Mn36 2.209 . S
O61 Mn37 2.215 . S
O61 C38 1.283 . S
O62 Mn36 2.094 . S
O62 C40 1.240 . S
O63 Mn37 2.117 . S
O63 C40 1.264 . S
C64 C57 1.403 . S
C64 C65 1.399 . S
C64 H70 0.929 . S
C65 C45 1.449 . S
C65 C64 1.399 . S
C65 H71 0.930 . S
H66 C46 0.931 . S
H67 C47 0.930 . S
H68 C55 0.931 . S
H69 C56 0.929 . S
H70 C64 0.929 . S
H71 C65 0.930 . S
Mn72 O77 2.095 . S
Mn72 O87 2.162 1_556 S
Mn72 O88 2.297 1_656 S
Mn72 O96 2.385 1_655 S
Mn72 O97 2.209 1_655 S
Mn72 O98 2.094 . S
Mn73 O78 2.121 . S
Mn73 N80 2.257 . S
Mn73 N89 2.282 . S
Mn73 O97 2.215 . S
Mn73 O99 2.117 1_455 S
C74 O96 1.234 . S
C74 O97 1.283 . S
C75 O87 1.281 . S
C75 O88 1.236 1_655 S
C76 O98 1.240 . S
C76 O99 1.264 . S
O77 Mn72 2.095 . S
O77 C86 1.250 . S
O78 Mn73 2.121 . S
O78 C86 1.258 1_455 S
C79 N80 1.326 . S
C79 C83 1.460 . S
C79 H85 0.929 . S
N80 Mn73 2.257 . S
N80 C79 1.326 . S
N80 C84 1.362 . S
C81 C82 1.258 . S
C81 C84 1.431 . S
C81 C101 1.449 . S
C82 C81 1.258 . S
C82 C83 1.477 . S
C82 H102 0.931 . S
C83 C79 1.460 . S
C83 C82 1.477 . S
C83 H103 0.930 . S
C84 N80 1.362 . S
C84 C81 1.431 . S
C84 C94 1.476 . S
H85 C79 0.929 . S
C86 O77 1.250 . S
C86 O78 1.258 1_655 S
O87 Mn72 2.162 1_554 S
O87 C75 1.281 . S
O88 Mn72 2.297 1_454 S
O88 C75 1.236 1_455 S
N89 Mn73 2.282 . S
N89 C90 1.328 . S
N89 C94 1.318 . S
C90 N89 1.328 . S
C90 C91 1.457 . S
C90 H95 0.929 . S
C91 C90 1.457 . S
C91 C92 1.291 . S
C91 H104 0.931 . S
C92 C91 1.291 . S
C92 C93 1.373 . S
C92 H105 0.929 . S
C93 C92 1.373 . S
C93 C94 1.396 . S
C93 C100 1.403 . S
C94 C84 1.476 . S
C94 N89 1.318 . S
C94 C93 1.396 . S
H95 C90 0.929 . S
O96 Mn72 2.385 1_455 S
O96 C74 1.234 . S
O97 Mn72 2.209 1_455 S
O97 Mn73 2.215 . S
O97 C74 1.283 . S
O98 Mn72 2.094 . S
O98 C76 1.240 . S
O99 Mn73 2.117 1_655 S
O99 C76 1.264 . S
C100 C93 1.403 . S
C100 C101 1.399 . S
C100 H106 0.929 . S
C101 C81 1.449 . S
C101 C100 1.399 . S
C101 H107 0.930 . S
H102 C82 0.931 . S
H103 C83 0.930 . S
H104 C91 0.931 . S
H105 C92 0.929 . S
H106 C100 0.929 . S
H107 C101 0.930 . S
Mn108 O113 2.095 . S
Mn108 O123 2.162 . S
Mn108 O124 2.297 1_565 S
Mn108 O132 2.385 1_565 S
Mn108 O133 2.209 1_565 S
Mn108 O134 2.094 . S
Mn109 O114 2.121 . S
Mn109 N116 2.257 . S
Mn109 N125 2.282 . S
Mn109 O133 2.215 . S
Mn109 O135 2.117 1_545 S
C110 O132 1.234 . S
C110 O133 1.283 . S
C111 O123 1.281 . S
C111 O124 1.236 1_565 S
C112 O134 1.240 . S
C112 O135 1.264 . S
O113 Mn108 2.095 . S
O113 C122 1.250 . S
O114 Mn109 2.121 . S
O114 C122 1.258 1_545 S
C115 N116 1.326 . S
C115 C119 1.460 . S
C115 H121 0.929 . S
N116 Mn109 2.257 . S
N116 C115 1.326 . S
N116 C120 1.362 . S
C117 C118 1.258 . S
C117 C120 1.431 . S
C117 C137 1.449 . S
C118 C117 1.258 . S
C118 C119 1.477 . S
C118 H138 0.931 . S
C119 C115 1.460 . S
C119 C118 1.477 . S
C119 H139 0.930 . S
C120 N116 1.362 . S
C120 C117 1.431 . S
C120 C130 1.476 . S
H121 C115 0.929 . S
C122 O113 1.250 . S
C122 O114 1.258 1_565 S
O123 Mn108 2.162 . S
O123 C111 1.281 . S
O124 Mn108 2.297 1_545 S
O124 C111 1.236 1_545 S
N125 Mn109 2.282 . S
N125 C126 1.328 . S
N125 C130 1.318 . S
C126 N125 1.328 . S
C126 C127 1.457 . S
C126 H131 0.929 . S
C127 C126 1.457 . S
C127 C128 1.291 . S
C127 H140 0.931 . S
C128 C127 1.291 . S
C128 C129 1.373 . S
C128 H141 0.929 . S
C129 C128 1.373 . S
C129 C130 1.396 . S
C129 C136 1.403 . S
C130 C120 1.476 . S
C130 N125 1.318 . S
C130 C129 1.396 . S
H131 C126 0.929 . S
O132 Mn108 2.385 1_545 S
O132 C110 1.234 . S
O133 Mn108 2.209 1_545 S
O133 Mn109 2.215 . S
O133 C110 1.283 . S
O134 Mn108 2.094 . S
O134 C112 1.240 . S
O135 Mn109 2.117 1_565 S
O135 C112 1.264 . S
C136 C129 1.403 . S
C136 C137 1.399 . S
C136 H142 0.929 . S
C137 C117 1.449 . S
C137 C136 1.399 . S
C137 H143 0.930 . S
H138 C118 0.931 . S
H139 C119 0.930 . S
H140 C127 0.931 . S
H141 C128 0.929 . S
H142 C136 0.929 . S
H143 C137 0.930 . S
Mn144 O149 2.095 . S
Mn144 O159 2.162 . S
Mn144 O160 2.297 . S
Mn144 O168 2.385 . S
Mn144 O169 2.209 . S
Mn144 O170 2.094 . S
Mn145 O150 2.121 . S
Mn145 N152 2.257 . S
Mn145 N161 2.282 . S
Mn145 O169 2.215 . S
Mn145 O171 2.117 . S
C146 O168 1.234 . S
C146 O169 1.283 . S
C147 O159 1.281 . S
C147 O160 1.236 . S
C148 O170 1.240 . S
C148 O171 1.264 . S
O149 Mn144 2.095 . S
O149 C158 1.250 . S
O150 Mn145 2.121 . S
O150 C158 1.258 . S
C151 N152 1.326 . S
C151 C155 1.460 . S
C151 H157 0.929 . S
N152 Mn145 2.257 . S
N152 C151 1.326 . S
N152 C156 1.362 . S
C153 C154 1.258 . S
C153 C156 1.431 . S
C153 C173 1.449 . S
C154 C153 1.258 . S
C154 C155 1.477 . S
C154 H174 0.931 . S
C155 C151 1.460 . S
C155 C154 1.477 . S
C155 H175 0.930 . S
C156 N152 1.362 . S
C156 C153 1.431 . S
C156 C166 1.476 . S
H157 C151 0.929 . S
C158 O149 1.250 . S
C158 O150 1.258 . S
O159 Mn144 2.162 . S
O159 C147 1.281 . S
O160 Mn144 2.297 . S
O160 C147 1.236 . S
N161 Mn145 2.282 . S
N161 C162 1.328 . S
N161 C166 1.318 . S
C162 N161 1.328 . S
C162 C163 1.457 . S
C162 H167 0.929 . S
C163 C162 1.457 . S
C163 C164 1.291 . S
C163 H176 0.931 . S
C164 C163 1.291 . S
C164 C165 1.373 . S
C164 H177 0.929 . S
C165 C164 1.373 . S
C165 C166 1.396 . S
C165 C172 1.403 . S
C166 C156 1.476 . S
C166 N161 1.318 . S
C166 C165 1.396 . S
H167 C162 0.929 . S
O168 Mn144 2.385 . S
O168 C146 1.234 . S
O169 Mn144 2.209 . S
O169 Mn145 2.215 . S
O169 C146 1.283 . S
O170 Mn144 2.094 . S
O170 C148 1.240 . S
O171 Mn145 2.117 . S
O171 C148 1.264 . S
C172 C165 1.403 . S
C172 C173 1.399 . S
C172 H178 0.929 . S
C173 C153 1.449 . S
C173 C172 1.399 . S
C173 H179 0.930 . S
H174 C154 0.931 . S
H175 C155 0.930 . S
H176 C163 0.931 . S
H177 C164 0.929 . S
H178 C172 0.929 . S
H179 C173 0.930 . S
Mn180 O185 2.095 . S
Mn180 O195 2.162 1_556 S
Mn180 O196 2.297 1_456 S
Mn180 O204 2.385 1_455 S
Mn180 O205 2.209 1_455 S
Mn180 O206 2.094 . S
Mn181 O186 2.121 . S
Mn181 N188 2.257 . S
Mn181 N197 2.282 . S
Mn181 O205 2.215 . S
Mn181 O207 2.117 1_655 S
C182 O204 1.234 . S
C182 O205 1.283 . S
C183 O195 1.281 . S
C183 O196 1.236 1_455 S
C184 O206 1.240 . S
C184 O207 1.264 . S
O185 Mn180 2.095 . S
O185 C194 1.250 . S
O186 Mn181 2.121 . S
O186 C194 1.258 1_655 S
C187 N188 1.326 . S
C187 C191 1.460 . S
C187 H193 0.929 . S
N188 Mn181 2.257 . S
N188 C187 1.326 . S
N188 C192 1.362 . S
C189 C190 1.258 . S
C189 C192 1.431 . S
C189 C209 1.449 . S
C190 C189 1.258 . S
C190 C191 1.477 . S
C190 H210 0.931 . S
C191 C187 1.460 . S
C191 C190 1.477 . S
C191 H211 0.930 . S
C192 N188 1.362 . S
C192 C189 1.431 . S
C192 C202 1.476 . S
H193 C187 0.929 . S
C194 O185 1.250 . S
C194 O186 1.258 1_455 S
O195 Mn180 2.162 1_554 S
O195 C183 1.281 . S
O196 Mn180 2.297 1_654 S
O196 C183 1.236 1_655 S
N197 Mn181 2.282 . S
N197 C198 1.328 . S
N197 C202 1.318 . S
C198 N197 1.328 . S
C198 C199 1.457 . S
C198 H203 0.929 . S
C199 C198 1.457 . S
C199 C200 1.291 . S
C199 H212 0.931 . S
C200 C199 1.291 . S
C200 C201 1.373 . S
C200 H213 0.929 . S
C201 C200 1.373 . S
C201 C202 1.396 . S
C201 C208 1.403 . S
C202 C192 1.476 . S
C202 N197 1.318 . S
C202 C201 1.396 . S
H203 C198 0.929 . S
O204 Mn180 2.385 1_655 S
O204 C182 1.234 . S
O205 Mn180 2.209 1_655 S
O205 Mn181 2.215 . S
O205 C182 1.283 . S
O206 Mn180 2.094 . S
O206 C184 1.240 . S
O207 Mn181 2.117 1_455 S
O207 C184 1.264 . S
C208 C201 1.403 . S
C208 C209 1.399 . S
C208 H214 0.929 . S
C209 C189 1.449 . S
C209 C208 1.399 . S
C209 H215 0.930 . S
H210 C190 0.931 . S
H211 C191 0.930 . S
H212 C199 0.931 . S
H213 C200 0.929 . S
H214 C208 0.929 . S
H215 C209 0.930 . S
Mn216 O221 2.095 . S
Mn216 O231 2.162 . S
Mn216 O232 2.297 1_655 S
Mn216 O240 2.385 1_655 S
Mn216 O241 2.209 1_655 S
Mn216 O242 2.094 . S
Mn217 O222 2.121 . S
Mn217 N224 2.257 . S
Mn217 N233 2.282 . S
Mn217 O241 2.215 . S
Mn217 O243 2.117 1_455 S
C218 O240 1.234 . S
C218 O241 1.283 . S
C219 O231 1.281 . S
C219 O232 1.236 1_655 S
C220 O242 1.240 . S
C220 O243 1.264 . S
O221 Mn216 2.095 . S
O221 C230 1.250 . S
O222 Mn217 2.121 . S
O222 C230 1.258 1_455 S
C223 N224 1.326 . S
C223 C227 1.460 . S
C223 H229 0.929 . S
N224 Mn217 2.257 . S
N224 C223 1.326 . S
N224 C228 1.362 . S
C225 C226 1.258 . S
C225 C228 1.431 . S
C225 C245 1.449 . S
C226 C225 1.258 . S
C226 C227 1.477 . S
C226 H246 0.931 . S
C227 C223 1.460 . S
C227 C226 1.477 . S
C227 H247 0.930 . S
C228 N224 1.362 . S
C228 C225 1.431 . S
C228 C238 1.476 . S
H229 C223 0.929 . S
C230 O221 1.250 . S
C230 O222 1.258 1_655 S
O231 Mn216 2.162 . S
O231 C219 1.281 . S
O232 Mn216 2.297 1_455 S
O232 C219 1.236 1_455 S
N233 Mn217 2.282 . S
N233 C234 1.328 . S
N233 C238 1.318 . S
C234 N233 1.328 . S
C234 C235 1.457 . S
C234 H239 0.929 . S
C235 C234 1.457 . S
C235 C236 1.291 . S
C235 H248 0.931 . S
C236 C235 1.291 . S
C236 C237 1.373 . S
C236 H249 0.929 . S
C237 C236 1.373 . S
C237 C238 1.396 . S
C237 C244 1.403 . S
C238 C228 1.476 . S
C238 N233 1.318 . S
C238 C237 1.396 . S
H239 C234 0.929 . S
O240 Mn216 2.385 1_455 S
O240 C218 1.234 . S
O241 Mn216 2.209 1_455 S
O241 Mn217 2.215 . S
O241 C218 1.283 . S
O242 Mn216 2.094 . S
O242 C220 1.240 . S
O243 Mn217 2.117 1_655 S
O243 C220 1.264 . S
C244 C237 1.403 . S
C244 C245 1.399 . S
C244 H250 0.929 . S
C245 C225 1.449 . S
C245 C244 1.399 . S
C245 H251 0.930 . S
H246 C226 0.931 . S
H247 C227 0.930 . S
H248 C235 0.931 . S
H249 C236 0.929 . S
H250 C244 0.929 . S
H251 C245 0.930 . S
Mn252 O257 2.095 . S
Mn252 O267 2.162 . S
Mn252 O268 2.297 1_565 S
Mn252 O276 2.385 1_565 S
Mn252 O277 2.209 1_565 S
Mn252 O278 2.094 . S
Mn253 O258 2.121 . S
Mn253 N260 2.257 . S
Mn253 N269 2.282 . S
Mn253 O277 2.215 . S
Mn253 O279 2.117 1_545 S
C254 O276 1.234 . S
C254 O277 1.283 . S
C255 O267 1.281 . S
C255 O268 1.236 1_565 S
C256 O278 1.240 . S
C256 O279 1.264 . S
O257 Mn252 2.095 . S
O257 C266 1.250 . S
O258 Mn253 2.121 . S
O258 C266 1.258 1_545 S
C259 N260 1.326 . S
C259 C263 1.460 . S
C259 H265 0.929 . S
N260 Mn253 2.257 . S
N260 C259 1.326 . S
N260 C264 1.362 . S
C261 C262 1.258 . S
C261 C264 1.431 . S
C261 C281 1.449 . S
C262 C261 1.258 . S
C262 C263 1.477 . S
C262 H282 0.931 . S
C263 C259 1.460 . S
C263 C262 1.477 . S
C263 H283 0.930 . S
C264 N260 1.362 . S
C264 C261 1.431 . S
C264 C274 1.476 . S
H265 C259 0.929 . S
C266 O257 1.250 . S
C266 O258 1.258 1_565 S
O267 Mn252 2.162 . S
O267 C255 1.281 . S
O268 Mn252 2.297 1_545 S
O268 C255 1.236 1_545 S
N269 Mn253 2.282 . S
N269 C270 1.328 . S
N269 C274 1.318 . S
C270 N269 1.328 . S
C270 C271 1.457 . S
C270 H275 0.929 . S
C271 C270 1.457 . S
C271 C272 1.291 . S
C271 H284 0.931 . S
C272 C271 1.291 . S
C272 C273 1.373 . S
C272 H285 0.929 . S
C273 C272 1.373 . S
C273 C274 1.396 . S
C273 C280 1.403 . S
C274 C264 1.476 . S
C274 N269 1.318 . S
C274 C273 1.396 . S
H275 C270 0.929 . S
O276 Mn252 2.385 1_545 S
O276 C254 1.234 . S
O277 Mn252 2.209 1_545 S
O277 Mn253 2.215 . S
O277 C254 1.283 . S
O278 Mn252 2.094 . S
O278 C256 1.240 . S
O279 Mn253 2.117 1_565 S
O279 C256 1.264 . S
C280 C273 1.403 . S
C280 C281 1.399 . S
C280 H286 0.929 . S
C281 C261 1.449 . S
C281 C280 1.399 . S
C281 H287 0.930 . S
H282 C262 0.931 . S
H283 C263 0.930 . S
H284 C271 0.931 . S
H285 C272 0.929 . S
H286 C280 0.929 . S
H287 C281 0.930 . S
Mn288 O293 2.095 . S
Mn288 O303 2.162 1_554 S
Mn288 O304 2.297 1_554 S
Mn288 O312 2.385 . S
Mn288 O313 2.209 . S
Mn288 O314 2.094 . S
Mn289 O294 2.121 . S
Mn289 N296 2.257 . S
Mn289 N305 2.282 . S
Mn289 O313 2.215 . S
Mn289 O315 2.117 . S
C290 O312 1.234 . S
C290 O313 1.283 . S
C291 O303 1.281 . S
C291 O304 1.236 . S
C292 O314 1.240 . S
C292 O315 1.264 . S
O293 Mn288 2.095 . S
O293 C302 1.250 . S
O294 Mn289 2.121 . S
O294 C302 1.258 . S
C295 N296 1.326 . S
C295 C299 1.460 . S
C295 H301 0.929 . S
N296 Mn289 2.257 . S
N296 C295 1.326 . S
N296 C300 1.362 . S
C297 C298 1.258 . S
C297 C300 1.431 . S
C297 C317 1.449 . S
C298 C297 1.258 . S
C298 C299 1.477 . S
C298 H318 0.931 . S
C299 C295 1.460 . S
C299 C298 1.477 . S
C299 H319 0.930 . S
C300 N296 1.362 . S
C300 C297 1.431 . S
C300 C310 1.476 . S
H301 C295 0.929 . S
C302 O293 1.250 . S
C302 O294 1.258 . S
O303 Mn288 2.162 1_556 S
O303 C291 1.281 . S
O304 Mn288 2.297 1_556 S
O304 C291 1.236 . S
N305 Mn289 2.282 . S
N305 C306 1.328 . S
N305 C310 1.318 . S
C306 N305 1.328 . S
C306 C307 1.457 . S
C306 H311 0.929 . S
C307 C306 1.457 . S
C307 C308 1.291 . S
C307 H320 0.931 . S
C308 C307 1.291 . S
C308 C309 1.373 . S
C308 H321 0.929 . S
C309 C308 1.373 . S
C309 C310 1.396 . S
C309 C316 1.403 . S
C310 C300 1.476 . S
C310 N305 1.318 . S
C310 C309 1.396 . S
H311 C306 0.929 . S
O312 Mn288 2.385 . S
O312 C290 1.234 . S
O313 Mn288 2.209 . S
O313 Mn289 2.215 . S
O313 C290 1.283 . S
O314 Mn288 2.094 . S
O314 C292 1.240 . S
O315 Mn289 2.117 . S
O315 C292 1.264 . S
C316 C309 1.403 . S
C316 C317 1.399 . S
C316 H322 0.929 . S
C317 C297 1.449 . S
C317 C316 1.399 . S
C317 H323 0.930 . S
H318 C298 0.931 . S
H319 C299 0.930 . S
H320 C307 0.931 . S
H321 C308 0.929 . S
H322 C316 0.929 . S
H323 C317 0.930 . S
Mn324 O329 2.095 . S
Mn324 O339 2.162 . S
Mn324 O340 2.297 1_455 S
Mn324 O348 2.385 1_455 S
Mn324 O349 2.209 1_455 S
Mn324 O350 2.094 . S
Mn325 O330 2.121 . S
Mn325 N332 2.257 . S
Mn325 N341 2.282 . S
Mn325 O349 2.215 . S
Mn325 O351 2.117 1_655 S
C326 O348 1.234 . S
C326 O349 1.283 . S
C327 O339 1.281 . S
C327 O340 1.236 1_455 S
C328 O350 1.240 . S
C328 O351 1.264 . S
O329 Mn324 2.095 . S
O329 C338 1.250 . S
O330 Mn325 2.121 . S
O330 C338 1.258 1_655 S
C331 N332 1.326 . S
C331 C335 1.460 . S
C331 H337 0.929 . S
N332 Mn325 2.257 . S
N332 C331 1.326 . S
N332 C336 1.362 . S
C333 C334 1.258 . S
C333 C336 1.431 . S
C333 C353 1.449 . S
C334 C333 1.258 . S
C334 C335 1.477 . S
C334 H354 0.931 . S
C335 C331 1.460 . S
C335 C334 1.477 . S
C335 H355 0.930 . S
C336 N332 1.362 . S
C336 C333 1.431 . S
C336 C346 1.476 . S
H337 C331 0.929 . S
C338 O329 1.250 . S
C338 O330 1.258 1_455 S
O339 Mn324 2.162 . S
O339 C327 1.281 . S
O340 Mn324 2.297 1_655 S
O340 C327 1.236 1_655 S
N341 Mn325 2.282 . S
N341 C342 1.328 . S
N341 C346 1.318 . S
C342 N341 1.328 . S
C342 C343 1.457 . S
C342 H347 0.929 . S
C343 C342 1.457 . S
C343 C344 1.291 . S
C343 H356 0.931 . S
C344 C343 1.291 . S
C344 C345 1.373 . S
C344 H357 0.929 . S
C345 C344 1.373 . S
C345 C346 1.396 . S
C345 C352 1.403 . S
C346 C336 1.476 . S
C346 N341 1.318 . S
C346 C345 1.396 . S
H347 C342 0.929 . S
O348 Mn324 2.385 1_655 S
O348 C326 1.234 . S
O349 Mn324 2.209 1_655 S
O349 Mn325 2.215 . S
O349 C326 1.283 . S
O350 Mn324 2.094 . S
O350 C328 1.240 . S
O351 Mn325 2.117 1_455 S
O351 C328 1.264 . S
C352 C345 1.403 . S
C352 C353 1.399 . S
C352 H358 0.929 . S
C353 C333 1.449 . S
C353 C352 1.399 . S
C353 H359 0.930 . S
H354 C334 0.931 . S
H355 C335 0.930 . S
H356 C343 0.931 . S
H357 C344 0.929 . S
H358 C352 0.929 . S
H359 C353 0.930 . S
Mn360 O365 2.095 . S
Mn360 O375 2.162 . S
Mn360 O376 2.297 1_545 S
Mn360 O384 2.385 1_545 S
Mn360 O385 2.209 1_545 S
Mn360 O386 2.094 . S
Mn361 O366 2.121 . S
Mn361 N368 2.257 . S
Mn361 N377 2.282 . S
Mn361 O385 2.215 . S
Mn361 O387 2.117 1_565 S
C362 O384 1.234 . S
C362 O385 1.283 . S
C363 O375 1.281 . S
C363 O376 1.236 1_545 S
C364 O386 1.240 . S
C364 O387 1.264 . S
O365 Mn360 2.095 . S
O365 C374 1.250 . S
O366 Mn361 2.121 . S
O366 C374 1.258 1_565 S
C367 N368 1.326 . S
C367 C371 1.460 . S
C367 H373 0.929 . S
N368 Mn361 2.257 . S
N368 C367 1.326 . S
N368 C372 1.362 . S
C369 C370 1.258 . S
C369 C372 1.431 . S
C369 C389 1.449 . S
C370 C369 1.258 . S
C370 C371 1.477 . S
C370 H390 0.931 . S
C371 C367 1.460 . S
C371 C370 1.477 . S
C371 H391 0.930 . S
C372 N368 1.362 . S
C372 C369 1.431 . S
C372 C382 1.476 . S
H373 C367 0.929 . S
C374 O365 1.250 . S
C374 O366 1.258 1_545 S
O375 Mn360 2.162 . S
O375 C363 1.281 . S
O376 Mn360 2.297 1_565 S
O376 C363 1.236 1_565 S
N377 Mn361 2.282 . S
N377 C378 1.328 . S
N377 C382 1.318 . S
C378 N377 1.328 . S
C378 C379 1.457 . S
C378 H383 0.929 . S
C379 C378 1.457 . S
C379 C380 1.291 . S
C379 H392 0.931 . S
C380 C379 1.291 . S
C380 C381 1.373 . S
C380 H393 0.929 . S
C381 C380 1.373 . S
C381 C382 1.396 . S
C381 C388 1.403 . S
C382 C372 1.476 . S
C382 N377 1.318 . S
C382 C381 1.396 . S
H383 C378 0.929 . S
O384 Mn360 2.385 1_565 S
O384 C362 1.234 . S
O385 Mn360 2.209 1_565 S
O385 Mn361 2.215 . S
O385 C362 1.283 . S
O386 Mn360 2.094 . S
O386 C364 1.240 . S
O387 Mn361 2.117 1_545 S
O387 C364 1.264 . S
C388 C381 1.403 . S
C388 C389 1.399 . S
C388 H394 0.929 . S
C389 C369 1.449 . S
C389 C388 1.399 . S
C389 H395 0.930 . S
H390 C370 0.931 . S
H391 C371 0.930 . S
H392 C379 0.931 . S
H393 C380 0.929 . S
H394 C388 0.929 . S
H395 C389 0.930 . S
Mn396 O401 2.095 . S
Mn396 O411 2.162 1_554 S
Mn396 O412 2.297 1_554 S
Mn396 O420 2.385 . S
Mn396 O421 2.209 . S
Mn396 O422 2.094 . S
Mn397 O402 2.121 . S
Mn397 N404 2.257 . S
Mn397 N413 2.282 . S
Mn397 O421 2.215 . S
Mn397 O423 2.117 . S
C398 O420 1.234 . S
C398 O421 1.283 . S
C399 O411 1.281 . S
C399 O412 1.236 . S
C400 O422 1.240 . S
C400 O423 1.264 . S
O401 Mn396 2.095 . S
O401 C410 1.250 . S
O402 Mn397 2.121 . S
O402 C410 1.258 . S
C403 N404 1.326 . S
C403 C407 1.460 . S
C403 H409 0.929 . S
N404 Mn397 2.257 . S
N404 C403 1.326 . S
N404 C408 1.362 . S
C405 C406 1.258 . S
C405 C408 1.431 . S
C405 C425 1.449 . S
C406 C405 1.258 . S
C406 C407 1.477 . S
C406 H426 0.931 . S
C407 C403 1.460 . S
C407 C406 1.477 . S
C407 H427 0.930 . S
C408 N404 1.362 . S
C408 C405 1.431 . S
C408 C418 1.476 . S
H409 C403 0.929 . S
C410 O401 1.250 . S
C410 O402 1.258 . S
O411 Mn396 2.162 1_556 S
O411 C399 1.281 . S
O412 Mn396 2.297 1_556 S
O412 C399 1.236 . S
N413 Mn397 2.282 . S
N413 C414 1.328 . S
N413 C418 1.318 . S
C414 N413 1.328 . S
C414 C415 1.457 . S
C414 H419 0.929 . S
C415 C414 1.457 . S
C415 C416 1.291 . S
C415 H428 0.931 . S
C416 C415 1.291 . S
C416 C417 1.373 . S
C416 H429 0.929 . S
C417 C416 1.373 . S
C417 C418 1.396 . S
C417 C424 1.403 . S
C418 C408 1.476 . S
C418 N413 1.318 . S
C418 C417 1.396 . S
H419 C414 0.929 . S
O420 Mn396 2.385 . S
O420 C398 1.234 . S
O421 Mn396 2.209 . S
O421 Mn397 2.215 . S
O421 C398 1.283 . S
O422 Mn396 2.094 . S
O422 C400 1.240 . S
O423 Mn397 2.117 . S
O423 C400 1.264 . S
C424 C417 1.403 . S
C424 C425 1.399 . S
C424 H430 0.929 . S
C425 C405 1.449 . S
C425 C424 1.399 . S
C425 H431 0.930 . S
H426 C406 0.931 . S
H427 C407 0.930 . S
H428 C415 0.931 . S
H429 C416 0.929 . S
H430 C424 0.929 . S
H431 C425 0.930 . S
C432 C433 1.387 . S
C432 H436 0.950 . S
C432 C441 1.390 . S
C433 C432 1.387 . S
C433 C435 1.387 . S
H434 C441 0.950 . S
C435 C433 1.387 . S
C435 C437 1.390 . S
C435 H439 0.950 . S
H436 C432 0.950 . S
C437 C435 1.390 . S
C437 C438 1.387 . S
C437 H440 0.950 . S
C438 C437 1.387 . S
C438 C441 1.387 . S
H439 C435 0.950 . S
H440 C437 0.950 . S
C441 C432 1.390 . S
C441 H434 0.950 . S
C441 C438 1.387 . S
C442 C443 1.387 . S
C442 H446 0.950 . S
C442 C451 1.390 . S
C443 C442 1.387 . S
C443 C445 1.387 . S
H444 C451 0.950 . S
C445 C443 1.387 . S
C445 C447 1.390 . S
C445 H449 0.950 . S
H446 C442 0.950 . S
C447 C445 1.390 . S
C447 C448 1.387 . S
C447 H450 0.950 . S
C448 C447 1.387 . S
C448 C451 1.387 . S
H449 C445 0.950 . S
H450 C447 0.950 . S
C451 C442 1.390 . S
C451 H444 0.950 . S
C451 C448 1.387 . S
C452 C453 1.387 . S
C452 H456 0.950 . S
C452 C461 1.390 . S
C453 C452 1.387 . S
C453 C455 1.387 . S
H454 C461 0.950 . S
C455 C453 1.387 . S
C455 C457 1.390 . S
C455 H459 0.950 . S
H456 C452 0.950 . S
C457 C455 1.390 . S
C457 C458 1.387 . S
C457 H460 0.950 . S
C458 C457 1.387 . S
C458 C461 1.387 . S
H459 C455 0.950 . S
H460 C457 0.950 . S
C461 C452 1.390 . S
C461 H454 0.950 . S
C461 C458 1.387 . S
C462 C463 1.387 . S
C462 H466 0.950 . S
C462 C471 1.390 . S
C463 C462 1.387 . S
C463 C465 1.387 . S
H464 C471 0.950 . S
C465 C463 1.387 . S
C465 C467 1.390 . S
C465 H469 0.950 . S
H466 C462 0.950 . S
C467 C465 1.390 . S
C467 C468 1.387 . S
C467 H470 0.950 . S
C468 C467 1.387 . S
C468 C471 1.387 . S
H469 C465 0.950 . S
H470 C467 0.950 . S
C471 C462 1.390 . S
C471 H464 0.950 . S
C471 C468 1.387 . S
C472 C473 1.387 . S
C472 H476 0.950 . S
C472 C481 1.390 . S
C473 C472 1.387 . S
C473 C475 1.387 . S
H474 C481 0.950 . S
C475 C473 1.387 . S
C475 C477 1.390 . S
C475 H479 0.950 . S
H476 C472 0.950 . S
C477 C475 1.390 . S
C477 C478 1.387 . S
C477 H480 0.950 . S
C478 C477 1.387 . S
C478 C481 1.387 . S
H479 C475 0.950 . S
H480 C477 0.950 . S
C481 C472 1.390 . S
C481 H474 0.950 . S
C481 C478 1.387 . S
C482 C483 1.387 . S
C482 H486 0.950 . S
C482 C491 1.390 . S
C483 C482 1.387 . S
C483 C485 1.387 . S
H484 C491 0.950 . S
C485 C483 1.387 . S
C485 C487 1.390 . S
C485 H489 0.950 . S
H486 C482 0.950 . S
C487 C485 1.390 . S
C487 C488 1.387 . S
C487 H490 0.950 . S
C488 C487 1.387 . S
C488 C491 1.387 . S
H489 C485 0.950 . S
H490 C487 0.950 . S
C491 C482 1.390 . S
C491 H484 0.950 . S
C491 C488 1.387 . S
C492 C493 1.387 . S
C492 H496 0.950 . S
C492 C501 1.390 1_545 S
C493 C492 1.387 . S
C493 C495 1.387 . S
H494 C501 0.950 . S
C495 C493 1.387 . S
C495 C497 1.390 1_545 S
C495 H499 0.950 . S
H496 C492 0.950 . S
C497 C495 1.390 1_565 S
C497 C498 1.387 . S
C497 H500 0.950 . S
C498 C497 1.387 . S
C498 C501 1.387 . S
H499 C495 0.950 . S
H500 C497 0.950 . S
C501 C492 1.390 1_565 S
C501 H494 0.950 . S
C501 C498 1.387 . S
C502 C503 1.387 . S
C502 H506 0.950 . S
C502 C511 1.390 . S
C503 C502 1.387 . S
C503 C505 1.387 . S
H504 C511 0.950 . S
C505 C503 1.387 . S
C505 C507 1.390 . S
C505 H509 0.950 . S
H506 C502 0.950 . S
C507 C505 1.390 . S
C507 C508 1.387 . S
C507 H510 0.950 . S
C508 C507 1.387 . S
C508 C511 1.387 . S
H509 C505 0.950 . S
H510 C507 0.950 . S
C511 C502 1.390 . S
C511 H504 0.950 . S
C511 C508 1.387 . S
C512 C513 1.373 1_554 S
C512 H516 0.964 . S
C512 C521 1.390 1_455 S
C513 C512 1.373 1_556 S
C513 C515 1.387 . S
H514 C521 0.964 . S
C515 C513 1.387 . S
C515 C517 1.390 1_455 S
C515 H519 0.950 . S
H516 C512 0.964 . S
C517 C515 1.390 1_655 S
C517 C518 1.387 . S
C517 H520 0.950 . S
C518 C517 1.387 . S
C518 C521 1.373 1_556 S
H519 C515 0.950 . S
H520 C517 0.950 . S
C521 C512 1.390 1_655 S
C521 H514 0.964 . S
C521 C518 1.373 1_554 S
C522 C523 1.387 . S
C522 H526 0.950 . S
C522 C531 1.390 1_655 S
C523 C522 1.387 . S
C523 C525 1.387 . S
H524 C531 0.950 . S
C525 C523 1.387 . S
C525 C527 1.390 1_655 S
C525 H529 0.950 . S
H526 C522 0.950 . S
C527 C525 1.390 1_455 S
C527 C528 1.387 . S
C527 H530 0.950 . S
C528 C527 1.387 . S
C528 C531 1.387 . S
H529 C525 0.950 . S
H530 C527 0.950 . S
C531 C522 1.390 1_455 S
C531 H524 0.950 . S
C531 C528 1.387 . S
C532 C533 1.387 . S
C532 H536 0.950 . S
C532 C541 1.390 1_545 S
C533 C532 1.387 . S
C533 C535 1.387 . S
H534 C541 0.950 . S
C535 C533 1.387 . S
C535 C537 1.390 1_545 S
C535 H539 0.950 . S
H536 C532 0.950 . S
C537 C535 1.390 1_565 S
C537 C538 1.387 . S
C537 H540 0.950 . S
C538 C537 1.387 . S
C538 C541 1.387 . S
H539 C535 0.950 . S
H540 C537 0.950 . S
C541 C532 1.390 1_565 S
C541 H534 0.950 . S
C541 C538 1.387 . S
C542 C543 1.387 . S
C542 H546 0.950 . S
C542 C551 1.390 . S
C543 C542 1.387 . S
C543 C545 1.373 1_554 S
H544 C551 0.950 . S
C545 C543 1.373 1_556 S
C545 C547 1.390 . S
C545 H549 0.964 . S
H546 C542 0.950 . S
C547 C545 1.390 . S
C547 C548 1.373 1_556 S
C547 H550 0.964 . S
C548 C547 1.373 1_554 S
C548 C551 1.387 . S
H549 C545 0.964 . S
H550 C547 0.964 . S
C551 C542 1.390 . S
C551 H544 0.950 . S
C551 C548 1.387 . S
C552 C553 1.387 . S
C552 H556 0.950 . S
C552 C561 1.390 . S
C553 C552 1.387 . S
C553 C555 1.387 . S
H554 C561 0.950 . S
C555 C553 1.387 . S
C555 C557 1.390 . S
C555 H559 0.950 . S
H556 C552 0.950 . S
C557 C555 1.390 . S
C557 C558 1.387 . S
C557 H560 0.950 . S
C558 C557 1.387 . S
C558 C561 1.387 . S
H559 C555 0.950 . S
H560 C557 0.950 . S
C561 C552 1.390 . S
C561 H554 0.950 . S
C561 C558 1.387 . S
C562 C563 1.387 . S
C562 H566 0.950 . S
C562 C571 1.390 . S
C563 C562 1.387 . S
C563 C565 1.387 . S
H564 C571 0.950 . S
C565 C563 1.387 . S
C565 C567 1.390 . S
C565 H569 0.950 . S
H566 C562 0.950 . S
C567 C565 1.390 . S
C567 C568 1.387 . S
C567 H570 0.950 . S
C568 C567 1.387 . S
C568 C571 1.387 . S
H569 C565 0.950 . S
H570 C567 0.950 . S
C571 C562 1.390 . S
C571 H564 0.950 . S
C571 C568 1.387 . S
C572 C573 1.387 . S
C572 H576 0.950 . S
C572 C581 1.390 1_554 S
C573 C572 1.387 . S
C573 C575 1.387 . S
H574 C581 0.950 . S
C575 C573 1.387 . S
C575 C577 1.390 1_554 S
C575 H579 0.950 . S
H576 C572 0.950 . S
C577 C575 1.390 1_556 S
C577 C578 1.387 . S
C577 H580 0.950 . S
C578 C577 1.387 . S
C578 C581 1.387 . S
H579 C575 0.950 . S
H580 C577 0.950 . S
C581 C572 1.390 1_556 S
C581 H574 0.950 . S
C581 C578 1.387 . S
C582 C583 1.387 . S
C582 H586 0.950 . S
C582 C591 1.390 . S
C583 C582 1.387 . S
C583 C585 1.387 . S
H584 C591 0.950 . S
C585 C583 1.387 . S
C585 C587 1.390 . S
C585 H589 0.950 . S
H586 C582 0.950 . S
C587 C585 1.390 . S
C587 C588 1.387 . S
C587 H590 0.950 . S
C588 C587 1.387 . S
C588 C591 1.387 . S
H589 C585 0.950 . S
H590 C587 0.950 . S
C591 C582 1.390 . S
C591 H584 0.950 . S
C591 C588 1.387 . S
C592 C593 1.387 . S
C592 H596 0.950 . S
C592 C601 1.390 . S
C593 C592 1.387 . S
C593 C595 1.387 . S
H594 C601 0.950 . S
C595 C593 1.387 . S
C595 C597 1.390 . S
C595 H599 0.950 . S
H596 C592 0.950 . S
C597 C595 1.390 . S
C597 C598 1.387 . S
C597 H600 0.950 . S
C598 C597 1.387 . S
C598 C601 1.387 . S
H599 C595 0.950 . S
H600 C597 0.950 . S
C601 C592 1.390 . S
C601 H594 0.950 . S
C601 C598 1.387 . S
C602 C603 1.387 . S
C602 H606 0.950 . S
C602 C611 1.390 1_554 S
C603 C602 1.387 . S
C603 C605 1.387 . S
H604 C611 0.950 . S
C605 C603 1.387 . S
C605 C607 1.390 1_554 S
C605 H609 0.950 . S
H606 C602 0.950 . S
C607 C605 1.390 1_556 S
C607 C608 1.387 . S
C607 H610 0.950 . S
C608 C607 1.387 . S
C608 C611 1.387 . S
H609 C605 0.950 . S
H610 C607 0.950 . S
C611 C602 1.390 1_556 S
C611 H604 0.950 . S
C611 C608 1.387 . S
C612 C613 1.387 . S
C612 H616 0.950 . S
C612 C621 1.390 1_545 S
C613 C612 1.387 . S
C613 C615 1.387 . S
H614 C621 0.950 . S
C615 C613 1.387 . S
C615 C617 1.390 1_545 S
C615 H619 0.950 . S
H616 C612 0.950 . S
C617 C615 1.390 1_565 S
C617 C618 1.387 . S
C617 H620 0.950 . S
C618 C617 1.387 . S
C618 C621 1.387 . S
H619 C615 0.950 . S
H620 C617 0.950 . S
C621 C612 1.390 1_565 S
C621 H614 0.950 . S
C621 C618 1.387 . S
C622 C623 1.387 . S
C622 H626 0.950 . S
C622 C631 1.390 . S
C623 C622 1.387 . S
C623 C625 1.387 . S
H624 C631 0.950 . S
C625 C623 1.387 . S
C625 C627 1.390 . S
C625 H629 0.950 . S
H626 C622 0.950 . S
C627 C625 1.390 . S
C627 C628 1.387 . S
C627 H630 0.950 . S
C628 C627 1.387 . S
C628 C631 1.387 . S
H629 C625 0.950 . S
H630 C627 0.950 . S
C631 C622 1.390 . S
C631 H624 0.950 . S
C631 C628 1.387 . S
C632 C633 1.387 1_655 S
C632 H636 0.950 . S
C632 C641 1.390 . S
C633 C632 1.387 1_455 S
C633 C635 1.387 . S
H634 C641 0.950 . S
C635 C633 1.387 . S
C635 C637 1.390 . S
C635 H639 0.950 . S
H636 C632 0.950 . S
C637 C635 1.390 . S
C637 C638 1.387 1_455 S
C637 H640 0.950 . S
C638 C637 1.387 1_655 S
C638 C641 1.387 . S
H639 C635 0.950 . S
H640 C637 0.950 . S
C641 C632 1.390 . S
C641 H634 0.950 . S
C641 C638 1.387 . S
C642 C643 1.387 . S
C642 H646 0.950 . S
C642 C651 1.390 1_565 S
C643 C642 1.387 . S
C643 C645 1.387 . S
H644 C651 0.950 . S
C645 C643 1.387 . S
C645 C647 1.390 1_565 S
C645 H649 0.950 . S
H646 C642 0.950 . S
C647 C645 1.390 1_545 S
C647 C648 1.387 . S
C647 H650 0.950 . S
C648 C647 1.387 . S
C648 C651 1.387 . S
H649 C645 0.950 . S
H650 C647 0.950 . S
C651 C642 1.390 1_545 S
C651 H644 0.950 . S
C651 C648 1.387 . S
C652 C653 1.387 . S
C652 H656 0.950 . S
C652 C661 1.390 . S
C653 C652 1.387 . S
C653 C655 1.387 . S
H654 C661 0.950 . S
C655 C653 1.387 . S
C655 C657 1.390 . S
C655 H659 0.950 . S
H656 C652 0.950 . S
C657 C655 1.390 . S
C657 C658 1.387 . S
C657 H660 0.950 . S
C658 C657 1.387 . S
C658 C661 1.387 . S
H659 C655 0.950 . S
H660 C657 0.950 . S
C661 C652 1.390 . S
C661 H654 0.950 . S
C661 C658 1.387 . S
C662 C663 1.387 1_455 S
C662 H666 0.950 . S
C662 C671 1.390 . S
C663 C662 1.387 1_655 S
C663 C665 1.387 . S
H664 C671 0.950 . S
C665 C663 1.387 . S
C665 C667 1.390 . S
C665 H669 0.950 . S
H666 C662 0.950 . S
C667 C665 1.390 . S
C667 C668 1.387 1_655 S
C667 H670 0.950 . S
C668 C667 1.387 1_455 S
C668 C671 1.387 . S
H669 C665 0.950 . S
H670 C667 0.950 . S
C671 C662 1.390 . S
C671 H664 0.950 . S
C671 C668 1.387 . S
C433 C4 1.680 . S
C438 C292 1.680 . S
C443 C40 1.680 . S
C448 C328 1.680 . S
C453 C364 1.680 . S
C458 C76 1.680 . S
C463 C400 1.680 . S
C468 C112 1.680 . S
C473 C220 1.680 . S
C478 C148 1.680 . S
C483 C256 1.680 . S
C488 C184 1.680 . S
C493 C14 1.519 . S
C498 C122 1.519 . S
C503 C158 1.519 . S
C508 C50 1.519 . S
C513 C194 1.519 . S
C518 C86 1.519 . S
C523 C230 1.519 . S
C528 C338 1.519 . S
C533 C374 1.519 . S
C538 C266 1.519 . S
C543 C302 1.517 . S
C548 C410 1.517 . S
C553 C218 1.100 . S
C558 C2 1.099 . S
C563 C38 1.104 . S
C568 C254 1.104 . S
C573 C290 1.104 . S
C578 C74 1.104 . S
C583 C326 1.101 . S
C588 C110 1.102 . S
C593 C146 1.102 . S
C598 C362 1.103 . S
C603 C398 1.104 . S
C608 C182 1.104 . S
C613 C3 1.205 . S
C618 C255 1.205 . S
C623 C291 1.208 . S
C628 C39 1.208 . S
C633 C327 1.208 . S
C638 C75 1.207 . S
C643 C111 1.208 . S
C648 C363 1.208 . S
C653 C399 1.205 . S
C658 C147 1.205 . S
C663 C219 1.208 . S
C668 C183 1.207 . S
