# Generated by pormake.
# Topology qtz-x, (6)-cn, num edge types: 1
# Building blocks:
#     Node 0, Type 0, BuildingBlock: BETFEN_clean_sbu_0, # of connection points: 6
#     Node 1, Type 0, BuildingBlock: BETFEN_clean_sbu_0, # of connection points: 6
#     Node 2, Type 0, BuildingBlock: BETFEN_clean_sbu_0, # of connection points: 6
#     Edge 3, Type (0, 0), BuildingBlock: FUNLAD_clean_linker_0, # of connection points: 2
#     Edge 4, Type (0, 0), BuildingBlock: FUNLAD_clean_linker_0, # of connection points: 2
#     Edge 5, Type (0, 0), BuildingBlock: FUNLAD_clean_linker_0, # of connection points: 2
#     Edge 6, Type (0, 0), BuildingBlock: FUNLAD_clean_linker_0, # of connection points: 2
#     Edge 7, Type (0, 0), BuildingBlock: FUNLAD_clean_linker_0, # of connection points: 2
#     Edge 8, Type (0, 0), BuildingBlock: FUNLAD_clean_linker_0, # of connection points: 2
#     Edge 9, Type (0, 0), BuildingBlock: FUNLAD_clean_linker_0, # of connection points: 2
#     Edge 10, Type (0, 0), BuildingBlock: FUNLAD_clean_linker_0, # of connection points: 2
#     Edge 11, Type (0, 0), BuildingBlock: FUNLAD_clean_linker_0, # of connection points: 2
# Relax obj value: 0.199
# Max RMSD: 0.247
# Mean RMSD: 0.227
data_MOF--net-qtz-x--node1-BETFEN_clean_sbu_0--edge1-FUNLAD_clean_linker_0
_symmetry_space_group_name_H-M    P1
_symmetry_Int_Tables_number       1
_symmetry_cell_setting            triclinic
loop_
_symmetry_equiv_pos_as_xyz
'x, y, z'
_cell_length_a     17.307426
_cell_length_b     17.357863
_cell_length_c     60.789419
_cell_angle_alpha  71.3876
_cell_angle_beta   111.48407
_cell_angle_gamma 121.11925
loop_
_atom_site_label
_atom_site_type_symbol
_atom_site_fract_x
_atom_site_fract_y
_atom_site_fract_z
_atom_type_partial_charge
Pr0 Pr 0.97391 0.59119 0.18962 0.0
Pr1 Pr 0.16271 0.71464 0.18065 0.0
C2 C 0.83026 0.45891 0.20843 0.0
C3 C 0.81629 0.42655 0.23298 0.0
C4 C 0.73646 0.41565 0.23721 0.0
C5 C 0.72591 0.39162 0.2606 0.0
C6 C 0.79535 0.3785 0.28028 0.0
C7 C 0.87446 0.38793 0.27592 0.0
C8 C 0.88471 0.41146 0.25255 0.0
C9 C 1.02097 0.77565 0.18261 0.0
C10 C 0.16005 0.65764 0.23595 0.0
C11 C 0.31198 0.84116 0.16338 0.0
C12 C 0.34202 0.85612 0.14188 0.0
C13 C 0.4257 0.85538 0.14457 0.0
C14 C 0.45075 0.86031 0.12457 0.0
C15 C 0.39269 0.86643 0.10143 0.0
C16 C 0.31038 0.87016 0.09869 0.0
C17 C 0.28524 0.86494 0.11871 0.0
C18 C 0.11321 0.52953 0.18696 0.0
C19 C 0.97724 0.65617 0.13377 0.0
O20 O 0.8899 0.44358 0.20433 0.0
O21 O 0.8369 0.54018 0.19847 0.0
O22 O 0.0752 0.74093 0.19528 0.0
O23 O 0.93919 0.71459 0.17339 0.0
O24 O 0.20478 0.72579 0.22078 0.0
O25 O 0.07723 0.59159 0.22812 0.0
O26 O 0.23966 0.85335 0.16006 0.0
O27 O 0.31171 0.7696 0.17929 0.0
O28 O 0.06035 0.56572 0.17442 0.0
O29 O 0.19498 0.58945 0.19641 0.0
O30 O 0.92808 0.589 0.14842 0.0
O31 O 0.06242 0.71759 0.14218 0.0
H32 H 0.683 0.42736 0.22242 0.0
H33 H 0.6645 0.38569 0.26333 0.0
H34 H 0.92863 0.37703 0.29059 0.0
H35 H 0.94696 0.41906 0.24987 0.0
H36 H 0.47077 0.84888 0.16224 0.0
H37 H 0.5153 0.85863 0.12724 0.0
H38 H 0.26373 0.87406 0.08115 0.0
H39 H 0.22027 0.86567 0.11602 0.0
Pr40 Pr 0.76049 0.13756 0.54279 0.0
Pr41 Pr 0.67816 0.94226 0.53757 0.0
C42 C 0.80964 0.29555 0.55523 0.0
C43 C 0.83522 0.32712 0.57778 0.0
C44 C 0.90295 0.41671 0.58066 0.0
C45 C 0.93127 0.44637 0.60242 0.0
C46 C 0.89221 0.38675 0.62166 0.0
C47 C 0.82407 0.29694 0.61865 0.0
C48 C 0.79593 0.26736 0.59691 0.0
C49 C 0.88962 0.09077 0.54106 0.0
C50 C 0.73504 0.97476 0.59186 0.0
C51 C 0.62768 0.78851 0.52275 0.0
C52 C 0.60239 0.76767 0.49859 0.0
C53 C 0.51731 0.69352 0.49076 0.0
C54 C 0.48562 0.68139 0.46678 0.0
C55 C 0.53848 0.74345 0.45017 0.0
C56 C 0.62578 0.81503 0.45837 0.0
C57 C 0.65727 0.82721 0.48227 0.0
C58 C 0.5493 -0.01066 0.53916 0.0
C59 C 0.70342 0.10574 0.48864 0.0
O60 O 0.72293 0.2361 0.54813 0.0
O61 O 0.86922 0.27684 0.55247 0.0
O62 O 0.82885 0.0419 0.55306 0.0
O63 O 0.88598 0.16672 0.52992 0.0
O64 O 0.71971 0.91647 0.57933 0.0
O65 O 0.74397 0.05753 0.58157 0.0
O66 O 0.71468 0.84477 0.53109 0.0
O67 O 0.56882 0.80443 0.52696 0.0
O68 O 0.6101 0.03804 0.52715 0.0
O69 O 0.55251 0.91319 0.5503 0.0
O70 O 0.71724 0.16302 0.50119 0.0
O71 O 0.69602 0.02352 0.49893 0.0
H72 H 0.93433 0.46358 0.56612 0.0
H73 H 0.98313 0.51621 0.60412 0.0
H74 H 0.79356 0.24906 0.63322 0.0
H75 H 0.74408 0.19759 0.59513 0.0
H76 H 0.47353 0.64712 0.50297 0.0
H77 H 0.41783 0.62589 0.46103 0.0
H78 H 0.66894 0.86319 0.44614 0.0
H79 H 0.72304 0.88537 0.4877 0.0
Pr80 Pr 0.75045 0.81732 0.85789 0.0
Pr81 Pr 0.89667 0.75551 0.86708 0.0
C82 C 0.60611 0.83518 0.85884 0.0
C83 C 0.57414 0.83625 0.87807 0.0
C84 C 0.5396 0.89765 0.87473 0.0
C85 C 0.51602 0.90402 0.89357 0.0
C86 C 0.52723 0.84938 0.91612 0.0
C87 C 0.56007 0.78661 0.91919 0.0
C88 C 0.58322 0.78009 0.90036 0.0
C89 C 0.93055 0.95831 0.86019 0.0
C90 C 0.85571 0.75599 0.91457 0.0
C91 C 0.03502 0.73139 0.865 0.0
C92 C 0.05211 0.71782 0.84477 0.0
C93 C 0.05663 0.63788 0.84621 0.0
C94 C 0.05396 0.61529 0.82573 0.0
C95 C 0.04661 0.67236 0.80345 0.0
C96 C 0.04831 0.75526 0.80241 0.0
C97 C 0.05093 0.77773 0.82284 0.0
C98 C 0.71546 0.61545 0.8643 0.0
C99 C 0.79996 0.82488 0.81058 0.0
O100 O 0.59965 0.75738 0.85817 0.0
O101 O 0.68435 0.90497 0.85506 0.0
O102 O 0.90891 0.88315 0.87426 0.0
O103 O 0.85772 0.96432 0.8447 0.0
O104 O 0.92152 0.76561 0.9064 0.0
O105 O 0.77961 0.76111 0.89972 0.0
O106 O 0.04348 0.81188 0.86391 0.0
O107 O 0.96195 0.66459 0.87233 0.0
O108 O 0.73848 0.69061 0.8503 0.0
O109 O 0.78746 0.60917 0.88012 0.0
O110 O 0.73193 0.81493 0.81795 0.0
O111 O 0.87348 0.81675 0.82598 0.0
H112 H 0.53264 0.94195 0.8577 0.0
H113 H 0.49167 0.95357 0.8907 0.0
H114 H 0.56816 0.74258 0.93621 0.0
H115 H 0.60941 0.73193 0.90335 0.0
H116 H 0.05718 0.59051 0.8629 0.0
H117 H 0.05223 0.55069 0.8271 0.0
H118 H 0.04441 0.80145 0.78561 0.0
H119 H 0.04773 0.8401 0.82114 0.0
C120 C 0.97238 0.89929 0.17056 0.0
C121 C 0.04116 0.86957 0.1825 0.0
C122 C 0.98974 -0.01331 0.17135 0.0
C123 C 0.07645 0.04626 0.18421 0.0
C124 C 0.1459 0.01707 0.19557 0.0
C125 C 0.12842 0.92961 0.19482 0.0
C126 C 0.09819 0.13967 0.18583 0.0
C127 C 0.03294 0.16569 0.18258 0.0
C128 C 0.05516 0.25902 0.18441 0.0
C129 C 0.98675 0.28952 0.17285 0.0
C130 C 1.00498 0.37698 0.17388 0.0
C131 C 0.09192 0.43561 0.18669 0.0
H132 H 0.19497 0.29554 0.20771 0.0
C133 C 0.15954 0.4045 0.19883 0.0
C134 C 0.14144 0.31716 0.19777 0.0
H135 H 0.22685 0.44787 0.20908 0.0
H136 H 0.90475 0.85477 0.1607 0.0
H137 H 0.93527 0.00716 0.16161 0.0
H138 H 0.21368 0.06168 0.20537 0.0
H139 H 0.183 0.90876 0.20407 0.0
H140 H 0.17137 0.18801 0.19029 0.0
H141 H 0.95972 0.11757 0.17806 0.0
H142 H 0.91929 0.24596 0.16268 0.0
H143 H 0.95129 0.39895 0.16446 0.0
C144 C 0.40486 0.94574 0.55029 0.0
C145 C 0.47433 0.00919 0.53807 0.0
C146 C 0.33192 0.96195 0.54893 0.0
C147 C 0.32712 0.04282 0.53545 0.0
C148 C 0.39705 0.10631 0.52328 0.0
C149 C 0.46999 0.08988 0.52461 0.0
C150 C 0.24929 0.06233 0.53286 0.0
C151 C 0.19065 0.01908 0.54749 0.0
C152 C 0.11265 0.03837 0.54488 0.0
C153 C 0.04273 0.97469 0.55703 0.0
C154 C 0.96952 -0.00921 0.55566 0.0
C155 C 0.96489 0.07133 0.54217 0.0
H156 H 0.16063 0.1715 0.52222 0.0
C157 C 0.03438 0.13498 0.52997 0.0
C158 C 0.10759 0.1191 0.53137 0.0
H159 H 0.03298 0.19803 0.51953 0.0
H160 H 0.40604 0.88259 0.56071 0.0
H161 H 0.27886 0.90964 0.55808 0.0
H162 H 0.39523 0.16898 0.51265 0.0
H163 H 0.52253 0.14001 0.51499 0.0
H164 H 0.24098 0.11502 0.51818 0.0
H165 H 0.199 0.96642 0.56217 0.0
H166 H 0.04474 0.91211 0.56768 0.0
H167 H 0.91699 0.9405 0.56527 0.0
C168 C 0.04504 0.1133 0.84523 0.0
C169 C 0.02685 0.03151 0.86158 0.0
C170 C 0.1363 0.18266 0.84645 0.0
C171 C 0.21133 0.17168 0.86421 0.0
C172 C 0.19279 0.08911 0.88031 0.0
C173 C 0.10154 0.01987 0.87909 0.0
C174 C 0.30981 0.24305 0.8662 0.0
C175 C 0.33515 0.33228 0.8573 0.0
C176 C 0.4338 0.40337 0.85947 0.0
C177 C 0.45343 0.48535 0.84311 0.0
C178 C 0.54499 0.55421 0.84456 0.0
C179 C 0.6188 0.54276 0.86259 0.0
H180 H 0.49592 0.33217 0.89125 0.0
C181 C 0.59943 0.46157 0.8792 0.0
C182 C 0.50793 0.39263 0.87774 0.0
H183 H 0.65499 0.45146 0.89346 0.0
H184 H 0.98875 0.12357 0.83136 0.0
H185 H 0.14731 0.24364 0.83315 0.0
H186 H 0.24911 0.07829 0.89402 0.0
H187 H 0.08955 0.95721 0.89185 0.0
H188 H 0.36308 0.22043 0.8757 0.0
H189 H 0.28208 0.35509 0.84772 0.0
H190 H 0.39776 0.49596 0.82901 0.0
H191 H 0.55793 0.61639 0.83158 0.0
C192 C 0.56823 0.85926 0.95952 0.0
C193 C 0.50735 0.85924 0.9366 0.0
C194 C 0.54985 0.8677 0.97894 0.0
C195 C 0.46936 0.87536 0.97598 0.0
C196 C 0.40959 0.87731 0.95296 0.0
C197 C 0.42819 0.86917 0.93348 0.0
C198 C 0.44667 0.8834 0.99628 0.0
C199 C 0.4789 0.85305 1.0194 0.0
C200 C 0.45584 0.85871 0.03997 0.0
C201 C 0.4695 0.80201 0.06189 0.0
C202 C 0.44965 0.80502 0.0818 0.0
C203 C 0.416 0.86529 0.08034 0.0
H204 H 0.41467 0.96717 1.02232 0.0
C205 C 0.40325 0.92293 0.05852 0.0
C206 C 0.42335 0.92011 0.03857 0.0
H207 H 0.37887 0.97119 0.05694 0.0
H208 H 0.63112 0.85415 0.9624 0.0
H209 H 0.59992 0.86967 0.99609 0.0
H210 H 0.3476 0.88405 0.95007 0.0
H211 H 0.37979 0.86919 0.91607 0.0
H212 H 0.398 0.91096 0.99177 0.0
H213 H 0.52078 0.81813 1.0236 0.0
H214 H 0.49486 0.75439 0.06358 0.0
H215 H 0.45916 0.75888 0.09826 0.0
C216 C 0.73313 0.22693 0.45218 0.0
C217 C 0.69996 0.13436 0.46268 0.0
C218 C 0.73483 0.25348 0.42795 0.0
C219 C 0.70296 0.18777 0.41371 0.0
C220 C 0.66741 0.09536 0.42408 0.0
C221 C 0.66639 0.06893 0.44827 0.0
C222 C 0.70403 0.21215 0.38795 0.0
C223 C 0.76564 0.29246 0.37838 0.0
C224 C 0.7706 0.3136 0.35301 0.0
C225 C 0.85565 0.37761 0.3471 0.0
C226 C 0.86366 0.39845 0.32359 0.0
C227 C 0.78633 0.35652 0.30527 0.0
H228 H 0.62523 0.22491 0.33824 0.0
C229 C 0.7006 0.29385 0.31105 0.0
C230 C 0.69271 0.27261 0.33462 0.0
H231 H 0.63969 0.26027 0.2974 0.0
H232 H 0.75923 0.27906 0.46277 0.0
H233 H 0.76039 0.32524 0.42046 0.0
H234 H 0.64178 0.04338 0.41351 0.0
H235 H 0.63931 -0.00297 0.45566 0.0
H236 H 0.65658 0.15895 0.37699 0.0
H237 H 0.81889 0.34239 0.3899 0.0
H238 H 0.91656 0.41102 0.3608 0.0
H239 H 0.93036 0.44825 0.3197 0.0
C240 C 0.71165 0.8254 0.76703 0.0
C241 C 0.7965 0.84713 0.78464 0.0
C242 C 0.71032 0.84528 0.74263 0.0
C243 C 0.79406 0.88865 0.73543 0.0
C244 C 0.87854 0.91138 0.75305 0.0
C245 C 0.87976 0.89001 0.77732 0.0
C246 C 0.79678 0.91593 0.70978 0.0
C247 C 0.73067 0.86743 0.69242 0.0
C248 C 0.736 0.8959 0.66691 0.0
C249 C 0.6971 0.82931 0.65242 0.0
C250 C 0.69926 0.85449 0.62822 0.0
C251 C 0.73858 0.947 0.61786 0.0
H252 H 0.80496 0.0418 0.66698 0.0
C253 C 0.77729 0.01358 0.63237 0.0
C254 C 0.77628 -0.01154 0.65658 0.0
H255 H 0.80803 0.08547 0.625 0.0
H256 H 0.64638 0.79233 0.77211 0.0
H257 H 0.64408 0.82857 0.72946 0.0
H258 H 0.94407 0.9455 0.74802 0.0
H259 H 0.94642 0.90855 0.79036 0.0
H260 H 0.8587 0.97569 0.70535 0.0
H261 H 0.67334 0.80271 0.69718 0.0
H262 H 0.66505 0.75754 0.65985 0.0
H263 H 0.66806 0.80151 0.61751 0.0
C264 C 0.798 0.72368 0.95069 0.0
C265 C 0.8689 0.74147 0.94089 0.0
C266 C 0.81239 0.71231 0.97556 0.0
C267 C 0.89828 0.71873 0.99113 0.0
C268 C 0.96865 0.73617 0.98128 0.0
C269 C 0.9541 0.74684 0.95655 0.0
C270 C 0.92019 0.71367 1.01749 0.0
C271 C 0.85636 0.67197 0.03055 0.0
C272 C 0.88397 0.67032 0.05694 0.0
C273 C 0.83078 0.59507 0.07176 0.0
C274 C 0.85908 0.59067 0.09676 0.0
C275 C 0.94063 0.66212 0.10735 0.0
H276 H 1.00371 0.80418 0.05669 0.0
C277 C 0.99089 0.73919 0.09233 0.0
C278 C 0.96302 0.74335 0.06752 0.0
H279 H 0.05276 0.79654 0.09972 0.0
H280 H 0.73159 0.71926 0.93919 0.0
H281 H 0.75712 0.70102 0.98238 0.0
H282 H 0.03572 0.7421 0.99278 0.0
H283 H 1.01049 0.76062 0.94973 0.0
H284 H 0.99363 0.74322 1.02673 0.0
H285 H 0.78313 0.63429 1.02211 0.0
H286 H 0.76874 0.53843 0.06405 0.0
H287 H 0.8184 0.53055 0.10778 0.0
C288 C 0.29344 0.72082 0.27073 0.0
C289 C 0.20188 0.65618 0.26208 0.0
C290 C 0.33254 0.72048 0.29536 0.0
C291 C 0.28047 0.65596 0.31196 0.0
C292 C 0.18959 0.59042 0.30328 0.0
C293 C 0.15063 0.59063 0.27865 0.0
C294 C 0.31883 0.6539 0.33834 0.0
C295 C 0.38858 0.72746 0.3483 0.0
C296 C 0.42554 0.72798 0.3746 0.0
C297 C 0.47506 0.81222 0.38269 0.0
C298 C 0.5116 0.81686 0.40712 0.0
C299 C 0.50052 0.73735 0.42417 0.0
H300 H 0.37961 0.58198 0.38619 0.0
C301 C 0.45163 0.65283 0.41615 0.0
C302 C 0.41484 0.6481 0.39163 0.0
H303 H 0.4429 0.59042 0.42882 0.0
H304 H 0.33534 0.77165 0.25849 0.0
H305 H 0.40392 0.7702 0.30121 0.0
H306 H 0.14799 0.53944 0.31559 0.0
H307 H 0.08 0.53989 0.27265 0.0
H308 H 0.28443 0.59095 0.34977 0.0
H309 H 0.41707 0.79234 0.33677 0.0
H310 H 0.48471 0.87493 0.37006 0.0
H311 H 0.54723 0.88282 0.41267 0.0
C312 C 0.07502 0.59675 0.78013 0.0
C313 C 0.02865 0.64193 0.78108 0.0
C314 C 0.05319 0.56351 0.75937 0.0
C315 C 0.98444 0.57495 0.73913 0.0
C316 C 0.93853 0.62028 0.74014 0.0
C317 C 0.96051 0.65368 0.76079 0.0
C318 C 0.95507 0.53702 0.71709 0.0
C319 C 1.00899 0.51819 0.71048 0.0
C320 C 0.9777 0.48207 0.68801 0.0
C321 C 0.04415 0.50301 0.67627 0.0
C322 C 1.01657 0.47203 0.65475 0.0
C323 C 0.92193 0.41833 0.64472 0.0
H324 H 0.83018 0.40644 0.68721 0.0
C325 C 0.85566 0.39525 0.65684 0.0
C326 C 0.88316 0.42654 0.67827 0.0
H327 H 0.78221 0.35401 0.64957 0.0
H328 H 0.12776 0.58657 0.79548 0.0
H329 H 0.08855 0.52695 0.75954 0.0
H330 H 0.8847 0.62929 0.72493 0.0
H331 H 0.92203 0.68645 0.76108 0.0
H332 H 0.88747 0.52844 0.70525 0.0
H333 H 0.0801 0.53481 0.72092 0.0
H334 H 0.11749 0.54461 0.68356 0.0
H335 H 0.06943 0.4896 0.64604 0.0
loop_
_geom_bond_atom_site_label_1
_geom_bond_atom_site_label_2
_geom_bond_distance
_geom_bond_site_symmetry_2
_ccdc_geom_bond_type
Pr0 C2 2.880 . S
Pr0 O20 2.562 . S
Pr0 O21 2.490 . S
Pr0 O22 2.695 1_655 S
Pr0 O23 2.512 . S
Pr0 O25 2.437 1_655 S
Pr0 O28 2.436 . S
Pr0 O30 2.438 . S
Pr1 C11 2.880 . S
Pr1 O22 2.436 . S
Pr1 O24 2.438 . S
Pr1 O26 2.562 . S
Pr1 O27 2.490 . S
Pr1 O28 2.695 1_455 S
Pr1 O29 2.512 . S
Pr1 O31 2.437 1_455 S
C2 Pr0 2.880 . S
C2 C3 1.491 . S
C2 O20 1.254 . S
C2 O21 1.225 . S
C3 C2 1.491 . S
C3 C4 1.392 . S
C3 C8 1.356 . S
C4 C3 1.392 . S
C4 C5 1.368 . S
C4 H32 0.929 . S
C5 C4 1.368 . S
C5 C6 1.386 . S
C5 H33 0.929 . S
C6 C5 1.386 . S
C6 C7 1.373 . S
C7 C6 1.373 . S
C7 C8 1.409 . S
C7 H34 0.931 . S
C8 C3 1.356 . S
C8 C7 1.409 . S
C8 H35 0.930 . S
C9 O22 1.270 1_655 S
C9 O23 1.248 . S
C10 O24 1.267 . S
C10 O25 1.278 . S
C11 Pr1 2.880 . S
C11 C12 1.491 . S
C11 O26 1.254 . S
C11 O27 1.225 . S
C12 C11 1.491 . S
C12 C13 1.392 . S
C12 C17 1.356 . S
C13 C12 1.392 . S
C13 C14 1.368 . S
C13 H36 0.929 . S
C14 C13 1.368 . S
C14 C15 1.386 . S
C14 H37 0.929 . S
C15 C14 1.386 . S
C15 C16 1.373 . S
C16 C15 1.373 . S
C16 C17 1.409 . S
C16 H38 0.931 . S
C17 C12 1.356 . S
C17 C16 1.409 . S
C17 H39 0.930 . S
C18 O28 1.270 1_455 S
C18 O29 1.248 . S
C19 O30 1.267 . S
C19 O31 1.278 . S
O20 Pr0 2.562 . S
O20 C2 1.254 . S
O21 Pr0 2.490 . S
O21 C2 1.225 . S
O22 Pr0 2.695 1_455 S
O22 Pr1 2.436 . S
O22 C9 1.270 1_455 S
O23 Pr0 2.512 . S
O23 C9 1.248 . S
O24 Pr1 2.438 . S
O24 C10 1.267 . S
O25 Pr0 2.437 1_455 S
O25 C10 1.278 . S
O26 Pr1 2.562 . S
O26 C11 1.254 . S
O27 Pr1 2.490 . S
O27 C11 1.225 . S
O28 Pr0 2.436 . S
O28 Pr1 2.695 1_655 S
O28 C18 1.270 1_655 S
O29 Pr1 2.512 . S
O29 C18 1.248 . S
O30 Pr0 2.438 . S
O30 C19 1.267 . S
O31 Pr1 2.437 1_655 S
O31 C19 1.278 . S
H32 C4 0.929 . S
H33 C5 0.929 . S
H34 C7 0.931 . S
H35 C8 0.930 . S
H36 C13 0.929 . S
H37 C14 0.929 . S
H38 C16 0.931 . S
H39 C17 0.930 . S
Pr40 C42 2.880 . S
Pr40 O60 2.562 . S
Pr40 O61 2.490 . S
Pr40 O62 2.695 1_545 S
Pr40 O63 2.512 . S
Pr40 O65 2.437 . S
Pr40 O68 2.436 . S
Pr40 O70 2.438 . S
Pr41 C51 2.880 . S
Pr41 O62 2.436 . S
Pr41 O64 2.438 . S
Pr41 O66 2.562 . S
Pr41 O67 2.490 . S
Pr41 O68 2.695 1_565 S
Pr41 O69 2.512 . S
Pr41 O71 2.437 1_565 S
C42 Pr40 2.880 . S
C42 C43 1.491 . S
C42 O60 1.254 . S
C42 O61 1.225 . S
C43 C42 1.491 . S
C43 C44 1.392 . S
C43 C48 1.356 . S
C44 C43 1.392 . S
C44 C45 1.368 . S
C44 H72 0.929 1_655 S
C45 C44 1.368 . S
C45 C46 1.386 . S
C45 H73 0.929 1_655 S
C46 C45 1.386 . S
C46 C47 1.373 . S
C47 C46 1.373 . S
C47 C48 1.409 . S
C47 H74 0.931 . S
C48 C43 1.356 . S
C48 C47 1.409 . S
C48 H75 0.930 . S
C49 O62 1.270 1_545 S
C49 O63 1.248 . S
C50 O64 1.267 . S
C50 O65 1.278 1_565 S
C51 Pr41 2.880 . S
C51 C52 1.491 . S
C51 O66 1.254 . S
C51 O67 1.225 . S
C52 C51 1.491 . S
C52 C53 1.392 . S
C52 C57 1.356 . S
C53 C52 1.392 . S
C53 C54 1.368 . S
C53 H76 0.929 . S
C54 C53 1.368 . S
C54 C55 1.386 . S
C54 H77 0.929 . S
C55 C54 1.386 . S
C55 C56 1.373 . S
C56 C55 1.373 . S
C56 C57 1.409 . S
C56 H78 0.931 . S
C57 C52 1.356 . S
C57 C56 1.409 . S
C57 H79 0.930 . S
C58 O68 1.270 1_565 S
C58 O69 1.248 . S
C59 O70 1.267 . S
C59 O71 1.278 . S
O60 Pr40 2.562 . S
O60 C42 1.254 . S
O61 Pr40 2.490 . S
O61 C42 1.225 . S
O62 Pr40 2.695 1_565 S
O62 Pr41 2.436 . S
O62 C49 1.270 1_565 S
O63 Pr40 2.512 . S
O63 C49 1.248 . S
O64 Pr41 2.438 . S
O64 C50 1.267 . S
O65 Pr40 2.437 . S
O65 C50 1.278 1_545 S
O66 Pr41 2.562 . S
O66 C51 1.254 . S
O67 Pr41 2.490 . S
O67 C51 1.225 . S
O68 Pr40 2.436 . S
O68 Pr41 2.695 1_545 S
O68 C58 1.270 1_545 S
O69 Pr41 2.512 . S
O69 C58 1.248 . S
O70 Pr40 2.438 . S
O70 C59 1.267 . S
O71 Pr41 2.437 1_545 S
O71 C59 1.278 . S
H72 C44 0.929 1_455 S
H73 C45 0.929 1_455 S
H74 C47 0.931 . S
H75 C48 0.930 . S
H76 C53 0.929 . S
H77 C54 0.929 . S
H78 C56 0.931 . S
H79 C57 0.930 . S
Pr80 C82 2.880 . S
Pr80 O100 2.562 . S
Pr80 O101 2.490 1_565 S
Pr80 O102 2.695 . S
Pr80 O103 2.512 1_565 S
Pr80 O105 2.437 . S
Pr80 O108 2.436 . S
Pr80 O110 2.438 . S
Pr81 C91 2.880 . S
Pr81 O102 2.436 . S
Pr81 O104 2.438 . S
Pr81 O106 2.562 . S
Pr81 O107 2.490 . S
Pr81 O108 2.695 . S
Pr81 O109 2.512 . S
Pr81 O111 2.437 . S
C82 Pr80 2.880 . S
C82 C83 1.491 . S
C82 O100 1.254 . S
C82 O101 1.225 1_565 S
C83 C82 1.491 . S
C83 C84 1.392 1_565 S
C83 C88 1.356 . S
C84 C83 1.392 1_545 S
C84 C85 1.368 . S
C84 H112 0.929 . S
C85 C84 1.368 . S
C85 C86 1.386 . S
C85 H113 0.929 . S
C86 C85 1.386 . S
C86 C87 1.373 1_545 S
C87 C86 1.373 1_565 S
C87 C88 1.409 . S
C87 H114 0.931 . S
C88 C83 1.356 . S
C88 C87 1.409 . S
C88 H115 0.930 . S
C89 O102 1.270 1_545 S
C89 O103 1.248 . S
C90 O104 1.267 . S
C90 O105 1.278 . S
C91 Pr81 2.880 . S
C91 C92 1.491 . S
C91 O106 1.254 . S
C91 O107 1.225 . S
C92 C91 1.491 . S
C92 C93 1.392 . S
C92 C97 1.356 1_655 S
C93 C92 1.392 . S
C93 C94 1.368 . S
C93 H116 0.929 . S
C94 C93 1.368 . S
C94 C95 1.386 1_655 S
C94 H117 0.929 . S
C95 C94 1.386 1_455 S
C95 C96 1.373 . S
C96 C95 1.373 . S
C96 C97 1.409 . S
C96 H118 0.931 . S
C97 C92 1.356 1_455 S
C97 C96 1.409 . S
C97 H119 0.930 . S
C98 O108 1.270 . S
C98 O109 1.248 . S
C99 O110 1.267 . S
C99 O111 1.278 . S
O100 Pr80 2.562 . S
O100 C82 1.254 . S
O101 Pr80 2.490 1_545 S
O101 C82 1.225 1_545 S
O102 Pr80 2.695 . S
O102 Pr81 2.436 . S
O102 C89 1.270 1_565 S
O103 Pr80 2.512 1_545 S
O103 C89 1.248 . S
O104 Pr81 2.438 . S
O104 C90 1.267 . S
O105 Pr80 2.437 . S
O105 C90 1.278 . S
O106 Pr81 2.562 . S
O106 C91 1.254 . S
O107 Pr81 2.490 . S
O107 C91 1.225 . S
O108 Pr80 2.436 . S
O108 Pr81 2.695 . S
O108 C98 1.270 . S
O109 Pr81 2.512 . S
O109 C98 1.248 . S
O110 Pr80 2.438 . S
O110 C99 1.267 . S
O111 Pr81 2.437 . S
O111 C99 1.278 . S
H112 C84 0.929 . S
H113 C85 0.929 . S
H114 C87 0.931 . S
H115 C88 0.930 . S
H116 C93 0.929 . S
H117 C94 0.929 . S
H118 C96 0.931 . S
H119 C97 0.930 . S
C120 C121 1.386 1_455 S
C120 C122 1.383 1_565 S
C120 H136 0.951 . S
C121 C120 1.386 1_655 S
C121 C125 1.383 . S
C122 C120 1.383 1_545 S
C122 C123 1.402 1_455 S
C122 H137 0.951 . S
C123 C122 1.402 1_655 S
C123 C124 1.375 1_545 S
C123 C126 1.481 . S
C124 C123 1.375 1_565 S
C124 C125 1.367 . S
C124 H138 0.951 . S
C125 C121 1.383 . S
C125 C124 1.367 . S
C125 H139 0.950 . S
C126 C123 1.481 . S
C126 C127 1.297 . S
C126 H140 0.950 . S
C127 C126 1.297 . S
C127 C128 1.479 . S
C127 H141 0.950 . S
C128 C127 1.479 . S
C128 C129 1.375 1_655 S
C128 C134 1.404 . S
C129 C128 1.375 1_455 S
C129 C130 1.369 . S
C129 H142 0.950 . S
C130 C129 1.369 . S
C130 C131 1.392 1_455 S
C130 H143 0.951 . S
C131 C130 1.392 1_655 S
C131 C133 1.384 . S
H132 C134 0.949 . S
C133 C131 1.384 . S
C133 C134 1.385 . S
C133 H135 0.950 . S
C134 C128 1.404 . S
C134 H132 0.949 . S
C134 C133 1.385 . S
H135 C133 0.950 . S
H136 C120 0.951 . S
H137 C122 0.951 . S
H138 C124 0.951 . S
H139 C125 0.950 . S
H140 C126 0.950 . S
H141 C127 0.950 . S
H142 C129 0.950 . S
H143 C130 0.951 . S
C144 C145 1.386 1_565 S
C144 C146 1.383 . S
C144 H160 0.951 . S
C145 C144 1.386 1_545 S
C145 C149 1.383 . S
C146 C144 1.383 . S
C146 C147 1.402 1_565 S
C146 H161 0.951 . S
C147 C146 1.402 1_545 S
C147 C148 1.375 . S
C147 C150 1.481 . S
C148 C147 1.375 . S
C148 C149 1.367 . S
C148 H162 0.951 . S
C149 C145 1.383 . S
C149 C148 1.367 . S
C149 H163 0.950 . S
C150 C147 1.481 . S
C150 C151 1.297 . S
C150 H164 0.950 . S
C151 C150 1.297 . S
C151 C152 1.479 . S
C151 H165 0.950 . S
C152 C151 1.479 . S
C152 C153 1.375 1_545 S
C152 C158 1.404 . S
C153 C152 1.375 1_565 S
C153 C154 1.369 . S
C153 H166 0.950 . S
C154 C153 1.369 . S
C154 C155 1.392 1_465 S
C154 H167 0.951 1_455 S
C155 C154 1.392 1_645 S
C155 C157 1.384 . S
H156 C158 0.949 . S
C157 C155 1.384 . S
C157 C158 1.385 1_655 S
C157 H159 0.950 . S
C158 C152 1.404 . S
C158 H156 0.949 . S
C158 C157 1.385 1_455 S
H159 C157 0.950 . S
H160 C144 0.951 . S
H161 C146 0.951 . S
H162 C148 0.951 . S
H163 C149 0.950 . S
H164 C150 0.950 . S
H165 C151 0.950 . S
H166 C153 0.950 . S
H167 C154 0.951 1_655 S
C168 C169 1.386 . S
C168 C170 1.383 . S
C168 H184 0.951 . S
C169 C168 1.386 . S
C169 C173 1.383 . S
C170 C168 1.383 . S
C170 C171 1.402 . S
C170 H185 0.951 . S
C171 C170 1.402 . S
C171 C172 1.375 . S
C171 C174 1.481 . S
C172 C171 1.375 . S
C172 C173 1.367 . S
C172 H186 0.951 . S
C173 C169 1.383 . S
C173 C172 1.367 . S
C173 H187 0.950 . S
C174 C171 1.481 . S
C174 C175 1.297 . S
C174 H188 0.950 . S
C175 C174 1.297 . S
C175 C176 1.479 . S
C175 H189 0.950 . S
C176 C175 1.479 . S
C176 C177 1.375 . S
C176 C182 1.404 . S
C177 C176 1.375 . S
C177 C178 1.369 . S
C177 H190 0.950 . S
C178 C177 1.369 . S
C178 C179 1.392 . S
C178 H191 0.951 . S
C179 C178 1.392 . S
C179 C181 1.384 . S
H180 C182 0.949 . S
C181 C179 1.384 . S
C181 C182 1.385 . S
C181 H183 0.950 . S
C182 C176 1.404 . S
C182 H180 0.949 . S
C182 C181 1.385 . S
H183 C181 0.950 . S
H184 C168 0.951 . S
H185 C170 0.951 . S
H186 C172 0.951 . S
H187 C173 0.950 . S
H188 C174 0.950 . S
H189 C175 0.950 . S
H190 C177 0.950 . S
H191 C178 0.951 . S
C192 C193 1.386 1_565 S
C192 C194 1.383 . S
C192 H208 0.951 . S
C193 C192 1.386 1_545 S
C193 C197 1.383 . S
C194 C192 1.383 . S
C194 C195 1.402 1_565 S
C194 H209 0.951 . S
C195 C194 1.402 1_545 S
C195 C196 1.375 . S
C195 C198 1.481 . S
C196 C195 1.375 . S
C196 C197 1.367 . S
C196 H210 0.951 . S
C197 C193 1.383 . S
C197 C196 1.367 . S
C197 H211 0.950 . S
C198 C195 1.481 . S
C198 C199 1.297 1_545 S
C198 H212 0.950 . S
C199 C198 1.297 1_565 S
C199 C200 1.479 1_556 S
C199 H213 0.950 . S
C200 C199 1.479 1_554 S
C200 C201 1.375 . S
C200 C206 1.404 1_565 S
C201 C200 1.375 . S
C201 C202 1.369 . S
C201 H214 0.950 . S
C202 C201 1.369 . S
C202 C203 1.392 . S
C202 H215 0.951 . S
C203 C202 1.392 . S
C203 C205 1.384 1_565 S
H204 C206 0.949 1_556 S
C205 C203 1.384 1_545 S
C205 C206 1.385 . S
C205 H207 0.950 . S
C206 C200 1.404 1_545 S
C206 H204 0.949 1_554 S
C206 C205 1.385 . S
H207 C205 0.950 . S
H208 C192 0.951 . S
H209 C194 0.951 . S
H210 C196 0.951 . S
H211 C197 0.950 . S
H212 C198 0.950 . S
H213 C199 0.950 . S
H214 C201 0.950 . S
H215 C202 0.951 . S
C216 C217 1.386 . S
C216 C218 1.383 . S
C216 H232 0.951 . S
C217 C216 1.386 . S
C217 C221 1.383 . S
C218 C216 1.383 . S
C218 C219 1.402 . S
C218 H233 0.951 . S
C219 C218 1.402 . S
C219 C220 1.375 . S
C219 C222 1.481 . S
C220 C219 1.375 . S
C220 C221 1.367 . S
C220 H234 0.951 . S
C221 C217 1.383 . S
C221 C220 1.367 . S
C221 H235 0.950 . S
C222 C219 1.481 . S
C222 C223 1.297 . S
C222 H236 0.950 . S
C223 C222 1.297 . S
C223 C224 1.479 . S
C223 H237 0.950 . S
C224 C223 1.479 . S
C224 C225 1.375 . S
C224 C230 1.404 . S
C225 C224 1.375 . S
C225 C226 1.369 . S
C225 H238 0.950 . S
C226 C225 1.369 . S
C226 C227 1.392 . S
C226 H239 0.951 . S
C227 C226 1.392 . S
C227 C229 1.384 . S
H228 C230 0.949 . S
C229 C227 1.384 . S
C229 C230 1.385 . S
C229 H231 0.950 . S
C230 C224 1.404 . S
C230 H228 0.949 . S
C230 C229 1.385 . S
H231 C229 0.950 . S
H232 C216 0.951 . S
H233 C218 0.951 . S
H234 C220 0.951 . S
H235 C221 0.950 . S
H236 C222 0.950 . S
H237 C223 0.950 . S
H238 C225 0.950 . S
H239 C226 0.951 . S
C240 C241 1.386 . S
C240 C242 1.383 . S
C240 H256 0.951 . S
C241 C240 1.386 . S
C241 C245 1.383 . S
C242 C240 1.383 . S
C242 C243 1.402 . S
C242 H257 0.951 . S
C243 C242 1.402 . S
C243 C244 1.375 . S
C243 C246 1.481 . S
C244 C243 1.375 . S
C244 C245 1.367 . S
C244 H258 0.951 1_565 S
C245 C241 1.383 . S
C245 C244 1.367 . S
C245 H259 0.950 1_565 S
C246 C243 1.481 . S
C246 C247 1.297 . S
C246 H260 0.950 . S
C247 C246 1.297 . S
C247 C248 1.479 . S
C247 H261 0.950 . S
C248 C247 1.479 . S
C248 C249 1.375 . S
C248 C254 1.404 . S
C249 C248 1.375 . S
C249 C250 1.369 . S
C249 H262 0.950 . S
C250 C249 1.369 . S
C250 C251 1.392 . S
C250 H263 0.951 . S
C251 C250 1.392 . S
C251 C253 1.384 . S
H252 C254 0.949 1_545 S
C253 C251 1.384 . S
C253 C254 1.385 . S
C253 H255 0.950 1_565 S
C254 C248 1.404 . S
C254 H252 0.949 1_565 S
C254 C253 1.385 . S
H255 C253 0.950 1_545 S
H256 C240 0.951 . S
H257 C242 0.951 . S
H258 C244 0.951 1_545 S
H259 C245 0.950 1_545 S
H260 C246 0.950 . S
H261 C247 0.950 . S
H262 C249 0.950 . S
H263 C250 0.951 . S
C264 C265 1.386 . S
C264 C266 1.383 . S
C264 H280 0.951 . S
C265 C264 1.386 . S
C265 C269 1.383 . S
C266 C264 1.383 . S
C266 C267 1.402 . S
C266 H281 0.951 . S
C267 C266 1.402 . S
C267 C268 1.375 . S
C267 C270 1.481 . S
C268 C267 1.375 . S
C268 C269 1.367 . S
C268 H282 0.951 . S
C269 C265 1.383 . S
C269 C268 1.367 . S
C269 H283 0.950 . S
C270 C267 1.481 . S
C270 C271 1.297 . S
C270 H284 0.950 . S
C271 C270 1.297 . S
C271 C272 1.479 1_556 S
C271 H285 0.950 . S
C272 C271 1.479 1_554 S
C272 C273 1.375 . S
C272 C278 1.404 . S
C273 C272 1.375 . S
C273 C274 1.369 . S
C273 H286 0.950 . S
C274 C273 1.369 . S
C274 C275 1.392 . S
C274 H287 0.951 . S
C275 C274 1.392 . S
C275 C277 1.384 . S
H276 C278 0.949 . S
C277 C275 1.384 . S
C277 C278 1.385 . S
C277 H279 0.950 . S
C278 C272 1.404 . S
C278 H276 0.949 . S
C278 C277 1.385 . S
H279 C277 0.950 . S
H280 C264 0.951 . S
H281 C266 0.951 . S
H282 C268 0.951 . S
H283 C269 0.950 . S
H284 C270 0.950 . S
H285 C271 0.950 . S
H286 C273 0.950 . S
H287 C274 0.951 . S
C288 C289 1.386 . S
C288 C290 1.383 . S
C288 H304 0.951 . S
C289 C288 1.386 . S
C289 C293 1.383 . S
C290 C288 1.383 . S
C290 C291 1.402 . S
C290 H305 0.951 . S
C291 C290 1.402 . S
C291 C292 1.375 . S
C291 C294 1.481 . S
C292 C291 1.375 . S
C292 C293 1.367 . S
C292 H306 0.951 . S
C293 C289 1.383 . S
C293 C292 1.367 . S
C293 H307 0.950 . S
C294 C291 1.481 . S
C294 C295 1.297 . S
C294 H308 0.950 . S
C295 C294 1.297 . S
C295 C296 1.479 . S
C295 H309 0.950 . S
C296 C295 1.479 . S
C296 C297 1.375 . S
C296 C302 1.404 . S
C297 C296 1.375 . S
C297 C298 1.369 . S
C297 H310 0.950 . S
C298 C297 1.369 . S
C298 C299 1.392 . S
C298 H311 0.951 . S
C299 C298 1.392 . S
C299 C301 1.384 . S
H300 C302 0.949 . S
C301 C299 1.384 . S
C301 C302 1.385 . S
C301 H303 0.950 . S
C302 C296 1.404 . S
C302 H300 0.949 . S
C302 C301 1.385 . S
H303 C301 0.950 . S
H304 C288 0.951 . S
H305 C290 0.951 . S
H306 C292 0.951 . S
H307 C293 0.950 . S
H308 C294 0.950 . S
H309 C295 0.950 . S
H310 C297 0.950 . S
H311 C298 0.951 . S
C312 C313 1.386 . S
C312 C314 1.383 . S
C312 H328 0.951 . S
C313 C312 1.386 . S
C313 C317 1.383 1_455 S
C314 C312 1.383 . S
C314 C315 1.402 1_455 S
C314 H329 0.951 . S
C315 C314 1.402 1_655 S
C315 C316 1.375 . S
C315 C318 1.481 . S
C316 C315 1.375 . S
C316 C317 1.367 . S
C316 H330 0.951 . S
C317 C313 1.383 1_655 S
C317 C316 1.367 . S
C317 H331 0.950 . S
C318 C315 1.481 . S
C318 C319 1.297 . S
C318 H332 0.950 . S
C319 C318 1.297 . S
C319 C320 1.479 . S
C319 H333 0.950 1_655 S
C320 C319 1.479 . S
C320 C321 1.375 1_655 S
C320 C326 1.404 . S
C321 C320 1.375 1_455 S
C321 C322 1.369 1_455 S
C321 H334 0.950 . S
C322 C321 1.369 1_655 S
C322 C323 1.392 . S
C322 H335 0.951 1_655 S
C323 C322 1.392 . S
C323 C325 1.384 . S
H324 C326 0.949 . S
C325 C323 1.384 . S
C325 C326 1.385 . S
C325 H327 0.950 . S
C326 C320 1.404 . S
C326 H324 0.949 . S
C326 C325 1.385 . S
H327 C325 0.950 . S
H328 C312 0.951 . S
H329 C314 0.951 . S
H330 C316 0.951 . S
H331 C317 0.950 . S
H332 C318 0.950 . S
H333 C319 0.950 1_455 S
H334 C321 0.950 . S
H335 C322 0.951 1_455 S
C121 C9 1.386 . S
C131 C18 1.432 1_655 S
C145 C58 1.522 1_545 S
C155 C49 1.455 . S
C169 C89 1.245 1_455 S
C179 C98 1.301 . S
C193 C86 0.960 . S
C203 C15 0.925 . S
C217 C59 1.845 . S
C227 C6 1.775 . S
C241 C99 2.330 . S
C251 C50 2.299 . S
C265 C90 2.253 . S
C275 C19 2.225 . S
C289 C10 1.606 . S
C299 C55 1.474 . S
C313 C95 0.882 . S
C323 C46 0.940 . S
