# Generated by pormake.
# Topology mmt, (4)-cn, num edge types: 1
# Building blocks:
#     Node 0, Type 0, BuildingBlock: UXUYUI_clean_sbu_0, # of connection points: 4
#     Node 1, Type 0, BuildingBlock: UXUYUI_clean_sbu_0, # of connection points: 4
#     Node 2, Type 0, BuildingBlock: UXUYUI_clean_sbu_0, # of connection points: 4
#     Node 3, Type 0, BuildingBlock: UXUYUI_clean_sbu_0, # of connection points: 4
#     Node 4, Type 0, BuildingBlock: UXUYUI_clean_sbu_0, # of connection points: 4
#     Node 5, Type 0, BuildingBlock: UXUYUI_clean_sbu_0, # of connection points: 4
#     Node 6, Type 0, BuildingBlock: UXUYUI_clean_sbu_0, # of connection points: 4
#     Node 7, Type 0, BuildingBlock: UXUYUI_clean_sbu_0, # of connection points: 4
#     Edge 8, Type (0, 0), BuildingBlock: MIFKUJ_clean_linker_0, # of connection points: 2
#     Edge 9, Type (0, 0), BuildingBlock: MIFKUJ_clean_linker_0, # of connection points: 2
#     Edge 10, Type (0, 0), BuildingBlock: MIFKUJ_clean_linker_0, # of connection points: 2
#     Edge 11, Type (0, 0), BuildingBlock: MIFKUJ_clean_linker_0, # of connection points: 2
#     Edge 12, Type (0, 0), BuildingBlock: MIFKUJ_clean_linker_0, # of connection points: 2
#     Edge 13, Type (0, 0), BuildingBlock: MIFKUJ_clean_linker_0, # of connection points: 2
#     Edge 14, Type (0, 0), BuildingBlock: MIFKUJ_clean_linker_0, # of connection points: 2
#     Edge 15, Type (0, 0), BuildingBlock: MIFKUJ_clean_linker_0, # of connection points: 2
#     Edge 16, Type (0, 0), BuildingBlock: MIFKUJ_clean_linker_0, # of connection points: 2
#     Edge 17, Type (0, 0), BuildingBlock: MIFKUJ_clean_linker_0, # of connection points: 2
#     Edge 18, Type (0, 0), BuildingBlock: MIFKUJ_clean_linker_0, # of connection points: 2
#     Edge 19, Type (0, 0), BuildingBlock: MIFKUJ_clean_linker_0, # of connection points: 2
#     Edge 20, Type (0, 0), BuildingBlock: MIFKUJ_clean_linker_0, # of connection points: 2
#     Edge 21, Type (0, 0), BuildingBlock: MIFKUJ_clean_linker_0, # of connection points: 2
#     Edge 22, Type (0, 0), BuildingBlock: MIFKUJ_clean_linker_0, # of connection points: 2
#     Edge 23, Type (0, 0), BuildingBlock: MIFKUJ_clean_linker_0, # of connection points: 2
# Relax obj value: 0.161
# Max RMSD: 0.176
# Mean RMSD: 0.176
data_MOF--net-mmt--node1-UXUYUI_clean_sbu_0--edge1-MIFKUJ_clean_linker_0
_symmetry_space_group_name_H-M    P1
_symmetry_Int_Tables_number       1
_symmetry_cell_setting            triclinic
loop_
_symmetry_equiv_pos_as_xyz
'x, y, z'
_cell_length_a     37.950083
_cell_length_b     68.964434
_cell_length_c     76.415737
_cell_angle_alpha  90.006163
_cell_angle_beta   89.98795
_cell_angle_gamma 90.033746
loop_
_atom_site_label
_atom_site_type_symbol
_atom_site_fract_x
_atom_site_fract_y
_atom_site_fract_z
_atom_type_partial_charge
Li0 Li 0.09624 0.56544 0.33703 0.0
Li1 Li 0.11737 0.55886 0.36712 0.0
Li2 Li 0.13942 0.58656 0.35042 0.0
Li3 Li 0.15498 0.55453 0.34237 0.0
C4 C 0.05723 0.58179 0.36528 0.0
N5 N 0.99044 0.58121 0.37967 0.0
C6 C 0.03804 0.56448 0.3659 0.0
C7 C 0.0425 0.59878 0.37203 0.0
C8 C 0.00432 0.5645 0.37322 0.0
C9 C 0.00866 0.5982 0.37923 0.0
C10 C 0.12119 0.52183 0.34546 0.0
C11 C 0.15538 0.49439 0.35517 0.0
N12 N 0.14549 0.48446 0.3406 0.0
C13 C 0.11118 0.51131 0.33064 0.0
C14 C 0.14332 0.51329 0.35788 0.0
C15 C 0.12381 0.49245 0.3284 0.0
C16 C 0.06653 0.55383 0.30574 0.0
N17 N 0.05867 0.56385 0.32055 0.0
C18 C -1e-05 0.56946 0.31042 0.0
C19 C 0.02648 0.57215 0.32286 0.0
C20 C 0.00712 0.55864 0.29529 0.0
C21 C 0.04105 0.55108 0.29283 0.0
H22 H 0.09265 0.54785 0.30405 0.0
H23 H 0.02114 0.5808 0.33431 0.0
C24 C 0.10732 0.56138 0.40372 0.0
N25 N 0.10316 0.54983 0.38945 0.0
C26 C 0.0948 0.55535 0.42004 0.0
C27 C 0.07446 0.52562 0.40663 0.0
C28 C 0.08706 0.53228 0.39059 0.0
C29 C 0.0781 0.53724 0.4216 0.0
H30 H 0.11988 0.57539 0.40233 0.0
H31 H 0.08324 0.52361 0.37897 0.0
C32 C 0.13143 0.58928 0.31443 0.0
N33 N 0.1138 0.61713 0.28997 0.0
C34 C 0.1483 0.58965 0.29818 0.0
C35 C 0.10549 0.60306 0.31823 0.0
C36 C 0.13905 0.60385 0.28599 0.0
C37 C 0.09698 0.61702 0.30569 0.0
C38 C 0.20107 0.57363 0.36555 0.0
C39 C 0.2192 0.57863 0.35027 0.0
C40 C 0.21804 0.57505 0.38172 0.0
C41 C 0.2541 0.58495 0.35144 0.0
C42 C 0.25297 0.58143 0.38234 0.0
N43 N 0.27012 0.5862 0.36732 0.0
C44 C 0.14566 0.6234 0.36632 0.0
C45 C 0.17812 0.61972 0.34003 0.0
C46 C 0.1582 0.64234 0.36831 0.0
N47 N 0.15581 0.61256 0.35236 0.0
C48 C 0.19116 0.63855 0.34145 0.0
C49 C 0.18141 0.65012 0.35579 0.0
H50 H 0.12812 0.61724 0.376 0.0
H51 H 0.18605 0.61079 0.32911 0.0
C52 C 0.1864 0.534 0.31521 0.0
N53 N 0.19052 0.53851 0.33239 0.0
C54 C 0.21118 0.52244 0.30671 0.0
C55 C 0.24417 0.52049 0.33374 0.0
C56 C 0.21835 0.5318 0.34182 0.0
C57 C 0.24069 0.51577 0.31597 0.0
H58 H 0.16383 0.53947 0.30811 0.0
H59 H 0.22063 0.5353 0.35556 0.0
O60 O 0.09067 0.58211 0.35861 0.0
O61 O 0.1099 0.54051 0.34768 0.0
O62 O 0.14019 0.57531 0.32637 0.0
O63 O 0.16673 0.5676 0.36484 0.0
H64 H 0.04892 0.5512 0.36069 0.0
H65 H 0.05711 0.61226 0.37174 0.0
H66 H 0.98916 0.55122 0.37376 0.0
H67 H 0.99691 0.61125 0.38449 0.0
H68 H 0.17274 0.48766 0.36461 0.0
H69 H 0.09393 0.51764 0.32095 0.0
H70 H 0.15157 0.52131 0.36936 0.0
H71 H 0.11641 0.48416 0.31696 0.0
H72 H 0.97422 0.57577 0.31259 0.0
H73 H 0.04748 0.54264 0.2813 0.0
H74 H 0.09815 0.5647 0.4313 0.0
H75 H 0.06112 0.51174 0.40721 0.0
H76 H 0.16836 0.57904 0.29504 0.0
H77 H 0.09204 0.60302 0.33069 0.0
H78 H 0.15193 0.60431 0.27337 0.0
H79 H 0.07699 0.62777 0.30845 0.0
H80 H 0.20655 0.57764 0.33763 0.0
H81 H 0.2043 0.57129 0.39367 0.0
H82 H 0.26843 0.58885 0.33972 0.0
H83 H 0.26643 0.5826 0.39478 0.0
H84 H 0.15031 0.65066 0.37967 0.0
H85 H 0.20854 0.644 0.33135 0.0
H86 H 0.20787 0.51921 0.29293 0.0
H87 H 0.26658 0.51549 0.34127 0.0
Li88 Li 0.34581 0.93959 0.34206 0.0
Li89 Li 0.36376 0.90731 0.35045 0.0
Li90 Li 0.38716 0.93595 0.36649 0.0
Li91 Li 0.40571 0.92787 0.33641 0.0
C92 C 0.31379 0.93515 0.37578 0.0
N93 N 0.26639 0.95252 0.39831 0.0
C94 C 0.28447 0.92484 0.38179 0.0
C95 C 0.31911 0.95424 0.38131 0.0
C96 C 0.26076 0.9339 0.39314 0.0
C97 C 0.29484 0.96278 0.39269 0.0
C98 C 0.34471 0.90382 0.31771 0.0
C99 C 0.34579 0.87233 0.304 0.0
N100 N 0.3106 0.87373 0.30088 0.0
C101 C 0.30858 0.90499 0.31431 0.0
C102 C 0.36353 0.88741 0.31244 0.0
C103 C 0.29181 0.88961 0.3058 0.0
C104 C 0.31495 0.95844 0.31427 0.0
N105 N 0.30931 0.95465 0.33149 0.0
C106 C 0.25335 0.97055 0.33028 0.0
C107 C 0.27919 0.96046 0.3396 0.0
C108 C 0.25852 0.97462 0.31243 0.0
C109 C 0.29007 0.9686 0.30452 0.0
H110 H 0.33864 0.95322 0.308 0.0
H111 H 0.27459 0.95694 0.35314 0.0
C112 C 0.36961 0.86676 0.35646 0.0
N113 N 0.34695 0.88157 0.35322 0.0
C114 C 0.357 0.84782 0.35808 0.0
C115 C 0.298 0.8598 0.35307 0.0
C116 C 0.31171 0.8785 0.35174 0.0
C117 C 0.32072 0.8441 0.35628 0.0
H118 H 0.39747 0.86967 0.3578 0.0
H119 H 0.29431 0.89061 0.34928 0.0
C120 C 0.3891 0.97113 0.3385 0.0
N121 N 0.38354 0.00705 0.32267 0.0
C122 C 0.39717 0.97331 0.32075 0.0
C123 C 0.3786 0.9873 0.34823 0.0
C124 C 0.39408 0.99156 0.31298 0.0
C125 C 0.37584 0.00531 0.33998 0.0
C126 C 0.4474 0.90754 0.35679 0.0
C127 C 0.47256 0.91694 0.36712 0.0
C128 C 0.45809 0.89348 0.34474 0.0
C129 C 0.50813 0.91225 0.36505 0.0
C130 C 0.49392 0.88923 0.34304 0.0
N131 N 0.51799 0.89863 0.35314 0.0
C132 C 0.39451 0.93651 0.40329 0.0
C133 C 0.4223 0.96237 0.38817 0.0
C134 C 0.40668 0.94362 0.4193 0.0
N135 N 0.40256 0.94594 0.3882 0.0
C136 C 0.43491 0.97002 0.40386 0.0
C137 C 0.42724 0.96058 0.4197 0.0
H138 H 0.37875 0.92344 0.40285 0.0
H139 H 0.42862 0.96939 0.37591 0.0
C140 C 0.43978 0.9235 0.30377 0.0
N141 N 0.4439 0.92992 0.32046 0.0
C142 C 0.46578 0.92714 0.29127 0.0
C143 C 0.5002 0.94336 0.31353 0.0
C144 C 0.47335 0.93963 0.32554 0.0
C145 C 0.49624 0.9374 0.29607 0.0
H146 H 0.41574 0.91622 0.3 0.0
H147 H 0.4754 0.94505 0.33878 0.0
O148 O 0.33743 0.92638 0.36485 0.0
O149 O 0.36148 0.91856 0.32633 0.0
O150 O 0.3918 0.95334 0.34635 0.0
O151 O 0.4125 0.91212 0.35845 0.0
H152 H 0.2801 0.91 0.37772 0.0
H153 H 0.3416 0.96239 0.3768 0.0
H154 H 0.23791 0.9261 0.39786 0.0
H155 H 0.29861 0.97756 0.39703 0.0
H156 H 0.35998 0.85949 0.29996 0.0
H157 H 0.29352 0.9175 0.3184 0.0
H158 H 0.39147 0.88625 0.31502 0.0
H159 H 0.26383 0.89027 0.30317 0.0
H160 H 0.22916 0.97458 0.33685 0.0
H161 H 0.29547 0.97158 0.29086 0.0
H162 H 0.37546 0.83626 0.36088 0.0
H163 H 0.26996 0.85767 0.35131 0.0
H164 H 0.40517 0.96102 0.31295 0.0
H165 H 0.37277 0.98604 0.36202 0.0
H166 H 0.39997 0.9934 0.29923 0.0
H167 H 0.36765 0.01792 0.34735 0.0
H168 H 0.46475 0.92782 0.37654 0.0
H169 H 0.43897 0.88609 0.33664 0.0
H170 H 0.52791 0.91947 0.37289 0.0
H171 H 0.50259 0.87848 0.33368 0.0
H172 H 0.39992 0.93601 0.43124 0.0
H173 H 0.45111 0.98295 0.40355 0.0
H174 H 0.46182 0.92231 0.27792 0.0
H175 H 0.52304 0.9516 0.31766 0.0
Li176 Li 0.65767 0.44001 0.15597 0.0
Li177 Li 0.63817 0.40864 0.14804 0.0
Li178 Li 0.62062 0.43672 0.13084 0.0
Li179 Li 0.59741 0.4316 0.16071 0.0
C180 C 0.70229 0.41897 0.13367 0.0
N181 N 0.7697 0.40384 0.13314 0.0
C182 C 0.71868 0.41341 0.14927 0.0
C183 C 0.72017 0.41681 0.11781 0.0
C184 C 0.75276 0.40581 0.14872 0.0
C185 C 0.75425 0.40914 0.11781 0.0
C186 C 0.62816 0.40672 0.18396 0.0
C187 C 0.58971 0.38057 0.19265 0.0
N188 N 0.60572 0.38008 0.20857 0.0
C189 C 0.64416 0.40598 0.20041 0.0
C190 C 0.60064 0.39394 0.18004 0.0
C191 C 0.63247 0.3924 0.21267 0.0
C192 C 0.68791 0.45992 0.18346 0.0
N193 N 0.69423 0.45476 0.16661 0.0
C194 C 0.7498 0.47105 0.16706 0.0
C195 C 0.72422 0.46025 0.15822 0.0
C196 C 0.74411 0.47653 0.18458 0.0
C197 C 0.71236 0.47099 0.19267 0.0
H198 H 0.66357 0.45555 0.18968 0.0
H199 H 0.72835 0.45621 0.14471 0.0
C200 C 0.64067 0.37176 0.1322 0.0
N201 N 0.65111 0.3821 0.14643 0.0
C202 C 0.65102 0.35244 0.13027 0.0
C203 C 0.68238 0.35482 0.15773 0.0
C204 C 0.6716 0.37406 0.15908 0.0
C205 C 0.67219 0.34376 0.14316 0.0
H206 H 0.62457 0.37861 0.12229 0.0
H207 H 0.68008 0.38266 0.17012 0.0
C208 C 0.62881 0.47394 0.15142 0.0
N209 N 0.65836 0.51034 0.15498 0.0
C210 C 0.61938 0.48576 0.16552 0.0
C211 C 0.65305 0.48069 0.13906 0.0
C212 C 0.63468 0.50411 0.16711 0.0
C213 C 0.66774 0.49912 0.14111 0.0
C214 C 0.55719 0.41654 0.13259 0.0
C215 C 0.54057 0.43462 0.13187 0.0
C216 C 0.54012 0.40021 0.12587 0.0
C217 C 0.50702 0.43602 0.12447 0.0
C218 C 0.50655 0.40221 0.11859 0.0
N219 N 0.49084 0.41993 0.11803 0.0
C220 C 0.61069 0.4332 0.09442 0.0
C221 C 0.5943 0.4636 0.10641 0.0
C222 C 0.59841 0.43881 0.07794 0.0
N223 N 0.6082 0.44556 0.10821 0.0
C224 C 0.58191 0.46983 0.0902 0.0
C225 C 0.58339 0.45728 0.07572 0.0
H226 H 0.62136 0.41882 0.09636 0.0
H227 H 0.59196 0.47299 0.11766 0.0
C228 C 0.56888 0.44574 0.19114 0.0
N229 N 0.55978 0.43522 0.17682 0.0
C230 C 0.54396 0.44996 0.20397 0.0
C231 C 0.50076 0.43197 0.18734 0.0
C232 C 0.52674 0.42787 0.17491 0.0
C233 C 0.50912 0.44338 0.20202 0.0
H234 H 0.59566 0.45085 0.19257 0.0
H235 H 0.52033 0.41892 0.16378 0.0
O236 O 0.66873 0.42622 0.13375 0.0
O237 O 0.63931 0.42011 0.17195 0.0
O238 O 0.61494 0.45571 0.14988 0.0
O239 O 0.59039 0.41479 0.13939 0.0
H240 H 0.7053 0.41496 0.16168 0.0
H241 H 0.70778 0.42097 0.10561 0.0
H242 H 0.76574 0.40145 0.1607 0.0
H243 H 0.76839 0.40738 0.10562 0.0
H244 H 0.56847 0.37059 0.18979 0.0
H245 H 0.66542 0.41583 0.20366 0.0
H246 H 0.58781 0.39428 0.16742 0.0
H247 H 0.64465 0.39165 0.22545 0.0
H248 H 0.77393 0.47479 0.1603 0.0
H249 H 0.70623 0.47525 0.20595 0.0
H250 H 0.64248 0.34436 0.11888 0.0
H251 H 0.69921 0.34879 0.1678 0.0
H252 H 0.60056 0.48081 0.17516 0.0
H253 H 0.66084 0.47164 0.12814 0.0
H254 H 0.62775 0.51338 0.17799 0.0
H255 H 0.68673 0.50447 0.13172 0.0
H256 H 0.55327 0.44742 0.13705 0.0
H257 H 0.55273 0.38614 0.12625 0.0
H258 H 0.49384 0.44991 0.12384 0.0
H259 H 0.49301 0.38969 0.11334 0.0
H260 H 0.59966 0.42857 0.06721 0.0
H261 H 0.571 0.48428 0.08907 0.0
H262 H 0.552 0.45829 0.2153 0.0
H263 H 0.4743 0.42658 0.18523 0.0
Li264 Li 0.84262 0.05801 0.1542 0.0
Li265 Li 0.86187 0.08913 0.14605 0.0
Li266 Li 0.8825 0.06099 0.12964 0.0
Li267 Li 0.90247 0.06762 0.16116 0.0
C268 C 0.80571 0.06497 0.12223 0.0
N269 N 0.74785 0.05267 0.10326 0.0
C270 C 0.77419 0.07545 0.12284 0.0
C271 C 0.80793 0.04841 0.11173 0.0
C272 C 0.7452 0.06893 0.11323 0.0
C273 C 0.77836 0.04238 0.1023 0.0
C274 C 0.83257 0.08812 0.17918 0.0
C275 C 0.81255 0.10589 0.20448 0.0
N276 N 0.77986 0.10712 0.19727 0.0
C277 C 0.7988 0.08955 0.17204 0.0
C278 C 0.83956 0.09634 0.19553 0.0
C279 C 0.77249 0.09921 0.18138 0.0
C280 C 0.80814 0.04116 0.18234 0.0
N281 N 0.80542 0.04303 0.16468 0.0
C282 C 0.75329 0.02351 0.16456 0.0
C283 C 0.77879 0.03434 0.1557 0.0
C284 C 0.75539 0.0215 0.18283 0.0
C285 C 0.78335 0.03047 0.19171 0.0
H286 H 0.82985 0.04793 0.18918 0.0
H287 H 0.77735 0.03554 0.14168 0.0
C288 C 0.83049 0.12087 0.12902 0.0
N289 N 0.84827 0.11546 0.14365 0.0
C290 C 0.81796 0.13979 0.12732 0.0
C291 C 0.84315 0.14732 0.15559 0.0
C292 C 0.85523 0.12826 0.15672 0.0
C293 C 0.82381 0.15322 0.14085 0.0
H294 H 0.82553 0.11037 0.1188 0.0
H295 H 0.86977 0.12359 0.16813 0.0
C296 C 0.87681 0.0251 0.15578 0.0
N297 N 0.85438 0.9895 0.16809 0.0
C298 C 0.88447 0.01945 0.17293 0.0
C299 C 0.85808 0.01255 0.14484 0.0
C300 C 0.87283 0.00142 0.17892 0.0
C301 C 0.84687 0.99464 0.15132 0.0
C302 C 0.92442 0.10115 0.13733 0.0
C303 C 0.92119 0.11052 0.1212 0.0
C304 C 0.93959 0.11091 0.15148 0.0
C305 C 0.93305 0.12961 0.11951 0.0
C306 C 0.95119 0.12998 0.14925 0.0
N307 N 0.94767 0.13886 0.13346 0.0
C308 C 0.89464 0.06231 0.09318 0.0
C309 C 0.91299 0.03343 0.10731 0.0
C310 C 0.90712 0.05547 0.07713 0.0
N311 N 0.89807 0.05131 0.10783 0.0
C312 C 0.92541 0.02592 0.09153 0.0
C313 C 0.92293 0.03705 0.07615 0.0
H314 H 0.88243 0.07644 0.09401 0.0
H315 H 0.91533 0.02502 0.11919 0.0
C316 C 0.93266 0.06332 0.19445 0.0
N317 N 0.93997 0.06491 0.17711 0.0
C318 C 0.95959 0.05936 0.20635 0.0
C319 C 0.00115 0.05948 0.18234 0.0
C320 C 0.97337 0.06335 0.1709 0.0
C321 C 0.99433 0.05706 0.2003 0.0
H322 H 0.90569 0.06442 0.19893 0.0
H323 H 0.97824 0.06469 0.157 0.0
O324 O 0.83453 0.07137 0.13133 0.0
O325 O 0.85891 0.07894 0.17019 0.0
O326 O 0.88703 0.04296 0.14987 0.0
O327 O 0.91201 0.08268 0.13941 0.0
H328 H 0.77214 0.08854 0.13057 0.0
H329 H 0.83204 0.04018 0.11095 0.0
H330 H 0.72062 0.07686 0.11365 0.0
H331 H 0.77966 0.02952 0.09422 0.0
H332 H 0.8176 0.11235 0.21713 0.0
H333 H 0.79297 0.08324 0.15945 0.0
H334 H 0.86565 0.09542 0.20121 0.0
H335 H 0.74622 0.10042 0.176 0.0
H336 H 0.73244 0.01659 0.15717 0.0
H337 H 0.78582 0.02949 0.2058 0.0
H338 H 0.80291 0.14368 0.11581 0.0
H339 H 0.84872 0.15729 0.16619 0.0
H340 H 0.89889 0.02898 0.18159 0.0
H341 H 0.85194 0.01666 0.13154 0.0
H342 H 0.87835 0.99692 0.1922 0.0
H343 H 0.83212 0.98485 0.14303 0.0
H344 H 0.90928 0.10321 0.11016 0.0
H345 H 0.94199 0.10392 0.1641 0.0
H346 H 0.93054 0.13709 0.10714 0.0
H347 H 0.96283 0.13775 0.16011 0.0
H348 H 0.90495 0.06468 0.06571 0.0
H349 H 0.93669 0.01151 0.09141 0.0
H350 H 0.95303 0.05732 0.22002 0.0
H351 H 0.02757 0.05809 0.17714 0.0
Li352 Li 0.84186 0.44425 0.6577 0.0
Li353 Li 0.90161 0.43151 0.66172 0.0
Li354 Li 0.87918 0.44007 0.63268 0.0
Li355 Li 0.8574 0.41139 0.64808 0.0
C356 C 0.88264 0.47523 0.65968 0.0
N357 N 0.8705 0.51115 0.6745 0.0
C358 C 0.89876 0.48023 0.6755 0.0
C359 C 0.86057 0.48856 0.65133 0.0
C360 C 0.89225 0.49846 0.68279 0.0
C361 C 0.85468 0.50662 0.65907 0.0
C362 C 0.84276 0.40816 0.68229 0.0
C363 C 0.84532 0.37672 0.69603 0.0
N364 N 0.81171 0.37911 0.70183 0.0
C365 C 0.80832 0.41037 0.68847 0.0
C366 C 0.86153 0.39127 0.68619 0.0
C367 C 0.79307 0.39549 0.69831 0.0
C368 C 0.77566 0.46337 0.66056 0.0
N369 N 0.80667 0.45945 0.66869 0.0
C370 C 0.78869 0.47702 0.69405 0.0
C371 C 0.81344 0.46585 0.68515 0.0
C372 C 0.75613 0.48124 0.68613 0.0
C373 C 0.74981 0.47425 0.66911 0.0
H374 H 0.77082 0.45783 0.64754 0.0
H375 H 0.83818 0.46223 0.69136 0.0
C376 C 0.97115 0.44134 0.67154 0.0
N377 N 0.94099 0.43256 0.67697 0.0
C378 C 0.99884 0.44431 0.68326 0.0
C379 C 0.96379 0.42924 0.70593 0.0
C380 C 0.93695 0.42638 0.69373 0.0
C381 C 0.99502 0.43855 0.70078 0.0
H382 H 0.97316 0.44672 0.65829 0.0
H383 H 0.9124 0.41987 0.69781 0.0
C384 C 0.81707 0.43306 0.61895 0.0
N385 N 0.79477 0.43671 0.5847 0.0
C386 C 0.81431 0.41667 0.60828 0.0
C387 C 0.80822 0.45128 0.61226 0.0
C388 C 0.80302 0.41883 0.59098 0.0
C389 C 0.79711 0.45283 0.59489 0.0
C390 C 0.93989 0.41093 0.63966 0.0
C391 C 0.96451 0.42094 0.62949 0.0
C392 C 0.95094 0.39559 0.65027 0.0
C393 C -5e-05 0.41553 0.63022 0.0
C394 C 0.98662 0.39064 0.65066 0.0
N395 N 0.01018 0.40063 0.64072 0.0
C396 C 0.90249 0.46904 0.60938 0.0
C397 C 0.89466 0.43806 0.59654 0.0
C398 C 0.91471 0.47655 0.59356 0.0
N399 N 0.8928 0.45013 0.61056 0.0
C400 C 0.90655 0.44498 0.58041 0.0
C401 C 0.91708 0.46445 0.57881 0.0
H402 H 0.90156 0.4782 0.62083 0.0
H403 H 0.8874 0.42297 0.59796 0.0
C404 C 0.80737 0.38128 0.65089 0.0
N405 N 0.8405 0.38563 0.64544 0.0
C406 C 0.7948 0.36231 0.64978 0.0
C407 C 0.84981 0.35291 0.6363 0.0
C408 C 0.86161 0.37199 0.63807 0.0
C409 C 0.81609 0.34773 0.64241 0.0
H410 H 0.79083 0.39252 0.65633 0.0
H411 H 0.88759 0.37596 0.63349 0.0
O412 O 0.88822 0.45733 0.65246 0.0
O413 O 0.85803 0.42247 0.67249 0.0
O414 O 0.82861 0.4313 0.63581 0.0
O415 O 0.90514 0.41614 0.63928 0.0
H416 H 0.91584 0.4701 0.68217 0.0
H417 H 0.84776 0.48489 0.63913 0.0
H418 H 0.90441 0.50249 0.69507 0.0
H419 H 0.83745 0.51702 0.65282 0.0
H420 H 0.85944 0.36351 0.69904 0.0
H421 H 0.79341 0.42333 0.68556 0.0
H422 H 0.88821 0.38936 0.68152 0.0
H423 H 0.76638 0.39695 0.7031 0.0
H424 H 0.79513 0.48232 0.707 0.0
H425 H 0.72493 0.47679 0.66257 0.0
H426 H 0.02228 0.45184 0.67887 0.0
H427 H 0.95991 0.42457 0.71933 0.0
H428 H 0.82109 0.40247 0.61324 0.0
H429 H 0.81024 0.46411 0.62036 0.0
H430 H 0.80092 0.40629 0.58254 0.0
H431 H 0.7904 0.46686 0.58951 0.0
H432 H 0.95643 0.43288 0.62124 0.0
H433 H 0.93219 0.38767 0.65818 0.0
H434 H 0.01933 0.4232 0.62249 0.0
H435 H 0.99558 0.37887 0.65888 0.0
H436 H 0.92322 0.49153 0.59305 0.0
H437 H 0.90765 0.43516 0.56937 0.0
H438 H 0.76887 0.35914 0.65493 0.0
H439 H 0.86693 0.34242 0.63009 0.0
Li440 Li 0.59288 0.06992 0.66134 0.0
Li441 Li 0.65196 0.05609 0.65787 0.0
Li442 Li 0.63829 0.08901 0.64781 0.0
Li443 Li 0.61529 0.06055 0.63249 0.0
C444 C 0.6536 0.09257 0.68158 0.0
N445 N 0.68817 0.1215 0.69977 0.0
C446 C 0.68822 0.08974 0.68727 0.0
C447 C 0.63645 0.11003 0.68527 0.0
C448 C 0.70526 0.10456 0.69643 0.0
C449 C 0.65442 0.1245 0.69443 0.0
C450 C 0.60912 0.0256 0.65928 0.0
C451 C 0.63451 0.99358 0.65803 0.0
N452 N 0.61792 0.98897 0.67326 0.0
C453 C 0.59218 0.02053 0.67487 0.0
C454 C 0.63031 0.012 0.65073 0.0
C455 C 0.597 0.00194 0.68174 0.0
C456 C 0.52347 0.06012 0.67112 0.0
N457 N 0.55311 0.06955 0.67635 0.0
C458 C 0.52914 0.07442 0.7049 0.0
C459 C 0.55628 0.07686 0.69278 0.0
C460 C 0.49855 0.06431 0.70002 0.0
C461 C 0.49556 0.05746 0.68277 0.0
H462 H 0.52212 0.05397 0.65812 0.0
H463 H 0.58041 0.08394 0.6967 0.0
C464 C 0.71833 0.03757 0.66175 0.0
N465 N 0.68623 0.04053 0.66914 0.0
C466 C 0.74412 0.02709 0.67073 0.0
C467 C 0.70285 0.0225 0.69447 0.0
C468 C 0.67822 0.03339 0.68521 0.0
C469 C 0.73663 0.01945 0.68741 0.0
H470 H 0.72419 0.04376 0.64907 0.0
H471 H 0.65274 0.03637 0.69093 0.0
C472 C 0.55576 0.09029 0.63912 0.0
N473 N 0.48547 0.10057 0.64039 0.0
C474 C 0.53109 0.0804 0.62888 0.0
C475 C 0.54475 0.10549 0.64991 0.0
C476 C 0.49565 0.08581 0.62973 0.0
C477 C 0.50908 0.11044 0.65041 0.0
C478 C 0.67917 0.06629 0.61935 0.0
C479 C 0.68385 0.08246 0.60859 0.0
C480 C 0.6878 0.04784 0.61312 0.0
C481 C 0.69678 0.07987 0.59163 0.0
C482 C 0.70059 0.04585 0.59607 0.0
N483 N 0.70476 0.06177 0.58577 0.0
C484 C 0.6912 0.11763 0.64931 0.0
C485 C 0.63602 0.12882 0.63894 0.0
C486 C 0.7053 0.13627 0.64821 0.0
N487 N 0.65697 0.11437 0.64503 0.0
C488 C 0.6492 0.14764 0.63732 0.0
C489 C 0.68422 0.15167 0.6422 0.0
H490 H 0.7074 0.10576 0.65385 0.0
H491 H 0.60906 0.12573 0.63532 0.0
C492 C 0.58825 0.032 0.60987 0.0
N493 N 0.6017 0.05024 0.61045 0.0
C494 C 0.57608 0.0243 0.59412 0.0
C495 C 0.59199 0.05429 0.57977 0.0
C496 C 0.60352 0.06148 0.59587 0.0
C497 C 0.57776 0.03549 0.57876 0.0
H498 H 0.58617 0.02357 0.62173 0.0
H499 H 0.6135 0.07613 0.59679 0.0
O500 O 0.63664 0.07834 0.67237 0.0
O501 O 0.60507 0.04379 0.65245 0.0
O502 O 0.59048 0.08503 0.63869 0.0
O503 O 0.66618 0.06849 0.63592 0.0
H504 H 0.70192 0.07634 0.68451 0.0
H505 H 0.60969 0.11245 0.68092 0.0
H506 H 0.73211 0.10262 0.70084 0.0
H507 H 0.64157 0.13814 0.69726 0.0
H508 H 0.651 0.98295 0.65161 0.0
H509 H 0.57578 0.03087 0.68171 0.0
H510 H 0.6436 0.0157 0.63866 0.0
H511 H 0.5842 0.99784 0.69383 0.0
H512 H 0.53237 0.07998 0.71806 0.0
H513 H 0.47267 0.04931 0.67858 0.0
H514 H 0.76992 0.02552 0.66485 0.0
H515 H 0.69545 0.01667 0.7071 0.0
H516 H 0.53913 0.06857 0.62049 0.0
H517 H 0.56353 0.11326 0.65793 0.0
H518 H 0.47623 0.07823 0.62194 0.0
H519 H 0.50015 0.12209 0.65877 0.0
H520 H 0.6773 0.09684 0.61321 0.0
H521 H 0.68445 0.03519 0.62132 0.0
H522 H 0.70038 0.09224 0.58311 0.0
H523 H 0.70718 0.03165 0.59103 0.0
H524 H 0.73225 0.13859 0.65235 0.0
H525 H 0.63212 0.15886 0.6322 0.0
H526 H 0.56458 0.00993 0.5941 0.0
H527 H 0.59411 0.06341 0.56829 0.0
Li528 Li 0.38403 0.55854 0.86623 0.0
Li529 Li 0.35736 0.5874 0.85257 0.0
Li530 Li 0.34077 0.55421 0.84401 0.0
Li531 Li 0.39886 0.56736 0.83596 0.0
C532 C 0.30014 0.56229 0.87047 0.0
N533 N 0.23049 0.55212 0.87566 0.0
C534 C 0.2736 0.57621 0.86882 0.0
C535 C 0.29129 0.54324 0.87491 0.0
C536 C 0.23853 0.57078 0.87147 0.0
C537 C 0.25591 0.53837 0.87742 0.0
C538 C 0.42454 0.59858 0.86287 0.0
C539 C 0.44862 0.63024 0.85682 0.0
N540 N 0.4566 0.63235 0.87406 0.0
C541 C 0.43313 0.601 0.88053 0.0
C542 C 0.4325 0.61325 0.85089 0.0
C543 C 0.4493 0.6182 0.88593 0.0
C544 C 0.43932 0.54768 0.88858 0.0
N545 N 0.40366 0.54842 0.88714 0.0
C546 C 0.39671 0.53318 0.91496 0.0
C547 C 0.38227 0.54154 0.89997 0.0
C548 C 0.43351 0.53196 0.91675 0.0
C549 C 0.4549 0.53943 0.90334 0.0
H550 H 0.45563 0.55337 0.87816 0.0
H551 H 0.35401 0.54235 0.89846 0.0
C552 C 0.31615 0.61935 0.84344 0.0
N553 N 0.34003 0.6131 0.85545 0.0
C554 C 0.30213 0.638 0.84457 0.0
C555 C 0.33768 0.64355 0.87035 0.0
C556 C 0.35036 0.62461 0.86897 0.0
C557 C 0.31326 0.65036 0.85804 0.0
H558 H 0.30782 0.60977 0.83303 0.0
H559 H 0.36833 0.61912 0.87871 0.0
C560 C 0.40654 0.52649 0.85174 0.0
N561 N 0.44721 0.49734 0.86612 0.0
C562 C 0.44262 0.52557 0.84814 0.0
C563 C 0.39109 0.51249 0.86253 0.0
C564 C 0.46273 0.51072 0.85555 0.0
C565 C 0.41213 0.49791 0.86972 0.0
C566 C 0.35287 0.58236 0.81194 0.0
C567 C 0.33963 0.57023 0.79884 0.0
C568 C 0.3678 0.60019 0.80744 0.0
C569 C 0.34203 0.57606 0.78137 0.0
C570 C 0.36971 0.6055 0.78982 0.0
N571 N 0.35693 0.59342 0.77726 0.0
C572 C 0.27353 0.54785 0.82957 0.0
C573 C 0.30868 0.51961 0.83244 0.0
C574 C 0.24713 0.53726 0.82118 0.0
N575 N 0.30358 0.53892 0.83489 0.0
C576 C 0.28304 0.50848 0.82405 0.0
C577 C 0.252 0.51736 0.81808 0.0
H578 H 0.27059 0.56332 0.83136 0.0
H579 H 0.33308 0.51296 0.83655 0.0
C580 C 0.46659 0.57496 0.82192 0.0
N581 N 0.43452 0.56698 0.81859 0.0
C582 C 0.49392 0.57303 0.8098 0.0
C583 C 0.45443 0.5551 0.79095 0.0
C584 C 0.42807 0.5571 0.80354 0.0
C585 C 0.48796 0.5629 0.79414 0.0
H586 H 0.47131 0.58224 0.83421 0.0
H587 H 0.40281 0.55022 0.80156 0.0
O588 O 0.33457 0.56726 0.86763 0.0
O589 O 0.40867 0.58186 0.85736 0.0
O590 O 0.38657 0.5412 0.84498 0.0
O591 O 0.35092 0.57685 0.8291 0.0
H592 H 0.27997 0.59103 0.86546 0.0
H593 H 0.31147 0.53225 0.87612 0.0
H594 H 0.21771 0.58138 0.87017 0.0
H595 H 0.24866 0.52364 0.88072 0.0
H596 H 0.45482 0.64175 0.8477 0.0
H597 H 0.42708 0.58981 0.88998 0.0
H598 H 0.42629 0.61153 0.83717 0.0
H599 H 0.45595 0.62032 0.89956 0.0
H600 H 0.37925 0.52741 0.9249 0.0
H601 H 0.48336 0.53905 0.90429 0.0
H602 H 0.28324 0.64284 0.83488 0.0
H603 H 0.34642 0.6527 0.88103 0.0
H604 H 0.45504 0.53629 0.83987 0.0
H605 H 0.36326 0.51307 0.86555 0.0
H606 H 0.49071 0.50989 0.85295 0.0
H607 H 0.40058 0.48709 0.87822 0.0
H608 H 0.32797 0.55637 0.80211 0.0
H609 H 0.37773 0.60984 0.81744 0.0
H610 H 0.3321 0.56677 0.77109 0.0
H611 H 0.38131 0.61924 0.78614 0.0
H612 H 0.22385 0.54473 0.81653 0.0
H613 H 0.28771 0.49315 0.82201 0.0
H614 H 0.51956 0.57912 0.81274 0.0
H615 H 0.4491 0.5468 0.77921 0.0
Li616 Li 0.11664 0.937 0.86456 0.0
Li617 Li 0.14225 0.90933 0.8492 0.0
Li618 Li 0.15945 0.94269 0.84215 0.0
Li619 Li 0.10129 0.93012 0.83407 0.0
C620 C 0.20068 0.93237 0.86797 0.0
N621 N 0.27098 0.94077 0.87353 0.0
C622 C 0.22632 0.91816 0.86518 0.0
C623 C 0.21075 0.95081 0.8737 0.0
C624 C 0.26173 0.9227 0.86805 0.0
C625 C 0.24644 0.95478 0.87639 0.0
C626 C 0.0798 0.8968 0.86071 0.0
C627 C 0.06171 0.86381 0.8553 0.0
N628 N 0.05781 0.86104 0.87282 0.0
C629 C 0.07544 0.89367 0.87865 0.0
C630 C 0.07268 0.88181 0.84892 0.0
C631 C 0.06433 0.87548 0.88452 0.0
C632 C 0.0623 0.94692 0.88776 0.0
N633 N 0.0979 0.94594 0.8861 0.0
C634 C 0.10579 0.95906 0.91474 0.0
C635 C 0.11973 0.95166 0.89921 0.0
C636 C 0.06908 0.96057 0.91673 0.0
C637 C 0.04723 0.9543 0.90302 0.0
H638 H 0.04564 0.94212 0.87712 0.0
H639 H 0.14793 0.95065 0.89754 0.0
C640 C 0.17315 0.87467 0.83722 0.0
N641 N 0.15881 0.88346 0.85146 0.0
C642 C 0.18584 0.85574 0.83841 0.0
C643 C 0.1687 0.85521 0.86889 0.0
C644 C 0.15696 0.8743 0.86719 0.0
C645 C 0.1834 0.84576 0.85436 0.0
H646 H 0.17495 0.88242 0.82496 0.0
H647 H 0.14644 0.88185 0.87843 0.0
C648 C 0.09473 0.97011 0.85192 0.0
N649 N 0.05574 0.9988 0.86809 0.0
C650 C 0.05855 0.97158 0.84879 0.0
C651 C 0.11114 0.9833 0.86317 0.0
C652 C 0.03929 0.98619 0.8571 0.0
C653 C 0.09095 0.99767 0.87127 0.0
C654 C 0.14382 0.91882 0.80845 0.0
C655 C 0.15723 0.93263 0.79682 0.0
C656 C 0.12501 0.90293 0.80198 0.0
C657 C 0.15127 0.93039 0.77889 0.0
C658 C 0.11955 0.90124 0.78397 0.0
N659 N 0.13267 0.91489 0.7729 0.0
C660 C 0.2272 0.95062 0.82857 0.0
C661 C 0.18977 0.97796 0.83141 0.0
C662 C 0.25299 0.96192 0.82047 0.0
N663 N 0.19631 0.95877 0.83375 0.0
C664 C 0.21468 0.98977 0.82324 0.0
C665 C 0.24655 0.98169 0.81742 0.0
H666 H 0.23125 0.9352 0.83017 0.0
H667 H 0.16469 0.98397 0.83531 0.0
C668 C 0.03442 0.92202 0.8191 0.0
N669 N 0.06502 0.93203 0.81713 0.0
C670 C 0.00662 0.92492 0.80741 0.0
C671 C 0.04284 0.94792 0.79166 0.0
C672 C 0.06963 0.94486 0.80382 0.0
C673 C 0.0107 0.93809 0.79354 0.0
H674 H 0.03122 0.91224 0.83003 0.0
H675 H 0.0938 0.9531 0.80294 0.0
O676 O 0.16591 0.92828 0.86504 0.0
O677 O 0.09099 0.91444 0.85473 0.0
O678 O 0.11389 0.95561 0.84428 0.0
O679 O 0.14899 0.92087 0.82607 0.0
H680 H 0.21902 0.90382 0.86074 0.0
H681 H 0.19126 0.96201 0.8758 0.0
H682 H 0.28188 0.91187 0.86588 0.0
H683 H 0.25463 0.96903 0.88071 0.0
H684 H 0.05632 0.85204 0.84633 0.0
H685 H 0.08092 0.9051 0.88797 0.0
H686 H 0.07584 0.88402 0.83499 0.0
H687 H 0.06102 0.87281 0.89837 0.0
H688 H 0.12357 0.96389 0.92494 0.0
H689 H 0.01881 0.95495 0.90411 0.0
H690 H 0.19706 0.84887 0.82694 0.0
H691 H 0.16688 0.84803 0.88146 0.0
H692 H 0.04538 0.96145 0.84019 0.0
H693 H 0.13908 0.98227 0.86584 0.0
H694 H 0.01124 0.98744 0.85487 0.0
H695 H 0.10324 0.00787 0.88012 0.0
H696 H 0.17177 0.94505 0.80157 0.0
H697 H 0.11453 0.8921 0.8108 0.0
H698 H 0.16133 0.94102 0.76975 0.0
H699 H 0.10487 0.88907 0.7788 0.0
H700 H 0.27698 0.95509 0.81591 0.0
H701 H 0.20879 0.00496 0.82117 0.0
H702 H 0.98207 0.91718 0.80929 0.0
H703 H 0.04665 0.95849 0.78134 0.0
H704 H 0.31061 0.52404 0.31522 0.0
H705 H 0.3559 0.50858 0.29708 0.0
H706 H 0.27907 0.46772 0.27786 0.0
H707 H 0.23336 0.48344 0.29571 0.0
H708 H 0.3561 0.45363 0.28852 0.0
H709 H 0.2874 0.49739 0.25179 0.0
H710 H 0.2592 0.52887 0.24565 0.0
H711 H 0.35937 0.55745 0.25003 0.0
H712 H 0.38806 0.52615 0.25651 0.0
H713 H 0.45343 0.4215 0.21403 0.0
H714 H 0.4072 0.43141 0.2344 0.0
H715 H 0.45732 0.4872 0.24041 0.0
H716 H 0.50213 0.47793 0.21926 0.0
H717 H 0.39098 0.49237 0.23658 0.0
H718 H 0.46126 0.45045 0.27236 0.0
H719 H 0.49194 0.42026 0.28049 0.0
H720 H 0.39361 0.38943 0.28002 0.0
H721 H 0.36238 0.4194 0.27165 0.0
C722 C 0.30358 0.51153 0.30737 0.0
C723 C 0.26861 0.50491 0.30676 0.0
C724 C 0.32938 0.50276 0.29705 0.0
C725 C 0.32066 0.48707 0.28621 0.0
C726 C 0.28618 0.47978 0.28624 0.0
C727 C 0.26018 0.48879 0.29632 0.0
C728 C 0.34684 0.4796 0.27365 0.0
C729 C 0.3635 0.46187 0.277 0.0
C730 C 0.35688 0.4907 0.25896 0.0
C731 C 0.33978 0.50948 0.25483 0.0
C732 C 0.30334 0.51042 0.25161 0.0
C733 C 0.28729 0.52822 0.24804 0.0
C734 C 0.30747 0.54516 0.2475 0.0
C735 C 0.34377 0.54432 0.25048 0.0
C736 C 0.35994 0.52655 0.2541 0.0
C737 C 0.45445 0.43595 0.21956 0.0
C738 C 0.48164 0.44889 0.21499 0.0
C739 C 0.42823 0.4415 0.2314 0.0
C740 C 0.429 0.45997 0.23913 0.0
C741 C 0.4562 0.47284 0.23467 0.0
C742 C 0.4821 0.46742 0.2227 0.0
C743 C 0.40091 0.46628 0.25138 0.0
C744 C 0.38371 0.48391 0.248 0.0
C745 C 0.39084 0.45516 0.26617 0.0
C746 C 0.40954 0.43712 0.27119 0.0
C747 C 0.44622 0.43719 0.27385 0.0
C748 C 0.4637 0.42013 0.27852 0.0
C749 C 0.44475 0.40292 0.28072 0.0
C750 C 0.40826 0.40276 0.27828 0.0
C751 C 0.39065 0.41978 0.27358 0.0
H752 H 0.45834 0.38973 0.28435 0.0
H753 H 0.29499 0.55893 0.24473 0.0
H754 H 0.0465 0.03067 0.19411 0.0
H755 H 0.09076 0.01876 0.21455 0.0
H756 H 0.05 0.05661 0.25467 0.0
H757 H 0.00622 0.0692 0.23402 0.0
H758 H 0.12237 0.05546 0.25469 0.0
H759 H 0.02716 0.00983 0.25483 0.0
H760 H 0.98337 0.98788 0.24156 0.0
H761 H 0.06653 0.95359 0.21934 0.0
H762 H 0.11084 0.97551 0.23228 0.0
H763 H 0.21492 0.00455 0.32223 0.0
H764 H 0.16869 0.01997 0.30478 0.0
H765 H 0.19404 0.98262 0.26127 0.0
H766 H 0.23879 0.96652 0.27883 0.0
H767 H 0.12567 0.9845 0.2653 0.0
H768 H 0.22073 0.03113 0.26344 0.0
H769 H 0.26486 0.05327 0.2762 0.0
H770 H 0.18257 0.08564 0.30137 0.0
H771 H 0.13797 0.06353 0.28894 0.0
C772 C 0.04731 0.03678 0.20716 0.0
C773 C 0.02272 0.05086 0.21244 0.0
C774 C 0.07242 0.02979 0.21889 0.0
C775 C 0.07325 0.03657 0.2362 0.0
C776 C 0.04962 0.05111 0.24139 0.0
C777 C 0.02447 0.05816 0.22963 0.0
C778 C 0.09815 0.02795 0.24893 0.0
C779 C 0.12281 0.03999 0.25724 0.0
C780 C 0.0989 0.00774 0.25207 0.0
C781 C 0.07231 0.9944 0.24442 0.0
C782 C 0.03611 0.99768 0.24702 0.0
C783 C 0.01119 0.98523 0.23957 0.0
C784 C 0.02216 0.96937 0.22958 0.0
C785 C 0.05807 0.96589 0.22707 0.0
C786 C 0.0831 0.97831 0.23448 0.0
C787 C 0.21042 -0.00049 0.309 0.0
C788 C 0.23076 0.98436 0.30191 0.0
C789 C 0.18425 0.00848 0.29898 0.0
C790 C 0.17821 0.00262 0.28163 0.0
C791 C 0.19831 0.98744 0.27459 0.0
C792 C 0.22421 0.97839 0.28461 0.0
C793 C 0.1506 0.01193 0.27076 0.0
C794 C 0.1252 0.0 0.26286 0.0
C795 C 0.14928 0.03222 0.268 0.0
C796 C 0.17607 0.04555 0.27542 0.0
C797 C 0.21208 0.04288 0.2718 0.0
C798 C 0.23716 0.05544 0.27896 0.0
C799 C 0.22653 0.07082 0.28963 0.0
C800 C 0.19077 0.0737 0.29313 0.0
C801 C 0.16558 0.06117 0.28602 0.0
H802 H 0.24599 0.08053 0.29515 0.0
H803 H 0.00283 0.95976 0.22382 0.0
H804 H 0.78904 0.50492 0.17244 0.0
H805 H 0.83391 0.52264 0.18902 0.0
H806 H 0.80422 0.49187 0.23584 0.0
H807 H 0.76085 0.47334 0.21936 0.0
H808 H 0.81061 0.53471 0.2386 0.0
H809 H 0.87225 0.47692 0.21774 0.0
H810 H 0.89328 0.45496 0.19451 0.0
H811 H 0.94964 0.50198 0.17051 0.0
H812 H 0.92848 0.52428 0.19349 0.0
H813 H 0.94225 0.54392 0.30209 0.0
H814 H 0.89719 0.53429 0.28105 0.0
H815 H 0.96302 0.55443 0.23866 0.0
H816 H 0.00893 0.56329 0.25979 0.0
H817 H 0.93803 0.52163 0.23013 0.0
H818 H 0.88484 0.57879 0.25197 0.0
H819 H 0.86373 0.6023 0.27389 0.0
H820 H 0.79119 0.56004 0.29403 0.0
H821 H 0.8122 0.53616 0.2724 0.0
C822 C 0.79231 0.5017 0.1862 0.0
C823 C 0.77112 0.48767 0.19452 0.0
C824 C 0.81774 0.51198 0.19567 0.0
C825 C 0.82209 0.50858 0.21362 0.0
C826 C 0.80089 0.49481 0.22201 0.0
C827 C 0.77595 0.48431 0.21254 0.0
C828 C 0.84931 0.51896 0.22376 0.0
C829 C 0.83851 0.53187 0.23686 0.0
C830 C 0.8856 0.51574 0.22092 0.0
C831 C 0.89843 0.50231 0.20719 0.0
C832 C 0.88884 0.48261 0.20741 0.0
C833 C 0.90084 0.4701 0.19431 0.0
C834 C 0.92269 0.47708 0.18101 0.0
C835 C 0.93266 0.49659 0.18081 0.0
C836 C 0.92068 0.50917 0.19386 0.0
C837 C 0.94684 0.54653 0.2883 0.0
C838 C 0.9789 0.5544 0.28253 0.0
C839 C 0.92101 0.54112 0.27626 0.0
C840 C 0.92634 0.54395 0.25824 0.0
C841 C 0.95823 0.55213 0.25249 0.0
C842 C 0.98438 0.55721 0.26453 0.0
C843 C 0.8995 0.53719 0.24546 0.0
C844 C 0.91027 0.5249 0.23179 0.0
C845 C 0.86315 0.54131 0.24758 0.0
C846 C 0.85028 0.55564 0.26061 0.0
C847 C 0.86455 0.57446 0.26114 0.0
C848 C 0.85257 0.58786 0.27351 0.0
C849 C 0.82617 0.58266 0.28536 0.0
C850 C 0.81164 0.56405 0.28485 0.0
C851 C 0.82354 0.55058 0.27251 0.0
H852 H 0.81694 0.59305 0.29493 0.0
H853 H 0.93196 0.46737 0.17088 0.0
H854 H 0.68396 0.02157 0.17791 0.0
H855 H 0.63931 0.00482 0.19534 0.0
H856 H 0.72083 0.98016 0.22776 0.0
H857 H 0.7657 0.99634 0.21003 0.0
H858 H 0.67009 0.95388 0.22103 0.0
H859 H 0.67591 0.01957 0.24126 0.0
H860 H 0.67499 0.05519 0.23851 0.0
H861 H 0.5691 0.05278 0.21884 0.0
H862 H 0.56958 0.0171 0.22123 0.0
H863 H 0.568 0.93462 0.29805 0.0
H864 H 0.61131 0.9465 0.27676 0.0
H865 H 0.52703 0.96543 0.24299 0.0
H866 H 0.48367 0.95359 0.26418 0.0
H867 H 0.57792 0.99394 0.24955 0.0
H868 H 0.57221 0.92754 0.23113 0.0
H869 H 0.57428 0.89207 0.23499 0.0
H870 H 0.68135 0.89605 0.25279 0.0
H871 H 0.67976 0.93161 0.24927 0.0
C872 C 0.69242 0.01233 0.18856 0.0
C873 C 0.72836 0.01041 0.19268 0.0
C874 C 0.66686 0.0029 0.1986 0.0
C875 C 0.67674 0.99148 0.213 0.0
C876 C 0.71263 0.98898 0.21676 0.0
C877 C 0.7382 0.99838 0.20672 0.0
C878 C 0.64966 0.98276 0.22456 0.0
C879 C 0.65013 0.96265 0.2274 0.0
C880 C 0.62333 0.99419 0.23266 0.0
C881 C 0.62293 0.01565 0.23123 0.0
C882 C 0.65254 0.02662 0.2362 0.0
C883 C 0.65208 0.04683 0.23474 0.0
C884 C 0.62204 0.05624 0.22845 0.0
C885 C 0.59237 0.04547 0.22367 0.0
C886 C 0.59271 0.02525 0.22508 0.0
C887 C 0.55879 0.94118 0.28601 0.0
C888 C 0.52254 0.94315 0.28272 0.0
C889 C 0.58348 0.94786 0.27385 0.0
C890 C 0.57229 0.95675 0.25829 0.0
C891 C 0.53613 0.95855 0.2549 0.0
C892 C 0.51145 0.95167 0.26695 0.0
C893 C 0.59831 0.96508 0.24598 0.0
C894 C 0.59772 0.98515 0.24307 0.0
C895 C 0.62468 0.95364 0.23798 0.0
C896 C 0.62574 0.93226 0.2401 0.0
C897 C 0.59609 0.92088 0.23602 0.0
C898 C 0.5972 0.90075 0.23812 0.0
C899 C 0.6279 0.89182 0.24418 0.0
C900 C 0.65758 0.903 0.24812 0.0
C901 C 0.65659 0.92313 0.24606 0.0
H902 H 0.62871 0.87623 0.24579 0.0
H903 H 0.62173 0.07188 0.22734 0.0
H904 H 0.48825 0.56782 0.75867 0.0
H905 H 0.53485 0.55853 0.73811 0.0
H906 H 0.5991 0.5391 0.78131 0.0
H907 H 0.55316 0.54901 0.80184 0.0
H908 H 0.63933 0.55551 0.75833 0.0
H909 H 0.54684 0.50764 0.75592 0.0
H910 H 0.48598 0.49596 0.75172 0.0
H911 H 0.48665 0.51731 0.69893 0.0
H912 H 0.54739 0.52935 0.70291 0.0
H913 H 0.74111 0.48004 0.72121 0.0
H914 H 0.69699 0.49863 0.73714 0.0
H915 H 0.66328 0.52555 0.68909 0.0
H916 H 0.70868 0.5077 0.67299 0.0
H917 H 0.60777 0.50898 0.71132 0.0
H918 H 0.70579 0.55281 0.714 0.0
H919 H 0.76767 0.56193 0.71938 0.0
H920 H 0.75744 0.54515 0.77325 0.0
H921 H 0.69563 0.53564 0.76814 0.0
C922 C 0.51253 0.56176 0.76372 0.0
C923 C 0.51715 0.55906 0.7818 0.0
C924 C 0.53905 0.55639 0.752 0.0
C925 C 0.57024 0.54777 0.75813 0.0
C926 C 0.57532 0.54573 0.77624 0.0
C927 C 0.54908 0.55139 0.78797 0.0
C928 C 0.59695 0.53999 0.74579 0.0
C929 C 0.63239 0.54527 0.74811 0.0
C930 C 0.58791 0.52689 0.73221 0.0
C931 C 0.55147 0.5196 0.72978 0.0
C932 C 0.5339 0.50997 0.74346 0.0
C933 C 0.49945 0.50326 0.74111 0.0
C934 C 0.48242 0.50595 0.72509 0.0
C935 C 0.49985 0.51528 0.71135 0.0
C936 C 0.53429 0.52204 0.71364 0.0
C937 C 0.7249 0.49017 0.71399 0.0
C938 C 0.72878 0.49244 0.69578 0.0
C939 C 0.69951 0.50069 0.72314 0.0
C940 C 0.67716 0.51352 0.71428 0.0
C941 C 0.6804 0.51568 0.69611 0.0
C942 C 0.7062 0.50536 0.68695 0.0
C943 C 0.64994 0.52426 0.72412 0.0
C944 C 0.61449 0.51948 0.72135 0.0
C945 C 0.65903 0.53752 0.73748 0.0
C946 C 0.69613 0.54338 0.74064 0.0
C947 C 0.71681 0.55092 0.72696 0.0
C948 C 0.75186 0.55618 0.72997 0.0
C949 C 0.7665 0.55409 0.74664 0.0
C950 C 0.74608 0.54676 0.76034 0.0
C951 C 0.71101 0.54145 0.7574 0.0
H952 H 0.79365 0.55817 0.74894 0.0
H953 H 0.45575 0.50074 0.72329 0.0
H954 H 0.74652 0.01992 0.72298 0.0
H955 H 0.79162 0.00347 0.73985 0.0
H956 H 0.83662 0.98044 0.69235 0.0
H957 H 0.78955 0.99555 0.67536 0.0
H958 H 0.83994 0.95408 0.71629 0.0
H959 H 0.8725 0.02069 0.71422 0.0
H960 H 0.86485 0.05605 0.71703 0.0
H961 H 0.84496 0.04972 0.77205 0.0
H962 H 0.852 0.01427 0.76953 0.0
H963 H 0.01039 0.93927 0.75782 0.0
H964 H 0.96235 0.95045 0.73879 0.0
H965 H 0.89654 0.95951 0.78406 0.0
H966 H 0.94418 0.94809 0.8031 0.0
H967 H 0.90633 0.99259 0.76014 0.0
H968 H 0.87503 0.92452 0.76052 0.0
H969 H 0.88678 0.88969 0.75621 0.0
H970 H 0.91058 0.90001 0.70206 0.0
H971 H 0.89947 0.93497 0.70612 0.0
C972 C 0.76541 0.01103 0.71605 0.0
C973 C 0.76421 0.00915 0.69771 0.0
C974 C 0.79167 0.00187 0.72575 0.0
C975 C 0.81808 0.99109 0.71736 0.0
C976 C 0.81669 0.98882 0.69911 0.0
C977 C 0.78996 0.99769 0.68939 0.0
C978 C 0.84724 0.98242 0.72769 0.0
C979 C 0.85477 0.96259 0.72569 0.0
C980 C 0.86658 0.99346 0.74005 0.0
C981 C 0.86248 0.0148 0.74165 0.0
C982 C 0.86625 0.02682 0.72689 0.0
C983 C 0.86206 0.04689 0.72844 0.0
C984 C 0.85434 0.05512 0.7447 0.0
C985 C 0.8509 0.04332 0.75946 0.0
C986 C 0.85503 0.02324 0.75798 0.0
C987 C 0.98546 0.9434 0.76364 0.0
C988 C 0.98085 0.94281 0.78188 0.0
C989 C 0.95812 0.94971 0.75279 0.0
C990 C 0.92604 0.95576 0.76008 0.0
C991 C 0.92115 0.95482 0.77825 0.0
C992 C 0.94823 0.94821 0.78907 0.0
C993 C 0.89841 0.96433 0.7489 0.0
C994 C 0.89142 0.98417 0.7507 0.0
C995 C 0.88023 0.95341 0.73613 0.0
C996 C 0.8868 0.93239 0.73367 0.0
C997 C 0.88311 0.91939 0.74774 0.0
C998 C 0.88957 0.89962 0.74533 0.0
C999 C 0.89952 0.89265 0.72888 0.0
C1000 C 0.90292 0.90543 0.7148 0.0
C1001 C 0.89652 0.92523 0.71714 0.0
H1002 H 0.9045 0.87733 0.72705 0.0
H1003 H 0.8511 0.07066 0.74586 0.0
H1004 H 0.26517 0.49147 0.79188 0.0
H1005 H 0.22238 0.47498 0.77317 0.0
H1006 H 0.13731 0.50209 0.80148 0.0
H1007 H 0.18003 0.51839 0.82052 0.0
H1008 H 0.12454 0.46303 0.79376 0.0
H1009 H 0.16265 0.52115 0.76406 0.0
H1010 H 0.20682 0.54361 0.75182 0.0
H1011 H 0.24399 0.4989 0.71734 0.0
H1012 H 0.20035 0.47607 0.72958 0.0
H1013 H 0.98522 0.45497 0.7328 0.0
H1014 H 0.03017 0.46523 0.75367 0.0
H1015 H 0.11144 0.4437 0.71925 0.0
H1016 H 0.06636 0.43381 0.69807 0.0
H1017 H 0.12834 0.47808 0.73029 0.0
H1018 H 0.08846 0.42026 0.75845 0.0
H1019 H 0.04503 0.39739 0.77073 0.0
H1020 H 0.01214 0.44036 0.80797 0.0
H1021 H 0.05504 0.46358 0.79576 0.0
C1022 C 0.23735 0.49365 0.79434 0.0
C1023 C 0.22594 0.50627 0.80764 0.0
C1024 C 0.21297 0.48433 0.78356 0.0
C1025 C 0.17675 0.4875 0.78585 0.0
C1026 C 0.16518 0.49951 0.7995 0.0
C1027 C 0.18958 0.50891 0.81026 0.0
C1028 C 0.15103 0.47901 0.77347 0.0
C1029 C 0.12508 0.46642 0.7799 0.0
C1030 C 0.15246 0.48309 0.75534 0.0
C1031 C 0.17849 0.49685 0.74786 0.0
C1032 C 0.18043 0.51606 0.75397 0.0
C1033 C 0.20534 0.52886 0.74701 0.0
C1034 C 0.22827 0.52267 0.73384 0.0
C1035 C 0.22625 0.50367 0.72756 0.0
C1036 C 0.20143 0.4908 0.7345 0.0
C1037 C 0.01265 0.45214 0.72981 0.0
C1038 C 0.02234 0.4435 0.71387 0.0
C1039 C 0.03834 0.45798 0.74177 0.0
C1040 C 0.07421 0.45497 0.73817 0.0
C1041 C 0.08392 0.44613 0.72232 0.0
C1042 C 0.05822 0.4405 0.71025 0.0
C1043 C 0.10155 0.46203 0.75052 0.0
C1044 C 0.12785 0.47446 0.7441 0.0
C1045 C 0.10051 0.45768 0.76864 0.0
C1046 C 0.0748 0.44371 0.77609 0.0
C1047 C 0.0718 0.42488 0.76918 0.0
C1048 C 0.0473 0.41185 0.77614 0.0
C1049 C 0.02579 0.41743 0.7901 0.0
C1050 C 0.0288 0.43605 0.79715 0.0
C1051 C 0.05324 0.44915 0.79023 0.0
H1052 H 0.00683 0.40732 0.79547 0.0
H1053 H 0.24754 0.5326 0.72848 0.0
H1054 H 0.23151 0.00632 0.79057 0.0
H1055 H 0.27312 0.0237 0.77183 0.0
H1056 H 0.35993 0.00064 0.8017 0.0
H1057 H 0.31833 0.98327 0.82065 0.0
H1058 H 0.36703 0.04072 0.79272 0.0
H1059 H 0.34069 0.97919 0.76556 0.0
H1060 H 0.30118 0.95388 0.75395 0.0
H1061 H 0.25887 0.99437 0.71681 0.0
H1062 H 0.29779 0.02002 0.72839 0.0
H1063 H 0.50858 0.05083 0.73315 0.0
H1064 H 0.4639 0.04041 0.75408 0.0
H1065 H 0.38204 0.05629 0.7176 0.0
H1066 H 0.42687 0.0665 0.69643 0.0
H1067 H 0.36988 0.02169 0.7301 0.0
H1068 H 0.39825 0.08286 0.75557 0.0
H1069 H 0.43668 0.10866 0.76718 0.0
H1070 H 0.47384 0.07016 0.80729 0.0
H1071 H 0.43599 0.04403 0.79576 0.0
C1072 C 0.25943 0.00523 0.79335 0.0
C1073 C 0.27173 0.99342 0.80705 0.0
C1074 C 0.28313 0.01507 0.78258 0.0
C1075 C 0.31952 0.01332 0.78534 0.0
C1076 C 0.3319 0.00215 0.79939 0.0
C1077 C 0.30818 0.99215 0.8101 0.0
C1078 C 0.34466 0.02225 0.77294 0.0
C1079 C 0.36798 0.03649 0.77906 0.0
C1080 C 0.34507 0.01702 0.75505 0.0
C1081 C 0.32187 0.00158 0.74797 0.0
C1082 C 0.32275 0.98274 0.75502 0.0
C1083 C 0.3005 0.96833 0.74843 0.0
C1084 C 0.27746 0.97253 0.73468 0.0
C1085 C 0.27669 0.99114 0.72747 0.0
C1086 C 0.29885 0.00562 0.73404 0.0
C1087 C 0.48105 0.05246 0.72971 0.0
C1088 C 0.47119 0.05956 0.71318 0.0
C1089 C 0.45551 0.0465 0.7417 0.0
C1090 C 0.41957 0.04779 0.73752 0.0
C1091 C 0.40962 0.05519 0.72112 0.0
C1092 C 0.4352 0.06099 0.70904 0.0
C1093 C 0.39258 0.04025 0.74982 0.0
C1094 C 0.36887 0.02616 0.74371 0.0
C1095 C 0.39172 0.04574 0.76769 0.0
C1096 C 0.41447 0.06143 0.7747 0.0
C1097 C 0.41481 0.07984 0.76678 0.0
C1098 C 0.43646 0.09454 0.77337 0.0
C1099 C 0.45775 0.09104 0.78794 0.0
C1100 C 0.45736 0.07285 0.79599 0.0
C1101 C 0.43578 0.0581 0.78945 0.0
H1102 H 0.47449 0.10243 0.79302 0.0
H1103 H 0.26025 0.96135 0.7296 0.0
H1104 H 0.08409 0.50139 0.43639 0.0
H1105 H 0.05635 0.48971 0.46327 0.0
H1106 H 0.01085 0.54625 0.47182 0.0
H1107 H 0.03895 0.55809 0.445 0.0
H1108 H 0.0344 0.53144 0.50181 0.0
H1109 H 0.96181 0.50915 0.45475 0.0
H1110 H 0.94881 0.49291 0.42673 0.0
H1111 H 0.98559 0.43883 0.44771 0.0
H1112 H -0.0007 0.45481 0.47578 0.0
H1113 H 0.90632 0.50006 0.56376 0.0
H1114 H 0.93352 0.51295 0.53718 0.0
H1115 H 0.98788 0.45875 0.52933 0.0
H1116 H 0.96146 0.44586 0.55606 0.0
H1117 H 0.95812 0.47304 0.49892 0.0
H1118 H 0.03141 0.49612 0.54601 0.0
H1119 H 0.04322 0.51276 0.57397 0.0
H1120 H 0.00302 0.56597 0.5527 0.0
H1121 H 0.99049 0.54956 0.52468 0.0
C1122 C 0.0682 0.51133 0.44402 0.0
C1123 C 0.06345 0.53061 0.43855 0.0
C1124 C 0.05233 0.50464 0.45935 0.0
C1125 C 0.03098 0.51701 0.46937 0.0
C1126 C 0.02714 0.53645 0.46425 0.0
C1127 C 0.04326 0.5432 0.44897 0.0
C1128 C 0.01219 0.50954 0.485 0.0
C1129 C 0.01733 0.51884 0.50113 0.0
C1130 C 0.99031 0.49291 0.48415 0.0
C1131 C 0.98188 0.48322 0.46732 0.0
C1132 C 0.96736 0.49382 0.45335 0.0
C1133 C 0.95984 0.48466 0.43746 0.0
C1134 C 0.96645 0.46486 0.43543 0.0
C1135 C 0.98052 0.45417 0.44929 0.0
C1136 C 0.98814 0.46327 0.4652 0.0
C1137 C 0.92422 0.4909 0.55645 0.0
C1138 C 0.93183 0.47194 0.5621 0.0
C1139 C 0.93964 0.49828 0.54124 0.0
C1140 C 0.96295 0.48685 0.53141 0.0
C1141 C 0.9699 0.46778 0.53673 0.0
C1142 C 0.95462 0.46041 0.55198 0.0
C1143 C 0.98055 0.49486 0.5157 0.0
C1144 C 0.97513 0.48567 0.49956 0.0
C1145 C 0.00195 0.51165 0.51652 0.0
C1146 C 0.00968 0.52156 0.53331 0.0
C1147 C 0.02482 0.51133 0.54734 0.0
C1148 C 0.03169 0.52073 0.56319 0.0
C1149 C 0.02379 0.5404 0.56513 0.0
C1150 C 0.00908 0.55072 0.55119 0.0
C1151 C 0.00212 0.54139 0.53532 0.0
H1152 H 0.02913 0.54765 0.5774 0.0
H1153 H 0.9606 0.45779 0.42312 0.0
H1154 H 0.45681 0.94012 0.44658 0.0
H1155 H 0.4818 0.95286 0.47373 0.0
H1156 H 0.45464 0.01099 0.4578 0.0
H1157 H 0.42971 0.99833 0.43058 0.0
H1158 H 0.52001 0.00991 0.47001 0.0
H1159 H 0.40755 0.98716 0.48946 0.0
H1160 H 0.35921 0.96365 0.49334 0.0
H1161 H 0.42828 0.92594 0.52199 0.0
H1162 H 0.47721 0.94912 0.51806 0.0
H1163 H 0.54158 0.05519 0.55328 0.0
H1164 H 0.51716 0.04229 0.52611 0.0
H1165 H 0.55595 0.98539 0.53927 0.0
H1166 H 0.5816 0.99824 0.56622 0.0
H1167 H 0.48486 0.98585 0.52867 0.0
H1168 H 0.59726 0.00947 0.50905 0.0
H1169 H 0.64439 0.03376 0.50542 0.0
H1170 H 0.57329 0.07086 0.47734 0.0
H1171 H 0.52556 0.04689 0.48104 0.0
C1172 C 0.45576 0.95559 0.44896 0.0
C1173 C 0.44125 0.96822 0.43646 0.0
C1174 C 0.47009 0.96285 0.46447 0.0
C1175 C 0.4698 0.98287 0.46787 0.0
C1176 C 0.45521 0.9955 0.45543 0.0
C1177 C 0.44104 0.98825 0.43989 0.0
C1178 C 0.48549 0.99067 0.48419 0.0
C1179 C 0.51195 0.00484 0.48285 0.0
C1180 C 0.4755 0.98377 0.50092 0.0
C1181 C 0.44614 0.96979 0.50331 0.0
C1182 C 0.41252 0.97378 0.49646 0.0
C1183 C 0.385 0.96053 0.49869 0.0
C1184 C 0.3907 0.94329 0.50786 0.0
C1185 C 0.42392 0.93929 0.51486 0.0
C1186 C 0.45155 0.95249 0.51265 0.0
C1187 C 0.54554 0.04 0.55029 0.0
C1188 C 0.56368 0.02778 0.56197 0.0
C1189 C 0.53134 0.03264 0.53479 0.0
C1190 C 0.53485 0.01291 0.5307 0.0
C1191 C 0.55285 0.00065 0.54227 0.0
C1192 C 0.56736 0.00802 0.55769 0.0
C1193 C 0.51925 0.00504 0.51444 0.0
C1194 C 0.49284 0.99088 0.51582 0.0
C1195 C 0.52906 0.01205 0.49775 0.0
C1196 C 0.55774 0.02647 0.49548 0.0
C1197 C 0.59158 0.02288 0.50224 0.0
C1198 C 0.61842 0.03658 0.50014 0.0
C1199 C 0.61181 0.05387 0.4912 0.0
C1200 C 0.57836 0.05747 0.48429 0.0
C1201 C 0.55141 0.04383 0.48637 0.0
H1202 H 0.63263 0.06445 0.48958 0.0
H1203 H 0.36935 0.93305 0.50958 0.0
H1204 H 0.60956 0.4503 0.0428 0.0
H1205 H 0.58456 0.46059 0.0148 0.0
H1206 H 0.49897 0.48865 0.04199 0.0
H1207 H 0.52279 0.47767 0.0699 0.0
H1208 H 0.47489 0.46985 0.01439 0.0
H1209 H 0.57041 0.51431 0.02575 0.0
H1210 H 0.63196 0.52338 0.03211 0.0
H1211 H 0.66582 0.49603 0.98451 0.0
H1212 H 0.60448 0.48658 0.97798 0.0
H1213 H 0.41284 0.53596 0.95085 0.0
H1214 H 0.43894 0.52097 0.97674 0.0
H1215 H 0.51656 0.49277 0.9443 0.0
H1216 H 0.49037 0.50758 0.91828 0.0
H1217 H 0.54606 0.50924 0.9731 0.0
H1218 H 0.44907 0.46698 0.96083 0.0
H1219 H 0.38715 0.45865 0.95457 0.0
H1220 H 0.35563 0.48251 0.00405 0.0
H1221 H 0.41731 0.49124 0.01051 0.0
C1222 C 0.58521 0.45848 0.04281 0.0
C1223 C 0.56836 0.46332 0.05862 0.0
C1224 C 0.57113 0.46451 0.0268 0.0
C1225 C 0.54016 0.47564 0.02632 0.0
C1226 C 0.52297 0.48016 0.04204 0.0
C1227 C 0.53688 0.47405 0.05801 0.0
C1228 C 0.52563 0.4828 0.0095 0.0
C1229 C 0.49036 0.47861 0.00544 0.0
C1230 C 0.54608 0.49381 0.9976 0.0
C1231 C 0.58293 0.49955 0.00148 0.0
C1232 C 0.59102 0.5101 0.01671 0.0
C1233 C 0.62585 0.51533 0.02033 0.0
C1234 C 0.65279 0.51024 0.00875 0.0
C1235 C 0.64493 0.49994 0.99349 0.0
C1236 C 0.61014 0.49465 0.98981 0.0
C1237 C 0.43522 0.5264 0.94919 0.0
C1238 C 0.44946 0.52292 0.9325 0.0
C1239 C 0.45014 0.51787 0.964 0.0
C1240 C 0.47944 0.50558 0.96241 0.0
C1241 C 0.49395 0.50221 0.9458 0.0
C1242 C 0.47904 0.51074 0.93097 0.0
C1243 C 0.4952 0.49654 0.97815 0.0
C1244 C 0.53069 0.50035 0.98199 0.0
C1245 C 0.47492 0.48525 0.98988 0.0
C1246 C 0.4378 0.47991 0.98609 0.0
C1247 C 0.42891 0.47058 0.97032 0.0
C1248 C 0.39385 0.46577 0.96674 0.0
C1249 C 0.36746 0.47009 0.97889 0.0
C1250 C 0.37609 0.47919 0.99465 0.0
C1251 C 0.4111 0.48405 0.99829 0.0
H1252 H 0.34034 0.46635 0.97609 0.0
H1253 H 0.67975 0.5143 0.01158 0.0
H1254 H 0.01409 0.98597 0.91965 0.0
H1255 H 0.98836 -0.00082 0.94645 0.0
H1256 H 0.06387 0.96726 0.97727 0.0
H1257 H 0.08911 0.95356 0.95053 0.0
H1258 H 0.99851 0.96422 0.99074 0.0
H1259 H 0.07387 0.01536 0.97081 0.0
H1260 H 0.09777 0.039 0.94971 0.0
H1261 H 0.99638 0.06625 0.94584 0.0
H1262 H 0.97171 0.04258 0.96673 0.0
H1263 H 0.98243 0.01524 0.07099 0.0
H1264 H 0.00505 0.0023 0.0435 0.0
H1265 H 0.91985 0.02953 0.01548 0.0
H1266 H 0.896 0.04194 0.04303 0.0
H1267 H 0.98825 0.03517 0.00034 0.0
H1268 H 0.9137 0.9839 0.02107 0.0
H1269 H 0.89117 0.96041 0.04267 0.0
H1270 H 0.99309 0.9336 0.04554 0.0
H1271 H 0.01639 0.95713 0.02414 0.0
C1272 C 0.02503 0.98164 0.93214 0.0
C1273 C 0.05364 0.96873 0.93298 0.0
C1274 C 0.01051 0.98934 0.94743 0.0
C1275 C 0.02444 0.98435 0.96383 0.0
C1276 C 0.0528 0.97134 0.96473 0.0
C1277 C 0.06737 0.96366 0.94944 0.0
C1278 C 0.00921 0.99255 0.98009 0.0
C1279 C 0.99667 0.97973 0.99292 0.0
C1280 C 0.00612 0.01279 0.98276 0.0
C1281 C 0.02085 0.02706 0.97019 0.0
C1282 C 0.05658 0.02628 0.96534 0.0
C1283 C 0.07029 0.03971 0.95344 0.0
C1284 C 0.04858 0.05408 0.9464 0.0
C1285 C 0.01314 0.05509 0.95128 0.0
C1286 C -0.00071 0.04168 0.96316 0.0
C1287 C 0.96809 0.01828 0.05906 0.0
C1288 C 0.93716 0.02954 0.05931 0.0
C1289 C 0.98125 0.01097 0.04334 0.0
C1290 C 0.96398 0.01489 0.02752 0.0
C1291 C 0.93356 0.02641 0.02759 0.0
C1292 C 0.92009 0.03355 0.04335 0.0
C1293 C 0.97777 0.00684 0.01095 0.0
C1294 C 0.99003 0.01967 0.99808 0.0
C1295 C 0.98081 0.98662 0.00829 0.0
C1296 C 0.96688 0.97241 0.02113 0.0
C1297 C 0.9314 0.97311 0.02642 0.0
C1298 C 0.91847 0.95977 0.03861 0.0
C1299 C 0.94071 0.94555 0.04551 0.0
C1300 C 0.97591 0.94463 0.0402 0.0
C1301 C 0.98899 0.95796 0.02803 0.0
H1302 H 0.93065 0.93523 0.05493 0.0
H1303 H 0.05925 0.06447 0.9372 0.0
H1304 H 0.24831 0.66272 0.34875 0.0
H1305 H 0.27102 0.69573 0.35039 0.0
H1306 H 0.17021 0.71574 0.36925 0.0
H1307 H 0.14674 0.68279 0.36686 0.0
H1308 H 0.19441 0.73936 0.3448 0.0
H1309 H 0.24169 0.71124 0.3968 0.0
H1310 H 0.27329 0.68702 0.41458 0.0
H1311 H 0.36829 0.69807 0.38572 0.0
H1312 H 0.33713 0.72218 0.36759 0.0
H1313 H 0.25847 0.83215 0.37108 0.0
H1314 H 0.23441 0.79932 0.37212 0.0
H1315 H 0.32716 0.77754 0.34616 0.0
H1316 H 0.35098 0.81041 0.34445 0.0
H1317 H 0.30584 0.75535 0.37559 0.0
H1318 H 0.25672 0.7827 0.32297 0.0
H1319 H 0.22458 0.80718 0.30573 0.0
H1320 H 0.13198 0.79775 0.3369 0.0
H1321 H 0.16377 0.77341 0.35451 0.0
C1322 C 0.23084 0.67414 0.35313 0.0
C1323 C 0.19563 0.6701 0.35762 0.0
C1324 C 0.24401 0.69299 0.35427 0.0
C1325 C 0.22246 0.70818 0.36016 0.0
C1326 C 0.18736 0.70422 0.36474 0.0
C1327 C 0.17408 0.68535 0.36352 0.0
C1328 C 0.23635 0.72829 0.36098 0.0
C1329 C 0.21844 0.7429 0.3518 0.0
C1330 C 0.26809 0.73286 0.36982 0.0
C1331 C 0.28698 0.7184 0.38073 0.0
C1332 C 0.26925 0.7084 0.39415 0.0
C1333 C 0.2871 0.69471 0.40431 0.0
C1334 C 0.32276 0.69098 0.40125 0.0
C1335 C 0.34066 0.70097 0.38806 0.0
C1336 C 0.32293 0.71466 0.37785 0.0
C1337 C 0.27365 0.82045 0.3654 0.0
C1338 C 0.30663 0.824 0.35758 0.0
C1339 C 0.25993 0.80167 0.36612 0.0
C1340 C 0.27896 0.78607 0.35914 0.0
C1341 C 0.31216 0.78942 0.35168 0.0
C1342 C 0.32578 0.80822 0.35079 0.0
C1343 C 0.26396 0.76626 0.35936 0.0
C1344 C 0.28168 0.75175 0.36872 0.0
C1345 C 0.23194 0.7618 0.35079 0.0
C1346 C 0.21275 0.77639 0.34019 0.0
C1347 C 0.22961 0.78598 0.32626 0.0
C1348 C 0.21143 0.7998 0.31639 0.0
C1349 C 0.17629 0.80406 0.32025 0.0
C1350 C 0.15922 0.79446 0.33395 0.0
C1351 C 0.1773 0.78064 0.34387 0.0
H1352 H 0.16225 0.81477 0.31259 0.0
H1353 H 0.33653 0.68037 0.40913 0.0
H1354 H 0.79151 0.17342 0.16704 0.0
H1355 H 0.7646 0.20551 0.1654 0.0
H1356 H 0.79334 0.2096 0.1109 0.0
H1357 H 0.8213 0.17763 0.11256 0.0
H1358 H 0.8063 0.24328 0.12843 0.0
H1359 H 0.70996 0.19922 0.12182 0.0
H1360 H 0.67249 0.17125 0.12945 0.0
H1361 H 0.64656 0.19781 0.17861 0.0
H1362 H 0.68431 0.22583 0.17139 0.0
H1363 H 0.69791 0.32591 0.11384 0.0
H1364 H 0.72159 0.29299 0.11146 0.0
H1365 H 0.69867 0.28309 0.16603 0.0
H1366 H 0.67427 0.31578 0.1684 0.0
H1367 H 0.68132 0.25191 0.14592 0.0
H1368 H 0.78067 0.29475 0.15337 0.0
H1369 H 0.81855 0.32264 0.14601 0.0
H1370 H 0.83885 0.29826 0.09529 0.0
H1371 H 0.80064 0.27034 0.10227 0.0
C1372 C 0.79254 0.18124 0.15475 0.0
C1373 C 0.80851 0.17298 0.13992 0.0
C1374 C 0.77681 0.19948 0.15379 0.0
C1375 C 0.77654 0.20979 0.13796 0.0
C1376 C 0.7931 0.20181 0.12321 0.0
C1377 C 0.80883 0.18351 0.12416 0.0
C1378 C 0.75887 0.2289 0.13689 0.0
C1379 C 0.77881 0.24513 0.13196 0.0
C1380 C 0.72316 0.23132 0.14178 0.0
C1381 C 0.70021 0.21456 0.14612 0.0
C1382 C 0.69648 0.19904 0.13432 0.0
C1383 C 0.67516 0.18318 0.13856 0.0
C1384 C 0.65721 0.18274 0.15452 0.0
C1385 C 0.66049 0.19817 0.16626 0.0
C1386 C 0.68182 0.21405 0.16209 0.0
C1387 C 0.69744 0.31661 0.12525 0.0
C1388 C 0.68444 0.32345 0.14134 0.0
C1389 C 0.71122 0.29788 0.12391 0.0
C1390 C 0.71226 0.28571 0.13863 0.0
C1391 C 0.69822 0.29228 0.15454 0.0
C1392 C 0.68455 0.311 0.1559 0.0
C1393 C 0.72887 0.26631 0.13767 0.0
C1394 C 0.70871 0.25002 0.14223 0.0
C1395 C 0.76437 0.26385 0.13245 0.0
C1396 C 0.78748 0.28057 0.12826 0.0
C1397 C 0.79297 0.29541 0.14059 0.0
C1398 C 0.81455 0.31121 0.1365 0.0
C1399 C 0.83101 0.31225 0.12017 0.0
C1400 C 0.82602 0.29746 0.10792 0.0
C1401 C 0.80443 0.28164 0.11194 0.0
H1402 H 0.84771 0.32449 0.11703 0.0
H1403 H 0.64072 0.17045 0.15778 0.0
H1404 H 0.64936 0.18594 0.6483 0.0
H1405 H 0.67296 0.21883 0.64672 0.0
H1406 H 0.77528 0.19614 0.63342 0.0
H1407 H 0.75167 0.16318 0.63396 0.0
H1408 H 0.77143 0.22507 0.66251 0.0
H1409 H 0.7362 0.21461 0.60236 0.0
H1410 H 0.69396 0.20561 0.57922 0.0
H1411 H 0.62437 0.25115 0.59576 0.0
H1412 H 0.66599 0.26023 0.61917 0.0
H1413 H 0.85486 0.31407 0.64475 0.0
H1414 H 0.83383 0.28084 0.64302 0.0
H1415 H 0.72708 0.30144 0.63742 0.0
H1416 H 0.74821 0.33473 0.63735 0.0
H1417 H 0.73393 0.27264 0.61751 0.0
H1418 H 0.76374 0.28318 0.67761 0.0
H1419 H 0.80138 0.29239 0.70257 0.0
H1420 H 0.875 0.24757 0.68902 0.0
H1421 H 0.83801 0.23825 0.66383 0.0
C1422 C 0.67673 0.18786 0.64469 0.0
C1423 C 0.69852 0.17178 0.64122 0.0
C1424 C 0.6902 0.20669 0.64395 0.0
C1425 C 0.72578 0.20982 0.63996 0.0
C1426 C 0.74775 0.19393 0.63661 0.0
C1427 C 0.73419 0.1751 0.63705 0.0
C1428 C 0.7401 0.22974 0.63945 0.0
C1429 C 0.76372 0.23546 0.65255 0.0
C1430 C 0.72895 0.24333 0.62678 0.0
C1431 C 0.70405 0.23797 0.61263 0.0
C1432 C 0.71175 0.22259 0.60116 0.0
C1433 C 0.68795 0.2175 0.58797 0.0
C1434 C 0.65646 0.22777 0.58605 0.0
C1435 C 0.64875 0.24319 0.59728 0.0
C1436 C 0.67245 0.24833 0.6105 0.0
C1437 C 0.82697 0.31164 0.64277 0.0
C1438 C 0.80331 0.32729 0.6413 0.0
C1439 C 0.81487 0.29252 0.64211 0.0
C1440 C 0.77871 0.28854 0.64053 0.0
C1441 C 0.75509 0.30407 0.63878 0.0
C1442 C 0.76724 0.32319 0.63901 0.0
C1443 C 0.76544 0.26824 0.64068 0.0
C1444 C 0.74188 0.26237 0.6275 0.0
C1445 C 0.77602 0.25462 0.65356 0.0
C1446 C 0.79828 0.26015 0.66873 0.0
C1447 C 0.78808 0.27537 0.67988 0.0
C1448 C 0.80928 0.2806 0.69408 0.0
C1449 C 0.84061 0.27061 0.69735 0.0
C1450 C 0.85075 0.25532 0.68645 0.0
C1451 C 0.82967 0.25005 0.67222 0.0
H1452 H 0.85699 0.27468 0.70834 0.0
H1453 H 0.63807 0.22381 0.57583 0.0
H1454 H 0.24493 0.66158 0.86119 0.0
H1455 H 0.22198 0.69474 0.86222 0.0
H1456 H 0.3279 0.71707 0.85731 0.0
H1457 H 0.35086 0.68387 0.85733 0.0
H1458 H 0.29532 0.73847 0.87882 0.0
H1459 H 0.26633 0.71447 0.82186 0.0
H1460 H 0.24108 0.69185 0.80023 0.0
H1461 H 0.13776 0.70126 0.8215 0.0
H1462 H 0.16247 0.72375 0.84343 0.0
H1463 H 0.24766 0.83184 0.84474 0.0
H1464 H 0.26895 0.79833 0.84694 0.0
H1465 H 0.16939 0.78084 0.86912 0.0
H1466 H 0.14817 0.81443 0.86724 0.0
H1467 H 0.19724 0.75743 0.83945 0.0
H1468 H 0.23021 0.78337 0.89593 0.0
H1469 H 0.2585 0.80723 0.91544 0.0
H1470 H 0.35887 0.79543 0.89178 0.0
H1471 H 0.33106 0.7717 0.87194 0.0
C1472 C 0.26318 0.67364 0.86042 0.0
C1473 C 0.29954 0.67032 0.85911 0.0
C1474 C 0.25011 0.69256 0.86089 0.0
C1475 C 0.27311 0.70847 0.85944 0.0
C1476 C 0.30958 0.70508 0.85842 0.0
C1477 C 0.3227 0.68616 0.85839 0.0
C1478 C 0.25923 0.72863 0.85889 0.0
C1479 C 0.27415 0.7426 0.87004 0.0
C1480 C 0.23127 0.73409 0.84761 0.0
C1481 C 0.2163 0.72064 0.8344 0.0
C1482 C 0.23826 0.71161 0.822 0.0
C1483 C 0.22404 0.69883 0.80968 0.0
C1484 C 0.18785 0.69508 0.80952 0.0
C1485 C 0.16579 0.70415 0.82166 0.0
C1486 C 0.17988 0.71693 0.83403 0.0
C1487 C 0.23039 0.82082 0.85009 0.0
C1488 C 0.19634 0.82562 0.85584 0.0
C1489 C 0.24257 0.80177 0.85139 0.0
C1490 C 0.22071 0.78722 0.85823 0.0
C1491 C 0.18658 0.79194 0.86384 0.0
C1492 C 0.1746 0.81106 0.86283 0.0
C1493 C 0.23343 0.76702 0.8593 0.0
C1494 C 0.21832 0.75313 0.84822 0.0
C1495 C 0.26171 0.76174 0.87033 0.0
C1496 C 0.27849 0.7759 0.88234 0.0
C1497 C 0.25826 0.78599 0.89478 0.0
C1498 C 0.27422 0.79946 0.90592 0.0
C1499 C 0.31045 0.80288 0.90482 0.0
C1500 C 0.33081 0.79279 0.89261 0.0
C1501 C 0.31496 0.77931 0.88143 0.0
H1502 H 0.32276 0.81332 0.91346 0.0
H1503 H 0.1769 0.68518 0.79997 0.0
loop_
_geom_bond_atom_site_label_1
_geom_bond_atom_site_label_2
_geom_bond_distance
_geom_bond_site_symmetry_2
_ccdc_geom_bond_type
Li0 N17 1.990 . S
Li0 O60 1.956 . S
Li0 O61 1.970 . S
Li0 O62 1.961 . S
Li1 N25 1.990 . S
Li1 O60 1.970 . S
Li1 O61 1.956 . S
Li1 O63 1.961 . S
Li2 N47 1.990 . S
Li2 O60 1.961 . S
Li2 O62 1.956 . S
Li2 O63 1.970 . S
Li3 N53 1.990 . S
Li3 O61 1.961 . S
Li3 O62 1.970 . S
Li3 O63 1.956 . S
C4 C6 1.348 . S
C4 C7 1.356 . S
C4 O60 1.325 . S
N5 C8 1.311 1_655 S
N5 C9 1.275 1_655 S
C6 C4 1.348 . S
C6 C8 1.353 . S
C6 H64 0.929 . S
C7 C4 1.356 . S
C7 C9 1.358 . S
C7 H65 0.930 . S
C8 N5 1.311 1_455 S
C8 C6 1.353 . S
C8 H66 0.930 . S
C9 N5 1.275 1_455 S
C9 C7 1.358 . S
C9 H67 0.930 . S
C10 C13 1.348 . S
C10 C14 1.356 . S
C10 O61 1.325 . S
C11 N12 1.279 . S
C11 C14 1.358 . S
C11 H68 0.930 . S
N12 C11 1.279 . S
N12 C15 1.314 . S
C13 C10 1.348 . S
C13 C15 1.353 . S
C13 H69 0.929 . S
C14 C10 1.356 . S
C14 C11 1.358 . S
C14 H70 0.930 . S
C15 N12 1.314 . S
C15 C13 1.353 . S
C15 H71 0.930 . S
C16 N17 1.314 . S
C16 C21 1.353 . S
C16 H22 0.930 . S
N17 Li0 1.990 . S
N17 C16 1.314 . S
N17 C19 1.279 . S
C18 C19 1.358 1_655 S
C18 C20 1.356 . S
C18 H72 0.930 . S
C19 N17 1.279 . S
C19 C18 1.358 1_455 S
C19 H23 0.930 . S
C20 C18 1.356 . S
C20 C21 1.348 1_655 S
C21 C16 1.353 . S
C21 C20 1.348 1_455 S
C21 H73 0.929 . S
H22 C16 0.930 . S
H23 C19 0.930 . S
C24 N25 1.314 . S
C24 C26 1.353 . S
C24 H30 0.930 . S
N25 Li1 1.990 . S
N25 C24 1.314 . S
N25 C28 1.279 . S
C26 C24 1.353 . S
C26 C29 1.348 . S
C26 H74 0.929 . S
C27 C28 1.358 . S
C27 C29 1.356 . S
C27 H75 0.930 . S
C28 N25 1.279 . S
C28 C27 1.358 . S
C28 H31 0.930 . S
C29 C26 1.348 . S
C29 C27 1.356 . S
H30 C24 0.930 . S
H31 C28 0.930 . S
C32 C34 1.348 . S
C32 C35 1.356 . S
C32 O62 1.325 . S
N33 C36 1.314 . S
N33 C37 1.279 . S
C34 C32 1.348 . S
C34 C36 1.353 . S
C34 H76 0.929 . S
C35 C32 1.356 . S
C35 C37 1.358 . S
C35 H77 0.930 . S
C36 N33 1.314 . S
C36 C34 1.353 . S
C36 H78 0.930 . S
C37 N33 1.279 . S
C37 C35 1.358 . S
C37 H79 0.930 . S
C38 C39 1.348 . S
C38 C40 1.356 . S
C38 O63 1.325 . S
C39 C38 1.348 . S
C39 C41 1.353 . S
C39 H80 0.929 . S
C40 C38 1.356 . S
C40 C42 1.358 . S
C40 H81 0.930 . S
C41 C39 1.353 . S
C41 N43 1.314 . S
C41 H82 0.930 . S
C42 C40 1.358 . S
C42 N43 1.279 . S
C42 H83 0.930 . S
N43 C41 1.314 . S
N43 C42 1.279 . S
C44 C46 1.353 . S
C44 N47 1.314 . S
C44 H50 0.930 . S
C45 N47 1.279 . S
C45 C48 1.358 . S
C45 H51 0.930 . S
C46 C44 1.353 . S
C46 C49 1.348 . S
C46 H84 0.929 . S
N47 Li2 1.990 . S
N47 C44 1.314 . S
N47 C45 1.279 . S
C48 C45 1.358 . S
C48 C49 1.356 . S
C48 H85 0.930 . S
C49 C46 1.348 . S
C49 C48 1.356 . S
H50 C44 0.930 . S
H51 C45 0.930 . S
C52 N53 1.314 . S
C52 C54 1.353 . S
C52 H58 0.930 . S
N53 Li3 1.990 . S
N53 C52 1.314 . S
N53 C56 1.279 . S
C54 C52 1.353 . S
C54 C57 1.348 . S
C54 H86 0.929 . S
C55 C56 1.358 . S
C55 C57 1.356 . S
C55 H87 0.930 . S
C56 N53 1.279 . S
C56 C55 1.358 . S
C56 H59 0.930 . S
C57 C54 1.348 . S
C57 C55 1.356 . S
H58 C52 0.930 . S
H59 C56 0.930 . S
O60 Li0 1.956 . S
O60 Li1 1.970 . S
O60 Li2 1.961 . S
O60 C4 1.325 . S
O61 Li0 1.970 . S
O61 Li1 1.956 . S
O61 Li3 1.961 . S
O61 C10 1.325 . S
O62 Li0 1.961 . S
O62 Li2 1.956 . S
O62 Li3 1.970 . S
O62 C32 1.325 . S
O63 Li1 1.961 . S
O63 Li2 1.970 . S
O63 Li3 1.956 . S
O63 C38 1.325 . S
H64 C6 0.929 . S
H65 C7 0.930 . S
H66 C8 0.930 . S
H67 C9 0.930 . S
H68 C11 0.930 . S
H69 C13 0.929 . S
H70 C14 0.930 . S
H71 C15 0.930 . S
H72 C18 0.930 . S
H73 C21 0.929 . S
H74 C26 0.929 . S
H75 C27 0.930 . S
H76 C34 0.929 . S
H77 C35 0.930 . S
H78 C36 0.930 . S
H79 C37 0.930 . S
H80 C39 0.929 . S
H81 C40 0.930 . S
H82 C41 0.930 . S
H83 C42 0.930 . S
H84 C46 0.929 . S
H85 C48 0.930 . S
H86 C54 0.929 . S
H87 C55 0.930 . S
Li88 N105 1.990 . S
Li88 O148 1.956 . S
Li88 O149 1.970 . S
Li88 O150 1.961 . S
Li89 N113 1.990 . S
Li89 O148 1.970 . S
Li89 O149 1.956 . S
Li89 O151 1.961 . S
Li90 N135 1.990 . S
Li90 O148 1.961 . S
Li90 O150 1.956 . S
Li90 O151 1.970 . S
Li91 N141 1.990 . S
Li91 O149 1.961 . S
Li91 O150 1.970 . S
Li91 O151 1.956 . S
C92 C94 1.348 . S
C92 C95 1.356 . S
C92 O148 1.325 . S
N93 C96 1.314 . S
N93 C97 1.279 . S
C94 C92 1.348 . S
C94 C96 1.353 . S
C94 H152 0.929 . S
C95 C92 1.356 . S
C95 C97 1.358 . S
C95 H153 0.930 . S
C96 N93 1.314 . S
C96 C94 1.353 . S
C96 H154 0.930 . S
C97 N93 1.279 . S
C97 C95 1.358 . S
C97 H155 0.930 . S
C98 C101 1.348 . S
C98 C102 1.356 . S
C98 O149 1.325 . S
C99 N100 1.279 . S
C99 C102 1.358 . S
C99 H156 0.930 . S
N100 C99 1.279 . S
N100 C103 1.314 . S
C101 C98 1.348 . S
C101 C103 1.353 . S
C101 H157 0.929 . S
C102 C98 1.356 . S
C102 C99 1.358 . S
C102 H158 0.930 . S
C103 N100 1.314 . S
C103 C101 1.353 . S
C103 H159 0.930 . S
C104 N105 1.314 . S
C104 C109 1.353 . S
C104 H110 0.930 . S
N105 Li88 1.990 . S
N105 C104 1.314 . S
N105 C107 1.279 . S
C106 C107 1.358 . S
C106 C108 1.356 . S
C106 H160 0.930 . S
C107 N105 1.279 . S
C107 C106 1.358 . S
C107 H111 0.930 . S
C108 C106 1.356 . S
C108 C109 1.348 . S
C109 C104 1.353 . S
C109 C108 1.348 . S
C109 H161 0.929 . S
H110 C104 0.930 . S
H111 C107 0.930 . S
C112 N113 1.314 . S
C112 C114 1.353 . S
C112 H118 0.930 . S
N113 Li89 1.990 . S
N113 C112 1.314 . S
N113 C116 1.279 . S
C114 C112 1.353 . S
C114 C117 1.348 . S
C114 H162 0.929 . S
C115 C116 1.358 . S
C115 C117 1.356 . S
C115 H163 0.930 . S
C116 N113 1.279 . S
C116 C115 1.358 . S
C116 H119 0.930 . S
C117 C114 1.348 . S
C117 C115 1.356 . S
H118 C112 0.930 . S
H119 C116 0.930 . S
C120 C122 1.348 . S
C120 C123 1.356 . S
C120 O150 1.325 . S
N121 C124 1.314 . S
N121 C125 1.279 . S
C122 C120 1.348 . S
C122 C124 1.353 1_565 S
C122 H164 0.929 . S
C123 C120 1.356 . S
C123 C125 1.358 1_565 S
C123 H165 0.930 . S
C124 N121 1.314 . S
C124 C122 1.353 1_545 S
C124 H166 0.930 . S
C125 N121 1.279 . S
C125 C123 1.358 1_545 S
C125 H167 0.930 . S
C126 C127 1.348 . S
C126 C128 1.356 . S
C126 O151 1.325 . S
C127 C126 1.348 . S
C127 C129 1.353 . S
C127 H168 0.929 . S
C128 C126 1.356 . S
C128 C130 1.358 . S
C128 H169 0.930 . S
C129 C127 1.353 . S
C129 N131 1.314 . S
C129 H170 0.930 . S
C130 C128 1.358 . S
C130 N131 1.279 . S
C130 H171 0.930 . S
N131 C129 1.314 . S
N131 C130 1.279 . S
C132 C134 1.353 . S
C132 N135 1.314 . S
C132 H138 0.930 . S
C133 N135 1.279 . S
C133 C136 1.358 . S
C133 H139 0.930 . S
C134 C132 1.353 . S
C134 C137 1.348 . S
C134 H172 0.929 . S
N135 Li90 1.990 . S
N135 C132 1.314 . S
N135 C133 1.279 . S
C136 C133 1.358 . S
C136 C137 1.356 . S
C136 H173 0.930 . S
C137 C134 1.348 . S
C137 C136 1.356 . S
H138 C132 0.930 . S
H139 C133 0.930 . S
C140 N141 1.314 . S
C140 C142 1.353 . S
C140 H146 0.930 . S
N141 Li91 1.990 . S
N141 C140 1.314 . S
N141 C144 1.279 . S
C142 C140 1.353 . S
C142 C145 1.348 . S
C142 H174 0.929 . S
C143 C144 1.358 . S
C143 C145 1.356 . S
C143 H175 0.930 . S
C144 N141 1.279 . S
C144 C143 1.358 . S
C144 H147 0.930 . S
C145 C142 1.348 . S
C145 C143 1.356 . S
H146 C140 0.930 . S
H147 C144 0.930 . S
O148 Li88 1.956 . S
O148 Li89 1.970 . S
O148 Li90 1.961 . S
O148 C92 1.325 . S
O149 Li88 1.970 . S
O149 Li89 1.956 . S
O149 Li91 1.961 . S
O149 C98 1.325 . S
O150 Li88 1.961 . S
O150 Li90 1.956 . S
O150 Li91 1.970 . S
O150 C120 1.325 . S
O151 Li89 1.961 . S
O151 Li90 1.970 . S
O151 Li91 1.956 . S
O151 C126 1.325 . S
H152 C94 0.929 . S
H153 C95 0.930 . S
H154 C96 0.930 . S
H155 C97 0.930 . S
H156 C99 0.930 . S
H157 C101 0.929 . S
H158 C102 0.930 . S
H159 C103 0.930 . S
H160 C106 0.930 . S
H161 C109 0.929 . S
H162 C114 0.929 . S
H163 C115 0.930 . S
H164 C122 0.929 . S
H165 C123 0.930 . S
H166 C124 0.930 . S
H167 C125 0.930 . S
H168 C127 0.929 . S
H169 C128 0.930 . S
H170 C129 0.930 . S
H171 C130 0.930 . S
H172 C134 0.929 . S
H173 C136 0.930 . S
H174 C142 0.929 . S
H175 C143 0.930 . S
Li176 N193 1.990 . S
Li176 O236 1.956 . S
Li176 O237 1.970 . S
Li176 O238 1.961 . S
Li177 N201 1.990 . S
Li177 O236 1.970 . S
Li177 O237 1.956 . S
Li177 O239 1.961 . S
Li178 N223 1.990 . S
Li178 O236 1.961 . S
Li178 O238 1.956 . S
Li178 O239 1.970 . S
Li179 N229 1.990 . S
Li179 O237 1.961 . S
Li179 O238 1.970 . S
Li179 O239 1.956 . S
C180 C182 1.348 . S
C180 C183 1.356 . S
C180 O236 1.325 . S
N181 C184 1.314 . S
N181 C185 1.279 . S
C182 C180 1.348 . S
C182 C184 1.353 . S
C182 H240 0.929 . S
C183 C180 1.356 . S
C183 C185 1.358 . S
C183 H241 0.930 . S
C184 N181 1.314 . S
C184 C182 1.353 . S
C184 H242 0.930 . S
C185 N181 1.279 . S
C185 C183 1.358 . S
C185 H243 0.930 . S
C186 C189 1.348 . S
C186 C190 1.356 . S
C186 O237 1.325 . S
C187 N188 1.279 . S
C187 C190 1.358 . S
C187 H244 0.930 . S
N188 C187 1.279 . S
N188 C191 1.314 . S
C189 C186 1.348 . S
C189 C191 1.353 . S
C189 H245 0.929 . S
C190 C186 1.356 . S
C190 C187 1.358 . S
C190 H246 0.930 . S
C191 N188 1.314 . S
C191 C189 1.353 . S
C191 H247 0.930 . S
C192 N193 1.314 . S
C192 C197 1.353 . S
C192 H198 0.930 . S
N193 Li176 1.990 . S
N193 C192 1.314 . S
N193 C195 1.279 . S
C194 C195 1.358 . S
C194 C196 1.356 . S
C194 H248 0.930 . S
C195 N193 1.279 . S
C195 C194 1.358 . S
C195 H199 0.930 . S
C196 C194 1.356 . S
C196 C197 1.348 . S
C197 C192 1.353 . S
C197 C196 1.348 . S
C197 H249 0.929 . S
H198 C192 0.930 . S
H199 C195 0.930 . S
C200 N201 1.314 . S
C200 C202 1.353 . S
C200 H206 0.930 . S
N201 Li177 1.990 . S
N201 C200 1.314 . S
N201 C204 1.279 . S
C202 C200 1.353 . S
C202 C205 1.348 . S
C202 H250 0.929 . S
C203 C204 1.358 . S
C203 C205 1.356 . S
C203 H251 0.930 . S
C204 N201 1.279 . S
C204 C203 1.358 . S
C204 H207 0.930 . S
C205 C202 1.348 . S
C205 C203 1.356 . S
H206 C200 0.930 . S
H207 C204 0.930 . S
C208 C210 1.348 . S
C208 C211 1.356 . S
C208 O238 1.325 . S
N209 C212 1.314 . S
N209 C213 1.279 . S
C210 C208 1.348 . S
C210 C212 1.353 . S
C210 H252 0.929 . S
C211 C208 1.356 . S
C211 C213 1.358 . S
C211 H253 0.930 . S
C212 N209 1.314 . S
C212 C210 1.353 . S
C212 H254 0.930 . S
C213 N209 1.279 . S
C213 C211 1.358 . S
C213 H255 0.930 . S
C214 C215 1.348 . S
C214 C216 1.356 . S
C214 O239 1.325 . S
C215 C214 1.348 . S
C215 C217 1.353 . S
C215 H256 0.929 . S
C216 C214 1.356 . S
C216 C218 1.358 . S
C216 H257 0.930 . S
C217 C215 1.353 . S
C217 N219 1.314 . S
C217 H258 0.930 . S
C218 C216 1.358 . S
C218 N219 1.279 . S
C218 H259 0.930 . S
N219 C217 1.314 . S
N219 C218 1.279 . S
C220 C222 1.353 . S
C220 N223 1.314 . S
C220 H226 0.930 . S
C221 N223 1.279 . S
C221 C224 1.358 . S
C221 H227 0.930 . S
C222 C220 1.353 . S
C222 C225 1.348 . S
C222 H260 0.929 . S
N223 Li178 1.990 . S
N223 C220 1.314 . S
N223 C221 1.279 . S
C224 C221 1.358 . S
C224 C225 1.356 . S
C224 H261 0.930 . S
C225 C222 1.348 . S
C225 C224 1.356 . S
H226 C220 0.930 . S
H227 C221 0.930 . S
C228 N229 1.314 . S
C228 C230 1.353 . S
C228 H234 0.930 . S
N229 Li179 1.990 . S
N229 C228 1.314 . S
N229 C232 1.279 . S
C230 C228 1.353 . S
C230 C233 1.348 . S
C230 H262 0.929 . S
C231 C232 1.358 . S
C231 C233 1.356 . S
C231 H263 0.930 . S
C232 N229 1.279 . S
C232 C231 1.358 . S
C232 H235 0.930 . S
C233 C230 1.348 . S
C233 C231 1.356 . S
H234 C228 0.930 . S
H235 C232 0.930 . S
O236 Li176 1.956 . S
O236 Li177 1.970 . S
O236 Li178 1.961 . S
O236 C180 1.325 . S
O237 Li176 1.970 . S
O237 Li177 1.956 . S
O237 Li179 1.961 . S
O237 C186 1.325 . S
O238 Li176 1.961 . S
O238 Li178 1.956 . S
O238 Li179 1.970 . S
O238 C208 1.325 . S
O239 Li177 1.961 . S
O239 Li178 1.970 . S
O239 Li179 1.956 . S
O239 C214 1.325 . S
H240 C182 0.929 . S
H241 C183 0.930 . S
H242 C184 0.930 . S
H243 C185 0.930 . S
H244 C187 0.930 . S
H245 C189 0.929 . S
H246 C190 0.930 . S
H247 C191 0.930 . S
H248 C194 0.930 . S
H249 C197 0.929 . S
H250 C202 0.929 . S
H251 C203 0.930 . S
H252 C210 0.929 . S
H253 C211 0.930 . S
H254 C212 0.930 . S
H255 C213 0.930 . S
H256 C215 0.929 . S
H257 C216 0.930 . S
H258 C217 0.930 . S
H259 C218 0.930 . S
H260 C222 0.929 . S
H261 C224 0.930 . S
H262 C230 0.929 . S
H263 C231 0.930 . S
Li264 N281 1.990 . S
Li264 O324 1.956 . S
Li264 O325 1.970 . S
Li264 O326 1.961 . S
Li265 N289 1.990 . S
Li265 O324 1.970 . S
Li265 O325 1.956 . S
Li265 O327 1.961 . S
Li266 N311 1.990 . S
Li266 O324 1.961 . S
Li266 O326 1.956 . S
Li266 O327 1.970 . S
Li267 N317 1.990 . S
Li267 O325 1.961 . S
Li267 O326 1.970 . S
Li267 O327 1.956 . S
C268 C270 1.348 . S
C268 C271 1.356 . S
C268 O324 1.325 . S
N269 C272 1.314 . S
N269 C273 1.279 . S
C270 C268 1.348 . S
C270 C272 1.353 . S
C270 H328 0.929 . S
C271 C268 1.356 . S
C271 C273 1.358 . S
C271 H329 0.930 . S
C272 N269 1.314 . S
C272 C270 1.353 . S
C272 H330 0.930 . S
C273 N269 1.279 . S
C273 C271 1.358 . S
C273 H331 0.930 . S
C274 C277 1.348 . S
C274 C278 1.356 . S
C274 O325 1.325 . S
C275 N276 1.279 . S
C275 C278 1.358 . S
C275 H332 0.930 . S
N276 C275 1.279 . S
N276 C279 1.314 . S
C277 C274 1.348 . S
C277 C279 1.353 . S
C277 H333 0.929 . S
C278 C274 1.356 . S
C278 C275 1.358 . S
C278 H334 0.930 . S
C279 N276 1.314 . S
C279 C277 1.353 . S
C279 H335 0.930 . S
C280 N281 1.314 . S
C280 C285 1.353 . S
C280 H286 0.930 . S
N281 Li264 1.990 . S
N281 C280 1.314 . S
N281 C283 1.279 . S
C282 C283 1.358 . S
C282 C284 1.356 . S
C282 H336 0.930 . S
C283 N281 1.279 . S
C283 C282 1.358 . S
C283 H287 0.930 . S
C284 C282 1.356 . S
C284 C285 1.348 . S
C285 C280 1.353 . S
C285 C284 1.348 . S
C285 H337 0.929 . S
H286 C280 0.930 . S
H287 C283 0.930 . S
C288 N289 1.314 . S
C288 C290 1.353 . S
C288 H294 0.930 . S
N289 Li265 1.990 . S
N289 C288 1.314 . S
N289 C292 1.279 . S
C290 C288 1.353 . S
C290 C293 1.348 . S
C290 H338 0.929 . S
C291 C292 1.358 . S
C291 C293 1.356 . S
C291 H339 0.930 . S
C292 N289 1.279 . S
C292 C291 1.358 . S
C292 H295 0.930 . S
C293 C290 1.348 . S
C293 C291 1.356 . S
H294 C288 0.930 . S
H295 C292 0.930 . S
C296 C298 1.348 . S
C296 C299 1.356 . S
C296 O326 1.325 . S
N297 C300 1.314 . S
N297 C301 1.279 . S
C298 C296 1.348 . S
C298 C300 1.353 1_545 S
C298 H340 0.929 . S
C299 C296 1.356 . S
C299 C301 1.358 1_545 S
C299 H341 0.930 . S
C300 N297 1.314 . S
C300 C298 1.353 1_565 S
C300 H342 0.930 . S
C301 N297 1.279 . S
C301 C299 1.358 1_565 S
C301 H343 0.930 . S
C302 C303 1.348 . S
C302 C304 1.356 . S
C302 O327 1.325 . S
C303 C302 1.348 . S
C303 C305 1.353 . S
C303 H344 0.929 . S
C304 C302 1.356 . S
C304 C306 1.358 . S
C304 H345 0.930 . S
C305 C303 1.353 . S
C305 N307 1.311 1_655 S
C305 H346 0.930 . S
C306 C304 1.358 . S
C306 N307 1.275 1_655 S
C306 H347 0.930 . S
N307 C305 1.311 1_455 S
N307 C306 1.275 1_455 S
C308 C310 1.353 . S
C308 N311 1.314 . S
C308 H314 0.930 . S
C309 N311 1.279 . S
C309 C312 1.358 . S
C309 H315 0.930 . S
C310 C308 1.353 . S
C310 C313 1.348 . S
C310 H348 0.929 . S
N311 Li266 1.990 . S
N311 C308 1.314 . S
N311 C309 1.279 . S
C312 C309 1.358 . S
C312 C313 1.356 . S
C312 H349 0.930 . S
C313 C310 1.348 . S
C313 C312 1.356 . S
H314 C308 0.930 . S
H315 C309 0.930 . S
C316 N317 1.314 . S
C316 C318 1.353 . S
C316 H322 0.930 . S
N317 Li267 1.990 . S
N317 C316 1.314 . S
N317 C320 1.279 . S
C318 C316 1.353 . S
C318 C321 1.348 1_655 S
C318 H350 0.929 . S
C319 C320 1.358 1_455 S
C319 C321 1.356 . S
C319 H351 0.930 . S
C320 N317 1.279 . S
C320 C319 1.358 1_655 S
C320 H323 0.930 . S
C321 C318 1.348 1_455 S
C321 C319 1.356 . S
H322 C316 0.930 . S
H323 C320 0.930 . S
O324 Li264 1.956 . S
O324 Li265 1.970 . S
O324 Li266 1.961 . S
O324 C268 1.325 . S
O325 Li264 1.970 . S
O325 Li265 1.956 . S
O325 Li267 1.961 . S
O325 C274 1.325 . S
O326 Li264 1.961 . S
O326 Li266 1.956 . S
O326 Li267 1.970 . S
O326 C296 1.325 . S
O327 Li265 1.961 . S
O327 Li266 1.970 . S
O327 Li267 1.956 . S
O327 C302 1.325 . S
H328 C270 0.929 . S
H329 C271 0.930 . S
H330 C272 0.930 . S
H331 C273 0.930 . S
H332 C275 0.930 . S
H333 C277 0.929 . S
H334 C278 0.930 . S
H335 C279 0.930 . S
H336 C282 0.930 . S
H337 C285 0.929 . S
H338 C290 0.929 . S
H339 C291 0.930 . S
H340 C298 0.929 . S
H341 C299 0.930 . S
H342 C300 0.930 . S
H343 C301 0.930 . S
H344 C303 0.929 . S
H345 C304 0.930 . S
H346 C305 0.930 . S
H347 C306 0.930 . S
H348 C310 0.929 . S
H349 C312 0.930 . S
H350 C318 0.929 . S
H351 C319 0.930 . S
Li352 N369 1.990 . S
Li352 O412 1.956 . S
Li352 O413 1.970 . S
Li352 O414 1.961 . S
Li353 N377 1.990 . S
Li353 O412 1.970 . S
Li353 O413 1.956 . S
Li353 O415 1.961 . S
Li354 N399 1.990 . S
Li354 O412 1.961 . S
Li354 O414 1.956 . S
Li354 O415 1.970 . S
Li355 N405 1.990 . S
Li355 O413 1.961 . S
Li355 O414 1.970 . S
Li355 O415 1.956 . S
C356 C358 1.348 . S
C356 C359 1.356 . S
C356 O412 1.325 . S
N357 C360 1.314 . S
N357 C361 1.279 . S
C358 C356 1.348 . S
C358 C360 1.353 . S
C358 H416 0.929 . S
C359 C356 1.356 . S
C359 C361 1.358 . S
C359 H417 0.930 . S
C360 N357 1.314 . S
C360 C358 1.353 . S
C360 H418 0.930 . S
C361 N357 1.279 . S
C361 C359 1.358 . S
C361 H419 0.930 . S
C362 C365 1.348 . S
C362 C366 1.356 . S
C362 O413 1.325 . S
C363 N364 1.279 . S
C363 C366 1.358 . S
C363 H420 0.930 . S
N364 C363 1.279 . S
N364 C367 1.314 . S
C365 C362 1.348 . S
C365 C367 1.353 . S
C365 H421 0.929 . S
C366 C362 1.356 . S
C366 C363 1.358 . S
C366 H422 0.930 . S
C367 N364 1.314 . S
C367 C365 1.353 . S
C367 H423 0.930 . S
C368 N369 1.314 . S
C368 C373 1.353 . S
C368 H374 0.930 . S
N369 Li352 1.990 . S
N369 C368 1.314 . S
N369 C371 1.279 . S
C370 C371 1.358 . S
C370 C372 1.356 . S
C370 H424 0.930 . S
C371 N369 1.279 . S
C371 C370 1.358 . S
C371 H375 0.930 . S
C372 C370 1.356 . S
C372 C373 1.348 . S
C373 C368 1.353 . S
C373 C372 1.348 . S
C373 H425 0.929 . S
H374 C368 0.930 . S
H375 C371 0.930 . S
C376 N377 1.314 . S
C376 C378 1.353 1_655 S
C376 H382 0.930 . S
N377 Li353 1.990 . S
N377 C376 1.314 . S
N377 C380 1.279 . S
C378 C376 1.353 1_455 S
C378 C381 1.348 . S
C378 H426 0.929 . S
C379 C380 1.358 . S
C379 C381 1.356 1_655 S
C379 H427 0.930 . S
C380 N377 1.279 . S
C380 C379 1.358 . S
C380 H383 0.930 . S
C381 C378 1.348 . S
C381 C379 1.356 1_455 S
H382 C376 0.930 . S
H383 C380 0.930 . S
C384 C386 1.348 . S
C384 C387 1.356 . S
C384 O414 1.325 . S
N385 C388 1.314 . S
N385 C389 1.279 . S
C386 C384 1.348 . S
C386 C388 1.353 . S
C386 H428 0.929 . S
C387 C384 1.356 . S
C387 C389 1.358 . S
C387 H429 0.930 . S
C388 N385 1.314 . S
C388 C386 1.353 . S
C388 H430 0.930 . S
C389 N385 1.279 . S
C389 C387 1.358 . S
C389 H431 0.930 . S
C390 C391 1.348 . S
C390 C392 1.356 . S
C390 O415 1.325 . S
C391 C390 1.348 . S
C391 C393 1.353 . S
C391 H432 0.929 . S
C392 C390 1.356 . S
C392 C394 1.358 . S
C392 H433 0.930 . S
C393 C391 1.353 . S
C393 N395 1.314 . S
C393 H434 0.930 . S
C394 C392 1.358 . S
C394 N395 1.279 . S
C394 H435 0.930 1_655 S
N395 C393 1.314 . S
N395 C394 1.279 . S
C396 C398 1.353 . S
C396 N399 1.314 . S
C396 H402 0.930 . S
C397 N399 1.279 . S
C397 C400 1.358 . S
C397 H403 0.930 . S
C398 C396 1.353 . S
C398 C401 1.348 . S
C398 H436 0.929 . S
N399 Li354 1.990 . S
N399 C396 1.314 . S
N399 C397 1.279 . S
C400 C397 1.358 . S
C400 C401 1.356 . S
C400 H437 0.930 . S
C401 C398 1.348 . S
C401 C400 1.356 . S
H402 C396 0.930 . S
H403 C397 0.930 . S
C404 N405 1.314 . S
C404 C406 1.353 . S
C404 H410 0.930 . S
N405 Li355 1.990 . S
N405 C404 1.314 . S
N405 C408 1.279 . S
C406 C404 1.353 . S
C406 C409 1.348 . S
C406 H438 0.929 . S
C407 C408 1.358 . S
C407 C409 1.356 . S
C407 H439 0.930 . S
C408 N405 1.279 . S
C408 C407 1.358 . S
C408 H411 0.930 . S
C409 C406 1.348 . S
C409 C407 1.356 . S
H410 C404 0.930 . S
H411 C408 0.930 . S
O412 Li352 1.956 . S
O412 Li353 1.970 . S
O412 Li354 1.961 . S
O412 C356 1.325 . S
O413 Li352 1.970 . S
O413 Li353 1.956 . S
O413 Li355 1.961 . S
O413 C362 1.325 . S
O414 Li352 1.961 . S
O414 Li354 1.956 . S
O414 Li355 1.970 . S
O414 C384 1.325 . S
O415 Li353 1.961 . S
O415 Li354 1.970 . S
O415 Li355 1.956 . S
O415 C390 1.325 . S
H416 C358 0.929 . S
H417 C359 0.930 . S
H418 C360 0.930 . S
H419 C361 0.930 . S
H420 C363 0.930 . S
H421 C365 0.929 . S
H422 C366 0.930 . S
H423 C367 0.930 . S
H424 C370 0.930 . S
H425 C373 0.929 . S
H426 C378 0.929 . S
H427 C379 0.930 . S
H428 C386 0.929 . S
H429 C387 0.930 . S
H430 C388 0.930 . S
H431 C389 0.930 . S
H432 C391 0.929 . S
H433 C392 0.930 . S
H434 C393 0.930 . S
H435 C394 0.930 1_455 S
H436 C398 0.929 . S
H437 C400 0.930 . S
H438 C406 0.929 . S
H439 C407 0.930 . S
Li440 N457 1.990 . S
Li440 O500 1.956 . S
Li440 O501 1.970 . S
Li440 O502 1.961 . S
Li441 N465 1.990 . S
Li441 O500 1.970 . S
Li441 O501 1.956 . S
Li441 O503 1.961 . S
Li442 N487 1.990 . S
Li442 O500 1.961 . S
Li442 O502 1.956 . S
Li442 O503 1.970 . S
Li443 N493 1.990 . S
Li443 O501 1.961 . S
Li443 O502 1.970 . S
Li443 O503 1.956 . S
C444 C446 1.348 . S
C444 C447 1.356 . S
C444 O500 1.325 . S
N445 C448 1.314 . S
N445 C449 1.279 . S
C446 C444 1.348 . S
C446 C448 1.353 . S
C446 H504 0.929 . S
C447 C444 1.356 . S
C447 C449 1.358 . S
C447 H505 0.930 . S
C448 N445 1.314 . S
C448 C446 1.353 . S
C448 H506 0.930 . S
C449 N445 1.279 . S
C449 C447 1.358 . S
C449 H507 0.930 . S
C450 C453 1.348 . S
C450 C454 1.356 . S
C450 O501 1.325 . S
C451 N452 1.279 . S
C451 C454 1.358 1_565 S
C451 H508 0.930 . S
N452 C451 1.279 . S
N452 C455 1.314 . S
C453 C450 1.348 . S
C453 C455 1.353 1_545 S
C453 H509 0.929 . S
C454 C450 1.356 . S
C454 C451 1.358 1_545 S
C454 H510 0.930 . S
C455 N452 1.314 . S
C455 C453 1.353 1_565 S
C455 H511 0.930 . S
C456 N457 1.314 . S
C456 C461 1.353 . S
C456 H462 0.930 . S
N457 Li440 1.990 . S
N457 C456 1.314 . S
N457 C459 1.279 . S
C458 C459 1.358 . S
C458 C460 1.356 . S
C458 H512 0.930 . S
C459 N457 1.279 . S
C459 C458 1.358 . S
C459 H463 0.930 . S
C460 C458 1.356 . S
C460 C461 1.348 . S
C461 C456 1.353 . S
C461 C460 1.348 . S
C461 H513 0.929 . S
H462 C456 0.930 . S
H463 C459 0.930 . S
C464 N465 1.314 . S
C464 C466 1.353 . S
C464 H470 0.930 . S
N465 Li441 1.990 . S
N465 C464 1.314 . S
N465 C468 1.279 . S
C466 C464 1.353 . S
C466 C469 1.348 . S
C466 H514 0.929 . S
C467 C468 1.358 . S
C467 C469 1.356 . S
C467 H515 0.893 1_545 S
C468 N465 1.279 . S
C468 C467 1.358 . S
C468 H471 0.930 . S
C469 C466 1.348 . S
C469 C467 1.356 . S
H470 C464 0.930 . S
H471 C468 0.930 . S
C472 C474 1.348 . S
C472 C475 1.356 . S
C472 O502 1.325 . S
N473 C476 1.314 . S
N473 C477 1.279 . S
C474 C472 1.348 . S
C474 C476 1.353 . S
C474 H516 0.929 . S
C475 C472 1.356 . S
C475 C477 1.358 . S
C475 H517 0.930 . S
C476 N473 1.314 . S
C476 C474 1.353 . S
C476 H518 0.930 . S
C477 N473 1.279 . S
C477 C475 1.358 . S
C477 H519 0.930 . S
C478 C479 1.348 . S
C478 C480 1.356 . S
C478 O503 1.325 . S
C479 C478 1.348 . S
C479 C481 1.353 . S
C479 H520 0.929 . S
C480 C478 1.356 . S
C480 C482 1.358 . S
C480 H521 0.930 . S
C481 C479 1.353 . S
C481 N483 1.314 . S
C481 H522 0.930 . S
C482 C480 1.358 . S
C482 N483 1.279 . S
C482 H523 0.930 . S
N483 C481 1.314 . S
N483 C482 1.279 . S
C484 C486 1.353 . S
C484 N487 1.314 . S
C484 H490 0.930 . S
C485 N487 1.279 . S
C485 C488 1.358 . S
C485 H491 0.930 . S
C486 C484 1.353 . S
C486 C489 1.348 . S
C486 H524 0.929 . S
N487 Li442 1.990 . S
N487 C484 1.314 . S
N487 C485 1.279 . S
C488 C485 1.358 . S
C488 C489 1.356 . S
C488 H525 0.930 . S
C489 C486 1.348 . S
C489 C488 1.356 . S
H490 C484 0.930 . S
H491 C485 0.930 . S
C492 N493 1.314 . S
C492 C494 1.353 . S
C492 H498 0.930 . S
N493 Li443 1.990 . S
N493 C492 1.314 . S
N493 C496 1.279 . S
C494 C492 1.353 . S
C494 C497 1.348 . S
C494 H526 0.929 . S
C495 C496 1.358 . S
C495 C497 1.356 . S
C495 H527 0.930 . S
C496 N493 1.279 . S
C496 C495 1.358 . S
C496 H499 0.930 . S
C497 C494 1.348 . S
C497 C495 1.356 . S
H498 C492 0.930 . S
H499 C496 0.930 . S
O500 Li440 1.956 . S
O500 Li441 1.970 . S
O500 Li442 1.961 . S
O500 C444 1.325 . S
O501 Li440 1.970 . S
O501 Li441 1.956 . S
O501 Li443 1.961 . S
O501 C450 1.325 . S
O502 Li440 1.961 . S
O502 Li442 1.956 . S
O502 Li443 1.970 . S
O502 C472 1.325 . S
O503 Li441 1.961 . S
O503 Li442 1.970 . S
O503 Li443 1.956 . S
O503 C478 1.325 . S
H504 C446 0.929 . S
H505 C447 0.930 . S
H506 C448 0.930 . S
H507 C449 0.930 . S
H508 C451 0.930 . S
H509 C453 0.929 . S
H510 C454 0.930 . S
H511 C455 0.930 . S
H512 C458 0.930 . S
H513 C461 0.929 . S
H514 C466 0.929 . S
H515 C467 0.893 1_565 S
H516 C474 0.929 . S
H517 C475 0.930 . S
H518 C476 0.930 . S
H519 C477 0.930 . S
H520 C479 0.929 . S
H521 C480 0.930 . S
H522 C481 0.930 . S
H523 C482 0.930 . S
H524 C486 0.929 . S
H525 C488 0.930 . S
H526 C494 0.929 . S
H527 C495 0.930 . S
Li528 N545 1.990 . S
Li528 O588 1.956 . S
Li528 O589 1.970 . S
Li528 O590 1.961 . S
Li529 N553 1.990 . S
Li529 O588 1.970 . S
Li529 O589 1.956 . S
Li529 O591 1.961 . S
Li530 N575 1.990 . S
Li530 O588 1.961 . S
Li530 O590 1.956 . S
Li530 O591 1.970 . S
Li531 N581 1.990 . S
Li531 O589 1.961 . S
Li531 O590 1.970 . S
Li531 O591 1.956 . S
C532 C534 1.348 . S
C532 C535 1.356 . S
C532 O588 1.325 . S
N533 C536 1.314 . S
N533 C537 1.279 . S
C534 C532 1.348 . S
C534 C536 1.353 . S
C534 H592 0.929 . S
C535 C532 1.356 . S
C535 C537 1.358 . S
C535 H593 0.930 . S
C536 N533 1.314 . S
C536 C534 1.353 . S
C536 H594 0.930 . S
C537 N533 1.279 . S
C537 C535 1.358 . S
C537 H595 0.930 . S
C538 C541 1.348 . S
C538 C542 1.356 . S
C538 O589 1.325 . S
C539 N540 1.279 . S
C539 C542 1.358 . S
C539 H596 0.930 . S
N540 C539 1.279 . S
N540 C543 1.314 . S
C541 C538 1.348 . S
C541 C543 1.353 . S
C541 H597 0.929 . S
C542 C538 1.356 . S
C542 C539 1.358 . S
C542 H598 0.930 . S
C543 N540 1.314 . S
C543 C541 1.353 . S
C543 H599 0.930 . S
C544 N545 1.314 . S
C544 C549 1.353 . S
C544 H550 0.930 . S
N545 Li528 1.990 . S
N545 C544 1.314 . S
N545 C547 1.279 . S
C546 C547 1.358 . S
C546 C548 1.356 . S
C546 H600 0.930 . S
C547 N545 1.279 . S
C547 C546 1.358 . S
C547 H551 0.930 . S
C548 C546 1.356 . S
C548 C549 1.348 . S
C549 C544 1.353 . S
C549 C548 1.348 . S
C549 H601 0.929 . S
H550 C544 0.930 . S
H551 C547 0.930 . S
C552 N553 1.314 . S
C552 C554 1.353 . S
C552 H558 0.930 . S
N553 Li529 1.990 . S
N553 C552 1.314 . S
N553 C556 1.279 . S
C554 C552 1.353 . S
C554 C557 1.348 . S
C554 H602 0.929 . S
C555 C556 1.358 . S
C555 C557 1.356 . S
C555 H603 0.930 . S
C556 N553 1.279 . S
C556 C555 1.358 . S
C556 H559 0.930 . S
C557 C554 1.348 . S
C557 C555 1.356 . S
H558 C552 0.930 . S
H559 C556 0.930 . S
C560 C562 1.348 . S
C560 C563 1.356 . S
C560 O590 1.325 . S
N561 C564 1.314 . S
N561 C565 1.279 . S
C562 C560 1.348 . S
C562 C564 1.353 . S
C562 H604 0.929 . S
C563 C560 1.356 . S
C563 C565 1.358 . S
C563 H605 0.930 . S
C564 N561 1.314 . S
C564 C562 1.353 . S
C564 H606 0.930 . S
C565 N561 1.279 . S
C565 C563 1.358 . S
C565 H607 0.930 . S
C566 C567 1.348 . S
C566 C568 1.356 . S
C566 O591 1.325 . S
C567 C566 1.348 . S
C567 C569 1.353 . S
C567 H608 0.929 . S
C568 C566 1.356 . S
C568 C570 1.358 . S
C568 H609 0.930 . S
C569 C567 1.353 . S
C569 N571 1.314 . S
C569 H610 0.930 . S
C570 C568 1.358 . S
C570 N571 1.279 . S
C570 H611 0.930 . S
N571 C569 1.314 . S
N571 C570 1.279 . S
C572 C574 1.353 . S
C572 N575 1.314 . S
C572 H578 0.930 . S
C573 N575 1.279 . S
C573 C576 1.358 . S
C573 H579 0.930 . S
C574 C572 1.353 . S
C574 C577 1.348 . S
C574 H612 0.929 . S
N575 Li530 1.990 . S
N575 C572 1.314 . S
N575 C573 1.279 . S
C576 C573 1.358 . S
C576 C577 1.356 . S
C576 H613 0.930 . S
C577 C574 1.348 . S
C577 C576 1.356 . S
H578 C572 0.930 . S
H579 C573 0.930 . S
C580 N581 1.314 . S
C580 C582 1.353 . S
C580 H586 0.930 . S
N581 Li531 1.990 . S
N581 C580 1.314 . S
N581 C584 1.279 . S
C582 C580 1.353 . S
C582 C585 1.348 . S
C582 H614 0.929 . S
C583 C584 1.358 . S
C583 C585 1.356 . S
C583 H615 0.930 . S
C584 N581 1.279 . S
C584 C583 1.358 . S
C584 H587 0.930 . S
C585 C582 1.348 . S
C585 C583 1.356 . S
H586 C580 0.930 . S
H587 C584 0.930 . S
O588 Li528 1.956 . S
O588 Li529 1.970 . S
O588 Li530 1.961 . S
O588 C532 1.325 . S
O589 Li528 1.970 . S
O589 Li529 1.956 . S
O589 Li531 1.961 . S
O589 C538 1.325 . S
O590 Li528 1.961 . S
O590 Li530 1.956 . S
O590 Li531 1.970 . S
O590 C560 1.325 . S
O591 Li529 1.961 . S
O591 Li530 1.970 . S
O591 Li531 1.956 . S
O591 C566 1.325 . S
H592 C534 0.929 . S
H593 C535 0.930 . S
H594 C536 0.930 . S
H595 C537 0.930 . S
H596 C539 0.930 . S
H597 C541 0.929 . S
H598 C542 0.930 . S
H599 C543 0.930 . S
H600 C546 0.930 . S
H601 C549 0.929 . S
H602 C554 0.929 . S
H603 C555 0.930 . S
H604 C562 0.929 . S
H605 C563 0.930 . S
H606 C564 0.930 . S
H607 C565 0.930 . S
H608 C567 0.929 . S
H609 C568 0.930 . S
H610 C569 0.930 . S
H611 C570 0.930 . S
H612 C574 0.929 . S
H613 C576 0.930 . S
H614 C582 0.929 . S
H615 C583 0.930 . S
Li616 N633 1.990 . S
Li616 O676 1.956 . S
Li616 O677 1.970 . S
Li616 O678 1.961 . S
Li617 N641 1.990 . S
Li617 O676 1.970 . S
Li617 O677 1.956 . S
Li617 O679 1.961 . S
Li618 N663 1.990 . S
Li618 O676 1.961 . S
Li618 O678 1.956 . S
Li618 O679 1.970 . S
Li619 N669 1.990 . S
Li619 O677 1.961 . S
Li619 O678 1.970 . S
Li619 O679 1.956 . S
C620 C622 1.348 . S
C620 C623 1.356 . S
C620 O676 1.325 . S
N621 C624 1.314 . S
N621 C625 1.279 . S
C622 C620 1.348 . S
C622 C624 1.353 . S
C622 H680 0.929 . S
C623 C620 1.356 . S
C623 C625 1.358 . S
C623 H681 0.930 . S
C624 N621 1.314 . S
C624 C622 1.353 . S
C624 H682 0.930 . S
C625 N621 1.279 . S
C625 C623 1.358 . S
C625 H683 0.930 . S
C626 C629 1.348 . S
C626 C630 1.356 . S
C626 O677 1.325 . S
C627 N628 1.279 . S
C627 C630 1.358 . S
C627 H684 0.930 1_455 S
N628 C627 1.279 . S
N628 C631 1.314 . S
C629 C626 1.348 . S
C629 C631 1.353 . S
C629 H685 0.929 . S
C630 C626 1.356 . S
C630 C627 1.358 . S
C630 H686 0.930 . S
C631 N628 1.314 . S
C631 C629 1.353 . S
C631 H687 0.930 . S
C632 N633 1.314 . S
C632 C637 1.353 . S
C632 H638 0.930 . S
N633 Li616 1.990 . S
N633 C632 1.314 . S
N633 C635 1.279 . S
C634 C635 1.358 . S
C634 C636 1.356 . S
C634 H688 0.930 . S
C635 N633 1.279 . S
C635 C634 1.358 . S
C635 H639 0.930 . S
C636 C634 1.356 . S
C636 C637 1.348 . S
C637 C632 1.353 . S
C637 C636 1.348 . S
C637 H689 0.929 . S
H638 C632 0.930 . S
H639 C635 0.930 . S
C640 N641 1.314 . S
C640 C642 1.353 . S
C640 H646 0.930 . S
N641 Li617 1.990 . S
N641 C640 1.314 . S
N641 C644 1.279 . S
C642 C640 1.353 . S
C642 C645 1.348 . S
C642 H690 0.929 . S
C643 C644 1.358 . S
C643 C645 1.356 . S
C643 H691 0.930 . S
C644 N641 1.279 . S
C644 C643 1.358 . S
C644 H647 0.930 . S
C645 C642 1.348 . S
C645 C643 1.356 . S
H646 C640 0.930 . S
H647 C644 0.930 . S
C648 C650 1.348 . S
C648 C651 1.356 . S
C648 O678 1.325 . S
N649 C652 1.314 . S
N649 C653 1.279 . S
C650 C648 1.348 . S
C650 C652 1.353 1_565 S
C650 H692 0.929 . S
C651 C648 1.356 . S
C651 C653 1.358 1_565 S
C651 H693 0.930 . S
C652 N649 1.314 . S
C652 C650 1.353 1_545 S
C652 H694 0.930 . S
C653 N649 1.279 . S
C653 C651 1.358 1_545 S
C653 H695 0.930 . S
C654 C655 1.348 . S
C654 C656 1.356 . S
C654 O679 1.325 . S
C655 C654 1.348 . S
C655 C657 1.353 . S
C655 H696 0.929 . S
C656 C654 1.356 . S
C656 C658 1.358 . S
C656 H697 0.930 . S
C657 C655 1.353 . S
C657 N659 1.314 . S
C657 H698 0.930 . S
C658 C656 1.358 . S
C658 N659 1.279 . S
C658 H699 0.930 . S
N659 C657 1.314 . S
N659 C658 1.279 . S
C660 C662 1.353 . S
C660 N663 1.314 . S
C660 H666 0.930 . S
C661 N663 1.279 . S
C661 C664 1.358 . S
C661 H667 0.930 . S
C662 C660 1.353 . S
C662 C665 1.348 . S
C662 H700 0.929 . S
N663 Li618 1.990 . S
N663 C660 1.314 . S
N663 C661 1.279 . S
C664 C661 1.358 . S
C664 C665 1.356 . S
C664 H701 0.893 1_565 S
C665 C662 1.348 . S
C665 C664 1.356 . S
H666 C660 0.930 . S
H667 C661 0.930 . S
C668 N669 1.314 . S
C668 C670 1.353 1_455 S
C668 H674 0.930 . S
N669 Li619 1.990 . S
N669 C668 1.314 . S
N669 C672 1.279 . S
C670 C668 1.353 1_655 S
C670 C673 1.348 . S
C670 H702 0.929 . S
C671 C672 1.358 . S
C671 C673 1.356 1_455 S
C671 H703 0.930 . S
C672 N669 1.279 . S
C672 C671 1.358 . S
C672 H675 0.930 . S
C673 C670 1.348 . S
C673 C671 1.356 1_655 S
H674 C668 0.930 . S
H675 C672 0.930 . S
O676 Li616 1.956 . S
O676 Li617 1.970 . S
O676 Li618 1.961 . S
O676 C620 1.325 . S
O677 Li616 1.970 . S
O677 Li617 1.956 . S
O677 Li619 1.961 . S
O677 C626 1.325 . S
O678 Li616 1.961 . S
O678 Li618 1.956 . S
O678 Li619 1.970 . S
O678 C648 1.325 . S
O679 Li617 1.961 . S
O679 Li618 1.970 . S
O679 Li619 1.956 . S
O679 C654 1.325 . S
H680 C622 0.929 . S
H681 C623 0.930 . S
H682 C624 0.930 . S
H683 C625 0.930 . S
H684 C627 0.930 1_655 S
H685 C629 0.929 . S
H686 C630 0.930 . S
H687 C631 0.930 . S
H688 C634 0.930 . S
H689 C637 0.929 . S
H690 C642 0.929 . S
H691 C643 0.930 . S
H692 C650 0.929 . S
H693 C651 0.930 . S
H694 C652 0.930 . S
H695 C653 0.930 . S
H696 C655 0.929 . S
H697 C656 0.930 . S
H698 C657 0.930 . S
H699 C658 0.930 . S
H700 C662 0.929 . S
H701 C664 0.893 1_545 S
H702 C670 0.929 . S
H703 C671 0.930 . S
H704 C722 0.951 . S
H705 C724 0.951 . S
H706 C726 0.950 . S
H707 C727 0.950 . S
H708 C729 0.950 . S
H709 C732 0.950 . S
H710 C733 0.950 . S
H711 C735 0.950 . S
H712 C736 0.950 . S
H713 C737 0.951 . S
H714 C739 0.951 . S
H715 C741 0.950 . S
H716 C742 0.950 . S
H717 C744 0.950 . S
H718 C747 0.950 . S
H719 C748 0.950 . S
H720 C750 0.950 . S
H721 C751 0.950 . S
C722 H704 0.951 . S
C722 C723 1.366 . S
C722 C724 1.388 . S
C723 C722 1.366 . S
C723 C727 1.385 . S
C724 H705 0.951 . S
C724 C722 1.388 . S
C724 C725 1.366 . S
C725 C724 1.366 . S
C725 C726 1.414 . S
C725 C728 1.499 . S
C726 H706 0.950 . S
C726 C725 1.414 . S
C726 C727 1.374 . S
C727 H707 0.950 . S
C727 C723 1.385 . S
C727 C726 1.374 . S
C728 C725 1.499 . S
C728 C729 1.373 . S
C728 C730 1.389 . S
C729 H708 0.950 . S
C729 C728 1.373 . S
C729 C745 1.377 . S
C730 C728 1.389 . S
C730 C731 1.524 . S
C730 C744 1.377 . S
C731 C730 1.524 . S
C731 C732 1.397 . S
C731 C736 1.363 . S
C732 H709 0.950 . S
C732 C731 1.397 . S
C732 C733 1.334 . S
C733 H710 0.950 . S
C733 C732 1.334 . S
C733 C734 1.287 . S
C734 C733 1.287 . S
C734 C735 1.524 . S
C734 H753 0.913 . S
C735 H711 0.950 . S
C735 C734 1.524 . S
C735 C736 1.415 . S
C736 H712 0.950 . S
C736 C731 1.363 . S
C736 C735 1.415 . S
C737 H713 0.951 . S
C737 C738 1.366 . S
C737 C739 1.388 . S
C738 C737 1.366 . S
C738 C742 1.385 . S
C739 H714 0.951 . S
C739 C737 1.388 . S
C739 C740 1.366 . S
C740 C739 1.366 . S
C740 C741 1.414 . S
C740 C743 1.499 . S
C741 H715 0.950 . S
C741 C740 1.414 . S
C741 C742 1.374 . S
C742 H716 0.950 . S
C742 C738 1.385 . S
C742 C741 1.374 . S
C743 C740 1.499 . S
C743 C744 1.373 . S
C743 C745 1.389 . S
C744 H717 0.950 . S
C744 C730 1.377 . S
C744 C743 1.373 . S
C745 C729 1.377 . S
C745 C743 1.389 . S
C745 C746 1.524 . S
C746 C745 1.524 . S
C746 C747 1.397 . S
C746 C751 1.363 . S
C747 H718 0.950 . S
C747 C746 1.397 . S
C747 C748 1.334 . S
C748 H719 0.950 . S
C748 C747 1.334 . S
C748 C749 1.287 . S
C749 C748 1.287 . S
C749 C750 1.524 . S
C749 H752 0.999 . S
C750 H720 0.950 . S
C750 C749 1.524 . S
C750 C751 1.415 . S
C751 H721 0.950 . S
C751 C746 1.363 . S
C751 C750 1.415 . S
H752 C749 0.999 . S
H753 C734 0.913 . S
H754 C772 0.951 . S
H755 C774 0.951 . S
H756 C776 0.950 . S
H757 C777 0.950 1_655 S
H758 C779 0.950 . S
H759 C782 0.950 . S
H760 C783 0.950 . S
H761 C785 0.950 . S
H762 C786 0.950 . S
H763 C787 0.951 . S
H764 C789 0.975 . S
H765 C791 0.950 . S
H766 C792 0.950 . S
H767 C794 0.950 . S
H768 C797 0.950 . S
H769 C798 0.950 . S
H770 C800 0.950 . S
H771 C801 0.950 . S
C772 H754 0.951 . S
C772 C773 1.366 . S
C772 C774 1.388 . S
C773 C772 1.366 . S
C773 C777 1.385 . S
C774 H755 0.951 . S
C774 C772 1.388 . S
C774 C775 1.366 . S
C775 C774 1.366 . S
C775 C776 1.414 . S
C775 C778 1.499 . S
C776 H756 0.950 . S
C776 C775 1.414 . S
C776 C777 1.374 . S
C777 H757 0.950 1_455 S
C777 C773 1.385 . S
C777 C776 1.374 . S
C778 C775 1.499 . S
C778 C779 1.373 . S
C778 C780 1.389 . S
C779 H758 0.950 . S
C779 C778 1.373 . S
C779 C795 1.377 . S
C780 C778 1.389 . S
C780 C781 1.524 1_545 S
C780 C794 1.377 1_545 S
C781 C780 1.524 1_565 S
C781 C782 1.397 . S
C781 C786 1.363 . S
C782 H759 0.950 . S
C782 C781 1.397 . S
C782 C783 1.334 . S
C783 H760 0.950 . S
C783 C782 1.334 . S
C783 C784 1.287 . S
C784 C783 1.287 . S
C784 C785 1.524 . S
C784 H803 0.913 . S
C785 H761 0.950 . S
C785 C784 1.524 . S
C785 C786 1.415 . S
C786 H762 0.950 . S
C786 C781 1.363 . S
C786 C785 1.415 . S
C787 H763 0.951 . S
C787 C788 1.366 . S
C787 C789 1.368 1_565 S
C788 C787 1.366 . S
C788 C792 1.385 . S
C789 H764 0.975 . S
C789 C787 1.368 1_545 S
C789 C790 1.365 . S
C790 C789 1.365 . S
C790 C791 1.414 1_545 S
C790 C793 1.498 . S
C791 H765 0.950 . S
C791 C790 1.414 1_565 S
C791 C792 1.374 . S
C792 H766 0.950 . S
C792 C788 1.385 . S
C792 C791 1.374 . S
C793 C790 1.498 . S
C793 C794 1.373 1_545 S
C793 C795 1.389 . S
C794 H767 0.950 . S
C794 C780 1.377 1_565 S
C794 C793 1.373 1_565 S
C795 C779 1.377 . S
C795 C793 1.389 . S
C795 C796 1.524 . S
C796 C795 1.524 . S
C796 C797 1.397 . S
C796 C801 1.363 . S
C797 H768 0.950 . S
C797 C796 1.397 . S
C797 C798 1.334 . S
C798 H769 0.950 . S
C798 C797 1.334 . S
C798 C799 1.287 . S
C799 C798 1.287 . S
C799 C800 1.524 . S
C799 H802 0.999 . S
C800 H770 0.950 . S
C800 C799 1.524 . S
C800 C801 1.415 . S
C801 H771 0.950 . S
C801 C796 1.363 . S
C801 C800 1.415 . S
H802 C799 0.999 . S
H803 C784 0.913 . S
H804 C822 0.951 . S
H805 C824 0.951 . S
H806 C826 0.950 . S
H807 C827 0.950 . S
H808 C829 0.950 . S
H809 C832 0.950 . S
H810 C833 0.950 . S
H811 C835 0.950 . S
H812 C836 0.950 . S
H813 C837 0.951 . S
H814 C839 0.951 . S
H815 C841 0.950 . S
H816 C842 0.950 . S
H817 C844 0.950 . S
H818 C847 0.950 . S
H819 C848 0.950 . S
H820 C850 0.950 . S
H821 C851 0.950 . S
C822 H804 0.951 . S
C822 C823 1.366 . S
C822 C824 1.388 . S
C823 C822 1.366 . S
C823 C827 1.385 . S
C824 H805 0.951 . S
C824 C822 1.388 . S
C824 C825 1.366 . S
C825 C824 1.366 . S
C825 C826 1.414 . S
C825 C828 1.499 . S
C826 H806 0.950 . S
C826 C825 1.414 . S
C826 C827 1.374 . S
C827 H807 0.950 . S
C827 C823 1.385 . S
C827 C826 1.374 . S
C828 C825 1.499 . S
C828 C829 1.373 . S
C828 C830 1.389 . S
C829 H808 0.950 . S
C829 C828 1.373 . S
C829 C845 1.377 . S
C830 C828 1.389 . S
C830 C831 1.524 . S
C830 C844 1.377 . S
C831 C830 1.524 . S
C831 C832 1.397 . S
C831 C836 1.363 . S
C832 H809 0.950 . S
C832 C831 1.397 . S
C832 C833 1.334 . S
C833 H810 0.950 . S
C833 C832 1.334 . S
C833 C834 1.287 . S
C834 C833 1.287 . S
C834 C835 1.524 . S
C834 H853 0.913 . S
C835 H811 0.950 . S
C835 C834 1.524 . S
C835 C836 1.415 . S
C836 H812 0.950 . S
C836 C831 1.363 . S
C836 C835 1.415 . S
C837 H813 0.951 . S
C837 C838 1.366 . S
C837 C839 1.388 . S
C838 C837 1.366 . S
C838 C842 1.385 . S
C839 H814 0.951 . S
C839 C837 1.388 . S
C839 C840 1.366 . S
C840 C839 1.366 . S
C840 C841 1.414 . S
C840 C843 1.499 . S
C841 H815 0.950 . S
C841 C840 1.414 . S
C841 C842 1.374 . S
C842 H816 0.950 . S
C842 C838 1.385 . S
C842 C841 1.374 . S
C843 C840 1.499 . S
C843 C844 1.373 . S
C843 C845 1.389 . S
C844 H817 0.950 . S
C844 C830 1.377 . S
C844 C843 1.373 . S
C845 C829 1.377 . S
C845 C843 1.389 . S
C845 C846 1.524 . S
C846 C845 1.524 . S
C846 C847 1.397 . S
C846 C851 1.363 . S
C847 H818 0.950 . S
C847 C846 1.397 . S
C847 C848 1.334 . S
C848 H819 0.950 . S
C848 C847 1.334 . S
C848 C849 1.287 . S
C849 C848 1.287 . S
C849 C850 1.524 . S
C849 H852 0.999 . S
C850 H820 0.950 . S
C850 C849 1.524 . S
C850 C851 1.415 . S
C851 H821 0.950 . S
C851 C846 1.363 . S
C851 C850 1.415 . S
H852 C849 0.999 . S
H853 C834 0.913 . S
H854 C872 0.951 . S
H855 C874 0.951 . S
H856 C876 0.950 . S
H857 C877 0.950 1_565 S
H858 C879 0.950 . S
H859 C882 0.950 . S
H860 C883 0.950 . S
H861 C885 0.950 . S
H862 C886 0.950 . S
H863 C887 0.951 . S
H864 C889 0.951 . S
H865 C891 0.950 . S
H866 C892 0.950 . S
H867 C894 0.950 1_545 S
H868 C897 0.950 . S
H869 C898 0.950 . S
H870 C900 0.950 . S
H871 C901 0.950 . S
C872 H854 0.951 . S
C872 C873 1.366 . S
C872 C874 1.388 . S
C873 C872 1.366 . S
C873 C877 1.385 . S
C874 H855 0.951 . S
C874 C872 1.388 . S
C874 C875 1.366 . S
C875 C874 1.366 . S
C875 C876 1.414 1_545 S
C875 C878 1.499 1_545 S
C876 H856 0.950 . S
C876 C875 1.414 1_565 S
C876 C877 1.374 1_565 S
C877 H857 0.950 1_545 S
C877 C873 1.385 . S
C877 C876 1.374 1_545 S
C878 C875 1.499 1_565 S
C878 C879 1.373 . S
C878 C880 1.389 1_565 S
C879 H858 0.950 . S
C879 C878 1.373 . S
C879 C895 1.377 . S
C880 C878 1.389 1_545 S
C880 C881 1.524 . S
C880 C894 1.377 1_545 S
C881 C880 1.524 . S
C881 C882 1.397 . S
C881 C886 1.363 . S
C882 H859 0.950 . S
C882 C881 1.397 . S
C882 C883 1.334 . S
C883 H860 0.950 . S
C883 C882 1.334 . S
C883 C884 1.287 . S
C884 C883 1.287 . S
C884 C885 1.524 . S
C884 H903 0.913 . S
C885 H861 0.950 . S
C885 C884 1.524 . S
C885 C886 1.415 . S
C886 H862 0.950 . S
C886 C881 1.363 . S
C886 C885 1.415 . S
C887 H863 0.951 . S
C887 C888 1.366 . S
C887 C889 1.388 . S
C888 C887 1.366 . S
C888 C892 1.385 . S
C889 H864 0.951 . S
C889 C887 1.388 . S
C889 C890 1.366 . S
C890 C889 1.366 . S
C890 C891 1.414 . S
C890 C893 1.499 . S
C891 H865 0.950 . S
C891 C890 1.414 . S
C891 C892 1.374 . S
C892 H866 0.950 . S
C892 C888 1.385 . S
C892 C891 1.374 . S
C893 C890 1.499 . S
C893 C894 1.373 . S
C893 C895 1.389 . S
C894 H867 0.950 1_565 S
C894 C880 1.377 1_565 S
C894 C893 1.373 . S
C895 C879 1.377 . S
C895 C893 1.389 . S
C895 C896 1.524 . S
C896 C895 1.524 . S
C896 C897 1.397 . S
C896 C901 1.363 . S
C897 H868 0.950 . S
C897 C896 1.397 . S
C897 C898 1.334 . S
C898 H869 0.950 . S
C898 C897 1.334 . S
C898 C899 1.287 . S
C899 C898 1.287 . S
C899 C900 1.524 . S
C899 H902 0.999 . S
C900 H870 0.950 . S
C900 C899 1.524 . S
C900 C901 1.415 . S
C901 H871 0.950 . S
C901 C896 1.363 . S
C901 C900 1.415 . S
H902 C899 0.999 . S
H903 C884 0.913 . S
H904 C922 0.951 . S
H905 C924 0.951 . S
H906 C926 0.950 . S
H907 C927 0.950 . S
H908 C929 0.950 . S
H909 C932 0.950 . S
H910 C933 0.950 . S
H911 C935 0.950 . S
H912 C936 0.950 . S
H913 C937 0.951 . S
H914 C939 0.951 . S
H915 C941 0.950 . S
H916 C942 0.950 . S
H917 C944 0.950 . S
H918 C947 0.950 . S
H919 C948 0.950 . S
H920 C950 0.950 . S
H921 C951 0.950 . S
C922 H904 0.951 . S
C922 C923 1.366 . S
C922 C924 1.388 . S
C923 C922 1.366 . S
C923 C927 1.385 . S
C924 H905 0.951 . S
C924 C922 1.388 . S
C924 C925 1.366 . S
C925 C924 1.366 . S
C925 C926 1.414 . S
C925 C928 1.499 . S
C926 H906 0.950 . S
C926 C925 1.414 . S
C926 C927 1.374 . S
C927 H907 0.950 . S
C927 C923 1.385 . S
C927 C926 1.374 . S
C928 C925 1.499 . S
C928 C929 1.373 . S
C928 C930 1.389 . S
C929 H908 0.950 . S
C929 C928 1.373 . S
C929 C945 1.377 . S
C930 C928 1.389 . S
C930 C931 1.524 . S
C930 C944 1.377 . S
C931 C930 1.524 . S
C931 C932 1.397 . S
C931 C936 1.363 . S
C932 H909 0.950 . S
C932 C931 1.397 . S
C932 C933 1.334 . S
C933 H910 0.950 . S
C933 C932 1.334 . S
C933 C934 1.287 . S
C934 C933 1.287 . S
C934 C935 1.524 . S
C934 H953 0.913 . S
C935 H911 0.950 . S
C935 C934 1.524 . S
C935 C936 1.415 . S
C936 H912 0.950 . S
C936 C931 1.363 . S
C936 C935 1.415 . S
C937 H913 0.951 . S
C937 C938 1.366 . S
C937 C939 1.388 . S
C938 C937 1.366 . S
C938 C942 1.385 . S
C939 H914 0.951 . S
C939 C937 1.388 . S
C939 C940 1.366 . S
C940 C939 1.366 . S
C940 C941 1.414 . S
C940 C943 1.499 . S
C941 H915 0.950 . S
C941 C940 1.414 . S
C941 C942 1.374 . S
C942 H916 0.950 . S
C942 C938 1.385 . S
C942 C941 1.374 . S
C943 C940 1.499 . S
C943 C944 1.373 . S
C943 C945 1.389 . S
C944 H917 0.950 . S
C944 C930 1.377 . S
C944 C943 1.373 . S
C945 C929 1.377 . S
C945 C943 1.389 . S
C945 C946 1.524 . S
C946 C945 1.524 . S
C946 C947 1.397 . S
C946 C951 1.363 . S
C947 H918 0.950 . S
C947 C946 1.397 . S
C947 C948 1.334 . S
C948 H919 0.950 . S
C948 C947 1.334 . S
C948 C949 1.287 . S
C949 C948 1.287 . S
C949 C950 1.524 . S
C949 H952 0.999 . S
C950 H920 0.950 . S
C950 C949 1.524 . S
C950 C951 1.415 . S
C951 H921 0.950 . S
C951 C946 1.363 . S
C951 C950 1.415 . S
H952 C949 0.999 . S
H953 C934 0.913 . S
H954 C972 0.951 . S
H955 C974 0.951 . S
H956 C976 0.971 . S
H957 C977 0.950 . S
H958 C979 0.950 . S
H959 C982 0.950 . S
H960 C983 0.950 . S
H961 C985 0.950 . S
H962 C986 0.950 . S
H963 C987 0.951 . S
H964 C989 0.951 . S
H965 C991 0.950 . S
H966 C992 0.950 . S
H967 C994 0.950 1_545 S
H968 C997 0.950 . S
H969 C998 0.950 . S
H970 C1000 0.950 . S
H971 C1001 0.950 . S
C972 H954 0.951 . S
C972 C973 1.366 . S
C972 C974 1.388 . S
C973 C972 1.366 . S
C973 C977 1.385 . S
C974 H955 0.951 . S
C974 C972 1.388 . S
C974 C975 1.366 . S
C975 C974 1.366 . S
C975 C976 1.410 1_545 S
C975 C978 1.499 1_545 S
C976 H956 0.971 . S
C976 C975 1.410 1_565 S
C976 C977 1.359 1_565 S
C977 H957 0.950 . S
C977 C973 1.385 . S
C977 C976 1.359 1_545 S
C978 C975 1.499 1_565 S
C978 C979 1.373 . S
C978 C980 1.389 1_565 S
C979 H958 0.950 . S
C979 C978 1.373 . S
C979 C995 1.377 . S
C980 C978 1.389 1_545 S
C980 C981 1.524 . S
C980 C994 1.377 1_545 S
C981 C980 1.524 . S
C981 C982 1.397 . S
C981 C986 1.363 . S
C982 H959 0.950 . S
C982 C981 1.397 . S
C982 C983 1.334 . S
C983 H960 0.950 . S
C983 C982 1.334 . S
C983 C984 1.287 . S
C984 C983 1.287 . S
C984 C985 1.524 . S
C984 H1003 0.913 . S
C985 H961 0.950 . S
C985 C984 1.524 . S
C985 C986 1.415 . S
C986 H962 0.950 . S
C986 C981 1.363 . S
C986 C985 1.415 . S
C987 H963 0.951 . S
C987 C988 1.366 . S
C987 C989 1.388 . S
C988 C987 1.366 . S
C988 C992 1.385 . S
C989 H964 0.951 . S
C989 C987 1.388 . S
C989 C990 1.366 . S
C990 C989 1.366 . S
C990 C991 1.414 . S
C990 C993 1.499 . S
C991 H965 0.950 . S
C991 C990 1.414 . S
C991 C992 1.374 . S
C992 H966 0.950 . S
C992 C988 1.385 . S
C992 C991 1.374 . S
C993 C990 1.499 . S
C993 C994 1.373 . S
C993 C995 1.389 . S
C994 H967 0.950 1_565 S
C994 C980 1.377 1_565 S
C994 C993 1.373 . S
C995 C979 1.377 . S
C995 C993 1.389 . S
C995 C996 1.524 . S
C996 C995 1.524 . S
C996 C997 1.397 . S
C996 C1001 1.363 . S
C997 H968 0.950 . S
C997 C996 1.397 . S
C997 C998 1.334 . S
C998 H969 0.950 . S
C998 C997 1.334 . S
C998 C999 1.287 . S
C999 C998 1.287 . S
C999 C1000 1.524 . S
C999 H1002 0.999 . S
C1000 H970 0.950 . S
C1000 C999 1.524 . S
C1000 C1001 1.415 . S
C1001 H971 0.950 . S
C1001 C996 1.363 . S
C1001 C1000 1.415 . S
H1002 C999 0.999 . S
H1003 C984 0.913 . S
H1004 C1022 0.951 . S
H1005 C1024 0.951 . S
H1006 C1026 0.950 . S
H1007 C1027 0.950 . S
H1008 C1029 0.950 . S
H1009 C1032 0.950 . S
H1010 C1033 0.950 . S
H1011 C1035 0.950 . S
H1012 C1036 0.950 . S
H1013 C1037 0.951 1_655 S
H1014 C1039 0.951 . S
H1015 C1041 0.950 . S
H1016 C1042 0.950 . S
H1017 C1044 0.950 . S
H1018 C1047 0.950 . S
H1019 C1048 0.950 . S
H1020 C1050 0.950 . S
H1021 C1051 0.950 . S
C1022 H1004 0.951 . S
C1022 C1023 1.366 . S
C1022 C1024 1.388 . S
C1023 C1022 1.366 . S
C1023 C1027 1.385 . S
C1024 H1005 0.951 . S
C1024 C1022 1.388 . S
C1024 C1025 1.366 . S
C1025 C1024 1.366 . S
C1025 C1026 1.414 . S
C1025 C1028 1.499 . S
C1026 H1006 0.950 . S
C1026 C1025 1.414 . S
C1026 C1027 1.374 . S
C1027 H1007 0.950 . S
C1027 C1023 1.385 . S
C1027 C1026 1.374 . S
C1028 C1025 1.499 . S
C1028 C1029 1.373 . S
C1028 C1030 1.389 . S
C1029 H1008 0.950 . S
C1029 C1028 1.373 . S
C1029 C1045 1.377 . S
C1030 C1028 1.389 . S
C1030 C1031 1.524 . S
C1030 C1044 1.377 . S
C1031 C1030 1.524 . S
C1031 C1032 1.397 . S
C1031 C1036 1.363 . S
C1032 H1009 0.950 . S
C1032 C1031 1.397 . S
C1032 C1033 1.334 . S
C1033 H1010 0.950 . S
C1033 C1032 1.334 . S
C1033 C1034 1.287 . S
C1034 C1033 1.287 . S
C1034 C1035 1.524 . S
C1034 H1053 0.913 . S
C1035 H1011 0.950 . S
C1035 C1034 1.524 . S
C1035 C1036 1.415 . S
C1036 H1012 0.950 . S
C1036 C1031 1.363 . S
C1036 C1035 1.415 . S
C1037 H1013 0.951 1_455 S
C1037 C1038 1.366 . S
C1037 C1039 1.388 . S
C1038 C1037 1.366 . S
C1038 C1042 1.385 . S
C1039 H1014 0.951 . S
C1039 C1037 1.388 . S
C1039 C1040 1.366 . S
C1040 C1039 1.366 . S
C1040 C1041 1.414 . S
C1040 C1043 1.499 . S
C1041 H1015 0.950 . S
C1041 C1040 1.414 . S
C1041 C1042 1.374 . S
C1042 H1016 0.950 . S
C1042 C1038 1.385 . S
C1042 C1041 1.374 . S
C1043 C1040 1.499 . S
C1043 C1044 1.373 . S
C1043 C1045 1.389 . S
C1044 H1017 0.950 . S
C1044 C1030 1.377 . S
C1044 C1043 1.373 . S
C1045 C1029 1.377 . S
C1045 C1043 1.389 . S
C1045 C1046 1.524 . S
C1046 C1045 1.524 . S
C1046 C1047 1.397 . S
C1046 C1051 1.363 . S
C1047 H1018 0.950 . S
C1047 C1046 1.397 . S
C1047 C1048 1.334 . S
C1048 H1019 0.950 . S
C1048 C1047 1.334 . S
C1048 C1049 1.287 . S
C1049 C1048 1.287 . S
C1049 C1050 1.524 . S
C1049 H1052 1.006 . S
C1050 H1020 0.950 . S
C1050 C1049 1.524 . S
C1050 C1051 1.415 . S
C1051 H1021 0.950 . S
C1051 C1046 1.363 . S
C1051 C1050 1.415 . S
H1052 C1049 1.006 . S
H1053 C1034 0.913 . S
H1054 C1072 0.951 . S
H1055 C1074 0.951 1_545 S
H1056 C1076 0.950 . S
H1057 C1077 0.950 . S
H1058 C1079 0.950 . S
H1059 C1082 0.950 . S
H1060 C1083 0.950 . S
H1061 C1085 0.950 . S
H1062 C1086 0.950 . S
H1063 C1087 0.951 . S
H1064 C1089 0.951 . S
H1065 C1091 0.950 . S
H1066 C1092 0.950 . S
H1067 C1094 0.950 . S
H1068 C1097 0.950 . S
H1069 C1098 0.950 . S
H1070 C1100 0.950 . S
H1071 C1101 0.950 . S
C1072 H1054 0.951 . S
C1072 C1073 1.366 . S
C1072 C1074 1.388 . S
C1073 C1072 1.366 . S
C1073 C1077 1.385 . S
C1074 H1055 0.951 1_565 S
C1074 C1072 1.388 . S
C1074 C1075 1.366 . S
C1075 C1074 1.366 . S
C1075 C1076 1.414 . S
C1075 C1078 1.499 1_565 S
C1076 H1056 0.950 . S
C1076 C1075 1.414 . S
C1076 C1077 1.374 . S
C1077 H1057 0.950 . S
C1077 C1073 1.385 . S
C1077 C1076 1.374 . S
C1078 C1075 1.499 1_545 S
C1078 C1079 1.373 . S
C1078 C1080 1.400 . S
C1079 H1058 0.950 . S
C1079 C1078 1.373 . S
C1079 C1095 1.377 . S
C1080 C1078 1.400 . S
C1080 C1081 1.497 1_545 S
C1080 C1094 1.393 . S
C1081 C1080 1.497 1_565 S
C1081 C1082 1.397 . S
C1081 C1086 1.363 . S
C1082 H1059 0.950 . S
C1082 C1081 1.397 . S
C1082 C1083 1.334 . S
C1083 H1060 0.950 . S
C1083 C1082 1.334 . S
C1083 C1084 1.287 . S
C1084 C1083 1.287 . S
C1084 C1085 1.524 . S
C1084 H1103 0.913 . S
C1085 H1061 0.950 . S
C1085 C1084 1.524 . S
C1085 C1086 1.415 . S
C1086 H1062 0.950 . S
C1086 C1081 1.363 . S
C1086 C1085 1.415 . S
C1087 H1063 0.951 . S
C1087 C1088 1.366 . S
C1087 C1089 1.388 . S
C1088 C1087 1.366 . S
C1088 C1092 1.385 . S
C1089 H1064 0.951 . S
C1089 C1087 1.388 . S
C1089 C1090 1.366 . S
C1090 C1089 1.366 . S
C1090 C1091 1.414 . S
C1090 C1093 1.499 . S
C1091 H1065 0.950 . S
C1091 C1090 1.414 . S
C1091 C1092 1.374 . S
C1092 H1066 0.950 . S
C1092 C1088 1.385 . S
C1092 C1091 1.374 . S
C1093 C1090 1.499 . S
C1093 C1094 1.373 . S
C1093 C1095 1.389 . S
C1094 H1067 0.950 . S
C1094 C1080 1.393 . S
C1094 C1093 1.373 . S
C1095 C1079 1.377 . S
C1095 C1093 1.389 . S
C1095 C1096 1.524 . S
C1096 C1095 1.524 . S
C1096 C1097 1.397 . S
C1096 C1101 1.363 . S
C1097 H1068 0.950 . S
C1097 C1096 1.397 . S
C1097 C1098 1.334 . S
C1098 H1069 0.950 . S
C1098 C1097 1.334 . S
C1098 C1099 1.287 . S
C1099 C1098 1.287 . S
C1099 C1100 1.524 . S
C1099 H1102 0.999 . S
C1100 H1070 0.950 . S
C1100 C1099 1.524 . S
C1100 C1101 1.415 . S
C1101 H1071 0.950 . S
C1101 C1096 1.363 . S
C1101 C1100 1.415 . S
H1102 C1099 0.999 . S
H1103 C1084 0.913 . S
H1104 C1122 0.951 . S
H1105 C1124 0.951 . S
H1106 C1126 0.950 . S
H1107 C1127 0.950 . S
H1108 C1129 0.950 . S
H1109 C1132 0.950 . S
H1110 C1133 0.950 . S
H1111 C1135 0.950 . S
H1112 C1136 0.950 1_455 S
H1113 C1137 0.951 . S
H1114 C1139 0.951 . S
H1115 C1141 0.950 . S
H1116 C1142 0.950 . S
H1117 C1144 0.950 . S
H1118 C1147 0.950 . S
H1119 C1148 0.950 . S
H1120 C1150 0.950 . S
H1121 C1151 0.950 1_655 S
C1122 H1104 0.951 . S
C1122 C1123 1.366 . S
C1122 C1124 1.388 . S
C1123 C1122 1.366 . S
C1123 C1127 1.385 . S
C1124 H1105 0.951 . S
C1124 C1122 1.388 . S
C1124 C1125 1.366 . S
C1125 C1124 1.366 . S
C1125 C1126 1.414 . S
C1125 C1128 1.499 . S
C1126 H1106 0.950 . S
C1126 C1125 1.414 . S
C1126 C1127 1.374 . S
C1127 H1107 0.950 . S
C1127 C1123 1.385 . S
C1127 C1126 1.374 . S
C1128 C1125 1.499 . S
C1128 C1129 1.373 . S
C1128 C1130 1.389 1_455 S
C1129 H1108 0.950 . S
C1129 C1128 1.373 . S
C1129 C1145 1.377 . S
C1130 C1128 1.389 1_655 S
C1130 C1131 1.524 . S
C1130 C1144 1.377 . S
C1131 C1130 1.524 . S
C1131 C1132 1.397 . S
C1131 C1136 1.363 . S
C1132 H1109 0.950 . S
C1132 C1131 1.397 . S
C1132 C1133 1.334 . S
C1133 H1110 0.950 . S
C1133 C1132 1.334 . S
C1133 C1134 1.287 . S
C1134 C1133 1.287 . S
C1134 C1135 1.524 . S
C1134 H1153 0.913 . S
C1135 H1111 0.950 . S
C1135 C1134 1.524 . S
C1135 C1136 1.415 . S
C1136 H1112 0.950 1_655 S
C1136 C1131 1.363 . S
C1136 C1135 1.415 . S
C1137 H1113 0.951 . S
C1137 C1138 1.366 . S
C1137 C1139 1.388 . S
C1138 C1137 1.366 . S
C1138 C1142 1.385 . S
C1139 H1114 0.951 . S
C1139 C1137 1.388 . S
C1139 C1140 1.366 . S
C1140 C1139 1.366 . S
C1140 C1141 1.414 . S
C1140 C1143 1.499 . S
C1141 H1115 0.950 . S
C1141 C1140 1.414 . S
C1141 C1142 1.374 . S
C1142 H1116 0.950 . S
C1142 C1138 1.385 . S
C1142 C1141 1.374 . S
C1143 C1140 1.499 . S
C1143 C1144 1.373 . S
C1143 C1145 1.389 1_655 S
C1144 H1117 0.950 . S
C1144 C1130 1.377 . S
C1144 C1143 1.373 . S
C1145 C1129 1.377 . S
C1145 C1143 1.389 1_455 S
C1145 C1146 1.524 . S
C1146 C1145 1.524 . S
C1146 C1147 1.397 . S
C1146 C1151 1.363 . S
C1147 H1118 0.950 . S
C1147 C1146 1.397 . S
C1147 C1148 1.334 . S
C1148 H1119 0.950 . S
C1148 C1147 1.334 . S
C1148 C1149 1.287 . S
C1149 C1148 1.287 . S
C1149 C1150 1.524 . S
C1149 H1152 0.999 . S
C1150 H1120 0.950 . S
C1150 C1149 1.524 . S
C1150 C1151 1.415 . S
C1151 H1121 0.950 1_455 S
C1151 C1146 1.363 . S
C1151 C1150 1.415 . S
H1152 C1149 0.999 . S
H1153 C1134 0.913 . S
H1154 C1172 0.951 . S
H1155 C1174 0.951 . S
H1156 C1176 0.946 1_545 S
H1157 C1177 0.950 1_545 S
H1158 C1179 0.950 . S
H1159 C1182 0.946 1_545 S
H1160 C1183 0.950 . S
H1161 C1185 0.950 . S
H1162 C1186 0.950 . S
H1163 C1187 0.951 . S
H1164 C1189 0.951 . S
H1165 C1191 0.950 1_565 S
H1166 C1192 0.950 1_565 S
H1167 C1194 0.950 . S
H1168 C1197 0.943 1_565 S
H1169 C1198 0.950 . S
H1170 C1200 0.950 . S
H1171 C1201 0.950 . S
C1172 H1154 0.951 . S
C1172 C1173 1.366 . S
C1172 C1174 1.388 . S
C1173 C1172 1.366 . S
C1173 C1177 1.385 . S
C1174 H1155 0.951 . S
C1174 C1172 1.388 . S
C1174 C1175 1.366 . S
C1175 C1174 1.366 . S
C1175 C1176 1.417 . S
C1175 C1178 1.499 . S
C1176 H1156 0.946 1_565 S
C1176 C1175 1.417 . S
C1176 C1177 1.375 . S
C1177 H1157 0.950 1_565 S
C1177 C1173 1.385 . S
C1177 C1176 1.375 . S
C1178 C1175 1.499 . S
C1178 C1179 1.373 1_565 S
C1178 C1180 1.389 . S
C1179 H1158 0.950 . S
C1179 C1178 1.373 1_545 S
C1179 C1195 1.377 . S
C1180 C1178 1.389 . S
C1180 C1181 1.524 . S
C1180 C1194 1.377 . S
C1181 C1180 1.524 . S
C1181 C1182 1.397 . S
C1181 C1186 1.363 . S
C1182 H1159 0.946 1_565 S
C1182 C1181 1.397 . S
C1182 C1183 1.334 . S
C1183 H1160 0.950 . S
C1183 C1182 1.334 . S
C1183 C1184 1.287 . S
C1184 C1183 1.287 . S
C1184 C1185 1.524 . S
C1184 H1203 0.913 . S
C1185 H1161 0.950 . S
C1185 C1184 1.524 . S
C1185 C1186 1.415 . S
C1186 H1162 0.950 . S
C1186 C1181 1.363 . S
C1186 C1185 1.415 . S
C1187 H1163 0.951 . S
C1187 C1188 1.366 . S
C1187 C1189 1.388 . S
C1188 C1187 1.366 . S
C1188 C1192 1.385 . S
C1189 H1164 0.951 . S
C1189 C1187 1.388 . S
C1189 C1190 1.366 . S
C1190 C1189 1.366 . S
C1190 C1191 1.414 . S
C1190 C1193 1.499 . S
C1191 H1165 0.950 1_545 S
C1191 C1190 1.414 . S
C1191 C1192 1.374 . S
C1192 H1166 0.950 1_545 S
C1192 C1188 1.385 . S
C1192 C1191 1.374 . S
C1193 C1190 1.499 . S
C1193 C1194 1.373 1_545 S
C1193 C1195 1.389 . S
C1194 H1167 0.950 . S
C1194 C1180 1.377 . S
C1194 C1193 1.373 1_565 S
C1195 C1179 1.377 . S
C1195 C1193 1.389 . S
C1195 C1196 1.524 . S
C1196 C1195 1.524 . S
C1196 C1197 1.397 . S
C1196 C1201 1.363 . S
C1197 H1168 0.943 1_545 S
C1197 C1196 1.397 . S
C1197 C1198 1.334 . S
C1198 H1169 0.950 . S
C1198 C1197 1.334 . S
C1198 C1199 1.287 . S
C1199 C1198 1.287 . S
C1199 C1200 1.524 . S
C1199 H1202 0.999 . S
C1200 H1170 0.950 . S
C1200 C1199 1.524 . S
C1200 C1201 1.415 . S
C1201 H1171 0.950 . S
C1201 C1196 1.363 . S
C1201 C1200 1.415 . S
H1202 C1199 0.999 . S
H1203 C1184 0.913 . S
H1204 C1222 0.951 . S
H1205 C1224 0.951 . S
H1206 C1226 0.950 . S
H1207 C1227 0.950 . S
H1208 C1229 0.950 . S
H1209 C1232 0.950 . S
H1210 C1233 0.950 . S
H1211 C1235 0.950 . S
H1212 C1236 0.950 . S
H1213 C1237 0.951 . S
H1214 C1239 0.951 . S
H1215 C1241 0.950 . S
H1216 C1242 0.950 . S
H1217 C1244 0.950 . S
H1218 C1247 0.950 . S
H1219 C1248 0.950 . S
H1220 C1250 0.950 . S
H1221 C1251 0.950 . S
C1222 H1204 0.951 . S
C1222 C1223 1.366 . S
C1222 C1224 1.388 . S
C1223 C1222 1.366 . S
C1223 C1227 1.385 . S
C1224 H1205 0.951 . S
C1224 C1222 1.388 . S
C1224 C1225 1.366 . S
C1225 C1224 1.366 . S
C1225 C1226 1.414 . S
C1225 C1228 1.499 . S
C1226 H1206 0.950 . S
C1226 C1225 1.414 . S
C1226 C1227 1.374 . S
C1227 H1207 0.950 . S
C1227 C1223 1.385 . S
C1227 C1226 1.374 . S
C1228 C1225 1.499 . S
C1228 C1229 1.373 . S
C1228 C1230 1.371 1_554 S
C1229 H1208 0.950 . S
C1229 C1228 1.373 . S
C1229 C1245 1.375 . S
C1230 C1228 1.371 1_556 S
C1230 C1231 1.526 . S
C1230 C1244 1.395 . S
C1231 C1230 1.526 . S
C1231 C1232 1.397 1_556 S
C1231 C1236 1.363 . S
C1232 H1209 0.950 . S
C1232 C1231 1.397 1_554 S
C1232 C1233 1.334 . S
C1233 H1210 0.950 . S
C1233 C1232 1.334 . S
C1233 C1234 1.287 1_554 S
C1234 C1233 1.287 1_556 S
C1234 C1235 1.524 . S
C1234 H1253 0.913 . S
C1235 H1211 0.950 . S
C1235 C1234 1.524 . S
C1235 C1236 1.415 . S
C1236 H1212 0.950 . S
C1236 C1231 1.363 . S
C1236 C1235 1.415 . S
C1237 H1213 0.951 . S
C1237 C1238 1.366 . S
C1237 C1239 1.388 . S
C1238 C1237 1.366 . S
C1238 C1242 1.385 . S
C1239 H1214 0.951 . S
C1239 C1237 1.388 . S
C1239 C1240 1.366 . S
C1240 C1239 1.366 . S
C1240 C1241 1.414 . S
C1240 C1243 1.499 . S
C1241 H1215 0.950 . S
C1241 C1240 1.414 . S
C1241 C1242 1.374 . S
C1242 H1216 0.950 . S
C1242 C1238 1.385 . S
C1242 C1241 1.374 . S
C1243 C1240 1.499 . S
C1243 C1244 1.373 . S
C1243 C1245 1.391 1_556 S
C1244 H1217 0.950 . S
C1244 C1230 1.395 . S
C1244 C1243 1.373 . S
C1245 C1229 1.375 . S
C1245 C1243 1.391 1_554 S
C1245 C1246 1.524 . S
C1246 C1245 1.524 . S
C1246 C1247 1.397 1_554 S
C1246 C1251 1.363 . S
C1247 H1218 0.950 . S
C1247 C1246 1.397 1_556 S
C1247 C1248 1.334 . S
C1248 H1219 0.950 . S
C1248 C1247 1.334 . S
C1248 C1249 1.287 1_556 S
C1249 C1248 1.287 1_554 S
C1249 C1250 1.524 . S
C1249 H1252 0.999 . S
C1250 H1220 0.950 . S
C1250 C1249 1.524 . S
C1250 C1251 1.415 . S
C1251 H1221 0.950 . S
C1251 C1246 1.363 . S
C1251 C1250 1.415 . S
H1252 C1249 0.999 . S
H1253 C1234 0.913 . S
H1254 C1272 0.951 . S
H1255 C1274 0.951 1_545 S
H1256 C1276 0.950 . S
H1257 C1277 0.950 . S
H1258 C1279 0.950 . S
H1259 C1282 0.950 . S
H1260 C1283 0.950 . S
H1261 C1285 0.950 . S
H1262 C1286 0.950 . S
H1263 C1287 0.951 . S
H1264 C1289 0.951 1_565 S
H1265 C1291 0.950 . S
H1266 C1292 0.950 . S
H1267 C1294 0.950 . S
H1268 C1297 0.950 . S
H1269 C1298 0.950 . S
H1270 C1300 0.950 . S
H1271 C1301 0.950 . S
C1272 H1254 0.951 . S
C1272 C1273 1.366 . S
C1272 C1274 1.388 . S
C1273 C1272 1.366 . S
C1273 C1277 1.385 . S
C1274 H1255 0.951 1_565 S
C1274 C1272 1.388 . S
C1274 C1275 1.366 . S
C1275 C1274 1.366 . S
C1275 C1276 1.414 . S
C1275 C1278 1.499 . S
C1276 H1256 0.950 . S
C1276 C1275 1.414 . S
C1276 C1277 1.374 . S
C1277 H1257 0.950 . S
C1277 C1273 1.385 . S
C1277 C1276 1.374 . S
C1278 C1275 1.499 . S
C1278 C1279 1.366 1_455 S
C1278 C1280 1.389 1_565 S
C1279 H1258 0.950 . S
C1279 C1278 1.366 1_655 S
C1279 C1295 1.384 1_556 S
C1280 C1278 1.389 1_545 S
C1280 C1281 1.524 . S
C1280 C1294 1.363 1_456 S
C1281 C1280 1.524 . S
C1281 C1282 1.397 . S
C1281 C1286 1.363 . S
C1282 H1259 0.950 . S
C1282 C1281 1.397 . S
C1282 C1283 1.334 . S
C1283 H1260 0.950 . S
C1283 C1282 1.334 . S
C1283 C1284 1.287 . S
C1284 C1283 1.287 . S
C1284 C1285 1.524 . S
C1284 H1303 0.913 . S
C1285 H1261 0.950 . S
C1285 C1284 1.524 . S
C1285 C1286 1.415 . S
C1286 H1262 0.950 . S
C1286 C1281 1.363 . S
C1286 C1285 1.415 . S
C1287 H1263 0.951 . S
C1287 C1288 1.366 . S
C1287 C1289 1.388 . S
C1288 C1287 1.366 . S
C1288 C1292 1.385 . S
C1289 H1264 0.951 1_545 S
C1289 C1287 1.388 . S
C1289 C1290 1.366 . S
C1290 C1289 1.366 . S
C1290 C1291 1.414 . S
C1290 C1293 1.499 . S
C1291 H1265 0.950 . S
C1291 C1290 1.414 . S
C1291 C1292 1.374 . S
C1292 H1266 0.950 . S
C1292 C1288 1.385 . S
C1292 C1291 1.374 . S
C1293 C1290 1.499 . S
C1293 C1294 1.387 . S
C1293 C1295 1.389 1_545 S
C1294 H1267 0.950 . S
C1294 C1280 1.363 1_654 S
C1294 C1293 1.387 . S
C1295 C1279 1.384 1_554 S
C1295 C1293 1.389 1_565 S
C1295 C1296 1.524 . S
C1296 C1295 1.524 . S
C1296 C1297 1.397 . S
C1296 C1301 1.363 . S
C1297 H1268 0.950 . S
C1297 C1296 1.397 . S
C1297 C1298 1.334 . S
C1298 H1269 0.950 . S
C1298 C1297 1.334 . S
C1298 C1299 1.287 . S
C1299 C1298 1.287 . S
C1299 C1300 1.524 . S
C1299 H1302 0.999 . S
C1300 H1270 0.950 . S
C1300 C1299 1.524 . S
C1300 C1301 1.415 . S
C1301 H1271 0.950 . S
C1301 C1296 1.363 . S
C1301 C1300 1.415 . S
H1302 C1299 0.999 . S
H1303 C1284 0.913 . S
H1304 C1322 0.951 . S
H1305 C1324 0.951 . S
H1306 C1326 0.950 . S
H1307 C1327 0.950 . S
H1308 C1329 0.950 . S
H1309 C1332 0.950 . S
H1310 C1333 0.950 . S
H1311 C1335 0.950 . S
H1312 C1336 0.950 . S
H1313 C1337 0.951 . S
H1314 C1339 0.951 . S
H1315 C1341 0.950 . S
H1316 C1342 0.950 . S
H1317 C1344 0.950 . S
H1318 C1347 0.950 . S
H1319 C1348 0.950 . S
H1320 C1350 0.950 . S
H1321 C1351 0.950 . S
C1322 H1304 0.951 . S
C1322 C1323 1.366 . S
C1322 C1324 1.388 . S
C1323 C1322 1.366 . S
C1323 C1327 1.385 . S
C1324 H1305 0.951 . S
C1324 C1322 1.388 . S
C1324 C1325 1.366 . S
C1325 C1324 1.366 . S
C1325 C1326 1.414 . S
C1325 C1328 1.499 . S
C1326 H1306 0.950 . S
C1326 C1325 1.414 . S
C1326 C1327 1.374 . S
C1327 H1307 0.950 . S
C1327 C1323 1.385 . S
C1327 C1326 1.374 . S
C1328 C1325 1.499 . S
C1328 C1329 1.373 . S
C1328 C1330 1.389 . S
C1329 H1308 0.950 . S
C1329 C1328 1.373 . S
C1329 C1345 1.377 . S
C1330 C1328 1.389 . S
C1330 C1331 1.524 . S
C1330 C1344 1.377 . S
C1331 C1330 1.524 . S
C1331 C1332 1.397 . S
C1331 C1336 1.363 . S
C1332 H1309 0.950 . S
C1332 C1331 1.397 . S
C1332 C1333 1.334 . S
C1333 H1310 0.950 . S
C1333 C1332 1.334 . S
C1333 C1334 1.287 . S
C1334 C1333 1.287 . S
C1334 C1335 1.524 . S
C1334 H1353 0.913 . S
C1335 H1311 0.950 . S
C1335 C1334 1.524 . S
C1335 C1336 1.415 . S
C1336 H1312 0.950 . S
C1336 C1331 1.363 . S
C1336 C1335 1.415 . S
C1337 H1313 0.951 . S
C1337 C1338 1.366 . S
C1337 C1339 1.388 . S
C1338 C1337 1.366 . S
C1338 C1342 1.385 . S
C1339 H1314 0.951 . S
C1339 C1337 1.388 . S
C1339 C1340 1.366 . S
C1340 C1339 1.366 . S
C1340 C1341 1.414 . S
C1340 C1343 1.499 . S
C1341 H1315 0.950 . S
C1341 C1340 1.414 . S
C1341 C1342 1.374 . S
C1342 H1316 0.950 . S
C1342 C1338 1.385 . S
C1342 C1341 1.374 . S
C1343 C1340 1.499 . S
C1343 C1344 1.373 . S
C1343 C1345 1.389 . S
C1344 H1317 0.950 . S
C1344 C1330 1.377 . S
C1344 C1343 1.373 . S
C1345 C1329 1.377 . S
C1345 C1343 1.389 . S
C1345 C1346 1.524 . S
C1346 C1345 1.524 . S
C1346 C1347 1.397 . S
C1346 C1351 1.363 . S
C1347 H1318 0.950 . S
C1347 C1346 1.397 . S
C1347 C1348 1.334 . S
C1348 H1319 0.950 . S
C1348 C1347 1.334 . S
C1348 C1349 1.287 . S
C1349 C1348 1.287 . S
C1349 C1350 1.524 . S
C1349 H1352 0.999 . S
C1350 H1320 0.950 . S
C1350 C1349 1.524 . S
C1350 C1351 1.415 . S
C1351 H1321 0.950 . S
C1351 C1346 1.363 . S
C1351 C1350 1.415 . S
H1352 C1349 0.999 . S
H1353 C1334 0.913 . S
H1354 C1372 0.951 . S
H1355 C1374 0.951 . S
H1356 C1376 0.950 . S
H1357 C1377 0.950 . S
H1358 C1379 0.950 . S
H1359 C1382 0.950 . S
H1360 C1383 0.950 . S
H1361 C1385 0.950 . S
H1362 C1386 0.950 . S
H1363 C1387 0.951 . S
H1364 C1389 0.951 . S
H1365 C1391 0.950 . S
H1366 C1392 0.950 . S
H1367 C1394 0.950 . S
H1368 C1397 0.950 . S
H1369 C1398 0.950 . S
H1370 C1400 0.950 . S
H1371 C1401 0.950 . S
C1372 H1354 0.951 . S
C1372 C1373 1.366 . S
C1372 C1374 1.388 . S
C1373 C1372 1.366 . S
C1373 C1377 1.385 . S
C1374 H1355 0.951 . S
C1374 C1372 1.388 . S
C1374 C1375 1.366 . S
C1375 C1374 1.366 . S
C1375 C1376 1.414 . S
C1375 C1378 1.499 . S
C1376 H1356 0.950 . S
C1376 C1375 1.414 . S
C1376 C1377 1.374 . S
C1377 H1357 0.950 . S
C1377 C1373 1.385 . S
C1377 C1376 1.374 . S
C1378 C1375 1.499 . S
C1378 C1379 1.373 . S
C1378 C1380 1.389 . S
C1379 H1358 0.950 . S
C1379 C1378 1.373 . S
C1379 C1395 1.377 . S
C1380 C1378 1.389 . S
C1380 C1381 1.524 . S
C1380 C1394 1.377 . S
C1381 C1380 1.524 . S
C1381 C1382 1.397 . S
C1381 C1386 1.363 . S
C1382 H1359 0.950 . S
C1382 C1381 1.397 . S
C1382 C1383 1.334 . S
C1383 H1360 0.950 . S
C1383 C1382 1.334 . S
C1383 C1384 1.287 . S
C1384 C1383 1.287 . S
C1384 C1385 1.524 . S
C1384 H1403 0.913 . S
C1385 H1361 0.950 . S
C1385 C1384 1.524 . S
C1385 C1386 1.415 . S
C1386 H1362 0.950 . S
C1386 C1381 1.363 . S
C1386 C1385 1.415 . S
C1387 H1363 0.951 . S
C1387 C1388 1.366 . S
C1387 C1389 1.388 . S
C1388 C1387 1.366 . S
C1388 C1392 1.385 . S
C1389 H1364 0.951 . S
C1389 C1387 1.388 . S
C1389 C1390 1.366 . S
C1390 C1389 1.366 . S
C1390 C1391 1.414 . S
C1390 C1393 1.499 . S
C1391 H1365 0.950 . S
C1391 C1390 1.414 . S
C1391 C1392 1.374 . S
C1392 H1366 0.950 . S
C1392 C1388 1.385 . S
C1392 C1391 1.374 . S
C1393 C1390 1.499 . S
C1393 C1394 1.373 . S
C1393 C1395 1.389 . S
C1394 H1367 0.950 . S
C1394 C1380 1.377 . S
C1394 C1393 1.373 . S
C1395 C1379 1.377 . S
C1395 C1393 1.389 . S
C1395 C1396 1.524 . S
C1396 C1395 1.524 . S
C1396 C1397 1.397 . S
C1396 C1401 1.363 . S
C1397 H1368 0.950 . S
C1397 C1396 1.397 . S
C1397 C1398 1.334 . S
C1398 H1369 0.950 . S
C1398 C1397 1.334 . S
C1398 C1399 1.287 . S
C1399 C1398 1.287 . S
C1399 C1400 1.524 . S
C1399 H1402 0.999 . S
C1400 H1370 0.950 . S
C1400 C1399 1.524 . S
C1400 C1401 1.415 . S
C1401 H1371 0.950 . S
C1401 C1396 1.363 . S
C1401 C1400 1.415 . S
H1402 C1399 0.999 . S
H1403 C1384 0.913 . S
H1404 C1422 0.951 . S
H1405 C1424 0.951 . S
H1406 C1426 0.950 . S
H1407 C1427 0.950 . S
H1408 C1429 0.950 . S
H1409 C1432 0.950 . S
H1410 C1433 0.950 . S
H1411 C1435 0.950 . S
H1412 C1436 0.950 . S
H1413 C1437 0.951 . S
H1414 C1439 0.951 . S
H1415 C1441 0.950 . S
H1416 C1442 0.950 . S
H1417 C1444 0.950 . S
H1418 C1447 0.950 . S
H1419 C1448 0.950 . S
H1420 C1450 0.950 . S
H1421 C1451 0.950 . S
C1422 H1404 0.951 . S
C1422 C1423 1.366 . S
C1422 C1424 1.388 . S
C1423 C1422 1.366 . S
C1423 C1427 1.385 . S
C1424 H1405 0.951 . S
C1424 C1422 1.388 . S
C1424 C1425 1.366 . S
C1425 C1424 1.366 . S
C1425 C1426 1.414 . S
C1425 C1428 1.499 . S
C1426 H1406 0.950 . S
C1426 C1425 1.414 . S
C1426 C1427 1.374 . S
C1427 H1407 0.950 . S
C1427 C1423 1.385 . S
C1427 C1426 1.374 . S
C1428 C1425 1.499 . S
C1428 C1429 1.373 . S
C1428 C1430 1.389 . S
C1429 H1408 0.950 . S
C1429 C1428 1.373 . S
C1429 C1445 1.377 . S
C1430 C1428 1.389 . S
C1430 C1431 1.524 . S
C1430 C1444 1.377 . S
C1431 C1430 1.524 . S
C1431 C1432 1.397 . S
C1431 C1436 1.363 . S
C1432 H1409 0.950 . S
C1432 C1431 1.397 . S
C1432 C1433 1.334 . S
C1433 H1410 0.950 . S
C1433 C1432 1.334 . S
C1433 C1434 1.287 . S
C1434 C1433 1.287 . S
C1434 C1435 1.524 . S
C1434 H1453 0.913 . S
C1435 H1411 0.950 . S
C1435 C1434 1.524 . S
C1435 C1436 1.415 . S
C1436 H1412 0.950 . S
C1436 C1431 1.363 . S
C1436 C1435 1.415 . S
C1437 H1413 0.951 . S
C1437 C1438 1.366 . S
C1437 C1439 1.388 . S
C1438 C1437 1.366 . S
C1438 C1442 1.385 . S
C1439 H1414 0.951 . S
C1439 C1437 1.388 . S
C1439 C1440 1.366 . S
C1440 C1439 1.366 . S
C1440 C1441 1.414 . S
C1440 C1443 1.499 . S
C1441 H1415 0.950 . S
C1441 C1440 1.414 . S
C1441 C1442 1.374 . S
C1442 H1416 0.950 . S
C1442 C1438 1.385 . S
C1442 C1441 1.374 . S
C1443 C1440 1.499 . S
C1443 C1444 1.373 . S
C1443 C1445 1.389 . S
C1444 H1417 0.950 . S
C1444 C1430 1.377 . S
C1444 C1443 1.373 . S
C1445 C1429 1.377 . S
C1445 C1443 1.389 . S
C1445 C1446 1.524 . S
C1446 C1445 1.524 . S
C1446 C1447 1.397 . S
C1446 C1451 1.363 . S
C1447 H1418 0.950 . S
C1447 C1446 1.397 . S
C1447 C1448 1.334 . S
C1448 H1419 0.950 . S
C1448 C1447 1.334 . S
C1448 C1449 1.287 . S
C1449 C1448 1.287 . S
C1449 C1450 1.524 . S
C1449 H1452 0.999 . S
C1450 H1420 0.950 . S
C1450 C1449 1.524 . S
C1450 C1451 1.415 . S
C1451 H1421 0.950 . S
C1451 C1446 1.363 . S
C1451 C1450 1.415 . S
H1452 C1449 0.999 . S
H1453 C1434 0.913 . S
H1454 C1472 0.951 . S
H1455 C1474 0.951 . S
H1456 C1476 0.950 . S
H1457 C1477 0.950 . S
H1458 C1479 0.950 . S
H1459 C1482 0.950 . S
H1460 C1483 0.950 . S
H1461 C1485 0.950 . S
H1462 C1486 0.950 . S
H1463 C1487 0.951 . S
H1464 C1489 0.951 . S
H1465 C1491 0.950 . S
H1466 C1492 0.950 . S
H1467 C1494 0.950 . S
H1468 C1497 0.950 . S
H1469 C1498 0.950 . S
H1470 C1500 0.950 . S
H1471 C1501 0.950 . S
C1472 H1454 0.951 . S
C1472 C1473 1.366 . S
C1472 C1474 1.388 . S
C1473 C1472 1.366 . S
C1473 C1477 1.385 . S
C1474 H1455 0.951 . S
C1474 C1472 1.388 . S
C1474 C1475 1.366 . S
C1475 C1474 1.366 . S
C1475 C1476 1.414 . S
C1475 C1478 1.499 . S
C1476 H1456 0.950 . S
C1476 C1475 1.414 . S
C1476 C1477 1.374 . S
C1477 H1457 0.950 . S
C1477 C1473 1.385 . S
C1477 C1476 1.374 . S
C1478 C1475 1.499 . S
C1478 C1479 1.373 . S
C1478 C1480 1.389 . S
C1479 H1458 0.950 . S
C1479 C1478 1.373 . S
C1479 C1495 1.377 . S
C1480 C1478 1.389 . S
C1480 C1481 1.524 . S
C1480 C1494 1.377 . S
C1481 C1480 1.524 . S
C1481 C1482 1.397 . S
C1481 C1486 1.363 . S
C1482 H1459 0.950 . S
C1482 C1481 1.397 . S
C1482 C1483 1.334 . S
C1483 H1460 0.950 . S
C1483 C1482 1.334 . S
C1483 C1484 1.287 . S
C1484 C1483 1.287 . S
C1484 C1485 1.524 . S
C1484 H1503 0.913 . S
C1485 H1461 0.950 . S
C1485 C1484 1.524 . S
C1485 C1486 1.415 . S
C1486 H1462 0.950 . S
C1486 C1481 1.363 . S
C1486 C1485 1.415 . S
C1487 H1463 0.951 . S
C1487 C1488 1.366 . S
C1487 C1489 1.388 . S
C1488 C1487 1.366 . S
C1488 C1492 1.385 . S
C1489 H1464 0.951 . S
C1489 C1487 1.388 . S
C1489 C1490 1.366 . S
C1490 C1489 1.366 . S
C1490 C1491 1.414 . S
C1490 C1493 1.499 . S
C1491 H1465 0.950 . S
C1491 C1490 1.414 . S
C1491 C1492 1.374 . S
C1492 H1466 0.950 . S
C1492 C1488 1.385 . S
C1492 C1491 1.374 . S
C1493 C1490 1.499 . S
C1493 C1494 1.373 . S
C1493 C1495 1.389 . S
C1494 H1467 0.950 . S
C1494 C1480 1.377 . S
C1494 C1493 1.373 . S
C1495 C1479 1.377 . S
C1495 C1493 1.389 . S
C1495 C1496 1.524 . S
C1496 C1495 1.524 . S
C1496 C1497 1.397 . S
C1496 C1501 1.363 . S
C1497 H1468 0.950 . S
C1497 C1496 1.397 . S
C1497 C1498 1.334 . S
C1498 H1469 0.950 . S
C1498 C1497 1.334 . S
C1498 C1499 1.287 . S
C1499 C1498 1.287 . S
C1499 C1500 1.524 . S
C1499 H1502 0.999 . S
C1500 H1470 0.950 . S
C1500 C1499 1.524 . S
C1500 C1501 1.415 . S
C1501 H1471 0.950 . S
C1501 C1496 1.363 . S
C1501 C1500 1.415 . S
H1502 C1499 0.999 . S
H1503 C1484 0.913 . S
C723 C57 0.788 . S
C738 C233 0.788 . S
C773 C321 0.788 . S
C788 C108 0.787 . S
C823 C196 0.787 . S
C838 C20 0.787 . S
C873 C284 0.788 . S
C888 C145 0.788 . S
C923 C585 0.779 . S
C938 C372 0.779 . S
C973 C469 0.779 . S
C988 C673 0.779 . S
C1023 C577 0.779 . S
C1038 C381 0.779 . S
C1073 C665 0.779 . S
C1088 C460 0.779 . S
C1123 C29 1.644 . S
C1138 C401 1.647 . S
C1173 C137 1.643 . S
C1188 C497 1.646 . S
C1223 C225 1.644 . S
C1238 C548 1.646 . S
C1273 C636 1.646 . S
C1288 C313 1.643 . S
C1323 C49 1.642 . S
C1338 C117 1.643 . S
C1373 C293 1.643 . S
C1388 C205 1.643 . S
C1423 C489 1.654 . S
C1438 C409 1.654 . S
C1473 C557 1.654 . S
C1488 C645 1.654 . S
