# Generated by pormake.
# Topology pbz, (3)-cn, num edge types: 1
# Building blocks:
#     Node 0, Type 0, BuildingBlock: OLANEW_clean_sbu_2, # of connection points: 3
#     Node 1, Type 0, BuildingBlock: OLANEW_clean_sbu_2, # of connection points: 3
#     Node 2, Type 0, BuildingBlock: OLANEW_clean_sbu_2, # of connection points: 3
#     Node 3, Type 0, BuildingBlock: OLANEW_clean_sbu_2, # of connection points: 3
#     Node 4, Type 0, BuildingBlock: OLANEW_clean_sbu_2, # of connection points: 3
#     Node 5, Type 0, BuildingBlock: OLANEW_clean_sbu_2, # of connection points: 3
#     Node 6, Type 0, BuildingBlock: OLANEW_clean_sbu_2, # of connection points: 3
#     Node 7, Type 0, BuildingBlock: OLANEW_clean_sbu_2, # of connection points: 3
#     Node 8, Type 0, BuildingBlock: OLANEW_clean_sbu_2, # of connection points: 3
#     Node 9, Type 0, BuildingBlock: OLANEW_clean_sbu_2, # of connection points: 3
#     Node 10, Type 0, BuildingBlock: OLANEW_clean_sbu_2, # of connection points: 3
#     Node 11, Type 0, BuildingBlock: OLANEW_clean_sbu_2, # of connection points: 3
#     Node 12, Type 0, BuildingBlock: OLANEW_clean_sbu_2, # of connection points: 3
#     Node 13, Type 0, BuildingBlock: OLANEW_clean_sbu_2, # of connection points: 3
#     Node 14, Type 0, BuildingBlock: OLANEW_clean_sbu_2, # of connection points: 3
#     Node 15, Type 0, BuildingBlock: OLANEW_clean_sbu_2, # of connection points: 3
#     Node 16, Type 0, BuildingBlock: OLANEW_clean_sbu_2, # of connection points: 3
#     Node 17, Type 0, BuildingBlock: OLANEW_clean_sbu_2, # of connection points: 3
#     Node 18, Type 0, BuildingBlock: OLANEW_clean_sbu_2, # of connection points: 3
#     Node 19, Type 0, BuildingBlock: OLANEW_clean_sbu_2, # of connection points: 3
#     Node 20, Type 0, BuildingBlock: OLANEW_clean_sbu_2, # of connection points: 3
#     Node 21, Type 0, BuildingBlock: OLANEW_clean_sbu_2, # of connection points: 3
#     Node 22, Type 0, BuildingBlock: OLANEW_clean_sbu_2, # of connection points: 3
#     Node 23, Type 0, BuildingBlock: OLANEW_clean_sbu_2, # of connection points: 3
#     Edge 24, Type (0, 0), BuildingBlock: AJUNOK_clean_linker_0, # of connection points: 2
#     Edge 25, Type (0, 0), BuildingBlock: AJUNOK_clean_linker_0, # of connection points: 2
#     Edge 26, Type (0, 0), BuildingBlock: AJUNOK_clean_linker_0, # of connection points: 2
#     Edge 27, Type (0, 0), BuildingBlock: AJUNOK_clean_linker_0, # of connection points: 2
#     Edge 28, Type (0, 0), BuildingBlock: AJUNOK_clean_linker_0, # of connection points: 2
#     Edge 29, Type (0, 0), BuildingBlock: AJUNOK_clean_linker_0, # of connection points: 2
#     Edge 30, Type (0, 0), BuildingBlock: AJUNOK_clean_linker_0, # of connection points: 2
#     Edge 31, Type (0, 0), BuildingBlock: AJUNOK_clean_linker_0, # of connection points: 2
#     Edge 32, Type (0, 0), BuildingBlock: AJUNOK_clean_linker_0, # of connection points: 2
#     Edge 33, Type (0, 0), BuildingBlock: AJUNOK_clean_linker_0, # of connection points: 2
#     Edge 34, Type (0, 0), BuildingBlock: AJUNOK_clean_linker_0, # of connection points: 2
#     Edge 35, Type (0, 0), BuildingBlock: AJUNOK_clean_linker_0, # of connection points: 2
#     Edge 36, Type (0, 0), BuildingBlock: AJUNOK_clean_linker_0, # of connection points: 2
#     Edge 37, Type (0, 0), BuildingBlock: AJUNOK_clean_linker_0, # of connection points: 2
#     Edge 38, Type (0, 0), BuildingBlock: AJUNOK_clean_linker_0, # of connection points: 2
#     Edge 39, Type (0, 0), BuildingBlock: AJUNOK_clean_linker_0, # of connection points: 2
#     Edge 40, Type (0, 0), BuildingBlock: AJUNOK_clean_linker_0, # of connection points: 2
#     Edge 41, Type (0, 0), BuildingBlock: AJUNOK_clean_linker_0, # of connection points: 2
#     Edge 42, Type (0, 0), BuildingBlock: AJUNOK_clean_linker_0, # of connection points: 2
#     Edge 43, Type (0, 0), BuildingBlock: AJUNOK_clean_linker_0, # of connection points: 2
#     Edge 44, Type (0, 0), BuildingBlock: AJUNOK_clean_linker_0, # of connection points: 2
#     Edge 45, Type (0, 0), BuildingBlock: AJUNOK_clean_linker_0, # of connection points: 2
#     Edge 46, Type (0, 0), BuildingBlock: AJUNOK_clean_linker_0, # of connection points: 2
#     Edge 47, Type (0, 0), BuildingBlock: AJUNOK_clean_linker_0, # of connection points: 2
#     Edge 48, Type (0, 0), BuildingBlock: AJUNOK_clean_linker_0, # of connection points: 2
#     Edge 49, Type (0, 0), BuildingBlock: AJUNOK_clean_linker_0, # of connection points: 2
#     Edge 50, Type (0, 0), BuildingBlock: AJUNOK_clean_linker_0, # of connection points: 2
#     Edge 51, Type (0, 0), BuildingBlock: AJUNOK_clean_linker_0, # of connection points: 2
#     Edge 52, Type (0, 0), BuildingBlock: AJUNOK_clean_linker_0, # of connection points: 2
#     Edge 53, Type (0, 0), BuildingBlock: AJUNOK_clean_linker_0, # of connection points: 2
#     Edge 54, Type (0, 0), BuildingBlock: AJUNOK_clean_linker_0, # of connection points: 2
#     Edge 55, Type (0, 0), BuildingBlock: AJUNOK_clean_linker_0, # of connection points: 2
#     Edge 56, Type (0, 0), BuildingBlock: AJUNOK_clean_linker_0, # of connection points: 2
#     Edge 57, Type (0, 0), BuildingBlock: AJUNOK_clean_linker_0, # of connection points: 2
#     Edge 58, Type (0, 0), BuildingBlock: AJUNOK_clean_linker_0, # of connection points: 2
#     Edge 59, Type (0, 0), BuildingBlock: AJUNOK_clean_linker_0, # of connection points: 2
# Relax obj value: 0.059
# Max RMSD: 0.148
# Mean RMSD: 0.103
data_MOF--net-pbz--node1-OLANEW_clean_sbu_2--edge1-AJUNOK_clean_linker_0
_symmetry_space_group_name_H-M    P1
_symmetry_Int_Tables_number       1
_symmetry_cell_setting            triclinic
loop_
_symmetry_equiv_pos_as_xyz
'x, y, z'
_cell_length_a     50.296596
_cell_length_b     49.10614
_cell_length_c     47.708843
_cell_angle_alpha  90.36219
_cell_angle_beta   89.984065
_cell_angle_gamma 94.782289
loop_
_atom_site_label
_atom_site_type_symbol
_atom_site_fract_x
_atom_site_fract_y
_atom_site_fract_z
_atom_type_partial_charge
O0 O 0.03829 0.24448 0.74976 0.0
Cd1 Cd 0.03875 0.19906 0.72865 0.0
O2 O 0.00658 0.23139 0.77967 0.0
Cd3 Cd 0.99649 0.19238 0.75858 0.0
O4 O 0.96742 0.17455 0.72832 0.0
C5 C 0.97413 0.16774 0.70374 0.0
O6 O 0.99958 0.16917 0.69725 0.0
C7 C 0.02349 0.24983 0.77036 0.0
C8 C 0.07254 0.16543 0.756 0.0
O9 O 0.08101 0.18091 0.73579 0.0
O10 O 0.04811 0.16612 0.76341 0.0
O11 O 0.96398 0.61431 0.1862 0.0
Cd12 Cd 0.92986 0.61402 0.14984 0.0
O13 O 0.93624 0.59171 0.21482 0.0
Cd14 Cd 0.92441 0.57553 0.25594 0.0
O15 O 0.90501 0.56924 0.29652 0.0
C16 C 0.90698 0.58879 0.31416 0.0
O17 O 0.92155 0.61132 0.30763 0.0
C18 C 0.95928 0.60332 0.20991 0.0
C19 C 0.91326 0.56144 0.13122 0.0
O20 O 0.9346 0.57429 0.12181 0.0
O21 O 0.89976 0.57335 0.14974 0.0
O22 O 0.51553 0.29072 0.74935 0.0
Cd23 Cd 0.51059 0.31556 0.70577 0.0
O24 O 0.51409 0.32715 0.7761 0.0
Cd25 Cd 0.50156 0.35319 0.74247 0.0
O26 O 0.47563 0.38105 0.72272 0.0
C27 C 0.46849 0.4006 0.73778 0.0
O28 O 0.47803 0.40342 0.76337 0.0
C29 C 0.5173 0.30185 0.77348 0.0
C30 C 0.56083 0.32494 0.68114 0.0
O31 O 0.55175 0.34247 0.69787 0.0
O32 O 0.5458 0.30322 0.67558 0.0
O33 O 0.78151 0.09744 0.26876 0.0
Cd34 Cd 0.74556 0.08056 0.23731 0.0
O35 O 0.79026 0.05562 0.27925 0.0
Cd36 Cd 0.75172 0.03668 0.26548 0.0
O37 O 0.71792 0.01378 0.28549 0.0
C38 C 0.72393 0.00387 0.30899 0.0
O39 O 0.74879 0.00774 0.31755 0.0
C40 C 0.79649 0.08123 0.28039 0.0
C41 C 0.76225 0.09489 0.18329 0.0
O42 O 0.74677 0.10958 0.19701 0.0
O43 O 0.76897 0.07293 0.19469 0.0
O44 O 0.02079 0.38174 0.78618 0.0
Cd45 Cd 0.01151 0.42931 0.79327 0.0
O46 O 0.99481 0.3678 0.82113 0.0
Cd47 Cd 0.98001 0.40697 0.83219 0.0
O48 O 0.95092 0.42367 0.85993 0.0
C49 C 0.95833 0.43197 0.88418 0.0
O50 O 0.98385 0.43302 0.89038 0.0
C51 C 0.01088 0.36253 0.80168 0.0
C52 C 0.05873 0.46208 0.80259 0.0
O53 O 0.0494 0.45808 0.77778 0.0
O54 O 0.04552 0.45071 0.82297 0.0
O55 O 0.81755 0.56952 0.41432 0.0
Cd56 Cd 0.78263 0.5706 0.44979 0.0
O57 O 0.82626 0.61409 0.41515 0.0
Cd58 Cd 0.78945 0.62118 0.4372 0.0
O59 O 0.74949 0.6346 0.4315 0.0
C60 C 0.74462 0.64149 0.4065 0.0
O61 O 0.76341 0.63988 0.38756 0.0
C62 C 0.83183 0.59068 0.40649 0.0
C63 C 0.78919 0.53162 0.49098 0.0
O64 O 0.77347 0.52628 0.47016 0.0
O65 O 0.80154 0.55549 0.49244 0.0
O66 O 0.52934 0.2124 0.87412 0.0
Cd67 Cd 0.53178 0.1834 0.91532 0.0
O68 O 0.5267 0.25013 0.89857 0.0
Cd69 Cd 0.52072 0.22735 0.93748 0.0
O70 O 0.49695 0.20019 0.96556 0.0
C71 C 0.47766 0.20981 0.97842 0.0
O72 O 0.47439 0.23594 0.97579 0.0
C73 C 0.5284 0.23818 0.87496 0.0
C74 C 0.58439 0.18444 0.93418 0.0
O75 O 0.57513 0.16667 0.91615 0.0
O76 O 0.56859 0.20154 0.94353 0.0
O77 O 0.00507 0.10277 0.43605 0.0
Cd78 Cd 0.03652 0.08752 0.40141 0.0
O79 O 0.97872 0.10637 0.40003 0.0
Cd80 Cd 0.94002 0.11076 0.38085 0.0
O81 O 0.90244 0.10186 0.35877 0.0
C82 C 0.89263 0.11872 0.34243 0.0
O83 O 0.90525 0.143 0.33909 0.0
C84 C 0.98282 0.10868 0.42624 0.0
C85 C 0.04872 0.03382 0.40987 0.0
O86 O 0.06416 0.05403 0.41899 0.0
O87 O 0.02749 0.03899 0.3968 0.0
O88 O 0.31641 0.68416 0.16043 0.0
Cd89 Cd 0.30594 0.63527 0.15256 0.0
O90 O 0.2754 0.69126 0.17256 0.0
Cd91 Cd 0.26061 0.64822 0.17409 0.0
O92 O 0.23323 0.61924 0.19651 0.0
C93 C 0.23981 0.61182 0.22084 0.0
O94 O 0.26392 0.61954 0.22997 0.0
C95 C 0.29923 0.70051 0.16745 0.0
C96 C 0.2955 0.62737 0.09562 0.0
O97 O 0.31931 0.62777 0.10524 0.0
O98 O 0.2765 0.62984 0.11313 0.0
O99 O 0.24449 0.8284 0.71601 0.0
Cd100 Cd 0.20244 0.84454 0.73218 0.0
O101 O 0.23456 0.84388 0.67487 0.0
Cd102 Cd 0.23833 0.85223 0.63016 0.0
O103 O 0.22485 0.85887 0.58759 0.0
C104 C 0.20301 0.86987 0.58492 0.0
O105 O 0.19064 0.87729 0.60764 0.0
C106 C 0.25028 0.83157 0.69027 0.0
C107 C 0.20821 0.89775 0.75329 0.0
O108 O 0.21066 0.8771 0.7691 0.0
O109 O 0.20313 0.89317 0.72727 0.0
O110 O 0.36104 0.66677 0.5898 0.0
Cd111 Cd 0.35643 0.70988 0.56564 0.0
O112 O 0.37151 0.68737 0.62975 0.0
Cd113 Cd 0.36095 0.72757 0.61649 0.0
O114 O 0.33535 0.76067 0.62437 0.0
C115 C 0.33712 0.77184 0.64849 0.0
O116 O 0.35521 0.76416 0.66595 0.0
C117 C 0.36826 0.66552 0.61525 0.0
C118 C 0.39459 0.718 0.52332 0.0
O119 O 0.39925 0.72716 0.54821 0.0
O120 O 0.37177 0.70522 0.5185 0.0
O121 O 0.43565 0.89192 0.17906 0.0
Cd122 Cd 0.40257 0.88494 0.14141 0.0
O123 O 0.40569 0.88116 0.21158 0.0
Cd124 Cd 0.37568 0.86417 0.182 0.0
O125 O 0.35488 0.82594 0.16748 0.0
C126 C 0.33577 0.81532 0.18227 0.0
O127 O 0.32816 0.8288 0.20433 0.0
C128 C 0.42944 0.88944 0.20482 0.0
C129 C 0.39221 0.93317 0.11398 0.0
O130 O 0.37952 0.92554 0.13626 0.0
O131 O 0.40995 0.91807 0.10481 0.0
O132 O 0.12228 0.87301 0.47813 0.0
Cd133 Cd 0.0958 0.87138 0.43519 0.0
O134 O 0.15653 0.85728 0.45671 0.0
Cd135 Cd 0.13347 0.8417 0.42055 0.0
O136 O 0.12547 0.80206 0.40002 0.0
C137 C 0.14584 0.78845 0.39857 0.0
O138 O 0.16882 0.79997 0.40757 0.0
C139 C 0.14652 0.86742 0.47846 0.0
C140 C 0.07873 0.92304 0.42521 0.0
O141 O 0.10191 0.91695 0.41749 0.0
O142 O 0.0634 0.90457 0.43735 0.0
O143 O 0.27306 0.60359 0.88816 0.0
Cd144 Cd 0.25428 0.63463 0.92152 0.0
O145 O 0.23291 0.58395 0.88145 0.0
Cd146 Cd 0.20247 0.55487 0.86309 0.0
O147 O 0.16695 0.52878 0.85136 0.0
C148 C 0.15802 0.5283 0.82643 0.0
O149 O 0.17088 0.54349 0.80742 0.0
C150 C 0.25761 0.58588 0.87538 0.0
C151 C 0.26998 0.62776 0.97681 0.0
O152 O 0.24806 0.61586 0.96752 0.0
O153 O 0.28454 0.64261 0.95983 0.0
O154 O 0.59459 0.74646 0.35296 0.0
Cd155 Cd 0.59543 0.69682 0.34998 0.0
O156 O 0.56283 0.73944 0.38396 0.0
Cd157 Cd 0.53175 0.74929 0.41356 0.0
O158 O 0.49916 0.74794 0.44392 0.0
C159 C 0.47832 0.73226 0.43869 0.0
O160 O 0.47725 0.71822 0.41513 0.0
C161 C 0.5781 0.75607 0.36976 0.0
C162 C 0.6432 0.67919 0.37015 0.0
O163 O 0.64041 0.68539 0.34432 0.0
O164 O 0.6233 0.6814 0.38654 0.0
O165 O 0.39223 0.1084 0.01372 0.0
Cd166 Cd 0.35492 0.07328 0.01753 0.0
O167 O 0.3666 0.14256 0.01299 0.0
Cd168 Cd 0.32949 0.11688 0.00738 0.0
O169 O 0.29716 0.10483 0.97813 0.0
C170 C 0.29824 0.11759 0.955 0.0
O171 O 0.31796 0.13647 0.95099 0.0
C172 C 0.38975 0.13397 0.01334 0.0
C173 C 0.36747 0.029 0.05029 0.0
O174 O 0.3725 0.02977 0.02396 0.0
O175 O 0.35662 0.04929 0.06116 0.0
O176 O 0.13047 0.59111 0.29194 0.0
Cd177 Cd 0.09219 0.59792 0.32203 0.0
O178 O 0.1598 0.59938 0.32562 0.0
Cd179 Cd 0.13066 0.61617 0.35319 0.0
O180 O 0.12327 0.65711 0.36765 0.0
C181 C 0.14326 0.67432 0.36398 0.0
O182 O 0.16505 0.66568 0.35303 0.0
C183 C 0.15451 0.59235 0.30043 0.0
C184 C 0.047 0.60179 0.28898 0.0
O185 O 0.05255 0.5788 0.29907 0.0
O186 O 0.06259 0.62298 0.29506 0.0
O187 O 0.35376 0.54076 0.66619 0.0
Cd188 Cd 0.34161 0.5 0.69402 0.0
O189 O 0.36192 0.56628 0.70371 0.0
Cd190 Cd 0.34826 0.53627 0.73524 0.0
O191 O 0.32868 0.5352 0.77613 0.0
C192 C 0.30397 0.5388 0.77718 0.0
O193 O 0.2908 0.54009 0.7535 0.0
C194 C 0.36133 0.56375 0.67717 0.0
C195 C 0.38481 0.46943 0.70507 0.0
O196 O 0.37058 0.46501 0.68297 0.0
O197 O 0.37868 0.48849 0.72176 0.0
O198 O 0.59396 0.88219 0.40991 0.0
Cd199 Cd 0.60004 0.93154 0.41666 0.0
O200 O 0.57581 0.89097 0.36972 0.0
Cd201 Cd 0.5541 0.88342 0.33036 0.0
O202 O 0.52884 0.88512 0.29329 0.0
C203 C 0.50629 0.8947 0.29614 0.0
O204 O 0.49908 0.90265 0.32117 0.0
C205 C 0.58333 0.87357 0.38704 0.0
C206 C 0.64062 0.95373 0.38169 0.0
O207 O 0.64558 0.94554 0.40645 0.0
O208 O 0.61625 0.9517 0.37353 0.0
O209 O 0.20626 0.07114 0.86392 0.0
Cd210 Cd 0.17788 0.05308 0.82521 0.0
O211 O 0.23753 0.09035 0.8366 0.0
Cd212 Cd 0.21988 0.06934 0.79992 0.0
O213 O 0.21286 0.02935 0.77995 0.0
C214 C 0.21825 0.00982 0.79577 0.0
O215 O 0.22677 0.01574 0.82129 0.0
C216 C 0.22824 0.08564 0.86107 0.0
C217 C 0.14366 0.09063 0.80519 0.0
O218 O 0.13655 0.07419 0.82509 0.0
O219 O 0.16708 0.08941 0.79491 0.0
O220 O 0.89334 0.42168 0.00106 0.0
Cd221 Cd 0.86994 0.41121 0.04499 0.0
O222 O 0.85947 0.41272 0.97252 0.0
Cd223 Cd 0.83607 0.3909 0.00511 0.0
O224 O 0.82343 0.34967 0.0195 0.0
C225 C 0.8113 0.33376 0.00169 0.0
O226 O 0.80566 0.34365 0.97708 0.0
C227 C 0.88362 0.4217 0.97647 0.0
C228 C 0.88094 0.45657 0.07971 0.0
O229 O 0.89704 0.43775 0.07798 0.0
O230 O 0.85911 0.45351 0.06576 0.0
O231 O 0.89922 0.15852 0.59059 0.0
Cd232 Cd 0.87205 0.15963 0.54841 0.0
O233 O 0.87308 0.17681 0.62118 0.0
Cd234 Cd 0.84484 0.19156 0.5912 0.0
O235 O 0.82491 0.22875 0.58332 0.0
C236 C 0.80881 0.23603 0.60195 0.0
O237 O 0.80344 0.21974 0.62332 0.0
C238 C 0.89427 0.16541 0.61564 0.0
C239 C 0.9036 0.14263 0.50459 0.0
O240 O 0.89049 0.12525 0.52033 0.0
O241 O 0.90114 0.16808 0.50893 0.0
O242 O 0.80669 0.36643 0.60894 0.0
Cd243 Cd 0.8006 0.41371 0.6222 0.0
O244 O 0.76374 0.35896 0.61566 0.0
Cd245 Cd 0.72442 0.33646 0.61826 0.0
O246 O 0.6826 0.32576 0.6287 0.0
C247 C 0.67025 0.34409 0.64079 0.0
O248 O 0.68323 0.36793 0.64598 0.0
C249 C 0.78603 0.34973 0.60999 0.0
C250 C 0.79893 0.45034 0.57796 0.0
O251 O 0.82086 0.44709 0.59071 0.0
O252 O 0.77793 0.43573 0.58572 0.0
O253 O 0.82626 0.20653 0.02514 0.0
Cd254 Cd 0.82454 0.15666 0.0262 0.0
O255 O 0.78381 0.20002 0.01513 0.0
Cd256 Cd 0.7436 0.2109 0.00544 0.0
O257 O 0.70254 0.21036 0.99066 0.0
C258 C 0.69463 0.1915 0.9735 0.0
O259 O 0.71154 0.17394 0.96565 0.0
C260 C 0.80449 0.21636 0.01887 0.0
C261 C 0.80449 0.13506 0.0765 0.0
O262 O 0.82968 0.13891 0.07227 0.0
O263 O 0.78875 0.14164 0.05702 0.0
C264 C 0.03155 0.32734 0.77235 0.0
C265 C 0.01674 0.33379 0.79618 0.0
C266 C 0.03492 0.30015 0.76502 0.0
C267 C 0.02353 0.27826 0.78116 0.0
H268 H 0.03988 0.34333 0.75864 0.0
H269 H 0.04554 0.29629 0.74583 0.0
S270 S 0.98615 0.28409 0.84777 0.0
N271 N 0.99299 0.31595 0.83758 0.0
N272 N 0.99923 0.26498 0.82368 0.0
C273 C 0.01002 0.28444 0.80594 0.0
C274 C 0.00665 0.31214 0.81346 0.0
C275 C 0.86877 0.61247 0.37702 0.0
C276 C 0.85343 0.58863 0.38549 0.0
C277 C 0.8869 0.61201 0.35479 0.0
C278 C 0.89038 0.58773 0.33992 0.0
H279 H 0.86622 0.63193 0.38704 0.0
H280 H 0.89747 0.63114 0.34858 0.0
S281 S 0.85774 0.51896 0.3559 0.0
N282 N 0.84493 0.53945 0.37888 0.0
N283 N 0.87893 0.53867 0.33699 0.0
C284 C 0.87632 0.56343 0.34911 0.0
C285 C 0.8579 0.56386 0.37191 0.0
C286 C 0.52098 0.29743 0.82555 0.0
C287 C 0.52204 0.28536 0.79875 0.0
C288 C 0.52375 0.28217 0.84991 0.0
C289 C 0.52771 0.25416 0.84864 0.0
H290 H 0.51747 0.31876 0.82786 0.0
H291 H 0.52221 0.29245 0.86997 0.0
S292 S 0.53414 0.21311 0.78363 0.0
N293 N 0.52888 0.24391 0.77238 0.0
N294 N 0.53408 0.21526 0.81816 0.0
C295 C 0.52969 0.24196 0.82196 0.0
C296 C 0.52684 0.25755 0.79709 0.0
C297 C 0.85696 0.08298 0.328 0.0
C298 C 0.86788 0.11028 0.32655 0.0
C299 C 0.83404 0.07394 0.31293 0.0
C300 C 0.82085 0.09179 0.29585 0.0
H301 H 0.86625 0.06826 0.34075 0.0
H302 H 0.82658 0.0527 0.31489 0.0
S303 S 0.8411 0.1654 0.28475 0.0
N304 N 0.86365 0.15522 0.3066 0.0
N305 N 0.82042 0.1382 0.27831 0.0
C306 C 0.83141 0.11922 0.29425 0.0
C307 C 0.85494 0.12845 0.30956 0.0
C308 C 0.33074 0.74148 0.15742 0.0
C309 C 0.30712 0.73022 0.17015 0.0
C310 C 0.33927 0.76923 0.16056 0.0
C311 C 0.32475 0.7868 0.1769 0.0
H312 H 0.34289 0.72873 0.14504 0.0
H313 H 0.35786 0.77674 0.15074 0.0
S314 S 0.26093 0.76784 0.21377 0.0
N315 N 0.26877 0.73912 0.19894 0.0
N316 N 0.28499 0.79117 0.20506 0.0
C317 C 0.30079 0.77597 0.18926 0.0
C318 C 0.29193 0.74775 0.18582 0.0
C319 C 0.29409 0.79336 0.64158 0.0
C320 C 0.31685 0.79022 0.65808 0.0
C321 C 0.27304 0.80772 0.65165 0.0
C322 C 0.27399 0.81962 0.67855 0.0
H323 H 0.29194 0.78372 0.62113 0.0
H324 H 0.25537 0.80822 0.63881 0.0
S325 S 0.33015 0.82014 0.72895 0.0
N326 N 0.33987 0.80233 0.7019 0.0
N327 N 0.30028 0.8292 0.72069 0.0
C328 C 0.29706 0.81773 0.69477 0.0
C329 C 0.31852 0.80315 0.68455 0.0
C330 C 0.16757 0.74728 0.38262 0.0
C331 C 0.14398 0.75971 0.38851 0.0
C332 C 0.16696 0.71982 0.37453 0.0
C333 C 0.14274 0.70344 0.37224 0.0
H334 H 0.18683 0.75881 0.38437 0.0
H335 H 0.18578 0.71132 0.37042 0.0
S336 S 0.07512 0.72614 0.38458 0.0
N337 N 0.0955 0.75364 0.39084 0.0
N338 N 0.09438 0.70181 0.37583 0.0
C339 C 0.11889 0.71559 0.37777 0.0
C340 C 0.1195 0.74376 0.38579 0.0
C341 C 0.26461 0.55305 0.80404 0.0
C342 C 0.29129 0.54624 0.80402 0.0
C343 C 0.25332 0.56449 0.82777 0.0
C344 C 0.26822 0.56952 0.85245 0.0
H345 H 0.25263 0.55072 0.78518 0.0
H346 H 0.23333 0.57097 0.82611 0.0
S347 S 0.33761 0.55226 0.86483 0.0
N348 N 0.33141 0.54296 0.83201 0.0
N349 N 0.31009 0.5646 0.87646 0.0
C350 C 0.29434 0.56141 0.85332 0.0
C351 C 0.30586 0.54964 0.82921 0.0
C352 C 0.57343 0.82573 0.40348 0.0
C353 C 0.57989 0.84386 0.38134 0.0
C354 C 0.57212 0.79735 0.39939 0.0
C355 C 0.57744 0.78603 0.37304 0.0
H356 H 0.56971 0.83354 0.42428 0.0
H357 H 0.56804 0.7843 0.41733 0.0
S358 S 0.59649 0.82469 0.30849 0.0
N359 N 0.59266 0.84852 0.33238 0.0
N360 N 0.58971 0.7952 0.32448 0.0
C361 C 0.5839 0.80395 0.35069 0.0
C362 C 0.58516 0.83287 0.35485 0.0
C363 C 0.28382 0.1211 0.90512 0.0
C364 C 0.27881 0.11049 0.93213 0.0
C365 C 0.26693 0.11358 0.88255 0.0
C366 C 0.24413 0.09528 0.88602 0.0
H367 H 0.30133 0.13489 0.90109 0.0
H368 H 0.27212 0.12189 0.86211 0.0
S369 S 0.22089 0.0631 0.95295 0.0
N370 N 0.24859 0.08175 0.9614 0.0
N371 N 0.2167 0.06771 0.91905 0.0
C372 C 0.2383 0.08524 0.91315 0.0
C373 C 0.25567 0.09278 0.93615 0.0
C374 C 0.81778 0.26419 0.03428 0.0
C375 C 0.80373 0.24617 0.01547 0.0
C376 C 0.81911 0.29256 0.03036 0.0
C377 C 0.80681 0.30396 0.00718 0.0
H378 H 0.82808 0.25628 0.05202 0.0
H379 H 0.83061 0.30553 0.04517 0.0
S380 S 0.76778 0.26523 0.95162 0.0
N381 N 0.77754 0.24149 0.97271 0.0
N382 N 0.77957 0.2947 0.96543 0.0
C383 C 0.79225 0.28606 0.98848 0.0
C384 C 0.79085 0.25719 0.99258 0.0
C385 C 0.80617 0.31138 0.58555 0.0
C386 C 0.78857 0.32018 0.60595 0.0
C387 C 0.81146 0.28385 0.58339 0.0
C388 C 0.7997 0.26409 0.60191 0.0
H389 H 0.81639 0.32602 0.57151 0.0
H390 H 0.82573 0.27829 0.5678 0.0
S391 S 0.7518 0.27678 0.6589 0.0
N392 N 0.75923 0.3071 0.64488 0.0
N393 N 0.7687 0.25532 0.64068 0.0
C394 C 0.78137 0.27256 0.62186 0.0
C395 C 0.77594 0.30061 0.62394 0.0
C396 C 0.13361 0.12735 0.77153 0.0
C397 C 0.1253 0.11013 0.7939 0.0
C398 C 0.11656 0.14533 0.75974 0.0
C399 C 0.0904 0.14689 0.76978 0.0
H400 H 0.15344 0.12684 0.76277 0.0
H401 H 0.12394 0.15791 0.74238 0.0
S402 S 0.05903 0.10689 0.82872 0.0
N403 N 0.08924 0.09632 0.82617 0.0
N404 N 0.05721 0.13006 0.80404 0.0
C405 C 0.0819 0.13008 0.79244 0.0
C406 C 0.09932 0.11175 0.80448 0.0
C407 C 0.00494 0.58079 0.26693 0.0
C408 C 0.02378 0.60349 0.27007 0.0
C409 C 0.98369 0.58115 0.24798 0.0
C410 C 0.98055 0.60416 0.23132 0.0
H411 H 0.0068 0.56238 0.27891 0.0
H412 H 0.97021 0.56291 0.24565 0.0
S413 S 0.0236 0.66924 0.23198 0.0
N414 N 0.03727 0.65 0.25532 0.0
N415 N 0.99741 0.65046 0.2196 0.0
C416 C 0.99892 0.62713 0.23448 0.0
C417 C 0.02045 0.62689 0.25393 0.0
C418 C 0.44082 0.44001 0.74529 0.0
C419 C 0.44836 0.41881 0.72775 0.0
C420 C 0.42069 0.45651 0.73748 0.0
C421 C 0.40714 0.45254 0.71179 0.0
H422 H 0.45023 0.44374 0.76552 0.0
H423 H 0.41546 0.47222 0.75202 0.0
S424 S 0.42021 0.40083 0.65741 0.0
N425 N 0.44137 0.3955 0.68284 0.0
N426 N 0.40351 0.42648 0.66818 0.0
C427 C 0.4149 0.43187 0.69366 0.0
C428 C 0.4355 0.41505 0.70162 0.0
C429 C 0.67609 0.98896 0.31969 0.0
C430 C 0.7032 0.98975 0.3272 0.0
C431 C 0.65607 0.97705 0.33727 0.0
C432 C 0.66231 0.96545 0.36312 0.0
H433 H 0.67016 0.99797 0.30023 0.0
H434 H 0.63549 0.97728 0.33063 0.0
S435 S 0.73038 0.96062 0.39188 0.0
N436 N 0.7353 0.97668 0.36182 0.0
N437 N 0.69776 0.95443 0.39478 0.0
C438 C 0.68939 0.96556 0.37063 0.0
C439 C 0.70978 0.97765 0.35272 0.0
C440 C 0.09417 0.48209 0.83521 0.0
C441 C 0.08409 0.47912 0.80775 0.0
C442 C 0.11807 0.49784 0.8409 0.0
C443 C 0.13297 0.51142 0.81941 0.0
H444 H 0.08354 0.47215 0.8526 0.0
H445 H 0.1248 0.49945 0.86246 0.0
S446 S 0.11555 0.51012 0.74372 0.0
N447 N 0.09105 0.491 0.75867 0.0
N448 N 0.13596 0.52063 0.76938 0.0
C449 C 0.1232 0.50861 0.79179 0.0
C450 C 0.09881 0.49248 0.78596 0.0
C451 C 0.68994 0.6675 0.36158 0.0
C452 C 0.66872 0.66966 0.38045 0.0
C453 C 0.71424 0.65844 0.37032 0.0
C454 C 0.71847 0.65112 0.39835 0.0
H455 H 0.68786 0.6728 0.33973 0.0
H456 H 0.72981 0.65718 0.3548 0.0
S457 S 0.66939 0.65318 0.45635 0.0
N458 N 0.65357 0.6638 0.42869 0.0
N459 N 0.69929 0.64676 0.44511 0.0
C460 C 0.69747 0.65322 0.41756 0.0
C461 C 0.67261 0.66249 0.40862 0.0
C462 C 0.45877 0.16266 0.99106 0.0
C463 C 0.45691 0.19111 0.99216 0.0
C464 C 0.43756 0.14429 -0.00032 0.0
C465 C 0.41356 0.15361 0.00964 0.0
H466 H 0.47628 0.15437 0.9823 0.0
H467 H 0.43954 0.12263 0.99707 0.0
S468 S 0.40015 0.22605 0.02127 0.0
N469 N 0.43032 0.22769 0.00747 0.0
N470 N 0.39047 0.19318 0.02348 0.0
C471 C 0.41217 0.18198 0.01281 0.0
C472 C 0.43382 0.20071 0.00414 0.0
C473 C 0.08254 0.99995 0.41631 0.0
C474 C 0.05564 0.00538 0.4138 0.0
C475 C 0.08978 0.97321 0.41952 0.0
C476 C 0.07036 0.95092 0.42099 0.0
H477 H 0.09821 0.01647 0.41542 0.0
H478 H 0.11078 0.97004 0.42129 0.0
S479 S 0.99708 0.95419 0.41597 0.0
N480 N 0.00945 0.98627 0.41298 0.0
N481 N 0.02303 0.93604 0.41977 0.0
C482 C 0.04336 0.95607 0.41878 0.0
C483 C 0.036 0.98327 0.41495 0.0
C484 C 0.75854 0.12081 0.13872 0.0
C485 C 0.77284 0.10368 0.15555 0.0
C486 C 0.76868 0.13038 0.11289 0.0
C487 C 0.7938 0.12373 0.10328 0.0
H488 H 0.73933 0.12686 0.14553 0.0
H489 H 0.75701 0.1436 0.10068 0.0
S490 S 0.8391 0.0794 0.13933 0.0
N491 N 0.8132 0.08006 0.16051 0.0
N492 N 0.83253 0.09861 0.11233 0.0
C493 C 0.80827 0.10655 0.11984 0.0
C494 C 0.7977 0.09635 0.14586 0.0
C495 C 0.92697 0.16874 0.6874 0.0
C496 C 0.95339 0.16294 0.68169 0.0
C497 C 0.90778 0.16841 0.66612 0.0
C498 C 0.91409 0.16208 0.63822 0.0
H499 H 0.92121 0.17471 0.70829 0.0
H500 H 0.88803 0.17398 0.67155 0.0
S501 S 0.97955 0.1419 0.61278 0.0
N502 N 0.98423 0.14816 0.64653 0.0
N503 N 0.94818 0.14738 0.60652 0.0
C504 C 0.94002 0.1546 0.6325 0.0
C505 C 0.95964 0.15507 0.65421 0.0
C506 C 0.92337 0.51699 0.10989 0.0
C507 C 0.9044 0.53387 0.12043 0.0
C508 C 0.91557 0.49146 0.0979 0.0
C509 C 0.88847 0.48212 0.09539 0.0
H510 H 0.94445 0.52363 0.11068 0.0
H511 H 0.9309 0.47941 0.08959 0.0
S512 S 0.83097 0.51803 0.12076 0.0
N513 N 0.85735 0.53892 0.12877 0.0
N514 N 0.84264 0.49122 0.10544 0.0
C515 C 0.86929 0.49853 0.10635 0.0
C516 C 0.87727 0.52431 0.11911 0.0
C517 C 0.60357 0.35414 0.67504 0.0
C518 C 0.5882 0.32946 0.66938 0.0
C519 C 0.62986 0.35869 0.6654 0.0
C520 C 0.64201 0.33873 0.64975 0.0
H521 H 0.59537 0.37012 0.68725 0.0
H522 H 0.64079 0.378 0.67061 0.0
S523 S 0.6102 0.27077 0.62843 0.0
N524 N 0.5869 0.28492 0.64647 0.0
N525 N 0.63632 0.29346 0.62842 0.0
C526 C 0.62677 0.31405 0.64356 0.0
C527 C 0.59989 0.30944 0.65333 0.0
C528 C 0.77322 0.48879 0.51611 0.0
C529 C 0.79263 0.51088 0.51285 0.0
C530 C 0.77553 0.46928 0.53709 0.0
C531 C 0.79757 0.47079 0.55536 0.0
H532 H 0.75581 0.48677 0.50266 0.0
H533 H 0.75987 0.45285 0.53896 0.0
S534 S 0.85449 0.52407 0.55497 0.0
N535 N 0.83496 0.53284 0.52931 0.0
N536 N 0.83951 0.49596 0.56846 0.0
C537 C 0.81742 0.49249 0.552 0.0
C538 C 0.81488 0.51259 0.53086 0.0
C539 C 0.6221 0.20563 0.96332 0.0
C540 C 0.61255 0.18551 0.94382 0.0
C541 C 0.64859 0.20742 0.97267 0.0
C542 C 0.66672 0.18915 0.96296 0.0
H543 H 0.60903 0.22024 0.9715 0.0
H544 H 0.65484 0.22329 0.98771 0.0
S545 S 0.65187 0.13269 0.91162 0.0
N546 N 0.62344 0.1469 0.915 0.0
N547 N 0.67317 0.15024 0.93254 0.0
C548 C 0.65747 0.1689 0.94341 0.0
C549 C 0.63044 0.16709 0.93387 0.0
C550 C 0.93614 0.11023 0.48841 0.0
C551 C 0.92245 0.13358 0.48336 0.0
C552 C 0.95573 0.10235 0.46983 0.0
C553 C 0.96177 0.11708 0.44518 0.0
H554 H 0.93226 0.09841 0.50729 0.0
H555 H 0.96617 0.08454 0.47472 0.0
S556 S 0.93117 0.17919 0.4218 0.0
N557 N 0.91612 0.17115 0.45177 0.0
N558 N 0.95252 0.15589 0.41649 0.0
C559 C 0.94787 0.14009 0.43954 0.0
C560 C 0.92832 0.14847 0.45875 0.0
C561 C 0.94697 0.43804 0.93468 0.0
C562 C 0.93833 0.43476 0.90673 0.0
C563 C 0.92889 0.43539 0.957 0.0
C564 C 0.90137 0.42935 0.95236 0.0
H565 H 0.96802 0.44131 0.93957 0.0
H566 H 0.93684 0.43681 0.97811 0.0
S567 S 0.86788 0.42398 0.88293 0.0
N568 N 0.89996 0.42898 0.87548 0.0
N569 N 0.86598 0.42396 0.91747 0.0
C570 C 0.8922 0.4283 0.92445 0.0
C571 C 0.91066 0.43103 0.90165 0.0
C572 C 0.1921 0.59718 0.23177 0.0
C573 C 0.21894 0.60021 0.24047 0.0
C574 C 0.17133 0.59229 0.25113 0.0
C575 C 0.17655 0.59031 0.28 0.0
H576 H 0.18688 0.60024 0.21006 0.0
H577 H 0.15102 0.59192 0.24352 0.0
S578 S 0.24348 0.59042 0.31286 0.0
N579 N 0.24971 0.59616 0.27934 0.0
N580 N 0.21066 0.58711 0.31572 0.0
C581 C 0.20334 0.59051 0.28862 0.0
C582 C 0.22453 0.59541 0.26886 0.0
C583 C 0.15007 0.87824 0.52973 0.0
C584 C 0.16242 0.87078 0.50468 0.0
C585 C 0.16368 0.87878 0.55535 0.0
C586 C 0.19022 0.87183 0.55705 0.0
H587 H 0.12941 0.88297 0.52978 0.0
H588 H 0.15294 0.88391 0.57407 0.0
S589 S 0.23278 0.85389 0.4972 0.0
N590 N 0.20364 0.85853 0.4829 0.0
N591 N 0.22914 0.85949 0.53107 0.0
C592 C 0.20327 0.86558 0.53201 0.0
C593 C 0.18941 0.86507 0.50586 0.0
C594 C 0.26386 0.61874 0.05551 0.0
C595 C 0.29007 0.62536 0.06511 0.0
C596 C 0.25774 0.61863 0.02685 0.0
C597 C 0.27752 0.62559 0.00668 0.0
H598 H 0.2478 0.61389 0.07026 0.0
H599 H 0.23718 0.61389 0.02056 0.0
S600 S 0.34953 0.64314 0.02062 0.0
N601 N 0.33623 0.63783 0.05195 0.0
N602 N 0.32463 0.63803 0.99815 0.0
C603 C 0.30393 0.63161 0.01589 0.0
C604 C 0.31024 0.63136 0.04507 0.0
C605 C 0.43929 0.73762 0.50649 0.0
C606 C 0.41516 0.72186 0.501 0.0
C607 C 0.45935 0.74117 0.48613 0.0
C608 C 0.45623 0.72899 0.45941 0.0
H609 H 0.44286 0.74728 0.52678 0.0
H610 H 0.4776 0.75332 0.49159 0.0
S611 S 0.39654 0.68619 0.43404 0.0
N612 N 0.38908 0.69433 0.46655 0.0
N613 N 0.42675 0.70091 0.42836 0.0
C614 C 0.43207 0.71339 0.45349 0.0
C615 C 0.41157 0.70986 0.47423 0.0
C616 C 0.38968 0.98558 0.05594 0.0
C617 C 0.37391 0.00523 0.06743 0.0
C618 C 0.39578 0.96267 0.0713 0.0
C619 C 0.38615 0.95823 0.09874 0.0
H620 H 0.39744 0.98784 0.03483 0.0
H621 H 0.40786 0.94811 0.06135 0.0
S622 S 0.3444 0.00376 0.13886 0.0
N623 N 0.34914 0.01894 0.10828 0.0
N624 N 0.3604 0.97579 0.13703 0.0
C625 C 0.3705 0.97781 0.11062 0.0
C626 C 0.36446 0.0013 0.09503 0.0
C627 C 0.46038 0.89785 0.27715 0.0
C628 C 0.48766 0.89555 0.27212 0.0
C629 C 0.44191 0.89681 0.25515 0.0
C630 C 0.44996 0.89381 0.22711 0.0
H631 H 0.45302 0.89965 0.29837 0.0
H632 H 0.42103 0.89788 0.26027 0.0
S633 S 0.51947 0.88921 0.2024 0.0
N634 N 0.52211 0.89172 0.23683 0.0
N635 N 0.48741 0.89007 0.1954 0.0
C636 C 0.47735 0.89267 0.22163 0.0
C637 C 0.49618 0.89341 0.24413 0.0
C638 C 0.20874 0.97517 0.75746 0.0
C639 C 0.21559 0.98107 0.78558 0.0
C640 C 0.2065 0.94824 0.74723 0.0
C641 C 0.21092 0.92606 0.76471 0.0
H642 H 0.20518 0.99147 0.7431 0.0
H643 H 0.2012 0.94485 0.72541 0.0
S644 S 0.22917 0.93034 0.84016 0.0
N645 N 0.22665 0.96232 0.83084 0.0
N646 N 0.22243 0.91186 0.81165 0.0
C647 C 0.21771 0.93164 0.79291 0.0
C648 C 0.22004 0.95907 0.80332 0.0
C649 C 0.37516 0.61359 0.67267 0.0
C650 C 0.36703 0.58848 0.6596 0.0
C651 C 0.37681 0.63811 0.65778 0.0
C652 C 0.3704 0.63872 0.62909 0.0
H653 H 0.37938 0.61458 0.69493 0.0
H654 H 0.3822 0.65686 0.66925 0.0
S655 S 0.35162 0.57823 0.58393 0.0
N656 N 0.35517 0.56541 0.61549 0.0
N657 N 0.35829 0.61156 0.58743 0.0
C658 C 0.36396 0.61358 0.61525 0.0
C659 C 0.36228 0.58848 0.6305 0.0
loop_
_geom_bond_atom_site_label_1
_geom_bond_atom_site_label_2
_geom_bond_distance
_geom_bond_site_symmetry_2
_ccdc_geom_bond_type
O0 Cd1 2.300 . S
O0 C7 1.236 1_455 S
Cd1 O0 2.300 . S
Cd1 O9 2.381 . S
Cd1 O10 2.378 . S
O2 Cd3 2.385 . S
O2 C7 1.283 . S
Cd3 O2 2.385 . S
Cd3 O4 2.317 . S
O4 Cd3 2.317 . S
O4 C5 1.232 . S
C5 O4 1.232 . S
C5 O6 1.218 . S
O6 C5 1.218 . S
C7 O0 1.236 1_655 S
C7 O2 1.283 . S
C8 O9 1.258 . S
C8 O10 1.256 . S
O9 Cd1 2.381 . S
O9 C8 1.258 . S
O10 Cd1 2.378 . S
O10 C8 1.256 . S
O11 Cd12 2.300 . S
O11 C18 1.275 . S
Cd12 O11 2.300 . S
Cd12 O20 2.381 . S
Cd12 O21 2.378 . S
O13 Cd14 2.385 . S
O13 C18 1.255 . S
Cd14 O13 2.385 . S
Cd14 O15 2.317 . S
O15 Cd14 2.317 . S
O15 C16 1.232 . S
C16 O15 1.232 . S
C16 O17 1.218 . S
O17 C16 1.218 . S
C18 O11 1.275 . S
C18 O13 1.255 . S
C19 O20 1.258 . S
C19 O21 1.256 . S
O20 Cd12 2.381 . S
O20 C19 1.258 . S
O21 Cd12 2.378 . S
O21 C19 1.256 . S
O22 Cd23 2.300 . S
O22 C29 1.275 . S
Cd23 O22 2.300 . S
Cd23 O31 2.381 . S
Cd23 O32 2.378 . S
O24 Cd25 2.385 . S
O24 C29 1.255 . S
Cd25 O24 2.385 . S
Cd25 O26 2.317 . S
O26 Cd25 2.317 . S
O26 C27 1.232 . S
C27 O26 1.232 . S
C27 O28 1.218 . S
O28 C27 1.218 . S
C29 O22 1.275 . S
C29 O24 1.255 . S
C30 O31 1.258 . S
C30 O32 1.256 . S
O31 Cd23 2.381 . S
O31 C30 1.258 . S
O32 Cd23 2.378 . S
O32 C30 1.256 . S
O33 Cd34 2.300 . S
O33 C40 1.275 . S
Cd34 O33 2.300 . S
Cd34 O42 2.381 . S
Cd34 O43 2.378 . S
O35 Cd36 2.385 1_545 S
O35 C40 1.255 . S
Cd36 O35 2.385 1_565 S
Cd36 O37 2.335 . S
O37 Cd36 2.335 . S
O37 C38 1.242 . S
C38 O37 1.242 . S
C38 O39 1.218 . S
O39 C38 1.218 . S
C40 O33 1.275 . S
C40 O35 1.255 . S
C41 O42 1.258 . S
C41 O43 1.256 . S
O42 Cd34 2.381 . S
O42 C41 1.258 . S
O43 Cd34 2.378 . S
O43 C41 1.256 . S
O44 Cd45 2.300 . S
O44 C51 1.275 1_455 S
Cd45 O44 2.300 . S
Cd45 O53 2.381 . S
Cd45 O54 2.378 . S
O46 Cd47 2.385 . S
O46 C51 1.255 . S
Cd47 O46 2.385 . S
Cd47 O48 2.317 . S
O48 Cd47 2.317 . S
O48 C49 1.232 . S
C49 O48 1.232 . S
C49 O50 1.218 . S
O50 C49 1.218 . S
C51 O44 1.275 1_655 S
C51 O46 1.255 . S
C52 O53 1.258 . S
C52 O54 1.256 . S
O53 Cd45 2.381 . S
O53 C52 1.258 . S
O54 Cd45 2.378 . S
O54 C52 1.256 . S
O55 Cd56 2.300 . S
O55 C62 1.275 . S
Cd56 O55 2.300 . S
Cd56 O64 2.381 . S
Cd56 O65 2.378 . S
O57 Cd58 2.385 . S
O57 C62 1.255 . S
Cd58 O57 2.385 . S
Cd58 O59 2.317 . S
O59 Cd58 2.317 . S
O59 C60 1.232 . S
C60 O59 1.232 . S
C60 O61 1.218 . S
O61 C60 1.218 . S
C62 O55 1.275 . S
C62 O57 1.255 . S
C63 O64 1.258 . S
C63 O65 1.256 . S
O64 Cd56 2.381 . S
O64 C63 1.258 . S
O65 Cd56 2.378 . S
O65 C63 1.256 . S
O66 Cd67 2.300 . S
O66 C73 1.275 . S
Cd67 O66 2.300 . S
Cd67 O75 2.381 . S
Cd67 O76 2.378 . S
O68 Cd69 2.385 . S
O68 C73 1.255 . S
Cd69 O68 2.385 . S
Cd69 O70 2.317 . S
O70 Cd69 2.317 . S
O70 C71 1.232 . S
C71 O70 1.232 . S
C71 O72 1.218 . S
O72 C71 1.218 . S
C73 O66 1.275 . S
C73 O68 1.255 . S
C74 O75 1.258 . S
C74 O76 1.256 . S
O75 Cd67 2.381 . S
O75 C74 1.258 . S
O76 Cd67 2.378 . S
O76 C74 1.256 . S
O77 Cd78 2.300 . S
O77 C84 1.275 . S
Cd78 O77 2.300 . S
Cd78 O86 2.381 . S
Cd78 O87 2.378 1_545 S
O79 Cd80 2.385 . S
O79 C84 1.255 . S
Cd80 O79 2.385 . S
Cd80 O81 2.317 . S
O81 Cd80 2.317 . S
O81 C82 1.232 . S
C82 O81 1.232 . S
C82 O83 1.218 . S
O83 C82 1.218 . S
C84 O77 1.275 . S
C84 O79 1.255 . S
C85 O86 1.263 . S
C85 O87 1.284 1_545 S
O86 Cd78 2.381 . S
O86 C85 1.263 . S
O87 Cd78 2.378 1_565 S
O87 C85 1.284 1_565 S
O88 Cd89 2.300 . S
O88 C95 1.275 . S
Cd89 O88 2.300 . S
Cd89 O97 2.381 . S
Cd89 O98 2.378 . S
O90 Cd91 2.385 . S
O90 C95 1.255 . S
Cd91 O90 2.385 . S
Cd91 O92 2.317 . S
O92 Cd91 2.317 . S
O92 C93 1.232 . S
C93 O92 1.232 . S
C93 O94 1.218 . S
O94 C93 1.218 . S
C95 O88 1.275 . S
C95 O90 1.255 . S
C96 O97 1.258 . S
C96 O98 1.256 . S
O97 Cd89 2.381 . S
O97 C96 1.258 . S
O98 Cd89 2.378 . S
O98 C96 1.256 . S
O99 Cd100 2.300 . S
O99 C106 1.275 . S
Cd100 O99 2.300 . S
Cd100 O108 2.381 . S
Cd100 O109 2.378 . S
O101 Cd102 2.385 . S
O101 C106 1.255 . S
Cd102 O101 2.385 . S
Cd102 O103 2.317 . S
O103 Cd102 2.317 . S
O103 C104 1.232 . S
C104 O103 1.232 . S
C104 O105 1.218 . S
O105 C104 1.218 . S
C106 O99 1.275 . S
C106 O101 1.255 . S
C107 O108 1.258 . S
C107 O109 1.256 . S
O108 Cd100 2.381 . S
O108 C107 1.258 . S
O109 Cd100 2.378 . S
O109 C107 1.256 . S
O110 Cd111 2.300 . S
O110 C117 1.275 . S
Cd111 O110 2.300 . S
Cd111 O119 2.381 . S
Cd111 O120 2.378 . S
O112 Cd113 2.385 . S
O112 C117 1.255 . S
Cd113 O112 2.385 . S
Cd113 O114 2.317 . S
O114 Cd113 2.317 . S
O114 C115 1.232 . S
C115 O114 1.232 . S
C115 O116 1.218 . S
O116 C115 1.218 . S
C117 O110 1.275 . S
C117 O112 1.255 . S
C118 O119 1.258 . S
C118 O120 1.256 . S
O119 Cd111 2.381 . S
O119 C118 1.258 . S
O120 Cd111 2.378 . S
O120 C118 1.256 . S
O121 Cd122 2.300 . S
O121 C128 1.275 . S
Cd122 O121 2.300 . S
Cd122 O130 2.381 . S
Cd122 O131 2.378 . S
O123 Cd124 2.385 . S
O123 C128 1.255 . S
Cd124 O123 2.385 . S
Cd124 O125 2.317 . S
O125 Cd124 2.317 . S
O125 C126 1.232 . S
C126 O125 1.232 . S
C126 O127 1.218 . S
O127 C126 1.218 . S
C128 O121 1.275 . S
C128 O123 1.255 . S
C129 O130 1.258 . S
C129 O131 1.256 . S
O130 Cd122 2.381 . S
O130 C129 1.258 . S
O131 Cd122 2.378 . S
O131 C129 1.256 . S
O132 Cd133 2.300 . S
O132 C139 1.275 . S
Cd133 O132 2.300 . S
Cd133 O141 2.381 . S
Cd133 O142 2.378 . S
O134 Cd135 2.385 . S
O134 C139 1.255 . S
Cd135 O134 2.385 . S
Cd135 O136 2.317 . S
O136 Cd135 2.317 . S
O136 C137 1.232 . S
C137 O136 1.232 . S
C137 O138 1.218 . S
O138 C137 1.218 . S
C139 O132 1.275 . S
C139 O134 1.255 . S
C140 O141 1.258 . S
C140 O142 1.256 . S
O141 Cd133 2.381 . S
O141 C140 1.258 . S
O142 Cd133 2.378 . S
O142 C140 1.256 . S
O143 Cd144 2.300 . S
O143 C150 1.275 . S
Cd144 O143 2.300 . S
Cd144 O152 2.381 . S
Cd144 O153 2.378 . S
O145 Cd146 2.385 . S
O145 C150 1.255 . S
Cd146 O145 2.385 . S
Cd146 O147 2.317 . S
O147 Cd146 2.317 . S
O147 C148 1.232 . S
C148 O147 1.232 . S
C148 O149 1.218 . S
O149 C148 1.218 . S
C150 O143 1.275 . S
C150 O145 1.255 . S
C151 O152 1.258 . S
C151 O153 1.256 . S
O152 Cd144 2.381 . S
O152 C151 1.258 . S
O153 Cd144 2.378 . S
O153 C151 1.256 . S
O154 Cd155 2.300 . S
O154 C161 1.275 . S
Cd155 O154 2.300 . S
Cd155 O163 2.381 . S
Cd155 O164 2.378 . S
O156 Cd157 2.385 . S
O156 C161 1.255 . S
Cd157 O156 2.385 . S
Cd157 O158 2.317 . S
O158 Cd157 2.317 . S
O158 C159 1.232 . S
C159 O158 1.232 . S
C159 O160 1.218 . S
O160 C159 1.218 . S
C161 O154 1.275 . S
C161 O156 1.255 . S
C162 O163 1.258 . S
C162 O164 1.256 . S
O163 Cd155 2.381 . S
O163 C162 1.258 . S
O164 Cd155 2.378 . S
O164 C162 1.256 . S
O165 Cd166 2.300 1_556 S
O165 C172 1.275 . S
Cd166 O165 2.300 1_554 S
Cd166 O174 2.381 . S
Cd166 O175 2.378 . S
O167 Cd168 2.385 . S
O167 C172 1.255 . S
Cd168 O167 2.385 . S
Cd168 O169 2.317 . S
O169 Cd168 2.317 . S
O169 C170 1.232 . S
C170 O169 1.232 . S
C170 O171 1.218 . S
O171 C170 1.218 . S
C172 O165 1.275 . S
C172 O167 1.255 . S
C173 O174 1.258 . S
C173 O175 1.256 . S
O174 Cd166 2.381 . S
O174 C173 1.258 . S
O175 Cd166 2.378 . S
O175 C173 1.256 . S
O176 Cd177 2.300 . S
O176 C183 1.275 . S
Cd177 O176 2.300 . S
Cd177 O185 2.381 . S
Cd177 O186 2.378 . S
O178 Cd179 2.385 . S
O178 C183 1.255 . S
Cd179 O178 2.385 . S
Cd179 O180 2.317 . S
O180 Cd179 2.317 . S
O180 C181 1.232 . S
C181 O180 1.232 . S
C181 O182 1.218 . S
O182 C181 1.218 . S
C183 O176 1.275 . S
C183 O178 1.255 . S
C184 O185 1.258 . S
C184 O186 1.256 . S
O185 Cd177 2.381 . S
O185 C184 1.258 . S
O186 Cd177 2.378 . S
O186 C184 1.256 . S
O187 Cd188 2.300 . S
O187 C194 1.275 . S
Cd188 O187 2.300 . S
Cd188 O196 2.381 . S
Cd188 O197 2.378 . S
O189 Cd190 2.385 . S
O189 C194 1.255 . S
Cd190 O189 2.385 . S
Cd190 O191 2.317 . S
O191 Cd190 2.317 . S
O191 C192 1.232 . S
C192 O191 1.232 . S
C192 O193 1.218 . S
O193 C192 1.218 . S
C194 O187 1.275 . S
C194 O189 1.255 . S
C195 O196 1.258 . S
C195 O197 1.256 . S
O196 Cd188 2.381 . S
O196 C195 1.258 . S
O197 Cd188 2.378 . S
O197 C195 1.256 . S
O198 Cd199 2.300 . S
O198 C205 1.275 . S
Cd199 O198 2.300 . S
Cd199 O207 2.381 . S
Cd199 O208 2.378 . S
O200 Cd201 2.385 . S
O200 C205 1.255 . S
Cd201 O200 2.385 . S
Cd201 O202 2.317 . S
O202 Cd201 2.317 . S
O202 C203 1.232 . S
C203 O202 1.232 . S
C203 O204 1.218 . S
O204 C203 1.218 . S
C205 O198 1.275 . S
C205 O200 1.255 . S
C206 O207 1.258 . S
C206 O208 1.256 . S
O207 Cd199 2.381 . S
O207 C206 1.258 . S
O208 Cd199 2.378 . S
O208 C206 1.256 . S
O209 Cd210 2.300 . S
O209 C216 1.275 . S
Cd210 O209 2.300 . S
Cd210 O218 2.381 . S
Cd210 O219 2.378 . S
O211 Cd212 2.385 . S
O211 C216 1.255 . S
Cd212 O211 2.385 . S
Cd212 O213 2.317 . S
O213 Cd212 2.317 . S
O213 C214 1.232 . S
C214 O213 1.232 . S
C214 O215 1.218 . S
O215 C214 1.218 . S
C216 O209 1.275 . S
C216 O211 1.255 . S
C217 O218 1.258 . S
C217 O219 1.256 . S
O218 Cd210 2.381 . S
O218 C217 1.258 . S
O219 Cd210 2.378 . S
O219 C217 1.256 . S
O220 Cd221 2.300 1_556 S
O220 C227 1.275 . S
Cd221 O220 2.300 1_554 S
Cd221 O229 2.381 . S
Cd221 O230 2.378 . S
O222 Cd223 2.385 . S
O222 C227 1.255 . S
Cd223 O222 2.385 . S
Cd223 O224 2.317 . S
O224 Cd223 2.317 . S
O224 C225 1.232 . S
C225 O224 1.232 . S
C225 O226 1.218 . S
O226 C225 1.218 . S
C227 O220 1.275 . S
C227 O222 1.255 . S
C228 O229 1.258 . S
C228 O230 1.256 . S
O229 Cd221 2.381 . S
O229 C228 1.258 . S
O230 Cd221 2.378 . S
O230 C228 1.256 . S
O231 Cd232 2.300 . S
O231 C238 1.275 . S
Cd232 O231 2.300 . S
Cd232 O240 2.381 . S
Cd232 O241 2.378 . S
O233 Cd234 2.385 . S
O233 C238 1.255 . S
Cd234 O233 2.385 . S
Cd234 O235 2.317 . S
O235 Cd234 2.317 . S
O235 C236 1.232 . S
C236 O235 1.232 . S
C236 O237 1.218 . S
O237 C236 1.218 . S
C238 O231 1.275 . S
C238 O233 1.255 . S
C239 O240 1.258 . S
C239 O241 1.256 . S
O240 Cd232 2.381 . S
O240 C239 1.258 . S
O241 Cd232 2.378 . S
O241 C239 1.256 . S
O242 Cd243 2.300 . S
O242 C249 1.275 . S
Cd243 O242 2.300 . S
Cd243 O251 2.381 . S
Cd243 O252 2.378 . S
O244 Cd245 2.385 . S
O244 C249 1.255 . S
Cd245 O244 2.385 . S
Cd245 O246 2.317 . S
O246 Cd245 2.317 . S
O246 C247 1.232 . S
C247 O246 1.232 . S
C247 O248 1.218 . S
O248 C247 1.218 . S
C249 O242 1.275 . S
C249 O244 1.255 . S
C250 O251 1.258 . S
C250 O252 1.256 . S
O251 Cd243 2.381 . S
O251 C250 1.258 . S
O252 Cd243 2.378 . S
O252 C250 1.256 . S
O253 Cd254 2.300 . S
O253 C260 1.275 1_554 S
Cd254 O253 2.300 . S
Cd254 O262 2.381 . S
Cd254 O263 2.378 . S
O255 Cd256 2.385 . S
O255 C260 1.255 1_554 S
Cd256 O255 2.385 . S
Cd256 O257 2.317 1_554 S
O257 Cd256 2.317 1_556 S
O257 C258 1.232 . S
C258 O257 1.232 . S
C258 O259 1.218 . S
O259 C258 1.218 . S
C260 O253 1.275 1_556 S
C260 O255 1.255 1_556 S
C261 O262 1.258 . S
C261 O263 1.256 . S
O262 Cd254 2.381 . S
O262 C261 1.258 . S
O263 Cd254 2.378 . S
O263 C261 1.256 . S
C264 C265 1.369 1_455 S
C264 C266 1.419 . S
C264 H268 0.930 . S
C265 C264 1.369 1_655 S
C265 C274 1.429 . S
C266 C264 1.419 . S
C266 C267 1.363 1_455 S
C266 H269 0.929 . S
C267 C266 1.363 1_655 S
C267 C273 1.428 . S
H268 C264 0.930 . S
H269 C266 0.929 . S
S270 N271 1.613 . S
S270 N272 1.610 . S
N271 S270 1.613 . S
N271 C274 1.350 . S
N272 S270 1.610 . S
N272 C273 1.351 . S
C273 C267 1.428 . S
C273 N272 1.351 . S
C273 C274 1.434 . S
C274 C265 1.429 . S
C274 N271 1.350 . S
C274 C273 1.434 . S
C275 C276 1.369 . S
C275 C277 1.419 . S
C275 H279 0.930 . S
C276 C275 1.369 . S
C276 C285 1.429 . S
C277 C275 1.419 . S
C277 C278 1.363 . S
C277 H280 0.929 . S
C278 C277 1.363 . S
C278 C284 1.428 . S
H279 C275 0.930 . S
H280 C277 0.929 . S
S281 N282 1.613 . S
S281 N283 1.610 . S
N282 S281 1.613 . S
N282 C285 1.350 . S
N283 S281 1.610 . S
N283 C284 1.351 . S
C284 C278 1.428 . S
C284 N283 1.351 . S
C284 C285 1.434 . S
C285 C276 1.429 . S
C285 N282 1.350 . S
C285 C284 1.434 . S
C286 C287 1.369 . S
C286 C288 1.419 . S
C286 H290 0.930 . S
C287 C286 1.369 . S
C287 C296 1.429 . S
C288 C286 1.419 . S
C288 C289 1.363 . S
C288 H291 0.929 . S
C289 C288 1.363 . S
C289 C295 1.428 . S
H290 C286 0.930 . S
H291 C288 0.929 . S
S292 N293 1.613 . S
S292 N294 1.610 . S
N293 S292 1.613 . S
N293 C296 1.350 . S
N294 S292 1.610 . S
N294 C295 1.351 . S
C295 C289 1.428 . S
C295 N294 1.351 . S
C295 C296 1.434 . S
C296 C287 1.429 . S
C296 N293 1.350 . S
C296 C295 1.434 . S
C297 C298 1.369 . S
C297 C299 1.419 . S
C297 H301 0.930 . S
C298 C297 1.369 . S
C298 C307 1.429 . S
C299 C297 1.419 . S
C299 C300 1.363 . S
C299 H302 0.929 . S
C300 C299 1.363 . S
C300 C306 1.428 . S
H301 C297 0.930 . S
H302 C299 0.929 . S
S303 N304 1.613 . S
S303 N305 1.610 . S
N304 S303 1.613 . S
N304 C307 1.350 . S
N305 S303 1.610 . S
N305 C306 1.351 . S
C306 C300 1.428 . S
C306 N305 1.351 . S
C306 C307 1.434 . S
C307 C298 1.429 . S
C307 N304 1.350 . S
C307 C306 1.434 . S
C308 C309 1.369 . S
C308 C310 1.419 . S
C308 H312 0.930 . S
C309 C308 1.369 . S
C309 C318 1.429 . S
C310 C308 1.419 . S
C310 C311 1.363 . S
C310 H313 0.929 . S
C311 C310 1.363 . S
C311 C317 1.428 . S
H312 C308 0.930 . S
H313 C310 0.929 . S
S314 N315 1.613 . S
S314 N316 1.610 . S
N315 S314 1.613 . S
N315 C318 1.350 . S
N316 S314 1.610 . S
N316 C317 1.351 . S
C317 C311 1.428 . S
C317 N316 1.351 . S
C317 C318 1.434 . S
C318 C309 1.429 . S
C318 N315 1.350 . S
C318 C317 1.434 . S
C319 C320 1.369 . S
C319 C321 1.419 . S
C319 H323 0.930 . S
C320 C319 1.369 . S
C320 C329 1.429 . S
C321 C319 1.419 . S
C321 C322 1.363 . S
C321 H324 0.929 . S
C322 C321 1.363 . S
C322 C328 1.428 . S
H323 C319 0.930 . S
H324 C321 0.929 . S
S325 N326 1.613 . S
S325 N327 1.610 . S
N326 S325 1.613 . S
N326 C329 1.350 . S
N327 S325 1.610 . S
N327 C328 1.351 . S
C328 C322 1.428 . S
C328 N327 1.351 . S
C328 C329 1.434 . S
C329 C320 1.429 . S
C329 N326 1.350 . S
C329 C328 1.434 . S
C330 C331 1.369 . S
C330 C332 1.419 . S
C330 H334 0.930 . S
C331 C330 1.369 . S
C331 C340 1.429 . S
C332 C330 1.419 . S
C332 C333 1.363 . S
C332 H335 0.929 . S
C333 C332 1.363 . S
C333 C339 1.428 . S
H334 C330 0.930 . S
H335 C332 0.929 . S
S336 N337 1.613 . S
S336 N338 1.610 . S
N337 S336 1.613 . S
N337 C340 1.350 . S
N338 S336 1.610 . S
N338 C339 1.351 . S
C339 C333 1.428 . S
C339 N338 1.351 . S
C339 C340 1.434 . S
C340 C331 1.429 . S
C340 N337 1.350 . S
C340 C339 1.434 . S
C341 C342 1.369 . S
C341 C343 1.419 . S
C341 H345 0.930 . S
C342 C341 1.369 . S
C342 C351 1.429 . S
C343 C341 1.419 . S
C343 C344 1.363 . S
C343 H346 0.929 . S
C344 C343 1.363 . S
C344 C350 1.428 . S
H345 C341 0.930 . S
H346 C343 0.929 . S
S347 N348 1.613 . S
S347 N349 1.610 . S
N348 S347 1.613 . S
N348 C351 1.350 . S
N349 S347 1.610 . S
N349 C350 1.351 . S
C350 C344 1.428 . S
C350 N349 1.351 . S
C350 C351 1.434 . S
C351 C342 1.429 . S
C351 N348 1.350 . S
C351 C350 1.434 . S
C352 C353 1.369 . S
C352 C354 1.419 . S
C352 H356 0.930 . S
C353 C352 1.369 . S
C353 C362 1.429 . S
C354 C352 1.419 . S
C354 C355 1.363 . S
C354 H357 0.929 . S
C355 C354 1.363 . S
C355 C361 1.428 . S
H356 C352 0.930 . S
H357 C354 0.929 . S
S358 N359 1.613 . S
S358 N360 1.610 . S
N359 S358 1.613 . S
N359 C362 1.350 . S
N360 S358 1.610 . S
N360 C361 1.351 . S
C361 C355 1.428 . S
C361 N360 1.351 . S
C361 C362 1.434 . S
C362 C353 1.429 . S
C362 N359 1.350 . S
C362 C361 1.434 . S
C363 C364 1.369 . S
C363 C365 1.419 . S
C363 H367 0.930 . S
C364 C363 1.369 . S
C364 C373 1.429 . S
C365 C363 1.419 . S
C365 C366 1.363 . S
C365 H368 0.929 . S
C366 C365 1.363 . S
C366 C372 1.428 . S
H367 C363 0.930 . S
H368 C365 0.929 . S
S369 N370 1.613 . S
S369 N371 1.610 . S
N370 S369 1.613 . S
N370 C373 1.350 . S
N371 S369 1.610 . S
N371 C372 1.351 . S
C372 C366 1.428 . S
C372 N371 1.351 . S
C372 C373 1.434 . S
C373 C364 1.429 . S
C373 N370 1.350 . S
C373 C372 1.434 . S
C374 C375 1.369 1_554 S
C374 C376 1.419 . S
C374 H378 0.930 . S
C375 C374 1.369 1_556 S
C375 C384 1.429 . S
C376 C374 1.419 . S
C376 C377 1.363 1_554 S
C376 H379 0.929 . S
C377 C376 1.363 1_556 S
C377 C383 1.428 . S
H378 C374 0.930 . S
H379 C376 0.929 . S
S380 N381 1.613 . S
S380 N382 1.610 . S
N381 S380 1.613 . S
N381 C384 1.350 . S
N382 S380 1.610 . S
N382 C383 1.351 . S
C383 C377 1.428 . S
C383 N382 1.351 . S
C383 C384 1.434 . S
C384 C375 1.429 . S
C384 N381 1.350 . S
C384 C383 1.434 . S
C385 C386 1.369 . S
C385 C387 1.419 . S
C385 H389 0.930 . S
C386 C385 1.369 . S
C386 C395 1.429 . S
C387 C385 1.419 . S
C387 C388 1.363 . S
C387 H390 0.929 . S
C388 C387 1.363 . S
C388 C394 1.428 . S
H389 C385 0.930 . S
H390 C387 0.929 . S
S391 N392 1.613 . S
S391 N393 1.610 . S
N392 S391 1.613 . S
N392 C395 1.350 . S
N393 S391 1.610 . S
N393 C394 1.351 . S
C394 C388 1.428 . S
C394 N393 1.351 . S
C394 C395 1.434 . S
C395 C386 1.429 . S
C395 N392 1.350 . S
C395 C394 1.434 . S
C396 C397 1.369 . S
C396 C398 1.419 . S
C396 H400 0.930 . S
C397 C396 1.369 . S
C397 C406 1.429 . S
C398 C396 1.419 . S
C398 C399 1.363 . S
C398 H401 0.929 . S
C399 C398 1.363 . S
C399 C405 1.428 . S
H400 C396 0.930 . S
H401 C398 0.929 . S
S402 N403 1.613 . S
S402 N404 1.610 . S
N403 S402 1.613 . S
N403 C406 1.350 . S
N404 S402 1.610 . S
N404 C405 1.351 . S
C405 C399 1.428 . S
C405 N404 1.351 . S
C405 C406 1.434 . S
C406 C397 1.429 . S
C406 N403 1.350 . S
C406 C405 1.434 . S
C407 C408 1.345 1_655 S
C407 C409 1.443 . S
C407 H411 0.930 . S
C408 C407 1.345 1_455 S
C408 C417 1.429 . S
C409 C407 1.443 . S
C409 C410 1.363 . S
C409 H412 0.929 . S
C410 C409 1.363 . S
C410 C416 1.428 . S
H411 C407 0.930 . S
H412 C409 0.929 . S
S413 N414 1.613 . S
S413 N415 1.645 . S
N414 S413 1.613 . S
N414 C417 1.350 . S
N415 S413 1.645 . S
N415 C416 1.349 1_455 S
C416 C410 1.428 . S
C416 N415 1.349 1_655 S
C416 C417 1.434 1_655 S
C417 C408 1.429 . S
C417 N414 1.350 . S
C417 C416 1.434 1_455 S
C418 C419 1.369 . S
C418 C420 1.419 . S
C418 H422 0.930 . S
C419 C418 1.369 . S
C419 C428 1.429 . S
C420 C418 1.419 . S
C420 C421 1.363 . S
C420 H423 0.929 . S
C421 C420 1.363 . S
C421 C427 1.428 . S
H422 C418 0.930 . S
H423 C420 0.929 . S
S424 N425 1.613 . S
S424 N426 1.610 . S
N425 S424 1.613 . S
N425 C428 1.350 . S
N426 S424 1.610 . S
N426 C427 1.351 . S
C427 C421 1.428 . S
C427 N426 1.351 . S
C427 C428 1.434 . S
C428 C419 1.429 . S
C428 N425 1.350 . S
C428 C427 1.434 . S
C429 C430 1.369 . S
C429 C431 1.419 . S
C429 H433 0.930 . S
C430 C429 1.369 . S
C430 C439 1.429 . S
C431 C429 1.419 . S
C431 C432 1.363 . S
C431 H434 0.929 . S
C432 C431 1.363 . S
C432 C438 1.428 . S
H433 C429 0.930 . S
H434 C431 0.929 . S
S435 N436 1.613 . S
S435 N437 1.610 . S
N436 S435 1.613 . S
N436 C439 1.350 . S
N437 S435 1.610 . S
N437 C438 1.351 . S
C438 C432 1.428 . S
C438 N437 1.351 . S
C438 C439 1.434 . S
C439 C430 1.429 . S
C439 N436 1.350 . S
C439 C438 1.434 . S
C440 C441 1.369 . S
C440 C442 1.419 . S
C440 H444 0.930 . S
C441 C440 1.369 . S
C441 C450 1.429 . S
C442 C440 1.419 . S
C442 C443 1.363 . S
C442 H445 0.929 . S
C443 C442 1.363 . S
C443 C449 1.428 . S
H444 C440 0.930 . S
H445 C442 0.929 . S
S446 N447 1.613 . S
S446 N448 1.610 . S
N447 S446 1.613 . S
N447 C450 1.350 . S
N448 S446 1.610 . S
N448 C449 1.351 . S
C449 C443 1.428 . S
C449 N448 1.351 . S
C449 C450 1.434 . S
C450 C441 1.429 . S
C450 N447 1.350 . S
C450 C449 1.434 . S
C451 C452 1.369 . S
C451 C453 1.419 . S
C451 H455 0.930 . S
C452 C451 1.369 . S
C452 C461 1.429 . S
C453 C451 1.419 . S
C453 C454 1.363 . S
C453 H456 0.929 . S
C454 C453 1.363 . S
C454 C460 1.428 . S
H455 C451 0.930 . S
H456 C453 0.929 . S
S457 N458 1.613 . S
S457 N459 1.610 . S
N458 S457 1.613 . S
N458 C461 1.350 . S
N459 S457 1.610 . S
N459 C460 1.351 . S
C460 C454 1.428 . S
C460 N459 1.351 . S
C460 C461 1.434 . S
C461 C452 1.429 . S
C461 N458 1.350 . S
C461 C460 1.434 . S
C462 C463 1.369 . S
C462 C464 1.419 . S
C462 H466 0.930 . S
C463 C462 1.369 . S
C463 C472 1.429 . S
C464 C462 1.419 . S
C464 C465 1.363 . S
C464 H467 0.929 . S
C465 C464 1.363 . S
C465 C471 1.428 . S
H466 C462 0.930 . S
H467 C464 0.929 . S
S468 N469 1.613 . S
S468 N470 1.610 . S
N469 S468 1.613 . S
N469 C472 1.350 . S
N470 S468 1.610 . S
N470 C471 1.351 . S
C471 C465 1.428 . S
C471 N470 1.351 . S
C471 C472 1.434 . S
C472 C463 1.429 . S
C472 N469 1.350 . S
C472 C471 1.434 . S
C473 C474 1.369 . S
C473 C475 1.419 . S
C473 H477 0.930 1_565 S
C474 C473 1.369 . S
C474 C483 1.429 . S
C475 C473 1.419 . S
C475 C476 1.363 . S
C475 H478 0.929 . S
C476 C475 1.363 . S
C476 C482 1.428 . S
H477 C473 0.930 1_545 S
H478 C475 0.929 . S
S479 N480 1.613 . S
S479 N481 1.610 . S
N480 S479 1.613 . S
N480 C483 1.350 . S
N481 S479 1.610 . S
N481 C482 1.351 . S
C482 C476 1.428 . S
C482 N481 1.351 . S
C482 C483 1.434 . S
C483 C474 1.429 . S
C483 N480 1.350 . S
C483 C482 1.434 . S
C484 C485 1.369 . S
C484 C486 1.419 . S
C484 H488 0.930 . S
C485 C484 1.369 . S
C485 C494 1.429 . S
C486 C484 1.419 . S
C486 C487 1.363 . S
C486 H489 0.929 . S
C487 C486 1.363 . S
C487 C493 1.428 . S
H488 C484 0.930 . S
H489 C486 0.929 . S
S490 N491 1.613 . S
S490 N492 1.610 . S
N491 S490 1.613 . S
N491 C494 1.350 . S
N492 S490 1.610 . S
N492 C493 1.351 . S
C493 C487 1.428 . S
C493 N492 1.351 . S
C493 C494 1.434 . S
C494 C485 1.429 . S
C494 N491 1.350 . S
C494 C493 1.434 . S
C495 C496 1.369 . S
C495 C497 1.419 . S
C495 H499 0.930 . S
C496 C495 1.369 . S
C496 C505 1.429 . S
C497 C495 1.419 . S
C497 C498 1.363 . S
C497 H500 0.929 . S
C498 C497 1.363 . S
C498 C504 1.428 . S
H499 C495 0.930 . S
H500 C497 0.929 . S
S501 N502 1.613 . S
S501 N503 1.610 . S
N502 S501 1.613 . S
N502 C505 1.350 . S
N503 S501 1.610 . S
N503 C504 1.351 . S
C504 C498 1.428 . S
C504 N503 1.351 . S
C504 C505 1.434 . S
C505 C496 1.429 . S
C505 N502 1.350 . S
C505 C504 1.434 . S
C506 C507 1.369 . S
C506 C508 1.419 . S
C506 H510 0.930 . S
C507 C506 1.369 . S
C507 C516 1.429 . S
C508 C506 1.419 . S
C508 C509 1.363 . S
C508 H511 0.929 . S
C509 C508 1.363 . S
C509 C515 1.428 . S
H510 C506 0.930 . S
H511 C508 0.929 . S
S512 N513 1.613 . S
S512 N514 1.610 . S
N513 S512 1.613 . S
N513 C516 1.350 . S
N514 S512 1.610 . S
N514 C515 1.351 . S
C515 C509 1.428 . S
C515 N514 1.351 . S
C515 C516 1.434 . S
C516 C507 1.429 . S
C516 N513 1.350 . S
C516 C515 1.434 . S
C517 C518 1.369 . S
C517 C519 1.419 . S
C517 H521 0.930 . S
C518 C517 1.369 . S
C518 C527 1.429 . S
C519 C517 1.419 . S
C519 C520 1.363 . S
C519 H522 0.929 . S
C520 C519 1.363 . S
C520 C526 1.428 . S
H521 C517 0.930 . S
H522 C519 0.929 . S
S523 N524 1.613 . S
S523 N525 1.610 . S
N524 S523 1.613 . S
N524 C527 1.350 . S
N525 S523 1.610 . S
N525 C526 1.351 . S
C526 C520 1.428 . S
C526 N525 1.351 . S
C526 C527 1.434 . S
C527 C518 1.429 . S
C527 N524 1.350 . S
C527 C526 1.434 . S
C528 C529 1.369 . S
C528 C530 1.419 . S
C528 H532 0.930 . S
C529 C528 1.369 . S
C529 C538 1.429 . S
C530 C528 1.419 . S
C530 C531 1.363 . S
C530 H533 0.929 . S
C531 C530 1.363 . S
C531 C537 1.428 . S
H532 C528 0.930 . S
H533 C530 0.929 . S
S534 N535 1.613 . S
S534 N536 1.610 . S
N535 S534 1.613 . S
N535 C538 1.350 . S
N536 S534 1.610 . S
N536 C537 1.351 . S
C537 C531 1.428 . S
C537 N536 1.351 . S
C537 C538 1.434 . S
C538 C529 1.429 . S
C538 N535 1.350 . S
C538 C537 1.434 . S
C539 C540 1.369 . S
C539 C541 1.419 . S
C539 H543 0.930 . S
C540 C539 1.369 . S
C540 C549 1.429 . S
C541 C539 1.419 . S
C541 C542 1.363 . S
C541 H544 0.929 . S
C542 C541 1.363 . S
C542 C548 1.428 . S
H543 C539 0.930 . S
H544 C541 0.929 . S
S545 N546 1.613 . S
S545 N547 1.610 . S
N546 S545 1.613 . S
N546 C549 1.350 . S
N547 S545 1.610 . S
N547 C548 1.351 . S
C548 C542 1.428 . S
C548 N547 1.351 . S
C548 C549 1.434 . S
C549 C540 1.429 . S
C549 N546 1.350 . S
C549 C548 1.434 . S
C550 C551 1.369 . S
C550 C552 1.419 . S
C550 H554 0.930 . S
C551 C550 1.369 . S
C551 C560 1.429 . S
C552 C550 1.419 . S
C552 C553 1.363 . S
C552 H555 0.929 . S
C553 C552 1.363 . S
C553 C559 1.428 . S
H554 C550 0.930 . S
H555 C552 0.929 . S
S556 N557 1.613 . S
S556 N558 1.610 . S
N557 S556 1.613 . S
N557 C560 1.350 . S
N558 S556 1.610 . S
N558 C559 1.351 . S
C559 C553 1.428 . S
C559 N558 1.351 . S
C559 C560 1.434 . S
C560 C551 1.429 . S
C560 N557 1.350 . S
C560 C559 1.434 . S
C561 C562 1.369 . S
C561 C563 1.419 . S
C561 H565 0.930 . S
C562 C561 1.369 . S
C562 C571 1.429 . S
C563 C561 1.419 . S
C563 C564 1.363 . S
C563 H566 0.929 . S
C564 C563 1.363 . S
C564 C570 1.428 . S
H565 C561 0.930 . S
H566 C563 0.929 . S
S567 N568 1.613 . S
S567 N569 1.610 . S
N568 S567 1.613 . S
N568 C571 1.350 . S
N569 S567 1.610 . S
N569 C570 1.351 . S
C570 C564 1.428 . S
C570 N569 1.351 . S
C570 C571 1.434 . S
C571 C562 1.429 . S
C571 N568 1.350 . S
C571 C570 1.434 . S
C572 C573 1.369 . S
C572 C574 1.419 . S
C572 H576 0.930 . S
C573 C572 1.369 . S
C573 C582 1.429 . S
C574 C572 1.419 . S
C574 C575 1.363 . S
C574 H577 0.929 . S
C575 C574 1.363 . S
C575 C581 1.428 . S
H576 C572 0.930 . S
H577 C574 0.929 . S
S578 N579 1.613 . S
S578 N580 1.610 . S
N579 S578 1.613 . S
N579 C582 1.350 . S
N580 S578 1.610 . S
N580 C581 1.351 . S
C581 C575 1.428 . S
C581 N580 1.351 . S
C581 C582 1.434 . S
C582 C573 1.429 . S
C582 N579 1.350 . S
C582 C581 1.434 . S
C583 C584 1.369 . S
C583 C585 1.419 . S
C583 H587 0.930 . S
C584 C583 1.369 . S
C584 C593 1.429 . S
C585 C583 1.419 . S
C585 C586 1.363 . S
C585 H588 0.929 . S
C586 C585 1.363 . S
C586 C592 1.428 . S
H587 C583 0.930 . S
H588 C585 0.929 . S
S589 N590 1.613 . S
S589 N591 1.610 . S
N590 S589 1.613 . S
N590 C593 1.350 . S
N591 S589 1.610 . S
N591 C592 1.351 . S
C592 C586 1.428 . S
C592 N591 1.351 . S
C592 C593 1.434 . S
C593 C584 1.429 . S
C593 N590 1.350 . S
C593 C592 1.434 . S
C594 C595 1.369 . S
C594 C596 1.419 . S
C594 H598 0.930 . S
C595 C594 1.369 . S
C595 C604 1.429 . S
C596 C594 1.419 . S
C596 C597 1.341 1_554 S
C596 H599 0.929 . S
C597 C596 1.341 1_556 S
C597 C603 1.417 1_556 S
H598 C594 0.930 . S
H599 C596 0.929 . S
S600 N601 1.613 . S
S600 N602 1.610 1_554 S
N601 S600 1.613 . S
N601 C604 1.350 . S
N602 S600 1.610 1_556 S
N602 C603 1.351 1_556 S
C603 C597 1.417 1_554 S
C603 N602 1.351 1_554 S
C603 C604 1.434 . S
C604 C595 1.429 . S
C604 N601 1.350 . S
C604 C603 1.434 . S
C605 C606 1.369 . S
C605 C607 1.419 . S
C605 H609 0.930 . S
C606 C605 1.369 . S
C606 C615 1.429 . S
C607 C605 1.419 . S
C607 C608 1.363 . S
C607 H610 0.929 . S
C608 C607 1.363 . S
C608 C614 1.428 . S
H609 C605 0.930 . S
H610 C607 0.929 . S
S611 N612 1.613 . S
S611 N613 1.610 . S
N612 S611 1.613 . S
N612 C615 1.350 . S
N613 S611 1.610 . S
N613 C614 1.351 . S
C614 C608 1.428 . S
C614 N613 1.351 . S
C614 C615 1.434 . S
C615 C606 1.429 . S
C615 N612 1.350 . S
C615 C614 1.434 . S
C616 C617 1.369 1_565 S
C616 C618 1.419 . S
C616 H620 0.930 . S
C617 C616 1.369 1_545 S
C617 C626 1.429 . S
C618 C616 1.419 . S
C618 C619 1.363 . S
C618 H621 0.929 . S
C619 C618 1.363 . S
C619 C625 1.432 . S
H620 C616 0.930 . S
H621 C618 0.929 . S
S622 N623 1.613 . S
S622 N624 1.610 . S
N623 S622 1.613 . S
N623 C626 1.350 . S
N624 S622 1.610 . S
N624 C625 1.350 1_545 S
C625 C619 1.432 . S
C625 N624 1.350 1_565 S
C625 C626 1.432 1_565 S
C626 C617 1.429 . S
C626 N623 1.350 . S
C626 C625 1.432 1_545 S
C627 C628 1.369 . S
C627 C629 1.419 . S
C627 H631 0.930 . S
C628 C627 1.369 . S
C628 C637 1.429 . S
C629 C627 1.419 . S
C629 C630 1.363 . S
C629 H632 0.929 . S
C630 C629 1.363 . S
C630 C636 1.428 . S
H631 C627 0.930 . S
H632 C629 0.929 . S
S633 N634 1.613 . S
S633 N635 1.610 . S
N634 S633 1.613 . S
N634 C637 1.350 . S
N635 S633 1.610 . S
N635 C636 1.351 . S
C636 C630 1.428 . S
C636 N635 1.351 . S
C636 C637 1.434 . S
C637 C628 1.429 . S
C637 N634 1.350 . S
C637 C636 1.434 . S
C638 C639 1.369 . S
C638 C640 1.419 . S
C638 H642 0.930 . S
C639 C638 1.369 . S
C639 C648 1.429 . S
C640 C638 1.419 . S
C640 C641 1.363 . S
C640 H643 0.929 . S
C641 C640 1.363 . S
C641 C647 1.428 . S
H642 C638 0.930 . S
H643 C640 0.929 . S
S644 N645 1.613 . S
S644 N646 1.610 . S
N645 S644 1.613 . S
N645 C648 1.350 . S
N646 S644 1.610 . S
N646 C647 1.351 . S
C647 C641 1.428 . S
C647 N646 1.351 . S
C647 C648 1.434 . S
C648 C639 1.429 . S
C648 N645 1.350 . S
C648 C647 1.434 . S
C649 C650 1.369 . S
C649 C651 1.419 . S
C649 H653 0.930 . S
C650 C649 1.369 . S
C650 C659 1.429 . S
C651 C649 1.419 . S
C651 C652 1.363 . S
C651 H654 0.929 . S
C652 C651 1.363 . S
C652 C658 1.428 . S
H653 C649 0.930 . S
H654 C651 0.929 . S
S655 N656 1.613 . S
S655 N657 1.610 . S
N656 S655 1.613 . S
N656 C659 1.350 . S
N657 S655 1.610 . S
N657 C658 1.351 . S
C658 C652 1.428 . S
C658 N657 1.351 . S
C658 C659 1.434 . S
C659 C650 1.429 . S
C659 N656 1.350 . S
C659 C658 1.434 . S
C265 C51 1.745 . S
C267 C7 1.762 . S
C276 C62 1.550 . S
C278 C16 1.250 . S
C287 C29 1.710 . S
C289 C73 1.706 . S
C298 C82 1.259 . S
C300 C40 1.470 . S
C309 C95 1.873 . S
C311 C126 1.432 . S
C320 C115 1.414 . S
C322 C106 1.541 . S
C331 C137 1.682 . S
C333 C181 1.720 . S
C342 C192 1.167 . S
C344 C150 1.474 . S
C353 C205 1.453 . S
C355 C161 1.479 . S
C364 C170 1.272 . S
C366 C216 1.339 . S
C375 C260 1.519 . S
C377 C225 1.604 . S
C386 C249 1.411 . S
C388 C236 1.405 . S
C397 C217 1.685 . S
C399 C8 1.685 . S
C408 C184 1.966 . S
C410 C18 1.854 . S
C419 C27 1.851 . S
C421 C195 1.931 . S
C430 C38 1.560 . S
C432 C206 1.649 . S
C441 C52 1.770 . S
C443 C148 1.615 . S
C452 C162 1.823 . S
C454 C60 1.907 . S
C463 C71 1.741 . S
C465 C172 1.816 . S
C474 C85 1.738 1_465 S
C476 C140 1.771 . S
C485 C41 1.680 . S
C487 C261 1.603 . S
C496 C5 1.664 . S
C498 C238 1.777 . S
C507 C19 1.599 . S
C509 C228 1.613 . S
C518 C30 1.924 . S
C520 C247 1.449 . S
C529 C63 1.624 . S
C531 C250 1.600 . S
C540 C74 1.873 . S
C542 C258 1.323 . S
C551 C239 1.772 . S
C553 C84 1.679 . S
C562 C49 1.741 . S
C564 C227 1.797 . S
C573 C93 1.873 . S
C575 C183 1.943 . S
C584 C139 1.899 . S
C586 C104 1.422 . S
C595 C96 1.900 . S
C597 C151 1.953 . S
C606 C118 1.783 . S
C608 C159 1.463 . S
C617 C173 1.768 . S
C619 C129 1.724 . S
C628 C203 1.633 . S
C630 C128 1.871 . S
C639 C214 1.855 1_565 S
C641 C107 1.789 . S
C650 C194 1.967 . S
C652 C117 1.966 . S
