# Generated by pormake.
# Topology bcg, (8)-cn, num edge types: 1
# Building blocks:
#     Node 0, Type 0, BuildingBlock: TAGTUT_clean_sbu_1, # of connection points: 8
#     Node 1, Type 0, BuildingBlock: TAGTUT_clean_sbu_1, # of connection points: 8
#     Node 2, Type 0, BuildingBlock: TAGTUT_clean_sbu_1, # of connection points: 8
#     Node 3, Type 0, BuildingBlock: TAGTUT_clean_sbu_1, # of connection points: 8
#     Edge 4, Type (0, 0), BuildingBlock: MIFKUJ_clean_linker_0, # of connection points: 2
#     Edge 5, Type (0, 0), BuildingBlock: MIFKUJ_clean_linker_0, # of connection points: 2
#     Edge 6, Type (0, 0), BuildingBlock: MIFKUJ_clean_linker_0, # of connection points: 2
#     Edge 7, Type (0, 0), BuildingBlock: MIFKUJ_clean_linker_0, # of connection points: 2
#     Edge 8, Type (0, 0), BuildingBlock: MIFKUJ_clean_linker_0, # of connection points: 2
#     Edge 9, Type (0, 0), BuildingBlock: MIFKUJ_clean_linker_0, # of connection points: 2
#     Edge 10, Type (0, 0), BuildingBlock: MIFKUJ_clean_linker_0, # of connection points: 2
#     Edge 11, Type (0, 0), BuildingBlock: MIFKUJ_clean_linker_0, # of connection points: 2
#     Edge 12, Type (0, 0), BuildingBlock: MIFKUJ_clean_linker_0, # of connection points: 2
#     Edge 13, Type (0, 0), BuildingBlock: MIFKUJ_clean_linker_0, # of connection points: 2
#     Edge 14, Type (0, 0), BuildingBlock: MIFKUJ_clean_linker_0, # of connection points: 2
#     Edge 15, Type (0, 0), BuildingBlock: MIFKUJ_clean_linker_0, # of connection points: 2
#     Edge 16, Type (0, 0), BuildingBlock: MIFKUJ_clean_linker_0, # of connection points: 2
#     Edge 17, Type (0, 0), BuildingBlock: MIFKUJ_clean_linker_0, # of connection points: 2
#     Edge 18, Type (0, 0), BuildingBlock: MIFKUJ_clean_linker_0, # of connection points: 2
#     Edge 19, Type (0, 0), BuildingBlock: MIFKUJ_clean_linker_0, # of connection points: 2
# Relax obj value: 0.095
# Max RMSD: 0.201
# Mean RMSD: 0.201
data_MOF--net-bcg--node1-TAGTUT_clean_sbu_1--edge1-MIFKUJ_clean_linker_0
_symmetry_space_group_name_H-M    P1
_symmetry_Int_Tables_number       1
_symmetry_cell_setting            triclinic
loop_
_symmetry_equiv_pos_as_xyz
'x, y, z'
_cell_length_a     19.467874
_cell_length_b     35.069733
_cell_length_c     40.98745
_cell_angle_alpha  85.432051
_cell_angle_beta   89.864608
_cell_angle_gamma 89.931562
loop_
_atom_site_label
_atom_site_type_symbol
_atom_site_fract_x
_atom_site_fract_y
_atom_site_fract_z
_atom_type_partial_charge
C0 C 0.19007 0.2722 0.12605 0.0
C1 C 0.37867 0.28746 0.07532 0.0
C2 C 0.24594 0.37671 0.98361 0.0
Mg3 Mg 0.25688 0.23534 0.06729 0.0
O4 O 0.20916 0.27498 0.04438 0.0
Mg5 Mg 0.22304 0.32857 0.05663 0.0
Mg6 Mg 0.22897 0.28373 -0.00303 0.0
O7 O 0.24688 0.29246 0.94896 0.0
Mg8 Mg 0.19212 0.32861 0.9251 0.0
Mg9 Mg 0.24369 0.23792 0.93807 0.0
C10 C 0.21334 0.18888 0.00898 0.0
C11 C 0.381 0.2569 0.97973 0.0
O12 O 0.19036 0.30527 0.10984 0.0
O13 O 0.21158 0.24182 0.11392 0.0
O14 O 0.33688 0.31596 0.0733 0.0
O15 O 0.35987 0.25403 0.06906 0.0
O16 O 0.23082 0.18752 0.03917 0.0
O17 O 0.21033 0.22077 0.99135 0.0
C18 C 0.08312 0.32167 0.01308 0.0
O19 O 0.11704 0.30087 0.99428 0.0
O20 O 0.11097 0.3359 0.03788 0.0
O21 O 0.2711 0.26061 0.88517 0.0
O22 O 0.23672 0.32203 0.8774 0.0
O23 O 0.12925 0.2419 0.92413 0.0
C24 C 0.26415 0.29196 0.867 0.0
O25 O 0.09201 0.30238 0.92401 0.0
O26 O 0.22101 0.37646 0.95447 0.0
C27 C 0.08096 0.26678 0.92137 0.0
O28 O 0.25326 0.34568 0.00225 0.0
O29 O 0.34035 0.26999 0.00057 0.0
O30 O 0.35857 0.24145 0.9544 0.0
C31 C 0.72507 0.7538 0.1169 0.0
C32 C 0.91781 0.76665 0.06797 0.0
C33 C 0.79456 0.86092 0.9773 0.0
Mg34 Mg 0.79062 0.71619 0.05826 0.0
O35 O 0.75114 0.75812 0.03471 0.0
Mg36 Mg 0.76624 0.81071 0.04871 0.0
Mg37 Mg 0.76911 0.76776 0.98695 0.0
O38 O 0.78597 0.77747 0.93902 0.0
Mg39 Mg 0.73944 0.81817 0.91663 0.0
Mg40 Mg 0.76837 0.72443 0.92605 0.0
C41 C 0.73612 0.67487 -0.00273 0.0
C42 C 0.91309 0.72826 0.96661 0.0
O43 O 0.73204 0.787 0.10143 0.0
O44 O 0.74105 0.72278 0.10418 0.0
O45 O 0.87943 0.7965 0.06419 0.0
O46 O 0.89488 0.73316 0.06405 0.0
O47 O 0.756 0.67179 0.02727 0.0
O48 O 0.73833 0.707 0.97993 0.0
C49 C 0.62409 0.80667 0.00608 0.0
O50 O 0.65797 0.78872 0.98524 0.0
O51 O 0.65259 0.81827 0.03179 0.0
O52 O 0.7969 0.74816 0.87303 0.0
O53 O 0.78278 0.81212 0.86913 0.0
O54 O 0.65425 0.73718 0.91346 0.0
C55 C 0.79933 0.78101 0.85663 0.0
O56 O 0.63505 0.80006 0.91313 0.0
O57 O 0.77165 0.86303 0.94777 0.0
C58 C 0.61368 0.76602 0.91057 0.0
O59 O 0.79944 0.82877 0.99461 0.0
O60 O 0.88043 0.74633 0.98791 0.0
O61 O 0.883 0.71681 0.94123 0.0
C62 C 0.23913 0.74061 0.36798 0.0
C63 C 0.42156 0.72094 0.42227 0.0
C64 C 0.27949 0.64017 0.51397 0.0
Mg65 Mg 0.30435 0.77833 0.42677 0.0
O66 O 0.25242 0.7407 0.44997 0.0
Mg67 Mg 0.26076 0.68632 0.43926 0.0
Mg68 Mg 0.26319 0.73387 0.49826 0.0
O69 O 0.27332 0.7272 0.54681 0.0
Mg70 Mg 0.21914 0.68982 0.56944 0.0
Mg71 Mg 0.25876 0.78199 0.55589 0.0
C72 C 0.24557 0.82755 0.4822 0.0
C73 C 0.40512 0.76904 0.51954 0.0
O74 O 0.23505 0.70839 0.38529 0.0
O75 O 0.26231 0.77096 0.3795 0.0
O76 O 0.37635 0.69424 0.42529 0.0
O77 O 0.40647 0.75576 0.42629 0.0
O78 O 0.27165 0.82703 0.45338 0.0
O79 O 0.23876 0.79662 0.50093 0.0
C80 C 0.11821 0.70175 0.47761 0.0
O81 O 0.15465 0.71844 0.49793 0.0
O82 O 0.14485 0.68545 0.45359 0.0
O83 O 0.27713 0.76214 0.61061 0.0
O84 O 0.25239 0.69936 0.61824 0.0
O85 O 0.14203 0.77275 0.56557 0.0
C86 C 0.2713 0.73096 0.62918 0.0
O87 O 0.11596 0.71057 0.56613 0.0
O88 O 0.25393 0.64144 0.54287 0.0
C89 C 0.0981 0.74544 0.56755 0.0
O90 O 0.28687 0.67075 0.49468 0.0
O91 O 0.37172 0.75049 0.49918 0.0
O92 O 0.37545 0.78468 0.54325 0.0
C93 C 0.70641 0.22452 0.37612 0.0
C94 C 0.89669 0.21481 0.42744 0.0
C95 C 0.76763 0.12944 0.52113 0.0
Mg96 Mg 0.77109 0.26631 0.43251 0.0
O97 O 0.72488 0.22735 0.45705 0.0
Mg98 Mg 0.74272 0.17312 0.44707 0.0
Mg99 Mg 0.74273 0.22212 0.50481 0.0
O100 O 0.76068 0.21692 0.55257 0.0
Mg101 Mg 0.71203 0.17918 0.5777 0.0
Mg102 Mg 0.74969 0.27179 0.56203 0.0
C103 C 0.71801 0.31585 0.48855 0.0
C104 C 0.88913 0.26003 0.51975 0.0
O105 O 0.70988 0.19237 0.39352 0.0
O106 O 0.72536 0.25621 0.38677 0.0
O107 O 0.85644 0.18581 0.43107 0.0
O108 O 0.87554 0.24875 0.43073 0.0
O109 O 0.73929 0.31486 0.45895 0.0
O110 O 0.71494 0.28522 0.50803 0.0
C111 C 0.60081 0.17991 0.4892 0.0
O112 O 0.63282 0.20106 0.50827 0.0
O113 O 0.63012 0.1661 0.46455 0.0
O114 O 0.78138 0.25149 0.61569 0.0
O115 O 0.76043 0.18815 0.62315 0.0
O116 O 0.63683 0.26284 0.57718 0.0
C117 C 0.78203 0.21949 0.63349 0.0
O118 O 0.60895 0.20088 0.58162 0.0
O119 O 0.74334 0.13055 0.5503 0.0
C120 C 0.59254 0.23611 0.5823 0.0
O121 O 0.77293 0.15998 0.5017 0.0
O122 O 0.85217 0.24105 0.50106 0.0
O123 O 0.86342 0.27563 0.54438 0.0
H124 H 0.50523 0.22007 0.97024 0.0
H125 H 0.62059 0.24903 0.97273 0.0
H126 H 0.52777 0.35766 0.98894 0.0
H127 H 0.41524 0.32894 0.98847 0.0
H128 H 0.67048 0.31953 0.93265 0.0
H129 H 0.60169 0.39855 0.01455 0.0
H130 H 0.54207 0.42228 0.06197 0.0
H131 H 0.61506 0.32564 0.1224 0.0
H132 H 0.66891 0.2991 0.0745 0.0
H133 H -0.00204 0.3767 0.03536 0.0
H134 H 0.87506 0.38549 0.0239 0.0
H135 H 0.87994 0.28985 0.96376 0.0
H136 H 0.00086 0.28054 0.97576 0.0
H137 H 0.77226 0.34711 0.03898 0.0
H138 H 0.76144 0.30548 0.89782 0.0
H139 H 0.80714 0.33397 0.84533 0.0
H140 H 0.89631 0.42545 0.89422 0.0
H141 H 0.84447 0.40017 0.94612 0.0
C142 C 0.51012 0.24991 0.97487 0.0
C143 C 0.45168 0.27193 0.98023 0.0
C144 C 0.57565 0.26649 0.97629 0.0
C145 C 0.58314 0.30529 0.98245 0.0
C146 C 0.52434 0.32741 0.98614 0.0
C147 C 0.45963 0.31086 0.9855 0.0
C148 C 0.65251 0.32244 0.98403 0.0
C149 C 0.69372 0.32491 0.95582 0.0
C150 C 0.67964 0.33509 0.01327 0.0
C151 C 0.63632 0.34595 0.04061 0.0
C152 C 0.60167 0.38125 0.03759 0.0
C153 C 0.56893 0.39518 0.06456 0.0
C154 C 0.57331 0.37484 0.09512 0.0
C155 C 0.60971 0.34043 0.09854 0.0
C156 C 0.64027 0.3256 0.07137 0.0
C157 C 0.97269 0.35775 0.01958 0.0
C158 C 0.0094 0.32825 0.00605 0.0
C159 C 0.90259 0.36286 0.01295 0.0
C160 C 0.86832 0.33866 0.99258 0.0
C161 C 0.90534 0.30956 0.97884 0.0
C162 C 0.97481 0.30428 0.98567 0.0
C163 C 0.7928 0.34052 0.98802 0.0
C164 C 0.75036 0.3414 0.01555 0.0
C165 C 0.76252 0.33703 0.95705 0.0
C166 C 0.79898 0.35041 0.9262 0.0
C167 C 0.78971 0.33192 0.89735 0.0
C168 C 0.81639 0.34774 0.8676 0.0
C169 C 0.85548 0.38114 0.86652 0.0
C170 C 0.86662 0.39932 0.8951 0.0
C171 C 0.83786 0.38442 0.92468 0.0
H172 H 0.87678 0.39304 0.84351 0.0
H173 H 0.54945 0.386 0.11626 0.0
H174 H 0.0105 0.72619 0.91791 0.0
H175 H 0.13499 0.73551 0.92378 0.0
H176 H 0.11044 0.73375 0.02845 0.0
H177 H 0.98738 0.72348 0.02259 0.0
H178 H 0.16887 0.80023 0.00076 0.0
H179 H 0.18842 0.66674 -0.00245 0.0
H180 H 0.18206 0.60226 0.97826 0.0
H181 H 0.321 0.63554 0.89968 0.0
H182 H 0.32755 0.70038 0.91817 0.0
H183 H 0.52813 0.79048 0.05361 0.0
H184 H 0.40624 0.77659 0.04518 0.0
H185 H 0.42808 0.80903 0.94219 0.0
H186 H 0.54934 0.82422 0.95065 0.0
H187 H 0.37257 0.7282 0.96686 0.0
H188 H 0.34874 0.86365 0.97343 0.0
H189 H 0.35784 0.92512 -0.0018 0.0
H190 H 0.22824 0.88241 0.07775 0.0
H191 H 0.21963 0.82035 0.0539 0.0
C192 C 0.03206 0.72658 0.94222 0.0
C193 C 0.98888 0.72493 0.96992 0.0
C194 C 0.10315 0.73203 0.94552 0.0
C195 C 0.13184 0.73581 0.97655 0.0
C196 C 0.08936 0.73135 0.00425 0.0
C197 C 0.01891 0.72572 0.00093 0.0
C198 C 0.20373 0.74898 0.98022 0.0
C199 C 0.21345 0.78418 0.99369 0.0
C200 C 0.26172 0.72827 0.97033 0.0
C201 C 0.25599 0.68934 0.95845 0.0
C202 C 0.21598 0.66085 0.97555 0.0
C203 C 0.2129 0.62397 0.96495 0.0
C204 C 0.25032 0.61492 0.93749 0.0
C205 C 0.29128 0.64268 0.92071 0.0
C206 C 0.2945 0.67959 0.9312 0.0
C207 C 0.50637 0.79602 0.02939 0.0
C208 C 0.54847 0.80793 0.0026 0.0
C209 C 0.43684 0.7879 0.02462 0.0
C210 C 0.40827 0.79186 0.99314 0.0
C211 C 0.44936 0.80555 0.96665 0.0
C212 C 0.51863 0.81395 0.97145 0.0
C213 C 0.33706 0.77904 0.98756 0.0
C214 C 0.32761 0.74409 0.97368 0.0
C215 C 0.27921 0.79944 -0.00229 0.0
C216 C 0.28535 0.83676 0.01232 0.0
C217 C 0.32353 0.86695 -0.0034 0.0
C218 C 0.3282 0.90206 0.01038 0.0
C219 C 0.29415 0.90758 0.03968 0.0
C220 C 0.25496 0.87807 0.05515 0.0
C221 C 0.25026 0.84289 0.04151 0.0
H222 H 0.29773 0.9348 0.05028 0.0
H223 H 0.24818 0.58629 0.92945 0.0
H224 H 0.47729 0.72255 0.48299 0.0
H225 H 0.59936 0.71519 0.47903 0.0
H226 H 0.62903 0.79996 0.54844 0.0
H227 H 0.50344 0.80911 0.55161 0.0
H228 H 0.71481 0.80738 0.4917 0.0
H229 H 0.65385 0.71104 0.57525 0.0
H230 H 0.5847 0.65815 0.60132 0.0
H231 H 0.63401 0.58883 0.52279 0.0
H232 H 0.70283 0.64141 0.49597 0.0
H233 H 0.05956 0.76142 0.50362 0.0
H234 H 0.94019 0.77362 0.51233 0.0
H235 H 0.88654 0.67596 0.45973 0.0
H236 H 0.00964 0.66067 0.45404 0.0
H237 H 0.81311 0.67703 0.5126 0.0
H238 H 0.86809 0.77509 0.42736 0.0
H239 H 0.93271 0.82905 0.4 0.0
H240 H 0.89365 0.89576 0.48151 0.0
H241 H 0.82878 0.8422 0.5092 0.0
C242 C 0.50898 0.74064 0.49687 0.0
C243 C 0.48039 0.76715 0.51709 0.0
C244 C 0.57907 0.7357 0.49503 0.0
C245 C 0.62261 0.7564 0.51396 0.0
C246 C 0.59539 0.78349 0.53393 0.0
C247 C 0.52413 0.78872 0.53567 0.0
C248 C 0.6966 0.74962 0.51141 0.0
C249 C 0.73714 0.77919 0.49695 0.0
C250 C 0.72402 0.71235 0.51728 0.0
C251 C 0.68328 0.68034 0.5335 0.0
C252 C 0.64964 0.68461 0.56341 0.0
C253 C 0.61057 0.65464 0.57834 0.0
C254 C 0.60492 0.62016 0.56367 0.0
C255 C 0.63852 0.61553 0.5341 0.0
C256 C 0.67769 0.6454 0.51906 0.0
C257 C 0.02287 0.74155 0.49472 0.0
C258 C 0.04404 0.70889 0.47955 0.0
C259 C 0.9542 0.74945 0.49883 0.0
C260 C 0.9044 0.72631 0.48608 0.0
C261 C 0.92467 0.69428 0.46967 0.0
C262 C 0.99453 0.68557 0.46636 0.0
C263 C 0.83161 0.73468 0.4922 0.0
C264 C 0.79127 0.70534 0.50743 0.0
C265 C 0.80436 0.77223 0.48697 0.0
C266 C 0.84363 0.80453 0.47031 0.0
C267 C 0.87342 0.80122 0.43941 0.0
C268 C 0.91 0.83179 0.42383 0.0
C269 C 0.91714 0.8659 0.43895 0.0
C270 C 0.8878 0.86945 0.4697 0.0
C271 C 0.85093 0.83902 0.48529 0.0
H272 H 0.94535 0.88955 0.42682 0.0
H273 H 0.57457 0.597 0.57524 0.0
H274 H 0.99203 0.3064 0.54153 0.0
H275 H 0.11695 0.29509 0.53785 0.0
H276 H 0.07857 0.19467 0.48642 0.0
H277 H 0.95648 0.20535 0.48995 0.0
H278 H 0.16145 0.1821 0.54282 0.0
H279 H 0.12631 0.27053 0.44798 0.0
H280 H 0.10201 0.33179 0.41645 0.0
H281 H 0.27577 0.38268 0.46036 0.0
H282 H 0.29765 0.32269 0.49406 0.0
H283 H 0.50395 0.18322 0.4414 0.0
H284 H 0.38111 0.19524 0.44869 0.0
H285 H 0.40766 0.1844 0.55357 0.0
H286 H 0.52903 0.16994 0.54616 0.0
H287 H 0.3335 0.25664 0.47522 0.0
H288 H 0.25894 0.16454 0.59122 0.0
H289 H 0.28591 0.10196 0.62014 0.0
H290 H 0.33574 0.05669 0.52868 0.0
H291 H 0.30849 0.119 0.4992 0.0
C292 C 0.01065 0.28231 0.52907 0.0
C293 C 0.96433 0.25721 0.51554 0.0
C294 C 0.08173 0.27584 0.52706 0.0
C295 C 0.10657 0.24386 0.51206 0.0
C296 C 0.06036 0.21942 0.49815 0.0
C297 C 0.99033 0.22599 0.49983 0.0
C298 C 0.18007 0.23364 0.51181 0.0
C299 C 0.19943 0.19876 0.52847 0.0
C300 C 0.22911 0.25521 0.49275 0.0
C301 C 0.21245 0.29219 0.47423 0.0
C302 C 0.15777 0.29512 0.45181 0.0
C303 C 0.14445 0.3297 0.43351 0.0
C304 C 0.18665 0.36135 0.43677 0.0
C305 C 0.2421 0.35848 0.45839 0.0
C306 C 0.25462 0.32426 0.47729 0.0
C307 C 0.48291 0.18195 0.46596 0.0
C308 C 0.52598 0.17659 0.49333 0.0
C309 C 0.41305 0.18933 0.47012 0.0
C310 C 0.38548 0.19124 0.50167 0.0
C311 C 0.42765 0.18304 0.52901 0.0
C312 C 0.49719 0.17533 0.5248 0.0
C313 C 0.31437 0.20494 0.50584 0.0
C314 C 0.29577 0.24048 0.49013 0.0
C315 C 0.2659 0.18412 0.52577 0.0
C316 C 0.28212 0.14647 0.54308 0.0
C317 C 0.27534 0.14118 0.57729 0.0
C318 C 0.29081 0.1058 0.59377 0.0
C319 C 0.3128 0.07543 0.57627 0.0
C320 C 0.31904 0.08032 0.54221 0.0
C321 C 0.30372 0.11568 0.52561 0.0
H322 H 0.325 0.04811 0.58911 0.0
H323 H 0.17683 0.38797 0.42231 0.0
H324 H 0.62463 0.68059 0.95746 0.0
H325 H 0.53752 0.63147 0.95157 0.0
H326 H 0.66342 0.54906 0.00763 0.0
H327 H 0.75058 0.59829 0.01384 0.0
H328 H 0.59341 0.51986 0.95371 0.0
H329 H 0.55128 0.59559 0.04473 0.0
H330 H 0.53054 0.65537 0.07096 0.0
H331 H 0.34499 0.674 0.01578 0.0
H332 H 0.36632 0.61531 0.98784 0.0
H333 H 0.36125 0.37999 0.02092 0.0
H334 H 0.44314 0.43284 0.01954 0.0
H335 H 0.30162 0.5046 0.96184 0.0
H336 H 0.2203 0.45122 0.96191 0.0
H337 H 0.37475 0.54219 0.01168 0.0
H338 H 0.41008 0.46125 0.92571 0.0
H339 H 0.43409 0.40346 0.89738 0.0
H340 H 0.63536 0.39621 0.93987 0.0
H341 H 0.61092 0.45205 0.97043 0.0
C342 C 0.63519 0.65165 0.96729 0.0
C343 C 0.69482 0.64321 0.98582 0.0
C344 C 0.58482 0.62374 0.96433 0.0
C345 C 0.59362 0.58683 0.9796 0.0
C346 C 0.65559 0.57746 -0.00422 0.0
C347 C 0.70548 0.60552 -0.00082 0.0
C348 C 0.53644 0.55882 0.98113 0.0
C349 C 0.54586 0.52432 0.96673 0.0
C350 C 0.47362 0.56568 -0.00279 0.0
C351 C 0.46114 0.60132 0.01368 0.0
C352 C 0.50676 0.6128 0.03762 0.0
C353 C 0.49493 0.64656 0.05277 0.0
C354 C 0.43688 0.66875 0.04469 0.0
C355 C 0.39045 0.65713 0.02154 0.0
C356 C 0.4025 0.62368 0.00597 0.0
C357 C 0.34649 0.4073 0.00874 0.0
C358 C 0.28424 0.41134 0.99138 0.0
C359 C 0.39375 0.43739 0.00774 0.0
C360 C 0.37892 0.47236 0.99009 0.0
C361 C 0.31421 0.4777 0.97538 0.0
C362 C 0.26764 0.44727 0.9756 0.0
C363 C 0.43258 0.50233 0.98518 0.0
C364 C 0.42226 0.53742 -0.00128 0.0
C365 C 0.49475 0.49592 0.96827 0.0
C366 C 0.50772 0.46056 0.95127 0.0
C367 C 0.45856 0.44664 0.93004 0.0
C368 C 0.47236 0.41411 0.91347 0.0
C369 C 0.53591 0.39577 0.91713 0.0
C370 C 0.58571 0.40992 0.93742 0.0
C371 C 0.57164 0.44186 0.95461 0.0
H372 H 0.54678 0.3708 0.90408 0.0
H373 H 0.42756 0.69477 0.05655 0.0
H374 H 0.72931 0.38693 0.45673 0.0
H375 H 0.65494 0.44175 0.46243 0.0
H376 H 0.55566 0.38188 0.54565 0.0
H377 H 0.62903 0.32618 0.53934 0.0
H378 H 0.46232 0.40952 0.50456 0.0
H379 H 0.65946 0.4634 0.55232 0.0
H380 H 0.77997 0.4836 0.55748 0.0
H381 H 0.76175 0.55734 0.46914 0.0
H382 H 0.64145 0.53711 0.46314 0.0
H383 H 0.26875 0.57018 0.54782 0.0
H384 H 0.34294 0.51507 0.54347 0.0
H385 H 0.44083 0.57168 0.45838 0.0
H386 H 0.36796 0.62787 0.46332 0.0
H387 H 0.53396 0.54541 0.50123 0.0
H388 H 0.33204 0.49149 0.45559 0.0
H389 H 0.209 0.47489 0.45539 0.0
H390 H 0.23511 0.40207 0.54376 0.0
H391 H 0.35807 0.41877 0.54486 0.0
C392 C 0.69284 0.38562 0.47679 0.0
C393 C 0.6852 0.35191 0.49757 0.0
C394 C 0.65026 0.4172 0.48008 0.0
C395 C 0.59945 0.4162 0.50451 0.0
C396 C 0.59428 0.38341 0.52651 0.0
C397 C 0.63688 0.35166 0.52315 0.0
C398 C 0.54852 0.44801 0.50518 0.0
C399 C 0.47809 0.43919 0.50435 0.0
C400 C 0.56869 0.48691 0.50403 0.0
C401 C 0.64159 0.49843 0.50712 0.0
C402 C 0.68137 0.4836 0.53379 0.0
C403 C 0.7496 0.49512 0.53691 0.0
C404 C 0.77855 0.52165 0.51361 0.0
C405 C 0.73933 0.5367 0.48712 0.0
C406 C 0.67113 0.5252 0.48384 0.0
C407 C 0.30492 0.57076 0.52767 0.0
C408 C 0.31238 0.60374 0.50598 0.0
C409 C 0.34737 0.53899 0.52517 0.0
C410 C 0.39755 0.53897 0.50053 0.0
C411 C 0.4026 0.57097 0.47767 0.0
C412 C 0.36033 0.603 0.4803 0.0
C413 C 0.44802 0.50695 0.50033 0.0
C414 C 0.51832 0.51573 0.50129 0.0
C415 C 0.42763 0.46805 0.50187 0.0
C416 C 0.35422 0.45676 0.5005 0.0
C417 C 0.31149 0.47213 0.4751 0.0
C418 C 0.24169 0.46279 0.47488 0.0
C419 C 0.2141 0.43779 0.49975 0.0
C420 C 0.25643 0.4217 0.52467 0.0
C421 C 0.32622 0.43104 0.52507 0.0
H422 H 0.1601 0.43051 0.49948 0.0
H423 H 0.83133 0.53061 0.51612 0.0
H424 H 0.25439 0.11497 0.02269 0.0
H425 H 0.18745 0.05749 0.01438 0.0
H426 H 0.0321 0.12748 0.96395 0.0
H427 H 0.10045 0.18446 0.97115 0.0
H428 H 0.07201 0.04064 0.04055 0.0
H429 H 0.92783 0.07499 0.91736 0.0
H430 H 0.9485 0.10789 0.86279 0.0
H431 H 0.16569 0.09111 0.87476 0.0
H432 H 0.14634 0.05705 0.92895 0.0
H433 H 0.76074 0.93567 0.9622 0.0
H434 H 0.83385 0.99132 0.96824 0.0
H435 H 0.98472 0.91828 0.01878 0.0
H436 H 0.90996 0.86319 0.01447 0.0
H437 H 0.9504 0.00517 0.94131 0.0
H438 H 0.09409 0.96594 0.06161 0.0
H439 H 0.07377 0.93104 0.11544 0.0
H440 H 0.8588 0.95801 0.10854 0.0
H441 H 0.87794 0.99329 0.05478 0.0
C442 C 0.20726 0.11778 0.0087 0.0
C443 C 0.18318 0.15405 -0.00306 0.0
C444 C 0.16863 0.085 0.00423 0.0
C445 C 0.10452 0.0879 0.98847 0.0
C446 C 0.08197 0.12408 0.97548 0.0
C447 C 0.12133 0.15675 0.97937 0.0
C448 C 0.05851 0.05389 0.98864 0.0
C449 C 0.04637 0.03258 0.01865 0.0
C450 C 0.02322 0.04383 0.96036 0.0
C451 C 0.0356 0.0638 0.92749 0.0
C452 C 0.98001 0.07809 0.9083 0.0
C453 C 0.99148 0.09692 0.8774 0.0
C454 C 0.05837 0.10183 0.86542 0.0
C455 C 0.1139 0.0875 0.88416 0.0
C456 C 0.1027 0.06836 0.91496 0.0
C457 C 0.80837 0.93182 0.97569 0.0
C458 C 0.82928 0.89517 0.98816 0.0
C459 C 0.85056 0.96356 0.9788 0.0
C460 C 0.91511 0.95926 0.99395 0.0
C461 C 0.93471 0.92279 0.00763 0.0
C462 C 0.89172 0.89119 0.00524 0.0
C463 C 0.96355 0.99229 0.99323 0.0
C464 C 0.97615 0.01334 0.96314 0.0
C465 C -0.00065 1.00216 0.02136 0.0
C466 C 0.98742 0.98203 0.0541 0.0
C467 C 0.04257 0.96462 0.07169 0.0
C468 C 0.03123 0.9447 0.10214 0.0
C469 C 0.96501 0.94225 0.11537 0.0
C470 C 0.91003 0.95984 0.09822 0.0
C471 C 0.92107 0.97976 0.06774 0.0
H472 H 0.95632 0.92675 0.13892 0.0
H473 H 0.06712 0.11662 0.84157 0.0
H474 H 0.84164 0.11669 0.46565 0.0
H475 H 0.92121 0.06379 0.45891 0.0
H476 H 0.85586 0.00921 0.55173 0.0
H477 H 0.77589 0.06149 0.55858 0.0
H478 H -0.00297 0.0202 0.54793 0.0
H479 H 0.81807 0.96841 0.48511 0.0
H480 H 0.7309 0.96667 0.44175 0.0
H481 H 0.88712 0.98697 0.36832 0.0
H482 H 0.97518 0.98936 0.41128 0.0
H483 H 0.17342 0.84012 0.5383 0.0
H484 H 0.09318 0.89252 0.54552 0.0
H485 H 0.15577 0.94749 0.45237 0.0
H486 H 0.23593 0.89551 0.44495 0.0
H487 H 0.01602 0.93623 0.45661 0.0
H488 H 0.19516 0.98665 0.51861 0.0
H489 H 0.28371 0.98745 0.56132 0.0
H490 H 0.12893 0.97121 0.63586 0.0
H491 H 0.03945 0.96864 0.59355 0.0
C492 C 0.84268 0.09297 0.48421 0.0
C493 C 0.80265 0.09372 0.51281 0.0
C494 C 0.88844 0.06275 0.48037 0.0
C495 C 0.89505 0.03278 0.50504 0.0
C496 C 0.85207 0.03223 0.53255 0.0
C497 C 0.80598 0.06214 0.53628 0.0
C498 C 0.95043 0.00376 0.50353 0.0
C499 C 0.00058 1.00135 0.52825 0.0
C500 C 0.95617 0.98004 0.47734 0.0
C501 C 0.9031 0.97964 0.45145 0.0
C502 C 0.83373 0.97307 0.45974 0.0
C503 C 0.78419 0.97179 0.43522 0.0
C504 C 0.80342 0.97686 0.4023 0.0
C505 C 0.87227 0.98315 0.39383 0.0
C506 C 0.92202 0.98444 0.41826 0.0
C507 C 0.17141 0.86373 0.51971 0.0
C508 C 0.21065 0.86313 0.49084 0.0
C509 C 0.12537 0.89371 0.52386 0.0
C510 C 0.1179 0.92367 0.49925 0.0
C511 C 0.16024 0.92446 0.4715 0.0
C512 C 0.20648 0.89473 0.46745 0.0
C513 C 0.06236 0.95251 0.50105 0.0
C514 C 0.01229 0.95495 0.47636 0.0
C515 C 0.05683 0.97627 0.52723 0.0
C516 C 0.11059 0.97691 0.55284 0.0
C517 C 0.18 0.98256 0.54409 0.0
C518 C 0.23039 0.98337 0.56825 0.0
C519 C 0.21198 0.97922 0.60129 0.0
C520 C 0.14311 0.97417 0.61024 0.0
C521 C 0.09254 0.97291 0.58617 0.0
H522 H 0.25105 0.9801 0.61996 0.0
H523 H 0.765 0.97581 0.38335 0.0
H524 H 0.65291 0.28606 0.34082 0.0
H525 H 0.61023 0.28962 0.28489 0.0
H526 H 0.65731 0.17027 0.27863 0.0
H527 H 0.69965 0.1661 0.33538 0.0
H528 H 0.7041 0.23314 0.22257 0.0
H529 H 0.50899 0.17651 0.28076 0.0
H530 H 0.42488 0.16973 0.32594 0.0
H531 H 0.35763 0.2854 0.30314 0.0
H532 H 0.44167 0.29294 0.25791 0.0
H533 H 0.48956 0.23996 0.07511 0.0
H534 H 0.56114 0.22386 0.12271 0.0
H535 H 0.48298 0.32206 0.16798 0.0
H536 H 0.4085 0.33721 0.12105 0.0
H537 H 0.4556 0.25647 0.20332 0.0
H538 H 0.7042 0.31251 0.17356 0.0
H539 H 0.79521 0.32295 0.13168 0.0
H540 H 0.76114 0.21032 0.10087 0.0
H541 H 0.67063 0.1992 0.14288 0.0
C542 C 0.65431 0.26047 0.32767 0.0
C543 C 0.67948 0.22574 0.34249 0.0
C544 C 0.62993 0.26261 0.29574 0.0
C545 C 0.6309 0.23024 0.27789 0.0
C546 C 0.65649 0.19549 0.29225 0.0
C547 C 0.68009 0.19314 0.32459 0.0
C548 C 0.60344 0.23352 0.2444 0.0
C549 C 0.64957 0.23724 0.21806 0.0
C550 C 0.5327 0.23971 0.23897 0.0
C551 C 0.48206 0.23538 0.26615 0.0
C552 C 0.47676 0.20062 0.2856 0.0
C553 C 0.42897 0.19661 0.31116 0.0
C554 C 0.38619 0.22718 0.31752 0.0
C555 C 0.39102 0.2618 0.29827 0.0
C556 C 0.43852 0.26591 0.27259 0.0
C557 C 0.48999 0.25917 0.09455 0.0
C558 C 0.44237 0.28943 0.09459 0.0
C559 C 0.53144 0.24996 0.12182 0.0
C560 C 0.52763 0.27165 0.14905 0.0
C561 C 0.48633 0.30469 0.14732 0.0
C562 C 0.44444 0.31371 0.1202 0.0
C563 C 0.55622 0.25686 0.18107 0.0
C564 C 0.50998 0.25129 0.20739 0.0
C565 C 0.62681 0.24884 0.18636 0.0
C566 C 0.67911 0.25563 0.16039 0.0
C567 C 0.7159 0.29015 0.15763 0.0
C568 C 0.76759 0.2961 0.13402 0.0
C569 C 0.78359 0.26743 0.11344 0.0
C570 C 0.74826 0.23265 0.1166 0.0
C571 C 0.69665 0.22656 0.14023 0.0
H572 H 0.82346 0.27212 0.09511 0.0
H573 H 0.34902 0.22397 0.33722 0.0
H574 H 0.66231 0.69276 0.1493 0.0
H575 H 0.62813 0.68527 0.20678 0.0
H576 H 0.69972 0.7993 0.22003 0.0
H577 H 0.73354 0.80732 0.16205 0.0
H578 H 0.74348 0.74015 0.27023 0.0
H579 H 0.54099 0.79073 0.21725 0.0
H580 H 0.44714 0.79618 0.17684 0.0
H581 H 0.37836 0.68311 0.20899 0.0
H582 H 0.47258 0.67666 0.24921 0.0
H583 H 0.53223 0.76893 0.41245 0.0
H584 H 0.61045 0.76825 0.36589 0.0
H585 H 0.53748 0.65621 0.34683 0.0
H586 H 0.45929 0.65647 0.39326 0.0
H587 H 0.49954 0.71582 0.3001 0.0
H588 H 0.70107 0.66652 0.35476 0.0
H589 H 0.79394 0.66235 0.39567 0.0
H590 H 0.8618 0.77517 0.36212 0.0
H591 H 0.76889 0.78022 0.32119 0.0
C592 C 0.67053 0.71637 0.16435 0.0
C593 C 0.70036 0.7507 0.15114 0.0
C594 C 0.65105 0.712 0.19718 0.0
C595 C 0.66161 0.74169 0.21757 0.0
C596 C 0.69146 0.77604 0.20461 0.0
C597 C 0.71006 0.78069 0.17149 0.0
C598 C 0.63993 0.73658 0.25225 0.0
C599 C 0.69006 0.73538 0.27694 0.0
C600 C 0.57044 0.72959 0.26071 0.0
C601 C 0.51453 0.73302 0.23599 0.0
C602 C 0.50647 0.7668 0.21542 0.0
C603 C 0.45305 0.77013 0.19261 0.0
C604 C 0.407 0.73995 0.19028 0.0
C605 C 0.41421 0.70641 0.21077 0.0
C606 C 0.46762 0.70291 0.23357 0.0
C607 C 0.53497 0.74336 0.3993 0.0
C608 C 0.48742 0.71343 0.4057 0.0
C609 C 0.58 0.74301 0.3727 0.0
C610 C 0.57832 0.71261 0.35247 0.0
C611 C 0.53883 0.68015 0.36198 0.0
C612 C 0.49413 0.68036 0.38866 0.0
C613 C 0.60308 0.7186 0.31827 0.0
C614 C 0.55313 0.72035 0.29354 0.0
C615 C 0.67245 0.7264 0.31 0.0
C616 C 0.72749 0.72388 0.33508 0.0
C617 C 0.73525 0.69064 0.35634 0.0
C618 C 0.78809 0.68805 0.37946 0.0
C619 C 0.83374 0.71845 0.38147 0.0
C620 C 0.82639 0.75163 0.36052 0.0
C621 C 0.77372 0.75434 0.33731 0.0
H622 H 0.87501 0.71619 0.39915 0.0
H623 H 0.36566 0.74258 0.17266 0.0
H624 H 0.31162 0.79204 0.66219 0.0
H625 H 0.33469 0.79293 0.72065 0.0
H626 H 0.27888 0.67383 0.73548 0.0
H627 H 0.25662 0.67238 0.677 0.0
H628 H 0.26135 0.77627 0.77883 0.0
H629 H 0.40216 0.63167 0.78954 0.0
H630 H 0.4576 0.58701 0.754 0.0
H631 H 0.50515 0.68041 0.68343 0.0
H632 H 0.45194 0.7257 0.71897 0.0
H633 H 0.53887 0.69961 0.91219 0.0
H634 H 0.43967 0.68809 0.87793 0.0
H635 H 0.43415 0.80816 0.8451 0.0
H636 H 0.52984 0.81998 0.8804 0.0
H637 H 0.45786 0.69456 0.81708 0.0
H638 H 0.3027 0.83726 0.80413 0.0
H639 H 0.25061 0.88256 0.84007 0.0
H640 H 0.23283 0.79309 0.91736 0.0
H641 H 0.28337 0.74713 0.8816 0.0
C642 C 0.30408 0.76601 0.67784 0.0
C643 C 0.2837 0.73191 0.66474 0.0
C644 C 0.31641 0.76673 0.71133 0.0
C645 C 0.30878 0.73341 0.73231 0.0
C646 C 0.28544 0.69979 0.71962 0.0
C647 C 0.27332 0.69898 0.68612 0.0
C648 C 0.33311 0.7329 0.76652 0.0
C649 C 0.30415 0.75839 0.78744 0.0
C650 C 0.38757 0.70869 0.77789 0.0
C651 C 0.42186 0.68196 0.75668 0.0
C652 C 0.4247 0.64267 0.7665 0.0
C653 C 0.45585 0.61726 0.74637 0.0
C654 C 0.48447 0.63083 0.71638 0.0
C655 C 0.48243 0.66988 0.70653 0.0
C656 C 0.45192 0.69545 0.72671 0.0
C657 C 0.51458 0.72375 0.89869 0.0
C658 C 0.54324 0.76054 0.89836 0.0
C659 C 0.45783 0.71715 0.87908 0.0
C660 C 0.42955 0.74711 0.85851 0.0
C661 C 0.45371 0.7845 0.86098 0.0
C662 C 0.5094 0.79122 0.88105 0.0
C663 C 0.38729 0.73864 0.82978 0.0
C664 C 0.41328 0.71156 0.80943 0.0
C665 C 0.3302 0.76141 0.81909 0.0
C666 C 0.29764 0.78876 0.84033 0.0
C667 C 0.28724 0.82716 0.82872 0.0
C668 C 0.25804 0.85299 0.84907 0.0
C669 C 0.23873 0.84073 0.88105 0.0
C670 C 0.2482 0.80258 0.89268 0.0
C671 C 0.27727 0.77665 0.87241 0.0
H672 H 0.21626 0.86077 0.89679 0.0
H673 H 0.50847 0.61111 0.70082 0.0
H674 H 0.35617 0.24488 0.84014 0.0
H675 H 0.3876 0.24382 0.78246 0.0
H676 H 0.24968 0.33786 0.75751 0.0
H677 H 0.21845 0.33959 0.81543 0.0
H678 H 0.24489 0.27034 0.7155 0.0
H679 H 0.39748 0.3633 0.75707 0.0
H680 H 0.48002 0.38684 0.79635 0.0
H681 H 0.61832 0.29522 0.77865 0.0
H682 H 0.53606 0.27072 0.73978 0.0
H683 H 0.53624 0.30743 0.58223 0.0
H684 H 0.44744 0.32639 0.61959 0.0
H685 H 0.40489 0.20788 0.64848 0.0
H686 H 0.49435 0.18845 0.61131 0.0
H687 H 0.4858 0.30106 0.68384 0.0
H688 H 0.23172 0.21072 0.6857 0.0
H689 H 0.14809 0.18838 0.64639 0.0
H690 H 0.21315 0.27651 0.57433 0.0
H691 H 0.29538 0.30024 0.61335 0.0
C692 C 0.33257 0.2654 0.82244 0.0
C693 C 0.28522 0.29249 0.83233 0.0
C694 C 0.35037 0.26465 0.78953 0.0
C695 C 0.3206 0.29064 0.7659 0.0
C696 C 0.27276 0.31747 0.7755 0.0
C697 C 0.25565 0.31866 0.80856 0.0
C698 C 0.34264 0.29058 0.73144 0.0
C699 C 0.29734 0.27722 0.70829 0.0
C700 C 0.41068 0.3003 0.72226 0.0
C701 C 0.46031 0.31502 0.74568 0.0
C702 C 0.44519 0.34796 0.7618 0.0
C703 C 0.492 0.36151 0.78397 0.0
C704 C 0.55435 0.34251 0.79005 0.0
C705 C 0.57001 0.3099 0.77398 0.0
C706 C 0.52332 0.29619 0.75186 0.0
C707 C 0.50642 0.28526 0.59558 0.0
C708 C 0.52417 0.24644 0.59479 0.0
C709 C 0.45533 0.29623 0.6168 0.0
C710 C 0.42069 0.26855 0.63717 0.0
C711 C 0.43125 0.22966 0.63295 0.0
C712 C 0.48273 0.21861 0.61178 0.0
C713 C 0.3888 0.27972 0.66773 0.0
C714 C 0.43277 0.29482 0.69052 0.0
C715 C 0.31971 0.27148 0.67633 0.0
C716 C 0.27044 0.2571 0.65251 0.0
C717 C 0.22801 0.22552 0.66154 0.0
C718 C 0.18058 0.21267 0.63932 0.0
C719 C 0.17496 0.23115 0.60797 0.0
C720 C 0.21719 0.2623 0.59865 0.0
C721 C 0.26437 0.27544 0.62082 0.0
H722 H 0.13784 0.22131 0.59094 0.0
H723 H 0.59059 0.35312 0.80714 0.0
H724 H 0.24531 0.80318 0.32399 0.0
H725 H 0.21067 0.80808 0.26683 0.0
H726 H 0.15219 0.68909 0.27524 0.0
H727 H 0.18611 0.68388 0.33291 0.0
H728 H 0.2538 0.77294 0.21454 0.0
H729 H 0.00833 0.67979 0.22708 0.0
H730 H 0.91906 0.66046 0.2679 0.0
H731 H 0.95601 0.76212 0.317 0.0
H732 H 0.0446 0.78237 0.27618 0.0
H733 H 0.01137 0.70932 0.08116 0.0
H734 H 0.097 0.70745 0.12417 0.0
H735 H 0.06449 0.82726 0.13514 0.0
H736 H 0.97771 0.82967 0.09199 0.0
H737 H 0.01495 0.74202 0.1844 0.0
H738 H 0.25798 0.83601 0.1732 0.0
H739 H 0.35009 0.85592 0.1341 0.0
H740 H 0.31564 0.75571 0.08261 0.0
H741 H 0.22412 0.73506 0.12155 0.0
C742 C 0.225 0.77794 0.31384 0.0
C743 C 0.21796 0.74315 0.3332 0.0
C744 C 0.20565 0.78081 0.28103 0.0
C745 C 0.17851 0.74906 0.26688 0.0
C746 C 0.17236 0.71407 0.28587 0.0
C747 C 0.19176 0.71114 0.3188 0.0
C748 C 0.15489 0.75313 0.2325 0.0
C749 C 0.20138 0.76651 0.20792 0.0
C750 C 0.0868 0.74424 0.22395 0.0
C751 C 0.03382 0.7323 0.2488 0.0
C752 C -0.00265 0.69803 0.24657 0.0
C753 C 0.9468 0.68694 0.26969 0.0
C754 C 0.93204 0.70996 0.2951 0.0
C755 C 0.96765 0.74421 0.29739 0.0
C756 C 0.01814 0.75549 0.27429 0.0
C757 C 0.02432 0.73585 0.0915 0.0
C758 C 0.98596 0.76942 0.08375 0.0
C759 C 0.07386 0.73468 0.11604 0.0
C760 C 0.08665 0.76711 0.13287 0.0
C761 C 0.05556 0.80199 0.12217 0.0
C762 C 0.00561 0.80322 0.09759 0.0
C763 C 0.1138 0.76173 0.16646 0.0
C764 C 0.06748 0.74831 0.191 0.0
C765 C 0.18165 0.77093 0.17487 0.0
C766 C 0.23333 0.78434 0.14999 0.0
C767 C 0.26979 0.81838 0.15338 0.0
C768 C 0.32217 0.8297 0.13136 0.0
C769 C 0.33892 0.80708 0.10596 0.0
C770 C 0.30278 0.77327 0.1023 0.0
C771 C 0.2502 0.76188 0.12421 0.0
H772 H 0.37967 0.81596 0.08906 0.0
H773 H 0.89293 0.70125 0.31294 0.0
H774 H 0.00439 0.26441 0.42739 0.0
H775 H 0.09086 0.27215 0.38422 0.0
H776 H 0.02749 0.16574 0.34799 0.0
H777 H 0.94172 0.15729 0.39145 0.0
H778 H 0.16846 0.18861 0.33084 0.0
H779 H 0.93081 0.23756 0.3226 0.0
H780 H 0.83392 0.27252 0.34516 0.0
H781 H 0.96112 0.37195 0.34961 0.0
H782 H 0.05883 0.33741 0.32701 0.0
H783 H 0.14329 0.20818 0.16058 0.0
H784 H 0.12035 0.19908 0.21907 0.0
H785 H 0.16707 0.31783 0.22904 0.0
H786 H 0.18887 0.32742 0.16992 0.0
H787 H 0.05678 0.2956 0.26399 0.0
H788 H 0.27969 0.24644 0.24855 0.0
H789 H 0.36895 0.20761 0.22442 0.0
H790 H 0.27158 0.10485 0.26506 0.0
H791 H 0.17953 0.14283 0.28808 0.0
C792 C 0.01124 0.24163 0.41131 0.0
C793 C 0.96487 0.21084 0.41215 0.0
C794 C 0.06082 0.2461 0.38668 0.0
C795 C 0.06397 0.22012 0.36245 0.0
C796 C 0.02545 0.18626 0.36638 0.0
C797 C 0.97622 0.18152 0.39127 0.0
C798 C 0.09166 0.23271 0.32971 0.0
C799 C 0.14454 0.21197 0.31607 0.0
C800 C 0.06091 0.26369 0.31086 0.0
C801 C 0.00192 0.28496 0.32331 0.0
C802 C 0.93796 0.26689 0.32839 0.0
C803 C 0.88298 0.28659 0.34121 0.0
C804 C 0.89138 0.3244 0.34894 0.0
C805 C 0.9547 0.34266 0.34363 0.0
C806 C 0.00983 0.32309 0.33073 0.0
C807 C 0.14828 0.23249 0.17513 0.0
C808 C 0.16831 0.2685 0.1607 0.0
C809 C 0.13567 0.22714 0.20863 0.0
C810 C 0.14399 0.25748 0.22856 0.0
C811 C 0.1612 0.29392 0.2141 0.0
C812 C 0.17321 0.29942 0.18036 0.0
C813 C 0.133 0.25095 0.26436 0.0
C814 C 0.08267 0.27284 0.27869 0.0
C815 C 0.16606 0.22075 0.28352 0.0
C816 C 0.22214 0.19767 0.27 0.0
C817 C 0.27662 0.21556 0.25207 0.0
C818 C 0.32778 0.19367 0.23852 0.0
C819 C 0.32614 0.15383 0.24332 0.0
C820 C 0.27292 0.13575 0.26144 0.0
C821 C 0.22103 0.15747 0.27465 0.0
H822 H 0.36611 0.13698 0.23299 0.0
H823 H 0.8488 0.33957 0.35898 0.0
H824 H 0.98159 0.31149 0.89097 0.0
H825 H 0.89729 0.28899 0.85329 0.0
H826 H 0.94046 0.17241 0.88732 0.0
H827 H 0.02906 0.1941 0.92341 0.0
H828 H 0.98287 0.19516 0.8238 0.0
H829 H 0.78569 0.19433 0.88675 0.0
H830 H 0.68947 0.21014 0.92231 0.0
H831 H 0.62434 0.29894 0.85102 0.0
H832 H 0.72181 0.28497 0.81551 0.0
H833 H 0.8198 0.1571 0.67336 0.0
H834 H 0.84688 0.15458 0.73163 0.0
H835 H 0.81952 0.27676 0.73027 0.0
H836 H 0.7924 0.27967 0.6718 0.0
H837 H 0.75148 0.23357 0.78307 0.0
H838 H 0.97509 0.24273 0.72979 0.0
H839 H 0.06826 0.2223 0.69421 0.0
H840 H 0.07786 0.11346 0.74999 0.0
H841 H 0.98413 0.13312 0.78569 0.0
C842 C 0.97116 0.28109 0.89167 0.0
C843 C 0.01352 0.25452 0.90946 0.0
C844 C 0.92158 0.26839 0.87055 0.0
C845 C 0.91192 0.22921 0.86783 0.0
C846 C 0.9471 0.20278 0.88915 0.0
C847 C -0.00207 0.21532 0.90972 0.0
C848 C 0.88382 0.21712 0.83686 0.0
C849 C 0.93144 0.20256 0.81526 0.0
C850 C 0.81712 0.22743 0.82567 0.0
C851 C 0.76179 0.23855 0.84831 0.0
C852 C 0.75192 0.2178 0.87882 0.0
C853 C 0.69679 0.22633 0.89896 0.0
C854 C 0.6505 0.2553 0.88879 0.0
C855 C 0.65985 0.27624 0.85869 0.0
C856 C 0.71527 0.2681 0.8386 0.0
C857 C 0.8199 0.18352 0.68538 0.0
C858 C 0.80418 0.21865 0.66796 0.0
C859 C 0.83524 0.18195 0.71866 0.0
C860 C 0.83485 0.21544 0.73513 0.0
C861 C 0.81961 0.25059 0.71788 0.0
C862 C 0.80488 0.25226 0.68446 0.0
C863 C 0.85185 0.21402 0.77026 0.0
C864 C 0.80222 0.22579 0.79224 0.0
C865 C 0.91665 0.20127 0.78203 0.0
C866 C 0.97183 0.18916 0.76006 0.0
C867 C 0.99643 0.21426 0.73419 0.0
C868 C 0.04952 0.20287 0.71407 0.0
C869 C 0.07875 0.16654 0.71974 0.0
C870 C 0.05501 0.14154 0.74556 0.0
C871 C 0.00192 0.15279 0.76574 0.0
H872 H 0.11999 0.15779 0.70422 0.0
H873 H 0.60762 0.2617 0.9043 0.0
H874 H 0.03141 0.81466 0.56409 0.0
H875 H 0.93782 0.83065 0.60045 0.0
H876 H 0.91441 0.71115 0.63241 0.0
H877 H 0.00428 0.69485 0.59492 0.0
H878 H 0.80247 0.74758 0.64794 0.0
H879 H 0.05011 0.76428 0.66357 0.0
H880 H 0.16274 0.79098 0.64607 0.0
H881 H 0.08084 0.90477 0.6453 0.0
H882 H 0.96758 0.87868 0.66254 0.0
H883 H 0.82711 0.72141 0.81932 0.0
H884 H 0.84749 0.72448 0.7604 0.0
H885 H 0.82944 0.84741 0.75485 0.0
H886 H 0.8098 0.84481 0.81385 0.0
H887 H 0.94101 0.82263 0.72172 0.0
H888 H 0.69935 0.79529 0.72747 0.0
H889 H 0.60124 0.7588 0.75198 0.0
H890 H 0.68227 0.65558 0.71717 0.0
H891 H 0.78145 0.69128 0.69287 0.0
C892 C 0.00402 0.79167 0.57772 0.0
C893 C 0.02734 0.7537 0.57797 0.0
C894 C 0.95043 0.80083 0.59846 0.0
C895 C 0.92194 0.77227 0.62042 0.0
C896 C 0.93673 0.73381 0.61626 0.0
C897 C 0.98881 0.72453 0.59488 0.0
C898 C 0.89315 0.782 0.65226 0.0
C899 C 0.8321 0.76444 0.66394 0.0
C900 C 0.93208 0.80377 0.67334 0.0
C901 C 0.0005 0.81959 0.66403 0.0
C902 C 0.0563 0.79501 0.65968 0.0
C903 C 0.12018 0.81001 0.64976 0.0
C904 C 0.12898 0.84957 0.64446 0.0
C905 C 0.07398 0.87418 0.6493 0.0
C906 C 0.00995 0.85931 0.65918 0.0
C907 C 0.82778 0.74915 0.80567 0.0
C908 C 0.8167 0.78285 0.82137 0.0
C909 C 0.83873 0.75081 0.77193 0.0
C910 C 0.83839 0.78612 0.75323 0.0
C911 C 0.82907 0.81987 0.76885 0.0
C912 C 0.81809 0.81827 0.8026 0.0
C913 C 0.85103 0.78776 0.71756 0.0
C914 C 0.90952 0.80722 0.70535 0.0
C915 C 0.81067 0.76687 0.69648 0.0
C916 C 0.74813 0.74596 0.70853 0.0
C917 C 0.69618 0.76482 0.72496 0.0
C918 C 0.64048 0.74427 0.73889 0.0
C919 C 0.63597 0.70487 0.73638 0.0
C920 C 0.68613 0.68609 0.71922 0.0
C921 C 0.742 0.70649 0.70528 0.0
H922 H 0.59384 0.68885 0.74792 0.0
H923 H 0.17841 0.86115 0.63668 0.0
loop_
_geom_bond_atom_site_label_1
_geom_bond_atom_site_label_2
_geom_bond_distance
_geom_bond_site_symmetry_2
_ccdc_geom_bond_type
C0 O12 1.241 . S
C0 O13 1.280 . S
C1 O14 1.277 . S
C1 O15 1.245 . S
C2 O26 1.247 . S
C2 O28 1.289 1_556 S
Mg3 O4 1.926 . S
Mg3 O13 1.984 . S
Mg3 O15 1.988 . S
Mg3 O16 2.061 . S
O4 Mg3 1.926 . S
O4 Mg5 1.986 . S
O4 Mg6 1.917 . S
Mg5 O4 1.986 . S
Mg5 O12 2.042 . S
Mg5 O14 2.041 . S
Mg5 O20 2.038 . S
Mg5 O28 2.238 . S
Mg6 O4 1.917 . S
Mg6 O7 1.917 1_554 S
Mg6 O17 2.106 1_554 S
Mg6 O19 2.079 1_554 S
Mg6 O28 2.106 . S
Mg6 O29 2.079 . S
O7 Mg6 1.917 1_556 S
O7 Mg8 1.926 . S
O7 Mg9 1.986 . S
Mg8 O7 1.926 . S
Mg8 O22 1.984 . S
Mg8 O25 1.988 . S
Mg8 O26 2.061 . S
Mg9 O7 1.986 . S
Mg9 O17 2.238 . S
Mg9 O21 2.042 . S
Mg9 O23 2.041 . S
Mg9 O30 2.038 . S
C10 O16 1.247 . S
C10 O17 1.289 1_554 S
C11 O29 1.245 1_556 S
C11 O30 1.274 . S
O12 C0 1.241 . S
O12 Mg5 2.042 . S
O13 C0 1.280 . S
O13 Mg3 1.984 . S
O14 C1 1.277 . S
O14 Mg5 2.041 . S
O15 C1 1.245 . S
O15 Mg3 1.988 . S
O16 Mg3 2.061 . S
O16 C10 1.247 . S
O17 Mg6 2.106 1_556 S
O17 Mg9 2.238 . S
O17 C10 1.289 1_556 S
C18 O19 1.245 1_554 S
C18 O20 1.274 . S
O19 Mg6 2.079 1_556 S
O19 C18 1.245 1_556 S
O20 Mg5 2.038 . S
O20 C18 1.274 . S
O21 Mg9 2.042 . S
O21 C24 1.241 . S
O22 Mg8 1.984 . S
O22 C24 1.280 . S
O23 Mg9 2.041 . S
O23 C27 1.277 . S
C24 O21 1.241 . S
C24 O22 1.280 . S
O25 Mg8 1.988 . S
O25 C27 1.245 . S
O26 C2 1.247 . S
O26 Mg8 2.061 . S
C27 O23 1.277 . S
C27 O25 1.245 . S
O28 C2 1.289 1_554 S
O28 Mg5 2.238 . S
O28 Mg6 2.106 . S
O29 Mg6 2.079 . S
O29 C11 1.245 1_554 S
O30 Mg9 2.038 . S
O30 C11 1.274 . S
C31 O43 1.241 . S
C31 O44 1.280 . S
C32 O45 1.277 . S
C32 O46 1.245 . S
C33 O57 1.247 . S
C33 O59 1.289 1_556 S
Mg34 O35 1.926 . S
Mg34 O44 1.984 . S
Mg34 O46 1.988 . S
Mg34 O47 2.061 . S
O35 Mg34 1.926 . S
O35 Mg36 1.986 . S
O35 Mg37 1.917 . S
Mg36 O35 1.986 . S
Mg36 O43 2.042 . S
Mg36 O45 2.041 . S
Mg36 O51 2.038 . S
Mg36 O59 2.238 . S
Mg37 O35 1.917 . S
Mg37 O38 1.917 1_554 S
Mg37 O48 2.106 1_554 S
Mg37 O50 2.079 1_554 S
Mg37 O59 2.106 . S
Mg37 O60 2.079 . S
O38 Mg37 1.917 1_556 S
O38 Mg39 1.926 . S
O38 Mg40 1.986 . S
Mg39 O38 1.926 . S
Mg39 O53 1.984 . S
Mg39 O56 1.988 . S
Mg39 O57 2.061 . S
Mg40 O38 1.986 . S
Mg40 O48 2.238 . S
Mg40 O52 2.042 . S
Mg40 O54 2.041 . S
Mg40 O61 2.038 . S
C41 O47 1.247 . S
C41 O48 1.289 1_554 S
C42 O60 1.245 1_556 S
C42 O61 1.274 . S
O43 C31 1.241 . S
O43 Mg36 2.042 . S
O44 C31 1.280 . S
O44 Mg34 1.984 . S
O45 C32 1.277 . S
O45 Mg36 2.041 . S
O46 C32 1.245 . S
O46 Mg34 1.988 . S
O47 Mg34 2.061 . S
O47 C41 1.247 . S
O48 Mg37 2.106 1_556 S
O48 Mg40 2.238 . S
O48 C41 1.289 1_556 S
C49 O50 1.245 1_554 S
C49 O51 1.274 . S
O50 Mg37 2.079 1_556 S
O50 C49 1.245 1_556 S
O51 Mg36 2.038 . S
O51 C49 1.274 . S
O52 Mg40 2.042 . S
O52 C55 1.241 . S
O53 Mg39 1.984 . S
O53 C55 1.280 . S
O54 Mg40 2.041 . S
O54 C58 1.277 . S
C55 O52 1.241 . S
C55 O53 1.280 . S
O56 Mg39 1.988 . S
O56 C58 1.245 . S
O57 C33 1.247 . S
O57 Mg39 2.061 . S
C58 O54 1.277 . S
C58 O56 1.245 . S
O59 C33 1.289 1_554 S
O59 Mg36 2.238 . S
O59 Mg37 2.106 . S
O60 Mg37 2.079 . S
O60 C42 1.245 1_554 S
O61 Mg40 2.038 . S
O61 C42 1.274 . S
C62 O74 1.241 . S
C62 O75 1.280 . S
C63 O76 1.277 . S
C63 O77 1.245 . S
C64 O88 1.247 . S
C64 O90 1.289 . S
Mg65 O66 1.926 . S
Mg65 O75 1.984 . S
Mg65 O77 1.988 . S
Mg65 O78 2.061 . S
O66 Mg65 1.926 . S
O66 Mg67 1.986 . S
O66 Mg68 1.917 . S
Mg67 O66 1.986 . S
Mg67 O74 2.042 . S
Mg67 O76 2.041 . S
Mg67 O82 2.038 . S
Mg67 O90 2.238 . S
Mg68 O66 1.917 . S
Mg68 O69 1.917 . S
Mg68 O79 2.106 . S
Mg68 O81 2.079 . S
Mg68 O90 2.106 . S
Mg68 O91 2.079 . S
O69 Mg68 1.917 . S
O69 Mg70 1.926 . S
O69 Mg71 1.986 . S
Mg70 O69 1.926 . S
Mg70 O84 1.984 . S
Mg70 O87 1.988 . S
Mg70 O88 2.061 . S
Mg71 O69 1.986 . S
Mg71 O79 2.238 . S
Mg71 O83 2.042 . S
Mg71 O85 2.041 . S
Mg71 O92 2.038 . S
C72 O78 1.247 . S
C72 O79 1.289 . S
C73 O91 1.245 . S
C73 O92 1.274 . S
O74 C62 1.241 . S
O74 Mg67 2.042 . S
O75 C62 1.280 . S
O75 Mg65 1.984 . S
O76 C63 1.277 . S
O76 Mg67 2.041 . S
O77 C63 1.245 . S
O77 Mg65 1.988 . S
O78 Mg65 2.061 . S
O78 C72 1.247 . S
O79 Mg68 2.106 . S
O79 Mg71 2.238 . S
O79 C72 1.289 . S
C80 O81 1.245 . S
C80 O82 1.274 . S
O81 Mg68 2.079 . S
O81 C80 1.245 . S
O82 Mg67 2.038 . S
O82 C80 1.274 . S
O83 Mg71 2.042 . S
O83 C86 1.241 . S
O84 Mg70 1.984 . S
O84 C86 1.280 . S
O85 Mg71 2.041 . S
O85 C89 1.277 . S
C86 O83 1.241 . S
C86 O84 1.280 . S
O87 Mg70 1.988 . S
O87 C89 1.245 . S
O88 C64 1.247 . S
O88 Mg70 2.061 . S
C89 O85 1.277 . S
C89 O87 1.245 . S
O90 C64 1.289 . S
O90 Mg67 2.238 . S
O90 Mg68 2.106 . S
O91 Mg68 2.079 . S
O91 C73 1.245 . S
O92 Mg71 2.038 . S
O92 C73 1.274 . S
C93 O105 1.241 . S
C93 O106 1.280 . S
C94 O107 1.277 . S
C94 O108 1.245 . S
C95 O119 1.247 . S
C95 O121 1.289 . S
Mg96 O97 1.926 . S
Mg96 O106 1.984 . S
Mg96 O108 1.988 . S
Mg96 O109 2.061 . S
O97 Mg96 1.926 . S
O97 Mg98 1.986 . S
O97 Mg99 1.917 . S
Mg98 O97 1.986 . S
Mg98 O105 2.042 . S
Mg98 O107 2.041 . S
Mg98 O113 2.038 . S
Mg98 O121 2.238 . S
Mg99 O97 1.917 . S
Mg99 O100 1.917 . S
Mg99 O110 2.106 . S
Mg99 O112 2.079 . S
Mg99 O121 2.106 . S
Mg99 O122 2.079 . S
O100 Mg99 1.917 . S
O100 Mg101 1.926 . S
O100 Mg102 1.986 . S
Mg101 O100 1.926 . S
Mg101 O115 1.984 . S
Mg101 O118 1.988 . S
Mg101 O119 2.061 . S
Mg102 O100 1.986 . S
Mg102 O110 2.238 . S
Mg102 O114 2.042 . S
Mg102 O116 2.041 . S
Mg102 O123 2.038 . S
C103 O109 1.247 . S
C103 O110 1.289 . S
C104 O122 1.245 . S
C104 O123 1.274 . S
O105 C93 1.241 . S
O105 Mg98 2.042 . S
O106 C93 1.280 . S
O106 Mg96 1.984 . S
O107 C94 1.277 . S
O107 Mg98 2.041 . S
O108 C94 1.245 . S
O108 Mg96 1.988 . S
O109 Mg96 2.061 . S
O109 C103 1.247 . S
O110 Mg99 2.106 . S
O110 Mg102 2.238 . S
O110 C103 1.289 . S
C111 O112 1.245 . S
C111 O113 1.274 . S
O112 Mg99 2.079 . S
O112 C111 1.245 . S
O113 Mg98 2.038 . S
O113 C111 1.274 . S
O114 Mg102 2.042 . S
O114 C117 1.241 . S
O115 Mg101 1.984 . S
O115 C117 1.280 . S
O116 Mg102 2.041 . S
O116 C120 1.277 . S
C117 O114 1.241 . S
C117 O115 1.280 . S
O118 Mg101 1.988 . S
O118 C120 1.245 . S
O119 C95 1.247 . S
O119 Mg101 2.061 . S
C120 O116 1.277 . S
C120 O118 1.245 . S
O121 C95 1.289 . S
O121 Mg98 2.238 . S
O121 Mg99 2.106 . S
O122 Mg99 2.079 . S
O122 C104 1.245 . S
O123 Mg102 2.038 . S
O123 C104 1.274 . S
H124 C142 0.951 . S
H125 C144 0.951 . S
H126 C146 0.950 . S
H127 C147 0.950 . S
H128 C149 0.950 . S
H129 C152 0.950 . S
H130 C153 0.950 . S
H131 C155 0.950 . S
H132 C156 0.950 . S
H133 C157 0.951 1_455 S
H134 C159 0.951 . S
H135 C161 0.950 . S
H136 C162 0.950 . S
H137 C164 0.950 . S
H138 C167 0.950 . S
H139 C168 0.950 . S
H140 C170 0.950 . S
H141 C171 0.950 . S
C142 H124 0.951 . S
C142 C143 1.349 1_554 S
C142 C144 1.388 . S
C143 C142 1.349 1_556 S
C143 C147 1.400 . S
C144 H125 0.951 . S
C144 C142 1.388 . S
C144 C145 1.366 . S
C145 C144 1.366 . S
C145 C146 1.414 1_554 S
C145 C148 1.499 . S
C146 H126 0.950 . S
C146 C145 1.414 1_556 S
C146 C147 1.374 . S
C147 H127 0.950 . S
C147 C143 1.400 . S
C147 C146 1.374 . S
C148 C145 1.499 . S
C148 C149 1.373 1_554 S
C148 C150 1.389 . S
C149 H128 0.950 . S
C149 C148 1.373 1_556 S
C149 C165 1.377 . S
C150 C148 1.389 . S
C150 C151 1.524 . S
C150 C164 1.377 . S
C151 C150 1.524 . S
C151 C152 1.397 . S
C151 C156 1.363 . S
C152 H129 0.950 . S
C152 C151 1.397 . S
C152 C153 1.334 . S
C153 H130 0.950 . S
C153 C152 1.334 . S
C153 C154 1.287 . S
C154 C153 1.287 . S
C154 C155 1.524 . S
C154 H173 0.913 . S
C155 H131 0.950 . S
C155 C154 1.524 . S
C155 C156 1.415 . S
C156 H132 0.950 . S
C156 C151 1.363 . S
C156 C155 1.415 . S
C157 H133 0.951 1_655 S
C157 C158 1.366 1_656 S
C157 C159 1.388 . S
C158 C157 1.366 1_454 S
C158 C162 1.385 . S
C159 H134 0.951 . S
C159 C157 1.388 . S
C159 C160 1.352 1_556 S
C160 C159 1.352 1_554 S
C160 C161 1.429 . S
C160 C163 1.499 . S
C161 H135 0.950 . S
C161 C160 1.429 . S
C161 C162 1.374 1_655 S
C162 H136 0.950 . S
C162 C158 1.385 . S
C162 C161 1.374 1_455 S
C163 C160 1.499 . S
C163 C164 1.399 . S
C163 C165 1.364 1_554 S
C164 H137 0.950 . S
C164 C150 1.377 . S
C164 C163 1.399 . S
C165 C149 1.377 . S
C165 C163 1.364 1_556 S
C165 C166 1.524 . S
C166 C165 1.524 . S
C166 C167 1.397 . S
C166 C171 1.363 . S
C167 H138 0.950 . S
C167 C166 1.397 . S
C167 C168 1.334 . S
C168 H139 0.950 . S
C168 C167 1.334 . S
C168 C169 1.287 . S
C169 C168 1.287 . S
C169 C170 1.524 . S
C169 H172 0.999 . S
C170 H140 0.950 . S
C170 C169 1.524 . S
C170 C171 1.415 . S
C171 H141 0.950 . S
C171 C166 1.363 . S
C171 C170 1.415 . S
H172 C169 0.999 . S
H173 C154 0.913 . S
H174 C192 0.951 1_655 S
H175 C194 0.951 . S
H176 C196 0.950 . S
H177 C197 0.950 . S
H178 C199 0.950 . S
H179 C202 0.950 . S
H180 C203 0.950 . S
H181 C205 0.950 . S
H182 C206 0.950 1_556 S
H183 C207 0.951 . S
H184 C209 0.951 . S
H185 C211 0.950 . S
H186 C212 0.950 . S
H187 C214 0.950 . S
H188 C217 0.950 . S
H189 C218 0.950 . S
H190 C220 0.950 . S
H191 C221 0.950 1_554 S
C192 H174 0.951 1_455 S
C192 C193 1.382 1_455 S
C192 C194 1.388 . S
C193 C192 1.382 1_655 S
C193 C197 1.367 1_556 S
C194 H175 0.951 . S
C194 C192 1.388 . S
C194 C195 1.366 1_556 S
C195 C194 1.366 1_554 S
C195 C196 1.414 . S
C195 C198 1.499 . S
C196 H176 0.950 . S
C196 C195 1.414 . S
C196 C197 1.374 1_455 S
C197 H177 0.950 . S
C197 C193 1.367 1_554 S
C197 C196 1.374 1_655 S
C198 C195 1.499 . S
C198 C199 1.373 1_554 S
C198 C200 1.389 . S
C199 H178 0.950 . S
C199 C198 1.373 1_556 S
C199 C215 1.377 . S
C200 C198 1.389 . S
C200 C201 1.524 . S
C200 C214 1.377 . S
C201 C200 1.524 . S
C201 C202 1.397 . S
C201 C206 1.363 . S
C202 H179 0.950 . S
C202 C201 1.397 . S
C202 C203 1.334 . S
C203 H180 0.950 . S
C203 C202 1.334 . S
C203 C204 1.287 . S
C204 C203 1.287 . S
C204 C205 1.524 . S
C204 H223 0.913 . S
C205 H181 0.950 . S
C205 C204 1.524 . S
C205 C206 1.415 . S
C206 H182 0.950 1_554 S
C206 C201 1.363 . S
C206 C205 1.415 . S
C207 H183 0.951 . S
C207 C208 1.366 . S
C207 C209 1.388 . S
C208 C207 1.366 . S
C208 C212 1.385 1_554 S
C209 H184 0.951 . S
C209 C207 1.388 . S
C209 C210 1.377 . S
C210 C209 1.377 . S
C210 C211 1.404 1_554 S
C210 C213 1.497 1_554 S
C211 H185 0.950 . S
C211 C210 1.404 1_556 S
C211 C212 1.374 . S
C212 H186 0.950 . S
C212 C208 1.385 1_556 S
C212 C211 1.374 . S
C213 C210 1.497 1_556 S
C213 C214 1.370 1_556 S
C213 C215 1.392 . S
C214 H187 0.950 . S
C214 C200 1.377 . S
C214 C213 1.370 1_554 S
C215 C199 1.377 . S
C215 C213 1.392 . S
C215 C216 1.524 . S
C216 C215 1.524 . S
C216 C217 1.397 . S
C216 C221 1.363 . S
C217 H188 0.950 . S
C217 C216 1.397 . S
C217 C218 1.334 . S
C218 H189 0.950 . S
C218 C217 1.334 . S
C218 C219 1.287 . S
C219 C218 1.287 . S
C219 C220 1.524 . S
C219 H222 0.999 . S
C220 H190 0.950 . S
C220 C219 1.524 . S
C220 C221 1.415 . S
C221 H191 0.950 1_556 S
C221 C216 1.363 . S
C221 C220 1.415 . S
H222 C219 0.999 . S
H223 C204 0.913 . S
H224 C242 0.951 . S
H225 C244 0.951 . S
H226 C246 0.950 . S
H227 C247 0.950 . S
H228 C249 0.950 . S
H229 C252 0.950 . S
H230 C253 0.950 . S
H231 C255 0.950 . S
H232 C256 0.950 . S
H233 C257 0.951 . S
H234 C259 0.951 . S
H235 C261 0.950 . S
H236 C262 0.950 1_455 S
H237 C264 0.950 . S
H238 C267 0.950 . S
H239 C268 0.950 . S
H240 C270 0.950 . S
H241 C271 0.950 . S
C242 H224 0.951 . S
C242 C243 1.366 . S
C242 C244 1.388 . S
C243 C242 1.366 . S
C243 C247 1.385 . S
C244 H225 0.951 . S
C244 C242 1.388 . S
C244 C245 1.366 . S
C245 C244 1.366 . S
C245 C246 1.414 . S
C245 C248 1.499 . S
C246 H226 0.950 . S
C246 C245 1.414 . S
C246 C247 1.374 . S
C247 H227 0.950 . S
C247 C243 1.385 . S
C247 C246 1.374 . S
C248 C245 1.499 . S
C248 C249 1.373 . S
C248 C250 1.389 . S
C249 H228 0.950 . S
C249 C248 1.373 . S
C249 C265 1.377 . S
C250 C248 1.389 . S
C250 C251 1.524 . S
C250 C264 1.377 . S
C251 C250 1.524 . S
C251 C252 1.397 . S
C251 C256 1.363 . S
C252 H229 0.950 . S
C252 C251 1.397 . S
C252 C253 1.334 . S
C253 H230 0.950 . S
C253 C252 1.334 . S
C253 C254 1.287 . S
C254 C253 1.287 . S
C254 C255 1.524 . S
C254 H273 0.913 . S
C255 H231 0.950 . S
C255 C254 1.524 . S
C255 C256 1.415 . S
C256 H232 0.950 . S
C256 C251 1.363 . S
C256 C255 1.415 . S
C257 H233 0.951 . S
C257 C258 1.366 . S
C257 C259 1.388 1_455 S
C258 C257 1.366 . S
C258 C262 1.385 1_455 S
C259 H234 0.951 . S
C259 C257 1.388 1_655 S
C259 C260 1.366 . S
C260 C259 1.366 . S
C260 C261 1.414 . S
C260 C263 1.499 . S
C261 H235 0.950 . S
C261 C260 1.414 . S
C261 C262 1.374 . S
C262 H236 0.950 1_655 S
C262 C258 1.385 1_655 S
C262 C261 1.374 . S
C263 C260 1.499 . S
C263 C264 1.373 . S
C263 C265 1.389 . S
C264 H237 0.950 . S
C264 C250 1.377 . S
C264 C263 1.373 . S
C265 C249 1.377 . S
C265 C263 1.389 . S
C265 C266 1.524 . S
C266 C265 1.524 . S
C266 C267 1.397 . S
C266 C271 1.363 . S
C267 H238 0.950 . S
C267 C266 1.397 . S
C267 C268 1.334 . S
C268 H239 0.950 . S
C268 C267 1.334 . S
C268 C269 1.287 . S
C269 C268 1.287 . S
C269 C270 1.524 . S
C269 H272 0.999 . S
C270 H240 0.950 . S
C270 C269 1.524 . S
C270 C271 1.415 . S
C271 H241 0.950 . S
C271 C266 1.363 . S
C271 C270 1.415 . S
H272 C269 0.999 . S
H273 C254 0.913 . S
H274 C292 0.951 1_655 S
H275 C294 0.951 . S
H276 C296 0.950 . S
H277 C297 0.950 . S
H278 C299 0.950 . S
H279 C302 0.950 . S
H280 C303 0.950 . S
H281 C305 0.950 . S
H282 C306 0.950 . S
H283 C307 0.951 . S
H284 C309 0.951 . S
H285 C311 0.950 . S
H286 C312 0.950 . S
H287 C314 0.950 . S
H288 C317 0.950 . S
H289 C318 0.950 . S
H290 C320 0.950 . S
H291 C321 0.950 . S
C292 H274 0.951 1_455 S
C292 C293 1.366 1_455 S
C292 C294 1.388 . S
C293 C292 1.366 1_655 S
C293 C297 1.385 . S
C294 H275 0.951 . S
C294 C292 1.388 . S
C294 C295 1.366 . S
C295 C294 1.366 . S
C295 C296 1.414 . S
C295 C298 1.499 . S
C296 H276 0.950 . S
C296 C295 1.414 . S
C296 C297 1.374 1_455 S
C297 H277 0.950 . S
C297 C293 1.385 . S
C297 C296 1.374 1_655 S
C298 C295 1.499 . S
C298 C299 1.373 . S
C298 C300 1.389 . S
C299 H278 0.950 . S
C299 C298 1.373 . S
C299 C315 1.377 . S
C300 C298 1.389 . S
C300 C301 1.524 . S
C300 C314 1.377 . S
C301 C300 1.524 . S
C301 C302 1.397 . S
C301 C306 1.363 . S
C302 H279 0.950 . S
C302 C301 1.397 . S
C302 C303 1.334 . S
C303 H280 0.950 . S
C303 C302 1.334 . S
C303 C304 1.287 . S
C304 C303 1.287 . S
C304 C305 1.524 . S
C304 H323 0.913 . S
C305 H281 0.950 . S
C305 C304 1.524 . S
C305 C306 1.415 . S
C306 H282 0.950 . S
C306 C301 1.363 . S
C306 C305 1.415 . S
C307 H283 0.951 . S
C307 C308 1.366 . S
C307 C309 1.388 . S
C308 C307 1.366 . S
C308 C312 1.385 . S
C309 H284 0.951 . S
C309 C307 1.388 . S
C309 C310 1.366 . S
C310 C309 1.366 . S
C310 C311 1.414 . S
C310 C313 1.499 . S
C311 H285 0.950 . S
C311 C310 1.414 . S
C311 C312 1.374 . S
C312 H286 0.950 . S
C312 C308 1.385 . S
C312 C311 1.374 . S
C313 C310 1.499 . S
C313 C314 1.373 . S
C313 C315 1.389 . S
C314 H287 0.950 . S
C314 C300 1.377 . S
C314 C313 1.373 . S
C315 C299 1.377 . S
C315 C313 1.389 . S
C315 C316 1.524 . S
C316 C315 1.524 . S
C316 C317 1.397 . S
C316 C321 1.363 . S
C317 H288 0.950 . S
C317 C316 1.397 . S
C317 C318 1.334 . S
C318 H289 0.950 . S
C318 C317 1.334 . S
C318 C319 1.287 . S
C319 C318 1.287 . S
C319 C320 1.524 . S
C319 H322 0.999 . S
C320 H290 0.950 . S
C320 C319 1.524 . S
C320 C321 1.415 . S
C321 H291 0.950 . S
C321 C316 1.363 . S
C321 C320 1.415 . S
H322 C319 0.999 . S
H323 C304 0.913 . S
H324 C342 0.951 . S
H325 C344 0.951 . S
H326 C346 0.950 . S
H327 C347 0.950 . S
H328 C349 0.950 . S
H329 C352 0.950 . S
H330 C353 0.950 . S
H331 C355 0.950 . S
H332 C356 0.950 1_556 S
H333 C357 0.951 . S
H334 C359 0.951 . S
H335 C361 0.950 . S
H336 C362 0.950 . S
H337 C364 0.950 . S
H338 C367 0.950 . S
H339 C368 0.950 . S
H340 C370 0.950 . S
H341 C371 0.950 1_554 S
C342 H324 0.951 . S
C342 C343 1.366 1_556 S
C342 C344 1.388 . S
C343 C342 1.366 1_554 S
C343 C347 1.385 . S
C344 H325 0.951 . S
C344 C342 1.388 . S
C344 C345 1.366 1_556 S
C345 C344 1.366 1_554 S
C345 C346 1.414 . S
C345 C348 1.499 . S
C346 H326 0.950 . S
C346 C345 1.414 . S
C346 C347 1.374 . S
C347 H327 0.950 . S
C347 C343 1.385 . S
C347 C346 1.374 . S
C348 C345 1.499 . S
C348 C349 1.373 1_554 S
C348 C350 1.389 . S
C349 H328 0.950 . S
C349 C348 1.373 1_556 S
C349 C365 1.377 . S
C350 C348 1.389 . S
C350 C351 1.524 . S
C350 C364 1.377 . S
C351 C350 1.524 . S
C351 C352 1.397 . S
C351 C356 1.363 . S
C352 H329 0.950 . S
C352 C351 1.397 . S
C352 C353 1.334 . S
C353 H330 0.950 . S
C353 C352 1.334 . S
C353 C354 1.287 . S
C354 C353 1.287 . S
C354 C355 1.524 . S
C354 H373 0.913 . S
C355 H331 0.950 . S
C355 C354 1.524 . S
C355 C356 1.415 . S
C356 H332 0.950 1_554 S
C356 C351 1.363 . S
C356 C355 1.415 . S
C357 H333 0.951 . S
C357 C358 1.366 . S
C357 C359 1.388 . S
C358 C357 1.366 . S
C358 C362 1.385 1_554 S
C359 H334 0.951 . S
C359 C357 1.388 . S
C359 C360 1.360 1_554 S
C360 C359 1.360 1_556 S
C360 C361 1.420 . S
C360 C363 1.498 . S
C361 H335 0.950 . S
C361 C360 1.420 . S
C361 C362 1.374 . S
C362 H336 0.950 . S
C362 C358 1.385 1_556 S
C362 C361 1.374 . S
C363 C360 1.498 . S
C363 C364 1.373 1_556 S
C363 C365 1.389 . S
C364 H337 0.950 . S
C364 C350 1.377 . S
C364 C363 1.373 1_554 S
C365 C349 1.377 . S
C365 C363 1.389 . S
C365 C366 1.524 . S
C366 C365 1.524 . S
C366 C367 1.397 . S
C366 C371 1.363 . S
C367 H338 0.950 . S
C367 C366 1.397 . S
C367 C368 1.334 . S
C368 H339 0.950 . S
C368 C367 1.334 . S
C368 C369 1.287 . S
C369 C368 1.287 . S
C369 C370 1.524 . S
C369 H372 0.999 . S
C370 H340 0.950 . S
C370 C369 1.524 . S
C370 C371 1.415 . S
C371 H341 0.950 1_556 S
C371 C366 1.363 . S
C371 C370 1.415 . S
H372 C369 0.999 . S
H373 C354 0.913 . S
H374 C392 0.951 . S
H375 C394 0.951 . S
H376 C396 0.950 . S
H377 C397 0.950 . S
H378 C399 0.950 . S
H379 C402 0.950 . S
H380 C403 0.950 . S
H381 C405 0.950 . S
H382 C406 0.950 . S
H383 C407 0.951 . S
H384 C409 0.951 . S
H385 C411 0.950 . S
H386 C412 0.950 . S
H387 C414 0.950 . S
H388 C417 0.950 . S
H389 C418 0.950 . S
H390 C420 0.950 . S
H391 C421 0.950 . S
C392 H374 0.951 . S
C392 C393 1.366 . S
C392 C394 1.388 . S
C393 C392 1.366 . S
C393 C397 1.385 . S
C394 H375 0.951 . S
C394 C392 1.388 . S
C394 C395 1.366 . S
C395 C394 1.366 . S
C395 C396 1.414 . S
C395 C398 1.499 . S
C396 H376 0.950 . S
C396 C395 1.414 . S
C396 C397 1.374 . S
C397 H377 0.950 . S
C397 C393 1.385 . S
C397 C396 1.374 . S
C398 C395 1.499 . S
C398 C399 1.373 . S
C398 C400 1.389 . S
C399 H378 0.950 . S
C399 C398 1.373 . S
C399 C415 1.377 . S
C400 C398 1.389 . S
C400 C401 1.524 . S
C400 C414 1.377 . S
C401 C400 1.524 . S
C401 C402 1.397 . S
C401 C406 1.363 . S
C402 H379 0.950 . S
C402 C401 1.397 . S
C402 C403 1.334 . S
C403 H380 0.950 . S
C403 C402 1.334 . S
C403 C404 1.287 . S
C404 C403 1.287 . S
C404 C405 1.524 . S
C404 H423 0.913 . S
C405 H381 0.950 . S
C405 C404 1.524 . S
C405 C406 1.415 . S
C406 H382 0.950 . S
C406 C401 1.363 . S
C406 C405 1.415 . S
C407 H383 0.951 . S
C407 C408 1.366 . S
C407 C409 1.388 . S
C408 C407 1.366 . S
C408 C412 1.385 . S
C409 H384 0.951 . S
C409 C407 1.388 . S
C409 C410 1.366 . S
C410 C409 1.366 . S
C410 C411 1.414 . S
C410 C413 1.499 . S
C411 H385 0.950 . S
C411 C410 1.414 . S
C411 C412 1.374 . S
C412 H386 0.950 . S
C412 C408 1.385 . S
C412 C411 1.374 . S
C413 C410 1.499 . S
C413 C414 1.373 . S
C413 C415 1.389 . S
C414 H387 0.950 . S
C414 C400 1.377 . S
C414 C413 1.373 . S
C415 C399 1.377 . S
C415 C413 1.389 . S
C415 C416 1.524 . S
C416 C415 1.524 . S
C416 C417 1.397 . S
C416 C421 1.363 . S
C417 H388 0.950 . S
C417 C416 1.397 . S
C417 C418 1.334 . S
C418 H389 0.950 . S
C418 C417 1.334 . S
C418 C419 1.287 . S
C419 C418 1.287 . S
C419 C420 1.524 . S
C419 H422 0.999 . S
C420 H390 0.950 . S
C420 C419 1.524 . S
C420 C421 1.415 . S
C421 H391 0.950 . S
C421 C416 1.363 . S
C421 C420 1.415 . S
H422 C419 0.999 . S
H423 C404 0.913 . S
H424 C442 0.951 . S
H425 C444 0.951 . S
H426 C446 0.950 . S
H427 C447 0.950 . S
H428 C449 0.950 . S
H429 C452 0.950 . S
H430 C453 0.950 . S
H431 C455 0.950 . S
H432 C456 0.950 . S
H433 C457 0.951 . S
H434 C459 0.951 . S
H435 C461 0.950 . S
H436 C462 0.950 . S
H437 C464 0.950 . S
H438 C467 0.950 . S
H439 C468 0.950 . S
H440 C470 0.950 . S
H441 C471 0.950 . S
C442 H424 0.951 . S
C442 C443 1.366 . S
C442 C444 1.388 . S
C443 C442 1.366 . S
C443 C447 1.385 1_554 S
C444 H425 0.951 . S
C444 C442 1.388 . S
C444 C445 1.360 1_554 S
C445 C444 1.360 1_556 S
C445 C446 1.418 . S
C445 C448 1.500 . S
C446 H426 0.950 . S
C446 C445 1.418 . S
C446 C447 1.374 . S
C447 H427 0.950 . S
C447 C443 1.385 1_556 S
C447 C446 1.374 . S
C448 C445 1.500 . S
C448 C449 1.373 1_456 S
C448 C450 1.395 . S
C449 H428 0.950 . S
C449 C448 1.373 1_654 S
C449 C465 1.371 1_545 S
C450 C448 1.395 . S
C450 C451 1.524 1_545 S
C450 C464 1.371 1_545 S
C451 C450 1.524 1_565 S
C451 C452 1.397 1_565 S
C451 C456 1.363 . S
C452 H429 0.950 . S
C452 C451 1.397 1_545 S
C452 C453 1.334 . S
C453 H430 0.950 . S
C453 C452 1.334 . S
C453 C454 1.274 1_545 S
C454 C453 1.274 1_565 S
C454 C455 1.536 . S
C454 H473 0.914 1_565 S
C455 H431 0.950 . S
C455 C454 1.536 . S
C455 C456 1.415 . S
C456 H432 0.950 . S
C456 C451 1.363 . S
C456 C455 1.415 . S
C457 H433 0.951 . S
C457 C458 1.366 1_556 S
C457 C459 1.388 . S
C458 C457 1.366 1_554 S
C458 C462 1.385 . S
C459 H434 0.951 . S
C459 C457 1.388 . S
C459 C460 1.366 1_556 S
C460 C459 1.366 1_554 S
C460 C461 1.414 . S
C460 C463 1.499 . S
C461 H435 0.950 . S
C461 C460 1.414 . S
C461 C462 1.374 . S
C462 H436 0.950 . S
C462 C458 1.385 . S
C462 C461 1.374 . S
C463 C460 1.499 . S
C463 C464 1.373 1_654 S
C463 C465 1.395 . S
C464 H437 0.950 . S
C464 C450 1.371 1_565 S
C464 C463 1.373 1_456 S
C465 C449 1.371 1_565 S
C465 C463 1.395 . S
C465 C466 1.524 1_565 S
C466 C465 1.524 1_545 S
C466 C467 1.397 1_545 S
C466 C471 1.363 . S
C467 H438 0.950 . S
C467 C466 1.397 1_565 S
C467 C468 1.334 . S
C468 H439 0.950 . S
C468 C467 1.334 . S
C468 C469 1.274 1_565 S
C469 C468 1.274 1_545 S
C469 C470 1.536 . S
C469 H472 1.001 . S
C470 H440 0.950 . S
C470 C469 1.536 . S
C470 C471 1.415 . S
C471 H441 0.950 . S
C471 C466 1.363 . S
C471 C470 1.415 . S
H472 C469 1.001 . S
H473 C454 0.914 1_545 S
H474 C492 0.951 . S
H475 C494 0.951 . S
H476 C496 0.950 . S
H477 C497 0.950 . S
H478 C499 0.950 . S
H479 C502 0.950 . S
H480 C503 0.950 . S
H481 C505 0.950 . S
H482 C506 0.950 . S
H483 C507 0.951 . S
H484 C509 0.951 . S
H485 C511 0.950 . S
H486 C512 0.950 . S
H487 C514 0.950 . S
H488 C517 0.950 . S
H489 C518 0.950 . S
H490 C520 0.950 . S
H491 C521 0.950 . S
C492 H474 0.951 . S
C492 C493 1.366 . S
C492 C494 1.388 . S
C493 C492 1.366 . S
C493 C497 1.385 . S
C494 H475 0.951 . S
C494 C492 1.388 . S
C494 C495 1.366 . S
C495 C494 1.366 . S
C495 C496 1.414 . S
C495 C498 1.499 . S
C496 H476 0.950 . S
C496 C495 1.414 . S
C496 C497 1.374 . S
C497 H477 0.950 . S
C497 C493 1.385 . S
C497 C496 1.374 . S
C498 C495 1.499 . S
C498 C499 1.373 . S
C498 C500 1.389 1_655 S
C499 H478 0.950 . S
C499 C498 1.373 . S
C499 C515 1.377 1_545 S
C500 C498 1.389 1_455 S
C500 C501 1.524 . S
C500 C514 1.377 1_545 S
C501 C500 1.524 . S
C501 C502 1.397 1_455 S
C501 C506 1.363 . S
C502 H479 0.950 . S
C502 C501 1.397 1_655 S
C502 C503 1.334 . S
C503 H480 0.950 . S
C503 C502 1.334 . S
C503 C504 1.287 . S
C504 C503 1.287 . S
C504 C505 1.524 1_655 S
C504 H523 0.913 . S
C505 H481 0.950 . S
C505 C504 1.524 1_455 S
C505 C506 1.415 . S
C506 H482 0.950 . S
C506 C501 1.363 . S
C506 C505 1.415 . S
C507 H483 0.951 . S
C507 C508 1.366 . S
C507 C509 1.388 . S
C508 C507 1.366 . S
C508 C512 1.385 . S
C509 H484 0.951 . S
C509 C507 1.388 . S
C509 C510 1.366 . S
C510 C509 1.366 . S
C510 C511 1.414 . S
C510 C513 1.499 . S
C511 H485 0.950 . S
C511 C510 1.414 . S
C511 C512 1.374 . S
C512 H486 0.950 . S
C512 C508 1.385 . S
C512 C511 1.374 . S
C513 C510 1.499 . S
C513 C514 1.373 . S
C513 C515 1.389 1_455 S
C514 H487 0.950 . S
C514 C500 1.377 1_565 S
C514 C513 1.373 . S
C515 C499 1.377 1_565 S
C515 C513 1.389 1_655 S
C515 C516 1.524 . S
C516 C515 1.524 . S
C516 C517 1.397 1_655 S
C516 C521 1.363 . S
C517 H488 0.950 . S
C517 C516 1.397 1_455 S
C517 C518 1.334 . S
C518 H489 0.950 . S
C518 C517 1.334 . S
C518 C519 1.287 . S
C519 C518 1.287 . S
C519 C520 1.524 1_455 S
C519 H522 0.999 . S
C520 H490 0.950 . S
C520 C519 1.524 1_655 S
C520 C521 1.415 . S
C521 H491 0.950 . S
C521 C516 1.363 . S
C521 C520 1.415 . S
H522 C519 0.999 . S
H523 C504 0.913 . S
H524 C542 0.951 . S
H525 C544 0.951 . S
H526 C546 0.950 . S
H527 C547 0.950 . S
H528 C549 0.950 . S
H529 C552 0.950 . S
H530 C553 0.950 . S
H531 C555 0.950 . S
H532 C556 0.950 . S
H533 C557 0.951 . S
H534 C559 0.951 . S
H535 C561 0.950 . S
H536 C562 0.950 . S
H537 C564 0.950 . S
H538 C567 0.950 . S
H539 C568 0.950 . S
H540 C570 0.950 . S
H541 C571 0.950 . S
C542 H524 0.951 . S
C542 C543 1.366 . S
C542 C544 1.388 . S
C543 C542 1.366 . S
C543 C547 1.385 . S
C544 H525 0.951 . S
C544 C542 1.388 . S
C544 C545 1.366 . S
C545 C544 1.366 . S
C545 C546 1.414 . S
C545 C548 1.499 . S
C546 H526 0.950 . S
C546 C545 1.414 . S
C546 C547 1.374 . S
C547 H527 0.950 . S
C547 C543 1.385 . S
C547 C546 1.374 . S
C548 C545 1.499 . S
C548 C549 1.373 . S
C548 C550 1.389 . S
C549 H528 0.950 . S
C549 C548 1.373 . S
C549 C565 1.377 . S
C550 C548 1.389 . S
C550 C551 1.524 . S
C550 C564 1.377 . S
C551 C550 1.524 . S
C551 C552 1.397 . S
C551 C556 1.363 . S
C552 H529 0.950 . S
C552 C551 1.397 . S
C552 C553 1.334 . S
C553 H530 0.950 . S
C553 C552 1.334 . S
C553 C554 1.287 . S
C554 C553 1.287 . S
C554 C555 1.524 . S
C554 H573 0.913 . S
C555 H531 0.950 . S
C555 C554 1.524 . S
C555 C556 1.415 . S
C556 H532 0.950 . S
C556 C551 1.363 . S
C556 C555 1.415 . S
C557 H533 0.951 . S
C557 C558 1.366 . S
C557 C559 1.388 . S
C558 C557 1.366 . S
C558 C562 1.385 . S
C559 H534 0.951 . S
C559 C557 1.388 . S
C559 C560 1.366 . S
C560 C559 1.366 . S
C560 C561 1.414 . S
C560 C563 1.499 . S
C561 H535 0.950 . S
C561 C560 1.414 . S
C561 C562 1.374 . S
C562 H536 0.950 . S
C562 C558 1.385 . S
C562 C561 1.374 . S
C563 C560 1.499 . S
C563 C564 1.373 . S
C563 C565 1.389 . S
C564 H537 0.950 . S
C564 C550 1.377 . S
C564 C563 1.373 . S
C565 C549 1.377 . S
C565 C563 1.389 . S
C565 C566 1.524 . S
C566 C565 1.524 . S
C566 C567 1.397 . S
C566 C571 1.363 . S
C567 H538 0.950 . S
C567 C566 1.397 . S
C567 C568 1.334 . S
C568 H539 0.950 . S
C568 C567 1.334 . S
C568 C569 1.287 . S
C569 C568 1.287 . S
C569 C570 1.524 . S
C569 H572 0.999 . S
C570 H540 0.950 . S
C570 C569 1.524 . S
C570 C571 1.415 . S
C571 H541 0.950 . S
C571 C566 1.363 . S
C571 C570 1.415 . S
H572 C569 0.999 . S
H573 C554 0.913 . S
H574 C592 0.951 . S
H575 C594 0.951 . S
H576 C596 0.950 . S
H577 C597 0.950 . S
H578 C599 0.950 . S
H579 C602 0.950 . S
H580 C603 0.950 . S
H581 C605 0.950 . S
H582 C606 0.950 . S
H583 C607 0.951 . S
H584 C609 0.951 . S
H585 C611 0.950 . S
H586 C612 0.950 . S
H587 C614 0.950 . S
H588 C617 0.950 . S
H589 C618 0.950 . S
H590 C620 0.950 . S
H591 C621 0.950 . S
C592 H574 0.951 . S
C592 C593 1.366 . S
C592 C594 1.388 . S
C593 C592 1.366 . S
C593 C597 1.385 . S
C594 H575 0.951 . S
C594 C592 1.388 . S
C594 C595 1.366 . S
C595 C594 1.366 . S
C595 C596 1.414 . S
C595 C598 1.499 . S
C596 H576 0.950 . S
C596 C595 1.414 . S
C596 C597 1.374 . S
C597 H577 0.950 . S
C597 C593 1.385 . S
C597 C596 1.374 . S
C598 C595 1.499 . S
C598 C599 1.373 . S
C598 C600 1.389 . S
C599 H578 0.950 . S
C599 C598 1.373 . S
C599 C615 1.377 . S
C600 C598 1.389 . S
C600 C601 1.524 . S
C600 C614 1.377 . S
C601 C600 1.524 . S
C601 C602 1.397 . S
C601 C606 1.363 . S
C602 H579 0.950 . S
C602 C601 1.397 . S
C602 C603 1.334 . S
C603 H580 0.950 . S
C603 C602 1.334 . S
C603 C604 1.287 . S
C604 C603 1.287 . S
C604 C605 1.524 . S
C604 H623 0.913 . S
C605 H581 0.950 . S
C605 C604 1.524 . S
C605 C606 1.415 . S
C606 H582 0.950 . S
C606 C601 1.363 . S
C606 C605 1.415 . S
C607 H583 0.951 . S
C607 C608 1.366 . S
C607 C609 1.388 . S
C608 C607 1.366 . S
C608 C612 1.385 . S
C609 H584 0.951 . S
C609 C607 1.388 . S
C609 C610 1.366 . S
C610 C609 1.366 . S
C610 C611 1.414 . S
C610 C613 1.499 . S
C611 H585 0.950 . S
C611 C610 1.414 . S
C611 C612 1.374 . S
C612 H586 0.950 . S
C612 C608 1.385 . S
C612 C611 1.374 . S
C613 C610 1.499 . S
C613 C614 1.373 . S
C613 C615 1.389 . S
C614 H587 0.950 . S
C614 C600 1.377 . S
C614 C613 1.373 . S
C615 C599 1.377 . S
C615 C613 1.389 . S
C615 C616 1.524 . S
C616 C615 1.524 . S
C616 C617 1.397 . S
C616 C621 1.363 . S
C617 H588 0.950 . S
C617 C616 1.397 . S
C617 C618 1.334 . S
C618 H589 0.950 . S
C618 C617 1.334 . S
C618 C619 1.287 . S
C619 C618 1.287 . S
C619 C620 1.524 . S
C619 H622 0.999 . S
C620 H590 0.950 . S
C620 C619 1.524 . S
C620 C621 1.415 . S
C621 H591 0.950 . S
C621 C616 1.363 . S
C621 C620 1.415 . S
H622 C619 0.999 . S
H623 C604 0.913 . S
H624 C642 0.951 . S
H625 C644 0.951 . S
H626 C646 0.950 . S
H627 C647 0.950 . S
H628 C649 0.950 . S
H629 C652 0.950 . S
H630 C653 0.950 . S
H631 C655 0.950 . S
H632 C656 0.950 . S
H633 C657 0.951 . S
H634 C659 0.951 . S
H635 C661 0.950 . S
H636 C662 0.950 . S
H637 C664 0.950 . S
H638 C667 0.950 . S
H639 C668 0.950 . S
H640 C670 0.950 . S
H641 C671 0.950 . S
C642 H624 0.951 . S
C642 C643 1.366 . S
C642 C644 1.388 . S
C643 C642 1.366 . S
C643 C647 1.385 . S
C644 H625 0.951 . S
C644 C642 1.388 . S
C644 C645 1.366 . S
C645 C644 1.366 . S
C645 C646 1.414 . S
C645 C648 1.499 . S
C646 H626 0.950 . S
C646 C645 1.414 . S
C646 C647 1.374 . S
C647 H627 0.950 . S
C647 C643 1.385 . S
C647 C646 1.374 . S
C648 C645 1.499 . S
C648 C649 1.373 . S
C648 C650 1.389 . S
C649 H628 0.950 . S
C649 C648 1.373 . S
C649 C665 1.377 . S
C650 C648 1.389 . S
C650 C651 1.524 . S
C650 C664 1.377 . S
C651 C650 1.524 . S
C651 C652 1.397 . S
C651 C656 1.363 . S
C652 H629 0.950 . S
C652 C651 1.397 . S
C652 C653 1.334 . S
C653 H630 0.950 . S
C653 C652 1.334 . S
C653 C654 1.287 . S
C654 C653 1.287 . S
C654 C655 1.524 . S
C654 H673 0.913 . S
C655 H631 0.950 . S
C655 C654 1.524 . S
C655 C656 1.415 . S
C656 H632 0.950 . S
C656 C651 1.363 . S
C656 C655 1.415 . S
C657 H633 0.951 . S
C657 C658 1.366 . S
C657 C659 1.388 . S
C658 C657 1.366 . S
C658 C662 1.385 . S
C659 H634 0.951 . S
C659 C657 1.388 . S
C659 C660 1.366 . S
C660 C659 1.366 . S
C660 C661 1.414 . S
C660 C663 1.499 . S
C661 H635 0.950 . S
C661 C660 1.414 . S
C661 C662 1.374 . S
C662 H636 0.950 . S
C662 C658 1.385 . S
C662 C661 1.374 . S
C663 C660 1.499 . S
C663 C664 1.373 . S
C663 C665 1.389 . S
C664 H637 0.950 . S
C664 C650 1.377 . S
C664 C663 1.373 . S
C665 C649 1.377 . S
C665 C663 1.389 . S
C665 C666 1.524 . S
C666 C665 1.524 . S
C666 C667 1.397 . S
C666 C671 1.363 . S
C667 H638 0.950 . S
C667 C666 1.397 . S
C667 C668 1.334 . S
C668 H639 0.950 . S
C668 C667 1.334 . S
C668 C669 1.287 . S
C669 C668 1.287 . S
C669 C670 1.524 . S
C669 H672 0.999 . S
C670 H640 0.950 . S
C670 C669 1.524 . S
C670 C671 1.415 . S
C671 H641 0.950 . S
C671 C666 1.363 . S
C671 C670 1.415 . S
H672 C669 0.999 . S
H673 C654 0.913 . S
H674 C692 0.951 . S
H675 C694 0.951 . S
H676 C696 0.950 . S
H677 C697 0.950 . S
H678 C699 0.950 . S
H679 C702 0.950 . S
H680 C703 0.950 . S
H681 C705 0.950 . S
H682 C706 0.950 . S
H683 C707 0.951 . S
H684 C709 0.951 . S
H685 C711 0.950 . S
H686 C712 0.950 . S
H687 C714 0.950 . S
H688 C717 0.950 . S
H689 C718 0.950 . S
H690 C720 0.950 . S
H691 C721 0.950 . S
C692 H674 0.951 . S
C692 C693 1.366 . S
C692 C694 1.388 . S
C693 C692 1.366 . S
C693 C697 1.385 . S
C694 H675 0.951 . S
C694 C692 1.388 . S
C694 C695 1.366 . S
C695 C694 1.366 . S
C695 C696 1.414 . S
C695 C698 1.499 . S
C696 H676 0.950 . S
C696 C695 1.414 . S
C696 C697 1.374 . S
C697 H677 0.950 . S
C697 C693 1.385 . S
C697 C696 1.374 . S
C698 C695 1.499 . S
C698 C699 1.373 . S
C698 C700 1.389 . S
C699 H678 0.950 . S
C699 C698 1.373 . S
C699 C715 1.377 . S
C700 C698 1.389 . S
C700 C701 1.524 . S
C700 C714 1.377 . S
C701 C700 1.524 . S
C701 C702 1.397 . S
C701 C706 1.363 . S
C702 H679 0.950 . S
C702 C701 1.397 . S
C702 C703 1.334 . S
C703 H680 0.950 . S
C703 C702 1.334 . S
C703 C704 1.287 . S
C704 C703 1.287 . S
C704 C705 1.524 . S
C704 H723 0.913 . S
C705 H681 0.950 . S
C705 C704 1.524 . S
C705 C706 1.415 . S
C706 H682 0.950 . S
C706 C701 1.363 . S
C706 C705 1.415 . S
C707 H683 0.951 . S
C707 C708 1.366 . S
C707 C709 1.388 . S
C708 C707 1.366 . S
C708 C712 1.385 . S
C709 H684 0.951 . S
C709 C707 1.388 . S
C709 C710 1.366 . S
C710 C709 1.366 . S
C710 C711 1.414 . S
C710 C713 1.499 . S
C711 H685 0.950 . S
C711 C710 1.414 . S
C711 C712 1.374 . S
C712 H686 0.950 . S
C712 C708 1.385 . S
C712 C711 1.374 . S
C713 C710 1.499 . S
C713 C714 1.373 . S
C713 C715 1.389 . S
C714 H687 0.950 . S
C714 C700 1.377 . S
C714 C713 1.373 . S
C715 C699 1.377 . S
C715 C713 1.389 . S
C715 C716 1.524 . S
C716 C715 1.524 . S
C716 C717 1.397 . S
C716 C721 1.363 . S
C717 H688 0.950 . S
C717 C716 1.397 . S
C717 C718 1.334 . S
C718 H689 0.950 . S
C718 C717 1.334 . S
C718 C719 1.287 . S
C719 C718 1.287 . S
C719 C720 1.524 . S
C719 H722 0.999 . S
C720 H690 0.950 . S
C720 C719 1.524 . S
C720 C721 1.415 . S
C721 H691 0.950 . S
C721 C716 1.363 . S
C721 C720 1.415 . S
H722 C719 0.999 . S
H723 C704 0.913 . S
H724 C742 0.951 1_655 S
H725 C744 0.951 1_655 S
H726 C746 0.950 . S
H727 C747 0.950 . S
H728 C749 0.950 . S
H729 C752 0.950 . S
H730 C753 0.950 1_455 S
H731 C755 0.950 . S
H732 C756 0.950 . S
H733 C757 0.951 . S
H734 C759 0.951 1_455 S
H735 C761 0.950 . S
H736 C762 0.950 . S
H737 C764 0.950 . S
H738 C767 0.950 . S
H739 C768 0.950 . S
H740 C770 0.950 . S
H741 C771 0.950 . S
C742 H724 0.951 1_455 S
C742 C743 1.366 . S
C742 C744 1.388 . S
C743 C742 1.366 . S
C743 C747 1.385 . S
C744 H725 0.951 1_455 S
C744 C742 1.388 . S
C744 C745 1.366 . S
C745 C744 1.366 . S
C745 C746 1.414 . S
C745 C748 1.499 . S
C746 H726 0.950 . S
C746 C745 1.414 . S
C746 C747 1.374 . S
C747 H727 0.950 . S
C747 C743 1.385 . S
C747 C746 1.374 . S
C748 C745 1.499 . S
C748 C749 1.373 . S
C748 C750 1.389 1_455 S
C749 H728 0.950 . S
C749 C748 1.373 . S
C749 C765 1.377 . S
C750 C748 1.389 1_655 S
C750 C751 1.524 . S
C750 C764 1.377 . S
C751 C750 1.524 . S
C751 C752 1.397 1_655 S
C751 C756 1.363 . S
C752 H729 0.950 . S
C752 C751 1.397 1_455 S
C752 C753 1.334 1_455 S
C753 H730 0.950 1_655 S
C753 C752 1.334 1_655 S
C753 C754 1.287 . S
C754 C753 1.287 . S
C754 C755 1.524 . S
C754 H773 0.913 . S
C755 H731 0.950 . S
C755 C754 1.524 . S
C755 C756 1.415 . S
C756 H732 0.950 . S
C756 C751 1.363 . S
C756 C755 1.415 . S
C757 H733 0.951 . S
C757 C758 1.366 . S
C757 C759 1.388 . S
C758 C757 1.366 . S
C758 C762 1.385 . S
C759 H734 0.951 1_655 S
C759 C757 1.388 . S
C759 C760 1.366 . S
C760 C759 1.366 . S
C760 C761 1.414 . S
C760 C763 1.499 . S
C761 H735 0.950 . S
C761 C760 1.414 . S
C761 C762 1.374 . S
C762 H736 0.950 . S
C762 C758 1.385 . S
C762 C761 1.374 . S
C763 C760 1.499 . S
C763 C764 1.373 . S
C763 C765 1.389 1_655 S
C764 H737 0.950 . S
C764 C750 1.377 . S
C764 C763 1.373 . S
C765 C749 1.377 . S
C765 C763 1.389 1_455 S
C765 C766 1.524 . S
C766 C765 1.524 . S
C766 C767 1.397 1_455 S
C766 C771 1.363 . S
C767 H738 0.950 . S
C767 C766 1.397 1_655 S
C767 C768 1.334 . S
C768 H739 0.950 . S
C768 C767 1.334 . S
C768 C769 1.287 1_655 S
C769 C768 1.287 1_455 S
C769 C770 1.524 . S
C769 H772 0.999 . S
C770 H740 0.950 . S
C770 C769 1.524 . S
C770 C771 1.415 . S
C771 H741 0.950 . S
C771 C766 1.363 . S
C771 C770 1.415 . S
H772 C769 0.999 . S
H773 C754 0.913 . S
H774 C792 0.951 . S
H775 C794 0.951 . S
H776 C796 0.950 . S
H777 C797 0.950 . S
H778 C799 0.950 . S
H779 C802 0.950 . S
H780 C803 0.950 . S
H781 C805 0.950 . S
H782 C806 0.950 1_455 S
H783 C807 0.951 . S
H784 C809 0.951 1_655 S
H785 C811 0.950 . S
H786 C812 0.950 . S
H787 C814 0.950 1_455 S
H788 C817 0.950 . S
H789 C818 0.950 . S
H790 C820 0.950 1_655 S
H791 C821 0.950 . S
C792 H774 0.951 . S
C792 C793 1.366 . S
C792 C794 1.388 . S
C793 C792 1.366 . S
C793 C797 1.385 . S
C794 H775 0.951 . S
C794 C792 1.388 . S
C794 C795 1.366 . S
C795 C794 1.366 . S
C795 C796 1.414 . S
C795 C798 1.499 . S
C796 H776 0.950 . S
C796 C795 1.414 . S
C796 C797 1.374 . S
C797 H777 0.950 . S
C797 C793 1.385 . S
C797 C796 1.374 . S
C798 C795 1.499 . S
C798 C799 1.373 . S
C798 C800 1.389 . S
C799 H778 0.950 . S
C799 C798 1.373 . S
C799 C815 1.377 1_655 S
C800 C798 1.389 . S
C800 C801 1.524 . S
C800 C814 1.377 . S
C801 C800 1.524 . S
C801 C802 1.397 . S
C801 C806 1.363 . S
C802 H779 0.950 . S
C802 C801 1.397 . S
C802 C803 1.334 . S
C803 H780 0.950 . S
C803 C802 1.334 . S
C803 C804 1.287 . S
C804 C803 1.287 . S
C804 C805 1.524 . S
C804 H823 0.913 . S
C805 H781 0.950 . S
C805 C804 1.524 . S
C805 C806 1.415 . S
C806 H782 0.950 1_655 S
C806 C801 1.363 . S
C806 C805 1.415 . S
C807 H783 0.951 . S
C807 C808 1.366 . S
C807 C809 1.388 . S
C808 C807 1.366 . S
C808 C812 1.385 . S
C809 H784 0.951 1_455 S
C809 C807 1.388 . S
C809 C810 1.366 . S
C810 C809 1.366 . S
C810 C811 1.414 . S
C810 C813 1.499 . S
C811 H785 0.950 . S
C811 C810 1.414 . S
C811 C812 1.374 . S
C812 H786 0.950 . S
C812 C808 1.385 . S
C812 C811 1.374 . S
C813 C810 1.499 . S
C813 C814 1.373 1_455 S
C813 C815 1.389 . S
C814 H787 0.950 1_655 S
C814 C800 1.377 . S
C814 C813 1.373 1_655 S
C815 C799 1.377 1_455 S
C815 C813 1.389 . S
C815 C816 1.524 . S
C816 C815 1.524 . S
C816 C817 1.397 . S
C816 C821 1.363 1_455 S
C817 H788 0.950 . S
C817 C816 1.397 . S
C817 C818 1.334 . S
C818 H789 0.950 . S
C818 C817 1.334 . S
C818 C819 1.287 . S
C819 C818 1.287 . S
C819 C820 1.524 . S
C819 H822 0.999 . S
C820 H790 0.950 1_455 S
C820 C819 1.524 . S
C820 C821 1.415 1_455 S
C821 H791 0.950 . S
C821 C816 1.363 1_655 S
C821 C820 1.415 1_655 S
H822 C819 0.999 . S
H823 C804 0.913 . S
H824 C842 0.951 . S
H825 C844 0.951 . S
H826 C846 0.950 1_655 S
H827 C847 0.950 . S
H828 C849 0.950 1_655 S
H829 C852 0.950 . S
H830 C853 0.950 . S
H831 C855 0.950 . S
H832 C856 0.950 . S
H833 C857 0.951 . S
H834 C859 0.951 . S
H835 C861 0.950 1_455 S
H836 C862 0.950 . S
H837 C864 0.950 . S
H838 C867 0.950 1_455 S
H839 C868 0.950 . S
H840 C870 0.950 . S
H841 C871 0.950 . S
C842 H824 0.951 . S
C842 C843 1.366 . S
C842 C844 1.388 . S
C843 C842 1.366 . S
C843 C847 1.385 . S
C844 H825 0.951 . S
C844 C842 1.388 . S
C844 C845 1.366 . S
C845 C844 1.366 . S
C845 C846 1.414 . S
C845 C848 1.499 . S
C846 H826 0.950 1_455 S
C846 C845 1.414 . S
C846 C847 1.374 . S
C847 H827 0.950 . S
C847 C843 1.385 . S
C847 C846 1.374 . S
C848 C845 1.499 . S
C848 C849 1.373 . S
C848 C850 1.389 . S
C849 H828 0.950 1_455 S
C849 C848 1.373 . S
C849 C865 1.377 1_455 S
C850 C848 1.389 . S
C850 C851 1.524 . S
C850 C864 1.377 . S
C851 C850 1.524 . S
C851 C852 1.397 . S
C851 C856 1.363 . S
C852 H829 0.950 . S
C852 C851 1.397 . S
C852 C853 1.334 . S
C853 H830 0.950 . S
C853 C852 1.334 . S
C853 C854 1.287 . S
C854 C853 1.287 . S
C854 C855 1.524 . S
C854 H873 0.913 . S
C855 H831 0.950 . S
C855 C854 1.524 . S
C855 C856 1.415 . S
C856 H832 0.950 . S
C856 C851 1.363 . S
C856 C855 1.415 . S
C857 H833 0.951 . S
C857 C858 1.366 . S
C857 C859 1.388 . S
C858 C857 1.366 . S
C858 C862 1.385 . S
C859 H834 0.951 . S
C859 C857 1.388 . S
C859 C860 1.366 . S
C860 C859 1.366 . S
C860 C861 1.414 . S
C860 C863 1.499 . S
C861 H835 0.950 1_655 S
C861 C860 1.414 . S
C861 C862 1.374 . S
C862 H836 0.950 . S
C862 C858 1.385 . S
C862 C861 1.374 . S
C863 C860 1.499 . S
C863 C864 1.373 1_655 S
C863 C865 1.389 . S
C864 H837 0.950 . S
C864 C850 1.377 . S
C864 C863 1.373 1_455 S
C865 C849 1.377 1_655 S
C865 C863 1.389 . S
C865 C866 1.524 . S
C866 C865 1.524 . S
C866 C867 1.397 . S
C866 C871 1.363 . S
C867 H838 0.950 1_655 S
C867 C866 1.397 . S
C867 C868 1.334 . S
C868 H839 0.950 . S
C868 C867 1.334 . S
C868 C869 1.287 . S
C869 C868 1.287 . S
C869 C870 1.524 . S
C869 H872 0.999 . S
C870 H840 0.950 . S
C870 C869 1.524 . S
C870 C871 1.415 . S
C871 H841 0.950 . S
C871 C866 1.363 . S
C871 C870 1.415 . S
H872 C869 0.999 . S
H873 C854 0.913 . S
H874 C892 0.951 . S
H875 C894 0.951 1_655 S
H876 C896 0.950 . S
H877 C897 0.950 . S
H878 C899 0.950 . S
H879 C902 0.950 . S
H880 C903 0.950 . S
H881 C905 0.950 . S
H882 C906 0.950 . S
H883 C907 0.951 . S
H884 C909 0.951 1_455 S
H885 C911 0.950 . S
H886 C912 0.950 . S
H887 C914 0.950 . S
H888 C917 0.950 . S
H889 C918 0.950 . S
H890 C920 0.950 . S
H891 C921 0.950 . S
C892 H874 0.951 . S
C892 C893 1.366 . S
C892 C894 1.388 . S
C893 C892 1.366 . S
C893 C897 1.385 . S
C894 H875 0.951 1_455 S
C894 C892 1.388 . S
C894 C895 1.366 . S
C895 C894 1.366 . S
C895 C896 1.414 . S
C895 C898 1.499 . S
C896 H876 0.950 . S
C896 C895 1.414 . S
C896 C897 1.374 . S
C897 H877 0.950 . S
C897 C893 1.385 . S
C897 C896 1.374 . S
C898 C895 1.499 . S
C898 C899 1.373 . S
C898 C900 1.389 . S
C899 H878 0.950 . S
C899 C898 1.373 . S
C899 C915 1.377 . S
C900 C898 1.389 . S
C900 C901 1.524 . S
C900 C914 1.377 1_455 S
C901 C900 1.524 . S
C901 C902 1.397 . S
C901 C906 1.363 1_455 S
C902 H879 0.950 . S
C902 C901 1.397 . S
C902 C903 1.334 . S
C903 H880 0.950 . S
C903 C902 1.334 . S
C903 C904 1.287 . S
C904 C903 1.287 . S
C904 C905 1.524 1_455 S
C904 H923 0.913 . S
C905 H881 0.950 . S
C905 C904 1.524 1_655 S
C905 C906 1.415 . S
C906 H882 0.950 . S
C906 C901 1.363 1_655 S
C906 C905 1.415 . S
C907 H883 0.951 . S
C907 C908 1.366 . S
C907 C909 1.388 . S
C908 C907 1.366 . S
C908 C912 1.385 . S
C909 H884 0.951 1_655 S
C909 C907 1.388 . S
C909 C910 1.366 . S
C910 C909 1.366 . S
C910 C911 1.414 . S
C910 C913 1.499 . S
C911 H885 0.950 . S
C911 C910 1.414 . S
C911 C912 1.374 . S
C912 H886 0.950 . S
C912 C908 1.385 . S
C912 C911 1.374 . S
C913 C910 1.499 . S
C913 C914 1.373 . S
C913 C915 1.389 1_655 S
C914 H887 0.950 . S
C914 C900 1.377 1_655 S
C914 C913 1.373 . S
C915 C899 1.377 . S
C915 C913 1.389 1_455 S
C915 C916 1.523 1_455 S
C916 C915 1.523 1_655 S
C916 C917 1.408 . S
C916 C921 1.353 1_655 S
C917 H888 0.950 . S
C917 C916 1.408 . S
C917 C918 1.334 . S
C918 H889 0.950 . S
C918 C917 1.334 . S
C918 C919 1.287 . S
C919 C918 1.287 . S
C919 C920 1.524 1_655 S
C919 H922 0.999 . S
C920 H890 0.950 . S
C920 C919 1.524 1_455 S
C920 C921 1.415 . S
C921 H891 0.950 . S
C921 C916 1.353 1_455 S
C921 C920 1.415 . S
H922 C919 0.999 . S
H923 C904 0.913 . S
C143 C11 1.324 . S
C158 C18 1.318 . S
C193 C42 1.324 . S
C208 C49 1.318 . S
C243 C73 1.319 . S
C258 C80 1.319 . S
C293 C104 1.318 . S
C308 C111 1.318 . S
C343 C41 1.573 . S
C358 C2 1.573 1_554 S
C393 C103 1.572 . S
C408 C64 1.572 . S
C443 C10 1.572 . S
C458 C33 1.572 1_554 S
C493 C95 1.572 . S
C508 C72 1.572 . S
C543 C93 1.078 . S
C558 C1 1.086 . S
C593 C31 1.079 . S
C608 C63 1.087 . S
C643 C86 1.079 . S
C658 C58 1.087 . S
C693 C24 1.078 . S
C708 C120 1.087 . S
C743 C62 1.080 . S
C758 C32 1.086 . S
C793 C94 1.088 . S
C808 C0 1.080 . S
C843 C27 1.087 . S
C858 C117 1.079 . S
C893 C89 1.087 . S
C908 C55 1.080 . S
