# Generated by pormake.
# Topology upa, (4)-cn, num edge types: 1
# Building blocks:
#     Node 0, Type 0, BuildingBlock: QUQFOY_clean_sbu_3, # of connection points: 4
#     Node 1, Type 0, BuildingBlock: QUQFOY_clean_sbu_3, # of connection points: 4
#     Node 2, Type 0, BuildingBlock: QUQFOY_clean_sbu_3, # of connection points: 4
#     Node 3, Type 0, BuildingBlock: QUQFOY_clean_sbu_3, # of connection points: 4
#     Node 4, Type 0, BuildingBlock: QUQFOY_clean_sbu_3, # of connection points: 4
#     Node 5, Type 0, BuildingBlock: QUQFOY_clean_sbu_3, # of connection points: 4
#     Node 6, Type 0, BuildingBlock: QUQFOY_clean_sbu_3, # of connection points: 4
#     Node 7, Type 0, BuildingBlock: QUQFOY_clean_sbu_3, # of connection points: 4
#     Edge 8, Type (0, 0), BuildingBlock: CIFDUS_clean_linker_0, # of connection points: 2
#     Edge 9, Type (0, 0), BuildingBlock: CIFDUS_clean_linker_0, # of connection points: 2
#     Edge 10, Type (0, 0), BuildingBlock: CIFDUS_clean_linker_0, # of connection points: 2
#     Edge 11, Type (0, 0), BuildingBlock: CIFDUS_clean_linker_0, # of connection points: 2
#     Edge 12, Type (0, 0), BuildingBlock: CIFDUS_clean_linker_0, # of connection points: 2
#     Edge 13, Type (0, 0), BuildingBlock: CIFDUS_clean_linker_0, # of connection points: 2
#     Edge 14, Type (0, 0), BuildingBlock: CIFDUS_clean_linker_0, # of connection points: 2
#     Edge 15, Type (0, 0), BuildingBlock: CIFDUS_clean_linker_0, # of connection points: 2
#     Edge 16, Type (0, 0), BuildingBlock: CIFDUS_clean_linker_0, # of connection points: 2
#     Edge 17, Type (0, 0), BuildingBlock: CIFDUS_clean_linker_0, # of connection points: 2
#     Edge 18, Type (0, 0), BuildingBlock: CIFDUS_clean_linker_0, # of connection points: 2
#     Edge 19, Type (0, 0), BuildingBlock: CIFDUS_clean_linker_0, # of connection points: 2
#     Edge 20, Type (0, 0), BuildingBlock: CIFDUS_clean_linker_0, # of connection points: 2
#     Edge 21, Type (0, 0), BuildingBlock: CIFDUS_clean_linker_0, # of connection points: 2
#     Edge 22, Type (0, 0), BuildingBlock: CIFDUS_clean_linker_0, # of connection points: 2
#     Edge 23, Type (0, 0), BuildingBlock: CIFDUS_clean_linker_0, # of connection points: 2
# Relax obj value: 0.208
# Max RMSD: 0.129
# Mean RMSD: 0.129
data_MOF--net-upa--node1-QUQFOY_clean_sbu_3--edge1-CIFDUS_clean_linker_0
_symmetry_space_group_name_H-M    P1
_symmetry_Int_Tables_number       1
_symmetry_cell_setting            triclinic
loop_
_symmetry_equiv_pos_as_xyz
'x, y, z'
_cell_length_a     23.635194
_cell_length_b     23.825635
_cell_length_c     39.965355
_cell_angle_alpha  90.25714
_cell_angle_beta   89.641221
_cell_angle_gamma 90.080643
loop_
_atom_site_label
_atom_site_type_symbol
_atom_site_fract_x
_atom_site_fract_y
_atom_site_fract_z
_atom_type_partial_charge
C0 C 0.04222 0.26957 0.31209 0.0
O1 O 0.03152 0.27382 0.34319 0.0
Cd2 Cd 0.09289 0.25432 0.38935 0.0
O3 O 0.09062 0.25305 0.30161 0.0
Cd4 Cd 0.17941 0.21656 0.32816 0.0
C5 C 0.09737 0.1171 0.36646 0.0
O6 O 0.18568 0.2829 0.37442 0.0
O7 O 0.24071 0.21179 0.37772 0.0
O8 O 0.23393 0.25156 0.28006 0.0
C9 C 0.22315 0.25707 0.39082 0.0
O10 O 0.08656 0.15246 0.38962 0.0
C11 C 0.26548 0.20851 0.27756 0.0
O12 O 0.12557 0.13078 0.34042 0.0
O13 O 0.25627 0.16882 0.29798 0.0
C14 C 0.20098 0.55575 0.80928 0.0
O15 O 0.19672 0.54734 0.84057 0.0
Cd16 Cd 0.22758 0.60573 0.88625 0.0
O17 O 0.2234 0.60063 0.798 0.0
Cd18 Cd 0.27406 0.68203 0.82374 0.0
C19 C 0.36354 0.58836 0.86067 0.0
O20 O 0.21882 0.70243 0.87403 0.0
O21 O 0.30271 0.73792 0.87197 0.0
O22 O 0.23936 0.75805 0.78872 0.0
C23 C 0.25633 0.73283 0.8878 0.0
O24 O 0.32729 0.5833 0.88418 0.0
C25 C 0.287 0.76923 0.77541 0.0
O26 O 0.35344 0.61765 0.8347 0.0
O27 O 0.32833 0.73781 0.78308 0.0
C28 C 0.92129 0.68786 0.3079 0.0
O29 O 0.92712 0.67066 0.3377 0.0
Cd30 Cd 0.87859 0.71731 0.38295 0.0
O31 O 0.88035 0.72021 0.30031 0.0
Cd32 Cd 0.79344 0.76221 0.32669 0.0
C33 C 0.89593 0.85123 0.35081 0.0
O34 O 0.77873 0.7095 0.37842 0.0
O35 O 0.7468 0.79441 0.37753 0.0
O36 O 0.72237 0.71682 0.29171 0.0
C37 C 0.75126 0.74839 0.39312 0.0
O38 O 0.90814 0.81442 0.37269 0.0
C39 C 0.69932 0.76206 0.28196 0.0
O40 O 0.85647 0.84288 0.32974 0.0
O41 O 0.72235 0.80773 0.29134 0.0
C42 C 0.79548 0.42236 0.80997 0.0
O43 O 0.79715 0.431 0.84133 0.0
Cd44 Cd 0.75741 0.37342 0.88447 0.0
O45 O 0.77513 0.3767 0.79819 0.0
Cd46 Cd 0.72844 0.2902 0.82198 0.0
C47 C 0.62709 0.38209 0.84752 0.0
O48 O 0.77472 0.27653 0.87594 0.0
O49 O 0.69267 0.23833 0.8703 0.0
O50 O 0.77982 0.21993 0.78895 0.0
C51 C 0.73597 0.24588 0.88835 0.0
O52 O 0.65904 0.39238 0.87238 0.0
C53 C 0.73615 0.19754 0.77605 0.0
O54 O 0.64272 0.34874 0.82414 0.0
O55 O 0.6889 0.22059 0.78277 0.0
C56 C 0.546 0.19163 0.16672 0.0
O57 O 0.53815 0.1803 0.13601 0.0
Cd58 Cd 0.59266 0.22072 0.09162 0.0
O59 O 0.58919 0.21971 0.17608 0.0
Cd60 Cd 0.6762 0.265 0.1517 0.0
C61 C 0.57464 0.35376 0.12539 0.0
O62 O 0.69175 0.21014 0.10042 0.0
O63 O 0.73265 0.29095 0.10313 0.0
O64 O 0.73304 0.22097 0.19541 0.0
C65 C 0.72388 0.24624 0.08667 0.0
O66 O 0.56256 0.31605 0.1039 0.0
C67 C 0.76209 0.26458 0.20191 0.0
O68 O 0.61449 0.3472 0.1464 0.0
O69 O 0.75027 0.30887 0.18583 0.0
C70 C 0.27832 0.0546 0.67224 0.0
O71 O 0.29562 0.0443 0.64268 0.0
Cd72 Cd 0.26304 0.09704 0.59556 0.0
O73 O 0.25094 0.0996 0.6787 0.0
Cd74 Cd 0.21703 0.18776 0.65138 0.0
C75 C 0.12334 0.09249 0.62204 0.0
O76 O 0.28248 0.19398 0.60424 0.0
O77 O 0.20523 0.24078 0.59953 0.0
O78 O 0.25494 0.24393 0.69759 0.0
C79 C 0.2524 0.22669 0.58681 0.0
O80 O 0.16167 0.07705 0.60138 0.0
C81 C 0.21166 0.2753 0.70049 0.0
O82 O 0.13264 0.13101 0.64355 0.0
O83 O 0.17057 0.26552 0.68097 0.0
C84 C 0.41831 0.80208 0.17509 0.0
O85 O 0.42089 0.82762 0.14732 0.0
Cd86 Cd 0.38225 0.77729 0.10059 0.0
O87 O 0.38125 0.76387 0.17983 0.0
Cd88 Cd 0.29616 0.72146 0.15226 0.0
C89 C 0.40712 0.64267 0.13086 0.0
O90 O 0.28149 0.77367 0.10037 0.0
O91 O 0.25487 0.68659 0.10125 0.0
O92 O 0.22228 0.76657 0.18545 0.0
C93 C 0.25788 0.73259 0.08547 0.0
O94 O 0.42084 0.68433 0.11261 0.0
C95 C 0.19981 0.72145 0.19608 0.0
O96 O 0.36178 0.64284 0.14834 0.0
O97 O 0.2243 0.67577 0.18801 0.0
C98 C 0.71067 0.91804 0.66579 0.0
O99 O 0.69169 0.92033 0.63614 0.0
Cd100 Cd 0.72542 0.86173 0.59096 0.0
O101 O 0.742 0.87732 0.67496 0.0
Cd102 Cd 0.77992 0.78627 0.65211 0.0
C103 C 0.86575 0.87859 0.61224 0.0
O104 O 0.71649 0.76617 0.60561 0.0
O105 O 0.79744 0.72502 0.60421 0.0
O106 O 0.74474 0.73331 0.7005 0.0
C107 C 0.75016 0.73324 0.59032 0.0
O108 O 0.826 0.88601 0.59131 0.0
C109 C 0.78979 0.70493 0.7043 0.0
O110 O 0.85954 0.84725 0.63782 0.0
O111 O 0.8311 0.71605 0.68493 0.0
H112 H 0.04073 0.06633 0.31665 0.0
H113 H 0.08773 0.04775 0.42002 0.0
H114 H 0.0298 0.96263 0.4242 0.0
H115 H 0.96254 0.89638 0.39903 0.0
H116 H 0.90924 0.92004 0.29695 0.0
H117 H 0.97216 0.00098 0.29177 0.0
C118 C 0.03904 0.04287 0.33985 0.0
C119 C 0.06904 0.06224 0.36783 0.0
C120 C 0.00371 -0.00427 0.34244 0.0
C121 C 0.06536 0.03287 0.39811 0.0
C122 C 0.03203 0.98459 0.40054 0.0
C123 C 0.96465 0.91931 0.37567 0.0
C124 C 0.93119 0.90232 0.34845 0.0
C125 C 0.00035 0.96617 0.373 0.0
C126 C 0.93412 0.93261 0.31839 0.0
C127 C 0.97041 0.97862 0.31532 0.0
H128 H 0.41533 0.53046 0.81069 0.0
H129 H 0.42636 0.56993 0.91586 0.0
H130 H 0.50757 0.50734 0.92129 0.0
H131 H 0.57422 0.441 0.89645 0.0
H132 H 0.56178 0.39741 0.79179 0.0
H133 H 0.48118 0.46095 0.78599 0.0
C134 C 0.43623 0.52585 0.83461 0.0
C135 C 0.41581 0.55524 0.86275 0.0
C136 C 0.48168 0.48834 0.83776 0.0
C137 C 0.44193 0.54798 0.89386 0.0
C138 C 0.48803 0.51203 0.897 0.0
C139 C 0.55377 0.44506 0.87235 0.0
C140 C 0.57411 0.41461 0.84458 0.0
C141 C 0.50791 0.48172 0.86919 0.0
C142 C 0.54674 0.42009 0.81364 0.0
C143 C 0.501 0.4568 0.81023 0.0
H144 H 0.60367 0.4638 0.13168 0.0
H145 H 0.46084 0.35166 0.12531 0.0
H146 H 0.39567 0.43095 0.12905 0.0
H147 H 0.37922 0.53259 0.13203 0.0
H148 H 0.52166 0.64569 0.13254 0.0
H149 H 0.58707 0.56616 0.13326 0.0
C150 C 0.55827 0.45707 0.13126 0.0
C151 C 0.53682 0.40243 0.12819 0.0
C152 C 0.52106 0.50302 0.13226 0.0
C153 C 0.47805 0.39372 0.12736 0.0
C154 C 0.44082 0.43891 0.12959 0.0
C155 C 0.42458 0.53957 0.13252 0.0
C156 C 0.44581 0.59449 0.13229 0.0
C157 C 0.46182 0.49377 0.13174 0.0
C158 C 0.50459 0.60345 0.1325 0.0
C159 C 0.54193 0.5581 0.13298 0.0
H160 H 0.0788 0.02405 0.57432 0.0
H161 H 0.04955 0.08633 0.67457 0.0
H162 H 0.96947 0.02254 0.68103 0.0
H163 H 0.9094 0.94697 0.65887 0.0
H164 H 0.93336 0.8896 0.55742 0.0
H165 H 0.01471 0.9528 0.55082 0.0
C166 C 0.05457 0.02401 0.59746 0.0
C167 C 0.07027 0.05975 0.62394 0.0
C168 C 0.0084 0.98739 0.60098 0.0
C169 C 0.03818 0.05954 0.65369 0.0
C170 C -0.00731 0.0227 0.65755 0.0
C171 C 0.93308 0.94797 0.63552 0.0
C172 C 0.91687 0.91307 0.6089 0.0
C173 C 0.97798 0.9859 0.63156 0.0
C174 C 0.94614 0.9157 0.57832 0.0
C175 C 0.99223 0.95197 0.57454 0.0
H176 H 0.29823 0.20652 0.43221 0.0
H177 H 0.16683 0.33211 0.43069 0.0
H178 H 0.16873 0.33806 0.49166 0.0
H179 H 0.19947 0.29936 0.54542 0.0
H180 H 0.33011 0.1731 0.54709 0.0
H181 H 0.3372 0.17616 0.4861 0.0
C182 C 0.27065 0.23587 0.44519 0.0
C183 C 0.23186 0.2682 0.42692 0.0
C184 C 0.27147 0.2386 0.48031 0.0
C185 C 0.19688 0.30649 0.4441 0.0
C186 C 0.19773 0.30973 0.47901 0.0
C187 C 0.23009 0.27312 0.53246 0.0
C188 C 0.26362 0.23549 0.55073 0.0
C189 C 0.23355 0.2747 0.49738 0.0
C190 C 0.30361 0.20227 0.53363 0.0
C191 C 0.3075 0.2038 0.49872 0.0
H192 H 0.19087 0.68562 0.93613 0.0
H193 H 0.31605 0.81456 0.91958 0.0
H194 H 0.32232 0.83128 0.97985 0.0
H195 H 0.30024 0.80165 0.03741 0.0
H196 H 0.18124 0.66694 0.0536 0.0
H197 H 0.16411 0.66037 -0.00649 0.0
C198 C 0.21863 0.71815 0.9457 0.0
C199 C 0.25304 0.74872 0.92352 0.0
C200 C 0.22354 0.72609 0.98041 0.0
C201 C 0.28931 0.79033 0.93626 0.0
C202 C 0.29303 0.79981 0.9707 0.0
C203 C 0.26977 0.77167 0.02777 0.0
C204 C 0.24217 0.73473 0.0498 0.0
C205 C 0.26157 0.76682 -0.00694 0.0
C206 C 0.20324 0.69561 0.03703 0.0
C207 C 0.19347 0.69177 0.00269 0.0
H208 H 0.68709 0.78832 0.54425 0.0
H209 H 0.80051 0.64825 0.55594 0.0
H210 H 0.80537 0.6359 0.49527 0.0
H211 H 0.78708 0.67246 0.43899 0.0
H212 H 0.67961 0.81722 0.42749 0.0
H213 H 0.66249 0.82004 0.48779 0.0
C214 C 0.7118 0.75432 0.53352 0.0
C215 C 0.74359 0.71939 0.55448 0.0
C216 C 0.71614 0.74884 0.49857 0.0
C217 C 0.77585 0.6758 0.54024 0.0
C218 C 0.77885 0.66888 0.50556 0.0
C219 C 0.75912 0.70398 0.44963 0.0
C220 C 0.73505 0.74483 0.42885 0.0
C221 C 0.75071 0.70633 0.48445 0.0
C222 C 0.69908 0.78558 0.44301 0.0
C223 C 0.68926 0.78726 0.4775 0.0
H224 H 0.80198 0.28775 0.93814 0.0
H225 H 0.66558 0.17158 0.91928 0.0
H226 H 0.65399 0.15606 0.97932 0.0
H227 H 0.67619 0.18281 0.03738 0.0
H228 H 0.80865 0.30352 0.05593 0.0
H229 H 0.82859 0.30943 -0.00396 0.0
C230 C 0.77038 0.25832 0.94715 0.0
C231 C 0.7345 0.23112 0.92429 0.0
C232 C 0.76295 0.25068 0.98176 0.0
C233 C 0.69351 0.19334 0.93639 0.0
C234 C 0.68679 0.18448 0.97073 0.0
C235 C 0.71011 0.20955 0.02832 0.0
C236 C 0.74075 0.24282 0.05102 0.0
C237 C 0.72031 0.21398 -0.0063 0.0
C238 C 0.78425 0.27771 0.03891 0.0
C239 C 0.79562 0.28121 0.00466 0.0
H240 H 0.43835 0.22156 0.15708 0.0
H241 H 0.54847 0.14682 0.22982 0.0
H242 H 0.46943 0.14135 0.27001 0.0
H243 H 0.36966 0.16229 0.285 0.0
H244 H 0.26443 0.2486 0.21414 0.0
H245 H 0.34072 0.24529 0.1725 0.0
C246 C 0.4447 0.2032 0.18157 0.0
C247 C 0.49856 0.18339 0.19038 0.0
C248 C 0.40001 0.20287 0.20485 0.0
C249 C 0.50704 0.16154 0.22249 0.0
C250 C 0.46196 0.15867 0.2454 0.0
C251 C 0.36349 0.17992 0.26032 0.0
C252 C 0.31147 0.20523 0.25242 0.0
C253 C 0.40837 0.1798 0.23697 0.0
C254 C 0.30414 0.22893 0.22068 0.0
C255 C 0.34767 0.22695 0.1969 0.0
H256 H 0.23246 0.86839 0.7804 0.0
H257 H 0.36019 0.78164 0.7228 0.0
H258 H 0.37218 0.86416 0.68696 0.0
H259 H 0.34292 0.95954 0.67068 0.0
H260 H 0.21888 0.04756 0.73081 0.0
H261 H 0.20996 0.96653 0.76747 0.0
C262 C 0.26276 0.86758 0.75991 0.0
C263 C 0.29461 0.8188 0.75375 0.0
C264 C 0.27056 0.91561 0.74014 0.0
C265 C 0.33483 0.81864 0.72774 0.0
C266 C 0.34176 0.86581 0.70735 0.0
C267 C 0.31456 0.96134 0.69209 0.0
C268 C 0.28137 0.00961 0.69776 0.0
C269 C 0.30953 0.91442 0.71318 0.0
C270 C 0.24514 0.01122 0.72581 0.0
C271 C 0.23957 0.96463 0.74667 0.0
H272 H 0.64495 0.85064 0.25304 0.0
H273 H 0.63258 0.67175 0.26832 0.0
H274 H 0.54154 0.67006 0.24002 0.0
H275 H 0.46641 0.71843 0.20983 0.0
H276 H 0.48099 0.8956 0.19013 0.0
H277 H 0.5695 0.89925 0.22185 0.0
C278 C 0.62239 0.81128 0.25007 0.0
C279 C 0.64576 0.76137 0.26276 0.0
C280 C 0.57002 0.81046 0.23343 0.0
C281 C 0.61592 0.71074 0.25865 0.0
C282 C 0.56359 0.70974 0.24264 0.0
C283 C 0.48829 0.75813 0.21313 0.0
C284 C 0.46661 0.80696 0.1983 0.0
C285 C 0.54021 0.7593 0.23 0.0
C286 C 0.49646 0.85767 0.20177 0.0
C287 C 0.54725 0.85961 0.21965 0.0
H288 H 0.65312 0.14625 0.7396 0.0
H289 H 0.82765 0.12902 0.76895 0.0
H290 H 0.83317 0.03859 0.74027 0.0
H291 H 0.78913 0.96462 0.70619 0.0
H292 H 0.61731 0.98451 0.67287 0.0
H293 H 0.60959 0.07295 0.70417 0.0
C294 C 0.69241 0.1228 0.73959 0.0
C295 C 0.7399 0.14457 0.75641 0.0
C296 C 0.69552 0.07084 0.72271 0.0
C297 C 0.79052 0.11359 0.75607 0.0
C298 C 0.79366 0.06161 0.73983 0.0
C299 C 0.74967 0.98785 0.70633 0.0
C300 C 0.70345 0.96761 0.68784 0.0
C301 C 0.74642 0.03971 0.72318 0.0
C302 C 0.65318 -0.00102 0.6873 0.0
C303 C 0.64892 0.04968 0.705 0.0
H304 H 0.93605 0.23094 0.31904 0.0
H305 H 0.04407 0.32284 0.25144 0.0
H306 H 0.9652 0.33296 0.21213 0.0
H307 H 0.86559 0.31347 0.19672 0.0
H308 H 0.76231 0.21148 0.26177 0.0
H309 H 0.83904 0.20743 0.30254 0.0
C310 C 0.9421 0.2536 0.29579 0.0
C311 C -0.00468 0.27694 0.28826 0.0
C312 C 0.89741 0.2572 0.27295 0.0
C313 C 0.00326 0.30489 0.25775 0.0
C314 C 0.95823 0.31062 0.23536 0.0
C315 C 0.85998 0.29076 0.21997 0.0
C316 C 0.80832 0.26335 0.22656 0.0
C317 C 0.90513 0.28675 0.24265 0.0
C318 C 0.80171 0.23299 0.25632 0.0
C319 C 0.8455 0.2307 0.27959 0.0
H320 H 0.16424 0.37838 0.69319 0.0
H321 H 0.25538 0.27548 0.76302 0.0
H322 H 0.25414 0.35184 0.80413 0.0
H323 H 0.23124 0.44885 0.8192 0.0
H324 H 0.15152 0.55673 0.74729 0.0
H325 H 0.14361 0.47754 0.70792 0.0
C326 C 0.18339 0.37276 0.71754 0.0
C327 C 0.20953 0.32139 0.72529 0.0
C328 C 0.18443 0.41767 0.74055 0.0
C329 C 0.23512 0.31471 0.75659 0.0
C330 C 0.2343 0.35827 0.78007 0.0
C331 C 0.21123 0.45476 0.7951 0.0
C332 C 0.19088 0.50809 0.7863 0.0
C333 C 0.20951 0.41 0.77222 0.0
C334 C 0.16681 0.51579 0.75465 0.0
C335 C 0.16254 0.47063 0.73218 0.0
H336 H 0.14981 0.63596 0.23115 0.0
H337 H 0.12707 0.80904 0.20276 0.0
H338 H 0.03559 0.8111 0.23118 0.0
H339 H 0.96342 0.76539 0.2658 0.0
H340 H 0.98885 0.59561 0.29914 0.0
H341 H 0.07708 0.59007 0.2666 0.0
C342 C 0.12482 0.6741 0.23125 0.0
C343 C 0.14548 0.72232 0.21491 0.0
C344 C 0.07232 0.67533 0.24817 0.0
C345 C 0.11257 0.77145 0.21534 0.0
C346 C 0.05998 0.7726 0.23142 0.0
C347 C 0.98762 0.72672 0.26529 0.0
C348 C 0.96913 0.68054 0.28423 0.0
C349 C 0.03948 0.72491 0.24796 0.0
C350 C 0.00189 0.63138 0.28432 0.0
C351 C 0.05252 0.62842 0.26596 0.0
H352 H 0.76841 0.53017 0.82151 0.0
H353 H 0.84423 0.42165 0.74729 0.0
H354 H 0.8542 0.50154 0.70897 0.0
H355 H 0.83603 0.60156 0.69569 0.0
H356 H 0.74842 0.70536 0.76778 0.0
H357 H 0.74844 0.62822 0.80803 0.0
C358 C 0.78804 0.52417 0.79714 0.0
C359 C 0.80659 0.47035 0.78741 0.0
C360 C 0.79103 0.56949 0.77488 0.0
C361 C 0.83022 0.46281 0.7554 0.0
C362 C 0.83571 0.50843 0.73352 0.0
C363 C 0.81761 0.60727 0.72039 0.0
C364 C 0.79283 0.65913 0.72904 0.0
C365 C 0.81558 0.56185 0.74285 0.0
C366 C 0.76787 0.66585 0.76073 0.0
C367 C 0.76789 0.62179 0.78368 0.0
loop_
_geom_bond_atom_site_label_1
_geom_bond_atom_site_label_2
_geom_bond_distance
_geom_bond_site_symmetry_2
_ccdc_geom_bond_type
C0 O1 1.306 . S
C0 O3 1.160 . S
O1 C0 1.306 . S
O1 Cd2 2.228 . S
Cd2 O1 2.228 . S
Cd2 O6 2.273 . S
Cd2 O10 2.277 . S
O3 C0 1.160 . S
O3 Cd4 2.203 . S
Cd4 O3 2.203 . S
Cd4 O6 2.411 . S
Cd4 O7 2.333 . S
Cd4 O8 2.352 . S
Cd4 O12 2.277 . S
Cd4 O13 2.356 . S
C5 O10 1.209 . S
C5 O12 1.226 . S
O6 Cd2 2.273 . S
O6 Cd4 2.411 . S
O6 C9 1.320 . S
O7 Cd4 2.333 . S
O7 C9 1.214 . S
O8 Cd4 2.352 . S
O8 C11 1.258 . S
C9 O6 1.320 . S
C9 O7 1.214 . S
O10 Cd2 2.277 . S
O10 C5 1.209 . S
C11 O8 1.258 . S
C11 O13 1.282 . S
O12 Cd4 2.277 . S
O12 C5 1.226 . S
O13 Cd4 2.356 . S
O13 C11 1.282 . S
C14 O15 1.306 . S
C14 O17 1.160 . S
O15 C14 1.306 . S
O15 Cd16 2.228 . S
Cd16 O15 2.228 . S
Cd16 O20 2.273 . S
Cd16 O24 2.277 . S
O17 C14 1.160 . S
O17 Cd18 2.203 . S
Cd18 O17 2.203 . S
Cd18 O20 2.411 . S
Cd18 O21 2.333 . S
Cd18 O22 2.352 . S
Cd18 O26 2.277 . S
Cd18 O27 2.356 . S
C19 O24 1.209 . S
C19 O26 1.226 . S
O20 Cd16 2.273 . S
O20 Cd18 2.411 . S
O20 C23 1.320 . S
O21 Cd18 2.333 . S
O21 C23 1.214 . S
O22 Cd18 2.352 . S
O22 C25 1.258 . S
C23 O20 1.320 . S
C23 O21 1.214 . S
O24 Cd16 2.277 . S
O24 C19 1.209 . S
C25 O22 1.258 . S
C25 O27 1.282 . S
O26 Cd18 2.277 . S
O26 C19 1.226 . S
O27 Cd18 2.356 . S
O27 C25 1.282 . S
C28 O29 1.306 . S
C28 O31 1.160 . S
O29 C28 1.306 . S
O29 Cd30 2.228 . S
Cd30 O29 2.228 . S
Cd30 O34 2.273 . S
Cd30 O38 2.277 . S
O31 C28 1.160 . S
O31 Cd32 2.203 . S
Cd32 O31 2.203 . S
Cd32 O34 2.411 . S
Cd32 O35 2.333 . S
Cd32 O36 2.352 . S
Cd32 O40 2.277 . S
Cd32 O41 2.356 . S
C33 O38 1.209 . S
C33 O40 1.226 . S
O34 Cd30 2.273 . S
O34 Cd32 2.411 . S
O34 C37 1.320 . S
O35 Cd32 2.333 . S
O35 C37 1.214 . S
O36 Cd32 2.352 . S
O36 C39 1.258 . S
C37 O34 1.320 . S
C37 O35 1.214 . S
O38 Cd30 2.277 . S
O38 C33 1.209 . S
C39 O36 1.258 . S
C39 O41 1.282 . S
O40 Cd32 2.277 . S
O40 C33 1.226 . S
O41 Cd32 2.356 . S
O41 C39 1.282 . S
C42 O43 1.306 . S
C42 O45 1.160 . S
O43 C42 1.306 . S
O43 Cd44 2.228 . S
Cd44 O43 2.228 . S
Cd44 O48 2.273 . S
Cd44 O52 2.277 . S
O45 C42 1.160 . S
O45 Cd46 2.203 . S
Cd46 O45 2.203 . S
Cd46 O48 2.411 . S
Cd46 O49 2.333 . S
Cd46 O50 2.352 . S
Cd46 O54 2.277 . S
Cd46 O55 2.356 . S
C47 O52 1.209 . S
C47 O54 1.226 . S
O48 Cd44 2.273 . S
O48 Cd46 2.411 . S
O48 C51 1.320 . S
O49 Cd46 2.333 . S
O49 C51 1.214 . S
O50 Cd46 2.352 . S
O50 C53 1.258 . S
C51 O48 1.320 . S
C51 O49 1.214 . S
O52 Cd44 2.277 . S
O52 C47 1.209 . S
C53 O50 1.258 . S
C53 O55 1.282 . S
O54 Cd46 2.277 . S
O54 C47 1.226 . S
O55 Cd46 2.356 . S
O55 C53 1.282 . S
C56 O57 1.306 . S
C56 O59 1.160 . S
O57 C56 1.306 . S
O57 Cd58 2.228 . S
Cd58 O57 2.228 . S
Cd58 O62 2.273 . S
Cd58 O66 2.277 . S
O59 C56 1.160 . S
O59 Cd60 2.203 . S
Cd60 O59 2.203 . S
Cd60 O62 2.411 . S
Cd60 O63 2.333 . S
Cd60 O64 2.352 . S
Cd60 O68 2.277 . S
Cd60 O69 2.356 . S
C61 O66 1.209 . S
C61 O68 1.226 . S
O62 Cd58 2.273 . S
O62 Cd60 2.411 . S
O62 C65 1.320 . S
O63 Cd60 2.333 . S
O63 C65 1.214 . S
O64 Cd60 2.352 . S
O64 C67 1.258 . S
C65 O62 1.320 . S
C65 O63 1.214 . S
O66 Cd58 2.277 . S
O66 C61 1.209 . S
C67 O64 1.258 . S
C67 O69 1.282 . S
O68 Cd60 2.277 . S
O68 C61 1.226 . S
O69 Cd60 2.356 . S
O69 C67 1.282 . S
C70 O71 1.306 . S
C70 O73 1.160 . S
O71 C70 1.306 . S
O71 Cd72 2.228 . S
Cd72 O71 2.228 . S
Cd72 O76 2.273 . S
Cd72 O80 2.277 . S
O73 C70 1.160 . S
O73 Cd74 2.203 . S
Cd74 O73 2.203 . S
Cd74 O76 2.411 . S
Cd74 O77 2.333 . S
Cd74 O78 2.352 . S
Cd74 O82 2.277 . S
Cd74 O83 2.356 . S
C75 O80 1.209 . S
C75 O82 1.226 . S
O76 Cd72 2.273 . S
O76 Cd74 2.411 . S
O76 C79 1.320 . S
O77 Cd74 2.333 . S
O77 C79 1.214 . S
O78 Cd74 2.352 . S
O78 C81 1.258 . S
C79 O76 1.320 . S
C79 O77 1.214 . S
O80 Cd72 2.277 . S
O80 C75 1.209 . S
C81 O78 1.258 . S
C81 O83 1.282 . S
O82 Cd74 2.277 . S
O82 C75 1.226 . S
O83 Cd74 2.356 . S
O83 C81 1.282 . S
C84 O85 1.306 . S
C84 O87 1.160 . S
O85 C84 1.306 . S
O85 Cd86 2.228 . S
Cd86 O85 2.228 . S
Cd86 O90 2.273 . S
Cd86 O94 2.277 . S
O87 C84 1.160 . S
O87 Cd88 2.203 . S
Cd88 O87 2.203 . S
Cd88 O90 2.411 . S
Cd88 O91 2.333 . S
Cd88 O92 2.352 . S
Cd88 O96 2.277 . S
Cd88 O97 2.356 . S
C89 O94 1.209 . S
C89 O96 1.226 . S
O90 Cd86 2.273 . S
O90 Cd88 2.411 . S
O90 C93 1.320 . S
O91 Cd88 2.333 . S
O91 C93 1.214 . S
O92 Cd88 2.352 . S
O92 C95 1.258 . S
C93 O90 1.320 . S
C93 O91 1.214 . S
O94 Cd86 2.277 . S
O94 C89 1.209 . S
C95 O92 1.258 . S
C95 O97 1.282 . S
O96 Cd88 2.277 . S
O96 C89 1.226 . S
O97 Cd88 2.356 . S
O97 C95 1.282 . S
C98 O99 1.306 . S
C98 O101 1.160 . S
O99 C98 1.306 . S
O99 Cd100 2.228 . S
Cd100 O99 2.228 . S
Cd100 O104 2.273 . S
Cd100 O108 2.277 . S
O101 C98 1.160 . S
O101 Cd102 2.203 . S
Cd102 O101 2.203 . S
Cd102 O104 2.411 . S
Cd102 O105 2.333 . S
Cd102 O106 2.352 . S
Cd102 O110 2.277 . S
Cd102 O111 2.356 . S
C103 O108 1.209 . S
C103 O110 1.226 . S
O104 Cd100 2.273 . S
O104 Cd102 2.411 . S
O104 C107 1.320 . S
O105 Cd102 2.333 . S
O105 C107 1.214 . S
O106 Cd102 2.352 . S
O106 C109 1.258 . S
C107 O104 1.320 . S
C107 O105 1.214 . S
O108 Cd100 2.277 . S
O108 C103 1.209 . S
C109 O106 1.258 . S
C109 O111 1.282 . S
O110 Cd102 2.277 . S
O110 C103 1.226 . S
O111 Cd102 2.356 . S
O111 C109 1.282 . S
H112 C118 0.930 . S
H113 C121 0.930 . S
H114 C122 0.930 1_655 S
H115 C123 0.930 . S
H116 C126 0.930 . S
H117 C127 0.930 1_455 S
C118 H112 0.930 . S
C118 C119 1.355 . S
C118 C120 1.415 . S
C119 C118 1.355 . S
C119 C121 1.419 . S
C120 C118 1.415 . S
C120 C125 1.425 1_445 S
C120 C127 1.409 1_445 S
C121 H113 0.930 . S
C121 C119 1.419 . S
C121 C122 1.362 . S
C122 H114 0.930 1_455 S
C122 C121 1.362 . S
C122 C125 1.409 1_445 S
C123 H115 0.930 . S
C123 C124 1.355 . S
C123 C125 1.415 . S
C124 C123 1.355 . S
C124 C126 1.419 . S
C125 C120 1.425 1_665 S
C125 C122 1.409 1_665 S
C125 C123 1.415 . S
C126 H116 0.930 . S
C126 C124 1.419 . S
C126 C127 1.362 . S
C127 H117 0.930 1_655 S
C127 C120 1.409 1_665 S
C127 C126 1.362 . S
H128 C134 0.930 . S
H129 C137 0.930 . S
H130 C138 0.930 . S
H131 C139 0.930 . S
H132 C142 0.930 . S
H133 C143 0.930 . S
C134 H128 0.930 . S
C134 C135 1.355 . S
C134 C136 1.415 . S
C135 C134 1.355 . S
C135 C137 1.419 . S
C136 C134 1.415 . S
C136 C141 1.425 . S
C136 C143 1.409 . S
C137 H129 0.930 . S
C137 C135 1.419 . S
C137 C138 1.362 . S
C138 H130 0.930 . S
C138 C137 1.362 . S
C138 C141 1.409 . S
C139 H131 0.930 . S
C139 C140 1.355 . S
C139 C141 1.415 . S
C140 C139 1.355 . S
C140 C142 1.419 . S
C141 C136 1.425 . S
C141 C138 1.409 . S
C141 C139 1.415 . S
C142 H132 0.930 . S
C142 C140 1.419 . S
C142 C143 1.362 . S
C143 H133 0.930 . S
C143 C136 1.409 . S
C143 C142 1.362 . S
H144 C150 0.930 . S
H145 C153 0.930 . S
H146 C154 0.930 . S
H147 C155 0.930 . S
H148 C158 0.930 . S
H149 C159 0.930 . S
C150 H144 0.930 . S
C150 C151 1.355 . S
C150 C152 1.415 . S
C151 C150 1.355 . S
C151 C153 1.419 . S
C152 C150 1.415 . S
C152 C157 1.425 . S
C152 C159 1.409 . S
C153 H145 0.930 . S
C153 C151 1.419 . S
C153 C154 1.362 . S
C154 H146 0.930 . S
C154 C153 1.362 . S
C154 C157 1.409 . S
C155 H147 0.930 . S
C155 C156 1.355 . S
C155 C157 1.415 . S
C156 C155 1.355 . S
C156 C158 1.419 . S
C157 C152 1.425 . S
C157 C154 1.409 . S
C157 C155 1.415 . S
C158 H148 0.930 . S
C158 C156 1.419 . S
C158 C159 1.362 . S
C159 H149 0.930 . S
C159 C152 1.409 . S
C159 C158 1.362 . S
H160 C166 0.930 . S
H161 C169 0.930 . S
H162 C170 0.930 1_655 S
H163 C171 0.930 . S
H164 C174 0.930 . S
H165 C175 0.930 1_455 S
C166 H160 0.930 . S
C166 C167 1.355 . S
C166 C168 1.415 . S
C167 C166 1.355 . S
C167 C169 1.419 . S
C168 C166 1.415 . S
C168 C173 1.425 1_445 S
C168 C175 1.409 1_445 S
C169 H161 0.930 . S
C169 C167 1.419 . S
C169 C170 1.362 . S
C170 H162 0.930 1_455 S
C170 C169 1.362 . S
C170 C173 1.409 1_445 S
C171 H163 0.930 . S
C171 C172 1.355 . S
C171 C173 1.415 . S
C172 C171 1.355 . S
C172 C174 1.419 . S
C173 C168 1.425 1_665 S
C173 C170 1.409 1_665 S
C173 C171 1.415 . S
C174 H164 0.930 . S
C174 C172 1.419 . S
C174 C175 1.362 . S
C175 H165 0.930 1_655 S
C175 C168 1.409 1_665 S
C175 C174 1.362 . S
H176 C182 0.930 . S
H177 C185 0.930 . S
H178 C186 0.930 . S
H179 C187 0.930 . S
H180 C190 0.930 . S
H181 C191 0.930 . S
C182 H176 0.930 . S
C182 C183 1.355 . S
C182 C184 1.415 . S
C183 C182 1.355 . S
C183 C185 1.419 . S
C184 C182 1.415 . S
C184 C189 1.425 . S
C184 C191 1.409 . S
C185 H177 0.930 . S
C185 C183 1.419 . S
C185 C186 1.362 . S
C186 H178 0.930 . S
C186 C185 1.362 . S
C186 C189 1.409 . S
C187 H179 0.930 . S
C187 C188 1.355 . S
C187 C189 1.415 . S
C188 C187 1.355 . S
C188 C190 1.419 . S
C189 C184 1.425 . S
C189 C186 1.409 . S
C189 C187 1.415 . S
C190 H180 0.930 . S
C190 C188 1.419 . S
C190 C191 1.362 . S
C191 H181 0.930 . S
C191 C184 1.409 . S
C191 C190 1.362 . S
H192 C198 0.930 . S
H193 C201 0.930 . S
H194 C202 0.930 . S
H195 C203 0.930 . S
H196 C206 0.930 . S
H197 C207 0.930 . S
C198 H192 0.930 . S
C198 C199 1.355 . S
C198 C200 1.415 . S
C199 C198 1.355 . S
C199 C201 1.419 . S
C200 C198 1.415 . S
C200 C205 1.425 1_556 S
C200 C207 1.409 1_556 S
C201 H193 0.930 . S
C201 C199 1.419 . S
C201 C202 1.362 . S
C202 H194 0.930 . S
C202 C201 1.362 . S
C202 C205 1.409 1_556 S
C203 H195 0.930 . S
C203 C204 1.355 . S
C203 C205 1.415 . S
C204 C203 1.355 . S
C204 C206 1.419 . S
C205 C200 1.425 1_554 S
C205 C202 1.409 1_554 S
C205 C203 1.415 . S
C206 H196 0.930 . S
C206 C204 1.419 . S
C206 C207 1.362 . S
C207 H197 0.930 . S
C207 C200 1.409 1_554 S
C207 C206 1.362 . S
H208 C214 0.930 . S
H209 C217 0.930 . S
H210 C218 0.930 . S
H211 C219 0.930 . S
H212 C222 0.930 . S
H213 C223 0.930 . S
C214 H208 0.930 . S
C214 C215 1.355 . S
C214 C216 1.415 . S
C215 C214 1.355 . S
C215 C217 1.419 . S
C216 C214 1.415 . S
C216 C221 1.425 . S
C216 C223 1.409 . S
C217 H209 0.930 . S
C217 C215 1.419 . S
C217 C218 1.362 . S
C218 H210 0.930 . S
C218 C217 1.362 . S
C218 C221 1.409 . S
C219 H211 0.930 . S
C219 C220 1.355 . S
C219 C221 1.415 . S
C220 C219 1.355 . S
C220 C222 1.419 . S
C221 C216 1.425 . S
C221 C218 1.409 . S
C221 C219 1.415 . S
C222 H212 0.930 . S
C222 C220 1.419 . S
C222 C223 1.362 . S
C223 H213 0.930 . S
C223 C216 1.409 . S
C223 C222 1.362 . S
H224 C230 0.930 . S
H225 C233 0.930 . S
H226 C234 0.930 . S
H227 C235 0.930 . S
H228 C238 0.930 . S
H229 C239 0.930 . S
C230 H224 0.930 . S
C230 C231 1.355 . S
C230 C232 1.415 . S
C231 C230 1.355 . S
C231 C233 1.419 . S
C232 C230 1.415 . S
C232 C237 1.425 1_556 S
C232 C239 1.409 1_556 S
C233 H225 0.930 . S
C233 C231 1.419 . S
C233 C234 1.362 . S
C234 H226 0.930 . S
C234 C233 1.362 . S
C234 C237 1.409 1_556 S
C235 H227 0.930 . S
C235 C236 1.355 . S
C235 C237 1.415 . S
C236 C235 1.355 . S
C236 C238 1.419 . S
C237 C232 1.425 1_554 S
C237 C234 1.409 1_554 S
C237 C235 1.415 . S
C238 H228 0.930 . S
C238 C236 1.419 . S
C238 C239 1.362 . S
C239 H229 0.930 . S
C239 C232 1.409 1_554 S
C239 C238 1.362 . S
H240 C246 0.930 . S
H241 C249 0.930 . S
H242 C250 0.930 . S
H243 C251 0.930 . S
H244 C254 0.930 . S
H245 C255 0.930 . S
C246 H240 0.930 . S
C246 C247 1.355 . S
C246 C248 1.415 . S
C247 C246 1.355 . S
C247 C249 1.419 . S
C248 C246 1.415 . S
C248 C253 1.425 . S
C248 C255 1.409 . S
C249 H241 0.930 . S
C249 C247 1.419 . S
C249 C250 1.362 . S
C250 H242 0.930 . S
C250 C249 1.362 . S
C250 C253 1.409 . S
C251 H243 0.930 . S
C251 C252 1.355 . S
C251 C253 1.415 . S
C252 C251 1.355 . S
C252 C254 1.419 . S
C253 C248 1.425 . S
C253 C250 1.409 . S
C253 C251 1.415 . S
C254 H244 0.930 . S
C254 C252 1.419 . S
C254 C255 1.362 . S
C255 H245 0.930 . S
C255 C248 1.409 . S
C255 C254 1.362 . S
H256 C262 0.930 . S
H257 C265 0.930 . S
H258 C266 0.930 . S
H259 C267 0.930 . S
H260 C270 0.930 . S
H261 C271 0.930 . S
C262 H256 0.930 . S
C262 C263 1.355 . S
C262 C264 1.415 . S
C263 C262 1.355 . S
C263 C265 1.419 . S
C264 C262 1.415 . S
C264 C269 1.425 . S
C264 C271 1.409 . S
C265 H257 0.930 . S
C265 C263 1.419 . S
C265 C266 1.362 . S
C266 H258 0.930 . S
C266 C265 1.362 . S
C266 C269 1.409 . S
C267 H259 0.930 . S
C267 C268 1.355 . S
C267 C269 1.415 . S
C268 C267 1.355 . S
C268 C270 1.419 1_565 S
C269 C264 1.425 . S
C269 C266 1.409 . S
C269 C267 1.415 . S
C270 H260 0.930 . S
C270 C268 1.419 1_545 S
C270 C271 1.362 1_545 S
C271 H261 0.930 . S
C271 C264 1.409 . S
C271 C270 1.362 1_565 S
H272 C278 0.930 . S
H273 C281 0.930 . S
H274 C282 0.930 . S
H275 C283 0.930 . S
H276 C286 0.930 . S
H277 C287 0.930 . S
C278 H272 0.930 . S
C278 C279 1.355 . S
C278 C280 1.415 . S
C279 C278 1.355 . S
C279 C281 1.419 . S
C280 C278 1.415 . S
C280 C285 1.425 . S
C280 C287 1.409 . S
C281 H273 0.930 . S
C281 C279 1.419 . S
C281 C282 1.362 . S
C282 H274 0.930 . S
C282 C281 1.362 . S
C282 C285 1.409 . S
C283 H275 0.930 . S
C283 C284 1.355 . S
C283 C285 1.415 . S
C284 C283 1.355 . S
C284 C286 1.419 . S
C285 C280 1.425 . S
C285 C282 1.409 . S
C285 C283 1.415 . S
C286 H276 0.930 . S
C286 C284 1.419 . S
C286 C287 1.362 . S
C287 H277 0.930 . S
C287 C280 1.409 . S
C287 C286 1.362 . S
H288 C294 0.930 . S
H289 C297 0.930 . S
H290 C298 0.930 . S
H291 C299 0.930 . S
H292 C302 0.930 . S
H293 C303 0.930 . S
C294 H288 0.930 . S
C294 C295 1.355 . S
C294 C296 1.415 . S
C295 C294 1.355 . S
C295 C297 1.419 . S
C296 C294 1.415 . S
C296 C301 1.425 . S
C296 C303 1.409 . S
C297 H289 0.930 . S
C297 C295 1.419 . S
C297 C298 1.362 . S
C298 H290 0.930 . S
C298 C297 1.362 . S
C298 C301 1.409 . S
C299 H291 0.930 . S
C299 C300 1.355 . S
C299 C301 1.415 . S
C300 C299 1.355 . S
C300 C302 1.419 . S
C301 C296 1.425 . S
C301 C298 1.409 . S
C301 C299 1.415 . S
C302 H292 0.930 . S
C302 C300 1.419 . S
C302 C303 1.362 . S
C303 H293 0.930 . S
C303 C296 1.409 . S
C303 C302 1.362 . S
H304 C310 0.930 . S
H305 C313 0.930 1_455 S
H306 C314 0.930 . S
H307 C315 0.930 . S
H308 C318 0.930 . S
H309 C319 0.930 . S
C310 H304 0.930 . S
C310 C311 1.355 . S
C310 C312 1.415 . S
C311 C310 1.355 . S
C311 C313 1.419 . S
C312 C310 1.415 . S
C312 C317 1.425 . S
C312 C319 1.409 . S
C313 H305 0.930 1_655 S
C313 C311 1.419 . S
C313 C314 1.362 . S
C314 H306 0.930 . S
C314 C313 1.362 . S
C314 C317 1.409 . S
C315 H307 0.930 . S
C315 C316 1.355 . S
C315 C317 1.415 . S
C316 C315 1.355 . S
C316 C318 1.419 . S
C317 C312 1.425 . S
C317 C314 1.409 . S
C317 C315 1.415 . S
C318 H308 0.930 . S
C318 C316 1.419 . S
C318 C319 1.362 . S
C319 H309 0.930 . S
C319 C312 1.409 . S
C319 C318 1.362 . S
H320 C326 0.930 . S
H321 C329 0.930 . S
H322 C330 0.930 . S
H323 C331 0.930 . S
H324 C334 0.930 . S
H325 C335 0.930 . S
C326 H320 0.930 . S
C326 C327 1.355 . S
C326 C328 1.415 . S
C327 C326 1.355 . S
C327 C329 1.419 . S
C328 C326 1.415 . S
C328 C333 1.425 . S
C328 C335 1.409 . S
C329 H321 0.930 . S
C329 C327 1.419 . S
C329 C330 1.362 . S
C330 H322 0.930 . S
C330 C329 1.362 . S
C330 C333 1.409 . S
C331 H323 0.930 . S
C331 C332 1.355 . S
C331 C333 1.415 . S
C332 C331 1.355 . S
C332 C334 1.419 . S
C333 C328 1.425 . S
C333 C330 1.409 . S
C333 C331 1.415 . S
C334 H324 0.930 . S
C334 C332 1.419 . S
C334 C335 1.362 . S
C335 H325 0.930 . S
C335 C328 1.409 . S
C335 C334 1.362 . S
H336 C342 0.930 . S
H337 C345 0.930 . S
H338 C346 0.930 . S
H339 C347 0.930 1_655 S
H340 C350 0.930 . S
H341 C351 0.930 . S
C342 H336 0.930 . S
C342 C343 1.355 . S
C342 C344 1.415 . S
C343 C342 1.355 . S
C343 C345 1.419 . S
C344 C342 1.415 . S
C344 C349 1.425 . S
C344 C351 1.409 . S
C345 H337 0.930 . S
C345 C343 1.419 . S
C345 C346 1.362 . S
C346 H338 0.930 . S
C346 C345 1.362 . S
C346 C349 1.409 . S
C347 H339 0.930 1_455 S
C347 C348 1.355 . S
C347 C349 1.415 . S
C348 C347 1.355 . S
C348 C350 1.419 . S
C349 C344 1.425 . S
C349 C346 1.409 . S
C349 C347 1.415 . S
C350 H340 0.930 . S
C350 C348 1.419 . S
C350 C351 1.362 . S
C351 H341 0.930 . S
C351 C344 1.409 . S
C351 C350 1.362 . S
H352 C358 0.930 . S
H353 C361 0.930 . S
H354 C362 0.930 . S
H355 C363 0.930 . S
H356 C366 0.930 . S
H357 C367 0.930 . S
C358 H352 0.930 . S
C358 C359 1.355 . S
C358 C360 1.415 . S
C359 C358 1.355 . S
C359 C361 1.419 . S
C360 C358 1.415 . S
C360 C365 1.425 . S
C360 C367 1.409 . S
C361 H353 0.930 . S
C361 C359 1.419 . S
C361 C362 1.362 . S
C362 H354 0.930 . S
C362 C361 1.362 . S
C362 C365 1.409 . S
C363 H355 0.930 . S
C363 C364 1.355 . S
C363 C365 1.415 . S
C364 C363 1.355 . S
C364 C366 1.419 . S
C365 C360 1.425 . S
C365 C362 1.409 . S
C365 C363 1.415 . S
C366 H356 0.930 . S
C366 C364 1.419 . S
C366 C367 1.362 . S
C367 H357 0.930 . S
C367 C360 1.409 . S
C367 C366 1.362 . S
C119 C5 0.609 . S
C124 C33 0.599 . S
C135 C19 0.600 . S
C140 C47 0.592 . S
C151 C61 0.586 . S
C156 C89 0.591 . S
C167 C75 0.641 . S
C172 C103 0.650 . S
C183 C9 1.396 . S
C188 C79 1.422 . S
C199 C23 1.380 . S
C204 C93 1.392 . S
C215 C107 1.380 . S
C220 C37 1.392 . S
C231 C51 1.407 . S
C236 C65 1.384 . S
C247 C56 1.692 . S
C252 C11 1.733 . S
C263 C25 1.743 . S
C268 C70 1.705 1_565 S
C279 C39 1.748 . S
C284 C84 1.682 . S
C295 C53 1.770 . S
C300 C98 1.715 1_545 S
C311 C0 1.710 1_655 S
C316 C67 1.747 . S
C327 C81 1.771 . S
C332 C14 1.733 . S
C343 C95 1.739 . S
C348 C28 1.670 1_455 S
C359 C42 1.715 . S
C364 C109 1.751 . S
