# Generated by pormake.
# Topology umr, (4)-cn, num edge types: 1
# Building blocks:
#     Node 0, Type 0, BuildingBlock: QUQFOY_clean_sbu_3, # of connection points: 4
#     Node 1, Type 0, BuildingBlock: QUQFOY_clean_sbu_3, # of connection points: 4
#     Node 2, Type 0, BuildingBlock: QUQFOY_clean_sbu_3, # of connection points: 4
#     Node 3, Type 0, BuildingBlock: QUQFOY_clean_sbu_3, # of connection points: 4
#     Node 4, Type 0, BuildingBlock: QUQFOY_clean_sbu_3, # of connection points: 4
#     Node 5, Type 0, BuildingBlock: QUQFOY_clean_sbu_3, # of connection points: 4
#     Node 6, Type 0, BuildingBlock: QUQFOY_clean_sbu_3, # of connection points: 4
#     Node 7, Type 0, BuildingBlock: QUQFOY_clean_sbu_3, # of connection points: 4
#     Node 8, Type 0, BuildingBlock: QUQFOY_clean_sbu_3, # of connection points: 4
#     Node 9, Type 0, BuildingBlock: QUQFOY_clean_sbu_3, # of connection points: 4
#     Node 10, Type 0, BuildingBlock: QUQFOY_clean_sbu_3, # of connection points: 4
#     Node 11, Type 0, BuildingBlock: QUQFOY_clean_sbu_3, # of connection points: 4
#     Node 12, Type 0, BuildingBlock: QUQFOY_clean_sbu_3, # of connection points: 4
#     Node 13, Type 0, BuildingBlock: QUQFOY_clean_sbu_3, # of connection points: 4
#     Node 14, Type 0, BuildingBlock: QUQFOY_clean_sbu_3, # of connection points: 4
#     Node 15, Type 0, BuildingBlock: QUQFOY_clean_sbu_3, # of connection points: 4
#     Node 16, Type 0, BuildingBlock: QUQFOY_clean_sbu_3, # of connection points: 4
#     Node 17, Type 0, BuildingBlock: QUQFOY_clean_sbu_3, # of connection points: 4
#     Node 18, Type 0, BuildingBlock: QUQFOY_clean_sbu_3, # of connection points: 4
#     Node 19, Type 0, BuildingBlock: QUQFOY_clean_sbu_3, # of connection points: 4
#     Node 20, Type 0, BuildingBlock: QUQFOY_clean_sbu_3, # of connection points: 4
#     Node 21, Type 0, BuildingBlock: QUQFOY_clean_sbu_3, # of connection points: 4
#     Node 22, Type 0, BuildingBlock: QUQFOY_clean_sbu_3, # of connection points: 4
#     Node 23, Type 0, BuildingBlock: QUQFOY_clean_sbu_3, # of connection points: 4
#     Node 24, Type 0, BuildingBlock: QUQFOY_clean_sbu_3, # of connection points: 4
#     Node 25, Type 0, BuildingBlock: QUQFOY_clean_sbu_3, # of connection points: 4
#     Node 26, Type 0, BuildingBlock: QUQFOY_clean_sbu_3, # of connection points: 4
#     Node 27, Type 0, BuildingBlock: QUQFOY_clean_sbu_3, # of connection points: 4
#     Node 28, Type 0, BuildingBlock: QUQFOY_clean_sbu_3, # of connection points: 4
#     Node 29, Type 0, BuildingBlock: QUQFOY_clean_sbu_3, # of connection points: 4
#     Node 30, Type 0, BuildingBlock: QUQFOY_clean_sbu_3, # of connection points: 4
#     Node 31, Type 0, BuildingBlock: QUQFOY_clean_sbu_3, # of connection points: 4
#     Edge 32, Type (0, 0), BuildingBlock: TEMPAE_clean_linker_10, # of connection points: 2
#     Edge 33, Type (0, 0), BuildingBlock: TEMPAE_clean_linker_10, # of connection points: 2
#     Edge 34, Type (0, 0), BuildingBlock: TEMPAE_clean_linker_10, # of connection points: 2
#     Edge 35, Type (0, 0), BuildingBlock: TEMPAE_clean_linker_10, # of connection points: 2
#     Edge 36, Type (0, 0), BuildingBlock: TEMPAE_clean_linker_10, # of connection points: 2
#     Edge 37, Type (0, 0), BuildingBlock: TEMPAE_clean_linker_10, # of connection points: 2
#     Edge 38, Type (0, 0), BuildingBlock: TEMPAE_clean_linker_10, # of connection points: 2
#     Edge 39, Type (0, 0), BuildingBlock: TEMPAE_clean_linker_10, # of connection points: 2
#     Edge 40, Type (0, 0), BuildingBlock: TEMPAE_clean_linker_10, # of connection points: 2
#     Edge 41, Type (0, 0), BuildingBlock: TEMPAE_clean_linker_10, # of connection points: 2
#     Edge 42, Type (0, 0), BuildingBlock: TEMPAE_clean_linker_10, # of connection points: 2
#     Edge 43, Type (0, 0), BuildingBlock: TEMPAE_clean_linker_10, # of connection points: 2
#     Edge 44, Type (0, 0), BuildingBlock: TEMPAE_clean_linker_10, # of connection points: 2
#     Edge 45, Type (0, 0), BuildingBlock: TEMPAE_clean_linker_10, # of connection points: 2
#     Edge 46, Type (0, 0), BuildingBlock: TEMPAE_clean_linker_10, # of connection points: 2
#     Edge 47, Type (0, 0), BuildingBlock: TEMPAE_clean_linker_10, # of connection points: 2
#     Edge 48, Type (0, 0), BuildingBlock: TEMPAE_clean_linker_10, # of connection points: 2
#     Edge 49, Type (0, 0), BuildingBlock: TEMPAE_clean_linker_10, # of connection points: 2
#     Edge 50, Type (0, 0), BuildingBlock: TEMPAE_clean_linker_10, # of connection points: 2
#     Edge 51, Type (0, 0), BuildingBlock: TEMPAE_clean_linker_10, # of connection points: 2
#     Edge 52, Type (0, 0), BuildingBlock: TEMPAE_clean_linker_10, # of connection points: 2
#     Edge 53, Type (0, 0), BuildingBlock: TEMPAE_clean_linker_10, # of connection points: 2
#     Edge 54, Type (0, 0), BuildingBlock: TEMPAE_clean_linker_10, # of connection points: 2
#     Edge 55, Type (0, 0), BuildingBlock: TEMPAE_clean_linker_10, # of connection points: 2
#     Edge 56, Type (0, 0), BuildingBlock: TEMPAE_clean_linker_10, # of connection points: 2
#     Edge 57, Type (0, 0), BuildingBlock: TEMPAE_clean_linker_10, # of connection points: 2
#     Edge 58, Type (0, 0), BuildingBlock: TEMPAE_clean_linker_10, # of connection points: 2
#     Edge 59, Type (0, 0), BuildingBlock: TEMPAE_clean_linker_10, # of connection points: 2
#     Edge 60, Type (0, 0), BuildingBlock: TEMPAE_clean_linker_10, # of connection points: 2
#     Edge 61, Type (0, 0), BuildingBlock: TEMPAE_clean_linker_10, # of connection points: 2
#     Edge 62, Type (0, 0), BuildingBlock: TEMPAE_clean_linker_10, # of connection points: 2
#     Edge 63, Type (0, 0), BuildingBlock: TEMPAE_clean_linker_10, # of connection points: 2
#     Edge 64, Type (0, 0), BuildingBlock: TEMPAE_clean_linker_10, # of connection points: 2
#     Edge 65, Type (0, 0), BuildingBlock: TEMPAE_clean_linker_10, # of connection points: 2
#     Edge 66, Type (0, 0), BuildingBlock: TEMPAE_clean_linker_10, # of connection points: 2
#     Edge 67, Type (0, 0), BuildingBlock: TEMPAE_clean_linker_10, # of connection points: 2
#     Edge 68, Type (0, 0), BuildingBlock: TEMPAE_clean_linker_10, # of connection points: 2
#     Edge 69, Type (0, 0), BuildingBlock: TEMPAE_clean_linker_10, # of connection points: 2
#     Edge 70, Type (0, 0), BuildingBlock: TEMPAE_clean_linker_10, # of connection points: 2
#     Edge 71, Type (0, 0), BuildingBlock: TEMPAE_clean_linker_10, # of connection points: 2
#     Edge 72, Type (0, 0), BuildingBlock: TEMPAE_clean_linker_10, # of connection points: 2
#     Edge 73, Type (0, 0), BuildingBlock: TEMPAE_clean_linker_10, # of connection points: 2
#     Edge 74, Type (0, 0), BuildingBlock: TEMPAE_clean_linker_10, # of connection points: 2
#     Edge 75, Type (0, 0), BuildingBlock: TEMPAE_clean_linker_10, # of connection points: 2
#     Edge 76, Type (0, 0), BuildingBlock: TEMPAE_clean_linker_10, # of connection points: 2
#     Edge 77, Type (0, 0), BuildingBlock: TEMPAE_clean_linker_10, # of connection points: 2
#     Edge 78, Type (0, 0), BuildingBlock: TEMPAE_clean_linker_10, # of connection points: 2
#     Edge 79, Type (0, 0), BuildingBlock: TEMPAE_clean_linker_10, # of connection points: 2
#     Edge 80, Type (0, 0), BuildingBlock: TEMPAE_clean_linker_10, # of connection points: 2
#     Edge 81, Type (0, 0), BuildingBlock: TEMPAE_clean_linker_10, # of connection points: 2
#     Edge 82, Type (0, 0), BuildingBlock: TEMPAE_clean_linker_10, # of connection points: 2
#     Edge 83, Type (0, 0), BuildingBlock: TEMPAE_clean_linker_10, # of connection points: 2
#     Edge 84, Type (0, 0), BuildingBlock: TEMPAE_clean_linker_10, # of connection points: 2
#     Edge 85, Type (0, 0), BuildingBlock: TEMPAE_clean_linker_10, # of connection points: 2
#     Edge 86, Type (0, 0), BuildingBlock: TEMPAE_clean_linker_10, # of connection points: 2
#     Edge 87, Type (0, 0), BuildingBlock: TEMPAE_clean_linker_10, # of connection points: 2
#     Edge 88, Type (0, 0), BuildingBlock: TEMPAE_clean_linker_10, # of connection points: 2
#     Edge 89, Type (0, 0), BuildingBlock: TEMPAE_clean_linker_10, # of connection points: 2
#     Edge 90, Type (0, 0), BuildingBlock: TEMPAE_clean_linker_10, # of connection points: 2
#     Edge 91, Type (0, 0), BuildingBlock: TEMPAE_clean_linker_10, # of connection points: 2
#     Edge 92, Type (0, 0), BuildingBlock: TEMPAE_clean_linker_10, # of connection points: 2
#     Edge 93, Type (0, 0), BuildingBlock: TEMPAE_clean_linker_10, # of connection points: 2
#     Edge 94, Type (0, 0), BuildingBlock: TEMPAE_clean_linker_10, # of connection points: 2
#     Edge 95, Type (0, 0), BuildingBlock: TEMPAE_clean_linker_10, # of connection points: 2
# Relax obj value: 0.088
# Max RMSD: 0.108
# Mean RMSD: 0.108
data_MOF--net-umr--node1-QUQFOY_clean_sbu_3--edge1-TEMPAE_clean_linker_10
_symmetry_space_group_name_H-M    P1
_symmetry_Int_Tables_number       1
_symmetry_cell_setting            triclinic
loop_
_symmetry_equiv_pos_as_xyz
'x, y, z'
_cell_length_a     86.712906
_cell_length_b     86.72039
_cell_length_c     27.321611
_cell_angle_alpha  90.004399
_cell_angle_beta   90.019125
_cell_angle_gamma 89.971524
loop_
_atom_site_label
_atom_site_type_symbol
_atom_site_fract_x
_atom_site_fract_y
_atom_site_fract_z
_atom_type_partial_charge
C0 C 0.15218 0.25698 0.06841 0.0
O1 O 0.1562 0.2482 0.1033 0.0
Cd2 Cd 0.16897 0.25872 0.17213 0.0
O3 O 0.15326 0.2716 0.07239 0.0
Cd4 Cd 0.16024 0.29137 0.13413 0.0
C5 C 0.19597 0.2798 0.10759 0.0
O6 O 0.15058 0.27711 0.20226 0.0
O7 O 0.16699 0.29479 0.22112 0.0
O8 O 0.13773 0.30576 0.10779 0.0
C9 C 0.15674 0.28533 0.23501 0.0
O10 O 0.19312 0.26801 0.13391 0.0
C11 C 0.14387 0.31891 0.11382 0.0
O12 O 0.18579 0.29014 0.1013 0.0
O13 O 0.15787 0.31922 0.12734 0.0
C14 C 0.99103 0.89833 0.28541 0.0
O15 O 0.00011 0.90227 0.31961 0.0
Cd16 Cd 0.99087 0.9153 0.3897 0.0
O17 O 0.97647 0.89989 0.29003 0.0
Cd18 Cd 0.95761 0.90803 0.35308 0.0
C19 C 0.97057 0.94345 0.32812 0.0
O20 O 0.9719 0.89768 0.42024 0.0
O21 O 0.95503 0.91478 0.44027 0.0
O22 O 0.9415 0.88649 0.32893 0.0
C23 C 0.96417 0.90416 0.45355 0.0
O24 O 0.9823 0.94011 0.35415 0.0
C25 C 0.92886 0.89355 0.33604 0.0
O26 O 0.95996 0.93361 0.32118 0.0
O27 O 0.92965 0.90762 0.34855 0.0
C28 C 0.34093 0.73627 0.53408 0.0
O29 O 0.3369 0.74542 0.568 0.0
Cd30 Cd 0.32428 0.73638 0.63896 0.0
O31 O 0.33949 0.72171 0.539 0.0
Cd32 Cd 0.33144 0.70309 0.60305 0.0
C33 C 0.29577 0.71583 0.58009 0.0
O34 O 0.3425 0.71774 0.66809 0.0
O35 O 0.32575 0.70096 0.69138 0.0
O36 O 0.3528 0.68687 0.57776 0.0
C37 C 0.33656 0.71014 0.70265 0.0
O38 O 0.29928 0.72766 0.60541 0.0
C39 C 0.34592 0.67426 0.58668 0.0
O40 O 0.30559 0.70521 0.57285 0.0
O41 O 0.33198 0.67509 0.60054 0.0
C42 C 0.50362 0.09103 0.79251 0.0
O43 O 0.49454 0.08702 0.82662 0.0
Cd44 Cd 0.50386 0.07392 0.89651 0.0
O45 O 0.51818 0.08938 0.79697 0.0
Cd46 Cd 0.53707 0.08095 0.85963 0.0
C47 C 0.5239 0.04557 0.83511 0.0
O48 O 0.52289 0.09165 0.92637 0.0
O49 O 0.53973 0.07462 0.94727 0.0
O50 O 0.55315 0.10237 0.83426 0.0
C51 C 0.53066 0.08537 0.95996 0.0
O52 O 0.51221 0.04902 0.86116 0.0
C53 C 0.56581 0.09537 0.84164 0.0
O54 O 0.53457 0.05533 0.82801 0.0
O55 O 0.56506 0.08138 0.855 0.0
C56 C 0.15159 0.73747 0.43564 0.0
O57 O 0.15558 0.74643 0.4012 0.0
Cd58 Cd 0.16794 0.73677 0.33051 0.0
O59 O 0.15285 0.72287 0.43115 0.0
Cd60 Cd 0.16032 0.70372 0.36809 0.0
C61 C 0.19618 0.71595 0.39015 0.0
O62 O 0.14953 0.7182 0.30212 0.0
O63 O 0.16595 0.70092 0.28 0.0
O64 O 0.13858 0.68838 0.39528 0.0
C65 C 0.15537 0.71029 0.26806 0.0
O66 O 0.19279 0.72773 0.36444 0.0
C67 C 0.14503 0.67549 0.38707 0.0
O68 O 0.18624 0.70549 0.3979 0.0
O69 O 0.15892 0.67575 0.3725 0.0
C70 C 0.50565 0.90066 0.69203 0.0
O71 O 0.49646 0.9043 0.65778 0.0
Cd72 Cd 0.50529 0.91688 0.58645 0.0
O73 O 0.52018 0.90241 0.6872 0.0
Cd74 Cd 0.53877 0.91059 0.62327 0.0
C75 C 0.52504 0.94599 0.64505 0.0
O76 O 0.52449 0.89911 0.55811 0.0
O77 O 0.541 0.91614 0.53497 0.0
O78 O 0.55542 0.88967 0.64945 0.0
C79 C 0.53202 0.90517 0.52362 0.0
O80 O 0.51334 0.94215 0.61961 0.0
C81 C 0.56789 0.89688 0.64111 0.0
O82 O 0.53589 0.93645 0.65265 0.0
O83 O 0.56677 0.91078 0.62703 0.0
C84 C 0.33554 0.25586 0.93491 0.0
O85 O 0.33086 0.24677 0.90171 0.0
Cd86 Cd 0.31767 0.25624 0.83247 0.0
O87 O 0.3345 0.27046 0.92972 0.0
Cd88 Cd 0.32644 0.2892 0.86584 0.0
C89 C 0.29075 0.27792 0.8947 0.0
O90 O 0.33655 0.27388 0.80102 0.0
O91 O 0.32024 0.29109 0.77756 0.0
O92 O 0.34853 0.30465 0.88965 0.0
C93 C 0.33078 0.28158 0.76641 0.0
O94 O 0.2935 0.26581 0.86978 0.0
C95 C 0.34213 0.31749 0.88026 0.0
O96 O 0.30097 0.28828 0.89941 0.0
O97 O 0.32815 0.31716 0.86659 0.0
C98 C 0.98711 0.08839 0.17831 0.0
O99 O -0.00369 0.08475 0.1441 0.0
Cd100 Cd 0.98733 0.0715 0.07409 0.0
O101 O 0.97262 0.08627 0.17387 0.0
Cd102 Cd 0.95399 0.07736 0.11106 0.0
C103 C 0.96826 0.04239 0.13496 0.0
O104 O 0.96777 0.08876 0.04471 0.0
O105 O 0.95154 0.07123 0.02316 0.0
O106 O 0.93735 0.09822 0.13741 0.0
C107 C 0.96017 0.08239 0.01092 0.0
O108 O 0.97985 0.04629 0.10911 0.0
C109 C 0.92487 0.09101 0.12934 0.0
O110 O 0.95725 0.05177 0.14209 0.0
O111 O 0.92596 0.07711 0.11524 0.0
C112 C 0.83953 0.73498 0.93746 0.0
O113 O 0.83611 0.74417 0.903 0.0
Cd114 Cd 0.82383 0.73535 0.83114 0.0
O115 O 0.83773 0.72045 0.93259 0.0
Cd116 Cd 0.82976 0.70188 0.86828 0.0
C117 C 0.79436 0.71584 0.88868 0.0
O118 O 0.84167 0.71606 0.80374 0.0
O119 O 0.8246 0.6997 0.77969 0.0
O120 O 0.85051 0.68512 0.89521 0.0
C121 C 0.83574 0.70855 0.76896 0.0
O122 O 0.79838 0.72752 0.86342 0.0
C123 C 0.84327 0.67269 0.88656 0.0
O124 O 0.80379 0.70492 0.89655 0.0
O125 O 0.82942 0.67389 0.87204 0.0
C126 C 0.00344 0.09118 0.67817 0.0
O127 O 0.99466 0.08701 0.64345 0.0
Cd128 Cd 0.00497 0.07481 0.57328 0.0
O129 O 0.01807 0.09034 0.67396 0.0
Cd130 Cd 0.03767 0.08352 0.61165 0.0
C131 C 0.02638 0.0474 0.63464 0.0
O132 O 0.02316 0.09357 0.54455 0.0
O133 O 0.04106 0.0776 0.52408 0.0
O134 O 0.05233 0.10573 0.63904 0.0
C135 C 0.03139 0.08778 0.51115 0.0
O136 O 0.01456 0.05033 0.6085 0.0
C137 C 0.06541 0.09948 0.63229 0.0
O138 O 0.03653 0.05767 0.64215 0.0
O139 O 0.06553 0.08556 0.61801 0.0
C140 C 0.64662 0.25315 0.43024 0.0
O141 O 0.6504 0.24397 0.39612 0.0
Cd142 Cd 0.66399 0.25294 0.32675 0.0
O143 O 0.64863 0.26766 0.42575 0.0
Cd144 Cd 0.65748 0.2864 0.36335 0.0
C145 C 0.69243 0.27249 0.38972 0.0
O146 O 0.64705 0.27244 0.29562 0.0
O147 O 0.66461 0.28891 0.27645 0.0
O148 O 0.63613 0.30278 0.38731 0.0
C149 C 0.65385 0.28002 0.26264 0.0
O150 O 0.68884 0.26087 0.36351 0.0
C151 C 0.64334 0.31533 0.38047 0.0
O152 O 0.68288 0.28339 0.39636 0.0
O153 O 0.65741 0.31439 0.36808 0.0
C154 C 0.48726 0.89985 0.19275 0.0
O155 O 0.49647 0.90391 0.15907 0.0
Cd156 Cd 0.48765 0.9171 0.08884 0.0
O157 O 0.47272 0.90156 0.18785 0.0
Cd158 Cd 0.45422 0.91025 0.12428 0.0
C159 C 0.46751 0.94556 0.14935 0.0
O160 O 0.46872 0.8994 0.05854 0.0
O161 O 0.45214 0.9165 0.03634 0.0
O162 O 0.43771 0.88901 0.14846 0.0
C163 C 0.46121 0.90567 0.02436 0.0
O164 O 0.47929 0.94204 0.1238 0.0
C165 C 0.42519 0.89614 0.14011 0.0
O166 O 0.45676 0.93585 0.15601 0.0
O167 O 0.4262 0.91014 0.12698 0.0
C168 C 0.83633 0.24987 0.53328 0.0
O169 O 0.83238 0.24086 0.56763 0.0
Cd170 Cd 0.82037 0.25043 0.63904 0.0
O171 O 0.83511 0.26446 0.53798 0.0
Cd172 Cd 0.82765 0.28344 0.60164 0.0
C173 C 0.79171 0.27105 0.58135 0.0
O174 O 0.83911 0.26891 0.6663 0.0
O175 O 0.82285 0.28609 0.69035 0.0
O176 O 0.84894 0.29919 0.57305 0.0
C177 C 0.83365 0.27682 0.70098 0.0
O178 O 0.79523 0.25923 0.60671 0.0
C179 C 0.84233 0.31195 0.58201 0.0
O180 O 0.8016 0.28153 0.57339 0.0
O181 O 0.82857 0.31141 0.59769 0.0
C182 C 0.48683 0.09008 0.29322 0.0
O183 O 0.49587 0.0864 0.32786 0.0
Cd184 Cd 0.48642 0.07398 0.39878 0.0
O185 O 0.47227 0.0885 0.29761 0.0
Cd186 Cd 0.45324 0.08072 0.36058 0.0
C187 C 0.46646 0.04514 0.33938 0.0
O188 O 0.46731 0.09195 0.4267 0.0
O189 O 0.45043 0.07511 0.44862 0.0
O190 O 0.43731 0.102 0.33308 0.0
C191 C 0.45948 0.08595 0.46064 0.0
O192 O 0.47812 0.04883 0.36524 0.0
C193 C 0.4246 0.09516 0.34089 0.0
O194 O 0.45577 0.05481 0.33133 0.0
O195 O 0.42526 0.08127 0.35539 0.0
C196 C 0.64985 0.73902 0.0448 0.0
O197 O 0.65419 0.74823 0.07815 0.0
Cd198 Cd 0.66809 0.73927 0.14688 0.0
O199 O 0.65157 0.72449 0.0496 0.0
Cd200 Cd 0.66064 0.7059 0.11229 0.0
C201 C 0.69573 0.71891 0.08324 0.0
O202 O 0.65069 0.72043 0.17942 0.0
O203 O 0.66795 0.70371 0.19934 0.0
O204 O 0.63901 0.68968 0.08983 0.0
C205 C 0.65736 0.71286 0.21273 0.0
O206 O 0.69259 0.73072 0.10917 0.0
C207 C 0.64608 0.67706 0.09724 0.0
O208 O 0.68589 0.70823 0.07767 0.0
O209 O 0.66018 0.67789 0.10931 0.0
C210 C 0.00838 0.90375 0.78677 0.0
O211 O -0.00079 0.90776 0.82067 0.0
Cd212 Cd 0.00842 0.92059 0.89104 0.0
O213 O 0.02293 0.90535 0.79158 0.0
Cd214 Cd 0.04165 0.91365 0.85504 0.0
C215 C 0.02863 0.94912 0.83112 0.0
O216 O 0.02716 0.90237 0.91988 0.0
O217 O 0.04387 0.91914 0.94358 0.0
O218 O 0.05768 0.89234 0.82842 0.0
C219 C 0.03483 0.90818 0.95449 0.0
O220 O 0.01682 0.94554 0.85641 0.0
C221 C 0.07037 0.89904 0.83773 0.0
O222 O 0.03939 0.93943 0.82438 0.0
O223 O 0.06968 0.91289 0.85251 0.0
C224 C 0.65487 0.75687 0.54717 0.0
O225 O 0.65844 0.74777 0.58174 0.0
Cd226 Cd 0.67037 0.75705 0.65364 0.0
O227 O 0.65632 0.77143 0.55201 0.0
Cd228 Cd 0.66369 0.79028 0.61623 0.0
C229 C 0.69943 0.77728 0.59644 0.0
O230 O 0.65194 0.77586 0.68051 0.0
O231 O 0.66849 0.79267 0.70498 0.0
O232 O 0.64256 0.8063 0.58798 0.0
C233 C 0.65753 0.78357 0.71539 0.0
O234 O 0.69564 0.7655 0.62156 0.0
C235 C 0.64929 0.81898 0.59711 0.0
O236 O 0.68977 0.78799 0.58848 0.0
O237 O 0.66307 0.81828 0.61255 0.0
C238 C 0.48598 0.39973 0.7874 0.0
O239 O 0.49507 0.40337 0.82194 0.0
Cd240 Cd 0.48586 0.41618 0.89251 0.0
O241 O 0.47144 0.40154 0.79178 0.0
Cd242 Cd 0.45253 0.40974 0.8546 0.0
C243 C 0.46617 0.44508 0.83227 0.0
O244 O 0.46648 0.39872 0.92142 0.0
O245 O 0.4498 0.41592 0.94222 0.0
O246 O 0.43633 0.38848 0.82851 0.0
C247 C 0.45877 0.40508 0.95499 0.0
O248 O 0.47778 0.44132 0.85829 0.0
C249 C 0.42372 0.39557 0.83574 0.0
O250 O 0.45538 0.43551 0.82439 0.0
O251 O 0.42456 0.40954 0.84925 0.0
C252 C 0.84257 0.23281 0.03138 0.0
O253 O 0.83883 0.242 0.06553 0.0
Cd254 Cd 0.82523 0.23307 0.13495 0.0
O255 O 0.84052 0.21831 0.03586 0.0
Cd256 Cd 0.83166 0.19959 0.09831 0.0
C257 C 0.79674 0.21359 0.07205 0.0
O258 O 0.84212 0.21352 0.16605 0.0
O259 O 0.82451 0.1971 0.1852 0.0
O260 O 0.85298 0.18317 0.07443 0.0
C261 C 0.83529 0.20596 0.19902 0.0
O262 O 0.80037 0.2252 0.09824 0.0
C263 C 0.84574 0.17062 0.08126 0.0
O264 O 0.80626 0.20266 0.06538 0.0
O265 O 0.83167 0.17159 0.09358 0.0
C266 C 0.00095 0.59426 0.28552 0.0
O267 O 0.99166 0.58981 0.31848 0.0
Cd268 Cd 0.00045 0.57535 0.38621 0.0
O269 O 0.01547 0.59251 0.29066 0.0
Cd270 Cd 0.03393 0.58329 0.35358 0.0
C271 C 0.02127 0.54845 0.32049 0.0
O272 O 0.01913 0.59237 0.42139 0.0
O273 O 0.03579 0.57487 0.43961 0.0
O274 O 0.05003 0.60532 0.33421 0.0
C275 C 0.02654 0.58524 0.45409 0.0
O276 O 0.00935 0.55132 0.34626 0.0
C277 C 0.06268 0.59826 0.34121 0.0
O278 O 0.03195 0.55837 0.31629 0.0
O279 O 0.06193 0.58402 0.35165 0.0
C280 C 0.65278 0.23615 0.92838 0.0
O281 O 0.65671 0.24518 0.89404 0.0
Cd282 Cd 0.66877 0.23565 0.82267 0.0
O283 O 0.65404 0.22156 0.92367 0.0
Cd284 Cd 0.66156 0.20261 0.86 0.0
C285 C 0.69746 0.21509 0.88048 0.0
O286 O 0.6501 0.21711 0.79533 0.0
O287 O 0.66642 0.19999 0.77131 0.0
O288 O 0.64028 0.18682 0.88831 0.0
C289 C 0.65559 0.20922 0.76066 0.0
O290 O 0.69392 0.2269 0.85512 0.0
C291 C 0.64692 0.17407 0.87946 0.0
O292 O 0.68759 0.20458 0.88838 0.0
O293 O 0.6607 0.17463 0.86399 0.0
C294 C 0.0011 0.4076 0.1689 0.0
O295 O 0.99219 0.41127 0.13393 0.0
Cd296 Cd 0.00228 0.42257 0.06206 0.0
O297 O 0.01571 0.4086 0.16435 0.0
Cd298 Cd 0.03508 0.41506 0.10079 0.0
C299 C 0.02315 0.45127 0.11883 0.0
O300 O 0.02057 0.40333 0.03664 0.0
O301 O 0.0381 0.41908 0.01179 0.0
O302 O 0.05006 0.39364 0.13251 0.0
C303 C 0.02869 0.40834 0.0018 0.0
O304 O 0.0113 0.44771 0.09369 0.0
C305 C 0.06306 0.39977 0.12368 0.0
O306 O 0.03358 0.44134 0.12719 0.0
O307 O 0.06302 0.41333 0.10626 0.0
C308 C 0.84306 0.75321 0.43922 0.0
O309 O 0.83853 0.74407 0.40591 0.0
Cd310 Cd 0.82494 0.75328 0.33696 0.0
O311 O 0.84166 0.76778 0.43432 0.0
Cd312 Cd 0.83305 0.78649 0.3713 0.0
C313 C 0.79766 0.77431 0.40002 0.0
O314 O 0.8429 0.77164 0.30479 0.0
O315 O 0.82605 0.78866 0.28393 0.0
O316 O 0.85499 0.80226 0.39409 0.0
C317 C 0.83653 0.7793 0.27111 0.0
O318 O 0.80061 0.7624 0.37433 0.0
C319 C 0.84825 0.81501 0.38593 0.0
O320 O 0.80771 0.7848 0.40554 0.0
O321 O 0.83417 0.81447 0.37341 0.0
C322 C 0.48791 0.59053 0.68986 0.0
O323 O 0.49701 0.58649 0.65583 0.0
Cd324 Cd 0.48783 0.57369 0.58528 0.0
O325 O 0.47334 0.589 0.68521 0.0
Cd326 Cd 0.45463 0.58072 0.62175 0.0
C327 C 0.46759 0.54515 0.64489 0.0
O328 O 0.46899 0.59169 0.55585 0.0
O329 O 0.45224 0.57474 0.53373 0.0
O330 O 0.43837 0.60208 0.64686 0.0
C331 C 0.46128 0.58559 0.52179 0.0
O332 O 0.47933 0.54866 0.61918 0.0
C333 C 0.42577 0.59508 0.63864 0.0
O334 O 0.45697 0.55495 0.65234 0.0
O335 O 0.42663 0.5811 0.62525 0.0
C336 C 0.33902 0.23705 0.43521 0.0
O337 O 0.33498 0.24619 0.40128 0.0
Cd338 Cd 0.32174 0.23689 0.33181 0.0
O339 O 0.33757 0.22249 0.43026 0.0
Cd340 Cd 0.32961 0.20367 0.36662 0.0
C341 C 0.29425 0.21605 0.39475 0.0
O342 O 0.33977 0.21842 0.30042 0.0
O343 O 0.32282 0.20156 0.27912 0.0
O344 O 0.35148 0.1879 0.39026 0.0
C345 C 0.33343 0.21081 0.26658 0.0
O346 O 0.29737 0.22799 0.36938 0.0
C347 C 0.34475 0.17515 0.38218 0.0
O348 O 0.30416 0.20541 0.39999 0.0
O349 O 0.3307 0.17569 0.36926 0.0
C350 C 0.50521 0.59183 0.18941 0.0
O351 O 0.49614 0.58818 0.15487 0.0
Cd352 Cd 0.50543 0.57549 0.0842 0.0
O353 O 0.51976 0.59011 0.18498 0.0
Cd354 Cd 0.53874 0.58209 0.12214 0.0
C355 C 0.52531 0.54667 0.14425 0.0
O356 O 0.52467 0.59318 0.05575 0.0
O357 O 0.54149 0.5762 0.03429 0.0
O358 O 0.55474 0.60335 0.1492 0.0
C359 C 0.53242 0.587 0.02194 0.0
O360 O 0.51365 0.5504 0.11839 0.0
C361 C 0.56742 0.59645 0.14151 0.0
O362 O 0.53607 0.55628 0.15203 0.0
O363 O 0.56673 0.58254 0.12722 0.0
C364 C 0.15101 0.75498 0.93634 0.0
O365 O 0.15475 0.74583 0.9021 0.0
Cd366 Cd 0.16769 0.75477 0.8315 0.0
O367 O 0.15284 0.76951 0.9318 0.0
Cd368 Cd 0.16136 0.78814 0.86848 0.0
C369 C 0.19664 0.77436 0.89143 0.0
O370 O 0.15024 0.77411 0.80206 0.0
O371 O 0.16758 0.79055 0.78072 0.0
O372 O 0.14032 0.80481 0.89351 0.0
C373 C 0.15662 0.78169 0.76827 0.0
O374 O 0.1929 0.76273 0.86551 0.0
C375 C 0.14764 0.81727 0.88598 0.0
O376 O 0.18706 0.78517 0.89905 0.0
O377 O 0.16163 0.81612 0.87289 0.0
C378 C 0.98463 0.39731 0.67285 0.0
O379 O 0.99369 0.40177 0.63926 0.0
Cd380 Cd 0.98409 0.41594 0.57184 0.0
O381 O 0.97007 0.39881 0.66829 0.0
Cd382 Cd 0.95104 0.4074 0.60626 0.0
C383 C 0.96307 0.44249 0.63839 0.0
O384 O 0.96552 0.39866 0.53717 0.0
O385 O 0.9484 0.4159 0.52061 0.0
O386 O 0.93577 0.3849 0.62676 0.0
C387 C 0.9577 0.40571 0.50522 0.0
O388 O 0.97491 0.43982 0.61206 0.0
C389 C 0.92286 0.39157 0.62071 0.0
O390 O 0.95261 0.43237 0.64326 0.0
O391 O 0.92309 0.40582 0.6102 0.0
C392 C 0.34239 0.75488 0.0338 0.0
O393 O 0.33863 0.74565 0.0678 0.0
Cd394 Cd 0.32564 0.75439 0.13851 0.0
O395 O 0.34054 0.76939 0.03865 0.0
Cd396 Cd 0.33201 0.78791 0.10232 0.0
C397 C 0.29675 0.77422 0.07881 0.0
O398 O 0.34312 0.77361 0.16814 0.0
O399 O 0.32589 0.79007 0.19023 0.0
O400 O 0.3531 0.80448 0.07736 0.0
C401 C 0.33679 0.78109 0.20227 0.0
O402 O 0.30051 0.76251 0.10435 0.0
C403 C 0.34593 0.81698 0.08564 0.0
O404 O 0.3063 0.78507 0.07159 0.0
O405 O 0.33196 0.81593 0.09907 0.0
C406 C 0.98227 0.58368 0.78923 0.0
O407 O 0.9914 0.57988 0.82346 0.0
Cd408 Cd 0.98216 0.56837 0.89595 0.0
O409 O 0.96768 0.58259 0.79456 0.0
Cd410 Cd 0.94903 0.57562 0.85991 0.0
C411 C 0.96117 0.53954 0.84055 0.0
O412 O 0.96403 0.58754 0.92246 0.0
O413 O 0.94707 0.57151 0.94929 0.0
O414 O 0.93317 0.59688 0.83146 0.0
C415 C 0.95635 0.58245 0.95817 0.0
O416 O 0.97315 0.54317 0.86495 0.0
C417 C 0.92043 0.59043 0.84186 0.0
O418 O 0.95062 0.5494 0.83294 0.0
O419 O 0.92101 0.57673 0.85801 0.0
C420 C 0.15538 0.24116 0.56844 0.0
O421 O 0.15991 0.24996 0.60265 0.0
Cd422 Cd 0.17276 0.23942 0.67124 0.0
O423 O 0.15623 0.22654 0.5727 0.0
Cd424 Cd 0.16353 0.20698 0.63484 0.0
C425 C 0.1994 0.21782 0.60737 0.0
O426 O 0.15379 0.22166 0.70187 0.0
O427 O 0.16988 0.20386 0.72248 0.0
O428 O 0.14101 0.19261 0.60846 0.0
C429 C 0.15956 0.21341 0.73524 0.0
O430 O 0.19681 0.22976 0.63329 0.0
C431 C 0.147 0.17945 0.6159 0.0
O432 O 0.18903 0.20766 0.60166 0.0
O433 O 0.16092 0.17912 0.63013 0.0
C434 C 0.50302 0.40186 0.28776 0.0
O435 O 0.49399 0.40589 0.322 0.0
Cd436 Cd 0.50347 0.41846 0.3926 0.0
O437 O 0.5176 0.40326 0.2923 0.0
Cd438 Cd 0.53656 0.41119 0.35545 0.0
C439 C 0.52388 0.44688 0.33303 0.0
O440 O 0.5222 0.4002 0.42129 0.0
O441 O 0.53923 0.41684 0.4436 0.0
O442 O 0.55242 0.38976 0.32868 0.0
C443 C 0.53004 0.4061 0.45539 0.0
O444 O 0.51212 0.44344 0.35875 0.0
C445 C 0.56515 0.39651 0.3369 0.0
O446 O 0.53443 0.43702 0.32544 0.0
O447 O 0.56454 0.41041 0.3513 0.0
C448 C 0.27547 0.28978 0.96221 0.0
C449 C 0.27632 0.27922 0.92333 0.0
C450 C 0.26264 0.29019 -0.0067 0.0
C451 C 0.25021 0.27999 0.98481 0.0
C452 C 0.25077 0.26959 0.94485 0.0
C453 C 0.2639 0.26924 0.91478 0.0
C454 C 0.26254 0.30131 0.03587 0.0
C455 C 0.23757 0.25875 0.93419 0.0
C456 C 0.22279 0.27068 0.0891 0.0
C457 C 0.21045 0.28064 0.07907 0.0
C458 C 0.23593 0.27049 0.05908 0.0
C459 C 0.23659 0.2803 0.01768 0.0
C460 C 0.22426 0.2905 0.00773 0.0
C461 C 0.21141 0.29065 0.03877 0.0
C462 C 0.24903 0.25968 0.07131 0.0
C463 C 0.22448 0.30101 0.96363 0.0
H464 H 0.28508 0.29744 0.96944 0.0
H465 H 0.26449 0.26106 0.88482 0.0
H466 H 0.25243 0.30911 0.03323 0.0
H467 H 0.26145 0.29484 0.07075 0.0
H468 H 0.27316 0.30845 0.03747 0.0
H469 H 0.23959 0.25174 0.90076 0.0
H470 H 0.23582 0.25084 0.9656 0.0
H471 H 0.22673 0.26539 0.92938 0.0
H472 H 0.22212 0.26293 0.12015 0.0
H473 H 0.20187 0.29829 0.03041 0.0
H474 H 0.25994 0.26626 0.0751 0.0
H475 H 0.25068 0.25129 0.0411 0.0
H476 H 0.24695 0.25319 0.10574 0.0
H477 H 0.23467 0.30871 0.96513 0.0
H478 H 0.21393 0.30824 0.96104 0.0
H479 H 0.22548 0.29404 0.9297 0.0
C480 C 0.95981 0.95992 0.26163 0.0
C481 C 0.96987 0.9583 0.30157 0.0
C482 C 0.95968 0.97338 0.23337 0.0
C483 C 0.96966 0.98565 0.24581 0.0
C484 C 0.97968 0.98423 0.28653 0.0
C485 C 0.97976 0.97049 0.31374 0.0
C486 C 0.94896 0.9744 0.18986 0.0
C487 C 0.99028 -0.00277 0.30133 0.0
C488 C 0.9787 0.01578 0.14906 0.0
C489 C 0.96821 0.02748 0.16122 0.0
C490 C 0.97927 0.00203 0.17617 0.0
C491 C 0.9693 0.0001 0.21677 0.0
C492 C 0.9587 0.01186 0.22914 0.0
C493 C 0.95819 0.02533 0.20098 0.0
C494 C 0.99053 0.98959 0.16143 0.0
C495 C 0.948 0.01028 0.27252 0.0
H496 H 0.95224 0.95049 0.25159 0.0
H497 H 0.98756 0.9693 0.34452 0.0
H498 H 0.94081 0.98414 0.19474 0.0
H499 H 0.95569 0.97673 0.15612 0.0
H500 H 0.9422 0.96367 0.18441 0.0
H501 H -0.00276 0.99435 0.33425 0.0
H502 H -0.00176 2e-05 0.27082 0.0
H503 H 0.98344 0.00776 0.30909 0.0
H504 H 0.98647 0.01738 0.11841 0.0
H505 H 0.95015 0.03438 0.211 0.0
H506 H 0.98424 0.97871 0.15369 0.0
H507 H -0.00138 0.98721 0.19197 0.0
H508 H -0.00267 0.9928 0.12853 0.0
H509 H 0.94038 0.00014 0.26756 0.0
H510 H 0.94068 0.02066 0.27787 0.0
H511 H 0.95481 0.00832 0.30634 0.0
C512 C 0.22332 0.72504 0.40306 0.0
C513 C 0.2112 0.7151 0.41567 0.0
C514 C 0.23715 0.72504 0.42979 0.0
C515 C 0.23876 0.71505 0.47049 0.0
C516 C 0.22663 0.70492 0.48315 0.0
C517 C 0.21306 0.70498 0.45534 0.0
C518 C 0.24999 0.73578 0.41473 0.0
C519 C 0.22786 0.69423 0.52663 0.0
C520 C 0.2788 0.70478 0.5153 0.0
C521 C 0.28075 0.71506 0.55451 0.0
C522 C 0.26524 0.70473 0.48749 0.0
C523 C 0.2532 0.71504 0.49967 0.0
C524 C 0.25491 0.72521 0.53989 0.0
C525 C 0.26874 0.72519 0.56663 0.0
C526 C 0.2639 0.69384 0.44453 0.0
C527 C 0.24217 0.73616 0.55442 0.0
H528 H 0.22196 0.73288 0.37245 0.0
H529 H 0.2037 0.69736 0.46568 0.0
H530 H 0.25257 0.74394 0.44491 0.0
H531 H 0.26067 0.7291 0.40755 0.0
H532 H 0.24707 0.74252 0.38142 0.0
H533 H 0.21731 0.68715 0.5318 0.0
H534 H 0.23785 0.68637 0.52203 0.0
H535 H 0.2299 0.70102 0.56043 0.0
H536 H 0.28808 0.697 0.50534 0.0
H537 H 0.27017 0.73315 0.59688 0.0
H538 H 0.26191 0.7005 0.41041 0.0
H539 H 0.25384 0.68611 0.44952 0.0
H540 H 0.27439 0.68664 0.43968 0.0
H541 H 0.23966 0.7442 0.52385 0.0
H542 H 0.24516 0.74304 0.58739 0.0
H543 H 0.23143 0.72962 0.56195 0.0
C544 C 0.51458 0.01854 0.82138 0.0
C545 C 0.52449 0.03068 0.80879 0.0
C546 C 0.51456 0.00474 0.79445 0.0
C547 C 0.52449 0.0032 0.75358 0.0
C548 C 0.53448 0.01542 0.7407 0.0
C549 C 0.53446 0.02894 0.76869 0.0
C550 C 0.50394 0.99182 0.80973 0.0
C551 C 0.5451 0.01426 0.697 0.0
C552 C 0.53558 0.96329 0.70976 0.0
C553 C 0.5254 0.96105 0.67044 0.0
C554 C 0.53529 0.97689 0.73736 0.0
C555 C 0.52473 0.98868 0.72485 0.0
C556 C 0.51463 0.98668 0.68459 0.0
C557 C 0.515 0.97281 0.65806 0.0
C558 C 0.54612 0.97855 0.78038 0.0
C559 C 0.50342 -0.00085 0.6697 0.0
H560 H 0.50685 0.01982 0.85228 0.0
H561 H 0.54204 0.03832 0.75833 0.0
H562 H 0.49591 0.98899 0.77943 0.0
H563 H 0.51076 0.98127 0.81758 0.0
H564 H 0.49706 0.99479 0.84271 0.0
H565 H 0.5519 0.02497 0.69121 0.0
H566 H 0.55323 0.0045 0.70191 0.0
H567 H 0.53829 0.0119 0.66344 0.0
H568 H 0.54356 0.95422 0.71995 0.0
H569 H 0.5071 0.97115 0.62774 0.0
H570 H 0.53941 0.98058 0.81436 0.0
H571 H 0.55373 0.98868 0.77502 0.0
H572 H 0.55346 0.96818 0.78572 0.0
H573 H 0.49537 0.00162 0.70025 0.0
H574 H 0.49658 -0.00409 0.6369 0.0
H575 H 0.50975 0.00998 0.66174 0.0
C576 C 0.71155 0.70822 0.01508 0.0
C577 C 0.71035 0.71815 0.05548 0.0
C578 C 0.72485 0.70793 0.98608 0.0
C579 C 0.7374 0.7176 -0.00174 0.0
C580 C 0.73637 0.72754 0.0393 0.0
C581 C 0.72278 0.7278 0.06722 0.0
C582 C 0.72545 0.69733 0.94221 0.0
C583 C 0.74966 0.73781 0.05383 0.0
C584 C 0.77685 0.70547 0.95305 0.0
C585 C 0.77927 0.71567 0.91391 0.0
C586 C 0.76332 0.70606 0.98091 0.0
C587 C 0.75177 0.71693 0.96885 0.0
C588 C 0.75392 0.727 0.92862 0.0
C589 C 0.76772 0.72634 0.90182 0.0
C590 C 0.76151 0.69524 0.02388 0.0
C591 C 0.74169 0.73854 0.91418 0.0
H592 H 0.70192 0.70086 0.00535 0.0
H593 H 0.7219 0.7355 0.09834 0.0
H594 H 0.7279 0.70409 0.90862 0.0
H595 H 0.73495 0.68888 0.94661 0.0
H596 H 0.71449 0.69091 0.93683 0.0
H597 H 0.74704 0.74482 0.08683 0.0
H598 H 0.76004 0.7307 0.06135 0.0
H599 H 0.75259 0.74571 0.02329 0.0
H600 H 0.78576 0.69727 0.963 0.0
H601 H 0.76952 0.73425 0.87163 0.0
H602 H 0.7511 0.68797 0.01893 0.0
H603 H 0.75986 0.70197 0.05802 0.0
H604 H 0.77166 0.68755 0.02865 0.0
H605 H 0.73063 0.73252 0.90695 0.0
H606 H 0.74495 0.74522 0.88106 0.0
H607 H 0.73964 0.74672 0.9447 0.0
C608 C 0.03942 0.96592 0.76547 0.0
C609 C 0.02915 0.96401 0.80473 0.0
C610 C 0.03917 0.97928 0.73669 0.0
C611 C 0.02858 0.99116 0.74794 0.0
C612 C 0.01844 0.98951 0.78823 0.0
C613 C 0.01876 0.97588 0.81596 0.0
C614 C 0.05005 0.98055 0.69368 0.0
C615 C 0.0072 0.00211 0.8018 0.0
C616 C 0.03774 0.0312 0.70086 0.0
C617 C 0.02759 0.03255 0.66104 0.0
C618 C 0.0381 0.01783 0.72957 0.0
C619 C 0.02827 0.00538 0.71772 0.0
C620 C 0.01826 0.00648 0.67688 0.0
C621 C 0.01794 0.02013 0.64922 0.0
C622 C 0.04881 0.01714 0.77317 0.0
C623 C 0.00781 0.99329 0.66268 0.0
H624 H 0.0474 0.95675 0.75619 0.0
H625 H 0.0108 0.97449 0.84623 0.0
H626 H 0.04336 0.98211 0.6594 0.0
H627 H 0.05754 0.99082 0.69793 0.0
H628 H 0.0575 0.9702 0.68965 0.0
H629 H 0.00039 -0.0008 0.83498 0.0
H630 H 0.01348 0.01305 0.80851 0.0
H631 H -0.00089 0.00419 0.77104 0.0
H632 H 0.04514 0.04079 0.71061 0.0
H633 H 0.01008 0.0211 0.61852 0.0
H634 H 0.05689 0.00729 0.76932 0.0
H635 H 0.04204 0.0152 0.80708 0.0
H636 H 0.05565 0.02788 0.7776 0.0
H637 H 0.01474 0.98272 0.65634 0.0
H638 H 0.00103 -0.00418 0.62911 0.0
H639 H -0.00032 0.99076 0.69297 0.0
C640 C 0.71921 0.26261 0.40431 0.0
C641 C 0.70722 0.27273 0.41667 0.0
C642 C 0.73291 0.26227 0.43171 0.0
C643 C 0.7345 0.27209 0.47283 0.0
C644 C 0.72242 0.28229 0.48553 0.0
C645 C 0.70899 0.28258 0.45705 0.0
C646 C 0.7457 0.25145 0.41663 0.0
C647 C 0.72362 0.2928 0.52948 0.0
C648 C 0.76461 0.26177 0.56845 0.0
C649 C 0.7766 0.27191 0.55629 0.0
C650 C 0.75073 0.26181 0.54193 0.0
C651 C 0.74895 0.27204 0.50192 0.0
C652 C 0.76096 0.28237 0.48977 0.0
C653 C 0.77457 0.28228 0.51734 0.0
C654 C 0.73802 0.25083 0.55644 0.0
C655 C 0.75955 0.29334 0.44703 0.0
H656 H 0.7179 0.25497 0.37318 0.0
H657 H 0.69971 0.29031 0.46724 0.0
H658 H 0.75637 0.25809 0.40912 0.0
H659 H 0.74833 0.24334 0.44689 0.0
H660 H 0.7427 0.24466 0.38348 0.0
H661 H 0.713 0.29975 0.53512 0.0
H662 H 0.72579 0.28589 0.56296 0.0
H663 H 0.73351 0.30077 0.525 0.0
H664 H 0.7661 0.25374 0.59849 0.0
H665 H 0.78382 0.29007 0.50735 0.0
H666 H 0.73551 0.24282 0.5258 0.0
H667 H 0.72727 0.25735 0.56408 0.0
H668 H 0.74105 0.24393 0.58933 0.0
H669 H 0.75752 0.28676 0.41281 0.0
H670 H 0.77003 0.30055 0.44217 0.0
H671 H 0.7495 0.30108 0.45233 0.0
C672 C 0.47693 0.97253 0.16347 0.0
C673 C 0.46689 0.96046 0.17562 0.0
C674 C 0.47693 0.98632 0.1904 0.0
C675 C 0.46684 0.98793 0.23084 0.0
C676 C 0.4567 0.97579 0.24327 0.0
C677 C 0.45675 0.96227 0.21527 0.0
C678 C 0.48771 -0.00083 0.17561 0.0
C679 C 0.4459 0.97701 0.2865 0.0
C680 C 0.47625 0.01821 0.32681 0.0
C681 C 0.46602 0.03007 0.31403 0.0
C682 C 0.47657 0.00434 0.30029 0.0
C683 C 0.4666 0.00244 0.25964 0.0
C684 C 0.45621 0.01433 0.24676 0.0
C685 C 0.45595 0.02793 0.27434 0.0
C686 C 0.4876 0.99175 0.31558 0.0
C687 C 0.44553 0.01279 0.20332 0.0
H688 H 0.48479 0.9712 0.13291 0.0
H689 H 0.44906 0.95294 0.22529 0.0
H690 H 0.481 0.00978 0.16757 0.0
H691 H 0.49565 0.00192 0.20623 0.0
H692 H 0.49469 -0.00383 0.14287 0.0
H693 H 0.43899 0.96637 0.29192 0.0
H694 H 0.45259 0.97929 0.32037 0.0
H695 H 0.43789 0.98685 0.28132 0.0
H696 H 0.48405 0.01978 0.35742 0.0
H697 H 0.44811 0.03709 0.26386 0.0
H698 H 0.49576 0.98923 0.28537 0.0
H699 H 0.48114 0.98097 0.32318 0.0
H700 H 0.49433 0.9949 0.34871 0.0
H701 H 0.45235 0.01073 0.16958 0.0
H702 H 0.43829 0.02322 0.19778 0.0
H703 H 0.43782 0.00271 0.20831 0.0
C704 C 0.71678 0.78805 0.53225 0.0
C705 C 0.71453 0.77775 0.57125 0.0
C706 C 0.73026 0.78763 0.50409 0.0
C707 C 0.74191 0.77683 0.51569 0.0
C708 C 0.73997 0.76672 0.55592 0.0
C709 C 0.72622 0.76721 0.58303 0.0
C710 C 0.73185 0.79849 0.46115 0.0
C711 C 0.75233 0.75526 0.5699 0.0
C712 C 0.77053 0.76579 0.41645 0.0
C713 C 0.78306 0.77535 0.42777 0.0
C714 C 0.757 0.76619 0.44467 0.0
C715 C 0.75614 0.77618 0.4856 0.0
C716 C 0.76876 0.78583 0.49722 0.0
C717 C 0.782 0.78541 0.46791 0.0
C718 C 0.74364 0.75593 0.43072 0.0
C719 C 0.76834 0.79649 0.54094 0.0
H720 H 0.70776 0.79616 0.52257 0.0
H721 H 0.72456 0.75923 0.61312 0.0
H722 H 0.74231 0.80572 0.46554 0.0
H723 H 0.73328 0.79179 0.42686 0.0
H724 H 0.7217 0.80621 0.45704 0.0
H725 H 0.74928 0.74863 0.60332 0.0
H726 H 0.75423 0.74702 0.53943 0.0
H727 H 0.7634 0.76133 0.57638 0.0
H728 H 0.77129 0.758 0.3855 0.0
H729 H 0.79169 0.79271 0.47729 0.0
H730 H 0.73321 0.76305 0.42391 0.0
H731 H 0.74089 0.74799 0.46131 0.0
H732 H 0.74608 0.74897 0.39748 0.0
H733 H 0.75875 0.80487 0.537 0.0
H734 H 0.77927 0.803 0.5456 0.0
H735 H 0.76614 0.78976 0.57476 0.0
C736 C 0.45584 0.46233 0.76703 0.0
C737 C 0.46585 0.46014 0.80683 0.0
C738 C 0.45614 0.47597 0.73963 0.0
C739 C 0.46652 0.48784 0.75282 0.0
C740 C 0.47645 0.48585 0.7935 0.0
C741 C 0.47609 0.47195 0.81983 0.0
C742 C 0.44549 0.4776 0.69615 0.0
C743 C 0.48747 0.4984 0.80909 0.0
C744 C 0.4769 0.51807 0.65778 0.0
C745 C 0.46688 0.53013 0.67041 0.0
C746 C 0.47685 0.50417 0.68412 0.0
C747 C 0.46673 0.50242 0.72443 0.0
C748 C 0.45659 0.51453 0.73726 0.0
C749 C 0.4567 0.52818 0.70986 0.0
C750 C 0.48763 0.49135 0.66891 0.0
C751 C 0.44576 0.51316 0.78036 0.0
H752 H 0.44799 0.4532 0.75637 0.0
H753 H 0.48385 0.47033 0.85052 0.0
H754 H 0.43774 0.48765 0.70138 0.0
H755 H 0.45232 0.47978 0.66253 0.0
H756 H 0.43829 0.46717 0.69027 0.0
H757 H 0.49424 0.49515 0.84205 0.0
H758 H 0.49561 0.50102 0.77889 0.0
H759 H 0.481 0.50915 0.8171 0.0
H760 H 0.48479 0.51951 0.62736 0.0
H761 H 0.44902 0.53749 0.72023 0.0
H762 H 0.48093 0.48077 0.66063 0.0
H763 H 0.49559 0.48853 0.69941 0.0
H764 H 0.49459 0.49444 0.63621 0.0
H765 H 0.43779 0.50332 0.77484 0.0
H766 H 0.4388 0.52377 0.78601 0.0
H767 H 0.45243 0.51081 0.81422 0.0
C768 C 0.71457 0.20391 0.94462 0.0
C769 C 0.71255 0.21426 0.90561 0.0
C770 C 0.72818 0.20382 0.97221 0.0
C771 C 0.74019 0.21415 0.96003 0.0
C772 C 0.73841 0.22437 0.91999 0.0
C773 C 0.72454 0.2244 0.89345 0.0
C774 C 0.72958 0.19287 0.01499 0.0
C775 C 0.75113 0.23534 0.90544 0.0
C776 C 0.76998 0.22353 0.05754 0.0
C777 C 0.78194 0.21339 0.04514 0.0
C778 C 0.75627 0.2239 0.03017 0.0
C779 C 0.75466 0.21408 -0.01095 0.0
C780 C 0.76671 0.20386 0.97631 0.0
C781 C 0.78014 0.20354 0.00475 0.0
C782 C 0.7435 0.23475 0.0453 0.0
C783 C 0.76548 0.19336 0.93236 0.0
H784 H 0.70533 0.19612 0.95462 0.0
H785 H 0.72305 0.23241 0.86337 0.0
H786 H 0.73962 0.18511 0.00966 0.0
H787 H 0.73165 0.19946 0.04917 0.0
H788 H 0.71909 0.18568 0.01993 0.0
H789 H 0.74809 0.24226 0.87259 0.0
H790 H 0.75366 0.24334 0.93609 0.0
H791 H 0.76187 0.22882 0.89773 0.0
H792 H 0.77131 0.23117 0.08867 0.0
H793 H 0.78941 0.19579 -0.00547 0.0
H794 H 0.73283 0.22812 0.05287 0.0
H795 H 0.74087 0.24286 0.01503 0.0
H796 H 0.74653 0.24153 0.07842 0.0
H797 H 0.75558 0.18539 0.93689 0.0
H798 H 0.77608 0.18639 0.92666 0.0
H799 H 0.76329 0.20027 0.8989 0.0
C800 C 0.0135 0.4782 0.13264 0.0
C801 C 0.02396 0.46638 0.14393 0.0
C802 C 0.01319 0.49188 0.16016 0.0
C803 C 0.02339 0.49363 0.20027 0.0
C804 C 0.03416 0.48188 0.21118 0.0
C805 C 0.03441 0.46847 0.18262 0.0
C806 C 0.00176 0.50434 0.14689 0.0
C807 C 0.04513 0.48326 0.25395 0.0
C808 C 0.0321 0.53335 0.25088 0.0
C809 C 0.02214 0.53412 0.29131 0.0
C810 C 0.03243 0.52035 0.22048 0.0
C811 C 0.02277 0.50767 0.23127 0.0
C812 C 0.01283 0.50825 0.27239 0.0
C813 C 0.01253 0.52155 0.3017 0.0
C814 C 0.04301 0.52024 0.17657 0.0
C815 C 0.00257 0.49481 0.28547 0.0
H816 H 0.00542 0.47668 0.10282 0.0
H817 H 0.04248 0.45936 0.1919 0.0
H818 H 0.99348 0.50602 0.17737 0.0
H819 H 0.00783 0.51547 0.14133 0.0
H820 H 0.99518 0.50154 0.11316 0.0
H821 H 0.0529 0.47312 0.25723 0.0
H822 H 0.0523 0.49378 0.25011 0.0
H823 H 0.03849 0.48443 0.28848 0.0
H824 H 0.03943 0.5431 0.2422 0.0
H825 H 0.00481 0.52209 0.33286 0.0
H826 H 0.03623 0.51822 0.14272 0.0
H827 H 0.05143 0.51065 0.17978 0.0
H828 H 0.04948 0.53122 0.17253 0.0
H829 H 0.99462 0.49225 0.25471 0.0
H830 H -0.00439 0.49705 0.31886 0.0
H831 H 0.00968 0.48435 0.29164 0.0
C832 C 0.26765 0.22562 0.41417 0.0
C833 C 0.27978 0.21532 0.42332 0.0
C834 C 0.25451 0.22582 0.44419 0.0
C835 C 0.25364 0.21566 0.4847 0.0
C836 C 0.26576 0.20514 0.49379 0.0
C837 C 0.27861 0.205 0.46276 0.0
C838 C 0.24162 0.23698 0.43286 0.0
C839 C 0.26532 0.19426 0.53695 0.0
C840 C 0.22641 0.22624 0.58835 0.0
C841 C 0.21384 0.21654 0.57877 0.0
C842 C 0.23956 0.22594 0.55836 0.0
C843 C 0.23998 0.21591 0.51745 0.0
C844 C 0.2274 0.206 0.50792 0.0
C845 C 0.21455 0.20634 0.53893 0.0
C846 C 0.25294 0.23645 0.57014 0.0
C847 C 0.22735 0.19528 0.46432 0.0
H848 H 0.26848 0.23361 0.38378 0.0
H849 H 0.28799 0.19709 0.47045 0.0
H850 H 0.23061 0.23063 0.4283 0.0
H851 H 0.24008 0.2451 0.46386 0.0
H852 H 0.24386 0.24376 0.39911 0.0
H853 H 0.27575 0.18684 0.53904 0.0
H854 H 0.26438 0.20094 0.57147 0.0
H855 H 0.25501 0.18673 0.53462 0.0
H856 H 0.22594 0.23414 0.61905 0.0
H857 H 0.20483 0.1989 0.53091 0.0
H858 H 0.25486 0.24461 0.53948 0.0
H859 H 0.26366 0.22958 0.57444 0.0
H860 H 0.251 0.24319 0.60417 0.0
H861 H 0.22861 0.20204 0.43008 0.0
H862 H 0.2166 0.18836 0.46193 0.0
H863 H 0.23732 0.18728 0.46635 0.0
C864 C 0.51468 0.47399 0.31996 0.0
C865 C 0.52466 0.4619 0.30746 0.0
C866 C 0.51474 0.48786 0.29341 0.0
C867 C 0.52485 0.48952 0.25302 0.0
C868 C 0.53497 0.47738 0.24037 0.0
C869 C 0.53485 0.46378 0.26798 0.0
C870 C 0.50399 0.50071 0.30844 0.0
C871 C 0.54579 0.47866 0.19721 0.0
C872 C 0.51544 0.5198 0.1571 0.0
C873 C 0.52569 0.53164 0.16983 0.0
C874 C 0.5151 0.50595 0.18368 0.0
C875 C 0.52506 0.50405 0.22434 0.0
C876 C 0.53545 0.51593 0.23722 0.0
C877 C 0.53573 0.52952 0.20957 0.0
C878 C 0.50406 0.49337 0.16841 0.0
C879 C 0.54613 0.51438 0.28067 0.0
H880 H 0.50678 0.47261 0.3504 0.0
H881 H 0.5425 0.45444 0.2577 0.0
H882 H 0.5107 0.51131 0.3164 0.0
H883 H 0.49599 0.50347 0.27796 0.0
H884 H 0.49707 0.4977 0.34128 0.0
H885 H 0.55275 0.46804 0.19176 0.0
H886 H 0.5391 0.48093 0.16332 0.0
H887 H 0.55375 0.48852 0.20247 0.0
H888 H 0.50765 0.52138 0.12645 0.0
H889 H 0.54358 0.53866 0.22002 0.0
H890 H 0.49594 0.49083 0.19869 0.0
H891 H 0.51053 0.4826 0.16062 0.0
H892 H 0.49729 0.49656 0.13539 0.0
H893 H 0.53931 0.51229 0.31438 0.0
H894 H 0.55334 0.52482 0.28628 0.0
H895 H 0.55386 0.50431 0.27562 0.0
C896 C 0.26986 0.76442 0.06585 0.0
C897 C 0.28173 0.77463 0.05317 0.0
C898 C 0.25595 0.76421 0.03948 0.0
C899 C 0.25404 0.77426 -0.00092 0.0
C900 C 0.26597 0.78458 0.98614 0.0
C901 C 0.27961 0.78473 0.01358 0.0
C902 C 0.24332 0.75325 0.05481 0.0
C903 C 0.26442 0.79535 0.94295 0.0
C904 C 0.22358 0.76458 0.90395 0.0
C905 C 0.21168 0.77472 0.91698 0.0
C906 C 0.2375 0.76434 0.93022 0.0
C907 C 0.23941 0.77429 0.97087 0.0
C908 C 0.22744 0.78455 0.98415 0.0
C909 C 0.21379 0.78473 0.95681 0.0
C910 C 0.25016 0.75345 0.91453 0.0
C911 C 0.22899 0.79521 0.02763 0.0
H912 H 0.27143 0.75658 0.09637 0.0
H913 H 0.28879 0.79255 0.00316 0.0
H914 H 0.23265 0.7598 0.06328 0.0
H915 H 0.24056 0.74527 0.02432 0.0
H916 H 0.24656 0.74632 0.08743 0.0
H917 H 0.27494 0.80242 0.93707 0.0
H918 H 0.26208 0.78863 0.90919 0.0
H919 H 0.25449 0.80323 0.94855 0.0
H920 H 0.22201 0.75682 0.87323 0.0
H921 H 0.20459 0.7925 0.9675 0.0
H922 H 0.25294 0.74538 0.94477 0.0
H923 H 0.26081 0.76004 0.90626 0.0
H924 H 0.24693 0.74662 0.88169 0.0
H925 H 0.23134 0.78841 0.0612 0.0
H926 H 0.21846 0.80225 0.03371 0.0
H927 H 0.2389 0.80311 0.02222 0.0
C928 C 0.97148 0.46953 0.65666 0.0
C929 C 0.96209 0.45683 0.6675 0.0
C930 C 0.97114 0.48282 0.68601 0.0
C931 C 0.96139 0.48326 0.7276 0.0
C932 C 0.95193 0.47046 0.73878 0.0
C933 C 0.95229 0.45747 0.70835 0.0
C934 C 0.98117 0.49639 0.67252 0.0
C935 C 0.94155 0.47043 0.78319 0.0
C936 C 0.97093 0.5127 0.826 0.0
C937 C 0.96033 0.52445 0.8154 0.0
C938 C 0.9712 0.49905 0.79836 0.0
C939 C 0.9608 0.49726 0.75881 0.0
C940 C 0.94987 0.50893 0.74861 0.0
C941 C 0.94968 0.52231 0.77729 0.0
C942 C 0.98281 0.48667 0.81087 0.0
C943 C 0.93868 0.50749 0.70643 0.0
H944 H 0.97907 0.4691 0.62517 0.0
H945 H 0.94513 0.44763 0.71736 0.0
H946 H 0.97392 0.50679 0.66694 0.0
H947 H 0.98928 0.49898 0.70283 0.0
H948 H 0.98795 0.49427 0.63868 0.0
H949 H 0.93518 0.4594 0.78736 0.0
H950 H 0.94848 0.47243 0.81674 0.0
H951 H 0.93306 0.47996 0.78056 0.0
H952 H 0.97917 0.51426 0.85541 0.0
H953 H 0.9415 0.53136 0.76854 0.0
H954 H 0.99095 0.4851 0.77996 0.0
H955 H 0.97686 0.47548 0.81659 0.0
H956 H 0.98953 0.48949 0.8443 0.0
H957 H 0.94514 0.50645 0.67153 0.0
H958 H 0.93079 0.51755 0.70376 0.0
H959 H 0.93165 0.49689 0.7105 0.0
C960 C 0.15163 0.25852 0.97778 0.0
C961 C 0.14863 0.2501 0.02047 0.0
C962 C 0.15161 0.2513 0.93203 0.0
C963 C 0.14809 0.23539 0.92896 0.0
C964 C 0.14381 0.22713 0.97144 0.0
C965 C 0.14432 0.23456 0.01697 0.0
C966 C 0.15638 0.26046 0.88749 0.0
C967 C 0.13947 0.21029 0.96915 0.0
C968 C 0.1414 0.22237 0.79904 0.0
C969 C 0.15602 0.2167 0.78663 0.0
C970 C 0.13825 0.22746 0.84659 0.0
C971 C 0.15019 0.22729 0.88181 0.0
C972 C 0.16477 0.22089 0.87002 0.0
C973 C 0.16744 0.21544 0.82249 0.0
C974 C 0.12244 0.23374 0.85834 0.0
C975 C 0.17785 0.22075 0.90654 0.0
H976 H 0.15503 0.27052 0.98035 0.0
H977 H 0.14186 0.22807 0.04997 0.0
H978 H 0.16735 0.25576 0.87271 0.0
H979 H 0.14757 0.25943 0.85826 0.0
H980 H 0.15808 0.27288 0.89586 0.0
H981 H 0.13417 0.20623 0.00386 0.0
H982 H 0.13129 0.20816 0.93868 0.0
H983 H 0.14993 0.20327 0.962 0.0
H984 H 0.13251 0.22313 0.77121 0.0
H985 H 0.17874 0.21107 0.81266 0.0
H986 H 0.12301 0.24648 0.86142 0.0
H987 H 0.11832 0.22922 0.89402 0.0
H988 H 0.11386 0.23077 0.82964 0.0
H989 H 0.18128 0.23278 0.91511 0.0
H990 H 0.18812 0.21448 0.89258 0.0
H991 H 0.17411 0.2153 0.94127 0.0
C992 C 0.0257 0.88915 0.01546 0.0
C993 C 0.03128 0.90397 0.0052 0.0
C994 C 0.02039 0.88536 0.06228 0.0
C995 C 0.02027 0.89684 0.09897 0.0
C996 C 0.02658 0.91161 0.08937 0.0
C997 C 0.03222 0.91494 0.04252 0.0
C998 C 0.01421 0.86936 0.07169 0.0
C999 C 0.02646 0.9242 0.12758 0.0
C1000 C 0.98907 0.89752 0.19488 0.0
C1001 C -0.00241 0.89442 0.23733 0.0
C1002 C -0.00379 0.89758 0.14899 0.0
C1003 C 0.01211 0.89406 0.14562 0.0
C1004 C 0.0204 0.88947 0.18773 0.0
C1005 C 0.01306 0.88988 0.23337 0.0
C1006 C 0.98701 0.90262 0.10481 0.0
C1007 C 0.03723 0.88511 0.18508 0.0
H1008 H 0.02519 0.88061 0.98652 0.0
H1009 H 0.03653 0.9264 0.03439 0.0
H1010 H 0.01858 0.86484 0.10708 0.0
H1011 H 0.00145 0.86978 0.07412 0.0
H1012 H 0.01743 0.86117 0.04212 0.0
H1013 H 0.03255 0.93476 0.11506 0.0
H1014 H 0.01436 0.92731 0.13656 0.0
H1015 H 0.03197 0.92009 0.1618 0.0
H1016 H 0.97711 0.90105 0.19779 0.0
H1017 H 0.01961 0.88729 0.26616 0.0
H1018 H 0.98832 0.89419 0.07458 0.0
H1019 H 0.99145 0.91386 0.09147 0.0
H1020 H 0.97453 0.90392 0.11313 0.0
H1021 H 0.03942 0.87739 0.15347 0.0
H1022 H 0.0412 0.87929 0.21905 0.0
H1023 H 0.04428 0.89565 0.17972 0.0
C1024 C 0.34217 0.73439 0.44355 0.0
C1025 C 0.34521 0.74277 0.48628 0.0
C1026 C 0.34288 0.74151 0.39768 0.0
C1027 C 0.34708 0.75726 0.39469 0.0
C1028 C 0.35148 0.76538 0.43731 0.0
C1029 C 0.35032 0.75807 0.48285 0.0
C1030 C 0.338 0.73251 0.35293 0.0
C1031 C 0.35651 0.78203 0.43516 0.0
C1032 C 0.35447 0.77085 0.26567 0.0
C1033 C 0.34009 0.77712 0.25339 0.0
C1034 C 0.3573 0.7652 0.31277 0.0
C1035 C 0.3453 0.76549 0.34769 0.0
C1036 C 0.33096 0.77246 0.33609 0.0
C1037 C 0.32859 0.77839 0.28903 0.0
C1038 C 0.37286 0.75827 0.32439 0.0
C1039 C 0.31783 0.77281 0.37239 0.0
H1040 H 0.33819 0.72257 0.44612 0.0
H1041 H 0.35284 0.76451 0.51591 0.0
H1042 H 0.32713 0.73742 0.33817 0.0
H1043 H 0.34685 0.73344 0.32378 0.0
H1044 H 0.33608 0.72011 0.36111 0.0
H1045 H 0.36189 0.78586 0.47 0.0
H1046 H 0.36483 0.78384 0.40488 0.0
H1047 H 0.34635 0.78947 0.42783 0.0
H1048 H 0.36343 0.77007 0.23807 0.0
H1049 H 0.31747 0.78324 0.27938 0.0
H1050 H 0.3718 0.74555 0.32703 0.0
H1051 H 0.37712 0.7625 0.36027 0.0
H1052 H 0.38157 0.76101 0.29589 0.0
H1053 H 0.31412 0.76085 0.38073 0.0
H1054 H 0.30772 0.77934 0.35841 0.0
H1055 H 0.32165 0.77813 0.40726 0.0
C1056 C 0.50543 0.09247 0.70203 0.0
C1057 C 0.49705 0.09539 0.74484 0.0
C1058 C 0.49827 0.09314 0.65621 0.0
C1059 C 0.48248 0.0972 0.65333 0.0
C1060 C 0.47436 0.10155 0.696 0.0
C1061 C 0.48171 0.1004 0.74152 0.0
C1062 C 0.50729 0.08832 0.61142 0.0
C1063 C 0.45767 0.10646 0.69396 0.0
C1064 C 0.46909 0.10405 0.5238 0.0
C1065 C 0.46307 0.08954 0.51182 0.0
C1066 C 0.47449 0.10713 0.57106 0.0
C1067 C 0.47423 0.09525 0.60641 0.0
C1068 C 0.46746 0.08081 0.59511 0.0
C1069 C 0.46175 0.07819 0.54789 0.0
C1070 C 0.48117 0.12281 0.58235 0.0
C1071 C 0.46716 0.06779 0.63183 0.0
H1072 H 0.51729 0.08857 0.70447 0.0
H1073 H 0.47527 0.10285 0.77463 0.0
H1074 H 0.50244 0.07741 0.59668 0.0
H1075 H 0.50628 0.09715 0.58228 0.0
H1076 H 0.51971 0.08647 0.61954 0.0
H1077 H 0.45389 0.11198 0.72865 0.0
H1078 H 0.45573 0.11465 0.66335 0.0
H1079 H 0.45029 0.09623 0.68727 0.0
H1080 H 0.4699 0.11289 0.49585 0.0
H1081 H 0.4571 0.06697 0.53846 0.0
H1082 H 0.49391 0.12197 0.58462 0.0
H1083 H 0.47697 0.12704 0.61828 0.0
H1084 H 0.47819 0.13144 0.55379 0.0
H1085 H 0.47914 0.06417 0.6404 0.0
H1086 H 0.46072 0.05759 0.61811 0.0
H1087 H 0.46179 0.07168 0.66653 0.0
C1088 C 0.16482 0.7792 0.68146 0.0
C1089 C 0.15328 0.77802 0.71697 0.0
C1090 C 0.16238 0.7735 0.63414 0.0
C1091 C 0.14793 0.76686 0.62217 0.0
C1092 C 0.13589 0.76669 0.65696 0.0
C1093 C 0.13878 0.7721 0.70432 0.0
C1094 C 0.17556 0.77369 0.59802 0.0
C1095 C 0.12021 0.76013 0.64496 0.0
C1096 C 0.14286 0.75958 0.48687 0.0
C1097 C 0.1476 0.74415 0.48346 0.0
C1098 C 0.14187 0.76692 0.53242 0.0
C1099 C 0.14608 0.7587 0.57505 0.0
C1100 C 0.14995 0.74287 0.57206 0.0
C1101 C 0.15048 0.73572 0.52621 0.0
C1102 C 0.13719 0.78368 0.53458 0.0
C1103 C 0.15462 0.73376 0.61682 0.0
H1104 H 0.17603 0.78378 0.69139 0.0
H1105 H 0.1298 0.77139 0.73182 0.0
H1106 H 0.17911 0.76168 0.58961 0.0
H1107 H 0.17187 0.77909 0.56315 0.0
H1108 H 0.18575 0.78004 0.61221 0.0
H1109 H 0.11151 0.76303 0.67334 0.0
H1110 H 0.11611 0.76449 0.60906 0.0
H1111 H 0.121 0.74739 0.6422 0.0
H1112 H 0.14046 0.76606 0.4538 0.0
H1113 H 0.15418 0.72381 0.52368 0.0
H1114 H 0.14748 0.79089 0.54211 0.0
H1115 H 0.12885 0.78565 0.56475 0.0
H1116 H 0.13193 0.78764 0.49968 0.0
H1117 H 0.16552 0.73851 0.63187 0.0
H1118 H 0.15641 0.72134 0.60856 0.0
H1119 H 0.14573 0.73478 0.64577 0.0
C1120 C 0.47142 0.8879 0.96125 0.0
C1121 C 0.46513 0.90229 0.97327 0.0
C1122 C 0.47701 0.88497 0.91413 0.0
C1123 C 0.47662 0.89689 0.87892 0.0
C1124 C 0.46963 0.91123 0.89027 0.0
C1125 C 0.46377 0.9137 0.93737 0.0
C1126 C 0.48398 0.86941 0.90281 0.0
C1127 C 0.46917 0.92427 0.85364 0.0
C1128 C 0.50761 0.89978 0.7826 0.0
C1129 C 0.4992 0.89654 0.74006 0.0
C1130 C 0.50053 0.89923 0.82856 0.0
C1131 C 0.4848 0.89501 0.83185 0.0
C1132 C 0.47664 0.89043 0.78949 0.0
C1133 C 0.48391 0.89141 0.74384 0.0
C1134 C 0.50957 0.90429 0.87304 0.0
C1135 C 0.46 0.88538 0.79199 0.0
H1136 H 0.47227 0.87901 -0.01096 0.0
H1137 H 0.4589 0.92482 0.94683 0.0
H1138 H 0.47969 0.86504 0.86715 0.0
H1139 H 0.49669 0.87051 0.89986 0.0
H1140 H 0.48134 0.86077 0.93161 0.0
H1141 H 0.46262 0.93438 0.86743 0.0
H1142 H 0.48111 0.92801 0.84508 0.0
H1143 H 0.46384 0.92034 0.81892 0.0
H1144 H 0.51942 0.90377 0.77979 0.0
H1145 H 0.47745 0.88874 0.71095 0.0
H1146 H 0.50872 0.89554 0.90247 0.0
H1147 H 0.50463 0.91519 0.88751 0.0
H1148 H 0.52195 0.90624 0.86465 0.0
H1149 H 0.45825 0.87713 0.82252 0.0
H1150 H 0.45613 0.87989 0.75735 0.0
H1151 H 0.45256 0.89554 0.79914 0.0
C1152 C 0.34518 0.23401 0.98543 0.0
C1153 C 0.34014 0.24934 0.98237 0.0
C1154 C 0.34663 0.22669 0.03088 0.0
C1155 C 0.34254 0.23483 0.07378 0.0
C1156 C 0.3384 0.25059 0.07109 0.0
C1157 C 0.33743 0.25773 0.02529 0.0
C1158 C 0.35161 0.21001 0.03267 0.0
C1159 C 0.33383 0.25961 0.11615 0.0
C1160 C 0.32468 0.21365 0.18041 0.0
C1161 C 0.33639 0.21485 0.21534 0.0
C1162 C 0.32675 0.21964 0.13328 0.0
C1163 C 0.34102 0.22658 0.12087 0.0
C1164 C 0.35325 0.22681 0.15505 0.0
C1165 C 0.3507 0.22112 0.20227 0.0
C1166 C 0.31339 0.21937 0.09781 0.0
C1167 C 0.36874 0.23369 0.14253 0.0
H1168 H 0.34744 0.22757 0.95219 0.0
H1169 H 0.33348 0.26958 0.02297 0.0
H1170 H 0.36012 0.20816 0.06243 0.0
H1171 H 0.34147 0.20262 0.04059 0.0
H1172 H 0.35676 0.20618 -0.00251 0.0
H1173 H 0.33191 0.27202 0.10811 0.0
H1174 H 0.32304 0.25475 0.13156 0.0
H1175 H 0.34285 0.25863 0.14475 0.0
H1176 H 0.31361 0.20882 0.1907 0.0
H1177 H 0.35983 0.22185 0.22933 0.0
H1178 H 0.31696 0.21404 0.06271 0.0
H1179 H 0.30969 0.23136 0.0897 0.0
H1180 H 0.30333 0.21291 0.11241 0.0
H1181 H 0.37277 0.22946 0.1064 0.0
H1182 H 0.37762 0.23092 0.1705 0.0
H1183 H 0.3677 0.24642 0.13997 0.0
C1184 C 0.02072 0.10472 0.44641 0.0
C1185 C 0.02762 0.09071 0.45966 0.0
C1186 C 0.01519 0.10706 0.39887 0.0
C1187 C 0.01623 0.09492 0.36454 0.0
C1188 C 0.02386 0.08102 0.37712 0.0
C1189 C 0.02967 0.07916 0.42457 0.0
C1190 C 0.00756 0.1222 0.38621 0.0
C1191 C 0.025 0.06774 0.34152 0.0
C1192 C 0.98533 0.0898 0.26882 0.0
C1193 C 0.99353 0.09304 0.22591 0.0
C1194 C 0.99243 0.09103 0.31461 0.0
C1195 C 0.00796 0.096 0.31736 0.0
C1196 C 0.01586 0.10055 0.2745 0.0
C1197 C 0.00859 0.09883 0.22903 0.0
C1198 C 0.98367 0.08594 0.35961 0.0
C1199 C 0.03224 0.1064 0.27638 0.0
H1200 H 0.01933 0.11372 0.47359 0.0
H1201 H 0.035 0.06833 0.43498 0.0
H1202 H 0.01161 0.12642 0.35009 0.0
H1203 H 0.9949 0.12054 0.38362 0.0
H1204 H 0.00988 0.1312 0.41417 0.0
H1205 H 0.03206 0.05808 0.35613 0.0
H1206 H 0.01327 0.06332 0.33324 0.0
H1207 H 0.03014 0.07165 0.30652 0.0
H1208 H 0.97369 0.08528 0.26651 0.0
H1209 H 0.01489 0.10151 0.19582 0.0
H1210 H 0.98405 0.09503 0.38813 0.0
H1211 H 0.98919 0.07549 0.3752 0.0
H1212 H 0.97141 0.08325 0.35147 0.0
H1213 H 0.03363 0.11497 0.3062 0.0
H1214 H 0.0358 0.11177 0.24125 0.0
H1215 H 0.04017 0.09667 0.28426 0.0
C1216 C 0.84016 0.73305 0.02808 0.0
C1217 C 0.84354 0.74142 0.9856 0.0
C1218 C 0.84083 0.74009 0.07409 0.0
C1219 C 0.84532 0.75574 0.07752 0.0
C1220 C 0.84994 0.76388 0.03518 0.0
C1221 C 0.84883 0.75665 -0.01052 0.0
C1222 C 0.83571 0.73108 0.11855 0.0
C1223 C 0.85525 0.78043 0.03782 0.0
C1224 C 0.8278 0.77697 0.1847 0.0
C1225 C 0.83943 0.77531 0.21977 0.0
C1226 C 0.82981 0.77112 0.13734 0.0
C1227 C 0.84391 0.76383 0.12491 0.0
C1228 C 0.85605 0.7631 0.15931 0.0
C1229 C 0.85358 0.7687 0.20668 0.0
C1230 C 0.81654 0.77193 0.1016 0.0
C1231 C 0.87136 0.75579 0.14683 0.0
H1232 H 0.83601 0.72129 0.02518 0.0
H1233 H 0.85161 0.76309 0.95663 0.0
H1234 H 0.84462 0.73163 0.14761 0.0
H1235 H 0.82502 0.73628 0.13365 0.0
H1236 H 0.83339 0.71878 0.10995 0.0
H1237 H 0.86053 0.78434 0.0029 0.0
H1238 H 0.84527 0.788 0.04609 0.0
H1239 H 0.86377 0.78195 0.06774 0.0
H1240 H 0.81686 0.78208 0.19498 0.0
H1241 H 0.86264 0.76762 0.23383 0.0
H1242 H 0.81246 0.76009 0.09314 0.0
H1243 H 0.82036 0.77721 0.06669 0.0
H1244 H 0.80668 0.7787 0.11615 0.0
H1245 H 0.86992 0.74313 0.14329 0.0
H1246 H 0.88023 0.75807 0.17529 0.0
H1247 H 0.87565 0.76015 0.11116 0.0
C1248 C 0.96269 0.07478 0.92356 0.0
C1249 C 0.96344 0.08617 0.95968 0.0
C1250 C 0.96809 0.07776 0.8762 0.0
C1251 C 0.97396 0.09259 0.86483 0.0
C1252 C 0.97362 0.10445 0.90027 0.0
C1253 C 0.96856 0.10102 0.94765 0.0
C1254 C 0.96848 0.06477 0.83939 0.0
C1255 C 0.97933 0.1205 0.88894 0.0
C1256 C 0.00515 0.09209 0.76876 0.0
C1257 C -0.00343 0.09473 0.72611 0.0
C1258 C -0.00201 0.09204 0.81461 0.0
C1259 C 0.98198 0.09507 0.81777 0.0
C1260 C 0.97355 0.09906 0.77533 0.0
C1261 C 0.98093 0.09866 0.72973 0.0
C1262 C 0.00734 0.08761 0.85914 0.0
C1263 C 0.95658 0.10288 0.7777 0.0
H1264 H 0.95873 0.06331 0.93305 0.0
H1265 H 0.96892 0.10988 0.97564 0.0
H1266 H 0.96286 0.06838 0.80476 0.0
H1267 H 0.98063 0.06184 0.83069 0.0
H1268 H 0.96263 0.05423 0.85311 0.0
H1269 H 0.97598 0.12891 0.91774 0.0
H1270 H 0.99209 0.1204 0.88613 0.0
H1271 H 0.97473 0.12452 0.85325 0.0
H1272 H 0.01724 0.08902 0.76611 0.0
H1273 H 0.97432 0.10087 0.69678 0.0
H1274 H 0.00312 0.07643 0.87374 0.0
H1275 H 0.00592 0.09633 0.88848 0.0
H1276 H 0.01983 0.08645 0.85078 0.0
H1277 H 0.94989 0.0922 0.78454 0.0
H1278 H 0.95237 0.10815 0.74312 0.0
H1279 H 0.95419 0.11092 0.80838 0.0
C1280 C 0.63742 0.23136 0.48199 0.0
C1281 C 0.64238 0.2467 0.47818 0.0
C1282 C 0.63673 0.22402 0.5276 0.0
C1283 C 0.64149 0.23215 0.56982 0.0
C1284 C 0.64538 0.24797 0.56658 0.0
C1285 C 0.64559 0.25512 0.52072 0.0
C1286 C 0.63195 0.2073 0.5301 0.0
C1287 C 0.65061 0.257 0.61087 0.0
C1288 C 0.63655 0.21865 0.70006 0.0
C1289 C 0.65128 0.21278 0.71003 0.0
C1290 C 0.63276 0.224 0.65328 0.0
C1291 C 0.64415 0.22387 0.61634 0.0
C1292 C 0.65881 0.21725 0.62564 0.0
C1293 C 0.66214 0.21156 0.67244 0.0
C1294 C 0.61686 0.23051 0.64417 0.0
C1295 C 0.67132 0.21709 0.58718 0.0
H1296 H 0.63473 0.22488 0.44912 0.0
H1297 H 0.64943 0.26698 0.51794 0.0
H1298 H 0.64232 0.19997 0.53506 0.0
H1299 H 0.62425 0.20526 0.56186 0.0
H1300 H 0.62595 0.20355 0.49619 0.0
H1301 H 0.65217 0.26945 0.60267 0.0
H1302 H 0.64216 0.25585 0.64107 0.0
H1303 H 0.66176 0.2523 0.62418 0.0
H1304 H 0.62809 0.21938 0.72921 0.0
H1305 H 0.67352 0.20702 0.68034 0.0
H1306 H 0.61222 0.22635 0.60869 0.0
H1307 H 0.6175 0.24327 0.64216 0.0
H1308 H 0.60865 0.22736 0.67372 0.0
H1309 H 0.66703 0.21167 0.55304 0.0
H1310 H 0.68177 0.21076 0.59949 0.0
H1311 H 0.67467 0.22911 0.57814 0.0
C1312 C 0.4853 0.89841 0.28321 0.0
C1313 C 0.49368 0.89536 0.24049 0.0
C1314 C 0.49244 0.89773 0.32907 0.0
C1315 C 0.50819 0.89353 0.33204 0.0
C1316 C 0.51628 0.88901 0.28948 0.0
C1317 C 0.50895 0.89015 0.24394 0.0
C1318 C 0.48347 0.90272 0.37375 0.0
C1319 C 0.53293 0.88396 0.29163 0.0
C1320 C 0.52933 0.91275 0.43631 0.0
C1321 C 0.52812 0.9015 0.47272 0.0
C1322 C 0.52341 0.91004 0.38942 0.0
C1323 C 0.51651 0.89561 0.3788 0.0
C1324 C 0.5163 0.88383 0.41449 0.0
C1325 C 0.52194 0.887 0.46141 0.0
C1326 C 0.52367 0.92294 0.35227 0.0
C1327 C 0.50946 0.86817 0.40392 0.0
H1328 H 0.4735 0.90245 0.28063 0.0
H1329 H 0.51539 0.8876 0.21089 0.0
H1330 H 0.48452 0.89401 0.40327 0.0
H1331 H 0.48831 0.91369 0.38795 0.0
H1332 H 0.47104 0.90452 0.36567 0.0
H1333 H 0.53665 0.8783 0.25711 0.0
H1334 H 0.54039 0.89415 0.29795 0.0
H1335 H 0.53481 0.87586 0.32249 0.0
H1336 H 0.53412 0.92396 0.44521 0.0
H1337 H 0.5212 0.87823 0.48961 0.0
H1338 H 0.51169 0.92655 0.34374 0.0
H1339 H 0.52899 0.91893 0.31764 0.0
H1340 H 0.53015 0.93317 0.36557 0.0
H1341 H 0.49672 0.86912 0.40177 0.0
H1342 H 0.51239 0.85963 0.43276 0.0
H1343 H 0.51357 0.86376 0.3681 0.0
C1344 C 0.82593 0.20827 0.28471 0.0
C1345 C 0.83789 0.20972 0.25071 0.0
C1346 C 0.82765 0.21397 0.33234 0.0
C1347 C 0.84179 0.22088 0.34622 0.0
C1348 C 0.85426 0.22136 0.31297 0.0
C1349 C 0.85208 0.21593 0.26524 0.0
C1350 C 0.81403 0.21344 0.36679 0.0
C1351 C 0.86963 0.22825 0.32702 0.0
C1352 C 0.83776 0.25171 0.44274 0.0
C1353 C 0.84049 0.24325 0.48552 0.0
C1354 C 0.83875 0.24467 0.39679 0.0
C1355 C 0.84293 0.22892 0.39377 0.0
C1356 C 0.84688 0.22065 0.43656 0.0
C1357 C 0.84544 0.22789 0.48216 0.0
C1358 C 0.83433 0.25382 0.35185 0.0
C1359 C 0.85185 0.20398 0.4344 0.0
H1360 H 0.81495 0.20347 0.27333 0.0
H1361 H 0.8614 0.21685 0.23893 0.0
H1362 H 0.8174 0.20804 0.402 0.0
H1363 H 0.81015 0.22537 0.37498 0.0
H1364 H 0.80416 0.20692 0.35123 0.0
H1365 H 0.87871 0.2257 0.29951 0.0
H1366 H 0.86849 0.24095 0.3303 0.0
H1367 H 0.87343 0.22381 0.36315 0.0
H1368 H 0.83389 0.26358 0.44524 0.0
H1369 H 0.84772 0.22138 0.51526 0.0
H1370 H 0.82371 0.24887 0.33549 0.0
H1371 H 0.84355 0.2531 0.32383 0.0
H1372 H 0.83217 0.26617 0.36028 0.0
H1373 H 0.84179 0.19664 0.42506 0.0
H1374 H 0.85667 0.19995 0.46984 0.0
H1375 H 0.86063 0.20227 0.40538 0.0
C1376 C 0.50883 0.09896 0.24173 0.0
C1377 C 0.49346 0.09406 0.2453 0.0
C1378 C 0.51613 0.09996 0.19612 0.0
C1379 C 0.50793 0.09561 0.15359 0.0
C1380 C 0.49215 0.09157 0.15673 0.0
C1381 C 0.48504 0.09102 0.20263 0.0
C1382 C 0.53283 0.10483 0.19379 0.0
C1383 C 0.48306 0.08674 0.11209 0.0
C1384 C 0.521 0.10308 0.02413 0.0
C1385 C 0.52707 0.08866 0.01135 0.0
C1386 C 0.51566 0.10591 0.07159 0.0
C1387 C 0.51606 0.09387 0.10638 0.0
C1388 C 0.52286 0.0795 0.09427 0.0
C1389 C 0.52849 0.07713 0.04684 0.0
C1390 C 0.5089 0.1215 0.08372 0.0
C1391 C 0.5233 0.06633 0.1304 0.0
H1392 H 0.5153 0.10148 0.27472 0.0
H1393 H 0.47317 0.0872 0.20526 0.0
H1394 H 0.54016 0.09462 0.18619 0.0
H1395 H 0.53466 0.11319 0.1636 0.0
H1396 H 0.53676 0.11013 0.22865 0.0
H1397 H 0.47068 0.08477 0.12048 0.0
H1398 H 0.4839 0.09565 0.0831 0.0
H1399 H 0.48797 0.07591 0.097 0.0
H1400 H 0.52011 0.11206 -0.00336 0.0
H1401 H 0.53319 0.06598 0.0368 0.0
H1402 H 0.51327 0.12565 0.11954 0.0
H1403 H 0.49618 0.12055 0.08669 0.0
H1404 H 0.51163 0.13024 0.05529 0.0
H1405 H 0.52868 0.07009 0.16522 0.0
H1406 H 0.5298 0.05624 0.11614 0.0
H1407 H 0.51136 0.0626 0.13892 0.0
C1408 C 0.64818 0.73703 0.95444 0.0
C1409 C 0.64522 0.74543 -0.00282 0.0
C1410 C 0.64769 0.74421 0.90863 0.0
C1411 C 0.64376 0.76003 0.90571 0.0
C1412 C 0.63918 0.76812 0.94822 0.0
C1413 C 0.64016 0.76075 -0.00627 0.0
C1414 C 0.65274 0.73522 0.86404 0.0
C1415 C 0.63434 0.78482 0.9461 0.0
C1416 C 0.66423 0.78089 0.8034 0.0
C1417 C 0.6533 0.77983 0.76595 0.0
C1418 C 0.66099 0.77503 0.85002 0.0
C1419 C 0.64634 0.7684 0.85933 0.0
C1420 C 0.63488 0.76841 0.82258 0.0
C1421 C 0.63859 0.77394 0.77594 0.0
C1422 C 0.67357 0.77504 0.88829 0.0
C1423 C 0.61899 0.7619 0.83174 0.0
H1424 H 0.6521 0.72518 0.95698 0.0
H1425 H 0.63766 0.76721 0.02679 0.0
H1426 H 0.64421 0.73649 0.83406 0.0
H1427 H 0.66388 0.73986 0.85056 0.0
H1428 H 0.65423 0.72274 0.87197 0.0
H1429 H 0.6284 0.78849 0.9802 0.0
H1430 H 0.64468 0.79219 0.94108 0.0
H1431 H 0.62656 0.78691 0.91453 0.0
H1432 H 0.6756 0.78545 0.7955 0.0
H1433 H 0.63008 0.77334 0.74691 0.0
H1434 H 0.67687 0.76299 0.8971 0.0
H1435 H 0.66937 0.78045 0.92257 0.0
H1436 H 0.68404 0.78132 0.87592 0.0
H1437 H 0.61962 0.74914 0.83316 0.0
H1438 H 0.61072 0.7652 0.80248 0.0
H1439 H 0.61444 0.76593 0.86748 0.0
C1440 C 0.96639 0.91323 0.53956 0.0
C1441 C 0.96802 0.90143 0.50509 0.0
C1442 C 0.9722 0.91144 0.58704 0.0
C1443 C 0.97941 0.89738 0.60027 0.0
C1444 C 0.98007 0.88505 0.56656 0.0
C1445 C 0.97453 0.8873 0.51899 0.0
C1446 C 0.97146 0.92492 0.62198 0.0
C1447 C 0.98727 0.86976 0.57995 0.0
C1448 C 0.01029 0.902 0.69633 0.0
C1449 C 0.00191 0.89916 0.73919 0.0
C1450 C 0.00324 0.90078 0.65045 0.0
C1451 C 0.98758 0.89626 0.64761 0.0
C1452 C 0.97946 0.89211 0.69048 0.0
C1453 C 0.98669 0.8938 0.73601 0.0
C1454 C 0.01222 0.90542 0.60541 0.0
C1455 C 0.96291 0.88676 0.68853 0.0
H1456 H 0.96136 0.92415 0.52866 0.0
H1457 H 0.9756 0.8781 0.49231 0.0
H1458 H 0.96616 0.92134 0.65711 0.0
H1459 H 0.98332 0.92899 0.6302 0.0
H1460 H 0.96474 0.93474 0.60685 0.0
H1461 H 0.98477 0.86071 0.55228 0.0
H1462 H -4e-05 0.87109 0.5828 0.0
H1463 H 0.98303 0.86579 0.61613 0.0
H1464 H 0.02204 0.90619 0.69871 0.0
H1465 H 0.98026 0.89143 0.76919 0.0
H1466 H 0.00707 0.916 0.58939 0.0
H1467 H 0.01158 0.89625 0.57721 0.0
H1468 H 0.02455 0.90774 0.61365 0.0
H1469 H 0.9553 0.89668 0.67994 0.0
H1470 H 0.95911 0.88167 0.72384 0.0
H1471 H 0.96133 0.87808 0.65912 0.0
C1472 C 0.65413 0.75878 0.45654 0.0
C1473 C 0.65099 0.75032 0.49905 0.0
C1474 C 0.65345 0.75176 0.4105 0.0
C1475 C 0.64918 0.73605 0.40706 0.0
C1476 C 0.64485 0.7278 0.44948 0.0
C1477 C 0.64597 0.735 0.49521 0.0
C1478 C 0.65826 0.7609 0.36595 0.0
C1479 C 0.63979 0.71116 0.44685 0.0
C1480 C 0.64047 0.72316 0.27812 0.0
C1481 C 0.65465 0.71675 0.26425 0.0
C1482 C 0.63817 0.72866 0.32568 0.0
C1483 C 0.65048 0.72805 0.35948 0.0
C1484 C 0.66461 0.72098 0.34626 0.0
C1485 C 0.66647 0.71522 0.29873 0.0
C1486 C 0.62282 0.73574 0.33901 0.0
C1487 C 0.67807 0.7203 0.38133 0.0
H1488 H 0.65807 0.77061 0.45941 0.0
H1489 H 0.64339 0.7285 0.52809 0.0
H1490 H 0.66894 0.75584 0.35027 0.0
H1491 H 0.64922 0.76029 0.3373 0.0
H1492 H 0.66048 0.77321 0.37463 0.0
H1493 H 0.63479 0.7071 0.48199 0.0
H1494 H 0.63112 0.70957 0.41741 0.0
H1495 H 0.64984 0.70376 0.43783 0.0
H1496 H 0.63127 0.72415 0.25142 0.0
H1497 H 0.67743 0.71027 0.28786 0.0
H1498 H 0.62411 0.74841 0.34273 0.0
H1499 H 0.61875 0.73126 0.37479 0.0
H1500 H 0.61385 0.7334 0.31092 0.0
H1501 H 0.68203 0.73218 0.38973 0.0
H1502 H 0.68795 0.71368 0.36622 0.0
H1503 H 0.67449 0.71493 0.41637 0.0
C1504 C 0.50788 0.39066 0.73584 0.0
C1505 C 0.49255 0.39567 0.73946 0.0
C1506 C 0.51523 0.38978 0.69026 0.0
C1507 C 0.5071 0.39437 0.64784 0.0
C1508 C 0.49133 0.39847 0.65098 0.0
C1509 C 0.48418 0.39888 0.69682 0.0
C1510 C 0.5319 0.38483 0.68792 0.0
C1511 C 0.48231 0.40355 0.60646 0.0
C1512 C 0.52783 0.41363 0.54288 0.0
C1513 C 0.52643 0.4024 0.50647 0.0
C1514 C 0.52215 0.41089 0.59005 0.0
C1515 C 0.51532 0.39645 0.60093 0.0
C1516 C 0.51497 0.38468 0.5652 0.0
C1517 C 0.52035 0.38788 0.51802 0.0
C1518 C 0.52254 0.42379 0.6272 0.0
C1519 C 0.50821 0.369 0.57602 0.0
H1520 H 0.51433 0.388 0.76879 0.0
H1521 H 0.47233 0.40279 0.69948 0.0
H1522 H 0.53379 0.37674 0.65703 0.0
H1523 H 0.5393 0.39507 0.68146 0.0
H1524 H 0.53572 0.3792 0.72239 0.0
H1525 H 0.46991 0.40544 0.61474 0.0
H1526 H 0.48721 0.41448 0.59217 0.0
H1527 H 0.48323 0.39483 0.57693 0.0
H1528 H 0.53254 0.42485 0.53377 0.0
H1529 H 0.51948 0.37913 0.48981 0.0
H1530 H 0.52789 0.41975 0.66177 0.0
H1531 H 0.51058 0.42745 0.63589 0.0
H1532 H 0.52905 0.43399 0.61381 0.0
H1533 H 0.51247 0.36461 0.61169 0.0
H1534 H 0.51106 0.36047 0.54707 0.0
H1535 H 0.49548 0.36992 0.5786 0.0
C1536 C 0.82711 0.2745 0.78922 0.0
C1537 C 0.83795 0.27324 0.75161 0.0
C1538 C 0.83042 0.26881 0.83601 0.0
C1539 C 0.84506 0.26212 0.84528 0.0
C1540 C 0.85644 0.26194 0.80833 0.0
C1541 C 0.85266 0.26731 0.76155 0.0
C1542 C 0.81792 0.26902 0.8745 0.0
C1543 C 0.87232 0.25537 0.81741 0.0
C1544 C 0.85181 0.25459 0.97961 0.0
C1545 C 0.8468 0.23926 0.98342 0.0
C1546 C 0.85249 0.26194 0.93401 0.0
C1547 C 0.84769 0.25383 0.8918 0.0
C1548 C 0.84374 0.23803 0.89503 0.0
C1549 C 0.84353 0.23087 0.94088 0.0
C1550 C 0.85734 0.27864 0.93152 0.0
C1551 C 0.83845 0.22902 0.85075 0.0
H1552 H 0.81574 0.27909 0.78134 0.0
H1553 H 0.86111 0.26656 0.73239 0.0
H1554 H 0.81452 0.25701 0.88352 0.0
H1555 H 0.82224 0.27441 0.90863 0.0
H1556 H 0.80749 0.27539 0.86221 0.0
H1557 H 0.88053 0.25848 0.78782 0.0
H1558 H 0.87698 0.25953 0.85286 0.0
H1559 H 0.87162 0.24262 0.81945 0.0
H1560 H 0.85453 0.26105 0.01248 0.0
H1561 H 0.83965 0.21902 0.94366 0.0
H1562 H 0.84699 0.28601 0.92659 0.0
H1563 H 0.86504 0.28065 0.89974 0.0
H1564 H 0.86336 0.28236 0.96541 0.0
H1565 H 0.82732 0.23377 0.83747 0.0
H1566 H 0.83684 0.21657 0.85895 0.0
H1567 H 0.84691 0.23013 0.82053 0.0
C1568 C 0.97927 0.60363 0.23365 0.0
C1569 C 0.99464 0.59875 0.23762 0.0
C1570 C 0.97191 0.60407 0.18804 0.0
C1571 C 0.98005 0.59915 0.14604 0.0
C1572 C -0.00406 0.59551 0.14934 0.0
C1573 C 0.00311 0.59556 0.19519 0.0
C1574 C 0.95513 0.60863 0.18545 0.0
C1575 C 0.005 0.59013 0.1053 0.0
C1576 C 0.95939 0.57694 0.04689 0.0
C1577 C 0.96017 0.58738 0.00802 0.0
C1578 C 0.96529 0.5809 0.09291 0.0
C1579 C 0.97168 0.59578 0.10014 0.0
C1580 C 0.9714 0.60673 0.06189 0.0
C1581 C 0.96585 0.6023 0.0159 0.0
C1582 C 0.96558 0.56885 0.13282 0.0
C1583 C 0.97762 0.62285 0.06879 0.0
H1584 H 0.97276 0.60631 0.26645 0.0
H1585 H 0.015 0.5918 0.19812 0.0
H1586 H 0.95288 0.61592 0.15285 0.0
H1587 H 0.94791 0.59812 0.18203 0.0
H1588 H 0.95142 0.61499 0.21873 0.0
H1589 H 0.01752 0.58904 0.11326 0.0
H1590 H 0.00063 0.5787 0.09336 0.0
H1591 H 0.00348 0.59821 0.07426 0.0
H1592 H 0.955 0.56541 0.04059 0.0
H1593 H 0.96624 0.61043 0.98574 0.0
H1594 H 0.9601 0.57339 0.16653 0.0
H1595 H 0.97771 0.56594 0.142 0.0
H1596 H 0.95953 0.55809 0.1219 0.0
H1597 H 0.97361 0.62779 0.10401 0.0
H1598 H 0.97409 0.63066 0.03856 0.0
H1599 H 0.9904 0.62248 0.06995 0.0
C1600 C 0.66318 0.27774 0.17692 0.0
C1601 C 0.65124 0.27628 0.21096 0.0
C1602 C 0.66145 0.27205 0.12928 0.0
C1603 C 0.64731 0.26513 0.11545 0.0
C1604 C 0.63486 0.26463 0.14874 0.0
C1605 C 0.63704 0.27006 0.19647 0.0
C1606 C 0.67505 0.2726 0.09478 0.0
C1607 C 0.61949 0.25773 0.13473 0.0
C1608 C 0.64364 0.25811 0.97952 0.0
C1609 C 0.64861 0.24276 0.97615 0.0
C1610 C 0.64219 0.26535 0.02512 0.0
C1611 C 0.64617 0.25709 0.0679 0.0
C1612 C 0.65036 0.24134 0.06487 0.0
C1613 C 0.65136 0.2343 0.01892 0.0
C1614 C 0.63721 0.28201 0.02729 0.0
C1615 C 0.65481 0.2322 0.10981 0.0
H1616 H 0.67416 0.28256 0.18826 0.0
H1617 H 0.62774 0.26912 0.22281 0.0
H1618 H 0.67895 0.26068 0.08658 0.0
H1619 H 0.67166 0.27799 0.05959 0.0
H1620 H 0.68492 0.27913 0.11031 0.0
H1621 H 0.61041 0.26028 0.16226 0.0
H1622 H 0.61567 0.26216 0.09861 0.0
H1623 H 0.62064 0.24503 0.13146 0.0
H1624 H 0.64134 0.26462 0.94642 0.0
H1625 H 0.65524 0.22244 0.01641 0.0
H1626 H 0.64726 0.28936 0.03657 0.0
H1627 H 0.62843 0.28371 0.05635 0.0
H1628 H 0.63236 0.28604 -0.00813 0.0
H1629 H 0.66542 0.23716 0.12614 0.0
H1630 H 0.65698 0.21985 0.10137 0.0
H1631 H 0.64559 0.23291 0.13785 0.0
C1632 C 0.95961 0.41633 0.42087 0.0
C1633 C 0.96145 0.40396 0.45318 0.0
C1634 C 0.96518 0.41538 0.37285 0.0
C1635 C 0.97237 0.4016 0.35687 0.0
C1636 C 0.97331 0.38873 0.38846 0.0
C1637 C 0.968 0.39014 0.43659 0.0
C1638 C 0.96419 0.42941 0.34024 0.0
C1639 C 0.98053 0.37374 0.37217 0.0
C1640 C 0.97902 0.39891 0.22035 0.0
C1641 C 0.99437 0.40384 0.21686 0.0
C1642 C 0.97185 0.39737 0.26604 0.0
C1643 C 0.98019 0.40121 0.30882 0.0
C1644 C -0.00413 0.4056 0.30559 0.0
C1645 C 0.00284 0.40669 0.25956 0.0
C1646 C 0.95524 0.39222 0.26841 0.0
C1647 C 0.00507 0.40994 0.35052 0.0
H1648 H 0.95456 0.42701 0.43385 0.0
H1649 H 0.96923 0.38051 0.4616 0.0
H1650 H 0.97598 0.43371 0.3323 0.0
H1651 H 0.95879 0.42637 0.30473 0.0
H1652 H 0.95744 0.43889 0.35725 0.0
H1653 H 0.97849 0.36428 0.39883 0.0
H1654 H 0.97589 0.3702 0.33602 0.0
H1655 H 0.99316 0.37529 0.36794 0.0
H1656 H 0.97249 0.39658 0.18731 0.0
H1657 H 0.01469 0.41058 0.25695 0.0
H1658 H 0.94786 0.40201 0.28003 0.0
H1659 H 0.95385 0.38294 0.296 0.0
H1660 H 0.951 0.38796 0.23251 0.0
H1661 H -0.00018 0.4202 0.36816 0.0
H1662 H 0.0173 0.4126 0.34176 0.0
H1663 H 0.00482 0.40043 0.37763 0.0
C1664 C 0.8287 0.71146 0.68128 0.0
C1665 C 0.8398 0.71233 0.71828 0.0
C1666 C 0.83182 0.71733 0.6346 0.0
C1667 C 0.8465 0.7238 0.62477 0.0
C1668 C 0.85811 0.72363 0.66105 0.0
C1669 C 0.85453 0.71808 0.70777 0.0
C1670 C 0.81909 0.71749 0.59683 0.0
C1671 C 0.87403 0.72998 0.65133 0.0
C1672 C 0.85244 0.73133 0.49019 0.0
C1673 C 0.84759 0.74672 0.48682 0.0
C1674 C 0.8534 0.72396 0.53569 0.0
C1675 C 0.84903 0.73212 0.57827 0.0
C1676 C 0.84528 0.74799 0.5754 0.0
C1677 C 0.8448 0.75516 0.52959 0.0
C1678 C 0.85802 0.70719 0.53774 0.0
C1679 C 0.84046 0.75705 0.62009 0.0
H1680 H 0.81731 0.70701 0.68958 0.0
H1681 H 0.86317 0.71854 0.73645 0.0
H1682 H 0.81591 0.72958 0.58819 0.0
H1683 H 0.8231 0.71205 0.56236 0.0
H1684 H 0.8086 0.71133 0.60957 0.0
H1685 H 0.88236 0.72665 0.68038 0.0
H1686 H 0.87843 0.72586 0.61551 0.0
H1687 H 0.87351 0.74275 0.64971 0.0
H1688 H 0.85481 0.72485 0.45709 0.0
H1689 H 0.84104 0.76706 0.52708 0.0
H1690 H 0.8476 0.69997 0.54329 0.0
H1691 H 0.8659 0.70503 0.56899 0.0
H1692 H 0.86376 0.7034 0.50343 0.0
H1693 H 0.82929 0.75255 0.63387 0.0
H1694 H 0.83909 0.76954 0.61216 0.0
H1695 H 0.84904 0.75568 0.64985 0.0
C1696 C 0.52242 0.60465 0.95809 0.0
C1697 C 0.52867 0.59029 0.97066 0.0
C1698 C 0.51689 0.60743 0.9108 0.0
C1699 C 0.51727 0.59539 0.876 0.0
C1700 C 0.52425 0.58109 0.88788 0.0
C1701 C 0.53007 0.57877 0.93512 0.0
C1702 C 0.50996 0.62296 0.89887 0.0
C1703 C 0.52469 0.56791 0.85175 0.0
C1704 C 0.48611 0.59197 0.78037 0.0
C1705 C 0.49446 0.59492 0.73752 0.0
C1706 C 0.49327 0.59281 0.82618 0.0
C1707 C 0.509 0.59705 0.82899 0.0
C1708 C 0.51709 0.60137 0.78622 0.0
C1709 C 0.50975 0.60007 0.74074 0.0
C1710 C 0.48431 0.588 0.87108 0.0
C1711 C 0.53372 0.60646 0.78817 0.0
H1712 H 0.52154 0.61362 0.98562 0.0
H1713 H 0.5349 0.56767 0.94499 0.0
H1714 H 0.51414 0.62713 0.86285 0.0
H1715 H 0.49724 0.62191 0.89644 0.0
H1716 H 0.51275 0.63174 0.92715 0.0
H1717 H 0.53127 0.55785 0.86589 0.0
H1718 H 0.51275 0.56412 0.84342 0.0
H1719 H 0.52999 0.5717 0.81685 0.0
H1720 H 0.4743 0.58796 0.77797 0.0
H1721 H 0.51616 0.60253 0.70758 0.0
H1722 H 0.48518 0.59694 0.89996 0.0
H1723 H 0.48929 0.57721 0.88616 0.0
H1724 H 0.47191 0.58598 0.86298 0.0
H1725 H 0.53554 0.61482 0.81835 0.0
H1726 H 0.53749 0.61182 0.75324 0.0
H1727 H 0.54121 0.59634 0.79551 0.0
C1728 C 0.34773 0.25895 0.48733 0.0
C1729 C 0.34296 0.24355 0.48334 0.0
C1730 C 0.34824 0.26628 0.53297 0.0
C1731 C 0.34352 0.25807 0.57507 0.0
C1732 C 0.33971 0.24224 0.57164 0.0
C1733 C 0.33966 0.2351 0.52574 0.0
C1734 C 0.35289 0.28303 0.53566 0.0
C1735 C 0.3345 0.23314 0.61581 0.0
C1736 C 0.34924 0.27168 0.70492 0.0
C1737 C 0.33462 0.27769 0.71565 0.0
C1738 C 0.35269 0.26614 0.6581 0.0
C1739 C 0.34106 0.26626 0.62188 0.0
C1740 C 0.32648 0.27295 0.63197 0.0
C1741 C 0.3235 0.2788 0.67881 0.0
C1742 C 0.36849 0.25953 0.64814 0.0
C1743 C 0.31374 0.27307 0.59426 0.0
H1744 H 0.35044 0.26545 0.45454 0.0
H1745 H 0.33593 0.22321 0.52277 0.0
H1746 H 0.3425 0.29026 0.54166 0.0
H1747 H 0.3608 0.28503 0.56695 0.0
H1748 H 0.35862 0.28695 0.50149 0.0
H1749 H 0.33292 0.2207 0.60743 0.0
H1750 H 0.34299 0.23424 0.64596 0.0
H1751 H 0.32338 0.23783 0.6293 0.0
H1752 H 0.3579 0.27103 0.73349 0.0
H1753 H 0.3122 0.28344 0.68732 0.0
H1754 H 0.37305 0.26389 0.61281 0.0
H1755 H 0.36772 0.2468 0.64526 0.0
H1756 H 0.37684 0.26241 0.67763 0.0
H1757 H 0.31783 0.27848 0.55985 0.0
H1758 H 0.30336 0.2794 0.60716 0.0
H1759 H 0.31035 0.26105 0.58547 0.0
C1760 C 0.47091 0.60374 0.45886 0.0
C1761 C 0.46492 0.58921 0.47066 0.0
C1762 C 0.47628 0.60689 0.41163 0.0
C1763 C 0.47599 0.59506 0.3761 0.0
C1764 C 0.46927 0.58059 0.38724 0.0
C1765 C 0.4636 0.5779 0.43445 0.0
C1766 C 0.48294 0.6226 0.40054 0.0
C1767 C 0.46895 0.56763 0.3503 0.0
C1768 C 0.48328 0.60075 0.24108 0.0
C1769 C 0.49864 0.59585 0.23738 0.0
C1770 C 0.47596 0.60163 0.2867 0.0
C1771 C 0.48416 0.59713 0.3291 0.0
C1772 C 0.49996 0.59314 0.32588 0.0
C1773 C 0.50707 0.59273 0.27998 0.0
C1774 C 0.45925 0.60645 0.28914 0.0
C1775 C 0.50905 0.58817 0.37038 0.0
H1776 H 0.47171 0.61255 0.48691 0.0
H1777 H 0.45896 0.56666 0.44375 0.0
H1778 H 0.49567 0.62175 0.39782 0.0
H1779 H 0.47861 0.62692 0.36486 0.0
H1780 H 0.48007 0.63115 0.42941 0.0
H1781 H 0.46253 0.55741 0.36389 0.0
H1782 H 0.46355 0.57158 0.3157 0.0
H1783 H 0.48093 0.56405 0.34159 0.0
H1784 H 0.47679 0.60335 0.20815 0.0
H1785 H 0.51895 0.58891 0.27726 0.0
H1786 H 0.45734 0.61459 0.31989 0.0
H1787 H 0.45194 0.59618 0.29588 0.0
H1788 H 0.45536 0.61199 0.25461 0.0
H1789 H 0.50809 0.59692 0.39982 0.0
H1790 H 0.52145 0.58636 0.36202 0.0
H1791 H 0.50423 0.57722 0.38483 0.0
C1792 C 0.1376 0.72057 0.20499 0.0
C1793 C 0.15193 0.7141 0.21693 0.0
C1794 C 0.13469 0.72615 0.15783 0.0
C1795 C 0.14658 0.72559 0.12252 0.0
C1796 C 0.16082 0.7184 0.13377 0.0
C1797 C 0.16326 0.71253 0.1809 0.0
C1798 C 0.11921 0.7333 0.1466 0.0
C1799 C 0.17384 0.71777 0.09707 0.0
C1800 C 0.14135 0.73326 0.98751 0.0
C1801 C 0.1467 0.74848 0.98414 0.0
C1802 C 0.14018 0.7259 0.033 0.0
C1803 C 0.14483 0.7339 0.07561 0.0
C1804 C 0.14927 0.74957 0.0727 0.0
C1805 C 0.14997 0.75675 0.02691 0.0
C1806 C 0.13487 0.70934 0.03508 0.0
C1807 C 0.15442 0.75844 0.11743 0.0
H1808 H 0.12877 0.72158 0.23291 0.0
H1809 H 0.17434 0.70754 0.19029 0.0
H1810 H 0.12044 0.74601 0.14413 0.0
H1811 H 0.11482 0.72918 0.11076 0.0
H1812 H 0.11053 0.73064 0.17526 0.0
H1813 H 0.18385 0.71103 0.11074 0.0
H1814 H 0.16981 0.71255 0.06231 0.0
H1815 H 0.17777 0.72966 0.08865 0.0
H1816 H 0.13865 0.7269 0.95443 0.0
H1817 H 0.15414 0.7685 0.02442 0.0
H1818 H 0.12662 0.70763 0.06563 0.0
H1819 H 0.14492 0.70172 0.0419 0.0
H1820 H 0.12929 0.70567 0.00037 0.0
H1821 H 0.14561 0.75768 0.14671 0.0
H1822 H 0.15659 0.7708 0.10931 0.0
H1823 H 0.16521 0.75329 0.13199 0.0
C1824 C 0.98277 0.3961 0.76328 0.0
C1825 C 0.9912 0.39306 0.72064 0.0
C1826 C 0.99 0.39614 0.80903 0.0
C1827 C 0.00591 0.39262 0.8121 0.0
C1828 C 0.01407 0.38795 0.76984 0.0
C1829 C 0.00665 0.38842 0.7243 0.0
C1830 C 0.98092 0.4013 0.85332 0.0
C1831 C 0.03089 0.38351 0.77216 0.0
C1832 C 0.0262 0.41428 0.91321 0.0
C1833 C 0.02524 0.40363 0.95146 0.0
C1834 C 0.02053 0.41056 0.86668 0.0
C1835 C 0.01423 0.3957 0.85831 0.0
C1836 C 0.01441 0.38453 0.89593 0.0
C1837 C 0.01969 0.38873 0.94246 0.0
C1838 C 0.02033 0.42286 0.82753 0.0
C1839 C 0.0083 0.36843 0.88781 0.0
H1840 H 0.97082 0.3997 0.7606 0.0
H1841 H 0.01314 0.38588 0.69135 0.0
H1842 H 0.98234 0.39298 0.88379 0.0
H1843 H 0.98537 0.4126 0.86613 0.0
H1844 H 0.96842 0.40253 0.84531 0.0
H1845 H 0.03466 0.37738 0.73851 0.0
H1846 H 0.03802 0.39404 0.77625 0.0
H1847 H 0.03318 0.37604 0.80432 0.0
H1848 H 0.03048 0.4258 0.92039 0.0
H1849 H 0.01917 0.38045 0.97215 0.0
H1850 H 0.00821 0.42585 0.81839 0.0
H1851 H 0.02584 0.41852 0.79359 0.0
H1852 H 0.02638 0.43353 0.8392 0.0
H1853 H 0.99553 0.36873 0.88635 0.0
H1854 H 0.01181 0.36044 0.91761 0.0
H1855 H 0.01244 0.36374 0.85237 0.0
C1856 C 0.34338 0.75683 0.94328 0.0
C1857 C 0.34668 0.74847 0.98586 0.0
C1858 C 0.34393 0.74971 0.89738 0.0
C1859 C 0.34824 0.73399 0.8942 0.0
C1860 C 0.35297 0.72592 0.93657 0.0
C1861 C 0.35196 0.73323 0.98217 0.0
C1862 C 0.3387 0.75866 0.85291 0.0
C1863 C 0.35814 0.70932 0.93417 0.0
C1864 C 0.32906 0.71274 0.79006 0.0
C1865 C 0.34024 0.71409 0.7535 0.0
C1866 C 0.33177 0.71867 0.83695 0.0
C1867 C 0.34615 0.72571 0.8474 0.0
C1868 C 0.35787 0.72607 0.81153 0.0
C1869 C 0.35469 0.72043 0.76464 0.0
C1870 C 0.31894 0.71824 0.87429 0.0
C1871 C 0.37348 0.73307 0.8219 0.0
H1872 H 0.33927 0.76861 0.94603 0.0
H1873 H 0.3547 0.72681 0.0151 0.0
H1874 H 0.34735 0.75774 0.82317 0.0
H1875 H 0.32776 0.75369 0.83894 0.0
H1876 H 0.33678 0.77105 0.86114 0.0
H1877 H 0.36387 0.70559 0.96858 0.0
H1878 H 0.348 0.70178 0.92788 0.0
H1879 H 0.36621 0.70753 0.90318 0.0
H1880 H 0.31789 0.70784 0.78129 0.0
H1881 H 0.36341 0.72127 0.73632 0.0
H1882 H 0.31521 0.73018 0.88294 0.0
H1883 H 0.32307 0.71295 0.90884 0.0
H1884 H 0.30876 0.71166 0.86113 0.0
H1885 H 0.37238 0.74579 0.82436 0.0
H1886 H 0.38199 0.7303 0.79282 0.0
H1887 H 0.37801 0.72893 0.85754 0.0
C1888 C 0.00402 0.59284 0.73742 0.0
C1889 C 0.98875 0.58767 0.74116 0.0
C1890 C 0.01112 0.59438 0.69166 0.0
C1891 C 0.00282 0.59031 0.64906 0.0
C1892 C 0.98717 0.58579 0.65249 0.0
C1893 C 0.98026 0.58468 0.69861 0.0
C1894 C 0.02769 0.59967 0.6891 0.0
C1895 C 0.978 0.58123 0.60773 0.0
C1896 C 0.01554 0.60092 0.52136 0.0
C1897 C 0.02232 0.5871 0.50574 0.0
C1898 C 0.00986 0.60245 0.56902 0.0
C1899 C 0.01069 0.58971 0.60115 0.0
C1900 C 0.01806 0.57592 0.58613 0.0
C1901 C 0.02397 0.57484 0.53856 0.0
C1902 C 0.00244 0.61746 0.5843 0.0
C1903 C 0.01897 0.56203 0.61938 0.0
H1904 H 0.01056 0.59529 0.77036 0.0
H1905 H 0.96847 0.58062 0.70145 0.0
H1906 H 0.03517 0.58988 0.67817 0.0
H1907 H 0.02903 0.6088 0.66096 0.0
H1908 H 0.03186 0.6042 0.72477 0.0
H1909 H 0.96576 0.57868 0.61652 0.0
H1910 H 0.97834 0.59056 0.58 0.0
H1911 H 0.98322 0.57083 0.59082 0.0
H1912 H 0.01444 0.61047 0.49597 0.0
H1913 H 0.0292 0.56415 0.52634 0.0
H1914 H 0.007 0.62126 0.62028 0.0
H1915 H 0.98983 0.61578 0.58854 0.0
H1916 H 0.0044 0.62678 0.55711 0.0
H1917 H 0.02436 0.56523 0.65478 0.0
H1918 H 0.02571 0.55245 0.60289 0.0
H1919 H 0.00716 0.5578 0.62745 0.0
C1920 C 0.16596 0.2833 0.3209 0.0
C1921 C 0.15403 0.28183 0.28679 0.0
C1922 C 0.16417 0.27767 0.36861 0.0
C1923 C 0.14997 0.27085 0.38244 0.0
C1924 C 0.13752 0.27043 0.34908 0.0
C1925 C 0.13979 0.27573 0.30125 0.0
C1926 C 0.17778 0.27808 0.40308 0.0
C1927 C 0.12209 0.2637 0.36309 0.0
C1928 C 0.15374 0.23967 0.47794 0.0
C1929 C 0.15116 0.24801 0.52105 0.0
C1930 C 0.15281 0.24688 0.43226 0.0
C1931 C 0.14881 0.26269 0.42979 0.0
C1932 C 0.14499 0.27084 0.47292 0.0
C1933 C 0.14641 0.26344 0.51828 0.0
C1934 C 0.15714 0.23784 0.387 0.0
C1935 C 0.14016 0.28756 0.47136 0.0
H1936 H 0.17697 0.288 0.30951 0.0
H1937 H 0.13051 0.2748 0.27479 0.0
H1938 H 0.17444 0.28343 0.43839 0.0
H1939 H 0.18163 0.26613 0.41102 0.0
H1940 H 0.18768 0.2846 0.38764 0.0
H1941 H 0.11301 0.26646 0.33576 0.0
H1942 H 0.12307 0.25097 0.36589 0.0
H1943 H 0.11838 0.26806 0.39941 0.0
H1944 H 0.15748 0.22775 0.48 0.0
H1945 H 0.14427 0.26986 0.55165 0.0
H1946 H 0.16774 0.24282 0.37057 0.0
H1947 H 0.14787 0.23865 0.35917 0.0
H1948 H 0.15929 0.22547 0.39505 0.0
H1949 H 0.15027 0.29486 0.46241 0.0
H1950 H 0.13534 0.2915 0.50691 0.0
H1951 H 0.1314 0.28945 0.44233 0.0
C1952 C 0.48106 0.39261 0.23685 0.0
C1953 C 0.4964 0.3976 0.24008 0.0
C1954 C 0.47373 0.39132 0.19134 0.0
C1955 C 0.48188 0.39548 0.14855 0.0
C1956 C 0.49765 0.39961 0.1514 0.0
C1957 C 0.50479 0.40044 0.19723 0.0
C1958 C 0.45705 0.38636 0.18936 0.0
C1959 C 0.50668 0.40426 0.10647 0.0
C1960 C 0.46859 0.38757 0.01951 0.0
C1961 C 0.46245 0.40194 0.00641 0.0
C1962 C 0.47404 0.3849 0.06697 0.0
C1963 C 0.47369 0.39706 0.10139 0.0
C1964 C 0.46682 0.41136 0.08896 0.0
C1965 C 0.46108 0.41357 0.04157 0.0
C1966 C 0.48086 0.36937 0.07947 0.0
C1967 C 0.46641 0.42466 0.12467 0.0
H1968 H 0.47461 0.39024 0.27 0.0
H1969 H 0.51664 0.40433 0.19963 0.0
H1970 H 0.44967 0.39651 0.18152 0.0
H1971 H 0.45521 0.3779 0.15946 0.0
H1972 H 0.45319 0.38116 0.22443 0.0
H1973 H 0.51907 0.40625 0.11466 0.0
H1974 H 0.5058 0.39524 0.07784 0.0
H1975 H 0.50176 0.41503 0.09103 0.0
H1976 H 0.46945 0.37851 -0.00772 0.0
H1977 H 0.45633 0.42467 0.03129 0.0
H1978 H 0.47658 0.36533 0.11553 0.0
H1979 H 0.49358 0.37035 0.08212 0.0
H1980 H 0.47807 0.36053 0.0514 0.0
H1981 H 0.46107 0.421 0.15965 0.0
H1982 H 0.4599 0.4347 0.11016 0.0
H1983 H 0.47837 0.42841 0.13298 0.0
C1984 C 0.13842 0.34594 0.13903 0.0
C1985 C 0.13464 0.3331 0.11027 0.0
C1986 C 0.12835 0.35855 0.14246 0.0
C1987 C 0.11442 0.35837 0.11555 0.0
C1988 C 0.11108 0.34588 0.08387 0.0
C1989 C 0.12116 0.33327 0.08213 0.0
C1990 C 0.13215 0.37154 0.17722 0.0
C1991 C 0.09652 0.34549 0.05355 0.0
C1992 C 0.078 0.37795 0.15892 0.0
C1993 C 0.0774 0.3908 0.12799 0.0
C1994 C 0.09059 0.36785 0.15755 0.0
C1995 C 0.10261 0.37047 0.12347 0.0
C1996 C 0.10243 0.38386 0.0939 0.0
C1997 C 0.08987 0.394 0.09696 0.0
C1998 C 0.09061 0.3539 0.19068 0.0
C1999 C 0.11491 0.38691 0.05662 0.0
H2000 H 0.14882 0.34575 0.16109 0.0
H2001 H 0.11831 0.32338 0.05962 0.0
H2002 H 0.1305 0.38288 0.15918 0.0
H2003 H 0.12419 0.37111 0.20898 0.0
H2004 H 0.14418 0.37082 0.19103 0.0
H2005 H 0.0965 0.33581 0.02691 0.0
H2006 H 0.08638 0.3442 0.07795 0.0
H2007 H 0.0951 0.35648 0.03322 0.0
H2008 H 0.0684 0.37556 0.18319 0.0
H2009 H 0.08936 0.4039 0.07277 0.0
H2010 H 0.10194 0.35269 0.20916 0.0
H2011 H 0.08872 0.34334 0.16857 0.0
H2012 H 0.08144 0.35455 0.21901 0.0
H2013 H 0.1265 0.38541 0.07313 0.0
H2014 H 0.1141 0.39871 0.04095 0.0
H2015 H 0.11389 0.37845 0.02633 0.0
C2016 C 0.87079 0.83084 0.41083 0.0
C2017 C 0.85699 0.82953 0.38468 0.0
C2018 C 0.88066 0.84338 0.40318 0.0
C2019 C 0.87676 0.85459 0.36754 0.0
C2020 C 0.86241 0.85378 0.34307 0.0
C2021 C 0.85257 0.8413 0.3524 0.0
C2022 C 0.89568 0.84412 0.43109 0.0
C2023 C 0.85796 0.86539 0.30439 0.0
C2024 C 0.9022 0.89001 0.36746 0.0
C2025 C 0.91412 0.88518 0.33632 0.0
C2026 C 0.88944 0.88049 0.37629 0.0
C2027 C 0.8885 0.86605 0.35246 0.0
C2028 C 0.89986 0.86175 0.3178 0.0
C2029 C 0.91268 0.87131 0.31065 0.0
C2030 C 0.87766 0.88536 0.41392 0.0
C2031 C 0.899 0.84662 0.29056 0.0
H2032 H 0.87413 0.82178 0.43608 0.0
H2033 H 0.84192 0.84023 0.33191 0.0
H2034 H 0.90541 0.84166 0.40591 0.0
H2035 H 0.89747 0.85585 0.44628 0.0
H2036 H 0.89607 0.83566 0.4616 0.0
H2037 H 0.8456 0.86448 0.29416 0.0
H2038 H 0.86031 0.87731 0.31703 0.0
H2039 H 0.86503 0.8634 0.27111 0.0
H2040 H 0.90336 0.90072 0.38757 0.0
H2041 H 0.92184 0.86765 0.28626 0.0
H2042 H 0.87931 0.87846 0.44772 0.0
H2043 H 0.86578 0.88316 0.40062 0.0
H2044 H 0.87873 0.89777 0.42351 0.0
H2045 H 0.90117 0.83697 0.31633 0.0
H2046 H 0.90761 0.84595 0.26053 0.0
H2047 H 0.88732 0.84495 0.27484 0.0
C2048 C 0.34984 0.64784 0.61983 0.0
C2049 C 0.35442 0.65958 0.58765 0.0
C2050 C 0.35954 0.63525 0.6293 0.0
C2051 C 0.37393 0.63429 0.60514 0.0
C2052 C 0.37797 0.64545 0.5695 0.0
C2053 C 0.36823 0.65809 0.56164 0.0
C2054 C 0.35492 0.62369 0.66791 0.0
C2055 C 0.39304 0.64456 0.54193 0.0
C2056 C 0.40957 0.6174 0.66345 0.0
C2057 C 0.41104 0.60349 0.63792 0.0
C2058 C 0.39684 0.62703 0.65571 0.0
C2059 C 0.38557 0.62278 0.62068 0.0
C2060 C 0.38651 0.6083 0.59705 0.0
C2061 C 0.3992 0.59872 0.6064 0.0
C2062 C 0.39598 0.64221 0.68272 0.0
C2063 C 0.37482 0.60346 0.5591 0.0
H2064 H 0.33918 0.64903 0.64021 0.0
H2065 H 0.3717 0.66711 0.53646 0.0
H2066 H 0.35725 0.61174 0.65543 0.0
H2067 H 0.36188 0.62566 0.70141 0.0
H2068 H 0.34252 0.62468 0.67771 0.0
H2069 H 0.39354 0.65299 0.51133 0.0
H2070 H 0.40273 0.64699 0.5673 0.0
H2071 H 0.39479 0.6328 0.52692 0.0
H2072 H 0.41867 0.62102 0.68813 0.0
H2073 H 0.40036 0.58798 0.58639 0.0
H2074 H 0.38427 0.64396 0.69812 0.0
H2075 H 0.39825 0.65181 0.65687 0.0
H2076 H 0.40452 0.64288 0.71296 0.0
H2077 H 0.36291 0.60577 0.57197 0.0
H2078 H 0.37584 0.59104 0.54973 0.0
H2079 H 0.37661 0.6103 0.52525 0.0
C2080 C 0.62479 0.15836 0.90853 0.0
C2081 C 0.63827 0.15949 0.88065 0.0
C2082 C 0.61484 0.14577 0.90291 0.0
C2083 C 0.61831 0.13431 0.86766 0.0
C2084 C 0.63239 0.13491 0.84162 0.0
C2085 C 0.64232 0.14746 0.84886 0.0
C2086 C 0.60012 0.14528 0.93243 0.0
C2087 C 0.63641 0.12301 0.80337 0.0
C2088 C 0.59265 0.09905 0.87151 0.0
C2089 C 0.58055 0.10375 0.84089 0.0
C2090 C 0.60552 0.10856 0.87896 0.0
C2091 C 0.60635 0.12287 0.85433 0.0
C2092 C 0.59474 0.12705 0.82033 0.0
C2093 C 0.58185 0.1175 0.8145 0.0
C2094 C 0.61757 0.10381 0.9159 0.0
C2095 C 0.59545 0.14205 0.79231 0.0
H2096 H 0.62173 0.16761 0.93343 0.0
H2097 H 0.65273 0.14837 0.82706 0.0
H2098 H 0.59014 0.14768 0.90815 0.0
H2099 H 0.59841 0.13365 0.94842 0.0
H2100 H 0.60011 0.15391 0.9625 0.0
H2101 H 0.64868 0.12377 0.79195 0.0
H2102 H 0.63411 0.11119 0.81705 0.0
H2103 H 0.62905 0.12481 0.77062 0.0
H2104 H 0.59161 0.08843 0.89218 0.0
H2105 H 0.57254 0.12106 0.79051 0.0
H2106 H 0.61626 0.11092 0.94942 0.0
H2107 H 0.62935 0.10585 0.9015 0.0
H2108 H 0.61649 0.09147 0.92628 0.0
H2109 H 0.59364 0.15184 0.81783 0.0
H2110 H 0.58654 0.14267 0.76313 0.0
H2111 H 0.60698 0.14353 0.77534 0.0
C2112 C 0.07892 0.62068 0.31795 0.0
C2113 C 0.07739 0.60668 0.34282 0.0
C2114 C 0.09188 0.63003 0.32524 0.0
C2115 C 0.10331 0.6254 0.35928 0.0
C2116 C 0.10217 0.61091 0.38274 0.0
C2117 C 0.08926 0.6016 0.37374 0.0
C2118 C 0.09292 0.64523 0.29844 0.0
C2119 C 0.114 0.60572 0.41981 0.0
C2120 C 0.13988 0.64911 0.3555 0.0
C2121 C 0.13607 0.6611 0.38774 0.0
C2122 C 0.12966 0.63684 0.34756 0.0
C2123 C 0.11553 0.63647 0.37341 0.0
C2124 C 0.1123 0.64784 0.40917 0.0
C2125 C 0.12253 0.66017 0.41542 0.0
C2126 C 0.13341 0.62505 0.30871 0.0
C2127 C 0.09755 0.64756 0.43855 0.0
H2128 H 0.06978 0.62453 0.29376 0.0
H2129 H 0.08801 0.59079 0.39329 0.0
H2130 H 0.09131 0.65485 0.3247 0.0
H2131 H 0.10449 0.6466 0.28167 0.0
H2132 H 0.08406 0.64627 0.26925 0.0
H2133 H 0.11257 0.59338 0.42975 0.0
H2134 H 0.12586 0.60749 0.40573 0.0
H2135 H 0.11281 0.61275 0.45353 0.0
H2136 H 0.15033 0.64987 0.33384 0.0
H2137 H 0.11966 0.66939 0.44065 0.0
H2138 H 0.12608 0.62717 0.27608 0.0
H2139 H 0.13087 0.61322 0.32181 0.0
H2140 H 0.14569 0.62561 0.29728 0.0
H2141 H 0.08766 0.6504 0.41437 0.0
H2142 H 0.09776 0.65597 0.4692 0.0
H2143 H 0.0955 0.63587 0.45372 0.0
C2144 C 0.62707 0.83485 0.56936 0.0
C2145 C 0.64069 0.83361 0.59655 0.0
C2146 C 0.61712 0.84739 0.57598 0.0
C2147 C 0.62076 0.85872 0.6115 0.0
C2148 C 0.63499 0.85807 0.63669 0.0
C2149 C 0.6449 0.84555 0.6285 0.0
C2150 C 0.60223 0.84795 0.54734 0.0
C2151 C 0.6392 0.86985 0.67512 0.0
C2152 C 0.5947 0.89373 0.6103 0.0
C2153 C 0.58281 0.88878 0.6413 0.0
C2154 C 0.60766 0.88442 0.60199 0.0
C2155 C 0.6088 0.87003 0.62608 0.0
C2156 C 0.59743 0.86563 0.66057 0.0
C2157 C 0.58445 0.87499 0.66733 0.0
C2158 C 0.61946 0.88943 0.56463 0.0
C2159 C 0.59847 0.85054 0.68803 0.0
H2160 H 0.62389 0.82568 0.54433 0.0
H2161 H 0.65542 0.84457 0.64975 0.0
H2162 H 0.59241 0.84541 0.5721 0.0
H2163 H 0.60037 0.85964 0.53194 0.0
H2164 H 0.60208 0.83945 0.51692 0.0
H2165 H 0.65157 0.86914 0.6855 0.0
H2166 H 0.63667 0.8817 0.66216 0.0
H2167 H 0.63214 0.86782 0.70837 0.0
H2168 H 0.59341 0.90439 0.58994 0.0
H2169 H 0.57531 0.87123 0.69163 0.0
H2170 H 0.61797 0.88252 0.53076 0.0
H2171 H 0.63134 0.88735 0.57817 0.0
H2172 H 0.61825 0.90183 0.55507 0.0
H2173 H 0.59659 0.84082 0.6623 0.0
H2174 H 0.58976 0.84974 0.71774 0.0
H2175 H 0.61012 0.8491 0.70423 0.0
C2176 C 0.3969 0.39201 0.86587 0.0
C2177 C 0.40893 0.38727 0.83504 0.0
C2178 C 0.38406 0.38251 0.87374 0.0
C2179 C 0.38317 0.36816 0.84929 0.0
C2180 C 0.39466 0.36397 0.81496 0.0
C2181 C 0.40754 0.3735 0.80873 0.0
C2182 C 0.37214 0.38728 0.91104 0.0
C2183 C 0.39387 0.34895 0.78708 0.0
C2184 C 0.36488 0.33293 0.90587 0.0
C2185 C 0.35115 0.33184 0.87922 0.0
C2186 C 0.37493 0.34537 0.89882 0.0
C2187 C 0.37129 0.35671 0.86333 0.0
C2188 C 0.35704 0.3561 0.83823 0.0
C2189 C 0.34702 0.34372 0.84692 0.0
C2190 C 0.38985 0.34587 0.92734 0.0
C2191 C 0.35288 0.36786 0.79968 0.0
H2192 H 0.39801 0.40264 0.88648 0.0
H2193 H 0.41679 0.36991 0.78458 0.0
H2194 H 0.36031 0.38524 0.89701 0.0
H2195 H 0.37355 0.38018 0.94454 0.0
H2196 H 0.37326 0.39962 0.92135 0.0
H2197 H 0.40261 0.34835 0.75744 0.0
H2198 H 0.39587 0.33919 0.81257 0.0
H2199 H 0.38225 0.34739 0.77076 0.0
H2200 H 0.368 0.3238 0.93113 0.0
H2201 H 0.33642 0.34283 0.82603 0.0
H2202 H 0.39166 0.35752 0.94314 0.0
H2203 H 0.39966 0.34347 0.90243 0.0
H2204 H 0.39007 0.33727 0.95747 0.0
H2205 H 0.35517 0.37973 0.81294 0.0
H2206 H 0.34058 0.36702 0.78859 0.0
H2207 H 0.36016 0.36598 0.76681 0.0
C2208 C 0.849 0.14387 0.11239 0.0
C2209 C 0.85395 0.15577 0.08143 0.0
C2210 C 0.85844 0.13103 0.12132 0.0
C2211 C 0.87294 0.13004 0.09786 0.0
C2212 C 0.87733 0.14139 0.06327 0.0
C2213 C 0.86785 0.15424 0.05594 0.0
C2214 C 0.85343 0.11926 0.15876 0.0
C2215 C 0.89253 0.14049 0.03642 0.0
C2216 C 0.90832 0.11278 0.15634 0.0
C2217 C 0.90998 0.09914 0.12952 0.0
C2218 C 0.89553 0.12237 0.14917 0.0
C2219 C 0.8844 0.11835 0.11342 0.0
C2220 C 0.88548 0.10406 0.08869 0.0
C2221 C 0.89823 0.09451 0.09747 0.0
C2222 C 0.89452 0.13732 0.17735 0.0
C2223 C 0.87392 0.09946 0.05004 0.0
H2224 H 0.83826 0.14508 0.13233 0.0
H2225 H 0.87159 0.1634 0.03167 0.0
H2226 H 0.85587 0.10738 0.14585 0.0
H2227 H 0.86006 0.12104 0.19305 0.0
H2228 H 0.84095 0.12022 0.16738 0.0
H2229 H 0.8933 0.1491 0.00641 0.0
H2230 H 0.90212 0.14263 0.06245 0.0
H2231 H 0.89422 0.12881 0.02074 0.0
H2232 H 0.91735 0.11628 0.18146 0.0
H2233 H 0.89955 0.08397 0.07653 0.0
H2234 H 0.88272 0.13898 0.19214 0.0
H2235 H 0.89697 0.14712 0.15244 0.0
H2236 H 0.90287 0.13773 0.20817 0.0
H2237 H 0.86197 0.10187 0.06233 0.0
H2238 H 0.87487 0.08704 0.04042 0.0
H2239 H 0.87598 0.10635 0.01646 0.0
C2240 C 0.86513 0.65605 0.91269 0.0
C2241 C 0.8513 0.65773 0.88682 0.0
C2242 C 0.87443 0.64302 0.90596 0.0
C2243 C 0.86991 0.63162 0.87168 0.0
C2244 C 0.8555 0.6328 0.84774 0.0
C2245 C 0.84626 0.64582 0.85601 0.0
C2246 C 0.88954 0.64194 0.93323 0.0
C2247 C 0.85037 0.62097 0.81062 0.0
C2248 C 0.9048 0.61288 0.81453 0.0
C2249 C 0.90594 0.59927 0.84181 0.0
C2250 C 0.89241 0.623 0.82139 0.0
C2251 C 0.88112 0.61955 0.8572 0.0
C2252 C 0.88168 0.60535 0.88259 0.0
C2253 C 0.89405 0.59527 0.87419 0.0
C2254 C 0.89195 0.63786 0.79258 0.0
C2255 C 0.86994 0.60134 0.92134 0.0
H2256 H 0.86896 0.6652 0.93684 0.0
H2257 H 0.83558 0.64714 0.83577 0.0
H2258 H 0.89094 0.63032 0.94962 0.0
H2259 H 0.89924 0.64371 0.90732 0.0
H2260 H 0.89044 0.6507 0.96275 0.0
H2261 H 0.83799 0.62227 0.80101 0.0
H2262 H 0.8573 0.62232 0.77674 0.0
H2263 H 0.85233 0.60911 0.82444 0.0
H2264 H 0.91393 0.61591 0.78917 0.0
H2265 H 0.89494 0.58476 0.89552 0.0
H2266 H 0.8946 0.64769 0.8172 0.0
H2267 H 0.88026 0.6398 0.77724 0.0
H2268 H 0.90043 0.6379 0.76208 0.0
H2269 H 0.87205 0.6085 0.95432 0.0
H2270 H 0.87059 0.589 0.93213 0.0
H2271 H 0.85808 0.60389 0.90846 0.0
C2272 C 0.14104 0.15285 0.64397 0.0
C2273 C 0.13763 0.16535 0.61332 0.0
C2274 C 0.13078 0.14044 0.64834 0.0
C2275 C 0.11703 0.14046 0.62043 0.0
C2276 C 0.1141 0.15256 0.58688 0.0
C2277 C 0.12435 0.165 0.58426 0.0
C2278 C 0.13414 0.12788 0.6851 0.0
C2279 C 0.09977 0.15274 0.55545 0.0
C2280 C 0.09229 0.10481 0.60565 0.0
C2281 C 0.07969 0.10855 0.63552 0.0
C2282 C 0.10491 0.11483 0.60165 0.0
C2283 C 0.10501 0.12865 0.62914 0.0
C2284 C 0.09281 0.13189 0.66202 0.0
C2285 C 0.08016 0.12189 0.66428 0.0
C2286 C 0.11758 0.11113 0.56559 0.0
C2287 C 0.09274 0.14632 0.69301 0.0
H2288 H 0.15128 0.15318 0.66676 0.0
H2289 H 0.12179 0.17464 0.5603 0.0
H2290 H 0.12593 0.12884 0.71612 0.0
H2291 H 0.13249 0.11633 0.66847 0.0
H2292 H 0.14606 0.12864 0.69978 0.0
H2293 H 0.1001 0.16202 0.52745 0.0
H2294 H 0.09832 0.14149 0.53662 0.0
H2295 H 0.08948 0.15455 0.57887 0.0
H2296 H 0.09187 0.09453 0.58311 0.0
H2297 H 0.07045 0.12471 0.68765 0.0
H2298 H 0.12908 0.11267 0.58266 0.0
H2299 H 0.11688 0.11922 0.53421 0.0
H2300 H 0.1167 0.09916 0.55136 0.0
H2301 H 0.10395 0.14766 0.71217 0.0
H2302 H 0.08336 0.14621 0.7207 0.0
H2303 H 0.09116 0.15656 0.66921 0.0
C2304 C 0.59171 0.39212 0.36821 0.0
C2305 C 0.57976 0.38789 0.33637 0.0
C2306 C 0.60425 0.38223 0.37629 0.0
C2307 C 0.60491 0.368 0.35104 0.0
C2308 C 0.59355 0.36435 0.31564 0.0
C2309 C 0.58097 0.37427 0.30919 0.0
C2310 C 0.61605 0.38643 0.41467 0.0
C2311 C 0.59411 0.34948 0.28691 0.0
C2312 C 0.64004 0.34211 0.34965 0.0
C2313 C 0.63514 0.33018 0.38058 0.0
C2314 C 0.63065 0.35502 0.34135 0.0
C2315 C 0.61626 0.35607 0.36546 0.0
C2316 C 0.6119 0.34466 0.39987 0.0
C2317 C 0.62132 0.33172 0.40653 0.0
C2318 C 0.6356 0.36685 0.304 0.0
C2319 C 0.59683 0.34562 0.42739 0.0
H2320 H 0.59074 0.40264 0.38945 0.0
H2321 H 0.57178 0.37108 0.28425 0.0
H2322 H 0.61408 0.37932 0.44786 0.0
H2323 H 0.6279 0.38395 0.4016 0.0
H2324 H 0.61531 0.39878 0.42519 0.0
H2325 H 0.58559 0.34934 0.25653 0.0
H2326 H 0.6058 0.34765 0.27145 0.0
H2327 H 0.5916 0.33965 0.31162 0.0
H2328 H 0.65071 0.34087 0.32933 0.0
H2329 H 0.61761 0.32254 0.43075 0.0
H2330 H 0.6335 0.37871 0.31762 0.0
H2331 H 0.62866 0.36536 0.2702 0.0
H2332 H 0.64799 0.36569 0.29432 0.0
H2333 H 0.59534 0.35725 0.44363 0.0
H2334 H 0.59608 0.33689 0.45706 0.0
H2335 H 0.5871 0.34371 0.40168 0.0
C2336 C 0.36799 0.83347 0.06075 0.0
C2337 C 0.35415 0.83181 0.08648 0.0
C2338 C 0.37756 0.84621 0.06886 0.0
C2339 C 0.3733 0.8573 0.10446 0.0
C2340 C 0.35885 0.85621 0.12815 0.0
C2341 C 0.34933 0.84351 0.11845 0.0
C2342 C 0.3927 0.84724 0.04176 0.0
C2343 C 0.35399 0.86772 0.16664 0.0
C2344 C 0.40875 0.87396 0.16435 0.0
C2345 C 0.41038 0.88788 0.13899 0.0
C2346 C 0.39599 0.86443 0.15613 0.0
C2347 C 0.38486 0.86878 0.12079 0.0
C2348 C 0.38593 0.8833 0.09743 0.0
C2349 C 0.39865 0.89278 0.10724 0.0
C2350 C 0.395 0.84922 0.18286 0.0
C2351 C 0.37437 0.88826 0.05923 0.0
H2352 H 0.37165 0.82448 0.0357 0.0
H2353 H 0.33863 0.8422 0.13857 0.0
H2354 H 0.39444 0.85904 0.02709 0.0
H2355 H 0.40233 0.84479 0.06737 0.0
H2356 H 0.39334 0.83889 0.01098 0.0
H2357 H 0.34152 0.86674 0.17555 0.0
H2358 H 0.36071 0.86565 0.20058 0.0
H2359 H 0.35642 0.87968 0.15458 0.0
H2360 H 0.41777 0.87025 0.18923 0.0
H2361 H 0.39994 0.90353 0.0874 0.0
H2362 H 0.39735 0.83965 0.15695 0.0
H2363 H 0.38322 0.84748 0.19777 0.0
H2364 H 0.40342 0.84847 0.21343 0.0
H2365 H 0.37636 0.88161 0.02512 0.0
H2366 H 0.37537 0.90074 0.05054 0.0
H2367 H 0.36242 0.88583 0.07144 0.0
C2368 C 0.89619 0.38732 0.59008 0.0
C2369 C 0.90842 0.3827 0.6203 0.0
C2370 C 0.88352 0.37759 0.58222 0.0
C2371 C 0.88299 0.36313 0.60611 0.0
C2372 C 0.89479 0.35895 0.63945 0.0
C2373 C 0.9075 0.36871 0.64561 0.0
C2374 C 0.87129 0.38232 0.54585 0.0
C2375 C 0.8944 0.3438 0.66671 0.0
C2376 C 0.84711 0.33846 0.61304 0.0
C2377 C 0.851 0.32651 0.58073 0.0
C2378 C 0.85707 0.35099 0.62005 0.0
C2379 C 0.871 0.35168 0.5932 0.0
C2380 C 0.87429 0.34031 0.55748 0.0
C2381 C 0.86433 0.32771 0.55216 0.0
C2382 C 0.85328 0.36278 0.6589 0.0
C2383 C 0.88882 0.34091 0.52708 0.0
H2384 H 0.89697 0.39811 0.5702 0.0
H2385 H 0.91692 0.36521 0.66924 0.0
H2386 H 0.87242 0.37519 0.5123 0.0
H2387 H 0.85959 0.38027 0.56087 0.0
H2388 H 0.8723 0.39466 0.53537 0.0
H2389 H 0.9035 0.3431 0.69526 0.0
H2390 H 0.883 0.34214 0.68436 0.0
H2391 H 0.89611 0.33416 0.64058 0.0
H2392 H 0.83683 0.33749 0.63539 0.0
H2393 H 0.86726 0.31853 0.52688 0.0
H2394 H 0.85535 0.37464 0.64527 0.0
H2395 H 0.86094 0.36098 0.69095 0.0
H2396 H 0.84112 0.36188 0.67139 0.0
H2397 H 0.89044 0.35261 0.51143 0.0
H2398 H 0.88864 0.3324 0.49671 0.0
H2399 H 0.89895 0.33843 0.55065 0.0
C2400 C 0.36722 0.15934 0.40806 0.0
C2401 C 0.35343 0.16057 0.38179 0.0
C2402 C 0.37696 0.14663 0.40152 0.0
C2403 C 0.37296 0.13514 0.3669 0.0
C2404 C 0.35864 0.13592 0.34223 0.0
C2405 C 0.34893 0.14859 0.35042 0.0
C2406 C 0.39196 0.14596 0.42959 0.0
C2407 C 0.35408 0.12402 0.3046 0.0
C2408 C 0.40871 0.11727 0.31247 0.0
C2409 C 0.40993 0.10367 0.33975 0.0
C2410 C 0.39602 0.12708 0.3183 0.0
C2411 C 0.38454 0.12334 0.3532 0.0
C2412 C 0.38524 0.10915 0.37861 0.0
C2413 C 0.39789 0.09937 0.37113 0.0
C2414 C 0.39542 0.14192 0.28942 0.0
C2415 C 0.37332 0.10487 0.41652 0.0
H2416 H 0.37063 0.16855 0.43261 0.0
H2417 H 0.33829 0.1496 0.32982 0.0
H2418 H 0.39357 0.13437 0.44609 0.0
H2419 H 0.40174 0.14797 0.40422 0.0
H2420 H 0.39247 0.15474 0.45915 0.0
H2421 H 0.34176 0.12504 0.29397 0.0
H2422 H 0.36126 0.12554 0.27132 0.0
H2423 H 0.3562 0.11219 0.31849 0.0
H2424 H 0.41797 0.12052 0.28789 0.0
H2425 H 0.39887 0.08887 0.39248 0.0
H2426 H 0.39771 0.1518 0.31415 0.0
H2427 H 0.38378 0.14361 0.27339 0.0
H2428 H 0.40407 0.14212 0.25944 0.0
H2429 H 0.37499 0.11212 0.44957 0.0
H2430 H 0.37421 0.09256 0.42749 0.0
H2431 H 0.3615 0.1071 0.40273 0.0
C2432 C 0.64259 0.65042 0.12901 0.0
C2433 C 0.63772 0.66232 0.09785 0.0
C2434 C 0.63314 0.63758 0.13763 0.0
C2435 C 0.61873 0.63656 0.11363 0.0
C2436 C 0.61438 0.64795 0.07911 0.0
C2437 C 0.62386 0.66082 0.07212 0.0
C2438 C 0.63808 0.62578 0.17511 0.0
C2439 C 0.59927 0.64702 0.05171 0.0
C2440 C 0.59407 0.60062 0.11076 0.0
C2441 C 0.5821 0.60492 0.14244 0.0
C2442 C 0.60667 0.61044 0.10285 0.0
C2443 C 0.60737 0.62466 0.12812 0.0
C2444 C 0.596 0.62836 0.16344 0.0
C2445 C 0.58337 0.61852 0.16971 0.0
C2446 C 0.61847 0.60618 0.06456 0.0
C2447 C 0.59662 0.64322 0.1922 0.0
H2448 H 0.65329 0.65162 0.14916 0.0
H2449 H 0.62017 0.66997 0.04772 0.0
H2450 H 0.63115 0.62732 0.2089 0.0
H2451 H 0.63595 0.6139 0.16161 0.0
H2452 H 0.65047 0.62692 0.18478 0.0
H2453 H 0.5985 0.65575 0.02204 0.0
H2454 H 0.59776 0.63539 0.03548 0.0
H2455 H 0.58958 0.64895 0.0775 0.0
H2456 H 0.59306 0.59012 0.08945 0.0
H2457 H 0.57417 0.62176 0.19454 0.0
H2458 H 0.63032 0.60863 0.07767 0.0
H2459 H 0.61652 0.61328 0.03131 0.0
H2460 H 0.61771 0.59382 0.0541 0.0
H2461 H 0.60832 0.64503 0.20761 0.0
H2462 H 0.58812 0.64338 0.22263 0.0
H2463 H 0.5941 0.65307 0.16753 0.0
C2464 C 0.08625 0.87672 0.81105 0.0
C2465 C 0.08494 0.89036 0.8381 0.0
C2466 C 0.09871 0.86671 0.81843 0.0
C2467 C 0.10985 0.8703 0.85459 0.0
C2468 C 0.10912 0.88453 0.87972 0.0
C2469 C 0.09671 0.89451 0.87075 0.0
C2470 C 0.09936 0.85182 0.78985 0.0
C2471 C 0.1207 0.88868 0.91885 0.0
C2472 C 0.12568 0.8339 0.91113 0.0
C2473 C 0.13961 0.83222 0.88587 0.0
C2474 C 0.1164 0.84692 0.90395 0.0
C2475 C 0.12104 0.85829 0.86977 0.0
C2476 C 0.13555 0.85712 0.84648 0.0
C2477 C 0.14477 0.84412 0.85524 0.0
C2478 C 0.10118 0.848 0.93058 0.0
C2479 C 0.14081 0.86892 0.80945 0.0
H2480 H 0.07721 0.87358 0.7855 0.0
H2481 H 0.09567 0.90504 0.8919 0.0
H2482 H 0.11112 0.8499 0.7751 0.0
H2483 H 0.09664 0.84201 0.81447 0.0
H2484 H 0.09102 0.8517 0.75895 0.0
H2485 H 0.11998 0.90105 0.92924 0.0
H2486 H 0.11845 0.88161 0.95196 0.0
H2487 H 0.13261 0.88611 0.90659 0.0
H2488 H 0.12175 0.82475 0.93514 0.0
H2489 H 0.15553 0.84279 0.83546 0.0
H2490 H 0.09159 0.84615 0.90432 0.0
H2491 H 0.09968 0.85965 0.94669 0.0
H2492 H 0.1002 0.83929 0.96024 0.0
H2493 H 0.13407 0.86747 0.77522 0.0
H2494 H 0.15325 0.86766 0.80053 0.0
H2495 H 0.13871 0.88079 0.82295 0.0
loop_
_geom_bond_atom_site_label_1
_geom_bond_atom_site_label_2
_geom_bond_distance
_geom_bond_site_symmetry_2
_ccdc_geom_bond_type
C0 O1 1.306 . S
C0 O3 1.160 . S
O1 C0 1.306 . S
O1 Cd2 2.228 1_556 S
Cd2 O1 2.228 1_554 S
Cd2 O6 2.273 . S
Cd2 O10 2.277 . S
O3 C0 1.160 . S
O3 Cd4 2.203 1_556 S
Cd4 O3 2.203 1_554 S
Cd4 O6 2.411 . S
Cd4 O7 2.333 . S
Cd4 O8 2.352 . S
Cd4 O12 2.277 . S
Cd4 O13 2.356 . S
C5 O10 1.209 . S
C5 O12 1.226 . S
O6 Cd2 2.273 . S
O6 Cd4 2.411 . S
O6 C9 1.320 . S
O7 Cd4 2.333 . S
O7 C9 1.214 . S
O8 Cd4 2.352 . S
O8 C11 1.258 . S
C9 O6 1.320 . S
C9 O7 1.214 . S
O10 Cd2 2.277 . S
O10 C5 1.209 . S
C11 O8 1.258 . S
C11 O13 1.282 . S
O12 Cd4 2.277 . S
O12 C5 1.226 . S
O13 Cd4 2.356 . S
O13 C11 1.282 . S
C14 O15 1.306 . S
C14 O17 1.160 . S
O15 C14 1.306 . S
O15 Cd16 2.228 . S
Cd16 O15 2.228 . S
Cd16 O20 2.273 . S
Cd16 O24 2.277 . S
O17 C14 1.160 . S
O17 Cd18 2.203 . S
Cd18 O17 2.203 . S
Cd18 O20 2.411 . S
Cd18 O21 2.333 . S
Cd18 O22 2.352 . S
Cd18 O26 2.277 . S
Cd18 O27 2.356 . S
C19 O24 1.209 . S
C19 O26 1.226 . S
O20 Cd16 2.273 . S
O20 Cd18 2.411 . S
O20 C23 1.320 . S
O21 Cd18 2.333 . S
O21 C23 1.214 . S
O22 Cd18 2.352 . S
O22 C25 1.258 . S
C23 O20 1.320 . S
C23 O21 1.214 . S
O24 Cd16 2.277 . S
O24 C19 1.209 . S
C25 O22 1.258 . S
C25 O27 1.282 . S
O26 Cd18 2.277 . S
O26 C19 1.226 . S
O27 Cd18 2.356 . S
O27 C25 1.282 . S
C28 O29 1.306 . S
C28 O31 1.160 . S
O29 C28 1.306 . S
O29 Cd30 2.228 . S
Cd30 O29 2.228 . S
Cd30 O34 2.273 . S
Cd30 O38 2.277 . S
O31 C28 1.160 . S
O31 Cd32 2.203 . S
Cd32 O31 2.203 . S
Cd32 O34 2.411 . S
Cd32 O35 2.333 . S
Cd32 O36 2.352 . S
Cd32 O40 2.277 . S
Cd32 O41 2.356 . S
C33 O38 1.209 . S
C33 O40 1.226 . S
O34 Cd30 2.273 . S
O34 Cd32 2.411 . S
O34 C37 1.320 . S
O35 Cd32 2.333 . S
O35 C37 1.214 . S
O36 Cd32 2.352 . S
O36 C39 1.258 . S
C37 O34 1.320 . S
C37 O35 1.214 . S
O38 Cd30 2.277 . S
O38 C33 1.209 . S
C39 O36 1.258 . S
C39 O41 1.282 . S
O40 Cd32 2.277 . S
O40 C33 1.226 . S
O41 Cd32 2.356 . S
O41 C39 1.282 . S
C42 O43 1.306 . S
C42 O45 1.160 . S
O43 C42 1.306 . S
O43 Cd44 2.228 . S
Cd44 O43 2.228 . S
Cd44 O48 2.273 . S
Cd44 O52 2.277 . S
O45 C42 1.160 . S
O45 Cd46 2.203 . S
Cd46 O45 2.203 . S
Cd46 O48 2.411 . S
Cd46 O49 2.333 . S
Cd46 O50 2.352 . S
Cd46 O54 2.277 . S
Cd46 O55 2.356 . S
C47 O52 1.209 . S
C47 O54 1.226 . S
O48 Cd44 2.273 . S
O48 Cd46 2.411 . S
O48 C51 1.320 . S
O49 Cd46 2.333 . S
O49 C51 1.214 . S
O50 Cd46 2.352 . S
O50 C53 1.258 . S
C51 O48 1.320 . S
C51 O49 1.214 . S
O52 Cd44 2.277 . S
O52 C47 1.209 . S
C53 O50 1.258 . S
C53 O55 1.282 . S
O54 Cd46 2.277 . S
O54 C47 1.226 . S
O55 Cd46 2.356 . S
O55 C53 1.282 . S
C56 O57 1.306 . S
C56 O59 1.160 . S
O57 C56 1.306 . S
O57 Cd58 2.228 . S
Cd58 O57 2.228 . S
Cd58 O62 2.273 . S
Cd58 O66 2.277 . S
O59 C56 1.160 . S
O59 Cd60 2.203 . S
Cd60 O59 2.203 . S
Cd60 O62 2.411 . S
Cd60 O63 2.333 . S
Cd60 O64 2.352 . S
Cd60 O68 2.277 . S
Cd60 O69 2.356 . S
C61 O66 1.209 . S
C61 O68 1.226 . S
O62 Cd58 2.273 . S
O62 Cd60 2.411 . S
O62 C65 1.320 . S
O63 Cd60 2.333 . S
O63 C65 1.214 . S
O64 Cd60 2.352 . S
O64 C67 1.258 . S
C65 O62 1.320 . S
C65 O63 1.214 . S
O66 Cd58 2.277 . S
O66 C61 1.209 . S
C67 O64 1.258 . S
C67 O69 1.282 . S
O68 Cd60 2.277 . S
O68 C61 1.226 . S
O69 Cd60 2.356 . S
O69 C67 1.282 . S
C70 O71 1.306 . S
C70 O73 1.160 . S
O71 C70 1.306 . S
O71 Cd72 2.228 . S
Cd72 O71 2.228 . S
Cd72 O76 2.273 . S
Cd72 O80 2.277 . S
O73 C70 1.160 . S
O73 Cd74 2.203 . S
Cd74 O73 2.203 . S
Cd74 O76 2.411 . S
Cd74 O77 2.333 . S
Cd74 O78 2.352 . S
Cd74 O82 2.277 . S
Cd74 O83 2.356 . S
C75 O80 1.209 . S
C75 O82 1.226 . S
O76 Cd72 2.273 . S
O76 Cd74 2.411 . S
O76 C79 1.320 . S
O77 Cd74 2.333 . S
O77 C79 1.214 . S
O78 Cd74 2.352 . S
O78 C81 1.258 . S
C79 O76 1.320 . S
C79 O77 1.214 . S
O80 Cd72 2.277 . S
O80 C75 1.209 . S
C81 O78 1.258 . S
C81 O83 1.282 . S
O82 Cd74 2.277 . S
O82 C75 1.226 . S
O83 Cd74 2.356 . S
O83 C81 1.282 . S
C84 O85 1.306 . S
C84 O87 1.160 . S
O85 C84 1.306 . S
O85 Cd86 2.228 1_554 S
Cd86 O85 2.228 1_556 S
Cd86 O90 2.273 . S
Cd86 O94 2.277 . S
O87 C84 1.160 . S
O87 Cd88 2.203 1_554 S
Cd88 O87 2.203 1_556 S
Cd88 O90 2.411 . S
Cd88 O91 2.333 . S
Cd88 O92 2.352 . S
Cd88 O96 2.277 . S
Cd88 O97 2.356 . S
C89 O94 1.209 . S
C89 O96 1.226 . S
O90 Cd86 2.273 . S
O90 Cd88 2.411 . S
O90 C93 1.320 . S
O91 Cd88 2.333 . S
O91 C93 1.214 . S
O92 Cd88 2.352 . S
O92 C95 1.258 . S
C93 O90 1.320 . S
C93 O91 1.214 . S
O94 Cd86 2.277 . S
O94 C89 1.209 . S
C95 O92 1.258 . S
C95 O97 1.282 . S
O96 Cd88 2.277 . S
O96 C89 1.226 . S
O97 Cd88 2.356 . S
O97 C95 1.282 . S
C98 O99 1.306 . S
C98 O101 1.160 . S
O99 C98 1.306 . S
O99 Cd100 2.228 . S
Cd100 O99 2.228 . S
Cd100 O104 2.273 . S
Cd100 O108 2.277 . S
O101 C98 1.160 . S
O101 Cd102 2.203 . S
Cd102 O101 2.203 . S
Cd102 O104 2.411 . S
Cd102 O105 2.333 . S
Cd102 O106 2.352 . S
Cd102 O110 2.277 . S
Cd102 O111 2.356 . S
C103 O108 1.209 . S
C103 O110 1.226 . S
O104 Cd100 2.273 . S
O104 Cd102 2.411 . S
O104 C107 1.320 . S
O105 Cd102 2.333 . S
O105 C107 1.214 . S
O106 Cd102 2.352 . S
O106 C109 1.258 . S
C107 O104 1.320 . S
C107 O105 1.214 . S
O108 Cd100 2.277 . S
O108 C103 1.209 . S
C109 O106 1.258 . S
C109 O111 1.282 . S
O110 Cd102 2.277 . S
O110 C103 1.226 . S
O111 Cd102 2.356 . S
O111 C109 1.282 . S
C112 O113 1.306 . S
C112 O115 1.160 . S
O113 C112 1.306 . S
O113 Cd114 2.228 1_554 S
Cd114 O113 2.228 1_556 S
Cd114 O118 2.273 . S
Cd114 O122 2.277 . S
O115 C112 1.160 . S
O115 Cd116 2.203 1_554 S
Cd116 O115 2.203 1_556 S
Cd116 O118 2.411 . S
Cd116 O119 2.333 . S
Cd116 O120 2.352 . S
Cd116 O124 2.277 . S
Cd116 O125 2.356 . S
C117 O122 1.209 . S
C117 O124 1.226 . S
O118 Cd114 2.273 . S
O118 Cd116 2.411 . S
O118 C121 1.320 . S
O119 Cd116 2.333 . S
O119 C121 1.214 . S
O120 Cd116 2.352 . S
O120 C123 1.258 . S
C121 O118 1.320 . S
C121 O119 1.214 . S
O122 Cd114 2.277 . S
O122 C117 1.209 . S
C123 O120 1.258 . S
C123 O125 1.282 . S
O124 Cd116 2.277 . S
O124 C117 1.226 . S
O125 Cd116 2.356 . S
O125 C123 1.282 . S
C126 O127 1.306 . S
C126 O129 1.160 . S
O127 C126 1.306 . S
O127 Cd128 2.228 . S
Cd128 O127 2.228 . S
Cd128 O132 2.273 . S
Cd128 O136 2.277 . S
O129 C126 1.160 . S
O129 Cd130 2.203 . S
Cd130 O129 2.203 . S
Cd130 O132 2.411 . S
Cd130 O133 2.333 . S
Cd130 O134 2.352 . S
Cd130 O138 2.277 . S
Cd130 O139 2.356 . S
C131 O136 1.209 . S
C131 O138 1.226 . S
O132 Cd128 2.273 . S
O132 Cd130 2.411 . S
O132 C135 1.320 . S
O133 Cd130 2.333 . S
O133 C135 1.214 . S
O134 Cd130 2.352 . S
O134 C137 1.258 . S
C135 O132 1.320 . S
C135 O133 1.214 . S
O136 Cd128 2.277 . S
O136 C131 1.209 . S
C137 O134 1.258 . S
C137 O139 1.282 . S
O138 Cd130 2.277 . S
O138 C131 1.226 . S
O139 Cd130 2.356 . S
O139 C137 1.282 . S
C140 O141 1.306 . S
C140 O143 1.160 . S
O141 C140 1.306 . S
O141 Cd142 2.228 . S
Cd142 O141 2.228 . S
Cd142 O146 2.273 . S
Cd142 O150 2.277 . S
O143 C140 1.160 . S
O143 Cd144 2.203 . S
Cd144 O143 2.203 . S
Cd144 O146 2.411 . S
Cd144 O147 2.333 . S
Cd144 O148 2.352 . S
Cd144 O152 2.277 . S
Cd144 O153 2.356 . S
C145 O150 1.209 . S
C145 O152 1.226 . S
O146 Cd142 2.273 . S
O146 Cd144 2.411 . S
O146 C149 1.320 . S
O147 Cd144 2.333 . S
O147 C149 1.214 . S
O148 Cd144 2.352 . S
O148 C151 1.258 . S
C149 O146 1.320 . S
C149 O147 1.214 . S
O150 Cd142 2.277 . S
O150 C145 1.209 . S
C151 O148 1.258 . S
C151 O153 1.282 . S
O152 Cd144 2.277 . S
O152 C145 1.226 . S
O153 Cd144 2.356 . S
O153 C151 1.282 . S
C154 O155 1.306 . S
C154 O157 1.160 . S
O155 C154 1.306 . S
O155 Cd156 2.228 . S
Cd156 O155 2.228 . S
Cd156 O160 2.273 . S
Cd156 O164 2.277 . S
O157 C154 1.160 . S
O157 Cd158 2.203 . S
Cd158 O157 2.203 . S
Cd158 O160 2.411 . S
Cd158 O161 2.333 . S
Cd158 O162 2.352 . S
Cd158 O166 2.277 . S
Cd158 O167 2.356 . S
C159 O164 1.209 . S
C159 O166 1.226 . S
O160 Cd156 2.273 . S
O160 Cd158 2.411 . S
O160 C163 1.320 . S
O161 Cd158 2.333 . S
O161 C163 1.214 . S
O162 Cd158 2.352 . S
O162 C165 1.258 . S
C163 O160 1.320 . S
C163 O161 1.214 . S
O164 Cd156 2.277 . S
O164 C159 1.209 . S
C165 O162 1.258 . S
C165 O167 1.282 . S
O166 Cd158 2.277 . S
O166 C159 1.226 . S
O167 Cd158 2.356 . S
O167 C165 1.282 . S
C168 O169 1.306 . S
C168 O171 1.160 . S
O169 C168 1.306 . S
O169 Cd170 2.228 . S
Cd170 O169 2.228 . S
Cd170 O174 2.273 . S
Cd170 O178 2.277 . S
O171 C168 1.160 . S
O171 Cd172 2.203 . S
Cd172 O171 2.203 . S
Cd172 O174 2.411 . S
Cd172 O175 2.333 . S
Cd172 O176 2.352 . S
Cd172 O180 2.277 . S
Cd172 O181 2.356 . S
C173 O178 1.209 . S
C173 O180 1.226 . S
O174 Cd170 2.273 . S
O174 Cd172 2.411 . S
O174 C177 1.320 . S
O175 Cd172 2.333 . S
O175 C177 1.214 . S
O176 Cd172 2.352 . S
O176 C179 1.258 . S
C177 O174 1.320 . S
C177 O175 1.214 . S
O178 Cd170 2.277 . S
O178 C173 1.209 . S
C179 O176 1.258 . S
C179 O181 1.282 . S
O180 Cd172 2.277 . S
O180 C173 1.226 . S
O181 Cd172 2.356 . S
O181 C179 1.282 . S
C182 O183 1.306 . S
C182 O185 1.160 . S
O183 C182 1.306 . S
O183 Cd184 2.228 . S
Cd184 O183 2.228 . S
Cd184 O188 2.273 . S
Cd184 O192 2.277 . S
O185 C182 1.160 . S
O185 Cd186 2.203 . S
Cd186 O185 2.203 . S
Cd186 O188 2.411 . S
Cd186 O189 2.333 . S
Cd186 O190 2.352 . S
Cd186 O194 2.277 . S
Cd186 O195 2.356 . S
C187 O192 1.209 . S
C187 O194 1.226 . S
O188 Cd184 2.273 . S
O188 Cd186 2.411 . S
O188 C191 1.320 . S
O189 Cd186 2.333 . S
O189 C191 1.214 . S
O190 Cd186 2.352 . S
O190 C193 1.258 . S
C191 O188 1.320 . S
C191 O189 1.214 . S
O192 Cd184 2.277 . S
O192 C187 1.209 . S
C193 O190 1.258 . S
C193 O195 1.282 . S
O194 Cd186 2.277 . S
O194 C187 1.226 . S
O195 Cd186 2.356 . S
O195 C193 1.282 . S
C196 O197 1.306 . S
C196 O199 1.160 . S
O197 C196 1.306 . S
O197 Cd198 2.228 1_556 S
Cd198 O197 2.228 1_554 S
Cd198 O202 2.273 . S
Cd198 O206 2.277 . S
O199 C196 1.160 . S
O199 Cd200 2.203 1_556 S
Cd200 O199 2.203 1_554 S
Cd200 O202 2.411 . S
Cd200 O203 2.333 . S
Cd200 O204 2.352 . S
Cd200 O208 2.277 . S
Cd200 O209 2.356 . S
C201 O206 1.209 . S
C201 O208 1.226 . S
O202 Cd198 2.273 . S
O202 Cd200 2.411 . S
O202 C205 1.320 . S
O203 Cd200 2.333 . S
O203 C205 1.214 . S
O204 Cd200 2.352 . S
O204 C207 1.258 . S
C205 O202 1.320 . S
C205 O203 1.214 . S
O206 Cd198 2.277 . S
O206 C201 1.209 . S
C207 O204 1.258 . S
C207 O209 1.282 . S
O208 Cd200 2.277 . S
O208 C201 1.226 . S
O209 Cd200 2.356 . S
O209 C207 1.282 . S
C210 O211 1.306 . S
C210 O213 1.160 . S
O211 C210 1.306 . S
O211 Cd212 2.228 . S
Cd212 O211 2.228 . S
Cd212 O216 2.273 . S
Cd212 O220 2.277 . S
O213 C210 1.160 . S
O213 Cd214 2.203 . S
Cd214 O213 2.203 . S
Cd214 O216 2.411 . S
Cd214 O217 2.333 . S
Cd214 O218 2.352 . S
Cd214 O222 2.277 . S
Cd214 O223 2.356 . S
C215 O220 1.209 . S
C215 O222 1.226 . S
O216 Cd212 2.273 . S
O216 Cd214 2.411 . S
O216 C219 1.320 . S
O217 Cd214 2.333 . S
O217 C219 1.214 . S
O218 Cd214 2.352 . S
O218 C221 1.258 . S
C219 O216 1.320 . S
C219 O217 1.214 . S
O220 Cd212 2.277 . S
O220 C215 1.209 . S
C221 O218 1.258 . S
C221 O223 1.282 . S
O222 Cd214 2.277 . S
O222 C215 1.226 . S
O223 Cd214 2.356 . S
O223 C221 1.282 . S
C224 O225 1.306 . S
C224 O227 1.160 . S
O225 C224 1.306 . S
O225 Cd226 2.228 . S
Cd226 O225 2.228 . S
Cd226 O230 2.273 . S
Cd226 O234 2.277 . S
O227 C224 1.160 . S
O227 Cd228 2.203 . S
Cd228 O227 2.203 . S
Cd228 O230 2.411 . S
Cd228 O231 2.333 . S
Cd228 O232 2.352 . S
Cd228 O236 2.277 . S
Cd228 O237 2.356 . S
C229 O234 1.209 . S
C229 O236 1.226 . S
O230 Cd226 2.273 . S
O230 Cd228 2.411 . S
O230 C233 1.320 . S
O231 Cd228 2.333 . S
O231 C233 1.214 . S
O232 Cd228 2.352 . S
O232 C235 1.258 . S
C233 O230 1.320 . S
C233 O231 1.214 . S
O234 Cd226 2.277 . S
O234 C229 1.209 . S
C235 O232 1.258 . S
C235 O237 1.282 . S
O236 Cd228 2.277 . S
O236 C229 1.226 . S
O237 Cd228 2.356 . S
O237 C235 1.282 . S
C238 O239 1.306 . S
C238 O241 1.160 . S
O239 C238 1.306 . S
O239 Cd240 2.228 . S
Cd240 O239 2.228 . S
Cd240 O244 2.273 . S
Cd240 O248 2.277 . S
O241 C238 1.160 . S
O241 Cd242 2.203 . S
Cd242 O241 2.203 . S
Cd242 O244 2.411 . S
Cd242 O245 2.333 . S
Cd242 O246 2.352 . S
Cd242 O250 2.277 . S
Cd242 O251 2.356 . S
C243 O248 1.209 . S
C243 O250 1.226 . S
O244 Cd240 2.273 . S
O244 Cd242 2.411 . S
O244 C247 1.320 . S
O245 Cd242 2.333 . S
O245 C247 1.214 . S
O246 Cd242 2.352 . S
O246 C249 1.258 . S
C247 O244 1.320 . S
C247 O245 1.214 . S
O248 Cd240 2.277 . S
O248 C243 1.209 . S
C249 O246 1.258 . S
C249 O251 1.282 . S
O250 Cd242 2.277 . S
O250 C243 1.226 . S
O251 Cd242 2.356 . S
O251 C249 1.282 . S
C252 O253 1.306 . S
C252 O255 1.160 . S
O253 C252 1.306 . S
O253 Cd254 2.228 1_556 S
Cd254 O253 2.228 1_554 S
Cd254 O258 2.273 . S
Cd254 O262 2.277 . S
O255 C252 1.160 . S
O255 Cd256 2.203 1_556 S
Cd256 O255 2.203 1_554 S
Cd256 O258 2.411 . S
Cd256 O259 2.333 . S
Cd256 O260 2.352 . S
Cd256 O264 2.277 . S
Cd256 O265 2.356 . S
C257 O262 1.209 . S
C257 O264 1.226 . S
O258 Cd254 2.273 . S
O258 Cd256 2.411 . S
O258 C261 1.320 . S
O259 Cd256 2.333 . S
O259 C261 1.214 . S
O260 Cd256 2.352 . S
O260 C263 1.258 . S
C261 O258 1.320 . S
C261 O259 1.214 . S
O262 Cd254 2.277 . S
O262 C257 1.209 . S
C263 O260 1.258 . S
C263 O265 1.282 . S
O264 Cd256 2.277 . S
O264 C257 1.226 . S
O265 Cd256 2.356 . S
O265 C263 1.282 . S
C266 O267 1.306 . S
C266 O269 1.160 . S
O267 C266 1.306 . S
O267 Cd268 2.228 . S
Cd268 O267 2.228 . S
Cd268 O272 2.273 . S
Cd268 O276 2.277 . S
O269 C266 1.160 . S
O269 Cd270 2.203 . S
Cd270 O269 2.203 . S
Cd270 O272 2.411 . S
Cd270 O273 2.333 . S
Cd270 O274 2.352 . S
Cd270 O278 2.277 . S
Cd270 O279 2.356 . S
C271 O276 1.209 . S
C271 O278 1.226 . S
O272 Cd268 2.273 . S
O272 Cd270 2.411 . S
O272 C275 1.320 . S
O273 Cd270 2.333 . S
O273 C275 1.214 . S
O274 Cd270 2.352 . S
O274 C277 1.258 . S
C275 O272 1.320 . S
C275 O273 1.214 . S
O276 Cd268 2.277 . S
O276 C271 1.209 . S
C277 O274 1.258 . S
C277 O279 1.282 . S
O278 Cd270 2.277 . S
O278 C271 1.226 . S
O279 Cd270 2.356 . S
O279 C277 1.282 . S
C280 O281 1.306 . S
C280 O283 1.160 . S
O281 C280 1.306 . S
O281 Cd282 2.228 1_554 S
Cd282 O281 2.228 1_556 S
Cd282 O286 2.273 . S
Cd282 O290 2.277 . S
O283 C280 1.160 . S
O283 Cd284 2.203 1_554 S
Cd284 O283 2.203 1_556 S
Cd284 O286 2.411 . S
Cd284 O287 2.333 . S
Cd284 O288 2.352 . S
Cd284 O292 2.277 . S
Cd284 O293 2.356 . S
C285 O290 1.209 . S
C285 O292 1.226 . S
O286 Cd282 2.273 . S
O286 Cd284 2.411 . S
O286 C289 1.320 . S
O287 Cd284 2.333 . S
O287 C289 1.214 . S
O288 Cd284 2.352 . S
O288 C291 1.258 . S
C289 O286 1.320 . S
C289 O287 1.214 . S
O290 Cd282 2.277 . S
O290 C285 1.209 . S
C291 O288 1.258 . S
C291 O293 1.282 . S
O292 Cd284 2.277 . S
O292 C285 1.226 . S
O293 Cd284 2.356 . S
O293 C291 1.282 . S
C294 O295 1.306 . S
C294 O297 1.160 . S
O295 C294 1.306 . S
O295 Cd296 2.228 . S
Cd296 O295 2.228 . S
Cd296 O300 2.273 . S
Cd296 O304 2.277 . S
O297 C294 1.160 . S
O297 Cd298 2.203 . S
Cd298 O297 2.203 . S
Cd298 O300 2.411 . S
Cd298 O301 2.333 . S
Cd298 O302 2.352 . S
Cd298 O306 2.277 . S
Cd298 O307 2.356 . S
C299 O304 1.209 . S
C299 O306 1.226 . S
O300 Cd296 2.273 . S
O300 Cd298 2.411 . S
O300 C303 1.320 . S
O301 Cd298 2.333 . S
O301 C303 1.214 . S
O302 Cd298 2.352 . S
O302 C305 1.258 . S
C303 O300 1.320 . S
C303 O301 1.214 . S
O304 Cd296 2.277 . S
O304 C299 1.209 . S
C305 O302 1.258 . S
C305 O307 1.282 . S
O306 Cd298 2.277 . S
O306 C299 1.226 . S
O307 Cd298 2.356 . S
O307 C305 1.282 . S
C308 O309 1.306 . S
C308 O311 1.160 . S
O309 C308 1.306 . S
O309 Cd310 2.228 . S
Cd310 O309 2.228 . S
Cd310 O314 2.273 . S
Cd310 O318 2.277 . S
O311 C308 1.160 . S
O311 Cd312 2.203 . S
Cd312 O311 2.203 . S
Cd312 O314 2.411 . S
Cd312 O315 2.333 . S
Cd312 O316 2.352 . S
Cd312 O320 2.277 . S
Cd312 O321 2.356 . S
C313 O318 1.209 . S
C313 O320 1.226 . S
O314 Cd310 2.273 . S
O314 Cd312 2.411 . S
O314 C317 1.320 . S
O315 Cd312 2.333 . S
O315 C317 1.214 . S
O316 Cd312 2.352 . S
O316 C319 1.258 . S
C317 O314 1.320 . S
C317 O315 1.214 . S
O318 Cd310 2.277 . S
O318 C313 1.209 . S
C319 O316 1.258 . S
C319 O321 1.282 . S
O320 Cd312 2.277 . S
O320 C313 1.226 . S
O321 Cd312 2.356 . S
O321 C319 1.282 . S
C322 O323 1.306 . S
C322 O325 1.160 . S
O323 C322 1.306 . S
O323 Cd324 2.228 . S
Cd324 O323 2.228 . S
Cd324 O328 2.273 . S
Cd324 O332 2.277 . S
O325 C322 1.160 . S
O325 Cd326 2.203 . S
Cd326 O325 2.203 . S
Cd326 O328 2.411 . S
Cd326 O329 2.333 . S
Cd326 O330 2.352 . S
Cd326 O334 2.277 . S
Cd326 O335 2.356 . S
C327 O332 1.209 . S
C327 O334 1.226 . S
O328 Cd324 2.273 . S
O328 Cd326 2.411 . S
O328 C331 1.320 . S
O329 Cd326 2.333 . S
O329 C331 1.214 . S
O330 Cd326 2.352 . S
O330 C333 1.258 . S
C331 O328 1.320 . S
C331 O329 1.214 . S
O332 Cd324 2.277 . S
O332 C327 1.209 . S
C333 O330 1.258 . S
C333 O335 1.282 . S
O334 Cd326 2.277 . S
O334 C327 1.226 . S
O335 Cd326 2.356 . S
O335 C333 1.282 . S
C336 O337 1.306 . S
C336 O339 1.160 . S
O337 C336 1.306 . S
O337 Cd338 2.228 . S
Cd338 O337 2.228 . S
Cd338 O342 2.273 . S
Cd338 O346 2.277 . S
O339 C336 1.160 . S
O339 Cd340 2.203 . S
Cd340 O339 2.203 . S
Cd340 O342 2.411 . S
Cd340 O343 2.333 . S
Cd340 O344 2.352 . S
Cd340 O348 2.277 . S
Cd340 O349 2.356 . S
C341 O346 1.209 . S
C341 O348 1.226 . S
O342 Cd338 2.273 . S
O342 Cd340 2.411 . S
O342 C345 1.320 . S
O343 Cd340 2.333 . S
O343 C345 1.214 . S
O344 Cd340 2.352 . S
O344 C347 1.258 . S
C345 O342 1.320 . S
C345 O343 1.214 . S
O346 Cd338 2.277 . S
O346 C341 1.209 . S
C347 O344 1.258 . S
C347 O349 1.282 . S
O348 Cd340 2.277 . S
O348 C341 1.226 . S
O349 Cd340 2.356 . S
O349 C347 1.282 . S
C350 O351 1.306 . S
C350 O353 1.160 . S
O351 C350 1.306 . S
O351 Cd352 2.228 . S
Cd352 O351 2.228 . S
Cd352 O356 2.273 . S
Cd352 O360 2.277 . S
O353 C350 1.160 . S
O353 Cd354 2.203 . S
Cd354 O353 2.203 . S
Cd354 O356 2.411 . S
Cd354 O357 2.333 . S
Cd354 O358 2.352 . S
Cd354 O362 2.277 . S
Cd354 O363 2.356 . S
C355 O360 1.209 . S
C355 O362 1.226 . S
O356 Cd352 2.273 . S
O356 Cd354 2.411 . S
O356 C359 1.320 . S
O357 Cd354 2.333 . S
O357 C359 1.214 . S
O358 Cd354 2.352 . S
O358 C361 1.258 . S
C359 O356 1.320 . S
C359 O357 1.214 . S
O360 Cd352 2.277 . S
O360 C355 1.209 . S
C361 O358 1.258 . S
C361 O363 1.282 . S
O362 Cd354 2.277 . S
O362 C355 1.226 . S
O363 Cd354 2.356 . S
O363 C361 1.282 . S
C364 O365 1.306 . S
C364 O367 1.160 . S
O365 C364 1.306 . S
O365 Cd366 2.228 1_554 S
Cd366 O365 2.228 1_556 S
Cd366 O370 2.273 . S
Cd366 O374 2.277 . S
O367 C364 1.160 . S
O367 Cd368 2.203 1_554 S
Cd368 O367 2.203 1_556 S
Cd368 O370 2.411 . S
Cd368 O371 2.333 . S
Cd368 O372 2.352 . S
Cd368 O376 2.277 . S
Cd368 O377 2.356 . S
C369 O374 1.209 . S
C369 O376 1.226 . S
O370 Cd366 2.273 . S
O370 Cd368 2.411 . S
O370 C373 1.320 . S
O371 Cd368 2.333 . S
O371 C373 1.214 . S
O372 Cd368 2.352 . S
O372 C375 1.258 . S
C373 O370 1.320 . S
C373 O371 1.214 . S
O374 Cd366 2.277 . S
O374 C369 1.209 . S
C375 O372 1.258 . S
C375 O377 1.282 . S
O376 Cd368 2.277 . S
O376 C369 1.226 . S
O377 Cd368 2.356 . S
O377 C375 1.282 . S
C378 O379 1.306 . S
C378 O381 1.160 . S
O379 C378 1.306 . S
O379 Cd380 2.228 . S
Cd380 O379 2.228 . S
Cd380 O384 2.273 . S
Cd380 O388 2.277 . S
O381 C378 1.160 . S
O381 Cd382 2.203 . S
Cd382 O381 2.203 . S
Cd382 O384 2.411 . S
Cd382 O385 2.333 . S
Cd382 O386 2.352 . S
Cd382 O390 2.277 . S
Cd382 O391 2.356 . S
C383 O388 1.209 . S
C383 O390 1.226 . S
O384 Cd380 2.273 . S
O384 Cd382 2.411 . S
O384 C387 1.320 . S
O385 Cd382 2.333 . S
O385 C387 1.214 . S
O386 Cd382 2.352 . S
O386 C389 1.258 . S
C387 O384 1.320 . S
C387 O385 1.214 . S
O388 Cd380 2.277 . S
O388 C383 1.209 . S
C389 O386 1.258 . S
C389 O391 1.282 . S
O390 Cd382 2.277 . S
O390 C383 1.226 . S
O391 Cd382 2.356 . S
O391 C389 1.282 . S
C392 O393 1.306 . S
C392 O395 1.160 . S
O393 C392 1.306 . S
O393 Cd394 2.228 1_556 S
Cd394 O393 2.228 1_554 S
Cd394 O398 2.273 . S
Cd394 O402 2.277 . S
O395 C392 1.160 . S
O395 Cd396 2.203 1_556 S
Cd396 O395 2.203 1_554 S
Cd396 O398 2.411 . S
Cd396 O399 2.333 . S
Cd396 O400 2.352 . S
Cd396 O404 2.277 . S
Cd396 O405 2.356 . S
C397 O402 1.209 . S
C397 O404 1.226 . S
O398 Cd394 2.273 . S
O398 Cd396 2.411 . S
O398 C401 1.320 . S
O399 Cd396 2.333 . S
O399 C401 1.214 . S
O400 Cd396 2.352 . S
O400 C403 1.258 . S
C401 O398 1.320 . S
C401 O399 1.214 . S
O402 Cd394 2.277 . S
O402 C397 1.209 . S
C403 O400 1.258 . S
C403 O405 1.282 . S
O404 Cd396 2.277 . S
O404 C397 1.226 . S
O405 Cd396 2.356 . S
O405 C403 1.282 . S
C406 O407 1.306 . S
C406 O409 1.160 . S
O407 C406 1.306 . S
O407 Cd408 2.228 . S
Cd408 O407 2.228 . S
Cd408 O412 2.273 . S
Cd408 O416 2.277 . S
O409 C406 1.160 . S
O409 Cd410 2.203 . S
Cd410 O409 2.203 . S
Cd410 O412 2.411 . S
Cd410 O413 2.333 . S
Cd410 O414 2.352 . S
Cd410 O418 2.277 . S
Cd410 O419 2.356 . S
C411 O416 1.209 . S
C411 O418 1.226 . S
O412 Cd408 2.273 . S
O412 Cd410 2.411 . S
O412 C415 1.320 . S
O413 Cd410 2.333 . S
O413 C415 1.214 . S
O414 Cd410 2.352 . S
O414 C417 1.258 . S
C415 O412 1.320 . S
C415 O413 1.214 . S
O416 Cd408 2.277 . S
O416 C411 1.209 . S
C417 O414 1.258 . S
C417 O419 1.282 . S
O418 Cd410 2.277 . S
O418 C411 1.226 . S
O419 Cd410 2.356 . S
O419 C417 1.282 . S
C420 O421 1.306 . S
C420 O423 1.160 . S
O421 C420 1.306 . S
O421 Cd422 2.228 . S
Cd422 O421 2.228 . S
Cd422 O426 2.273 . S
Cd422 O430 2.277 . S
O423 C420 1.160 . S
O423 Cd424 2.203 . S
Cd424 O423 2.203 . S
Cd424 O426 2.411 . S
Cd424 O427 2.333 . S
Cd424 O428 2.352 . S
Cd424 O432 2.277 . S
Cd424 O433 2.356 . S
C425 O430 1.209 . S
C425 O432 1.226 . S
O426 Cd422 2.273 . S
O426 Cd424 2.411 . S
O426 C429 1.320 . S
O427 Cd424 2.333 . S
O427 C429 1.214 . S
O428 Cd424 2.352 . S
O428 C431 1.258 . S
C429 O426 1.320 . S
C429 O427 1.214 . S
O430 Cd422 2.277 . S
O430 C425 1.209 . S
C431 O428 1.258 . S
C431 O433 1.282 . S
O432 Cd424 2.277 . S
O432 C425 1.226 . S
O433 Cd424 2.356 . S
O433 C431 1.282 . S
C434 O435 1.306 . S
C434 O437 1.160 . S
O435 C434 1.306 . S
O435 Cd436 2.228 . S
Cd436 O435 2.228 . S
Cd436 O440 2.273 . S
Cd436 O444 2.277 . S
O437 C434 1.160 . S
O437 Cd438 2.203 . S
Cd438 O437 2.203 . S
Cd438 O440 2.411 . S
Cd438 O441 2.333 . S
Cd438 O442 2.352 . S
Cd438 O446 2.277 . S
Cd438 O447 2.356 . S
C439 O444 1.209 . S
C439 O446 1.226 . S
O440 Cd436 2.273 . S
O440 Cd438 2.411 . S
O440 C443 1.320 . S
O441 Cd438 2.333 . S
O441 C443 1.214 . S
O442 Cd438 2.352 . S
O442 C445 1.258 . S
C443 O440 1.320 . S
C443 O441 1.214 . S
O444 Cd436 2.277 . S
O444 C439 1.209 . S
C445 O442 1.258 . S
C445 O447 1.282 . S
O446 Cd438 2.277 . S
O446 C439 1.226 . S
O447 Cd438 2.356 . S
O447 C445 1.282 . S
C448 C449 1.391 . S
C448 C450 1.394 . S
C448 H464 0.931 . S
C449 C448 1.391 . S
C449 C453 1.376 . S
C450 C448 1.394 . S
C450 C451 1.369 . S
C450 C454 1.531 . S
C451 C450 1.369 . S
C451 C452 1.410 . S
C451 C459 1.498 1_556 S
C452 C451 1.410 . S
C452 C453 1.393 . S
C452 C455 1.510 1_556 S
C453 C449 1.376 . S
C453 C452 1.393 . S
C453 H465 0.930 . S
C454 C450 1.531 . S
C454 H466 0.960 . S
C454 H467 0.962 . S
C454 H468 0.960 . S
C455 C452 1.510 1_554 S
C455 H469 0.961 . S
C455 H470 0.961 . S
C455 H471 0.961 . S
C456 C457 1.370 . S
C456 C458 1.363 . S
C456 H472 0.931 . S
C457 C456 1.370 . S
C457 C461 1.408 1_554 S
C458 C456 1.363 . S
C458 C459 1.384 . S
C458 C462 1.524 . S
C459 C451 1.498 1_554 S
C459 C458 1.384 . S
C459 C460 1.394 1_554 S
C460 C459 1.394 1_556 S
C460 C461 1.404 . S
C460 C463 1.539 . S
C461 C457 1.408 1_556 S
C461 C460 1.404 . S
C461 H473 0.930 . S
C462 C458 1.524 . S
C462 H474 0.956 . S
C462 H475 0.961 . S
C462 H476 0.961 . S
C463 C460 1.539 . S
C463 H477 0.958 . S
C463 H478 0.961 . S
C463 H479 0.960 . S
H464 C448 0.931 . S
H465 C453 0.930 . S
H466 C454 0.960 . S
H467 C454 0.962 . S
H468 C454 0.960 . S
H469 C455 0.961 . S
H470 C455 0.961 . S
H471 C455 0.961 . S
H472 C456 0.931 . S
H473 C461 0.930 . S
H474 C462 0.956 . S
H475 C462 0.961 . S
H476 C462 0.961 . S
H477 C463 0.958 . S
H478 C463 0.961 . S
H479 C463 0.960 . S
C480 C481 1.391 . S
C480 C482 1.394 . S
C480 H496 0.931 . S
C481 C480 1.391 . S
C481 C485 1.376 . S
C482 C480 1.394 . S
C482 C483 1.369 . S
C482 C486 1.531 . S
C483 C482 1.369 . S
C483 C484 1.410 . S
C483 C491 1.503 1_565 S
C484 C483 1.410 . S
C484 C485 1.392 . S
C484 C487 1.511 . S
C485 C481 1.376 . S
C485 C484 1.392 . S
C485 H497 0.929 . S
C486 C482 1.531 . S
C486 H498 0.960 1_565 S
C486 H499 0.962 . S
C486 H500 0.960 . S
C487 C484 1.511 . S
C487 H501 0.961 . S
C487 H502 0.949 1_565 S
C487 H503 0.961 . S
C488 C489 1.370 . S
C488 C490 1.363 . S
C488 H504 0.931 . S
C489 C488 1.370 . S
C489 C493 1.408 . S
C490 C488 1.363 . S
C490 C491 1.370 . S
C490 C494 1.524 1_545 S
C491 C483 1.503 1_545 S
C491 C490 1.370 . S
C491 C492 1.403 . S
C492 C491 1.403 . S
C492 C493 1.404 . S
C492 C495 1.539 . S
C493 C489 1.408 . S
C493 C492 1.404 . S
C493 H505 0.930 . S
C494 C490 1.524 1_565 S
C494 H506 0.956 . S
C494 H507 0.961 . S
C494 H508 0.961 1_565 S
C495 C492 1.539 . S
C495 H509 0.958 . S
C495 H510 0.961 . S
C495 H511 0.960 . S
H496 C480 0.931 . S
H497 C485 0.929 . S
H498 C486 0.960 1_545 S
H499 C486 0.962 . S
H500 C486 0.960 . S
H501 C487 0.961 . S
H502 C487 0.949 1_545 S
H503 C487 0.961 . S
H504 C488 0.931 . S
H505 C493 0.930 . S
H506 C494 0.956 . S
H507 C494 0.961 . S
H508 C494 0.961 1_545 S
H509 C495 0.958 . S
H510 C495 0.961 . S
H511 C495 0.960 . S
C512 C513 1.391 . S
C512 C514 1.394 . S
C512 H528 0.931 . S
C513 C512 1.391 . S
C513 C517 1.376 . S
C514 C512 1.394 . S
C514 C515 1.369 . S
C514 C518 1.531 . S
C515 C514 1.369 . S
C515 C516 1.410 . S
C515 C523 1.503 . S
C516 C515 1.410 . S
C516 C517 1.392 . S
C516 C519 1.511 . S
C517 C513 1.376 . S
C517 C516 1.392 . S
C517 H529 0.929 . S
C518 C514 1.531 . S
C518 H530 0.960 . S
C518 H531 0.962 . S
C518 H532 0.960 . S
C519 C516 1.511 . S
C519 H533 0.961 . S
C519 H534 0.961 . S
C519 H535 0.961 . S
C520 C521 1.370 . S
C520 C522 1.363 . S
C520 H536 0.931 . S
C521 C520 1.370 . S
C521 C525 1.408 . S
C522 C520 1.363 . S
C522 C523 1.370 . S
C522 C526 1.524 . S
C523 C515 1.503 . S
C523 C522 1.370 . S
C523 C524 1.403 . S
C524 C523 1.403 . S
C524 C525 1.404 . S
C524 C527 1.539 . S
C525 C521 1.408 . S
C525 C524 1.404 . S
C525 H537 0.930 . S
C526 C522 1.524 . S
C526 H538 0.956 . S
C526 H539 0.961 . S
C526 H540 0.961 . S
C527 C524 1.539 . S
C527 H541 0.958 . S
C527 H542 0.961 . S
C527 H543 0.960 . S
H528 C512 0.931 . S
H529 C517 0.929 . S
H530 C518 0.960 . S
H531 C518 0.962 . S
H532 C518 0.960 . S
H533 C519 0.961 . S
H534 C519 0.961 . S
H535 C519 0.961 . S
H536 C520 0.931 . S
H537 C525 0.930 . S
H538 C526 0.956 . S
H539 C526 0.961 . S
H540 C526 0.961 . S
H541 C527 0.958 . S
H542 C527 0.961 . S
H543 C527 0.960 . S
C544 C545 1.391 . S
C544 C546 1.394 . S
C544 H560 0.931 . S
C545 C544 1.391 . S
C545 C549 1.376 . S
C546 C544 1.394 . S
C546 C547 1.369 . S
C546 C550 1.531 . S
C547 C546 1.369 . S
C547 C548 1.410 . S
C547 C555 1.503 1_545 S
C548 C547 1.410 . S
C548 C549 1.392 . S
C548 C551 1.511 . S
C549 C545 1.376 . S
C549 C548 1.392 . S
C549 H561 0.929 . S
C550 C546 1.531 . S
C550 H562 0.960 . S
C550 H563 0.962 . S
C550 H564 0.960 . S
C551 C548 1.511 . S
C551 H565 0.961 . S
C551 H566 0.961 1_545 S
C551 H567 0.961 . S
C552 C553 1.370 . S
C552 C554 1.363 . S
C552 H568 0.931 . S
C553 C552 1.370 . S
C553 C557 1.408 . S
C554 C552 1.363 . S
C554 C555 1.370 . S
C554 C558 1.524 . S
C555 C547 1.503 1_565 S
C555 C554 1.370 . S
C555 C556 1.403 . S
C556 C555 1.403 . S
C556 C557 1.404 . S
C556 C559 1.539 . S
C557 C553 1.408 . S
C557 C556 1.404 . S
C557 H569 0.930 . S
C558 C554 1.524 . S
C558 H570 0.956 . S
C558 H571 0.961 . S
C558 H572 0.961 . S
C559 C556 1.539 . S
C559 H573 0.958 1_565 S
C559 H574 0.961 . S
C559 H575 0.960 1_565 S
H560 C544 0.931 . S
H561 C549 0.929 . S
H562 C550 0.960 . S
H563 C550 0.962 . S
H564 C550 0.960 . S
H565 C551 0.961 . S
H566 C551 0.961 1_565 S
H567 C551 0.961 . S
H568 C552 0.931 . S
H569 C557 0.930 . S
H570 C558 0.956 . S
H571 C558 0.961 . S
H572 C558 0.961 . S
H573 C559 0.958 1_545 S
H574 C559 0.961 . S
H575 C559 0.960 1_545 S
C576 C577 1.391 1_556 S
C576 C578 1.394 . S
C576 H592 0.931 . S
C577 C576 1.391 1_554 S
C577 C581 1.376 . S
C578 C576 1.394 . S
C578 C579 1.369 1_556 S
C578 C582 1.531 . S
C579 C578 1.369 1_554 S
C579 C580 1.410 . S
C579 C587 1.503 1_554 S
C580 C579 1.410 . S
C580 C581 1.392 . S
C580 C583 1.511 . S
C581 C577 1.376 . S
C581 C580 1.392 . S
C581 H593 0.929 . S
C582 C578 1.531 . S
C582 H594 0.960 . S
C582 H595 0.962 . S
C582 H596 0.960 . S
C583 C580 1.511 . S
C583 H597 0.961 . S
C583 H598 0.961 . S
C583 H599 0.961 . S
C584 C585 1.370 . S
C584 C586 1.363 . S
C584 H600 0.931 . S
C585 C584 1.370 . S
C585 C589 1.408 . S
C586 C584 1.363 . S
C586 C587 1.370 . S
C586 C590 1.524 . S
C587 C579 1.503 1_556 S
C587 C586 1.370 . S
C587 C588 1.403 . S
C588 C587 1.403 . S
C588 C589 1.404 . S
C588 C591 1.539 . S
C589 C585 1.408 . S
C589 C588 1.404 . S
C589 H601 0.930 . S
C590 C586 1.524 . S
C590 H602 0.956 . S
C590 H603 0.961 1_556 S
C590 H604 0.961 . S
C591 C588 1.539 . S
C591 H605 0.958 . S
C591 H606 0.961 1_556 S
C591 H607 0.960 1_556 S
H592 C576 0.931 . S
H593 C581 0.929 . S
H594 C582 0.960 . S
H595 C582 0.962 . S
H596 C582 0.960 . S
H597 C583 0.961 . S
H598 C583 0.961 . S
H599 C583 0.961 . S
H600 C584 0.931 . S
H601 C589 0.930 . S
H602 C590 0.956 . S
H603 C590 0.961 1_554 S
H604 C590 0.961 . S
H605 C591 0.958 . S
H606 C591 0.961 1_554 S
H607 C591 0.960 1_554 S
C608 C609 1.391 . S
C608 C610 1.394 . S
C608 H624 0.931 . S
C609 C608 1.391 . S
C609 C613 1.376 . S
C610 C608 1.394 . S
C610 C611 1.369 . S
C610 C614 1.531 . S
C611 C610 1.369 . S
C611 C612 1.410 . S
C611 C619 1.503 1_565 S
C612 C611 1.410 . S
C612 C613 1.392 . S
C612 C615 1.511 . S
C613 C609 1.376 . S
C613 C612 1.392 . S
C613 H625 0.929 . S
C614 C610 1.531 . S
C614 H626 0.960 . S
C614 H627 0.962 . S
C614 H628 0.960 . S
C615 C612 1.511 . S
C615 H629 0.961 . S
C615 H630 0.961 1_565 S
C615 H631 0.961 . S
C616 C617 1.370 . S
C616 C618 1.363 . S
C616 H632 0.931 . S
C617 C616 1.370 . S
C617 C621 1.408 . S
C618 C616 1.363 . S
C618 C619 1.370 . S
C618 C622 1.524 . S
C619 C611 1.503 1_545 S
C619 C618 1.370 . S
C619 C620 1.403 . S
C620 C619 1.403 . S
C620 C621 1.404 . S
C620 C623 1.539 . S
C621 C617 1.408 . S
C621 C620 1.404 . S
C621 H633 0.930 . S
C622 C618 1.524 . S
C622 H634 0.956 . S
C622 H635 0.961 . S
C622 H636 0.961 . S
C623 C620 1.539 . S
C623 H637 0.958 1_545 S
C623 H638 0.961 . S
C623 H639 0.960 1_545 S
H624 C608 0.931 . S
H625 C613 0.929 . S
H626 C614 0.960 . S
H627 C614 0.962 . S
H628 C614 0.960 . S
H629 C615 0.961 . S
H630 C615 0.961 1_545 S
H631 C615 0.961 . S
H632 C616 0.931 . S
H633 C621 0.930 . S
H634 C622 0.956 . S
H635 C622 0.961 . S
H636 C622 0.961 . S
H637 C623 0.958 1_565 S
H638 C623 0.961 . S
H639 C623 0.960 1_565 S
C640 C641 1.391 . S
C640 C642 1.394 . S
C640 H656 0.931 . S
C641 C640 1.391 . S
C641 C645 1.376 . S
C642 C640 1.394 . S
C642 C643 1.369 . S
C642 C646 1.531 . S
C643 C642 1.369 . S
C643 C644 1.410 . S
C643 C651 1.503 . S
C644 C643 1.410 . S
C644 C645 1.392 . S
C644 C647 1.511 . S
C645 C641 1.376 . S
C645 C644 1.392 . S
C645 H657 0.929 . S
C646 C642 1.531 . S
C646 H658 0.960 . S
C646 H659 0.962 . S
C646 H660 0.960 . S
C647 C644 1.511 . S
C647 H661 0.961 . S
C647 H662 0.961 . S
C647 H663 0.961 . S
C648 C649 1.370 . S
C648 C650 1.363 . S
C648 H664 0.931 . S
C649 C648 1.370 . S
C649 C653 1.408 . S
C650 C648 1.363 . S
C650 C651 1.370 . S
C650 C654 1.524 . S
C651 C643 1.503 . S
C651 C650 1.370 . S
C651 C652 1.403 . S
C652 C651 1.403 . S
C652 C653 1.404 . S
C652 C655 1.539 . S
C653 C649 1.408 . S
C653 C652 1.404 . S
C653 H665 0.930 . S
C654 C650 1.524 . S
C654 H666 0.956 . S
C654 H667 0.961 . S
C654 H668 0.961 . S
C655 C652 1.539 . S
C655 H669 0.958 . S
C655 H670 0.961 . S
C655 H671 0.960 . S
H656 C640 0.931 . S
H657 C645 0.929 . S
H658 C646 0.960 . S
H659 C646 0.962 . S
H660 C646 0.960 . S
H661 C647 0.961 . S
H662 C647 0.961 . S
H663 C647 0.961 . S
H664 C648 0.931 . S
H665 C653 0.930 . S
H666 C654 0.956 . S
H667 C654 0.961 . S
H668 C654 0.961 . S
H669 C655 0.958 . S
H670 C655 0.961 . S
H671 C655 0.960 . S
C672 C673 1.391 . S
C672 C674 1.394 . S
C672 H688 0.931 . S
C673 C672 1.391 . S
C673 C677 1.376 . S
C674 C672 1.394 . S
C674 C675 1.369 . S
C674 C678 1.530 1_565 S
C675 C674 1.369 . S
C675 C676 1.410 . S
C675 C683 1.503 1_565 S
C676 C675 1.410 . S
C676 C677 1.392 . S
C676 C679 1.511 . S
C677 C673 1.376 . S
C677 C676 1.392 . S
C677 H689 0.929 . S
C678 C674 1.530 1_545 S
C678 H690 0.960 . S
C678 H691 0.962 . S
C678 H692 0.960 1_545 S
C679 C676 1.511 . S
C679 H693 0.961 . S
C679 H694 0.961 . S
C679 H695 0.961 . S
C680 C681 1.370 . S
C680 C682 1.363 . S
C680 H696 0.931 . S
C681 C680 1.370 . S
C681 C685 1.408 . S
C682 C680 1.363 . S
C682 C683 1.370 . S
C682 C686 1.524 . S
C683 C675 1.503 1_545 S
C683 C682 1.370 . S
C683 C684 1.403 . S
C684 C683 1.403 . S
C684 C685 1.404 . S
C684 C687 1.539 . S
C685 C681 1.408 . S
C685 C684 1.404 . S
C685 H697 0.930 . S
C686 C682 1.524 . S
C686 H698 0.957 1_545 S
C686 H699 0.961 1_545 S
C686 H700 0.961 . S
C687 C684 1.539 . S
C687 H701 0.958 . S
C687 H702 0.961 . S
C687 H703 0.960 . S
H688 C672 0.931 . S
H689 C677 0.929 . S
H690 C678 0.960 . S
H691 C678 0.962 . S
H692 C678 0.960 1_565 S
H693 C679 0.961 . S
H694 C679 0.961 . S
H695 C679 0.961 . S
H696 C680 0.931 . S
H697 C685 0.930 . S
H698 C686 0.957 1_565 S
H699 C686 0.961 1_565 S
H700 C686 0.961 . S
H701 C687 0.958 . S
H702 C687 0.961 . S
H703 C687 0.960 . S
C704 C705 1.391 . S
C704 C706 1.394 . S
C704 H720 0.931 . S
C705 C704 1.391 . S
C705 C709 1.376 . S
C706 C704 1.394 . S
C706 C707 1.369 . S
C706 C710 1.531 . S
C707 C706 1.369 . S
C707 C708 1.410 . S
C707 C715 1.503 . S
C708 C707 1.410 . S
C708 C709 1.392 . S
C708 C711 1.511 . S
C709 C705 1.376 . S
C709 C708 1.392 . S
C709 H721 0.929 . S
C710 C706 1.531 . S
C710 H722 0.960 . S
C710 H723 0.962 . S
C710 H724 0.960 . S
C711 C708 1.511 . S
C711 H725 0.961 . S
C711 H726 0.961 . S
C711 H727 0.961 . S
C712 C713 1.370 . S
C712 C714 1.363 . S
C712 H728 0.931 . S
C713 C712 1.370 . S
C713 C717 1.408 . S
C714 C712 1.363 . S
C714 C715 1.370 . S
C714 C718 1.524 . S
C715 C707 1.503 . S
C715 C714 1.370 . S
C715 C716 1.403 . S
C716 C715 1.403 . S
C716 C717 1.404 . S
C716 C719 1.539 . S
C717 C713 1.408 . S
C717 C716 1.404 . S
C717 H729 0.930 . S
C718 C714 1.524 . S
C718 H730 0.956 . S
C718 H731 0.961 . S
C718 H732 0.961 . S
C719 C716 1.539 . S
C719 H733 0.958 . S
C719 H734 0.961 . S
C719 H735 0.960 . S
H720 C704 0.931 . S
H721 C709 0.929 . S
H722 C710 0.960 . S
H723 C710 0.962 . S
H724 C710 0.960 . S
H725 C711 0.961 . S
H726 C711 0.961 . S
H727 C711 0.961 . S
H728 C712 0.931 . S
H729 C717 0.930 . S
H730 C718 0.956 . S
H731 C718 0.961 . S
H732 C718 0.961 . S
H733 C719 0.958 . S
H734 C719 0.961 . S
H735 C719 0.960 . S
C736 C737 1.391 . S
C736 C738 1.394 . S
C736 H752 0.931 . S
C737 C736 1.391 . S
C737 C741 1.376 . S
C738 C736 1.394 . S
C738 C739 1.369 . S
C738 C742 1.531 . S
C739 C738 1.369 . S
C739 C740 1.410 . S
C739 C747 1.503 . S
C740 C739 1.410 . S
C740 C741 1.392 . S
C740 C743 1.511 . S
C741 C737 1.376 . S
C741 C740 1.392 . S
C741 H753 0.929 . S
C742 C738 1.531 . S
C742 H754 0.960 . S
C742 H755 0.962 . S
C742 H756 0.960 . S
C743 C740 1.511 . S
C743 H757 0.961 . S
C743 H758 0.961 . S
C743 H759 0.961 . S
C744 C745 1.370 . S
C744 C746 1.363 . S
C744 H760 0.931 . S
C745 C744 1.370 . S
C745 C749 1.408 . S
C746 C744 1.363 . S
C746 C747 1.370 . S
C746 C750 1.524 . S
C747 C739 1.503 . S
C747 C746 1.370 . S
C747 C748 1.403 . S
C748 C747 1.403 . S
C748 C749 1.404 . S
C748 C751 1.539 . S
C749 C745 1.408 . S
C749 C748 1.404 . S
C749 H761 0.930 . S
C750 C746 1.524 . S
C750 H762 0.956 . S
C750 H763 0.961 . S
C750 H764 0.961 . S
C751 C748 1.539 . S
C751 H765 0.958 . S
C751 H766 0.961 . S
C751 H767 0.960 . S
H752 C736 0.931 . S
H753 C741 0.929 . S
H754 C742 0.960 . S
H755 C742 0.962 . S
H756 C742 0.960 . S
H757 C743 0.961 . S
H758 C743 0.961 . S
H759 C743 0.961 . S
H760 C744 0.931 . S
H761 C749 0.930 . S
H762 C750 0.956 . S
H763 C750 0.961 . S
H764 C750 0.961 . S
H765 C751 0.958 . S
H766 C751 0.961 . S
H767 C751 0.960 . S
C768 C769 1.391 . S
C768 C770 1.394 1_556 S
C768 H784 0.931 1_556 S
C769 C768 1.391 . S
C769 C773 1.376 . S
C770 C768 1.394 1_554 S
C770 C771 1.369 1_554 S
C770 C774 1.531 . S
C771 C770 1.369 1_556 S
C771 C772 1.410 . S
C771 C779 1.503 1_556 S
C772 C771 1.410 . S
C772 C773 1.392 . S
C772 C775 1.511 . S
C773 C769 1.376 . S
C773 C772 1.392 . S
C773 H785 0.929 . S
C774 C770 1.531 . S
C774 H786 0.960 . S
C774 H787 0.962 . S
C774 H788 0.960 . S
C775 C772 1.511 . S
C775 H789 0.961 . S
C775 H790 0.961 . S
C775 H791 0.961 . S
C776 C777 1.370 . S
C776 C778 1.363 . S
C776 H792 0.931 . S
C777 C776 1.370 . S
C777 C781 1.408 1_554 S
C778 C776 1.363 . S
C778 C779 1.370 . S
C778 C782 1.524 . S
C779 C771 1.503 1_554 S
C779 C778 1.370 . S
C779 C780 1.403 1_554 S
C780 C779 1.403 1_556 S
C780 C781 1.404 . S
C780 C783 1.539 . S
C781 C777 1.408 1_556 S
C781 C780 1.404 . S
C781 H793 0.930 . S
C782 C778 1.524 . S
C782 H794 0.956 . S
C782 H795 0.961 . S
C782 H796 0.961 . S
C783 C780 1.539 . S
C783 H797 0.958 . S
C783 H798 0.961 . S
C783 H799 0.960 . S
H784 C768 0.931 1_554 S
H785 C773 0.929 . S
H786 C774 0.960 . S
H787 C774 0.962 . S
H788 C774 0.960 . S
H789 C775 0.961 . S
H790 C775 0.961 . S
H791 C775 0.961 . S
H792 C776 0.931 . S
H793 C781 0.930 . S
H794 C782 0.956 . S
H795 C782 0.961 . S
H796 C782 0.961 . S
H797 C783 0.958 . S
H798 C783 0.961 . S
H799 C783 0.960 . S
C800 C801 1.391 . S
C800 C802 1.394 . S
C800 H816 0.931 . S
C801 C800 1.391 . S
C801 C805 1.376 . S
C802 C800 1.394 . S
C802 C803 1.369 . S
C802 C806 1.531 . S
C803 C802 1.369 . S
C803 C804 1.410 . S
C803 C811 1.503 . S
C804 C803 1.410 . S
C804 C805 1.392 . S
C804 C807 1.511 . S
C805 C801 1.376 . S
C805 C804 1.392 . S
C805 H817 0.929 . S
C806 C802 1.531 . S
C806 H818 0.960 . S
C806 H819 0.962 . S
C806 H820 0.960 . S
C807 C804 1.511 . S
C807 H821 0.961 . S
C807 H822 0.961 . S
C807 H823 0.961 . S
C808 C809 1.370 . S
C808 C810 1.363 . S
C808 H824 0.931 . S
C809 C808 1.370 . S
C809 C813 1.408 . S
C810 C808 1.363 . S
C810 C811 1.370 . S
C810 C814 1.524 . S
C811 C803 1.503 . S
C811 C810 1.370 . S
C811 C812 1.403 . S
C812 C811 1.403 . S
C812 C813 1.404 . S
C812 C815 1.539 . S
C813 C809 1.408 . S
C813 C812 1.404 . S
C813 H825 0.930 . S
C814 C810 1.524 . S
C814 H826 0.956 . S
C814 H827 0.961 . S
C814 H828 0.961 . S
C815 C812 1.539 . S
C815 H829 0.958 . S
C815 H830 0.961 . S
C815 H831 0.960 . S
H816 C800 0.931 . S
H817 C805 0.929 . S
H818 C806 0.960 . S
H819 C806 0.962 . S
H820 C806 0.960 . S
H821 C807 0.961 . S
H822 C807 0.961 . S
H823 C807 0.961 . S
H824 C808 0.931 . S
H825 C813 0.930 . S
H826 C814 0.956 . S
H827 C814 0.961 . S
H828 C814 0.961 . S
H829 C815 0.958 . S
H830 C815 0.961 . S
H831 C815 0.960 . S
C832 C833 1.391 . S
C832 C834 1.394 . S
C832 H848 0.931 . S
C833 C832 1.391 . S
C833 C837 1.376 . S
C834 C832 1.394 . S
C834 C835 1.369 . S
C834 C838 1.531 . S
C835 C834 1.369 . S
C835 C836 1.410 . S
C835 C843 1.503 . S
C836 C835 1.410 . S
C836 C837 1.392 . S
C836 C839 1.511 . S
C837 C833 1.376 . S
C837 C836 1.392 . S
C837 H849 0.929 . S
C838 C834 1.531 . S
C838 H850 0.960 . S
C838 H851 0.962 . S
C838 H852 0.960 . S
C839 C836 1.511 . S
C839 H853 0.961 . S
C839 H854 0.961 . S
C839 H855 0.961 . S
C840 C841 1.370 . S
C840 C842 1.363 . S
C840 H856 0.931 . S
C841 C840 1.370 . S
C841 C845 1.408 . S
C842 C840 1.363 . S
C842 C843 1.370 . S
C842 C846 1.524 . S
C843 C835 1.503 . S
C843 C842 1.370 . S
C843 C844 1.403 . S
C844 C843 1.403 . S
C844 C845 1.404 . S
C844 C847 1.539 . S
C845 C841 1.408 . S
C845 C844 1.404 . S
C845 H857 0.930 . S
C846 C842 1.524 . S
C846 H858 0.956 . S
C846 H859 0.961 . S
C846 H860 0.961 . S
C847 C844 1.539 . S
C847 H861 0.958 . S
C847 H862 0.961 . S
C847 H863 0.960 . S
H848 C832 0.931 . S
H849 C837 0.929 . S
H850 C838 0.960 . S
H851 C838 0.962 . S
H852 C838 0.960 . S
H853 C839 0.961 . S
H854 C839 0.961 . S
H855 C839 0.961 . S
H856 C840 0.931 . S
H857 C845 0.930 . S
H858 C846 0.956 . S
H859 C846 0.961 . S
H860 C846 0.961 . S
H861 C847 0.958 . S
H862 C847 0.961 . S
H863 C847 0.960 . S
C864 C865 1.391 . S
C864 C866 1.394 . S
C864 H880 0.931 . S
C865 C864 1.391 . S
C865 C869 1.376 . S
C866 C864 1.394 . S
C866 C867 1.369 . S
C866 C870 1.531 . S
C867 C866 1.369 . S
C867 C868 1.410 . S
C867 C875 1.503 . S
C868 C867 1.410 . S
C868 C869 1.392 . S
C868 C871 1.511 . S
C869 C865 1.376 . S
C869 C868 1.392 . S
C869 H881 0.929 . S
C870 C866 1.531 . S
C870 H882 0.960 . S
C870 H883 0.962 . S
C870 H884 0.960 . S
C871 C868 1.511 . S
C871 H885 0.961 . S
C871 H886 0.961 . S
C871 H887 0.961 . S
C872 C873 1.370 . S
C872 C874 1.363 . S
C872 H888 0.931 . S
C873 C872 1.370 . S
C873 C877 1.408 . S
C874 C872 1.363 . S
C874 C875 1.370 . S
C874 C878 1.524 . S
C875 C867 1.503 . S
C875 C874 1.370 . S
C875 C876 1.403 . S
C876 C875 1.403 . S
C876 C877 1.404 . S
C876 C879 1.539 . S
C877 C873 1.408 . S
C877 C876 1.404 . S
C877 H889 0.930 . S
C878 C874 1.524 . S
C878 H890 0.956 . S
C878 H891 0.961 . S
C878 H892 0.961 . S
C879 C876 1.539 . S
C879 H893 0.958 . S
C879 H894 0.961 . S
C879 H895 0.960 . S
H880 C864 0.931 . S
H881 C869 0.929 . S
H882 C870 0.960 . S
H883 C870 0.962 . S
H884 C870 0.960 . S
H885 C871 0.961 . S
H886 C871 0.961 . S
H887 C871 0.961 . S
H888 C872 0.931 . S
H889 C877 0.930 . S
H890 C878 0.956 . S
H891 C878 0.961 . S
H892 C878 0.961 . S
H893 C879 0.958 . S
H894 C879 0.961 . S
H895 C879 0.960 . S
C896 C897 1.391 . S
C896 C898 1.394 . S
C896 H912 0.931 . S
C897 C896 1.391 . S
C897 C901 1.376 1_554 S
C898 C896 1.394 . S
C898 C899 1.369 . S
C898 C902 1.531 . S
C899 C898 1.369 . S
C899 C900 1.410 1_554 S
C899 C907 1.503 1_554 S
C900 C899 1.410 1_556 S
C900 C901 1.392 . S
C900 C903 1.511 . S
C901 C897 1.376 1_556 S
C901 C900 1.392 . S
C901 H913 0.929 . S
C902 C898 1.531 . S
C902 H914 0.960 . S
C902 H915 0.962 . S
C902 H916 0.960 . S
C903 C900 1.511 . S
C903 H917 0.961 . S
C903 H918 0.961 . S
C903 H919 0.961 . S
C904 C905 1.370 . S
C904 C906 1.363 1_556 S
C904 H920 0.931 1_556 S
C905 C904 1.370 . S
C905 C909 1.408 . S
C906 C904 1.363 1_554 S
C906 C907 1.370 1_554 S
C906 C910 1.524 . S
C907 C899 1.503 1_556 S
C907 C906 1.370 1_556 S
C907 C908 1.403 . S
C908 C907 1.403 . S
C908 C909 1.404 . S
C908 C911 1.539 . S
C909 C905 1.408 . S
C909 C908 1.404 . S
C909 H921 0.930 . S
C910 C906 1.524 . S
C910 H922 0.956 . S
C910 H923 0.961 . S
C910 H924 0.961 . S
C911 C908 1.539 . S
C911 H925 0.958 . S
C911 H926 0.961 . S
C911 H927 0.960 . S
H912 C896 0.931 . S
H913 C901 0.929 . S
H914 C902 0.960 . S
H915 C902 0.962 . S
H916 C902 0.960 . S
H917 C903 0.961 . S
H918 C903 0.961 . S
H919 C903 0.961 . S
H920 C904 0.931 1_554 S
H921 C909 0.930 . S
H922 C910 0.956 . S
H923 C910 0.961 . S
H924 C910 0.961 . S
H925 C911 0.958 . S
H926 C911 0.961 . S
H927 C911 0.960 . S
C928 C929 1.391 . S
C928 C930 1.394 . S
C928 H944 0.931 . S
C929 C928 1.391 . S
C929 C933 1.376 . S
C930 C928 1.394 . S
C930 C931 1.369 . S
C930 C934 1.531 . S
C931 C930 1.369 . S
C931 C932 1.410 . S
C931 C939 1.503 . S
C932 C931 1.410 . S
C932 C933 1.392 . S
C932 C935 1.511 . S
C933 C929 1.376 . S
C933 C932 1.392 . S
C933 H945 0.929 . S
C934 C930 1.531 . S
C934 H946 0.960 . S
C934 H947 0.962 . S
C934 H948 0.960 . S
C935 C932 1.511 . S
C935 H949 0.961 . S
C935 H950 0.961 . S
C935 H951 0.961 . S
C936 C937 1.370 . S
C936 C938 1.363 . S
C936 H952 0.931 . S
C937 C936 1.370 . S
C937 C941 1.408 . S
C938 C936 1.363 . S
C938 C939 1.370 . S
C938 C942 1.524 . S
C939 C931 1.503 . S
C939 C938 1.370 . S
C939 C940 1.403 . S
C940 C939 1.403 . S
C940 C941 1.404 . S
C940 C943 1.539 . S
C941 C937 1.408 . S
C941 C940 1.404 . S
C941 H953 0.930 . S
C942 C938 1.524 . S
C942 H954 0.956 . S
C942 H955 0.961 . S
C942 H956 0.961 . S
C943 C940 1.539 . S
C943 H957 0.958 . S
C943 H958 0.961 . S
C943 H959 0.960 . S
H944 C928 0.931 . S
H945 C933 0.929 . S
H946 C934 0.960 . S
H947 C934 0.962 . S
H948 C934 0.960 . S
H949 C935 0.961 . S
H950 C935 0.961 . S
H951 C935 0.961 . S
H952 C936 0.931 . S
H953 C941 0.930 . S
H954 C942 0.956 . S
H955 C942 0.961 . S
H956 C942 0.961 . S
H957 C943 0.958 . S
H958 C943 0.961 . S
H959 C943 0.960 . S
C960 C961 1.391 . S
C960 C962 1.394 . S
C960 H976 0.931 . S
C961 C960 1.391 . S
C961 C965 1.376 . S
C962 C960 1.394 . S
C962 C963 1.369 . S
C962 C966 1.531 . S
C963 C962 1.369 . S
C963 C964 1.410 . S
C963 C971 1.503 . S
C964 C963 1.410 . S
C964 C965 1.392 . S
C964 C967 1.511 . S
C965 C961 1.376 . S
C965 C964 1.392 . S
C965 H977 0.929 . S
C966 C962 1.531 . S
C966 H978 0.960 . S
C966 H979 0.962 . S
C966 H980 0.960 . S
C967 C964 1.511 . S
C967 H981 0.961 . S
C967 H982 0.961 . S
C967 H983 0.961 . S
C968 C969 1.370 . S
C968 C970 1.363 . S
C968 H984 0.931 . S
C969 C968 1.370 . S
C969 C973 1.408 . S
C970 C968 1.363 . S
C970 C971 1.370 . S
C970 C974 1.524 . S
C971 C963 1.503 . S
C971 C970 1.370 . S
C971 C972 1.403 . S
C972 C971 1.403 . S
C972 C973 1.404 . S
C972 C975 1.539 . S
C973 C969 1.408 . S
C973 C972 1.404 . S
C973 H985 0.930 . S
C974 C970 1.524 . S
C974 H986 0.956 . S
C974 H987 0.961 . S
C974 H988 0.961 . S
C975 C972 1.539 . S
C975 H989 0.958 . S
C975 H990 0.961 . S
C975 H991 0.960 . S
H976 C960 0.931 . S
H977 C965 0.929 . S
H978 C966 0.960 . S
H979 C966 0.962 . S
H980 C966 0.960 . S
H981 C967 0.961 . S
H982 C967 0.961 . S
H983 C967 0.961 . S
H984 C968 0.931 . S
H985 C973 0.930 . S
H986 C974 0.956 . S
H987 C974 0.961 . S
H988 C974 0.961 . S
H989 C975 0.958 . S
H990 C975 0.961 . S
H991 C975 0.960 . S
C992 C993 1.391 . S
C992 C994 1.394 1_455 S
C992 H1008 0.931 1_455 S
C993 C992 1.391 . S
C993 C997 1.376 . S
C994 C992 1.394 1_655 S
C994 C995 1.369 1_656 S
C994 C998 1.531 . S
C995 C994 1.369 1_454 S
C995 C996 1.410 . S
C995 C1003 1.503 1_455 S
C996 C995 1.410 . S
C996 C997 1.392 1_554 S
C996 C999 1.511 . S
C997 C993 1.376 . S
C997 C996 1.392 1_556 S
C997 H1009 0.929 . S
C998 C994 1.531 . S
C998 H1010 0.960 1_556 S
C998 H1011 0.962 . S
C998 H1012 0.960 . S
C999 C996 1.511 . S
C999 H1013 0.961 . S
C999 H1014 0.961 . S
C999 H1015 0.961 . S
C1000 C1001 1.370 . S
C1000 C1002 1.363 . S
C1000 H1016 0.931 . S
C1001 C1000 1.370 . S
C1001 C1005 1.408 . S
C1002 C1000 1.363 . S
C1002 C1003 1.370 . S
C1002 C1006 1.524 . S
C1003 C995 1.503 1_655 S
C1003 C1002 1.370 . S
C1003 C1004 1.403 . S
C1004 C1003 1.403 . S
C1004 C1005 1.404 . S
C1004 C1007 1.539 1_655 S
C1005 C1001 1.408 . S
C1005 C1004 1.404 . S
C1005 H1017 0.930 . S
C1006 C1002 1.524 . S
C1006 H1018 0.956 . S
C1006 H1019 0.961 . S
C1006 H1020 0.961 . S
C1007 C1004 1.539 1_455 S
C1007 H1021 0.958 1_455 S
C1007 H1022 0.961 . S
C1007 H1023 0.960 . S
H1008 C992 0.931 1_655 S
H1009 C997 0.929 . S
H1010 C998 0.960 1_554 S
H1011 C998 0.962 . S
H1012 C998 0.960 . S
H1013 C999 0.961 . S
H1014 C999 0.961 . S
H1015 C999 0.961 . S
H1016 C1000 0.931 . S
H1017 C1005 0.930 . S
H1018 C1006 0.956 . S
H1019 C1006 0.961 . S
H1020 C1006 0.961 . S
H1021 C1007 0.958 1_655 S
H1022 C1007 0.961 . S
H1023 C1007 0.960 . S
C1024 C1025 1.391 . S
C1024 C1026 1.394 . S
C1024 H1040 0.931 . S
C1025 C1024 1.391 . S
C1025 C1029 1.376 . S
C1026 C1024 1.394 . S
C1026 C1027 1.369 . S
C1026 C1030 1.531 . S
C1027 C1026 1.369 . S
C1027 C1028 1.410 . S
C1027 C1035 1.503 . S
C1028 C1027 1.410 . S
C1028 C1029 1.392 . S
C1028 C1031 1.511 . S
C1029 C1025 1.376 . S
C1029 C1028 1.392 . S
C1029 H1041 0.929 . S
C1030 C1026 1.531 . S
C1030 H1042 0.960 . S
C1030 H1043 0.962 . S
C1030 H1044 0.960 . S
C1031 C1028 1.511 . S
C1031 H1045 0.961 . S
C1031 H1046 0.961 . S
C1031 H1047 0.961 . S
C1032 C1033 1.370 . S
C1032 C1034 1.363 . S
C1032 H1048 0.931 . S
C1033 C1032 1.370 . S
C1033 C1037 1.408 . S
C1034 C1032 1.363 . S
C1034 C1035 1.370 . S
C1034 C1038 1.524 . S
C1035 C1027 1.503 . S
C1035 C1034 1.370 . S
C1035 C1036 1.403 . S
C1036 C1035 1.403 . S
C1036 C1037 1.404 . S
C1036 C1039 1.539 . S
C1037 C1033 1.408 . S
C1037 C1036 1.404 . S
C1037 H1049 0.930 . S
C1038 C1034 1.524 . S
C1038 H1050 0.956 . S
C1038 H1051 0.961 . S
C1038 H1052 0.961 . S
C1039 C1036 1.539 . S
C1039 H1053 0.958 . S
C1039 H1054 0.961 . S
C1039 H1055 0.960 . S
H1040 C1024 0.931 . S
H1041 C1029 0.929 . S
H1042 C1030 0.960 . S
H1043 C1030 0.962 . S
H1044 C1030 0.960 . S
H1045 C1031 0.961 . S
H1046 C1031 0.961 . S
H1047 C1031 0.961 . S
H1048 C1032 0.931 . S
H1049 C1037 0.930 . S
H1050 C1038 0.956 . S
H1051 C1038 0.961 . S
H1052 C1038 0.961 . S
H1053 C1039 0.958 . S
H1054 C1039 0.961 . S
H1055 C1039 0.960 . S
C1056 C1057 1.391 . S
C1056 C1058 1.394 . S
C1056 H1072 0.931 . S
C1057 C1056 1.391 . S
C1057 C1061 1.376 . S
C1058 C1056 1.394 . S
C1058 C1059 1.369 . S
C1058 C1062 1.531 . S
C1059 C1058 1.369 . S
C1059 C1060 1.410 . S
C1059 C1067 1.503 . S
C1060 C1059 1.410 . S
C1060 C1061 1.392 . S
C1060 C1063 1.511 . S
C1061 C1057 1.376 . S
C1061 C1060 1.392 . S
C1061 H1073 0.929 . S
C1062 C1058 1.531 . S
C1062 H1074 0.960 . S
C1062 H1075 0.962 . S
C1062 H1076 0.960 . S
C1063 C1060 1.511 . S
C1063 H1077 0.961 . S
C1063 H1078 0.961 . S
C1063 H1079 0.961 . S
C1064 C1065 1.370 . S
C1064 C1066 1.363 . S
C1064 H1080 0.931 . S
C1065 C1064 1.370 . S
C1065 C1069 1.408 . S
C1066 C1064 1.363 . S
C1066 C1067 1.370 . S
C1066 C1070 1.524 . S
C1067 C1059 1.503 . S
C1067 C1066 1.370 . S
C1067 C1068 1.403 . S
C1068 C1067 1.403 . S
C1068 C1069 1.404 . S
C1068 C1071 1.539 . S
C1069 C1065 1.408 . S
C1069 C1068 1.404 . S
C1069 H1081 0.930 . S
C1070 C1066 1.524 . S
C1070 H1082 0.956 . S
C1070 H1083 0.961 . S
C1070 H1084 0.961 . S
C1071 C1068 1.539 . S
C1071 H1085 0.958 . S
C1071 H1086 0.961 . S
C1071 H1087 0.960 . S
H1072 C1056 0.931 . S
H1073 C1061 0.929 . S
H1074 C1062 0.960 . S
H1075 C1062 0.962 . S
H1076 C1062 0.960 . S
H1077 C1063 0.961 . S
H1078 C1063 0.961 . S
H1079 C1063 0.961 . S
H1080 C1064 0.931 . S
H1081 C1069 0.930 . S
H1082 C1070 0.956 . S
H1083 C1070 0.961 . S
H1084 C1070 0.961 . S
H1085 C1071 0.958 . S
H1086 C1071 0.961 . S
H1087 C1071 0.960 . S
C1088 C1089 1.391 . S
C1088 C1090 1.394 . S
C1088 H1104 0.931 . S
C1089 C1088 1.391 . S
C1089 C1093 1.376 . S
C1090 C1088 1.394 . S
C1090 C1091 1.369 . S
C1090 C1094 1.531 . S
C1091 C1090 1.369 . S
C1091 C1092 1.410 . S
C1091 C1099 1.503 . S
C1092 C1091 1.410 . S
C1092 C1093 1.392 . S
C1092 C1095 1.511 . S
C1093 C1089 1.376 . S
C1093 C1092 1.392 . S
C1093 H1105 0.929 . S
C1094 C1090 1.531 . S
C1094 H1106 0.960 . S
C1094 H1107 0.962 . S
C1094 H1108 0.960 . S
C1095 C1092 1.511 . S
C1095 H1109 0.961 . S
C1095 H1110 0.961 . S
C1095 H1111 0.961 . S
C1096 C1097 1.370 . S
C1096 C1098 1.363 . S
C1096 H1112 0.931 . S
C1097 C1096 1.370 . S
C1097 C1101 1.408 . S
C1098 C1096 1.363 . S
C1098 C1099 1.370 . S
C1098 C1102 1.524 . S
C1099 C1091 1.503 . S
C1099 C1098 1.370 . S
C1099 C1100 1.403 . S
C1100 C1099 1.403 . S
C1100 C1101 1.404 . S
C1100 C1103 1.539 . S
C1101 C1097 1.408 . S
C1101 C1100 1.404 . S
C1101 H1113 0.930 . S
C1102 C1098 1.524 . S
C1102 H1114 0.956 . S
C1102 H1115 0.961 . S
C1102 H1116 0.961 . S
C1103 C1100 1.539 . S
C1103 H1117 0.958 . S
C1103 H1118 0.961 . S
C1103 H1119 0.960 . S
H1104 C1088 0.931 . S
H1105 C1093 0.929 . S
H1106 C1094 0.960 . S
H1107 C1094 0.962 . S
H1108 C1094 0.960 . S
H1109 C1095 0.961 . S
H1110 C1095 0.961 . S
H1111 C1095 0.961 . S
H1112 C1096 0.931 . S
H1113 C1101 0.930 . S
H1114 C1102 0.956 . S
H1115 C1102 0.961 . S
H1116 C1102 0.961 . S
H1117 C1103 0.958 . S
H1118 C1103 0.961 . S
H1119 C1103 0.960 . S
C1120 C1121 1.391 . S
C1120 C1122 1.394 . S
C1120 H1136 0.931 . S
C1121 C1120 1.391 . S
C1121 C1125 1.376 . S
C1122 C1120 1.394 . S
C1122 C1123 1.369 1_554 S
C1122 C1126 1.531 . S
C1123 C1122 1.369 1_556 S
C1123 C1124 1.410 . S
C1123 C1131 1.503 . S
C1124 C1123 1.410 . S
C1124 C1125 1.392 1_556 S
C1124 C1127 1.511 . S
C1125 C1121 1.376 . S
C1125 C1124 1.392 1_554 S
C1125 H1137 0.929 . S
C1126 C1122 1.531 . S
C1126 H1138 0.960 1_554 S
C1126 H1139 0.962 . S
C1126 H1140 0.960 . S
C1127 C1124 1.511 . S
C1127 H1141 0.961 . S
C1127 H1142 0.961 . S
C1127 H1143 0.961 . S
C1128 C1129 1.370 . S
C1128 C1130 1.363 . S
C1128 H1144 0.931 . S
C1129 C1128 1.370 . S
C1129 C1133 1.408 . S
C1130 C1128 1.363 . S
C1130 C1131 1.370 . S
C1130 C1134 1.524 . S
C1131 C1123 1.503 . S
C1131 C1130 1.370 . S
C1131 C1132 1.403 . S
C1132 C1131 1.403 . S
C1132 C1133 1.404 . S
C1132 C1135 1.539 . S
C1133 C1129 1.408 . S
C1133 C1132 1.404 . S
C1133 H1145 0.930 . S
C1134 C1130 1.524 . S
C1134 H1146 0.956 . S
C1134 H1147 0.961 . S
C1134 H1148 0.961 . S
C1135 C1132 1.539 . S
C1135 H1149 0.958 . S
C1135 H1150 0.961 . S
C1135 H1151 0.960 . S
H1136 C1120 0.931 . S
H1137 C1125 0.929 . S
H1138 C1126 0.960 1_556 S
H1139 C1126 0.962 . S
H1140 C1126 0.960 . S
H1141 C1127 0.961 . S
H1142 C1127 0.961 . S
H1143 C1127 0.961 . S
H1144 C1128 0.931 . S
H1145 C1133 0.930 . S
H1146 C1134 0.956 . S
H1147 C1134 0.961 . S
H1148 C1134 0.961 . S
H1149 C1135 0.958 . S
H1150 C1135 0.961 . S
H1151 C1135 0.960 . S
C1152 C1153 1.391 . S
C1152 C1154 1.394 . S
C1152 H1168 0.931 . S
C1153 C1152 1.391 . S
C1153 C1157 1.376 . S
C1154 C1152 1.394 . S
C1154 C1155 1.369 . S
C1154 C1158 1.531 . S
C1155 C1154 1.369 . S
C1155 C1156 1.410 . S
C1155 C1163 1.503 . S
C1156 C1155 1.410 . S
C1156 C1157 1.392 . S
C1156 C1159 1.511 . S
C1157 C1153 1.376 . S
C1157 C1156 1.392 . S
C1157 H1169 0.929 . S
C1158 C1154 1.531 . S
C1158 H1170 0.960 . S
C1158 H1171 0.962 . S
C1158 H1172 0.960 . S
C1159 C1156 1.511 . S
C1159 H1173 0.961 . S
C1159 H1174 0.961 . S
C1159 H1175 0.961 . S
C1160 C1161 1.370 . S
C1160 C1162 1.363 . S
C1160 H1176 0.931 . S
C1161 C1160 1.370 . S
C1161 C1165 1.408 . S
C1162 C1160 1.363 . S
C1162 C1163 1.370 . S
C1162 C1166 1.524 . S
C1163 C1155 1.503 . S
C1163 C1162 1.370 . S
C1163 C1164 1.403 . S
C1164 C1163 1.403 . S
C1164 C1165 1.404 . S
C1164 C1167 1.539 . S
C1165 C1161 1.408 . S
C1165 C1164 1.404 . S
C1165 H1177 0.930 . S
C1166 C1162 1.524 . S
C1166 H1178 0.956 . S
C1166 H1179 0.961 . S
C1166 H1180 0.961 . S
C1167 C1164 1.539 . S
C1167 H1181 0.958 . S
C1167 H1182 0.961 . S
C1167 H1183 0.960 . S
H1168 C1152 0.931 . S
H1169 C1157 0.929 . S
H1170 C1158 0.960 . S
H1171 C1158 0.962 . S
H1172 C1158 0.960 . S
H1173 C1159 0.961 . S
H1174 C1159 0.961 . S
H1175 C1159 0.961 . S
H1176 C1160 0.931 . S
H1177 C1165 0.930 . S
H1178 C1166 0.956 . S
H1179 C1166 0.961 . S
H1180 C1166 0.961 . S
H1181 C1167 0.958 . S
H1182 C1167 0.961 . S
H1183 C1167 0.960 . S
C1184 C1185 1.391 . S
C1184 C1186 1.394 1_455 S
C1184 H1200 0.945 . S
C1185 C1184 1.391 . S
C1185 C1189 1.376 . S
C1186 C1184 1.394 1_655 S
C1186 C1187 1.369 1_655 S
C1186 C1190 1.531 . S
C1187 C1186 1.369 1_455 S
C1187 C1188 1.410 . S
C1187 C1195 1.503 1_455 S
C1188 C1187 1.410 . S
C1188 C1189 1.392 . S
C1188 C1191 1.511 . S
C1189 C1185 1.376 . S
C1189 C1188 1.392 . S
C1189 H1201 0.929 . S
C1190 C1186 1.531 . S
C1190 H1202 0.960 . S
C1190 H1203 0.962 . S
C1190 H1204 0.960 . S
C1191 C1188 1.511 . S
C1191 H1205 0.961 . S
C1191 H1206 0.961 . S
C1191 H1207 0.961 . S
C1192 C1193 1.370 . S
C1192 C1194 1.363 . S
C1192 H1208 0.931 . S
C1193 C1192 1.370 . S
C1193 C1197 1.408 . S
C1194 C1192 1.363 . S
C1194 C1195 1.370 . S
C1194 C1198 1.524 . S
C1195 C1187 1.503 1_655 S
C1195 C1194 1.370 . S
C1195 C1196 1.403 1_655 S
C1196 C1195 1.403 1_455 S
C1196 C1197 1.404 1_455 S
C1196 C1199 1.539 . S
C1197 C1193 1.408 . S
C1197 C1196 1.404 1_655 S
C1197 H1209 0.930 . S
C1198 C1194 1.524 . S
C1198 H1210 0.956 . S
C1198 H1211 0.961 . S
C1198 H1212 0.961 . S
C1199 C1196 1.539 . S
C1199 H1213 0.958 . S
C1199 H1214 0.961 . S
C1199 H1215 0.960 . S
H1200 C1184 0.945 . S
H1201 C1189 0.929 . S
H1202 C1190 0.960 . S
H1203 C1190 0.962 . S
H1204 C1190 0.960 . S
H1205 C1191 0.961 . S
H1206 C1191 0.961 . S
H1207 C1191 0.961 . S
H1208 C1192 0.931 . S
H1209 C1197 0.930 . S
H1210 C1198 0.956 . S
H1211 C1198 0.961 . S
H1212 C1198 0.961 . S
H1213 C1199 0.958 . S
H1214 C1199 0.961 . S
H1215 C1199 0.960 . S
C1216 C1217 1.391 . S
C1216 C1218 1.394 . S
C1216 H1232 0.931 . S
C1217 C1216 1.391 . S
C1217 C1221 1.376 . S
C1218 C1216 1.394 . S
C1218 C1219 1.369 . S
C1218 C1222 1.531 . S
C1219 C1218 1.369 . S
C1219 C1220 1.410 . S
C1219 C1227 1.503 . S
C1220 C1219 1.410 . S
C1220 C1221 1.392 . S
C1220 C1223 1.511 . S
C1221 C1217 1.376 . S
C1221 C1220 1.392 . S
C1221 H1233 0.929 . S
C1222 C1218 1.531 . S
C1222 H1234 0.960 . S
C1222 H1235 0.962 . S
C1222 H1236 0.960 . S
C1223 C1220 1.511 . S
C1223 H1237 0.961 . S
C1223 H1238 0.961 . S
C1223 H1239 0.961 . S
C1224 C1225 1.370 . S
C1224 C1226 1.363 . S
C1224 H1240 0.931 . S
C1225 C1224 1.370 . S
C1225 C1229 1.408 . S
C1226 C1224 1.363 . S
C1226 C1227 1.370 . S
C1226 C1230 1.524 . S
C1227 C1219 1.503 . S
C1227 C1226 1.370 . S
C1227 C1228 1.403 . S
C1228 C1227 1.403 . S
C1228 C1229 1.404 . S
C1228 C1231 1.539 . S
C1229 C1225 1.408 . S
C1229 C1228 1.404 . S
C1229 H1241 0.930 . S
C1230 C1226 1.524 . S
C1230 H1242 0.956 . S
C1230 H1243 0.961 . S
C1230 H1244 0.961 . S
C1231 C1228 1.539 . S
C1231 H1245 0.958 . S
C1231 H1246 0.961 . S
C1231 H1247 0.960 . S
H1232 C1216 0.931 . S
H1233 C1221 0.929 . S
H1234 C1222 0.960 . S
H1235 C1222 0.962 . S
H1236 C1222 0.960 . S
H1237 C1223 0.961 . S
H1238 C1223 0.961 . S
H1239 C1223 0.961 . S
H1240 C1224 0.931 . S
H1241 C1229 0.930 . S
H1242 C1230 0.956 . S
H1243 C1230 0.961 . S
H1244 C1230 0.961 . S
H1245 C1231 0.958 . S
H1246 C1231 0.961 . S
H1247 C1231 0.960 . S
C1248 C1249 1.391 . S
C1248 C1250 1.415 1_554 S
C1248 H1264 0.931 . S
C1249 C1248 1.391 . S
C1249 C1253 1.376 . S
C1250 C1248 1.415 1_556 S
C1250 C1251 1.386 . S
C1250 C1254 1.494 1_655 S
C1251 C1250 1.386 . S
C1251 C1252 1.410 . S
C1251 C1259 1.503 1_655 S
C1252 C1251 1.410 . S
C1252 C1253 1.392 1_556 S
C1252 C1255 1.511 . S
C1253 C1249 1.376 . S
C1253 C1252 1.392 1_554 S
C1253 H1265 0.929 . S
C1254 C1250 1.494 1_455 S
C1254 H1266 0.960 . S
C1254 H1267 0.962 . S
C1254 H1268 0.960 . S
C1255 C1252 1.511 . S
C1255 H1269 0.961 . S
C1255 H1270 0.961 . S
C1255 H1271 0.961 . S
C1256 C1257 1.370 . S
C1256 C1258 1.363 . S
C1256 H1272 0.931 . S
C1257 C1256 1.370 . S
C1257 C1261 1.408 . S
C1258 C1256 1.363 . S
C1258 C1259 1.370 . S
C1258 C1262 1.524 . S
C1259 C1251 1.503 1_455 S
C1259 C1258 1.370 . S
C1259 C1260 1.403 1_455 S
C1260 C1259 1.403 1_655 S
C1260 C1261 1.404 1_655 S
C1260 C1263 1.539 . S
C1261 C1257 1.408 . S
C1261 C1260 1.404 1_455 S
C1261 H1273 0.930 . S
C1262 C1258 1.524 . S
C1262 H1274 0.956 . S
C1262 H1275 0.961 . S
C1262 H1276 0.961 . S
C1263 C1260 1.539 . S
C1263 H1277 0.958 . S
C1263 H1278 0.961 . S
C1263 H1279 0.960 . S
H1264 C1248 0.931 . S
H1265 C1253 0.929 . S
H1266 C1254 0.960 . S
H1267 C1254 0.962 . S
H1268 C1254 0.960 . S
H1269 C1255 0.961 . S
H1270 C1255 0.961 . S
H1271 C1255 0.961 . S
H1272 C1256 0.931 . S
H1273 C1261 0.930 . S
H1274 C1262 0.956 . S
H1275 C1262 0.961 . S
H1276 C1262 0.961 . S
H1277 C1263 0.958 . S
H1278 C1263 0.961 . S
H1279 C1263 0.960 . S
C1280 C1281 1.391 . S
C1280 C1282 1.394 . S
C1280 H1296 0.931 . S
C1281 C1280 1.391 . S
C1281 C1285 1.376 . S
C1282 C1280 1.394 . S
C1282 C1283 1.369 . S
C1282 C1286 1.531 . S
C1283 C1282 1.369 . S
C1283 C1284 1.410 . S
C1283 C1291 1.503 . S
C1284 C1283 1.410 . S
C1284 C1285 1.392 . S
C1284 C1287 1.511 . S
C1285 C1281 1.376 . S
C1285 C1284 1.392 . S
C1285 H1297 0.929 . S
C1286 C1282 1.531 . S
C1286 H1298 0.960 . S
C1286 H1299 0.962 . S
C1286 H1300 0.960 . S
C1287 C1284 1.511 . S
C1287 H1301 0.961 . S
C1287 H1302 0.961 . S
C1287 H1303 0.961 . S
C1288 C1289 1.370 . S
C1288 C1290 1.363 . S
C1288 H1304 0.931 . S
C1289 C1288 1.370 . S
C1289 C1293 1.408 . S
C1290 C1288 1.363 . S
C1290 C1291 1.370 . S
C1290 C1294 1.524 . S
C1291 C1283 1.503 . S
C1291 C1290 1.370 . S
C1291 C1292 1.403 . S
C1292 C1291 1.403 . S
C1292 C1293 1.404 . S
C1292 C1295 1.539 . S
C1293 C1289 1.408 . S
C1293 C1292 1.404 . S
C1293 H1305 0.930 . S
C1294 C1290 1.524 . S
C1294 H1306 0.956 . S
C1294 H1307 0.961 . S
C1294 H1308 0.961 . S
C1295 C1292 1.539 . S
C1295 H1309 0.958 . S
C1295 H1310 0.961 . S
C1295 H1311 0.960 . S
H1296 C1280 0.931 . S
H1297 C1285 0.929 . S
H1298 C1286 0.960 . S
H1299 C1286 0.962 . S
H1300 C1286 0.960 . S
H1301 C1287 0.961 . S
H1302 C1287 0.961 . S
H1303 C1287 0.961 . S
H1304 C1288 0.931 . S
H1305 C1293 0.930 . S
H1306 C1294 0.956 . S
H1307 C1294 0.961 . S
H1308 C1294 0.961 . S
H1309 C1295 0.958 . S
H1310 C1295 0.961 . S
H1311 C1295 0.960 . S
C1312 C1313 1.391 . S
C1312 C1314 1.394 . S
C1312 H1328 0.931 . S
C1313 C1312 1.391 . S
C1313 C1317 1.376 . S
C1314 C1312 1.394 . S
C1314 C1315 1.369 . S
C1314 C1318 1.531 . S
C1315 C1314 1.369 . S
C1315 C1316 1.410 . S
C1315 C1323 1.503 . S
C1316 C1315 1.410 . S
C1316 C1317 1.392 . S
C1316 C1319 1.511 . S
C1317 C1313 1.376 . S
C1317 C1316 1.392 . S
C1317 H1329 0.929 . S
C1318 C1314 1.531 . S
C1318 H1330 0.960 . S
C1318 H1331 0.962 . S
C1318 H1332 0.960 . S
C1319 C1316 1.511 . S
C1319 H1333 0.961 . S
C1319 H1334 0.961 . S
C1319 H1335 0.961 . S
C1320 C1321 1.370 . S
C1320 C1322 1.363 . S
C1320 H1336 0.931 . S
C1321 C1320 1.370 . S
C1321 C1325 1.408 . S
C1322 C1320 1.363 . S
C1322 C1323 1.370 . S
C1322 C1326 1.524 . S
C1323 C1315 1.503 . S
C1323 C1322 1.370 . S
C1323 C1324 1.403 . S
C1324 C1323 1.403 . S
C1324 C1325 1.404 . S
C1324 C1327 1.539 . S
C1325 C1321 1.408 . S
C1325 C1324 1.404 . S
C1325 H1337 0.930 . S
C1326 C1322 1.524 . S
C1326 H1338 0.956 . S
C1326 H1339 0.961 . S
C1326 H1340 0.961 . S
C1327 C1324 1.539 . S
C1327 H1341 0.958 . S
C1327 H1342 0.961 . S
C1327 H1343 0.960 . S
H1328 C1312 0.931 . S
H1329 C1317 0.929 . S
H1330 C1318 0.960 . S
H1331 C1318 0.962 . S
H1332 C1318 0.960 . S
H1333 C1319 0.961 . S
H1334 C1319 0.961 . S
H1335 C1319 0.961 . S
H1336 C1320 0.931 . S
H1337 C1325 0.930 . S
H1338 C1326 0.956 . S
H1339 C1326 0.961 . S
H1340 C1326 0.961 . S
H1341 C1327 0.958 . S
H1342 C1327 0.961 . S
H1343 C1327 0.960 . S
C1344 C1345 1.391 . S
C1344 C1346 1.394 . S
C1344 H1360 0.931 . S
C1345 C1344 1.391 . S
C1345 C1349 1.376 . S
C1346 C1344 1.394 . S
C1346 C1347 1.369 . S
C1346 C1350 1.531 . S
C1347 C1346 1.369 . S
C1347 C1348 1.410 . S
C1347 C1355 1.503 . S
C1348 C1347 1.410 . S
C1348 C1349 1.392 . S
C1348 C1351 1.511 . S
C1349 C1345 1.376 . S
C1349 C1348 1.392 . S
C1349 H1361 0.929 . S
C1350 C1346 1.531 . S
C1350 H1362 0.960 . S
C1350 H1363 0.962 . S
C1350 H1364 0.960 . S
C1351 C1348 1.511 . S
C1351 H1365 0.961 . S
C1351 H1366 0.961 . S
C1351 H1367 0.961 . S
C1352 C1353 1.370 . S
C1352 C1354 1.363 . S
C1352 H1368 0.931 . S
C1353 C1352 1.370 . S
C1353 C1357 1.408 . S
C1354 C1352 1.363 . S
C1354 C1355 1.370 . S
C1354 C1358 1.524 . S
C1355 C1347 1.503 . S
C1355 C1354 1.370 . S
C1355 C1356 1.403 . S
C1356 C1355 1.403 . S
C1356 C1357 1.404 . S
C1356 C1359 1.539 . S
C1357 C1353 1.408 . S
C1357 C1356 1.404 . S
C1357 H1369 0.930 . S
C1358 C1354 1.524 . S
C1358 H1370 0.956 . S
C1358 H1371 0.961 . S
C1358 H1372 0.961 . S
C1359 C1356 1.539 . S
C1359 H1373 0.958 . S
C1359 H1374 0.961 . S
C1359 H1375 0.960 . S
H1360 C1344 0.931 . S
H1361 C1349 0.929 . S
H1362 C1350 0.960 . S
H1363 C1350 0.962 . S
H1364 C1350 0.960 . S
H1365 C1351 0.961 . S
H1366 C1351 0.961 . S
H1367 C1351 0.961 . S
H1368 C1352 0.931 . S
H1369 C1357 0.930 . S
H1370 C1358 0.956 . S
H1371 C1358 0.961 . S
H1372 C1358 0.961 . S
H1373 C1359 0.958 . S
H1374 C1359 0.961 . S
H1375 C1359 0.960 . S
C1376 C1377 1.391 . S
C1376 C1378 1.394 . S
C1376 H1392 0.931 . S
C1377 C1376 1.391 . S
C1377 C1381 1.376 . S
C1378 C1376 1.394 . S
C1378 C1379 1.369 . S
C1378 C1382 1.531 . S
C1379 C1378 1.369 . S
C1379 C1380 1.410 . S
C1379 C1387 1.503 . S
C1380 C1379 1.410 . S
C1380 C1381 1.392 . S
C1380 C1383 1.511 . S
C1381 C1377 1.376 . S
C1381 C1380 1.392 . S
C1381 H1393 0.929 . S
C1382 C1378 1.531 . S
C1382 H1394 0.960 . S
C1382 H1395 0.962 . S
C1382 H1396 0.960 . S
C1383 C1380 1.511 . S
C1383 H1397 0.961 . S
C1383 H1398 0.961 . S
C1383 H1399 0.961 . S
C1384 C1385 1.370 . S
C1384 C1386 1.363 1_556 S
C1384 H1400 0.931 . S
C1385 C1384 1.370 . S
C1385 C1389 1.408 . S
C1386 C1384 1.363 1_554 S
C1386 C1387 1.370 . S
C1386 C1390 1.524 . S
C1387 C1379 1.503 . S
C1387 C1386 1.370 . S
C1387 C1388 1.403 1_554 S
C1388 C1387 1.403 1_556 S
C1388 C1389 1.404 . S
C1388 C1391 1.539 1_556 S
C1389 C1385 1.408 . S
C1389 C1388 1.404 . S
C1389 H1401 0.930 . S
C1390 C1386 1.524 . S
C1390 H1402 0.956 . S
C1390 H1403 0.961 . S
C1390 H1404 0.961 . S
C1391 C1388 1.539 1_554 S
C1391 H1405 0.958 . S
C1391 H1406 0.961 1_554 S
C1391 H1407 0.960 . S
H1392 C1376 0.931 . S
H1393 C1381 0.929 . S
H1394 C1382 0.960 . S
H1395 C1382 0.962 . S
H1396 C1382 0.960 . S
H1397 C1383 0.961 . S
H1398 C1383 0.961 . S
H1399 C1383 0.961 . S
H1400 C1384 0.931 . S
H1401 C1389 0.930 . S
H1402 C1390 0.956 . S
H1403 C1390 0.961 . S
H1404 C1390 0.961 . S
H1405 C1391 0.958 . S
H1406 C1391 0.961 1_556 S
H1407 C1391 0.960 . S
C1408 C1409 1.391 . S
C1408 C1410 1.394 . S
C1408 H1424 0.931 . S
C1409 C1408 1.391 . S
C1409 C1413 1.376 . S
C1410 C1408 1.394 . S
C1410 C1411 1.369 . S
C1410 C1414 1.531 . S
C1411 C1410 1.369 . S
C1411 C1412 1.410 . S
C1411 C1419 1.503 . S
C1412 C1411 1.410 . S
C1412 C1413 1.392 . S
C1412 C1415 1.511 . S
C1413 C1409 1.376 . S
C1413 C1412 1.392 . S
C1413 H1425 0.929 . S
C1414 C1410 1.531 . S
C1414 H1426 0.960 . S
C1414 H1427 0.962 . S
C1414 H1428 0.960 . S
C1415 C1412 1.511 . S
C1415 H1429 0.961 . S
C1415 H1430 0.961 . S
C1415 H1431 0.961 . S
C1416 C1417 1.370 . S
C1416 C1418 1.363 . S
C1416 H1432 0.931 . S
C1417 C1416 1.370 . S
C1417 C1421 1.408 . S
C1418 C1416 1.363 . S
C1418 C1419 1.370 . S
C1418 C1422 1.524 . S
C1419 C1411 1.503 . S
C1419 C1418 1.370 . S
C1419 C1420 1.403 . S
C1420 C1419 1.403 . S
C1420 C1421 1.404 . S
C1420 C1423 1.539 . S
C1421 C1417 1.408 . S
C1421 C1420 1.404 . S
C1421 H1433 0.930 . S
C1422 C1418 1.524 . S
C1422 H1434 0.956 . S
C1422 H1435 0.961 . S
C1422 H1436 0.961 . S
C1423 C1420 1.539 . S
C1423 H1437 0.958 . S
C1423 H1438 0.961 . S
C1423 H1439 0.960 . S
H1424 C1408 0.931 . S
H1425 C1413 0.929 . S
H1426 C1414 0.960 . S
H1427 C1414 0.962 . S
H1428 C1414 0.960 . S
H1429 C1415 0.961 . S
H1430 C1415 0.961 . S
H1431 C1415 0.961 . S
H1432 C1416 0.931 . S
H1433 C1421 0.930 . S
H1434 C1422 0.956 . S
H1435 C1422 0.961 . S
H1436 C1422 0.961 . S
H1437 C1423 0.958 . S
H1438 C1423 0.961 . S
H1439 C1423 0.960 . S
C1440 C1441 1.391 . S
C1440 C1442 1.394 1_655 S
C1440 H1456 0.942 . S
C1441 C1440 1.391 . S
C1441 C1445 1.376 . S
C1442 C1440 1.394 1_455 S
C1442 C1443 1.369 1_455 S
C1442 C1446 1.531 . S
C1443 C1442 1.369 1_655 S
C1443 C1444 1.410 . S
C1443 C1451 1.503 1_655 S
C1444 C1443 1.410 . S
C1444 C1445 1.392 . S
C1444 C1447 1.511 . S
C1445 C1441 1.376 . S
C1445 C1444 1.392 . S
C1445 H1457 0.929 . S
C1446 C1442 1.531 . S
C1446 H1458 0.960 . S
C1446 H1459 0.962 . S
C1446 H1460 0.960 . S
C1447 C1444 1.511 . S
C1447 H1461 0.961 . S
C1447 H1462 0.961 . S
C1447 H1463 0.961 . S
C1448 C1449 1.370 . S
C1448 C1450 1.363 . S
C1448 H1464 0.931 . S
C1449 C1448 1.370 . S
C1449 C1453 1.408 . S
C1450 C1448 1.363 . S
C1450 C1451 1.370 . S
C1450 C1454 1.524 . S
C1451 C1443 1.503 1_455 S
C1451 C1450 1.370 . S
C1451 C1452 1.403 1_455 S
C1452 C1451 1.403 1_655 S
C1452 C1453 1.404 1_655 S
C1452 C1455 1.539 . S
C1453 C1449 1.408 . S
C1453 C1452 1.404 1_455 S
C1453 H1465 0.930 . S
C1454 C1450 1.524 . S
C1454 H1466 0.956 . S
C1454 H1467 0.961 . S
C1454 H1468 0.961 . S
C1455 C1452 1.539 . S
C1455 H1469 0.958 . S
C1455 H1470 0.961 . S
C1455 H1471 0.960 . S
H1456 C1440 0.942 . S
H1457 C1445 0.929 . S
H1458 C1446 0.960 . S
H1459 C1446 0.962 . S
H1460 C1446 0.960 . S
H1461 C1447 0.961 . S
H1462 C1447 0.961 . S
H1463 C1447 0.961 . S
H1464 C1448 0.931 . S
H1465 C1453 0.930 . S
H1466 C1454 0.956 . S
H1467 C1454 0.961 . S
H1468 C1454 0.961 . S
H1469 C1455 0.958 . S
H1470 C1455 0.961 . S
H1471 C1455 0.960 . S
C1472 C1473 1.391 . S
C1472 C1474 1.394 . S
C1472 H1488 0.931 . S
C1473 C1472 1.391 . S
C1473 C1477 1.376 . S
C1474 C1472 1.394 . S
C1474 C1475 1.369 . S
C1474 C1478 1.531 . S
C1475 C1474 1.369 . S
C1475 C1476 1.410 . S
C1475 C1483 1.503 . S
C1476 C1475 1.410 . S
C1476 C1477 1.392 . S
C1476 C1479 1.511 . S
C1477 C1473 1.376 . S
C1477 C1476 1.392 . S
C1477 H1489 0.929 . S
C1478 C1474 1.531 . S
C1478 H1490 0.960 . S
C1478 H1491 0.962 . S
C1478 H1492 0.960 . S
C1479 C1476 1.511 . S
C1479 H1493 0.961 . S
C1479 H1494 0.961 . S
C1479 H1495 0.961 . S
C1480 C1481 1.370 . S
C1480 C1482 1.363 . S
C1480 H1496 0.931 . S
C1481 C1480 1.370 . S
C1481 C1485 1.408 . S
C1482 C1480 1.363 . S
C1482 C1483 1.370 . S
C1482 C1486 1.524 . S
C1483 C1475 1.503 . S
C1483 C1482 1.370 . S
C1483 C1484 1.403 . S
C1484 C1483 1.403 . S
C1484 C1485 1.404 . S
C1484 C1487 1.539 . S
C1485 C1481 1.408 . S
C1485 C1484 1.404 . S
C1485 H1497 0.930 . S
C1486 C1482 1.524 . S
C1486 H1498 0.956 . S
C1486 H1499 0.961 . S
C1486 H1500 0.961 . S
C1487 C1484 1.539 . S
C1487 H1501 0.958 . S
C1487 H1502 0.961 . S
C1487 H1503 0.960 . S
H1488 C1472 0.931 . S
H1489 C1477 0.929 . S
H1490 C1478 0.960 . S
H1491 C1478 0.962 . S
H1492 C1478 0.960 . S
H1493 C1479 0.961 . S
H1494 C1479 0.961 . S
H1495 C1479 0.961 . S
H1496 C1480 0.931 . S
H1497 C1485 0.930 . S
H1498 C1486 0.956 . S
H1499 C1486 0.961 . S
H1500 C1486 0.961 . S
H1501 C1487 0.958 . S
H1502 C1487 0.961 . S
H1503 C1487 0.960 . S
C1504 C1505 1.391 . S
C1504 C1506 1.394 . S
C1504 H1520 0.931 . S
C1505 C1504 1.391 . S
C1505 C1509 1.376 . S
C1506 C1504 1.394 . S
C1506 C1507 1.369 . S
C1506 C1510 1.531 . S
C1507 C1506 1.369 . S
C1507 C1508 1.410 . S
C1507 C1515 1.503 . S
C1508 C1507 1.410 . S
C1508 C1509 1.392 . S
C1508 C1511 1.511 . S
C1509 C1505 1.376 . S
C1509 C1508 1.392 . S
C1509 H1521 0.929 . S
C1510 C1506 1.531 . S
C1510 H1522 0.960 . S
C1510 H1523 0.962 . S
C1510 H1524 0.960 . S
C1511 C1508 1.511 . S
C1511 H1525 0.961 . S
C1511 H1526 0.961 . S
C1511 H1527 0.961 . S
C1512 C1513 1.370 . S
C1512 C1514 1.363 . S
C1512 H1528 0.931 . S
C1513 C1512 1.370 . S
C1513 C1517 1.408 . S
C1514 C1512 1.363 . S
C1514 C1515 1.370 . S
C1514 C1518 1.524 . S
C1515 C1507 1.503 . S
C1515 C1514 1.370 . S
C1515 C1516 1.403 . S
C1516 C1515 1.403 . S
C1516 C1517 1.404 . S
C1516 C1519 1.539 . S
C1517 C1513 1.408 . S
C1517 C1516 1.404 . S
C1517 H1529 0.930 . S
C1518 C1514 1.524 . S
C1518 H1530 0.956 . S
C1518 H1531 0.961 . S
C1518 H1532 0.961 . S
C1519 C1516 1.539 . S
C1519 H1533 0.958 . S
C1519 H1534 0.961 . S
C1519 H1535 0.960 . S
H1520 C1504 0.931 . S
H1521 C1509 0.929 . S
H1522 C1510 0.960 . S
H1523 C1510 0.962 . S
H1524 C1510 0.960 . S
H1525 C1511 0.961 . S
H1526 C1511 0.961 . S
H1527 C1511 0.961 . S
H1528 C1512 0.931 . S
H1529 C1517 0.930 . S
H1530 C1518 0.956 . S
H1531 C1518 0.961 . S
H1532 C1518 0.961 . S
H1533 C1519 0.958 . S
H1534 C1519 0.961 . S
H1535 C1519 0.960 . S
C1536 C1537 1.391 . S
C1536 C1538 1.394 . S
C1536 H1552 0.931 . S
C1537 C1536 1.391 . S
C1537 C1541 1.376 . S
C1538 C1536 1.394 . S
C1538 C1539 1.369 . S
C1538 C1542 1.531 . S
C1539 C1538 1.369 . S
C1539 C1540 1.410 . S
C1539 C1547 1.503 . S
C1540 C1539 1.410 . S
C1540 C1541 1.392 . S
C1540 C1543 1.511 . S
C1541 C1537 1.376 . S
C1541 C1540 1.392 . S
C1541 H1553 0.929 . S
C1542 C1538 1.531 . S
C1542 H1554 0.960 . S
C1542 H1555 0.962 . S
C1542 H1556 0.960 . S
C1543 C1540 1.511 . S
C1543 H1557 0.961 . S
C1543 H1558 0.961 . S
C1543 H1559 0.961 . S
C1544 C1545 1.370 . S
C1544 C1546 1.363 . S
C1544 H1560 0.931 . S
C1545 C1544 1.370 . S
C1545 C1549 1.408 . S
C1546 C1544 1.363 . S
C1546 C1547 1.370 . S
C1546 C1550 1.524 . S
C1547 C1539 1.503 . S
C1547 C1546 1.370 . S
C1547 C1548 1.403 . S
C1548 C1547 1.403 . S
C1548 C1549 1.404 . S
C1548 C1551 1.539 . S
C1549 C1545 1.408 . S
C1549 C1548 1.404 . S
C1549 H1561 0.930 . S
C1550 C1546 1.524 . S
C1550 H1562 0.956 . S
C1550 H1563 0.961 . S
C1550 H1564 0.961 . S
C1551 C1548 1.539 . S
C1551 H1565 0.958 . S
C1551 H1566 0.961 . S
C1551 H1567 0.960 . S
H1552 C1536 0.931 . S
H1553 C1541 0.929 . S
H1554 C1542 0.960 . S
H1555 C1542 0.962 . S
H1556 C1542 0.960 . S
H1557 C1543 0.961 . S
H1558 C1543 0.961 . S
H1559 C1543 0.961 . S
H1560 C1544 0.931 . S
H1561 C1549 0.930 . S
H1562 C1550 0.956 . S
H1563 C1550 0.961 . S
H1564 C1550 0.961 . S
H1565 C1551 0.958 . S
H1566 C1551 0.961 . S
H1567 C1551 0.960 . S
C1568 C1569 1.391 . S
C1568 C1570 1.394 1_455 S
C1568 H1584 0.930 . S
C1569 C1568 1.391 . S
C1569 C1573 1.376 . S
C1570 C1568 1.394 1_655 S
C1570 C1571 1.369 1_655 S
C1570 C1574 1.531 . S
C1571 C1570 1.369 1_455 S
C1571 C1572 1.410 . S
C1571 C1579 1.503 1_455 S
C1572 C1571 1.410 . S
C1572 C1573 1.392 . S
C1572 C1575 1.511 . S
C1573 C1569 1.376 . S
C1573 C1572 1.392 . S
C1573 H1585 0.929 . S
C1574 C1570 1.531 . S
C1574 H1586 0.960 . S
C1574 H1587 0.962 . S
C1574 H1588 0.960 . S
C1575 C1572 1.511 . S
C1575 H1589 0.961 . S
C1575 H1590 0.961 . S
C1575 H1591 0.961 . S
C1576 C1577 1.370 . S
C1576 C1578 1.363 1_556 S
C1576 H1592 0.931 . S
C1577 C1576 1.370 . S
C1577 C1581 1.408 . S
C1578 C1576 1.363 1_554 S
C1578 C1579 1.370 . S
C1578 C1582 1.524 . S
C1579 C1571 1.503 1_655 S
C1579 C1578 1.370 . S
C1579 C1580 1.403 1_654 S
C1580 C1579 1.403 1_456 S
C1580 C1581 1.404 1_455 S
C1580 C1583 1.539 . S
C1581 C1577 1.408 . S
C1581 C1580 1.404 1_655 S
C1581 H1593 0.930 . S
C1582 C1578 1.524 . S
C1582 H1594 0.956 . S
C1582 H1595 0.961 . S
C1582 H1596 0.961 . S
C1583 C1580 1.539 . S
C1583 H1597 0.958 1_556 S
C1583 H1598 0.961 . S
C1583 H1599 0.960 1_556 S
H1584 C1568 0.930 . S
H1585 C1573 0.929 . S
H1586 C1574 0.960 . S
H1587 C1574 0.962 . S
H1588 C1574 0.960 . S
H1589 C1575 0.961 . S
H1590 C1575 0.961 . S
H1591 C1575 0.961 . S
H1592 C1576 0.931 . S
H1593 C1581 0.930 . S
H1594 C1582 0.956 . S
H1595 C1582 0.961 . S
H1596 C1582 0.961 . S
H1597 C1583 0.958 1_554 S
H1598 C1583 0.961 . S
H1599 C1583 0.960 1_554 S
C1600 C1601 1.391 . S
C1600 C1602 1.394 . S
C1600 H1616 0.931 . S
C1601 C1600 1.391 . S
C1601 C1605 1.376 . S
C1602 C1600 1.394 . S
C1602 C1603 1.369 . S
C1602 C1606 1.531 . S
C1603 C1602 1.369 . S
C1603 C1604 1.410 . S
C1603 C1611 1.503 . S
C1604 C1603 1.410 . S
C1604 C1605 1.392 . S
C1604 C1607 1.511 . S
C1605 C1601 1.376 . S
C1605 C1604 1.392 . S
C1605 H1617 0.929 . S
C1606 C1602 1.531 . S
C1606 H1618 0.960 . S
C1606 H1619 0.962 . S
C1606 H1620 0.960 . S
C1607 C1604 1.511 . S
C1607 H1621 0.961 . S
C1607 H1622 0.961 . S
C1607 H1623 0.961 . S
C1608 C1609 1.370 . S
C1608 C1610 1.363 . S
C1608 H1624 0.931 . S
C1609 C1608 1.370 . S
C1609 C1613 1.408 . S
C1610 C1608 1.363 . S
C1610 C1611 1.370 . S
C1610 C1614 1.524 . S
C1611 C1603 1.503 . S
C1611 C1610 1.370 . S
C1611 C1612 1.403 . S
C1612 C1611 1.403 . S
C1612 C1613 1.404 . S
C1612 C1615 1.539 . S
C1613 C1609 1.408 . S
C1613 C1612 1.404 . S
C1613 H1625 0.930 . S
C1614 C1610 1.524 . S
C1614 H1626 0.956 . S
C1614 H1627 0.961 . S
C1614 H1628 0.961 . S
C1615 C1612 1.539 . S
C1615 H1629 0.958 . S
C1615 H1630 0.961 . S
C1615 H1631 0.960 . S
H1616 C1600 0.931 . S
H1617 C1605 0.929 . S
H1618 C1606 0.960 . S
H1619 C1606 0.962 . S
H1620 C1606 0.960 . S
H1621 C1607 0.961 . S
H1622 C1607 0.961 . S
H1623 C1607 0.961 . S
H1624 C1608 0.931 . S
H1625 C1613 0.930 . S
H1626 C1614 0.956 . S
H1627 C1614 0.961 . S
H1628 C1614 0.961 . S
H1629 C1615 0.958 . S
H1630 C1615 0.961 . S
H1631 C1615 0.960 . S
C1632 C1633 1.391 . S
C1632 C1634 1.394 . S
C1632 H1648 0.931 . S
C1633 C1632 1.391 . S
C1633 C1637 1.376 . S
C1634 C1632 1.394 . S
C1634 C1635 1.369 . S
C1634 C1638 1.531 . S
C1635 C1634 1.369 . S
C1635 C1636 1.410 1_655 S
C1635 C1643 1.503 1_655 S
C1636 C1635 1.410 1_455 S
C1636 C1637 1.392 1_455 S
C1636 C1639 1.511 . S
C1637 C1633 1.376 . S
C1637 C1636 1.392 1_655 S
C1637 H1649 0.929 1_655 S
C1638 C1634 1.531 . S
C1638 H1650 0.960 . S
C1638 H1651 0.962 . S
C1638 H1652 0.960 . S
C1639 C1636 1.511 . S
C1639 H1653 0.961 . S
C1639 H1654 0.961 . S
C1639 H1655 0.961 . S
C1640 C1641 1.370 . S
C1640 C1642 1.363 . S
C1640 H1656 0.931 . S
C1641 C1640 1.370 . S
C1641 C1645 1.408 . S
C1642 C1640 1.363 . S
C1642 C1643 1.370 . S
C1642 C1646 1.524 . S
C1643 C1635 1.503 1_455 S
C1643 C1642 1.370 . S
C1643 C1644 1.403 . S
C1644 C1643 1.403 . S
C1644 C1645 1.404 . S
C1644 C1647 1.539 1_455 S
C1645 C1641 1.408 . S
C1645 C1644 1.404 . S
C1645 H1657 0.930 . S
C1646 C1642 1.524 . S
C1646 H1658 0.956 . S
C1646 H1659 0.961 . S
C1646 H1660 0.961 . S
C1647 C1644 1.539 1_655 S
C1647 H1661 0.958 . S
C1647 H1662 0.961 1_655 S
C1647 H1663 0.960 . S
H1648 C1632 0.931 . S
H1649 C1637 0.929 1_455 S
H1650 C1638 0.960 . S
H1651 C1638 0.962 . S
H1652 C1638 0.960 . S
H1653 C1639 0.961 . S
H1654 C1639 0.961 . S
H1655 C1639 0.961 . S
H1656 C1640 0.931 . S
H1657 C1645 0.930 . S
H1658 C1646 0.956 . S
H1659 C1646 0.961 . S
H1660 C1646 0.961 . S
H1661 C1647 0.958 . S
H1662 C1647 0.961 1_455 S
H1663 C1647 0.960 . S
C1664 C1665 1.391 . S
C1664 C1666 1.394 . S
C1664 H1680 0.931 . S
C1665 C1664 1.391 . S
C1665 C1669 1.376 . S
C1666 C1664 1.394 . S
C1666 C1667 1.369 . S
C1666 C1670 1.531 . S
C1667 C1666 1.369 . S
C1667 C1668 1.410 . S
C1667 C1675 1.503 . S
C1668 C1667 1.410 . S
C1668 C1669 1.392 . S
C1668 C1671 1.511 . S
C1669 C1665 1.376 . S
C1669 C1668 1.392 . S
C1669 H1681 0.929 . S
C1670 C1666 1.531 . S
C1670 H1682 0.960 . S
C1670 H1683 0.962 . S
C1670 H1684 0.960 . S
C1671 C1668 1.511 . S
C1671 H1685 0.961 . S
C1671 H1686 0.961 . S
C1671 H1687 0.961 . S
C1672 C1673 1.370 . S
C1672 C1674 1.363 . S
C1672 H1688 0.931 . S
C1673 C1672 1.370 . S
C1673 C1677 1.408 . S
C1674 C1672 1.363 . S
C1674 C1675 1.370 . S
C1674 C1678 1.524 . S
C1675 C1667 1.503 . S
C1675 C1674 1.370 . S
C1675 C1676 1.403 . S
C1676 C1675 1.403 . S
C1676 C1677 1.404 . S
C1676 C1679 1.539 . S
C1677 C1673 1.408 . S
C1677 C1676 1.404 . S
C1677 H1689 0.930 . S
C1678 C1674 1.524 . S
C1678 H1690 0.956 . S
C1678 H1691 0.961 . S
C1678 H1692 0.961 . S
C1679 C1676 1.539 . S
C1679 H1693 0.958 . S
C1679 H1694 0.961 . S
C1679 H1695 0.960 . S
H1680 C1664 0.931 . S
H1681 C1669 0.929 . S
H1682 C1670 0.960 . S
H1683 C1670 0.962 . S
H1684 C1670 0.960 . S
H1685 C1671 0.961 . S
H1686 C1671 0.961 . S
H1687 C1671 0.961 . S
H1688 C1672 0.931 . S
H1689 C1677 0.930 . S
H1690 C1678 0.956 . S
H1691 C1678 0.961 . S
H1692 C1678 0.961 . S
H1693 C1679 0.958 . S
H1694 C1679 0.961 . S
H1695 C1679 0.960 . S
C1696 C1697 1.391 . S
C1696 C1698 1.394 1_554 S
C1696 H1712 0.931 . S
C1697 C1696 1.391 . S
C1697 C1701 1.376 . S
C1698 C1696 1.394 1_556 S
C1698 C1699 1.369 . S
C1698 C1702 1.531 . S
C1699 C1698 1.369 . S
C1699 C1700 1.410 . S
C1699 C1707 1.503 . S
C1700 C1699 1.410 . S
C1700 C1701 1.392 1_556 S
C1700 C1703 1.511 . S
C1701 C1697 1.376 . S
C1701 C1700 1.392 1_554 S
C1701 H1713 0.929 . S
C1702 C1698 1.531 . S
C1702 H1714 0.960 . S
C1702 H1715 0.962 . S
C1702 H1716 0.960 . S
C1703 C1700 1.511 . S
C1703 H1717 0.961 . S
C1703 H1718 0.961 . S
C1703 H1719 0.961 . S
C1704 C1705 1.370 . S
C1704 C1706 1.363 . S
C1704 H1720 0.931 . S
C1705 C1704 1.370 . S
C1705 C1709 1.408 . S
C1706 C1704 1.363 . S
C1706 C1707 1.370 . S
C1706 C1710 1.524 . S
C1707 C1699 1.503 . S
C1707 C1706 1.370 . S
C1707 C1708 1.403 . S
C1708 C1707 1.403 . S
C1708 C1709 1.404 . S
C1708 C1711 1.539 . S
C1709 C1705 1.408 . S
C1709 C1708 1.404 . S
C1709 H1721 0.930 . S
C1710 C1706 1.524 . S
C1710 H1722 0.956 . S
C1710 H1723 0.961 . S
C1710 H1724 0.961 . S
C1711 C1708 1.539 . S
C1711 H1725 0.958 . S
C1711 H1726 0.961 . S
C1711 H1727 0.960 . S
H1712 C1696 0.931 . S
H1713 C1701 0.929 . S
H1714 C1702 0.960 . S
H1715 C1702 0.962 . S
H1716 C1702 0.960 . S
H1717 C1703 0.961 . S
H1718 C1703 0.961 . S
H1719 C1703 0.961 . S
H1720 C1704 0.931 . S
H1721 C1709 0.930 . S
H1722 C1710 0.956 . S
H1723 C1710 0.961 . S
H1724 C1710 0.961 . S
H1725 C1711 0.958 . S
H1726 C1711 0.961 . S
H1727 C1711 0.960 . S
C1728 C1729 1.391 . S
C1728 C1730 1.394 . S
C1728 H1744 0.931 . S
C1729 C1728 1.391 . S
C1729 C1733 1.376 . S
C1730 C1728 1.394 . S
C1730 C1731 1.369 . S
C1730 C1734 1.531 . S
C1731 C1730 1.369 . S
C1731 C1732 1.410 . S
C1731 C1739 1.503 . S
C1732 C1731 1.410 . S
C1732 C1733 1.392 . S
C1732 C1735 1.511 . S
C1733 C1729 1.376 . S
C1733 C1732 1.392 . S
C1733 H1745 0.929 . S
C1734 C1730 1.531 . S
C1734 H1746 0.960 . S
C1734 H1747 0.962 . S
C1734 H1748 0.960 . S
C1735 C1732 1.511 . S
C1735 H1749 0.961 . S
C1735 H1750 0.961 . S
C1735 H1751 0.961 . S
C1736 C1737 1.370 . S
C1736 C1738 1.363 . S
C1736 H1752 0.931 . S
C1737 C1736 1.370 . S
C1737 C1741 1.408 . S
C1738 C1736 1.363 . S
C1738 C1739 1.370 . S
C1738 C1742 1.524 . S
C1739 C1731 1.503 . S
C1739 C1738 1.370 . S
C1739 C1740 1.403 . S
C1740 C1739 1.403 . S
C1740 C1741 1.404 . S
C1740 C1743 1.539 . S
C1741 C1737 1.408 . S
C1741 C1740 1.404 . S
C1741 H1753 0.930 . S
C1742 C1738 1.524 . S
C1742 H1754 0.956 . S
C1742 H1755 0.961 . S
C1742 H1756 0.961 . S
C1743 C1740 1.539 . S
C1743 H1757 0.958 . S
C1743 H1758 0.961 . S
C1743 H1759 0.960 . S
H1744 C1728 0.931 . S
H1745 C1733 0.929 . S
H1746 C1734 0.960 . S
H1747 C1734 0.962 . S
H1748 C1734 0.960 . S
H1749 C1735 0.961 . S
H1750 C1735 0.961 . S
H1751 C1735 0.961 . S
H1752 C1736 0.931 . S
H1753 C1741 0.930 . S
H1754 C1742 0.956 . S
H1755 C1742 0.961 . S
H1756 C1742 0.961 . S
H1757 C1743 0.958 . S
H1758 C1743 0.961 . S
H1759 C1743 0.960 . S
C1760 C1761 1.391 . S
C1760 C1762 1.394 . S
C1760 H1776 0.931 . S
C1761 C1760 1.391 . S
C1761 C1765 1.376 . S
C1762 C1760 1.394 . S
C1762 C1763 1.369 . S
C1762 C1766 1.531 . S
C1763 C1762 1.369 . S
C1763 C1764 1.410 . S
C1763 C1771 1.503 . S
C1764 C1763 1.410 . S
C1764 C1765 1.392 . S
C1764 C1767 1.511 . S
C1765 C1761 1.376 . S
C1765 C1764 1.392 . S
C1765 H1777 0.929 . S
C1766 C1762 1.531 . S
C1766 H1778 0.960 . S
C1766 H1779 0.962 . S
C1766 H1780 0.960 . S
C1767 C1764 1.511 . S
C1767 H1781 0.961 . S
C1767 H1782 0.961 . S
C1767 H1783 0.961 . S
C1768 C1769 1.370 . S
C1768 C1770 1.363 . S
C1768 H1784 0.931 . S
C1769 C1768 1.370 . S
C1769 C1773 1.408 . S
C1770 C1768 1.363 . S
C1770 C1771 1.370 . S
C1770 C1774 1.524 . S
C1771 C1763 1.503 . S
C1771 C1770 1.370 . S
C1771 C1772 1.403 . S
C1772 C1771 1.403 . S
C1772 C1773 1.404 . S
C1772 C1775 1.539 . S
C1773 C1769 1.408 . S
C1773 C1772 1.404 . S
C1773 H1785 0.930 . S
C1774 C1770 1.524 . S
C1774 H1786 0.956 . S
C1774 H1787 0.961 . S
C1774 H1788 0.961 . S
C1775 C1772 1.539 . S
C1775 H1789 0.958 . S
C1775 H1790 0.961 . S
C1775 H1791 0.960 . S
H1776 C1760 0.931 . S
H1777 C1765 0.929 . S
H1778 C1766 0.960 . S
H1779 C1766 0.962 . S
H1780 C1766 0.960 . S
H1781 C1767 0.961 . S
H1782 C1767 0.961 . S
H1783 C1767 0.961 . S
H1784 C1768 0.931 . S
H1785 C1773 0.930 . S
H1786 C1774 0.956 . S
H1787 C1774 0.961 . S
H1788 C1774 0.961 . S
H1789 C1775 0.958 . S
H1790 C1775 0.961 . S
H1791 C1775 0.960 . S
C1792 C1793 1.391 . S
C1792 C1794 1.394 . S
C1792 H1808 0.931 . S
C1793 C1792 1.391 . S
C1793 C1797 1.376 . S
C1794 C1792 1.394 . S
C1794 C1795 1.369 . S
C1794 C1798 1.531 . S
C1795 C1794 1.369 . S
C1795 C1796 1.410 . S
C1795 C1803 1.503 . S
C1796 C1795 1.410 . S
C1796 C1797 1.392 . S
C1796 C1799 1.511 . S
C1797 C1793 1.376 . S
C1797 C1796 1.392 . S
C1797 H1809 0.929 . S
C1798 C1794 1.531 . S
C1798 H1810 0.960 . S
C1798 H1811 0.962 . S
C1798 H1812 0.960 . S
C1799 C1796 1.511 . S
C1799 H1813 0.961 . S
C1799 H1814 0.961 . S
C1799 H1815 0.961 . S
C1800 C1801 1.370 . S
C1800 C1802 1.363 . S
C1800 H1816 0.931 . S
C1801 C1800 1.370 . S
C1801 C1805 1.408 . S
C1802 C1800 1.363 . S
C1802 C1803 1.370 . S
C1802 C1806 1.524 . S
C1803 C1795 1.503 . S
C1803 C1802 1.370 . S
C1803 C1804 1.403 . S
C1804 C1803 1.403 . S
C1804 C1805 1.404 . S
C1804 C1807 1.539 . S
C1805 C1801 1.408 . S
C1805 C1804 1.404 . S
C1805 H1817 0.930 . S
C1806 C1802 1.524 . S
C1806 H1818 0.956 . S
C1806 H1819 0.961 . S
C1806 H1820 0.961 . S
C1807 C1804 1.539 . S
C1807 H1821 0.958 . S
C1807 H1822 0.961 . S
C1807 H1823 0.960 . S
H1808 C1792 0.931 . S
H1809 C1797 0.929 . S
H1810 C1798 0.960 . S
H1811 C1798 0.962 . S
H1812 C1798 0.960 . S
H1813 C1799 0.961 . S
H1814 C1799 0.961 . S
H1815 C1799 0.961 . S
H1816 C1800 0.931 . S
H1817 C1805 0.930 . S
H1818 C1806 0.956 . S
H1819 C1806 0.961 . S
H1820 C1806 0.961 . S
H1821 C1807 0.958 . S
H1822 C1807 0.961 . S
H1823 C1807 0.960 . S
C1824 C1825 1.391 . S
C1824 C1826 1.394 . S
C1824 H1840 0.931 . S
C1825 C1824 1.391 . S
C1825 C1829 1.376 . S
C1826 C1824 1.394 . S
C1826 C1827 1.369 . S
C1826 C1830 1.531 . S
C1827 C1826 1.369 . S
C1827 C1828 1.410 1_655 S
C1827 C1835 1.503 1_655 S
C1828 C1827 1.410 1_455 S
C1828 C1829 1.392 1_455 S
C1828 C1831 1.511 . S
C1829 C1825 1.376 . S
C1829 C1828 1.392 1_655 S
C1829 H1841 0.929 1_655 S
C1830 C1826 1.531 . S
C1830 H1842 0.960 . S
C1830 H1843 0.962 . S
C1830 H1844 0.960 . S
C1831 C1828 1.511 . S
C1831 H1845 0.961 . S
C1831 H1846 0.961 . S
C1831 H1847 0.961 . S
C1832 C1833 1.370 . S
C1832 C1834 1.363 1_554 S
C1832 H1848 0.931 . S
C1833 C1832 1.370 . S
C1833 C1837 1.408 . S
C1834 C1832 1.363 1_556 S
C1834 C1835 1.370 . S
C1834 C1838 1.524 . S
C1835 C1827 1.503 1_455 S
C1835 C1834 1.370 . S
C1835 C1836 1.413 . S
C1836 C1835 1.413 . S
C1836 C1837 1.388 1_556 S
C1836 C1839 1.545 . S
C1837 C1833 1.408 . S
C1837 C1836 1.388 1_554 S
C1837 H1849 0.930 . S
C1838 C1834 1.524 . S
C1838 H1850 0.956 1_455 S
C1838 H1851 0.961 . S
C1838 H1852 0.961 . S
C1839 C1836 1.545 . S
C1839 H1853 0.958 1_455 S
C1839 H1854 0.961 . S
C1839 H1855 0.960 . S
H1840 C1824 0.931 . S
H1841 C1829 0.929 1_455 S
H1842 C1830 0.960 . S
H1843 C1830 0.962 . S
H1844 C1830 0.960 . S
H1845 C1831 0.961 . S
H1846 C1831 0.961 . S
H1847 C1831 0.961 . S
H1848 C1832 0.931 . S
H1849 C1837 0.930 . S
H1850 C1838 0.956 1_655 S
H1851 C1838 0.961 . S
H1852 C1838 0.961 . S
H1853 C1839 0.958 1_655 S
H1854 C1839 0.961 . S
H1855 C1839 0.960 . S
C1856 C1857 1.391 . S
C1856 C1858 1.394 . S
C1856 H1872 0.931 . S
C1857 C1856 1.391 . S
C1857 C1861 1.376 . S
C1858 C1856 1.394 . S
C1858 C1859 1.369 . S
C1858 C1862 1.531 . S
C1859 C1858 1.369 . S
C1859 C1860 1.410 . S
C1859 C1867 1.503 . S
C1860 C1859 1.410 . S
C1860 C1861 1.392 . S
C1860 C1863 1.511 . S
C1861 C1857 1.376 . S
C1861 C1860 1.392 . S
C1861 H1873 0.929 . S
C1862 C1858 1.531 . S
C1862 H1874 0.960 . S
C1862 H1875 0.962 . S
C1862 H1876 0.960 . S
C1863 C1860 1.511 . S
C1863 H1877 0.961 . S
C1863 H1878 0.961 . S
C1863 H1879 0.961 . S
C1864 C1865 1.370 . S
C1864 C1866 1.363 . S
C1864 H1880 0.931 . S
C1865 C1864 1.370 . S
C1865 C1869 1.408 . S
C1866 C1864 1.363 . S
C1866 C1867 1.370 . S
C1866 C1870 1.524 . S
C1867 C1859 1.503 . S
C1867 C1866 1.370 . S
C1867 C1868 1.403 . S
C1868 C1867 1.403 . S
C1868 C1869 1.404 . S
C1868 C1871 1.539 . S
C1869 C1865 1.408 . S
C1869 C1868 1.404 . S
C1869 H1881 0.930 . S
C1870 C1866 1.524 . S
C1870 H1882 0.956 . S
C1870 H1883 0.961 . S
C1870 H1884 0.961 . S
C1871 C1868 1.539 . S
C1871 H1885 0.958 . S
C1871 H1886 0.961 . S
C1871 H1887 0.960 . S
H1872 C1856 0.931 . S
H1873 C1861 0.929 . S
H1874 C1862 0.960 . S
H1875 C1862 0.962 . S
H1876 C1862 0.960 . S
H1877 C1863 0.961 . S
H1878 C1863 0.961 . S
H1879 C1863 0.961 . S
H1880 C1864 0.931 . S
H1881 C1869 0.930 . S
H1882 C1870 0.956 . S
H1883 C1870 0.961 . S
H1884 C1870 0.961 . S
H1885 C1871 0.958 . S
H1886 C1871 0.961 . S
H1887 C1871 0.960 . S
C1888 C1889 1.391 . S
C1888 C1890 1.394 1_655 S
C1888 H1904 0.931 1_655 S
C1889 C1888 1.391 . S
C1889 C1893 1.376 . S
C1890 C1888 1.394 1_455 S
C1890 C1891 1.369 1_455 S
C1890 C1894 1.531 . S
C1891 C1890 1.369 1_655 S
C1891 C1892 1.410 . S
C1891 C1899 1.503 1_655 S
C1892 C1891 1.410 . S
C1892 C1893 1.392 . S
C1892 C1895 1.511 . S
C1893 C1889 1.376 . S
C1893 C1892 1.392 . S
C1893 H1905 0.929 . S
C1894 C1890 1.531 . S
C1894 H1906 0.960 . S
C1894 H1907 0.962 . S
C1894 H1908 0.960 . S
C1895 C1892 1.511 . S
C1895 H1909 0.961 . S
C1895 H1910 0.961 . S
C1895 H1911 0.961 . S
C1896 C1897 1.370 . S
C1896 C1898 1.363 . S
C1896 H1912 0.931 . S
C1897 C1896 1.370 . S
C1897 C1901 1.408 . S
C1898 C1896 1.363 . S
C1898 C1899 1.370 . S
C1898 C1902 1.524 . S
C1899 C1891 1.503 1_455 S
C1899 C1898 1.370 . S
C1899 C1900 1.403 . S
C1900 C1899 1.403 . S
C1900 C1901 1.404 . S
C1900 C1903 1.539 1_455 S
C1901 C1897 1.408 . S
C1901 C1900 1.404 . S
C1901 H1913 0.930 . S
C1902 C1898 1.524 . S
C1902 H1914 0.956 . S
C1902 H1915 0.961 1_455 S
C1902 H1916 0.961 . S
C1903 C1900 1.539 1_655 S
C1903 H1917 0.958 1_655 S
C1903 H1918 0.961 . S
C1903 H1919 0.960 . S
H1904 C1888 0.931 1_455 S
H1905 C1893 0.929 . S
H1906 C1894 0.960 . S
H1907 C1894 0.962 . S
H1908 C1894 0.960 . S
H1909 C1895 0.961 . S
H1910 C1895 0.961 . S
H1911 C1895 0.961 . S
H1912 C1896 0.931 . S
H1913 C1901 0.930 . S
H1914 C1902 0.956 . S
H1915 C1902 0.961 1_655 S
H1916 C1902 0.961 . S
H1917 C1903 0.958 1_455 S
H1918 C1903 0.961 . S
H1919 C1903 0.960 . S
C1920 C1921 1.391 . S
C1920 C1922 1.394 . S
C1920 H1936 0.931 . S
C1921 C1920 1.391 . S
C1921 C1925 1.376 . S
C1922 C1920 1.394 . S
C1922 C1923 1.369 . S
C1922 C1926 1.531 . S
C1923 C1922 1.369 . S
C1923 C1924 1.410 . S
C1923 C1931 1.503 . S
C1924 C1923 1.410 . S
C1924 C1925 1.392 . S
C1924 C1927 1.511 . S
C1925 C1921 1.376 . S
C1925 C1924 1.392 . S
C1925 H1937 0.929 . S
C1926 C1922 1.531 . S
C1926 H1938 0.960 . S
C1926 H1939 0.962 . S
C1926 H1940 0.960 . S
C1927 C1924 1.511 . S
C1927 H1941 0.961 . S
C1927 H1942 0.961 . S
C1927 H1943 0.961 . S
C1928 C1929 1.370 . S
C1928 C1930 1.363 . S
C1928 H1944 0.931 . S
C1929 C1928 1.370 . S
C1929 C1933 1.408 . S
C1930 C1928 1.363 . S
C1930 C1931 1.370 . S
C1930 C1934 1.524 . S
C1931 C1923 1.503 . S
C1931 C1930 1.370 . S
C1931 C1932 1.403 . S
C1932 C1931 1.403 . S
C1932 C1933 1.404 . S
C1932 C1935 1.539 . S
C1933 C1929 1.408 . S
C1933 C1932 1.404 . S
C1933 H1945 0.930 . S
C1934 C1930 1.524 . S
C1934 H1946 0.956 . S
C1934 H1947 0.961 . S
C1934 H1948 0.961 . S
C1935 C1932 1.539 . S
C1935 H1949 0.958 . S
C1935 H1950 0.961 . S
C1935 H1951 0.960 . S
H1936 C1920 0.931 . S
H1937 C1925 0.929 . S
H1938 C1926 0.960 . S
H1939 C1926 0.962 . S
H1940 C1926 0.960 . S
H1941 C1927 0.961 . S
H1942 C1927 0.961 . S
H1943 C1927 0.961 . S
H1944 C1928 0.931 . S
H1945 C1933 0.930 . S
H1946 C1934 0.956 . S
H1947 C1934 0.961 . S
H1948 C1934 0.961 . S
H1949 C1935 0.958 . S
H1950 C1935 0.961 . S
H1951 C1935 0.960 . S
C1952 C1953 1.391 . S
C1952 C1954 1.394 . S
C1952 H1968 0.931 . S
C1953 C1952 1.391 . S
C1953 C1957 1.376 . S
C1954 C1952 1.394 . S
C1954 C1955 1.369 . S
C1954 C1958 1.531 . S
C1955 C1954 1.369 . S
C1955 C1956 1.410 . S
C1955 C1963 1.503 . S
C1956 C1955 1.410 . S
C1956 C1957 1.392 . S
C1956 C1959 1.511 . S
C1957 C1953 1.376 . S
C1957 C1956 1.392 . S
C1957 H1969 0.929 . S
C1958 C1954 1.531 . S
C1958 H1970 0.960 . S
C1958 H1971 0.962 . S
C1958 H1972 0.960 . S
C1959 C1956 1.511 . S
C1959 H1973 0.961 . S
C1959 H1974 0.961 . S
C1959 H1975 0.961 . S
C1960 C1961 1.370 . S
C1960 C1962 1.363 . S
C1960 H1976 0.931 . S
C1961 C1960 1.370 . S
C1961 C1965 1.408 . S
C1962 C1960 1.363 . S
C1962 C1963 1.370 1_556 S
C1962 C1966 1.524 1_556 S
C1963 C1955 1.503 . S
C1963 C1962 1.370 1_554 S
C1963 C1964 1.403 . S
C1964 C1963 1.403 . S
C1964 C1965 1.404 1_554 S
C1964 C1967 1.539 . S
C1965 C1961 1.408 . S
C1965 C1964 1.404 1_556 S
C1965 H1977 0.930 . S
C1966 C1962 1.524 1_554 S
C1966 H1978 0.956 . S
C1966 H1979 0.961 . S
C1966 H1980 0.961 1_554 S
C1967 C1964 1.539 . S
C1967 H1981 0.958 . S
C1967 H1982 0.961 . S
C1967 H1983 0.960 . S
H1968 C1952 0.931 . S
H1969 C1957 0.929 . S
H1970 C1958 0.960 . S
H1971 C1958 0.962 . S
H1972 C1958 0.960 . S
H1973 C1959 0.961 . S
H1974 C1959 0.961 . S
H1975 C1959 0.961 . S
H1976 C1960 0.931 . S
H1977 C1965 0.930 . S
H1978 C1966 0.956 . S
H1979 C1966 0.961 . S
H1980 C1966 0.961 1_556 S
H1981 C1967 0.958 . S
H1982 C1967 0.961 . S
H1983 C1967 0.960 . S
C1984 C1985 1.391 . S
C1984 C1986 1.394 . S
C1984 H2000 0.931 . S
C1985 C1984 1.391 . S
C1985 C1989 1.376 . S
C1986 C1984 1.394 . S
C1986 C1987 1.369 . S
C1986 C1990 1.531 . S
C1987 C1986 1.369 . S
C1987 C1988 1.410 . S
C1987 C1995 1.503 . S
C1988 C1987 1.410 . S
C1988 C1989 1.392 . S
C1988 C1991 1.511 . S
C1989 C1985 1.376 . S
C1989 C1988 1.392 . S
C1989 H2001 0.929 . S
C1990 C1986 1.531 . S
C1990 H2002 0.960 . S
C1990 H2003 0.962 . S
C1990 H2004 0.960 . S
C1991 C1988 1.511 . S
C1991 H2005 0.961 . S
C1991 H2006 0.961 . S
C1991 H2007 0.961 . S
C1992 C1993 1.370 . S
C1992 C1994 1.363 . S
C1992 H2008 0.931 . S
C1993 C1992 1.370 . S
C1993 C1997 1.408 . S
C1994 C1992 1.363 . S
C1994 C1995 1.370 . S
C1994 C1998 1.524 . S
C1995 C1987 1.503 . S
C1995 C1994 1.370 . S
C1995 C1996 1.403 . S
C1996 C1995 1.403 . S
C1996 C1997 1.404 . S
C1996 C1999 1.539 . S
C1997 C1993 1.408 . S
C1997 C1996 1.404 . S
C1997 H2009 0.930 . S
C1998 C1994 1.524 . S
C1998 H2010 0.956 . S
C1998 H2011 0.961 . S
C1998 H2012 0.961 . S
C1999 C1996 1.539 . S
C1999 H2013 0.958 . S
C1999 H2014 0.961 . S
C1999 H2015 0.960 . S
H2000 C1984 0.931 . S
H2001 C1989 0.929 . S
H2002 C1990 0.960 . S
H2003 C1990 0.962 . S
H2004 C1990 0.960 . S
H2005 C1991 0.961 . S
H2006 C1991 0.961 . S
H2007 C1991 0.961 . S
H2008 C1992 0.931 . S
H2009 C1997 0.930 . S
H2010 C1998 0.956 . S
H2011 C1998 0.961 . S
H2012 C1998 0.961 . S
H2013 C1999 0.958 . S
H2014 C1999 0.961 . S
H2015 C1999 0.960 . S
C2016 C2017 1.391 . S
C2016 C2018 1.394 . S
C2016 H2032 0.931 . S
C2017 C2016 1.391 . S
C2017 C2021 1.376 . S
C2018 C2016 1.394 . S
C2018 C2019 1.369 . S
C2018 C2022 1.531 . S
C2019 C2018 1.369 . S
C2019 C2020 1.410 . S
C2019 C2027 1.503 . S
C2020 C2019 1.410 . S
C2020 C2021 1.392 . S
C2020 C2023 1.511 . S
C2021 C2017 1.376 . S
C2021 C2020 1.392 . S
C2021 H2033 0.929 . S
C2022 C2018 1.531 . S
C2022 H2034 0.960 . S
C2022 H2035 0.962 . S
C2022 H2036 0.960 . S
C2023 C2020 1.511 . S
C2023 H2037 0.961 . S
C2023 H2038 0.961 . S
C2023 H2039 0.961 . S
C2024 C2025 1.370 . S
C2024 C2026 1.363 . S
C2024 H2040 0.931 . S
C2025 C2024 1.370 . S
C2025 C2029 1.408 . S
C2026 C2024 1.363 . S
C2026 C2027 1.370 . S
C2026 C2030 1.524 . S
C2027 C2019 1.503 . S
C2027 C2026 1.370 . S
C2027 C2028 1.403 . S
C2028 C2027 1.403 . S
C2028 C2029 1.404 . S
C2028 C2031 1.539 . S
C2029 C2025 1.408 . S
C2029 C2028 1.404 . S
C2029 H2041 0.930 . S
C2030 C2026 1.524 . S
C2030 H2042 0.956 . S
C2030 H2043 0.961 . S
C2030 H2044 0.961 . S
C2031 C2028 1.539 . S
C2031 H2045 0.958 . S
C2031 H2046 0.961 . S
C2031 H2047 0.960 . S
H2032 C2016 0.931 . S
H2033 C2021 0.929 . S
H2034 C2022 0.960 . S
H2035 C2022 0.962 . S
H2036 C2022 0.960 . S
H2037 C2023 0.961 . S
H2038 C2023 0.961 . S
H2039 C2023 0.961 . S
H2040 C2024 0.931 . S
H2041 C2029 0.930 . S
H2042 C2030 0.956 . S
H2043 C2030 0.961 . S
H2044 C2030 0.961 . S
H2045 C2031 0.958 . S
H2046 C2031 0.961 . S
H2047 C2031 0.960 . S
C2048 C2049 1.391 . S
C2048 C2050 1.394 . S
C2048 H2064 0.931 . S
C2049 C2048 1.391 . S
C2049 C2053 1.376 . S
C2050 C2048 1.394 . S
C2050 C2051 1.369 . S
C2050 C2054 1.531 . S
C2051 C2050 1.369 . S
C2051 C2052 1.410 . S
C2051 C2059 1.503 . S
C2052 C2051 1.410 . S
C2052 C2053 1.392 . S
C2052 C2055 1.511 . S
C2053 C2049 1.376 . S
C2053 C2052 1.392 . S
C2053 H2065 0.929 . S
C2054 C2050 1.531 . S
C2054 H2066 0.960 . S
C2054 H2067 0.962 . S
C2054 H2068 0.960 . S
C2055 C2052 1.511 . S
C2055 H2069 0.961 . S
C2055 H2070 0.961 . S
C2055 H2071 0.961 . S
C2056 C2057 1.370 . S
C2056 C2058 1.363 . S
C2056 H2072 0.931 . S
C2057 C2056 1.370 . S
C2057 C2061 1.408 . S
C2058 C2056 1.363 . S
C2058 C2059 1.370 . S
C2058 C2062 1.524 . S
C2059 C2051 1.503 . S
C2059 C2058 1.370 . S
C2059 C2060 1.403 . S
C2060 C2059 1.403 . S
C2060 C2061 1.404 . S
C2060 C2063 1.539 . S
C2061 C2057 1.408 . S
C2061 C2060 1.404 . S
C2061 H2073 0.930 . S
C2062 C2058 1.524 . S
C2062 H2074 0.956 . S
C2062 H2075 0.961 . S
C2062 H2076 0.961 . S
C2063 C2060 1.539 . S
C2063 H2077 0.958 . S
C2063 H2078 0.961 . S
C2063 H2079 0.960 . S
H2064 C2048 0.931 . S
H2065 C2053 0.929 . S
H2066 C2054 0.960 . S
H2067 C2054 0.962 . S
H2068 C2054 0.960 . S
H2069 C2055 0.961 . S
H2070 C2055 0.961 . S
H2071 C2055 0.961 . S
H2072 C2056 0.931 . S
H2073 C2061 0.930 . S
H2074 C2062 0.956 . S
H2075 C2062 0.961 . S
H2076 C2062 0.961 . S
H2077 C2063 0.958 . S
H2078 C2063 0.961 . S
H2079 C2063 0.960 . S
C2080 C2081 1.391 . S
C2080 C2082 1.394 . S
C2080 H2096 0.931 . S
C2081 C2080 1.391 . S
C2081 C2085 1.376 . S
C2082 C2080 1.394 . S
C2082 C2083 1.369 . S
C2082 C2086 1.531 . S
C2083 C2082 1.369 . S
C2083 C2084 1.410 . S
C2083 C2091 1.503 . S
C2084 C2083 1.410 . S
C2084 C2085 1.392 . S
C2084 C2087 1.511 . S
C2085 C2081 1.376 . S
C2085 C2084 1.392 . S
C2085 H2097 0.929 . S
C2086 C2082 1.531 . S
C2086 H2098 0.960 . S
C2086 H2099 0.962 . S
C2086 H2100 0.960 1_556 S
C2087 C2084 1.511 . S
C2087 H2101 0.961 . S
C2087 H2102 0.961 . S
C2087 H2103 0.961 . S
C2088 C2089 1.370 . S
C2088 C2090 1.363 . S
C2088 H2104 0.931 . S
C2089 C2088 1.370 . S
C2089 C2093 1.408 . S
C2090 C2088 1.363 . S
C2090 C2091 1.370 . S
C2090 C2094 1.524 . S
C2091 C2083 1.503 . S
C2091 C2090 1.370 . S
C2091 C2092 1.403 . S
C2092 C2091 1.403 . S
C2092 C2093 1.404 . S
C2092 C2095 1.539 . S
C2093 C2089 1.408 . S
C2093 C2092 1.404 . S
C2093 H2105 0.930 . S
C2094 C2090 1.524 . S
C2094 H2106 0.956 . S
C2094 H2107 0.961 . S
C2094 H2108 0.961 . S
C2095 C2092 1.539 . S
C2095 H2109 0.958 . S
C2095 H2110 0.961 . S
C2095 H2111 0.960 . S
H2096 C2080 0.931 . S
H2097 C2085 0.929 . S
H2098 C2086 0.960 . S
H2099 C2086 0.962 . S
H2100 C2086 0.960 1_554 S
H2101 C2087 0.961 . S
H2102 C2087 0.961 . S
H2103 C2087 0.961 . S
H2104 C2088 0.931 . S
H2105 C2093 0.930 . S
H2106 C2094 0.956 . S
H2107 C2094 0.961 . S
H2108 C2094 0.961 . S
H2109 C2095 0.958 . S
H2110 C2095 0.961 . S
H2111 C2095 0.960 . S
C2112 C2113 1.391 . S
C2112 C2114 1.394 . S
C2112 H2128 0.931 . S
C2113 C2112 1.391 . S
C2113 C2117 1.376 . S
C2114 C2112 1.394 . S
C2114 C2115 1.369 . S
C2114 C2118 1.531 . S
C2115 C2114 1.369 . S
C2115 C2116 1.410 . S
C2115 C2123 1.503 . S
C2116 C2115 1.410 . S
C2116 C2117 1.392 . S
C2116 C2119 1.511 . S
C2117 C2113 1.376 . S
C2117 C2116 1.392 . S
C2117 H2129 0.929 . S
C2118 C2114 1.531 . S
C2118 H2130 0.960 . S
C2118 H2131 0.962 . S
C2118 H2132 0.960 . S
C2119 C2116 1.511 . S
C2119 H2133 0.961 . S
C2119 H2134 0.961 . S
C2119 H2135 0.961 . S
C2120 C2121 1.370 . S
C2120 C2122 1.363 . S
C2120 H2136 0.931 . S
C2121 C2120 1.370 . S
C2121 C2125 1.408 . S
C2122 C2120 1.363 . S
C2122 C2123 1.370 . S
C2122 C2126 1.524 . S
C2123 C2115 1.503 . S
C2123 C2122 1.370 . S
C2123 C2124 1.403 . S
C2124 C2123 1.403 . S
C2124 C2125 1.404 . S
C2124 C2127 1.539 . S
C2125 C2121 1.408 . S
C2125 C2124 1.404 . S
C2125 H2137 0.930 . S
C2126 C2122 1.524 . S
C2126 H2138 0.956 . S
C2126 H2139 0.961 . S
C2126 H2140 0.961 . S
C2127 C2124 1.539 . S
C2127 H2141 0.958 . S
C2127 H2142 0.961 . S
C2127 H2143 0.960 . S
H2128 C2112 0.931 . S
H2129 C2117 0.929 . S
H2130 C2118 0.960 . S
H2131 C2118 0.962 . S
H2132 C2118 0.960 . S
H2133 C2119 0.961 . S
H2134 C2119 0.961 . S
H2135 C2119 0.961 . S
H2136 C2120 0.931 . S
H2137 C2125 0.930 . S
H2138 C2126 0.956 . S
H2139 C2126 0.961 . S
H2140 C2126 0.961 . S
H2141 C2127 0.958 . S
H2142 C2127 0.961 . S
H2143 C2127 0.960 . S
C2144 C2145 1.391 . S
C2144 C2146 1.394 . S
C2144 H2160 0.931 . S
C2145 C2144 1.391 . S
C2145 C2149 1.376 . S
C2146 C2144 1.394 . S
C2146 C2147 1.369 . S
C2146 C2150 1.531 . S
C2147 C2146 1.369 . S
C2147 C2148 1.410 . S
C2147 C2155 1.503 . S
C2148 C2147 1.410 . S
C2148 C2149 1.392 . S
C2148 C2151 1.511 . S
C2149 C2145 1.376 . S
C2149 C2148 1.392 . S
C2149 H2161 0.929 . S
C2150 C2146 1.531 . S
C2150 H2162 0.960 . S
C2150 H2163 0.962 . S
C2150 H2164 0.960 . S
C2151 C2148 1.511 . S
C2151 H2165 0.961 . S
C2151 H2166 0.961 . S
C2151 H2167 0.961 . S
C2152 C2153 1.370 . S
C2152 C2154 1.363 . S
C2152 H2168 0.931 . S
C2153 C2152 1.370 . S
C2153 C2157 1.408 . S
C2154 C2152 1.363 . S
C2154 C2155 1.370 . S
C2154 C2158 1.524 . S
C2155 C2147 1.503 . S
C2155 C2154 1.370 . S
C2155 C2156 1.403 . S
C2156 C2155 1.403 . S
C2156 C2157 1.404 . S
C2156 C2159 1.539 . S
C2157 C2153 1.408 . S
C2157 C2156 1.404 . S
C2157 H2169 0.930 . S
C2158 C2154 1.524 . S
C2158 H2170 0.956 . S
C2158 H2171 0.961 . S
C2158 H2172 0.961 . S
C2159 C2156 1.539 . S
C2159 H2173 0.958 . S
C2159 H2174 0.961 . S
C2159 H2175 0.960 . S
H2160 C2144 0.931 . S
H2161 C2149 0.929 . S
H2162 C2150 0.960 . S
H2163 C2150 0.962 . S
H2164 C2150 0.960 . S
H2165 C2151 0.961 . S
H2166 C2151 0.961 . S
H2167 C2151 0.961 . S
H2168 C2152 0.931 . S
H2169 C2157 0.930 . S
H2170 C2158 0.956 . S
H2171 C2158 0.961 . S
H2172 C2158 0.961 . S
H2173 C2159 0.958 . S
H2174 C2159 0.961 . S
H2175 C2159 0.960 . S
C2176 C2177 1.391 . S
C2176 C2178 1.394 . S
C2176 H2192 0.931 . S
C2177 C2176 1.391 . S
C2177 C2181 1.376 . S
C2178 C2176 1.394 . S
C2178 C2179 1.369 . S
C2178 C2182 1.531 . S
C2179 C2178 1.369 . S
C2179 C2180 1.410 . S
C2179 C2187 1.503 . S
C2180 C2179 1.410 . S
C2180 C2181 1.392 . S
C2180 C2183 1.511 . S
C2181 C2177 1.376 . S
C2181 C2180 1.392 . S
C2181 H2193 0.929 . S
C2182 C2178 1.531 . S
C2182 H2194 0.960 . S
C2182 H2195 0.962 . S
C2182 H2196 0.960 . S
C2183 C2180 1.511 . S
C2183 H2197 0.961 . S
C2183 H2198 0.961 . S
C2183 H2199 0.961 . S
C2184 C2185 1.370 . S
C2184 C2186 1.363 . S
C2184 H2200 0.931 . S
C2185 C2184 1.370 . S
C2185 C2189 1.408 . S
C2186 C2184 1.363 . S
C2186 C2187 1.370 . S
C2186 C2190 1.524 . S
C2187 C2179 1.503 . S
C2187 C2186 1.370 . S
C2187 C2188 1.403 . S
C2188 C2187 1.403 . S
C2188 C2189 1.404 . S
C2188 C2191 1.539 . S
C2189 C2185 1.408 . S
C2189 C2188 1.404 . S
C2189 H2201 0.930 . S
C2190 C2186 1.524 . S
C2190 H2202 0.956 . S
C2190 H2203 0.961 . S
C2190 H2204 0.961 . S
C2191 C2188 1.539 . S
C2191 H2205 0.958 . S
C2191 H2206 0.961 . S
C2191 H2207 0.960 . S
H2192 C2176 0.931 . S
H2193 C2181 0.929 . S
H2194 C2182 0.960 . S
H2195 C2182 0.962 . S
H2196 C2182 0.960 . S
H2197 C2183 0.961 . S
H2198 C2183 0.961 . S
H2199 C2183 0.961 . S
H2200 C2184 0.931 . S
H2201 C2189 0.930 . S
H2202 C2190 0.956 . S
H2203 C2190 0.961 . S
H2204 C2190 0.961 . S
H2205 C2191 0.958 . S
H2206 C2191 0.961 . S
H2207 C2191 0.960 . S
C2208 C2209 1.391 . S
C2208 C2210 1.394 . S
C2208 H2224 0.931 . S
C2209 C2208 1.391 . S
C2209 C2213 1.376 . S
C2210 C2208 1.394 . S
C2210 C2211 1.369 . S
C2210 C2214 1.531 . S
C2211 C2210 1.369 . S
C2211 C2212 1.410 . S
C2211 C2219 1.503 . S
C2212 C2211 1.410 . S
C2212 C2213 1.392 . S
C2212 C2215 1.511 . S
C2213 C2209 1.376 . S
C2213 C2212 1.392 . S
C2213 H2225 0.929 . S
C2214 C2210 1.531 . S
C2214 H2226 0.960 . S
C2214 H2227 0.962 . S
C2214 H2228 0.960 . S
C2215 C2212 1.511 . S
C2215 H2229 0.961 . S
C2215 H2230 0.961 . S
C2215 H2231 0.961 . S
C2216 C2217 1.370 . S
C2216 C2218 1.363 . S
C2216 H2232 0.931 . S
C2217 C2216 1.370 . S
C2217 C2221 1.408 . S
C2218 C2216 1.363 . S
C2218 C2219 1.370 . S
C2218 C2222 1.524 . S
C2219 C2211 1.503 . S
C2219 C2218 1.370 . S
C2219 C2220 1.403 . S
C2220 C2219 1.403 . S
C2220 C2221 1.404 . S
C2220 C2223 1.539 . S
C2221 C2217 1.408 . S
C2221 C2220 1.404 . S
C2221 H2233 0.930 . S
C2222 C2218 1.524 . S
C2222 H2234 0.956 . S
C2222 H2235 0.961 . S
C2222 H2236 0.961 . S
C2223 C2220 1.539 . S
C2223 H2237 0.958 . S
C2223 H2238 0.961 . S
C2223 H2239 0.960 . S
H2224 C2208 0.931 . S
H2225 C2213 0.929 . S
H2226 C2214 0.960 . S
H2227 C2214 0.962 . S
H2228 C2214 0.960 . S
H2229 C2215 0.961 . S
H2230 C2215 0.961 . S
H2231 C2215 0.961 . S
H2232 C2216 0.931 . S
H2233 C2221 0.930 . S
H2234 C2222 0.956 . S
H2235 C2222 0.961 . S
H2236 C2222 0.961 . S
H2237 C2223 0.958 . S
H2238 C2223 0.961 . S
H2239 C2223 0.960 . S
C2240 C2241 1.391 . S
C2240 C2242 1.394 . S
C2240 H2256 0.931 . S
C2241 C2240 1.391 . S
C2241 C2245 1.376 . S
C2242 C2240 1.394 . S
C2242 C2243 1.369 . S
C2242 C2246 1.531 . S
C2243 C2242 1.369 . S
C2243 C2244 1.410 . S
C2243 C2251 1.503 . S
C2244 C2243 1.410 . S
C2244 C2245 1.392 . S
C2244 C2247 1.511 . S
C2245 C2241 1.376 . S
C2245 C2244 1.392 . S
C2245 H2257 0.929 . S
C2246 C2242 1.531 . S
C2246 H2258 0.960 . S
C2246 H2259 0.962 . S
C2246 H2260 0.960 1_556 S
C2247 C2244 1.511 . S
C2247 H2261 0.961 . S
C2247 H2262 0.961 . S
C2247 H2263 0.961 . S
C2248 C2249 1.370 . S
C2248 C2250 1.363 . S
C2248 H2264 0.931 . S
C2249 C2248 1.370 . S
C2249 C2253 1.408 . S
C2250 C2248 1.363 . S
C2250 C2251 1.370 . S
C2250 C2254 1.524 . S
C2251 C2243 1.503 . S
C2251 C2250 1.370 . S
C2251 C2252 1.403 . S
C2252 C2251 1.403 . S
C2252 C2253 1.404 . S
C2252 C2255 1.539 . S
C2253 C2249 1.408 . S
C2253 C2252 1.404 . S
C2253 H2265 0.930 . S
C2254 C2250 1.524 . S
C2254 H2266 0.956 . S
C2254 H2267 0.961 . S
C2254 H2268 0.961 . S
C2255 C2252 1.539 . S
C2255 H2269 0.958 . S
C2255 H2270 0.961 . S
C2255 H2271 0.960 . S
H2256 C2240 0.931 . S
H2257 C2245 0.929 . S
H2258 C2246 0.960 . S
H2259 C2246 0.962 . S
H2260 C2246 0.960 1_554 S
H2261 C2247 0.961 . S
H2262 C2247 0.961 . S
H2263 C2247 0.961 . S
H2264 C2248 0.931 . S
H2265 C2253 0.930 . S
H2266 C2254 0.956 . S
H2267 C2254 0.961 . S
H2268 C2254 0.961 . S
H2269 C2255 0.958 . S
H2270 C2255 0.961 . S
H2271 C2255 0.960 . S
C2272 C2273 1.391 . S
C2272 C2274 1.394 . S
C2272 H2288 0.931 . S
C2273 C2272 1.391 . S
C2273 C2277 1.376 . S
C2274 C2272 1.394 . S
C2274 C2275 1.369 . S
C2274 C2278 1.531 . S
C2275 C2274 1.369 . S
C2275 C2276 1.410 . S
C2275 C2283 1.503 . S
C2276 C2275 1.410 . S
C2276 C2277 1.392 . S
C2276 C2279 1.511 . S
C2277 C2273 1.376 . S
C2277 C2276 1.392 . S
C2277 H2289 0.929 . S
C2278 C2274 1.531 . S
C2278 H2290 0.960 . S
C2278 H2291 0.962 . S
C2278 H2292 0.960 . S
C2279 C2276 1.511 . S
C2279 H2293 0.961 . S
C2279 H2294 0.961 . S
C2279 H2295 0.961 . S
C2280 C2281 1.370 . S
C2280 C2282 1.363 . S
C2280 H2296 0.931 . S
C2281 C2280 1.370 . S
C2281 C2285 1.408 . S
C2282 C2280 1.363 . S
C2282 C2283 1.370 . S
C2282 C2286 1.524 . S
C2283 C2275 1.503 . S
C2283 C2282 1.370 . S
C2283 C2284 1.403 . S
C2284 C2283 1.403 . S
C2284 C2285 1.404 . S
C2284 C2287 1.539 . S
C2285 C2281 1.408 . S
C2285 C2284 1.404 . S
C2285 H2297 0.930 . S
C2286 C2282 1.524 . S
C2286 H2298 0.956 . S
C2286 H2299 0.961 . S
C2286 H2300 0.961 . S
C2287 C2284 1.539 . S
C2287 H2301 0.958 . S
C2287 H2302 0.961 . S
C2287 H2303 0.960 . S
H2288 C2272 0.931 . S
H2289 C2277 0.929 . S
H2290 C2278 0.960 . S
H2291 C2278 0.962 . S
H2292 C2278 0.960 . S
H2293 C2279 0.961 . S
H2294 C2279 0.961 . S
H2295 C2279 0.961 . S
H2296 C2280 0.931 . S
H2297 C2285 0.930 . S
H2298 C2286 0.956 . S
H2299 C2286 0.961 . S
H2300 C2286 0.961 . S
H2301 C2287 0.958 . S
H2302 C2287 0.961 . S
H2303 C2287 0.960 . S
C2304 C2305 1.391 . S
C2304 C2306 1.394 . S
C2304 H2320 0.931 . S
C2305 C2304 1.391 . S
C2305 C2309 1.376 . S
C2306 C2304 1.394 . S
C2306 C2307 1.369 . S
C2306 C2310 1.531 . S
C2307 C2306 1.369 . S
C2307 C2308 1.410 . S
C2307 C2315 1.503 . S
C2308 C2307 1.410 . S
C2308 C2309 1.392 . S
C2308 C2311 1.511 . S
C2309 C2305 1.376 . S
C2309 C2308 1.392 . S
C2309 H2321 0.929 . S
C2310 C2306 1.531 . S
C2310 H2322 0.960 . S
C2310 H2323 0.962 . S
C2310 H2324 0.960 . S
C2311 C2308 1.511 . S
C2311 H2325 0.961 . S
C2311 H2326 0.961 . S
C2311 H2327 0.961 . S
C2312 C2313 1.370 . S
C2312 C2314 1.363 . S
C2312 H2328 0.931 . S
C2313 C2312 1.370 . S
C2313 C2317 1.408 . S
C2314 C2312 1.363 . S
C2314 C2315 1.370 . S
C2314 C2318 1.524 . S
C2315 C2307 1.503 . S
C2315 C2314 1.370 . S
C2315 C2316 1.403 . S
C2316 C2315 1.403 . S
C2316 C2317 1.404 . S
C2316 C2319 1.539 . S
C2317 C2313 1.408 . S
C2317 C2316 1.404 . S
C2317 H2329 0.930 . S
C2318 C2314 1.524 . S
C2318 H2330 0.956 . S
C2318 H2331 0.961 . S
C2318 H2332 0.961 . S
C2319 C2316 1.539 . S
C2319 H2333 0.958 . S
C2319 H2334 0.961 . S
C2319 H2335 0.960 . S
H2320 C2304 0.931 . S
H2321 C2309 0.929 . S
H2322 C2310 0.960 . S
H2323 C2310 0.962 . S
H2324 C2310 0.960 . S
H2325 C2311 0.961 . S
H2326 C2311 0.961 . S
H2327 C2311 0.961 . S
H2328 C2312 0.931 . S
H2329 C2317 0.930 . S
H2330 C2318 0.956 . S
H2331 C2318 0.961 . S
H2332 C2318 0.961 . S
H2333 C2319 0.958 . S
H2334 C2319 0.961 . S
H2335 C2319 0.960 . S
C2336 C2337 1.391 . S
C2336 C2338 1.394 . S
C2336 H2352 0.931 . S
C2337 C2336 1.391 . S
C2337 C2341 1.376 . S
C2338 C2336 1.394 . S
C2338 C2339 1.369 . S
C2338 C2342 1.531 . S
C2339 C2338 1.369 . S
C2339 C2340 1.410 . S
C2339 C2347 1.503 . S
C2340 C2339 1.410 . S
C2340 C2341 1.392 . S
C2340 C2343 1.511 . S
C2341 C2337 1.376 . S
C2341 C2340 1.392 . S
C2341 H2353 0.929 . S
C2342 C2338 1.531 . S
C2342 H2354 0.960 . S
C2342 H2355 0.962 . S
C2342 H2356 0.960 1_554 S
C2343 C2340 1.511 . S
C2343 H2357 0.961 . S
C2343 H2358 0.961 . S
C2343 H2359 0.961 . S
C2344 C2345 1.370 . S
C2344 C2346 1.363 . S
C2344 H2360 0.931 . S
C2345 C2344 1.370 . S
C2345 C2349 1.408 . S
C2346 C2344 1.363 . S
C2346 C2347 1.370 . S
C2346 C2350 1.524 . S
C2347 C2339 1.503 . S
C2347 C2346 1.370 . S
C2347 C2348 1.403 . S
C2348 C2347 1.403 . S
C2348 C2349 1.404 . S
C2348 C2351 1.539 . S
C2349 C2345 1.408 . S
C2349 C2348 1.404 . S
C2349 H2361 0.930 . S
C2350 C2346 1.524 . S
C2350 H2362 0.956 . S
C2350 H2363 0.961 . S
C2350 H2364 0.961 . S
C2351 C2348 1.539 . S
C2351 H2365 0.958 . S
C2351 H2366 0.961 . S
C2351 H2367 0.960 . S
H2352 C2336 0.931 . S
H2353 C2341 0.929 . S
H2354 C2342 0.960 . S
H2355 C2342 0.962 . S
H2356 C2342 0.960 1_556 S
H2357 C2343 0.961 . S
H2358 C2343 0.961 . S
H2359 C2343 0.961 . S
H2360 C2344 0.931 . S
H2361 C2349 0.930 . S
H2362 C2350 0.956 . S
H2363 C2350 0.961 . S
H2364 C2350 0.961 . S
H2365 C2351 0.958 . S
H2366 C2351 0.961 . S
H2367 C2351 0.960 . S
C2368 C2369 1.391 . S
C2368 C2370 1.394 . S
C2368 H2384 0.931 . S
C2369 C2368 1.391 . S
C2369 C2373 1.376 . S
C2370 C2368 1.394 . S
C2370 C2371 1.369 . S
C2370 C2374 1.531 . S
C2371 C2370 1.369 . S
C2371 C2372 1.410 . S
C2371 C2379 1.503 . S
C2372 C2371 1.410 . S
C2372 C2373 1.392 . S
C2372 C2375 1.511 . S
C2373 C2369 1.376 . S
C2373 C2372 1.392 . S
C2373 H2385 0.929 . S
C2374 C2370 1.531 . S
C2374 H2386 0.960 . S
C2374 H2387 0.962 . S
C2374 H2388 0.960 . S
C2375 C2372 1.511 . S
C2375 H2389 0.961 . S
C2375 H2390 0.961 . S
C2375 H2391 0.961 . S
C2376 C2377 1.370 . S
C2376 C2378 1.363 . S
C2376 H2392 0.931 . S
C2377 C2376 1.370 . S
C2377 C2381 1.408 . S
C2378 C2376 1.363 . S
C2378 C2379 1.370 . S
C2378 C2382 1.524 . S
C2379 C2371 1.503 . S
C2379 C2378 1.370 . S
C2379 C2380 1.403 . S
C2380 C2379 1.403 . S
C2380 C2381 1.404 . S
C2380 C2383 1.539 . S
C2381 C2377 1.408 . S
C2381 C2380 1.404 . S
C2381 H2393 0.930 . S
C2382 C2378 1.524 . S
C2382 H2394 0.956 . S
C2382 H2395 0.961 . S
C2382 H2396 0.961 . S
C2383 C2380 1.539 . S
C2383 H2397 0.958 . S
C2383 H2398 0.961 . S
C2383 H2399 0.960 . S
H2384 C2368 0.931 . S
H2385 C2373 0.929 . S
H2386 C2374 0.960 . S
H2387 C2374 0.962 . S
H2388 C2374 0.960 . S
H2389 C2375 0.961 . S
H2390 C2375 0.961 . S
H2391 C2375 0.961 . S
H2392 C2376 0.931 . S
H2393 C2381 0.930 . S
H2394 C2382 0.956 . S
H2395 C2382 0.961 . S
H2396 C2382 0.961 . S
H2397 C2383 0.958 . S
H2398 C2383 0.961 . S
H2399 C2383 0.960 . S
C2400 C2401 1.391 . S
C2400 C2402 1.394 . S
C2400 H2416 0.931 . S
C2401 C2400 1.391 . S
C2401 C2405 1.376 . S
C2402 C2400 1.394 . S
C2402 C2403 1.369 . S
C2402 C2406 1.531 . S
C2403 C2402 1.369 . S
C2403 C2404 1.410 . S
C2403 C2411 1.503 . S
C2404 C2403 1.410 . S
C2404 C2405 1.392 . S
C2404 C2407 1.511 . S
C2405 C2401 1.376 . S
C2405 C2404 1.392 . S
C2405 H2417 0.929 . S
C2406 C2402 1.531 . S
C2406 H2418 0.960 . S
C2406 H2419 0.962 . S
C2406 H2420 0.960 . S
C2407 C2404 1.511 . S
C2407 H2421 0.961 . S
C2407 H2422 0.961 . S
C2407 H2423 0.961 . S
C2408 C2409 1.370 . S
C2408 C2410 1.363 . S
C2408 H2424 0.931 . S
C2409 C2408 1.370 . S
C2409 C2413 1.408 . S
C2410 C2408 1.363 . S
C2410 C2411 1.370 . S
C2410 C2414 1.524 . S
C2411 C2403 1.503 . S
C2411 C2410 1.370 . S
C2411 C2412 1.403 . S
C2412 C2411 1.403 . S
C2412 C2413 1.404 . S
C2412 C2415 1.539 . S
C2413 C2409 1.408 . S
C2413 C2412 1.404 . S
C2413 H2425 0.930 . S
C2414 C2410 1.524 . S
C2414 H2426 0.956 . S
C2414 H2427 0.961 . S
C2414 H2428 0.961 . S
C2415 C2412 1.539 . S
C2415 H2429 0.958 . S
C2415 H2430 0.961 . S
C2415 H2431 0.960 . S
H2416 C2400 0.931 . S
H2417 C2405 0.929 . S
H2418 C2406 0.960 . S
H2419 C2406 0.962 . S
H2420 C2406 0.960 . S
H2421 C2407 0.961 . S
H2422 C2407 0.961 . S
H2423 C2407 0.961 . S
H2424 C2408 0.931 . S
H2425 C2413 0.930 . S
H2426 C2414 0.956 . S
H2427 C2414 0.961 . S
H2428 C2414 0.961 . S
H2429 C2415 0.958 . S
H2430 C2415 0.961 . S
H2431 C2415 0.960 . S
C2432 C2433 1.391 . S
C2432 C2434 1.394 . S
C2432 H2448 0.931 . S
C2433 C2432 1.391 . S
C2433 C2437 1.376 . S
C2434 C2432 1.394 . S
C2434 C2435 1.369 . S
C2434 C2438 1.531 . S
C2435 C2434 1.369 . S
C2435 C2436 1.410 . S
C2435 C2443 1.503 . S
C2436 C2435 1.410 . S
C2436 C2437 1.392 . S
C2436 C2439 1.511 . S
C2437 C2433 1.376 . S
C2437 C2436 1.392 . S
C2437 H2449 0.929 . S
C2438 C2434 1.531 . S
C2438 H2450 0.960 . S
C2438 H2451 0.962 . S
C2438 H2452 0.960 . S
C2439 C2436 1.511 . S
C2439 H2453 0.961 . S
C2439 H2454 0.961 . S
C2439 H2455 0.961 . S
C2440 C2441 1.370 . S
C2440 C2442 1.363 . S
C2440 H2456 0.931 . S
C2441 C2440 1.370 . S
C2441 C2445 1.408 . S
C2442 C2440 1.363 . S
C2442 C2443 1.370 . S
C2442 C2446 1.524 . S
C2443 C2435 1.503 . S
C2443 C2442 1.370 . S
C2443 C2444 1.403 . S
C2444 C2443 1.403 . S
C2444 C2445 1.404 . S
C2444 C2447 1.539 . S
C2445 C2441 1.408 . S
C2445 C2444 1.404 . S
C2445 H2457 0.930 . S
C2446 C2442 1.524 . S
C2446 H2458 0.956 . S
C2446 H2459 0.961 . S
C2446 H2460 0.961 . S
C2447 C2444 1.539 . S
C2447 H2461 0.958 . S
C2447 H2462 0.961 . S
C2447 H2463 0.960 . S
H2448 C2432 0.931 . S
H2449 C2437 0.929 . S
H2450 C2438 0.960 . S
H2451 C2438 0.962 . S
H2452 C2438 0.960 . S
H2453 C2439 0.961 . S
H2454 C2439 0.961 . S
H2455 C2439 0.961 . S
H2456 C2440 0.931 . S
H2457 C2445 0.930 . S
H2458 C2446 0.956 . S
H2459 C2446 0.961 . S
H2460 C2446 0.961 . S
H2461 C2447 0.958 . S
H2462 C2447 0.961 . S
H2463 C2447 0.960 . S
C2464 C2465 1.391 . S
C2464 C2466 1.394 . S
C2464 H2480 0.931 . S
C2465 C2464 1.391 . S
C2465 C2469 1.376 . S
C2466 C2464 1.394 . S
C2466 C2467 1.369 . S
C2466 C2470 1.531 . S
C2467 C2466 1.369 . S
C2467 C2468 1.410 . S
C2467 C2475 1.503 . S
C2468 C2467 1.410 . S
C2468 C2469 1.392 . S
C2468 C2471 1.511 . S
C2469 C2465 1.376 . S
C2469 C2468 1.392 . S
C2469 H2481 0.929 . S
C2470 C2466 1.531 . S
C2470 H2482 0.960 . S
C2470 H2483 0.962 . S
C2470 H2484 0.960 . S
C2471 C2468 1.511 . S
C2471 H2485 0.961 . S
C2471 H2486 0.961 . S
C2471 H2487 0.961 . S
C2472 C2473 1.370 . S
C2472 C2474 1.363 . S
C2472 H2488 0.931 . S
C2473 C2472 1.370 . S
C2473 C2477 1.408 . S
C2474 C2472 1.363 . S
C2474 C2475 1.370 . S
C2474 C2478 1.524 . S
C2475 C2467 1.503 . S
C2475 C2474 1.370 . S
C2475 C2476 1.403 . S
C2476 C2475 1.403 . S
C2476 C2477 1.404 . S
C2476 C2479 1.539 . S
C2477 C2473 1.408 . S
C2477 C2476 1.404 . S
C2477 H2489 0.930 . S
C2478 C2474 1.524 . S
C2478 H2490 0.956 . S
C2478 H2491 0.961 . S
C2478 H2492 0.961 . S
C2479 C2476 1.539 . S
C2479 H2493 0.958 . S
C2479 H2494 0.961 . S
C2479 H2495 0.960 . S
H2480 C2464 0.931 . S
H2481 C2469 0.929 . S
H2482 C2470 0.960 . S
H2483 C2470 0.962 . S
H2484 C2470 0.960 . S
H2485 C2471 0.961 . S
H2486 C2471 0.961 . S
H2487 C2471 0.961 . S
H2488 C2472 0.931 . S
H2489 C2477 0.930 . S
H2490 C2478 0.956 . S
H2491 C2478 0.961 . S
H2492 C2478 0.961 . S
H2493 C2479 0.958 . S
H2494 C2479 0.961 . S
H2495 C2479 0.960 . S
C449 C89 1.478 . S
C457 C5 1.473 . S
C481 C19 1.482 . S
C489 C103 1.473 . S
C513 C61 1.464 . S
C521 C33 1.477 . S
C545 C47 1.468 . S
C553 C75 1.482 . S
C577 C201 1.467 . S
C585 C117 1.474 . S
C609 C215 1.461 . S
C617 C131 1.477 . S
C641 C145 1.477 . S
C649 C173 1.472 . S
C673 C159 1.484 . S
C681 C187 1.479 . S
C705 C229 1.479 . S
C713 C313 1.472 . S
C737 C243 1.480 . S
C745 C327 1.472 . S
C769 C285 1.486 . S
C777 C257 1.476 . S
C801 C299 1.469 . S
C809 C271 1.482 . S
C833 C341 1.479 . S
C841 C425 1.472 . S
C865 C439 1.485 . S
C873 C355 1.476 . S
C897 C397 1.473 . S
C905 C369 1.482 . S
C929 C383 1.485 . S
C937 C411 1.478 . S
C961 C0 1.230 . S
C969 C429 1.263 . S
C993 C219 1.244 . S
C1001 C14 1.242 . S
C1025 C28 1.240 . S
C1033 C401 1.251 . S
C1057 C42 1.199 . S
C1065 C191 1.256 . S
C1089 C373 1.264 . S
C1097 C56 1.243 . S
C1121 C163 1.243 . S
C1129 C70 1.241 . S
C1153 C84 1.251 . S
C1161 C345 1.253 . S
C1185 C135 1.241 . S
C1193 C98 1.238 . S
C1217 C112 1.260 . S
C1225 C317 1.254 . S
C1249 C107 1.247 . S
C1257 C126 1.224 . S
C1281 C140 1.215 . S
C1289 C289 1.253 . S
C1313 C154 1.251 . S
C1321 C79 1.252 . S
C1345 C261 1.255 . S
C1353 C168 1.245 . S
C1377 C182 1.212 . S
C1385 C51 1.263 . S
C1409 C196 1.258 . S
C1417 C233 1.258 . S
C1441 C23 1.250 . S
C1449 C210 1.222 . S
C1473 C224 1.210 . S
C1481 C205 1.261 . S
C1505 C238 1.261 . S
C1513 C443 1.258 . S
C1537 C177 1.268 . S
C1545 C252 1.232 . S
C1569 C266 1.260 . S
C1577 C415 1.259 . S
C1601 C149 1.260 . S
C1609 C280 1.245 . S
C1633 C387 1.256 . S
C1641 C294 1.220 . S
C1665 C121 1.266 . S
C1673 C308 1.227 . S
C1697 C359 1.244 . S
C1705 C322 1.224 . S
C1729 C336 1.202 . S
C1737 C93 1.256 . S
C1761 C331 1.268 . S
C1769 C350 1.233 . S
C1793 C65 1.268 . S
C1801 C364 1.232 . S
C1825 C378 1.260 . S
C1833 C303 1.254 . S
C1857 C392 1.238 . S
C1865 C37 1.262 . S
C1889 C406 1.205 . S
C1897 C275 1.262 . S
C1921 C9 1.241 . S
C1929 C420 1.232 . S
C1953 C434 1.212 . S
C1961 C247 1.254 . S
C1985 C11 1.415 . S
C1993 C305 1.397 . S
C2017 C319 1.408 . S
C2025 C25 1.404 . S
C2049 C39 1.382 . S
C2057 C333 1.403 . S
C2081 C291 1.406 . S
C2089 C53 1.405 . S
C2113 C277 1.396 . S
C2121 C67 1.408 . S
C2145 C235 1.388 . S
C2153 C81 1.409 . S
C2177 C249 1.403 . S
C2185 C95 1.395 . S
C2209 C263 1.412 . S
C2217 C109 1.395 . S
C2241 C123 1.396 . S
C2249 C417 1.398 . S
C2273 C431 1.381 . S
C2281 C137 1.408 . S
C2305 C445 1.381 . S
C2313 C151 1.407 . S
C2337 C403 1.393 . S
C2345 C165 1.399 . S
C2369 C389 1.382 . S
C2377 C179 1.408 . S
C2401 C347 1.398 . S
C2409 C193 1.397 . S
C2433 C207 1.381 . S
C2441 C361 1.408 . S
C2465 C221 1.401 . S
C2473 C375 1.397 . S
