# Generated by pormake.
# Topology zfs, (5)-cn, num edge types: 1
# Building blocks:
#     Node 0, Type 0, BuildingBlock: XOMCOT_clean_sbu_1, # of connection points: 5
#     Node 1, Type 0, BuildingBlock: XOMCOT_clean_sbu_1, # of connection points: 5
#     Node 2, Type 0, BuildingBlock: XOMCOT_clean_sbu_1, # of connection points: 5
#     Node 3, Type 0, BuildingBlock: XOMCOT_clean_sbu_1, # of connection points: 5
#     Node 4, Type 0, BuildingBlock: XOMCOT_clean_sbu_1, # of connection points: 5
#     Node 5, Type 0, BuildingBlock: XOMCOT_clean_sbu_1, # of connection points: 5
#     Node 6, Type 0, BuildingBlock: XOMCOT_clean_sbu_1, # of connection points: 5
#     Node 7, Type 0, BuildingBlock: XOMCOT_clean_sbu_1, # of connection points: 5
#     Edge 8, Type (0, 0), BuildingBlock: UVAHIK_clean_linker_0, # of connection points: 2
#     Edge 9, Type (0, 0), BuildingBlock: UVAHIK_clean_linker_0, # of connection points: 2
#     Edge 10, Type (0, 0), BuildingBlock: UVAHIK_clean_linker_0, # of connection points: 2
#     Edge 11, Type (0, 0), BuildingBlock: UVAHIK_clean_linker_0, # of connection points: 2
#     Edge 12, Type (0, 0), BuildingBlock: UVAHIK_clean_linker_0, # of connection points: 2
#     Edge 13, Type (0, 0), BuildingBlock: UVAHIK_clean_linker_0, # of connection points: 2
#     Edge 14, Type (0, 0), BuildingBlock: UVAHIK_clean_linker_0, # of connection points: 2
#     Edge 15, Type (0, 0), BuildingBlock: UVAHIK_clean_linker_0, # of connection points: 2
#     Edge 16, Type (0, 0), BuildingBlock: UVAHIK_clean_linker_0, # of connection points: 2
#     Edge 17, Type (0, 0), BuildingBlock: UVAHIK_clean_linker_0, # of connection points: 2
#     Edge 18, Type (0, 0), BuildingBlock: UVAHIK_clean_linker_0, # of connection points: 2
#     Edge 19, Type (0, 0), BuildingBlock: UVAHIK_clean_linker_0, # of connection points: 2
#     Edge 20, Type (0, 0), BuildingBlock: UVAHIK_clean_linker_0, # of connection points: 2
#     Edge 21, Type (0, 0), BuildingBlock: UVAHIK_clean_linker_0, # of connection points: 2
#     Edge 22, Type (0, 0), BuildingBlock: UVAHIK_clean_linker_0, # of connection points: 2
#     Edge 23, Type (0, 0), BuildingBlock: UVAHIK_clean_linker_0, # of connection points: 2
#     Edge 24, Type (0, 0), BuildingBlock: UVAHIK_clean_linker_0, # of connection points: 2
#     Edge 25, Type (0, 0), BuildingBlock: UVAHIK_clean_linker_0, # of connection points: 2
#     Edge 26, Type (0, 0), BuildingBlock: UVAHIK_clean_linker_0, # of connection points: 2
#     Edge 27, Type (0, 0), BuildingBlock: UVAHIK_clean_linker_0, # of connection points: 2
# Relax obj value: 0.132
# Max RMSD: 0.149
# Mean RMSD: 0.149
data_MOF--net-zfs--node1-XOMCOT_clean_sbu_1--edge1-UVAHIK_clean_linker_0
_symmetry_space_group_name_H-M    P1
_symmetry_Int_Tables_number       1
_symmetry_cell_setting            triclinic
loop_
_symmetry_equiv_pos_as_xyz
'x, y, z'
_cell_length_a     43.818071
_cell_length_b     43.904983
_cell_length_c     50.692017
_cell_angle_alpha  90.001977
_cell_angle_beta   90.020599
_cell_angle_gamma 90.01461
loop_
_atom_site_label
_atom_site_type_symbol
_atom_site_fract_x
_atom_site_fract_y
_atom_site_fract_z
_atom_type_partial_charge
C0 C 0.07525 0.27303 0.2264 0.0
C1 C 0.09514 0.26872 0.24707 0.0
N2 N 0.08828 0.242 0.25877 0.0
N3 N 0.05584 0.24925 0.22527 0.0
C4 C 0.06437 0.23072 0.24512 0.0
H5 H 0.07516 0.29201 0.21279 0.0
Co6 Co 0.02567 0.2425 0.20025 0.0
C7 C 0.97465 0.22357 0.23644 0.0
O8 O 0.95673 0.24528 0.2278 0.0
N9 N 0.99553 0.23536 0.17404 0.0
C10 C 0.95532 0.23661 0.147 0.0
C11 C 0.96695 0.24644 0.17073 0.0
C12 C 1.00066 0.21934 0.15169 0.0
N13 N 0.97666 0.21948 0.13506 0.0
O14 O 0.04547 0.20482 0.19066 0.0
H15 H 0.95583 0.26265 0.18347 0.0
H16 H 0.02238 0.20944 0.14664 0.0
O17 O 1.00145 0.22052 0.22686 0.0
C18 C 0.07061 0.20867 0.17841 0.0
O19 O 0.08047 0.23663 0.17473 0.0
N20 N 0.00872 0.28073 0.20859 0.0
C21 C 0.9964 0.3423 0.21789 0.0
C22 C 0.99712 0.3213 0.2388 0.0
C23 C 0.00365 0.29066 0.23377 0.0
C24 C 0.00821 0.30083 0.1881 0.0
C25 C 1.00143 0.33147 0.19221 0.0
H26 H 0.00632 0.27527 0.25025 0.0
H27 H 0.01409 0.29321 0.16846 0.0
H28 H 0.0533 0.20925 0.24933 0.0
H29 H 0.1137 0.28371 0.25255 0.0
H30 H 0.9334 0.24277 0.13873 0.0
H31 H 0.99431 0.32868 0.25903 0.0
H32 H 1.00102 0.34668 0.1754 0.0
C33 C 0.74254 0.08872 0.48041 0.0
C34 C 0.74829 0.10857 0.5008 0.0
N35 N 0.77354 0.09903 0.51356 0.0
N36 N 0.76391 0.06666 0.48052 0.0
C37 C 0.78255 0.0736 0.50079 0.0
H38 H 0.72427 0.09044 0.46613 0.0
Co39 Co 0.76776 0.03565 0.45599 0.0
C40 C 0.77843 0.98366 0.49285 0.0
O41 O 0.75473 0.96904 0.48321 0.0
N42 N 0.77236 0.00562 0.43013 0.0
C43 C 0.78553 0.96738 0.4037 0.0
C44 C 0.78388 0.97708 0.42947 0.0
C45 C 0.7684 0.01298 0.40455 0.0
N46 N 0.77579 0.99011 0.38797 0.0
O47 O 0.80733 0.05068 0.44637 0.0
H48 H 0.79253 0.96445 0.44606 0.0
H49 H 0.76137 0.03546 0.39836 0.0
O50 O 0.78614 0.00944 0.48317 0.0
C51 C 0.80582 0.07461 0.4322 0.0
O52 O 0.77884 0.08641 0.42732 0.0
N53 N 0.72746 0.02263 0.46406 0.0
C54 C 0.66521 0.01279 0.47328 0.0
C55 C 0.68583 0.01498 0.49438 0.0
C56 C 0.71678 0.02034 0.48937 0.0
C57 C 0.70752 0.02092 0.44344 0.0
C58 C 0.67657 0.01548 0.44756 0.0
H59 H 0.73204 0.02356 0.5059 0.0
H60 H 0.71509 0.02511 0.42359 0.0
H61 H 0.80246 0.0603 0.50592 0.0
H62 H 0.73536 0.1289 0.50536 0.0
H63 H 0.79419 0.94557 0.3972 0.0
H64 H 0.67798 0.01385 0.51461 0.0
H65 H 0.66155 0.01408 0.43063 0.0
C66 C 0.92323 0.73066 0.72514 0.0
C67 C 0.90234 0.73565 0.74494 0.0
N68 N 0.9092 0.76233 0.75669 0.0
N69 N 0.94329 0.75394 0.72469 0.0
C70 C 0.93408 0.77292 0.74398 0.0
H71 H 0.92372 0.71147 0.71177 0.0
Co72 Co 0.97513 0.75924 0.70107 0.0
C73 C 0.02252 0.7797 0.74086 0.0
O74 O 0.03979 0.75552 0.73822 0.0
N75 N 0.00654 0.76494 0.67632 0.0
C76 C 0.04906 0.76583 0.65216 0.0
C77 C 0.0367 0.75836 0.67633 0.0
C78 C 1.00124 0.77596 0.65191 0.0
N79 N 0.02659 0.77716 0.63698 0.0
O80 O 0.95654 0.79665 0.68933 0.0
H81 H 0.04887 0.74732 0.69211 0.0
H82 H 0.97882 0.78166 0.64461 0.0
O83 O 0.99791 0.78267 0.7276 0.0
C84 C 0.93166 0.79408 0.67647 0.0
O85 O 0.92031 0.76673 0.67259 0.0
N86 N 0.99154 0.72137 0.71174 0.0
C87 C 0.00534 0.66099 0.72466 0.0
C88 C 1.00031 0.68274 0.74446 0.0
C89 C 0.993 0.71265 0.7376 0.0
C90 C 0.99614 0.70046 0.69223 0.0
C91 C 0.00352 0.6703 0.69823 0.0
H92 H 0.98756 0.72864 0.75313 0.0
H93 H 0.99289 0.70685 0.67182 0.0
H94 H 0.94547 0.79412 0.74861 0.0
H95 H 0.88324 0.7211 0.74989 0.0
H96 H 0.07251 0.76258 0.64608 0.0
H97 H 1.00133 0.67658 0.76513 0.0
H98 H 0.0063 0.65411 0.68229 0.0
C99 C 0.25631 0.91793 0.96867 0.0
C100 C 0.24928 0.89663 0.98761 0.0
N101 N 0.22613 0.90756 0.00236 0.0
N102 N 0.23782 0.94218 0.97163 0.0
C103 C 0.21954 0.93517 0.99211 0.0
H104 H 0.27378 0.91597 0.9537 0.0
Co105 Co 0.23772 0.97615 0.95028 0.0
C106 C 0.22913 0.02584 0.98933 0.0
O107 O 0.25324 0.03979 0.97972 0.0
N108 N 0.23693 0.00972 0.92718 0.0
C109 C 0.22281 0.05001 0.90334 0.0
C110 C 0.22177 0.03655 0.92786 0.0
C111 C 0.24578 0.00709 0.9018 0.0
N112 N 0.2379 0.03126 0.8869 0.0
O113 O 0.19756 0.96579 0.93845 0.0
H114 H 0.20828 0.04483 0.94415 0.0
H115 H 0.25522 0.98635 0.89379 0.0
O116 O 0.22033 1.00068 0.97911 0.0
C117 C 0.19804 0.94895 0.91802 0.0
O118 O 0.22446 0.94006 0.90855 0.0
N119 N 0.27852 0.98446 0.9609 0.0
C120 C 0.34056 0.98825 0.97384 0.0
C121 C 0.31827 0.98749 0.99368 0.0
C122 C 0.28741 0.98497 0.98681 0.0
C123 C 0.30012 0.98426 0.94155 0.0
C124 C 0.33104 0.98675 0.9475 0.0
H125 H 0.27074 0.98253 0.00237 0.0
H126 H 0.29385 0.98068 0.92132 0.0
H127 H 0.20133 0.94977 -0.00099 0.0
H128 H 0.2606 0.87497 0.99046 0.0
H129 H 0.21162 0.07102 0.89781 0.0
H130 H 0.32465 0.9876 0.01432 0.0
H131 H 0.34741 0.98688 0.9315 0.0
C132 C 0.08436 0.73581 0.26287 0.0
C133 C 0.10216 0.74055 0.24092 0.0
N134 N 0.09304 0.76664 0.22934 0.0
N135 N 0.06399 0.75868 0.26494 0.0
C136 C 0.06995 0.77722 0.24438 0.0
H137 H 0.08612 0.71697 0.27654 0.0
Co138 Co 0.03511 0.7629 0.2914 0.0
C139 C 0.98124 0.78128 0.25767 0.0
O140 O 0.96465 0.75835 0.2659 0.0
N141 N 0.00669 0.76717 0.31924 0.0
C142 C 0.96876 0.76246 0.34829 0.0
C143 C 0.97823 0.75603 0.32304 0.0
C144 C 0.01403 0.7796 0.3428 0.0
N145 N 0.99144 0.77728 0.36074 0.0
O146 O 0.05335 0.8012 0.30138 0.0
H147 H 0.96596 0.74152 0.30961 0.0
H148 H 0.03645 0.78817 0.34749 0.0
O149 O 0.00829 0.78499 0.26661 0.0
C150 C 0.07968 0.7999 0.31205 0.0
O151 O 0.09303 0.77323 0.31428 0.0
N152 N 0.01919 0.72435 0.28232 0.0
C153 C 0.0049 0.66375 0.27086 0.0
C154 C 0.00536 0.68583 0.25085 0.0
C155 C 0.01295 0.71592 0.25693 0.0
C156 C 0.01953 0.70304 0.30189 0.0
C157 C 0.01192 0.67275 0.2967 0.0
H158 H 0.01477 0.73226 0.24106 0.0
H159 H 0.02652 0.70941 0.3216 0.0
H160 H 0.05744 0.79796 0.24044 0.0
H161 H 0.1207 0.72618 0.2343 0.0
H162 H 0.94743 0.75535 0.35709 0.0
H163 H 1.00042 0.67982 0.23057 0.0
H164 H 0.01279 0.65629 0.3126 0.0
C165 C 0.26656 0.08965 0.51169 0.0
C166 C 0.26114 0.10922 0.49106 0.0
N167 N 0.23543 0.10016 0.47875 0.0
N168 N 0.24445 0.06833 0.51226 0.0
C169 C 0.22573 0.07534 0.49206 0.0
H170 H 0.28527 0.09095 0.52558 0.0
Co171 Co 0.24077 0.03827 0.53762 0.0
C172 C 0.22638 0.98528 0.503 0.0
O173 O 0.24975 0.97026 0.51277 0.0
N174 N 0.23661 0.00944 0.56452 0.0
C175 C 0.22271 0.97364 0.59331 0.0
C176 C 0.22416 0.98135 0.56697 0.0
C177 C 0.24147 0.0185 0.58957 0.0
N178 N 0.23338 0.9973 0.60733 0.0
O179 O 0.2024 0.05506 0.54868 0.0
H180 H 0.21429 0.96805 0.55128 0.0
H181 H 0.24987 0.04089 0.59476 0.0
O182 O 0.21994 0.01182 0.51184 0.0
C183 C 0.20615 0.07837 0.56331 0.0
O184 O 0.23394 0.08922 0.56604 0.0
N185 N 0.27998 0.02341 0.52816 0.0
C186 C 0.34093 0.01017 0.51625 0.0
C187 C 0.31914 0.01298 0.49612 0.0
C188 C 0.2889 0.01997 0.50245 0.0
C189 C 0.30109 0.02124 0.54787 0.0
C190 C 0.33147 0.01422 0.54241 0.0
H191 H 0.27275 0.02334 0.48659 0.0
H192 H 0.29494 0.02633 0.56795 0.0
H193 H 0.20492 0.06304 0.4877 0.0
H194 H 0.27508 0.12854 0.48553 0.0
H195 H 0.21257 0.95328 0.60158 0.0
H196 H 0.32547 0.0103 0.4756 0.0
H197 H 0.34768 0.0134 0.55853 0.0
C198 C 0.92915 0.26976 0.76895 0.0
C199 C 0.91042 0.26591 0.74744 0.0
N200 N 0.91834 0.23977 0.73532 0.0
N201 N 0.94882 0.24622 0.77026 0.0
C202 C 0.94164 0.22827 0.74961 0.0
H203 H 0.92836 0.28836 0.78293 0.0
Co204 Co 0.97747 0.2399 0.79655 0.0
C205 C 0.03139 0.22108 0.76352 0.0
O206 O 0.04828 0.24333 0.77269 0.0
N207 N 0.00588 0.23341 0.82423 0.0
C208 C 0.04414 0.23562 0.85323 0.0
C209 C 0.03405 0.24492 0.82885 0.0
C210 C 0.99934 0.21783 0.84654 0.0
N211 N 0.02216 0.21855 0.86437 0.0
O212 O 0.95808 0.20174 0.80506 0.0
H213 H 0.04578 0.26117 0.81656 0.0
H214 H 0.97734 0.20789 0.85058 0.0
O215 O 0.0038 0.21813 0.77128 0.0
C216 C 0.93183 0.20337 0.81581 0.0
O217 O 0.91935 0.23032 0.81908 0.0
N218 N 0.99432 0.27837 0.78897 0.0
C219 C 0.00701 0.33989 0.77995 0.0
C220 C 0.00809 0.3187 0.75922 0.0
C221 C 1.00129 0.28808 0.76408 0.0
C222 C 0.99303 0.29866 0.80928 0.0
C223 C 0.99988 0.32933 0.80534 0.0
H224 H 1.00009 0.27249 0.74761 0.0
H225 H 0.9857 0.29115 0.8286 0.0
H226 H 0.95261 0.20667 0.74567 0.0
H227 H 0.89242 0.28119 0.74123 0.0
H228 H 0.06542 0.24219 0.86244 0.0
H229 H 0.01258 0.32591 0.73916 0.0
H230 H 0.9988 0.34474 0.82199 0.0
C231 C 0.74168 0.9125 0.01581 0.0
C232 C 0.74608 0.89278 0.99509 0.0
N233 N 0.77032 0.90258 0.98109 0.0
N234 N 0.76296 0.93463 0.01476 0.0
C235 C 0.7802 0.92792 0.99353 0.0
H236 H 0.72411 0.91091 0.03073 0.0
Co237 Co 0.76711 0.96594 0.03895 0.0
C238 C 0.77855 0.01728 0.00143 0.0
O239 O 0.75466 0.03211 0.01045 0.0
N240 N 0.77182 0.99614 0.06455 0.0
C241 C 0.78456 0.03461 0.09104 0.0
C242 C 0.78224 0.02517 0.06519 0.0
C243 C 0.76902 0.98833 0.09013 0.0
N244 N 0.77645 0.01118 0.10658 0.0
O245 O 0.80653 0.95066 0.04888 0.0
H246 H 0.78984 0.0383 0.04852 0.0
H247 H 0.7622 0.96584 0.09658 0.0
O248 O 0.78602 0.99168 0.01162 0.0
C249 C 0.80518 0.92688 0.06324 0.0
O250 O 0.77831 0.91485 0.06814 0.0
N251 N 0.72705 0.97931 0.03052 0.0
C252 C 0.66504 0.98928 0.02031 0.0
C253 C 0.68599 0.98629 -0.00044 0.0
C254 C 0.71676 0.98092 0.00506 0.0
C255 C 0.70685 0.9819 0.05089 0.0
C256 C 0.67592 0.9873 0.04625 0.0
H257 H 0.73225 0.97726 0.98877 0.0
H258 H 0.71421 0.97834 0.07093 0.0
H259 H 0.79999 0.941 0.98766 0.0
H260 H 0.73233 0.87299 0.99056 0.0
H261 H 0.79331 0.05627 0.09791 0.0
H262 H 0.67862 0.98752 0.97919 0.0
H263 H 0.66046 0.98843 0.06289 0.0
C264 C 0.0127 0.6177 0.24239 0.0
C265 C 0.99912 0.63119 0.26461 0.0
C266 C 0.00864 0.58673 0.23715 0.0
C267 C 0.98832 0.51412 0.26967 0.0
H268 H 0.98271 0.48522 0.19755 0.0
C269 C 0.97316 0.38637 0.2428 0.0
C270 C 0.99278 0.37554 0.22292 0.0
C271 C 0.97074 0.41763 0.24788 0.0
C272 C 0.98435 0.49295 0.21779 0.0
H273 H 0.96998 0.6229 0.2984 0.0
H274 H 0.96255 0.56881 0.28909 0.0
H275 H 0.98378 0.5398 0.20628 0.0
H276 H 0.02574 0.38938 0.19323 0.0
H277 H 0.02099 0.44359 0.20173 0.0
H278 H 0.98901 0.46711 0.28108 0.0
C279 C 0.97681 0.58208 0.27596 0.0
C280 C 0.98505 0.52423 0.22281 0.0
C281 C 0.981 0.61308 0.28127 0.0
C282 C 0.00977 0.39679 0.20821 0.0
C283 C 0.00716 0.42795 0.21313 0.0
C284 C 0.98742 0.4828 0.26464 0.0
C285 C 0.99077 0.56847 0.25393 0.0
C286 C 0.98758 0.53523 0.24878 0.0
C287 C 0.98771 0.43873 0.23305 0.0
C288 C 0.98596 0.47189 0.23862 0.0
H289 H 0.02725 0.63088 0.22943 0.0
H290 H 0.02024 0.57695 0.2203 0.0
H291 H 0.99065 0.52173 0.28989 0.0
H292 H 0.95951 0.37071 0.25435 0.0
H293 H 0.9554 0.42532 0.26325 0.0
C294 C 0.62054 0.99012 0.4977 0.0
C295 C 0.63185 0.00951 0.4779 0.0
C296 C 0.58906 0.98707 0.50166 0.0
C297 C 0.51497 0.99883 0.46812 0.0
H298 H 0.48179 1.00037 0.53899 0.0
C299 C 0.38767 0.021 0.4892 0.0
C300 C 0.37374 0.00526 0.51013 0.0
C301 C 0.41902 0.01836 0.48474 0.0
C302 C 0.49069 0.99941 0.51908 0.0
H303 H 0.61887 0.0417 0.44739 0.0
H304 H 0.56426 0.03624 0.45419 0.0
H305 H 0.53696 1.00172 0.53261 0.0
H306 H 0.38167 0.97346 0.54214 0.0
H307 H 0.43643 0.96876 0.53428 0.0
H308 H 0.46877 0.99687 0.45455 0.0
C309 C 0.57963 0.02288 0.46628 0.0
C310 C 0.52232 1.00021 0.51544 0.0
C311 C 0.61098 0.02598 0.46238 0.0
C312 C 0.39179 0.98621 0.52607 0.0
C313 C 0.42316 0.98356 0.5216 0.0
C314 C 0.48339 0.99799 0.47176 0.0
C315 C 0.56826 0.00331 0.48588 0.0
C316 C 0.5348 1.00036 0.4899 0.0
C317 C 0.43721 0.9999 0.50108 0.0
C318 C 0.47084 0.99867 0.49726 0.0
H319 H 0.636 0.97695 0.50986 0.0
H320 H 0.58099 0.97165 0.51681 0.0
H321 H 0.52389 0.99835 0.4482 0.0
H322 H 0.37455 0.03626 0.47682 0.0
H323 H 0.42916 0.03163 0.46901 0.0
C324 C 0.03115 0.61045 0.71732 0.0
C325 C 0.0102 0.6284 0.73146 0.0
C326 C 0.03455 0.57945 0.72306 0.0
C327 C 0.01835 0.52175 0.77474 0.0
H328 H 0.0229 0.46424 0.7168 0.0
C329 C 0.99252 0.39441 0.78798 0.0
C330 C 0.01107 0.37306 0.77491 0.0
C331 C 0.99564 0.42551 0.78304 0.0
C332 C 0.0221 0.48003 0.73321 0.0
H333 H 0.97614 0.62767 0.7625 0.0
H334 H 0.98202 0.57385 0.77246 0.0
H335 H 0.02264 0.51883 0.70761 0.0
H336 H 0.04765 0.36791 0.74643 0.0
H337 H 0.05286 0.42244 0.73759 0.0
H338 H 0.01712 0.48297 0.80028 0.0
C339 C 0.99631 0.58378 0.7573 0.0
C340 C 0.02197 0.51132 0.72795 0.0
C341 C 0.99295 0.6147 0.75159 0.0
C342 C 0.0328 0.38369 0.75666 0.0
C343 C 0.03582 0.4149 0.75161 0.0
C344 C 0.01838 0.49052 0.77997 0.0
C345 C 0.01705 0.56572 0.74305 0.0
C346 C 0.01961 0.53255 0.74865 0.0
C347 C 0.01727 0.43615 0.76479 0.0
C348 C 0.01977 0.46929 0.75925 0.0
H349 H 0.045 0.62039 0.70186 0.0
H350 H 0.05099 0.56628 0.71192 0.0
H351 H 0.01714 0.53746 0.79118 0.0
H352 H 0.97501 0.38709 0.80165 0.0
H353 H 0.98056 0.44123 0.79311 0.0
C354 C 0.38498 0.00824 0.00026 0.0
C355 C 0.37365 0.98909 0.98029 0.0
C356 C 0.41639 0.00988 0.00525 0.0
C357 C 0.49061 0.99525 0.97313 0.0
H358 H 0.52301 0.99628 0.04429 0.0
C359 C 0.61789 0.97505 0.99502 0.0
C360 C 0.63178 0.99232 0.01505 0.0
C361 C 0.58642 0.97658 0.9909 0.0
C362 C 0.51431 0.99644 0.0243 0.0
H363 H 0.3863 0.95547 0.95089 0.0
H364 H 0.44079 0.95837 0.95952 0.0
H365 H 0.46783 0.99503 0.03743 0.0
H366 H 0.62348 0.02529 0.04609 0.0
H367 H 0.56845 0.02803 0.03882 0.0
H368 H 0.53694 0.99649 0.95992 0.0
C369 C 0.42557 0.97269 0.97089 0.0
C370 C 0.48269 0.9957 0.02038 0.0
C371 C 0.39431 0.97104 0.96595 0.0
C372 C 0.61345 0.01143 0.03068 0.0
C373 C 0.58191 0.01297 0.02655 0.0
C374 C 0.52214 0.99603 0.97703 0.0
C375 C 0.43705 0.99239 0.99036 0.0
C376 C 0.47051 0.99471 0.99474 0.0
C377 C 0.56801 0.99544 0.00669 0.0
C378 C 0.5344 0.99628 0.00265 0.0
H379 H 0.36966 0.02253 0.01156 0.0
H380 H 0.42454 0.02538 0.02029 0.0
H381 H 0.48195 0.99513 0.95311 0.0
H382 H 0.63121 0.95962 0.98296 0.0
H383 H 0.5764 0.96237 0.97573 0.0
C384 C 0.22414 0.14596 0.45228 0.0
C385 C 0.22092 0.1145 0.45654 0.0
C386 C 0.21002 0.15992 0.43077 0.0
C387 C 0.17858 0.14395 0.3651 0.0
H388 H 0.13591 0.2205 0.37492 0.0
C389 C 0.10252 0.19621 0.28432 0.0
C390 C 0.10369 0.22794 0.28073 0.0
C391 C 0.11723 0.18257 0.30568 0.0
C392 C 0.14807 0.19934 0.37178 0.0
H393 H 0.20065 0.07295 0.44144 0.0
H394 H 0.17573 0.09741 0.40394 0.0
H395 H 0.1608 0.1962 0.41245 0.0
H396 H 0.12126 0.27019 0.29692 0.0
H397 H 0.14756 0.24629 0.33385 0.0
H398 H 0.16606 0.14712 0.32442 0.0
C399 C 0.18932 0.11122 0.4172 0.0
C400 C 0.16226 0.18541 0.39328 0.0
C401 C 0.20331 0.09727 0.43881 0.0
C402 C 0.1201 0.24569 0.29895 0.0
C403 C 0.13488 0.23202 0.3203 0.0
C404 C 0.1645 0.15793 0.34358 0.0
C405 C 0.1925 0.14269 0.413 0.0
C406 C 0.17759 0.15754 0.39016 0.0
C407 C 0.13356 0.20031 0.32391 0.0
C408 C 0.149 0.18574 0.34669 0.0
H409 H 0.23727 0.15989 0.46575 0.0
H410 H 0.21307 0.18418 0.4279 0.0
H411 H 0.19062 0.1227 0.36205 0.0
H412 H 0.09049 0.18176 0.27052 0.0
H413 H 0.11548 0.15811 0.30805 0.0
C414 C 0.77173 0.13229 0.55288 0.0
C415 C 0.78835 0.11348 0.53564 0.0
C416 C 0.7861 0.14636 0.57423 0.0
C417 C 0.85339 0.14027 0.61722 0.0
H418 H 0.83586 0.2248 0.63345 0.0
C419 C 0.92102 0.20713 0.69572 0.0
C420 C 0.90423 0.22633 0.71248 0.0
C421 C 0.90721 0.19377 0.67376 0.0
C422 C 0.84075 0.20109 0.62934 0.0
H423 H 0.83332 0.09524 0.52715 0.0
H424 H 0.85828 0.11959 0.56449 0.0
H425 H 0.81089 0.20053 0.59592 0.0
H426 H 0.8597 0.24626 0.7195 0.0
H427 H 0.83554 0.22284 0.68129 0.0
H428 H 0.88306 0.14071 0.65073 0.0
C429 C 0.83403 0.1231 0.56165 0.0
C430 C 0.82646 0.18721 0.60785 0.0
C431 C 0.81969 0.10909 0.54026 0.0
C432 C 0.87337 0.23197 0.70675 0.0
C433 C 0.85954 0.21855 0.68484 0.0
C434 C 0.86762 0.15412 0.63875 0.0
C435 C 0.81739 0.14187 0.57885 0.0
C436 C 0.83262 0.15666 0.60159 0.0
C437 C 0.87628 0.19925 0.66813 0.0
C438 C 0.86144 0.18467 0.64506 0.0
H439 H 0.7475 0.1358 0.55013 0.0
H440 H 0.7726 0.16038 0.58738 0.0
H441 H 0.85826 0.11656 0.61309 0.0
H442 H 0.94496 0.20273 0.69938 0.0
H443 H 0.92087 0.1794 0.66102 0.0
C444 C 0.78018 0.8573 0.9535 0.0
C445 C 0.78315 0.88876 0.95787 0.0
C446 C 0.79286 0.84385 0.93109 0.0
C447 C 0.8519 0.85604 0.88053 0.0
H448 H 0.8077 0.79342 0.84236 0.0
C449 C 0.89458 0.80846 0.78151 0.0
C450 C 0.89339 0.77669 0.77824 0.0
C451 C 0.88011 0.82235 0.80286 0.0
C452 C 0.82041 0.81068 0.85297 0.0
H453 H 0.80111 0.9309 0.94184 0.0
H454 H 0.82318 0.90746 0.90269 0.0
H455 H 0.7843 0.81746 0.88077 0.0
H456 H 0.87585 0.73464 0.79478 0.0
H457 H 0.8505 0.75892 0.83208 0.0
H458 H 0.88801 0.84925 0.85279 0.0
C459 C 0.81151 0.8931 0.91683 0.0
C460 C 0.80704 0.82443 0.87495 0.0
C461 C 0.79889 0.90653 0.93926 0.0
C462 C 0.87692 0.75917 0.79657 0.0
C463 C 0.86241 0.77308 0.81793 0.0
C464 C 0.86524 0.84233 0.85855 0.0
C465 C 0.80872 0.86159 0.91254 0.0
C466 C 0.82267 0.84723 0.88899 0.0
C467 C 0.86407 0.80479 0.8214 0.0
C468 C 0.84965 0.81949 0.84456 0.0
H469 H 0.76858 0.84293 0.96764 0.0
H470 H 0.79072 0.81945 0.92855 0.0
H471 H 0.86474 0.87316 0.89119 0.0
H472 H 0.90651 0.82269 0.76747 0.0
H473 H 0.88133 0.84689 0.80476 0.0
C474 C 0.19716 0.91037 0.04411 0.0
C475 C 0.21161 0.89295 0.02448 0.0
C476 C 0.18343 0.89624 0.06573 0.0
C477 C 0.18494 0.82543 0.10435 0.0
H478 H 0.10651 0.85346 0.13014 0.0
C479 C 0.11952 0.7624 0.18649 0.0
C480 C 0.10548 0.78041 0.20592 0.0
C481 C 0.13176 0.77575 0.16386 0.0
C482 C 0.12856 0.84558 0.12334 0.0
H483 H 0.22234 0.84693 0.01197 0.0
H484 H 0.19851 0.8223 0.04978 0.0
H485 H 0.12914 0.8775 0.09143 0.0
H486 H 0.09361 0.82665 0.21692 0.0
H487 H 0.11507 0.84998 0.17749 0.0
H488 H 0.18453 0.79369 0.13635 0.0
C489 C 0.19818 0.84693 0.04858 0.0
C490 C 0.1415 0.85933 0.10116 0.0
C491 C 0.21186 0.86106 0.02692 0.0
C492 C 0.10385 0.81208 0.20216 0.0
C493 C 0.11615 0.82545 0.17955 0.0
C494 C 0.17204 0.81172 0.12655 0.0
C495 C 0.1839 0.86438 0.06824 0.0
C496 C 0.16987 0.84945 0.09149 0.0
C497 C 0.13029 0.80744 0.16017 0.0
C498 C 0.14374 0.8217 0.13633 0.0
H499 H 0.19695 0.93499 0.04308 0.0
H500 H 0.17299 0.91033 0.08078 0.0
H501 H 0.20704 0.81762 0.09758 0.0
H502 H 0.12069 0.7379 0.1886 0.0
H503 H 0.14207 0.7612 0.14909 0.0
C504 C 0.99603 0.18382 0.10129 0.0
C505 C 0.97655 0.20791 0.10846 0.0
C506 C 0.99945 0.17553 0.07487 0.0
C507 C 0.02094 0.1844 0.01846 0.0
H508 H 0.95569 0.18672 0.96681 0.0
C509 C 0.03801 0.22147 0.91115 0.0
C510 C 0.02072 0.20752 0.89115 0.0
C511 C 0.03378 0.21334 0.9375 0.0
C512 C 0.97414 0.18544 0.98099 0.0
H513 H 0.94399 0.24089 0.09352 0.0
H514 H 0.94981 0.22636 0.04753 0.0
H515 H 0.9433 0.18632 0.01375 0.0
H516 H 0.98713 0.17233 0.88313 0.0
H517 H 0.97939 0.1586 0.92926 0.0
H518 H 0.05179 0.18452 0.98572 0.0
C519 C 0.96236 0.21377 0.06237 0.0
C520 C 0.96704 0.1855 0.00784 0.0
C521 C 0.95903 0.22214 0.08878 0.0
C522 C 1.00028 0.18409 0.89806 0.0
C523 C 0.99591 0.17611 0.92446 0.0
C524 C 0.02803 0.18449 0.99162 0.0
C525 C 0.98328 0.19101 0.05507 0.0
C526 C 0.99039 0.18585 0.02684 0.0
C527 C 0.01214 0.19114 0.94448 0.0
C528 C 0.00473 0.18591 0.97263 0.0
H529 H 0.0093 0.17188 0.11604 0.0
H530 H 0.01537 0.15757 0.06986 0.0
H531 H 0.03945 0.18488 0.03261 0.0
H532 H 0.05375 0.23972 0.90669 0.0
H533 H 0.04637 0.2256 0.95253 0.0
C534 C 0.76888 0.03432 0.15032 0.0
C535 C 0.77807 0.00957 0.13479 0.0
C536 C 0.76921 0.03212 0.17781 0.0
C537 C 0.77156 0.97462 0.23161 0.0
H538 H 0.79058 0.04497 0.27486 0.0
C539 C 0.7919 0.96965 0.34451 0.0
C540 C 0.77544 0.99108 0.35949 0.0
C541 C 0.79233 0.97141 0.31699 0.0
C542 C 0.78511 0.02521 0.26295 0.0
H543 H 0.79616 0.9637 0.13547 0.0
H544 H 0.79786 0.96008 0.18338 0.0
H545 H 0.79231 0.04939 0.22692 0.0
H546 H 0.7455 0.03049 0.35673 0.0
H547 H 0.74724 0.03396 0.30898 0.0
H548 H 0.76517 0.95036 0.26788 0.0
C549 C 0.78924 0.98082 0.17454 0.0
C550 C 0.78593 0.02774 0.23552 0.0
C551 C 0.78841 0.98288 0.14711 0.0
C552 C 0.7591 0.014 0.34614 0.0
C553 C 0.75993 0.01599 0.3187 0.0
C554 C 0.7712 0.97201 0.25904 0.0
C555 C 0.77927 0.00526 0.19026 0.0
C556 C 0.77899 0.00251 0.21949 0.0
C557 C 0.77665 0.99482 0.30393 0.0
C558 C 0.77778 0.99733 0.27491 0.0
H559 H 0.76064 0.05502 0.14114 0.0
H560 H 0.76094 0.05124 0.18924 0.0
H561 H 0.76549 0.95487 0.21995 0.0
H562 H 0.80498 0.95181 0.3539 0.0
H563 H 0.8055 0.95488 0.30594 0.0
C564 C 0.04753 0.77118 0.59202 0.0
C565 C 0.02784 0.78601 0.60968 0.0
C566 C 0.04549 0.77687 0.56493 0.0
C567 C 0.04293 0.80057 0.50839 0.0
H568 H 0.95965 0.79998 0.48235 0.0
C569 C 0.01441 0.80696 0.3972 0.0
C570 C 0.9935 0.78484 0.38837 0.0
C571 C 0.01855 0.81224 0.42414 0.0
C572 C 0.98302 0.80026 0.48932 0.0
H573 H 0.99249 0.82028 0.61322 0.0
H574 H 0.98903 0.83037 0.56604 0.0
H575 H 0.96906 0.80017 0.52967 0.0
H576 H 0.95998 0.75157 0.40115 0.0
H577 H 0.96693 0.76102 0.44796 0.0
H578 H 0.05679 0.79941 0.46789 0.0
C579 C 0.00549 0.81379 0.57297 0.0
C580 C 0.98845 0.80071 0.51643 0.0
C581 C 0.00746 0.80802 0.59996 0.0
C582 C 0.97599 0.769 0.40711 0.0
C583 C 0.98001 0.7744 0.43401 0.0
C584 C 0.03749 0.80023 0.48122 0.0
C585 C 0.02382 0.79761 0.55508 0.0
C586 C 0.01845 0.80032 0.52628 0.0
C587 C 1.00166 0.79572 0.44282 0.0
C588 C 0.00747 0.79945 0.47144 0.0
H589 H 0.06332 0.754 0.59895 0.0
H590 H 0.05978 0.76386 0.55164 0.0
H591 H 0.06629 0.80053 0.5154 0.0
H592 H 0.02784 0.82002 0.3833 0.0
H593 H 0.03508 0.82912 0.43037 0.0
C594 C 0.22151 0.02849 0.64619 0.0
C595 C 0.23256 1.00124 0.63536 0.0
C596 C 0.2216 0.03294 0.67343 0.0
C597 C 0.23056 0.99133 0.7371 0.0
H598 H 0.24578 0.07254 0.76437 0.0
C599 C 0.26173 0.01486 0.84511 0.0
C600 C 0.24036 0.03309 0.85856 0.0
C601 C 0.26138 0.01297 0.81768 0.0
C602 C 0.24141 0.04983 0.75692 0.0
H603 H 0.25232 0.95733 0.644 0.0
H604 H 0.25402 0.96541 0.69166 0.0
H605 H 0.24387 0.06429 0.71676 0.0
H606 H 0.20325 0.06534 0.85324 0.0
H607 H 0.20359 0.06281 0.8051 0.0
H608 H 0.22947 0.97688 0.77745 0.0
C609 C 0.24427 0.98306 0.67937 0.0
C610 C 0.24007 0.04504 0.72969 0.0
C611 C 0.24351 0.97838 0.65211 0.0
C612 C 0.22006 0.0511 0.8437 0.0
C613 C 0.22013 0.0496 0.81614 0.0
C614 C 0.23255 0.99605 0.76425 0.0
C615 C 0.23338 0.01046 0.6904 0.0
C616 C 0.23459 0.0157 0.7194 0.0
C617 C 0.2402 0.02984 0.80305 0.0
C618 C 0.23798 0.0253 0.77433 0.0
H619 H 0.21253 0.04622 0.63352 0.0
H620 H 0.21228 0.05398 0.68112 0.0
H621 H 0.2256 0.96859 0.73007 0.0
H622 H 0.27833 1.00141 0.85578 0.0
H623 H 0.27739 0.99795 0.80788 0.0
C624 C 0.11681 0.18769 0.1567 0.0
C625 C 0.08644 0.18346 0.16473 0.0
C626 C 0.13076 0.16707 0.13967 0.0
C627 C 0.12844 0.09072 0.11019 0.0
H628 H 0.16894 0.13193 0.05225 0.0
C629 C 0.18369 0.02826 0.01982 0.0
C630 C 0.21166 0.0403 0.01101 0.0
C631 C 0.1668 0.04327 0.03943 0.0
C632 C 0.15803 0.12 0.0684 0.0
H633 H 0.0474 0.15325 0.16246 0.0
H634 H 0.07204 0.11684 0.13238 0.0
H635 H 0.14278 0.16163 0.08571 0.0
H636 H 0.2444 0.0768 0.01678 0.0
H637 H 0.21541 0.1025 0.05087 0.0
H638 H 0.14424 0.04896 0.09279 0.0
C639 C 0.08495 0.13623 0.13944 0.0
C640 C 0.14298 0.13705 0.08758 0.0
C641 C 0.0709 0.157 0.15668 0.0
C642 C 0.22278 0.06706 0.02278 0.0
C643 C 0.20604 0.08193 0.04229 0.0
C644 C 0.14373 0.07352 0.09092 0.0
C645 C 0.11469 0.1417 0.13009 0.0
C646 C 0.12856 0.12272 0.10898 0.0
C647 C 0.17759 0.0706 0.05055 0.0
C648 C 0.15924 0.08807 0.07011 0.0
H649 H 0.12952 0.20765 0.16282 0.0
H650 H 0.15394 0.17152 0.1333 0.0
H651 H 0.11744 0.07908 0.12644 0.0
H652 H 0.17455 0.00758 0.01123 0.0
H653 H 0.14496 0.03397 0.04533 0.0
C654 C 0.93939 0.21482 0.27428 0.0
C655 C 0.96472 0.20523 0.25945 0.0
C656 C 0.93005 0.19859 0.29647 0.0
C657 C 0.92729 0.12399 0.32607 0.0
H658 H 0.90609 0.16976 0.3889 0.0
C659 C 0.85844 0.0704 0.41254 0.0
C660 C 0.83294 0.08812 0.41942 0.0
C661 C 0.88172 0.08281 0.3968 0.0
C662 C 0.912 0.15658 0.37158 0.0
H663 H 0.99998 0.17077 0.25623 0.0
H664 H 0.98287 0.14167 0.295 0.0
H665 H 0.93342 0.19483 0.35307 0.0
H666 H 0.81252 0.13294 0.4165 0.0
H667 H 0.85277 0.15447 0.38953 0.0
H668 H 0.90421 0.08618 0.34398 0.0
C669 C 0.97061 0.16208 0.28937 0.0
C670 C 0.92769 0.17093 0.3511 0.0
C671 C 0.98037 0.17871 0.26725 0.0
C672 C 0.83187 0.11871 0.41148 0.0
C673 C 0.85512 0.13113 0.39614 0.0
C674 C 0.91133 0.10961 0.34657 0.0
C675 C 0.94551 0.17211 0.30431 0.0
C676 C 0.93448 0.15512 0.32775 0.0
C677 C 0.88004 0.11324 0.38812 0.0
C678 C 0.90246 0.12613 0.3691 0.0
H679 H 0.92684 0.23516 0.26895 0.0
H680 H 0.91036 0.20661 0.30737 0.0
H681 H 0.9322 0.11131 0.30824 0.0
H682 H 0.8597 0.04666 0.41825 0.0
H683 H 0.90069 0.06849 0.39101 0.0
C684 C 0.78447 0.94403 0.52778 0.0
C685 C 0.7959 0.96996 0.51489 0.0
C686 C 0.80051 0.93076 0.54858 0.0
C687 C 0.8769 0.92136 0.57616 0.0
H688 H 0.83195 0.89097 0.63658 0.0
C689 C 0.93353 0.84718 0.65777 0.0
C690 C 0.91703 0.82054 0.66359 0.0
C691 C 0.92006 0.87057 0.64292 0.0
C692 C 0.84486 0.89932 0.61986 0.0
H693 H 0.83325 1.00239 0.51386 0.0
H694 H 0.86163 0.97877 0.55024 0.0
H695 H 0.80604 0.92244 0.60391 0.0
H696 H 0.87329 0.798 0.65932 0.0
H697 H 0.84991 0.8385 0.63376 0.0
H698 H 0.91547 0.8972 0.59168 0.0
C699 C 0.84013 0.96885 0.54412 0.0
C700 C 0.83001 0.91734 0.60115 0.0
C701 C 0.82385 0.98238 0.52337 0.0
C702 C 0.88661 0.81822 0.65515 0.0
C703 C 0.87312 0.84158 0.64063 0.0
C704 C 0.89179 0.90319 0.59491 0.0
C705 C 0.82852 0.94294 0.557 0.0
C706 C 0.8456 0.92778 0.57867 0.0
C707 C 0.88975 0.86786 0.63399 0.0
C708 C 0.87565 0.89119 0.61653 0.0
H709 H 0.76302 0.93387 0.52184 0.0
H710 H 0.79118 0.91054 0.55779 0.0
H711 H 0.88948 0.92898 0.559 0.0
H712 H 0.95711 0.84948 0.66387 0.0
H713 H 0.93341 0.8906 0.6382 0.0
C714 C 0.03009 0.79239 0.78806 0.0
C715 C 0.0301 0.80172 0.76164 0.0
C716 C 0.0403 0.81205 0.80786 0.0
C717 C 0.06648 0.89254 0.82044 0.0
H718 H 0.11268 0.85337 0.87618 0.0
C719 C 0.16891 0.94391 0.87642 0.0
C720 C 0.17005 0.94028 0.9039 0.0
C721 C 0.14497 0.93137 0.86186 0.0
C722 C 0.09938 0.86463 0.86103 0.0
H723 H 0.04001 0.83869 0.73488 0.0
H724 H 0.0596 0.87264 0.76908 0.0
H725 H 0.08436 0.82238 0.845 0.0
H726 H 0.14699 0.92164 0.93799 0.0
H727 H 0.10535 0.89843 0.91223 0.0
H728 H 0.08398 0.93475 0.83562 0.0
C729 C 0.05068 0.85069 0.77497 0.0
C730 C 0.08295 0.84688 0.84309 0.0
C731 C 0.03967 0.83122 0.75525 0.0
C732 C 0.14629 0.92493 0.91682 0.0
C733 C 0.12267 0.91162 0.90212 0.0
C734 C 0.08352 0.91024 0.83808 0.0
C735 C 0.05171 0.84118 0.80156 0.0
C736 C 0.06662 0.86049 0.82221 0.0
C737 C 0.12217 0.91428 0.87446 0.0
C738 C 0.10045 0.89639 0.8583 0.0
H739 H 0.02253 0.76969 0.79333 0.0
H740 H 0.03977 0.80406 0.82805 0.0
H741 H 0.0537 0.90403 0.80511 0.0
H742 H 0.18713 0.95561 0.8661 0.0
H743 H 0.14529 0.93348 0.84056 0.0
C744 C 0.07553 0.85169 0.33316 0.0
C745 C 0.09335 0.82659 0.32546 0.0
C746 C 0.08809 0.87473 0.34901 0.0
C747 C 0.1624 0.90546 0.37314 0.0
H748 H 0.11644 0.92954 0.4351 0.0
C749 C 0.2203 0.94597 0.46784 0.0
C750 C 0.2088 0.97174 0.48092 0.0
C751 C 0.2046 0.93319 0.44661 0.0
C752 C 0.12936 0.92344 0.41766 0.0
H753 H 0.13853 0.8066 0.3274 0.0
H754 H 0.16027 0.84636 0.35477 0.0
H755 H 0.09185 0.89873 0.4009 0.0
H756 H 0.17154 0.00423 0.48201 0.0
H757 H 0.14358 0.98126 0.44498 0.0
H758 H 0.20027 0.92893 0.39045 0.0
C759 C 0.13672 0.84861 0.34857 0.0
C760 C 0.11528 0.90585 0.39803 0.0
C761 C 0.12418 0.82563 0.33297 0.0
C762 C 0.18098 0.98435 0.47235 0.0
C763 C 0.16496 0.97121 0.45122 0.0
C764 C 0.17647 0.92278 0.39279 0.0
C765 C 0.11877 0.87322 0.35719 0.0
C766 C 0.13194 0.89588 0.3759 0.0
C767 C 0.1768 0.94563 0.43802 0.0
C768 C 0.16038 0.93121 0.41561 0.0
H769 H 0.05162 0.85294 0.32783 0.0
H770 H 0.07369 0.89347 0.35515 0.0
H771 H 0.17571 0.8988 0.35609 0.0
H772 H 0.24168 0.93569 0.47381 0.0
H773 H 0.21409 0.91323 0.43709 0.0
C774 C 0.1528 0.07612 0.58232 0.0
C775 C 0.18159 0.09024 0.5806 0.0
C776 C 0.13158 0.08559 0.60145 0.0
C777 C 0.13049 0.11767 0.66713 0.0
H778 H 0.05081 0.15261 0.65326 0.0
C779 C 0.07602 0.20145 0.73826 0.0
C780 C 0.04452 0.20045 0.74333 0.0
C781 C 0.08897 0.18302 0.71891 0.0
C782 C 0.07272 0.14231 0.65753 0.0
H783 H 0.20999 0.12625 0.59683 0.0
H784 H 0.17348 0.14212 0.63001 0.0
H785 H 0.0799 0.12923 0.61707 0.0
H786 H 1.00185 0.17913 0.73191 0.0
H787 H 0.02473 0.14674 0.69769 0.0
H788 H 0.12406 0.13119 0.70723 0.0
C789 C 0.16732 0.12374 0.61676 0.0
C790 C 0.08932 0.12899 0.63683 0.0
C791 C 0.18819 0.11465 0.59763 0.0
C792 C 0.02622 0.18036 0.72854 0.0
C793 C 0.03927 0.16194 0.70889 0.0
C794 C 0.11395 0.1307 0.68772 0.0
C795 C 0.13912 0.10896 0.61925 0.0
C796 C 0.11881 0.1176 0.64136 0.0
C797 C 0.07086 0.16302 0.70397 0.0
C798 C 0.08541 0.14427 0.683 0.0
H799 H 0.14707 0.05721 0.56953 0.0
H800 H 0.10987 0.07393 0.603 0.0
H801 H 0.15304 0.10864 0.67116 0.0
H802 H 0.09084 0.21663 0.7492 0.0
H803 H 0.11327 0.18491 0.71532 0.0
C804 C 0.88629 0.17779 0.83508 0.0
C805 C 0.91728 0.17649 0.82814 0.0
C806 C 0.87294 0.15454 0.84985 0.0
C807 C 0.89217 0.09611 0.89868 0.0
H808 H 0.80732 0.07374 0.8887 0.0
C809 C 0.82453 0.01812 0.97152 0.0
C810 C 0.79623 0.03037 0.97923 0.0
C811 C 0.84096 0.03112 0.9506 0.0
C812 C 0.83106 0.07971 0.89172 0.0
H813 H 0.95845 0.14927 0.8306 0.0
H814 H 0.93499 0.10834 0.85657 0.0
H815 H 0.83319 0.1043 0.85535 0.0
H816 H 0.76283 0.06553 0.97068 0.0
H817 H 0.79122 0.08784 0.93438 0.0
H818 H 0.88965 0.07201 0.93546 0.0
C819 C 0.92108 0.12752 0.85057 0.0
C820 C 0.84588 0.09724 0.87264 0.0
C821 C 0.93444 0.15079 0.8355 0.0
C822 C 0.78458 0.05554 0.96537 0.0
C823 C 0.80075 0.06822 0.94438 0.0
C824 C 0.87733 0.07839 0.91777 0.0
C825 C 0.89025 0.12937 0.85822 0.0
C826 C 0.87631 0.10651 0.87627 0.0
C827 C 0.82913 0.05625 0.93675 0.0
C828 C 0.84633 0.07086 0.91487 0.0
H829 H 0.87246 0.19729 0.82972 0.0
H830 H 0.84929 0.157 0.85567 0.0
H831 H 0.91555 0.10302 0.90221 0.0
H832 H 0.83409 0.99869 0.98178 0.0
H833 H 0.86276 0.02138 0.9451 0.0
C834 C 0.98472 0.82671 0.22715 0.0
C835 C 0.96977 0.79996 0.23539 0.0
C836 C 0.97377 0.8433 0.2054 0.0
C837 C 0.92901 0.8334 0.14487 0.0
H838 H 0.90443 0.91786 0.15168 0.0
C839 C 0.83162 0.88354 0.08486 0.0
C840 C 0.83238 0.91396 0.07639 0.0
C841 C 0.85503 0.87169 0.10036 0.0
C842 C 0.91182 0.8945 0.14918 0.0
H843 H 0.93167 0.76975 0.22713 0.0
H844 H 0.91317 0.7982 0.1894 0.0
H845 H 0.93367 0.89356 0.18715 0.0
H846 H 0.85868 0.95574 0.07696 0.0
H847 H 0.89997 0.93491 0.10446 0.0
H848 H 0.90651 0.8338 0.10744 0.0
C849 C 0.93325 0.80642 0.19966 0.0
C850 C 0.9285 0.88061 0.16952 0.0
C851 C 0.94378 0.79024 0.22147 0.0
C852 C 0.85767 0.93211 0.08304 0.0
C853 C 0.88112 0.92028 0.09894 0.0
C854 C 0.9126 0.84727 0.12456 0.0
C855 C 0.94815 0.83299 0.19127 0.0
C856 C 0.93615 0.84958 0.16796 0.0
C857 C 0.87982 0.88999 0.10803 0.0
C858 C 0.90269 0.8776 0.12693 0.0
H859 H 0.00481 0.83479 0.23746 0.0
H860 H 0.98561 0.8638 0.19934 0.0
H861 H 0.93507 0.80958 0.14299 0.0
H862 H 0.81241 0.869 0.08008 0.0
H863 H 0.85298 0.84845 0.10731 0.0
loop_
_geom_bond_atom_site_label_1
_geom_bond_atom_site_label_2
_geom_bond_distance
_geom_bond_site_symmetry_2
_ccdc_geom_bond_type
C0 C1 1.351 . S
C0 N3 1.368 . S
C0 H5 0.931 . S
C1 C0 1.351 . S
C1 N2 1.373 . S
C1 H29 0.930 . S
N2 C1 1.373 . S
N2 C4 1.340 . S
N3 C0 1.368 . S
N3 C4 1.321 . S
N3 Co6 2.135 . S
C4 N2 1.340 . S
C4 N3 1.321 . S
C4 H28 0.930 . S
H5 C0 0.931 . S
Co6 N3 2.135 . S
Co6 N9 2.121 . S
Co6 O14 2.055 . S
Co6 O17 2.039 . S
Co6 N20 2.140 . S
C7 O8 1.227 . S
C7 O17 1.265 . S
O8 C7 1.227 . S
N9 Co6 2.121 . S
N9 C11 1.375 . S
N9 C12 1.313 . S
C10 C11 1.338 . S
C10 N13 1.377 . S
C10 H30 0.930 1_455 S
C11 N9 1.375 . S
C11 C10 1.338 . S
C11 H15 0.931 . S
C12 N9 1.313 . S
C12 N13 1.344 . S
C12 H16 0.930 . S
N13 C10 1.377 . S
N13 C12 1.344 . S
O14 Co6 2.055 . S
O14 C18 1.253 . S
H15 C11 0.931 . S
H16 C12 0.930 . S
O17 Co6 2.039 . S
O17 C7 1.265 . S
C18 O14 1.253 . S
C18 O19 1.227 . S
O19 C18 1.227 . S
N20 Co6 2.140 . S
N20 C23 1.346 . S
N20 C24 1.345 . S
C21 C22 1.387 . S
C21 C25 1.391 . S
C22 C21 1.387 . S
C22 C23 1.369 . S
C22 H31 0.929 . S
C23 N20 1.346 . S
C23 C22 1.369 . S
C23 H26 0.928 . S
C24 N20 1.345 . S
C24 C25 1.371 . S
C24 H27 0.931 . S
C25 C21 1.391 . S
C25 C24 1.371 . S
C25 H32 0.930 . S
H26 C23 0.928 . S
H27 C24 0.931 . S
H28 C4 0.930 . S
H29 C1 0.930 . S
H30 C10 0.930 1_655 S
H31 C22 0.929 . S
H32 C25 0.930 . S
C33 C34 1.351 . S
C33 N36 1.368 . S
C33 H38 0.931 . S
C34 C33 1.351 . S
C34 N35 1.373 . S
C34 H62 0.930 . S
N35 C34 1.373 . S
N35 C37 1.340 . S
N36 C33 1.368 . S
N36 C37 1.321 . S
N36 Co39 2.135 . S
C37 N35 1.340 . S
C37 N36 1.321 . S
C37 H61 0.930 . S
H38 C33 0.931 . S
Co39 N36 2.135 . S
Co39 N42 2.121 . S
Co39 O47 2.055 . S
Co39 O50 2.039 . S
Co39 N53 2.140 . S
C40 O41 1.227 . S
C40 O50 1.265 . S
O41 C40 1.227 . S
N42 Co39 2.121 . S
N42 C44 1.375 . S
N42 C45 1.313 . S
C43 C44 1.338 . S
C43 N46 1.377 . S
C43 H63 0.930 1_545 S
C44 N42 1.375 . S
C44 C43 1.338 . S
C44 H48 0.931 . S
C45 N42 1.313 . S
C45 N46 1.344 . S
C45 H49 0.930 . S
N46 C43 1.377 . S
N46 C45 1.344 . S
O47 Co39 2.055 . S
O47 C51 1.253 . S
H48 C44 0.931 . S
H49 C45 0.930 . S
O50 Co39 2.039 . S
O50 C40 1.265 . S
C51 O47 1.253 . S
C51 O52 1.227 . S
O52 C51 1.227 . S
N53 Co39 2.140 . S
N53 C56 1.346 . S
N53 C57 1.345 . S
C54 C55 1.387 . S
C54 C58 1.391 . S
C55 C54 1.387 . S
C55 C56 1.369 . S
C55 H64 0.929 . S
C56 N53 1.346 . S
C56 C55 1.369 . S
C56 H59 0.928 . S
C57 N53 1.345 . S
C57 C58 1.371 . S
C57 H60 0.931 . S
C58 C54 1.391 . S
C58 C57 1.371 . S
C58 H65 0.930 . S
H59 C56 0.928 . S
H60 C57 0.931 . S
H61 C37 0.930 . S
H62 C34 0.930 . S
H63 C43 0.930 1_565 S
H64 C55 0.929 . S
H65 C58 0.930 . S
C66 C67 1.351 . S
C66 N69 1.368 . S
C66 H71 0.931 . S
C67 C66 1.351 . S
C67 N68 1.373 . S
C67 H95 0.930 . S
N68 C67 1.373 . S
N68 C70 1.340 . S
N69 C66 1.368 . S
N69 C70 1.321 . S
N69 Co72 2.135 . S
C70 N68 1.340 . S
C70 N69 1.321 . S
C70 H94 0.930 . S
H71 C66 0.931 . S
Co72 N69 2.135 . S
Co72 N75 2.121 . S
Co72 O80 2.055 . S
Co72 O83 2.039 . S
Co72 N86 2.140 . S
C73 O74 1.227 . S
C73 O83 1.265 . S
O74 C73 1.227 . S
N75 Co72 2.121 . S
N75 C77 1.375 . S
N75 C78 1.313 . S
C76 C77 1.338 . S
C76 N79 1.377 . S
C76 H96 0.930 1_655 S
C77 N75 1.375 . S
C77 C76 1.338 . S
C77 H81 0.931 . S
C78 N75 1.313 . S
C78 N79 1.344 . S
C78 H82 0.930 . S
N79 C76 1.377 . S
N79 C78 1.344 . S
O80 Co72 2.055 . S
O80 C84 1.253 . S
H81 C77 0.931 . S
H82 C78 0.930 . S
O83 Co72 2.039 . S
O83 C73 1.265 . S
C84 O80 1.253 . S
C84 O85 1.227 . S
O85 C84 1.227 . S
N86 Co72 2.140 . S
N86 C89 1.346 . S
N86 C90 1.345 . S
C87 C88 1.387 . S
C87 C91 1.391 . S
C88 C87 1.387 . S
C88 C89 1.369 . S
C88 H97 0.929 . S
C89 N86 1.346 . S
C89 C88 1.369 . S
C89 H92 0.928 . S
C90 N86 1.345 . S
C90 C91 1.371 . S
C90 H93 0.931 . S
C91 C87 1.391 . S
C91 C90 1.371 . S
C91 H98 0.930 . S
H92 C89 0.928 . S
H93 C90 0.931 . S
H94 C70 0.930 . S
H95 C67 0.930 . S
H96 C76 0.930 1_455 S
H97 C88 0.929 . S
H98 C91 0.930 . S
C99 C100 1.351 1_556 S
C99 N102 1.368 . S
C99 H104 0.931 . S
C100 C99 1.351 1_554 S
C100 N101 1.373 . S
C100 H128 0.930 . S
N101 C100 1.373 . S
N101 C103 1.340 . S
N102 C99 1.368 . S
N102 C103 1.321 1_556 S
N102 Co105 2.135 . S
C103 N101 1.340 . S
C103 N102 1.321 1_554 S
C103 H127 0.930 . S
H104 C99 0.931 . S
Co105 N102 2.135 . S
Co105 N108 2.121 . S
Co105 O113 2.055 . S
Co105 O116 2.039 . S
Co105 N119 2.140 . S
C106 O107 1.227 . S
C106 O116 1.265 . S
O107 C106 1.227 . S
N108 Co105 2.121 . S
N108 C110 1.375 . S
N108 C111 1.313 . S
C109 C110 1.338 . S
C109 N112 1.377 . S
C109 H129 0.930 1_565 S
C110 N108 1.375 . S
C110 C109 1.338 . S
C110 H114 0.931 . S
C111 N108 1.313 . S
C111 N112 1.344 . S
C111 H115 0.930 . S
N112 C109 1.377 . S
N112 C111 1.344 . S
O113 Co105 2.055 . S
O113 C117 1.253 . S
H114 C110 0.931 . S
H115 C111 0.930 . S
O116 Co105 2.039 . S
O116 C106 1.265 . S
C117 O113 1.253 . S
C117 O118 1.227 . S
O118 C117 1.227 . S
N119 Co105 2.140 . S
N119 C122 1.346 . S
N119 C123 1.345 . S
C120 C121 1.387 . S
C120 C124 1.391 . S
C121 C120 1.387 . S
C121 C122 1.369 . S
C121 H130 0.926 1_556 S
C122 N119 1.346 . S
C122 C121 1.369 . S
C122 H125 0.928 . S
C123 N119 1.345 . S
C123 C124 1.371 . S
C123 H126 0.931 . S
C124 C120 1.391 . S
C124 C123 1.371 . S
C124 H131 0.930 . S
H125 C122 0.928 . S
H126 C123 0.931 . S
H127 C103 0.930 . S
H128 C100 0.930 . S
H129 C109 0.930 1_545 S
H130 C121 0.926 1_554 S
H131 C124 0.930 . S
C132 C133 1.351 . S
C132 N135 1.368 . S
C132 H137 0.931 . S
C133 C132 1.351 . S
C133 N134 1.373 . S
C133 H161 0.930 . S
N134 C133 1.373 . S
N134 C136 1.340 . S
N135 C132 1.368 . S
N135 C136 1.321 . S
N135 Co138 2.135 . S
C136 N134 1.340 . S
C136 N135 1.321 . S
C136 H160 0.930 . S
H137 C132 0.931 . S
Co138 N135 2.135 . S
Co138 N141 2.121 . S
Co138 O146 2.055 . S
Co138 O149 2.039 . S
Co138 N152 2.140 . S
C139 O140 1.227 . S
C139 O149 1.265 . S
O140 C139 1.227 . S
N141 Co138 2.121 . S
N141 C143 1.375 . S
N141 C144 1.313 . S
C142 C143 1.338 . S
C142 N145 1.377 . S
C142 H162 0.930 1_455 S
C143 N141 1.375 . S
C143 C142 1.338 . S
C143 H147 0.931 . S
C144 N141 1.313 . S
C144 N145 1.344 . S
C144 H148 0.930 . S
N145 C142 1.377 . S
N145 C144 1.344 . S
O146 Co138 2.055 . S
O146 C150 1.253 . S
H147 C143 0.931 . S
H148 C144 0.930 . S
O149 Co138 2.039 . S
O149 C139 1.265 . S
C150 O146 1.253 . S
C150 O151 1.227 . S
O151 C150 1.227 . S
N152 Co138 2.140 . S
N152 C155 1.346 . S
N152 C156 1.345 . S
C153 C154 1.387 . S
C153 C157 1.391 . S
C154 C153 1.387 . S
C154 C155 1.369 . S
C154 H163 0.929 . S
C155 N152 1.346 . S
C155 C154 1.369 . S
C155 H158 0.928 . S
C156 N152 1.345 . S
C156 C157 1.371 . S
C156 H159 0.931 . S
C157 C153 1.391 . S
C157 C156 1.371 . S
C157 H164 0.930 . S
H158 C155 0.928 . S
H159 C156 0.931 . S
H160 C136 0.930 . S
H161 C133 0.930 . S
H162 C142 0.930 1_655 S
H163 C154 0.929 . S
H164 C157 0.930 . S
C165 C166 1.351 . S
C165 N168 1.368 . S
C165 H170 0.931 . S
C166 C165 1.351 . S
C166 N167 1.373 . S
C166 H194 0.930 . S
N167 C166 1.373 . S
N167 C169 1.340 . S
N168 C165 1.368 . S
N168 C169 1.321 . S
N168 Co171 2.135 . S
C169 N167 1.340 . S
C169 N168 1.321 . S
C169 H193 0.930 . S
H170 C165 0.931 . S
Co171 N168 2.135 . S
Co171 N174 2.121 . S
Co171 O179 2.055 . S
Co171 O182 2.039 . S
Co171 N185 2.140 . S
C172 O173 1.227 . S
C172 O182 1.265 . S
O173 C172 1.227 . S
N174 Co171 2.121 . S
N174 C176 1.375 . S
N174 C177 1.313 . S
C175 C176 1.338 . S
C175 N178 1.377 . S
C175 H195 0.930 1_545 S
C176 N174 1.375 . S
C176 C175 1.338 . S
C176 H180 0.931 . S
C177 N174 1.313 . S
C177 N178 1.344 . S
C177 H181 0.930 . S
N178 C175 1.377 . S
N178 C177 1.344 . S
O179 Co171 2.055 . S
O179 C183 1.253 . S
H180 C176 0.931 . S
H181 C177 0.930 . S
O182 Co171 2.039 . S
O182 C172 1.265 . S
C183 O179 1.253 . S
C183 O184 1.227 . S
O184 C183 1.227 . S
N185 Co171 2.140 . S
N185 C188 1.346 . S
N185 C189 1.345 . S
C186 C187 1.387 . S
C186 C190 1.391 . S
C187 C186 1.387 . S
C187 C188 1.369 . S
C187 H196 0.929 . S
C188 N185 1.346 . S
C188 C187 1.369 . S
C188 H191 0.928 . S
C189 N185 1.345 . S
C189 C190 1.371 . S
C189 H192 0.931 . S
C190 C186 1.391 . S
C190 C189 1.371 . S
C190 H197 0.930 . S
H191 C188 0.928 . S
H192 C189 0.931 . S
H193 C169 0.930 . S
H194 C166 0.930 . S
H195 C175 0.930 1_565 S
H196 C187 0.929 . S
H197 C190 0.930 . S
C198 C199 1.351 . S
C198 N201 1.368 . S
C198 H203 0.931 . S
C199 C198 1.351 . S
C199 N200 1.373 . S
C199 H227 0.930 . S
N200 C199 1.373 . S
N200 C202 1.340 . S
N201 C198 1.368 . S
N201 C202 1.321 . S
N201 Co204 2.135 . S
C202 N200 1.340 . S
C202 N201 1.321 . S
C202 H226 0.930 . S
H203 C198 0.931 . S
Co204 N201 2.135 . S
Co204 N207 2.121 . S
Co204 O212 2.055 . S
Co204 O215 2.039 . S
Co204 N218 2.140 . S
C205 O206 1.227 . S
C205 O215 1.265 . S
O206 C205 1.227 . S
N207 Co204 2.121 . S
N207 C209 1.375 . S
N207 C210 1.313 . S
C208 C209 1.338 . S
C208 N211 1.377 . S
C208 H228 0.930 1_655 S
C209 N207 1.375 . S
C209 C208 1.338 . S
C209 H213 0.931 . S
C210 N207 1.313 . S
C210 N211 1.344 . S
C210 H214 0.930 . S
N211 C208 1.377 . S
N211 C210 1.344 . S
O212 Co204 2.055 . S
O212 C216 1.253 . S
H213 C209 0.931 . S
H214 C210 0.930 . S
O215 Co204 2.039 . S
O215 C205 1.265 . S
C216 O212 1.253 . S
C216 O217 1.227 . S
O217 C216 1.227 . S
N218 Co204 2.140 . S
N218 C221 1.346 . S
N218 C222 1.345 . S
C219 C220 1.387 . S
C219 C223 1.391 . S
C220 C219 1.387 . S
C220 C221 1.369 . S
C220 H229 0.929 . S
C221 N218 1.346 . S
C221 C220 1.369 . S
C221 H224 0.928 . S
C222 N218 1.345 . S
C222 C223 1.371 . S
C222 H225 0.931 . S
C223 C219 1.391 . S
C223 C222 1.371 . S
C223 H230 0.930 . S
H224 C221 0.928 . S
H225 C222 0.931 . S
H226 C202 0.930 . S
H227 C199 0.930 . S
H228 C208 0.930 1_455 S
H229 C220 0.929 . S
H230 C223 0.930 . S
C231 C232 1.351 1_554 S
C231 N234 1.368 . S
C231 H236 0.931 . S
C232 C231 1.351 1_556 S
C232 N233 1.373 . S
C232 H260 0.930 . S
N233 C232 1.373 . S
N233 C235 1.340 . S
N234 C231 1.368 . S
N234 C235 1.321 1_554 S
N234 Co237 2.135 . S
C235 N233 1.340 . S
C235 N234 1.321 1_556 S
C235 H259 0.930 . S
H236 C231 0.931 . S
Co237 N234 2.135 . S
Co237 N240 2.121 . S
Co237 O245 2.055 . S
Co237 O248 2.039 . S
Co237 N251 2.140 . S
C238 O239 1.227 . S
C238 O248 1.265 . S
O239 C238 1.227 . S
N240 Co237 2.121 . S
N240 C242 1.375 . S
N240 C243 1.313 . S
C241 C242 1.338 . S
C241 N244 1.377 . S
C241 H261 0.930 1_565 S
C242 N240 1.375 . S
C242 C241 1.338 . S
C242 H246 0.931 . S
C243 N240 1.313 . S
C243 N244 1.344 . S
C243 H247 0.930 . S
N244 C241 1.377 . S
N244 C243 1.344 . S
O245 Co237 2.055 . S
O245 C249 1.253 . S
H246 C242 0.931 . S
H247 C243 0.930 . S
O248 Co237 2.039 . S
O248 C238 1.265 . S
C249 O245 1.253 . S
C249 O250 1.227 . S
O250 C249 1.227 . S
N251 Co237 2.140 . S
N251 C254 1.346 . S
N251 C255 1.345 . S
C252 C253 1.387 . S
C252 C256 1.391 . S
C253 C252 1.387 . S
C253 C254 1.369 . S
C253 H262 0.926 1_554 S
C254 N251 1.346 . S
C254 C253 1.369 . S
C254 H257 0.928 . S
C255 N251 1.345 . S
C255 C256 1.371 . S
C255 H258 0.931 . S
C256 C252 1.391 . S
C256 C255 1.371 . S
C256 H263 0.930 . S
H257 C254 0.928 . S
H258 C255 0.931 . S
H259 C235 0.930 . S
H260 C232 0.930 . S
H261 C241 0.930 1_545 S
H262 C253 0.926 1_556 S
H263 C256 0.930 . S
C264 C265 1.349 . S
C264 C266 1.327 . S
C264 H289 0.950 . S
C265 C264 1.349 . S
C265 C281 1.349 . S
C266 C264 1.327 . S
C266 C285 1.429 . S
C266 H290 0.950 . S
C267 C284 1.574 . S
C267 C286 1.368 . S
C267 H291 0.949 . S
H268 C272 0.949 . S
C269 C270 1.349 . S
C269 C271 1.327 . S
C269 H292 0.950 . S
C270 C269 1.349 . S
C270 C282 1.349 . S
C271 C269 1.327 . S
C271 C287 1.429 . S
C271 H293 0.950 . S
C272 H268 0.949 . S
C272 C280 1.574 . S
C272 C288 1.368 . S
H273 C281 0.950 . S
H274 C279 0.950 . S
H275 C280 0.949 . S
H276 C282 0.950 . S
H277 C283 0.950 . S
H278 C284 0.949 . S
C279 H274 0.950 . S
C279 C281 1.327 . S
C279 C285 1.429 . S
C280 C272 1.574 . S
C280 H275 0.949 . S
C280 C286 1.368 . S
C281 C265 1.349 . S
C281 H273 0.950 . S
C281 C279 1.327 . S
C282 C270 1.349 . S
C282 H276 0.950 . S
C282 C283 1.327 . S
C283 H277 0.950 . S
C283 C282 1.327 . S
C283 C287 1.429 . S
C284 C267 1.574 . S
C284 H278 0.949 . S
C284 C288 1.368 . S
C285 C266 1.429 . S
C285 C279 1.429 . S
C285 C286 1.523 . S
C286 C267 1.368 . S
C286 C280 1.368 . S
C286 C285 1.523 . S
C287 C271 1.429 . S
C287 C283 1.429 . S
C287 C288 1.523 . S
C288 C272 1.368 . S
C288 C284 1.368 . S
C288 C287 1.523 . S
H289 C264 0.950 . S
H290 C266 0.950 . S
H291 C267 0.949 . S
H292 C269 0.950 . S
H293 C271 0.950 . S
C294 C295 1.349 . S
C294 C296 1.327 . S
C294 H319 0.950 . S
C295 C294 1.349 . S
C295 C311 1.349 . S
C296 C294 1.327 . S
C296 C315 1.429 . S
C296 H320 0.950 . S
C297 C314 1.574 . S
C297 C316 1.368 . S
C297 H321 0.949 . S
H298 C302 0.949 . S
C299 C300 1.349 . S
C299 C301 1.327 . S
C299 H322 0.950 . S
C300 C299 1.349 . S
C300 C312 1.349 . S
C301 C299 1.327 . S
C301 C317 1.429 . S
C301 H323 0.950 . S
C302 H298 0.949 . S
C302 C310 1.574 . S
C302 C318 1.368 . S
H303 C311 0.950 . S
H304 C309 0.950 . S
H305 C310 0.949 . S
H306 C312 0.950 . S
H307 C313 0.950 . S
H308 C314 0.949 . S
C309 H304 0.950 . S
C309 C311 1.327 . S
C309 C315 1.429 . S
C310 C302 1.574 . S
C310 H305 0.949 . S
C310 C316 1.368 . S
C311 C295 1.349 . S
C311 H303 0.950 . S
C311 C309 1.327 . S
C312 C300 1.349 . S
C312 H306 0.950 . S
C312 C313 1.327 . S
C313 H307 0.950 . S
C313 C312 1.327 . S
C313 C317 1.429 . S
C314 C297 1.574 . S
C314 H308 0.949 . S
C314 C318 1.368 . S
C315 C296 1.429 . S
C315 C309 1.429 . S
C315 C316 1.523 . S
C316 C297 1.368 . S
C316 C310 1.368 . S
C316 C315 1.523 . S
C317 C301 1.429 . S
C317 C313 1.429 . S
C317 C318 1.523 . S
C318 C302 1.368 . S
C318 C314 1.368 . S
C318 C317 1.523 . S
H319 C294 0.950 . S
H320 C296 0.950 . S
H321 C297 0.949 . S
H322 C299 0.950 . S
H323 C301 0.950 . S
C324 C325 1.349 . S
C324 C326 1.327 . S
C324 H349 0.950 . S
C325 C324 1.349 . S
C325 C341 1.349 . S
C326 C324 1.327 . S
C326 C345 1.429 . S
C326 H350 0.950 . S
C327 C344 1.574 . S
C327 C346 1.368 . S
C327 H351 0.949 . S
H328 C332 0.949 . S
C329 C330 1.349 . S
C329 C331 1.327 . S
C329 H352 0.950 . S
C330 C329 1.349 . S
C330 C342 1.349 . S
C331 C329 1.327 . S
C331 C347 1.429 . S
C331 H353 0.950 . S
C332 H328 0.949 . S
C332 C340 1.574 . S
C332 C348 1.368 . S
H333 C341 0.950 . S
H334 C339 0.950 . S
H335 C340 0.949 . S
H336 C342 0.950 . S
H337 C343 0.950 . S
H338 C344 0.949 . S
C339 H334 0.950 . S
C339 C341 1.327 . S
C339 C345 1.429 . S
C340 C332 1.574 . S
C340 H335 0.949 . S
C340 C346 1.368 . S
C341 C325 1.349 . S
C341 H333 0.950 . S
C341 C339 1.327 . S
C342 C330 1.349 . S
C342 H336 0.950 . S
C342 C343 1.327 . S
C343 H337 0.950 . S
C343 C342 1.327 . S
C343 C347 1.429 . S
C344 C327 1.574 . S
C344 H338 0.949 . S
C344 C348 1.368 . S
C345 C326 1.429 . S
C345 C339 1.429 . S
C345 C346 1.523 . S
C346 C327 1.368 . S
C346 C340 1.368 . S
C346 C345 1.523 . S
C347 C331 1.429 . S
C347 C343 1.429 . S
C347 C348 1.523 . S
C348 C332 1.368 . S
C348 C344 1.368 . S
C348 C347 1.523 . S
H349 C324 0.950 . S
H350 C326 0.950 . S
H351 C327 0.949 . S
H352 C329 0.950 . S
H353 C331 0.950 . S
C354 C355 1.349 . S
C354 C356 1.327 . S
C354 H379 0.950 . S
C355 C354 1.349 . S
C355 C371 1.349 . S
C356 C354 1.327 . S
C356 C375 1.429 . S
C356 H380 0.950 1_556 S
C357 C374 1.574 . S
C357 C376 1.368 . S
C357 H381 0.949 . S
H358 C362 0.949 . S
C359 C360 1.349 . S
C359 C361 1.327 . S
C359 H382 0.950 . S
C360 C359 1.349 . S
C360 C372 1.349 . S
C361 C359 1.327 . S
C361 C377 1.429 . S
C361 H383 0.950 1_554 S
C362 H358 0.949 . S
C362 C370 1.574 . S
C362 C378 1.368 . S
H363 C371 0.950 . S
H364 C369 0.950 . S
H365 C370 0.949 . S
H366 C372 0.950 . S
H367 C373 0.950 . S
H368 C374 0.949 . S
C369 H364 0.950 . S
C369 C371 1.327 . S
C369 C375 1.429 . S
C370 C362 1.574 . S
C370 H365 0.949 . S
C370 C376 1.368 1_554 S
C371 C355 1.349 . S
C371 H363 0.950 . S
C371 C369 1.327 . S
C372 C360 1.349 . S
C372 H366 0.950 . S
C372 C373 1.327 . S
C373 H367 0.950 . S
C373 C372 1.327 . S
C373 C377 1.429 . S
C374 C357 1.574 . S
C374 H368 0.949 . S
C374 C378 1.368 1_556 S
C375 C356 1.429 . S
C375 C369 1.429 . S
C375 C376 1.523 . S
C376 C357 1.368 . S
C376 C370 1.368 1_556 S
C376 C375 1.523 . S
C377 C361 1.429 . S
C377 C373 1.429 . S
C377 C378 1.523 . S
C378 C362 1.368 . S
C378 C374 1.368 1_554 S
C378 C377 1.523 . S
H379 C354 0.950 . S
H380 C356 0.950 1_554 S
H381 C357 0.949 . S
H382 C359 0.950 . S
H383 C361 0.950 1_556 S
C384 C385 1.349 . S
C384 C386 1.327 . S
C384 H409 0.950 . S
C385 C384 1.349 . S
C385 C401 1.349 . S
C386 C384 1.327 . S
C386 C405 1.429 . S
C386 H410 0.950 . S
C387 C404 1.574 . S
C387 C406 1.368 . S
C387 H411 0.949 . S
H388 C392 0.949 . S
C389 C390 1.349 . S
C389 C391 1.327 . S
C389 H412 0.950 . S
C390 C389 1.349 . S
C390 C402 1.349 . S
C391 C389 1.327 . S
C391 C407 1.429 . S
C391 H413 0.950 . S
C392 H388 0.949 . S
C392 C400 1.574 . S
C392 C408 1.368 . S
H393 C401 0.950 . S
H394 C399 0.950 . S
H395 C400 0.949 . S
H396 C402 0.950 . S
H397 C403 0.950 . S
H398 C404 0.949 . S
C399 H394 0.950 . S
C399 C401 1.327 . S
C399 C405 1.429 . S
C400 C392 1.574 . S
C400 H395 0.949 . S
C400 C406 1.368 . S
C401 C385 1.349 . S
C401 H393 0.950 . S
C401 C399 1.327 . S
C402 C390 1.349 . S
C402 H396 0.950 . S
C402 C403 1.327 . S
C403 H397 0.950 . S
C403 C402 1.327 . S
C403 C407 1.429 . S
C404 C387 1.574 . S
C404 H398 0.949 . S
C404 C408 1.368 . S
C405 C386 1.429 . S
C405 C399 1.429 . S
C405 C406 1.523 . S
C406 C387 1.368 . S
C406 C400 1.368 . S
C406 C405 1.523 . S
C407 C391 1.429 . S
C407 C403 1.429 . S
C407 C408 1.523 . S
C408 C392 1.368 . S
C408 C404 1.368 . S
C408 C407 1.523 . S
H409 C384 0.950 . S
H410 C386 0.950 . S
H411 C387 0.949 . S
H412 C389 0.950 . S
H413 C391 0.950 . S
C414 C415 1.349 . S
C414 C416 1.327 . S
C414 H439 0.950 . S
C415 C414 1.349 . S
C415 C431 1.349 . S
C416 C414 1.327 . S
C416 C435 1.429 . S
C416 H440 0.950 . S
C417 C434 1.574 . S
C417 C436 1.368 . S
C417 H441 0.949 . S
H418 C422 0.949 . S
C419 C420 1.349 . S
C419 C421 1.327 . S
C419 H442 0.950 . S
C420 C419 1.349 . S
C420 C432 1.349 . S
C421 C419 1.327 . S
C421 C437 1.429 . S
C421 H443 0.950 . S
C422 H418 0.949 . S
C422 C430 1.574 . S
C422 C438 1.368 . S
H423 C431 0.950 . S
H424 C429 0.950 . S
H425 C430 0.949 . S
H426 C432 0.950 . S
H427 C433 0.950 . S
H428 C434 0.949 . S
C429 H424 0.950 . S
C429 C431 1.327 . S
C429 C435 1.429 . S
C430 C422 1.574 . S
C430 H425 0.949 . S
C430 C436 1.368 . S
C431 C415 1.349 . S
C431 H423 0.950 . S
C431 C429 1.327 . S
C432 C420 1.349 . S
C432 H426 0.950 . S
C432 C433 1.327 . S
C433 H427 0.950 . S
C433 C432 1.327 . S
C433 C437 1.429 . S
C434 C417 1.574 . S
C434 H428 0.949 . S
C434 C438 1.368 . S
C435 C416 1.429 . S
C435 C429 1.429 . S
C435 C436 1.523 . S
C436 C417 1.368 . S
C436 C430 1.368 . S
C436 C435 1.523 . S
C437 C421 1.429 . S
C437 C433 1.429 . S
C437 C438 1.523 . S
C438 C422 1.368 . S
C438 C434 1.368 . S
C438 C437 1.523 . S
H439 C414 0.950 . S
H440 C416 0.950 . S
H441 C417 0.949 . S
H442 C419 0.950 . S
H443 C421 0.950 . S
C444 C445 1.349 . S
C444 C446 1.327 . S
C444 H469 0.950 . S
C445 C444 1.349 . S
C445 C461 1.349 . S
C446 C444 1.327 . S
C446 C465 1.429 . S
C446 H470 0.950 . S
C447 C464 1.574 . S
C447 C466 1.368 . S
C447 H471 0.949 . S
H448 C452 0.949 . S
C449 C450 1.349 . S
C449 C451 1.327 . S
C449 H472 0.950 . S
C450 C449 1.349 . S
C450 C462 1.349 . S
C451 C449 1.327 . S
C451 C467 1.429 . S
C451 H473 0.950 . S
C452 H448 0.949 . S
C452 C460 1.574 . S
C452 C468 1.368 . S
H453 C461 0.950 . S
H454 C459 0.950 . S
H455 C460 0.949 . S
H456 C462 0.950 . S
H457 C463 0.950 . S
H458 C464 0.949 . S
C459 H454 0.950 . S
C459 C461 1.327 . S
C459 C465 1.429 . S
C460 C452 1.574 . S
C460 H455 0.949 . S
C460 C466 1.368 . S
C461 C445 1.349 . S
C461 H453 0.950 . S
C461 C459 1.327 . S
C462 C450 1.349 . S
C462 H456 0.950 . S
C462 C463 1.327 . S
C463 H457 0.950 . S
C463 C462 1.327 . S
C463 C467 1.429 . S
C464 C447 1.574 . S
C464 H458 0.949 . S
C464 C468 1.368 . S
C465 C446 1.429 . S
C465 C459 1.429 . S
C465 C466 1.523 . S
C466 C447 1.368 . S
C466 C460 1.368 . S
C466 C465 1.523 . S
C467 C451 1.429 . S
C467 C463 1.429 . S
C467 C468 1.523 . S
C468 C452 1.368 . S
C468 C464 1.368 . S
C468 C467 1.523 . S
H469 C444 0.950 . S
H470 C446 0.950 . S
H471 C447 0.949 . S
H472 C449 0.950 . S
H473 C451 0.950 . S
C474 C475 1.349 . S
C474 C476 1.327 . S
C474 H499 0.950 . S
C475 C474 1.349 . S
C475 C491 1.349 . S
C476 C474 1.327 . S
C476 C495 1.429 . S
C476 H500 0.950 . S
C477 C494 1.574 . S
C477 C496 1.368 . S
C477 H501 0.949 . S
H478 C482 0.949 . S
C479 C480 1.349 . S
C479 C481 1.327 . S
C479 H502 0.950 . S
C480 C479 1.349 . S
C480 C492 1.349 . S
C481 C479 1.327 . S
C481 C497 1.429 . S
C481 H503 0.950 . S
C482 H478 0.949 . S
C482 C490 1.574 . S
C482 C498 1.368 . S
H483 C491 0.950 . S
H484 C489 0.950 . S
H485 C490 0.949 . S
H486 C492 0.950 . S
H487 C493 0.950 . S
H488 C494 0.949 . S
C489 H484 0.950 . S
C489 C491 1.327 . S
C489 C495 1.429 . S
C490 C482 1.574 . S
C490 H485 0.949 . S
C490 C496 1.368 . S
C491 C475 1.349 . S
C491 H483 0.950 . S
C491 C489 1.327 . S
C492 C480 1.349 . S
C492 H486 0.950 . S
C492 C493 1.327 . S
C493 H487 0.950 . S
C493 C492 1.327 . S
C493 C497 1.429 . S
C494 C477 1.574 . S
C494 H488 0.949 . S
C494 C498 1.368 . S
C495 C476 1.429 . S
C495 C489 1.429 . S
C495 C496 1.523 . S
C496 C477 1.368 . S
C496 C490 1.368 . S
C496 C495 1.523 . S
C497 C481 1.429 . S
C497 C493 1.429 . S
C497 C498 1.523 . S
C498 C482 1.368 . S
C498 C494 1.368 . S
C498 C497 1.523 . S
H499 C474 0.950 . S
H500 C476 0.950 . S
H501 C477 0.949 . S
H502 C479 0.950 . S
H503 C481 0.950 . S
C504 C505 1.349 . S
C504 C506 1.327 . S
C504 H529 0.953 . S
C505 C504 1.349 . S
C505 C521 1.349 . S
C506 C504 1.327 . S
C506 C525 1.429 . S
C506 H530 0.950 1_455 S
C507 C524 1.574 1_554 S
C507 C526 1.368 . S
C507 H531 0.949 . S
H508 C512 0.949 . S
C509 C510 1.349 . S
C509 C511 1.327 . S
C509 H532 0.953 . S
C510 C509 1.349 . S
C510 C522 1.349 . S
C511 C509 1.327 . S
C511 C527 1.429 . S
C511 H533 0.950 1_655 S
C512 H508 0.949 . S
C512 C520 1.574 1_556 S
C512 C528 1.368 . S
H513 C521 0.950 . S
H514 C519 0.950 . S
H515 C520 0.949 . S
H516 C522 0.950 . S
H517 C523 0.950 . S
H518 C524 0.949 . S
C519 H514 0.950 . S
C519 C521 1.327 . S
C519 C525 1.429 . S
C520 C512 1.574 1_554 S
C520 H515 0.949 . S
C520 C526 1.368 1_655 S
C521 C505 1.349 . S
C521 H513 0.950 . S
C521 C519 1.327 . S
C522 C510 1.349 . S
C522 H516 0.950 . S
C522 C523 1.327 . S
C523 H517 0.950 . S
C523 C522 1.327 . S
C523 C527 1.429 . S
C524 C507 1.574 1_556 S
C524 H518 0.949 . S
C524 C528 1.368 1_455 S
C525 C506 1.429 . S
C525 C519 1.429 . S
C525 C526 1.523 . S
C526 C507 1.368 . S
C526 C520 1.368 1_455 S
C526 C525 1.523 . S
C527 C511 1.429 . S
C527 C523 1.429 . S
C527 C528 1.523 . S
C528 C512 1.368 . S
C528 C524 1.368 1_655 S
C528 C527 1.523 . S
H529 C504 0.953 . S
H530 C506 0.950 1_655 S
H531 C507 0.949 . S
H532 C509 0.953 . S
H533 C511 0.950 1_455 S
C534 C535 1.349 . S
C534 C536 1.327 1_565 S
C534 H559 0.950 1_565 S
C535 C534 1.349 . S
C535 C551 1.349 . S
C536 C534 1.327 1_545 S
C536 C555 1.429 1_545 S
C536 H560 0.950 . S
C537 C554 1.574 . S
C537 C556 1.368 . S
C537 H561 0.949 . S
H538 C542 0.949 . S
C539 C540 1.349 . S
C539 C541 1.327 1_545 S
C539 H562 0.950 1_545 S
C540 C539 1.349 . S
C540 C552 1.349 . S
C541 C539 1.327 1_565 S
C541 C557 1.429 1_565 S
C541 H563 0.950 . S
C542 H538 0.949 . S
C542 C550 1.574 . S
C542 C558 1.368 . S
H543 C551 0.950 . S
H544 C549 0.950 . S
H545 C550 0.949 . S
H546 C552 0.950 . S
H547 C553 0.950 . S
H548 C554 0.949 . S
C549 H544 0.950 . S
C549 C551 1.327 . S
C549 C555 1.429 . S
C550 C542 1.574 . S
C550 H545 0.949 . S
C550 C556 1.368 1_545 S
C551 C535 1.349 . S
C551 H543 0.950 . S
C551 C549 1.327 . S
C552 C540 1.349 . S
C552 H546 0.950 . S
C552 C553 1.327 . S
C553 H547 0.950 . S
C553 C552 1.327 . S
C553 C557 1.429 . S
C554 C537 1.574 . S
C554 H548 0.949 . S
C554 C558 1.368 1_565 S
C555 C536 1.429 1_565 S
C555 C549 1.429 . S
C555 C556 1.523 . S
C556 C537 1.368 . S
C556 C550 1.368 1_565 S
C556 C555 1.523 . S
C557 C541 1.429 1_545 S
C557 C553 1.429 . S
C557 C558 1.523 . S
C558 C542 1.368 . S
C558 C554 1.368 1_545 S
C558 C557 1.523 . S
H559 C534 0.950 1_545 S
H560 C536 0.950 . S
H561 C537 0.949 . S
H562 C539 0.950 1_565 S
H563 C541 0.950 . S
C564 C565 1.349 . S
C564 C566 1.327 . S
C564 H589 0.950 . S
C565 C564 1.349 . S
C565 C581 1.349 . S
C566 C564 1.327 . S
C566 C585 1.429 . S
C566 H590 0.950 . S
C567 C584 1.574 . S
C567 C586 1.368 1_455 S
C567 H591 0.949 . S
H568 C572 0.949 . S
C569 C570 1.349 . S
C569 C571 1.327 . S
C569 H592 0.950 . S
C570 C569 1.349 . S
C570 C582 1.349 . S
C571 C569 1.327 . S
C571 C587 1.429 . S
C571 H593 0.950 . S
C572 H568 0.949 . S
C572 C580 1.574 . S
C572 C588 1.368 1_655 S
H573 C581 0.953 . S
H574 C579 0.950 1_455 S
H575 C580 0.949 . S
H576 C582 0.953 . S
H577 C583 0.950 1_655 S
H578 C584 0.949 . S
C579 H574 0.950 1_655 S
C579 C581 1.327 . S
C579 C585 1.429 . S
C580 C572 1.574 . S
C580 H575 0.949 . S
C580 C586 1.368 . S
C581 C565 1.349 . S
C581 H573 0.953 . S
C581 C579 1.327 . S
C582 C570 1.349 . S
C582 H576 0.953 . S
C582 C583 1.327 . S
C583 H577 0.950 1_455 S
C583 C582 1.327 . S
C583 C587 1.429 . S
C584 C567 1.574 . S
C584 H578 0.949 . S
C584 C588 1.368 . S
C585 C566 1.429 . S
C585 C579 1.429 . S
C585 C586 1.523 . S
C586 C567 1.368 1_655 S
C586 C580 1.368 . S
C586 C585 1.523 . S
C587 C571 1.429 . S
C587 C583 1.429 . S
C587 C588 1.523 . S
C588 C572 1.368 1_455 S
C588 C584 1.368 . S
C588 C587 1.523 . S
H589 C564 0.950 . S
H590 C566 0.950 . S
H591 C567 0.949 . S
H592 C569 0.950 . S
H593 C571 0.950 . S
C594 C595 1.349 . S
C594 C596 1.327 . S
C594 H619 0.950 . S
C595 C594 1.349 . S
C595 C611 1.349 . S
C596 C594 1.327 . S
C596 C615 1.429 . S
C596 H620 0.950 . S
C597 C614 1.574 . S
C597 C616 1.368 1_565 S
C597 H621 0.949 . S
H598 C602 0.949 . S
C599 C600 1.349 . S
C599 C601 1.327 . S
C599 H622 0.950 . S
C600 C599 1.349 . S
C600 C612 1.349 . S
C601 C599 1.327 . S
C601 C617 1.429 . S
C601 H623 0.950 . S
C602 H598 0.949 . S
C602 C610 1.574 . S
C602 C618 1.368 1_545 S
H603 C611 0.950 1_565 S
H604 C609 0.950 . S
H605 C610 0.949 . S
H606 C612 0.950 1_545 S
H607 C613 0.950 . S
H608 C614 0.949 . S
C609 H604 0.950 . S
C609 C611 1.327 1_565 S
C609 C615 1.429 1_565 S
C610 C602 1.574 . S
C610 H605 0.949 . S
C610 C616 1.368 . S
C611 C595 1.349 . S
C611 H603 0.950 1_545 S
C611 C609 1.327 1_545 S
C612 C600 1.349 . S
C612 H606 0.950 1_565 S
C612 C613 1.327 1_565 S
C613 H607 0.950 . S
C613 C612 1.327 1_545 S
C613 C617 1.429 1_545 S
C614 C597 1.574 . S
C614 H608 0.949 . S
C614 C618 1.368 . S
C615 C596 1.429 . S
C615 C609 1.429 1_545 S
C615 C616 1.523 . S
C616 C597 1.368 1_545 S
C616 C610 1.368 . S
C616 C615 1.523 . S
C617 C601 1.429 . S
C617 C613 1.429 1_565 S
C617 C618 1.523 . S
C618 C602 1.368 1_565 S
C618 C614 1.368 . S
C618 C617 1.523 . S
H619 C594 0.950 . S
H620 C596 0.950 . S
H621 C597 0.949 . S
H622 C599 0.950 . S
H623 C601 0.950 . S
C624 C625 1.349 . S
C624 C626 1.327 . S
C624 H649 0.950 . S
C625 C624 1.349 . S
C625 C641 1.349 . S
C626 C624 1.327 . S
C626 C645 1.429 . S
C626 H650 0.950 . S
C627 C644 1.574 . S
C627 C646 1.368 . S
C627 H651 0.949 . S
H628 C632 0.949 . S
C629 C630 1.349 . S
C629 C631 1.327 . S
C629 H652 0.950 1_545 S
C630 C629 1.349 . S
C630 C642 1.349 . S
C631 C629 1.327 . S
C631 C647 1.429 . S
C631 H653 0.950 . S
C632 H628 0.949 . S
C632 C640 1.574 . S
C632 C648 1.368 . S
H633 C641 0.950 . S
H634 C639 0.950 . S
H635 C640 0.949 . S
H636 C642 0.950 1_556 S
H637 C643 0.950 . S
H638 C644 0.949 . S
C639 H634 0.950 . S
C639 C641 1.327 . S
C639 C645 1.429 . S
C640 C632 1.574 . S
C640 H635 0.949 . S
C640 C646 1.368 . S
C641 C625 1.349 . S
C641 H633 0.950 . S
C641 C639 1.327 . S
C642 C630 1.349 . S
C642 H636 0.950 1_554 S
C642 C643 1.327 . S
C643 H637 0.950 . S
C643 C642 1.327 . S
C643 C647 1.429 . S
C644 C627 1.574 . S
C644 H638 0.949 . S
C644 C648 1.368 . S
C645 C626 1.429 . S
C645 C639 1.429 . S
C645 C646 1.523 . S
C646 C627 1.368 . S
C646 C640 1.368 . S
C646 C645 1.523 . S
C647 C631 1.429 . S
C647 C643 1.429 . S
C647 C648 1.523 . S
C648 C632 1.368 . S
C648 C644 1.368 . S
C648 C647 1.523 . S
H649 C624 0.950 . S
H650 C626 0.950 . S
H651 C627 0.949 . S
H652 C629 0.950 1_565 S
H653 C631 0.950 . S
C654 C655 1.349 . S
C654 C656 1.327 . S
C654 H679 0.950 . S
C655 C654 1.349 . S
C655 C671 1.349 . S
C656 C654 1.327 . S
C656 C675 1.429 . S
C656 H680 0.950 . S
C657 C674 1.574 . S
C657 C676 1.368 . S
C657 H681 0.949 . S
H658 C662 0.949 . S
C659 C660 1.349 . S
C659 C661 1.327 . S
C659 H682 0.950 . S
C660 C659 1.349 . S
C660 C672 1.349 . S
C661 C659 1.327 . S
C661 C677 1.429 . S
C661 H683 0.950 . S
C662 H658 0.949 . S
C662 C670 1.574 . S
C662 C678 1.368 . S
H663 C671 0.950 1_455 S
H664 C669 0.950 . S
H665 C670 0.949 . S
H666 C672 0.950 . S
H667 C673 0.950 . S
H668 C674 0.949 . S
C669 H664 0.950 . S
C669 C671 1.327 . S
C669 C675 1.429 . S
C670 C662 1.574 . S
C670 H665 0.949 . S
C670 C676 1.368 . S
C671 C655 1.349 . S
C671 H663 0.950 1_655 S
C671 C669 1.327 . S
C672 C660 1.349 . S
C672 H666 0.950 . S
C672 C673 1.327 . S
C673 H667 0.950 . S
C673 C672 1.327 . S
C673 C677 1.429 . S
C674 C657 1.574 . S
C674 H668 0.949 . S
C674 C678 1.368 . S
C675 C656 1.429 . S
C675 C669 1.429 . S
C675 C676 1.523 . S
C676 C657 1.368 . S
C676 C670 1.368 . S
C676 C675 1.523 . S
C677 C661 1.429 . S
C677 C673 1.429 . S
C677 C678 1.523 . S
C678 C662 1.368 . S
C678 C674 1.368 . S
C678 C677 1.523 . S
H679 C654 0.950 . S
H680 C656 0.950 . S
H681 C657 0.949 . S
H682 C659 0.950 . S
H683 C661 0.950 . S
C684 C685 1.349 . S
C684 C686 1.327 . S
C684 H709 0.950 . S
C685 C684 1.349 . S
C685 C701 1.349 . S
C686 C684 1.327 . S
C686 C705 1.429 . S
C686 H710 0.950 . S
C687 C704 1.574 . S
C687 C706 1.368 . S
C687 H711 0.949 . S
H688 C692 0.949 . S
C689 C690 1.349 . S
C689 C691 1.327 . S
C689 H712 0.950 . S
C690 C689 1.349 . S
C690 C702 1.349 . S
C691 C689 1.327 . S
C691 C707 1.429 . S
C691 H713 0.950 . S
C692 H688 0.949 . S
C692 C700 1.574 . S
C692 C708 1.368 . S
H693 C701 0.950 1_545 S
H694 C699 0.950 . S
H695 C700 0.949 . S
H696 C702 0.950 . S
H697 C703 0.950 . S
H698 C704 0.949 . S
C699 H694 0.950 . S
C699 C701 1.327 . S
C699 C705 1.429 . S
C700 C692 1.574 . S
C700 H695 0.949 . S
C700 C706 1.368 . S
C701 C685 1.349 . S
C701 H693 0.950 1_565 S
C701 C699 1.327 . S
C702 C690 1.349 . S
C702 H696 0.950 . S
C702 C703 1.327 . S
C703 H697 0.950 . S
C703 C702 1.327 . S
C703 C707 1.429 . S
C704 C687 1.574 . S
C704 H698 0.949 . S
C704 C708 1.368 . S
C705 C686 1.429 . S
C705 C699 1.429 . S
C705 C706 1.523 . S
C706 C687 1.368 . S
C706 C700 1.368 . S
C706 C705 1.523 . S
C707 C691 1.429 . S
C707 C703 1.429 . S
C707 C708 1.523 . S
C708 C692 1.368 . S
C708 C704 1.368 . S
C708 C707 1.523 . S
H709 C684 0.950 . S
H710 C686 0.950 . S
H711 C687 0.949 . S
H712 C689 0.950 . S
H713 C691 0.950 . S
C714 C715 1.349 . S
C714 C716 1.327 . S
C714 H739 0.950 1_455 S
C715 C714 1.349 . S
C715 C731 1.349 . S
C716 C714 1.327 . S
C716 C735 1.429 . S
C716 H740 0.950 . S
C717 C734 1.574 . S
C717 C736 1.368 . S
C717 H741 0.949 . S
H718 C722 0.949 . S
C719 C720 1.349 . S
C719 C721 1.327 . S
C719 H742 0.950 . S
C720 C719 1.349 . S
C720 C732 1.349 . S
C721 C719 1.327 . S
C721 C737 1.429 . S
C721 H743 0.950 . S
C722 H718 0.949 . S
C722 C730 1.574 . S
C722 C738 1.368 . S
H723 C731 0.950 . S
H724 C729 0.950 . S
H725 C730 0.949 . S
H726 C732 0.950 . S
H727 C733 0.950 . S
H728 C734 0.949 . S
C729 H724 0.950 . S
C729 C731 1.327 . S
C729 C735 1.429 . S
C730 C722 1.574 . S
C730 H725 0.949 . S
C730 C736 1.368 . S
C731 C715 1.349 . S
C731 H723 0.950 . S
C731 C729 1.327 . S
C732 C720 1.349 . S
C732 H726 0.950 . S
C732 C733 1.327 . S
C733 H727 0.950 . S
C733 C732 1.327 . S
C733 C737 1.429 . S
C734 C717 1.574 . S
C734 H728 0.949 . S
C734 C738 1.368 . S
C735 C716 1.429 . S
C735 C729 1.429 . S
C735 C736 1.523 . S
C736 C717 1.368 . S
C736 C730 1.368 . S
C736 C735 1.523 . S
C737 C721 1.429 . S
C737 C733 1.429 . S
C737 C738 1.523 . S
C738 C722 1.368 . S
C738 C734 1.368 . S
C738 C737 1.523 . S
H739 C714 0.950 1_655 S
H740 C716 0.950 . S
H741 C717 0.949 . S
H742 C719 0.950 . S
H743 C721 0.950 . S
C744 C745 1.349 . S
C744 C746 1.327 . S
C744 H769 0.950 . S
C745 C744 1.349 . S
C745 C761 1.349 . S
C746 C744 1.327 . S
C746 C765 1.429 . S
C746 H770 0.950 . S
C747 C764 1.574 . S
C747 C766 1.368 . S
C747 H771 0.949 . S
H748 C752 0.949 . S
C749 C750 1.349 . S
C749 C751 1.327 . S
C749 H772 0.950 . S
C750 C749 1.349 . S
C750 C762 1.349 . S
C751 C749 1.327 . S
C751 C767 1.429 . S
C751 H773 0.950 . S
C752 H748 0.949 . S
C752 C760 1.574 . S
C752 C768 1.368 . S
H753 C761 0.950 . S
H754 C759 0.950 . S
H755 C760 0.949 . S
H756 C762 0.950 1_545 S
H757 C763 0.950 . S
H758 C764 0.949 . S
C759 H754 0.950 . S
C759 C761 1.327 . S
C759 C765 1.429 . S
C760 C752 1.574 . S
C760 H755 0.949 . S
C760 C766 1.368 . S
C761 C745 1.349 . S
C761 H753 0.950 . S
C761 C759 1.327 . S
C762 C750 1.349 . S
C762 H756 0.950 1_565 S
C762 C763 1.327 . S
C763 H757 0.950 . S
C763 C762 1.327 . S
C763 C767 1.429 . S
C764 C747 1.574 . S
C764 H758 0.949 . S
C764 C768 1.368 . S
C765 C746 1.429 . S
C765 C759 1.429 . S
C765 C766 1.523 . S
C766 C747 1.368 . S
C766 C760 1.368 . S
C766 C765 1.523 . S
C767 C751 1.429 . S
C767 C763 1.429 . S
C767 C768 1.523 . S
C768 C752 1.368 . S
C768 C764 1.368 . S
C768 C767 1.523 . S
H769 C744 0.950 . S
H770 C746 0.950 . S
H771 C747 0.949 . S
H772 C749 0.950 . S
H773 C751 0.950 . S
C774 C775 1.349 . S
C774 C776 1.327 . S
C774 H799 0.950 . S
C775 C774 1.349 . S
C775 C791 1.349 . S
C776 C774 1.327 . S
C776 C795 1.429 . S
C776 H800 0.950 . S
C777 C794 1.574 . S
C777 C796 1.368 . S
C777 H801 0.949 . S
H778 C782 0.949 . S
C779 C780 1.349 . S
C779 C781 1.327 . S
C779 H802 0.950 . S
C780 C779 1.349 . S
C780 C792 1.343 1_455 S
C781 C779 1.327 . S
C781 C797 1.429 . S
C781 H803 0.950 . S
C782 H778 0.949 . S
C782 C790 1.574 . S
C782 C798 1.368 . S
H783 C791 0.950 . S
H784 C789 0.950 . S
H785 C790 0.949 . S
H786 C792 0.973 . S
H787 C793 0.950 . S
H788 C794 0.949 . S
C789 H784 0.950 . S
C789 C791 1.327 . S
C789 C795 1.429 . S
C790 C782 1.574 . S
C790 H785 0.949 . S
C790 C796 1.368 . S
C791 C775 1.349 . S
C791 H783 0.950 . S
C791 C789 1.327 . S
C792 C780 1.343 1_655 S
C792 H786 0.973 . S
C792 C793 1.311 1_655 S
C793 H787 0.950 . S
C793 C792 1.311 1_455 S
C793 C797 1.429 . S
C794 C777 1.574 . S
C794 H788 0.949 . S
C794 C798 1.368 . S
C795 C776 1.429 . S
C795 C789 1.429 . S
C795 C796 1.523 . S
C796 C777 1.368 . S
C796 C790 1.368 . S
C796 C795 1.523 . S
C797 C781 1.429 . S
C797 C793 1.429 . S
C797 C798 1.523 . S
C798 C782 1.368 . S
C798 C794 1.368 . S
C798 C797 1.523 . S
H799 C774 0.950 . S
H800 C776 0.950 . S
H801 C777 0.949 . S
H802 C779 0.950 . S
H803 C781 0.950 . S
C804 C805 1.349 . S
C804 C806 1.327 . S
C804 H829 0.950 . S
C805 C804 1.349 . S
C805 C821 1.349 . S
C806 C804 1.327 . S
C806 C825 1.429 . S
C806 H830 0.950 . S
C807 C824 1.574 . S
C807 C826 1.368 . S
C807 H831 0.949 . S
H808 C812 0.949 . S
C809 C810 1.349 . S
C809 C811 1.327 . S
C809 H832 0.950 1_545 S
C810 C809 1.349 . S
C810 C822 1.349 . S
C811 C809 1.327 . S
C811 C827 1.429 . S
C811 H833 0.950 . S
C812 H808 0.949 . S
C812 C820 1.574 . S
C812 C828 1.368 . S
H813 C821 0.950 . S
H814 C819 0.950 . S
H815 C820 0.949 . S
H816 C822 0.950 . S
H817 C823 0.950 . S
H818 C824 0.949 . S
C819 H814 0.950 . S
C819 C821 1.327 . S
C819 C825 1.429 . S
C820 C812 1.574 . S
C820 H815 0.949 . S
C820 C826 1.368 . S
C821 C805 1.349 . S
C821 H813 0.950 . S
C821 C819 1.327 . S
C822 C810 1.349 . S
C822 H816 0.950 . S
C822 C823 1.327 . S
C823 H817 0.950 . S
C823 C822 1.327 . S
C823 C827 1.429 . S
C824 C807 1.574 . S
C824 H818 0.949 . S
C824 C828 1.368 . S
C825 C806 1.429 . S
C825 C819 1.429 . S
C825 C826 1.523 . S
C826 C807 1.368 . S
C826 C820 1.368 . S
C826 C825 1.523 . S
C827 C811 1.429 . S
C827 C823 1.429 . S
C827 C828 1.523 . S
C828 C812 1.368 . S
C828 C824 1.368 . S
C828 C827 1.523 . S
H829 C804 0.950 . S
H830 C806 0.950 . S
H831 C807 0.949 . S
H832 C809 0.950 1_565 S
H833 C811 0.950 . S
C834 C835 1.349 . S
C834 C836 1.327 . S
C834 H859 0.950 1_655 S
C835 C834 1.349 . S
C835 C851 1.349 . S
C836 C834 1.327 . S
C836 C855 1.429 . S
C836 H860 0.950 . S
C837 C854 1.574 . S
C837 C856 1.368 . S
C837 H861 0.949 . S
H838 C842 0.949 . S
C839 C840 1.349 . S
C839 C841 1.327 . S
C839 H862 0.950 . S
C840 C839 1.349 . S
C840 C852 1.349 . S
C841 C839 1.327 . S
C841 C857 1.429 . S
C841 H863 0.950 . S
C842 H838 0.949 . S
C842 C850 1.574 . S
C842 C858 1.368 . S
H843 C851 0.950 . S
H844 C849 0.950 . S
H845 C850 0.949 . S
H846 C852 0.950 . S
H847 C853 0.950 . S
H848 C854 0.949 . S
C849 H844 0.950 . S
C849 C851 1.327 . S
C849 C855 1.429 . S
C850 C842 1.574 . S
C850 H845 0.949 . S
C850 C856 1.368 . S
C851 C835 1.349 . S
C851 H843 0.950 . S
C851 C849 1.327 . S
C852 C840 1.349 . S
C852 H846 0.950 . S
C852 C853 1.327 . S
C853 H847 0.950 . S
C853 C852 1.327 . S
C853 C857 1.429 . S
C854 C837 1.574 . S
C854 H848 0.949 . S
C854 C858 1.368 . S
C855 C836 1.429 . S
C855 C849 1.429 . S
C855 C856 1.523 . S
C856 C837 1.368 . S
C856 C850 1.368 . S
C856 C855 1.523 . S
C857 C841 1.429 . S
C857 C853 1.429 . S
C857 C858 1.523 . S
C858 C842 1.368 . S
C858 C854 1.368 . S
C858 C857 1.523 . S
H859 C834 0.950 1_455 S
H860 C836 0.950 . S
H861 C837 0.949 . S
H862 C839 0.950 . S
H863 C841 0.950 . S
C265 C153 1.196 . S
C270 C21 1.196 . S
C295 C54 1.196 . S
C300 C186 1.196 . S
C325 C87 1.196 . S
C330 C219 1.196 . S
C355 C120 1.196 . S
C360 C252 1.196 . S
C385 N167 0.612 . S
C390 N2 0.612 . S
C415 N35 0.612 . S
C420 N200 0.612 . S
C445 N233 0.612 . S
C450 N68 0.612 . S
C475 N101 0.612 . S
C480 N134 0.612 . S
C505 N13 0.929 . S
C510 N211 0.929 . S
C535 N244 0.929 . S
C540 N46 0.929 . S
C565 N79 0.929 . S
C570 N145 0.929 . S
C595 N178 0.929 . S
C600 N112 0.929 . S
C625 C18 2.007 . S
C630 C106 2.005 1_544 S
C655 C7 2.005 1_655 S
C660 C51 2.007 . S
C685 C40 2.005 1_565 S
C690 C84 2.007 . S
C715 C73 2.005 1_455 S
C720 C117 2.007 . S
C745 C150 2.007 . S
C750 C172 2.005 1_565 S
C775 C183 2.007 . S
C780 C205 2.005 1_455 S
C805 C216 2.007 . S
C810 C238 2.005 1_546 S
C835 C139 2.005 1_655 S
C840 C249 2.007 . S
