# Generated by pormake.
# Topology utj, (3)-cn, num edge types: 1
# Building blocks:
#     Node 0, Type 0, BuildingBlock: WUSLED_clean_sbu_0, # of connection points: 3
#     Node 1, Type 0, BuildingBlock: WUSLED_clean_sbu_0, # of connection points: 3
#     Node 2, Type 0, BuildingBlock: WUSLED_clean_sbu_0, # of connection points: 3
#     Node 3, Type 0, BuildingBlock: WUSLED_clean_sbu_0, # of connection points: 3
#     Node 4, Type 0, BuildingBlock: WUSLED_clean_sbu_0, # of connection points: 3
#     Node 5, Type 0, BuildingBlock: WUSLED_clean_sbu_0, # of connection points: 3
#     Node 6, Type 0, BuildingBlock: WUSLED_clean_sbu_0, # of connection points: 3
#     Node 7, Type 0, BuildingBlock: WUSLED_clean_sbu_0, # of connection points: 3
#     Node 8, Type 0, BuildingBlock: WUSLED_clean_sbu_0, # of connection points: 3
#     Node 9, Type 0, BuildingBlock: WUSLED_clean_sbu_0, # of connection points: 3
#     Node 10, Type 0, BuildingBlock: WUSLED_clean_sbu_0, # of connection points: 3
#     Node 11, Type 0, BuildingBlock: WUSLED_clean_sbu_0, # of connection points: 3
#     Node 12, Type 0, BuildingBlock: WUSLED_clean_sbu_0, # of connection points: 3
#     Node 13, Type 0, BuildingBlock: WUSLED_clean_sbu_0, # of connection points: 3
#     Node 14, Type 0, BuildingBlock: WUSLED_clean_sbu_0, # of connection points: 3
#     Node 15, Type 0, BuildingBlock: WUSLED_clean_sbu_0, # of connection points: 3
#     Edge 16, Type (0, 0), BuildingBlock: KIFKEQ_clean_linker_1, # of connection points: 2
#     Edge 17, Type (0, 0), BuildingBlock: KIFKEQ_clean_linker_1, # of connection points: 2
#     Edge 18, Type (0, 0), BuildingBlock: KIFKEQ_clean_linker_1, # of connection points: 2
#     Edge 19, Type (0, 0), BuildingBlock: KIFKEQ_clean_linker_1, # of connection points: 2
#     Edge 20, Type (0, 0), BuildingBlock: KIFKEQ_clean_linker_1, # of connection points: 2
#     Edge 21, Type (0, 0), BuildingBlock: KIFKEQ_clean_linker_1, # of connection points: 2
#     Edge 22, Type (0, 0), BuildingBlock: KIFKEQ_clean_linker_1, # of connection points: 2
#     Edge 23, Type (0, 0), BuildingBlock: KIFKEQ_clean_linker_1, # of connection points: 2
#     Edge 24, Type (0, 0), BuildingBlock: KIFKEQ_clean_linker_1, # of connection points: 2
#     Edge 25, Type (0, 0), BuildingBlock: KIFKEQ_clean_linker_1, # of connection points: 2
#     Edge 26, Type (0, 0), BuildingBlock: KIFKEQ_clean_linker_1, # of connection points: 2
#     Edge 27, Type (0, 0), BuildingBlock: KIFKEQ_clean_linker_1, # of connection points: 2
#     Edge 28, Type (0, 0), BuildingBlock: KIFKEQ_clean_linker_1, # of connection points: 2
#     Edge 29, Type (0, 0), BuildingBlock: KIFKEQ_clean_linker_1, # of connection points: 2
#     Edge 30, Type (0, 0), BuildingBlock: KIFKEQ_clean_linker_1, # of connection points: 2
#     Edge 31, Type (0, 0), BuildingBlock: KIFKEQ_clean_linker_1, # of connection points: 2
#     Edge 32, Type (0, 0), BuildingBlock: KIFKEQ_clean_linker_1, # of connection points: 2
#     Edge 33, Type (0, 0), BuildingBlock: KIFKEQ_clean_linker_1, # of connection points: 2
#     Edge 34, Type (0, 0), BuildingBlock: KIFKEQ_clean_linker_1, # of connection points: 2
#     Edge 35, Type (0, 0), BuildingBlock: KIFKEQ_clean_linker_1, # of connection points: 2
#     Edge 36, Type (0, 0), BuildingBlock: KIFKEQ_clean_linker_1, # of connection points: 2
#     Edge 37, Type (0, 0), BuildingBlock: KIFKEQ_clean_linker_1, # of connection points: 2
#     Edge 38, Type (0, 0), BuildingBlock: KIFKEQ_clean_linker_1, # of connection points: 2
#     Edge 39, Type (0, 0), BuildingBlock: KIFKEQ_clean_linker_1, # of connection points: 2
# Relax obj value: 0.003
# Max RMSD: 0.009
# Mean RMSD: 0.009
data_MOF--net-utj--node1-WUSLED_clean_sbu_0--edge1-KIFKEQ_clean_linker_1
_symmetry_space_group_name_H-M    P1
_symmetry_Int_Tables_number       1
_symmetry_cell_setting            triclinic
loop_
_symmetry_equiv_pos_as_xyz
'x, y, z'
_cell_length_a     78.960244
_cell_length_b     78.946891
_cell_length_c     66.54726
_cell_angle_alpha  89.966059
_cell_angle_beta   89.981337
_cell_angle_gamma 90.037073
loop_
_atom_site_label
_atom_site_type_symbol
_atom_site_fract_x
_atom_site_fract_y
_atom_site_fract_z
_atom_type_partial_charge
C0 C 0.03796 0.42029 0.05644 0.0
C1 C 0.0242 0.42877 0.06534 0.0
C2 C 0.027 0.45219 0.04146 0.0
C3 C 0.01881 0.44452 0.05795 0.0
C4 C 0.04094 0.44377 0.03285 0.0
C5 C 0.0463 0.42803 0.0402 0.0
U6 U 0.05514 0.38706 0.09448 0.0
O7 O 0.04719 0.36058 0.09909 0.0
O8 O 0.07307 0.36609 0.08905 0.0
C9 C 0.06164 0.35435 0.09261 0.0
C10 C 0.04311 0.40295 0.06274 0.0
C11 C 0.06083 0.34005 0.07807 0.0
C12 C 0.04537 0.32172 0.05486 0.0
C13 C 0.04598 0.33604 0.06739 0.0
C14 C 0.07448 0.31532 0.06316 0.0
C15 C 0.0596 0.31109 0.05264 0.0
C16 C 0.07506 0.32957 0.07571 0.0
C17 C 0.06717 0.40334 0.14871 0.0
C18 C 0.0897 0.40848 0.17316 0.0
C19 C 0.06117 0.40326 0.18476 0.0
C20 C 0.05574 0.40147 0.1648 0.0
C21 C 0.07817 0.40714 0.18923 0.0
C22 C 0.08428 0.40666 0.1532 0.0
C23 C 0.06086 0.4045 0.12762 0.0
O24 O 0.05937 0.40051 0.06585 0.0
O25 O 0.03349 0.39514 0.07597 0.0
O26 O 0.04621 0.39739 0.12341 0.0
O27 O 0.07198 0.40291 0.11302 0.0
H28 H 0.01739 0.42314 0.07779 0.0
H29 H 0.00791 0.45048 0.06485 0.0
H30 H 0.04777 0.44935 0.02038 0.0
H31 H 0.05687 0.42178 0.03296 0.0
H32 H 0.03375 0.31903 0.04683 0.0
H33 H 0.03478 0.34385 0.06884 0.0
H34 H 0.08562 0.30738 0.06211 0.0
H35 H 0.08662 0.33225 0.08389 0.0
H36 H 0.10293 0.41122 0.17596 0.0
H37 H 0.05185 0.40234 0.19665 0.0
H38 H 0.04241 0.39927 0.16197 0.0
H39 H 0.09343 0.40845 0.14126 0.0
C40 C 0.09584 0.03876 0.55526 0.0
C41 C 0.08356 0.03178 0.56813 0.0
C42 C 0.06378 0.02882 0.54006 0.0
C43 C 0.06771 0.02682 0.56059 0.0
C44 C 0.07609 0.03601 0.52734 0.0
C45 C 0.09192 0.04089 0.53486 0.0
U46 U 0.12783 0.0542 0.59546 0.0
O47 O 0.15385 0.04518 0.60117 0.0
O48 O 0.14954 0.07145 0.5918 0.0
C49 C 0.16078 0.05962 0.59574 0.0
C50 C 0.11297 0.04341 0.56242 0.0
C51 C 0.17555 0.05855 0.58205 0.0
C52 C 0.18831 0.05945 0.54865 0.0
C53 C 0.1739 0.05974 0.56106 0.0
C54 C 0.20616 0.05651 0.57798 0.0
C55 C 0.20469 0.058 0.55696 0.0
C56 C 0.19179 0.05679 0.59032 0.0
C57 C 0.11018 0.06473 0.6494 0.0
C58 C 0.10444 0.0581 0.68461 0.0
C59 C 0.11069 0.08696 0.67496 0.0
C60 C 0.11256 0.08179 0.65488 0.0
C61 C 0.10632 0.07523 0.69008 0.0
C62 C 0.10628 0.05296 0.66458 0.0
C63 C 0.1094 0.05932 0.62796 0.0
O64 O 0.11551 0.05952 0.56636 0.0
O65 O 0.11991 0.03326 0.57575 0.0
O66 O 0.11613 0.04459 0.62336 0.0
O67 O 0.11188 0.0709 0.61403 0.0
H68 H 0.08626 0.03007 0.58396 0.0
H69 H 0.05848 0.02153 0.57088 0.0
H70 H 0.07365 0.03754 0.51144 0.0
H71 H 0.10121 0.04617 0.52464 0.0
H72 H 0.18664 0.06076 0.53258 0.0
H73 H 0.16149 0.0611 0.5543 0.0
H74 H 0.21846 0.05505 0.58497 0.0
H75 H 0.19339 0.05578 0.60645 0.0
H76 H 0.10083 0.04871 0.69568 0.0
H77 H 0.11247 0.10021 0.67858 0.0
H78 H 0.11542 0.09127 0.64361 0.0
H79 H 0.10405 0.03979 0.66084 0.0
C80 C 0.47554 0.0954 0.05562 0.0
C81 C 0.4793 0.08221 0.06907 0.0
C82 C 0.48582 0.06328 0.04098 0.0
C83 C 0.48443 0.0663 0.06181 0.0
C84 C 0.48195 0.0766 0.02767 0.0
C85 C 0.47687 0.09243 0.03492 0.0
U86 U 0.45909 0.12739 0.09532 0.0
O87 O 0.46716 0.15377 0.10034 0.0
O88 O 0.44106 0.14846 0.09104 0.0
C89 C 0.45257 0.16013 0.09453 0.0
C90 C 0.47045 0.11242 0.06262 0.0
C91 C 0.45312 0.17459 0.08024 0.0
C92 C 0.46705 0.19128 0.05412 0.0
C93 C 0.46659 0.17698 0.06669 0.0
C94 C 0.4405 0.20089 0.06818 0.0
C95 C 0.45403 0.20349 0.05472 0.0
C96 C 0.44008 0.18666 0.08077 0.0
C97 C 0.44834 0.11042 0.14953 0.0
C98 C 0.42584 0.10783 0.17459 0.0
C99 C 0.45508 0.10823 0.18529 0.0
C100 C 0.46027 0.10991 0.16523 0.0
C101 C 0.4378 0.10686 0.19026 0.0
C102 C 0.43103 0.10955 0.15452 0.0
C103 C 0.45414 0.10939 0.12822 0.0
O104 O 0.45427 0.11453 0.06648 0.0
O105 O 0.48035 0.11966 0.07597 0.0
O106 O 0.46871 0.11651 0.12366 0.0
O107 O 0.4427 0.11118 0.11401 0.0
H108 H 0.47831 0.08422 0.08512 0.0
H109 H 0.48712 0.05633 0.07252 0.0
H110 H 0.48312 0.07489 1.01159 0.0
H111 H 0.47409 0.10246 0.02429 0.0
H112 H 0.47757 0.19271 0.0438 0.0
H113 H 0.47681 0.16785 0.0659 0.0
H114 H 0.43036 0.21007 0.06933 0.0
H115 H 0.42961 0.18518 0.09115 0.0
H116 H 0.41242 0.10705 0.17781 0.0
H117 H 0.4647 0.1073 0.19683 0.0
H118 H 0.47371 0.11019 0.16196 0.0
H119 H 0.42145 0.10967 0.14288 0.0
C120 C 0.41861 0.47605 0.55584 0.0
C121 C 0.4311 0.48246 0.56882 0.0
C122 C 0.45072 0.48588 0.54063 0.0
C123 C 0.44698 0.48737 0.56128 0.0
C124 C 0.43818 0.47928 0.5278 0.0
C125 C 0.42233 0.47445 0.53532 0.0
U126 U 0.38678 0.45989 0.59586 0.0
O127 O 0.36079 0.4688 0.60206 0.0
O128 O 0.36503 0.44276 0.59184 0.0
C129 C 0.35383 0.4545 0.59623 0.0
C130 C 0.40149 0.4714 0.56305 0.0
C131 C 0.33899 0.45587 0.58266 0.0
C132 C 0.32609 0.45544 0.54934 0.0
C133 C 0.34056 0.45501 0.56165 0.0
C134 C 0.30836 0.45791 0.57885 0.0
C135 C 0.30974 0.45672 0.55779 0.0
C136 C 0.32279 0.45748 0.59108 0.0
C137 C 0.40478 0.44749 0.64904 0.0
C138 C 0.39826 0.4517 0.68458 0.0
C139 C 0.41598 0.42824 0.67451 0.0
C140 C 0.41432 0.43315 0.65436 0.0
C141 C 0.40822 0.4376 0.68998 0.0
C142 C 0.39658 0.45661 0.66439 0.0
C143 C 0.40541 0.45371 0.62792 0.0
O144 O 0.39882 0.45522 0.56645 0.0
O145 O 0.39475 0.48126 0.57681 0.0
O146 O 0.39868 0.46858 0.62397 0.0
O147 O 0.40282 0.44254 0.6136 0.0
H148 H 0.42856 0.48375 0.58474 0.0
H149 H 0.45638 0.4922 0.57165 0.0
H150 H 0.44047 0.47815 0.51181 0.0
H151 H 0.41287 0.46961 0.52502 0.0
H152 H 0.3277 0.45436 0.53323 0.0
H153 H 0.35294 0.45376 0.55477 0.0
H154 H 0.29609 0.45923 0.58594 0.0
H155 H 0.32126 0.45823 0.60724 0.0
H156 H 0.39189 0.4591 0.69601 0.0
H157 H 0.42394 0.41746 0.67798 0.0
H158 H 0.42102 0.42603 0.64295 0.0
H159 H 0.38921 0.46779 0.66089 0.0
C160 C 0.03759 0.09533 0.96854 0.0
C161 C 0.03315 0.0823 0.95518 0.0
C162 C 0.02756 0.06316 0.98336 0.0
C163 C 0.02815 0.06638 0.96252 0.0
C164 C 0.03221 0.07626 0.9966 0.0
C165 C 0.03714 0.09214 0.98926 0.0
U166 U 0.05307 0.12722 0.92828 0.0
O167 O 0.04404 0.15323 0.92248 0.0
O168 O 0.07032 0.14895 0.93181 0.0
C169 C 0.05847 0.16017 0.92787 0.0
C170 C 0.0423 0.11244 0.96141 0.0
C171 C 0.05739 0.175 0.94149 0.0
C172 C 0.05922 0.18804 0.97467 0.0
C173 C 0.05949 0.17355 0.9624 0.0
C174 C 0.05444 0.20556 0.94539 0.0
C175 C 0.05686 0.2043 0.96631 0.0
C176 C 0.05472 0.19111 0.93318 0.0
C177 C 0.06336 0.10951 0.87434 0.0
C178 C 0.08521 0.11193 0.84847 0.0
C179 C 0.05714 0.10236 0.83942 0.0
C180 C 0.05198 0.10404 0.85946 0.0
C181 C 0.07391 0.10603 0.83364 0.0
C182 C 0.08001 0.11363 0.86857 0.0
C183 C 0.05807 0.10874 0.8958 0.0
O184 O 0.05841 0.1149 0.95736 0.0
O185 O 0.03216 0.11936 0.94808 0.0
O186 O 0.04335 0.11547 0.90047 0.0
O187 O 0.0697 0.11126 0.90963 0.0
H188 H 0.03346 0.08446 0.93911 0.0
H189 H 0.02487 0.05655 0.95186 0.0
H190 H 0.0317 0.07438 0.01271 0.0
H191 H 0.04045 0.10204 0.99984 0.0
H192 H 0.06126 0.18653 0.99066 0.0
H193 H 0.06156 0.16125 0.96919 0.0
H194 H 0.05226 0.21774 0.93838 0.0
H195 H 0.05299 0.19255 0.91712 0.0
H196 H 0.09815 0.1151 0.8446 0.0
H197 H 0.04811 0.09754 0.82859 0.0
H198 H 0.03916 0.10048 0.86346 0.0
H199 H 0.08918 0.11778 0.87963 0.0
C200 C 0.41866 0.03803 0.469 0.0
C201 C 0.43215 0.03533 0.45563 0.0
C202 C 0.45072 0.02753 0.4836 0.0
C203 C 0.44803 0.03009 0.46286 0.0
C204 C 0.43709 0.03031 0.49684 0.0
C205 C 0.42128 0.0355 0.48961 0.0
U206 U 0.38721 0.0558 0.42955 0.0
O207 O 0.36081 0.04816 0.42379 0.0
O208 O 0.36629 0.07392 0.43425 0.0
C209 C 0.35454 0.06262 0.4302 0.0
C210 C 0.40172 0.04336 0.462 0.0
C211 C 0.33999 0.06179 0.44436 0.0
C212 C 0.32217 0.04673 0.4685 0.0
C213 C 0.33654 0.04733 0.45605 0.0
C214 C 0.3146 0.07508 0.45807 0.0
C215 C 0.31096 0.06059 0.46966 0.0
C216 C 0.3289 0.07564 0.44559 0.0
C217 C 0.40532 0.06828 0.3764 0.0
C218 C 0.39688 0.066 0.3412 0.0
C219 C 0.41832 0.0863 0.35087 0.0
C220 C 0.4167 0.08117 0.37093 0.0
C221 C 0.40862 0.07863 0.33562 0.0
C222 C 0.39525 0.06087 0.36134 0.0
C223 C 0.40578 0.06167 0.39734 0.0
O224 O 0.39971 0.05966 0.45881 0.0
O225 O 0.39461 0.03391 0.44811 0.0
O226 O 0.39835 0.04707 0.40101 0.0
O227 O 0.40384 0.07272 0.41194 0.0
H228 H 0.43041 0.03727 0.43965 0.0
H229 H 0.45824 0.02825 0.45223 0.0
H230 H 0.43854 0.02823 0.51283 0.0
H231 H 0.41102 0.03746 0.50018 0.0
H232 H 0.31992 0.03544 0.47736 0.0
H233 H 0.34487 0.03645 0.45548 0.0
H234 H 0.3062 0.08591 0.4583 0.0
H235 H 0.33118 0.08689 0.43666 0.0
H236 H 0.38902 0.05995 0.32997 0.0
H237 H 0.42767 0.09585 0.34724 0.0
H238 H 0.42481 0.08693 0.38214 0.0
H239 H 0.38641 0.05085 0.365 0.0
C240 C 0.4775 0.41767 0.96912 0.0
C241 C 0.47565 0.43227 0.95727 0.0
C242 C 0.48766 0.44971 0.98415 0.0
C243 C 0.48069 0.44815 0.96471 0.0
C244 C 0.48952 0.43494 0.99583 0.0
C245 C 0.48449 0.41914 0.98839 0.0
U246 U 0.46015 0.38656 0.92908 0.0
O247 O 0.4684 0.36039 0.92273 0.0
O248 O 0.44254 0.36519 0.93323 0.0
C249 C 0.45398 0.35373 0.92866 0.0
C250 C 0.47226 0.40077 0.96188 0.0
C251 C 0.45512 0.33885 0.94218 0.0
C252 C 0.45644 0.32606 0.97554 0.0
C253 C 0.45605 0.34052 0.96318 0.0
C254 C 0.45522 0.30816 0.94608 0.0
C255 C 0.45587 0.30965 0.96716 0.0
C256 C 0.45484 0.32257 0.93379 0.0
C257 C 0.4482 0.40464 0.87578 0.0
C258 C 0.42588 0.41046 0.85128 0.0
C259 C 0.45429 0.40454 0.83976 0.0
C260 C 0.45962 0.40255 0.85973 0.0
C261 C 0.43741 0.40884 0.83523 0.0
C262 C 0.43121 0.40845 0.87125 0.0
C263 C 0.4544 0.4053 0.89696 0.0
O264 O 0.456 0.39869 0.95847 0.0
O265 O 0.48186 0.3939 0.94798 0.0
O266 O 0.46912 0.39827 0.90093 0.0
O267 O 0.44323 0.40304 0.9114 0.0
H268 H 0.47025 0.4314 0.94234 0.0
H269 H 0.47891 0.45922 0.95534 0.0
H270 H 0.49509 0.43553 1.01068 0.0
H271 H 0.4861 0.40801 0.99773 0.0
H272 H 0.4568 0.32776 0.99168 0.0
H273 H 0.45629 0.35297 0.97 0.0
H274 H 0.45508 0.29581 0.939 0.0
H275 H 0.4542 0.32097 0.91764 0.0
H276 H 0.41273 0.41352 0.84844 0.0
H277 H 0.46362 0.40341 0.8279 0.0
H278 H 0.47287 0.39996 0.86259 0.0
H279 H 0.42208 0.41041 0.88317 0.0
C280 C 0.09456 0.47633 0.46707 0.0
C281 C 0.08655 0.49074 0.45904 0.0
C282 C 0.06272 0.48732 0.48219 0.0
C283 C 0.07082 0.49614 0.46649 0.0
C284 C 0.07066 0.47275 0.48995 0.0
C285 C 0.08637 0.46738 0.48254 0.0
U286 U 0.12756 0.45888 0.42895 0.0
O287 O 0.15404 0.46669 0.42413 0.0
O288 O 0.14846 0.44086 0.43434 0.0
C289 C 0.16024 0.45221 0.43062 0.0
C290 C 0.11187 0.47111 0.46072 0.0
C291 C 0.17458 0.45301 0.44508 0.0
C292 C 0.19212 0.46803 0.46949 0.0
C293 C 0.17785 0.46742 0.45689 0.0
C294 C 0.19993 0.43978 0.45896 0.0
C295 C 0.20342 0.45423 0.47066 0.0
C296 C 0.18574 0.43921 0.44634 0.0
C297 C 0.11078 0.44652 0.37508 0.0
C298 C 0.11755 0.45044 0.33955 0.0
C299 C 0.09974 0.42705 0.34976 0.0
C300 C 0.10128 0.43212 0.36985 0.0
C301 C 0.10759 0.4363 0.33424 0.0
C302 C 0.11909 0.45551 0.3597 0.0
C303 C 0.10986 0.45302 0.39607 0.0
O304 O 0.11428 0.45483 0.45773 0.0
O305 O 0.11965 0.48065 0.44738 0.0
O306 O 0.11709 0.46766 0.40007 0.0
O307 O 0.11151 0.44194 0.41069 0.0
H308 H 0.09253 0.49806 0.44724 0.0
H309 H 0.06525 0.50753 0.46027 0.0
H310 H 0.06473 0.46544 0.5018 0.0
H311 H 0.09226 0.45631 0.48915 0.0
H312 H 0.19424 0.47929 0.47843 0.0
H313 H 0.16947 0.47826 0.45628 0.0
H314 H 0.2084 0.429 0.45918 0.0
H315 H 0.1836 0.428 0.4373 0.0
H316 H 0.12399 0.45776 0.3281 0.0
H317 H 0.09177 0.41626 0.34635 0.0
H318 H 0.09447 0.4251 0.38128 0.0
H319 H 0.12642 0.46675 0.36311 0.0
C320 C 0.97521 0.59645 0.96909 0.0
C321 C 0.98067 0.5837 0.95589 0.0
C322 C 0.98593 0.5646 0.9842 0.0
C323 C 0.98598 0.56793 0.96337 0.0
C324 C 0.98015 0.57739 0.99726 0.0
C325 C 0.97488 0.5931 0.98978 0.0
U326 U 0.95902 0.62802 0.92885 0.0
O327 O 0.94139 0.64943 0.93255 0.0
O328 O 0.96753 0.65418 0.92299 0.0
C329 C 0.95298 0.66087 0.92836 0.0
C330 C 0.97024 0.61346 0.96189 0.0
C331 C 0.95379 0.67569 0.94195 0.0
C332 C 0.95917 0.68861 0.97463 0.0
C333 C 0.9588 0.67424 0.96214 0.0
C334 C 0.94963 0.70598 0.94689 0.0
C335 C 0.95448 0.70469 0.9672 0.0
C336 C 0.94929 0.69167 0.93447 0.0
C337 C 0.94805 0.61021 0.87515 0.0
C338 C 0.95465 0.61233 0.83935 0.0
C339 C 0.92699 0.6026 0.84978 0.0
C340 C 0.93173 0.60453 0.86996 0.0
C341 C 0.93849 0.60615 0.83416 0.0
C342 C 0.95938 0.61429 0.85954 0.0
C343 C 0.95382 0.60946 0.89648 0.0
O344 O 0.9802 0.62049 0.9484 0.0
O345 O 0.95408 0.61571 0.95805 0.0
O346 O 0.94236 0.61173 0.91057 0.0
O347 O 0.9685 0.61639 0.90093 0.0
H348 H 0.98103 0.586 0.93984 0.0
H349 H 0.99047 0.55848 0.95285 0.0
H350 H 0.97961 0.57524 0.01332 0.0
H351 H 0.97064 0.60273 1.00023 0.0
H352 H 0.96283 0.68706 0.9902 0.0
H353 H 0.96231 0.66202 0.96824 0.0
H354 H 0.94623 0.71811 0.94048 0.0
H355 H 0.94547 0.6931 0.91893 0.0
H356 H 0.96379 0.61543 0.82778 0.0
H357 H 0.91452 0.59761 0.84646 0.0
H358 H 0.92277 0.60094 0.88155 0.0
H359 H 0.97213 0.6185 0.86287 0.0
C360 C 0.91893 0.97949 0.46736 0.0
C361 C 0.93394 0.97269 0.45939 0.0
C362 C 0.95089 0.99032 0.48199 0.0
C363 C 0.94977 0.97802 0.46669 0.0
C364 C 0.93577 0.99714 0.48974 0.0
C365 C 0.92001 0.99177 0.48252 0.0
U366 U 0.88724 0.96162 0.42819 0.0
O367 O 0.86605 0.94388 0.43281 0.0
O368 O 0.86092 0.96974 0.42244 0.0
C369 C 0.85445 0.95533 0.4287 0.0
C370 C 0.902 0.97386 0.46057 0.0
C371 C 0.83981 0.9565 0.44266 0.0
C372 C 0.82673 0.95255 0.47558 0.0
C373 C 0.8411 0.95217 0.46311 0.0
C374 C 0.80967 0.9619 0.44752 0.0
C375 C 0.81077 0.95734 0.46794 0.0
C376 C 0.82399 0.96146 0.43508 0.0
C377 C 0.90464 0.95049 0.37424 0.0
C378 C 0.91016 0.92858 0.34911 0.0
C379 C 0.90496 0.95736 0.33842 0.0
C380 C 0.90288 0.96229 0.35851 0.0
C381 C 0.90899 0.94051 0.33344 0.0
C382 C 0.9081 0.93351 0.36923 0.0
C383 C 0.90546 0.95634 0.39554 0.0
O384 O 0.89458 0.98341 0.447 0.0
O385 O 0.90006 0.95757 0.45717 0.0
O386 O 0.90347 0.94497 0.40981 0.0
O387 O 0.89838 0.97096 0.39991 0.0
H388 H 0.93343 0.96325 0.44761 0.0
H389 H 0.96113 0.97263 0.4602 0.0
H390 H 0.93608 1.00643 0.5017 0.0
H391 H 0.9086 0.99714 0.48894 0.0
H392 H 0.82816 0.94916 0.49126 0.0
H393 H 0.85315 0.94836 0.46941 0.0
H394 H 0.79763 0.96543 0.44096 0.0
H395 H 0.82264 0.96478 0.41935 0.0
H396 H 0.91342 0.91553 0.34594 0.0
H397 H 0.90371 0.96688 0.32679 0.0
H398 H 0.90047 0.97552 0.36173 0.0
H399 H 0.90988 0.92412 0.3809 0.0
C400 C 0.53753 0.91938 0.96769 0.0
C401 C 0.5252 0.92894 0.95747 0.0
C402 C 0.52683 0.95125 0.98286 0.0
C403 C 0.5199 0.94466 0.96499 0.0
C404 C 0.5394 0.9418 0.99281 0.0
C405 C 0.54462 0.92605 0.98534 0.0
U406 U 0.55393 0.88647 0.92893 0.0
O407 O 0.57109 0.86486 0.93369 0.0
O408 O 0.54506 0.86032 0.92358 0.0
C409 C 0.55935 0.85353 0.92971 0.0
C410 C 0.5424 0.90206 0.96111 0.0
C411 C 0.55792 0.83896 0.94373 0.0
C412 C 0.56075 0.82618 0.97697 0.0
C413 C 0.5613 0.84048 0.96439 0.0
C414 C 0.55314 0.8087 0.94852 0.0
C415 C 0.55676 0.81004 0.96918 0.0
C416 C 0.55373 0.82297 0.93599 0.0
C417 C 0.56577 0.90327 0.87487 0.0
C418 C 0.55942 0.90098 0.83903 0.0
C419 C 0.58703 0.91069 0.84963 0.0
C420 C 0.58215 0.90886 0.86979 0.0
C421 C 0.57562 0.90713 0.83394 0.0
C422 C 0.55454 0.89913 0.8592 0.0
C423 C 0.55981 0.90432 0.89612 0.0
O424 O 0.53257 0.89462 0.94783 0.0
O425 O 0.5586 0.89942 0.95781 0.0
O426 O 0.5711 0.90209 0.91041 0.0
O427 O 0.54499 0.89766 0.9005 0.0
H428 H 0.51947 0.92419 0.9438 0.0
H429 H 0.51037 0.95168 0.95677 0.0
H430 H 0.54489 0.94633 1.00671 0.0
H431 H 0.55403 0.9189 0.99362 0.0
H432 H 0.5634 0.82778 0.99281 0.0
H433 H 0.5645 0.85268 0.97079 0.0
H434 H 0.55025 0.79653 0.94186 0.0
H435 H 0.55116 0.82144 0.9201 0.0
H436 H 0.55034 0.89787 0.82741 0.0
H437 H 0.59953 0.91564 0.84639 0.0
H438 H 0.59103 0.9125 0.88142 0.0
H439 H 0.54176 0.89498 0.86245 0.0
C440 C 0.59573 0.53473 0.46777 0.0
C441 C 0.58075 0.54195 0.46028 0.0
C442 C 0.56376 0.52394 0.48244 0.0
C443 C 0.56492 0.53664 0.46759 0.0
C444 C 0.57885 0.51668 0.48969 0.0
C445 C 0.59462 0.52203 0.48245 0.0
U446 U 0.62724 0.55346 0.42895 0.0
O447 O 0.64839 0.57115 0.43398 0.0
O448 O 0.65356 0.54559 0.4227 0.0
C449 C 0.66001 0.55989 0.42932 0.0
C450 C 0.61268 0.5404 0.46103 0.0
C451 C 0.67476 0.55849 0.44305 0.0
C452 C 0.68776 0.56054 0.47624 0.0
C453 C 0.67332 0.56102 0.46389 0.0
C454 C 0.7052 0.55468 0.44718 0.0
C455 C 0.70396 0.55752 0.46803 0.0
C456 C 0.6908 0.55518 0.43489 0.0
C457 C 0.60942 0.56638 0.37581 0.0
C458 C 0.59964 0.58727 0.35133 0.0
C459 C 0.61373 0.5619 0.33983 0.0
C460 C 0.61567 0.55653 0.35982 0.0
C461 C 0.60538 0.57719 0.33526 0.0
C462 C 0.60158 0.58191 0.37129 0.0
C463 C 0.60877 0.55971 0.39677 0.0
O464 O 0.61994 0.53118 0.44704 0.0
O465 O 0.61471 0.55676 0.45824 0.0
O466 O 0.6108 0.57063 0.4115 0.0
O467 O 0.61595 0.545 0.4004 0.0
H468 H 0.58128 0.55173 0.44887 0.0
H469 H 0.55358 0.54238 0.46148 0.0
H470 H 0.57851 0.50706 0.5013 0.0
H471 H 0.60601 0.51633 0.4885 0.0
H472 H 0.68626 0.56293 0.49215 0.0
H473 H 0.66109 0.5636 0.47059 0.0
H474 H 0.71733 0.55199 0.44029 0.0
H475 H 0.69224 0.55314 0.41888 0.0
H476 H 0.59338 0.59924 0.3485 0.0
H477 H 0.61817 0.55368 0.32792 0.0
H478 H 0.62156 0.54438 0.36264 0.0
H479 H 0.59641 0.58971 0.38319 0.0
C480 C 0.97807 0.91783 0.05514 0.0
C481 C 0.9736 0.93278 0.06525 0.0
C482 C 0.98856 0.94978 0.0401 0.0
C483 C 0.97879 0.94861 0.0578 0.0
C484 C 0.99315 0.93468 0.03025 0.0
C485 C 0.98795 0.91893 0.03768 0.0
U486 U 0.96036 0.88657 0.09488 0.0
O487 O 0.94191 0.86585 0.09073 0.0
O488 O 0.96781 0.86009 0.10042 0.0
C489 C 0.95308 0.85398 0.09471 0.0
C490 C 0.97241 0.90097 0.06213 0.0
C491 C 0.95346 0.83933 0.08078 0.0
C492 C 0.9646 0.82443 0.0515 0.0
C493 C 0.9643 0.83877 0.06404 0.0
C494 C 0.94314 0.81116 0.07215 0.0
C495 C 0.95401 0.8104 0.05538 0.0
C496 C 0.94289 0.82542 0.08465 0.0
C497 C 0.94981 0.90429 0.14878 0.0
C498 C 0.95651 0.90325 0.18462 0.0
C499 C 0.92835 0.91118 0.17399 0.0
C500 C 0.93319 0.90913 0.15384 0.0
C501 C 0.94004 0.90861 0.18967 0.0
C502 C 0.96134 0.90117 0.16449 0.0
C503 C 0.95569 0.905 0.12748 0.0
O504 O 0.98202 0.89353 0.07562 0.0
O505 O 0.95614 0.8993 0.06586 0.0
O506 O 0.94423 0.9033 0.11327 0.0
O507 O 0.97011 0.89755 0.12304 0.0
H508 H 0.96597 0.93222 0.07877 0.0
H509 H 0.97489 0.95993 0.06571 0.0
H510 H 1.00091 0.93499 0.01683 0.0
H511 H 0.99161 0.90754 0.0297 0.0
H512 H 0.973 0.82443 0.03864 0.0
H513 H 0.97255 0.84937 0.0607 0.0
H514 H 0.93499 0.80057 0.07586 0.0
H515 H 0.93447 0.82553 0.09752 0.0
H516 H 0.96581 0.90091 0.19625 0.0
H517 H 0.91563 0.91551 0.1772 0.0
H518 H 0.92405 0.91198 0.14219 0.0
H519 H 0.97431 0.89766 0.16124 0.0
C520 C 0.59476 0.97497 0.55554 0.0
C521 C 0.58489 0.98652 0.56657 0.0
C522 C 0.56287 0.98593 0.54074 0.0
C523 C 0.56915 0.99196 0.55922 0.0
C524 C 0.57267 0.97413 0.52997 0.0
C525 C 0.58842 0.96877 0.53726 0.0
U526 U 0.62752 0.95862 0.59446 0.0
O527 O 0.64857 0.9406 0.58995 0.0
O528 O 0.65392 0.96673 0.59914 0.0
C529 C 0.66025 0.95212 0.59335 0.0
C530 C 0.61199 0.96985 0.56208 0.0
C531 C 0.67465 0.95268 0.579 0.0
C532 C 0.6908 0.9663 0.55218 0.0
C533 C 0.67648 0.9657 0.56473 0.0
C534 C 0.7015 0.94075 0.5677 0.0
C535 C 0.70357 0.95386 0.55355 0.0
C536 C 0.68725 0.94019 0.58025 0.0
C537 C 0.61079 0.94834 0.64902 0.0
C538 C 0.60641 0.92644 0.67452 0.0
C539 C 0.60952 0.95566 0.68467 0.0
C540 C 0.61154 0.96044 0.66451 0.0
C541 C 0.60654 0.93864 0.68995 0.0
C542 C 0.60842 0.93123 0.65434 0.0
C543 C 0.60979 0.9539 0.62762 0.0
O544 O 0.61974 0.97978 0.57501 0.0
O545 O 0.61424 0.95366 0.56587 0.0
O546 O 0.61155 0.94231 0.61358 0.0
O547 O 0.61689 0.96843 0.62281 0.0
H548 H 0.5894 0.9915 0.58076 0.0
H549 H 0.56187 1.00088 0.56806 0.0
H550 H 0.56838 0.96935 0.51559 0.0
H551 H 0.59581 0.95995 0.52841 0.0
H552 H 0.6918 0.97647 0.54132 0.0
H553 H 0.66693 0.97548 0.56339 0.0
H554 H 0.7111 0.93108 0.56946 0.0
H555 H 0.68619 0.93008 0.59119 0.0
H556 H 0.60397 0.91324 0.67792 0.0
H557 H 0.60996 0.9654 0.69611 0.0
H558 H 0.61309 0.97375 0.66103 0.0
H559 H 0.60744 0.92156 0.64286 0.0
C560 C 0.53866 0.59454 0.05553 0.0
C561 C 0.53125 0.58264 0.06856 0.0
C562 C 0.52798 0.56254 0.04086 0.0
C563 C 0.52593 0.56681 0.06128 0.0
C564 C 0.5356 0.57448 0.02798 0.0
C565 C 0.54085 0.59027 0.03525 0.0
U566 U 0.55544 0.62659 0.09495 0.0
O567 O 0.57343 0.64769 0.09051 0.0
O568 O 0.54744 0.65294 0.10027 0.0
C569 C 0.562 0.65934 0.09438 0.0
C570 C 0.54376 0.61164 0.06241 0.0
C571 C 0.56131 0.67392 0.08031 0.0
C572 C 0.54822 0.68967 0.05284 0.0
C573 C 0.54887 0.67529 0.0653 0.0
C574 C 0.57256 0.70135 0.07001 0.0
C575 C 0.56004 0.70295 0.05506 0.0
C576 C 0.57316 0.68704 0.08245 0.0
C577 C 0.56701 0.60928 0.14877 0.0
C578 C 0.56111 0.61163 0.18474 0.0
C579 C 0.58853 0.60181 0.17363 0.0
C580 C 0.58341 0.60362 0.15357 0.0
C581 C 0.57735 0.60547 0.18953 0.0
C582 C 0.55598 0.61344 0.16465 0.0
C583 C 0.56084 0.60841 0.1276 0.0
O584 O 0.53399 0.61893 0.07588 0.0
O585 O 0.55998 0.61387 0.06593 0.0
O586 O 0.5721 0.61031 0.11321 0.0
O587 O 0.54621 0.61554 0.12336 0.0
H588 H 0.52949 0.5856 0.08432 0.0
H589 H 0.52031 0.55788 0.07169 0.0
H590 H 0.53721 0.57177 0.01215 0.0
H591 H 0.54646 0.59927 0.02491 0.0
H592 H 0.53852 0.69031 0.04136 0.0
H593 H 0.5396 0.66531 0.06327 0.0
H594 H 0.58172 0.71135 0.07243 0.0
H595 H 0.58283 0.68632 0.09398 0.0
H596 H 0.55205 0.6144 0.1965 0.0
H597 H 0.60122 0.59727 0.17666 0.0
H598 H 0.59218 0.60005 0.14178 0.0
H599 H 0.54314 0.61753 0.16162 0.0
C600 C 0.91866 0.53942 0.55469 0.0
C601 C 0.93102 0.533 0.56783 0.0
C602 C 0.95049 0.52855 0.53969 0.0
C603 C 0.94678 0.52762 0.5604 0.0
C604 C 0.93811 0.53529 0.52673 0.0
C605 C 0.92241 0.54063 0.53415 0.0
U606 U 0.88673 0.55542 0.59469 0.0
O607 O 0.86551 0.57334 0.5908 0.0
O608 O 0.86046 0.54713 0.59992 0.0
C609 C 0.85395 0.56175 0.59442 0.0
C610 C 0.90163 0.54445 0.56176 0.0
C611 C 0.83936 0.56115 0.58038 0.0
C612 C 0.82393 0.54856 0.55233 0.0
C613 C 0.83833 0.54924 0.56472 0.0
C614 C 0.81153 0.57181 0.57084 0.0
C615 C 0.81023 0.55976 0.55532 0.0
C616 C 0.82589 0.57247 0.58319 0.0
C617 C 0.90405 0.56551 0.64893 0.0
C618 C 0.90844 0.5873 0.67452 0.0
C619 C 0.90536 0.55803 0.68454 0.0
C620 C 0.90333 0.55334 0.66436 0.0
C621 C 0.9083 0.57504 0.6899 0.0
C622 C 0.90643 0.5826 0.65432 0.0
C623 C 0.90492 0.56006 0.62748 0.0
O624 O 0.89435 0.5344 0.57496 0.0
O625 O 0.89948 0.56059 0.56581 0.0
O626 O 0.90291 0.57171 0.61354 0.0
O627 O 0.89787 0.54551 0.6227 0.0
H628 H 0.92842 0.53195 0.58377 0.0
H629 H 0.95591 0.52239 0.57083 0.0
H630 H 0.94057 0.53653 0.51078 0.0
H631 H 0.9131 0.54561 0.52376 0.0
H632 H 0.82338 0.539 0.54069 0.0
H633 H 0.84856 0.54035 0.56222 0.0
H634 H 0.80147 0.58087 0.57342 0.0
H635 H 0.82641 0.5818 0.59511 0.0
H636 H 0.91086 0.60048 0.67798 0.0
H637 H 0.90491 0.54824 0.69593 0.0
H638 H 0.90178 0.54004 0.66082 0.0
H639 H 0.90739 0.59231 0.64288 0.0
H640 H 0.10022 0.43158 0.20267 0.0
H641 H 0.06838 0.39087 0.224 0.0
H642 H 0.10842 0.438 0.23711 0.0
H643 H 0.07611 0.39771 0.25856 0.0
H644 H 0.10538 0.40448 0.31739 0.0
H645 H 0.09908 0.39705 0.28261 0.0
H646 H 0.0967 0.45014 0.26726 0.0
H647 H 0.10294 0.45757 0.30198 0.0
C648 C 0.09505 0.42388 0.21467 0.0
C649 C 0.08363 0.41065 0.21041 0.0
C650 C 0.0996 0.42773 0.23451 0.0
C651 C 0.0929 0.41845 0.25075 0.0
C652 C 0.08167 0.40506 0.24649 0.0
C653 C 0.07708 0.40124 0.22663 0.0
C654 C 0.10346 0.4146 0.30663 0.0
C655 C 0.10469 0.43166 0.31265 0.0
C656 C 0.09982 0.41032 0.28663 0.0
C657 C 0.09732 0.42296 0.27201 0.0
C658 C 0.0988 0.44002 0.27795 0.0
C659 C 0.10242 0.4443 0.29795 0.0
H660 H 0.11457 0.05901 0.72539 0.0
H661 H 0.09022 0.10417 0.70291 0.0
H662 H 0.10729 0.06717 0.75963 0.0
H663 H 0.08355 0.11268 0.73721 0.0
H664 H 0.05649 0.1119 0.79849 0.0
H665 H 0.065 0.10504 0.76427 0.0
H666 H 0.11313 0.08684 0.78625 0.0
H667 H 0.10432 0.09305 0.82058 0.0
C668 C 0.10773 0.07073 0.72772 0.0
C669 C 0.10295 0.08086 0.71124 0.0
C670 C 0.10371 0.07553 0.74744 0.0
C671 C 0.09476 0.09061 0.75133 0.0
C672 C 0.09025 0.10089 0.73487 0.0
C673 C 0.09429 0.09609 0.71515 0.0
C674 C 0.06887 0.10637 0.79608 0.0
C675 C 0.07965 0.10299 0.81245 0.0
C676 C 0.07385 0.1026 0.77635 0.0
C677 C 0.08978 0.09532 0.77235 0.0
C678 C 0.10069 0.09222 0.78869 0.0
C679 C 0.09571 0.09601 0.80842 0.0
H680 H 0.41489 0.11017 0.3195 0.0
H681 H 0.40881 0.05772 0.30256 0.0
H682 H 0.42109 0.11746 0.28465 0.0
H683 H 0.41494 0.06503 0.26773 0.0
H684 H 0.41257 0.08572 0.20382 0.0
H685 H 0.4044 0.07963 0.23841 0.0
H686 H 0.44305 0.11392 0.25969 0.0
H687 H 0.45081 0.12048 0.22507 0.0
C688 C 0.41491 0.10016 0.30839 0.0
C689 C 0.41137 0.08331 0.314 0.0
C690 C 0.41849 0.10435 0.28834 0.0
C691 C 0.41861 0.09185 0.27326 0.0
C692 C 0.41475 0.07506 0.27881 0.0
C693 C 0.4112 0.07086 0.29886 0.0
C694 C 0.41917 0.09218 0.21584 0.0
C695 C 0.43237 0.10363 0.21152 0.0
C696 C 0.41461 0.08851 0.23575 0.0
C697 C 0.42308 0.0962 0.25197 0.0
C698 C 0.43611 0.10785 0.24766 0.0
C699 C 0.4407 0.11148 0.22774 0.0
H700 H 0.44696 0.39228 0.80059 0.0
H701 H 0.41583 0.43361 0.82157 0.0
H702 H 0.43937 0.39909 0.76598 0.0
H703 H 0.40772 0.43998 0.78707 0.0
H704 H 0.41316 0.45903 0.722 0.0
H705 H 0.41941 0.45176 0.75678 0.0
H706 H 0.41651 0.39859 0.74194 0.0
H707 H 0.41023 0.40587 0.70711 0.0
C708 C 0.43845 0.40279 0.79787 0.0
C709 C 0.43206 0.41238 0.81401 0.0
C710 C 0.43393 0.40658 0.77798 0.0
C711 C 0.42291 0.42012 0.7736 0.0
C712 C 0.41638 0.42959 0.78976 0.0
C713 C 0.42087 0.42578 0.80964 0.0
C714 C 0.41358 0.44577 0.72616 0.0
C715 C 0.41117 0.43307 0.71159 0.0
C716 C 0.41721 0.44158 0.74619 0.0
C717 C 0.41853 0.42455 0.7523 0.0
C718 C 0.41589 0.41184 0.7378 0.0
C719 C 0.41226 0.41603 0.71776 0.0
H720 H 0.95865 0.59247 0.80474 0.0
H721 H 0.90804 0.61136 0.81484 0.0
H722 H 0.95121 0.58561 0.77019 0.0
H723 H 0.90042 0.60394 0.78037 0.0
H724 H 0.89793 0.6033 0.71093 0.0
H725 H 0.90525 0.61141 0.74529 0.0
H726 H 0.93436 0.56545 0.75177 0.0
H727 H 0.92756 0.55766 0.71733 0.0
C728 C 0.94595 0.5953 0.79958 0.0
C729 C 0.93398 0.60253 0.8127 0.0
C730 C 0.94161 0.59114 0.77977 0.0
C731 C 0.92516 0.59409 0.77241 0.0
C732 C 0.91324 0.60157 0.78541 0.0
C733 C 0.91758 0.60568 0.80528 0.0
C734 C 0.90597 0.59496 0.71964 0.0
C735 C 0.91211 0.57979 0.71124 0.0
C736 C 0.91004 0.59955 0.73945 0.0
C737 C 0.92047 0.58914 0.75139 0.0
C738 C 0.9265 0.57392 0.74301 0.0
C739 C 0.92238 0.56932 0.72328 0.0
H740 H 0.95945 0.92409 0.21852 0.0
H741 H 0.90999 0.90205 0.20934 0.0
H742 H 0.95178 0.93115 0.25294 0.0
H743 H 0.90211 0.90965 0.2437 0.0
H744 H 0.90021 0.91127 0.31326 0.0
H745 H 0.90769 0.90304 0.27898 0.0
H746 H 0.93379 0.95064 0.27094 0.0
H747 H 0.92682 0.9586 0.30529 0.0
C748 C 0.94696 0.92062 0.22386 0.0
C749 C 0.93538 0.91243 0.21104 0.0
C750 C 0.94247 0.92489 0.24359 0.0
C751 C 0.92626 0.9211 0.25117 0.0
C752 C 0.91474 0.91268 0.23847 0.0
C753 C 0.91921 0.90846 0.21867 0.0
C754 C 0.90761 0.91995 0.30422 0.0
C755 C 0.91287 0.93563 0.31215 0.0
C756 C 0.91178 0.91529 0.28446 0.0
C757 C 0.92142 0.92613 0.27211 0.0
C758 C 0.92655 0.94185 0.28002 0.0
C759 C 0.92233 0.94653 0.2997 0.0
H760 H 0.6168 0.91028 0.71092 0.0
H761 H 0.58721 0.95594 0.71737 0.0
H762 H 0.60932 0.90204 0.74522 0.0
H763 H 0.58024 0.94801 0.75173 0.0
H764 H 0.55563 0.92084 0.80438 0.0
H765 H 0.56325 0.92777 0.7699 0.0
H766 H 0.61397 0.90939 0.7804 0.0
H767 H 0.60616 0.90189 0.81481 0.0
C768 C 0.60874 0.91859 0.71963 0.0
C769 C 0.60266 0.93381 0.71126 0.0
C770 C 0.60457 0.91393 0.7394 0.0
C771 C 0.5941 0.92431 0.75132 0.0
C772 C 0.58814 0.93957 0.74298 0.0
C773 C 0.59235 0.94424 0.72329 0.0
C774 C 0.56834 0.91801 0.79931 0.0
C775 C 0.58024 0.91074 0.8125 0.0
C776 C 0.5728 0.92221 0.77954 0.0
C777 C 0.58929 0.91928 0.77229 0.0
C778 C 0.60113 0.91175 0.78535 0.0
C779 C 0.59668 0.90759 0.80519 0.0
H780 H 0.62616 0.57381 0.30221 0.0
H781 H 0.57669 0.59184 0.3197 0.0
H782 H 0.62008 0.58124 0.26734 0.0
H783 H 0.57061 0.59923 0.28493 0.0
H784 H 0.5702 0.62447 0.22321 0.0
H785 H 0.5775 0.61837 0.2581 0.0
H786 H 0.60292 0.57261 0.23934 0.0
H787 H 0.59567 0.57872 0.20453 0.0
C788 C 0.61396 0.57929 0.29865 0.0
C789 C 0.60196 0.58223 0.31391 0.0
C790 C 0.61045 0.58355 0.27859 0.0
C791 C 0.59482 0.59086 0.27318 0.0
C792 C 0.58289 0.59391 0.28848 0.0
C793 C 0.5864 0.58966 0.3085 0.0
C794 C 0.5773 0.61307 0.22651 0.0
C795 C 0.58233 0.60213 0.21092 0.0
C796 C 0.58149 0.60955 0.24658 0.0
C797 C 0.59082 0.59496 0.25168 0.0
C798 C 0.59599 0.58412 0.23606 0.0
C799 C 0.59181 0.58764 0.21601 0.0
H800 H 0.08425 0.29856 0.02754 0.0
H801 H 0.03349 0.28822 0.04835 0.0
H802 H 0.08364 0.27282 1.0074 0.0
H803 H 0.03265 0.26273 0.02761 0.0
H804 H 0.04363 0.2089 1.0043 0.0
H805 H 0.04432 0.23443 0.02502 0.0
H806 H 0.07101 0.2609 0.97785 0.0
H807 H 0.0709 0.23529 0.95752 0.0
C808 C 0.07293 0.29081 0.02785 0.0
C809 C 0.05893 0.29556 0.03968 0.0
C810 C 0.07251 0.27609 0.01608 0.0
C811 C 0.05808 0.26559 0.01578 0.0
C812 C 0.04405 0.27035 0.02758 0.0
C813 C 0.04446 0.28512 0.03931 0.0
C814 C 0.04979 0.22011 0.99841 0.0
C815 C 0.05718 0.21993 0.97914 0.0
C816 C 0.05001 0.23485 1.01023 0.0
C817 C 0.0577 0.24983 1.00318 0.0
C818 C 0.06513 0.24961 0.98394 0.0
C819 C 0.06487 0.23492 0.97213 0.0
H820 H 0.28908 0.03389 0.47585 0.0
H821 H 0.29754 0.08594 0.49304 0.0
H822 H 0.26368 0.03311 0.49679 0.0
H823 H 0.2719 0.08534 0.51338 0.0
H824 H 0.23519 0.07352 0.56449 0.0
H825 H 0.26066 0.07362 0.54391 0.0
H826 H 0.23493 0.04391 0.49881 0.0
H827 H 0.20955 0.04326 0.51981 0.0
C828 C 0.28558 0.04516 0.48414 0.0
C829 C 0.29546 0.05998 0.48269 0.0
C830 C 0.27086 0.04478 0.49598 0.0
C831 C 0.26562 0.05917 0.50683 0.0
C832 C 0.27556 0.07394 0.50545 0.0
C833 C 0.29022 0.07435 0.49357 0.0
C834 C 0.23496 0.06684 0.55029 0.0
C835 C 0.22022 0.05831 0.54394 0.0
C836 C 0.24957 0.06707 0.53833 0.0
C837 C 0.24996 0.0588 0.5196 0.0
C838 C 0.23522 0.05028 0.51321 0.0
C839 C 0.22056 0.05008 0.52518 0.0
H840 H 0.43752 0.28041 0.96193 0.0
H841 H 0.47373 0.30356 1.00205 0.0
H842 H 0.43758 0.2549 0.98247 0.0
H843 H 0.4733 0.27819 0.02309 0.0
H844 H 0.48148 0.22336 0.04478 0.0
H845 H 0.48209 0.24872 0.02374 0.0
H846 H 0.42814 0.2444 0.01442 0.0
H847 H 0.42764 0.21879 0.03483 0.0
C848 C 0.44555 0.28008 0.97512 0.0
C849 C 0.45568 0.29413 0.9802 0.0
C850 C 0.44542 0.26546 0.98708 0.0
C851 C 0.45542 0.26438 1.00454 0.0
C852 C 0.46556 0.27843 1.00966 0.0
C853 C 0.46565 0.2931 0.9977 0.0
C854 C 0.46978 0.2277 0.03806 0.0
C855 C 0.45452 0.21893 0.04157 0.0
C856 C 0.47009 0.2424 0.02617 0.0
C857 C 0.45516 0.24872 0.01733 0.0
C858 C 0.43993 0.23988 0.02076 0.0
C859 C 0.43961 0.22524 0.03269 0.0
H860 H 0.27935 0.44097 0.56527 0.0
H861 H 0.30466 0.47189 0.52091 0.0
H862 H 0.25381 0.44094 0.54482 0.0
H863 H 0.27923 0.47131 0.50002 0.0
H864 H 0.22505 0.48107 0.47719 0.0
H865 H 0.25042 0.48188 0.49816 0.0
H866 H 0.24259 0.42945 0.51422 0.0
H867 H 0.21697 0.42882 0.49387 0.0
C868 C 0.27949 0.44782 0.55117 0.0
C869 C 0.29416 0.4565 0.54487 0.0
C870 C 0.26485 0.44762 0.53927 0.0
C871 C 0.26436 0.45609 0.52066 0.0
C872 C 0.27902 0.46479 0.51433 0.0
C873 C 0.29371 0.46495 0.52623 0.0
C874 C 0.22862 0.46976 0.48537 0.0
C875 C 0.21886 0.45488 0.48377 0.0
C876 C 0.24333 0.47017 0.49723 0.0
C877 C 0.24868 0.45573 0.50793 0.0
C878 C 0.23885 0.44089 0.50641 0.0
C879 C 0.2242 0.44047 0.49452 0.0
H880 H 0.98144 0.79473 0.03775 0.0
H881 H 0.92705 0.79104 0.04297 0.0
H882 H 0.98166 0.76945 0.0166 0.0
H883 H 0.92734 0.76549 0.02251 0.0
H884 H 0.93137 0.73066 0.96807 0.0
H885 H 0.93166 0.75611 0.98867 0.0
H886 H 0.97747 0.73898 0.01767 0.0
H887 H 0.97753 0.71372 0.99645 0.0
C888 C 0.96951 0.78859 0.03436 0.0
C889 C 0.95423 0.79502 0.04215 0.0
C890 C 0.96966 0.77393 0.02241 0.0
C891 C 0.95452 0.76531 0.0178 0.0
C892 C 0.93925 0.77182 0.02551 0.0
C893 C 0.9391 0.78642 0.03748 0.0
C894 C 0.94163 0.73235 0.97869 0.0
C895 C 0.95447 0.72007 0.98045 0.0
C896 C 0.94168 0.74691 0.99072 0.0
C897 C 0.95458 0.7497 1.00494 0.0
C898 C 0.96742 0.73741 1.00677 0.0
C899 C 0.96734 0.72278 0.99474 0.0
H900 H 0.72205 0.9819 0.54227 0.0
H901 H 0.72049 0.92754 0.5354 0.0
H902 H 0.74784 0.98298 0.52209 0.0
H903 H 0.74623 0.92862 0.51523 0.0
H904 H 0.80173 0.93423 0.49701 0.0
H905 H 0.7762 0.93375 0.51764 0.0
H906 H 0.75868 0.9794 0.48855 0.0
H907 H 0.78449 0.98023 0.46847 0.0
C908 C 0.72707 0.97018 0.53629 0.0
C909 C 0.71911 0.95463 0.54058 0.0
C910 C 0.74192 0.9708 0.52469 0.0
C911 C 0.74927 0.95588 0.51702 0.0
C912 C 0.7412 0.94035 0.52117 0.0
C913 C 0.72637 0.93974 0.53275 0.0
C914 C 0.79255 0.94431 0.49517 0.0
C915 C 0.79527 0.95727 0.48099 0.0
C916 C 0.77775 0.94391 0.50685 0.0
C917 C 0.76522 0.95648 0.50477 0.0
C918 C 0.76804 0.96956 0.49075 0.0
C919 C 0.78282 0.96993 0.47904 0.0
H920 H 0.58649 0.72093 0.03866 0.0
H921 H 0.53188 0.72037 0.04202 0.0
H922 H 0.5854 0.74666 0.01849 0.0
H923 H 0.53078 0.74616 0.02184 0.0
H924 H 0.53471 0.78301 0.96844 0.0
H925 H 0.53549 0.75725 0.98863 0.0
H926 H 0.57911 0.77639 0.02052 0.0
H927 H 0.57873 0.80186 0.99978 0.0
C928 C 0.57423 0.72635 0.03525 0.0
C929 C 0.55928 0.7185 0.0421 0.0
C930 C 0.5736 0.74118 0.02366 0.0
C931 C 0.558 0.74865 0.01853 0.0
C932 C 0.54304 0.74072 0.02522 0.0
C933 C 0.54367 0.72586 0.03681 0.0
C934 C 0.54456 0.7817 0.97965 0.0
C935 C 0.5567 0.79459 0.98234 0.0
C936 C 0.54489 0.76696 0.99143 0.0
C937 C 0.55739 0.7646 1.00625 0.0
C938 C 0.56941 0.77758 1.0091 0.0
C939 C 0.56906 0.79234 0.99735 0.0
H940 H 0.70787 0.54502 0.50645 0.0
H941 H 0.73552 0.57023 0.45908 0.0
H942 H 0.73328 0.54508 0.52731 0.0
H943 H 0.76087 0.57027 0.47988 0.0
H944 H 0.80782 0.55348 0.51467 0.0
H945 H 0.78238 0.55229 0.49393 0.0
H946 H 0.75171 0.56347 0.546 0.0
H947 H 0.77703 0.56395 0.56685 0.0
C948 C 0.7193 0.5507 0.5005 0.0
C949 C 0.71953 0.55757 0.48097 0.0
C950 C 0.73393 0.55073 0.5125 0.0
C951 C 0.74925 0.55765 0.50534 0.0
C952 C 0.74946 0.56454 0.48583 0.0
C953 C 0.73485 0.56451 0.47385 0.0
C954 C 0.79565 0.55549 0.52177 0.0
C955 C 0.79461 0.55886 0.54251 0.0
C956 C 0.78102 0.55501 0.5098 0.0
C957 C 0.76488 0.55784 0.51819 0.0
C958 C 0.76383 0.56105 0.53896 0.0
C959 C 0.77845 0.56155 0.55092 0.0
H960 H 1.00489 0.55893 0.01812 0.0
H961 H 0.9809 0.53259 0.96888 0.0
H962 H 0.01457 0.53202 0.03179 0.0
H963 H 0.9906 0.50562 0.98259 0.0
H964 H 0.02512 0.46188 1.00184 0.0
H965 H 0.0156 0.48883 0.98807 0.0
H966 H 1.00464 0.50668 0.04801 0.0
H967 H 0.01488 0.47999 0.06186 0.0
C968 C 1.00152 0.54739 1.01028 0.0
C969 C 0.99203 0.54802 0.99239 0.0
C970 C 1.00709 0.53191 0.01816 0.0
C971 C 1.00336 0.51655 1.00839 0.0
C972 C 0.99394 0.51717 0.99042 0.0
C973 C 0.98836 0.53267 0.98253 0.0
C974 C 0.02088 0.4716 0.01214 0.0
C975 C 0.02088 0.46869 0.03303 0.0
C976 C 0.01518 0.48702 1.00419 0.0
C977 C 0.0093 0.50001 0.01688 0.0
C978 C 0.00925 0.49709 0.03776 0.0
C979 C 0.01495 0.48166 0.04571 0.0
H980 H 0.04564 1.00006 0.54913 0.0
H981 H 0.04394 0.04499 0.51214 0.0
H982 H 0.01856 0.99087 0.53515 0.0
H983 H 0.01719 0.03554 0.49772 0.0
H984 H 0.96083 0.02253 0.49206 0.0
H985 H 0.9877 0.03169 0.50643 0.0
H986 H 1.00613 0.98024 0.50407 0.0
H987 H 0.979 0.97098 0.49026 0.0
C988 C 0.03948 0.00803 0.53808 0.0
C989 C 0.04704 0.02329 0.5318 0.0
C990 C 0.02403 1.00264 0.52987 0.0
C991 C 0.01565 0.01242 0.51523 0.0
C992 C 0.02316 0.02774 0.50907 0.0
C993 C 0.03862 0.03308 0.51721 0.0
C994 C 0.97056 0.01313 0.49472 0.0
C995 C 0.96767 0.99598 0.49003 0.0
C996 C 0.98606 0.01842 0.50279 0.0
C997 C 0.99915 1.00673 0.50646 0.0
C998 C 0.99631 0.98959 0.50167 0.0
C999 C 0.9808 0.9843 0.49351 0.0
H1000 H 0.47384 0.04617 1.00799 0.0
H1001 H 0.51055 0.04214 0.05585 0.0
H1002 H 0.48383 0.01952 0.99398 0.0
H1003 H 0.52007 0.01506 0.0423 0.0
H1004 H 0.54558 0.97669 1.00022 0.0
H1005 H 0.53554 1.00328 0.01453 0.0
H1006 H 0.48413 0.9896 0.99943 0.0
H1007 H 0.49419 0.96309 0.98498 0.0
C1008 C 0.48404 0.0396 0.01557 0.0
C1009 C 0.49142 0.04644 0.03304 0.0
C1010 C 0.48965 0.02416 1.00765 0.0
C1011 C 0.50281 0.01504 0.01694 0.0
C1012 C 0.51007 0.02178 0.03455 0.0
C1013 C 0.50444 0.03724 0.04249 0.0
C1014 C 0.53211 0.9793 1.00005 0.0
C1015 C 0.52072 0.9677 0.99137 0.0
C1016 C 0.52634 0.99457 1.00832 0.0
C1017 C 0.50899 0.99868 1.00821 0.0
C1018 C 0.4976 0.98706 0.99952 0.0
C1019 C 0.50338 0.97182 0.9912 0.0
H1020 H 0.53608 0.54352 0.49186 0.0
H1021 H 0.55337 0.49164 0.4915 0.0
H1022 H 0.50893 0.53436 0.50573 0.0
H1023 H 0.52648 0.48256 0.50594 0.0
H1024 H 0.47003 0.47012 0.51189 0.0
H1025 H 0.49684 0.47946 0.49749 0.0
H1026 H 0.4966 0.5231 0.53658 0.0
H1027 H 0.46946 0.51403 0.55055 0.0
C1028 C 0.53409 0.53015 0.49465 0.0
C1029 C 0.54698 0.51835 0.49054 0.0
C1030 C 0.51857 0.52491 0.50284 0.0
C1031 C 0.51547 0.5077 0.50704 0.0
C1032 C 0.52832 0.49589 0.50276 0.0
C1033 C 0.54384 0.50114 0.49465 0.0
C1034 C 0.47561 0.48178 0.51734 0.0
C1035 C 0.4675 0.49132 0.53238 0.0
C1036 C 0.49111 0.48706 0.50921 0.0
C1037 C 0.49895 0.50206 0.51583 0.0
C1038 C 0.49087 0.51158 0.53093 0.0
C1039 C 0.47539 0.50626 0.53914 0.0
H1040 H 0.04068 0.04525 0.01516 0.0
H1041 H 1.00166 0.04288 0.9698 0.0
H1042 H 0.0311 0.01824 0.02879 0.0
H1043 H 0.99201 0.01588 0.98348 0.0
H1044 H 0.99006 0.95972 1.00056 0.0
H1045 H 0.99972 0.98665 0.98687 0.0
H1046 H 0.0082 1.00531 0.04704 0.0
H1047 H 0.99922 0.97808 0.06072 0.0
C1048 C 0.02996 0.03904 1.00816 0.0
C1049 C 0.02195 0.04633 0.99135 0.0
C1050 C 0.02444 0.02352 0.01602 0.0
C1051 C 0.01071 0.01481 1.00733 0.0
C1052 C 1.00277 0.02205 0.99043 0.0
C1053 C 0.00832 0.03757 0.98255 0.0
C1054 C 0.99414 0.96949 1.01091 0.0
C1055 C 0.99392 0.9666 0.0318 0.0
C1056 C 0.99949 0.98506 1.00304 0.0
C1057 C 1.00478 0.99825 0.01579 0.0
C1058 C 1.00443 0.99542 0.03669 0.0
C1059 C 0.99907 0.97983 0.04458 0.0
H1060 H 0.46698 0.03799 0.51789 0.0
H1061 H 0.47267 1.0042 0.46733 0.0
H1062 H 0.49366 0.02785 0.53172 0.0
H1063 H 0.49976 0.99456 0.48074 0.0
H1064 H 0.53806 0.96762 0.52158 0.0
H1065 H 0.51143 0.97782 0.50756 0.0
H1066 H 0.52369 0.02858 0.52691 0.0
H1067 H 0.55026 0.01834 0.54104 0.0
C1068 C 0.47392 0.0284 0.50968 0.0
C1069 C 0.46754 0.02187 0.4915 0.0
C1070 C 0.48937 0.02272 0.51751 0.0
C1071 C 0.49895 0.01034 0.50741 0.0
C1072 C 0.49268 1.00394 0.48911 0.0
C1073 C 0.47721 0.00964 0.48126 0.0
C1074 C 0.53513 0.98098 0.52274 0.0
C1075 C 0.54636 0.99213 0.5325 0.0
C1076 C 0.51984 0.98685 0.51464 0.0
C1077 C 0.51533 1.00407 0.51601 0.0
C1078 C 0.52655 0.01521 0.52581 0.0
C1079 C 0.54182 0.00932 0.53395 0.0
H1080 H 0.54375 0.54185 0.01346 0.0
H1081 H 0.49869 0.54536 0.04999 0.0
H1082 H 0.53378 0.51503 0.99975 0.0
H1083 H 0.48864 0.51856 0.03619 0.0
H1084 H 0.48399 0.46186 0.02258 0.0
H1085 H 0.49386 0.48868 0.03631 0.0
H1086 H 0.51281 0.50302 0.97783 0.0
H1087 H 0.50358 0.47584 0.96427 0.0
C1088 C 0.53164 0.53698 0.01847 0.0
C1089 C 0.52204 0.54584 0.03286 0.0
C1090 C 0.52589 0.52157 1.01055 0.0
C1091 C 0.51034 0.51456 0.01675 0.0
C1092 C 0.50078 0.52339 0.03123 0.0
C1093 C 0.50656 0.53879 0.03918 0.0
C1094 C 0.4904 0.47065 0.01265 0.0
C1095 C 0.49305 0.46655 0.99229 0.0
C1096 C 0.49589 0.48617 0.0205 0.0
C1097 C 0.50419 0.4981 1.00824 0.0
C1098 C 0.50668 0.49409 0.98782 0.0
C1099 C 0.50118 0.47855 0.97996 0.0
H1100 H 0.95623 0.51103 0.50472 0.0
H1101 H 0.98234 0.53193 0.55607 0.0
H1102 H 0.98309 0.50127 0.49103 0.0
H1103 H 0.00927 0.52214 0.54234 0.0
H1104 H 0.05243 0.48745 0.52167 0.0
H1105 H 0.02552 0.49698 0.53551 0.0
H1106 H 0.00892 0.51134 0.47606 0.0
H1107 H 0.03555 0.50111 0.46209 0.0
C1108 C 0.96772 0.51371 0.51303 0.0
C1109 C 0.96704 0.52237 0.53151 0.0
C1110 C 0.98317 0.50809 0.50515 0.0
C1111 C 0.99845 0.51094 0.51549 0.0
C1112 C 0.99778 0.5195 0.53404 0.0
C1113 C 0.9823 0.52512 0.54194 0.0
C1114 C 0.04298 0.49245 0.51148 0.0
C1115 C 0.04623 0.4934 0.49069 0.0
C1116 C 0.02759 0.49814 0.51948 0.0
C1117 C 0.01496 0.50498 0.50696 0.0
C1118 C 0.01822 0.50598 0.48618 0.0
C1119 C 0.03363 0.50029 0.47817 0.0
loop_
_geom_bond_atom_site_label_1
_geom_bond_atom_site_label_2
_geom_bond_distance
_geom_bond_site_symmetry_2
_ccdc_geom_bond_type
C0 C1 1.264 . S
C0 C5 1.479 . S
C0 C10 1.465 . S
C1 C0 1.264 . S
C1 C3 1.339 . S
C1 H28 0.931 . S
C2 C3 1.395 . S
C2 C4 1.320 . S
C3 C1 1.339 . S
C3 C2 1.395 . S
C3 H29 0.929 . S
C4 C2 1.320 . S
C4 C5 1.405 . S
C4 H30 0.930 . S
C5 C0 1.479 . S
C5 C4 1.405 . S
C5 H31 0.931 . S
U6 O7 2.454 . S
U6 O8 2.458 . S
U6 C9 2.984 . S
U6 C10 2.847 . S
U6 C23 2.882 . S
U6 O24 2.441 . S
U6 O25 2.420 . S
U6 O26 2.455 . S
U6 O27 2.449 . S
O7 U6 2.454 . S
O7 C9 1.353 . S
O8 U6 2.458 . S
O8 C9 1.286 . S
C9 U6 2.984 . S
C9 O7 1.353 . S
C9 O8 1.286 . S
C9 C11 1.363 . S
C10 C0 1.465 . S
C10 U6 2.847 . S
C10 O24 1.249 . S
C10 O25 1.202 . S
C11 C9 1.363 . S
C11 C13 1.408 . S
C11 C16 1.342 . S
C12 C13 1.310 . S
C12 C15 1.461 . S
C12 H32 0.932 . S
C13 C11 1.408 . S
C13 C12 1.310 . S
C13 H33 0.930 . S
C14 C15 1.474 . S
C14 C16 1.285 . S
C14 H34 0.929 . S
C15 C12 1.461 . S
C15 C14 1.474 . S
C16 C11 1.342 . S
C16 C14 1.285 . S
C16 H35 0.930 . S
C17 C20 1.424 . S
C17 C22 1.245 . S
C17 C23 1.428 . S
C18 C21 1.260 . S
C18 C22 1.477 . S
C18 H36 0.932 . S
C19 C20 1.384 . S
C19 C21 1.479 . S
C19 H37 0.929 . S
C20 C17 1.424 . S
C20 C19 1.384 . S
C20 H38 0.928 . S
C21 C18 1.260 . S
C21 C19 1.479 . S
C22 C17 1.245 . S
C22 C18 1.477 . S
C22 H39 0.932 . S
C23 U6 2.882 . S
C23 C17 1.428 . S
C23 O26 1.301 . S
C23 O27 1.282 . S
O24 U6 2.441 . S
O24 C10 1.249 . S
O25 U6 2.420 . S
O25 C10 1.202 . S
O26 U6 2.455 . S
O26 C23 1.301 . S
O27 U6 2.449 . S
O27 C23 1.282 . S
H28 C1 0.931 . S
H29 C3 0.929 . S
H30 C4 0.930 . S
H31 C5 0.931 . S
H32 C12 0.932 . S
H33 C13 0.930 . S
H34 C14 0.929 . S
H35 C16 0.930 . S
H36 C18 0.932 . S
H37 C19 0.929 . S
H38 C20 0.928 . S
H39 C22 0.932 . S
C40 C41 1.264 . S
C40 C45 1.479 . S
C40 C50 1.465 . S
C41 C40 1.264 . S
C41 C43 1.339 . S
C41 H68 0.931 . S
C42 C43 1.395 . S
C42 C44 1.320 . S
C43 C41 1.339 . S
C43 C42 1.395 . S
C43 H69 0.929 . S
C44 C42 1.320 . S
C44 C45 1.405 . S
C44 H70 0.930 . S
C45 C40 1.479 . S
C45 C44 1.405 . S
C45 H71 0.931 . S
U46 O47 2.454 . S
U46 O48 2.458 . S
U46 C49 2.984 . S
U46 C50 2.847 . S
U46 C63 2.882 . S
U46 O64 2.441 . S
U46 O65 2.420 . S
U46 O66 2.455 . S
U46 O67 2.449 . S
O47 U46 2.454 . S
O47 C49 1.353 . S
O48 U46 2.458 . S
O48 C49 1.286 . S
C49 U46 2.984 . S
C49 O47 1.353 . S
C49 O48 1.286 . S
C49 C51 1.363 . S
C50 C40 1.465 . S
C50 U46 2.847 . S
C50 O64 1.249 . S
C50 O65 1.202 . S
C51 C49 1.363 . S
C51 C53 1.408 . S
C51 C56 1.342 . S
C52 C53 1.310 . S
C52 C55 1.461 . S
C52 H72 0.932 . S
C53 C51 1.408 . S
C53 C52 1.310 . S
C53 H73 0.930 . S
C54 C55 1.474 . S
C54 C56 1.285 . S
C54 H74 0.929 . S
C55 C52 1.461 . S
C55 C54 1.474 . S
C56 C51 1.342 . S
C56 C54 1.285 . S
C56 H75 0.930 . S
C57 C60 1.424 . S
C57 C62 1.245 . S
C57 C63 1.428 . S
C58 C61 1.260 . S
C58 C62 1.477 . S
C58 H76 0.932 . S
C59 C60 1.384 . S
C59 C61 1.479 . S
C59 H77 0.929 . S
C60 C57 1.424 . S
C60 C59 1.384 . S
C60 H78 0.928 . S
C61 C58 1.260 . S
C61 C59 1.479 . S
C62 C57 1.245 . S
C62 C58 1.477 . S
C62 H79 0.932 . S
C63 U46 2.882 . S
C63 C57 1.428 . S
C63 O66 1.301 . S
C63 O67 1.282 . S
O64 U46 2.441 . S
O64 C50 1.249 . S
O65 U46 2.420 . S
O65 C50 1.202 . S
O66 U46 2.455 . S
O66 C63 1.301 . S
O67 U46 2.449 . S
O67 C63 1.282 . S
H68 C41 0.931 . S
H69 C43 0.929 . S
H70 C44 0.930 . S
H71 C45 0.931 . S
H72 C52 0.932 . S
H73 C53 0.930 . S
H74 C54 0.929 . S
H75 C56 0.930 . S
H76 C58 0.932 . S
H77 C59 0.929 . S
H78 C60 0.928 . S
H79 C62 0.932 . S
C80 C81 1.264 . S
C80 C85 1.479 . S
C80 C90 1.465 . S
C81 C80 1.264 . S
C81 C83 1.339 . S
C81 H108 0.931 . S
C82 C83 1.395 . S
C82 C84 1.320 . S
C83 C81 1.339 . S
C83 C82 1.395 . S
C83 H109 0.929 . S
C84 C82 1.320 . S
C84 C85 1.405 . S
C84 H110 0.930 . S
C85 C80 1.479 . S
C85 C84 1.405 . S
C85 H111 0.931 . S
U86 O87 2.454 . S
U86 O88 2.458 . S
U86 C89 2.984 . S
U86 C90 2.847 . S
U86 C103 2.882 . S
U86 O104 2.441 . S
U86 O105 2.420 . S
U86 O106 2.455 . S
U86 O107 2.449 . S
O87 U86 2.454 . S
O87 C89 1.353 . S
O88 U86 2.458 . S
O88 C89 1.286 . S
C89 U86 2.984 . S
C89 O87 1.353 . S
C89 O88 1.286 . S
C89 C91 1.363 . S
C90 C80 1.465 . S
C90 U86 2.847 . S
C90 O104 1.249 . S
C90 O105 1.202 . S
C91 C89 1.363 . S
C91 C93 1.408 . S
C91 C96 1.342 . S
C92 C93 1.310 . S
C92 C95 1.461 . S
C92 H112 0.932 . S
C93 C91 1.408 . S
C93 C92 1.310 . S
C93 H113 0.930 . S
C94 C95 1.474 . S
C94 C96 1.285 . S
C94 H114 0.929 . S
C95 C92 1.461 . S
C95 C94 1.474 . S
C96 C91 1.342 . S
C96 C94 1.285 . S
C96 H115 0.930 . S
C97 C100 1.424 . S
C97 C102 1.245 . S
C97 C103 1.428 . S
C98 C101 1.260 . S
C98 C102 1.477 . S
C98 H116 0.932 . S
C99 C100 1.384 . S
C99 C101 1.479 . S
C99 H117 0.929 . S
C100 C97 1.424 . S
C100 C99 1.384 . S
C100 H118 0.928 . S
C101 C98 1.260 . S
C101 C99 1.479 . S
C102 C97 1.245 . S
C102 C98 1.477 . S
C102 H119 0.932 . S
C103 U86 2.882 . S
C103 C97 1.428 . S
C103 O106 1.301 . S
C103 O107 1.282 . S
O104 U86 2.441 . S
O104 C90 1.249 . S
O105 U86 2.420 . S
O105 C90 1.202 . S
O106 U86 2.455 . S
O106 C103 1.301 . S
O107 U86 2.449 . S
O107 C103 1.282 . S
H108 C81 0.931 . S
H109 C83 0.929 . S
H110 C84 0.930 . S
H111 C85 0.931 . S
H112 C92 0.932 . S
H113 C93 0.930 . S
H114 C94 0.929 . S
H115 C96 0.930 . S
H116 C98 0.932 . S
H117 C99 0.929 . S
H118 C100 0.928 . S
H119 C102 0.932 . S
C120 C121 1.264 . S
C120 C125 1.479 . S
C120 C130 1.465 . S
C121 C120 1.264 . S
C121 C123 1.339 . S
C121 H148 0.931 . S
C122 C123 1.395 . S
C122 C124 1.320 . S
C123 C121 1.339 . S
C123 C122 1.395 . S
C123 H149 0.929 . S
C124 C122 1.320 . S
C124 C125 1.405 . S
C124 H150 0.930 . S
C125 C120 1.479 . S
C125 C124 1.405 . S
C125 H151 0.931 . S
U126 O127 2.454 . S
U126 O128 2.458 . S
U126 C129 2.984 . S
U126 C130 2.847 . S
U126 C143 2.882 . S
U126 O144 2.441 . S
U126 O145 2.420 . S
U126 O146 2.455 . S
U126 O147 2.449 . S
O127 U126 2.454 . S
O127 C129 1.353 . S
O128 U126 2.458 . S
O128 C129 1.286 . S
C129 U126 2.984 . S
C129 O127 1.353 . S
C129 O128 1.286 . S
C129 C131 1.363 . S
C130 C120 1.465 . S
C130 U126 2.847 . S
C130 O144 1.249 . S
C130 O145 1.202 . S
C131 C129 1.363 . S
C131 C133 1.408 . S
C131 C136 1.342 . S
C132 C133 1.310 . S
C132 C135 1.461 . S
C132 H152 0.932 . S
C133 C131 1.408 . S
C133 C132 1.310 . S
C133 H153 0.930 . S
C134 C135 1.474 . S
C134 C136 1.285 . S
C134 H154 0.929 . S
C135 C132 1.461 . S
C135 C134 1.474 . S
C136 C131 1.342 . S
C136 C134 1.285 . S
C136 H155 0.930 . S
C137 C140 1.424 . S
C137 C142 1.245 . S
C137 C143 1.428 . S
C138 C141 1.260 . S
C138 C142 1.477 . S
C138 H156 0.932 . S
C139 C140 1.384 . S
C139 C141 1.479 . S
C139 H157 0.929 . S
C140 C137 1.424 . S
C140 C139 1.384 . S
C140 H158 0.928 . S
C141 C138 1.260 . S
C141 C139 1.479 . S
C142 C137 1.245 . S
C142 C138 1.477 . S
C142 H159 0.932 . S
C143 U126 2.882 . S
C143 C137 1.428 . S
C143 O146 1.301 . S
C143 O147 1.282 . S
O144 U126 2.441 . S
O144 C130 1.249 . S
O145 U126 2.420 . S
O145 C130 1.202 . S
O146 U126 2.455 . S
O146 C143 1.301 . S
O147 U126 2.449 . S
O147 C143 1.282 . S
H148 C121 0.931 . S
H149 C123 0.929 . S
H150 C124 0.930 . S
H151 C125 0.931 . S
H152 C132 0.932 . S
H153 C133 0.930 . S
H154 C134 0.929 . S
H155 C136 0.930 . S
H156 C138 0.932 . S
H157 C139 0.929 . S
H158 C140 0.928 . S
H159 C142 0.932 . S
C160 C161 1.264 . S
C160 C165 1.479 . S
C160 C170 1.465 . S
C161 C160 1.264 . S
C161 C163 1.339 . S
C161 H188 0.931 . S
C162 C163 1.395 . S
C162 C164 1.320 . S
C163 C161 1.339 . S
C163 C162 1.395 . S
C163 H189 0.929 . S
C164 C162 1.320 . S
C164 C165 1.405 . S
C164 H190 0.930 . S
C165 C160 1.479 . S
C165 C164 1.405 . S
C165 H191 0.931 . S
U166 O167 2.454 . S
U166 O168 2.458 . S
U166 C169 2.984 . S
U166 C170 2.847 . S
U166 C183 2.882 . S
U166 O184 2.441 . S
U166 O185 2.420 . S
U166 O186 2.455 . S
U166 O187 2.449 . S
O167 U166 2.454 . S
O167 C169 1.353 . S
O168 U166 2.458 . S
O168 C169 1.286 . S
C169 U166 2.984 . S
C169 O167 1.353 . S
C169 O168 1.286 . S
C169 C171 1.363 . S
C170 C160 1.465 . S
C170 U166 2.847 . S
C170 O184 1.249 . S
C170 O185 1.202 . S
C171 C169 1.363 . S
C171 C173 1.408 . S
C171 C176 1.342 . S
C172 C173 1.310 . S
C172 C175 1.461 . S
C172 H192 0.932 . S
C173 C171 1.408 . S
C173 C172 1.310 . S
C173 H193 0.930 . S
C174 C175 1.474 . S
C174 C176 1.285 . S
C174 H194 0.929 . S
C175 C172 1.461 . S
C175 C174 1.474 . S
C176 C171 1.342 . S
C176 C174 1.285 . S
C176 H195 0.930 . S
C177 C180 1.424 . S
C177 C182 1.245 . S
C177 C183 1.428 . S
C178 C181 1.260 . S
C178 C182 1.477 . S
C178 H196 0.932 . S
C179 C180 1.384 . S
C179 C181 1.479 . S
C179 H197 0.929 . S
C180 C177 1.424 . S
C180 C179 1.384 . S
C180 H198 0.928 . S
C181 C178 1.260 . S
C181 C179 1.479 . S
C182 C177 1.245 . S
C182 C178 1.477 . S
C182 H199 0.932 . S
C183 U166 2.882 . S
C183 C177 1.428 . S
C183 O186 1.301 . S
C183 O187 1.282 . S
O184 U166 2.441 . S
O184 C170 1.249 . S
O185 U166 2.420 . S
O185 C170 1.202 . S
O186 U166 2.455 . S
O186 C183 1.301 . S
O187 U166 2.449 . S
O187 C183 1.282 . S
H188 C161 0.931 . S
H189 C163 0.929 . S
H190 C164 0.930 . S
H191 C165 0.931 . S
H192 C172 0.932 . S
H193 C173 0.930 . S
H194 C174 0.929 . S
H195 C176 0.930 . S
H196 C178 0.932 . S
H197 C179 0.929 . S
H198 C180 0.928 . S
H199 C182 0.932 . S
C200 C201 1.264 . S
C200 C205 1.479 . S
C200 C210 1.465 . S
C201 C200 1.264 . S
C201 C203 1.339 . S
C201 H228 0.931 . S
C202 C203 1.395 . S
C202 C204 1.320 . S
C203 C201 1.339 . S
C203 C202 1.395 . S
C203 H229 0.929 . S
C204 C202 1.320 . S
C204 C205 1.405 . S
C204 H230 0.930 . S
C205 C200 1.479 . S
C205 C204 1.405 . S
C205 H231 0.931 . S
U206 O207 2.454 . S
U206 O208 2.458 . S
U206 C209 2.984 . S
U206 C210 2.847 . S
U206 C223 2.882 . S
U206 O224 2.441 . S
U206 O225 2.420 . S
U206 O226 2.455 . S
U206 O227 2.449 . S
O207 U206 2.454 . S
O207 C209 1.353 . S
O208 U206 2.458 . S
O208 C209 1.286 . S
C209 U206 2.984 . S
C209 O207 1.353 . S
C209 O208 1.286 . S
C209 C211 1.363 . S
C210 C200 1.465 . S
C210 U206 2.847 . S
C210 O224 1.249 . S
C210 O225 1.202 . S
C211 C209 1.363 . S
C211 C213 1.408 . S
C211 C216 1.342 . S
C212 C213 1.310 . S
C212 C215 1.461 . S
C212 H232 0.932 . S
C213 C211 1.408 . S
C213 C212 1.310 . S
C213 H233 0.930 . S
C214 C215 1.474 . S
C214 C216 1.285 . S
C214 H234 0.929 . S
C215 C212 1.461 . S
C215 C214 1.474 . S
C216 C211 1.342 . S
C216 C214 1.285 . S
C216 H235 0.930 . S
C217 C220 1.424 . S
C217 C222 1.245 . S
C217 C223 1.428 . S
C218 C221 1.260 . S
C218 C222 1.477 . S
C218 H236 0.932 . S
C219 C220 1.384 . S
C219 C221 1.479 . S
C219 H237 0.929 . S
C220 C217 1.424 . S
C220 C219 1.384 . S
C220 H238 0.928 . S
C221 C218 1.260 . S
C221 C219 1.479 . S
C222 C217 1.245 . S
C222 C218 1.477 . S
C222 H239 0.932 . S
C223 U206 2.882 . S
C223 C217 1.428 . S
C223 O226 1.301 . S
C223 O227 1.282 . S
O224 U206 2.441 . S
O224 C210 1.249 . S
O225 U206 2.420 . S
O225 C210 1.202 . S
O226 U206 2.455 . S
O226 C223 1.301 . S
O227 U206 2.449 . S
O227 C223 1.282 . S
H228 C201 0.931 . S
H229 C203 0.929 . S
H230 C204 0.930 . S
H231 C205 0.931 . S
H232 C212 0.932 . S
H233 C213 0.930 . S
H234 C214 0.929 . S
H235 C216 0.930 . S
H236 C218 0.932 . S
H237 C219 0.929 . S
H238 C220 0.928 . S
H239 C222 0.932 . S
C240 C241 1.264 . S
C240 C245 1.479 . S
C240 C250 1.465 . S
C241 C240 1.264 . S
C241 C243 1.339 . S
C241 H268 0.931 . S
C242 C243 1.395 . S
C242 C244 1.320 . S
C243 C241 1.339 . S
C243 C242 1.395 . S
C243 H269 0.929 . S
C244 C242 1.320 . S
C244 C245 1.405 . S
C244 H270 0.930 . S
C245 C240 1.479 . S
C245 C244 1.405 . S
C245 H271 0.931 . S
U246 O247 2.454 . S
U246 O248 2.458 . S
U246 C249 2.984 . S
U246 C250 2.847 . S
U246 C263 2.882 . S
U246 O264 2.441 . S
U246 O265 2.420 . S
U246 O266 2.455 . S
U246 O267 2.449 . S
O247 U246 2.454 . S
O247 C249 1.353 . S
O248 U246 2.458 . S
O248 C249 1.286 . S
C249 U246 2.984 . S
C249 O247 1.353 . S
C249 O248 1.286 . S
C249 C251 1.363 . S
C250 C240 1.465 . S
C250 U246 2.847 . S
C250 O264 1.249 . S
C250 O265 1.202 . S
C251 C249 1.363 . S
C251 C253 1.408 . S
C251 C256 1.342 . S
C252 C253 1.310 . S
C252 C255 1.461 . S
C252 H272 0.932 . S
C253 C251 1.408 . S
C253 C252 1.310 . S
C253 H273 0.930 . S
C254 C255 1.474 . S
C254 C256 1.285 . S
C254 H274 0.929 . S
C255 C252 1.461 . S
C255 C254 1.474 . S
C256 C251 1.342 . S
C256 C254 1.285 . S
C256 H275 0.930 . S
C257 C260 1.424 . S
C257 C262 1.245 . S
C257 C263 1.428 . S
C258 C261 1.260 . S
C258 C262 1.477 . S
C258 H276 0.932 . S
C259 C260 1.384 . S
C259 C261 1.479 . S
C259 H277 0.929 . S
C260 C257 1.424 . S
C260 C259 1.384 . S
C260 H278 0.928 . S
C261 C258 1.260 . S
C261 C259 1.479 . S
C262 C257 1.245 . S
C262 C258 1.477 . S
C262 H279 0.932 . S
C263 U246 2.882 . S
C263 C257 1.428 . S
C263 O266 1.301 . S
C263 O267 1.282 . S
O264 U246 2.441 . S
O264 C250 1.249 . S
O265 U246 2.420 . S
O265 C250 1.202 . S
O266 U246 2.455 . S
O266 C263 1.301 . S
O267 U246 2.449 . S
O267 C263 1.282 . S
H268 C241 0.931 . S
H269 C243 0.929 . S
H270 C244 0.930 . S
H271 C245 0.931 . S
H272 C252 0.932 . S
H273 C253 0.930 . S
H274 C254 0.929 . S
H275 C256 0.930 . S
H276 C258 0.932 . S
H277 C259 0.929 . S
H278 C260 0.928 . S
H279 C262 0.932 . S
C280 C281 1.264 . S
C280 C285 1.479 . S
C280 C290 1.465 . S
C281 C280 1.264 . S
C281 C283 1.339 . S
C281 H308 0.931 . S
C282 C283 1.395 . S
C282 C284 1.320 . S
C283 C281 1.339 . S
C283 C282 1.395 . S
C283 H309 0.929 . S
C284 C282 1.320 . S
C284 C285 1.405 . S
C284 H310 0.930 . S
C285 C280 1.479 . S
C285 C284 1.405 . S
C285 H311 0.931 . S
U286 O287 2.454 . S
U286 O288 2.458 . S
U286 C289 2.984 . S
U286 C290 2.847 . S
U286 C303 2.882 . S
U286 O304 2.441 . S
U286 O305 2.420 . S
U286 O306 2.455 . S
U286 O307 2.449 . S
O287 U286 2.454 . S
O287 C289 1.353 . S
O288 U286 2.458 . S
O288 C289 1.286 . S
C289 U286 2.984 . S
C289 O287 1.353 . S
C289 O288 1.286 . S
C289 C291 1.363 . S
C290 C280 1.465 . S
C290 U286 2.847 . S
C290 O304 1.249 . S
C290 O305 1.202 . S
C291 C289 1.363 . S
C291 C293 1.408 . S
C291 C296 1.342 . S
C292 C293 1.310 . S
C292 C295 1.461 . S
C292 H312 0.932 . S
C293 C291 1.408 . S
C293 C292 1.310 . S
C293 H313 0.930 . S
C294 C295 1.474 . S
C294 C296 1.285 . S
C294 H314 0.929 . S
C295 C292 1.461 . S
C295 C294 1.474 . S
C296 C291 1.342 . S
C296 C294 1.285 . S
C296 H315 0.930 . S
C297 C300 1.424 . S
C297 C302 1.245 . S
C297 C303 1.428 . S
C298 C301 1.260 . S
C298 C302 1.477 . S
C298 H316 0.932 . S
C299 C300 1.384 . S
C299 C301 1.479 . S
C299 H317 0.929 . S
C300 C297 1.424 . S
C300 C299 1.384 . S
C300 H318 0.928 . S
C301 C298 1.260 . S
C301 C299 1.479 . S
C302 C297 1.245 . S
C302 C298 1.477 . S
C302 H319 0.932 . S
C303 U286 2.882 . S
C303 C297 1.428 . S
C303 O306 1.301 . S
C303 O307 1.282 . S
O304 U286 2.441 . S
O304 C290 1.249 . S
O305 U286 2.420 . S
O305 C290 1.202 . S
O306 U286 2.455 . S
O306 C303 1.301 . S
O307 U286 2.449 . S
O307 C303 1.282 . S
H308 C281 0.931 . S
H309 C283 0.929 . S
H310 C284 0.930 . S
H311 C285 0.931 . S
H312 C292 0.932 . S
H313 C293 0.930 . S
H314 C294 0.929 . S
H315 C296 0.930 . S
H316 C298 0.932 . S
H317 C299 0.929 . S
H318 C300 0.928 . S
H319 C302 0.932 . S
C320 C321 1.264 . S
C320 C325 1.479 . S
C320 C330 1.465 . S
C321 C320 1.264 . S
C321 C323 1.339 . S
C321 H348 0.931 . S
C322 C323 1.395 . S
C322 C324 1.320 . S
C323 C321 1.339 . S
C323 C322 1.395 . S
C323 H349 0.929 . S
C324 C322 1.320 . S
C324 C325 1.405 . S
C324 H350 0.930 . S
C325 C320 1.479 . S
C325 C324 1.405 . S
C325 H351 0.931 . S
U326 O327 2.454 . S
U326 O328 2.458 . S
U326 C329 2.984 . S
U326 C330 2.847 . S
U326 C343 2.882 . S
U326 O344 2.441 . S
U326 O345 2.420 . S
U326 O346 2.455 . S
U326 O347 2.449 . S
O327 U326 2.454 . S
O327 C329 1.353 . S
O328 U326 2.458 . S
O328 C329 1.286 . S
C329 U326 2.984 . S
C329 O327 1.353 . S
C329 O328 1.286 . S
C329 C331 1.363 . S
C330 C320 1.465 . S
C330 U326 2.847 . S
C330 O344 1.249 . S
C330 O345 1.202 . S
C331 C329 1.363 . S
C331 C333 1.408 . S
C331 C336 1.342 . S
C332 C333 1.310 . S
C332 C335 1.461 . S
C332 H352 0.932 . S
C333 C331 1.408 . S
C333 C332 1.310 . S
C333 H353 0.930 . S
C334 C335 1.474 . S
C334 C336 1.285 . S
C334 H354 0.929 . S
C335 C332 1.461 . S
C335 C334 1.474 . S
C336 C331 1.342 . S
C336 C334 1.285 . S
C336 H355 0.930 . S
C337 C340 1.424 . S
C337 C342 1.245 . S
C337 C343 1.428 . S
C338 C341 1.260 . S
C338 C342 1.477 . S
C338 H356 0.932 . S
C339 C340 1.384 . S
C339 C341 1.479 . S
C339 H357 0.929 . S
C340 C337 1.424 . S
C340 C339 1.384 . S
C340 H358 0.928 . S
C341 C338 1.260 . S
C341 C339 1.479 . S
C342 C337 1.245 . S
C342 C338 1.477 . S
C342 H359 0.932 . S
C343 U326 2.882 . S
C343 C337 1.428 . S
C343 O346 1.301 . S
C343 O347 1.282 . S
O344 U326 2.441 . S
O344 C330 1.249 . S
O345 U326 2.420 . S
O345 C330 1.202 . S
O346 U326 2.455 . S
O346 C343 1.301 . S
O347 U326 2.449 . S
O347 C343 1.282 . S
H348 C321 0.931 . S
H349 C323 0.929 . S
H350 C324 0.930 . S
H351 C325 0.931 . S
H352 C332 0.932 . S
H353 C333 0.930 . S
H354 C334 0.929 . S
H355 C336 0.930 . S
H356 C338 0.932 . S
H357 C339 0.929 . S
H358 C340 0.928 . S
H359 C342 0.932 . S
C360 C361 1.264 . S
C360 C365 1.479 . S
C360 C370 1.465 . S
C361 C360 1.264 . S
C361 C363 1.339 . S
C361 H388 0.931 . S
C362 C363 1.395 . S
C362 C364 1.320 . S
C363 C361 1.339 . S
C363 C362 1.395 . S
C363 H389 0.929 . S
C364 C362 1.320 . S
C364 C365 1.405 . S
C364 H390 0.930 . S
C365 C360 1.479 . S
C365 C364 1.405 . S
C365 H391 0.931 . S
U366 O367 2.454 . S
U366 O368 2.458 . S
U366 C369 2.984 . S
U366 C370 2.847 . S
U366 C383 2.882 . S
U366 O384 2.441 . S
U366 O385 2.420 . S
U366 O386 2.455 . S
U366 O387 2.449 . S
O367 U366 2.454 . S
O367 C369 1.353 . S
O368 U366 2.458 . S
O368 C369 1.286 . S
C369 U366 2.984 . S
C369 O367 1.353 . S
C369 O368 1.286 . S
C369 C371 1.363 . S
C370 C360 1.465 . S
C370 U366 2.847 . S
C370 O384 1.249 . S
C370 O385 1.202 . S
C371 C369 1.363 . S
C371 C373 1.408 . S
C371 C376 1.342 . S
C372 C373 1.310 . S
C372 C375 1.461 . S
C372 H392 0.932 . S
C373 C371 1.408 . S
C373 C372 1.310 . S
C373 H393 0.930 . S
C374 C375 1.474 . S
C374 C376 1.285 . S
C374 H394 0.929 . S
C375 C372 1.461 . S
C375 C374 1.474 . S
C376 C371 1.342 . S
C376 C374 1.285 . S
C376 H395 0.930 . S
C377 C380 1.424 . S
C377 C382 1.245 . S
C377 C383 1.428 . S
C378 C381 1.260 . S
C378 C382 1.477 . S
C378 H396 0.932 . S
C379 C380 1.384 . S
C379 C381 1.479 . S
C379 H397 0.929 . S
C380 C377 1.424 . S
C380 C379 1.384 . S
C380 H398 0.928 . S
C381 C378 1.260 . S
C381 C379 1.479 . S
C382 C377 1.245 . S
C382 C378 1.477 . S
C382 H399 0.932 . S
C383 U366 2.882 . S
C383 C377 1.428 . S
C383 O386 1.301 . S
C383 O387 1.282 . S
O384 U366 2.441 . S
O384 C370 1.249 . S
O385 U366 2.420 . S
O385 C370 1.202 . S
O386 U366 2.455 . S
O386 C383 1.301 . S
O387 U366 2.449 . S
O387 C383 1.282 . S
H388 C361 0.931 . S
H389 C363 0.929 . S
H390 C364 0.930 . S
H391 C365 0.931 . S
H392 C372 0.932 . S
H393 C373 0.930 . S
H394 C374 0.929 . S
H395 C376 0.930 . S
H396 C378 0.932 . S
H397 C379 0.929 . S
H398 C380 0.928 . S
H399 C382 0.932 . S
C400 C401 1.264 . S
C400 C405 1.479 . S
C400 C410 1.465 . S
C401 C400 1.264 . S
C401 C403 1.339 . S
C401 H428 0.931 . S
C402 C403 1.395 . S
C402 C404 1.320 . S
C403 C401 1.339 . S
C403 C402 1.395 . S
C403 H429 0.929 . S
C404 C402 1.320 . S
C404 C405 1.405 . S
C404 H430 0.930 . S
C405 C400 1.479 . S
C405 C404 1.405 . S
C405 H431 0.931 . S
U406 O407 2.454 . S
U406 O408 2.458 . S
U406 C409 2.984 . S
U406 C410 2.847 . S
U406 C423 2.882 . S
U406 O424 2.441 . S
U406 O425 2.420 . S
U406 O426 2.455 . S
U406 O427 2.449 . S
O407 U406 2.454 . S
O407 C409 1.353 . S
O408 U406 2.458 . S
O408 C409 1.286 . S
C409 U406 2.984 . S
C409 O407 1.353 . S
C409 O408 1.286 . S
C409 C411 1.363 . S
C410 C400 1.465 . S
C410 U406 2.847 . S
C410 O424 1.249 . S
C410 O425 1.202 . S
C411 C409 1.363 . S
C411 C413 1.408 . S
C411 C416 1.342 . S
C412 C413 1.310 . S
C412 C415 1.461 . S
C412 H432 0.932 . S
C413 C411 1.408 . S
C413 C412 1.310 . S
C413 H433 0.930 . S
C414 C415 1.474 . S
C414 C416 1.285 . S
C414 H434 0.929 . S
C415 C412 1.461 . S
C415 C414 1.474 . S
C416 C411 1.342 . S
C416 C414 1.285 . S
C416 H435 0.930 . S
C417 C420 1.424 . S
C417 C422 1.245 . S
C417 C423 1.428 . S
C418 C421 1.260 . S
C418 C422 1.477 . S
C418 H436 0.932 . S
C419 C420 1.384 . S
C419 C421 1.479 . S
C419 H437 0.929 . S
C420 C417 1.424 . S
C420 C419 1.384 . S
C420 H438 0.928 . S
C421 C418 1.260 . S
C421 C419 1.479 . S
C422 C417 1.245 . S
C422 C418 1.477 . S
C422 H439 0.932 . S
C423 U406 2.882 . S
C423 C417 1.428 . S
C423 O426 1.301 . S
C423 O427 1.282 . S
O424 U406 2.441 . S
O424 C410 1.249 . S
O425 U406 2.420 . S
O425 C410 1.202 . S
O426 U406 2.455 . S
O426 C423 1.301 . S
O427 U406 2.449 . S
O427 C423 1.282 . S
H428 C401 0.931 . S
H429 C403 0.929 . S
H430 C404 0.930 . S
H431 C405 0.931 . S
H432 C412 0.932 . S
H433 C413 0.930 . S
H434 C414 0.929 . S
H435 C416 0.930 . S
H436 C418 0.932 . S
H437 C419 0.929 . S
H438 C420 0.928 . S
H439 C422 0.932 . S
C440 C441 1.264 . S
C440 C445 1.479 . S
C440 C450 1.465 . S
C441 C440 1.264 . S
C441 C443 1.339 . S
C441 H468 0.931 . S
C442 C443 1.395 . S
C442 C444 1.320 . S
C443 C441 1.339 . S
C443 C442 1.395 . S
C443 H469 0.929 . S
C444 C442 1.320 . S
C444 C445 1.405 . S
C444 H470 0.930 . S
C445 C440 1.479 . S
C445 C444 1.405 . S
C445 H471 0.931 . S
U446 O447 2.454 . S
U446 O448 2.458 . S
U446 C449 2.984 . S
U446 C450 2.847 . S
U446 C463 2.882 . S
U446 O464 2.441 . S
U446 O465 2.420 . S
U446 O466 2.455 . S
U446 O467 2.449 . S
O447 U446 2.454 . S
O447 C449 1.353 . S
O448 U446 2.458 . S
O448 C449 1.286 . S
C449 U446 2.984 . S
C449 O447 1.353 . S
C449 O448 1.286 . S
C449 C451 1.363 . S
C450 C440 1.465 . S
C450 U446 2.847 . S
C450 O464 1.249 . S
C450 O465 1.202 . S
C451 C449 1.363 . S
C451 C453 1.408 . S
C451 C456 1.342 . S
C452 C453 1.310 . S
C452 C455 1.461 . S
C452 H472 0.932 . S
C453 C451 1.408 . S
C453 C452 1.310 . S
C453 H473 0.930 . S
C454 C455 1.474 . S
C454 C456 1.285 . S
C454 H474 0.929 . S
C455 C452 1.461 . S
C455 C454 1.474 . S
C456 C451 1.342 . S
C456 C454 1.285 . S
C456 H475 0.930 . S
C457 C460 1.424 . S
C457 C462 1.245 . S
C457 C463 1.428 . S
C458 C461 1.260 . S
C458 C462 1.477 . S
C458 H476 0.932 . S
C459 C460 1.384 . S
C459 C461 1.479 . S
C459 H477 0.929 . S
C460 C457 1.424 . S
C460 C459 1.384 . S
C460 H478 0.928 . S
C461 C458 1.260 . S
C461 C459 1.479 . S
C462 C457 1.245 . S
C462 C458 1.477 . S
C462 H479 0.932 . S
C463 U446 2.882 . S
C463 C457 1.428 . S
C463 O466 1.301 . S
C463 O467 1.282 . S
O464 U446 2.441 . S
O464 C450 1.249 . S
O465 U446 2.420 . S
O465 C450 1.202 . S
O466 U446 2.455 . S
O466 C463 1.301 . S
O467 U446 2.449 . S
O467 C463 1.282 . S
H468 C441 0.931 . S
H469 C443 0.929 . S
H470 C444 0.930 . S
H471 C445 0.931 . S
H472 C452 0.932 . S
H473 C453 0.930 . S
H474 C454 0.929 . S
H475 C456 0.930 . S
H476 C458 0.932 . S
H477 C459 0.929 . S
H478 C460 0.928 . S
H479 C462 0.932 . S
C480 C481 1.264 . S
C480 C485 1.479 . S
C480 C490 1.465 . S
C481 C480 1.264 . S
C481 C483 1.339 . S
C481 H508 0.931 . S
C482 C483 1.395 . S
C482 C484 1.320 . S
C483 C481 1.339 . S
C483 C482 1.395 . S
C483 H509 0.929 . S
C484 C482 1.320 . S
C484 C485 1.405 . S
C484 H510 0.930 . S
C485 C480 1.479 . S
C485 C484 1.405 . S
C485 H511 0.931 . S
U486 O487 2.454 . S
U486 O488 2.458 . S
U486 C489 2.984 . S
U486 C490 2.847 . S
U486 C503 2.882 . S
U486 O504 2.441 . S
U486 O505 2.420 . S
U486 O506 2.455 . S
U486 O507 2.449 . S
O487 U486 2.454 . S
O487 C489 1.353 . S
O488 U486 2.458 . S
O488 C489 1.286 . S
C489 U486 2.984 . S
C489 O487 1.353 . S
C489 O488 1.286 . S
C489 C491 1.363 . S
C490 C480 1.465 . S
C490 U486 2.847 . S
C490 O504 1.249 . S
C490 O505 1.202 . S
C491 C489 1.363 . S
C491 C493 1.408 . S
C491 C496 1.342 . S
C492 C493 1.310 . S
C492 C495 1.461 . S
C492 H512 0.932 . S
C493 C491 1.408 . S
C493 C492 1.310 . S
C493 H513 0.930 . S
C494 C495 1.474 . S
C494 C496 1.285 . S
C494 H514 0.929 . S
C495 C492 1.461 . S
C495 C494 1.474 . S
C496 C491 1.342 . S
C496 C494 1.285 . S
C496 H515 0.930 . S
C497 C500 1.424 . S
C497 C502 1.245 . S
C497 C503 1.428 . S
C498 C501 1.260 . S
C498 C502 1.477 . S
C498 H516 0.932 . S
C499 C500 1.384 . S
C499 C501 1.479 . S
C499 H517 0.929 . S
C500 C497 1.424 . S
C500 C499 1.384 . S
C500 H518 0.928 . S
C501 C498 1.260 . S
C501 C499 1.479 . S
C502 C497 1.245 . S
C502 C498 1.477 . S
C502 H519 0.932 . S
C503 U486 2.882 . S
C503 C497 1.428 . S
C503 O506 1.301 . S
C503 O507 1.282 . S
O504 U486 2.441 . S
O504 C490 1.249 . S
O505 U486 2.420 . S
O505 C490 1.202 . S
O506 U486 2.455 . S
O506 C503 1.301 . S
O507 U486 2.449 . S
O507 C503 1.282 . S
H508 C481 0.931 . S
H509 C483 0.929 . S
H510 C484 0.930 . S
H511 C485 0.931 . S
H512 C492 0.932 . S
H513 C493 0.930 . S
H514 C494 0.929 . S
H515 C496 0.930 . S
H516 C498 0.932 . S
H517 C499 0.929 . S
H518 C500 0.928 . S
H519 C502 0.932 . S
C520 C521 1.264 . S
C520 C525 1.479 . S
C520 C530 1.465 . S
C521 C520 1.264 . S
C521 C523 1.339 . S
C521 H548 0.931 . S
C522 C523 1.395 . S
C522 C524 1.320 . S
C523 C521 1.339 . S
C523 C522 1.395 . S
C523 H549 0.929 . S
C524 C522 1.320 . S
C524 C525 1.405 . S
C524 H550 0.930 . S
C525 C520 1.479 . S
C525 C524 1.405 . S
C525 H551 0.931 . S
U526 O527 2.454 . S
U526 O528 2.458 . S
U526 C529 2.984 . S
U526 C530 2.847 . S
U526 C543 2.882 . S
U526 O544 2.441 . S
U526 O545 2.420 . S
U526 O546 2.455 . S
U526 O547 2.449 . S
O527 U526 2.454 . S
O527 C529 1.353 . S
O528 U526 2.458 . S
O528 C529 1.286 . S
C529 U526 2.984 . S
C529 O527 1.353 . S
C529 O528 1.286 . S
C529 C531 1.363 . S
C530 C520 1.465 . S
C530 U526 2.847 . S
C530 O544 1.249 . S
C530 O545 1.202 . S
C531 C529 1.363 . S
C531 C533 1.408 . S
C531 C536 1.342 . S
C532 C533 1.310 . S
C532 C535 1.461 . S
C532 H552 0.932 . S
C533 C531 1.408 . S
C533 C532 1.310 . S
C533 H553 0.930 . S
C534 C535 1.474 . S
C534 C536 1.285 . S
C534 H554 0.929 . S
C535 C532 1.461 . S
C535 C534 1.474 . S
C536 C531 1.342 . S
C536 C534 1.285 . S
C536 H555 0.930 . S
C537 C540 1.424 . S
C537 C542 1.245 . S
C537 C543 1.428 . S
C538 C541 1.260 . S
C538 C542 1.477 . S
C538 H556 0.932 . S
C539 C540 1.384 . S
C539 C541 1.479 . S
C539 H557 0.929 . S
C540 C537 1.424 . S
C540 C539 1.384 . S
C540 H558 0.928 . S
C541 C538 1.260 . S
C541 C539 1.479 . S
C542 C537 1.245 . S
C542 C538 1.477 . S
C542 H559 0.932 . S
C543 U526 2.882 . S
C543 C537 1.428 . S
C543 O546 1.301 . S
C543 O547 1.282 . S
O544 U526 2.441 . S
O544 C530 1.249 . S
O545 U526 2.420 . S
O545 C530 1.202 . S
O546 U526 2.455 . S
O546 C543 1.301 . S
O547 U526 2.449 . S
O547 C543 1.282 . S
H548 C521 0.931 . S
H549 C523 0.929 . S
H550 C524 0.930 . S
H551 C525 0.931 . S
H552 C532 0.932 . S
H553 C533 0.930 . S
H554 C534 0.929 . S
H555 C536 0.930 . S
H556 C538 0.932 . S
H557 C539 0.929 . S
H558 C540 0.928 . S
H559 C542 0.932 . S
C560 C561 1.264 . S
C560 C565 1.479 . S
C560 C570 1.465 . S
C561 C560 1.264 . S
C561 C563 1.339 . S
C561 H588 0.931 . S
C562 C563 1.395 . S
C562 C564 1.320 . S
C563 C561 1.339 . S
C563 C562 1.395 . S
C563 H589 0.929 . S
C564 C562 1.320 . S
C564 C565 1.405 . S
C564 H590 0.930 . S
C565 C560 1.479 . S
C565 C564 1.405 . S
C565 H591 0.931 . S
U566 O567 2.454 . S
U566 O568 2.458 . S
U566 C569 2.984 . S
U566 C570 2.847 . S
U566 C583 2.882 . S
U566 O584 2.441 . S
U566 O585 2.420 . S
U566 O586 2.455 . S
U566 O587 2.449 . S
O567 U566 2.454 . S
O567 C569 1.353 . S
O568 U566 2.458 . S
O568 C569 1.286 . S
C569 U566 2.984 . S
C569 O567 1.353 . S
C569 O568 1.286 . S
C569 C571 1.363 . S
C570 C560 1.465 . S
C570 U566 2.847 . S
C570 O584 1.249 . S
C570 O585 1.202 . S
C571 C569 1.363 . S
C571 C573 1.408 . S
C571 C576 1.342 . S
C572 C573 1.310 . S
C572 C575 1.461 . S
C572 H592 0.932 . S
C573 C571 1.408 . S
C573 C572 1.310 . S
C573 H593 0.930 . S
C574 C575 1.474 . S
C574 C576 1.285 . S
C574 H594 0.929 . S
C575 C572 1.461 . S
C575 C574 1.474 . S
C576 C571 1.342 . S
C576 C574 1.285 . S
C576 H595 0.930 . S
C577 C580 1.424 . S
C577 C582 1.245 . S
C577 C583 1.428 . S
C578 C581 1.260 . S
C578 C582 1.477 . S
C578 H596 0.932 . S
C579 C580 1.384 . S
C579 C581 1.479 . S
C579 H597 0.929 . S
C580 C577 1.424 . S
C580 C579 1.384 . S
C580 H598 0.928 . S
C581 C578 1.260 . S
C581 C579 1.479 . S
C582 C577 1.245 . S
C582 C578 1.477 . S
C582 H599 0.932 . S
C583 U566 2.882 . S
C583 C577 1.428 . S
C583 O586 1.301 . S
C583 O587 1.282 . S
O584 U566 2.441 . S
O584 C570 1.249 . S
O585 U566 2.420 . S
O585 C570 1.202 . S
O586 U566 2.455 . S
O586 C583 1.301 . S
O587 U566 2.449 . S
O587 C583 1.282 . S
H588 C561 0.931 . S
H589 C563 0.929 . S
H590 C564 0.930 . S
H591 C565 0.931 . S
H592 C572 0.932 . S
H593 C573 0.930 . S
H594 C574 0.929 . S
H595 C576 0.930 . S
H596 C578 0.932 . S
H597 C579 0.929 . S
H598 C580 0.928 . S
H599 C582 0.932 . S
C600 C601 1.264 . S
C600 C605 1.479 . S
C600 C610 1.465 . S
C601 C600 1.264 . S
C601 C603 1.339 . S
C601 H628 0.931 . S
C602 C603 1.395 . S
C602 C604 1.320 . S
C603 C601 1.339 . S
C603 C602 1.395 . S
C603 H629 0.929 . S
C604 C602 1.320 . S
C604 C605 1.405 . S
C604 H630 0.930 . S
C605 C600 1.479 . S
C605 C604 1.405 . S
C605 H631 0.931 . S
U606 O607 2.454 . S
U606 O608 2.458 . S
U606 C609 2.984 . S
U606 C610 2.847 . S
U606 C623 2.882 . S
U606 O624 2.441 . S
U606 O625 2.420 . S
U606 O626 2.455 . S
U606 O627 2.449 . S
O607 U606 2.454 . S
O607 C609 1.353 . S
O608 U606 2.458 . S
O608 C609 1.286 . S
C609 U606 2.984 . S
C609 O607 1.353 . S
C609 O608 1.286 . S
C609 C611 1.363 . S
C610 C600 1.465 . S
C610 U606 2.847 . S
C610 O624 1.249 . S
C610 O625 1.202 . S
C611 C609 1.363 . S
C611 C613 1.408 . S
C611 C616 1.342 . S
C612 C613 1.310 . S
C612 C615 1.461 . S
C612 H632 0.932 . S
C613 C611 1.408 . S
C613 C612 1.310 . S
C613 H633 0.930 . S
C614 C615 1.474 . S
C614 C616 1.285 . S
C614 H634 0.929 . S
C615 C612 1.461 . S
C615 C614 1.474 . S
C616 C611 1.342 . S
C616 C614 1.285 . S
C616 H635 0.930 . S
C617 C620 1.424 . S
C617 C622 1.245 . S
C617 C623 1.428 . S
C618 C621 1.260 . S
C618 C622 1.477 . S
C618 H636 0.932 . S
C619 C620 1.384 . S
C619 C621 1.479 . S
C619 H637 0.929 . S
C620 C617 1.424 . S
C620 C619 1.384 . S
C620 H638 0.928 . S
C621 C618 1.260 . S
C621 C619 1.479 . S
C622 C617 1.245 . S
C622 C618 1.477 . S
C622 H639 0.932 . S
C623 U606 2.882 . S
C623 C617 1.428 . S
C623 O626 1.301 . S
C623 O627 1.282 . S
O624 U606 2.441 . S
O624 C610 1.249 . S
O625 U606 2.420 . S
O625 C610 1.202 . S
O626 U606 2.455 . S
O626 C623 1.301 . S
O627 U606 2.449 . S
O627 C623 1.282 . S
H628 C601 0.931 . S
H629 C603 0.929 . S
H630 C604 0.930 . S
H631 C605 0.931 . S
H632 C612 0.932 . S
H633 C613 0.930 . S
H634 C614 0.929 . S
H635 C616 0.930 . S
H636 C618 0.932 . S
H637 C619 0.929 . S
H638 C620 0.928 . S
H639 C622 0.932 . S
H640 C648 0.950 . S
H641 C653 0.950 . S
H642 C650 0.950 . S
H643 C652 0.950 . S
H644 C654 0.950 . S
H645 C656 0.950 . S
H646 C658 0.950 . S
H647 C659 0.950 . S
C648 H640 0.950 . S
C648 C649 1.386 . S
C648 C650 1.391 . S
C649 C648 1.386 . S
C649 C653 1.393 . S
C650 H642 0.950 . S
C650 C648 1.391 . S
C650 C651 1.400 . S
C651 C650 1.400 . S
C651 C652 1.398 . S
C651 C657 1.491 . S
C652 H643 0.950 . S
C652 C651 1.398 . S
C652 C653 1.391 . S
C653 H641 0.950 . S
C653 C649 1.393 . S
C653 C652 1.391 . S
C654 H644 0.950 . S
C654 C655 1.386 . S
C654 C656 1.391 . S
C655 C654 1.386 . S
C655 C659 1.393 . S
C656 H645 0.950 . S
C656 C654 1.391 . S
C656 C657 1.400 . S
C657 C651 1.491 . S
C657 C656 1.400 . S
C657 C658 1.398 . S
C658 H646 0.950 . S
C658 C657 1.398 . S
C658 C659 1.391 . S
C659 H647 0.950 . S
C659 C655 1.393 . S
C659 C658 1.391 . S
H660 C668 0.950 . S
H661 C673 0.950 . S
H662 C670 0.950 . S
H663 C672 0.950 . S
H664 C674 0.950 . S
H665 C676 0.950 . S
H666 C678 0.950 . S
H667 C679 0.950 . S
C668 H660 0.950 . S
C668 C669 1.386 . S
C668 C670 1.391 . S
C669 C668 1.386 . S
C669 C673 1.393 . S
C670 H662 0.950 . S
C670 C668 1.391 . S
C670 C671 1.400 . S
C671 C670 1.400 . S
C671 C672 1.398 . S
C671 C677 1.491 . S
C672 H663 0.950 . S
C672 C671 1.398 . S
C672 C673 1.391 . S
C673 H661 0.950 . S
C673 C669 1.393 . S
C673 C672 1.391 . S
C674 H664 0.950 . S
C674 C675 1.386 . S
C674 C676 1.391 . S
C675 C674 1.386 . S
C675 C679 1.393 . S
C676 H665 0.950 . S
C676 C674 1.391 . S
C676 C677 1.400 . S
C677 C671 1.491 . S
C677 C676 1.400 . S
C677 C678 1.398 . S
C678 H666 0.950 . S
C678 C677 1.398 . S
C678 C679 1.391 . S
C679 H667 0.950 . S
C679 C675 1.393 . S
C679 C678 1.391 . S
H680 C688 0.950 . S
H681 C693 0.950 . S
H682 C690 0.950 . S
H683 C692 0.950 . S
H684 C694 0.950 . S
H685 C696 0.950 . S
H686 C698 0.950 . S
H687 C699 0.950 . S
C688 H680 0.950 . S
C688 C689 1.386 . S
C688 C690 1.391 . S
C689 C688 1.386 . S
C689 C693 1.393 . S
C690 H682 0.950 . S
C690 C688 1.391 . S
C690 C691 1.400 . S
C691 C690 1.400 . S
C691 C692 1.398 . S
C691 C697 1.491 . S
C692 H683 0.950 . S
C692 C691 1.398 . S
C692 C693 1.391 . S
C693 H681 0.950 . S
C693 C689 1.393 . S
C693 C692 1.391 . S
C694 H684 0.950 . S
C694 C695 1.386 . S
C694 C696 1.391 . S
C695 C694 1.386 . S
C695 C699 1.393 . S
C696 H685 0.950 . S
C696 C694 1.391 . S
C696 C697 1.400 . S
C697 C691 1.491 . S
C697 C696 1.400 . S
C697 C698 1.398 . S
C698 H686 0.950 . S
C698 C697 1.398 . S
C698 C699 1.391 . S
C699 H687 0.950 . S
C699 C695 1.393 . S
C699 C698 1.391 . S
H700 C708 0.950 . S
H701 C713 0.950 . S
H702 C710 0.950 . S
H703 C712 0.950 . S
H704 C714 0.950 . S
H705 C716 0.950 . S
H706 C718 0.950 . S
H707 C719 0.950 . S
C708 H700 0.950 . S
C708 C709 1.386 . S
C708 C710 1.391 . S
C709 C708 1.386 . S
C709 C713 1.393 . S
C710 H702 0.950 . S
C710 C708 1.391 . S
C710 C711 1.400 . S
C711 C710 1.400 . S
C711 C712 1.398 . S
C711 C717 1.491 . S
C712 H703 0.950 . S
C712 C711 1.398 . S
C712 C713 1.391 . S
C713 H701 0.950 . S
C713 C709 1.393 . S
C713 C712 1.391 . S
C714 H704 0.950 . S
C714 C715 1.386 . S
C714 C716 1.391 . S
C715 C714 1.386 . S
C715 C719 1.393 . S
C716 H705 0.950 . S
C716 C714 1.391 . S
C716 C717 1.400 . S
C717 C711 1.491 . S
C717 C716 1.400 . S
C717 C718 1.398 . S
C718 H706 0.950 . S
C718 C717 1.398 . S
C718 C719 1.391 . S
C719 H707 0.950 . S
C719 C715 1.393 . S
C719 C718 1.391 . S
H720 C728 0.950 . S
H721 C733 0.950 . S
H722 C730 0.950 . S
H723 C732 0.950 . S
H724 C734 0.950 . S
H725 C736 0.950 . S
H726 C738 0.950 . S
H727 C739 0.950 . S
C728 H720 0.950 . S
C728 C729 1.386 . S
C728 C730 1.391 . S
C729 C728 1.386 . S
C729 C733 1.393 . S
C730 H722 0.950 . S
C730 C728 1.391 . S
C730 C731 1.400 . S
C731 C730 1.400 . S
C731 C732 1.398 . S
C731 C737 1.491 . S
C732 H723 0.950 . S
C732 C731 1.398 . S
C732 C733 1.391 . S
C733 H721 0.950 . S
C733 C729 1.393 . S
C733 C732 1.391 . S
C734 H724 0.950 . S
C734 C735 1.386 . S
C734 C736 1.391 . S
C735 C734 1.386 . S
C735 C739 1.393 . S
C736 H725 0.950 . S
C736 C734 1.391 . S
C736 C737 1.400 . S
C737 C731 1.491 . S
C737 C736 1.400 . S
C737 C738 1.398 . S
C738 H726 0.950 . S
C738 C737 1.398 . S
C738 C739 1.391 . S
C739 H727 0.950 . S
C739 C735 1.393 . S
C739 C738 1.391 . S
H740 C748 0.950 . S
H741 C753 0.950 . S
H742 C750 0.950 . S
H743 C752 0.950 . S
H744 C754 0.950 . S
H745 C756 0.950 . S
H746 C758 0.950 . S
H747 C759 0.950 . S
C748 H740 0.950 . S
C748 C749 1.386 . S
C748 C750 1.391 . S
C749 C748 1.386 . S
C749 C753 1.393 . S
C750 H742 0.950 . S
C750 C748 1.391 . S
C750 C751 1.400 . S
C751 C750 1.400 . S
C751 C752 1.398 . S
C751 C757 1.491 . S
C752 H743 0.950 . S
C752 C751 1.398 . S
C752 C753 1.391 . S
C753 H741 0.950 . S
C753 C749 1.393 . S
C753 C752 1.391 . S
C754 H744 0.950 . S
C754 C755 1.386 . S
C754 C756 1.391 . S
C755 C754 1.386 . S
C755 C759 1.393 . S
C756 H745 0.950 . S
C756 C754 1.391 . S
C756 C757 1.400 . S
C757 C751 1.491 . S
C757 C756 1.400 . S
C757 C758 1.398 . S
C758 H746 0.950 . S
C758 C757 1.398 . S
C758 C759 1.391 . S
C759 H747 0.950 . S
C759 C755 1.393 . S
C759 C758 1.391 . S
H760 C768 0.950 . S
H761 C773 0.950 . S
H762 C770 0.950 . S
H763 C772 0.950 . S
H764 C774 0.950 . S
H765 C776 0.950 . S
H766 C778 0.950 . S
H767 C779 0.950 . S
C768 H760 0.950 . S
C768 C769 1.386 . S
C768 C770 1.391 . S
C769 C768 1.386 . S
C769 C773 1.393 . S
C770 H762 0.950 . S
C770 C768 1.391 . S
C770 C771 1.400 . S
C771 C770 1.400 . S
C771 C772 1.398 . S
C771 C777 1.491 . S
C772 H763 0.950 . S
C772 C771 1.398 . S
C772 C773 1.391 . S
C773 H761 0.950 . S
C773 C769 1.393 . S
C773 C772 1.391 . S
C774 H764 0.950 . S
C774 C775 1.386 . S
C774 C776 1.391 . S
C775 C774 1.386 . S
C775 C779 1.393 . S
C776 H765 0.950 . S
C776 C774 1.391 . S
C776 C777 1.400 . S
C777 C771 1.491 . S
C777 C776 1.400 . S
C777 C778 1.398 . S
C778 H766 0.950 . S
C778 C777 1.398 . S
C778 C779 1.391 . S
C779 H767 0.950 . S
C779 C775 1.393 . S
C779 C778 1.391 . S
H780 C788 0.950 . S
H781 C793 0.950 . S
H782 C790 0.950 . S
H783 C792 0.950 . S
H784 C794 0.950 . S
H785 C796 0.950 . S
H786 C798 0.950 . S
H787 C799 0.950 . S
C788 H780 0.950 . S
C788 C789 1.386 . S
C788 C790 1.391 . S
C789 C788 1.386 . S
C789 C793 1.393 . S
C790 H782 0.950 . S
C790 C788 1.391 . S
C790 C791 1.400 . S
C791 C790 1.400 . S
C791 C792 1.398 . S
C791 C797 1.491 . S
C792 H783 0.950 . S
C792 C791 1.398 . S
C792 C793 1.391 . S
C793 H781 0.950 . S
C793 C789 1.393 . S
C793 C792 1.391 . S
C794 H784 0.950 . S
C794 C795 1.386 . S
C794 C796 1.391 . S
C795 C794 1.386 . S
C795 C799 1.393 . S
C796 H785 0.950 . S
C796 C794 1.391 . S
C796 C797 1.400 . S
C797 C791 1.491 . S
C797 C796 1.400 . S
C797 C798 1.398 . S
C798 H786 0.950 . S
C798 C797 1.398 . S
C798 C799 1.391 . S
C799 H787 0.950 . S
C799 C795 1.393 . S
C799 C798 1.391 . S
H800 C808 0.950 . S
H801 C813 0.950 . S
H802 C810 0.950 1_556 S
H803 C812 0.950 . S
H804 C814 0.950 . S
H805 C816 0.950 1_554 S
H806 C818 0.950 . S
H807 C819 0.950 . S
C808 H800 0.950 . S
C808 C809 1.386 . S
C808 C810 1.391 . S
C809 C808 1.386 . S
C809 C813 1.393 . S
C810 H802 0.950 1_554 S
C810 C808 1.391 . S
C810 C811 1.400 . S
C811 C810 1.400 . S
C811 C812 1.398 . S
C811 C817 1.491 1_554 S
C812 H803 0.950 . S
C812 C811 1.398 . S
C812 C813 1.391 . S
C813 H801 0.950 . S
C813 C809 1.393 . S
C813 C812 1.391 . S
C814 H804 0.950 . S
C814 C815 1.386 . S
C814 C816 1.391 . S
C815 C814 1.386 . S
C815 C819 1.393 . S
C816 H805 0.950 1_556 S
C816 C814 1.391 . S
C816 C817 1.400 . S
C817 C811 1.491 1_556 S
C817 C816 1.400 . S
C817 C818 1.398 . S
C818 H806 0.950 . S
C818 C817 1.398 . S
C818 C819 1.391 . S
C819 H807 0.950 . S
C819 C815 1.393 . S
C819 C818 1.391 . S
H820 C828 0.950 . S
H821 C833 0.950 . S
H822 C830 0.950 . S
H823 C832 0.950 . S
H824 C834 0.950 . S
H825 C836 0.950 . S
H826 C838 0.950 . S
H827 C839 0.950 . S
C828 H820 0.950 . S
C828 C829 1.386 . S
C828 C830 1.391 . S
C829 C828 1.386 . S
C829 C833 1.393 . S
C830 H822 0.950 . S
C830 C828 1.391 . S
C830 C831 1.400 . S
C831 C830 1.400 . S
C831 C832 1.398 . S
C831 C837 1.491 . S
C832 H823 0.950 . S
C832 C831 1.398 . S
C832 C833 1.391 . S
C833 H821 0.950 . S
C833 C829 1.393 . S
C833 C832 1.391 . S
C834 H824 0.950 . S
C834 C835 1.386 . S
C834 C836 1.391 . S
C835 C834 1.386 . S
C835 C839 1.393 . S
C836 H825 0.950 . S
C836 C834 1.391 . S
C836 C837 1.400 . S
C837 C831 1.491 . S
C837 C836 1.400 . S
C837 C838 1.398 . S
C838 H826 0.950 . S
C838 C837 1.398 . S
C838 C839 1.391 . S
C839 H827 0.950 . S
C839 C835 1.393 . S
C839 C838 1.391 . S
H840 C848 0.950 . S
H841 C853 0.950 . S
H842 C850 0.950 . S
H843 C852 0.950 1_554 S
H844 C854 0.950 . S
H845 C856 0.950 . S
H846 C858 0.950 1_556 S
H847 C859 0.950 . S
C848 H840 0.950 . S
C848 C849 1.386 . S
C848 C850 1.391 . S
C849 C848 1.386 . S
C849 C853 1.393 . S
C850 H842 0.950 . S
C850 C848 1.391 . S
C850 C851 1.400 . S
C851 C850 1.400 . S
C851 C852 1.398 . S
C851 C857 1.491 1_556 S
C852 H843 0.950 1_556 S
C852 C851 1.398 . S
C852 C853 1.391 . S
C853 H841 0.950 . S
C853 C849 1.393 . S
C853 C852 1.391 . S
C854 H844 0.950 . S
C854 C855 1.386 . S
C854 C856 1.391 . S
C855 C854 1.386 . S
C855 C859 1.393 . S
C856 H845 0.950 . S
C856 C854 1.391 . S
C856 C857 1.400 . S
C857 C851 1.491 1_554 S
C857 C856 1.400 . S
C857 C858 1.398 . S
C858 H846 0.950 1_554 S
C858 C857 1.398 . S
C858 C859 1.391 . S
C859 H847 0.950 . S
C859 C855 1.393 . S
C859 C858 1.391 . S
H860 C868 0.950 . S
H861 C873 0.950 . S
H862 C870 0.950 . S
H863 C872 0.950 . S
H864 C874 0.950 . S
H865 C876 0.950 . S
H866 C878 0.950 . S
H867 C879 0.950 . S
C868 H860 0.950 . S
C868 C869 1.386 . S
C868 C870 1.391 . S
C869 C868 1.386 . S
C869 C873 1.393 . S
C870 H862 0.950 . S
C870 C868 1.391 . S
C870 C871 1.400 . S
C871 C870 1.400 . S
C871 C872 1.398 . S
C871 C877 1.491 . S
C872 H863 0.950 . S
C872 C871 1.398 . S
C872 C873 1.391 . S
C873 H861 0.950 . S
C873 C869 1.393 . S
C873 C872 1.391 . S
C874 H864 0.950 . S
C874 C875 1.386 . S
C874 C876 1.391 . S
C875 C874 1.386 . S
C875 C879 1.393 . S
C876 H865 0.950 . S
C876 C874 1.391 . S
C876 C877 1.400 . S
C877 C871 1.491 . S
C877 C876 1.400 . S
C877 C878 1.398 . S
C878 H866 0.950 . S
C878 C877 1.398 . S
C878 C879 1.391 . S
C879 H867 0.950 . S
C879 C875 1.393 . S
C879 C878 1.391 . S
H880 C888 0.950 . S
H881 C893 0.950 . S
H882 C890 0.950 . S
H883 C892 0.950 . S
H884 C894 0.950 . S
H885 C896 0.950 . S
H886 C898 0.950 . S
H887 C899 0.950 . S
C888 H880 0.950 . S
C888 C889 1.386 . S
C888 C890 1.391 . S
C889 C888 1.386 . S
C889 C893 1.393 . S
C890 H882 0.950 . S
C890 C888 1.391 . S
C890 C891 1.400 . S
C891 C890 1.400 . S
C891 C892 1.398 . S
C891 C897 1.491 1_554 S
C892 H883 0.950 . S
C892 C891 1.398 . S
C892 C893 1.391 . S
C893 H881 0.950 . S
C893 C889 1.393 . S
C893 C892 1.391 . S
C894 H884 0.950 . S
C894 C895 1.386 . S
C894 C896 1.391 . S
C895 C894 1.386 . S
C895 C899 1.393 . S
C896 H885 0.950 . S
C896 C894 1.391 . S
C896 C897 1.400 . S
C897 C891 1.491 1_556 S
C897 C896 1.400 . S
C897 C898 1.398 . S
C898 H886 0.950 . S
C898 C897 1.398 . S
C898 C899 1.391 . S
C899 H887 0.950 . S
C899 C895 1.393 . S
C899 C898 1.391 . S
H900 C908 0.950 . S
H901 C913 0.950 . S
H902 C910 0.950 . S
H903 C912 0.950 . S
H904 C914 0.950 . S
H905 C916 0.950 . S
H906 C918 0.950 . S
H907 C919 0.950 . S
C908 H900 0.950 . S
C908 C909 1.386 . S
C908 C910 1.391 . S
C909 C908 1.386 . S
C909 C913 1.393 . S
C910 H902 0.950 . S
C910 C908 1.391 . S
C910 C911 1.400 . S
C911 C910 1.400 . S
C911 C912 1.398 . S
C911 C917 1.491 . S
C912 H903 0.950 . S
C912 C911 1.398 . S
C912 C913 1.391 . S
C913 H901 0.950 . S
C913 C909 1.393 . S
C913 C912 1.391 . S
C914 H904 0.950 . S
C914 C915 1.386 . S
C914 C916 1.391 . S
C915 C914 1.386 . S
C915 C919 1.393 . S
C916 H905 0.950 . S
C916 C914 1.391 . S
C916 C917 1.400 . S
C917 C911 1.491 . S
C917 C916 1.400 . S
C917 C918 1.398 . S
C918 H906 0.950 . S
C918 C917 1.398 . S
C918 C919 1.391 . S
C919 H907 0.950 . S
C919 C915 1.393 . S
C919 C918 1.391 . S
H920 C928 0.950 . S
H921 C933 0.950 1_556 S
H922 C930 0.950 . S
H923 C932 0.950 . S
H924 C934 0.950 . S
H925 C936 0.950 . S
H926 C938 0.950 . S
H927 C939 0.950 1_554 S
C928 H920 0.950 . S
C928 C929 1.386 . S
C928 C930 1.391 . S
C929 C928 1.386 . S
C929 C933 1.393 . S
C930 H922 0.950 . S
C930 C928 1.391 . S
C930 C931 1.400 . S
C931 C930 1.400 . S
C931 C932 1.398 1_554 S
C931 C937 1.491 1_554 S
C932 H923 0.950 . S
C932 C931 1.398 1_556 S
C932 C933 1.391 1_556 S
C933 H921 0.950 1_554 S
C933 C929 1.393 . S
C933 C932 1.391 1_554 S
C934 H924 0.950 . S
C934 C935 1.386 . S
C934 C936 1.391 . S
C935 C934 1.386 . S
C935 C939 1.393 . S
C936 H925 0.950 . S
C936 C934 1.391 . S
C936 C937 1.400 . S
C937 C931 1.491 1_556 S
C937 C936 1.400 . S
C937 C938 1.398 1_556 S
C938 H926 0.950 . S
C938 C937 1.398 1_554 S
C938 C939 1.391 1_554 S
C939 H927 0.950 1_556 S
C939 C935 1.393 . S
C939 C938 1.391 1_556 S
H940 C948 0.950 . S
H941 C953 0.950 . S
H942 C950 0.950 . S
H943 C952 0.950 . S
H944 C954 0.950 . S
H945 C956 0.950 . S
H946 C958 0.950 . S
H947 C959 0.950 . S
C948 H940 0.950 . S
C948 C949 1.386 . S
C948 C950 1.391 . S
C949 C948 1.386 . S
C949 C953 1.393 . S
C950 H942 0.950 . S
C950 C948 1.391 . S
C950 C951 1.400 . S
C951 C950 1.400 . S
C951 C952 1.398 . S
C951 C957 1.491 . S
C952 H943 0.950 . S
C952 C951 1.398 . S
C952 C953 1.391 . S
C953 H941 0.950 . S
C953 C949 1.393 . S
C953 C952 1.391 . S
C954 H944 0.950 . S
C954 C955 1.386 . S
C954 C956 1.391 . S
C955 C954 1.386 . S
C955 C959 1.393 . S
C956 H945 0.950 . S
C956 C954 1.391 . S
C956 C957 1.400 . S
C957 C951 1.491 . S
C957 C956 1.400 . S
C957 C958 1.398 . S
C958 H946 0.950 . S
C958 C957 1.398 . S
C958 C959 1.391 . S
C959 H947 0.950 . S
C959 C955 1.393 . S
C959 C958 1.391 . S
H960 C968 0.982 . S
H961 C973 0.950 . S
H962 C970 0.950 . S
H963 C972 0.950 . S
H964 C974 0.982 . S
H965 C976 0.950 . S
H966 C978 0.950 . S
H967 C979 0.950 . S
C968 H960 0.982 . S
C968 C969 1.337 1_554 S
C968 C970 1.410 . S
C969 C968 1.337 1_556 S
C969 C973 1.393 . S
C970 H962 0.950 . S
C970 C968 1.410 . S
C970 C971 1.400 1_554 S
C971 C970 1.400 1_556 S
C971 C972 1.398 . S
C971 C977 1.491 1_656 S
C972 H963 0.950 . S
C972 C971 1.398 . S
C972 C973 1.391 . S
C973 H961 0.950 . S
C973 C969 1.393 . S
C973 C972 1.391 . S
C974 H964 0.982 . S
C974 C975 1.337 1_556 S
C974 C976 1.410 . S
C975 C974 1.337 1_554 S
C975 C979 1.393 . S
C976 H965 0.950 . S
C976 C974 1.410 . S
C976 C977 1.400 1_556 S
C977 C971 1.491 1_454 S
C977 C976 1.400 1_554 S
C977 C978 1.398 . S
C978 H966 0.950 . S
C978 C977 1.398 . S
C978 C979 1.391 . S
C979 H967 0.950 . S
C979 C975 1.393 . S
C979 C978 1.391 . S
H980 C988 0.950 . S
H981 C993 0.950 . S
H982 C990 0.950 1_565 S
H983 C992 0.891 1_655 S
H984 C994 0.950 . S
H985 C996 0.950 1_545 S
H986 C998 0.891 1_455 S
H987 C999 0.950 . S
C988 H980 0.950 . S
C988 C989 1.386 . S
C988 C990 1.391 . S
C989 C988 1.386 . S
C989 C993 1.393 . S
C990 H982 0.950 1_545 S
C990 C988 1.391 . S
C990 C991 1.400 . S
C991 C990 1.400 . S
C991 C992 1.417 . S
C991 C997 1.491 1_445 S
C992 H983 0.891 1_455 S
C992 C991 1.417 . S
C992 C993 1.432 . S
C993 H981 0.950 . S
C993 C989 1.393 . S
C993 C992 1.432 . S
C994 H984 0.950 . S
C994 C995 1.386 . S
C994 C996 1.391 . S
C995 C994 1.386 . S
C995 C999 1.393 . S
C996 H985 0.950 1_565 S
C996 C994 1.391 . S
C996 C997 1.400 . S
C997 C991 1.491 1_665 S
C997 C996 1.400 . S
C997 C998 1.417 . S
C998 H986 0.891 1_655 S
C998 C997 1.417 . S
C998 C999 1.432 . S
C999 H987 0.950 . S
C999 C995 1.393 . S
C999 C998 1.432 . S
H1000 C1008 0.940 1_556 S
H1001 C1013 0.950 . S
H1002 C1010 0.950 1_565 S
H1003 C1012 0.950 . S
H1004 C1014 0.940 1_554 S
H1005 C1016 0.950 1_545 S
H1006 C1018 0.950 . S
H1007 C1019 0.950 . S
C1008 H1000 0.940 1_554 S
C1008 C1009 1.403 . S
C1008 C1010 1.385 1_554 S
C1009 C1008 1.403 . S
C1009 C1013 1.393 . S
C1010 H1002 0.950 1_545 S
C1010 C1008 1.385 1_556 S
C1010 C1011 1.400 1_556 S
C1011 C1010 1.400 1_554 S
C1011 C1012 1.398 . S
C1011 C1017 1.491 1_544 S
C1012 H1003 0.950 . S
C1012 C1011 1.398 . S
C1012 C1013 1.391 . S
C1013 H1001 0.950 . S
C1013 C1009 1.393 . S
C1013 C1012 1.391 . S
C1014 H1004 0.940 1_556 S
C1014 C1015 1.403 . S
C1014 C1016 1.385 1_556 S
C1015 C1014 1.403 . S
C1015 C1019 1.393 . S
C1016 H1005 0.950 1_565 S
C1016 C1014 1.385 1_554 S
C1016 C1017 1.400 1_554 S
C1017 C1011 1.491 1_566 S
C1017 C1016 1.400 1_556 S
C1017 C1018 1.398 . S
C1018 H1006 0.950 . S
C1018 C1017 1.398 . S
C1018 C1019 1.391 . S
C1019 H1007 0.950 . S
C1019 C1015 1.393 . S
C1019 C1018 1.391 . S
H1020 C1028 0.950 . S
H1021 C1033 0.950 . S
H1022 C1030 0.950 . S
H1023 C1032 0.950 . S
H1024 C1034 0.950 . S
H1025 C1036 0.950 . S
H1026 C1038 0.950 . S
H1027 C1039 0.950 . S
C1028 H1020 0.950 . S
C1028 C1029 1.386 . S
C1028 C1030 1.391 . S
C1029 C1028 1.386 . S
C1029 C1033 1.393 . S
C1030 H1022 0.950 . S
C1030 C1028 1.391 . S
C1030 C1031 1.400 . S
C1031 C1030 1.400 . S
C1031 C1032 1.398 . S
C1031 C1037 1.491 . S
C1032 H1023 0.950 . S
C1032 C1031 1.398 . S
C1032 C1033 1.391 . S
C1033 H1021 0.950 . S
C1033 C1029 1.393 . S
C1033 C1032 1.391 . S
C1034 H1024 0.950 . S
C1034 C1035 1.386 . S
C1034 C1036 1.391 . S
C1035 C1034 1.386 . S
C1035 C1039 1.393 . S
C1036 H1025 0.950 . S
C1036 C1034 1.391 . S
C1036 C1037 1.400 . S
C1037 C1031 1.491 . S
C1037 C1036 1.400 . S
C1037 C1038 1.398 . S
C1038 H1026 0.950 . S
C1038 C1037 1.398 . S
C1038 C1039 1.391 . S
C1039 H1027 0.950 . S
C1039 C1035 1.393 . S
C1039 C1038 1.391 . S
H1040 C1048 0.950 . S
H1041 C1053 0.950 . S
H1042 C1050 0.950 . S
H1043 C1052 0.910 1_565 S
H1044 C1054 0.950 . S
H1045 C1056 0.950 . S
H1046 C1058 0.910 1_545 S
H1047 C1059 0.950 . S
C1048 H1040 0.950 . S
C1048 C1049 1.386 1_554 S
C1048 C1050 1.391 . S
C1049 C1048 1.386 1_556 S
C1049 C1053 1.393 . S
C1050 H1042 0.950 . S
C1050 C1048 1.391 . S
C1050 C1051 1.400 1_554 S
C1051 C1050 1.400 1_556 S
C1051 C1052 1.398 . S
C1051 C1057 1.491 1_446 S
C1052 H1043 0.910 1_545 S
C1052 C1051 1.398 . S
C1052 C1053 1.391 . S
C1053 H1041 0.950 . S
C1053 C1049 1.393 . S
C1053 C1052 1.391 . S
C1054 H1044 0.950 . S
C1054 C1055 1.386 1_556 S
C1054 C1056 1.391 . S
C1055 C1054 1.386 1_554 S
C1055 C1059 1.393 . S
C1056 H1045 0.950 . S
C1056 C1054 1.391 . S
C1056 C1057 1.400 1_556 S
C1057 C1051 1.491 1_664 S
C1057 C1056 1.400 1_554 S
C1057 C1058 1.398 . S
C1058 H1046 0.910 1_565 S
C1058 C1057 1.398 . S
C1058 C1059 1.391 . S
C1059 H1047 0.950 . S
C1059 C1055 1.393 . S
C1059 C1058 1.391 . S
H1060 C1068 0.950 . S
H1061 C1073 0.950 . S
H1062 C1070 0.950 . S
H1063 C1072 0.950 1_565 S
H1064 C1074 0.950 . S
H1065 C1076 0.950 . S
H1066 C1078 0.950 1_545 S
H1067 C1079 0.950 . S
C1068 H1060 0.950 . S
C1068 C1069 1.386 . S
C1068 C1070 1.391 . S
C1069 C1068 1.386 . S
C1069 C1073 1.393 . S
C1070 H1062 0.950 . S
C1070 C1068 1.391 . S
C1070 C1071 1.400 . S
C1071 C1070 1.400 . S
C1071 C1072 1.398 . S
C1071 C1077 1.491 1_545 S
C1072 H1063 0.950 1_545 S
C1072 C1071 1.398 . S
C1072 C1073 1.391 . S
C1073 H1061 0.950 . S
C1073 C1069 1.393 . S
C1073 C1072 1.391 . S
C1074 H1064 0.950 . S
C1074 C1075 1.386 . S
C1074 C1076 1.391 . S
C1075 C1074 1.386 . S
C1075 C1079 1.393 . S
C1076 H1065 0.950 . S
C1076 C1074 1.391 . S
C1076 C1077 1.400 . S
C1077 C1071 1.491 1_565 S
C1077 C1076 1.400 . S
C1077 C1078 1.398 . S
C1078 H1066 0.950 1_565 S
C1078 C1077 1.398 . S
C1078 C1079 1.391 . S
C1079 H1067 0.950 . S
C1079 C1075 1.393 . S
C1079 C1078 1.391 . S
H1080 C1088 0.950 . S
H1081 C1093 0.950 . S
H1082 C1090 0.950 . S
H1083 C1092 0.950 . S
H1084 C1094 0.950 . S
H1085 C1096 0.950 . S
H1086 C1098 0.950 . S
H1087 C1099 0.950 . S
C1088 H1080 0.950 . S
C1088 C1089 1.386 1_556 S
C1088 C1090 1.391 . S
C1089 C1088 1.386 1_554 S
C1089 C1093 1.393 . S
C1090 H1082 0.950 . S
C1090 C1088 1.391 . S
C1090 C1091 1.400 1_556 S
C1091 C1090 1.400 1_554 S
C1091 C1092 1.398 . S
C1091 C1097 1.491 1_554 S
C1092 H1083 0.950 . S
C1092 C1091 1.398 . S
C1092 C1093 1.391 . S
C1093 H1081 0.950 . S
C1093 C1089 1.393 . S
C1093 C1092 1.391 . S
C1094 H1084 0.950 . S
C1094 C1095 1.386 1_554 S
C1094 C1096 1.391 . S
C1095 C1094 1.386 1_556 S
C1095 C1099 1.393 . S
C1096 H1085 0.950 . S
C1096 C1094 1.391 . S
C1096 C1097 1.400 1_554 S
C1097 C1091 1.491 1_556 S
C1097 C1096 1.400 1_556 S
C1097 C1098 1.398 . S
C1098 H1086 0.950 . S
C1098 C1097 1.398 . S
C1098 C1099 1.391 . S
C1099 H1087 0.950 . S
C1099 C1095 1.393 . S
C1099 C1098 1.391 . S
H1100 C1108 0.950 . S
H1101 C1113 0.950 . S
H1102 C1110 0.950 . S
H1103 C1112 0.912 1_455 S
H1104 C1114 0.950 . S
H1105 C1116 0.950 . S
H1106 C1118 0.912 1_655 S
H1107 C1119 0.950 . S
C1108 H1100 0.950 . S
C1108 C1109 1.386 . S
C1108 C1110 1.391 . S
C1109 C1108 1.386 . S
C1109 C1113 1.393 . S
C1110 H1102 0.950 . S
C1110 C1108 1.391 . S
C1110 C1111 1.400 . S
C1111 C1110 1.400 . S
C1111 C1112 1.411 . S
C1111 C1117 1.491 1_655 S
C1112 H1103 0.912 1_655 S
C1112 C1111 1.411 . S
C1112 C1113 1.417 . S
C1113 H1101 0.950 . S
C1113 C1109 1.393 . S
C1113 C1112 1.417 . S
C1114 H1104 0.950 . S
C1114 C1115 1.386 . S
C1114 C1116 1.391 . S
C1115 C1114 1.386 . S
C1115 C1119 1.393 . S
C1116 H1105 0.950 . S
C1116 C1114 1.391 . S
C1116 C1117 1.400 . S
C1117 C1111 1.491 1_455 S
C1117 C1116 1.400 . S
C1117 C1118 1.411 . S
C1118 H1106 0.912 1_455 S
C1118 C1117 1.411 . S
C1118 C1119 1.417 . S
C1119 H1107 0.950 . S
C1119 C1115 1.393 . S
C1119 C1118 1.417 . S
C649 C21 1.721 . S
C655 C301 1.730 . S
C669 C61 1.732 . S
C675 C181 1.731 . S
C689 C221 1.708 . S
C695 C101 1.711 . S
C709 C261 1.715 . S
C715 C141 1.708 . S
C729 C341 1.799 . S
C735 C621 1.800 . S
C749 C501 1.799 . S
C755 C381 1.800 . S
C769 C541 1.798 . S
C775 C421 1.799 . S
C789 C461 1.801 . S
C795 C581 1.801 . S
C809 C15 1.697 . S
C815 C175 1.696 . S
C829 C215 1.701 . S
C835 C55 1.703 . S
C849 C255 1.695 . S
C855 C95 1.698 . S
C869 C135 1.695 . S
C875 C295 1.698 . S
C889 C495 1.701 . S
C895 C335 1.700 . S
C909 C535 1.699 . S
C915 C375 1.701 . S
C929 C575 1.706 . S
C935 C415 1.702 . S
C949 C455 1.699 . S
C955 C615 1.703 . S
C969 C322 1.854 . S
C975 C2 1.775 . S
C989 C42 1.766 . S
C995 C362 1.853 . S
C1009 C82 1.756 . S
C1015 C402 1.847 . S
C1029 C442 1.851 . S
C1035 C122 1.761 . S
C1049 C162 1.750 . S
C1055 C482 1.846 . S
C1069 C202 1.755 . S
C1075 C522 1.847 . S
C1089 C562 1.855 . S
C1095 C242 1.775 . S
C1109 C602 1.854 . S
C1115 C282 1.775 . S
