# Generated by pormake.
# Topology ukn, (4)-cn, num edge types: 1
# Building blocks:
#     Node 0, Type 0, BuildingBlock: KUFVIS_clean_sbu_0, # of connection points: 4
#     Node 1, Type 0, BuildingBlock: KUFVIS_clean_sbu_0, # of connection points: 4
#     Node 2, Type 0, BuildingBlock: KUFVIS_clean_sbu_0, # of connection points: 4
#     Node 3, Type 0, BuildingBlock: KUFVIS_clean_sbu_0, # of connection points: 4
#     Node 4, Type 0, BuildingBlock: KUFVIS_clean_sbu_0, # of connection points: 4
#     Node 5, Type 0, BuildingBlock: KUFVIS_clean_sbu_0, # of connection points: 4
#     Node 6, Type 0, BuildingBlock: KUFVIS_clean_sbu_0, # of connection points: 4
#     Node 7, Type 0, BuildingBlock: KUFVIS_clean_sbu_0, # of connection points: 4
#     Node 8, Type 0, BuildingBlock: KUFVIS_clean_sbu_0, # of connection points: 4
#     Node 9, Type 0, BuildingBlock: KUFVIS_clean_sbu_0, # of connection points: 4
#     Node 10, Type 0, BuildingBlock: KUFVIS_clean_sbu_0, # of connection points: 4
#     Node 11, Type 0, BuildingBlock: KUFVIS_clean_sbu_0, # of connection points: 4
#     Node 12, Type 0, BuildingBlock: KUFVIS_clean_sbu_0, # of connection points: 4
#     Node 13, Type 0, BuildingBlock: KUFVIS_clean_sbu_0, # of connection points: 4
#     Node 14, Type 0, BuildingBlock: KUFVIS_clean_sbu_0, # of connection points: 4
#     Node 15, Type 0, BuildingBlock: KUFVIS_clean_sbu_0, # of connection points: 4
#     Node 16, Type 0, BuildingBlock: KUFVIS_clean_sbu_0, # of connection points: 4
#     Node 17, Type 0, BuildingBlock: KUFVIS_clean_sbu_0, # of connection points: 4
#     Node 18, Type 0, BuildingBlock: KUFVIS_clean_sbu_0, # of connection points: 4
#     Node 19, Type 0, BuildingBlock: KUFVIS_clean_sbu_0, # of connection points: 4
#     Node 20, Type 0, BuildingBlock: KUFVIS_clean_sbu_0, # of connection points: 4
#     Node 21, Type 0, BuildingBlock: KUFVIS_clean_sbu_0, # of connection points: 4
#     Node 22, Type 0, BuildingBlock: KUFVIS_clean_sbu_0, # of connection points: 4
#     Node 23, Type 0, BuildingBlock: KUFVIS_clean_sbu_0, # of connection points: 4
#     Node 24, Type 0, BuildingBlock: KUFVIS_clean_sbu_0, # of connection points: 4
#     Node 25, Type 0, BuildingBlock: KUFVIS_clean_sbu_0, # of connection points: 4
#     Node 26, Type 0, BuildingBlock: KUFVIS_clean_sbu_0, # of connection points: 4
#     Node 27, Type 0, BuildingBlock: KUFVIS_clean_sbu_0, # of connection points: 4
#     Node 28, Type 0, BuildingBlock: KUFVIS_clean_sbu_0, # of connection points: 4
#     Node 29, Type 0, BuildingBlock: KUFVIS_clean_sbu_0, # of connection points: 4
#     Node 30, Type 0, BuildingBlock: KUFVIS_clean_sbu_0, # of connection points: 4
#     Node 31, Type 0, BuildingBlock: KUFVIS_clean_sbu_0, # of connection points: 4
#     Node 32, Type 0, BuildingBlock: KUFVIS_clean_sbu_0, # of connection points: 4
#     Node 33, Type 0, BuildingBlock: KUFVIS_clean_sbu_0, # of connection points: 4
#     Node 34, Type 0, BuildingBlock: KUFVIS_clean_sbu_0, # of connection points: 4
#     Node 35, Type 0, BuildingBlock: KUFVIS_clean_sbu_0, # of connection points: 4
#     Edge 36, Type (0, 0), None
#     Edge 37, Type (0, 0), None
#     Edge 38, Type (0, 0), None
#     Edge 39, Type (0, 0), None
#     Edge 40, Type (0, 0), None
#     Edge 41, Type (0, 0), None
#     Edge 42, Type (0, 0), None
#     Edge 43, Type (0, 0), None
#     Edge 44, Type (0, 0), None
#     Edge 45, Type (0, 0), None
#     Edge 46, Type (0, 0), None
#     Edge 47, Type (0, 0), None
#     Edge 48, Type (0, 0), None
#     Edge 49, Type (0, 0), None
#     Edge 50, Type (0, 0), None
#     Edge 51, Type (0, 0), None
#     Edge 52, Type (0, 0), None
#     Edge 53, Type (0, 0), None
#     Edge 54, Type (0, 0), None
#     Edge 55, Type (0, 0), None
#     Edge 56, Type (0, 0), None
#     Edge 57, Type (0, 0), None
#     Edge 58, Type (0, 0), None
#     Edge 59, Type (0, 0), None
#     Edge 60, Type (0, 0), None
#     Edge 61, Type (0, 0), None
#     Edge 62, Type (0, 0), None
#     Edge 63, Type (0, 0), None
#     Edge 64, Type (0, 0), None
#     Edge 65, Type (0, 0), None
#     Edge 66, Type (0, 0), None
#     Edge 67, Type (0, 0), None
#     Edge 68, Type (0, 0), None
#     Edge 69, Type (0, 0), None
#     Edge 70, Type (0, 0), None
#     Edge 71, Type (0, 0), None
#     Edge 72, Type (0, 0), None
#     Edge 73, Type (0, 0), None
#     Edge 74, Type (0, 0), None
#     Edge 75, Type (0, 0), None
#     Edge 76, Type (0, 0), None
#     Edge 77, Type (0, 0), None
#     Edge 78, Type (0, 0), None
#     Edge 79, Type (0, 0), None
#     Edge 80, Type (0, 0), None
#     Edge 81, Type (0, 0), None
#     Edge 82, Type (0, 0), None
#     Edge 83, Type (0, 0), None
#     Edge 84, Type (0, 0), None
#     Edge 85, Type (0, 0), None
#     Edge 86, Type (0, 0), None
#     Edge 87, Type (0, 0), None
#     Edge 88, Type (0, 0), None
#     Edge 89, Type (0, 0), None
#     Edge 90, Type (0, 0), None
#     Edge 91, Type (0, 0), None
#     Edge 92, Type (0, 0), None
#     Edge 93, Type (0, 0), None
#     Edge 94, Type (0, 0), None
#     Edge 95, Type (0, 0), None
#     Edge 96, Type (0, 0), None
#     Edge 97, Type (0, 0), None
#     Edge 98, Type (0, 0), None
#     Edge 99, Type (0, 0), None
#     Edge 100, Type (0, 0), None
#     Edge 101, Type (0, 0), None
#     Edge 102, Type (0, 0), None
#     Edge 103, Type (0, 0), None
#     Edge 104, Type (0, 0), None
#     Edge 105, Type (0, 0), None
#     Edge 106, Type (0, 0), None
#     Edge 107, Type (0, 0), None
# Relax obj value: 0.082
# Max RMSD: 0.109
# Mean RMSD: 0.109
data_MOF--net-ukn--node1-KUFVIS_clean_sbu_0--edge1-none
_symmetry_space_group_name_H-M    P1
_symmetry_Int_Tables_number       1
_symmetry_cell_setting            triclinic
loop_
_symmetry_equiv_pos_as_xyz
'x, y, z'
_cell_length_a     49.66058
_cell_length_b     49.656089
_cell_length_c     11.608161
_cell_angle_alpha  89.846245
_cell_angle_beta   90.024284
_cell_angle_gamma 120.28381
loop_
_atom_site_label
_atom_site_type_symbol
_atom_site_fract_x
_atom_site_fract_y
_atom_site_fract_z
_atom_type_partial_charge
Mn0 Mn 0.08317 0.30041 0.04628 0.0
Mn1 Mn 0.13578 0.37558 0.09173 0.0
C2 C 0.10307 0.3306 0.87903 0.0
C3 C 0.02741 0.26974 0.0254 0.0
C4 C 0.15029 0.32067 0.09807 0.0
O5 O 0.08686 0.30762 0.22425 0.0
O6 O 0.10146 0.35658 0.20107 0.0
C7 C 0.09039 0.39617 0.06217 0.0
N8 N 0.11893 0.40043 0.03338 0.0
C9 C 0.12838 0.44245 0.90412 0.0
C10 C 0.09986 0.43904 0.93946 0.0
C11 C 0.08051 0.41545 0.01589 0.0
C12 C 0.13681 0.42186 0.95167 0.0
H13 H 0.07488 0.37827 0.12114 0.0
C14 C 0.0958 0.33452 0.26697 0.0
O15 O 0.04365 0.25649 0.04933 0.0
O16 O 0.04258 0.29964 0.03196 0.0
N17 N 0.17156 0.40155 -0.00029 0.0
C18 C 0.20432 0.40398 0.01393 0.0
C19 C 0.24528 0.44779 0.87326 0.0
C20 C 0.22709 0.46468 0.80342 0.0
C21 C 0.18889 0.45272 0.83108 0.0
C22 C 0.16441 0.42381 0.92351 0.0
H23 H 0.1803 0.39634 0.02622 0.0
O24 O 0.08402 0.30112 0.87569 0.0
O25 O 0.11015 0.34242 0.98204 0.0
O26 O 0.12422 0.29856 0.05704 0.0
O27 O 0.15343 0.34701 0.13691 0.0
C28 C 0.17707 0.47093 0.78924 0.0
C29 C 0.14826 0.46648 0.82713 0.0
H30 H 0.09354 0.45603 0.9145 0.0
H31 H 0.05857 0.41286 0.04371 0.0
H32 H 0.26976 0.45575 0.85477 0.0
H33 H 0.24033 0.48383 0.74454 0.0
H34 H 0.19128 0.49034 0.73252 0.0
H35 H 0.14163 0.48294 0.79677 0.0
Mn36 Mn 0.71174 0.78285 0.06786 0.0
Mn37 Mn 0.64214 0.77484 0.08328 0.0
C38 C 0.68492 0.77581 0.9002 0.0
C39 C 0.74312 0.75807 0.02419 0.0
C40 C 0.69306 0.83583 0.07449 0.0
O41 O 0.69982 0.7691 0.23732 0.0
O42 O 0.66612 0.78595 0.23012 0.0
C43 C 0.6203 0.71797 0.22254 0.0
N44 N 0.61446 0.73475 0.14421 0.0
C45 C 0.57178 0.73052 0.25431 0.0
C46 C 0.57786 0.71389 0.33876 0.0
C47 C 0.60112 0.70618 0.32001 0.0
C48 C 0.58963 0.73849 0.15287 0.0
H49 H 0.64052 0.71534 0.21348 0.0
C50 C 0.67995 0.77454 0.28643 0.0
O51 O 0.75592 0.78648 0.06207 0.0
O52 O 0.71341 0.74368 0.02934 0.0
N53 N 0.61218 0.76587 0.96307 0.0
C54 C 0.62027 0.78781 0.85179 0.0
C55 C 0.60253 0.80936 0.83281 0.0
C56 C 0.56337 0.79782 0.00707 0.0
C57 C 0.56415 0.771 0.09627 0.0
C58 C 0.58771 0.75668 0.06822 0.0
H59 H 0.62002 0.77352 0.9187 0.0
O60 O 0.71472 0.7905 0.9035 0.0
O61 O 0.66979 0.76403 -0.00242 0.0
O62 O 0.71347 0.82771 0.10477 0.0
O63 O 0.66839 0.81636 0.02505 0.0
C64 C 0.54653 0.76063 0.19685 0.0
C65 C 0.55006 0.74053 0.27318 0.0
H66 H 0.56471 0.70682 0.41846 0.0
H67 H 0.60547 0.69291 0.38383 0.0
H68 H 0.60809 0.82415 0.7568 0.0
H69 H 0.54783 0.80668 0.02905 0.0
H70 H 0.53059 0.76873 0.21817 0.0
H71 H 0.53646 0.73378 0.35191 0.0
Mn72 Mn 0.23656 0.93488 0.04634 0.0
Mn73 Mn 0.24453 0.87279 0.08184 0.0
C74 C 0.24698 0.91553 0.88579 0.0
C75 C 0.25845 0.99074 0.01721 0.0
C76 C 0.18347 0.86332 0.02179 0.0
O77 O 0.24564 0.9348 0.22205 0.0
O78 O 0.22772 0.88487 0.21129 0.0
C79 C 0.30199 0.91191 0.22719 0.0
N80 N 0.2841 0.88766 0.15567 0.0
C81 C 0.31082 0.86076 0.21088 0.0
C82 C 0.32681 0.88332 0.29592 0.0
C83 C 0.32376 0.91 0.29944 0.0
C84 C 0.29105 0.86517 0.13787 0.0
H85 H 0.29946 0.93223 0.23063 0.0
C86 C 0.24149 0.90961 0.26853 0.0
O87 O 0.22925 0.97265 0.04426 0.0
O88 O 0.27496 0.9775 0.02506 0.0
N89 N 0.25907 0.85326 0.9776 0.0
C90 C 0.24713 0.83779 0.87734 0.0
C91 C 0.25958 0.82029 0.83057 0.0
C92 C 0.27732 0.81193 0.90035 0.0
C93 C 0.286 0.82485 0.01036 0.0
C94 C 0.27852 0.84747 0.04102 0.0
H95 H 0.22944 0.84011 0.83188 0.0
O96 O 0.23486 0.93293 0.88152 0.0
O97 O 0.25648 0.91129 -0.01228 0.0
O98 O 0.19058 0.89147 0.05389 0.0
O99 O 0.20446 0.85583 0.01031 0.0
C100 C 0.30258 0.81712 0.08979 0.0
C101 C 0.31442 0.83472 0.19198 0.0
H102 H 0.34289 0.8814 0.35376 0.0
H103 H 0.33755 0.92862 0.35931 0.0
H104 H 0.25507 0.81261 0.74239 0.0
H105 H 0.28464 0.7962 0.86782 0.0
H106 H 0.30765 0.79879 0.07067 0.0
H107 H 0.32836 0.82964 0.25009 0.0
Mn108 Mn 0.30266 0.0809 0.94862 0.0
Mn109 Mn 0.37783 0.13396 0.90465 0.0
C110 C 0.33105 0.10194 0.11902 0.0
C111 C 0.27366 0.02436 0.97638 0.0
C112 C 0.32194 0.14716 0.88199 0.0
O113 O 0.31159 0.08409 0.76997 0.0
O114 O 0.35941 0.09782 0.80475 0.0
C115 C 0.40412 0.09333 0.94065 0.0
N116 N 0.40455 0.11999 0.97081 0.0
C117 C 0.45112 0.13628 0.08438 0.0
C118 C 0.45298 0.11115 0.03897 0.0
C119 C 0.42917 0.08949 0.96863 0.0
C120 C 0.42653 0.14034 0.04599 0.0
H121 H 0.3855 0.07546 0.89032 0.0
C122 C 0.33917 0.09348 0.73227 0.0
O123 O 0.25967 0.03946 0.94603 0.0
O124 O 0.3035 0.04088 0.97239 0.0
N125 N 0.40292 0.17145 -0.01252 0.0
C126 C 0.40474 0.20334 0.95669 0.0
C127 C 0.44961 0.24882 0.07808 0.0
C128 C 0.46778 0.23364 0.15847 0.0
C129 C 0.45623 0.19497 0.14989 0.0
C130 C 0.42639 0.16725 0.06854 0.0
H131 H 0.3974 0.17921 0.95618 0.0
O132 O 0.3016 0.08289 0.11978 0.0
O133 O 0.34391 0.10935 0.01685 0.0
O134 O 0.29995 0.12159 0.92796 0.0
O135 O 0.34853 0.14993 0.84816 0.0
C136 C 0.47618 0.1856 0.1951 0.0
C137 C 0.47427 0.15765 0.16012 0.0
H138 H 0.4727 0.10818 0.05775 0.0
H139 H 0.43032 0.07025 0.93221 0.0
H140 H 0.45746 0.27367 0.08426 0.0
H141 H 0.48765 0.24906 0.2109 0.0
H142 H 0.49565 0.20155 0.2482 0.0
H143 H 0.49235 0.15316 0.18933 0.0
Mn144 Mn 0.93819 0.23111 0.96256 0.0
Mn145 Mn 0.87527 0.23813 0.95348 0.0
C146 C 0.92061 0.24063 0.12994 0.0
C147 C 0.99379 0.25377 -0.01106 0.0
C148 C 0.86788 0.17782 0.97325 0.0
O149 O 0.93797 0.24368 0.79475 0.0
O150 O 0.88754 0.22643 0.80788 0.0
C151 C 0.90261 0.29445 0.79746 0.0
N152 N 0.88454 0.27759 0.88836 0.0
C153 C 0.85222 0.30043 0.86773 0.0
C154 C 0.86769 0.31455 0.7646 0.0
C155 C 0.89424 0.31312 0.73319 0.0
C156 C 0.86263 0.2833 0.92983 0.0
H157 H 0.92347 0.29421 0.77495 0.0
C158 C 0.91283 0.24035 0.75128 0.0
O159 O 0.97661 0.22504 0.9549 0.0
O160 O 0.97974 0.26947 -0.00936 0.0
N161 N 0.85691 0.24895 0.07587 0.0
C162 C 0.84237 0.23234 0.17149 0.0
C163 C 0.8251 0.24151 0.24019 0.0
C164 C 0.81708 0.26287 0.19605 0.0
C165 C 0.82765 0.27552 0.08643 0.0
C166 C 0.84955 0.26979 0.03341 0.0
H167 H 0.84446 0.21256 0.19327 0.0
O168 O 0.93585 0.22621 0.12743 0.0
O169 O 0.91565 0.25088 0.03122 0.0
O170 O 0.89537 0.18541 0.93363 0.0
O171 O 0.86468 0.19849 0.02446 0.0
C172 C 0.81591 0.29178 0.02433 0.0
C173 C 0.82702 0.30268 0.9121 0.0
H174 H 0.8605 0.32793 0.71253 0.0
H175 H 0.90783 0.32587 0.65866 0.0
H176 H 0.81505 0.22977 0.3208 0.0
H177 H 0.80107 0.26756 0.24322 0.0
H178 H 0.79774 0.29517 0.06049 0.0
H179 H 0.81708 0.31415 0.86313 0.0
Mn180 Mn 0.78296 0.70901 0.94229 0.0
Mn181 Mn 0.77959 0.64032 0.9323 0.0
C182 C 0.77337 0.68072 0.10799 0.0
C183 C 0.75916 0.74111 0.9772 0.0
C184 C 0.83819 0.69485 0.95345 0.0
O185 O 0.77158 0.6965 0.77231 0.0
O186 O 0.79152 0.66562 0.78838 0.0
C187 C 0.72388 0.61106 0.77388 0.0
N188 N 0.74154 0.60929 0.8602 0.0
C189 C 0.72018 0.55455 0.82716 0.0
C190 C 0.70589 0.55697 0.72654 0.0
C191 C 0.70607 0.58487 0.704 0.0
C192 C 0.73686 0.58135 0.89383 0.0
H193 H 0.72302 0.632 0.75879 0.0
C194 C 0.77686 0.67577 0.7297 0.0
O195 O 0.78789 0.75343 0.94224 0.0
O196 O 0.74383 0.71119 0.97225 0.0
N197 N 0.7686 0.60921 0.05291 0.0
C198 C 0.78073 0.61023 0.16291 0.0
C199 C 0.76905 0.58111 0.21879 0.0
C200 C 0.75152 0.5526 0.1611 0.0
C201 C 0.74249 0.55218 0.04727 0.0
C202 C 0.74894 0.58037 -0.00159 0.0
H203 H 0.78019 0.62185 0.08793 0.0
O204 O 0.78682 0.71041 0.10699 0.0
O205 O 0.76407 0.66583 0.00856 0.0
O206 O 0.82944 0.71375 0.91292 0.0
O207 O 0.81818 0.67104 0.00845 0.0
C208 C 0.72751 0.52498 0.97962 0.0
C209 C 0.71771 0.52655 0.86684 0.0
H210 H 0.69281 0.53702 0.6711 0.0
H211 H 0.69279 0.58626 0.63265 0.0
H212 H 0.77591 0.58061 0.30679 0.0
H213 H 0.74563 0.53106 0.20523 0.0
H214 H 0.72341 0.50286 0.01329 0.0
H215 H 0.70633 0.50562 0.81492 0.0
Mn216 Mn 0.9361 0.70785 0.89349 0.0
Mn217 Mn 0.87337 0.63655 0.86767 0.0
C218 C 0.91721 0.67917 0.05645 0.0
C219 C 0.99244 0.73998 0.92023 0.0
C220 C 0.86479 0.6901 0.91163 0.0
O221 O 0.93538 0.69738 0.7205 0.0
O222 O 0.88549 0.662 0.72716 0.0
C223 C 0.90639 0.61306 0.71822 0.0
N224 N 0.88672 0.60936 0.80632 0.0
C225 C 0.8566 0.5542 0.77418 0.0
C226 C 0.87353 0.55817 0.67259 0.0
C227 C 0.89987 0.58734 0.64876 0.0
C228 C 0.86488 0.58062 0.84061 0.0
H229 H 0.92683 0.63529 0.70101 0.0
C230 C 0.911 0.67523 0.67318 0.0
O231 O 0.97562 0.75238 0.89312 0.0
O232 O 0.97765 0.71011 0.91415 0.0
N233 N 0.85486 0.606 -0.01327 0.0
C234 C 0.84038 0.60599 0.08571 0.0
C235 C 0.8256 0.57847 0.1519 0.0
C236 C 0.81771 0.54988 0.10052 0.0
C237 C 0.82851 0.54991 -0.01063 0.0
C238 C 0.84958 0.57879 0.94088 0.0
H239 H 0.84268 0.62744 0.11706 0.0
O240 O 0.93451 0.70885 0.05831 0.0
O241 O 0.91235 0.66493 0.95565 0.0
O242 O 0.89344 0.71134 0.88429 0.0
O243 O 0.85706 0.66158 0.92554 0.0
C244 C 0.81906 0.52281 0.92358 0.0
C245 C 0.83182 0.52529 0.8127 0.0
H246 H 0.86756 0.53878 0.61549 0.0
H247 H 0.91461 0.59015 0.57572 0.0
H248 H 0.81922 0.57898 0.24025 0.0
H249 H 0.80338 0.52825 0.14668 0.0
H250 H 0.80156 0.50019 0.95607 0.0
H251 H 0.82333 0.50467 0.76027 0.0
Mn252 Mn 0.3058 0.23204 0.90585 0.0
Mn253 Mn 0.37473 0.23922 0.88512 0.0
C254 C 0.33413 0.24034 0.0683 0.0
C255 C 0.27491 0.25708 0.95704 0.0
C256 C 0.32307 0.17818 0.90117 0.0
O257 O 0.31535 0.24407 0.73644 0.0
O258 O 0.35026 0.2285 0.73788 0.0
C259 C 0.39714 0.29527 0.74215 0.0
N260 N 0.40281 0.27885 0.82259 0.0
C261 C 0.44632 0.28343 0.71741 0.0
C262 C 0.44068 0.30003 0.63144 0.0
C263 C 0.41696 0.30727 0.64654 0.0
C264 C 0.42779 0.2753 0.81712 0.0
H265 H 0.37666 0.29755 0.74841 0.0
C266 C 0.33436 0.23819 0.68416 0.0
O267 O 0.26217 0.22803 0.92982 0.0
O268 O 0.3044 0.27186 0.94157 0.0
N269 N 0.4044 0.2481 0.00658 0.0
C270 C 0.39567 0.22614 0.11851 0.0
C271 C 0.4131 0.20435 0.13957 0.0
C272 C 0.4529 0.21566 0.96763 0.0
C273 C 0.45274 0.24259 0.8775 0.0
C274 C 0.42928 0.25714 0.90306 0.0
H275 H 0.39634 0.24048 0.05096 0.0
O276 O 0.30472 0.22605 0.06657 0.0
O277 O 0.34874 0.25179 0.9704 0.0
O278 O 0.30295 0.18658 0.87116 0.0
O279 O 0.34824 0.19793 0.94647 0.0
C280 C 0.471 0.25306 0.7784 0.0
C281 C 0.46813 0.27342 0.70128 0.0
H282 H 0.45439 0.30726 0.55301 0.0
H283 H 0.41283 0.32042 0.58159 0.0
H284 H 0.40715 0.18958 0.2158 0.0
H285 H 0.46845 0.20669 0.94715 0.0
H286 H 0.48699 0.24489 0.75895 0.0
H287 H 0.48226 0.28028 0.62382 0.0
Mn288 Mn 0.78253 0.07849 0.92675 0.0
Mn289 Mn 0.77439 0.14033 0.89142 0.0
C290 C 0.77287 0.09827 0.08819 0.0
C291 C 0.75955 0.02252 0.95725 0.0
C292 C 0.83596 0.15019 0.94207 0.0
O293 O 0.77264 0.07788 0.75212 0.0
O294 O 0.79046 0.12777 0.76155 0.0
C295 C 0.71647 0.10111 0.7485 0.0
N296 N 0.73452 0.12536 0.81983 0.0
C297 C 0.70857 0.15286 0.76271 0.0
C298 C 0.6923 0.13017 0.67832 0.0
C299 C 0.69491 0.10324 0.6758 0.0
C300 C 0.72806 0.14822 0.83645 0.0
H301 H 0.71877 0.08065 0.7454 0.0
C302 C 0.77646 0.1029 0.70545 0.0
O303 O 0.78876 0.04001 0.92916 0.0
O304 O 0.74369 0.03642 0.95072 0.0
N305 N 0.76044 0.16043 -0.00422 0.0
C306 C 0.77274 0.17626 0.09519 0.0
C307 C 0.76103 0.19462 0.14035 0.0
C308 C 0.74354 0.2031 0.0698 0.0
C309 C 0.73431 0.18955 0.96095 0.0
C310 C 0.74107 0.16631 0.93214 0.0
H311 H 0.79024 0.17373 0.14106 0.0
O312 O 0.78533 0.08118 0.09151 0.0
O313 O 0.76292 0.10223 -0.01319 0.0
O314 O 0.82868 0.12171 0.914 0.0
O315 O 0.81483 0.15726 0.95978 0.0
C316 C 0.71799 0.1974 0.88073 0.0
C317 C 0.70565 0.17935 0.77978 0.0
H318 H 0.67645 0.13229 0.61991 0.0
H319 H 0.681 0.08461 0.61611 0.0
H320 H 0.76614 0.20309 0.22756 0.0
H321 H 0.73686 0.21946 0.10082 0.0
H322 H 0.71352 0.2162 0.89834 0.0
H323 H 0.69196 0.18461 0.72099 0.0
Mn324 Mn 0.71349 0.93253 0.02453 0.0
Mn325 Mn 0.63813 0.87983 0.06786 0.0
C326 C 0.68528 0.91096 0.85361 0.0
C327 C 0.74352 0.98882 -0.00324 0.0
C328 C 0.69392 0.86662 0.09407 0.0
O329 O 0.70423 0.92968 0.203 0.0
O330 O 0.65656 0.91614 0.16699 0.0
C331 C 0.61205 0.92064 0.03035 0.0
N332 N 0.61151 0.89385 0.00097 0.0
C333 C 0.56465 0.87735 0.8889 0.0
C334 C 0.56294 0.90262 0.93362 0.0
C335 C 0.5869 0.92441 0.00312 0.0
C336 C 0.58925 0.87328 0.92721 0.0
H337 H 0.63086 0.93867 0.07945 0.0
C338 C 0.67667 0.92057 0.24021 0.0
O339 O 0.75689 0.97323 0.02854 0.0
O340 O 0.7136 0.97286 -0.00133 0.0
N341 N 0.61309 0.84224 -0.01466 0.0
C342 C 0.61166 0.81046 0.01507 0.0
C343 C 0.56647 0.76479 0.89528 0.0
C344 C 0.54779 0.77975 0.81673 0.0
C345 C 0.55915 0.81836 0.82564 0.0
C346 C 0.58921 0.84624 0.90573 0.0
H347 H 0.6188 0.83455 0.01595 0.0
O348 O 0.71478 0.92985 0.8533 0.0
O349 O 0.67226 0.90418 0.9557 0.0
O350 O 0.71589 0.89206 0.04799 0.0
O351 O 0.66717 0.86374 0.12614 0.0
C352 C 0.53916 0.82769 0.78044 0.0
C353 C 0.54132 0.85583 0.81415 0.0
H354 H 0.54322 0.9056 0.91498 0.0
H355 H 0.58574 0.94367 0.03945 0.0
H356 H 0.55877 0.73997 0.88871 0.0
H357 H 0.52781 0.76424 0.76496 0.0
H358 H 0.51958 0.81164 0.72796 0.0
H359 H 0.52327 0.86036 0.78491 0.0
Mn360 Mn 0.0825 0.78145 -0.01193 0.0
Mn361 Mn 0.14767 0.77816 -0.00386 0.0
C362 C 0.1011 0.77326 0.82043 0.0
C363 C 0.02622 0.75682 0.95869 0.0
C364 C 0.15213 0.83686 0.97927 0.0
O365 O 0.0834 0.76863 0.15611 0.0
O366 O 0.13446 0.78914 0.14225 0.0
C367 C 0.12147 0.72201 0.15298 0.0
N368 N 0.1403 0.73955 0.06464 0.0
C369 C 0.17366 0.71809 0.09272 0.0
C370 C 0.15768 0.70395 0.19499 0.0
C371 C 0.13026 0.70431 0.22131 0.0
C372 C 0.16325 0.73483 0.02801 0.0
H373 H 0.09971 0.72097 0.17037 0.0
C374 C 0.10938 0.77419 0.19999 0.0
O375 O 0.04261 0.78547 -0.00558 0.0
O376 O 0.04132 0.74215 0.95715 0.0
N377 N 0.16757 0.768 0.87324 0.0
C378 C 0.18 0.78232 0.7669 0.0
C379 C 0.19807 0.77194 0.70882 0.0
C380 C 0.20745 0.75243 0.76095 0.0
C381 C 0.19796 0.74157 0.87275 0.0
C382 C 0.1762 0.74752 0.92371 0.0
H383 H 0.16668 0.77993 0.8404 0.0
O384 O 0.08518 0.78704 0.82307 0.0
O385 O 0.10663 0.76337 0.919 0.0
O386 O 0.12437 0.8278 0.02004 0.0
O387 O 0.15603 0.81725 0.92337 0.0
C388 C 0.21001 0.72597 0.93748 0.0
C389 C 0.19888 0.71558 0.05016 0.0
H390 H 0.16483 0.69085 0.24894 0.0
H391 H 0.11608 0.69115 0.29414 0.0
H392 H 0.20728 0.78136 0.62449 0.0
H393 H 0.22343 0.74733 0.71572 0.0
H394 H 0.22802 0.7222 0.90213 0.0
H395 H 0.20841 0.70385 0.09994 0.0
Mn396 Mn 0.23421 0.30562 0.03978 0.0
Mn397 Mn 0.24198 0.37518 0.06175 0.0
C398 C 0.24019 0.33425 0.87507 0.0
C399 C 0.25844 0.27399 -0.00149 0.0
C400 C 0.18066 0.32224 0.06539 0.0
O401 O 0.25046 0.31786 0.20634 0.0
O402 O 0.23503 0.35252 0.20811 0.0
C403 C 0.30272 0.39925 0.17816 0.0
N404 N 0.28339 0.40371 0.10795 0.0
C405 C 0.29164 0.44855 0.2124 0.0
C406 C 0.31142 0.44435 0.28796 0.0
C407 C 0.31801 0.42037 0.26796 0.0
C408 C 0.28017 0.42877 0.11626 0.0
H409 H 0.3051 0.3789 0.16858 0.0
C410 C 0.24907 0.34017 0.25582 0.0
O411 O 0.2302 0.26156 0.03869 0.0
O412 O 0.27275 0.30379 -0.00591 0.0
N413 N 0.24724 0.40356 0.94087 0.0
C414 C 0.22194 0.39359 0.84226 0.0
C415 C 0.19931 0.41024 0.83264 0.0
C416 C 0.21587 0.45188 0.00058 0.0
C417 C 0.24574 0.45291 0.07547 0.0
C418 C 0.25942 0.4292 0.03944 0.0
H419 H 0.21342 0.37187 0.79767 0.0
O420 O 0.22487 0.30436 0.87447 0.0
O421 O 0.25193 0.34781 0.97355 0.0
O422 O 0.18945 0.30199 0.0873 0.0
O423 O 0.19917 0.34767 0.01713 0.0
C424 C 0.25934 0.47233 0.16992 0.0
C425 C 0.28219 0.4705 0.23548 0.0
H426 H 0.32151 0.45928 0.36228 0.0
H427 H 0.33321 0.41706 0.32576 0.0
H428 H 0.18202 0.40283 0.76493 0.0
H429 H 0.2074 0.46744 0.0272 0.0
H430 H 0.25177 0.48846 0.1948 0.0
H431 H 0.29165 0.48562 0.30971 0.0
Mn432 Mn 0.74826 0.6369 0.38389 0.0
Mn433 Mn 0.81023 0.70915 0.40256 0.0
C434 C 0.76568 0.66528 0.21894 0.0
C435 C 0.69203 0.60436 0.3631 0.0
C436 C 0.81965 0.65565 0.35968 0.0
O437 O 0.75046 0.64764 0.55716 0.0
O438 O 0.79982 0.6854 0.54768 0.0
C439 C 0.77439 0.72979 0.54754 0.0
N440 N 0.79489 0.735 0.46066 0.0
C441 C 0.82034 0.7902 0.48855 0.0
C442 C 0.80268 0.7851 0.58904 0.0
C443 C 0.7782 0.75497 0.61436 0.0
C444 C 0.81459 0.76418 0.42408 0.0
H445 H 0.75551 0.70672 0.56668 0.0
C446 C 0.7748 0.67004 0.60392 0.0
O447 O 0.70917 0.59215 0.38776 0.0
O448 O 0.70657 0.63423 0.36901 0.0
N449 N 0.82829 0.73965 0.27915 0.0
C450 C 0.84357 0.74036 0.17626 0.0
C451 C 0.8587 0.76948 0.1191 0.0
C452 C 0.86431 0.79722 0.17166 0.0
C453 C 0.85125 0.79625 0.27866 0.0
C454 C 0.83083 0.76712 0.32514 0.0
H455 H 0.83122 0.72825 0.25028 0.0
O456 O 0.7481 0.63566 0.2178 0.0
O457 O 0.77115 0.67947 0.31963 0.0
O458 O 0.79133 0.63418 0.38919 0.0
O459 O 0.82711 0.68416 0.3471 0.0
C460 C 0.8585 0.82298 0.34337 0.0
C461 C 0.84435 0.81967 0.45174 0.0
H462 H 0.80722 0.80392 0.64657 0.0
H463 H 0.76312 0.75102 0.68754 0.0
H464 H 0.86666 0.77072 0.03192 0.0
H465 H 0.87859 0.81925 0.12784 0.0
H466 H 0.8757 0.84597 0.31277 0.0
H467 H 0.85194 0.83996 0.505 0.0
Mn468 Mn 0.37885 0.11812 0.38303 0.0
Mn469 Mn 0.30777 0.10431 0.43638 0.0
C470 C 0.34789 0.11062 0.2274 0.0
C471 C 0.41088 0.09448 0.33379 0.0
C472 C 0.35788 0.16854 0.38672 0.0
O473 O 0.37093 0.1042 0.55698 0.0
O474 O 0.33683 0.11919 0.56489 0.0
C475 C 0.29294 0.0446 0.56123 0.0
N476 N 0.28513 0.06256 0.49636 0.0
C477 C 0.23273 0.03558 0.56624 0.0
C478 C 0.24096 0.01954 0.64542 0.0
C479 C 0.27066 0.02256 0.63772 0.0
C480 C 0.25529 0.05516 0.48731 0.0
H481 H 0.31608 0.04776 0.55797 0.0
C482 C 0.34911 0.10527 0.61159 0.0
O483 O 0.42338 0.12346 0.36418 0.0
O484 O 0.38122 0.07944 0.34382 0.0
N485 N 0.27295 0.09029 0.33533 0.0
C486 C 0.26815 0.10412 0.24324 0.0
C487 C 0.23725 0.09456 0.21001 0.0
C488 C 0.21227 0.07503 0.28232 0.0
C489 C 0.21808 0.06273 0.38119 0.0
C490 C 0.24855 0.06913 0.39904 0.0
H491 H 0.2879 0.12155 0.19573 0.0
O492 O 0.37769 0.12577 0.21998 0.0
O493 O 0.3353 0.09775 0.32799 0.0
O494 O 0.38048 0.16278 0.4073 0.0
O495 O 0.32927 0.14663 0.38033 0.0
C496 C 0.19532 0.04529 0.46523 0.0
C497 C 0.2032 0.03301 0.56102 0.0
H498 H 0.22426 1.00375 0.70807 0.0
H499 H 0.27675 0.00897 0.69362 0.0
H500 H 0.23227 0.10259 0.13139 0.0
H501 H 0.18884 0.06963 0.26092 0.0
H502 H 0.17189 0.04143 0.45762 0.0
H503 H 0.18608 0.02066 0.62762 0.0
Mn504 Mn 0.90451 0.268 0.40366 0.0
Mn505 Mn 0.91378 0.20588 0.432 0.0
C506 C 0.91372 0.24878 0.24145 0.0
C507 C 0.92914 0.32462 0.37404 0.0
C508 C 0.85118 0.19629 0.39009 0.0
O509 O 0.91385 0.26731 0.57676 0.0
O510 O 0.8996 0.2173 0.57132 0.0
C511 C 0.97055 0.2414 0.58044 0.0
N512 N 0.95477 0.22072 0.4945 0.0
C513 C 0.98672 0.19736 0.51585 0.0
C514 C 1.00043 0.21564 0.61389 0.0
C515 C 0.99329 0.23874 0.64328 0.0
C516 C 0.96432 0.20128 0.45697 0.0
H517 H 0.96629 0.26004 0.60037 0.0
C518 C 0.91019 0.24255 0.62577 0.0
O519 O 0.89983 0.30766 0.40153 0.0
O520 O 0.94411 0.30988 0.38118 0.0
N521 N 0.92671 0.18768 0.31484 0.0
C522 C 0.91149 0.17146 0.21915 0.0
C523 C 0.92479 0.15743 0.15284 0.0
C524 C 0.94856 0.15342 0.19944 0.0
C525 C 0.96092 0.16635 0.30686 0.0
C526 C 0.95066 0.18509 0.35806 0.0
H527 H 0.89138 0.17221 0.18865 0.0
O528 O 0.90136 0.26598 0.23913 0.0
O529 O 0.92367 0.24442 0.3421 0.0
O530 O 0.85852 0.22489 0.41644 0.0
O531 O 0.87216 0.18896 0.37299 0.0
C532 C 0.98297 0.16145 0.36527 0.0
C533 C 0.99497 0.17604 0.47219 0.0
H534 H 0.01773 0.21338 0.66306 0.0
H535 H 1.00531 0.25448 0.7139 0.0
H536 H 0.91673 0.14939 0.06672 0.0
H537 H 0.95717 0.14054 0.15196 0.0
H538 H 0.99076 0.14645 0.32903 0.0
H539 H 0.0118 0.17205 0.5169 0.0
Mn540 Mn 0.97796 0.41525 0.30223 0.0
Mn541 Mn 0.04835 0.48123 0.30691 0.0
C542 C 1.00073 0.4346 0.47346 0.0
C543 C 0.94633 0.35859 0.33555 0.0
C544 C 0.99285 0.48479 0.29239 0.0
O545 O 0.99577 0.41613 0.14184 0.0
O546 O 0.02827 0.46758 0.15164 0.0
C547 C 0.09279 0.4791 0.15173 0.0
N548 N 0.08099 0.47321 0.26097 0.0
C549 C 0.12878 0.47708 0.33081 0.0
C550 C 0.13889 0.47873 0.21773 0.0
C551 C 0.12245 0.48325 0.12999 0.0
C552 C 0.10044 0.47663 0.34911 0.0
H553 H 0.08107 0.48376 0.08305 0.0
C554 C 0.01708 0.44175 0.0969 0.0
O555 O 0.93443 0.37421 0.28976 0.0
O556 O 0.97604 0.37458 0.34553 0.0
N557 N 0.07292 0.49732 0.44664 0.0
C558 C 0.07281 0.51833 0.52675 0.0
C559 C 0.09629 0.52941 0.61184 0.0
C560 C 0.11849 0.52009 0.61838 0.0
C561 C 0.11966 0.50093 0.53378 0.0
C562 C 0.09683 0.48966 0.44772 0.0
H563 H 0.063 0.50378 0.45552 0.0
O564 O 0.97091 0.41892 0.46394 0.0
O565 O 0.01815 0.43999 0.37977 0.0
O566 O 0.9746 0.45648 0.25536 0.0
O567 O 0.01584 0.49022 0.35654 0.0
C568 C 0.14475 0.49551 0.5256 0.0
C569 C 0.14936 0.48347 0.42335 0.0
H570 H 0.16157 0.48155 0.19922 0.0
H571 H 0.13326 0.49117 0.04655 0.0
H572 H 0.09737 0.54603 0.67431 0.0
H573 H 0.13601 0.52966 0.68549 0.0
H574 H 0.1624 0.50361 0.59204 0.0
H575 H 0.17081 0.48306 0.41198 0.0
Mn576 Mn 0.60199 0.56403 0.29502 0.0
Mn577 Mn 0.54038 0.57405 0.28838 0.0
C578 C 0.58407 0.57234 0.4633 0.0
C579 C 0.65821 0.58754 0.32631 0.0
C580 C 0.53098 0.51217 0.29515 0.0
O581 O 0.60256 0.57793 0.12881 0.0
O582 O 0.55241 0.5642 0.13799 0.0
C583 C 0.56886 0.63166 0.14094 0.0
N584 N 0.55219 0.61549 0.23558 0.0
C585 C 0.52877 0.64764 0.24809 0.0
C586 C 0.54239 0.66141 0.14239 0.0
C587 C 0.56369 0.65445 0.09136 0.0
C588 C 0.53462 0.62481 0.29255 0.0
H589 H 0.58635 0.62787 0.10372 0.0
C590 C 0.57796 0.57536 0.08275 0.0
O591 O 0.64149 0.55905 0.28951 0.0
O592 O 0.64349 0.60248 0.32865 0.0
N593 N 0.52278 0.58365 0.41716 0.0
C594 C 0.50537 0.56417 0.50341 0.0
C595 C 0.48971 0.57337 0.58045 0.0
C596 C 0.48801 0.60015 0.55741 0.0
C597 C 0.50216 0.61743 0.45793 0.0
C598 C 0.52055 0.60909 0.39228 0.0
H599 H 0.50353 0.54181 0.51151 0.0
O600 O 0.5984 0.55698 0.45941 0.0
O601 O 0.58 0.58372 0.36592 0.0
O602 O 0.55874 0.5193 0.25977 0.0
O603 O 0.52762 0.53261 0.34772 0.0
C604 C 0.49696 0.64115 0.41729 0.0
C605 C 0.50938 0.65549 0.3104 0.0
H606 H 0.53772 0.67835 0.10232 0.0
H607 H 0.57603 0.66654 0.01385 0.0
H608 H 0.4768 0.55859 0.65237 0.0
H609 H 0.47407 0.60597 0.61237 0.0
H610 H 0.48237 0.64761 0.4652 0.0
H611 H 0.50428 0.67287 0.27769 0.0
Mn612 Mn 0.44955 0.04453 0.24056 0.0
Mn613 Mn 0.43526 0.97382 0.17854 0.0
C614 C 0.4405 0.01213 0.39057 0.0
C615 C 0.42715 0.07764 0.2887 0.0
C616 C 0.49876 0.02086 0.24402 0.0
O617 O 0.43976 0.04037 0.06536 0.0
O618 O 0.45344 1.0057 0.06098 0.0
C619 C 0.3779 0.96485 0.05157 0.0
N620 N 0.39457 0.95427 0.11011 0.0
C621 C 0.36636 0.90414 0.02286 0.0
C622 C 0.35037 0.91478 0.95393 0.0
C623 C 0.35497 0.94482 0.97281 0.0
C624 C 0.38591 0.92403 0.10836 0.0
H625 H 0.38253 0.9884 0.06229 0.0
C626 C 0.4406 0.01859 0.01142 0.0
O627 O 0.45648 0.08947 0.26463 0.0
O628 O 0.41121 0.04819 0.27214 0.0
N629 N 0.41918 0.93635 0.26536 0.0
C630 C 0.43511 0.92926 0.34262 0.0
C631 C 0.43002 0.89871 0.34819 0.0
C632 C 0.41061 0.87644 0.2672 0.0
C633 C 0.39564 0.88462 0.18397 0.0
C634 C 0.3993 0.91442 0.19007 0.0
H635 H 0.45255 0.94754 0.39429 0.0
O636 O 0.45331 0.04152 0.40028 0.0
O637 O 0.42773 0.99966 0.29015 0.0
O638 O 0.49415 0.04441 0.22452 0.0
O639 O 0.47606 0.99266 0.24611 0.0
C640 C 0.37921 0.86534 0.08985 0.0
C641 C 0.36449 0.87512 0.00923 0.0
H642 H 0.33409 0.89993 0.88864 0.0
H643 H 0.34201 0.95297 0.9231 0.0
H644 H 0.44247 0.89262 0.40908 0.0
H645 H 0.40829 0.85354 0.2672 0.0
H646 H 0.37718 0.8427 0.07995 0.0
H647 H 0.35134 0.85992 0.9387 0.0
Mn648 Mn 0.60051 0.04531 0.29991 0.0
Mn649 Mn 0.54442 0.96851 0.30493 0.0
C650 C 0.58347 0.02098 0.47664 0.0
C651 C 0.65749 0.07722 0.3205 0.0
C652 C 0.52938 0.0211 0.26413 0.0
O653 O 0.59902 0.03066 0.13193 0.0
O654 O 0.56312 0.97996 0.15049 0.0
C655 C 0.59002 0.94746 0.28339 0.0
N656 N 0.56356 0.94411 0.33106 0.0
C657 C 0.55154 0.89554 0.41978 0.0
C658 C 0.57756 0.89737 0.36546 0.0
C659 C 0.59763 0.92419 0.30186 0.0
C660 C 0.54593 0.92014 0.4024 0.0
H661 H 0.60494 0.96765 0.23126 0.0
C662 C 0.58252 1.00298 0.09072 0.0
O663 O 0.64106 0.08933 0.28518 0.0
O664 O 0.64177 0.04761 0.32966 0.0
N665 N 0.52027 0.94849 0.44271 0.0
C666 C 0.49802 0.95273 0.50158 0.0
C667 C 0.47879 0.92852 0.57914 0.0
C668 C 0.48157 0.90213 0.59817 0.0
C669 C 0.50383 0.89845 0.53895 0.0
C670 C 0.52288 0.92169 0.4613 0.0
H671 H 0.5162 0.96052 0.44151 0.0
O672 O 0.59815 0.05087 0.46982 0.0
O673 O 0.5787 1.00594 0.37967 0.0
O674 O 0.5575 0.04518 0.26771 0.0
O675 O 0.52405 0.99313 0.27823 0.0
C676 C 0.50763 0.87237 0.55319 0.0
C677 C 0.53159 0.87092 0.49362 0.0
H678 H 0.58312 0.87904 0.37649 0.0
H679 H 0.61884 0.92689 0.267 0.0
H680 H 0.45988 0.92909 0.62163 0.0
H681 H 0.46582 0.88437 0.65808 0.0
H682 H 0.49259 0.85358 0.61097 0.0
H683 H 0.53497 0.85124 0.50751 0.0
Mn684 Mn 0.97666 0.56642 0.22092 0.0
Mn685 Mn 0.04743 0.57708 0.17875 0.0
C686 C 1.00625 0.57516 0.37949 0.0
C687 C 0.94359 0.58899 0.25668 0.0
C688 C 0.99717 0.51493 0.24035 0.0
O689 O 0.98481 0.57632 0.04526 0.0
O690 O 0.01774 0.55985 0.05234 0.0
C691 C 0.06238 0.63416 0.0365 0.0
N692 N 0.07028 0.61759 0.10879 0.0
C693 C 0.12268 0.64355 0.03927 0.0
C694 C 0.11449 0.6583 0.9544 0.0
C695 C 0.08473 0.65517 0.95787 0.0
C696 C 0.10019 0.62542 0.12111 0.0
H697 H 0.03921 0.63094 0.03664 0.0
C698 C 1.0061 0.57313 -0.00318 0.0
O699 O 0.93161 0.5598 0.22878 0.0
O700 O 0.97334 0.60494 0.24605 0.0
N701 N 0.08246 0.59219 0.27943 0.0
C702 C 0.08707 0.57716 0.36822 0.0
C703 C 0.11773 0.58524 0.3986 0.0
C704 C 0.14276 0.60506 0.32746 0.0
C705 C 0.13718 0.61808 0.23024 0.0
C706 C 0.10692 0.61262 0.21373 0.0
H707 H 0.06725 0.55901 0.41316 0.0
O708 O 0.97663 0.5629 0.38423 0.0
O709 O 0.02025 0.58645 0.27894 0.0
O710 O 0.97528 0.52123 0.21148 0.0
O711 O 0.02587 0.53624 0.24584 0.0
C712 C 0.15981 0.63433 0.14451 0.0
C713 C 0.15206 0.64586 0.04645 0.0
H714 H 0.13123 0.67312 0.88991 0.0
H715 H 0.07864 0.66781 0.89714 0.0
H716 H 0.1224 0.57523 0.47249 0.0
H717 H 0.16595 0.60931 0.34639 0.0
H718 H 0.18297 0.63746 0.15184 0.0
H719 H 0.16907 0.65712 0.97853 0.0
Mn720 Mn 0.44572 0.41348 0.24144 0.0
Mn721 Mn 0.4371 0.47557 0.20572 0.0
C722 C 0.43706 0.43379 0.40093 0.0
C723 C 0.42121 0.35732 0.2743 0.0
C724 C 0.49913 0.48508 0.2598 0.0
O725 O 0.43722 0.41343 0.0674 0.0
O726 O 0.45313 0.46353 0.07327 0.0
C727 C 0.38056 0.4357 0.05972 0.0
N728 N 0.39642 0.45918 0.13686 0.0
C729 C 0.36365 0.48067 0.09473 0.0
C730 C 0.3502 0.45956 0.00362 0.0
C731 C 0.35762 0.43598 -0.01036 0.0
C732 C 0.38604 0.47879 0.16216 0.0
H733 H 0.38505 0.41675 0.05153 0.0
C734 C 0.4415 0.43833 0.01831 0.0
O735 O 0.45058 0.3741 0.24724 0.0
O736 O 0.40611 0.37188 0.26401 0.0
N737 N 0.42274 0.49516 0.31547 0.0
C738 C 0.43702 0.51321 0.41401 0.0
C739 C 0.42374 0.53065 0.4557 0.0
C740 C 0.40081 0.53352 0.39568 0.0
C741 C 0.38843 0.51711 0.29398 0.0
C742 C 0.39839 0.49682 0.25838 0.0
H743 H 0.43635 0.49828 0.34881 0.0
O744 O 0.44834 0.41572 0.40468 0.0
O745 O 0.42675 0.4377 0.30031 0.0
O746 O 0.49176 0.45662 0.23074 0.0
O747 O 0.47831 0.49295 0.27104 0.0
C748 C 0.36688 0.52053 0.22542 0.0
C749 C 0.35509 0.50285 0.1239 0.0
H750 H 0.33275 0.45998 0.94885 0.0
H751 H 0.34568 0.41807 0.92531 0.0
H752 H 0.43118 0.54232 0.53728 0.0
H753 H 0.39273 0.54851 0.42968 0.0
H754 H 0.35918 0.53659 0.25005 0.0
H755 H 0.33828 0.50532 0.0723 0.0
Mn756 Mn 0.37314 0.2676 0.34838 0.0
Mn757 Mn 0.30405 0.19977 0.34678 0.0
C758 C 0.34821 0.24847 0.18056 0.0
C759 C 0.40421 0.32383 0.31691 0.0
C760 C 0.36095 0.19904 0.34583 0.0
O761 O 0.35755 0.26578 0.51216 0.0
O762 O 0.32531 0.21403 0.50164 0.0
C763 C 0.25918 0.19826 0.5104 0.0
N764 N 0.27007 0.20476 0.40002 0.0
C765 C 0.22069 0.19824 0.3365 0.0
C766 C 0.21103 0.19549 0.45084 0.0
C767 C 0.22902 0.19228 0.53608 0.0
C768 C 0.24971 0.20058 0.31438 0.0
H769 H 0.27234 0.19488 0.57711 0.0
C770 C 0.33693 0.23992 0.55724 0.0
O771 O 0.41667 0.30816 0.35759 0.0
O772 O 0.37429 0.30814 0.31286 0.0
N773 N 0.27896 0.18327 0.20841 0.0
C774 C 0.28116 0.16515 0.11989 0.0
C775 C 0.25802 0.15503 0.03375 0.0
C776 C 0.23429 0.16237 0.03406 0.0
C777 C 0.23148 0.17888 0.12542 0.0
C778 C 0.25398 0.18933 0.21241 0.0
H779 H 0.28956 0.17783 0.19593 0.0
O780 O 0.37802 0.26546 0.18585 0.0
O781 O 0.33158 0.24195 0.27664 0.0
O782 O 0.37872 0.22702 0.38622 0.0
O783 O 0.33744 0.19377 0.28648 0.0
C784 C 0.20539 0.18257 0.13838 0.0
C785 C 0.19977 0.19202 0.24509 0.0
H786 H 0.18804 0.19147 0.47228 0.0
H787 H 0.21937 0.18462 0.62136 0.0
H788 H 0.25798 0.14014 0.96596 0.0
H789 H 0.21703 0.15341 0.96593 0.0
H790 H 0.18798 0.17525 0.07112 0.0
H791 H 0.17775 0.19109 0.25934 0.0
Mn792 Mn 0.74824 0.11607 0.36856 0.0
Mn793 Mn 0.81068 0.10808 0.37902 0.0
C794 C 0.76586 0.10662 0.19992 0.0
C795 C 0.692 0.09367 0.34663 0.0
C796 C 0.81914 0.16873 0.35844 0.0
O797 O 0.74831 0.1028 0.53698 0.0
O798 O 0.79859 0.1205 0.52297 0.0
C799 C 0.78091 0.05089 0.53212 0.0
N800 N 0.80058 0.06852 0.44581 0.0
C801 C 0.83198 0.04481 0.4723 0.0
C802 C 0.8147 0.02969 0.57132 0.0
C803 C 0.78793 0.03132 0.59744 0.0
C804 C 0.82293 0.06289 0.40901 0.0
H805 H 0.75984 0.05123 0.55023 0.0
C806 C 0.77348 0.10603 0.57991 0.0
O807 O 0.70978 0.12243 0.37928 0.0
O808 O 0.70606 0.07801 0.34085 0.0
N809 N 0.82932 0.09662 0.25963 0.0
C810 C 0.84355 0.11208 0.16187 0.0
C811 C 0.86072 0.10216 0.09628 0.0
C812 C 0.86964 0.08208 0.1462 0.0
C813 C 0.85889 0.07025 0.25667 0.0
C814 C 0.83685 0.07632 0.3064 0.0
H815 H 0.84079 0.13114 0.13518 0.0
O816 O 0.75103 0.12157 0.20257 0.0
O817 O 0.7705 0.09608 0.2988 0.0
O818 O 0.79163 0.16143 0.39753 0.0
O819 O 0.82221 0.1479 0.3074 0.0
C820 C 0.86976 0.05358 0.32122 0.0
C821 C 0.85726 0.04211 0.43169 0.0
H822 H 0.82055 0.01521 0.62326 0.0
H823 H 0.77299 0.01785 0.6683 0.0
H824 H 0.86939 0.11197 0.01195 0.0
H825 H 0.88551 0.07685 0.10086 0.0
H826 H 0.88779 0.04964 0.28724 0.0
H827 H 0.86584 0.02945 0.48105 0.0
Mn828 Mn 0.9017 0.63634 0.33428 0.0
Mn829 Mn 0.90712 0.70558 0.3477 0.0
C830 C 0.91017 0.66383 0.1678 0.0
C831 C 0.92654 0.60512 0.30066 0.0
C832 C 0.84734 0.65191 0.32511 0.0
O833 O 0.91399 0.64906 0.50362 0.0
O834 O 0.89452 0.68017 0.48999 0.0
C835 C 0.96334 0.73365 0.50448 0.0
N836 N 0.94617 0.73557 0.41659 0.0
C837 C 0.96853 0.79055 0.44594 0.0
C838 C 0.98242 0.78816 0.54776 0.0
C839 C 0.98155 0.76005 0.57288 0.0
C840 C 0.95169 0.76361 0.3802 0.0
H841 H 0.96351 0.71245 0.52198 0.0
C842 C 0.90905 0.66982 0.54751 0.0
O843 O 0.89777 0.59227 0.33556 0.0
O844 O 0.94111 0.63496 0.30335 0.0
N845 N 0.91866 0.7363 0.22956 0.0
C846 C 0.90339 0.73522 0.13183 0.0
C847 C 0.91388 0.76251 0.06573 0.0
C848 C 0.93375 0.79157 0.11619 0.0
C849 C 0.94491 0.79247 0.22749 0.0
C850 C 0.93878 0.76421 0.27686 0.0
H851 H 0.88424 0.71335 0.10544 0.0
O852 O 0.89652 0.63406 0.16943 0.0
O853 O 0.9205 0.67894 0.26661 0.0
O854 O 0.85545 0.63227 0.36385 0.0
O855 O 0.86781 0.67638 0.27411 0.0
C856 C 0.96069 0.81988 0.29355 0.0
C857 C 0.97096 0.8185 0.40565 0.0
H858 H 0.99546 0.80817 0.60294 0.0
H859 H 0.99441 0.75859 0.64558 0.0
H860 H 0.90447 0.76152 0.98092 0.0
H861 H 0.93915 0.81282 0.0709 0.0
H862 H 0.9644 0.84189 0.26018 0.0
H863 H 0.982 0.83938 0.45781 0.0
Mn864 Mn 0.41932 0.97196 0.67595 0.0
Mn865 Mn 0.47497 0.04888 0.67132 0.0
C866 C 0.43633 0.99633 0.49944 0.0
C867 C 0.36258 0.93944 0.65461 0.0
C868 C 0.49043 0.99658 0.71255 0.0
O869 O 0.4206 0.98654 0.84401 0.0
O870 O 0.45613 0.03737 0.8255 0.0
C871 C 0.42864 0.06913 0.68986 0.0
N872 N 0.45549 0.07295 0.64411 0.0
C873 C 0.46694 0.12115 0.55365 0.0
C874 C 0.44061 0.11897 0.60675 0.0
C875 C 0.42063 0.09209 0.67022 0.0
C876 C 0.47303 0.09692 0.57265 0.0
H877 H 0.4137 0.04878 0.74122 0.0
C878 C 0.43688 0.01425 0.88524 0.0
O879 O 0.3793 0.9277 0.69056 0.0
O880 O 0.37785 0.96909 0.64567 0.0
N881 N 0.4992 0.06897 0.53385 0.0
C882 C 0.52161 0.06488 0.47551 0.0
C883 C 0.54066 0.089 0.39739 0.0
C884 C 0.53759 0.1152 0.37747 0.0
C885 C 0.51516 0.11873 0.43621 0.0
C886 C 0.49631 0.0956 0.5145 0.0
H887 H 0.5034 0.05706 0.53544 0.0
O888 O 0.42188 0.96644 0.50612 0.0
O889 O 0.44094 0.01132 0.59641 0.0
O890 O 0.4624 0.97243 0.70853 0.0
O891 O 0.49566 0.02454 0.69886 0.0
C892 C 0.5109 0.14449 0.42046 0.0
C893 C 0.48668 0.14569 0.47915 0.0
H894 H 0.43469 0.137 0.59458 0.0
H895 H 0.39919 0.08912 0.70396 0.0
H896 H 0.55961 0.08848 0.355 0.0
H897 H 0.55317 0.13288 0.31702 0.0
H898 H 0.52571 0.16317 0.36185 0.0
H899 H 0.48291 0.16507 0.46391 0.0
Mn900 Mn 0.04453 0.44776 0.73936 0.0
Mn901 Mn 0.97571 0.44029 0.79116 0.0
C902 C 0.01458 0.44044 0.58653 0.0
C903 C 0.07574 0.42337 0.69057 0.0
C904 C 0.02702 0.50119 0.7259 0.0
O905 O 0.03794 0.43811 0.91358 0.0
O906 O 1.00582 0.45623 0.91948 0.0
C907 C 0.95796 0.38384 0.93989 0.0
N908 N 0.95122 0.40044 0.8635 0.0
C909 C 0.89804 0.37544 0.92585 0.0
C910 C 0.905 0.36053 0.01404 0.0
C911 C 0.93459 0.36318 0.01628 0.0
C912 C 0.92166 0.39363 0.8479 0.0
H913 H 0.9808 0.38635 0.94311 0.0
C914 C 0.01958 0.44405 0.96992 0.0
O915 O 0.08828 0.45271 0.71431 0.0
O916 O 0.04625 0.40803 0.70926 0.0
N917 N 0.94116 0.42616 0.6889 0.0
C918 C 0.93741 0.43797 0.58868 0.0
C919 C 0.90715 0.42539 0.54338 0.0
C920 C 0.88115 0.40744 0.614 0.0
C921 C 0.88578 0.39863 0.72325 0.0
C922 C 0.91606 0.40613 0.75199 0.0
H923 H 0.95739 0.45574 0.54264 0.0
O924 O 0.04385 0.45227 0.58123 0.0
O925 O 1.00049 0.42866 0.68683 0.0
O926 O 0.04805 0.49368 0.75305 0.0
O927 O 0.99812 0.48074 0.72253 0.0
C928 C 0.86193 0.38277 0.80524 0.0
C929 C 0.86863 0.3727 0.90984 0.0
H930 H 0.88739 0.34567 0.07594 0.0
H931 H 0.93964 0.3501 0.07861 0.0
H932 H 0.90364 0.42951 0.45537 0.0
H933 H 0.85791 0.40013 0.58278 0.0
H934 H 0.83852 0.37819 0.78885 0.0
H935 H 0.85059 0.3615 0.97444 0.0
Mn936 Mn 0.57014 0.60169 0.73471 0.0
Mn937 Mn 0.57836 0.53966 0.76887 0.0
C938 C 0.57818 0.58125 0.57462 0.0
C939 C 0.59515 0.65775 0.70156 0.0
C940 C 0.51673 0.5305 0.71898 0.0
O941 O 0.57977 0.60224 0.90796 0.0
O942 O 0.56357 0.55219 0.90324 0.0
C943 C 0.63546 0.57674 0.91536 0.0
N944 N 0.61887 0.5546 0.83468 0.0
C945 C 0.64441 0.52613 0.88341 0.0
C946 C 0.65929 0.5466 0.97542 0.0
C947 C 0.65622 0.57309 -0.01277 0.0
C948 C 0.6259 0.53242 0.81048 0.0
H949 H 0.63287 0.59687 0.92558 0.0
C950 C 0.57601 0.57756 0.95714 0.0
O951 O 0.56584 0.64131 0.72977 0.0
O952 O 0.60997 0.6429 0.71002 0.0
N953 N 0.59115 0.5198 0.65844 0.0
C954 C 0.57622 0.50262 0.56389 0.0
C955 C 0.58703 0.48411 0.51307 0.0
C956 C 0.60699 0.47713 0.57473 0.0
C957 C 0.61872 0.49166 0.68048 0.0
C958 C 0.61229 0.51489 0.71396 0.0
H959 H 0.55753 0.50457 0.52489 0.0
O960 O 0.56622 0.59876 0.5716 0.0
O961 O 0.58889 0.57754 0.67462 0.0
O962 O 0.52401 0.55896 0.74727 0.0
O963 O 0.5375 0.52281 0.70611 0.0
C964 C 0.63559 0.48342 0.75611 0.0
C965 C 0.64696 0.49967 0.86076 0.0
H966 H 0.67417 0.54299 0.03399 0.0
H967 H 0.66899 0.59005 0.05369 0.0
H968 H 0.57985 0.47475 0.42809 0.0
H969 H 0.61303 0.4606 0.54033 0.0
H970 H 0.63942 0.46434 0.73577 0.0
H971 H 0.6584 0.49218 0.92147 0.0
Mn972 Mn 0.64274 0.74685 0.62369 0.0
Mn973 Mn 0.70767 0.81746 0.61475 0.0
C974 C 0.67019 0.76757 0.7877 0.0
C975 C 0.61223 0.69111 0.65882 0.0
C976 C 0.65001 0.81291 0.6278 0.0
O977 O 0.65697 0.74735 0.45935 0.0
O978 O 0.6836 0.79923 0.46602 0.0
C979 C 0.74908 0.82326 0.42471 0.0
N980 N 0.74442 0.82094 0.5416 0.0
C981 C 0.80043 0.85029 0.56825 0.0
C982 C 0.80476 0.85113 0.44923 0.0
C983 C 0.77897 0.83702 0.37733 0.0
C984 C 0.76968 0.83526 0.61166 0.0
H985 H 0.73095 0.81888 0.36553 0.0
C986 C 0.67632 0.77351 0.41357 0.0
O987 O 0.59945 0.70649 0.61836 0.0
O988 O 0.64226 0.70682 0.66165 0.0
N989 N 0.73457 0.83648 0.74798 0.0
C990 C 0.72917 0.84897 0.84839 0.0
C991 C 0.75433 0.86269 0.92699 0.0
C992 C 0.78321 0.86524 0.90612 0.0
C993 C 0.78942 0.85724 0.79911 0.0
C994 C 0.76464 0.84142 0.72235 0.0
H995 H 0.7213 0.83646 0.77185 0.0
O996 O 0.64032 0.75039 0.78612 0.0
O997 O 0.68583 0.77484 0.68849 0.0
O998 O 0.63403 0.78544 0.58252 0.0
O999 O 0.6724 0.81723 0.69022 0.0
C1000 C 0.82008 0.8683 0.76125 0.0
C1001 C 0.82567 0.86625 0.64437 0.0
H1002 H 0.8278 0.86414 0.41143 0.0
H1003 H 0.78208 0.83909 0.28476 0.0
H1004 H 0.75265 0.87402 0.0032 0.0
H1005 H 0.80181 0.87744 0.96808 0.0
H1006 H 0.83966 0.88121 0.81869 0.0
H1007 H 0.84949 0.87796 0.6134 0.0
Mn1008 Mn 0.27192 0.89846 0.60504 0.0
Mn1009 Mn 0.20699 0.90206 0.59841 0.0
C1010 C 0.25375 0.9069 0.77427 0.0
C1011 C 0.32816 0.92239 0.62719 0.0
C1012 C 0.20249 0.84332 0.61561 0.0
O1013 O 0.27085 0.91163 0.43712 0.0
O1014 O 0.21997 0.89084 0.45246 0.0
C1015 C 0.23397 0.95876 0.44333 0.0
N1016 N 0.21439 0.94057 0.52893 0.0
C1017 C 0.181 0.96187 0.49801 0.0
C1018 C 0.19788 0.97679 0.3981 0.0
C1019 C 0.22563 0.97679 0.37471 0.0
C1020 C 0.19103 0.9449 0.56322 0.0
H1021 H 0.25594 0.96 0.4282 0.0
C1022 C 0.24486 0.90632 0.39435 0.0
O1023 O 0.31118 0.89366 0.59303 0.0
O1024 O 0.31337 0.93735 0.63367 0.0
N1025 N 0.18703 0.91249 0.72031 0.0
C1026 C 0.1755 0.89947 0.829 0.0
C1027 C 0.15772 0.9104 0.88592 0.0
C1028 C 0.14731 0.92866 0.83052 0.0
C1029 C 0.15616 0.93845 0.71734 0.0
C1030 C 0.17791 0.93232 0.66741 0.0
H1031 H 0.18815 0.90085 0.75449 0.0
O1032 O 0.26935 0.89271 0.77107 0.0
O1033 O 0.24812 0.91673 0.67561 0.0
O1034 O 0.23008 0.85236 0.57373 0.0
O1035 O 0.1987 0.86301 0.67184 0.0
C1036 C 0.14401 0.95371 0.65111 0.0
C1037 C 0.15548 0.96414 0.53872 0.0
H1038 H 0.19117 0.99027 0.34426 0.0
H1039 H 0.24044 0.99051 0.30397 0.0
H1040 H 0.14949 0.90227 0.97235 0.0
H1041 H 0.13149 0.93409 0.87523 0.0
H1042 H 0.126 0.9576 0.68569 0.0
H1043 H 0.14624 0.97607 0.48849 0.0
Mn1044 Mn 0.11768 0.37599 0.60656 0.0
Mn1045 Mn 0.11041 0.30662 0.58412 0.0
C1046 C 0.11238 0.34762 0.77096 0.0
C1047 C 0.0926 0.40689 0.64833 0.0
C1048 C 0.1717 0.3598 0.58134 0.0
O1049 O 0.10155 0.36376 0.44001 0.0
O1050 O 0.11755 0.32954 0.43805 0.0
C1051 C 0.04981 0.28269 0.46655 0.0
N1052 N 0.06908 0.27806 0.53645 0.0
C1053 C 0.06229 0.23448 0.42673 0.0
C1054 C 0.04287 0.23912 0.35074 0.0
C1055 C 0.03542 0.26238 0.37376 0.0
C1056 C 0.07284 0.25338 0.52525 0.0
H1057 H 0.047 0.30273 0.47825 0.0
C1058 C 0.10336 0.34173 0.39023 0.0
O1059 O 0.12085 0.41971 0.6081 0.0
O1060 O 0.07873 0.37713 0.65242 0.0
N1061 N 0.10481 0.27795 0.7054 0.0
C1062 C 0.12976 0.28758 0.80764 0.0
C1063 C 0.1526 0.27093 0.81449 0.0
C1064 C 0.13724 0.23054 0.64199 0.0
C1065 C 0.10773 0.22971 0.56552 0.0
C1066 C 0.09335 0.25268 0.60219 0.0
H1067 H 0.11354 0.28631 0.74712 0.0
O1068 O 0.12708 0.37749 0.77165 0.0
O1069 O 0.10042 0.33389 0.67282 0.0
O1070 O 0.16272 0.37993 0.55926 0.0
O1071 O 0.15323 0.33433 0.62968 0.0
C1072 C 0.09496 0.21104 0.46864 0.0
C1073 C 0.07239 0.21312 0.40194 0.0
H1074 H 0.03357 0.22496 0.27416 0.0
H1075 H 0.02037 0.26591 0.31591 0.0
H1076 H 0.16863 0.27679 0.88623 0.0
H1077 H 0.14584 0.21511 0.6151 0.0
H1078 H 0.103 0.19536 0.44268 0.0
H1079 H 0.06365 0.19866 0.32578 0.0
Mn1080 Mn 0.26951 0.38184 0.59966 0.0
Mn1081 Mn 0.21676 0.30656 0.55524 0.0
C1082 C 0.25021 0.35137 0.76713 0.0
C1083 C 0.32528 0.41297 0.61954 0.0
C1084 C 0.20216 0.36143 0.54831 0.0
O1085 O 0.26577 0.37442 0.42159 0.0
O1086 O 0.25082 0.32531 0.44483 0.0
C1087 C 0.26181 0.2854 0.58192 0.0
N1088 N 0.23353 0.28152 0.61255 0.0
C1089 C 0.22381 0.23899 0.73948 0.0
C1090 C 0.2523 0.24238 0.70364 0.0
C1091 C 0.27153 0.26583 0.62679 0.0
C1092 C 0.21563 0.26 0.694 0.0
H1093 H 0.2773 0.30328 0.52282 0.0
C1094 C 0.25667 0.34744 0.37901 0.0
O1095 O 0.30878 0.42597 0.59608 0.0
O1096 O 0.3103 0.38305 0.61346 0.0
N1097 N 0.1812 0.28094 0.64877 0.0
C1098 C 0.14836 0.27839 0.63376 0.0
C1099 C 0.107 0.23355 0.76845 0.0
C1100 C 0.12489 0.21627 0.83759 0.0
C1101 C 0.16328 0.2286 0.81249 0.0
C1102 C 0.18815 0.25825 0.7233 0.0
H1103 H 0.17245 0.28619 0.62248 0.0
O1104 O 0.26873 0.38099 0.77096 0.0
O1105 O 0.24295 0.33975 0.66393 0.0
O1106 O 0.22831 0.3836 0.58868 0.0
O1107 O 0.19904 0.33507 0.5101 0.0
C1108 C 0.17491 0.21011 0.853 0.0
C1109 C 0.20374 0.21465 0.81514 0.0
H1110 H 0.259 0.22575 0.72966 0.0
H1111 H 0.2934 0.26825 0.59873 0.0
H1112 H 0.08239 0.22531 0.78545 0.0
H1113 H 0.11136 0.19665 0.89426 0.0
H1114 H 0.16055 0.19039 0.90825 0.0
H1115 H 0.21008 0.19785 0.84389 0.0
Mn1116 Mn 0.63762 0.89656 0.59056 0.0
Mn1117 Mn 0.70719 0.90701 0.53167 0.0
C1118 C 0.6685 0.90223 0.74471 0.0
C1119 C 0.60704 0.92145 0.64253 0.0
C1120 C 0.65532 0.84368 0.58058 0.0
O1121 O 0.64564 0.91103 0.41703 0.0
O1122 O 0.67731 0.89318 0.40586 0.0
C1123 C 0.72325 0.96785 0.41201 0.0
N1124 N 0.73068 0.94857 0.46996 0.0
C1125 C 0.78185 0.97347 0.38826 0.0
C1126 C 0.7736 0.9907 0.31514 0.0
C1127 C 0.74489 0.98943 0.33251 0.0
C1128 C 0.76005 0.95433 0.46999 0.0
H1129 H 0.7007 0.96586 0.42208 0.0
C1130 C 0.66639 0.90854 0.36063 0.0
O1131 O 0.59377 0.89253 0.61039 0.0
O1132 O 0.63674 0.93583 0.63307 0.0
N1133 N 0.7431 0.92008 0.62984 0.0
C1134 C 0.74926 0.91009 0.73407 0.0
C1135 C 0.78122 0.92091 0.75532 0.0
C1136 C 0.80458 0.93631 0.67156 0.0
C1137 C 0.7977 0.94641 0.56961 0.0
C1138 C 0.76751 0.94057 0.55634 0.0
H1139 H 0.73278 0.90782 0.67146 0.0
O1140 O 0.6387 0.88805 0.7527 0.0
O1141 O 0.68126 0.91509 0.64401 0.0
O1142 O 0.63375 0.85108 0.56303 0.0
O1143 O 0.68438 0.8645 0.58679 0.0
C1144 C 0.81948 0.96257 0.48104 0.0
C1145 C 0.81095 0.97498 0.38715 0.0
H1146 H 0.78976 1.0063 0.25079 0.0
H1147 H 0.73897 1.00402 0.28169 0.0
H1148 H 0.78839 0.91808 0.83969 0.0
H1149 H 0.82828 0.94209 0.69025 0.0
H1150 H 0.84283 0.96611 0.48536 0.0
H1151 H 0.82757 0.98727 0.31896 0.0
Mn1152 Mn 0.11791 0.74597 0.54793 0.0
Mn1153 Mn 0.10997 0.80842 0.51736 0.0
C1154 C 0.10809 0.76507 0.70915 0.0
C1155 C 0.09441 0.68996 0.57743 0.0
C1156 C 0.17124 0.81709 0.57212 0.0
O1157 O 0.10875 0.74655 0.37341 0.0
O1158 O 0.12537 0.79662 0.38203 0.0
C1159 C 0.05338 0.77294 0.36616 0.0
N1160 N 0.07001 0.79453 0.44835 0.0
C1161 C 0.0452 0.82391 0.40258 0.0
C1162 C 0.03083 0.80441 0.30765 0.0
C1163 C 0.03334 0.77762 0.29389 0.0
C1164 C 0.0632 0.81675 0.47461 0.0
H1165 H 0.05542 0.7525 0.3553 0.0
C1166 C 0.11253 0.77152 0.32603 0.0
O1167 O 0.12374 0.70722 0.5506 0.0
O1168 O 0.07878 0.70405 0.56856 0.0
N1169 N 0.09651 0.82721 0.62942 0.0
C1170 C 0.10981 0.84227 0.72912 0.0
C1171 C 0.09696 0.85817 0.786 0.0
C1172 C 0.07784 0.86647 0.72485 0.0
C1173 C 0.06838 0.85487 0.61357 0.0
C1174 C 0.07588 0.83289 0.5743 0.0
H1175 H 0.12832 0.84002 0.76783 0.0
O1176 O 0.12023 0.74769 0.71248 0.0
O1177 O 0.09848 0.76957 0.60796 0.0
O1178 O 0.164 0.78892 0.54014 0.0
O1179 O 0.15045 0.82477 0.58396 0.0
C1180 C 0.05223 0.86428 0.53908 0.0
C1181 C 0.04224 0.84991 0.43033 0.0
H1182 H 0.01642 0.80872 0.24917 0.0
H1183 H 0.02057 0.76114 0.22611 0.0
H1184 H 0.10242 0.86488 0.87491 0.0
H1185 H 0.07057 0.88156 0.76402 0.0
H1186 H 0.04769 0.88263 0.56387 0.0
H1187 H 0.0312 0.85818 0.37099 0.0
Mn1188 Mn 0.04686 0.60034 0.65928 0.0
Mn1189 Mn 0.97794 0.5352 0.66745 0.0
C1190 C 0.02124 0.58033 0.49084 0.0
C1191 C 0.07797 0.65647 0.6195 0.0
C1192 C 0.03249 0.53138 0.67068 0.0
O1193 O 0.0318 0.60114 0.82381 0.0
O1194 O 1.00045 0.54974 0.81693 0.0
C1195 C 0.94545 0.55854 0.81991 0.0
N1196 N 0.94563 0.54238 0.72541 0.0
C1197 C 0.89052 0.50696 0.74497 0.0
C1198 C 0.89145 0.51941 0.85404 0.0
C1199 C 0.91847 0.54675 0.88795 0.0
C1200 C 0.91843 0.51957 0.68283 0.0
H1201 H 0.96539 0.58053 0.84245 0.0
C1202 C 0.01126 0.57547 0.87069 0.0
O1203 O 0.09056 0.64124 0.66296 0.0
O1204 O 0.04818 0.64052 0.61532 0.0
N1205 N 0.94968 0.51511 0.53889 0.0
C1206 C 0.95312 0.50216 0.43681 0.0
C1207 C 0.92557 0.48426 0.37217 0.0
C1208 C 0.89589 0.4762 0.41371 0.0
C1209 C 0.89274 0.48578 0.52288 0.0
C1210 C 0.91978 0.50728 0.57949 0.0
H1211 H 0.963 0.51576 0.51068 0.0
O1212 O 0.05118 0.59492 0.49574 0.0
O1213 O 1.00528 0.57568 0.58759 0.0
O1214 O 0.05101 0.55963 0.70683 0.0
O1215 O 0.00969 0.52657 0.60748 0.0
C1216 C 0.86401 0.47318 0.58127 0.0
C1217 C 0.86323 0.48253 0.69521 0.0
H1218 H 0.87109 0.50942 0.90911 0.0
H1219 H 0.9186 0.55852 0.96646 0.0
H1220 H 0.92694 0.47418 0.29152 0.0
H1221 H 0.87546 0.46035 0.36434 0.0
H1222 H 0.84274 0.45526 0.54165 0.0
H1223 H 0.84147 0.47127 0.74237 0.0
Mn1224 Mn 0.41479 0.45183 0.68215 0.0
Mn1225 Mn 0.47618 0.44166 0.68539 0.0
C1226 C 0.4322 0.44354 0.51245 0.0
C1227 C 0.35904 0.42918 0.65423 0.0
C1228 C 0.48525 0.50341 0.6825 0.0
O1229 O 0.41452 0.43773 0.84766 0.0
O1230 O 0.46471 0.4517 0.83666 0.0
C1231 C 0.44588 0.3836 0.83091 0.0
N1232 N 0.46407 0.40014 0.73948 0.0
C1233 C 0.48682 0.36729 0.73358 0.0
C1234 C 0.47169 0.35322 0.83694 0.0
C1235 C 0.44994 0.36034 0.88275 0.0
C1236 C 0.48193 0.39051 0.68671 0.0
H1237 H 0.42794 0.38743 0.8637 0.0
C1238 C 0.43934 0.44064 0.89292 0.0
O1239 O 0.37606 0.45758 0.6917 0.0
O1240 O 0.37331 0.4138 0.64899 0.0
N1241 N 0.49383 0.43162 0.55438 0.0
C1242 C 0.50913 0.44928 0.45603 0.0
C1243 C 0.52375 0.43714 0.38619 0.0
C1244 C 0.52675 0.4116 0.41923 0.0
C1245 C 0.51396 0.39619 0.5227 0.0
C1246 C 0.49619 0.40536 0.58626 0.0
H1247 H 0.49598 0.44597 0.53047 0.0
O1248 O 0.41839 0.4594 0.51764 0.0
O1249 O 0.43643 0.4321 0.60941 0.0
O1250 O 0.45759 0.49616 0.71834 0.0
O1251 O 0.48875 0.48335 0.62714 0.0
C1252 C 0.5192 0.37282 0.56734 0.0
C1253 C 0.50648 0.35911 0.67487 0.0
H1254 H 0.47543 0.33585 0.87862 0.0
H1255 H 0.43637 0.34798 0.95789 0.0
H1256 H 0.53515 0.44933 0.30769 0.0
H1257 H 0.54009 0.40474 0.36543 0.0
H1258 H 0.53353 0.36574 0.521 0.0
H1259 H 0.51115 0.34165 0.70985 0.0
Mn1260 Mn 0.5699 0.97269 0.73564 0.0
Mn1261 Mn 0.58448 0.04359 0.79719 0.0
C1262 C 0.57924 1.00515 0.58556 0.0
C1263 C 0.59143 0.93888 0.68803 0.0
C1264 C 0.52102 0.99678 0.73197 0.0
O1265 O 0.5797 0.97685 0.91084 0.0
O1266 O 0.56617 0.01167 0.91481 0.0
C1267 C 0.64164 0.05248 0.92543 0.0
N1268 N 0.62507 0.06308 0.8663 0.0
C1269 C 0.65325 0.11325 0.95345 0.0
C1270 C 0.66907 0.10255 0.02307 0.0
C1271 C 0.66446 0.0725 0.00453 0.0
C1272 C 0.63375 0.09334 0.86788 0.0
H1273 H 0.637 0.02893 0.91489 0.0
C1274 C 0.57886 0.99865 0.96458 0.0
O1275 O 0.56217 0.9275 0.71247 0.0
O1276 O 0.60784 0.96836 0.70401 0.0
N1277 N 0.60074 0.08105 0.7101 0.0
C1278 C 0.58508 0.08823 0.63183 0.0
C1279 C 0.59054 0.11891 0.62505 0.0
C1280 C 0.60994 0.14121 0.706 0.0
C1281 C 0.62455 0.13293 0.79037 0.0
C1282 C 0.62058 0.10299 0.78545 0.0
H1283 H 0.56763 0.06999 0.57998 0.0
O1284 O 0.56622 0.97574 0.57591 0.0
O1285 O 0.59199 0.0176 0.68607 0.0
O1286 O 0.52551 0.97317 0.75183 0.0
O1287 O 0.54377 0.02491 0.72904 0.0
C1288 C 0.64102 0.15231 0.88425 0.0
C1289 C 0.65537 0.14242 0.96603 0.0
H1290 H 0.68531 0.11742 0.08845 0.0
H1291 H 0.67733 0.06433 0.05468 0.0
H1292 H 0.57842 0.12511 0.56309 0.0
H1293 H 0.61254 0.16422 0.70499 0.0
H1294 H 0.64334 0.1751 0.8931 0.0
H1295 H 0.66857 0.1577 0.0363 0.0
loop_
_geom_bond_atom_site_label_1
_geom_bond_atom_site_label_2
_geom_bond_distance
_geom_bond_site_symmetry_2
_ccdc_geom_bond_type
Mn0 O5 2.095 . S
Mn0 O15 2.162 . S
Mn0 O16 2.297 . S
Mn0 O24 2.385 1_554 S
Mn0 O25 2.209 1_554 S
Mn0 O26 2.094 . S
Mn1 O6 2.121 . S
Mn1 N8 2.257 . S
Mn1 N17 2.282 1_554 S
Mn1 O25 2.215 1_554 S
Mn1 O27 2.117 . S
C2 O24 1.234 . S
C2 O25 1.283 . S
C3 O15 1.281 . S
C3 O16 1.236 . S
C4 O26 1.240 . S
C4 O27 1.264 . S
O5 Mn0 2.095 . S
O5 C14 1.250 . S
O6 Mn1 2.121 . S
O6 C14 1.258 . S
C7 N8 1.326 . S
C7 C11 1.460 . S
C7 H13 0.929 . S
N8 Mn1 2.257 . S
N8 C7 1.326 . S
N8 C12 1.362 1_554 S
C9 C10 1.258 . S
C9 C12 1.431 . S
C9 C29 1.449 . S
C10 C9 1.258 . S
C10 C11 1.477 1_556 S
C10 H30 0.931 . S
C11 C7 1.460 . S
C11 C10 1.477 1_554 S
C11 H31 0.930 . S
C12 N8 1.362 1_556 S
C12 C9 1.431 . S
C12 C22 1.476 . S
H13 C7 0.929 . S
C14 O5 1.250 . S
C14 O6 1.258 . S
O15 Mn0 2.162 . S
O15 C3 1.281 . S
O16 Mn0 2.297 . S
O16 C3 1.236 . S
N17 Mn1 2.282 1_556 S
N17 C18 1.328 . S
N17 C22 1.318 . S
C18 N17 1.328 . S
C18 C19 1.457 . S
C18 H23 0.929 . S
C19 C18 1.457 . S
C19 C20 1.291 . S
C19 H32 0.931 . S
C20 C19 1.291 . S
C20 C21 1.373 . S
C20 H33 0.929 . S
C21 C20 1.373 . S
C21 C22 1.396 . S
C21 C28 1.403 . S
C22 C12 1.476 . S
C22 N17 1.318 . S
C22 C21 1.396 . S
H23 C18 0.929 . S
O24 Mn0 2.385 1_556 S
O24 C2 1.234 . S
O25 Mn0 2.209 1_556 S
O25 Mn1 2.215 1_556 S
O25 C2 1.283 . S
O26 Mn0 2.094 . S
O26 C4 1.240 . S
O27 Mn1 2.117 . S
O27 C4 1.264 . S
C28 C21 1.403 . S
C28 C29 1.399 . S
C28 H34 0.929 . S
C29 C9 1.449 . S
C29 C28 1.399 . S
C29 H35 0.930 . S
H30 C10 0.931 . S
H31 C11 0.930 . S
H32 C19 0.931 . S
H33 C20 0.929 . S
H34 C28 0.929 . S
H35 C29 0.930 . S
Mn36 O41 2.095 . S
Mn36 O51 2.162 . S
Mn36 O52 2.297 . S
Mn36 O60 2.385 1_554 S
Mn36 O61 2.209 1_554 S
Mn36 O62 2.094 . S
Mn37 O42 2.121 . S
Mn37 N44 2.257 . S
Mn37 N53 2.282 1_554 S
Mn37 O61 2.215 1_554 S
Mn37 O63 2.117 . S
C38 O60 1.234 . S
C38 O61 1.283 . S
C39 O51 1.281 . S
C39 O52 1.236 . S
C40 O62 1.240 . S
C40 O63 1.264 . S
O41 Mn36 2.095 . S
O41 C50 1.250 . S
O42 Mn37 2.121 . S
O42 C50 1.258 . S
C43 N44 1.326 . S
C43 C47 1.460 . S
C43 H49 0.929 . S
N44 Mn37 2.257 . S
N44 C43 1.326 . S
N44 C48 1.362 1_554 S
C45 C46 1.258 . S
C45 C48 1.431 . S
C45 C65 1.449 . S
C46 C45 1.258 . S
C46 C47 1.477 1_556 S
C46 H66 0.931 . S
C47 C43 1.460 . S
C47 C46 1.477 1_554 S
C47 H67 0.930 . S
C48 N44 1.362 1_556 S
C48 C45 1.431 . S
C48 C58 1.476 . S
H49 C43 0.929 . S
C50 O41 1.250 . S
C50 O42 1.258 . S
O51 Mn36 2.162 . S
O51 C39 1.281 . S
O52 Mn36 2.297 . S
O52 C39 1.236 . S
N53 Mn37 2.282 1_556 S
N53 C54 1.328 . S
N53 C58 1.318 . S
C54 N53 1.328 . S
C54 C55 1.457 . S
C54 H59 0.929 . S
C55 C54 1.457 . S
C55 C56 1.291 . S
C55 H68 0.931 . S
C56 C55 1.291 . S
C56 C57 1.373 . S
C56 H69 0.929 . S
C57 C56 1.373 . S
C57 C58 1.396 . S
C57 C64 1.403 . S
C58 C48 1.476 . S
C58 N53 1.318 . S
C58 C57 1.396 . S
H59 C54 0.929 . S
O60 Mn36 2.385 1_556 S
O60 C38 1.234 . S
O61 Mn36 2.209 1_556 S
O61 Mn37 2.215 1_556 S
O61 C38 1.283 . S
O62 Mn36 2.094 . S
O62 C40 1.240 . S
O63 Mn37 2.117 . S
O63 C40 1.264 . S
C64 C57 1.403 . S
C64 C65 1.399 . S
C64 H70 0.929 . S
C65 C45 1.449 . S
C65 C64 1.399 . S
C65 H71 0.930 . S
H66 C46 0.931 . S
H67 C47 0.930 . S
H68 C55 0.931 . S
H69 C56 0.929 . S
H70 C64 0.929 . S
H71 C65 0.930 . S
Mn72 O77 2.095 . S
Mn72 O87 2.162 . S
Mn72 O88 2.297 . S
Mn72 O96 2.385 1_554 S
Mn72 O97 2.209 1_554 S
Mn72 O98 2.094 . S
Mn73 O78 2.121 . S
Mn73 N80 2.257 . S
Mn73 N89 2.282 1_554 S
Mn73 O97 2.215 1_554 S
Mn73 O99 2.117 . S
C74 O96 1.234 . S
C74 O97 1.283 . S
C75 O87 1.281 . S
C75 O88 1.236 . S
C76 O98 1.240 . S
C76 O99 1.264 . S
O77 Mn72 2.095 . S
O77 C86 1.250 . S
O78 Mn73 2.121 . S
O78 C86 1.258 . S
C79 N80 1.326 . S
C79 C83 1.460 . S
C79 H85 0.929 . S
N80 Mn73 2.257 . S
N80 C79 1.326 . S
N80 C84 1.362 1_554 S
C81 C82 1.258 . S
C81 C84 1.431 . S
C81 C101 1.449 . S
C82 C81 1.258 . S
C82 C83 1.477 1_556 S
C82 H102 0.931 . S
C83 C79 1.460 . S
C83 C82 1.477 1_554 S
C83 H103 0.930 . S
C84 N80 1.362 1_556 S
C84 C81 1.431 . S
C84 C94 1.476 . S
H85 C79 0.929 . S
C86 O77 1.250 . S
C86 O78 1.258 . S
O87 Mn72 2.162 . S
O87 C75 1.281 . S
O88 Mn72 2.297 . S
O88 C75 1.236 . S
N89 Mn73 2.282 1_556 S
N89 C90 1.328 . S
N89 C94 1.318 . S
C90 N89 1.328 . S
C90 C91 1.457 . S
C90 H95 0.929 . S
C91 C90 1.457 . S
C91 C92 1.291 . S
C91 H104 0.931 . S
C92 C91 1.291 . S
C92 C93 1.373 . S
C92 H105 0.929 . S
C93 C92 1.373 . S
C93 C94 1.396 . S
C93 C100 1.403 . S
C94 C84 1.476 . S
C94 N89 1.318 . S
C94 C93 1.396 . S
H95 C90 0.929 . S
O96 Mn72 2.385 1_556 S
O96 C74 1.234 . S
O97 Mn72 2.209 1_556 S
O97 Mn73 2.215 1_556 S
O97 C74 1.283 . S
O98 Mn72 2.094 . S
O98 C76 1.240 . S
O99 Mn73 2.117 . S
O99 C76 1.264 . S
C100 C93 1.403 . S
C100 C101 1.399 . S
C100 H106 0.929 . S
C101 C81 1.449 . S
C101 C100 1.399 . S
C101 H107 0.930 . S
H102 C82 0.931 . S
H103 C83 0.930 . S
H104 C91 0.931 . S
H105 C92 0.929 . S
H106 C100 0.929 . S
H107 C101 0.930 . S
Mn108 O113 2.095 . S
Mn108 O123 2.162 . S
Mn108 O124 2.297 . S
Mn108 O132 2.385 1_556 S
Mn108 O133 2.209 1_556 S
Mn108 O134 2.094 . S
Mn109 O114 2.121 . S
Mn109 N116 2.257 . S
Mn109 N125 2.282 1_556 S
Mn109 O133 2.215 1_556 S
Mn109 O135 2.117 . S
C110 O132 1.234 . S
C110 O133 1.283 . S
C111 O123 1.281 . S
C111 O124 1.236 . S
C112 O134 1.240 . S
C112 O135 1.264 . S
O113 Mn108 2.095 . S
O113 C122 1.250 . S
O114 Mn109 2.121 . S
O114 C122 1.258 . S
C115 N116 1.326 . S
C115 C119 1.460 . S
C115 H121 0.929 . S
N116 Mn109 2.257 . S
N116 C115 1.326 . S
N116 C120 1.362 1_556 S
C117 C118 1.258 . S
C117 C120 1.431 . S
C117 C137 1.449 . S
C118 C117 1.258 . S
C118 C119 1.477 1_554 S
C118 H138 0.931 . S
C119 C115 1.460 . S
C119 C118 1.477 1_556 S
C119 H139 0.930 . S
C120 N116 1.362 1_554 S
C120 C117 1.431 . S
C120 C130 1.476 . S
H121 C115 0.929 . S
C122 O113 1.250 . S
C122 O114 1.258 . S
O123 Mn108 2.162 . S
O123 C111 1.281 . S
O124 Mn108 2.297 . S
O124 C111 1.236 . S
N125 Mn109 2.282 1_554 S
N125 C126 1.328 . S
N125 C130 1.318 . S
C126 N125 1.328 . S
C126 C127 1.457 . S
C126 H131 0.929 . S
C127 C126 1.457 . S
C127 C128 1.291 . S
C127 H140 0.931 . S
C128 C127 1.291 . S
C128 C129 1.373 . S
C128 H141 0.929 . S
C129 C128 1.373 . S
C129 C130 1.396 . S
C129 C136 1.403 . S
C130 C120 1.476 . S
C130 N125 1.318 . S
C130 C129 1.396 . S
H131 C126 0.929 . S
O132 Mn108 2.385 1_554 S
O132 C110 1.234 . S
O133 Mn108 2.209 1_554 S
O133 Mn109 2.215 1_554 S
O133 C110 1.283 . S
O134 Mn108 2.094 . S
O134 C112 1.240 . S
O135 Mn109 2.117 . S
O135 C112 1.264 . S
C136 C129 1.403 . S
C136 C137 1.399 . S
C136 H142 0.929 . S
C137 C117 1.449 . S
C137 C136 1.399 . S
C137 H143 0.930 . S
H138 C118 0.931 . S
H139 C119 0.930 . S
H140 C127 0.931 . S
H141 C128 0.929 . S
H142 C136 0.929 . S
H143 C137 0.930 . S
Mn144 O149 2.095 . S
Mn144 O159 2.162 . S
Mn144 O160 2.297 . S
Mn144 O168 2.385 1_556 S
Mn144 O169 2.209 1_556 S
Mn144 O170 2.094 . S
Mn145 O150 2.121 . S
Mn145 N152 2.257 . S
Mn145 N161 2.282 1_556 S
Mn145 O169 2.215 1_556 S
Mn145 O171 2.117 . S
C146 O168 1.234 . S
C146 O169 1.283 . S
C147 O159 1.281 . S
C147 O160 1.236 . S
C148 O170 1.240 . S
C148 O171 1.264 . S
O149 Mn144 2.095 . S
O149 C158 1.250 . S
O150 Mn145 2.121 . S
O150 C158 1.258 . S
C151 N152 1.326 . S
C151 C155 1.460 . S
C151 H157 0.929 . S
N152 Mn145 2.257 . S
N152 C151 1.326 . S
N152 C156 1.362 1_556 S
C153 C154 1.258 . S
C153 C156 1.431 . S
C153 C173 1.449 . S
C154 C153 1.258 . S
C154 C155 1.477 1_554 S
C154 H174 0.931 . S
C155 C151 1.460 . S
C155 C154 1.477 1_556 S
C155 H175 0.930 . S
C156 N152 1.362 1_554 S
C156 C153 1.431 . S
C156 C166 1.476 . S
H157 C151 0.929 . S
C158 O149 1.250 . S
C158 O150 1.258 . S
O159 Mn144 2.162 . S
O159 C147 1.281 . S
O160 Mn144 2.297 . S
O160 C147 1.236 . S
N161 Mn145 2.282 1_554 S
N161 C162 1.328 . S
N161 C166 1.318 . S
C162 N161 1.328 . S
C162 C163 1.457 . S
C162 H167 0.929 . S
C163 C162 1.457 . S
C163 C164 1.291 . S
C163 H176 0.931 . S
C164 C163 1.291 . S
C164 C165 1.373 . S
C164 H177 0.929 . S
C165 C164 1.373 . S
C165 C166 1.396 . S
C165 C172 1.403 . S
C166 C156 1.476 . S
C166 N161 1.318 . S
C166 C165 1.396 . S
H167 C162 0.929 . S
O168 Mn144 2.385 1_554 S
O168 C146 1.234 . S
O169 Mn144 2.209 1_554 S
O169 Mn145 2.215 1_554 S
O169 C146 1.283 . S
O170 Mn144 2.094 . S
O170 C148 1.240 . S
O171 Mn145 2.117 . S
O171 C148 1.264 . S
C172 C165 1.403 . S
C172 C173 1.399 . S
C172 H178 0.929 . S
C173 C153 1.449 . S
C173 C172 1.399 . S
C173 H179 0.930 . S
H174 C154 0.931 . S
H175 C155 0.930 . S
H176 C163 0.931 . S
H177 C164 0.929 . S
H178 C172 0.929 . S
H179 C173 0.930 . S
Mn180 O185 2.095 . S
Mn180 O195 2.162 . S
Mn180 O196 2.297 . S
Mn180 O204 2.385 1_556 S
Mn180 O205 2.209 1_556 S
Mn180 O206 2.094 . S
Mn181 O186 2.121 . S
Mn181 N188 2.257 . S
Mn181 N197 2.282 1_556 S
Mn181 O205 2.215 1_556 S
Mn181 O207 2.117 . S
C182 O204 1.234 . S
C182 O205 1.283 . S
C183 O195 1.281 . S
C183 O196 1.236 . S
C184 O206 1.240 . S
C184 O207 1.264 . S
O185 Mn180 2.095 . S
O185 C194 1.250 . S
O186 Mn181 2.121 . S
O186 C194 1.258 . S
C187 N188 1.326 . S
C187 C191 1.460 . S
C187 H193 0.929 . S
N188 Mn181 2.257 . S
N188 C187 1.326 . S
N188 C192 1.362 1_556 S
C189 C190 1.258 . S
C189 C192 1.431 . S
C189 C209 1.449 . S
C190 C189 1.258 . S
C190 C191 1.477 1_554 S
C190 H210 0.931 . S
C191 C187 1.460 . S
C191 C190 1.477 1_556 S
C191 H211 0.930 . S
C192 N188 1.362 1_554 S
C192 C189 1.431 . S
C192 C202 1.476 . S
H193 C187 0.929 . S
C194 O185 1.250 . S
C194 O186 1.258 . S
O195 Mn180 2.162 . S
O195 C183 1.281 . S
O196 Mn180 2.297 . S
O196 C183 1.236 . S
N197 Mn181 2.282 1_554 S
N197 C198 1.328 . S
N197 C202 1.318 . S
C198 N197 1.328 . S
C198 C199 1.457 . S
C198 H203 0.929 . S
C199 C198 1.457 . S
C199 C200 1.291 . S
C199 H212 0.931 . S
C200 C199 1.291 . S
C200 C201 1.373 . S
C200 H213 0.929 . S
C201 C200 1.373 . S
C201 C202 1.396 . S
C201 C208 1.403 . S
C202 C192 1.476 . S
C202 N197 1.318 . S
C202 C201 1.396 . S
H203 C198 0.929 . S
O204 Mn180 2.385 1_554 S
O204 C182 1.234 . S
O205 Mn180 2.209 1_554 S
O205 Mn181 2.215 1_554 S
O205 C182 1.283 . S
O206 Mn180 2.094 . S
O206 C184 1.240 . S
O207 Mn181 2.117 . S
O207 C184 1.264 . S
C208 C201 1.403 . S
C208 C209 1.399 . S
C208 H214 0.929 . S
C209 C189 1.449 . S
C209 C208 1.399 . S
C209 H215 0.930 . S
H210 C190 0.931 . S
H211 C191 0.930 . S
H212 C199 0.931 . S
H213 C200 0.929 . S
H214 C208 0.929 . S
H215 C209 0.930 . S
Mn216 O221 2.095 . S
Mn216 O231 2.162 . S
Mn216 O232 2.297 . S
Mn216 O240 2.385 1_556 S
Mn216 O241 2.209 1_556 S
Mn216 O242 2.094 . S
Mn217 O222 2.121 . S
Mn217 N224 2.257 . S
Mn217 N233 2.282 1_556 S
Mn217 O241 2.215 1_556 S
Mn217 O243 2.117 . S
C218 O240 1.234 . S
C218 O241 1.283 . S
C219 O231 1.281 . S
C219 O232 1.236 . S
C220 O242 1.240 . S
C220 O243 1.264 . S
O221 Mn216 2.095 . S
O221 C230 1.250 . S
O222 Mn217 2.121 . S
O222 C230 1.258 . S
C223 N224 1.326 . S
C223 C227 1.460 . S
C223 H229 0.929 . S
N224 Mn217 2.257 . S
N224 C223 1.326 . S
N224 C228 1.362 1_556 S
C225 C226 1.258 . S
C225 C228 1.431 . S
C225 C245 1.449 . S
C226 C225 1.258 . S
C226 C227 1.477 1_554 S
C226 H246 0.931 . S
C227 C223 1.460 . S
C227 C226 1.477 1_556 S
C227 H247 0.930 . S
C228 N224 1.362 1_554 S
C228 C225 1.431 . S
C228 C238 1.476 . S
H229 C223 0.929 . S
C230 O221 1.250 . S
C230 O222 1.258 . S
O231 Mn216 2.162 . S
O231 C219 1.281 . S
O232 Mn216 2.297 . S
O232 C219 1.236 . S
N233 Mn217 2.282 1_554 S
N233 C234 1.328 . S
N233 C238 1.318 . S
C234 N233 1.328 . S
C234 C235 1.457 . S
C234 H239 0.929 . S
C235 C234 1.457 . S
C235 C236 1.291 . S
C235 H248 0.931 . S
C236 C235 1.291 . S
C236 C237 1.373 . S
C236 H249 0.929 . S
C237 C236 1.373 . S
C237 C238 1.396 . S
C237 C244 1.403 . S
C238 C228 1.476 . S
C238 N233 1.318 . S
C238 C237 1.396 . S
H239 C234 0.929 . S
O240 Mn216 2.385 1_554 S
O240 C218 1.234 . S
O241 Mn216 2.209 1_554 S
O241 Mn217 2.215 1_554 S
O241 C218 1.283 . S
O242 Mn216 2.094 . S
O242 C220 1.240 . S
O243 Mn217 2.117 . S
O243 C220 1.264 . S
C244 C237 1.403 . S
C244 C245 1.399 . S
C244 H250 0.929 . S
C245 C225 1.449 . S
C245 C244 1.399 . S
C245 H251 0.930 . S
H246 C226 0.931 . S
H247 C227 0.930 . S
H248 C235 0.931 . S
H249 C236 0.929 . S
H250 C244 0.929 . S
H251 C245 0.930 . S
Mn252 O257 2.095 . S
Mn252 O267 2.162 . S
Mn252 O268 2.297 . S
Mn252 O276 2.385 1_556 S
Mn252 O277 2.209 1_556 S
Mn252 O278 2.094 . S
Mn253 O258 2.121 . S
Mn253 N260 2.257 . S
Mn253 N269 2.282 1_556 S
Mn253 O277 2.215 1_556 S
Mn253 O279 2.117 . S
C254 O276 1.234 . S
C254 O277 1.283 . S
C255 O267 1.281 . S
C255 O268 1.236 . S
C256 O278 1.240 . S
C256 O279 1.264 . S
O257 Mn252 2.095 . S
O257 C266 1.250 . S
O258 Mn253 2.121 . S
O258 C266 1.258 . S
C259 N260 1.326 . S
C259 C263 1.460 . S
C259 H265 0.929 . S
N260 Mn253 2.257 . S
N260 C259 1.326 . S
N260 C264 1.362 1_556 S
C261 C262 1.258 . S
C261 C264 1.431 . S
C261 C281 1.449 . S
C262 C261 1.258 . S
C262 C263 1.477 1_554 S
C262 H282 0.931 . S
C263 C259 1.460 . S
C263 C262 1.477 1_556 S
C263 H283 0.930 . S
C264 N260 1.362 1_554 S
C264 C261 1.431 . S
C264 C274 1.476 . S
H265 C259 0.929 . S
C266 O257 1.250 . S
C266 O258 1.258 . S
O267 Mn252 2.162 . S
O267 C255 1.281 . S
O268 Mn252 2.297 . S
O268 C255 1.236 . S
N269 Mn253 2.282 1_554 S
N269 C270 1.328 . S
N269 C274 1.318 . S
C270 N269 1.328 . S
C270 C271 1.457 . S
C270 H275 0.929 . S
C271 C270 1.457 . S
C271 C272 1.291 . S
C271 H284 0.931 . S
C272 C271 1.291 . S
C272 C273 1.373 . S
C272 H285 0.929 . S
C273 C272 1.373 . S
C273 C274 1.396 . S
C273 C280 1.403 . S
C274 C264 1.476 . S
C274 N269 1.318 . S
C274 C273 1.396 . S
H275 C270 0.929 . S
O276 Mn252 2.385 1_554 S
O276 C254 1.234 . S
O277 Mn252 2.209 1_554 S
O277 Mn253 2.215 1_554 S
O277 C254 1.283 . S
O278 Mn252 2.094 . S
O278 C256 1.240 . S
O279 Mn253 2.117 . S
O279 C256 1.264 . S
C280 C273 1.403 . S
C280 C281 1.399 . S
C280 H286 0.929 . S
C281 C261 1.449 . S
C281 C280 1.399 . S
C281 H287 0.930 . S
H282 C262 0.931 . S
H283 C263 0.930 . S
H284 C271 0.931 . S
H285 C272 0.929 . S
H286 C280 0.929 . S
H287 C281 0.930 . S
Mn288 O293 2.095 . S
Mn288 O303 2.162 . S
Mn288 O304 2.297 . S
Mn288 O312 2.385 1_556 S
Mn288 O313 2.209 1_556 S
Mn288 O314 2.094 . S
Mn289 O294 2.121 . S
Mn289 N296 2.257 . S
Mn289 N305 2.282 1_556 S
Mn289 O313 2.215 1_556 S
Mn289 O315 2.117 . S
C290 O312 1.234 . S
C290 O313 1.283 . S
C291 O303 1.281 . S
C291 O304 1.236 . S
C292 O314 1.240 . S
C292 O315 1.264 . S
O293 Mn288 2.095 . S
O293 C302 1.250 . S
O294 Mn289 2.121 . S
O294 C302 1.258 . S
C295 N296 1.326 . S
C295 C299 1.460 . S
C295 H301 0.929 . S
N296 Mn289 2.257 . S
N296 C295 1.326 . S
N296 C300 1.362 1_556 S
C297 C298 1.258 . S
C297 C300 1.431 . S
C297 C317 1.449 . S
C298 C297 1.258 . S
C298 C299 1.477 1_554 S
C298 H318 0.931 . S
C299 C295 1.460 . S
C299 C298 1.477 1_556 S
C299 H319 0.930 . S
C300 N296 1.362 1_554 S
C300 C297 1.431 . S
C300 C310 1.476 . S
H301 C295 0.929 . S
C302 O293 1.250 . S
C302 O294 1.258 . S
O303 Mn288 2.162 . S
O303 C291 1.281 . S
O304 Mn288 2.297 . S
O304 C291 1.236 . S
N305 Mn289 2.282 1_554 S
N305 C306 1.328 . S
N305 C310 1.318 . S
C306 N305 1.328 . S
C306 C307 1.457 . S
C306 H311 0.929 . S
C307 C306 1.457 . S
C307 C308 1.291 . S
C307 H320 0.931 . S
C308 C307 1.291 . S
C308 C309 1.373 . S
C308 H321 0.929 . S
C309 C308 1.373 . S
C309 C310 1.396 . S
C309 C316 1.403 . S
C310 C300 1.476 . S
C310 N305 1.318 . S
C310 C309 1.396 . S
H311 C306 0.929 . S
O312 Mn288 2.385 1_554 S
O312 C290 1.234 . S
O313 Mn288 2.209 1_554 S
O313 Mn289 2.215 1_554 S
O313 C290 1.283 . S
O314 Mn288 2.094 . S
O314 C292 1.240 . S
O315 Mn289 2.117 . S
O315 C292 1.264 . S
C316 C309 1.403 . S
C316 C317 1.399 . S
C316 H322 0.929 . S
C317 C297 1.449 . S
C317 C316 1.399 . S
C317 H323 0.930 . S
H318 C298 0.931 . S
H319 C299 0.930 . S
H320 C307 0.931 . S
H321 C308 0.929 . S
H322 C316 0.929 . S
H323 C317 0.930 . S
Mn324 O329 2.095 . S
Mn324 O339 2.162 . S
Mn324 O340 2.297 . S
Mn324 O348 2.385 1_554 S
Mn324 O349 2.209 1_554 S
Mn324 O350 2.094 . S
Mn325 O330 2.121 . S
Mn325 N332 2.257 . S
Mn325 N341 2.282 1_554 S
Mn325 O349 2.215 1_554 S
Mn325 O351 2.117 . S
C326 O348 1.234 . S
C326 O349 1.283 . S
C327 O339 1.281 . S
C327 O340 1.236 . S
C328 O350 1.240 . S
C328 O351 1.264 . S
O329 Mn324 2.095 . S
O329 C338 1.250 . S
O330 Mn325 2.121 . S
O330 C338 1.258 . S
C331 N332 1.326 . S
C331 C335 1.460 . S
C331 H337 0.929 . S
N332 Mn325 2.257 . S
N332 C331 1.326 . S
N332 C336 1.362 1_554 S
C333 C334 1.258 . S
C333 C336 1.431 . S
C333 C353 1.449 . S
C334 C333 1.258 . S
C334 C335 1.477 1_556 S
C334 H354 0.931 . S
C335 C331 1.460 . S
C335 C334 1.477 1_554 S
C335 H355 0.930 . S
C336 N332 1.362 1_556 S
C336 C333 1.431 . S
C336 C346 1.476 . S
H337 C331 0.929 . S
C338 O329 1.250 . S
C338 O330 1.258 . S
O339 Mn324 2.162 . S
O339 C327 1.281 . S
O340 Mn324 2.297 . S
O340 C327 1.236 . S
N341 Mn325 2.282 1_556 S
N341 C342 1.328 . S
N341 C346 1.318 . S
C342 N341 1.328 . S
C342 C343 1.457 . S
C342 H347 0.929 . S
C343 C342 1.457 . S
C343 C344 1.291 . S
C343 H356 0.931 . S
C344 C343 1.291 . S
C344 C345 1.373 . S
C344 H357 0.929 . S
C345 C344 1.373 . S
C345 C346 1.396 . S
C345 C352 1.403 . S
C346 C336 1.476 . S
C346 N341 1.318 . S
C346 C345 1.396 . S
H347 C342 0.929 . S
O348 Mn324 2.385 1_556 S
O348 C326 1.234 . S
O349 Mn324 2.209 1_556 S
O349 Mn325 2.215 1_556 S
O349 C326 1.283 . S
O350 Mn324 2.094 . S
O350 C328 1.240 . S
O351 Mn325 2.117 . S
O351 C328 1.264 . S
C352 C345 1.403 . S
C352 C353 1.399 . S
C352 H358 0.929 . S
C353 C333 1.449 . S
C353 C352 1.399 . S
C353 H359 0.930 . S
H354 C334 0.931 . S
H355 C335 0.930 . S
H356 C343 0.931 . S
H357 C344 0.929 . S
H358 C352 0.929 . S
H359 C353 0.930 . S
Mn360 O365 2.095 . S
Mn360 O375 2.162 . S
Mn360 O376 2.297 . S
Mn360 O384 2.385 1_554 S
Mn360 O385 2.209 1_554 S
Mn360 O386 2.094 . S
Mn361 O366 2.121 . S
Mn361 N368 2.257 . S
Mn361 N377 2.282 1_554 S
Mn361 O385 2.215 1_554 S
Mn361 O387 2.117 . S
C362 O384 1.234 . S
C362 O385 1.283 . S
C363 O375 1.281 . S
C363 O376 1.236 . S
C364 O386 1.240 . S
C364 O387 1.264 . S
O365 Mn360 2.095 . S
O365 C374 1.250 . S
O366 Mn361 2.121 . S
O366 C374 1.258 . S
C367 N368 1.326 . S
C367 C371 1.460 . S
C367 H373 0.929 . S
N368 Mn361 2.257 . S
N368 C367 1.326 . S
N368 C372 1.362 1_554 S
C369 C370 1.258 . S
C369 C372 1.431 . S
C369 C389 1.449 . S
C370 C369 1.258 . S
C370 C371 1.477 1_556 S
C370 H390 0.931 . S
C371 C367 1.460 . S
C371 C370 1.477 1_554 S
C371 H391 0.930 . S
C372 N368 1.362 1_556 S
C372 C369 1.431 . S
C372 C382 1.476 . S
H373 C367 0.929 . S
C374 O365 1.250 . S
C374 O366 1.258 . S
O375 Mn360 2.162 . S
O375 C363 1.281 . S
O376 Mn360 2.297 . S
O376 C363 1.236 . S
N377 Mn361 2.282 1_556 S
N377 C378 1.328 . S
N377 C382 1.318 . S
C378 N377 1.328 . S
C378 C379 1.457 . S
C378 H383 0.929 . S
C379 C378 1.457 . S
C379 C380 1.291 . S
C379 H392 0.931 . S
C380 C379 1.291 . S
C380 C381 1.373 . S
C380 H393 0.929 . S
C381 C380 1.373 . S
C381 C382 1.396 . S
C381 C388 1.403 . S
C382 C372 1.476 . S
C382 N377 1.318 . S
C382 C381 1.396 . S
H383 C378 0.929 . S
O384 Mn360 2.385 1_556 S
O384 C362 1.234 . S
O385 Mn360 2.209 1_556 S
O385 Mn361 2.215 1_556 S
O385 C362 1.283 . S
O386 Mn360 2.094 . S
O386 C364 1.240 . S
O387 Mn361 2.117 . S
O387 C364 1.264 . S
C388 C381 1.403 . S
C388 C389 1.399 . S
C388 H394 0.929 . S
C389 C369 1.449 . S
C389 C388 1.399 . S
C389 H395 0.930 . S
H390 C370 0.931 . S
H391 C371 0.930 . S
H392 C379 0.931 . S
H393 C380 0.929 . S
H394 C388 0.929 . S
H395 C389 0.930 . S
Mn396 O401 2.095 . S
Mn396 O411 2.162 . S
Mn396 O412 2.297 . S
Mn396 O420 2.385 1_554 S
Mn396 O421 2.209 1_554 S
Mn396 O422 2.094 . S
Mn397 O402 2.121 . S
Mn397 N404 2.257 . S
Mn397 N413 2.282 1_554 S
Mn397 O421 2.215 1_554 S
Mn397 O423 2.117 . S
C398 O420 1.234 . S
C398 O421 1.283 . S
C399 O411 1.281 . S
C399 O412 1.236 . S
C400 O422 1.240 . S
C400 O423 1.264 . S
O401 Mn396 2.095 . S
O401 C410 1.250 . S
O402 Mn397 2.121 . S
O402 C410 1.258 . S
C403 N404 1.326 . S
C403 C407 1.460 . S
C403 H409 0.929 . S
N404 Mn397 2.257 . S
N404 C403 1.326 . S
N404 C408 1.362 1_554 S
C405 C406 1.258 . S
C405 C408 1.431 . S
C405 C425 1.449 . S
C406 C405 1.258 . S
C406 C407 1.477 1_556 S
C406 H426 0.931 . S
C407 C403 1.460 . S
C407 C406 1.477 1_554 S
C407 H427 0.930 . S
C408 N404 1.362 1_556 S
C408 C405 1.431 . S
C408 C418 1.476 . S
H409 C403 0.929 . S
C410 O401 1.250 . S
C410 O402 1.258 . S
O411 Mn396 2.162 . S
O411 C399 1.281 . S
O412 Mn396 2.297 . S
O412 C399 1.236 . S
N413 Mn397 2.282 1_556 S
N413 C414 1.328 . S
N413 C418 1.318 . S
C414 N413 1.328 . S
C414 C415 1.457 . S
C414 H419 0.929 . S
C415 C414 1.457 . S
C415 C416 1.291 . S
C415 H428 0.931 . S
C416 C415 1.291 . S
C416 C417 1.373 . S
C416 H429 0.929 . S
C417 C416 1.373 . S
C417 C418 1.396 . S
C417 C424 1.403 . S
C418 C408 1.476 . S
C418 N413 1.318 . S
C418 C417 1.396 . S
H419 C414 0.929 . S
O420 Mn396 2.385 1_556 S
O420 C398 1.234 . S
O421 Mn396 2.209 1_556 S
O421 Mn397 2.215 1_556 S
O421 C398 1.283 . S
O422 Mn396 2.094 . S
O422 C400 1.240 . S
O423 Mn397 2.117 . S
O423 C400 1.264 . S
C424 C417 1.403 . S
C424 C425 1.399 . S
C424 H430 0.929 . S
C425 C405 1.449 . S
C425 C424 1.399 . S
C425 H431 0.930 . S
H426 C406 0.931 . S
H427 C407 0.930 . S
H428 C415 0.931 . S
H429 C416 0.929 . S
H430 C424 0.929 . S
H431 C425 0.930 . S
Mn432 O437 2.095 . S
Mn432 O447 2.162 . S
Mn432 O448 2.297 . S
Mn432 O456 2.385 . S
Mn432 O457 2.209 . S
Mn432 O458 2.094 . S
Mn433 O438 2.121 . S
Mn433 N440 2.257 . S
Mn433 N449 2.282 . S
Mn433 O457 2.215 . S
Mn433 O459 2.117 . S
C434 O456 1.234 . S
C434 O457 1.283 . S
C435 O447 1.281 . S
C435 O448 1.236 . S
C436 O458 1.240 . S
C436 O459 1.264 . S
O437 Mn432 2.095 . S
O437 C446 1.250 . S
O438 Mn433 2.121 . S
O438 C446 1.258 . S
C439 N440 1.326 . S
C439 C443 1.460 . S
C439 H445 0.929 . S
N440 Mn433 2.257 . S
N440 C439 1.326 . S
N440 C444 1.362 . S
C441 C442 1.258 . S
C441 C444 1.431 . S
C441 C461 1.449 . S
C442 C441 1.258 . S
C442 C443 1.477 . S
C442 H462 0.931 . S
C443 C439 1.460 . S
C443 C442 1.477 . S
C443 H463 0.930 . S
C444 N440 1.362 . S
C444 C441 1.431 . S
C444 C454 1.476 . S
H445 C439 0.929 . S
C446 O437 1.250 . S
C446 O438 1.258 . S
O447 Mn432 2.162 . S
O447 C435 1.281 . S
O448 Mn432 2.297 . S
O448 C435 1.236 . S
N449 Mn433 2.282 . S
N449 C450 1.328 . S
N449 C454 1.318 . S
C450 N449 1.328 . S
C450 C451 1.457 . S
C450 H455 0.929 . S
C451 C450 1.457 . S
C451 C452 1.291 . S
C451 H464 0.929 1_554 S
C452 C451 1.291 . S
C452 C453 1.373 . S
C452 H465 0.929 1_554 S
C453 C452 1.373 . S
C453 C454 1.396 . S
C453 C460 1.403 . S
C454 C444 1.476 . S
C454 N449 1.318 . S
C454 C453 1.396 . S
H455 C450 0.929 . S
O456 Mn432 2.385 . S
O456 C434 1.234 . S
O457 Mn432 2.209 . S
O457 Mn433 2.215 . S
O457 C434 1.283 . S
O458 Mn432 2.094 . S
O458 C436 1.240 . S
O459 Mn433 2.117 . S
O459 C436 1.264 . S
C460 C453 1.403 . S
C460 C461 1.399 . S
C460 H466 0.929 1_554 S
C461 C441 1.449 . S
C461 C460 1.399 . S
C461 H467 0.930 . S
H462 C442 0.931 . S
H463 C443 0.930 . S
H464 C451 0.929 1_556 S
H465 C452 0.929 1_556 S
H466 C460 0.929 1_556 S
H467 C461 0.930 . S
Mn468 O473 2.095 . S
Mn468 O483 2.162 . S
Mn468 O484 2.297 . S
Mn468 O492 2.385 . S
Mn468 O493 2.209 . S
Mn468 O494 2.094 . S
Mn469 O474 2.121 . S
Mn469 N476 2.257 . S
Mn469 N485 2.282 . S
Mn469 O493 2.215 . S
Mn469 O495 2.117 . S
C470 O492 1.234 . S
C470 O493 1.283 . S
C471 O483 1.281 . S
C471 O484 1.236 . S
C472 O494 1.240 . S
C472 O495 1.264 . S
O473 Mn468 2.095 . S
O473 C482 1.250 . S
O474 Mn469 2.121 . S
O474 C482 1.258 . S
C475 N476 1.326 . S
C475 C479 1.460 . S
C475 H481 0.929 . S
N476 Mn469 2.257 . S
N476 C475 1.326 . S
N476 C480 1.362 . S
C477 C478 1.258 . S
C477 C480 1.431 . S
C477 C497 1.449 . S
C478 C477 1.258 . S
C478 C479 1.477 . S
C478 H498 0.931 . S
C479 C475 1.460 . S
C479 C478 1.477 . S
C479 H499 0.930 . S
C480 N476 1.362 . S
C480 C477 1.431 . S
C480 C490 1.476 . S
H481 C475 0.929 . S
C482 O473 1.250 . S
C482 O474 1.258 . S
O483 Mn468 2.162 . S
O483 C471 1.281 . S
O484 Mn468 2.297 . S
O484 C471 1.236 . S
N485 Mn469 2.282 . S
N485 C486 1.328 . S
N485 C490 1.318 . S
C486 N485 1.328 . S
C486 C487 1.457 . S
C486 H491 0.929 . S
C487 C486 1.457 . S
C487 C488 1.291 . S
C487 H500 0.929 1_554 S
C488 C487 1.291 . S
C488 C489 1.373 . S
C488 H501 0.929 1_554 S
C489 C488 1.373 . S
C489 C490 1.396 . S
C489 C496 1.403 . S
C490 C480 1.476 . S
C490 N485 1.318 . S
C490 C489 1.396 . S
H491 C486 0.929 . S
O492 Mn468 2.385 . S
O492 C470 1.234 . S
O493 Mn468 2.209 . S
O493 Mn469 2.215 . S
O493 C470 1.283 . S
O494 Mn468 2.094 . S
O494 C472 1.240 . S
O495 Mn469 2.117 . S
O495 C472 1.264 . S
C496 C489 1.403 . S
C496 C497 1.399 . S
C496 H502 0.929 1_554 S
C497 C477 1.449 . S
C497 C496 1.399 . S
C497 H503 0.930 . S
H498 C478 0.931 . S
H499 C479 0.930 . S
H500 C487 0.929 1_556 S
H501 C488 0.929 1_556 S
H502 C496 0.929 1_556 S
H503 C497 0.930 . S
Mn504 O509 2.095 . S
Mn504 O519 2.162 . S
Mn504 O520 2.297 . S
Mn504 O528 2.385 . S
Mn504 O529 2.209 . S
Mn504 O530 2.094 . S
Mn505 O510 2.121 . S
Mn505 N512 2.257 . S
Mn505 N521 2.282 . S
Mn505 O529 2.215 . S
Mn505 O531 2.117 . S
C506 O528 1.234 . S
C506 O529 1.283 . S
C507 O519 1.281 . S
C507 O520 1.236 . S
C508 O530 1.240 . S
C508 O531 1.264 . S
O509 Mn504 2.095 . S
O509 C518 1.250 . S
O510 Mn505 2.121 . S
O510 C518 1.258 . S
C511 N512 1.326 . S
C511 C515 1.460 . S
C511 H517 0.929 . S
N512 Mn505 2.257 . S
N512 C511 1.326 . S
N512 C516 1.362 . S
C513 C514 1.258 . S
C513 C516 1.431 . S
C513 C533 1.449 . S
C514 C513 1.258 . S
C514 C515 1.477 . S
C514 H534 0.931 . S
C515 C511 1.460 . S
C515 C514 1.477 . S
C515 H535 0.930 . S
C516 N512 1.362 . S
C516 C513 1.431 . S
C516 C526 1.476 . S
H517 C511 0.929 . S
C518 O509 1.250 . S
C518 O510 1.258 . S
O519 Mn504 2.162 . S
O519 C507 1.281 . S
O520 Mn504 2.297 . S
O520 C507 1.236 . S
N521 Mn505 2.282 . S
N521 C522 1.328 . S
N521 C526 1.318 . S
C522 N521 1.328 . S
C522 C523 1.457 . S
C522 H527 0.929 . S
C523 C522 1.457 . S
C523 C524 1.291 . S
C523 H536 0.928 1_554 S
C524 C523 1.291 . S
C524 C525 1.373 . S
C524 H537 0.929 1_554 S
C525 C524 1.373 . S
C525 C526 1.396 . S
C525 C532 1.403 . S
C526 C516 1.476 . S
C526 N521 1.318 . S
C526 C525 1.396 . S
H527 C522 0.929 . S
O528 Mn504 2.385 . S
O528 C506 1.234 . S
O529 Mn504 2.209 . S
O529 Mn505 2.215 . S
O529 C506 1.283 . S
O530 Mn504 2.094 . S
O530 C508 1.240 . S
O531 Mn505 2.117 . S
O531 C508 1.264 . S
C532 C525 1.403 . S
C532 C533 1.399 . S
C532 H538 0.929 1_554 S
C533 C513 1.449 . S
C533 C532 1.399 . S
C533 H539 0.930 . S
H534 C514 0.931 . S
H535 C515 0.930 . S
H536 C523 0.928 1_556 S
H537 C524 0.929 1_556 S
H538 C532 0.929 1_556 S
H539 C533 0.930 . S
Mn540 O545 2.095 . S
Mn540 O555 2.162 . S
Mn540 O556 2.297 . S
Mn540 O564 2.385 . S
Mn540 O565 2.203 1_655 S
Mn540 O566 2.094 . S
Mn541 O546 2.121 . S
Mn541 N548 2.257 . S
Mn541 N557 2.282 . S
Mn541 O565 2.215 . S
Mn541 O567 2.117 1_455 S
C542 O564 1.234 . S
C542 O565 1.282 1_655 S
C543 O555 1.281 . S
C543 O556 1.236 . S
C544 O566 1.240 . S
C544 O567 1.264 . S
O545 Mn540 2.095 . S
O545 C554 1.250 . S
O546 Mn541 2.121 . S
O546 C554 1.258 1_455 S
C547 N548 1.326 . S
C547 C551 1.460 . S
C547 H553 0.929 . S
N548 Mn541 2.257 . S
N548 C547 1.326 . S
N548 C552 1.362 . S
C549 C550 1.258 . S
C549 C552 1.431 . S
C549 C569 1.449 . S
C550 C549 1.258 . S
C550 C551 1.477 . S
C550 H570 0.931 . S
C551 C547 1.460 . S
C551 C550 1.477 . S
C551 H571 0.930 . S
C552 N548 1.362 . S
C552 C549 1.431 . S
C552 C562 1.476 . S
H553 C547 0.929 . S
C554 O545 1.250 . S
C554 O546 1.258 1_655 S
O555 Mn540 2.162 . S
O555 C543 1.281 . S
O556 Mn540 2.297 . S
O556 C543 1.236 . S
N557 Mn541 2.282 . S
N557 C558 1.328 . S
N557 C562 1.318 . S
C558 N557 1.328 . S
C558 C559 1.457 . S
C558 H563 0.938 . S
C559 C558 1.457 . S
C559 C560 1.291 . S
C559 H572 0.931 . S
C560 C559 1.291 . S
C560 C561 1.373 . S
C560 H573 0.929 . S
C561 C560 1.373 . S
C561 C562 1.396 . S
C561 C568 1.403 . S
C562 C552 1.476 . S
C562 N557 1.318 . S
C562 C561 1.396 . S
H563 C558 0.938 . S
O564 Mn540 2.385 . S
O564 C542 1.234 . S
O565 Mn540 2.203 1_455 S
O565 Mn541 2.215 . S
O565 C542 1.282 1_455 S
O566 Mn540 2.094 . S
O566 C544 1.240 . S
O567 Mn541 2.117 1_655 S
O567 C544 1.264 . S
C568 C561 1.403 . S
C568 C569 1.399 . S
C568 H574 0.929 . S
C569 C549 1.449 . S
C569 C568 1.399 . S
C569 H575 0.930 . S
H570 C550 0.931 . S
H571 C551 0.930 . S
H572 C559 0.931 . S
H573 C560 0.929 . S
H574 C568 0.929 . S
H575 C569 0.930 . S
Mn576 O581 2.095 . S
Mn576 O591 2.162 . S
Mn576 O592 2.297 . S
Mn576 O600 2.385 . S
Mn576 O601 2.209 . S
Mn576 O602 2.094 . S
Mn577 O582 2.121 . S
Mn577 N584 2.257 . S
Mn577 N593 2.282 . S
Mn577 O601 2.215 . S
Mn577 O603 2.117 . S
C578 O600 1.234 . S
C578 O601 1.283 . S
C579 O591 1.281 . S
C579 O592 1.236 . S
C580 O602 1.240 . S
C580 O603 1.264 . S
O581 Mn576 2.095 . S
O581 C590 1.250 . S
O582 Mn577 2.121 . S
O582 C590 1.258 . S
C583 N584 1.326 . S
C583 C587 1.460 . S
C583 H589 0.929 . S
N584 Mn577 2.257 . S
N584 C583 1.326 . S
N584 C588 1.362 . S
C585 C586 1.258 . S
C585 C588 1.431 . S
C585 C605 1.449 . S
C586 C585 1.258 . S
C586 C587 1.477 . S
C586 H606 0.931 . S
C587 C583 1.460 . S
C587 C586 1.477 . S
C587 H607 0.930 . S
C588 N584 1.362 . S
C588 C585 1.431 . S
C588 C598 1.476 . S
H589 C583 0.929 . S
C590 O581 1.250 . S
C590 O582 1.258 . S
O591 Mn576 2.162 . S
O591 C579 1.281 . S
O592 Mn576 2.297 . S
O592 C579 1.236 . S
N593 Mn577 2.282 . S
N593 C594 1.328 . S
N593 C598 1.318 . S
C594 N593 1.328 . S
C594 C595 1.457 . S
C594 H599 0.929 . S
C595 C594 1.457 . S
C595 C596 1.291 . S
C595 H608 0.931 . S
C596 C595 1.291 . S
C596 C597 1.373 . S
C596 H609 0.929 . S
C597 C596 1.373 . S
C597 C598 1.396 . S
C597 C604 1.403 . S
C598 C588 1.476 . S
C598 N593 1.318 . S
C598 C597 1.396 . S
H599 C594 0.929 . S
O600 Mn576 2.385 . S
O600 C578 1.234 . S
O601 Mn576 2.209 . S
O601 Mn577 2.215 . S
O601 C578 1.283 . S
O602 Mn576 2.094 . S
O602 C580 1.240 . S
O603 Mn577 2.117 . S
O603 C580 1.264 . S
C604 C597 1.403 . S
C604 C605 1.399 . S
C604 H610 0.929 . S
C605 C585 1.449 . S
C605 C604 1.399 . S
C605 H611 0.930 . S
H606 C586 0.931 . S
H607 C587 0.930 . S
H608 C595 0.931 . S
H609 C596 0.929 . S
H610 C604 0.929 . S
H611 C605 0.930 . S
Mn612 O617 2.095 . S
Mn612 O627 2.162 . S
Mn612 O628 2.297 . S
Mn612 O636 2.385 . S
Mn612 O637 2.202 1_545 S
Mn612 O638 2.094 . S
Mn613 O618 2.121 . S
Mn613 N620 2.257 . S
Mn613 N629 2.282 . S
Mn613 O637 2.221 . S
Mn613 O639 2.117 1_565 S
C614 O636 1.234 . S
C614 O637 1.281 1_545 S
C615 O627 1.281 . S
C615 O628 1.236 . S
C616 O638 1.240 . S
C616 O639 1.264 . S
O617 Mn612 2.095 . S
O617 C626 1.250 . S
O618 Mn613 2.121 . S
O618 C626 1.258 1_565 S
C619 N620 1.326 . S
C619 C623 1.460 . S
C619 H625 0.929 . S
N620 Mn613 2.257 . S
N620 C619 1.326 . S
N620 C624 1.362 . S
C621 C622 1.258 . S
C621 C624 1.431 . S
C621 C641 1.449 . S
C622 C621 1.258 . S
C622 C623 1.477 . S
C622 H642 0.931 . S
C623 C619 1.460 . S
C623 C622 1.477 . S
C623 H643 0.930 . S
C624 N620 1.362 . S
C624 C621 1.431 . S
C624 C634 1.476 . S
H625 C619 0.929 . S
C626 O617 1.250 . S
C626 O618 1.258 1_545 S
O627 Mn612 2.162 . S
O627 C615 1.281 . S
O628 Mn612 2.297 . S
O628 C615 1.236 . S
N629 Mn613 2.282 . S
N629 C630 1.328 . S
N629 C634 1.318 . S
C630 N629 1.328 . S
C630 C631 1.457 . S
C630 H635 0.937 . S
C631 C630 1.457 . S
C631 C632 1.291 . S
C631 H644 0.931 . S
C632 C631 1.291 . S
C632 C633 1.373 . S
C632 H645 0.929 . S
C633 C632 1.373 . S
C633 C634 1.396 . S
C633 C640 1.403 . S
C634 C624 1.476 . S
C634 N629 1.318 . S
C634 C633 1.396 . S
H635 C630 0.937 . S
O636 Mn612 2.385 . S
O636 C614 1.234 . S
O637 Mn612 2.202 1_565 S
O637 Mn613 2.221 . S
O637 C614 1.281 1_565 S
O638 Mn612 2.094 . S
O638 C616 1.240 . S
O639 Mn613 2.117 1_545 S
O639 C616 1.264 . S
C640 C633 1.403 . S
C640 C641 1.399 . S
C640 H646 0.929 . S
C641 C621 1.449 . S
C641 C640 1.399 . S
C641 H647 0.930 . S
H642 C622 0.931 . S
H643 C623 0.930 . S
H644 C631 0.931 . S
H645 C632 0.929 . S
H646 C640 0.929 . S
H647 C641 0.930 . S
Mn648 O653 2.095 . S
Mn648 O663 2.162 . S
Mn648 O664 2.297 . S
Mn648 O672 2.385 . S
Mn648 O673 2.203 1_545 S
Mn648 O674 2.094 . S
Mn649 O654 2.121 . S
Mn649 N656 2.257 . S
Mn649 N665 2.282 . S
Mn649 O673 2.215 . S
Mn649 O675 2.117 1_565 S
C650 O672 1.234 . S
C650 O673 1.282 1_545 S
C651 O663 1.281 . S
C651 O664 1.236 . S
C652 O674 1.240 . S
C652 O675 1.264 . S
O653 Mn648 2.095 . S
O653 C662 1.250 . S
O654 Mn649 2.121 . S
O654 C662 1.258 1_565 S
C655 N656 1.326 . S
C655 C659 1.460 . S
C655 H661 0.929 . S
N656 Mn649 2.257 . S
N656 C655 1.326 . S
N656 C660 1.362 . S
C657 C658 1.258 . S
C657 C660 1.431 . S
C657 C677 1.449 . S
C658 C657 1.258 . S
C658 C659 1.477 . S
C658 H678 0.931 . S
C659 C655 1.460 . S
C659 C658 1.477 . S
C659 H679 0.930 . S
C660 N656 1.362 . S
C660 C657 1.431 . S
C660 C670 1.476 . S
H661 C655 0.929 . S
C662 O653 1.250 . S
C662 O654 1.258 1_545 S
O663 Mn648 2.162 . S
O663 C651 1.281 . S
O664 Mn648 2.297 . S
O664 C651 1.236 . S
N665 Mn649 2.282 . S
N665 C666 1.328 . S
N665 C670 1.318 . S
C666 N665 1.328 . S
C666 C667 1.457 . S
C666 H671 0.939 . S
C667 C666 1.457 . S
C667 C668 1.291 . S
C667 H680 0.931 . S
C668 C667 1.291 . S
C668 C669 1.373 . S
C668 H681 0.929 . S
C669 C668 1.373 . S
C669 C670 1.396 . S
C669 C676 1.403 . S
C670 C660 1.476 . S
C670 N665 1.318 . S
C670 C669 1.396 . S
H671 C666 0.939 . S
O672 Mn648 2.385 . S
O672 C650 1.234 . S
O673 Mn648 2.203 1_565 S
O673 Mn649 2.215 . S
O673 C650 1.282 1_565 S
O674 Mn648 2.094 . S
O674 C652 1.240 . S
O675 Mn649 2.117 1_545 S
O675 C652 1.264 . S
C676 C669 1.403 . S
C676 C677 1.399 . S
C676 H682 0.929 . S
C677 C657 1.449 . S
C677 C676 1.399 . S
C677 H683 0.930 . S
H678 C658 0.931 . S
H679 C659 0.930 . S
H680 C667 0.931 . S
H681 C668 0.929 . S
H682 C676 0.929 . S
H683 C677 0.930 . S
Mn684 O689 2.095 . S
Mn684 O699 2.162 . S
Mn684 O700 2.297 . S
Mn684 O708 2.385 . S
Mn684 O709 2.202 1_655 S
Mn684 O710 2.094 . S
Mn685 O690 2.121 . S
Mn685 N692 2.257 . S
Mn685 N701 2.282 . S
Mn685 O709 2.221 . S
Mn685 O711 2.117 1_455 S
C686 O708 1.234 . S
C686 O709 1.281 1_655 S
C687 O699 1.281 . S
C687 O700 1.236 . S
C688 O710 1.240 . S
C688 O711 1.264 . S
O689 Mn684 2.095 . S
O689 C698 1.250 . S
O690 Mn685 2.121 . S
O690 C698 1.258 1_455 S
C691 N692 1.326 . S
C691 C695 1.460 . S
C691 H697 0.929 . S
N692 Mn685 2.257 . S
N692 C691 1.326 . S
N692 C696 1.362 . S
C693 C694 1.258 . S
C693 C696 1.431 . S
C693 C713 1.449 . S
C694 C693 1.258 . S
C694 C695 1.477 . S
C694 H714 0.931 . S
C695 C691 1.460 . S
C695 C694 1.477 . S
C695 H715 0.930 . S
C696 N692 1.362 . S
C696 C693 1.431 . S
C696 C706 1.476 . S
H697 C691 0.929 . S
C698 O689 1.250 . S
C698 O690 1.258 1_655 S
O699 Mn684 2.162 . S
O699 C687 1.281 . S
O700 Mn684 2.297 . S
O700 C687 1.236 . S
N701 Mn685 2.282 . S
N701 C702 1.328 . S
N701 C706 1.318 . S
C702 N701 1.328 . S
C702 C703 1.457 . S
C702 H707 0.937 . S
C703 C702 1.457 . S
C703 C704 1.291 . S
C703 H716 0.931 . S
C704 C703 1.291 . S
C704 C705 1.373 . S
C704 H717 0.929 . S
C705 C704 1.373 . S
C705 C706 1.396 . S
C705 C712 1.403 . S
C706 C696 1.476 . S
C706 N701 1.318 . S
C706 C705 1.396 . S
H707 C702 0.937 . S
O708 Mn684 2.385 . S
O708 C686 1.234 . S
O709 Mn684 2.202 1_455 S
O709 Mn685 2.221 . S
O709 C686 1.281 1_455 S
O710 Mn684 2.094 . S
O710 C688 1.240 . S
O711 Mn685 2.117 1_655 S
O711 C688 1.264 . S
C712 C705 1.403 . S
C712 C713 1.399 . S
C712 H718 0.929 . S
C713 C693 1.449 . S
C713 C712 1.399 . S
C713 H719 0.930 . S
H714 C694 0.931 . S
H715 C695 0.930 . S
H716 C703 0.931 . S
H717 C704 0.929 . S
H718 C712 0.929 . S
H719 C713 0.930 . S
Mn720 O725 2.095 . S
Mn720 O735 2.162 . S
Mn720 O736 2.297 . S
Mn720 O744 2.385 . S
Mn720 O745 2.209 . S
Mn720 O746 2.094 . S
Mn721 O726 2.121 . S
Mn721 N728 2.257 . S
Mn721 N737 2.282 . S
Mn721 O745 2.215 . S
Mn721 O747 2.117 . S
C722 O744 1.234 . S
C722 O745 1.283 . S
C723 O735 1.281 . S
C723 O736 1.236 . S
C724 O746 1.240 . S
C724 O747 1.264 . S
O725 Mn720 2.095 . S
O725 C734 1.250 . S
O726 Mn721 2.121 . S
O726 C734 1.258 . S
C727 N728 1.326 . S
C727 C731 1.460 . S
C727 H733 0.929 . S
N728 Mn721 2.257 . S
N728 C727 1.326 . S
N728 C732 1.362 . S
C729 C730 1.258 . S
C729 C732 1.431 . S
C729 C749 1.449 . S
C730 C729 1.258 . S
C730 C731 1.477 . S
C730 H750 0.931 . S
C731 C727 1.460 . S
C731 C730 1.477 . S
C731 H751 0.930 . S
C732 N728 1.362 . S
C732 C729 1.431 . S
C732 C742 1.476 . S
H733 C727 0.929 . S
C734 O725 1.250 . S
C734 O726 1.258 . S
O735 Mn720 2.162 . S
O735 C723 1.281 . S
O736 Mn720 2.297 . S
O736 C723 1.236 . S
N737 Mn721 2.282 . S
N737 C738 1.328 . S
N737 C742 1.318 . S
C738 N737 1.328 . S
C738 C739 1.457 . S
C738 H743 0.929 . S
C739 C738 1.457 . S
C739 C740 1.291 . S
C739 H752 0.931 . S
C740 C739 1.291 . S
C740 C741 1.373 . S
C740 H753 0.929 . S
C741 C740 1.373 . S
C741 C742 1.396 . S
C741 C748 1.403 . S
C742 C732 1.476 . S
C742 N737 1.318 . S
C742 C741 1.396 . S
H743 C738 0.929 . S
O744 Mn720 2.385 . S
O744 C722 1.234 . S
O745 Mn720 2.209 . S
O745 Mn721 2.215 . S
O745 C722 1.283 . S
O746 Mn720 2.094 . S
O746 C724 1.240 . S
O747 Mn721 2.117 . S
O747 C724 1.264 . S
C748 C741 1.403 . S
C748 C749 1.399 . S
C748 H754 0.929 . S
C749 C729 1.449 . S
C749 C748 1.399 . S
C749 H755 0.930 . S
H750 C730 0.931 . S
H751 C731 0.930 . S
H752 C739 0.931 . S
H753 C740 0.929 . S
H754 C748 0.929 . S
H755 C749 0.930 . S
Mn756 O761 2.095 . S
Mn756 O771 2.162 . S
Mn756 O772 2.297 . S
Mn756 O780 2.385 . S
Mn756 O781 2.209 . S
Mn756 O782 2.094 . S
Mn757 O762 2.121 . S
Mn757 N764 2.257 . S
Mn757 N773 2.282 . S
Mn757 O781 2.215 . S
Mn757 O783 2.117 . S
C758 O780 1.234 . S
C758 O781 1.283 . S
C759 O771 1.281 . S
C759 O772 1.236 . S
C760 O782 1.240 . S
C760 O783 1.264 . S
O761 Mn756 2.095 . S
O761 C770 1.250 . S
O762 Mn757 2.121 . S
O762 C770 1.258 . S
C763 N764 1.326 . S
C763 C767 1.460 . S
C763 H769 0.929 . S
N764 Mn757 2.257 . S
N764 C763 1.326 . S
N764 C768 1.362 . S
C765 C766 1.258 . S
C765 C768 1.431 . S
C765 C785 1.449 . S
C766 C765 1.258 . S
C766 C767 1.477 . S
C766 H786 0.931 . S
C767 C763 1.460 . S
C767 C766 1.477 . S
C767 H787 0.930 . S
C768 N764 1.362 . S
C768 C765 1.431 . S
C768 C778 1.476 . S
H769 C763 0.929 . S
C770 O761 1.250 . S
C770 O762 1.258 . S
O771 Mn756 2.162 . S
O771 C759 1.281 . S
O772 Mn756 2.297 . S
O772 C759 1.236 . S
N773 Mn757 2.282 . S
N773 C774 1.328 . S
N773 C778 1.318 . S
C774 N773 1.328 . S
C774 C775 1.457 . S
C774 H779 0.929 . S
C775 C774 1.457 . S
C775 C776 1.291 . S
C775 H788 0.929 1_554 S
C776 C775 1.291 . S
C776 C777 1.373 . S
C776 H789 0.929 1_554 S
C777 C776 1.373 . S
C777 C778 1.396 . S
C777 C784 1.403 . S
C778 C768 1.476 . S
C778 N773 1.318 . S
C778 C777 1.396 . S
H779 C774 0.929 . S
O780 Mn756 2.385 . S
O780 C758 1.234 . S
O781 Mn756 2.209 . S
O781 Mn757 2.215 . S
O781 C758 1.283 . S
O782 Mn756 2.094 . S
O782 C760 1.240 . S
O783 Mn757 2.117 . S
O783 C760 1.264 . S
C784 C777 1.403 . S
C784 C785 1.399 . S
C784 H790 0.929 1_554 S
C785 C765 1.449 . S
C785 C784 1.399 . S
C785 H791 0.930 . S
H786 C766 0.931 . S
H787 C767 0.930 . S
H788 C775 0.929 1_556 S
H789 C776 0.929 1_556 S
H790 C784 0.929 1_556 S
H791 C785 0.930 . S
Mn792 O797 2.095 . S
Mn792 O807 2.162 . S
Mn792 O808 2.297 . S
Mn792 O816 2.385 . S
Mn792 O817 2.209 . S
Mn792 O818 2.094 . S
Mn793 O798 2.121 . S
Mn793 N800 2.257 . S
Mn793 N809 2.282 . S
Mn793 O817 2.215 . S
Mn793 O819 2.117 . S
C794 O816 1.234 . S
C794 O817 1.283 . S
C795 O807 1.281 . S
C795 O808 1.236 . S
C796 O818 1.240 . S
C796 O819 1.264 . S
O797 Mn792 2.095 . S
O797 C806 1.250 . S
O798 Mn793 2.121 . S
O798 C806 1.258 . S
C799 N800 1.326 . S
C799 C803 1.460 . S
C799 H805 0.929 . S
N800 Mn793 2.257 . S
N800 C799 1.326 . S
N800 C804 1.362 . S
C801 C802 1.258 . S
C801 C804 1.431 . S
C801 C821 1.449 . S
C802 C801 1.258 . S
C802 C803 1.477 . S
C802 H822 0.931 . S
C803 C799 1.460 . S
C803 C802 1.477 . S
C803 H823 0.930 . S
C804 N800 1.362 . S
C804 C801 1.431 . S
C804 C814 1.476 . S
H805 C799 0.929 . S
C806 O797 1.250 . S
C806 O798 1.258 . S
O807 Mn792 2.162 . S
O807 C795 1.281 . S
O808 Mn792 2.297 . S
O808 C795 1.236 . S
N809 Mn793 2.282 . S
N809 C810 1.328 . S
N809 C814 1.318 . S
C810 N809 1.328 . S
C810 C811 1.457 . S
C810 H815 0.929 . S
C811 C810 1.457 . S
C811 C812 1.291 . S
C811 H824 0.928 1_554 S
C812 C811 1.291 . S
C812 C813 1.373 . S
C812 H825 0.929 1_554 S
C813 C812 1.373 . S
C813 C814 1.396 . S
C813 C820 1.403 . S
C814 C804 1.476 . S
C814 N809 1.318 . S
C814 C813 1.396 . S
H815 C810 0.929 . S
O816 Mn792 2.385 . S
O816 C794 1.234 . S
O817 Mn792 2.209 . S
O817 Mn793 2.215 . S
O817 C794 1.283 . S
O818 Mn792 2.094 . S
O818 C796 1.240 . S
O819 Mn793 2.117 . S
O819 C796 1.264 . S
C820 C813 1.403 . S
C820 C821 1.399 . S
C820 H826 0.929 1_554 S
C821 C801 1.449 . S
C821 C820 1.399 . S
C821 H827 0.930 . S
H822 C802 0.931 . S
H823 C803 0.930 . S
H824 C811 0.928 1_556 S
H825 C812 0.929 1_556 S
H826 C820 0.929 1_556 S
H827 C821 0.930 . S
Mn828 O833 2.095 . S
Mn828 O843 2.162 . S
Mn828 O844 2.297 . S
Mn828 O852 2.385 . S
Mn828 O853 2.209 . S
Mn828 O854 2.094 . S
Mn829 O834 2.121 . S
Mn829 N836 2.257 . S
Mn829 N845 2.282 . S
Mn829 O853 2.215 . S
Mn829 O855 2.117 . S
C830 O852 1.234 . S
C830 O853 1.283 . S
C831 O843 1.281 . S
C831 O844 1.236 . S
C832 O854 1.240 . S
C832 O855 1.264 . S
O833 Mn828 2.095 . S
O833 C842 1.250 . S
O834 Mn829 2.121 . S
O834 C842 1.258 . S
C835 N836 1.326 . S
C835 C839 1.460 . S
C835 H841 0.929 . S
N836 Mn829 2.257 . S
N836 C835 1.326 . S
N836 C840 1.362 . S
C837 C838 1.258 . S
C837 C840 1.431 . S
C837 C857 1.449 . S
C838 C837 1.258 . S
C838 C839 1.477 . S
C838 H858 0.931 . S
C839 C835 1.460 . S
C839 C838 1.477 . S
C839 H859 0.930 . S
C840 N836 1.362 . S
C840 C837 1.431 . S
C840 C850 1.476 . S
H841 C835 0.929 . S
C842 O833 1.250 . S
C842 O834 1.258 . S
O843 Mn828 2.162 . S
O843 C831 1.281 . S
O844 Mn828 2.297 . S
O844 C831 1.236 . S
N845 Mn829 2.282 . S
N845 C846 1.328 . S
N845 C850 1.318 . S
C846 N845 1.328 . S
C846 C847 1.457 . S
C846 H851 0.929 . S
C847 C846 1.457 . S
C847 C848 1.291 . S
C847 H860 0.929 1_554 S
C848 C847 1.291 . S
C848 C849 1.373 . S
C848 H861 0.929 1_554 S
C849 C848 1.373 . S
C849 C850 1.396 . S
C849 C856 1.403 . S
C850 C840 1.476 . S
C850 N845 1.318 . S
C850 C849 1.396 . S
H851 C846 0.929 . S
O852 Mn828 2.385 . S
O852 C830 1.234 . S
O853 Mn828 2.209 . S
O853 Mn829 2.215 . S
O853 C830 1.283 . S
O854 Mn828 2.094 . S
O854 C832 1.240 . S
O855 Mn829 2.117 . S
O855 C832 1.264 . S
C856 C849 1.403 . S
C856 C857 1.399 . S
C856 H862 0.929 1_554 S
C857 C837 1.449 . S
C857 C856 1.399 . S
C857 H863 0.930 . S
H858 C838 0.931 . S
H859 C839 0.930 . S
H860 C847 0.929 1_556 S
H861 C848 0.929 1_556 S
H862 C856 0.929 1_556 S
H863 C857 0.930 . S
Mn864 O869 2.095 . S
Mn864 O879 2.162 . S
Mn864 O880 2.297 . S
Mn864 O888 2.385 . S
Mn864 O889 2.203 1_565 S
Mn864 O890 2.094 . S
Mn865 O870 2.121 . S
Mn865 N872 2.257 . S
Mn865 N881 2.282 . S
Mn865 O889 2.215 . S
Mn865 O891 2.117 1_545 S
C866 O888 1.234 . S
C866 O889 1.282 1_565 S
C867 O879 1.281 . S
C867 O880 1.236 . S
C868 O890 1.240 . S
C868 O891 1.264 . S
O869 Mn864 2.095 . S
O869 C878 1.250 . S
O870 Mn865 2.121 . S
O870 C878 1.258 1_545 S
C871 N872 1.326 . S
C871 C875 1.460 . S
C871 H877 0.929 . S
N872 Mn865 2.257 . S
N872 C871 1.326 . S
N872 C876 1.362 . S
C873 C874 1.258 . S
C873 C876 1.431 . S
C873 C893 1.449 . S
C874 C873 1.258 . S
C874 C875 1.477 . S
C874 H894 0.931 . S
C875 C871 1.460 . S
C875 C874 1.477 . S
C875 H895 0.930 . S
C876 N872 1.362 . S
C876 C873 1.431 . S
C876 C886 1.476 . S
H877 C871 0.929 . S
C878 O869 1.250 . S
C878 O870 1.258 1_565 S
O879 Mn864 2.162 . S
O879 C867 1.281 . S
O880 Mn864 2.297 . S
O880 C867 1.236 . S
N881 Mn865 2.282 . S
N881 C882 1.328 . S
N881 C886 1.318 . S
C882 N881 1.328 . S
C882 C883 1.457 . S
C882 H887 0.939 . S
C883 C882 1.457 . S
C883 C884 1.291 . S
C883 H896 0.931 . S
C884 C883 1.291 . S
C884 C885 1.373 . S
C884 H897 0.929 . S
C885 C884 1.373 . S
C885 C886 1.396 . S
C885 C892 1.403 . S
C886 C876 1.476 . S
C886 N881 1.318 . S
C886 C885 1.396 . S
H887 C882 0.939 . S
O888 Mn864 2.385 . S
O888 C866 1.234 . S
O889 Mn864 2.203 1_545 S
O889 Mn865 2.215 . S
O889 C866 1.282 1_545 S
O890 Mn864 2.094 . S
O890 C868 1.240 . S
O891 Mn865 2.117 1_565 S
O891 C868 1.264 . S
C892 C885 1.403 . S
C892 C893 1.399 . S
C892 H898 0.929 . S
C893 C873 1.449 . S
C893 C892 1.399 . S
C893 H899 0.930 . S
H894 C874 0.931 . S
H895 C875 0.930 . S
H896 C883 0.931 . S
H897 C884 0.929 . S
H898 C892 0.929 . S
H899 C893 0.930 . S
Mn900 O905 2.095 . S
Mn900 O915 2.162 . S
Mn900 O916 2.297 . S
Mn900 O924 2.385 . S
Mn900 O925 2.202 1_455 S
Mn900 O926 2.094 . S
Mn901 O906 2.121 . S
Mn901 N908 2.257 . S
Mn901 N917 2.282 . S
Mn901 O925 2.221 . S
Mn901 O927 2.117 1_655 S
C902 O924 1.234 . S
C902 O925 1.281 1_455 S
C903 O915 1.281 . S
C903 O916 1.236 . S
C904 O926 1.240 . S
C904 O927 1.264 . S
O905 Mn900 2.095 . S
O905 C914 1.250 . S
O906 Mn901 2.121 . S
O906 C914 1.258 1_655 S
C907 N908 1.326 . S
C907 C911 1.460 . S
C907 H913 0.929 . S
N908 Mn901 2.257 . S
N908 C907 1.326 . S
N908 C912 1.362 . S
C909 C910 1.258 . S
C909 C912 1.431 . S
C909 C929 1.449 . S
C910 C909 1.258 . S
C910 C911 1.477 . S
C910 H930 0.931 . S
C911 C907 1.460 . S
C911 C910 1.477 . S
C911 H931 0.930 . S
C912 N908 1.362 . S
C912 C909 1.431 . S
C912 C922 1.476 . S
H913 C907 0.929 . S
C914 O905 1.250 . S
C914 O906 1.258 1_455 S
O915 Mn900 2.162 . S
O915 C903 1.281 . S
O916 Mn900 2.297 . S
O916 C903 1.236 . S
N917 Mn901 2.282 . S
N917 C918 1.328 . S
N917 C922 1.318 . S
C918 N917 1.328 . S
C918 C919 1.457 . S
C918 H923 0.937 . S
C919 C918 1.457 . S
C919 C920 1.291 . S
C919 H932 0.931 . S
C920 C919 1.291 . S
C920 C921 1.373 . S
C920 H933 0.929 . S
C921 C920 1.373 . S
C921 C922 1.396 . S
C921 C928 1.403 . S
C922 C912 1.476 . S
C922 N917 1.318 . S
C922 C921 1.396 . S
H923 C918 0.937 . S
O924 Mn900 2.385 . S
O924 C902 1.234 . S
O925 Mn900 2.202 1_655 S
O925 Mn901 2.221 . S
O925 C902 1.281 1_655 S
O926 Mn900 2.094 . S
O926 C904 1.240 . S
O927 Mn901 2.117 1_455 S
O927 C904 1.264 . S
C928 C921 1.403 . S
C928 C929 1.399 . S
C928 H934 0.929 . S
C929 C909 1.449 . S
C929 C928 1.399 . S
C929 H935 0.930 . S
H930 C910 0.931 . S
H931 C911 0.930 . S
H932 C919 0.931 . S
H933 C920 0.929 . S
H934 C928 0.929 . S
H935 C929 0.930 . S
Mn936 O941 2.095 . S
Mn936 O951 2.162 . S
Mn936 O952 2.297 . S
Mn936 O960 2.385 . S
Mn936 O961 2.209 . S
Mn936 O962 2.094 . S
Mn937 O942 2.121 . S
Mn937 N944 2.257 . S
Mn937 N953 2.282 . S
Mn937 O961 2.215 . S
Mn937 O963 2.117 . S
C938 O960 1.234 . S
C938 O961 1.283 . S
C939 O951 1.281 . S
C939 O952 1.236 . S
C940 O962 1.240 . S
C940 O963 1.264 . S
O941 Mn936 2.095 . S
O941 C950 1.250 . S
O942 Mn937 2.121 . S
O942 C950 1.258 . S
C943 N944 1.326 . S
C943 C947 1.460 . S
C943 H949 0.929 . S
N944 Mn937 2.257 . S
N944 C943 1.326 . S
N944 C948 1.362 . S
C945 C946 1.258 . S
C945 C948 1.431 . S
C945 C965 1.449 . S
C946 C945 1.258 . S
C946 C947 1.477 . S
C946 H966 0.931 . S
C947 C943 1.460 . S
C947 C946 1.477 . S
C947 H967 0.930 . S
C948 N944 1.362 . S
C948 C945 1.431 . S
C948 C958 1.476 . S
H949 C943 0.929 . S
C950 O941 1.250 . S
C950 O942 1.258 . S
O951 Mn936 2.162 . S
O951 C939 1.281 . S
O952 Mn936 2.297 . S
O952 C939 1.236 . S
N953 Mn937 2.282 . S
N953 C954 1.328 . S
N953 C958 1.318 . S
C954 N953 1.328 . S
C954 C955 1.457 . S
C954 H959 0.929 . S
C955 C954 1.457 . S
C955 C956 1.291 . S
C955 H968 0.931 . S
C956 C955 1.291 . S
C956 C957 1.373 . S
C956 H969 0.929 . S
C957 C956 1.373 . S
C957 C958 1.396 . S
C957 C964 1.403 . S
C958 C948 1.476 . S
C958 N953 1.318 . S
C958 C957 1.396 . S
H959 C954 0.929 . S
O960 Mn936 2.385 . S
O960 C938 1.234 . S
O961 Mn936 2.209 . S
O961 Mn937 2.215 . S
O961 C938 1.283 . S
O962 Mn936 2.094 . S
O962 C940 1.240 . S
O963 Mn937 2.117 . S
O963 C940 1.264 . S
C964 C957 1.403 . S
C964 C965 1.399 . S
C964 H970 0.929 . S
C965 C945 1.449 . S
C965 C964 1.399 . S
C965 H971 0.930 . S
H966 C946 0.931 . S
H967 C947 0.930 . S
H968 C955 0.931 . S
H969 C956 0.929 . S
H970 C964 0.929 . S
H971 C965 0.930 . S
Mn972 O977 2.095 . S
Mn972 O987 2.162 . S
Mn972 O988 2.297 . S
Mn972 O996 2.385 . S
Mn972 O997 2.209 . S
Mn972 O998 2.094 . S
Mn973 O978 2.121 . S
Mn973 N980 2.257 . S
Mn973 N989 2.282 . S
Mn973 O997 2.215 . S
Mn973 O999 2.117 . S
C974 O996 1.234 . S
C974 O997 1.283 . S
C975 O987 1.281 . S
C975 O988 1.236 . S
C976 O998 1.240 . S
C976 O999 1.264 . S
O977 Mn972 2.095 . S
O977 C986 1.250 . S
O978 Mn973 2.121 . S
O978 C986 1.258 . S
C979 N980 1.326 . S
C979 C983 1.460 . S
C979 H985 0.929 . S
N980 Mn973 2.257 . S
N980 C979 1.326 . S
N980 C984 1.362 . S
C981 C982 1.258 . S
C981 C984 1.431 . S
C981 C1001 1.449 . S
C982 C981 1.258 . S
C982 C983 1.477 . S
C982 H1002 0.931 . S
C983 C979 1.460 . S
C983 C982 1.477 . S
C983 H1003 0.930 . S
C984 N980 1.362 . S
C984 C981 1.431 . S
C984 C994 1.476 . S
H985 C979 0.929 . S
C986 O977 1.250 . S
C986 O978 1.258 . S
O987 Mn972 2.162 . S
O987 C975 1.281 . S
O988 Mn972 2.297 . S
O988 C975 1.236 . S
N989 Mn973 2.282 . S
N989 C990 1.328 . S
N989 C994 1.318 . S
C990 N989 1.328 . S
C990 C991 1.457 . S
C990 H995 0.929 . S
C991 C990 1.457 . S
C991 C992 1.291 . S
C991 H1004 0.929 1_556 S
C992 C991 1.291 . S
C992 C993 1.373 . S
C992 H1005 0.929 1_556 S
C993 C992 1.373 . S
C993 C994 1.396 . S
C993 C1000 1.403 . S
C994 C984 1.476 . S
C994 N989 1.318 . S
C994 C993 1.396 . S
H995 C990 0.929 . S
O996 Mn972 2.385 . S
O996 C974 1.234 . S
O997 Mn972 2.209 . S
O997 Mn973 2.215 . S
O997 C974 1.283 . S
O998 Mn972 2.094 . S
O998 C976 1.240 . S
O999 Mn973 2.117 . S
O999 C976 1.264 . S
C1000 C993 1.403 . S
C1000 C1001 1.399 . S
C1000 H1006 0.929 1_556 S
C1001 C981 1.449 . S
C1001 C1000 1.399 . S
C1001 H1007 0.930 . S
H1002 C982 0.931 . S
H1003 C983 0.930 . S
H1004 C991 0.929 1_554 S
H1005 C992 0.929 1_554 S
H1006 C1000 0.929 1_554 S
H1007 C1001 0.930 . S
Mn1008 O1013 2.095 . S
Mn1008 O1023 2.162 . S
Mn1008 O1024 2.297 . S
Mn1008 O1032 2.385 . S
Mn1008 O1033 2.209 . S
Mn1008 O1034 2.094 . S
Mn1009 O1014 2.121 . S
Mn1009 N1016 2.257 . S
Mn1009 N1025 2.282 . S
Mn1009 O1033 2.215 . S
Mn1009 O1035 2.117 . S
C1010 O1032 1.234 . S
C1010 O1033 1.283 . S
C1011 O1023 1.281 . S
C1011 O1024 1.236 . S
C1012 O1034 1.240 . S
C1012 O1035 1.264 . S
O1013 Mn1008 2.095 . S
O1013 C1022 1.250 . S
O1014 Mn1009 2.121 . S
O1014 C1022 1.258 . S
C1015 N1016 1.326 . S
C1015 C1019 1.460 . S
C1015 H1021 0.929 . S
N1016 Mn1009 2.257 . S
N1016 C1015 1.326 . S
N1016 C1020 1.362 . S
C1017 C1018 1.258 . S
C1017 C1020 1.431 . S
C1017 C1037 1.449 . S
C1018 C1017 1.258 . S
C1018 C1019 1.477 . S
C1018 H1038 0.931 . S
C1019 C1015 1.460 . S
C1019 C1018 1.477 . S
C1019 H1039 0.930 . S
C1020 N1016 1.362 . S
C1020 C1017 1.431 . S
C1020 C1030 1.476 . S
H1021 C1015 0.929 . S
C1022 O1013 1.250 . S
C1022 O1014 1.258 . S
O1023 Mn1008 2.162 . S
O1023 C1011 1.281 . S
O1024 Mn1008 2.297 . S
O1024 C1011 1.236 . S
N1025 Mn1009 2.282 . S
N1025 C1026 1.328 . S
N1025 C1030 1.318 . S
C1026 N1025 1.328 . S
C1026 C1027 1.457 . S
C1026 H1031 0.929 . S
C1027 C1026 1.457 . S
C1027 C1028 1.291 . S
C1027 H1040 0.928 1_556 S
C1028 C1027 1.291 . S
C1028 C1029 1.373 . S
C1028 H1041 0.929 1_556 S
C1029 C1028 1.373 . S
C1029 C1030 1.396 . S
C1029 C1036 1.403 . S
C1030 C1020 1.476 . S
C1030 N1025 1.318 . S
C1030 C1029 1.396 . S
H1031 C1026 0.929 . S
O1032 Mn1008 2.385 . S
O1032 C1010 1.234 . S
O1033 Mn1008 2.209 . S
O1033 Mn1009 2.215 . S
O1033 C1010 1.283 . S
O1034 Mn1008 2.094 . S
O1034 C1012 1.240 . S
O1035 Mn1009 2.117 . S
O1035 C1012 1.264 . S
C1036 C1029 1.403 . S
C1036 C1037 1.399 . S
C1036 H1042 0.929 1_556 S
C1037 C1017 1.449 . S
C1037 C1036 1.399 . S
C1037 H1043 0.930 . S
H1038 C1018 0.931 . S
H1039 C1019 0.930 . S
H1040 C1027 0.928 1_554 S
H1041 C1028 0.929 1_554 S
H1042 C1036 0.929 1_554 S
H1043 C1037 0.930 . S
Mn1044 O1049 2.095 . S
Mn1044 O1059 2.162 . S
Mn1044 O1060 2.297 . S
Mn1044 O1068 2.385 . S
Mn1044 O1069 2.209 . S
Mn1044 O1070 2.094 . S
Mn1045 O1050 2.121 . S
Mn1045 N1052 2.257 . S
Mn1045 N1061 2.282 . S
Mn1045 O1069 2.215 . S
Mn1045 O1071 2.117 . S
C1046 O1068 1.234 . S
C1046 O1069 1.283 . S
C1047 O1059 1.281 . S
C1047 O1060 1.236 . S
C1048 O1070 1.240 . S
C1048 O1071 1.264 . S
O1049 Mn1044 2.095 . S
O1049 C1058 1.250 . S
O1050 Mn1045 2.121 . S
O1050 C1058 1.258 . S
C1051 N1052 1.326 . S
C1051 C1055 1.460 . S
C1051 H1057 0.929 . S
N1052 Mn1045 2.257 . S
N1052 C1051 1.326 . S
N1052 C1056 1.362 . S
C1053 C1054 1.258 . S
C1053 C1056 1.431 . S
C1053 C1073 1.449 . S
C1054 C1053 1.258 . S
C1054 C1055 1.477 . S
C1054 H1074 0.931 . S
C1055 C1051 1.460 . S
C1055 C1054 1.477 . S
C1055 H1075 0.930 . S
C1056 N1052 1.362 . S
C1056 C1053 1.431 . S
C1056 C1066 1.476 . S
H1057 C1051 0.929 . S
C1058 O1049 1.250 . S
C1058 O1050 1.258 . S
O1059 Mn1044 2.162 . S
O1059 C1047 1.281 . S
O1060 Mn1044 2.297 . S
O1060 C1047 1.236 . S
N1061 Mn1045 2.282 . S
N1061 C1062 1.328 . S
N1061 C1066 1.318 . S
C1062 N1061 1.328 . S
C1062 C1063 1.457 . S
C1062 H1067 0.929 . S
C1063 C1062 1.457 . S
C1063 C1064 1.291 . S
C1063 H1076 0.929 1_556 S
C1064 C1063 1.291 . S
C1064 C1065 1.373 . S
C1064 H1077 0.929 1_556 S
C1065 C1064 1.373 . S
C1065 C1066 1.396 . S
C1065 C1072 1.403 . S
C1066 C1056 1.476 . S
C1066 N1061 1.318 . S
C1066 C1065 1.396 . S
H1067 C1062 0.929 . S
O1068 Mn1044 2.385 . S
O1068 C1046 1.234 . S
O1069 Mn1044 2.209 . S
O1069 Mn1045 2.215 . S
O1069 C1046 1.283 . S
O1070 Mn1044 2.094 . S
O1070 C1048 1.240 . S
O1071 Mn1045 2.117 . S
O1071 C1048 1.264 . S
C1072 C1065 1.403 . S
C1072 C1073 1.399 . S
C1072 H1078 0.929 1_556 S
C1073 C1053 1.449 . S
C1073 C1072 1.399 . S
C1073 H1079 0.930 . S
H1074 C1054 0.931 . S
H1075 C1055 0.930 . S
H1076 C1063 0.929 1_554 S
H1077 C1064 0.929 1_554 S
H1078 C1072 0.929 1_554 S
H1079 C1073 0.930 . S
Mn1080 O1085 2.095 . S
Mn1080 O1095 2.162 . S
Mn1080 O1096 2.297 . S
Mn1080 O1104 2.385 . S
Mn1080 O1105 2.209 . S
Mn1080 O1106 2.094 . S
Mn1081 O1086 2.121 . S
Mn1081 N1088 2.257 . S
Mn1081 N1097 2.282 . S
Mn1081 O1105 2.215 . S
Mn1081 O1107 2.117 . S
C1082 O1104 1.234 . S
C1082 O1105 1.283 . S
C1083 O1095 1.281 . S
C1083 O1096 1.236 . S
C1084 O1106 1.240 . S
C1084 O1107 1.264 . S
O1085 Mn1080 2.095 . S
O1085 C1094 1.250 . S
O1086 Mn1081 2.121 . S
O1086 C1094 1.258 . S
C1087 N1088 1.326 . S
C1087 C1091 1.460 . S
C1087 H1093 0.929 . S
N1088 Mn1081 2.257 . S
N1088 C1087 1.326 . S
N1088 C1092 1.362 . S
C1089 C1090 1.258 . S
C1089 C1092 1.431 . S
C1089 C1109 1.449 . S
C1090 C1089 1.258 . S
C1090 C1091 1.477 . S
C1090 H1110 0.931 . S
C1091 C1087 1.460 . S
C1091 C1090 1.477 . S
C1091 H1111 0.930 . S
C1092 N1088 1.362 . S
C1092 C1089 1.431 . S
C1092 C1102 1.476 . S
H1093 C1087 0.929 . S
C1094 O1085 1.250 . S
C1094 O1086 1.258 . S
O1095 Mn1080 2.162 . S
O1095 C1083 1.281 . S
O1096 Mn1080 2.297 . S
O1096 C1083 1.236 . S
N1097 Mn1081 2.282 . S
N1097 C1098 1.328 . S
N1097 C1102 1.318 . S
C1098 N1097 1.328 . S
C1098 C1099 1.457 . S
C1098 H1103 0.929 . S
C1099 C1098 1.457 . S
C1099 C1100 1.291 . S
C1099 H1112 0.929 1_556 S
C1100 C1099 1.291 . S
C1100 C1101 1.373 . S
C1100 H1113 0.929 1_556 S
C1101 C1100 1.373 . S
C1101 C1102 1.396 . S
C1101 C1108 1.403 . S
C1102 C1092 1.476 . S
C1102 N1097 1.318 . S
C1102 C1101 1.396 . S
H1103 C1098 0.929 . S
O1104 Mn1080 2.385 . S
O1104 C1082 1.234 . S
O1105 Mn1080 2.209 . S
O1105 Mn1081 2.215 . S
O1105 C1082 1.283 . S
O1106 Mn1080 2.094 . S
O1106 C1084 1.240 . S
O1107 Mn1081 2.117 . S
O1107 C1084 1.264 . S
C1108 C1101 1.403 . S
C1108 C1109 1.399 . S
C1108 H1114 0.929 1_556 S
C1109 C1089 1.449 . S
C1109 C1108 1.399 . S
C1109 H1115 0.930 . S
H1110 C1090 0.931 . S
H1111 C1091 0.930 . S
H1112 C1099 0.929 1_554 S
H1113 C1100 0.929 1_554 S
H1114 C1108 0.929 1_554 S
H1115 C1109 0.930 . S
Mn1116 O1121 2.095 . S
Mn1116 O1131 2.162 . S
Mn1116 O1132 2.297 . S
Mn1116 O1140 2.385 . S
Mn1116 O1141 2.209 . S
Mn1116 O1142 2.094 . S
Mn1117 O1122 2.121 . S
Mn1117 N1124 2.257 . S
Mn1117 N1133 2.282 . S
Mn1117 O1141 2.215 . S
Mn1117 O1143 2.117 . S
C1118 O1140 1.234 . S
C1118 O1141 1.283 . S
C1119 O1131 1.281 . S
C1119 O1132 1.236 . S
C1120 O1142 1.240 . S
C1120 O1143 1.264 . S
O1121 Mn1116 2.095 . S
O1121 C1130 1.250 . S
O1122 Mn1117 2.121 . S
O1122 C1130 1.258 . S
C1123 N1124 1.326 . S
C1123 C1127 1.460 . S
C1123 H1129 0.929 . S
N1124 Mn1117 2.257 . S
N1124 C1123 1.326 . S
N1124 C1128 1.362 . S
C1125 C1126 1.258 . S
C1125 C1128 1.431 . S
C1125 C1145 1.449 . S
C1126 C1125 1.258 . S
C1126 C1127 1.477 . S
C1126 H1146 0.931 . S
C1127 C1123 1.460 . S
C1127 C1126 1.477 . S
C1127 H1147 0.930 . S
C1128 N1124 1.362 . S
C1128 C1125 1.431 . S
C1128 C1138 1.476 . S
H1129 C1123 0.929 . S
C1130 O1121 1.250 . S
C1130 O1122 1.258 . S
O1131 Mn1116 2.162 . S
O1131 C1119 1.281 . S
O1132 Mn1116 2.297 . S
O1132 C1119 1.236 . S
N1133 Mn1117 2.282 . S
N1133 C1134 1.328 . S
N1133 C1138 1.318 . S
C1134 N1133 1.328 . S
C1134 C1135 1.457 . S
C1134 H1139 0.929 . S
C1135 C1134 1.457 . S
C1135 C1136 1.291 . S
C1135 H1148 0.929 1_556 S
C1136 C1135 1.291 . S
C1136 C1137 1.373 . S
C1136 H1149 0.929 1_556 S
C1137 C1136 1.373 . S
C1137 C1138 1.396 . S
C1137 C1144 1.403 . S
C1138 C1128 1.476 . S
C1138 N1133 1.318 . S
C1138 C1137 1.396 . S
H1139 C1134 0.929 . S
O1140 Mn1116 2.385 . S
O1140 C1118 1.234 . S
O1141 Mn1116 2.209 . S
O1141 Mn1117 2.215 . S
O1141 C1118 1.283 . S
O1142 Mn1116 2.094 . S
O1142 C1120 1.240 . S
O1143 Mn1117 2.117 . S
O1143 C1120 1.264 . S
C1144 C1137 1.403 . S
C1144 C1145 1.399 . S
C1144 H1150 0.929 1_556 S
C1145 C1125 1.449 . S
C1145 C1144 1.399 . S
C1145 H1151 0.930 . S
H1146 C1126 0.931 . S
H1147 C1127 0.930 . S
H1148 C1135 0.929 1_554 S
H1149 C1136 0.929 1_554 S
H1150 C1144 0.929 1_554 S
H1151 C1145 0.930 . S
Mn1152 O1157 2.095 . S
Mn1152 O1167 2.162 . S
Mn1152 O1168 2.297 . S
Mn1152 O1176 2.385 . S
Mn1152 O1177 2.209 . S
Mn1152 O1178 2.094 . S
Mn1153 O1158 2.121 . S
Mn1153 N1160 2.257 . S
Mn1153 N1169 2.282 . S
Mn1153 O1177 2.215 . S
Mn1153 O1179 2.117 . S
C1154 O1176 1.234 . S
C1154 O1177 1.283 . S
C1155 O1167 1.281 . S
C1155 O1168 1.236 . S
C1156 O1178 1.240 . S
C1156 O1179 1.264 . S
O1157 Mn1152 2.095 . S
O1157 C1166 1.250 . S
O1158 Mn1153 2.121 . S
O1158 C1166 1.258 . S
C1159 N1160 1.326 . S
C1159 C1163 1.460 . S
C1159 H1165 0.929 . S
N1160 Mn1153 2.257 . S
N1160 C1159 1.326 . S
N1160 C1164 1.362 . S
C1161 C1162 1.258 . S
C1161 C1164 1.431 . S
C1161 C1181 1.449 . S
C1162 C1161 1.258 . S
C1162 C1163 1.477 . S
C1162 H1182 0.931 . S
C1163 C1159 1.460 . S
C1163 C1162 1.477 . S
C1163 H1183 0.930 . S
C1164 N1160 1.362 . S
C1164 C1161 1.431 . S
C1164 C1174 1.476 . S
H1165 C1159 0.929 . S
C1166 O1157 1.250 . S
C1166 O1158 1.258 . S
O1167 Mn1152 2.162 . S
O1167 C1155 1.281 . S
O1168 Mn1152 2.297 . S
O1168 C1155 1.236 . S
N1169 Mn1153 2.282 . S
N1169 C1170 1.328 . S
N1169 C1174 1.318 . S
C1170 N1169 1.328 . S
C1170 C1171 1.457 . S
C1170 H1175 0.929 . S
C1171 C1170 1.457 . S
C1171 C1172 1.291 . S
C1171 H1184 0.928 1_556 S
C1172 C1171 1.291 . S
C1172 C1173 1.373 . S
C1172 H1185 0.929 1_556 S
C1173 C1172 1.373 . S
C1173 C1174 1.396 . S
C1173 C1180 1.403 . S
C1174 C1164 1.476 . S
C1174 N1169 1.318 . S
C1174 C1173 1.396 . S
H1175 C1170 0.929 . S
O1176 Mn1152 2.385 . S
O1176 C1154 1.234 . S
O1177 Mn1152 2.209 . S
O1177 Mn1153 2.215 . S
O1177 C1154 1.283 . S
O1178 Mn1152 2.094 . S
O1178 C1156 1.240 . S
O1179 Mn1153 2.117 . S
O1179 C1156 1.264 . S
C1180 C1173 1.403 . S
C1180 C1181 1.399 . S
C1180 H1186 0.929 1_556 S
C1181 C1161 1.449 . S
C1181 C1180 1.399 . S
C1181 H1187 0.930 . S
H1182 C1162 0.931 . S
H1183 C1163 0.930 . S
H1184 C1171 0.928 1_554 S
H1185 C1172 0.929 1_554 S
H1186 C1180 0.929 1_554 S
H1187 C1181 0.930 . S
Mn1188 O1193 2.095 . S
Mn1188 O1203 2.162 . S
Mn1188 O1204 2.297 . S
Mn1188 O1212 2.385 . S
Mn1188 O1213 2.203 1_455 S
Mn1188 O1214 2.094 . S
Mn1189 O1194 2.121 . S
Mn1189 N1196 2.257 . S
Mn1189 N1205 2.282 . S
Mn1189 O1213 2.215 . S
Mn1189 O1215 2.117 1_655 S
C1190 O1212 1.234 . S
C1190 O1213 1.282 1_455 S
C1191 O1203 1.281 . S
C1191 O1204 1.236 . S
C1192 O1214 1.240 . S
C1192 O1215 1.264 . S
O1193 Mn1188 2.095 . S
O1193 C1202 1.250 . S
O1194 Mn1189 2.121 . S
O1194 C1202 1.258 1_655 S
C1195 N1196 1.326 . S
C1195 C1199 1.460 . S
C1195 H1201 0.929 . S
N1196 Mn1189 2.257 . S
N1196 C1195 1.326 . S
N1196 C1200 1.362 . S
C1197 C1198 1.258 . S
C1197 C1200 1.431 . S
C1197 C1217 1.449 . S
C1198 C1197 1.258 . S
C1198 C1199 1.477 . S
C1198 H1218 0.931 . S
C1199 C1195 1.460 . S
C1199 C1198 1.477 . S
C1199 H1219 0.930 . S
C1200 N1196 1.362 . S
C1200 C1197 1.431 . S
C1200 C1210 1.476 . S
H1201 C1195 0.929 . S
C1202 O1193 1.250 . S
C1202 O1194 1.258 1_455 S
O1203 Mn1188 2.162 . S
O1203 C1191 1.281 . S
O1204 Mn1188 2.297 . S
O1204 C1191 1.236 . S
N1205 Mn1189 2.282 . S
N1205 C1206 1.328 . S
N1205 C1210 1.318 . S
C1206 N1205 1.328 . S
C1206 C1207 1.457 . S
C1206 H1211 0.938 . S
C1207 C1206 1.457 . S
C1207 C1208 1.291 . S
C1207 H1220 0.931 . S
C1208 C1207 1.291 . S
C1208 C1209 1.373 . S
C1208 H1221 0.929 . S
C1209 C1208 1.373 . S
C1209 C1210 1.396 . S
C1209 C1216 1.403 . S
C1210 C1200 1.476 . S
C1210 N1205 1.318 . S
C1210 C1209 1.396 . S
H1211 C1206 0.938 . S
O1212 Mn1188 2.385 . S
O1212 C1190 1.234 . S
O1213 Mn1188 2.203 1_655 S
O1213 Mn1189 2.215 . S
O1213 C1190 1.282 1_655 S
O1214 Mn1188 2.094 . S
O1214 C1192 1.240 . S
O1215 Mn1189 2.117 1_455 S
O1215 C1192 1.264 . S
C1216 C1209 1.403 . S
C1216 C1217 1.399 . S
C1216 H1222 0.929 . S
C1217 C1197 1.449 . S
C1217 C1216 1.399 . S
C1217 H1223 0.930 . S
H1218 C1198 0.931 . S
H1219 C1199 0.930 . S
H1220 C1207 0.931 . S
H1221 C1208 0.929 . S
H1222 C1216 0.929 . S
H1223 C1217 0.930 . S
Mn1224 O1229 2.095 . S
Mn1224 O1239 2.162 . S
Mn1224 O1240 2.297 . S
Mn1224 O1248 2.385 . S
Mn1224 O1249 2.209 . S
Mn1224 O1250 2.094 . S
Mn1225 O1230 2.121 . S
Mn1225 N1232 2.257 . S
Mn1225 N1241 2.282 . S
Mn1225 O1249 2.215 . S
Mn1225 O1251 2.117 . S
C1226 O1248 1.234 . S
C1226 O1249 1.283 . S
C1227 O1239 1.281 . S
C1227 O1240 1.236 . S
C1228 O1250 1.240 . S
C1228 O1251 1.264 . S
O1229 Mn1224 2.095 . S
O1229 C1238 1.250 . S
O1230 Mn1225 2.121 . S
O1230 C1238 1.258 . S
C1231 N1232 1.326 . S
C1231 C1235 1.460 . S
C1231 H1237 0.929 . S
N1232 Mn1225 2.257 . S
N1232 C1231 1.326 . S
N1232 C1236 1.362 . S
C1233 C1234 1.258 . S
C1233 C1236 1.431 . S
C1233 C1253 1.449 . S
C1234 C1233 1.258 . S
C1234 C1235 1.477 . S
C1234 H1254 0.931 . S
C1235 C1231 1.460 . S
C1235 C1234 1.477 . S
C1235 H1255 0.930 . S
C1236 N1232 1.362 . S
C1236 C1233 1.431 . S
C1236 C1246 1.476 . S
H1237 C1231 0.929 . S
C1238 O1229 1.250 . S
C1238 O1230 1.258 . S
O1239 Mn1224 2.162 . S
O1239 C1227 1.281 . S
O1240 Mn1224 2.297 . S
O1240 C1227 1.236 . S
N1241 Mn1225 2.282 . S
N1241 C1242 1.328 . S
N1241 C1246 1.318 . S
C1242 N1241 1.328 . S
C1242 C1243 1.457 . S
C1242 H1247 0.929 . S
C1243 C1242 1.457 . S
C1243 C1244 1.291 . S
C1243 H1256 0.931 . S
C1244 C1243 1.291 . S
C1244 C1245 1.373 . S
C1244 H1257 0.929 . S
C1245 C1244 1.373 . S
C1245 C1246 1.396 . S
C1245 C1252 1.403 . S
C1246 C1236 1.476 . S
C1246 N1241 1.318 . S
C1246 C1245 1.396 . S
H1247 C1242 0.929 . S
O1248 Mn1224 2.385 . S
O1248 C1226 1.234 . S
O1249 Mn1224 2.209 . S
O1249 Mn1225 2.215 . S
O1249 C1226 1.283 . S
O1250 Mn1224 2.094 . S
O1250 C1228 1.240 . S
O1251 Mn1225 2.117 . S
O1251 C1228 1.264 . S
C1252 C1245 1.403 . S
C1252 C1253 1.399 . S
C1252 H1258 0.929 . S
C1253 C1233 1.449 . S
C1253 C1252 1.399 . S
C1253 H1259 0.930 . S
H1254 C1234 0.931 . S
H1255 C1235 0.930 . S
H1256 C1243 0.931 . S
H1257 C1244 0.929 . S
H1258 C1252 0.929 . S
H1259 C1253 0.930 . S
Mn1260 O1265 2.095 . S
Mn1260 O1275 2.162 . S
Mn1260 O1276 2.297 . S
Mn1260 O1284 2.385 . S
Mn1260 O1285 2.202 1_565 S
Mn1260 O1286 2.094 . S
Mn1261 O1266 2.121 . S
Mn1261 N1268 2.257 . S
Mn1261 N1277 2.282 . S
Mn1261 O1285 2.221 . S
Mn1261 O1287 2.117 1_545 S
C1262 O1284 1.234 . S
C1262 O1285 1.281 1_565 S
C1263 O1275 1.281 . S
C1263 O1276 1.236 . S
C1264 O1286 1.240 . S
C1264 O1287 1.264 . S
O1265 Mn1260 2.095 . S
O1265 C1274 1.250 . S
O1266 Mn1261 2.121 . S
O1266 C1274 1.258 1_545 S
C1267 N1268 1.326 . S
C1267 C1271 1.460 . S
C1267 H1273 0.929 . S
N1268 Mn1261 2.257 . S
N1268 C1267 1.326 . S
N1268 C1272 1.362 . S
C1269 C1270 1.258 . S
C1269 C1272 1.431 . S
C1269 C1289 1.449 . S
C1270 C1269 1.258 . S
C1270 C1271 1.477 . S
C1270 H1290 0.931 . S
C1271 C1267 1.460 . S
C1271 C1270 1.477 . S
C1271 H1291 0.930 . S
C1272 N1268 1.362 . S
C1272 C1269 1.431 . S
C1272 C1282 1.476 . S
H1273 C1267 0.929 . S
C1274 O1265 1.250 . S
C1274 O1266 1.258 1_565 S
O1275 Mn1260 2.162 . S
O1275 C1263 1.281 . S
O1276 Mn1260 2.297 . S
O1276 C1263 1.236 . S
N1277 Mn1261 2.282 . S
N1277 C1278 1.328 . S
N1277 C1282 1.318 . S
C1278 N1277 1.328 . S
C1278 C1279 1.457 . S
C1278 H1283 0.936 . S
C1279 C1278 1.457 . S
C1279 C1280 1.291 . S
C1279 H1292 0.931 . S
C1280 C1279 1.291 . S
C1280 C1281 1.373 . S
C1280 H1293 0.929 . S
C1281 C1280 1.373 . S
C1281 C1282 1.396 . S
C1281 C1288 1.403 . S
C1282 C1272 1.476 . S
C1282 N1277 1.318 . S
C1282 C1281 1.396 . S
H1283 C1278 0.936 . S
O1284 Mn1260 2.385 . S
O1284 C1262 1.234 . S
O1285 Mn1260 2.202 1_545 S
O1285 Mn1261 2.221 . S
O1285 C1262 1.281 1_545 S
O1286 Mn1260 2.094 . S
O1286 C1264 1.240 . S
O1287 Mn1261 2.117 1_565 S
O1287 C1264 1.264 . S
C1288 C1281 1.403 . S
C1288 C1289 1.399 . S
C1288 H1294 0.929 . S
C1289 C1269 1.449 . S
C1289 C1288 1.399 . S
C1289 H1295 0.930 . S
H1290 C1270 0.931 . S
H1291 C1271 0.930 . S
H1292 C1279 0.931 . S
H1293 C1280 0.929 . S
H1294 C1288 0.929 . S
H1295 C1289 0.930 . S
C4 C400 1.309 . S
C40 C328 1.309 . S
C364 C76 1.310 . S
C112 C256 1.309 . S
C292 C148 1.310 . S
C184 C220 1.309 . S
C832 C436 1.310 . S
C472 C760 1.309 . S
C508 C796 1.310 . S
C688 C544 1.309 . S
C580 C724 1.310 . S
C652 C616 1.309 . S
C868 C1264 1.310 . S
C1192 C904 1.309 . S
C1228 C940 1.310 . S
C1120 C976 1.310 . S
C1156 C1012 1.310 . S
C1084 C1048 1.310 . S
C3 C147 1.500 1_454 S
C183 C39 1.499 1_556 S
C75 C111 1.500 1_564 S
C219 C363 1.500 1_656 S
C255 C399 1.499 1_556 S
C291 C327 1.500 1_546 S
C579 C435 1.500 . S
C615 C471 1.499 . S
C507 C543 1.500 . S
C795 C651 1.499 . S
C831 C687 1.499 . S
C723 C759 1.500 . S
C1011 C867 1.499 . S
C903 C1047 1.499 . S
C939 C975 1.500 . S
C1227 C1083 1.500 . S
C1119 C1263 1.499 . S
C1191 C1155 1.499 . S
C1046 C2 1.178 . S
C38 C974 1.178 . S
C74 C1010 1.178 . S
C110 C470 1.178 . S
C506 C146 1.178 . S
C434 C182 1.178 . S
C218 C830 1.178 . S
C254 C758 1.178 . S
C290 C794 1.178 . S
C1118 C326 1.178 . S
C1154 C362 1.178 . S
C398 C1082 1.178 . S
C902 C542 1.178 1_455 S
C578 C938 1.178 . S
C866 C614 1.178 1_565 S
C1262 C650 1.178 1_565 S
C686 C1190 1.178 1_655 S
C722 C1226 1.178 . S
C14 C1058 1.366 . S
C986 C50 1.366 . S
C86 C1022 1.366 . S
C482 C122 1.366 . S
C158 C518 1.366 . S
C194 C446 1.366 . S
C842 C230 1.366 . S
C266 C770 1.366 . S
C302 C806 1.366 . S
C338 C1130 1.366 . S
C1166 C374 1.366 . S
C410 C1094 1.366 . S
C914 C554 1.366 1_456 S
C590 C950 1.366 1_554 S
C626 C878 1.366 1_544 S
C1274 C662 1.366 1_566 S
C1202 C698 1.366 1_456 S
C734 C1238 1.366 1_554 S
