# Generated by pormake.
# Topology vby, (6)-cn, num edge types: 1
# Building blocks:
#     Node 0, Type 0, BuildingBlock: CIFDUS_clean_sbu_1, # of connection points: 6
#     Node 1, Type 0, BuildingBlock: CIFDUS_clean_sbu_1, # of connection points: 6
#     Node 2, Type 0, BuildingBlock: CIFDUS_clean_sbu_1, # of connection points: 6
#     Node 3, Type 0, BuildingBlock: CIFDUS_clean_sbu_1, # of connection points: 6
#     Node 4, Type 0, BuildingBlock: CIFDUS_clean_sbu_1, # of connection points: 6
#     Node 5, Type 0, BuildingBlock: CIFDUS_clean_sbu_1, # of connection points: 6
#     Node 6, Type 0, BuildingBlock: CIFDUS_clean_sbu_1, # of connection points: 6
#     Node 7, Type 0, BuildingBlock: CIFDUS_clean_sbu_1, # of connection points: 6
#     Edge 8, Type (0, 0), BuildingBlock: AJUNOK_clean_linker_0, # of connection points: 2
#     Edge 9, Type (0, 0), BuildingBlock: AJUNOK_clean_linker_0, # of connection points: 2
#     Edge 10, Type (0, 0), BuildingBlock: AJUNOK_clean_linker_0, # of connection points: 2
#     Edge 11, Type (0, 0), BuildingBlock: AJUNOK_clean_linker_0, # of connection points: 2
#     Edge 12, Type (0, 0), BuildingBlock: AJUNOK_clean_linker_0, # of connection points: 2
#     Edge 13, Type (0, 0), BuildingBlock: AJUNOK_clean_linker_0, # of connection points: 2
#     Edge 14, Type (0, 0), BuildingBlock: AJUNOK_clean_linker_0, # of connection points: 2
#     Edge 15, Type (0, 0), BuildingBlock: AJUNOK_clean_linker_0, # of connection points: 2
#     Edge 16, Type (0, 0), BuildingBlock: AJUNOK_clean_linker_0, # of connection points: 2
#     Edge 17, Type (0, 0), BuildingBlock: AJUNOK_clean_linker_0, # of connection points: 2
#     Edge 18, Type (0, 0), BuildingBlock: AJUNOK_clean_linker_0, # of connection points: 2
#     Edge 19, Type (0, 0), BuildingBlock: AJUNOK_clean_linker_0, # of connection points: 2
#     Edge 20, Type (0, 0), BuildingBlock: AJUNOK_clean_linker_0, # of connection points: 2
#     Edge 21, Type (0, 0), BuildingBlock: AJUNOK_clean_linker_0, # of connection points: 2
#     Edge 22, Type (0, 0), BuildingBlock: AJUNOK_clean_linker_0, # of connection points: 2
#     Edge 23, Type (0, 0), BuildingBlock: AJUNOK_clean_linker_0, # of connection points: 2
#     Edge 24, Type (0, 0), BuildingBlock: AJUNOK_clean_linker_0, # of connection points: 2
#     Edge 25, Type (0, 0), BuildingBlock: AJUNOK_clean_linker_0, # of connection points: 2
#     Edge 26, Type (0, 0), BuildingBlock: AJUNOK_clean_linker_0, # of connection points: 2
#     Edge 27, Type (0, 0), BuildingBlock: AJUNOK_clean_linker_0, # of connection points: 2
#     Edge 28, Type (0, 0), BuildingBlock: AJUNOK_clean_linker_0, # of connection points: 2
#     Edge 29, Type (0, 0), BuildingBlock: AJUNOK_clean_linker_0, # of connection points: 2
#     Edge 30, Type (0, 0), BuildingBlock: AJUNOK_clean_linker_0, # of connection points: 2
#     Edge 31, Type (0, 0), BuildingBlock: AJUNOK_clean_linker_0, # of connection points: 2
# Relax obj value: 0.088
# Max RMSD: 0.124
# Mean RMSD: 0.124
data_MOF--net-vby--node1-CIFDUS_clean_sbu_1--edge1-AJUNOK_clean_linker_0
_symmetry_space_group_name_H-M    P1
_symmetry_Int_Tables_number       1
_symmetry_cell_setting            triclinic
loop_
_symmetry_equiv_pos_as_xyz
'x, y, z'
_cell_length_a     11.684086
_cell_length_b     45.149741
_cell_length_c     23.009538
_cell_angle_alpha  91.010964
_cell_angle_beta   90.259629
_cell_angle_gamma 90.018093
loop_
_atom_site_label
_atom_site_type_symbol
_atom_site_fract_x
_atom_site_fract_y
_atom_site_fract_z
_atom_type_partial_charge
O0 O 0.07995 0.33499 0.98934 0.0
Mn1 Mn 0.07138 0.38157 0.00341 0.0
O2 O 0.24114 0.32959 0.03511 0.0
Mn3 Mn 0.20021 0.3595 0.08584 0.0
O4 O 0.05935 0.42819 0.01572 0.0
O5 O 0.06515 0.38328 0.91306 0.0
Mn6 Mn 0.97469 0.41477 0.89281 0.0
O7 O 0.8921 0.37971 0.0044 0.0
O8 O 0.03802 0.4481 0.92746 0.0
O9 O 0.25498 0.38656 0.99862 0.0
O10 O 0.31307 0.38642 0.08975 0.0
O11 O 0.06549 0.38268 0.91155 0.0
O12 O 0.83768 0.41056 0.93299 0.0
C13 C 0.08118 0.36525 0.14463 0.0
C14 C 0.1715 0.3203 0.99789 0.0
C15 C 0.05378 0.45065 0.98205 0.0
C16 C 0.08818 0.36197 0.87653 0.0
C17 C 0.81507 0.39422 0.97622 0.0
C18 C 0.33372 0.39144 0.03736 0.0
O19 O 0.06729 0.37918 0.09474 0.0
O20 O 0.15257 0.34347 0.14933 0.0
O21 O 0.88932 0.68601 0.97505 0.0
Mn22 Mn 0.93448 0.64252 1.00177 0.0
O23 O 0.91183 0.7132 0.05143 0.0
Mn24 Mn 0.8449 0.6801 0.0815 0.0
O25 O 0.97059 0.59645 0.02099 0.0
O26 O 0.9437 0.63722 0.91083 0.0
Mn27 Mn 0.03979 0.60671 0.91755 0.0
O28 O 0.10976 0.65289 0.00664 0.0
O29 O 0.95499 0.57457 0.93512 0.0
O30 O 0.7582 0.63293 0.99844 0.0
O31 O 0.70086 0.67026 0.0558 0.0
O32 O 0.07692 0.62045 0.84886 0.0
O33 O 0.16938 0.61175 0.96299 0.0
C34 C 0.89945 0.65689 0.14879 0.0
C35 C 0.89387 0.71189 0.99792 0.0
C36 C 0.95936 0.57246 0.98963 0.0
C37 C 0.00964 0.64188 0.86516 0.0
C38 C 0.19035 0.63506 0.99196 0.0
C39 C 0.67849 0.64827 0.02301 0.0
O40 O 0.92681 0.64731 0.09525 0.0
O41 O 0.84418 0.68152 0.1566 0.0
O42 O 0.89808 0.65359 0.4947 0.0
Mn43 Mn 0.07285 0.64626 0.50257 0.0
O44 O 0.85443 0.60983 0.52729 0.0
Mn45 Mn 0.98529 0.60951 0.57371 0.0
O46 O 0.2529 0.64031 0.50889 0.0
O47 O 0.08608 0.65044 0.41348 0.0
Mn48 Mn 0.18314 0.67999 0.40633 0.0
O49 O 0.1042 0.6916 0.52291 0.0
O50 O 0.32023 0.66827 0.43606 0.0
O51 O 0.05347 0.60006 0.47903 0.0
O52 O 0.0848 0.57922 0.56145 0.0
O53 O 0.15154 0.67034 0.3321 0.0
O54 O 0.12695 0.71428 0.43892 0.0
C55 C 0.97981 0.63915 0.63918 0.0
C56 C 0.82375 0.63351 0.50365 0.0
C57 C 0.33578 0.65193 0.47969 0.0
C58 C 0.08678 0.65081 0.35641 0.0
C59 C 0.11938 0.71526 0.4937 0.0
C60 C 0.08129 0.57682 0.50726 0.0
O61 O 0.05261 0.64398 0.59563 0.0
O62 O 0.92855 0.61379 0.64274 0.0
O63 O 0.8943 0.34227 0.52898 0.0
Mn64 Mn 0.93012 0.38795 0.5095 0.0
O65 O 0.90988 0.32196 0.44329 0.0
Mn66 Mn 0.82733 0.35416 0.42292 0.0
O67 O 0.96147 0.43342 0.48883 0.0
O68 O 0.93787 0.39256 0.6012 0.0
Mn69 Mn 0.0237 0.42506 0.59192 0.0
O70 O 0.10618 0.37932 0.50469 0.0
O71 O 0.94304 0.45767 0.57105 0.0
O72 O 0.75406 0.39698 0.51491 0.0
O73 O 0.68889 0.36015 0.45875 0.0
O74 O 0.05405 0.41801 0.66449 0.0
O75 O 0.16204 0.41944 0.55408 0.0
C76 C 0.89031 0.37996 0.36245 0.0
C77 C 0.9017 0.31871 0.49704 0.0
C78 C 0.94582 0.45804 0.51653 0.0
C79 C 1.00123 0.3937 0.64931 0.0
C80 C 0.18514 0.39691 0.52303 0.0
C81 C 0.6714 0.38144 0.49375 0.0
O82 O 0.92049 0.38507 0.41752 0.0
O83 O 0.81491 0.35994 0.34849 0.0
O84 O 0.58769 0.83566 0.97659 0.0
Mn85 Mn 0.55832 0.88061 1.00226 0.0
O86 O 0.68887 0.81642 0.04774 0.0
Mn87 Mn 0.68584 0.85067 0.08917 0.0
O88 O 0.53374 0.92726 0.02653 0.0
O89 O 0.53593 0.88288 0.90914 0.0
Mn90 Mn 0.46403 0.9162 0.93312 0.0
O91 O 0.38339 0.87176 0.01099 0.0
O92 O 0.56153 0.94703 0.94303 0.0
O93 O 0.73956 0.88904 0.99529 0.0
O94 O 0.81133 0.87291 0.07944 0.0
O95 O 0.40138 0.91127 0.86523 0.0
O96 O 0.33659 0.91582 0.98117 0.0
C97 C 0.58771 0.86791 0.14824 0.0
C98 C 0.64594 0.8144 0.99801 0.0
C99 C 0.55177 0.95079 0.99676 0.0
C100 C 0.46094 0.88712 0.86602 0.0
C101 C 0.30897 0.89212 0.00508 0.0
C102 C 0.82298 0.88648 0.03247 0.0
O103 O 0.57028 0.87586 0.09337 0.0
O104 O 0.64797 0.84463 0.16055 0.0
O105 O 0.40005 0.18798 0.97705 0.0
Mn106 Mn 0.42865 0.14278 1.0012 0.0
O107 O 0.43252 0.21201 0.0569 0.0
Mn108 Mn 0.34462 0.18196 0.08472 0.0
O109 O 0.44519 0.09648 0.02343 0.0
O110 O 0.44364 0.13746 0.91044 0.0
Mn111 Mn 0.53559 0.10624 0.91066 0.0
O112 O 0.60761 0.14883 0.00696 0.0
O113 O 0.47667 0.07285 0.94005 0.0
O114 O 0.25084 0.13772 0.99603 0.0
O115 O 0.20148 0.17632 0.05232 0.0
O116 O 0.5105 0.10964 0.83549 0.0
O117 O 0.67615 0.11747 0.93865 0.0
C118 C 0.39678 0.15559 0.1483 0.0
C119 C 0.41075 0.21297 0.00375 0.0
C120 C 0.45345 0.07222 0.9932 0.0
C121 C 0.45492 0.13285 0.85367 0.0
C122 C 0.69119 0.13629 0.97957 0.0
C123 C 0.17505 0.15546 0.01738 0.0
O124 O 0.41796 0.14768 0.09338 0.0
O125 O 0.34317 0.1801 0.16031 0.0
O126 O 0.38938 0.15491 0.50293 0.0
Mn127 Mn 0.56833 0.14902 0.50548 0.0
O128 O 0.32262 0.1238 0.57143 0.0
Mn129 Mn 0.45691 0.11507 0.61127 0.0
O130 O 0.74581 0.14286 0.50865 0.0
O131 O 0.5759 0.15135 0.41427 0.0
Mn132 Mn 0.65956 0.18429 0.41476 0.0
O133 O 0.60379 0.19483 0.5252 0.0
O134 O 0.80221 0.1778 0.44722 0.0
O135 O 0.54335 0.10294 0.48892 0.0
O136 O 0.51001 0.08119 0.57419 0.0
O137 O 0.64974 0.1771 0.33947 0.0
O138 O 0.57628 0.21572 0.44291 0.0
C139 C 0.57916 0.16566 0.63483 0.0
C140 C 0.30733 0.14144 0.52932 0.0
C141 C 0.8244 0.15847 0.48484 0.0
C142 C 0.5886 0.15516 0.35773 0.0
C143 C 0.60047 0.2186 0.4958 0.0
C144 C 0.52945 0.07973 0.51994 0.0
O145 O 0.55734 0.1453 0.5959 0.0
O146 O 0.55756 0.14585 0.59749 0.0
O147 O 0.39945 0.84267 0.52571 0.0
Mn148 Mn 0.44477 0.88719 0.5041 0.0
O149 O 0.37624 0.81846 0.44265 0.0
Mn150 Mn 0.33029 0.85323 0.4103 0.0
O151 O 0.4773 0.93324 0.48534 0.0
O152 O 0.45856 0.8936 0.59387 0.0
Mn153 Mn 0.56061 0.92315 0.58876 0.0
O154 O 0.6199 0.87712 0.4983 0.0
O155 O 0.48192 0.95627 0.57141 0.0
O156 O 0.26808 0.89658 0.50855 0.0
O157 O 0.19489 0.86922 0.43448 0.0
O158 O 0.59764 0.90649 0.65563 0.0
O159 O 0.68421 0.91843 0.54031 0.0
C160 C 0.42503 0.87804 0.35695 0.0
C161 C 0.37826 0.81846 0.4973 0.0
C162 C 0.47316 0.95736 0.51669 0.0
C163 C 0.52341 0.8867 0.6388 0.0
C164 C 0.70129 0.89523 0.51065 0.0
C165 C 0.18347 0.88722 0.47694 0.0
O166 O 0.43326 0.88176 0.41388 0.0
O167 O 0.35866 0.85739 0.33583 0.0
C168 C 0.49817 0.4131 0.9843 0.0
C169 C 0.45511 0.39152 0.02095 0.0
C170 C 0.61493 0.41384 0.97094 0.0
C171 C 0.69272 0.39276 0.9932 0.0
H172 H 0.4418 0.42981 0.96676 0.0
H173 H 0.64421 0.43131 0.94299 0.0
S174 S 0.61808 0.33007 0.08796 0.0
N175 N 0.49588 0.34759 0.07748 0.0
N176 N 0.71519 0.34882 0.05185 0.0
C177 C 0.64954 0.3707 0.02933 0.0
C178 C 0.53073 0.37008 0.0432 0.0
C179 C 0.38683 0.63977 0.95319 0.0
C180 C 0.31278 0.64154 1.00151 0.0
C181 C 0.50632 0.64004 0.95997 0.0
C182 C 0.55572 0.64172 0.01547 0.0
H183 H 0.35164 0.6379 0.90961 0.0
H184 H 0.55997 0.63982 0.92168 0.0
S185 S 0.40126 0.64554 0.15603 0.0
N186 N 0.29826 0.64433 0.10654 0.0
N187 N 0.52272 0.64453 0.11971 0.0
C188 C 0.48277 0.64319 0.06414 0.0
C189 C 0.36133 0.64323 0.05714 0.0
C190 C 0.62177 0.61482 0.50231 0.0
C191 C 0.69934 0.63866 0.49617 0.0
C192 C 0.50278 0.61922 0.50158 0.0
C193 C 0.45736 0.64763 0.49467 0.0
H194 H 0.65315 0.59244 0.50746 0.0
H195 H 0.44645 0.60022 0.50389 0.0
S196 S 0.62142 0.71761 0.47849 0.0
N197 N 0.72046 0.69176 0.48407 0.0
N198 N 0.49794 0.70009 0.48291 0.0
C199 C 0.53376 0.67168 0.48945 0.0
C200 C 0.65434 0.6672 0.4898 0.0
C201 C 0.49672 0.3814 0.55562 0.0
C202 C 0.5508 0.38904 0.5037 0.0
C203 C 0.37684 0.38264 0.56036 0.0
C204 C 0.3076 0.39106 0.5131 0.0
H205 H 0.54693 0.37368 0.59205 0.0
H206 H 0.33785 0.37714 0.60144 0.0
S207 S 0.41045 0.41624 0.37023 0.0
N208 N 0.52794 0.40658 0.40526 0.0
N209 N 0.30343 0.41024 0.4153 0.0
C210 C 0.36139 0.39964 0.46177 0.0
C211 C 0.48289 0.39816 0.45676 0.0
C212 C 0.9968 0.87988 0.97198 0.0
C213 C 0.94321 0.89353 0.01992 0.0
C214 C 0.11665 0.87728 0.96972 0.0
C215 C 0.18644 0.88786 0.01563 0.0
H216 H 0.94578 0.8699 0.93741 0.0
H217 H 0.15531 0.86736 0.93135 0.0
S218 S 0.08864 0.92505 0.15112 0.0
N219 N 0.96966 0.91767 0.11456 0.0
N220 N 0.19422 0.9128 0.10969 0.0
C221 C 0.13426 0.90176 0.06342 0.0
C222 C 0.01294 0.90464 0.06564 0.0
C223 C 0.00709 0.12285 0.9982 0.0
C224 C 0.05182 0.1514 0.00568 0.0
C225 C 0.88912 0.11839 0.99308 0.0
C226 C 0.81142 0.14229 0.99499 0.0
H227 H 0.06326 0.10376 0.99738 0.0
H228 H 0.85826 0.09592 0.98683 0.0
S229 S 0.88558 0.22173 0.01108 0.0
N230 N 0.00967 0.20427 0.01339 0.0
N231 N 0.7874 0.1956 0.00326 0.0
C232 C 0.85456 0.17101 1.00263 0.0
C233 C 0.97502 0.17563 0.00786 0.0
C234 C 0.14011 0.17436 0.50844 0.0
C235 C 0.18677 0.14582 0.51206 0.0
C236 C 0.0216 0.17829 0.50132 0.0
C237 C 0.94637 0.15382 0.49792 0.0
H238 H 0.1947 0.19367 0.51304 0.0
H239 H 0.98836 0.20064 0.49892 0.0
S240 S 0.02692 0.07486 0.49985 0.0
N241 N 0.14914 0.09284 0.50864 0.0
N242 N 0.92731 0.10051 0.49446 0.0
C243 C 0.99224 0.12536 0.50018 0.0
C244 C 0.11228 0.12132 0.50733 0.0
C245 C 0.87335 0.90248 0.45093 0.0
C246 C 0.82175 0.88901 0.49861 0.0
C247 C 0.99262 0.90414 0.44649 0.0
C248 C 0.06425 0.89394 0.49121 0.0
H249 H 0.82129 0.91259 0.41773 0.0
H250 H 0.02944 0.91304 0.40731 0.0
S251 S 0.97064 0.85955 0.62787 0.0
N252 N 0.8503 0.86676 0.59285 0.0
N253 N 0.07517 0.87104 0.58568 0.0
C254 C 0.01367 0.88171 0.54037 0.0
C255 C 0.89228 0.879 0.54382 0.0
C256 C 0.93414 0.52319 0.03808 0.0
C257 C 0.00449 0.54351 0.00937 0.0
C258 C 0.95924 0.49252 0.03646 0.0
C259 C 0.05461 0.48139 0.00556 0.0
H260 H 0.85416 0.53059 0.05699 0.0
H261 H 0.89736 0.47728 0.05411 0.0
S262 S 0.26998 0.52551 0.92767 0.0
N263 N 0.17913 0.55023 0.95398 0.0
N264 N 0.2234 0.49318 0.9501 0.0
C265 C 0.13011 0.50174 0.98129 0.0
C266 C 0.10579 0.53266 0.98345 0.0
C267 C 0.90171 0.50912 0.48346 0.0
C268 C 0.98206 0.4864 0.4912 0.0
C269 C 0.93678 0.53884 0.47946 0.0
C270 C 0.0531 0.54686 0.48495 0.0
H271 H 0.81103 0.50419 0.48517 0.0
H272 H 0.87145 0.55583 0.47839 0.0
S273 S 0.29702 0.4956 0.50289 0.0
N274 N 0.18361 0.47379 0.49933 0.0
N275 N 0.24803 0.52965 0.49569 0.0
C276 C 0.13426 0.5242 0.48911 0.0
C277 C 0.09906 0.49395 0.49136 0.0
C278 C 0.41433 0.99137 0.97755 0.0
C279 C 0.50041 0.97992 0.01394 0.0
C280 C 0.3847 0.02135 0.9793 0.0
C281 C 0.44167 0.04172 0.01633 0.0
H282 H 0.3756 0.97749 0.94392 0.0
H283 H 0.32644 0.02926 0.94617 0.0
S284 S 0.64651 0.02136 0.13276 0.0
N285 N 0.62112 0.98967 0.09792 0.0
N286 N 0.56961 0.04689 0.09966 0.0
C287 C 0.51644 0.02996 0.05843 0.0
C288 C 0.54507 0.99886 0.05739 0.0
C289 C 0.6196 0.03053 0.50401 0.0
C290 C 0.5271 0.04958 0.49338 0.0
C291 C 0.60499 0.99961 0.50299 0.0
C292 C 0.49706 0.98668 0.49186 0.0
H293 H 0.70076 0.03959 0.51883 0.0
H294 H 0.67572 0.9859 0.51698 0.0
S295 S 0.2332 0.02624 0.45175 0.0
N296 N 0.32804 0.05294 0.4633 0.0
N297 N 0.30108 0.99479 0.46265 0.0
C298 C 0.40745 1.0052 0.4753 0.0
C299 C 0.42231 0.03671 0.47585 0.0
C300 C 0.16503 0.26763 0.01623 0.0
C301 C 0.19317 0.28979 0.97704 0.0
C302 C 0.23486 0.24274 0.02264 0.0
C303 C 0.33173 0.23751 0.98741 0.0
H304 H 0.09837 0.27156 0.0481 0.0
H305 H 0.21725 0.22881 0.05912 0.0
S306 S 0.4358 0.28751 0.8735 0.0
N307 N 0.32203 0.3046 0.90031 0.0
N308 N 0.44689 0.25594 0.90848 0.0
C309 C 0.35477 0.25809 0.94403 0.0
C310 C 0.28622 0.28441 0.93933 0.0
C311 C 0.63318 0.76086 0.98974 0.0
C312 C 0.67617 0.78696 0.96607 0.0
C313 C 0.70203 0.73566 0.9946 0.0
C314 C 0.81613 0.73507 0.97489 0.0
H315 H 0.5521 0.76127 0.0125 0.0
H316 H 0.66805 0.71769 0.01914 0.0
S317 S 0.95916 0.79506 0.8954 0.0
N318 N 0.83258 0.80898 0.91257 0.0
N319 N 0.96118 0.76099 0.9206 0.0
C320 C 0.85483 0.75952 0.94386 0.0
C321 C 0.78443 0.78546 0.93912 0.0
C322 C 0.28345 0.74186 0.54008 0.0
C323 C 0.16791 0.74225 0.52166 0.0
C324 C 0.35173 0.76774 0.53954 0.0
C325 C 0.30509 0.79502 0.52288 0.0
H326 H 0.3246 0.72087 0.5484 0.0
H327 H 0.44299 0.76581 0.54703 0.0
S328 S 1.00288 0.80818 0.47927 0.0
N329 N 0.0084 0.77234 0.49154 0.0
N330 N 0.13204 0.82095 0.49471 0.0
C331 C 0.18625 0.79598 0.51147 0.0
C332 C 0.1186 0.76964 0.50995 0.0
C333 C 0.86107 0.26647 0.47224 0.0
C334 C 0.85181 0.28956 0.5138 0.0
C335 C 0.77949 0.24411 0.46797 0.0
C336 C 0.69014 0.24151 0.50843 0.0
H337 H 0.92412 0.26754 0.4379 0.0
H338 H 0.78365 0.22976 0.43 0.0
S339 S 0.64814 0.29058 0.6373 0.0
N340 N 0.75671 0.30576 0.60278 0.0
N341 N 0.61142 0.26065 0.59908 0.0
C342 C 0.68942 0.26173 0.55569 0.0
C343 C 0.76915 0.28618 0.55786 0.0
C344 C 0.93818 0.39294 0.20698 0.0
C345 C 0.04419 0.37874 0.20061 0.0
C346 C 0.89467 0.39907 0.26284 0.0
C347 C 0.95582 0.391 0.31332 0.0
H348 H 0.88459 0.39684 0.16933 0.0
H349 H 0.80704 0.40671 0.26654 0.0
S350 S 0.24432 0.35775 0.31905 0.0
N351 N 0.21794 0.36195 0.24936 0.0
N352 N 0.13151 0.37141 0.35294 0.0
C353 C 0.06723 0.38042 0.30712 0.0
C354 C 0.11222 0.37457 0.25088 0.0
C355 C 0.85966 0.64816 0.25323 0.0
C356 C 0.92506 0.64075 0.20327 0.0
C357 C 0.90288 0.64419 0.30944 0.0
C358 C 0.01323 0.63297 0.3174 0.0
H359 H 0.77992 0.66022 0.24914 0.0
H360 H 0.85825 0.65464 0.34559 0.0
S361 S 0.19001 0.59614 0.20399 0.0
N362 N 0.08466 0.61157 0.16705 0.0
N363 N 0.16616 0.60408 0.27331 0.0
C364 C 0.06622 0.61921 0.26901 0.0
C365 C 0.0227 0.6234 0.21144 0.0
C366 C 0.87542 0.65588 0.78828 0.0
C367 C 0.97924 0.66171 0.81693 0.0
C368 C 0.87128 0.65404 0.7273 0.0
C369 C 0.97105 0.65766 0.69328 0.0
H370 H 0.8029 0.64771 0.81246 0.0
H371 H 0.79367 0.64539 0.70735 0.0
S372 S 0.24704 0.68721 0.74746 0.0
N373 N 0.17094 0.68191 0.80682 0.0
N374 N 0.1636 0.67754 0.69211 0.0
C375 C 0.06687 0.67011 0.72087 0.0
C376 C 0.07034 0.67256 0.78305 0.0
C377 C 0.09632 0.35862 0.71268 0.0
C378 C 0.99302 0.37229 0.69631 0.0
C379 C 0.12228 0.35349 0.77131 0.0
C380 C 0.04612 0.36203 0.81547 0.0
H381 H 0.16332 0.35524 0.6808 0.0
H382 H 0.20651 0.3452 0.78235 0.0
S383 S 0.74953 0.38929 0.79339 0.0
N384 N 0.80499 0.38831 0.72748 0.0
N385 N 0.85033 0.37676 0.83714 0.0
C386 C 0.93582 0.37139 0.79883 0.0
C387 C 0.90993 0.37685 0.73919 0.0
C388 C 0.45373 0.89895 0.20847 0.0
C389 C 0.56287 0.8872 0.19916 0.0
C390 C 0.41572 0.90431 0.26558 0.0
C391 C 0.48342 0.89606 0.31389 0.0
H392 H 0.39333 0.90033 0.17282 0.0
H393 H 0.32582 0.90934 0.27171 0.0
S394 S 0.78741 0.87413 0.31052 0.0
N395 N 0.75053 0.87735 0.24164 0.0
N396 N 0.67232 0.88319 0.34822 0.0
C397 C 0.59882 0.8901 0.30459 0.0
C398 C 0.63978 0.88632 0.24688 0.0
C399 C 0.54861 0.13101 0.2062 0.0
C400 C 0.43296 0.13837 0.19932 0.0
C401 C 0.59747 0.13013 0.2621 0.0
C402 C 0.53229 0.13698 0.31219 0.0
H403 H 0.6046 0.13017 0.16879 0.0
H404 H 0.68985 0.12864 0.26547 0.0
S405 S 0.21986 0.14889 0.31724 0.0
N406 N 0.24916 0.14508 0.24732 0.0
N407 N 0.3428 0.14452 0.35171 0.0
C408 C 0.41362 0.13895 0.3061 0.0
C409 C 0.36346 0.13948 0.24949 0.0
C410 C 0.37728 0.1484 0.76055 0.0
C411 C 0.4449 0.15584 0.8094 0.0
C412 C 0.41666 0.1532 0.70379 0.0
C413 C 0.52561 0.16551 0.6937 0.0
H414 H 0.30033 0.13533 0.76593 0.0
H415 H 0.36317 0.14599 0.66807 0.0
S416 S 0.72139 0.19601 0.80669 0.0
N417 N 0.6143 0.18188 0.84381 0.0
N418 N 0.68866 0.19071 0.73733 0.0
C419 C 0.58545 0.1771 0.74197 0.0
C420 C 0.54443 0.17259 0.79976 0.0
C421 C 0.37818 0.87442 0.71108 0.0
C422 C 0.48463 0.8677 0.68653 0.0
C423 C 0.36544 0.87543 0.77167 0.0
C424 C 0.45938 0.87037 0.8095 0.0
H425 H 0.31051 0.88356 0.68446 0.0
H426 H 0.28597 0.88434 0.78868 0.0
S427 S 0.73615 0.83769 0.76507 0.0
N428 N 0.67037 0.84499 0.70316 0.0
N429 N 0.64715 0.84785 0.8174 0.0
C430 C 0.55687 0.8572 0.78525 0.0
C431 C 0.56896 0.85554 0.72334 0.0
loop_
_geom_bond_atom_site_label_1
_geom_bond_atom_site_label_2
_geom_bond_distance
_geom_bond_site_symmetry_2
_ccdc_geom_bond_type
O0 Mn1 2.163 1_556 S
O0 C14 1.244 1_556 S
Mn1 O0 2.163 1_554 S
Mn1 O4 2.160 . S
Mn1 O5 2.221 1_554 S
Mn1 O7 2.163 1_455 S
Mn1 O9 2.160 1_554 S
Mn1 O19 2.222 . S
O2 Mn3 2.087 . S
O2 C14 1.256 . S
Mn3 O2 2.087 . S
Mn3 O10 2.089 . S
Mn3 O19 2.290 . S
Mn3 O20 2.251 . S
O4 Mn1 2.160 . S
O4 C15 1.239 1_454 S
O5 Mn1 2.221 1_556 S
O5 Mn6 2.290 1_455 S
O5 C16 1.278 . S
Mn6 O5 2.290 1_655 S
Mn6 O8 2.089 . S
Mn6 O11 2.251 . S
Mn6 O12 2.087 . S
O7 Mn1 2.163 1_655 S
O7 C17 1.244 1_554 S
O8 Mn6 2.089 . S
O8 C15 1.256 . S
O9 Mn1 2.160 1_556 S
O9 C18 1.239 1_556 S
O10 Mn3 2.089 . S
O10 C18 1.256 . S
O11 Mn6 2.251 . S
O11 C16 1.241 1_655 S
O12 Mn6 2.087 . S
O12 C17 1.256 . S
C13 O19 1.278 . S
C13 O20 1.241 . S
C14 O0 1.244 1_554 S
C14 O2 1.256 . S
C15 O4 1.239 1_656 S
C15 O8 1.256 . S
C16 O5 1.278 . S
C16 O11 1.241 1_455 S
C17 O7 1.244 1_556 S
C17 O12 1.256 . S
C18 O9 1.239 1_554 S
C18 O10 1.256 . S
O19 Mn1 2.222 . S
O19 Mn3 2.290 . S
O19 C13 1.278 . S
O20 Mn3 2.251 . S
O20 C13 1.241 . S
O21 Mn22 2.163 1_556 S
O21 C35 1.244 1_556 S
Mn22 O21 2.163 1_554 S
Mn22 O25 2.160 . S
Mn22 O26 2.221 1_554 S
Mn22 O28 2.163 1_655 S
Mn22 O30 2.160 1_554 S
Mn22 O40 2.222 . S
O23 Mn24 2.087 . S
O23 C35 1.256 . S
Mn24 O23 2.087 . S
Mn24 O31 2.089 . S
Mn24 O40 2.290 . S
Mn24 O41 2.251 . S
O25 Mn22 2.160 . S
O25 C36 1.239 1_654 S
O26 Mn22 2.221 1_556 S
O26 Mn27 2.290 1_655 S
O26 C37 1.278 . S
Mn27 O26 2.290 1_455 S
Mn27 O29 2.089 . S
Mn27 O32 2.251 . S
Mn27 O33 2.087 . S
O28 Mn22 2.163 1_455 S
O28 C38 1.244 1_554 S
O29 Mn27 2.089 . S
O29 C36 1.256 . S
O30 Mn22 2.160 1_556 S
O30 C39 1.239 1_556 S
O31 Mn24 2.089 . S
O31 C39 1.256 . S
O32 Mn27 2.251 . S
O32 C37 1.241 1_455 S
O33 Mn27 2.087 . S
O33 C38 1.256 . S
C34 O40 1.278 . S
C34 O41 1.241 . S
C35 O21 1.244 1_554 S
C35 O23 1.256 . S
C36 O25 1.239 1_456 S
C36 O29 1.256 . S
C37 O26 1.278 . S
C37 O32 1.241 1_655 S
C38 O28 1.244 1_556 S
C38 O33 1.256 . S
C39 O30 1.239 1_554 S
C39 O31 1.256 . S
O40 Mn22 2.222 . S
O40 Mn24 2.290 . S
O40 C34 1.278 . S
O41 Mn24 2.251 . S
O41 C34 1.241 . S
O42 Mn43 2.163 1_655 S
O42 C56 1.244 . S
Mn43 O42 2.163 1_455 S
Mn43 O46 2.160 . S
Mn43 O47 2.221 . S
Mn43 O49 2.163 . S
Mn43 O51 2.160 . S
Mn43 O61 2.221 . S
O44 Mn45 2.087 . S
O44 C56 1.256 . S
Mn45 O44 2.087 . S
Mn45 O52 2.089 . S
Mn45 O61 2.290 1_655 S
Mn45 O62 2.251 . S
O46 Mn43 2.160 . S
O46 C57 1.239 . S
O47 Mn43 2.221 . S
O47 Mn48 2.290 . S
O47 C58 1.278 . S
Mn48 O47 2.290 . S
Mn48 O50 2.089 . S
Mn48 O53 2.251 . S
Mn48 O54 2.087 . S
O49 Mn43 2.163 . S
O49 C59 1.244 . S
O50 Mn48 2.089 . S
O50 C57 1.256 . S
O51 Mn43 2.160 . S
O51 C60 1.239 1_455 S
O52 Mn45 2.089 . S
O52 C60 1.256 . S
O53 Mn48 2.251 . S
O53 C58 1.241 . S
O54 Mn48 2.087 . S
O54 C59 1.256 . S
C55 O61 1.278 . S
C55 O62 1.241 1_455 S
C56 O42 1.244 . S
C56 O44 1.256 . S
C57 O46 1.239 . S
C57 O50 1.256 . S
C58 O47 1.278 . S
C58 O53 1.241 . S
C59 O49 1.244 . S
C59 O54 1.256 . S
C60 O51 1.239 1_655 S
C60 O52 1.256 . S
O61 Mn43 2.221 . S
O61 Mn45 2.290 1_455 S
O61 C55 1.278 . S
O62 Mn45 2.251 . S
O62 C55 1.241 1_655 S
O63 Mn64 2.163 . S
O63 C77 1.244 . S
Mn64 O63 2.163 . S
Mn64 O67 2.160 . S
Mn64 O68 2.221 . S
Mn64 O70 2.163 1_655 S
Mn64 O72 2.160 . S
Mn64 O82 2.221 . S
O65 Mn66 2.087 . S
O65 C77 1.256 . S
Mn66 O65 2.087 . S
Mn66 O73 2.089 . S
Mn66 O82 2.290 . S
Mn66 O83 2.251 . S
O67 Mn64 2.160 . S
O67 C78 1.239 1_655 S
O68 Mn64 2.221 . S
O68 Mn69 2.290 1_655 S
O68 C79 1.278 . S
Mn69 O68 2.290 1_455 S
Mn69 O71 2.089 . S
Mn69 O74 2.251 . S
Mn69 O75 2.087 . S
O70 Mn64 2.163 1_455 S
O70 C80 1.244 . S
O71 Mn69 2.089 . S
O71 C78 1.256 . S
O72 Mn64 2.160 . S
O72 C81 1.239 . S
O73 Mn66 2.089 . S
O73 C81 1.256 . S
O74 Mn69 2.251 . S
O74 C79 1.241 1_455 S
O75 Mn69 2.087 . S
O75 C80 1.256 . S
C76 O82 1.278 . S
C76 O83 1.241 . S
C77 O63 1.244 . S
C77 O65 1.256 . S
C78 O67 1.239 1_455 S
C78 O71 1.256 . S
C79 O68 1.278 . S
C79 O74 1.241 1_655 S
C80 O70 1.244 . S
C80 O75 1.256 . S
C81 O72 1.239 . S
C81 O73 1.256 . S
O82 Mn64 2.221 . S
O82 Mn66 2.290 . S
O82 C76 1.278 . S
O83 Mn66 2.251 . S
O83 C76 1.241 . S
O84 Mn85 2.163 1_556 S
O84 C98 1.244 1_556 S
Mn85 O84 2.163 1_554 S
Mn85 O88 2.160 . S
Mn85 O89 2.221 1_554 S
Mn85 O91 2.163 . S
Mn85 O93 2.160 1_554 S
Mn85 O103 2.222 . S
O86 Mn87 2.087 . S
O86 C98 1.256 . S
Mn87 O86 2.087 . S
Mn87 O94 2.089 . S
Mn87 O103 2.290 . S
Mn87 O104 2.251 . S
O88 Mn85 2.160 . S
O88 C99 1.239 1_554 S
O89 Mn85 2.221 1_556 S
O89 Mn90 2.290 . S
O89 C100 1.278 . S
Mn90 O89 2.290 . S
Mn90 O92 2.089 . S
Mn90 O95 2.251 . S
Mn90 O96 2.087 . S
O91 Mn85 2.163 . S
O91 C101 1.244 1_554 S
O92 Mn90 2.089 . S
O92 C99 1.256 . S
O93 Mn85 2.160 1_556 S
O93 C102 1.239 1_556 S
O94 Mn87 2.089 . S
O94 C102 1.256 . S
O95 Mn90 2.251 . S
O95 C100 1.241 . S
O96 Mn90 2.087 . S
O96 C101 1.256 . S
C97 O103 1.278 . S
C97 O104 1.241 . S
C98 O84 1.244 1_554 S
C98 O86 1.256 . S
C99 O88 1.239 1_556 S
C99 O92 1.256 . S
C100 O89 1.278 . S
C100 O95 1.241 . S
C101 O91 1.244 1_556 S
C101 O96 1.256 . S
C102 O93 1.239 1_554 S
C102 O94 1.256 . S
O103 Mn85 2.222 . S
O103 Mn87 2.290 . S
O103 C97 1.278 . S
O104 Mn87 2.251 . S
O104 C97 1.241 . S
O105 Mn106 2.163 1_556 S
O105 C119 1.244 1_556 S
Mn106 O105 2.163 1_554 S
Mn106 O109 2.160 . S
Mn106 O110 2.221 1_554 S
Mn106 O112 2.163 . S
Mn106 O114 2.160 1_554 S
Mn106 O124 2.222 . S
O107 Mn108 2.087 . S
O107 C119 1.256 . S
Mn108 O107 2.087 . S
Mn108 O115 2.089 . S
Mn108 O124 2.290 . S
Mn108 O125 2.251 . S
O109 Mn106 2.160 . S
O109 C120 1.239 1_554 S
O110 Mn106 2.221 1_556 S
O110 Mn111 2.290 . S
O110 C121 1.278 . S
Mn111 O110 2.290 . S
Mn111 O113 2.089 . S
Mn111 O116 2.251 . S
Mn111 O117 2.087 . S
O112 Mn106 2.163 . S
O112 C122 1.244 1_554 S
O113 Mn111 2.089 . S
O113 C120 1.256 . S
O114 Mn106 2.160 1_556 S
O114 C123 1.239 1_556 S
O115 Mn108 2.089 . S
O115 C123 1.256 . S
O116 Mn111 2.251 . S
O116 C121 1.241 . S
O117 Mn111 2.087 . S
O117 C122 1.256 . S
C118 O124 1.278 . S
C118 O125 1.241 . S
C119 O105 1.244 1_554 S
C119 O107 1.256 . S
C120 O109 1.239 1_556 S
C120 O113 1.256 . S
C121 O110 1.278 . S
C121 O116 1.241 . S
C122 O112 1.244 1_556 S
C122 O117 1.256 . S
C123 O114 1.239 1_554 S
C123 O115 1.256 . S
O124 Mn106 2.222 . S
O124 Mn108 2.290 . S
O124 C118 1.278 . S
O125 Mn108 2.251 . S
O125 C118 1.241 . S
O126 Mn127 2.163 . S
O126 C140 1.244 . S
Mn127 O126 2.163 . S
Mn127 O130 2.160 . S
Mn127 O131 2.221 . S
Mn127 O133 2.163 . S
Mn127 O135 2.160 . S
Mn127 O145 2.221 . S
O128 Mn129 2.087 . S
O128 C140 1.256 . S
Mn129 O128 2.087 . S
Mn129 O136 2.089 . S
Mn129 O145 2.290 . S
Mn129 O146 2.251 . S
O130 Mn127 2.160 . S
O130 C141 1.239 . S
O131 Mn127 2.221 . S
O131 Mn132 2.290 . S
O131 C142 1.278 . S
Mn132 O131 2.290 . S
Mn132 O134 2.089 . S
Mn132 O137 2.251 . S
Mn132 O138 2.087 . S
O133 Mn127 2.163 . S
O133 C143 1.244 . S
O134 Mn132 2.089 . S
O134 C141 1.256 . S
O135 Mn127 2.160 . S
O135 C144 1.239 . S
O136 Mn129 2.089 . S
O136 C144 1.256 . S
O137 Mn132 2.251 . S
O137 C142 1.241 . S
O138 Mn132 2.087 . S
O138 C143 1.256 . S
C139 O145 1.278 . S
C139 O146 1.241 . S
C140 O126 1.244 . S
C140 O128 1.256 . S
C141 O130 1.239 . S
C141 O134 1.256 . S
C142 O131 1.278 . S
C142 O137 1.241 . S
C143 O133 1.244 . S
C143 O138 1.256 . S
C144 O135 1.239 . S
C144 O136 1.256 . S
O145 Mn127 2.221 . S
O145 Mn129 2.290 . S
O145 C139 1.278 . S
O146 Mn129 2.251 . S
O146 C139 1.241 . S
O147 Mn148 2.163 . S
O147 C161 1.244 . S
Mn148 O147 2.163 . S
Mn148 O151 2.160 . S
Mn148 O152 2.221 . S
Mn148 O154 2.163 . S
Mn148 O156 2.160 . S
Mn148 O166 2.221 . S
O149 Mn150 2.087 . S
O149 C161 1.256 . S
Mn150 O149 2.087 . S
Mn150 O157 2.089 . S
Mn150 O166 2.290 . S
Mn150 O167 2.251 . S
O151 Mn148 2.160 . S
O151 C162 1.239 . S
O152 Mn148 2.221 . S
O152 Mn153 2.290 . S
O152 C163 1.278 . S
Mn153 O152 2.290 . S
Mn153 O155 2.089 . S
Mn153 O158 2.251 . S
Mn153 O159 2.087 . S
O154 Mn148 2.163 . S
O154 C164 1.244 . S
O155 Mn153 2.089 . S
O155 C162 1.256 . S
O156 Mn148 2.160 . S
O156 C165 1.239 . S
O157 Mn150 2.089 . S
O157 C165 1.256 . S
O158 Mn153 2.251 . S
O158 C163 1.241 . S
O159 Mn153 2.087 . S
O159 C164 1.256 . S
C160 O166 1.278 . S
C160 O167 1.241 . S
C161 O147 1.244 . S
C161 O149 1.256 . S
C162 O151 1.239 . S
C162 O155 1.256 . S
C163 O152 1.278 . S
C163 O158 1.241 . S
C164 O154 1.244 . S
C164 O159 1.256 . S
C165 O156 1.239 . S
C165 O157 1.256 . S
O166 Mn148 2.221 . S
O166 Mn150 2.290 . S
O166 C160 1.278 . S
O167 Mn150 2.251 . S
O167 C160 1.241 . S
C168 C169 1.369 . S
C168 C170 1.419 . S
C168 H172 0.930 . S
C169 C168 1.369 . S
C169 C178 1.429 1_556 S
C170 C168 1.419 . S
C170 C171 1.363 1_556 S
C170 H173 0.929 . S
C171 C170 1.363 1_554 S
C171 C177 1.428 . S
H172 C168 0.930 . S
H173 C170 0.929 . S
S174 N175 1.613 . S
S174 N176 1.610 . S
N175 S174 1.613 . S
N175 C178 1.350 . S
N176 S174 1.610 . S
N176 C177 1.351 . S
C177 C171 1.428 . S
C177 N176 1.351 . S
C177 C178 1.434 . S
C178 C169 1.429 1_554 S
C178 N175 1.350 . S
C178 C177 1.434 . S
C179 C180 1.369 1_556 S
C179 C181 1.419 . S
C179 H183 0.930 . S
C180 C179 1.369 1_554 S
C180 C189 1.429 . S
C181 C179 1.419 . S
C181 C182 1.363 . S
C181 H184 0.929 . S
C182 C181 1.363 . S
C182 C188 1.428 1_556 S
H183 C179 0.930 . S
H184 C181 0.929 . S
S185 N186 1.613 . S
S185 N187 1.610 . S
N186 S185 1.613 . S
N186 C189 1.350 . S
N187 S185 1.610 . S
N187 C188 1.351 . S
C188 C182 1.428 1_554 S
C188 N187 1.351 . S
C188 C189 1.434 . S
C189 C180 1.429 . S
C189 N186 1.350 . S
C189 C188 1.434 . S
C190 C191 1.369 . S
C190 C192 1.419 . S
C190 H194 0.930 . S
C191 C190 1.369 . S
C191 C200 1.429 . S
C192 C190 1.419 . S
C192 C193 1.363 . S
C192 H195 0.929 . S
C193 C192 1.363 . S
C193 C199 1.428 . S
H194 C190 0.930 . S
H195 C192 0.929 . S
S196 N197 1.613 . S
S196 N198 1.610 . S
N197 S196 1.613 . S
N197 C200 1.350 . S
N198 S196 1.610 . S
N198 C199 1.351 . S
C199 C193 1.428 . S
C199 N198 1.351 . S
C199 C200 1.434 . S
C200 C191 1.429 . S
C200 N197 1.350 . S
C200 C199 1.434 . S
C201 C202 1.369 . S
C201 C203 1.419 . S
C201 H205 0.930 . S
C202 C201 1.369 . S
C202 C211 1.429 . S
C203 C201 1.419 . S
C203 C204 1.363 . S
C203 H206 0.929 . S
C204 C203 1.363 . S
C204 C210 1.428 . S
H205 C201 0.930 . S
H206 C203 0.929 . S
S207 N208 1.613 . S
S207 N209 1.610 . S
N208 S207 1.613 . S
N208 C211 1.350 . S
N209 S207 1.610 . S
N209 C210 1.351 . S
C210 C204 1.428 . S
C210 N209 1.351 . S
C210 C211 1.434 . S
C211 C202 1.429 . S
C211 N208 1.350 . S
C211 C210 1.434 . S
C212 C213 1.369 1_455 S
C212 C214 1.419 . S
C212 H216 0.931 . S
C213 C212 1.369 1_655 S
C213 C222 1.429 1_656 S
C214 C212 1.419 . S
C214 C215 1.363 1_556 S
C214 H217 0.929 . S
C215 C214 1.363 1_554 S
C215 C221 1.428 . S
H216 C212 0.931 . S
H217 C214 0.929 . S
S218 N219 1.613 1_455 S
S218 N220 1.610 . S
N219 S218 1.613 1_655 S
N219 C222 1.350 1_655 S
N220 S218 1.610 . S
N220 C221 1.351 . S
C221 C215 1.428 . S
C221 N220 1.351 . S
C221 C222 1.434 . S
C222 C213 1.429 1_454 S
C222 N219 1.350 1_455 S
C222 C221 1.434 . S
C223 C224 1.369 1_655 S
C223 C225 1.419 1_556 S
C223 H227 0.930 1_655 S
C224 C223 1.369 1_455 S
C224 C233 1.429 1_456 S
C225 C223 1.419 1_554 S
C225 C226 1.363 . S
C225 H228 0.929 . S
C226 C225 1.363 . S
C226 C232 1.428 . S
H227 C223 0.930 1_455 S
H228 C225 0.929 . S
S229 N230 1.613 1_655 S
S229 N231 1.610 . S
N230 S229 1.613 1_455 S
N230 C233 1.350 1_455 S
N231 S229 1.610 . S
N231 C232 1.351 . S
C232 C226 1.428 . S
C232 N231 1.351 . S
C232 C233 1.434 . S
C233 C224 1.429 1_654 S
C233 N230 1.350 1_655 S
C233 C232 1.434 . S
C234 C235 1.369 . S
C234 C236 1.419 . S
C234 H238 0.930 . S
C235 C234 1.369 . S
C235 C244 1.429 . S
C236 C234 1.419 . S
C236 C237 1.363 1_455 S
C236 H239 0.929 1_455 S
C237 C236 1.363 1_655 S
C237 C243 1.428 1_655 S
H238 C234 0.930 . S
H239 C236 0.929 1_655 S
S240 N241 1.613 . S
S240 N242 1.610 1_455 S
N241 S240 1.613 . S
N241 C244 1.350 . S
N242 S240 1.610 1_655 S
N242 C243 1.351 1_655 S
C243 C237 1.428 1_455 S
C243 N242 1.351 1_455 S
C243 C244 1.434 . S
C244 C235 1.429 . S
C244 N241 1.350 . S
C244 C243 1.434 . S
C245 C246 1.369 . S
C245 C247 1.419 . S
C245 H249 0.930 . S
C246 C245 1.369 . S
C246 C255 1.429 . S
C247 C245 1.419 . S
C247 C248 1.363 1_655 S
C247 H250 0.929 1_655 S
C248 C247 1.363 1_455 S
C248 C254 1.428 1_455 S
H249 C245 0.930 . S
H250 C247 0.929 1_455 S
S251 N252 1.613 . S
S251 N253 1.610 1_655 S
N252 S251 1.613 . S
N252 C255 1.350 . S
N253 S251 1.610 1_455 S
N253 C254 1.351 1_455 S
C254 C248 1.428 1_655 S
C254 N253 1.351 1_655 S
C254 C255 1.434 . S
C255 C246 1.429 . S
C255 N252 1.350 . S
C255 C254 1.434 . S
C256 C257 1.369 . S
C256 C258 1.419 . S
C256 H260 0.930 . S
C257 C256 1.369 . S
C257 C266 1.429 1_654 S
C258 C256 1.419 . S
C258 C259 1.363 1_655 S
C258 H261 0.929 . S
C259 C258 1.363 1_455 S
C259 C265 1.428 1_554 S
H260 C256 0.930 . S
H261 C258 0.929 . S
S262 N263 1.613 . S
S262 N264 1.610 . S
N263 S262 1.613 . S
N263 C266 1.350 . S
N264 S262 1.610 . S
N264 C265 1.351 . S
C265 C259 1.428 1_556 S
C265 N264 1.351 . S
C265 C266 1.434 . S
C266 C257 1.429 1_456 S
C266 N263 1.350 . S
C266 C265 1.434 . S
C267 C268 1.374 . S
C267 C269 1.419 . S
C267 H271 0.930 . S
C268 C267 1.374 . S
C268 C277 1.423 1_655 S
C269 C267 1.419 . S
C269 C270 1.363 1_655 S
C269 H272 0.929 . S
C270 C269 1.363 1_455 S
C270 C276 1.428 . S
H271 C267 0.930 . S
H272 C269 0.929 . S
S273 N274 1.613 . S
S273 N275 1.610 . S
N274 S273 1.613 . S
N274 C277 1.350 . S
N275 S273 1.610 . S
N275 C276 1.351 . S
C276 C270 1.428 . S
C276 N275 1.351 . S
C276 C277 1.434 . S
C277 C268 1.423 1_455 S
C277 N274 1.350 . S
C277 C276 1.434 . S
C278 C279 1.369 1_556 S
C278 C280 1.419 1_565 S
C278 H282 0.930 . S
C279 C278 1.369 1_554 S
C279 C288 1.429 . S
C280 C278 1.419 1_545 S
C280 C281 1.363 1_556 S
C280 H283 0.929 . S
C281 C280 1.363 1_554 S
C281 C287 1.428 . S
H282 C278 0.930 . S
H283 C280 0.929 . S
S284 N285 1.615 1_545 S
S284 N286 1.608 . S
N285 S284 1.615 1_565 S
N285 C288 1.350 . S
N286 S284 1.608 . S
N286 C287 1.351 . S
C287 C281 1.428 . S
C287 N286 1.351 . S
C287 C288 1.434 1_545 S
C288 C279 1.429 . S
C288 N285 1.350 . S
C288 C287 1.434 1_565 S
C289 C290 1.369 . S
C289 C291 1.419 1_545 S
C289 H293 0.930 . S
C290 C289 1.369 . S
C290 C299 1.429 . S
C291 C289 1.419 1_565 S
C291 C292 1.363 . S
C291 H294 0.929 . S
C292 C291 1.363 . S
C292 C298 1.428 . S
H293 C289 0.930 . S
H294 C291 0.929 . S
S295 N296 1.613 . S
S295 N297 1.610 1_545 S
N296 S295 1.613 . S
N296 C299 1.350 . S
N297 S295 1.610 1_565 S
N297 C298 1.351 . S
C298 C292 1.428 . S
C298 N297 1.351 . S
C298 C299 1.434 1_565 S
C299 C290 1.429 . S
C299 N296 1.350 . S
C299 C298 1.434 1_545 S
C300 C301 1.369 1_554 S
C300 C302 1.419 . S
C300 H304 0.930 . S
C301 C300 1.369 1_556 S
C301 C310 1.429 . S
C302 C300 1.419 . S
C302 C303 1.363 1_554 S
C302 H305 0.929 . S
C303 C302 1.363 1_556 S
C303 C309 1.428 . S
H304 C300 0.930 . S
H305 C302 0.929 . S
S306 N307 1.613 . S
S306 N308 1.610 . S
N307 S306 1.613 . S
N307 C310 1.350 . S
N308 S306 1.610 . S
N308 C309 1.351 . S
C309 C303 1.428 . S
C309 N308 1.351 . S
C309 C310 1.434 . S
C310 C301 1.429 . S
C310 N307 1.350 . S
C310 C309 1.434 . S
C311 C312 1.369 1_554 S
C311 C313 1.419 . S
C311 H315 0.930 . S
C312 C311 1.369 1_556 S
C312 C321 1.429 . S
C313 C311 1.419 . S
C313 C314 1.363 1_554 S
C313 H316 0.929 . S
C314 C313 1.363 1_556 S
C314 C320 1.428 . S
H315 C311 0.930 . S
H316 C313 0.929 . S
S317 N318 1.613 . S
S317 N319 1.610 . S
N318 S317 1.613 . S
N318 C321 1.350 . S
N319 S317 1.610 . S
N319 C320 1.351 . S
C320 C314 1.428 . S
C320 N319 1.351 . S
C320 C321 1.434 . S
C321 C312 1.429 . S
C321 N318 1.350 . S
C321 C320 1.434 . S
C322 C323 1.369 . S
C322 C324 1.419 . S
C322 H326 0.930 . S
C323 C322 1.369 . S
C323 C332 1.429 . S
C324 C322 1.419 . S
C324 C325 1.363 . S
C324 H327 0.929 . S
C325 C324 1.363 . S
C325 C331 1.428 . S
H326 C322 0.930 . S
H327 C324 0.929 . S
S328 N329 1.613 . S
S328 N330 1.610 . S
N329 S328 1.613 . S
N329 C332 1.350 . S
N330 S328 1.610 . S
N330 C331 1.351 . S
C331 C325 1.428 . S
C331 N330 1.351 . S
C331 C332 1.434 . S
C332 C323 1.429 . S
C332 N329 1.350 . S
C332 C331 1.434 . S
C333 C334 1.369 . S
C333 C335 1.419 . S
C333 H337 0.930 . S
C334 C333 1.369 . S
C334 C343 1.429 . S
C335 C333 1.419 . S
C335 C336 1.363 . S
C335 H338 0.929 . S
C336 C335 1.363 . S
C336 C342 1.428 . S
H337 C333 0.930 . S
H338 C335 0.929 . S
S339 N340 1.613 . S
S339 N341 1.610 . S
N340 S339 1.613 . S
N340 C343 1.350 . S
N341 S339 1.610 . S
N341 C342 1.351 . S
C342 C336 1.428 . S
C342 N341 1.351 . S
C342 C343 1.434 . S
C343 C334 1.429 . S
C343 N340 1.350 . S
C343 C342 1.434 . S
C344 C345 1.369 1_655 S
C344 C346 1.419 . S
C344 H348 0.930 . S
C345 C344 1.369 1_455 S
C345 C354 1.429 . S
C346 C344 1.419 . S
C346 C347 1.363 . S
C346 H349 0.929 . S
C347 C346 1.363 . S
C347 C353 1.428 1_655 S
H348 C344 0.930 . S
H349 C346 0.929 . S
S350 N351 1.613 . S
S350 N352 1.610 . S
N351 S350 1.613 . S
N351 C354 1.350 . S
N352 S350 1.610 . S
N352 C353 1.351 . S
C353 C347 1.428 1_455 S
C353 N352 1.351 . S
C353 C354 1.434 . S
C354 C345 1.429 . S
C354 N351 1.350 . S
C354 C353 1.434 . S
C355 C356 1.369 . S
C355 C357 1.419 . S
C355 H359 0.930 . S
C356 C355 1.369 . S
C356 C365 1.429 1_655 S
C357 C355 1.419 . S
C357 C358 1.363 1_655 S
C357 H360 0.929 . S
C358 C357 1.363 1_455 S
C358 C364 1.428 . S
H359 C355 0.930 . S
H360 C357 0.929 . S
S361 N362 1.613 . S
S361 N363 1.610 . S
N362 S361 1.613 . S
N362 C365 1.350 . S
N363 S361 1.610 . S
N363 C364 1.351 . S
C364 C358 1.428 . S
C364 N363 1.351 . S
C364 C365 1.434 . S
C365 C356 1.429 1_455 S
C365 N362 1.350 . S
C365 C364 1.434 . S
C366 C367 1.369 . S
C366 C368 1.419 . S
C366 H370 0.930 . S
C367 C366 1.369 . S
C367 C376 1.429 1_655 S
C368 C366 1.419 . S
C368 C369 1.363 1_655 S
C368 H371 0.929 . S
C369 C368 1.363 1_455 S
C369 C375 1.428 . S
H370 C366 0.930 . S
H371 C368 0.929 . S
S372 N373 1.613 . S
S372 N374 1.610 . S
N373 S372 1.613 . S
N373 C376 1.350 . S
N374 S372 1.610 . S
N374 C375 1.351 . S
C375 C369 1.428 . S
C375 N374 1.351 . S
C375 C376 1.434 . S
C376 C367 1.429 1_455 S
C376 N373 1.350 . S
C376 C375 1.434 . S
C377 C378 1.369 1_455 S
C377 C379 1.419 . S
C377 H381 0.930 . S
C378 C377 1.369 1_655 S
C378 C387 1.429 . S
C379 C377 1.419 . S
C379 C380 1.363 . S
C379 H382 0.929 . S
C380 C379 1.363 . S
C380 C386 1.428 1_455 S
H381 C377 0.930 . S
H382 C379 0.929 . S
S383 N384 1.613 . S
S383 N385 1.610 . S
N384 S383 1.613 . S
N384 C387 1.350 . S
N385 S383 1.610 . S
N385 C386 1.351 . S
C386 C380 1.428 1_655 S
C386 N385 1.351 . S
C386 C387 1.434 . S
C387 C378 1.429 . S
C387 N384 1.350 . S
C387 C386 1.434 . S
C388 C389 1.369 . S
C388 C390 1.419 . S
C388 H392 0.930 . S
C389 C388 1.369 . S
C389 C398 1.429 . S
C390 C388 1.419 . S
C390 C391 1.363 . S
C390 H393 0.929 . S
C391 C390 1.363 . S
C391 C397 1.428 . S
H392 C388 0.930 . S
H393 C390 0.929 . S
S394 N395 1.613 . S
S394 N396 1.610 . S
N395 S394 1.613 . S
N395 C398 1.350 . S
N396 S394 1.610 . S
N396 C397 1.351 . S
C397 C391 1.428 . S
C397 N396 1.351 . S
C397 C398 1.434 . S
C398 C389 1.429 . S
C398 N395 1.350 . S
C398 C397 1.434 . S
C399 C400 1.369 . S
C399 C401 1.419 . S
C399 H403 0.930 . S
C400 C399 1.369 . S
C400 C409 1.429 . S
C401 C399 1.419 . S
C401 C402 1.363 . S
C401 H404 0.929 . S
C402 C401 1.363 . S
C402 C408 1.428 . S
H403 C399 0.930 . S
H404 C401 0.929 . S
S405 N406 1.613 . S
S405 N407 1.610 . S
N406 S405 1.613 . S
N406 C409 1.350 . S
N407 S405 1.610 . S
N407 C408 1.351 . S
C408 C402 1.428 . S
C408 N407 1.351 . S
C408 C409 1.434 . S
C409 C400 1.429 . S
C409 N406 1.350 . S
C409 C408 1.434 . S
C410 C411 1.369 . S
C410 C412 1.419 . S
C410 H414 0.930 . S
C411 C410 1.369 . S
C411 C420 1.429 . S
C412 C410 1.419 . S
C412 C413 1.363 . S
C412 H415 0.929 . S
C413 C412 1.363 . S
C413 C419 1.428 . S
H414 C410 0.930 . S
H415 C412 0.929 . S
S416 N417 1.613 . S
S416 N418 1.610 . S
N417 S416 1.613 . S
N417 C420 1.350 . S
N418 S416 1.610 . S
N418 C419 1.351 . S
C419 C413 1.428 . S
C419 N418 1.351 . S
C419 C420 1.434 . S
C420 C411 1.429 . S
C420 N417 1.350 . S
C420 C419 1.434 . S
C421 C422 1.369 . S
C421 C423 1.419 . S
C421 H425 0.930 . S
C422 C421 1.369 . S
C422 C431 1.429 . S
C423 C421 1.419 . S
C423 C424 1.363 . S
C423 H426 0.929 . S
C424 C423 1.363 . S
C424 C430 1.428 . S
H425 C421 0.930 . S
H426 C423 0.929 . S
S427 N428 1.613 . S
S427 N429 1.610 . S
N428 S427 1.613 . S
N428 C431 1.350 . S
N429 S427 1.610 . S
N429 C430 1.351 . S
C430 C424 1.428 . S
C430 N429 1.351 . S
C430 C431 1.434 . S
C431 C422 1.429 . S
C431 N428 1.350 . S
C431 C430 1.434 . S
C169 C18 1.296 1_556 S
C171 C17 1.305 1_554 S
C180 C38 1.307 1_554 S
C182 C39 1.298 1_556 S
C191 C56 1.302 . S
C193 C57 1.300 . S
C202 C81 1.299 . S
C204 C80 1.305 . S
C213 C102 1.301 1_556 S
C215 C101 1.304 1_554 S
C224 C123 1.297 1_556 S
C226 C122 1.304 1_554 S
C235 C140 1.302 . S
C237 C141 1.303 . S
C246 C164 1.294 . S
C248 C165 1.307 . S
C257 C36 1.505 1_654 S
C259 C15 1.507 1_454 S
C268 C78 1.506 1_655 S
C270 C60 1.509 1_455 S
C279 C99 1.513 1_554 S
C281 C120 1.513 1_554 S
C290 C144 1.507 . S
C292 C162 1.510 . S
C301 C14 1.525 1_556 S
C303 C119 1.526 1_556 S
C312 C98 1.525 1_556 S
C314 C35 1.526 1_556 S
C323 C59 1.520 . S
C325 C161 1.517 . S
C334 C77 1.527 . S
C336 C143 1.525 . S
C345 C13 1.304 . S
C347 C76 1.310 . S
C356 C34 1.319 . S
C358 C58 1.313 . S
C367 C37 1.265 . S
C369 C55 1.275 . S
C378 C79 1.267 . S
C380 C16 1.259 . S
C389 C97 1.304 . S
C391 C160 1.310 . S
C400 C118 1.304 . S
C402 C142 1.311 . S
C411 C121 1.262 . S
C413 C139 1.275 . S
C422 C163 1.265 . S
C424 C100 1.275 . S
