# Generated by pormake.
# Topology zfb, (5)-cn, num edge types: 1
# Building blocks:
#     Node 0, Type 0, BuildingBlock: BEQFEK_clean_sbu_0, # of connection points: 5
#     Node 1, Type 0, BuildingBlock: BEQFEK_clean_sbu_0, # of connection points: 5
#     Node 2, Type 0, BuildingBlock: BEQFEK_clean_sbu_0, # of connection points: 5
#     Node 3, Type 0, BuildingBlock: BEQFEK_clean_sbu_0, # of connection points: 5
#     Node 4, Type 0, BuildingBlock: BEQFEK_clean_sbu_0, # of connection points: 5
#     Node 5, Type 0, BuildingBlock: BEQFEK_clean_sbu_0, # of connection points: 5
#     Node 6, Type 0, BuildingBlock: BEQFEK_clean_sbu_0, # of connection points: 5
#     Node 7, Type 0, BuildingBlock: BEQFEK_clean_sbu_0, # of connection points: 5
#     Edge 8, Type (0, 0), BuildingBlock: AJUNOK_clean_linker_0, # of connection points: 2
#     Edge 9, Type (0, 0), BuildingBlock: AJUNOK_clean_linker_0, # of connection points: 2
#     Edge 10, Type (0, 0), BuildingBlock: AJUNOK_clean_linker_0, # of connection points: 2
#     Edge 11, Type (0, 0), BuildingBlock: AJUNOK_clean_linker_0, # of connection points: 2
#     Edge 12, Type (0, 0), BuildingBlock: AJUNOK_clean_linker_0, # of connection points: 2
#     Edge 13, Type (0, 0), BuildingBlock: AJUNOK_clean_linker_0, # of connection points: 2
#     Edge 14, Type (0, 0), BuildingBlock: AJUNOK_clean_linker_0, # of connection points: 2
#     Edge 15, Type (0, 0), BuildingBlock: AJUNOK_clean_linker_0, # of connection points: 2
#     Edge 16, Type (0, 0), BuildingBlock: AJUNOK_clean_linker_0, # of connection points: 2
#     Edge 17, Type (0, 0), BuildingBlock: AJUNOK_clean_linker_0, # of connection points: 2
#     Edge 18, Type (0, 0), BuildingBlock: AJUNOK_clean_linker_0, # of connection points: 2
#     Edge 19, Type (0, 0), BuildingBlock: AJUNOK_clean_linker_0, # of connection points: 2
#     Edge 20, Type (0, 0), BuildingBlock: AJUNOK_clean_linker_0, # of connection points: 2
#     Edge 21, Type (0, 0), BuildingBlock: AJUNOK_clean_linker_0, # of connection points: 2
#     Edge 22, Type (0, 0), BuildingBlock: AJUNOK_clean_linker_0, # of connection points: 2
#     Edge 23, Type (0, 0), BuildingBlock: AJUNOK_clean_linker_0, # of connection points: 2
#     Edge 24, Type (0, 0), BuildingBlock: AJUNOK_clean_linker_0, # of connection points: 2
#     Edge 25, Type (0, 0), BuildingBlock: AJUNOK_clean_linker_0, # of connection points: 2
#     Edge 26, Type (0, 0), BuildingBlock: AJUNOK_clean_linker_0, # of connection points: 2
#     Edge 27, Type (0, 0), BuildingBlock: AJUNOK_clean_linker_0, # of connection points: 2
# Relax obj value: 0.107
# Max RMSD: 0.134
# Mean RMSD: 0.134
data_MOF--net-zfb--node1-BEQFEK_clean_sbu_0--edge1-AJUNOK_clean_linker_0
_symmetry_space_group_name_H-M    P1
_symmetry_Int_Tables_number       1
_symmetry_cell_setting            triclinic
loop_
_symmetry_equiv_pos_as_xyz
'x, y, z'
_cell_length_a     23.108136
_cell_length_b     23.122623
_cell_length_c     30.746999
_cell_angle_alpha  90.04675
_cell_angle_beta   89.94067
_cell_angle_gamma 90.001823
loop_
_atom_site_label
_atom_site_type_symbol
_atom_site_fract_x
_atom_site_fract_y
_atom_site_fract_z
_atom_type_partial_charge
Co0 Co 0.20258 0.38171 0.10981 0.0
Co1 Co 0.1909 0.38395 0.00765 0.0
C2 C 0.09424 0.42144 0.06037 0.0
O3 O 0.12406 0.41311 0.09482 0.0
O4 O 0.11308 0.40694 0.02295 0.0
C5 C 0.16397 0.3413 0.19438 0.0
O6 O 0.12015 0.32141 0.17167 0.0
C7 C 0.16967 0.37296 0.91315 0.0
C8 C 0.26028 0.37169 0.88979 0.0
C9 C 0.20344 0.36693 0.87618 0.0
N10 N 0.20524 0.37994 0.94727 0.0
N11 N 0.25916 0.38033 0.93295 0.0
C12 C 0.1053 0.36705 0.91647 0.0
H13 H 0.09209 0.35619 0.95014 0.0
H14 H 0.08943 0.33326 0.89376 0.0
H15 H 0.08492 0.40874 0.90731 0.0
C16 C 0.22489 0.25505 0.08741 0.0
N17 N 0.2172 0.31143 0.07676 0.0
N18 N 0.2102 0.31439 0.03438 0.0
C19 C 0.21174 0.26112 0.01693 0.0
C20 C 0.22147 0.22134 0.04963 0.0
C21 C 0.23448 0.23393 0.13277 0.0
H22 H 0.25991 0.26616 0.15146 0.0
H23 H 0.19204 0.2284 0.14911 0.0
H24 H 0.25728 0.19166 0.13263 0.0
O25 O 0.25407 0.45038 0.09597 0.0
O26 O 0.23596 0.44939 0.02552 0.0
H27 H 0.23129 0.26074 0.94887 0.0
H28 H 0.18532 0.20169 0.96566 0.0
C29 C 0.19535 0.24805 0.9708 0.0
H30 H 0.15641 0.27324 0.96209 0.0
H31 H 0.29535 0.38443 0.95299 0.0
O32 O 0.20464 0.36758 0.17452 0.0
C33 C 0.25746 0.47386 0.0585 0.0
Co34 Co 0.61753 0.19505 0.60824 0.0
Co35 Co 0.6083 0.19805 0.50609 0.0
C36 C 0.56951 0.09603 0.55957 0.0
O37 O 0.58939 0.11686 0.59492 0.0
O38 O 0.57426 0.12312 0.52361 0.0
C39 C 0.65563 0.15792 0.69357 0.0
O40 O 0.67417 0.1127 0.67174 0.0
C41 C 0.62165 0.1649 0.41404 0.0
C42 C 0.62332 0.2514 0.38335 0.0
C43 C 0.62927 0.193 0.37452 0.0
N44 N 0.61365 0.20526 0.44489 0.0
N45 N 0.61349 0.2567 0.42622 0.0
C46 C 0.61876 0.10122 0.42248 0.0
H47 H 0.58043 0.09153 0.44288 0.0
H48 H 0.6577 0.08758 0.4409 0.0
H49 H 0.61547 0.07617 0.39179 0.0
C50 C 0.74277 0.21573 0.58476 0.0
N51 N 0.68612 0.21055 0.57436 0.0
N52 N 0.68163 0.20926 0.53167 0.0
C53 C 0.73482 0.2127 0.51374 0.0
C54 C 0.77536 0.21641 0.54661 0.0
C55 C 0.76562 0.21597 0.63025 0.0
H56 H 0.76702 0.17091 0.64248 0.0
H57 H 0.8101 0.23388 0.63165 0.0
H58 H 0.73656 0.24151 0.65162 0.0
O59 O 0.54662 0.2417 0.59338 0.0
O60 O 0.5515 0.25626 0.52233 0.0
H61 H 0.79358 0.21785 0.45864 0.0
H62 H 0.73158 0.17152 0.45153 0.0
C63 C 0.74686 0.21273 0.46588 0.0
H64 H 0.72328 0.24894 0.45042 0.0
H65 H 0.60849 0.2956 0.44304 0.0
O66 O 0.63119 0.19902 0.67296 0.0
C67 C 0.52556 0.26243 0.55832 0.0
Co68 Co 0.7924 0.61956 0.1084 0.0
Co69 Co 0.80222 0.61824 1.00545 0.0
C70 C 0.8997 0.58028 0.0592 0.0
O71 O 0.87091 0.58973 0.09395 0.0
O72 O 0.87971 0.59325 0.02182 0.0
C73 C 0.82955 0.6564 0.1951 0.0
O74 O 0.87306 0.67962 0.17383 0.0
C75 C 0.82987 0.62978 0.91163 0.0
C76 C 0.74136 0.63258 0.88439 0.0
C77 C 0.79923 0.6355 0.87308 0.0
N78 N 0.79157 0.62378 0.94427 0.0
N79 N 0.73887 0.62445 0.92761 0.0
C80 C 0.89387 0.63496 0.91796 0.0
H81 H 0.90361 0.65353 0.95041 0.0
H82 H 0.91363 0.66215 0.89218 0.0
H83 H 0.91343 0.59118 0.91635 0.0
C84 C 0.77045 0.7465 0.08709 0.0
N85 N 0.77766 0.6902 0.07588 0.0
N86 N 0.7826 0.68756 0.03324 0.0
C87 C 0.77924 0.74098 0.0162 0.0
C88 C 0.77103 0.78028 0.04948 0.0
C89 C 0.76549 0.76801 0.13276 0.0
H90 H 0.74305 0.73556 0.15328 0.0
H91 H 0.80954 0.77511 0.14605 0.0
H92 H 0.74179 0.80976 0.13379 0.0
O93 O 0.74225 0.55028 0.09288 0.0
O94 O 0.75477 0.55335 0.02163 0.0
H95 H 0.75525 0.7396 0.94903 0.0
H96 H 0.79765 0.80191 0.96404 0.0
C97 C 0.79161 0.75491 0.96951 0.0
H98 H 0.83163 0.73251 0.95918 0.0
H99 H 0.70108 0.62122 0.94606 0.0
O100 O 0.7897 0.63107 0.17361 0.0
C101 C 0.73567 0.52802 0.05516 0.0
Co102 Co 0.37934 0.7891 0.61186 0.0
Co103 Co 0.38194 0.79743 0.50933 0.0
C104 C 0.41652 0.89677 0.56205 0.0
O105 O 0.40745 0.86806 0.59686 0.0
O106 O 0.4045 0.8761 0.5247 0.0
C107 C 0.34256 0.82768 0.69806 0.0
O108 O 0.32151 0.87199 0.67653 0.0
C109 C 0.3727 0.82284 0.41569 0.0
C110 C 0.37172 0.73392 0.389 0.0
C111 C 0.36868 0.79159 0.37735 0.0
N112 N 0.37797 0.7851 0.4486 0.0
N113 N 0.37837 0.73216 0.43237 0.0
C114 C 0.36657 0.88683 0.42152 0.0
H115 H 0.3454 0.89669 0.45304 0.0
H116 H 0.34124 0.90622 0.39457 0.0
H117 H 0.41028 0.90669 0.42181 0.0
C118 C 0.25287 0.76514 0.58985 0.0
N119 N 0.30933 0.77245 0.57905 0.0
N120 N 0.3126 0.77644 0.5364 0.0
C121 C 0.25948 0.77203 0.51891 0.0
C122 C 0.21967 0.76436 0.55193 0.0
C123 C 0.23063 0.7622 0.63543 0.0
H124 H 0.26217 0.73937 0.65648 0.0
H125 H 0.22495 0.80681 0.64805 0.0
H126 H 0.18811 0.73989 0.63656 0.0
O127 O 0.45003 0.74001 0.59758 0.0
O128 O 0.44762 0.75222 0.5264 0.0
H129 H 0.26259 0.74689 0.45197 0.0
H130 H 0.19919 0.78833 0.46592 0.0
C131 C 0.2462 0.7833 0.47196 0.0
H132 H 0.26809 0.8235 0.4615 0.0
H133 H 0.38143 0.69472 0.45116 0.0
O134 O 0.36672 0.78687 0.67685 0.0
C135 C 0.47293 0.73375 0.56005 0.0
Co136 Co 0.6955 0.12175 0.97124 0.0
Co137 Co 0.71593 0.10982 0.07147 0.0
C138 C 0.60714 0.06934 0.02273 0.0
O139 O 0.61875 0.09458 0.98692 0.0
O140 O 0.64169 0.07162 0.05503 0.0
C141 C 0.65553 0.14782 0.8834 0.0
O142 O 0.60502 0.15348 0.9026 0.0
C143 C 0.68331 0.12431 0.16363 0.0
C144 C 0.76788 0.11013 0.19537 0.0
C145 C 0.71045 0.12308 0.20402 0.0
N146 N 0.72317 0.11302 0.13289 0.0
N147 N 0.77345 0.10415 0.15214 0.0
C148 C 0.62064 0.13492 0.15416 0.0
H149 H 0.60777 0.11438 0.12325 0.0
H150 H 0.61319 0.1821 0.15076 0.0
H151 H 0.593 0.11811 0.18084 0.0
C152 C 0.70499 0.24654 0.99592 0.0
N153 N 0.7107 0.18979 1.00515 0.0
N154 N 0.7211 0.18427 0.04697 0.0
C155 C 0.7246 0.23709 0.06539 0.0
C156 C 0.71308 0.27863 0.03395 0.0
C157 C 0.68569 0.26861 0.95256 0.0
H158 H 0.64613 0.24512 0.94253 0.0
H159 H 0.67594 0.31554 0.95321 0.0
H160 H 0.71979 0.25968 0.92802 0.0
O161 O 0.74031 0.04929 0.98587 0.0
O162 O 0.77668 0.05789 0.0518 0.0
H163 H 0.75899 0.29181 0.1163 0.0
H164 H 0.70365 0.24148 0.13307 0.0
C165 C 0.74182 0.24742 0.11168 0.0
H166 H 0.77553 0.21594 0.12142 0.0
H167 H 0.8118 0.09472 0.13564 0.0
O168 O 0.69979 0.13587 0.90645 0.0
C169 C 0.76897 0.02831 0.01762 0.0
Co170 Co 0.87757 0.69221 0.47195 0.0
Co171 Co 0.89217 0.71309 0.57212 0.0
C172 C 0.93149 0.60417 0.52293 0.0
O173 O 0.90523 0.61566 0.48752 0.0
O174 O 0.92966 0.63841 0.55555 0.0
C175 C 0.8472 0.6512 0.38499 0.0
O176 O 0.8431 0.60109 0.40485 0.0
C177 C 0.87826 0.68274 0.66431 0.0
C178 C 0.89522 0.76717 0.69566 0.0
C179 C 0.88006 0.71044 0.70431 0.0
N180 N 0.89183 0.72152 0.63346 0.0
N181 N 0.90281 0.77161 0.65245 0.0
C182 C 0.85896 0.62227 0.65489 0.0
H183 H 0.84097 0.61937 0.62149 0.0
H184 H 0.82624 0.60785 0.67901 0.0
H185 H 0.89688 0.59296 0.65688 0.0
C186 C 0.75339 0.70212 0.49881 0.0
N187 N 0.81044 0.70751 0.50721 0.0
N188 N 0.81701 0.71789 0.54898 0.0
C189 C 0.76464 0.72177 0.56815 0.0
C190 C 0.72228 0.71048 0.53728 0.0
C191 C 0.73008 0.68295 0.45575 0.0
H192 H 0.75225 0.6426 0.44579 0.0
H193 H 0.68288 0.67453 0.45685 0.0
H194 H 0.73963 0.71641 0.43091 0.0
O195 O 0.95113 0.73636 0.48547 0.0
O196 O 0.94246 0.7741 0.55094 0.0
H197 H 0.78815 0.772 0.62412 0.0
H198 H 0.71162 0.75801 0.61935 0.0
C199 C 0.75542 0.73941 0.6145 0.0
H200 H 0.76012 0.70109 0.63585 0.0
H201 H 0.91363 0.80936 0.63574 0.0
O202 O 0.86096 0.6958 0.40716 0.0
C203 C 0.97225 0.76539 0.51702 0.0
Co204 Co 0.30607 0.87933 0.97429 0.0
Co205 Co 0.29942 0.88866 0.0767 0.0
C206 C 0.40612 0.91994 0.02558 0.0
O207 O 0.38436 0.90452 0.9893 0.0
O208 O 0.37811 0.91574 0.06123 0.0
C209 C 0.34563 0.8446 0.88802 0.0
O210 O 0.39419 0.83403 0.90872 0.0
C211 C 0.32716 0.87086 0.16898 0.0
C212 C 0.24254 0.89081 0.19922 0.0
C213 C 0.29846 0.87351 0.20847 0.0
N214 N 0.28976 0.88614 0.13768 0.0
N215 N 0.23957 0.89884 0.15601 0.0
C216 C 0.38711 0.84915 0.16064 0.0
H217 H 0.39194 0.83533 0.12624 0.0
H218 H 0.39738 0.81261 0.18273 0.0
H219 H 0.41837 0.88443 0.16724 0.0
C220 C 0.28804 0.75469 0.99811 0.0
N221 N 0.28856 0.81153 0.00838 0.0
N222 N 0.28407 0.81651 0.05091 0.0
C223 C 0.2791 0.76358 0.06886 0.0
C224 C 0.28303 0.72243 0.03627 0.0
C225 C 0.29901 0.732 0.95326 0.0
H226 H 0.26961 0.75366 0.92989 0.0
H227 H 0.34414 0.74231 0.94387 0.0
H228 H 0.29329 0.68452 0.95115 0.0
O229 O 0.25973 0.95164 0.98757 0.0
O230 O 0.24702 0.94931 0.05889 0.0
H231 H 0.23806 0.78486 0.1294 0.0
H232 H 0.25083 0.70872 0.12178 0.0
C233 C 0.26885 0.75258 0.11623 0.0
H234 H 0.31032 0.75628 0.13407 0.0
H235 H 0.20275 0.91144 0.13883 0.0
O236 O 0.3024 0.86374 0.90949 0.0
C237 C 0.23988 0.9739 0.02258 0.0
Co238 Co 0.11859 0.29843 0.47118 0.0
Co239 Co 0.11506 0.30661 0.57367 0.0
C240 C 0.08577 0.40739 0.52188 0.0
O241 O 0.09281 0.37835 0.48684 0.0
O242 O 0.09653 0.38612 0.5592 0.0
C243 C 0.15658 0.33542 0.3848 0.0
O244 O 0.17651 0.38072 0.40582 0.0
C245 C 0.12629 0.32759 0.66813 0.0
C246 C 0.12437 0.23718 0.69165 0.0
C247 C 0.13072 0.29389 0.7052 0.0
N248 N 0.11857 0.29208 0.63403 0.0
N249 N 0.11633 0.23831 0.64843 0.0
C250 C 0.13424 0.39169 0.66471 0.0
H251 H 0.14867 0.40393 0.63161 0.0
H252 H 0.16622 0.40722 0.68896 0.0
H253 H 0.09226 0.41328 0.67136 0.0
C254 C 0.24385 0.2727 0.49321 0.0
N255 N 0.18747 0.27979 0.50415 0.0
N256 N 0.18428 0.28479 0.5467 0.0
C257 C 0.23762 0.28233 0.56405 0.0
C258 C 0.27751 0.27442 0.53099 0.0
C259 C 0.26504 0.2663 0.44751 0.0
H260 H 0.23362 0.24066 0.42822 0.0
H261 H 0.26874 0.30971 0.43246 0.0
H262 H 0.30814 0.24511 0.44673 0.0
O263 O 0.04703 0.25108 0.48458 0.0
O264 O 0.04708 0.26453 0.55576 0.0
H265 H 0.23611 0.26141 0.63185 0.0
H266 H 0.29729 0.30528 0.6162 0.0
C267 C 0.25068 0.29718 0.61048 0.0
H268 H 0.22696 0.33691 0.6195 0.0
H269 H 0.11123 0.20218 0.62844 0.0
O270 O 0.13227 0.29512 0.4064 0.0
C271 C 0.02277 0.24606 0.52167 0.0
C272 C 0.25958 0.07542 1.0007 0.0
C273 C 0.22537 0.03627 0.02444 0.0
C274 C 0.25926 0.13468 0.01033 0.0
C275 C 0.22389 0.15756 0.04347 0.0
H276 H 0.2895 0.05985 0.97619 0.0
H277 H 0.28733 0.16298 0.99178 0.0
S278 S 0.12246 0.07425 0.11272 0.0
N279 N 0.15358 0.02487 0.08165 0.0
N280 N 0.15063 0.13691 0.09796 0.0
C281 C 0.18789 0.11934 0.06643 0.0
C282 C 0.18899 0.05868 0.05719 0.0
C283 C 0.93163 0.18632 0.51318 0.0
C284 C 0.9595 0.23782 0.52528 0.0
C285 C 0.87191 0.17893 0.52102 0.0
C286 C 0.83874 0.22274 0.54113 0.0
H287 H 0.95612 0.15148 0.49848 0.0
H288 H 0.85145 0.1388 0.51131 0.0
S289 S 0.89057 0.36741 0.57474 0.0
N290 N 0.94869 0.33452 0.55564 0.0
N291 N 0.83728 0.32026 0.56998 0.0
C292 C 0.866 0.27461 0.55228 0.0
C293 C 0.92618 0.28224 0.54437 0.0
C294 C 0.81355 0.93937 0.0509 0.0
C295 C 0.77318 0.96434 0.02206 0.0
C296 C 0.81151 0.88007 0.06138 0.0
C297 C 0.76838 0.84398 0.044 0.0
H298 H 0.84663 0.966 0.0658 0.0
H299 H 0.84437 0.86219 0.08256 0.0
S300 S 0.64891 0.88799 0.97089 0.0
N301 N 0.68656 0.94777 0.97855 0.0
N302 N 0.68262 0.83741 0.99897 0.0
C303 C 0.72705 0.86845 0.01617 0.0
C304 C 0.72954 0.92823 1.0049 0.0
C305 C 0.06136 0.80969 0.55025 0.0
C306 C 0.03624 0.7685 0.52209 0.0
C307 C 0.12035 0.80697 0.56162 0.0
C308 C 0.15599 0.76234 0.54591 0.0
H309 H 0.03503 0.84397 0.5639 0.0
H310 H 0.1384 0.8405 0.58216 0.0
S311 S 0.11128 0.64044 0.47525 0.0
N312 N 0.05204 0.67958 0.4811 0.0
N313 N 0.16191 0.67444 0.50315 0.0
C314 C 0.13134 0.72021 0.5188 0.0
C315 C 0.07185 0.72336 0.50662 0.0
C316 C 0.74829 0.43607 0.01434 0.0
C317 C 0.72196 0.46553 0.0495 0.0
C318 C 0.74438 0.37619 0.00963 0.0
C319 C 0.7128 0.34264 0.03914 0.0
H320 H 0.77479 0.45898 0.99092 0.0
H321 H 0.7678 0.35584 0.98319 0.0
S322 S 0.63037 0.39791 0.13431 0.0
N323 N 0.66098 0.45627 0.11346 0.0
N324 N 0.6503 0.34331 0.10296 0.0
C325 C 0.68402 0.37126 0.07352 0.0
C326 C 0.68934 0.43268 0.07906 0.0
C327 C 0.5649 0.7475 0.5195 0.0
C328 C 0.53565 0.72084 0.55459 0.0
C329 C 0.62469 0.74325 0.51432 0.0
C330 C 0.65839 0.71107 0.54329 0.0
H331 H 0.54185 0.77425 0.49636 0.0
H332 H 0.64487 0.76669 0.48784 0.0
S333 S 0.60384 0.62861 0.63856 0.0
N334 N 0.54533 0.65955 0.61823 0.0
N335 N 0.65821 0.64845 0.60694 0.0
C336 C 0.63006 0.68242 0.57784 0.0
C337 C 0.56869 0.68801 0.58383 0.0
C338 C 0.23511 0.56744 0.02311 0.0
C339 C 0.2694 0.53655 0.05326 0.0
C340 C 0.24062 0.62704 0.01761 0.0
C341 C 0.28127 0.65864 0.04142 0.0
H342 H 0.202 0.5457 1.00426 0.0
H343 H 0.21177 0.64876 0.99516 0.0
S344 S 0.38389 0.59929 0.1229 0.0
N345 N 0.34609 0.54241 0.10692 0.0
N346 N 0.35854 0.655 0.09515 0.0
C347 C 0.31681 0.62868 0.07119 0.0
C348 C 0.31034 0.56757 0.07748 0.0
C349 C 0.36527 0.23693 0.56868 0.0
C350 C 0.34141 0.27336 0.53676 0.0
C351 C 0.42446 0.23801 0.57839 0.0
C352 C 0.46271 0.2746 0.5558 0.0
H353 H 0.33775 0.20717 0.58639 0.0
H354 H 0.44074 0.20746 0.60212 0.0
S355 S 0.42207 0.38029 0.47044 0.0
N356 N 0.36014 0.34976 0.4844 0.0
N357 N 0.47233 0.34906 0.50054 0.0
C358 C 0.43945 0.31161 0.52396 0.0
C359 C 0.3787 0.31148 0.51479 0.0
C360 C 0.01707 0.47743 0.023 0.0
C361 C 0.0421 0.45864 0.06225 0.0
C362 C 0.97339 0.51897 0.02249 0.0
C363 C 0.9519 0.54324 0.06124 0.0
H364 H 0.03195 0.46085 0.99198 0.0
H365 H 0.95561 0.53108 0.99121 0.0
S366 S 0.00195 0.50884 0.17308 0.0
N367 N 0.04203 0.4676 0.14121 0.0
N368 N 0.95897 0.54546 0.14027 0.0
C369 C 0.97619 0.52485 0.10091 0.0
C370 C 0.02123 0.48251 0.10142 0.0
C371 C 0.45962 0.9831 0.52594 0.0
C372 C 0.45137 0.95047 0.56403 0.0
C373 C 0.49922 0.02869 0.52456 0.0
C374 C 0.53236 0.04385 0.56123 0.0
H375 H 0.43598 0.97284 0.49651 0.0
H376 H 0.50322 0.05255 0.49442 0.0
S377 S 0.52704 0.9725 0.66943 0.0
N378 N 0.47943 0.93689 0.63975 0.0
N379 N 0.55396 0.02267 0.6371 0.0
C380 C 0.52423 0.01201 0.5998 0.0
C381 C 0.4836 0.96554 0.60126 0.0
C382 C 0.4753 0.98457 0.98765 0.0
C383 C 0.46061 0.95295 0.0251 0.0
C384 C 0.52181 0.02302 0.98768 0.0
C385 C 0.55597 0.03106 0.02504 0.0
H386 H 0.44955 0.98118 0.95833 0.0
H387 H 0.5309 0.04652 0.95798 0.0
S388 S 0.53803 0.9547 0.13063 0.0
N389 N 0.48518 0.9297 0.09984 0.0
N390 N 0.5735 0.00142 0.10005 0.0
C391 C 0.54268 -0.00161 0.06248 0.0
C392 C 0.49486 0.95945 0.06245 0.0
C393 C 0.97093 0.51427 0.48935 0.0
C394 C 0.97147 0.5543 0.52383 0.0
C395 C 0.01084 0.46898 0.4875 0.0
C396 C 0.05272 0.46175 0.52016 0.0
H397 H 0.93915 0.51755 0.46359 0.0
H398 H 0.00715 0.43806 0.46115 0.0
S399 S 0.07668 0.55749 0.61525 0.0
N400 N 0.02054 0.58591 0.58995 0.0
N401 N 0.09518 0.50016 0.58641 0.0
C402 C 0.05507 0.50228 0.55414 0.0
C403 C 0.01447 0.54858 0.55607 0.0
C404 C 0.19845 0.37353 0.26813 0.0
C405 C 0.16426 0.33605 0.24278 0.0
C406 C 0.19628 0.37231 0.31383 0.0
C407 C 0.16043 0.33302 0.33631 0.0
H408 H 0.22608 0.40523 0.2526 0.0
H409 H 0.22267 0.40291 0.33165 0.0
S410 S 0.06525 0.22274 0.28524 0.0
N411 N 0.09534 0.25655 0.24371 0.0
N412 N 0.09176 0.25379 0.32929 0.0
C413 C 0.12742 0.29398 0.31134 0.0
C414 C 0.12916 0.29566 0.26476 0.0
C415 C 0.61725 0.185 0.81234 0.0
C416 C 0.65968 0.15356 0.83521 0.0
C417 C 0.61758 0.18812 0.76667 0.0
C418 C 0.65963 0.15886 0.7419 0.0
H419 H 0.58306 0.2071 0.82984 0.0
H420 H 0.5834 0.21204 0.75066 0.0
S421 S 0.78194 0.0727 0.7857 0.0
N422 N 0.74658 0.09474 0.82938 0.0
N423 N 0.7464 0.09946 0.74372 0.0
C424 C 0.70303 0.12826 0.76432 0.0
C425 C 0.70332 0.12597 0.81087 0.0
C426 C 0.8668 0.69717 0.3122 0.0
C427 C 0.83823 0.6547 0.337 0.0
C428 C 0.86289 0.69795 0.26651 0.0
C429 C 0.82926 0.65707 0.24369 0.0
H430 H 0.89398 0.72898 0.32807 0.0
H431 H 0.88694 0.73065 0.24891 0.0
S432 S 0.7424 0.53936 0.29358 0.0
N433 N 0.77296 0.57224 0.33535 0.0
N434 N 0.76471 0.57443 0.24992 0.0
C435 C 0.79871 0.61573 0.26825 0.0
C436 C 0.80348 0.61433 0.31471 0.0
C437 C 0.30424 0.86973 0.81475 0.0
C438 C 0.34234 0.8362 0.83999 0.0
C439 C 0.30395 0.86587 0.76907 0.0
C440 C 0.34097 0.82754 0.74666 0.0
H441 H 0.27563 0.90059 0.83029 0.0
H442 H 0.27476 0.89372 0.75118 0.0
S443 S 0.44571 0.7266 0.79787 0.0
N444 N 0.41599 0.76112 0.83927 0.0
N445 N 0.41477 0.75313 0.75381 0.0
C446 C 0.37771 0.79214 0.77167 0.0
C447 C 0.37861 0.79671 0.81815 0.0
C448 C 0.79794 0.70209 0.81008 0.0
C449 C 0.82104 0.6526 0.83 0.0
C450 C 0.81762 0.72033 0.76937 0.0
C451 C 0.86014 0.68896 0.74679 0.0
H452 H 0.76496 0.72743 0.82642 0.0
H453 H 0.79905 0.75904 0.75525 0.0
S454 S 0.93353 0.5557 0.78447 0.0
N455 N 0.88808 0.572 0.82417 0.0
N456 N 0.92494 0.60621 0.74703 0.0
C457 C 0.88321 0.63901 0.76603 0.0
C458 C 0.8637 0.62085 0.8079 0.0
C459 C 0.304 0.79008 0.31337 0.0
C460 C 0.35311 0.81293 0.334 0.0
C461 C 0.28665 0.81033 0.27265 0.0
C462 C 0.3186 0.85314 0.25098 0.0
H463 H 0.27822 0.75705 0.32918 0.0
H464 H 0.24821 0.79208 0.25786 0.0
S465 S 0.45116 0.92589 0.29081 0.0
N466 N 0.434 0.87985 0.32984 0.0
N467 N 0.40138 0.91789 0.25272 0.0
C468 C 0.3682 0.87588 0.27093 0.0
C469 C 0.38548 0.85575 0.31272 0.0
C470 C 0.12177 0.35891 0.76973 0.0
C471 C 0.14896 0.31215 0.74884 0.0
C472 C 0.13936 0.37658 0.81126 0.0
C473 C 0.18493 0.34829 0.8327 0.0
H474 H 0.08647 0.38156 0.75406 0.0
H475 H 0.11769 0.41292 0.82644 0.0
S476 S 0.26993 0.22365 0.79164 0.0
N477 N 0.22344 0.23805 0.75239 0.0
N478 N 0.25648 0.27126 0.83038 0.0
C479 C 0.21243 0.30163 0.81204 0.0
C480 C 0.19427 0.28339 0.77012 0.0
C481 C 0.64273 0.17789 0.25282 0.0
C482 C 0.6865 0.13614 0.24769 0.0
C483 C 0.6228 0.1938 0.29406 0.0
C484 C 0.64655 0.16948 0.33185 0.0
H485 H 0.62525 0.20072 0.2252 0.0
H486 H 0.58958 0.22674 0.29641 0.0
S487 S 0.76631 0.06279 0.33672 0.0
N488 N 0.75424 0.07195 0.28428 0.0
N489 N 0.71976 0.1054 0.36186 0.0
C490 C 0.6912 0.12865 0.32745 0.0
C491 C 0.71059 0.11135 0.28537 0.0
loop_
_geom_bond_atom_site_label_1
_geom_bond_atom_site_label_2
_geom_bond_distance
_geom_bond_site_symmetry_2
_ccdc_geom_bond_type
Co0 O3 1.970 . S
Co0 N17 1.989 . S
Co0 O25 1.967 . S
Co0 O32 1.920 . S
Co1 O4 1.966 1_556 S
Co1 N10 2.022 . S
Co1 N18 1.993 1_556 S
Co1 O26 1.941 1_556 S
C2 O3 1.258 . S
C2 O4 1.263 . S
O3 Co0 1.970 . S
O3 C2 1.258 . S
O4 Co1 1.966 1_554 S
O4 C2 1.263 . S
C5 O6 1.235 . S
C5 O32 1.289 . S
O6 C5 1.235 . S
C7 C9 1.400 . S
C7 N10 1.351 . S
C7 C12 1.501 . S
C8 C9 1.387 . S
C8 N11 1.341 . S
C9 C7 1.400 . S
C9 C8 1.387 . S
N10 Co1 2.022 . S
N10 C7 1.351 . S
N10 N11 1.365 . S
N11 C8 1.341 . S
N11 N10 1.365 . S
N11 H31 0.862 . S
C12 C7 1.501 . S
C12 H13 0.961 . S
C12 H14 0.961 . S
C12 H15 0.960 . S
H13 C12 0.961 . S
H14 C12 0.961 . S
H15 C12 0.960 . S
C16 N17 1.342 . S
C16 C20 1.401 . S
C16 C21 1.499 . S
N17 Co0 1.989 . S
N17 C16 1.342 . S
N17 N18 1.388 . S
N18 Co1 1.993 1_554 S
N18 N17 1.388 . S
N18 C19 1.346 . S
C19 N18 1.346 . S
C19 C20 1.396 . S
C19 C29 1.510 1_554 S
C20 C16 1.401 . S
C20 C19 1.396 . S
C21 C16 1.499 . S
C21 H22 0.959 . S
C21 H23 0.960 . S
C21 H24 0.961 . S
H22 C21 0.959 . S
H23 C21 0.960 . S
H24 C21 0.961 . S
O25 Co0 1.967 . S
O25 C33 1.258 . S
O26 Co1 1.941 1_554 S
O26 C33 1.266 . S
H27 C29 0.959 . S
H28 C29 0.961 . S
C29 C19 1.510 1_556 S
C29 H27 0.959 . S
C29 H28 0.961 . S
C29 H30 0.960 . S
H30 C29 0.960 . S
H31 N11 0.862 . S
O32 Co0 1.920 . S
O32 C5 1.289 . S
C33 O25 1.258 . S
C33 O26 1.266 . S
Co34 O37 1.970 . S
Co34 N51 1.989 . S
Co34 O59 1.967 . S
Co34 O66 1.920 . S
Co35 O38 1.966 . S
Co35 N44 2.022 . S
Co35 N52 1.993 . S
Co35 O60 1.941 . S
C36 O37 1.258 . S
C36 O38 1.263 . S
O37 Co34 1.970 . S
O37 C36 1.258 . S
O38 Co35 1.966 . S
O38 C36 1.263 . S
C39 O40 1.235 . S
C39 O66 1.289 . S
O40 C39 1.235 . S
C41 C43 1.400 . S
C41 N44 1.351 . S
C41 C46 1.501 . S
C42 C43 1.387 . S
C42 N45 1.341 . S
C43 C41 1.400 . S
C43 C42 1.387 . S
N44 Co35 2.022 . S
N44 C41 1.351 . S
N44 N45 1.365 . S
N45 C42 1.341 . S
N45 N44 1.365 . S
N45 H65 0.862 . S
C46 C41 1.501 . S
C46 H47 0.961 . S
C46 H48 0.961 . S
C46 H49 0.960 . S
H47 C46 0.961 . S
H48 C46 0.961 . S
H49 C46 0.960 . S
C50 N51 1.342 . S
C50 C54 1.401 . S
C50 C55 1.499 . S
N51 Co34 1.989 . S
N51 C50 1.342 . S
N51 N52 1.388 . S
N52 Co35 1.993 . S
N52 N51 1.388 . S
N52 C53 1.346 . S
C53 N52 1.346 . S
C53 C54 1.396 . S
C53 C63 1.510 . S
C54 C50 1.401 . S
C54 C53 1.396 . S
C55 C50 1.499 . S
C55 H56 0.959 . S
C55 H57 0.960 . S
C55 H58 0.961 . S
H56 C55 0.959 . S
H57 C55 0.960 . S
H58 C55 0.961 . S
O59 Co34 1.967 . S
O59 C67 1.258 . S
O60 Co35 1.941 . S
O60 C67 1.266 . S
H61 C63 0.959 . S
H62 C63 0.961 . S
C63 C53 1.510 . S
C63 H61 0.959 . S
C63 H62 0.961 . S
C63 H64 0.960 . S
H64 C63 0.960 . S
H65 N45 0.862 . S
O66 Co34 1.920 . S
O66 C39 1.289 . S
C67 O59 1.258 . S
C67 O60 1.266 . S
Co68 O71 1.970 . S
Co68 N85 1.989 . S
Co68 O93 1.967 . S
Co68 O100 1.920 . S
Co69 O72 1.966 1_556 S
Co69 N78 2.022 . S
Co69 N86 1.993 1_556 S
Co69 O94 1.941 1_556 S
C70 O71 1.258 . S
C70 O72 1.263 . S
O71 Co68 1.970 . S
O71 C70 1.258 . S
O72 Co69 1.966 1_554 S
O72 C70 1.263 . S
C73 O74 1.235 . S
C73 O100 1.289 . S
O74 C73 1.235 . S
C75 C77 1.400 . S
C75 N78 1.351 . S
C75 C80 1.501 . S
C76 C77 1.387 . S
C76 N79 1.341 . S
C77 C75 1.400 . S
C77 C76 1.387 . S
N78 Co69 2.022 . S
N78 C75 1.351 . S
N78 N79 1.365 . S
N79 C76 1.341 . S
N79 N78 1.365 . S
N79 H99 0.862 . S
C80 C75 1.501 . S
C80 H81 0.961 . S
C80 H82 0.961 . S
C80 H83 0.960 . S
H81 C80 0.961 . S
H82 C80 0.961 . S
H83 C80 0.960 . S
C84 N85 1.342 . S
C84 C88 1.401 . S
C84 C89 1.499 . S
N85 Co68 1.989 . S
N85 C84 1.342 . S
N85 N86 1.388 . S
N86 Co69 1.993 1_554 S
N86 N85 1.388 . S
N86 C87 1.346 . S
C87 N86 1.346 . S
C87 C88 1.396 . S
C87 C97 1.510 1_554 S
C88 C84 1.401 . S
C88 C87 1.396 . S
C89 C84 1.499 . S
C89 H90 0.959 . S
C89 H91 0.960 . S
C89 H92 0.961 . S
H90 C89 0.959 . S
H91 C89 0.960 . S
H92 C89 0.961 . S
O93 Co68 1.967 . S
O93 C101 1.258 . S
O94 Co69 1.941 1_554 S
O94 C101 1.266 . S
H95 C97 0.959 . S
H96 C97 0.961 . S
C97 C87 1.510 1_556 S
C97 H95 0.959 . S
C97 H96 0.961 . S
C97 H98 0.960 . S
H98 C97 0.960 . S
H99 N79 0.862 . S
O100 Co68 1.920 . S
O100 C73 1.289 . S
C101 O93 1.258 . S
C101 O94 1.266 . S
Co102 O105 1.970 . S
Co102 N119 1.989 . S
Co102 O127 1.967 . S
Co102 O134 1.920 . S
Co103 O106 1.966 . S
Co103 N112 2.022 . S
Co103 N120 1.993 . S
Co103 O128 1.941 . S
C104 O105 1.258 . S
C104 O106 1.263 . S
O105 Co102 1.970 . S
O105 C104 1.258 . S
O106 Co103 1.966 . S
O106 C104 1.263 . S
C107 O108 1.235 . S
C107 O134 1.289 . S
O108 C107 1.235 . S
C109 C111 1.400 . S
C109 N112 1.351 . S
C109 C114 1.501 . S
C110 C111 1.387 . S
C110 N113 1.341 . S
C111 C109 1.400 . S
C111 C110 1.387 . S
N112 Co103 2.022 . S
N112 C109 1.351 . S
N112 N113 1.365 . S
N113 C110 1.341 . S
N113 N112 1.365 . S
N113 H133 0.862 . S
C114 C109 1.501 . S
C114 H115 0.961 . S
C114 H116 0.961 . S
C114 H117 0.960 . S
H115 C114 0.961 . S
H116 C114 0.961 . S
H117 C114 0.960 . S
C118 N119 1.342 . S
C118 C122 1.401 . S
C118 C123 1.499 . S
N119 Co102 1.989 . S
N119 C118 1.342 . S
N119 N120 1.388 . S
N120 Co103 1.993 . S
N120 N119 1.388 . S
N120 C121 1.346 . S
C121 N120 1.346 . S
C121 C122 1.396 . S
C121 C131 1.510 . S
C122 C118 1.401 . S
C122 C121 1.396 . S
C123 C118 1.499 . S
C123 H124 0.959 . S
C123 H125 0.960 . S
C123 H126 0.961 . S
H124 C123 0.959 . S
H125 C123 0.960 . S
H126 C123 0.961 . S
O127 Co102 1.967 . S
O127 C135 1.258 . S
O128 Co103 1.941 . S
O128 C135 1.266 . S
H129 C131 0.959 . S
H130 C131 0.961 . S
C131 C121 1.510 . S
C131 H129 0.959 . S
C131 H130 0.961 . S
C131 H132 0.960 . S
H132 C131 0.960 . S
H133 N113 0.862 . S
O134 Co102 1.920 . S
O134 C107 1.289 . S
C135 O127 1.258 . S
C135 O128 1.266 . S
Co136 O139 1.970 . S
Co136 N153 1.989 1_556 S
Co136 O161 1.967 . S
Co136 O168 1.920 . S
Co137 O140 1.966 . S
Co137 N146 2.022 . S
Co137 N154 1.993 . S
Co137 O162 1.941 . S
C138 O139 1.258 1_554 S
C138 O140 1.263 . S
O139 Co136 1.970 . S
O139 C138 1.258 1_556 S
O140 Co137 1.966 . S
O140 C138 1.263 . S
C141 O142 1.235 . S
C141 O168 1.289 . S
O142 C141 1.235 . S
C143 C145 1.400 . S
C143 N146 1.351 . S
C143 C148 1.501 . S
C144 C145 1.387 . S
C144 N147 1.341 . S
C145 C143 1.400 . S
C145 C144 1.387 . S
N146 Co137 2.022 . S
N146 C143 1.351 . S
N146 N147 1.365 . S
N147 C144 1.341 . S
N147 N146 1.365 . S
N147 H167 0.862 . S
C148 C143 1.501 . S
C148 H149 0.961 . S
C148 H150 0.961 . S
C148 H151 0.960 . S
H149 C148 0.961 . S
H150 C148 0.961 . S
H151 C148 0.960 . S
C152 N153 1.342 1_556 S
C152 C156 1.401 1_556 S
C152 C157 1.499 . S
N153 Co136 1.989 1_554 S
N153 C152 1.342 1_554 S
N153 N154 1.388 . S
N154 Co137 1.993 . S
N154 N153 1.388 . S
N154 C155 1.346 . S
C155 N154 1.346 . S
C155 C156 1.396 . S
C155 C165 1.510 . S
C156 C152 1.401 1_554 S
C156 C155 1.396 . S
C157 C152 1.499 . S
C157 H158 0.959 . S
C157 H159 0.960 . S
C157 H160 0.961 . S
H158 C157 0.959 . S
H159 C157 0.960 . S
H160 C157 0.961 . S
O161 Co136 1.967 . S
O161 C169 1.258 1_556 S
O162 Co137 1.941 . S
O162 C169 1.266 . S
H163 C165 0.959 . S
H164 C165 0.961 . S
C165 C155 1.510 . S
C165 H163 0.959 . S
C165 H164 0.961 . S
C165 H166 0.960 . S
H166 C165 0.960 . S
H167 N147 0.862 . S
O168 Co136 1.920 . S
O168 C141 1.289 . S
C169 O161 1.258 1_554 S
C169 O162 1.266 . S
Co170 O173 1.970 . S
Co170 N187 1.989 . S
Co170 O195 1.967 . S
Co170 O202 1.920 . S
Co171 O174 1.966 . S
Co171 N180 2.022 . S
Co171 N188 1.993 . S
Co171 O196 1.941 . S
C172 O173 1.258 . S
C172 O174 1.263 . S
O173 Co170 1.970 . S
O173 C172 1.258 . S
O174 Co171 1.966 . S
O174 C172 1.263 . S
C175 O176 1.235 . S
C175 O202 1.289 . S
O176 C175 1.235 . S
C177 C179 1.400 . S
C177 N180 1.351 . S
C177 C182 1.501 . S
C178 C179 1.387 . S
C178 N181 1.341 . S
C179 C177 1.400 . S
C179 C178 1.387 . S
N180 Co171 2.022 . S
N180 C177 1.351 . S
N180 N181 1.365 . S
N181 C178 1.341 . S
N181 N180 1.365 . S
N181 H201 0.862 . S
C182 C177 1.501 . S
C182 H183 0.961 . S
C182 H184 0.961 . S
C182 H185 0.960 . S
H183 C182 0.961 . S
H184 C182 0.961 . S
H185 C182 0.960 . S
C186 N187 1.342 . S
C186 C190 1.401 . S
C186 C191 1.499 . S
N187 Co170 1.989 . S
N187 C186 1.342 . S
N187 N188 1.388 . S
N188 Co171 1.993 . S
N188 N187 1.388 . S
N188 C189 1.346 . S
C189 N188 1.346 . S
C189 C190 1.396 . S
C189 C199 1.510 . S
C190 C186 1.401 . S
C190 C189 1.396 . S
C191 C186 1.499 . S
C191 H192 0.959 . S
C191 H193 0.960 . S
C191 H194 0.961 . S
H192 C191 0.959 . S
H193 C191 0.960 . S
H194 C191 0.961 . S
O195 Co170 1.967 . S
O195 C203 1.258 . S
O196 Co171 1.941 . S
O196 C203 1.266 . S
H197 C199 0.959 . S
H198 C199 0.961 . S
C199 C189 1.510 . S
C199 H197 0.959 . S
C199 H198 0.961 . S
C199 H200 0.960 . S
H200 C199 0.960 . S
H201 N181 0.862 . S
O202 Co170 1.920 . S
O202 C175 1.289 . S
C203 O195 1.258 . S
C203 O196 1.266 . S
Co204 O207 1.970 . S
Co204 N221 1.989 1_556 S
Co204 O229 1.967 . S
Co204 O236 1.920 . S
Co205 O208 1.966 . S
Co205 N214 2.022 . S
Co205 N222 1.993 . S
Co205 O230 1.941 . S
C206 O207 1.258 1_554 S
C206 O208 1.263 . S
O207 Co204 1.970 . S
O207 C206 1.258 1_556 S
O208 Co205 1.966 . S
O208 C206 1.263 . S
C209 O210 1.235 . S
C209 O236 1.289 . S
O210 C209 1.235 . S
C211 C213 1.400 . S
C211 N214 1.351 . S
C211 C216 1.501 . S
C212 C213 1.387 . S
C212 N215 1.341 . S
C213 C211 1.400 . S
C213 C212 1.387 . S
N214 Co205 2.022 . S
N214 C211 1.351 . S
N214 N215 1.365 . S
N215 C212 1.341 . S
N215 N214 1.365 . S
N215 H235 0.862 . S
C216 C211 1.501 . S
C216 H217 0.961 . S
C216 H218 0.961 . S
C216 H219 0.960 . S
H217 C216 0.961 . S
H218 C216 0.961 . S
H219 C216 0.960 . S
C220 N221 1.342 1_556 S
C220 C224 1.401 1_556 S
C220 C225 1.499 . S
N221 Co204 1.989 1_554 S
N221 C220 1.342 1_554 S
N221 N222 1.388 . S
N222 Co205 1.993 . S
N222 N221 1.388 . S
N222 C223 1.346 . S
C223 N222 1.346 . S
C223 C224 1.396 . S
C223 C233 1.510 . S
C224 C220 1.401 1_554 S
C224 C223 1.396 . S
C225 C220 1.499 . S
C225 H226 0.959 . S
C225 H227 0.960 . S
C225 H228 0.961 . S
H226 C225 0.959 . S
H227 C225 0.960 . S
H228 C225 0.961 . S
O229 Co204 1.967 . S
O229 C237 1.258 1_556 S
O230 Co205 1.941 . S
O230 C237 1.266 . S
H231 C233 0.959 . S
H232 C233 0.961 . S
C233 C223 1.510 . S
C233 H231 0.959 . S
C233 H232 0.961 . S
C233 H234 0.960 . S
H234 C233 0.960 . S
H235 N215 0.862 . S
O236 Co204 1.920 . S
O236 C209 1.289 . S
C237 O229 1.258 1_554 S
C237 O230 1.266 . S
Co238 O241 1.970 . S
Co238 N255 1.989 . S
Co238 O263 1.967 . S
Co238 O270 1.920 . S
Co239 O242 1.966 . S
Co239 N248 2.022 . S
Co239 N256 1.993 . S
Co239 O264 1.941 . S
C240 O241 1.258 . S
C240 O242 1.263 . S
O241 Co238 1.970 . S
O241 C240 1.258 . S
O242 Co239 1.966 . S
O242 C240 1.263 . S
C243 O244 1.235 . S
C243 O270 1.289 . S
O244 C243 1.235 . S
C245 C247 1.400 . S
C245 N248 1.351 . S
C245 C250 1.501 . S
C246 C247 1.387 . S
C246 N249 1.341 . S
C247 C245 1.400 . S
C247 C246 1.387 . S
N248 Co239 2.022 . S
N248 C245 1.351 . S
N248 N249 1.365 . S
N249 C246 1.341 . S
N249 N248 1.365 . S
N249 H269 0.862 . S
C250 C245 1.501 . S
C250 H251 0.961 . S
C250 H252 0.961 . S
C250 H253 0.960 . S
H251 C250 0.961 . S
H252 C250 0.961 . S
H253 C250 0.960 . S
C254 N255 1.342 . S
C254 C258 1.401 . S
C254 C259 1.499 . S
N255 Co238 1.989 . S
N255 C254 1.342 . S
N255 N256 1.388 . S
N256 Co239 1.993 . S
N256 N255 1.388 . S
N256 C257 1.346 . S
C257 N256 1.346 . S
C257 C258 1.396 . S
C257 C267 1.510 . S
C258 C254 1.401 . S
C258 C257 1.396 . S
C259 C254 1.499 . S
C259 H260 0.959 . S
C259 H261 0.960 . S
C259 H262 0.961 . S
H260 C259 0.959 . S
H261 C259 0.960 . S
H262 C259 0.961 . S
O263 Co238 1.967 . S
O263 C271 1.258 . S
O264 Co239 1.941 . S
O264 C271 1.266 . S
H265 C267 0.959 . S
H266 C267 0.961 . S
C267 C257 1.510 . S
C267 H265 0.959 . S
C267 H266 0.961 . S
C267 H268 0.960 . S
H268 C267 0.960 . S
H269 N249 0.862 . S
O270 Co238 1.920 . S
O270 C243 1.289 . S
C271 O263 1.258 . S
C271 O264 1.266 . S
C272 C273 1.369 . S
C272 C274 1.419 . S
C272 H276 0.930 1_554 S
C273 C272 1.369 . S
C273 C282 1.429 . S
C274 C272 1.419 . S
C274 C275 1.363 . S
C274 H277 0.929 1_554 S
C275 C274 1.363 . S
C275 C281 1.428 . S
H276 C272 0.930 1_556 S
H277 C274 0.929 1_556 S
S278 N279 1.613 . S
S278 N280 1.610 . S
N279 S278 1.613 . S
N279 C282 1.350 . S
N280 S278 1.610 . S
N280 C281 1.351 . S
C281 C275 1.428 . S
C281 N280 1.351 . S
C281 C282 1.434 . S
C282 C273 1.429 . S
C282 N279 1.350 . S
C282 C281 1.434 . S
C283 C284 1.369 . S
C283 C285 1.419 . S
C283 H287 0.930 . S
C284 C283 1.369 . S
C284 C293 1.429 . S
C285 C283 1.419 . S
C285 C286 1.363 . S
C285 H288 0.929 . S
C286 C285 1.363 . S
C286 C292 1.428 . S
H287 C283 0.930 . S
H288 C285 0.929 . S
S289 N290 1.613 . S
S289 N291 1.610 . S
N290 S289 1.613 . S
N290 C293 1.350 . S
N291 S289 1.610 . S
N291 C292 1.351 . S
C292 C286 1.428 . S
C292 N291 1.351 . S
C292 C293 1.434 . S
C293 C284 1.429 . S
C293 N290 1.350 . S
C293 C292 1.434 . S
C294 C295 1.369 . S
C294 C296 1.419 . S
C294 H298 0.930 . S
C295 C294 1.369 . S
C295 C304 1.429 1_554 S
C296 C294 1.419 . S
C296 C297 1.363 . S
C296 H299 0.929 . S
C297 C296 1.363 . S
C297 C303 1.428 1_554 S
H298 C294 0.930 . S
H299 C296 0.929 . S
S300 N301 1.613 . S
S300 N302 1.610 . S
N301 S300 1.613 . S
N301 C304 1.350 . S
N302 S300 1.610 . S
N302 C303 1.351 . S
C303 C297 1.428 1_556 S
C303 N302 1.351 . S
C303 C304 1.434 . S
C304 C295 1.429 1_556 S
C304 N301 1.350 . S
C304 C303 1.434 . S
C305 C306 1.369 . S
C305 C307 1.419 . S
C305 H309 0.930 . S
C306 C305 1.369 . S
C306 C315 1.429 . S
C307 C305 1.419 . S
C307 C308 1.363 . S
C307 H310 0.929 . S
C308 C307 1.363 . S
C308 C314 1.428 . S
H309 C305 0.930 . S
H310 C307 0.929 . S
S311 N312 1.613 . S
S311 N313 1.610 . S
N312 S311 1.613 . S
N312 C315 1.350 . S
N313 S311 1.610 . S
N313 C314 1.351 . S
C314 C308 1.428 . S
C314 N313 1.351 . S
C314 C315 1.434 . S
C315 C306 1.429 . S
C315 N312 1.350 . S
C315 C314 1.434 . S
C316 C317 1.369 . S
C316 C318 1.419 . S
C316 H320 0.930 1_554 S
C317 C316 1.369 . S
C317 C326 1.429 . S
C318 C316 1.419 . S
C318 C319 1.363 . S
C318 H321 0.929 1_554 S
C319 C318 1.363 . S
C319 C325 1.428 . S
H320 C316 0.930 1_556 S
H321 C318 0.929 1_556 S
S322 N323 1.613 . S
S322 N324 1.610 . S
N323 S322 1.613 . S
N323 C326 1.350 . S
N324 S322 1.610 . S
N324 C325 1.351 . S
C325 C319 1.428 . S
C325 N324 1.351 . S
C325 C326 1.434 . S
C326 C317 1.429 . S
C326 N323 1.350 . S
C326 C325 1.434 . S
C327 C328 1.369 . S
C327 C329 1.419 . S
C327 H331 0.930 . S
C328 C327 1.369 . S
C328 C337 1.429 . S
C329 C327 1.419 . S
C329 C330 1.363 . S
C329 H332 0.929 . S
C330 C329 1.363 . S
C330 C336 1.428 . S
H331 C327 0.930 . S
H332 C329 0.929 . S
S333 N334 1.613 . S
S333 N335 1.610 . S
N334 S333 1.613 . S
N334 C337 1.350 . S
N335 S333 1.610 . S
N335 C336 1.351 . S
C336 C330 1.428 . S
C336 N335 1.351 . S
C336 C337 1.434 . S
C337 C328 1.429 . S
C337 N334 1.350 . S
C337 C336 1.434 . S
C338 C339 1.369 . S
C338 C340 1.419 . S
C338 H342 0.930 . S
C339 C338 1.369 . S
C339 C348 1.429 . S
C340 C338 1.419 . S
C340 C341 1.363 . S
C340 H343 0.929 . S
C341 C340 1.363 . S
C341 C347 1.428 . S
H342 C338 0.930 . S
H343 C340 0.929 . S
S344 N345 1.613 . S
S344 N346 1.610 . S
N345 S344 1.613 . S
N345 C348 1.350 . S
N346 S344 1.610 . S
N346 C347 1.351 . S
C347 C341 1.428 . S
C347 N346 1.351 . S
C347 C348 1.434 . S
C348 C339 1.429 . S
C348 N345 1.350 . S
C348 C347 1.434 . S
C349 C350 1.369 . S
C349 C351 1.419 . S
C349 H353 0.930 . S
C350 C349 1.369 . S
C350 C359 1.429 . S
C351 C349 1.419 . S
C351 C352 1.363 . S
C351 H354 0.929 . S
C352 C351 1.363 . S
C352 C358 1.428 . S
H353 C349 0.930 . S
H354 C351 0.929 . S
S355 N356 1.613 . S
S355 N357 1.610 . S
N356 S355 1.613 . S
N356 C359 1.350 . S
N357 S355 1.610 . S
N357 C358 1.351 . S
C358 C352 1.428 . S
C358 N357 1.351 . S
C358 C359 1.434 . S
C359 C350 1.429 . S
C359 N356 1.350 . S
C359 C358 1.434 . S
C360 C361 1.369 . S
C360 C362 1.419 1_455 S
C360 H364 0.930 1_554 S
C361 C360 1.369 . S
C361 C370 1.429 . S
C362 C360 1.419 1_655 S
C362 C363 1.363 . S
C362 H365 0.929 1_554 S
C363 C362 1.363 . S
C363 C369 1.428 . S
H364 C360 0.930 1_556 S
H365 C362 0.929 1_556 S
S366 N367 1.613 . S
S366 N368 1.610 1_455 S
N367 S366 1.613 . S
N367 C370 1.350 . S
N368 S366 1.610 1_655 S
N368 C369 1.351 . S
C369 C363 1.428 . S
C369 N368 1.351 . S
C369 C370 1.434 1_655 S
C370 C361 1.429 . S
C370 N367 1.350 . S
C370 C369 1.434 1_455 S
C371 C372 1.369 1_545 S
C371 C373 1.419 . S
C371 H375 0.930 . S
C372 C371 1.369 1_565 S
C372 C381 1.429 . S
C373 C371 1.419 . S
C373 C374 1.363 . S
C373 H376 0.929 . S
C374 C373 1.363 . S
C374 C380 1.428 1_545 S
H375 C371 0.930 . S
H376 C373 0.929 . S
S377 N378 1.613 . S
S377 N379 1.610 . S
N378 S377 1.613 . S
N378 C381 1.350 . S
N379 S377 1.610 . S
N379 C380 1.351 . S
C380 C374 1.428 1_565 S
C380 N379 1.351 . S
C380 C381 1.434 . S
C381 C372 1.429 . S
C381 N378 1.350 . S
C381 C380 1.434 . S
C382 C383 1.369 1_545 S
C382 C384 1.419 . S
C382 H386 0.930 . S
C383 C382 1.369 1_565 S
C383 C392 1.429 . S
C384 C382 1.419 . S
C384 C385 1.363 . S
C384 H387 0.929 . S
C385 C384 1.363 . S
C385 C391 1.428 1_545 S
H386 C382 0.930 . S
H387 C384 0.929 . S
S388 N389 1.613 . S
S388 N390 1.610 . S
N389 S388 1.613 . S
N389 C392 1.350 . S
N390 S388 1.610 . S
N390 C391 1.351 . S
C391 C385 1.428 1_565 S
C391 N390 1.351 . S
C391 C392 1.434 . S
C392 C383 1.429 . S
C392 N389 1.350 . S
C392 C391 1.434 . S
C393 C394 1.369 . S
C393 C395 1.419 . S
C393 H397 0.930 . S
C394 C393 1.369 . S
C394 C403 1.429 1_655 S
C395 C393 1.419 . S
C395 C396 1.363 1_655 S
C395 H398 0.929 . S
C396 C395 1.363 1_455 S
C396 C402 1.428 . S
H397 C393 0.930 . S
H398 C395 0.929 . S
S399 N400 1.613 . S
S399 N401 1.610 . S
N400 S399 1.613 . S
N400 C403 1.350 . S
N401 S399 1.610 . S
N401 C402 1.351 . S
C402 C396 1.428 . S
C402 N401 1.351 . S
C402 C403 1.434 . S
C403 C394 1.429 1_455 S
C403 N400 1.350 . S
C403 C402 1.434 . S
C404 C405 1.369 . S
C404 C406 1.419 . S
C404 H408 0.930 . S
C405 C404 1.369 . S
C405 C414 1.429 . S
C406 C404 1.419 . S
C406 C407 1.363 . S
C406 H409 0.929 . S
C407 C406 1.363 . S
C407 C413 1.428 . S
H408 C404 0.930 . S
H409 C406 0.929 . S
S410 N411 1.613 . S
S410 N412 1.610 . S
N411 S410 1.613 . S
N411 C414 1.350 . S
N412 S410 1.610 . S
N412 C413 1.351 . S
C413 C407 1.428 . S
C413 N412 1.351 . S
C413 C414 1.434 . S
C414 C405 1.429 . S
C414 N411 1.350 . S
C414 C413 1.434 . S
C415 C416 1.369 . S
C415 C417 1.419 . S
C415 H419 0.930 . S
C416 C415 1.369 . S
C416 C425 1.429 . S
C417 C415 1.419 . S
C417 C418 1.363 . S
C417 H420 0.929 . S
C418 C417 1.363 . S
C418 C424 1.428 . S
H419 C415 0.930 . S
H420 C417 0.929 . S
S421 N422 1.613 . S
S421 N423 1.610 . S
N422 S421 1.613 . S
N422 C425 1.350 . S
N423 S421 1.610 . S
N423 C424 1.351 . S
C424 C418 1.428 . S
C424 N423 1.351 . S
C424 C425 1.434 . S
C425 C416 1.429 . S
C425 N422 1.350 . S
C425 C424 1.434 . S
C426 C427 1.369 . S
C426 C428 1.419 . S
C426 H430 0.930 . S
C427 C426 1.369 . S
C427 C436 1.429 . S
C428 C426 1.419 . S
C428 C429 1.363 . S
C428 H431 0.929 . S
C429 C428 1.363 . S
C429 C435 1.428 . S
H430 C426 0.930 . S
H431 C428 0.929 . S
S432 N433 1.613 . S
S432 N434 1.610 . S
N433 S432 1.613 . S
N433 C436 1.350 . S
N434 S432 1.610 . S
N434 C435 1.351 . S
C435 C429 1.428 . S
C435 N434 1.351 . S
C435 C436 1.434 . S
C436 C427 1.429 . S
C436 N433 1.350 . S
C436 C435 1.434 . S
C437 C438 1.369 . S
C437 C439 1.419 . S
C437 H441 0.930 . S
C438 C437 1.369 . S
C438 C447 1.429 . S
C439 C437 1.419 . S
C439 C440 1.363 . S
C439 H442 0.929 . S
C440 C439 1.363 . S
C440 C446 1.428 . S
H441 C437 0.930 . S
H442 C439 0.929 . S
S443 N444 1.613 . S
S443 N445 1.610 . S
N444 S443 1.613 . S
N444 C447 1.350 . S
N445 S443 1.610 . S
N445 C446 1.351 . S
C446 C440 1.428 . S
C446 N445 1.351 . S
C446 C447 1.434 . S
C447 C438 1.429 . S
C447 N444 1.350 . S
C447 C446 1.434 . S
C448 C449 1.369 . S
C448 C450 1.419 . S
C448 H452 0.930 . S
C449 C448 1.369 . S
C449 C458 1.429 . S
C450 C448 1.419 . S
C450 C451 1.363 . S
C450 H453 0.929 . S
C451 C450 1.363 . S
C451 C457 1.428 . S
H452 C448 0.930 . S
H453 C450 0.929 . S
S454 N455 1.613 . S
S454 N456 1.610 . S
N455 S454 1.613 . S
N455 C458 1.350 . S
N456 S454 1.610 . S
N456 C457 1.351 . S
C457 C451 1.428 . S
C457 N456 1.351 . S
C457 C458 1.434 . S
C458 C449 1.429 . S
C458 N455 1.350 . S
C458 C457 1.434 . S
C459 C460 1.369 . S
C459 C461 1.419 . S
C459 H463 0.930 . S
C460 C459 1.369 . S
C460 C469 1.429 . S
C461 C459 1.419 . S
C461 C462 1.363 . S
C461 H464 0.929 . S
C462 C461 1.363 . S
C462 C468 1.428 . S
H463 C459 0.930 . S
H464 C461 0.929 . S
S465 N466 1.613 . S
S465 N467 1.610 . S
N466 S465 1.613 . S
N466 C469 1.350 . S
N467 S465 1.610 . S
N467 C468 1.351 . S
C468 C462 1.428 . S
C468 N467 1.351 . S
C468 C469 1.434 . S
C469 C460 1.429 . S
C469 N466 1.350 . S
C469 C468 1.434 . S
C470 C471 1.369 . S
C470 C472 1.419 . S
C470 H474 0.930 . S
C471 C470 1.369 . S
C471 C480 1.429 . S
C472 C470 1.419 . S
C472 C473 1.363 . S
C472 H475 0.929 . S
C473 C472 1.363 . S
C473 C479 1.428 . S
H474 C470 0.930 . S
H475 C472 0.929 . S
S476 N477 1.613 . S
S476 N478 1.610 . S
N477 S476 1.613 . S
N477 C480 1.350 . S
N478 S476 1.610 . S
N478 C479 1.351 . S
C479 C473 1.428 . S
C479 N478 1.351 . S
C479 C480 1.434 . S
C480 C471 1.429 . S
C480 N477 1.350 . S
C480 C479 1.434 . S
C481 C482 1.369 . S
C481 C483 1.419 . S
C481 H485 0.930 . S
C482 C481 1.369 . S
C482 C491 1.429 . S
C483 C481 1.419 . S
C483 C484 1.363 . S
C483 H486 0.929 . S
C484 C483 1.363 . S
C484 C490 1.428 . S
H485 C481 0.930 . S
H486 C483 0.929 . S
S487 N488 1.613 . S
S487 N489 1.610 . S
N488 S487 1.613 . S
N488 C491 1.350 . S
N489 S487 1.610 . S
N489 C490 1.351 . S
C490 C484 1.428 . S
C490 N489 1.351 . S
C490 C491 1.434 . S
C491 C482 1.429 . S
C491 N488 1.350 . S
C491 C490 1.434 . S
C273 C237 1.570 1_545 S
C275 C20 1.604 . S
C284 C271 1.563 1_655 S
C286 C54 1.608 . S
C295 C169 1.565 1_565 S
C297 C88 1.608 . S
C306 C203 1.567 1_455 S
C308 C122 1.606 . S
C317 C101 1.569 . S
C319 C156 1.606 . S
C328 C135 1.571 . S
C330 C190 1.604 . S
C339 C33 1.572 . S
C341 C224 1.604 . S
C350 C258 1.608 . S
C352 C67 1.565 . S
C361 C2 0.751 . S
C363 C70 0.750 . S
C372 C104 0.745 . S
C374 C36 0.756 . S
C383 C206 0.757 . S
C385 C138 0.748 . S
C394 C172 0.745 . S
C396 C240 0.756 . S
C405 C5 1.752 . S
C407 C243 1.755 . S
C416 C141 1.755 . S
C418 C39 1.754 . S
C427 C175 1.753 . S
C429 C73 1.755 . S
C438 C209 1.753 . S
C440 C107 1.756 . S
C449 C77 1.165 . S
C451 C179 1.155 . S
C460 C111 1.162 . S
C462 C213 1.158 . S
C471 C247 1.150 . S
C473 C9 1.162 . S
C482 C145 1.150 . S
C484 C43 1.164 . S
