# Generated by pormake.
# Topology wkd, (5)-cn, num edge types: 1
# Building blocks:
#     Node 0, Type 0, BuildingBlock: BEQFEK_clean_sbu_0, # of connection points: 5
#     Node 1, Type 0, BuildingBlock: BEQFEK_clean_sbu_0, # of connection points: 5
#     Node 2, Type 0, BuildingBlock: BEQFEK_clean_sbu_0, # of connection points: 5
#     Node 3, Type 0, BuildingBlock: BEQFEK_clean_sbu_0, # of connection points: 5
#     Node 4, Type 0, BuildingBlock: BEQFEK_clean_sbu_0, # of connection points: 5
#     Node 5, Type 0, BuildingBlock: BEQFEK_clean_sbu_0, # of connection points: 5
#     Node 6, Type 0, BuildingBlock: BEQFEK_clean_sbu_0, # of connection points: 5
#     Node 7, Type 0, BuildingBlock: BEQFEK_clean_sbu_0, # of connection points: 5
#     Node 8, Type 0, BuildingBlock: BEQFEK_clean_sbu_0, # of connection points: 5
#     Node 9, Type 0, BuildingBlock: BEQFEK_clean_sbu_0, # of connection points: 5
#     Node 10, Type 0, BuildingBlock: BEQFEK_clean_sbu_0, # of connection points: 5
#     Node 11, Type 0, BuildingBlock: BEQFEK_clean_sbu_0, # of connection points: 5
#     Edge 12, Type (0, 0), BuildingBlock: CIFDUS_clean_linker_0, # of connection points: 2
#     Edge 13, Type (0, 0), BuildingBlock: CIFDUS_clean_linker_0, # of connection points: 2
#     Edge 14, Type (0, 0), BuildingBlock: CIFDUS_clean_linker_0, # of connection points: 2
#     Edge 15, Type (0, 0), BuildingBlock: CIFDUS_clean_linker_0, # of connection points: 2
#     Edge 16, Type (0, 0), BuildingBlock: CIFDUS_clean_linker_0, # of connection points: 2
#     Edge 17, Type (0, 0), BuildingBlock: CIFDUS_clean_linker_0, # of connection points: 2
#     Edge 18, Type (0, 0), BuildingBlock: CIFDUS_clean_linker_0, # of connection points: 2
#     Edge 19, Type (0, 0), BuildingBlock: CIFDUS_clean_linker_0, # of connection points: 2
#     Edge 20, Type (0, 0), BuildingBlock: CIFDUS_clean_linker_0, # of connection points: 2
#     Edge 21, Type (0, 0), BuildingBlock: CIFDUS_clean_linker_0, # of connection points: 2
#     Edge 22, Type (0, 0), BuildingBlock: CIFDUS_clean_linker_0, # of connection points: 2
#     Edge 23, Type (0, 0), BuildingBlock: CIFDUS_clean_linker_0, # of connection points: 2
#     Edge 24, Type (0, 0), BuildingBlock: CIFDUS_clean_linker_0, # of connection points: 2
#     Edge 25, Type (0, 0), BuildingBlock: CIFDUS_clean_linker_0, # of connection points: 2
#     Edge 26, Type (0, 0), BuildingBlock: CIFDUS_clean_linker_0, # of connection points: 2
#     Edge 27, Type (0, 0), BuildingBlock: CIFDUS_clean_linker_0, # of connection points: 2
#     Edge 28, Type (0, 0), BuildingBlock: CIFDUS_clean_linker_0, # of connection points: 2
#     Edge 29, Type (0, 0), BuildingBlock: CIFDUS_clean_linker_0, # of connection points: 2
#     Edge 30, Type (0, 0), BuildingBlock: CIFDUS_clean_linker_0, # of connection points: 2
#     Edge 31, Type (0, 0), BuildingBlock: CIFDUS_clean_linker_0, # of connection points: 2
#     Edge 32, Type (0, 0), BuildingBlock: CIFDUS_clean_linker_0, # of connection points: 2
#     Edge 33, Type (0, 0), BuildingBlock: CIFDUS_clean_linker_0, # of connection points: 2
#     Edge 34, Type (0, 0), BuildingBlock: CIFDUS_clean_linker_0, # of connection points: 2
#     Edge 35, Type (0, 0), BuildingBlock: CIFDUS_clean_linker_0, # of connection points: 2
#     Edge 36, Type (0, 0), BuildingBlock: CIFDUS_clean_linker_0, # of connection points: 2
#     Edge 37, Type (0, 0), BuildingBlock: CIFDUS_clean_linker_0, # of connection points: 2
#     Edge 38, Type (0, 0), BuildingBlock: CIFDUS_clean_linker_0, # of connection points: 2
#     Edge 39, Type (0, 0), BuildingBlock: CIFDUS_clean_linker_0, # of connection points: 2
#     Edge 40, Type (0, 0), BuildingBlock: CIFDUS_clean_linker_0, # of connection points: 2
#     Edge 41, Type (0, 0), BuildingBlock: CIFDUS_clean_linker_0, # of connection points: 2
# Relax obj value: 0.052
# Max RMSD: 0.099
# Mean RMSD: 0.099
data_MOF--net-wkd--node1-BEQFEK_clean_sbu_0--edge1-CIFDUS_clean_linker_0
_symmetry_space_group_name_H-M    P1
_symmetry_Int_Tables_number       1
_symmetry_cell_setting            triclinic
loop_
_symmetry_equiv_pos_as_xyz
'x, y, z'
_cell_length_a     21.204811
_cell_length_b     21.26578
_cell_length_c     120.30576
_cell_angle_alpha  90.096464
_cell_angle_beta   89.962053
_cell_angle_gamma 120.00381
loop_
_atom_site_label
_atom_site_type_symbol
_atom_site_fract_x
_atom_site_fract_y
_atom_site_fract_z
_atom_type_partial_charge
Co0 Co 0.94773 0.33407 0.03536 0.0
Co1 Co 0.0145 0.25725 0.04949 0.0
C2 C 0.89596 0.17416 0.03305 0.0
O3 O 0.89525 0.2311 0.02994 0.0
O4 O 0.93813 0.17631 0.04074 0.0
C5 C 0.91764 0.42706 0.02128 0.0
O6 O 0.97967 0.44341 0.01649 0.0
C7 C 0.02162 0.16387 0.06701 0.0
C8 C 0.14049 0.20908 0.06843 0.0
C9 C 0.07436 0.15669 0.07277 0.0
N10 N 0.05529 0.21875 0.05971 0.0
N11 N 0.12629 0.24532 0.06059 0.0
C12 C 0.94069 0.11695 0.06796 0.0
H13 H 0.91284 0.12695 0.06097 0.0
H14 H 0.92172 0.12899 0.07584 0.0
H15 H 0.92557 0.05887 0.06813 0.0
C16 C 0.93025 0.37945 0.05803 0.0
N17 N 0.94714 0.33962 0.0512 0.0
N18 N 0.9766 0.3089 0.05712 0.0
C19 C 0.98023 0.32904 0.06784 0.0
C20 C 0.9499 0.3733 0.06879 0.0
C21 C 0.90342 0.42867 0.05412 0.0
H22 H 0.94306 0.46851 0.04814 0.0
H23 H 0.85091 0.39617 0.04969 0.0
H24 H 0.89568 0.45801 0.06115 0.0
O25 O 0.05103 0.38382 0.02989 0.0
O26 O 0.09437 0.32463 0.03953 0.0
H27 H 0.07374 0.32453 0.07353 0.0
H28 H 0.02975 0.34889 0.0842 0.0
C29 C 0.0205 0.31445 0.07675 0.0
H30 H 0.98819 0.25696 0.07933 0.0
H31 H 0.16514 0.28841 0.05586 0.0
O32 O 0.89481 0.38215 0.02929 0.0
C33 C 0.10298 0.37231 0.03235 0.0
Co34 Co 0.62523 0.95014 0.20164 0.0
Co35 Co 0.77137 0.0167 0.21519 0.0
C36 C 0.73212 0.89851 0.19838 0.0
O37 O 0.67107 0.89364 0.19622 0.0
O38 O 0.77586 0.94409 0.20543 0.0
C39 C 0.48262 0.83555 0.19546 0.0
O40 O 0.50222 0.79447 0.20088 0.0
C41 C 0.87378 0.01869 0.23207 0.0
C42 C 0.94417 0.13662 0.23482 0.0
C43 C 0.93202 0.06952 0.23837 0.0
N44 N 0.85177 0.05433 0.22529 0.0
N45 N 0.89458 0.12478 0.22692 0.0
C46 C 0.84108 0.93788 0.23219 0.0
H47 H 0.81346 0.91393 0.2242 0.0
H48 H 0.79993 0.91422 0.2389 0.0
H49 H 0.88372 0.92329 0.2338 0.0
C50 C 0.56537 0.93559 0.22454 0.0
N51 N 0.62048 0.95023 0.21746 0.0
N52 N 0.68195 0.97867 0.22311 0.0
C53 C 0.66787 0.98383 0.2339 0.0
C54 C 0.59364 0.95602 0.23517 0.0
C55 C 0.489 0.91167 0.221 0.0
H56 H 0.48958 0.94257 0.21354 0.0
H57 H 0.46126 0.85323 0.21879 0.0
H58 H 0.45768 0.91941 0.22773 0.0
O59 O 0.68102 0.05309 0.19611 0.0
O60 O 0.78359 0.09824 0.20585 0.0
H61 H 0.76621 0.07592 0.23975 0.0
H62 H 0.70161 0.02604 0.25064 0.0
C63 C 0.72495 0.02108 0.24266 0.0
H64 H 0.75226 0.98928 0.24424 0.0
H65 H 0.8892 0.16484 0.22275 0.0
O66 O 0.52631 0.90368 0.19497 0.0
C67 C 0.7439 0.10578 0.19864 0.0
Co68 Co 0.6729 0.61076 0.36741 0.0
Co69 Co 0.75199 0.75069 0.38221 0.0
C70 C 0.83318 0.71684 0.36515 0.0
O71 O 0.77581 0.65952 0.36198 0.0
O72 O 0.83193 0.75643 0.37299 0.0
C73 C 0.63019 0.46647 0.35855 0.0
O74 O 0.68962 0.47353 0.36313 0.0
C75 C 0.85466 0.85634 0.39857 0.0
C76 C 0.79133 0.90651 0.40451 0.0
C77 C 0.8564 0.90709 0.40608 0.0
N78 N 0.79121 0.82705 0.39297 0.0
N79 N 0.75413 0.85795 0.39648 0.0
C80 C 0.90846 0.8307 0.39741 0.0
H81 H 0.88183 0.77507 0.39386 0.0
H82 H 0.93288 0.8311 0.40558 0.0
H83 H 0.95258 0.86754 0.39169 0.0
C84 C 0.62784 0.54192 0.38983 0.0
N85 N 0.6662 0.59982 0.38317 0.0
N86 N 0.70066 0.6586 0.38936 0.0
C87 C 0.68669 0.63972 0.40015 0.0
C88 C 0.63965 0.56525 0.40084 0.0
C89 C 0.57522 0.46728 0.38569 0.0
H90 H 0.546 0.47077 0.37829 0.0
H91 H 0.60573 0.43966 0.38323 0.0
H92 H 0.53483 0.43434 0.39216 0.0
O93 O 0.62738 0.66709 0.36277 0.0
O94 O 0.68403 0.7677 0.37283 0.0
H95 H 0.69772 0.72973 0.40968 0.0
H96 H 0.70826 0.66385 0.41776 0.0
C97 C 0.71943 0.6919 0.40964 0.0
H98 H 0.77915 0.72385 0.40856 0.0
H99 H 0.70256 0.8446 0.39356 0.0
O100 O 0.6151 0.51688 0.35964 0.0
C101 C 0.63691 0.72891 0.36553 0.0
Co102 Co 0.09349 0.68665 0.53569 0.0
Co103 Co 1.00997 0.75293 0.54803 0.0
C104 C 0.13673 0.8418 0.53269 0.0
O105 O 0.14572 0.78854 0.53024 0.0
O106 O 0.0874 0.8349 0.53943 0.0
C107 C 0.20854 0.65789 0.52883 0.0
O108 O 0.25449 0.72283 0.5327 0.0
C109 C 1.00085 0.84602 0.56525 0.0
C110 C 0.88267 0.8061 0.56589 0.0
C111 C 0.9485 0.85545 0.57072 0.0
N112 N 0.96727 0.7927 0.55769 0.0
N113 N 0.89668 0.76936 0.55807 0.0
C114 C 0.08172 0.88886 0.56682 0.0
H115 H 0.11026 0.88374 0.55946 0.0
H116 H 0.09736 0.86803 0.57413 0.0
H117 H 0.09952 0.94687 0.56836 0.0
C118 C 0.10346 0.64275 0.55882 0.0
N119 N 0.08713 0.68036 0.55147 0.0
N120 N 0.04862 0.70487 0.55655 0.0
C121 C 0.03783 0.68215 0.56719 0.0
C122 C 0.07325 0.64324 0.56903 0.0
C123 C 0.1387 0.59928 0.55577 0.0
H124 H 0.10702 0.56053 0.54903 0.0
H125 H 0.19429 0.63631 0.55257 0.0
H126 H 0.1423 0.56888 0.563 0.0
O127 O 0.99409 0.63512 0.52943 0.0
O128 O 0.93333 0.68174 0.53779 0.0
H129 H 0.93722 0.67972 0.57061 0.0
H130 H 0.97118 0.65061 0.5821 0.0
C131 C 0.98696 0.68926 0.57507 0.0
H132 H 0.01418 0.74479 0.5786 0.0
H133 H 0.85799 0.72793 0.55306 0.0
O134 O 0.14055 0.63392 0.5296 0.0
C135 C 0.9359 0.63757 0.53087 0.0
Co136 Co 0.39618 0.05839 0.69999 0.0
Co137 Co 0.25699 0.99885 0.71504 0.0
C138 C 0.28877 0.11229 0.69808 0.0
O139 O 0.34545 0.11139 0.69476 0.0
O140 O 0.24999 0.0723 0.70603 0.0
C141 C 0.53745 0.17126 0.69308 0.0
O142 O 0.51905 0.21293 0.69862 0.0
C143 C 0.15092 0.99491 0.73138 0.0
C144 C 0.10257 0.88246 0.73759 0.0
C145 C 0.10078 0.94631 0.73898 0.0
N146 N 0.18099 0.96119 0.72588 0.0
N147 N 0.1512 0.89381 0.72955 0.0
C148 C 0.1754 0.07383 0.73004 0.0
H149 H 0.23133 0.10343 0.72657 0.0
H150 H 0.17418 0.0983 0.73814 0.0
H151 H 0.13827 0.07969 0.72419 0.0
C152 C 0.46587 0.08076 0.7224 0.0
N153 N 0.4077 0.0623 0.71578 0.0
N154 N 0.34946 0.03999 0.72206 0.0
C155 C 0.36902 0.04576 0.73283 0.0
C156 C 0.44336 0.07117 0.73343 0.0
C157 C 0.53968 0.09937 0.71821 0.0
H158 H 0.53464 0.06902 0.71045 0.0
H159 H 0.57142 0.15838 0.71642 0.0
H160 H 0.56981 0.08627 0.72446 0.0
O161 O 0.34038 0.95562 0.69518 0.0
O162 O 0.24071 0.91487 0.70551 0.0
H163 H 0.28013 0.96987 0.74287 0.0
H164 H 0.34681 0.04929 0.75038 0.0
C165 C 0.31771 0.02933 0.74237 0.0
H166 H 0.28521 0.05614 0.74099 0.0
H167 H 0.16532 0.85604 0.72673 0.0
O168 O 0.49287 0.10335 0.69258 0.0
C169 C 0.27794 0.90454 0.69815 0.0
Co170 Co 0.32628 0.41169 0.86852 0.0
Co171 Co 0.25942 0.26341 0.88107 0.0
C172 C 0.17081 0.29948 0.86543 0.0
O173 O 0.2243 0.3615 0.86294 0.0
O174 O 0.17754 0.25774 0.87229 0.0
C175 C 0.35389 0.55393 0.86148 0.0
O176 O 0.2884 0.53404 0.86525 0.0
C177 C 0.16521 0.1638 0.89831 0.0
C178 C 0.20109 0.08262 0.89896 0.0
C179 C 0.15318 0.10129 0.90373 0.0
N180 N 0.21854 0.18184 0.89079 0.0
N181 N 0.23962 0.13299 0.8912 0.0
C182 C 0.12408 0.20356 0.89977 0.0
H183 H 0.14052 0.23475 0.90765 0.0
H184 H 0.06477 0.16425 0.90025 0.0
H185 H 0.13554 0.24216 0.89285 0.0
C186 C 0.36821 0.46747 0.89164 0.0
N187 N 0.3317 0.41296 0.88432 0.0
N188 N 0.30635 0.35052 0.88953 0.0
C189 C 0.32691 0.36346 0.90029 0.0
C190 C 0.3653 0.43781 0.90202 0.0
C191 C 0.41193 0.54588 0.88852 0.0
H192 H 0.45126 0.55271 0.88189 0.0
H193 H 0.37495 0.564 0.88517 0.0
H194 H 0.44182 0.58036 0.89576 0.0
O195 O 0.37845 0.36394 0.86251 0.0
O196 O 0.33151 0.25744 0.87105 0.0
H197 H 0.32768 0.265 0.90401 0.0
H198 H 0.36113 0.33098 0.91512 0.0
C199 C 0.3203 0.30685 0.90836 0.0
H200 H 0.26557 0.28053 0.91221 0.0
H201 H 0.28041 0.13414 0.8862 0.0
O202 O 0.37881 0.5109 0.86235 0.0
C203 C 0.37603 0.30363 0.8641 0.0
Co204 Co 0.66208 0.06227 0.82436 0.0
Co205 Co 0.74163 0.99694 0.81047 0.0
C206 C 0.82313 0.11992 0.82642 0.0
O207 O 0.7655 0.11992 0.8295 0.0
O208 O 0.82176 0.07638 0.81901 0.0
C209 C 0.61756 0.16356 0.83324 0.0
O210 O 0.6807 0.21702 0.82989 0.0
C211 C 0.83861 0.98415 0.79381 0.0
C212 C 0.78823 0.86473 0.79298 0.0
C213 C 0.84523 0.92866 0.78885 0.0
N214 N 0.77998 0.95404 0.80053 0.0
N215 N 0.75009 0.88269 0.79993 0.0
C216 C 0.88959 0.06406 0.79272 0.0
H217 H 0.8757 0.09473 0.79875 0.0
H218 H 0.88595 0.08174 0.7842 0.0
H219 H 0.94648 0.07641 0.79403 0.0
C220 C 0.61384 0.07484 0.80162 0.0
N221 N 0.65443 0.05979 0.80856 0.0
N222 N 0.68737 0.03194 0.80276 0.0
C223 C 0.66897 0.02879 0.79197 0.0
C224 C 0.62244 0.05645 0.79088 0.0
C225 C 0.56339 0.10075 0.80534 0.0
H226 H 0.526 0.06353 0.81179 0.0
H227 H 0.59569 0.15535 0.80914 0.0
H228 H 0.53121 0.10384 0.7983 0.0
O229 O 0.6188 0.9626 0.83008 0.0
O230 O 0.67689 0.91725 0.82072 0.0
H231 H 0.67639 0.93839 0.78571 0.0
H232 H 0.66146 0.9897 0.77509 0.0
C233 C 0.68979 0.99358 0.78303 0.0
H234 H 0.74931 0.02602 0.78162 0.0
H235 H 0.70408 0.84606 0.8044 0.0
O236 O 0.60149 0.09838 0.8314 0.0
C237 C 0.63018 0.9106 0.82795 0.0
Co238 Co 0.61401 0.66677 0.99246 0.0
Co239 Co 0.74359 0.74927 0.97562 0.0
C240 C 0.71817 0.83202 0.9928 0.0
O241 O 0.66622 0.77301 0.99678 0.0
O242 O 0.75306 0.83243 0.98414 0.0
C243 C 0.47355 0.63795 1.00008 0.0
O244 O 0.48951 0.6953 0.994 0.0
C245 C 0.84652 0.83537 0.95729 0.0
C246 C 0.87678 0.7548 0.95175 0.0
C247 C 0.88729 0.82309 0.94937 0.0
N248 N 0.81305 0.77632 0.96387 0.0
N249 N 0.83228 0.72904 0.96056 0.0
C250 C 0.83434 0.89871 0.95812 0.0
H251 H 0.78449 0.88415 0.963 0.0
H252 H 0.82955 0.91728 0.9497 0.0
H253 H 0.88141 0.9441 0.96241 0.0
C254 C 0.53431 0.61071 0.97081 0.0
N255 N 0.59459 0.65415 0.97681 0.0
N256 N 0.64836 0.6932 0.96992 0.0
C257 C 0.62365 0.67822 0.9594 0.0
C258 C 0.55077 0.62458 0.95955 0.0
C259 C 0.46454 0.55238 0.97569 0.0
H260 H 0.47533 0.53181 0.98351 0.0
H261 H 0.42868 0.57513 0.97757 0.0
H262 H 0.4357 0.50661 0.96977 0.0
O263 O 0.67548 0.62413 0.99689 0.0
O264 O 0.76677 0.68847 0.98534 0.0
H265 H 0.70508 0.69624 0.94732 0.0
H266 H 0.63352 0.711 0.94214 0.0
C267 C 0.66824 0.71745 0.94943 0.0
H268 H 0.70154 0.77603 0.95133 0.0
H269 H 0.81333 0.67808 0.96416 0.0
O270 O 0.51968 0.61641 1.00077 0.0
C271 C 0.73815 0.64157 0.99304 0.0
Co272 Co 0.96166 0.61369 0.15905 0.0
Co273 Co 0.03327 0.75123 0.1435 0.0
C274 C 0.92826 0.73607 0.16114 0.0
O275 O 0.91763 0.67386 0.16411 0.0
O276 O 0.97116 0.7714 0.1532 0.0
C277 C 0.84293 0.47425 0.16666 0.0
O278 O 0.80056 0.49239 0.16126 0.0
C279 C 0.05356 0.85942 0.1262 0.0
C280 C 0.16613 0.89412 0.12094 0.0
C281 C 0.10732 0.90349 0.11859 0.0
N282 N 0.07957 0.8251 0.13249 0.0
N283 N 0.1472 0.84708 0.12941 0.0
C284 C 0.97688 0.84464 0.12697 0.0
H285 H 0.94261 0.79407 0.13172 0.0
H286 H 0.9536 0.83974 0.11854 0.0
H287 H 0.97645 0.8903 0.13137 0.0
C288 C 0.93218 0.54048 0.13679 0.0
N289 N 0.95571 0.60007 0.14327 0.0
N290 N 0.98201 0.65782 0.13684 0.0
C291 C 0.9741 0.63672 0.12612 0.0
C292 C 0.94294 0.56176 0.1257 0.0
C293 C 0.90782 0.46589 0.14114 0.0
H294 H 0.93805 0.46915 0.14884 0.0
H295 H 0.84886 0.43881 0.1431 0.0
H296 H 0.91658 0.43245 0.13492 0.0
O297 O 0.06573 0.66343 0.16394 0.0
O298 O 0.11338 0.75915 0.15279 0.0
H299 H 0.05489 0.72136 0.11598 0.0
H300 H 0.9736 0.65813 0.10847 0.0
C301 C 0.99475 0.68743 0.11644 0.0
H302 H 0.9715 0.72327 0.11761 0.0
H303 H 0.17975 0.82819 0.13286 0.0
O304 O 0.91133 0.5179 0.16677 0.0
C305 C 0.12014 0.72245 0.16056 0.0
Co306 Co 0.33688 0.926 0.32415 0.0
Co307 Co 0.27707 0.01106 0.31064 0.0
C308 C 0.18101 0.88907 0.32595 0.0
O309 O 0.23334 0.87961 0.32895 0.0
O310 O 0.18987 0.93687 0.31878 0.0
C311 C 0.35863 0.80806 0.33209 0.0
O312 O 0.29417 0.76271 0.32797 0.0
C313 C 0.19288 0.03668 0.29342 0.0
C314 C 0.2618 0.15512 0.29106 0.0
C315 C 0.19997 0.09452 0.28702 0.0
N316 N 0.24872 0.06233 0.30066 0.0
N317 N 0.28887 0.13328 0.29933 0.0
C318 C 0.13854 0.95762 0.29213 0.0
H319 H 0.15862 0.92403 0.29616 0.0
H320 H 0.12749 0.94289 0.2832 0.0
H321 H 0.08681 0.94578 0.2962 0.0
C322 C 0.37977 0.90595 0.3014 0.0
N323 N 0.34641 0.92968 0.3084 0.0
N324 N 0.32284 0.96681 0.30272 0.0
C325 C 0.34096 0.96821 0.29194 0.0
C326 C 0.37728 0.92946 0.29073 0.0
C327 C 0.41906 0.86749 0.30504 0.0
H328 H 0.45437 0.89623 0.31226 0.0
H329 H 0.37863 0.81166 0.3077 0.0
H330 H 0.45298 0.86438 0.29827 0.0
O331 O 0.39139 0.02475 0.33027 0.0
O332 O 0.34777 0.08532 0.3212 0.0
H333 H 0.34846 1.00514 0.27486 0.0
H334 H 0.26437 0.97848 0.28175 0.0
C335 C 0.324 1.00614 0.28294 0.0
H336 H 0.34364 0.06323 0.2854 0.0
H337 H 0.33628 0.16647 0.3038 0.0
O338 O 0.38421 0.87594 0.33107 0.0
C339 C 0.39034 0.08302 0.32845 0.0
Co340 Co 0.40746 0.34822 0.4915 0.0
Co341 Co 0.26235 0.26898 0.47768 0.0
C342 C 0.30417 0.18801 0.49369 0.0
O343 O 0.362 0.24541 0.49671 0.0
O344 O 0.26185 0.18939 0.4863 0.0
C345 C 0.55408 0.39362 0.5002 0.0
O346 O 0.54538 0.33115 0.49672 0.0
C347 C 0.15329 0.17134 0.46102 0.0
C348 C 0.08329 0.2208 0.46007 0.0
C349 C 0.09103 0.16415 0.45599 0.0
N350 N 0.18111 0.22995 0.46773 0.0
N351 N 0.13906 0.25928 0.46705 0.0
C352 C 0.18313 0.12102 0.46 0.0
H353 H 0.22669 0.13448 0.46621 0.0
H354 H 0.20625 0.12581 0.45157 0.0
H355 H 0.13868 0.06402 0.46108 0.0
C356 C 0.46839 0.3951 0.46871 0.0
N357 N 0.41267 0.35521 0.47569 0.0
N358 N 0.35166 0.32276 0.46993 0.0
C359 C 0.36678 0.34105 0.45913 0.0
C360 C 0.44116 0.38675 0.458 0.0
C361 C 0.545 0.44511 0.47238 0.0
H362 H 0.54547 0.4824 0.47888 0.0
H363 H 0.56738 0.41266 0.47609 0.0
H364 H 0.58014 0.47722 0.46533 0.0
O365 O 0.35082 0.39168 0.49719 0.0
O366 O 0.24715 0.33406 0.48786 0.0
H367 H 0.26874 0.3341 0.45298 0.0
H368 H 0.33495 0.34909 0.4423 0.0
C369 C 0.31056 0.32068 0.45023 0.0
H370 H 0.28345 0.26137 0.44876 0.0
H371 H 0.14786 0.30517 0.47149 0.0
O372 O 0.50415 0.40886 0.4985 0.0
C373 C 0.28743 0.38071 0.49508 0.0
Co374 Co 0.06191 0.39522 0.65861 0.0
Co375 Co 0.99738 0.25847 0.6429 0.0
C376 C 0.11331 0.28481 0.65909 0.0
O377 O 0.11328 0.34099 0.66286 0.0
O378 O 0.07224 0.24782 0.65106 0.0
C379 C 0.17704 0.53432 0.66646 0.0
O380 O 0.21976 0.51644 0.66108 0.0
C381 C 0.97709 0.15233 0.62506 0.0
C382 C 0.86235 0.11399 0.62064 0.0
C383 C 0.9219 0.10722 0.61771 0.0
N384 N 0.95103 0.18467 0.63181 0.0
N385 N 0.88218 0.16055 0.62921 0.0
C386 C 0.05478 0.16978 0.62512 0.0
H387 H 0.08954 0.2215 0.6296 0.0
H388 H 0.07504 0.17378 0.61649 0.0
H389 H 0.05856 0.12581 0.62947 0.0
C390 C 0.08539 0.4691 0.63658 0.0
N391 N 0.06406 0.40939 0.6429 0.0
N392 N 0.03885 0.35211 0.63636 0.0
C393 C 0.04478 0.37371 0.6257 0.0
C394 C 0.07409 0.44847 0.62547 0.0
C395 C 0.11006 0.5434 0.64112 0.0
H396 H 0.07968 0.53964 0.64883 0.0
H397 H 0.16892 0.56997 0.64313 0.0
H398 H 0.10177 0.57755 0.63499 0.0
O399 O 0.95967 0.34073 0.66382 0.0
O400 O 0.9173 0.2426 0.6532 0.0
H401 H 0.9657 0.28696 0.61565 0.0
H402 H 0.04371 0.354 0.60794 0.0
C403 C 0.02549 0.32396 0.61589 0.0
H404 H 0.05224 0.29103 0.61675 0.0
H405 H 0.84927 0.17762 0.63309 0.0
O406 O 0.10875 0.49044 0.66649 0.0
C407 C 0.90813 0.27866 0.66086 0.0
H408 H 0.72187 0.85289 0.01506 0.0
H409 H 0.7713 0.9665 0.98379 0.0
H410 H 0.82331 0.08285 0.99359 0.0
H411 H 0.86387 0.15279 1.01105 0.0
H412 H 0.82721 0.03931 0.04216 0.0
H413 H 0.76075 0.92262 0.03251 0.0
C414 C 0.74295 0.90312 1.01042 0.0
C415 C 0.74239 0.90127 0.99874 0.0
C416 C 0.77556 0.96989 0.01611 0.0
C417 C 0.77116 0.96673 0.9928 0.0
C418 C 0.80098 0.03319 0.9984 0.0
C419 C 0.84025 0.10242 0.01571 0.0
C420 C 0.84993 0.10442 0.02729 0.0
C421 C 0.8048 0.03556 1.01005 0.0
C422 C 0.82037 0.03892 0.03323 0.0
C423 C 0.78248 0.97227 0.02772 0.0
H424 H 0.79154 0.68179 0.17005 0.0
H425 H 1.00234 0.87541 0.16766 0.0
H426 H 0.96146 0.94091 0.17953 0.0
H427 H 0.86633 0.94432 0.19045 0.0
H428 H 0.65078 0.75716 0.19142 0.0
H429 H 0.69243 0.68781 0.18029 0.0
C430 C 0.82811 0.7383 0.17215 0.0
C431 C 0.89977 0.77383 0.16801 0.0
C432 C 0.80345 0.77664 0.17873 0.0
C433 C 0.94673 0.84719 0.17068 0.0
C434 C 0.92357 0.88463 0.1775 0.0
C435 C 0.82864 0.88814 0.18828 0.0
C436 C 0.75606 0.85538 0.19185 0.0
C437 C 0.85219 0.85 0.18157 0.0
C438 C 0.70714 0.78321 0.18879 0.0
C439 C 0.73093 0.7437 0.18243 0.0
H440 H 0.85586 0.72796 0.34294 0.0
H441 H 0.96551 0.76165 0.37438 0.0
H442 H 0.0829 0.81104 0.36484 0.0
H443 H 0.155 0.85226 0.34764 0.0
H444 H 0.04714 0.83375 0.31645 0.0
H445 H 0.92838 0.77066 0.32571 0.0
C446 C 0.90551 0.74519 0.34764 0.0
C447 C 0.90247 0.74054 0.35929 0.0
C448 C 0.97299 0.77669 0.34213 0.0
C449 C 0.96696 0.76451 0.36538 0.0
C450 C 0.0339 0.79283 0.35994 0.0
C451 C 0.10532 0.83348 0.34287 0.0
C452 C 0.10941 0.84685 0.33139 0.0
C453 C 0.03771 0.80024 0.34833 0.0
C454 C 0.04501 0.8238 0.32531 0.0
C455 C 0.97725 0.78783 0.3306 0.0
H456 H 0.30356 0.16529 0.51579 0.0
H457 H 0.25299 0.0555 0.48414 0.0
H458 H 0.20476 0.93815 0.49353 0.0
H459 H 0.16761 0.86614 0.51078 0.0
H460 H 0.2026 0.97513 0.54231 0.0
H461 H 0.26667 0.09334 0.53303 0.0
C462 C 0.28309 0.11562 0.51098 0.0
C463 C 0.2824 0.11864 0.49933 0.0
C464 C 0.25222 0.04828 0.51645 0.0
C465 C 0.25423 0.05412 0.49314 0.0
C466 C 0.22655 0.98717 0.4985 0.0
C467 C 0.19044 0.91596 0.51559 0.0
C468 C 0.18133 0.91243 0.52718 0.0
C469 C 0.22396 0.98345 0.51015 0.0
C470 C 0.20942 0.97695 0.53337 0.0
C471 C 0.24584 0.04437 0.52807 0.0
H472 H 0.28572 0.13242 0.67589 0.0
H473 H 0.23556 0.19199 0.70755 0.0
H474 H 0.18413 0.25828 0.69819 0.0
H475 H 0.14461 0.29095 0.68102 0.0
H476 H 0.18099 0.21854 0.64942 0.0
H477 H 0.24683 0.16602 0.65865 0.0
C478 C 0.26456 0.161 0.68069 0.0
C479 C 0.26484 0.15806 0.69236 0.0
C480 C 0.2321 0.19617 0.67525 0.0
C481 C 0.23594 0.19383 0.69855 0.0
C482 C 0.20646 0.23155 0.69321 0.0
C483 C 0.16797 0.26462 0.67616 0.0
C484 C 0.15849 0.25895 0.66457 0.0
C485 C 0.20298 0.23193 0.68156 0.0
C486 C 0.1877 0.22349 0.65836 0.0
C487 C 0.22525 0.19344 0.66363 0.0
H488 H 0.84623 0.14214 0.84852 0.0
H489 H 0.95586 0.20157 0.81687 0.0
H490 H 0.0737 0.27084 0.82625 0.0
H491 H 0.14617 0.30578 0.84351 0.0
H492 H 0.03723 0.23164 0.87503 0.0
H493 H 0.91859 0.17727 0.86576 0.0
C494 C 0.89596 0.17142 0.84372 0.0
C495 C 0.89276 0.16774 0.83206 0.0
C496 C 0.96357 0.20797 0.84917 0.0
C497 C 0.95738 0.2042 0.82587 0.0
C498 C 0.02461 0.24355 0.83123 0.0
C499 C 0.09627 0.27869 0.84832 0.0
C500 C 0.09994 0.27311 0.8599 0.0
C501 C 0.02851 0.24464 0.84288 0.0
C502 C 0.03531 0.23659 0.86608 0.0
C503 C 0.96764 0.20549 0.86079 0.0
H504 H 0.1455 0.08251 0.07487 0.0
H505 H 0.98609 0.12008 0.09109 0.0
H506 H 0.98017 0.0435 0.10667 0.0
H507 H 0.02667 0.97233 0.11615 0.0
H508 H 0.18393 0.93268 0.09945 0.0
H509 H 0.18589 1.0054 0.08376 0.0
C510 C 0.10898 0.07326 0.08178 0.0
C511 C 0.0655 0.1058 0.08177 0.0
C512 C 0.10626 0.02967 0.0907 0.0
C513 C 0.01856 0.09387 0.09076 0.0
C514 C 0.01587 0.05081 0.09974 0.0
C515 C 0.05978 0.97759 0.10899 0.0
C516 C 0.10431 0.94588 0.109 0.0
C517 C 0.05999 0.01888 0.09984 0.0
C518 C 0.14919 0.95649 0.09975 0.0
C519 C 0.15023 0.99789 0.09071 0.0
H520 H 0.07529 0.14965 0.24279 0.0
H521 H 0.87705 0.96665 0.25488 0.0
H522 H 0.94231 0.95625 0.27086 0.0
H523 H 0.05452 1.00461 0.28201 0.0
H524 H 0.25276 0.18717 0.26962 0.0
H525 H 0.18817 0.19355 0.25336 0.0
C526 C 0.04658 0.10704 0.24888 0.0
C527 C 0.97182 0.05825 0.24754 0.0
C528 C 0.08424 0.10198 0.2581 0.0
C529 C 0.93507 1.00356 0.25551 0.0
C530 C 0.97223 0.99819 0.26474 0.0
C531 C 0.08419 0.04452 0.27564 0.0
C532 C 0.15885 0.09466 0.27703 0.0
C533 C 0.04678 0.04757 0.26618 0.0
C534 C 0.19528 0.14792 0.26883 0.0
C535 C 0.1585 0.15154 0.25948 0.0
H536 H 0.1216 0.1115 0.43725 0.0
H537 H 0.94458 0.09294 0.45733 0.0
H538 H 0.85651 0.00851 0.44392 0.0
H539 H 0.82994 0.94536 0.42612 0.0
H540 H 1.00597 0.96835 0.40531 0.0
H541 H 0.09421 0.04418 0.41945 0.0
C542 C 0.06374 0.08749 0.4388 0.0
C543 C 0.03941 0.10754 0.44832 0.0
C544 C 0.0133 0.04 0.43091 0.0
C545 C 0.96438 0.07803 0.45006 0.0
C546 C 0.91407 0.02989 0.4424 0.0
C547 C 0.88762 0.96667 0.42468 0.0
C548 C 0.91107 0.9502 0.41473 0.0
C549 C 0.93795 0.01146 0.43272 0.0
C550 C 0.98604 0.97831 0.41301 0.0
C551 C 0.03669 0.02243 0.42106 0.0
H552 H 1.00168 0.03831 0.61466 0.0
H553 H 0.84371 0.08003 0.59877 0.0
H554 H 0.83936 0.00759 0.58282 0.0
H555 H 0.87796 0.93016 0.57346 0.0
H556 H 0.0367 0.88899 0.58905 0.0
H557 H 0.04508 0.96536 0.60482 0.0
C558 C 0.96779 0.03331 0.60761 0.0
C559 C 0.92383 0.0656 0.60791 0.0
C560 C 0.96585 0.99181 0.59835 0.0
C561 C 0.87805 0.05574 0.59881 0.0
C562 C 0.8756 0.01445 0.58964 0.0
C563 C 0.91478 0.93841 0.58029 0.0
C564 C 0.95755 0.90508 0.58 0.0
C565 C 0.91884 0.98186 0.58935 0.0
C566 C 1.00479 0.91582 0.5889 0.0
C567 C 1.00896 0.95883 0.598 0.0
H568 H 0.06371 0.88417 0.75919 0.0
H569 H 0.03725 0.03213 0.73784 0.0
H570 H 0.9618 0.04578 0.75191 0.0
H571 H 0.89608 0.00866 0.76985 0.0
H572 H 0.91754 0.85483 0.79049 0.0
H573 H 1.00155 0.84988 0.7771 0.0
C574 C 0.04169 0.91968 0.75762 0.0
C575 C 0.05725 0.95798 0.74754 0.0
C576 C 0.99706 0.9259 0.76562 0.0
C577 C 0.02814 1.00364 0.74564 0.0
C578 C 0.98422 0.01087 0.75365 0.0
C579 C 0.92064 0.97555 0.77152 0.0
C580 C 0.90161 0.9329 0.78119 0.0
C581 C 0.96777 0.97175 0.76364 0.0
C582 C 0.93174 0.88825 0.7831 0.0
C583 C 0.97962 0.88532 0.77545 0.0
H584 H 0.96528 0.97219 0.94717 0.0
H585 H 0.90594 0.77241 0.92975 0.0
H586 H 0.98123 0.84066 0.91405 0.0
H587 H 0.06737 0.95659 0.90546 0.0
H588 H 0.1259 0.15676 0.92251 0.0
H589 H 0.04586 0.08909 0.93799 0.0
C590 C 0.96706 0.9435 0.93985 0.0
C591 C 0.92923 0.8671 0.93965 0.0
C592 C 0.01036 0.98322 0.93074 0.0
C593 C 0.93467 0.83117 0.93018 0.0
C594 C 0.97762 0.8701 0.92116 0.0
C595 C 0.06203 0.98527 0.91254 0.0
C596 C 0.10147 0.06136 0.91279 0.0
C597 C 0.01631 0.94603 0.9214 0.0
C598 C 0.09447 0.09817 0.92199 0.0
C599 C 0.04932 0.05943 0.9309 0.0
H600 H 0.42433 0.5196 0.01354 0.0
H601 H 0.35902 0.66271 0.99866 0.0
H602 H 0.23863 0.59313 1.00711 0.0
H603 H 0.15125 0.49109 0.01875 0.0
H604 H 0.21842 0.3496 0.03378 0.0
H605 H 0.33799 0.41889 0.02525 0.0
C606 C 0.38388 0.53574 1.01215 0.0
C607 C 0.40099 0.59644 1.00547 0.0
C608 C 0.31467 0.49556 0.01706 0.0
C609 C 0.34765 0.61639 1.00378 0.0
C610 C 0.27858 0.5765 1.0086 0.0
C611 C 0.19194 0.47528 0.02014 0.0
C612 C 0.17537 0.41496 0.02691 0.0
C613 C 0.26135 0.51585 0.01525 0.0
C614 C 0.22924 0.3957 0.02864 0.0
C615 C 0.29791 0.43535 0.02375 0.0
H616 H 0.91412 0.42495 0.17957 0.0
H617 H 0.70257 0.36065 0.16576 0.0
H618 H 0.65316 0.24064 0.17423 0.0
H619 H 0.67028 0.15349 0.18557 0.0
H620 H 0.8823 0.22058 0.19955 0.0
H621 H 0.93085 0.33943 0.19098 0.0
C622 C 0.85714 0.38481 0.17841 0.0
C623 C 0.81224 0.40198 0.17203 0.0
C624 C 0.82903 0.31606 0.18333 0.0
C625 C 0.73846 0.34913 0.17066 0.0
C626 C 0.71013 0.28033 0.17548 0.0
C627 C 0.72713 0.19403 0.18672 0.0
C628 C 0.77239 0.17768 0.1932 0.0
C629 C 0.75496 0.26308 0.18182 0.0
C630 C 0.84591 0.2313 0.19464 0.0
C631 C 0.87394 0.29952 0.18973 0.0
H632 H 0.47909 0.88622 0.34478 0.0
H633 H 0.33612 0.66971 0.33237 0.0
H634 H 0.40994 0.62652 0.34162 0.0
H635 H 0.51531 0.65052 0.35306 0.0
H636 H 0.65641 0.86633 0.36591 0.0
H637 H 0.58265 0.90952 0.35664 0.0
C638 C 0.46404 0.82955 0.34408 0.0
C639 C 0.40231 0.78128 0.33784 0.0
C640 C 0.5063 0.80502 0.34949 0.0
C641 C 0.38326 0.70795 0.33712 0.0
C642 C 0.42552 0.68326 0.34239 0.0
C643 C 0.53015 0.7071 0.35384 0.0
C644 C 0.59167 0.75523 0.36013 0.0
C645 C 0.48722 0.73138 0.34857 0.0
C646 C 0.60944 0.82813 0.36112 0.0
C647 C 0.56735 0.85288 0.35581 0.0
H648 H 0.80902 0.64002 0.52855 0.0
H649 H 0.91459 0.51964 0.51884 0.0
H650 H 0.80633 0.43367 0.50859 0.0
H651 H 0.68103 0.39162 0.50242 0.0
H652 H 0.5767 0.51393 0.51165 0.0
H653 H 0.68482 0.59973 0.52198 0.0
C654 C 0.80836 0.595 0.52419 0.0
C655 C 0.86995 0.58645 0.52451 0.0
C656 C 0.746 0.54584 0.5182 0.0
C657 C 0.86816 0.5279 0.51874 0.0
C658 C 0.80613 0.47845 0.51287 0.0
C659 C 0.68194 0.43702 0.50669 0.0
C660 C 0.6207 0.44603 0.50627 0.0
C661 C 0.74466 0.48676 0.51256 0.0
C662 C 0.62307 0.50558 0.5118 0.0
C663 C 0.6849 0.55475 0.51774 0.0
H664 H 0.1061 0.58289 0.67973 0.0
H665 H 0.3164 0.64843 0.66527 0.0
H666 H 0.3658 0.76856 0.67367 0.0
H667 H 0.34925 0.85546 0.68501 0.0
H668 H 0.13954 0.7889 0.6998 0.0
H669 H 0.0902 0.66893 0.69138 0.0
C670 C 0.16279 0.62337 0.67842 0.0
C671 C 0.20738 0.60652 0.67185 0.0
C672 C 0.19102 0.69234 0.68332 0.0
C673 C 0.2808 0.6597 0.6703 0.0
C674 C 0.30912 0.72857 0.67509 0.0
C675 C 0.29268 0.81484 0.68638 0.0
C676 C 0.24821 0.83155 0.69301 0.0
C677 C 0.26469 0.74558 0.68159 0.0
C678 C 0.17516 0.77779 0.69475 0.0
C679 C 0.1468 0.70904 0.68993 0.0
H680 H 0.37154 0.1737 0.86159 0.0
H681 H 0.49627 0.40006 0.85249 0.0
H682 H 0.58186 0.37713 0.84225 0.0
H683 H 0.62208 0.29313 0.83584 0.0
H684 H 0.49544 0.06608 0.84441 0.0
H685 H 0.41027 0.08907 0.85481 0.0
C686 C 0.41749 0.21801 0.85738 0.0
C687 C 0.42731 0.28845 0.85785 0.0
C688 C 0.46637 0.20442 0.85137 0.0
C689 C 0.48701 0.34515 0.85226 0.0
C690 C 0.53623 0.3322 0.8464 0.0
C691 C 0.57588 0.24869 0.83998 0.0
C692 C 0.56546 0.17811 0.83935 0.0
C693 C 0.52652 0.26208 0.84589 0.0
C694 C 0.50488 0.12104 0.84472 0.0
C695 C 0.45608 0.13409 0.8507 0.0
H696 H 0.50907 0.86804 0.84058 0.0
H697 H 0.65426 0.79582 0.82853 0.0
H698 H 0.5824 0.68005 0.83808 0.0
H699 H 0.47788 0.59897 0.84961 0.0
H700 H 0.33002 0.66902 0.86116 0.0
H701 H 0.40373 0.78633 0.85203 0.0
C702 C 0.52526 0.82715 0.84008 0.0
C703 C 0.58716 0.84077 0.83387 0.0
C704 C 0.48322 0.76036 0.84547 0.0
C705 C 0.60688 0.78683 0.83323 0.0
C706 C 0.56585 0.7206 0.8387 0.0
C707 C 0.46181 0.63994 0.85018 0.0
C708 C 0.39858 0.6253 0.85608 0.0
C709 C 0.50386 0.70675 0.84481 0.0
C710 C 0.37833 0.67883 0.85665 0.0
C711 C 0.42049 0.74593 0.85144 0.0
H712 H 0.95142 0.52432 1.00454 0.0
H713 H 0.78732 0.40559 0.02936 0.0
H714 H 0.71694 0.46095 0.0229 0.0
H715 H 0.70184 0.54341 1.0101 0.0
H716 H 0.8679 0.66169 0.98544 0.0
H717 H 0.93703 0.60622 0.99197 0.0
C718 C 0.90027 0.51043 1.00856 0.0
C719 C 0.87481 0.46071 0.01741 0.0
C720 C 0.86013 0.54249 1.00483 0.0
C721 C 0.80833 0.4436 0.02251 0.0
C722 C 0.76796 0.47527 0.01882 0.0
C723 C 0.75312 0.55704 1.00616 0.0
C724 C 0.77928 0.60686 0.99728 0.0
C725 C 0.79328 0.52483 1.00997 0.0
C726 C 0.84608 0.62378 0.9923 0.0
C727 C 0.88592 0.59199 0.99601 0.0
H728 H 0.43862 0.89814 0.18002 0.0
H729 H 0.36515 0.69957 0.19843 0.0
H730 H 0.24642 0.6463 0.18926 0.0
H731 H 0.16304 0.65672 0.17603 0.0
H732 H 0.2401 0.85518 0.15732 0.0
H733 H 0.35753 0.90735 0.16656 0.0
C734 C 0.39661 0.84325 0.18206 0.0
C735 C 0.41065 0.80307 0.18994 0.0
C736 C 0.32897 0.81271 0.17667 0.0
C737 C 0.3558 0.73173 0.19239 0.0
C738 C 0.28785 0.70122 0.18715 0.0
C739 C 0.20557 0.71128 0.17395 0.0
C740 C 0.19231 0.75178 0.16599 0.0
C741 C 0.27375 0.74124 0.17927 0.0
C742 C 0.2484 0.82241 0.16339 0.0
C743 C 0.31578 0.85259 0.16869 0.0
H744 H 0.62939 0.33804 0.35768 0.0
H745 H 0.51765 0.44634 0.34523 0.0
H746 H 0.43412 0.33795 0.33478 0.0
H747 H 0.39238 0.21221 0.32915 0.0
H748 H 0.50204 0.10271 0.342 0.0
H749 H 0.58634 0.2115 0.35228 0.0
C750 C 0.5869 0.33797 0.35266 0.0
C751 C 0.58003 0.4003 0.35223 0.0
C752 C 0.5384 0.27511 0.34674 0.0
C753 C 0.52421 0.39908 0.34574 0.0
C754 C 0.47635 0.3371 0.33974 0.0
C755 C 0.43471 0.21211 0.33419 0.0
C756 C 0.44072 0.14928 0.33477 0.0
C757 C 0.48288 0.27477 0.34018 0.0
C758 C 0.49583 0.15015 0.3414 0.0
C759 C 0.54429 0.21245 0.34729 0.0
H760 H 0.12919 0.53496 0.51679 0.0
H761 H 0.34716 0.67979 0.52864 0.0
H762 H 0.39028 0.60561 0.51945 0.0
H763 H 0.36626 0.50074 0.50788 0.0
H764 H 0.14883 0.35852 0.49553 0.0
H765 H 0.10536 0.43085 0.50513 0.0
C766 C 0.18614 0.55026 0.51741 0.0
C767 C 0.23488 0.6128 0.52341 0.0
C768 C 0.21065 0.50794 0.51201 0.0
C769 C 0.30854 0.63204 0.52405 0.0
C770 C 0.33321 0.58961 0.51881 0.0
C771 C 0.30926 0.4853 0.50731 0.0
C772 C 0.26086 0.42408 0.50101 0.0
C773 C 0.28476 0.5276 0.51274 0.0
C774 C 0.18732 0.40534 0.50031 0.0
C775 C 0.16237 0.44665 0.5058 0.0
H776 H 0.58694 0.10298 0.67947 0.0
H777 H 0.65212 0.30969 0.69502 0.0
H778 H 0.77282 0.36075 0.68665 0.0
H779 H 0.85986 0.34693 0.67483 0.0
H780 H 0.79304 0.14067 0.65896 0.0
H781 H 0.67326 0.08947 0.66756 0.0
C782 C 0.6275 0.15922 0.68104 0.0
C783 C 0.61037 0.20237 0.68787 0.0
C784 C 0.69668 0.18841 0.67615 0.0
C785 C 0.66364 0.27522 0.68977 0.0
C786 C 0.73281 0.30449 0.685 0.0
C787 C 0.81923 0.29071 0.67328 0.0
C788 C 0.83575 0.24781 0.66627 0.0
C789 C 0.74995 0.2616 0.67817 0.0
C790 C 0.78204 0.17513 0.6643 0.0
C791 C 0.71339 0.14567 0.66922 0.0
H792 H 0.03954 0.58863 0.10917 0.0
H793 H 0.8226 0.4333 0.11996 0.0
H794 H 0.80428 0.36108 0.10309 0.0
H795 H 0.85066 0.34326 0.08509 0.0
H796 H 0.06542 0.50282 0.07414 0.0
H797 H 0.08349 0.57408 0.09107 0.0
C798 C 0.98785 0.53951 0.10775 0.0
C799 C 0.93216 0.51661 0.1157 0.0
C800 C 0.97724 0.49976 0.09794 0.0
C801 C 0.86627 0.45178 0.11393 0.0
C802 C 0.85567 0.41087 0.10427 0.0
C803 C 0.90082 0.39415 0.08642 0.0
C804 C 0.95654 0.41869 0.07846 0.0
C805 C 0.91066 0.43458 0.09618 0.0
C806 C 0.02183 0.4839 0.08019 0.0
C807 C 0.03223 0.52417 0.08987 0.0
H808 H 0.49182 0.84662 0.24773 0.0
H809 H 0.61333 0.07957 0.24473 0.0
H810 H 0.55811 0.09211 0.26186 0.0
H811 H 0.4774 0.03676 0.27788 0.0
H812 H 0.35441 0.80401 0.28102 0.0
H813 H 0.40889 0.7908 0.26379 0.0
C814 C 0.50551 0.89985 0.25085 0.0
C815 C 0.55641 0.96218 0.24512 0.0
C816 C 0.47396 0.90648 0.26075 0.0
C817 C 0.57432 0.0311 0.24912 0.0
C818 C 0.54298 0.03822 0.25889 0.0
C819 C 0.46231 0.98323 0.27471 0.0
C820 C 0.4117 0.92138 0.28056 0.0
C821 C 0.49317 0.97634 0.26481 0.0
C822 C 0.39334 0.85224 0.27658 0.0
C823 C 0.42417 0.84477 0.26673 0.0
H824 H 0.50825 0.35256 0.44191 0.0
H825 H 0.45591 0.51545 0.452 0.0
H826 H 0.5112 0.58456 0.43499 0.0
H827 H 0.57183 0.59685 0.4171 0.0
H828 H 0.62869 0.43686 0.40711 0.0
H829 H 0.57281 0.36704 0.42407 0.0
C830 C 0.50981 0.40354 0.44035 0.0
C831 C 0.47897 0.42973 0.4481 0.0
C832 C 0.54156 0.44268 0.43056 0.0
C833 C 0.48012 0.49517 0.4461 0.0
C834 C 0.51133 0.53429 0.43639 0.0
C835 C 0.57271 0.54713 0.41872 0.0
C836 C 0.60475 0.52218 0.41096 0.0
C837 C 0.5419 0.5084 0.42854 0.0
C838 C 0.60405 0.45685 0.41298 0.0
C839 C 0.57253 0.41725 0.42269 0.0
H840 H 0.17173 0.66912 0.58526 0.0
H841 H 0.95401 0.51651 0.57446 0.0
H842 H 0.9341 0.44351 0.59121 0.0
H843 H 0.97783 0.42496 0.60908 0.0
H844 H 0.19641 0.57506 0.61987 0.0
H845 H 0.21673 0.64864 0.60314 0.0
C846 C 0.12036 0.61952 0.5866 0.0
C847 C 0.06429 0.59759 0.57876 0.0
C848 C 0.10934 0.57827 0.59628 0.0
C849 C 0.99766 0.53374 0.58047 0.0
C850 C 0.98628 0.49239 0.59003 0.0
C851 C 0.0301 0.47346 0.60769 0.0
C852 C 0.08579 0.49447 0.61559 0.0
C853 C 0.04155 0.51438 0.59801 0.0
C854 C 0.15275 0.55817 0.61388 0.0
C855 C 0.16446 0.59985 0.6043 0.0
H856 H 0.40832 0.9758 0.75039 0.0
H857 H 0.57667 0.1852 0.73898 0.0
H858 H 0.64772 0.19976 0.75583 0.0
H859 H 0.66084 0.15272 0.77401 0.0
H860 H 0.48873 0.94649 0.78569 0.0
H861 H 0.4188 0.93136 0.76869 0.0
C862 C 0.46007 0.02509 0.75168 0.0
C863 C 0.48702 0.07967 0.74353 0.0
C864 C 0.49939 0.03374 0.76148 0.0
C865 C 0.55506 0.14234 0.74514 0.0
C866 C 0.59539 0.15085 0.75479 0.0
C867 C 0.60769 0.10501 0.7728 0.0
C868 C 0.57915 0.0509 0.78099 0.0
C869 C 0.56792 0.09704 0.76304 0.0
C870 C 0.51085 0.98881 0.77945 0.0
C871 C 0.47126 0.98012 0.76974 0.0
H872 H 0.58776 0.57524 0.94139 0.0
H873 H 0.40926 0.58921 0.9559 0.0
H874 H 0.33512 0.53197 0.93932 0.0
H875 H 0.32275 0.48048 0.92038 0.0
H876 H 0.50526 0.47556 0.90561 0.0
H877 H 0.57759 0.52917 0.92245 0.0
C878 C 0.53298 0.56674 0.94086 0.0
C879 C 0.50421 0.58702 0.9498 0.0
C880 C 0.49199 0.53633 0.9312 0.0
C881 C 0.43239 0.57359 0.94915 0.0
C882 C 0.3903 0.54149 0.93964 0.0
C883 C 0.37861 0.49201 0.92089 0.0
C884 C 0.40946 0.47508 0.91186 0.0
C885 C 0.41978 0.52321 0.93057 0.0
C886 C 0.48132 0.48915 0.9125 0.0
C887 C 0.52228 0.51928 0.92212 0.0
loop_
_geom_bond_atom_site_label_1
_geom_bond_atom_site_label_2
_geom_bond_distance
_geom_bond_site_symmetry_2
_ccdc_geom_bond_type
Co0 O3 1.970 . S
Co0 N17 1.989 . S
Co0 O25 1.967 1_655 S
Co0 O32 1.920 . S
Co1 O4 1.966 1_455 S
Co1 N10 2.022 . S
Co1 N18 1.993 . S
Co1 O26 1.941 . S
C2 O3 1.258 . S
C2 O4 1.263 . S
O3 Co0 1.970 . S
O3 C2 1.258 . S
O4 Co1 1.966 1_655 S
O4 C2 1.263 . S
C5 O6 1.235 . S
C5 O32 1.289 . S
O6 C5 1.235 . S
C7 C9 1.400 . S
C7 N10 1.351 . S
C7 C12 1.501 1_455 S
C8 C9 1.387 . S
C8 N11 1.341 . S
C9 C7 1.400 . S
C9 C8 1.387 . S
N10 Co1 2.022 . S
N10 C7 1.351 . S
N10 N11 1.365 . S
N11 C8 1.341 . S
N11 N10 1.365 . S
N11 H31 0.862 . S
C12 C7 1.501 1_655 S
C12 H13 0.961 . S
C12 H14 0.961 . S
C12 H15 0.960 . S
H13 C12 0.961 . S
H14 C12 0.961 . S
H15 C12 0.960 . S
C16 N17 1.342 . S
C16 C20 1.401 . S
C16 C21 1.499 . S
N17 Co0 1.989 . S
N17 C16 1.342 . S
N17 N18 1.388 1_655 S
N18 Co1 1.993 . S
N18 N17 1.388 1_455 S
N18 C19 1.346 . S
C19 N18 1.346 . S
C19 C20 1.395 1_455 S
C19 C29 1.511 . S
C20 C16 1.401 . S
C20 C19 1.395 1_655 S
C21 C16 1.499 . S
C21 H22 0.959 . S
C21 H23 0.960 . S
C21 H24 0.961 . S
H22 C21 0.959 . S
H23 C21 0.960 . S
H24 C21 0.961 . S
O25 Co0 1.967 1_455 S
O25 C33 1.258 . S
O26 Co1 1.941 . S
O26 C33 1.266 . S
H27 C29 0.959 . S
H28 C29 0.961 1_655 S
C29 C19 1.511 . S
C29 H27 0.959 . S
C29 H28 0.961 1_455 S
C29 H30 0.960 . S
H30 C29 0.960 . S
H31 N11 0.862 . S
O32 Co0 1.920 . S
O32 C5 1.289 . S
C33 O25 1.258 . S
C33 O26 1.266 . S
Co34 O37 1.970 . S
Co34 N51 1.989 . S
Co34 O59 1.967 1_565 S
Co34 O66 1.920 . S
Co35 O38 1.966 1_545 S
Co35 N44 2.022 . S
Co35 N52 1.993 . S
Co35 O60 1.941 . S
C36 O37 1.258 . S
C36 O38 1.263 . S
O37 Co34 1.970 . S
O37 C36 1.258 . S
O38 Co35 1.966 1_565 S
O38 C36 1.263 . S
C39 O40 1.235 . S
C39 O66 1.289 . S
O40 C39 1.235 . S
C41 C43 1.400 . S
C41 N44 1.351 . S
C41 C46 1.501 1_545 S
C42 C43 1.387 . S
C42 N45 1.341 . S
C43 C41 1.400 . S
C43 C42 1.387 . S
N44 Co35 2.022 . S
N44 C41 1.351 . S
N44 N45 1.365 . S
N45 C42 1.341 . S
N45 N44 1.365 . S
N45 H65 0.862 . S
C46 C41 1.501 1_565 S
C46 H47 0.961 . S
C46 H48 0.961 . S
C46 H49 0.960 . S
H47 C46 0.961 . S
H48 C46 0.961 . S
H49 C46 0.960 . S
C50 N51 1.342 . S
C50 C54 1.401 . S
C50 C55 1.499 . S
N51 Co34 1.989 . S
N51 C50 1.342 . S
N51 N52 1.388 1_565 S
N52 Co35 1.993 . S
N52 N51 1.388 1_545 S
N52 C53 1.347 1_545 S
C53 N52 1.347 1_565 S
C53 C54 1.392 . S
C53 C63 1.513 1_565 S
C54 C50 1.401 . S
C54 C53 1.392 . S
C55 C50 1.499 . S
C55 H56 0.959 . S
C55 H57 0.960 . S
C55 H58 0.961 . S
H56 C55 0.959 . S
H57 C55 0.960 . S
H58 C55 0.961 . S
O59 Co34 1.967 1_545 S
O59 C67 1.258 . S
O60 Co35 1.941 . S
O60 C67 1.266 . S
H61 C63 0.959 . S
H62 C63 0.961 1_565 S
C63 C53 1.513 1_545 S
C63 H61 0.959 . S
C63 H62 0.961 1_545 S
C63 H64 0.960 . S
H64 C63 0.960 . S
H65 N45 0.862 . S
O66 Co34 1.920 . S
O66 C39 1.289 . S
C67 O59 1.258 . S
C67 O60 1.266 . S
Co68 O71 1.970 . S
Co68 N85 1.989 . S
Co68 O93 1.967 . S
Co68 O100 1.920 . S
Co69 O72 1.966 . S
Co69 N78 2.022 . S
Co69 N86 1.993 . S
Co69 O94 1.941 . S
C70 O71 1.258 . S
C70 O72 1.263 . S
O71 Co68 1.970 . S
O71 C70 1.258 . S
O72 Co69 1.966 . S
O72 C70 1.263 . S
C73 O74 1.235 . S
C73 O100 1.289 . S
O74 C73 1.235 . S
C75 C77 1.400 . S
C75 N78 1.351 . S
C75 C80 1.501 . S
C76 C77 1.387 . S
C76 N79 1.341 . S
C77 C75 1.400 . S
C77 C76 1.387 . S
N78 Co69 2.022 . S
N78 C75 1.351 . S
N78 N79 1.365 . S
N79 C76 1.341 . S
N79 N78 1.365 . S
N79 H99 0.862 . S
C80 C75 1.501 . S
C80 H81 0.961 . S
C80 H82 0.961 . S
C80 H83 0.960 . S
H81 C80 0.961 . S
H82 C80 0.961 . S
H83 C80 0.960 . S
C84 N85 1.342 . S
C84 C88 1.401 . S
C84 C89 1.499 . S
N85 Co68 1.989 . S
N85 C84 1.342 . S
N85 N86 1.388 . S
N86 Co69 1.993 . S
N86 N85 1.388 . S
N86 C87 1.346 . S
C87 N86 1.346 . S
C87 C88 1.396 . S
C87 C97 1.510 . S
C88 C84 1.401 . S
C88 C87 1.396 . S
C89 C84 1.499 . S
C89 H90 0.959 . S
C89 H91 0.960 . S
C89 H92 0.961 . S
H90 C89 0.959 . S
H91 C89 0.960 . S
H92 C89 0.961 . S
O93 Co68 1.967 . S
O93 C101 1.258 . S
O94 Co69 1.941 . S
O94 C101 1.266 . S
H95 C97 0.959 . S
H96 C97 0.961 . S
C97 C87 1.510 . S
C97 H95 0.959 . S
C97 H96 0.961 . S
C97 H98 0.960 . S
H98 C97 0.960 . S
H99 N79 0.862 . S
O100 Co68 1.920 . S
O100 C73 1.289 . S
C101 O93 1.258 . S
C101 O94 1.266 . S
Co102 O105 1.970 . S
Co102 N119 1.989 . S
Co102 O127 1.967 1_455 S
Co102 O134 1.920 . S
Co103 O106 1.966 1_655 S
Co103 N112 2.022 . S
Co103 N120 1.993 . S
Co103 O128 1.941 . S
C104 O105 1.258 . S
C104 O106 1.263 . S
O105 Co102 1.970 . S
O105 C104 1.258 . S
O106 Co103 1.966 1_455 S
O106 C104 1.263 . S
C107 O108 1.235 . S
C107 O134 1.289 . S
O108 C107 1.235 . S
C109 C111 1.400 . S
C109 N112 1.351 . S
C109 C114 1.501 1_655 S
C110 C111 1.387 . S
C110 N113 1.341 . S
C111 C109 1.400 . S
C111 C110 1.387 . S
N112 Co103 2.022 . S
N112 C109 1.351 . S
N112 N113 1.365 . S
N113 C110 1.341 . S
N113 N112 1.365 . S
N113 H133 0.862 . S
C114 C109 1.501 1_455 S
C114 H115 0.961 . S
C114 H116 0.961 . S
C114 H117 0.960 . S
H115 C114 0.961 . S
H116 C114 0.961 . S
H117 C114 0.960 . S
C118 N119 1.342 . S
C118 C122 1.401 . S
C118 C123 1.499 . S
N119 Co102 1.989 . S
N119 C118 1.342 . S
N119 N120 1.388 1_455 S
N120 Co103 1.993 . S
N120 N119 1.388 1_655 S
N120 C121 1.346 . S
C121 N120 1.346 . S
C121 C122 1.395 1_655 S
C121 C131 1.511 . S
C122 C118 1.401 . S
C122 C121 1.395 1_455 S
C123 C118 1.499 . S
C123 H124 0.959 . S
C123 H125 0.960 . S
C123 H126 0.961 . S
H124 C123 0.959 . S
H125 C123 0.960 . S
H126 C123 0.961 . S
O127 Co102 1.967 1_655 S
O127 C135 1.258 . S
O128 Co103 1.941 . S
O128 C135 1.266 . S
H129 C131 0.959 . S
H130 C131 0.961 1_455 S
C131 C121 1.511 . S
C131 H129 0.959 . S
C131 H130 0.961 1_655 S
C131 H132 0.960 . S
H132 C131 0.960 . S
H133 N113 0.862 . S
O134 Co102 1.920 . S
O134 C107 1.289 . S
C135 O127 1.258 . S
C135 O128 1.266 . S
Co136 O139 1.970 . S
Co136 N153 1.989 . S
Co136 O161 1.967 1_545 S
Co136 O168 1.920 . S
Co137 O140 1.966 1_565 S
Co137 N146 2.022 . S
Co137 N154 1.993 . S
Co137 O162 1.941 . S
C138 O139 1.258 . S
C138 O140 1.263 . S
O139 Co136 1.970 . S
O139 C138 1.258 . S
O140 Co137 1.966 1_545 S
O140 C138 1.263 . S
C141 O142 1.235 . S
C141 O168 1.289 . S
O142 C141 1.235 . S
C143 C145 1.400 . S
C143 N146 1.351 . S
C143 C148 1.501 1_565 S
C144 C145 1.387 . S
C144 N147 1.341 . S
C145 C143 1.400 . S
C145 C144 1.387 . S
N146 Co137 2.022 . S
N146 C143 1.351 . S
N146 N147 1.365 . S
N147 C144 1.341 . S
N147 N146 1.365 . S
N147 H167 0.862 . S
C148 C143 1.501 1_545 S
C148 H149 0.961 . S
C148 H150 0.961 . S
C148 H151 0.960 . S
H149 C148 0.961 . S
H150 C148 0.961 . S
H151 C148 0.960 . S
C152 N153 1.342 . S
C152 C156 1.401 . S
C152 C157 1.499 . S
N153 Co136 1.989 . S
N153 C152 1.342 . S
N153 N154 1.388 1_545 S
N154 Co137 1.993 . S
N154 N153 1.388 1_565 S
N154 C155 1.347 1_565 S
C155 N154 1.347 1_545 S
C155 C156 1.392 . S
C155 C165 1.513 1_545 S
C156 C152 1.401 . S
C156 C155 1.392 . S
C157 C152 1.499 . S
C157 H158 0.959 . S
C157 H159 0.960 . S
C157 H160 0.961 . S
H158 C157 0.959 . S
H159 C157 0.960 . S
H160 C157 0.961 . S
O161 Co136 1.967 1_565 S
O161 C169 1.258 . S
O162 Co137 1.941 . S
O162 C169 1.266 . S
H163 C165 0.959 . S
H164 C165 0.961 1_545 S
C165 C155 1.513 1_565 S
C165 H163 0.959 . S
C165 H164 0.961 1_565 S
C165 H166 0.960 . S
H166 C165 0.960 . S
H167 N147 0.862 . S
O168 Co136 1.920 . S
O168 C141 1.289 . S
C169 O161 1.258 . S
C169 O162 1.266 . S
Co170 O173 1.970 . S
Co170 N187 1.989 . S
Co170 O195 1.967 . S
Co170 O202 1.920 . S
Co171 O174 1.966 . S
Co171 N180 2.022 . S
Co171 N188 1.993 . S
Co171 O196 1.941 . S
C172 O173 1.258 . S
C172 O174 1.263 . S
O173 Co170 1.970 . S
O173 C172 1.258 . S
O174 Co171 1.966 . S
O174 C172 1.263 . S
C175 O176 1.235 . S
C175 O202 1.289 . S
O176 C175 1.235 . S
C177 C179 1.400 . S
C177 N180 1.351 . S
C177 C182 1.501 . S
C178 C179 1.387 . S
C178 N181 1.341 . S
C179 C177 1.400 . S
C179 C178 1.387 . S
N180 Co171 2.022 . S
N180 C177 1.351 . S
N180 N181 1.365 . S
N181 C178 1.341 . S
N181 N180 1.365 . S
N181 H201 0.862 . S
C182 C177 1.501 . S
C182 H183 0.961 . S
C182 H184 0.961 . S
C182 H185 0.960 . S
H183 C182 0.961 . S
H184 C182 0.961 . S
H185 C182 0.960 . S
C186 N187 1.342 . S
C186 C190 1.401 . S
C186 C191 1.499 . S
N187 Co170 1.989 . S
N187 C186 1.342 . S
N187 N188 1.388 . S
N188 Co171 1.993 . S
N188 N187 1.388 . S
N188 C189 1.346 . S
C189 N188 1.346 . S
C189 C190 1.396 . S
C189 C199 1.510 . S
C190 C186 1.401 . S
C190 C189 1.396 . S
C191 C186 1.499 . S
C191 H192 0.959 . S
C191 H193 0.960 . S
C191 H194 0.961 . S
H192 C191 0.959 . S
H193 C191 0.960 . S
H194 C191 0.961 . S
O195 Co170 1.967 . S
O195 C203 1.258 . S
O196 Co171 1.941 . S
O196 C203 1.266 . S
H197 C199 0.959 . S
H198 C199 0.961 . S
C199 C189 1.510 . S
C199 H197 0.959 . S
C199 H198 0.961 . S
C199 H200 0.960 . S
H200 C199 0.960 . S
H201 N181 0.862 . S
O202 Co170 1.920 . S
O202 C175 1.289 . S
C203 O195 1.258 . S
C203 O196 1.266 . S
Co204 O207 1.970 . S
Co204 N221 1.989 . S
Co204 O229 1.967 1_545 S
Co204 O236 1.920 . S
Co205 O208 1.966 1_565 S
Co205 N214 2.022 . S
Co205 N222 1.993 . S
Co205 O230 1.941 . S
C206 O207 1.258 . S
C206 O208 1.263 . S
O207 Co204 1.970 . S
O207 C206 1.258 . S
O208 Co205 1.966 1_545 S
O208 C206 1.263 . S
C209 O210 1.235 . S
C209 O236 1.289 . S
O210 C209 1.235 . S
C211 C213 1.400 . S
C211 N214 1.351 . S
C211 C216 1.501 1_565 S
C212 C213 1.387 . S
C212 N215 1.341 . S
C213 C211 1.400 . S
C213 C212 1.387 . S
N214 Co205 2.022 . S
N214 C211 1.351 . S
N214 N215 1.365 . S
N215 C212 1.341 . S
N215 N214 1.365 . S
N215 H235 0.862 . S
C216 C211 1.501 1_545 S
C216 H217 0.961 . S
C216 H218 0.961 . S
C216 H219 0.960 . S
H217 C216 0.961 . S
H218 C216 0.961 . S
H219 C216 0.960 . S
C220 N221 1.342 . S
C220 C224 1.401 . S
C220 C225 1.499 . S
N221 Co204 1.989 . S
N221 C220 1.342 . S
N221 N222 1.388 1_545 S
N222 Co205 1.993 . S
N222 N221 1.388 1_565 S
N222 C223 1.346 . S
C223 N222 1.346 . S
C223 C224 1.395 1_565 S
C223 C233 1.511 . S
C224 C220 1.401 . S
C224 C223 1.395 1_545 S
C225 C220 1.499 . S
C225 H226 0.959 . S
C225 H227 0.960 . S
C225 H228 0.961 . S
H226 C225 0.959 . S
H227 C225 0.960 . S
H228 C225 0.961 . S
O229 Co204 1.967 1_565 S
O229 C237 1.258 . S
O230 Co205 1.941 . S
O230 C237 1.266 . S
H231 C233 0.959 . S
H232 C233 0.961 1_545 S
C233 C223 1.511 . S
C233 H231 0.959 . S
C233 H232 0.961 1_565 S
C233 H234 0.960 . S
H234 C233 0.960 . S
H235 N215 0.862 . S
O236 Co204 1.920 . S
O236 C209 1.289 . S
C237 O229 1.258 . S
C237 O230 1.266 . S
Co238 O241 1.970 . S
Co238 N255 1.989 . S
Co238 O263 1.967 . S
Co238 O270 1.920 . S
Co239 O242 1.966 . S
Co239 N248 2.022 . S
Co239 N256 1.993 . S
Co239 O264 1.941 . S
C240 O241 1.258 . S
C240 O242 1.263 . S
O241 Co238 1.970 . S
O241 C240 1.258 . S
O242 Co239 1.966 . S
O242 C240 1.263 . S
C243 O244 1.235 . S
C243 O270 1.289 . S
O244 C243 1.235 . S
C245 C247 1.400 . S
C245 N248 1.351 . S
C245 C250 1.501 . S
C246 C247 1.387 . S
C246 N249 1.341 . S
C247 C245 1.400 . S
C247 C246 1.387 . S
N248 Co239 2.022 . S
N248 C245 1.351 . S
N248 N249 1.365 . S
N249 C246 1.341 . S
N249 N248 1.365 . S
N249 H269 0.862 . S
C250 C245 1.501 . S
C250 H251 0.961 . S
C250 H252 0.961 . S
C250 H253 0.960 . S
H251 C250 0.961 . S
H252 C250 0.961 . S
H253 C250 0.960 . S
C254 N255 1.342 . S
C254 C258 1.401 . S
C254 C259 1.499 . S
N255 Co238 1.989 . S
N255 C254 1.342 . S
N255 N256 1.388 . S
N256 Co239 1.993 . S
N256 N255 1.388 . S
N256 C257 1.346 . S
C257 N256 1.346 . S
C257 C258 1.396 . S
C257 C267 1.510 . S
C258 C254 1.401 . S
C258 C257 1.396 . S
C259 C254 1.499 . S
C259 H260 0.959 . S
C259 H261 0.960 . S
C259 H262 0.961 . S
H260 C259 0.959 . S
H261 C259 0.960 . S
H262 C259 0.961 . S
O263 Co238 1.967 . S
O263 C271 1.258 . S
O264 Co239 1.941 . S
O264 C271 1.266 . S
H265 C267 0.959 . S
H266 C267 0.961 . S
C267 C257 1.510 . S
C267 H265 0.959 . S
C267 H266 0.961 . S
C267 H268 0.960 . S
H268 C267 0.960 . S
H269 N249 0.862 . S
O270 Co238 1.920 . S
O270 C243 1.289 . S
C271 O263 1.258 . S
C271 O264 1.266 . S
Co272 O275 1.970 . S
Co272 N289 1.989 . S
Co272 O297 1.967 1_655 S
Co272 O304 1.920 . S
Co273 O276 1.966 1_455 S
Co273 N282 2.022 . S
Co273 N290 1.993 . S
Co273 O298 1.941 . S
C274 O275 1.258 . S
C274 O276 1.263 . S
O275 Co272 1.970 . S
O275 C274 1.258 . S
O276 Co273 1.966 1_655 S
O276 C274 1.263 . S
C277 O278 1.235 . S
C277 O304 1.289 . S
O278 C277 1.235 . S
C279 C281 1.400 . S
C279 N282 1.351 . S
C279 C284 1.501 1_455 S
C280 C281 1.387 . S
C280 N283 1.341 . S
C281 C279 1.400 . S
C281 C280 1.387 . S
N282 Co273 2.022 . S
N282 C279 1.351 . S
N282 N283 1.365 . S
N283 C280 1.341 . S
N283 N282 1.365 . S
N283 H303 0.862 . S
C284 C279 1.501 1_655 S
C284 H285 0.961 . S
C284 H286 0.961 . S
C284 H287 0.960 . S
H285 C284 0.961 . S
H286 C284 0.961 . S
H287 C284 0.960 . S
C288 N289 1.342 . S
C288 C292 1.401 . S
C288 C293 1.499 . S
N289 Co272 1.989 . S
N289 C288 1.342 . S
N289 N290 1.388 1_655 S
N290 Co273 1.993 . S
N290 N289 1.388 1_455 S
N290 C291 1.347 1_455 S
C291 N290 1.347 1_655 S
C291 C292 1.392 . S
C291 C301 1.513 1_655 S
C292 C288 1.401 . S
C292 C291 1.392 . S
C293 C288 1.499 . S
C293 H294 0.959 . S
C293 H295 0.960 . S
C293 H296 0.961 . S
H294 C293 0.959 . S
H295 C293 0.960 . S
H296 C293 0.961 . S
O297 Co272 1.967 1_455 S
O297 C305 1.258 . S
O298 Co273 1.941 . S
O298 C305 1.266 . S
H299 C301 0.959 . S
H300 C301 0.961 1_655 S
C301 C291 1.513 1_455 S
C301 H299 0.959 . S
C301 H300 0.961 1_455 S
C301 H302 0.960 . S
H302 C301 0.960 . S
H303 N283 0.862 . S
O304 Co272 1.920 . S
O304 C277 1.289 . S
C305 O297 1.258 . S
C305 O298 1.266 . S
Co306 O309 1.970 . S
Co306 N323 1.989 . S
Co306 O331 1.967 1_565 S
Co306 O338 1.920 . S
Co307 O310 1.966 1_545 S
Co307 N316 2.022 . S
Co307 N324 1.993 . S
Co307 O332 1.941 . S
C308 O309 1.258 . S
C308 O310 1.263 . S
O309 Co306 1.970 . S
O309 C308 1.258 . S
O310 Co307 1.966 1_565 S
O310 C308 1.263 . S
C311 O312 1.235 . S
C311 O338 1.289 . S
O312 C311 1.235 . S
C313 C315 1.400 . S
C313 N316 1.351 . S
C313 C318 1.501 1_545 S
C314 C315 1.387 . S
C314 N317 1.341 . S
C315 C313 1.400 . S
C315 C314 1.387 . S
N316 Co307 2.022 . S
N316 C313 1.351 . S
N316 N317 1.365 . S
N317 C314 1.341 . S
N317 N316 1.365 . S
N317 H337 0.862 . S
C318 C313 1.501 1_565 S
C318 H319 0.961 . S
C318 H320 0.961 . S
C318 H321 0.960 . S
H319 C318 0.961 . S
H320 C318 0.961 . S
H321 C318 0.960 . S
C322 N323 1.342 . S
C322 C326 1.401 . S
C322 C327 1.499 . S
N323 Co306 1.989 . S
N323 C322 1.342 . S
N323 N324 1.388 1_565 S
N324 Co307 1.993 . S
N324 N323 1.388 1_545 S
N324 C325 1.346 . S
C325 N324 1.346 . S
C325 C326 1.395 1_545 S
C325 C335 1.511 . S
C326 C322 1.401 . S
C326 C325 1.395 1_565 S
C327 C322 1.499 . S
C327 H328 0.959 . S
C327 H329 0.960 . S
C327 H330 0.961 . S
H328 C327 0.959 . S
H329 C327 0.960 . S
H330 C327 0.961 . S
O331 Co306 1.967 1_545 S
O331 C339 1.258 . S
O332 Co307 1.941 . S
O332 C339 1.266 . S
H333 C335 0.959 . S
H334 C335 0.961 1_565 S
C335 C325 1.511 . S
C335 H333 0.959 . S
C335 H334 0.961 1_545 S
C335 H336 0.960 . S
H336 C335 0.960 . S
H337 N317 0.862 . S
O338 Co306 1.920 . S
O338 C311 1.289 . S
C339 O331 1.258 . S
C339 O332 1.266 . S
Co340 O343 1.970 . S
Co340 N357 1.989 . S
Co340 O365 1.967 . S
Co340 O372 1.920 . S
Co341 O344 1.966 . S
Co341 N350 2.022 . S
Co341 N358 1.993 . S
Co341 O366 1.941 . S
C342 O343 1.258 . S
C342 O344 1.263 . S
O343 Co340 1.970 . S
O343 C342 1.258 . S
O344 Co341 1.966 . S
O344 C342 1.263 . S
C345 O346 1.235 . S
C345 O372 1.289 . S
O346 C345 1.235 . S
C347 C349 1.400 . S
C347 N350 1.351 . S
C347 C352 1.501 . S
C348 C349 1.387 . S
C348 N351 1.341 . S
C349 C347 1.400 . S
C349 C348 1.387 . S
N350 Co341 2.022 . S
N350 C347 1.351 . S
N350 N351 1.365 . S
N351 C348 1.341 . S
N351 N350 1.365 . S
N351 H371 0.862 . S
C352 C347 1.501 . S
C352 H353 0.961 . S
C352 H354 0.961 . S
C352 H355 0.960 . S
H353 C352 0.961 . S
H354 C352 0.961 . S
H355 C352 0.960 . S
C356 N357 1.342 . S
C356 C360 1.401 . S
C356 C361 1.499 . S
N357 Co340 1.989 . S
N357 C356 1.342 . S
N357 N358 1.388 . S
N358 Co341 1.993 . S
N358 N357 1.388 . S
N358 C359 1.346 . S
C359 N358 1.346 . S
C359 C360 1.396 . S
C359 C369 1.510 . S
C360 C356 1.401 . S
C360 C359 1.396 . S
C361 C356 1.499 . S
C361 H362 0.959 . S
C361 H363 0.960 . S
C361 H364 0.961 . S
H362 C361 0.959 . S
H363 C361 0.960 . S
H364 C361 0.961 . S
O365 Co340 1.967 . S
O365 C373 1.258 . S
O366 Co341 1.941 . S
O366 C373 1.266 . S
H367 C369 0.959 . S
H368 C369 0.961 . S
C369 C359 1.510 . S
C369 H367 0.959 . S
C369 H368 0.961 . S
C369 H370 0.960 . S
H370 C369 0.960 . S
H371 N351 0.862 . S
O372 Co340 1.920 . S
O372 C345 1.289 . S
C373 O365 1.258 . S
C373 O366 1.266 . S
Co374 O377 1.970 . S
Co374 N391 1.989 . S
Co374 O399 1.967 1_455 S
Co374 O406 1.920 . S
Co375 O378 1.966 1_655 S
Co375 N384 2.022 . S
Co375 N392 1.993 . S
Co375 O400 1.941 . S
C376 O377 1.258 . S
C376 O378 1.263 . S
O377 Co374 1.970 . S
O377 C376 1.258 . S
O378 Co375 1.966 1_455 S
O378 C376 1.263 . S
C379 O380 1.235 . S
C379 O406 1.289 . S
O380 C379 1.235 . S
C381 C383 1.400 . S
C381 N384 1.351 . S
C381 C386 1.501 1_655 S
C382 C383 1.387 . S
C382 N385 1.341 . S
C383 C381 1.400 . S
C383 C382 1.387 . S
N384 Co375 2.022 . S
N384 C381 1.351 . S
N384 N385 1.365 . S
N385 C382 1.341 . S
N385 N384 1.365 . S
N385 H405 0.862 . S
C386 C381 1.501 1_455 S
C386 H387 0.961 . S
C386 H388 0.961 . S
C386 H389 0.960 . S
H387 C386 0.961 . S
H388 C386 0.961 . S
H389 C386 0.960 . S
C390 N391 1.342 . S
C390 C394 1.401 . S
C390 C395 1.499 . S
N391 Co374 1.989 . S
N391 C390 1.342 . S
N391 N392 1.388 1_455 S
N392 Co375 1.993 . S
N392 N391 1.388 1_655 S
N392 C393 1.347 1_655 S
C393 N392 1.347 1_455 S
C393 C394 1.392 . S
C393 C403 1.513 1_455 S
C394 C390 1.401 . S
C394 C393 1.392 . S
C395 C390 1.499 . S
C395 H396 0.959 . S
C395 H397 0.960 . S
C395 H398 0.961 . S
H396 C395 0.959 . S
H397 C395 0.960 . S
H398 C395 0.961 . S
O399 Co374 1.967 1_655 S
O399 C407 1.258 . S
O400 Co375 1.941 . S
O400 C407 1.266 . S
H401 C403 0.959 . S
H402 C403 0.961 1_455 S
C403 C393 1.513 1_655 S
C403 H401 0.959 . S
C403 H402 0.961 1_655 S
C403 H404 0.960 . S
H404 C403 0.960 . S
H405 N385 0.862 . S
O406 Co374 1.920 . S
O406 C379 1.289 . S
C407 O399 1.258 . S
C407 O400 1.266 . S
H408 C414 0.965 . S
H409 C417 0.930 . S
H410 C418 0.930 . S
H411 C419 0.930 . S
H412 C422 0.930 . S
H413 C423 0.930 1_565 S
C414 H408 0.965 . S
C414 C415 1.355 . S
C414 C416 1.415 1_556 S
C415 C414 1.355 . S
C415 C417 1.419 . S
C416 C414 1.415 1_554 S
C416 C421 1.425 1_564 S
C416 C423 1.409 1_565 S
C417 H409 0.930 . S
C417 C415 1.419 . S
C417 C418 1.362 1_565 S
C418 H410 0.930 . S
C418 C417 1.362 1_545 S
C418 C421 1.409 . S
C419 H411 0.930 . S
C419 C420 1.355 . S
C419 C421 1.415 1_554 S
C420 C419 1.355 . S
C420 C422 1.419 . S
C421 C416 1.425 1_546 S
C421 C418 1.409 . S
C421 C419 1.415 1_556 S
C422 H412 0.930 . S
C422 C420 1.419 . S
C422 C423 1.362 . S
C423 H413 0.930 1_545 S
C423 C416 1.409 1_545 S
C423 C422 1.362 . S
H424 C430 0.930 . S
H425 C433 0.930 . S
H426 C434 0.930 . S
H427 C435 0.930 . S
H428 C438 0.930 . S
H429 C439 0.930 . S
C430 H424 0.930 . S
C430 C431 1.355 . S
C430 C432 1.415 . S
C431 C430 1.355 . S
C431 C433 1.419 . S
C432 C430 1.415 . S
C432 C437 1.425 . S
C432 C439 1.409 . S
C433 H425 0.930 . S
C433 C431 1.419 . S
C433 C434 1.362 . S
C434 H426 0.930 . S
C434 C433 1.362 . S
C434 C437 1.409 . S
C435 H427 0.930 . S
C435 C436 1.355 . S
C435 C437 1.415 . S
C436 C435 1.355 . S
C436 C438 1.419 . S
C437 C432 1.425 . S
C437 C434 1.409 . S
C437 C435 1.415 . S
C438 H428 0.930 . S
C438 C436 1.419 . S
C438 C439 1.362 . S
C439 H429 0.930 . S
C439 C432 1.409 . S
C439 C438 1.362 . S
H440 C446 0.930 . S
H441 C449 0.930 . S
H442 C450 0.930 . S
H443 C451 0.930 . S
H444 C454 0.930 . S
H445 C455 0.930 . S
C446 H440 0.930 . S
C446 C447 1.355 . S
C446 C448 1.415 . S
C447 C446 1.355 . S
C447 C449 1.419 . S
C448 C446 1.415 . S
C448 C453 1.425 1_655 S
C448 C455 1.409 . S
C449 H441 0.930 . S
C449 C447 1.419 . S
C449 C450 1.362 1_655 S
C450 H442 0.930 . S
C450 C449 1.362 1_455 S
C450 C453 1.409 . S
C451 H443 0.930 . S
C451 C452 1.355 . S
C451 C453 1.415 . S
C452 C451 1.355 . S
C452 C454 1.419 . S
C453 C448 1.425 1_455 S
C453 C450 1.409 . S
C453 C451 1.415 . S
C454 H444 0.930 . S
C454 C452 1.419 . S
C454 C455 1.362 1_455 S
C455 H445 0.930 . S
C455 C448 1.409 . S
C455 C454 1.362 1_655 S
H456 C462 0.930 . S
H457 C465 0.930 . S
H458 C466 0.930 . S
H459 C467 0.930 . S
H460 C470 0.930 . S
H461 C471 0.930 1_545 S
C462 H456 0.930 . S
C462 C463 1.355 . S
C462 C464 1.415 . S
C463 C462 1.355 . S
C463 C465 1.419 . S
C464 C462 1.415 . S
C464 C469 1.425 1_545 S
C464 C471 1.409 1_545 S
C465 H457 0.930 . S
C465 C463 1.419 . S
C465 C466 1.362 1_545 S
C466 H458 0.930 . S
C466 C465 1.362 1_565 S
C466 C469 1.409 . S
C467 H459 0.930 . S
C467 C468 1.355 . S
C467 C469 1.415 . S
C468 C467 1.355 . S
C468 C470 1.419 . S
C469 C464 1.425 1_565 S
C469 C466 1.409 . S
C469 C467 1.415 . S
C470 H460 0.930 . S
C470 C468 1.419 . S
C470 C471 1.362 . S
C471 H461 0.930 1_565 S
C471 C464 1.409 1_565 S
C471 C470 1.362 . S
H472 C478 0.930 . S
H473 C481 0.930 . S
H474 C482 0.930 . S
H475 C483 0.930 . S
H476 C486 0.930 . S
H477 C487 0.930 . S
C478 H472 0.930 . S
C478 C479 1.355 . S
C478 C480 1.415 . S
C479 C478 1.355 . S
C479 C481 1.419 . S
C480 C478 1.415 . S
C480 C485 1.425 . S
C480 C487 1.409 . S
C481 H473 0.930 . S
C481 C479 1.419 . S
C481 C482 1.362 . S
C482 H474 0.930 . S
C482 C481 1.362 . S
C482 C485 1.409 . S
C483 H475 0.930 . S
C483 C484 1.355 . S
C483 C485 1.415 . S
C484 C483 1.355 . S
C484 C486 1.419 . S
C485 C480 1.425 . S
C485 C482 1.409 . S
C485 C483 1.415 . S
C486 H476 0.930 . S
C486 C484 1.419 . S
C486 C487 1.362 . S
C487 H477 0.930 . S
C487 C480 1.409 . S
C487 C486 1.362 . S
H488 C494 0.930 . S
H489 C497 0.930 . S
H490 C498 0.930 . S
H491 C499 0.930 . S
H492 C502 0.930 . S
H493 C503 0.930 . S
C494 H488 0.930 . S
C494 C495 1.355 . S
C494 C496 1.415 . S
C495 C494 1.355 . S
C495 C497 1.419 . S
C496 C494 1.415 . S
C496 C501 1.425 1_655 S
C496 C503 1.409 . S
C497 H489 0.930 . S
C497 C495 1.419 . S
C497 C498 1.362 1_655 S
C498 H490 0.930 . S
C498 C497 1.362 1_455 S
C498 C501 1.409 . S
C499 H491 0.930 . S
C499 C500 1.355 . S
C499 C501 1.415 . S
C500 C499 1.355 . S
C500 C502 1.419 . S
C501 C496 1.425 1_455 S
C501 C498 1.409 . S
C501 C499 1.415 . S
C502 H492 0.930 . S
C502 C500 1.419 . S
C502 C503 1.362 1_455 S
C503 H493 0.930 . S
C503 C496 1.409 . S
C503 C502 1.362 1_655 S
H504 C510 0.930 . S
H505 C513 0.930 . S
H506 C514 0.930 . S
H507 C515 0.930 . S
H508 C518 0.930 . S
H509 C519 0.930 . S
C510 H504 0.930 . S
C510 C511 1.355 . S
C510 C512 1.415 . S
C511 C510 1.355 . S
C511 C513 1.419 . S
C512 C510 1.415 . S
C512 C517 1.425 . S
C512 C519 1.409 1_545 S
C513 H505 0.930 . S
C513 C511 1.419 . S
C513 C514 1.362 . S
C514 H506 0.930 . S
C514 C513 1.362 . S
C514 C517 1.409 . S
C515 H507 0.930 . S
C515 C516 1.355 1_545 S
C515 C517 1.415 . S
C516 C515 1.355 1_565 S
C516 C518 1.419 . S
C517 C512 1.425 . S
C517 C514 1.409 . S
C517 C515 1.415 . S
C518 H508 0.930 . S
C518 C516 1.419 . S
C518 C519 1.362 . S
C519 H509 0.930 . S
C519 C512 1.409 1_565 S
C519 C518 1.362 . S
H520 C526 0.930 . S
H521 C529 0.930 . S
H522 C530 0.930 . S
H523 C531 0.930 1_565 S
H524 C534 0.930 . S
H525 C535 0.930 . S
C526 H520 0.930 . S
C526 C527 1.355 1_455 S
C526 C528 1.415 . S
C527 C526 1.355 1_655 S
C527 C529 1.419 1_545 S
C528 C526 1.415 . S
C528 C533 1.425 . S
C528 C535 1.409 . S
C529 H521 0.930 . S
C529 C527 1.419 1_565 S
C529 C530 1.362 . S
C530 H522 0.930 . S
C530 C529 1.362 . S
C530 C533 1.409 1_665 S
C531 H523 0.930 1_545 S
C531 C532 1.355 . S
C531 C533 1.415 . S
C532 C531 1.355 . S
C532 C534 1.419 . S
C533 C528 1.425 . S
C533 C530 1.409 1_445 S
C533 C531 1.415 . S
C534 H524 0.930 . S
C534 C532 1.419 . S
C534 C535 1.362 . S
C535 H525 0.930 . S
C535 C528 1.409 . S
C535 C534 1.362 . S
H536 C542 0.930 . S
H537 C545 0.930 . S
H538 C546 0.930 . S
H539 C547 0.930 . S
H540 C550 0.930 1_455 S
H541 C551 0.930 . S
C542 H536 0.930 . S
C542 C543 1.355 . S
C542 C544 1.415 . S
C543 C542 1.355 . S
C543 C545 1.419 1_455 S
C544 C542 1.415 . S
C544 C549 1.425 1_445 S
C544 C551 1.409 . S
C545 H537 0.930 . S
C545 C543 1.419 1_655 S
C545 C546 1.362 1_545 S
C546 H538 0.930 . S
C546 C545 1.362 1_565 S
C546 C549 1.409 . S
C547 H539 0.930 . S
C547 C548 1.355 . S
C547 C549 1.415 . S
C548 C547 1.355 . S
C548 C550 1.419 . S
C549 C544 1.425 1_665 S
C549 C546 1.409 . S
C549 C547 1.415 . S
C550 H540 0.930 1_655 S
C550 C548 1.419 . S
C550 C551 1.362 1_665 S
C551 H541 0.930 . S
C551 C544 1.409 . S
C551 C550 1.362 1_445 S
H552 C558 0.930 1_455 S
H553 C561 0.930 . S
H554 C562 0.930 . S
H555 C563 0.930 . S
H556 C566 0.930 . S
H557 C567 0.930 . S
C558 H552 0.930 1_655 S
C558 C559 1.355 . S
C558 C560 1.415 1_545 S
C559 C558 1.355 . S
C559 C561 1.419 . S
C560 C558 1.415 1_565 S
C560 C565 1.425 . S
C560 C567 1.409 1_655 S
C561 H553 0.930 . S
C561 C559 1.419 . S
C561 C562 1.362 . S
C562 H554 0.930 . S
C562 C561 1.362 . S
C562 C565 1.409 1_545 S
C563 H555 0.930 . S
C563 C564 1.355 . S
C563 C565 1.415 . S
C564 C563 1.355 . S
C564 C566 1.419 1_655 S
C565 C560 1.425 . S
C565 C562 1.409 1_565 S
C565 C563 1.415 . S
C566 H556 0.930 . S
C566 C564 1.419 1_455 S
C566 C567 1.362 . S
C567 H557 0.930 . S
C567 C560 1.409 1_455 S
C567 C566 1.362 . S
H568 C574 0.930 . S
H569 C577 0.930 . S
H570 C578 0.930 . S
H571 C579 0.930 1_545 S
H572 C582 0.930 . S
H573 C583 0.930 . S
C574 H568 0.930 . S
C574 C575 1.355 . S
C574 C576 1.415 1_455 S
C575 C574 1.355 . S
C575 C577 1.419 1_565 S
C576 C574 1.415 1_655 S
C576 C581 1.425 . S
C576 C583 1.409 . S
C577 H569 0.930 . S
C577 C575 1.419 1_545 S
C577 C578 1.362 1_455 S
C578 H570 0.930 . S
C578 C577 1.362 1_655 S
C578 C581 1.409 1_545 S
C579 H571 0.930 1_565 S
C579 C580 1.355 . S
C579 C581 1.415 . S
C580 C579 1.355 . S
C580 C582 1.419 . S
C581 C576 1.425 . S
C581 C578 1.409 1_565 S
C581 C579 1.415 . S
C582 H572 0.930 . S
C582 C580 1.419 . S
C582 C583 1.362 . S
C583 H573 0.930 . S
C583 C576 1.409 . S
C583 C582 1.362 . S
H584 C590 0.930 1_545 S
H585 C593 0.930 . S
H586 C594 0.930 1_455 S
H587 C595 0.930 1_565 S
H588 C598 0.930 . S
H589 C599 0.930 . S
C590 H584 0.930 1_565 S
C590 C591 1.355 . S
C590 C592 1.415 1_565 S
C591 C590 1.355 . S
C591 C593 1.419 . S
C592 C590 1.415 1_545 S
C592 C597 1.425 1_645 S
C592 C599 1.409 1_655 S
C593 H585 0.930 . S
C593 C591 1.419 . S
C593 C594 1.362 . S
C594 H586 0.930 1_655 S
C594 C593 1.362 . S
C594 C597 1.409 1_655 S
C595 H587 0.930 1_545 S
C595 C596 1.355 . S
C595 C597 1.415 1_545 S
C596 C595 1.355 . S
C596 C598 1.419 . S
C597 C592 1.425 1_465 S
C597 C594 1.409 1_455 S
C597 C595 1.415 1_565 S
C598 H588 0.930 . S
C598 C596 1.419 . S
C598 C599 1.362 . S
C599 H589 0.930 . S
C599 C592 1.409 1_455 S
C599 C598 1.362 . S
H600 C606 0.932 1_554 S
H601 C609 0.930 . S
H602 C610 0.930 . S
H603 C611 0.930 . S
H604 C614 0.930 . S
H605 C615 0.930 . S
C606 H600 0.932 1_556 S
C606 C607 1.347 . S
C606 C608 1.420 1_556 S
C607 C606 1.347 . S
C607 C609 1.419 . S
C608 C606 1.420 1_554 S
C608 C613 1.425 . S
C608 C615 1.409 . S
C609 H601 0.930 . S
C609 C607 1.419 . S
C609 C610 1.362 . S
C610 H602 0.930 . S
C610 C609 1.362 . S
C610 C613 1.409 1_556 S
C611 H603 0.930 . S
C611 C612 1.355 . S
C611 C613 1.415 . S
C612 C611 1.355 . S
C612 C614 1.419 . S
C613 C608 1.425 . S
C613 C610 1.409 1_554 S
C613 C611 1.415 . S
C614 H604 0.930 . S
C614 C612 1.419 . S
C614 C615 1.362 . S
C615 H605 0.930 . S
C615 C608 1.409 . S
C615 C614 1.362 . S
H616 C622 0.930 . S
H617 C625 0.930 . S
H618 C626 0.930 . S
H619 C627 0.930 . S
H620 C630 0.930 . S
H621 C631 0.930 . S
C622 H616 0.930 . S
C622 C623 1.355 . S
C622 C624 1.415 . S
C623 C622 1.355 . S
C623 C625 1.419 . S
C624 C622 1.415 . S
C624 C629 1.425 . S
C624 C631 1.409 . S
C625 H617 0.930 . S
C625 C623 1.419 . S
C625 C626 1.362 . S
C626 H618 0.930 . S
C626 C625 1.362 . S
C626 C629 1.409 . S
C627 H619 0.930 . S
C627 C628 1.355 . S
C627 C629 1.415 . S
C628 C627 1.355 . S
C628 C630 1.419 . S
C629 C624 1.425 . S
C629 C626 1.409 . S
C629 C627 1.415 . S
C630 H620 0.930 . S
C630 C628 1.419 . S
C630 C631 1.362 . S
C631 H621 0.930 . S
C631 C624 1.409 . S
C631 C630 1.362 . S
H632 C638 0.930 . S
H633 C641 0.930 . S
H634 C642 0.930 . S
H635 C643 0.930 . S
H636 C646 0.930 . S
H637 C647 0.930 . S
C638 H632 0.930 . S
C638 C639 1.355 . S
C638 C640 1.415 . S
C639 C638 1.355 . S
C639 C641 1.419 . S
C640 C638 1.415 . S
C640 C645 1.425 . S
C640 C647 1.409 . S
C641 H633 0.930 . S
C641 C639 1.419 . S
C641 C642 1.362 . S
C642 H634 0.930 . S
C642 C641 1.362 . S
C642 C645 1.409 . S
C643 H635 0.930 . S
C643 C644 1.355 . S
C643 C645 1.415 . S
C644 C643 1.355 . S
C644 C646 1.419 . S
C645 C640 1.425 . S
C645 C642 1.409 . S
C645 C643 1.415 . S
C646 H636 0.930 . S
C646 C644 1.419 . S
C646 C647 1.362 . S
C647 H637 0.930 . S
C647 C640 1.409 . S
C647 C646 1.362 . S
H648 C654 0.930 . S
H649 C657 0.930 . S
H650 C658 0.930 . S
H651 C659 0.930 . S
H652 C662 0.930 . S
H653 C663 0.930 . S
C654 H648 0.930 . S
C654 C655 1.355 . S
C654 C656 1.415 . S
C655 C654 1.355 . S
C655 C657 1.419 . S
C656 C654 1.415 . S
C656 C661 1.425 . S
C656 C663 1.409 . S
C657 H649 0.930 . S
C657 C655 1.419 . S
C657 C658 1.362 . S
C658 H650 0.930 . S
C658 C657 1.362 . S
C658 C661 1.409 . S
C659 H651 0.930 . S
C659 C660 1.355 . S
C659 C661 1.415 . S
C660 C659 1.355 . S
C660 C662 1.419 . S
C661 C656 1.425 . S
C661 C658 1.409 . S
C661 C659 1.415 . S
C662 H652 0.930 . S
C662 C660 1.419 . S
C662 C663 1.362 . S
C663 H653 0.930 . S
C663 C656 1.409 . S
C663 C662 1.362 . S
H664 C670 0.930 . S
H665 C673 0.930 . S
H666 C674 0.930 . S
H667 C675 0.930 . S
H668 C678 0.930 . S
H669 C679 0.930 . S
C670 H664 0.930 . S
C670 C671 1.355 . S
C670 C672 1.415 . S
C671 C670 1.355 . S
C671 C673 1.419 . S
C672 C670 1.415 . S
C672 C677 1.425 . S
C672 C679 1.409 . S
C673 H665 0.930 . S
C673 C671 1.419 . S
C673 C674 1.362 . S
C674 H666 0.930 . S
C674 C673 1.362 . S
C674 C677 1.409 . S
C675 H667 0.930 . S
C675 C676 1.355 . S
C675 C677 1.415 . S
C676 C675 1.355 . S
C676 C678 1.419 . S
C677 C672 1.425 . S
C677 C674 1.409 . S
C677 C675 1.415 . S
C678 H668 0.930 . S
C678 C676 1.419 . S
C678 C679 1.362 . S
C679 H669 0.930 . S
C679 C672 1.409 . S
C679 C678 1.362 . S
H680 C686 0.930 . S
H681 C689 0.930 . S
H682 C690 0.930 . S
H683 C691 0.930 . S
H684 C694 0.930 . S
H685 C695 0.930 . S
C686 H680 0.930 . S
C686 C687 1.355 . S
C686 C688 1.415 . S
C687 C686 1.355 . S
C687 C689 1.419 . S
C688 C686 1.415 . S
C688 C693 1.425 . S
C688 C695 1.409 . S
C689 H681 0.930 . S
C689 C687 1.419 . S
C689 C690 1.362 . S
C690 H682 0.930 . S
C690 C689 1.362 . S
C690 C693 1.409 . S
C691 H683 0.930 . S
C691 C692 1.355 . S
C691 C693 1.415 . S
C692 C691 1.355 . S
C692 C694 1.419 . S
C693 C688 1.425 . S
C693 C690 1.409 . S
C693 C691 1.415 . S
C694 H684 0.930 . S
C694 C692 1.419 . S
C694 C695 1.362 . S
C695 H685 0.930 . S
C695 C688 1.409 . S
C695 C694 1.362 . S
H696 C702 0.930 . S
H697 C705 0.930 . S
H698 C706 0.930 . S
H699 C707 0.930 . S
H700 C710 0.930 . S
H701 C711 0.930 . S
C702 H696 0.930 . S
C702 C703 1.355 . S
C702 C704 1.415 . S
C703 C702 1.355 . S
C703 C705 1.419 . S
C704 C702 1.415 . S
C704 C709 1.425 . S
C704 C711 1.409 . S
C705 H697 0.930 . S
C705 C703 1.419 . S
C705 C706 1.362 . S
C706 H698 0.930 . S
C706 C705 1.362 . S
C706 C709 1.409 . S
C707 H699 0.930 . S
C707 C708 1.355 . S
C707 C709 1.415 . S
C708 C707 1.355 . S
C708 C710 1.419 . S
C709 C704 1.425 . S
C709 C706 1.409 . S
C709 C707 1.415 . S
C710 H700 0.930 . S
C710 C708 1.419 . S
C710 C711 1.362 . S
C711 H701 0.930 . S
C711 C704 1.409 . S
C711 C710 1.362 . S
H712 C718 0.930 . S
H713 C721 0.930 . S
H714 C722 0.930 . S
H715 C723 0.983 . S
H716 C726 0.930 . S
H717 C727 0.930 . S
C718 H712 0.930 . S
C718 C719 1.355 1_556 S
C718 C720 1.415 . S
C719 C718 1.355 1_554 S
C719 C721 1.419 . S
C720 C718 1.415 . S
C720 C725 1.471 . S
C720 C727 1.409 . S
C721 H713 0.930 . S
C721 C719 1.419 . S
C721 C722 1.362 . S
C722 H714 0.930 . S
C722 C721 1.362 . S
C722 C725 1.338 1_554 S
C723 H715 0.983 . S
C723 C724 1.355 . S
C723 C725 1.446 . S
C724 C723 1.355 . S
C724 C726 1.419 . S
C725 C720 1.471 . S
C725 C722 1.338 1_556 S
C725 C723 1.446 . S
C726 H716 0.930 . S
C726 C724 1.419 . S
C726 C727 1.362 . S
C727 H717 0.930 . S
C727 C720 1.409 . S
C727 C726 1.362 . S
H728 C734 0.930 . S
H729 C737 0.930 . S
H730 C738 0.930 . S
H731 C739 0.930 . S
H732 C742 0.930 . S
H733 C743 0.930 . S
C734 H728 0.930 . S
C734 C735 1.355 . S
C734 C736 1.415 . S
C735 C734 1.355 . S
C735 C737 1.419 . S
C736 C734 1.415 . S
C736 C741 1.425 . S
C736 C743 1.409 . S
C737 H729 0.930 . S
C737 C735 1.419 . S
C737 C738 1.362 . S
C738 H730 0.930 . S
C738 C737 1.362 . S
C738 C741 1.409 . S
C739 H731 0.930 . S
C739 C740 1.355 . S
C739 C741 1.415 . S
C740 C739 1.355 . S
C740 C742 1.419 . S
C741 C736 1.425 . S
C741 C738 1.409 . S
C741 C739 1.415 . S
C742 H732 0.930 . S
C742 C740 1.419 . S
C742 C743 1.362 . S
C743 H733 0.930 . S
C743 C736 1.409 . S
C743 C742 1.362 . S
H744 C750 0.930 . S
H745 C753 0.930 . S
H746 C754 0.930 . S
H747 C755 0.930 . S
H748 C758 0.930 . S
H749 C759 0.930 . S
C750 H744 0.930 . S
C750 C751 1.355 . S
C750 C752 1.415 . S
C751 C750 1.355 . S
C751 C753 1.419 . S
C752 C750 1.415 . S
C752 C757 1.425 . S
C752 C759 1.409 . S
C753 H745 0.930 . S
C753 C751 1.419 . S
C753 C754 1.362 . S
C754 H746 0.930 . S
C754 C753 1.362 . S
C754 C757 1.409 . S
C755 H747 0.930 . S
C755 C756 1.355 . S
C755 C757 1.415 . S
C756 C755 1.355 . S
C756 C758 1.419 . S
C757 C752 1.425 . S
C757 C754 1.409 . S
C757 C755 1.415 . S
C758 H748 0.930 . S
C758 C756 1.419 . S
C758 C759 1.362 . S
C759 H749 0.930 . S
C759 C752 1.409 . S
C759 C758 1.362 . S
H760 C766 0.930 . S
H761 C769 0.930 . S
H762 C770 0.930 . S
H763 C771 0.930 . S
H764 C774 0.930 . S
H765 C775 0.930 . S
C766 H760 0.930 . S
C766 C767 1.355 . S
C766 C768 1.415 . S
C767 C766 1.355 . S
C767 C769 1.419 . S
C768 C766 1.415 . S
C768 C773 1.425 . S
C768 C775 1.409 . S
C769 H761 0.930 . S
C769 C767 1.419 . S
C769 C770 1.362 . S
C770 H762 0.930 . S
C770 C769 1.362 . S
C770 C773 1.409 . S
C771 H763 0.930 . S
C771 C772 1.355 . S
C771 C773 1.415 . S
C772 C771 1.355 . S
C772 C774 1.419 . S
C773 C768 1.425 . S
C773 C770 1.409 . S
C773 C771 1.415 . S
C774 H764 0.930 . S
C774 C772 1.419 . S
C774 C775 1.362 . S
C775 H765 0.930 . S
C775 C768 1.409 . S
C775 C774 1.362 . S
H776 C782 0.930 . S
H777 C785 0.930 . S
H778 C786 0.930 . S
H779 C787 0.930 . S
H780 C790 0.930 . S
H781 C791 0.930 . S
C782 H776 0.930 . S
C782 C783 1.355 . S
C782 C784 1.415 . S
C783 C782 1.355 . S
C783 C785 1.419 . S
C784 C782 1.415 . S
C784 C789 1.425 . S
C784 C791 1.409 . S
C785 H777 0.930 . S
C785 C783 1.419 . S
C785 C786 1.362 . S
C786 H778 0.930 . S
C786 C785 1.362 . S
C786 C789 1.409 . S
C787 H779 0.930 . S
C787 C788 1.355 . S
C787 C789 1.415 . S
C788 C787 1.355 . S
C788 C790 1.419 . S
C789 C784 1.425 . S
C789 C786 1.409 . S
C789 C787 1.415 . S
C790 H780 0.930 . S
C790 C788 1.419 . S
C790 C791 1.362 . S
C791 H781 0.930 . S
C791 C784 1.409 . S
C791 C790 1.362 . S
H792 C798 0.930 . S
H793 C801 0.930 . S
H794 C802 0.930 . S
H795 C803 0.930 . S
H796 C806 0.930 . S
H797 C807 0.930 . S
C798 H792 0.930 . S
C798 C799 1.355 1_455 S
C798 C800 1.415 . S
C799 C798 1.355 1_655 S
C799 C801 1.419 . S
C800 C798 1.415 . S
C800 C805 1.425 1_455 S
C800 C807 1.409 . S
C801 H793 0.930 . S
C801 C799 1.419 . S
C801 C802 1.362 . S
C802 H794 0.930 . S
C802 C801 1.362 . S
C802 C805 1.409 . S
C803 H795 0.930 . S
C803 C804 1.355 . S
C803 C805 1.415 . S
C804 C803 1.355 . S
C804 C806 1.419 1_655 S
C805 C800 1.425 1_655 S
C805 C802 1.409 . S
C805 C803 1.415 . S
C806 H796 0.930 . S
C806 C804 1.419 1_455 S
C806 C807 1.362 . S
C807 H797 0.930 . S
C807 C800 1.409 . S
C807 C806 1.362 . S
H808 C814 0.930 . S
H809 C817 0.930 . S
H810 C818 0.930 . S
H811 C819 0.929 . S
H812 C822 0.930 . S
H813 C823 0.930 . S
C814 H808 0.930 . S
C814 C815 1.355 . S
C814 C816 1.415 . S
C815 C814 1.355 . S
C815 C817 1.419 1_565 S
C816 C814 1.415 . S
C816 C821 1.425 . S
C816 C823 1.409 . S
C817 H809 0.930 . S
C817 C815 1.419 1_545 S
C817 C818 1.362 . S
C818 H810 0.930 . S
C818 C817 1.362 . S
C818 C821 1.409 1_545 S
C819 H811 0.929 . S
C819 C820 1.355 . S
C819 C821 1.415 . S
C820 C819 1.355 . S
C820 C822 1.419 . S
C821 C816 1.425 . S
C821 C818 1.409 1_565 S
C821 C819 1.415 . S
C822 H812 0.930 . S
C822 C820 1.419 . S
C822 C823 1.362 . S
C823 H813 0.930 . S
C823 C816 1.409 . S
C823 C822 1.362 . S
H824 C830 0.930 . S
H825 C833 0.930 . S
H826 C834 0.930 . S
H827 C835 0.930 . S
H828 C838 0.930 . S
H829 C839 0.930 . S
C830 H824 0.930 . S
C830 C831 1.355 . S
C830 C832 1.415 . S
C831 C830 1.355 . S
C831 C833 1.419 . S
C832 C830 1.415 . S
C832 C837 1.425 . S
C832 C839 1.409 . S
C833 H825 0.930 . S
C833 C831 1.419 . S
C833 C834 1.362 . S
C834 H826 0.930 . S
C834 C833 1.362 . S
C834 C837 1.409 . S
C835 H827 0.930 . S
C835 C836 1.355 . S
C835 C837 1.415 . S
C836 C835 1.355 . S
C836 C838 1.419 . S
C837 C832 1.425 . S
C837 C834 1.409 . S
C837 C835 1.415 . S
C838 H828 0.930 . S
C838 C836 1.419 . S
C838 C839 1.362 . S
C839 H829 0.930 . S
C839 C832 1.409 . S
C839 C838 1.362 . S
H840 C846 0.930 . S
H841 C849 0.930 . S
H842 C850 0.930 . S
H843 C851 0.930 . S
H844 C854 0.930 . S
H845 C855 0.930 . S
C846 H840 0.930 . S
C846 C847 1.355 . S
C846 C848 1.415 . S
C847 C846 1.355 . S
C847 C849 1.419 1_455 S
C848 C846 1.415 . S
C848 C853 1.425 1_455 S
C848 C855 1.409 . S
C849 H841 0.930 . S
C849 C847 1.419 1_655 S
C849 C850 1.362 . S
C850 H842 0.930 . S
C850 C849 1.362 . S
C850 C853 1.409 . S
C851 H843 0.930 . S
C851 C852 1.355 1_655 S
C851 C853 1.415 . S
C852 C851 1.355 1_455 S
C852 C854 1.419 . S
C853 C848 1.425 1_655 S
C853 C850 1.409 . S
C853 C851 1.415 . S
C854 H844 0.930 . S
C854 C852 1.419 . S
C854 C855 1.362 . S
C855 H845 0.930 . S
C855 C848 1.409 . S
C855 C854 1.362 . S
H856 C862 0.930 . S
H857 C865 0.930 . S
H858 C866 0.930 . S
H859 C867 0.930 . S
H860 C870 0.930 . S
H861 C871 0.930 . S
C862 H856 0.930 . S
C862 C863 1.355 1_565 S
C862 C864 1.415 . S
C863 C862 1.355 1_545 S
C863 C865 1.419 . S
C864 C862 1.415 . S
C864 C869 1.425 1_565 S
C864 C871 1.409 . S
C865 H857 0.930 . S
C865 C863 1.419 . S
C865 C866 1.362 . S
C866 H858 0.930 . S
C866 C865 1.362 . S
C866 C869 1.409 . S
C867 H859 0.930 . S
C867 C868 1.355 . S
C867 C869 1.415 . S
C868 C867 1.355 . S
C868 C870 1.419 1_545 S
C869 C864 1.425 1_545 S
C869 C866 1.409 . S
C869 C867 1.415 . S
C870 H860 0.930 . S
C870 C868 1.419 1_565 S
C870 C871 1.362 . S
C871 H861 0.930 . S
C871 C864 1.409 . S
C871 C870 1.362 . S
H872 C878 0.930 . S
H873 C881 0.930 . S
H874 C882 0.930 . S
H875 C883 0.930 . S
H876 C886 0.930 . S
H877 C887 0.930 . S
C878 H872 0.930 . S
C878 C879 1.355 . S
C878 C880 1.415 . S
C879 C878 1.355 . S
C879 C881 1.419 . S
C880 C878 1.415 . S
C880 C885 1.425 . S
C880 C887 1.409 . S
C881 H873 0.930 . S
C881 C879 1.419 . S
C881 C882 1.362 . S
C882 H874 0.930 . S
C882 C881 1.362 . S
C882 C885 1.409 . S
C883 H875 0.930 . S
C883 C884 1.355 . S
C883 C885 1.415 . S
C884 C883 1.355 . S
C884 C886 1.419 . S
C885 C880 1.425 . S
C885 C882 1.409 . S
C885 C883 1.415 . S
C886 H876 0.930 . S
C886 C884 1.419 . S
C886 C887 1.362 . S
C887 H877 0.930 . S
C887 C880 1.409 . S
C887 C886 1.362 . S
C415 C240 1.975 . S
C420 C2 1.969 . S
C431 C274 1.913 . S
C436 C36 1.923 . S
C447 C70 1.972 . S
C452 C308 1.970 . S
C463 C342 1.967 . S
C468 C104 1.972 . S
C479 C138 1.917 . S
C484 C376 1.919 . S
C495 C206 1.970 . S
C500 C172 1.970 . S
C511 C9 1.192 . S
C516 C281 1.158 . S
C527 C43 1.214 . S
C532 C315 1.151 . S
C543 C349 1.119 . S
C548 C77 1.171 . S
C559 C383 1.164 . S
C564 C111 1.184 . S
C575 C145 1.215 . S
C580 C213 1.187 . S
C591 C247 1.099 . S
C596 C179 1.149 . S
C607 C243 1.450 . S
C612 C33 1.478 . S
C623 C277 1.536 . S
C628 C67 1.565 . S
C639 C311 1.586 . S
C644 C101 1.606 . S
C655 C135 1.475 . S
C660 C345 1.482 . S
C671 C379 1.539 . S
C676 C169 1.566 . S
C687 C203 1.604 . S
C692 C209 1.602 . S
C703 C237 1.480 . S
C708 C175 1.461 . S
C719 C5 1.595 . S
C724 C271 1.605 . S
C735 C39 1.542 . S
C740 C305 1.566 . S
C751 C73 1.474 . S
C756 C339 1.476 . S
C767 C107 1.574 . S
C772 C373 1.607 . S
C783 C141 1.543 . S
C788 C407 1.563 . S
C799 C292 1.403 . S
C804 C20 1.402 . S
C815 C54 1.392 . S
C820 C326 1.393 . S
C831 C360 1.484 . S
C836 C88 1.486 . S
C847 C122 1.397 . S
C852 C394 1.398 . S
C863 C156 1.399 . S
C868 C224 1.398 . S
C879 C258 1.478 . S
C884 C190 1.477 . S
