# Generated by pormake.
# Topology wlc, (5)-cn, num edge types: 1
# Building blocks:
#     Node 0, Type 0, BuildingBlock: BEQFEK_clean_sbu_0, # of connection points: 5
#     Node 1, Type 0, BuildingBlock: BEQFEK_clean_sbu_0, # of connection points: 5
#     Node 2, Type 0, BuildingBlock: BEQFEK_clean_sbu_0, # of connection points: 5
#     Node 3, Type 0, BuildingBlock: BEQFEK_clean_sbu_0, # of connection points: 5
#     Node 4, Type 0, BuildingBlock: BEQFEK_clean_sbu_0, # of connection points: 5
#     Node 5, Type 0, BuildingBlock: BEQFEK_clean_sbu_0, # of connection points: 5
#     Node 6, Type 0, BuildingBlock: BEQFEK_clean_sbu_0, # of connection points: 5
#     Node 7, Type 0, BuildingBlock: BEQFEK_clean_sbu_0, # of connection points: 5
#     Node 8, Type 0, BuildingBlock: BEQFEK_clean_sbu_0, # of connection points: 5
#     Node 9, Type 0, BuildingBlock: BEQFEK_clean_sbu_0, # of connection points: 5
#     Node 10, Type 0, BuildingBlock: BEQFEK_clean_sbu_0, # of connection points: 5
#     Node 11, Type 0, BuildingBlock: BEQFEK_clean_sbu_0, # of connection points: 5
#     Edge 12, Type (0, 0), BuildingBlock: UVAHIK_clean_linker_0, # of connection points: 2
#     Edge 13, Type (0, 0), BuildingBlock: UVAHIK_clean_linker_0, # of connection points: 2
#     Edge 14, Type (0, 0), BuildingBlock: UVAHIK_clean_linker_0, # of connection points: 2
#     Edge 15, Type (0, 0), BuildingBlock: UVAHIK_clean_linker_0, # of connection points: 2
#     Edge 16, Type (0, 0), BuildingBlock: UVAHIK_clean_linker_0, # of connection points: 2
#     Edge 17, Type (0, 0), BuildingBlock: UVAHIK_clean_linker_0, # of connection points: 2
#     Edge 18, Type (0, 0), BuildingBlock: UVAHIK_clean_linker_0, # of connection points: 2
#     Edge 19, Type (0, 0), BuildingBlock: UVAHIK_clean_linker_0, # of connection points: 2
#     Edge 20, Type (0, 0), BuildingBlock: UVAHIK_clean_linker_0, # of connection points: 2
#     Edge 21, Type (0, 0), BuildingBlock: UVAHIK_clean_linker_0, # of connection points: 2
#     Edge 22, Type (0, 0), BuildingBlock: UVAHIK_clean_linker_0, # of connection points: 2
#     Edge 23, Type (0, 0), BuildingBlock: UVAHIK_clean_linker_0, # of connection points: 2
#     Edge 24, Type (0, 0), BuildingBlock: UVAHIK_clean_linker_0, # of connection points: 2
#     Edge 25, Type (0, 0), BuildingBlock: UVAHIK_clean_linker_0, # of connection points: 2
#     Edge 26, Type (0, 0), BuildingBlock: UVAHIK_clean_linker_0, # of connection points: 2
#     Edge 27, Type (0, 0), BuildingBlock: UVAHIK_clean_linker_0, # of connection points: 2
#     Edge 28, Type (0, 0), BuildingBlock: UVAHIK_clean_linker_0, # of connection points: 2
#     Edge 29, Type (0, 0), BuildingBlock: UVAHIK_clean_linker_0, # of connection points: 2
#     Edge 30, Type (0, 0), BuildingBlock: UVAHIK_clean_linker_0, # of connection points: 2
#     Edge 31, Type (0, 0), BuildingBlock: UVAHIK_clean_linker_0, # of connection points: 2
#     Edge 32, Type (0, 0), BuildingBlock: UVAHIK_clean_linker_0, # of connection points: 2
#     Edge 33, Type (0, 0), BuildingBlock: UVAHIK_clean_linker_0, # of connection points: 2
#     Edge 34, Type (0, 0), BuildingBlock: UVAHIK_clean_linker_0, # of connection points: 2
#     Edge 35, Type (0, 0), BuildingBlock: UVAHIK_clean_linker_0, # of connection points: 2
#     Edge 36, Type (0, 0), BuildingBlock: UVAHIK_clean_linker_0, # of connection points: 2
#     Edge 37, Type (0, 0), BuildingBlock: UVAHIK_clean_linker_0, # of connection points: 2
#     Edge 38, Type (0, 0), BuildingBlock: UVAHIK_clean_linker_0, # of connection points: 2
#     Edge 39, Type (0, 0), BuildingBlock: UVAHIK_clean_linker_0, # of connection points: 2
#     Edge 40, Type (0, 0), BuildingBlock: UVAHIK_clean_linker_0, # of connection points: 2
#     Edge 41, Type (0, 0), BuildingBlock: UVAHIK_clean_linker_0, # of connection points: 2
# Relax obj value: 0.765
# Max RMSD: 0.283
# Mean RMSD: 0.283
data_MOF--net-wlc--node1-BEQFEK_clean_sbu_0--edge1-UVAHIK_clean_linker_0
_symmetry_space_group_name_H-M    P1
_symmetry_Int_Tables_number       1
_symmetry_cell_setting            triclinic
loop_
_symmetry_equiv_pos_as_xyz
'x, y, z'
_cell_length_a     59.769522
_cell_length_b     59.758876
_cell_length_c     37.605485
_cell_angle_alpha  90.000943
_cell_angle_beta   89.963054
_cell_angle_gamma 119.99876
loop_
_atom_site_label
_atom_site_type_symbol
_atom_site_fract_x
_atom_site_fract_y
_atom_site_fract_z
_atom_type_partial_charge
Co0 Co 0.06779 0.39337 0.14014 0.0
Co1 Co 0.05257 0.3499 0.08388 0.0
C2 C 0.10117 0.37074 0.12722 0.0
O3 O 0.09662 0.38706 0.14215 0.0
O4 O 0.08576 0.35487 0.10426 0.0
C5 C 0.09953 0.44315 0.1693 0.0
O6 O 0.11649 0.44364 0.14659 0.0
C7 C 0.05893 0.33306 0.01398 0.0
C8 C 0.02289 0.29567 0.00771 0.0
C9 C 0.04539 0.31301 0.99014 0.0
N10 N 0.04486 0.32798 0.04383 0.0
N11 N 0.02352 0.30542 0.04019 0.0
C12 C 0.08516 0.35635 0.00924 0.0
H13 H 0.0832 0.37288 -5e-05 0.0
H14 H 0.09664 0.35255 0.98944 0.0
H15 H 0.09553 0.36193 0.03502 0.0
C16 C 0.0579 0.41913 0.08095 0.0
N17 N 0.06116 0.39992 0.09368 0.0
N18 N 0.05319 0.38127 0.07 0.0
C19 C 0.04375 0.38785 0.04163 0.0
C20 C 0.04703 0.41233 0.04742 0.0
C21 C 0.06107 0.44154 0.10277 0.0
H22 H 0.0514 0.43454 0.12885 0.0
H23 H 0.08193 0.45498 0.10736 0.0
H24 H 0.05279 0.45234 0.08955 0.0
O25 O 0.03659 0.36329 0.15988 0.0
O26 O 0.02554 0.33169 0.12047 0.0
H27 H 0.01717 0.34996 0.02179 0.0
H28 H 0.01647 0.37599 -0.00189 0.0
C29 C 0.02907 0.36997 0.0117 0.0
H30 H 0.04285 0.3702 0.9918 0.0
H31 H 0.00908 0.29704 0.05947 0.0
O32 O 0.0772 0.42324 0.17103 0.0
C33 C 0.02182 0.34008 0.14975 0.0
Co34 Co 0.60715 0.67064 0.14403 0.0
Co35 Co 0.64741 0.69815 0.08313 0.0
C36 C 0.62939 0.72673 0.12951 0.0
O37 O 0.61438 0.70605 0.14588 0.0
O38 O 0.64386 0.72708 0.10443 0.0
C39 C 0.55924 0.65582 0.17441 0.0
O40 O 0.56018 0.67223 0.15037 0.0
C41 C 0.65915 0.71939 0.01178 0.0
C42 C 0.69378 0.71711 -0.00248 0.0
C43 C 0.67584 0.72307 0.9838 0.0
N44 N 0.66648 0.711 0.04017 0.0
N45 N 0.68752 0.71017 0.03176 0.0
C46 C 0.63655 0.72375 0.01199 0.0
H47 H 0.61844 0.7051 0.00805 0.0
H48 H 0.63835 0.7374 0.99067 0.0
H49 H 0.63511 0.73152 0.0381 0.0
C50 C 0.57802 0.63419 0.0872 0.0
N51 N 0.59804 0.65677 0.09821 0.0
N52 N 0.61514 0.66714 0.07247 0.0
C53 C 0.60662 0.65082 0.0443 0.0
C54 C 0.58257 0.62978 0.05257 0.0
C55 C 0.557 0.61521 0.11113 0.0
H56 H 0.56538 0.61366 0.13665 0.0
H57 H 0.54321 0.62208 0.11658 0.0
H58 H 0.54618 0.5957 0.09906 0.0
O59 O 0.63794 0.66935 0.16017 0.0
O60 O 0.66744 0.68996 0.11789 0.0
H61 H 0.64275 0.66101 0.0192 0.0
H62 H 0.61481 0.63499 -0.00246 0.0
C63 C 0.62229 0.65363 0.01179 0.0
H64 H 0.62135 0.66757 0.99335 0.0
H65 H 0.69689 0.70377 0.04886 0.0
O66 O 0.5781 0.65174 0.17709 0.0
C67 C 0.66063 0.67803 0.14759 0.0
Co68 Co 0.3296 0.93541 0.13317 0.0
Co69 Co 0.30112 0.94999 0.07632 0.0
C70 C 0.27334 0.90253 0.12226 0.0
O71 O 0.29436 0.90719 0.13674 0.0
O72 O 0.27275 0.91746 0.09858 0.0
C73 C 0.34591 0.90318 0.16536 0.0
O74 O 0.32776 0.88549 0.14515 0.0
C75 C 0.2788 0.94153 0.00585 0.0
C76 C 0.27514 0.97606 0.99671 0.0
C77 C 0.27157 0.95363 0.98061 0.0
N78 N 0.28667 0.9563 0.03517 0.0
N79 N 0.28411 0.97677 0.0298 0.0
C80 C 0.27761 0.91597 0.00284 0.0
H81 H 0.27396 0.90657 0.0293 0.0
H82 H 0.29638 0.91885 0.99312 0.0
H83 H 0.26228 0.90315 0.9839 0.0
C84 C 0.36417 0.94304 0.07378 0.0
N85 N 0.34197 0.94045 0.08648 0.0
N86 N 0.33162 0.9487 0.06273 0.0
C87 C 0.34777 0.95791 0.03443 0.0
C88 C 0.36856 0.95399 0.04027 0.0
C89 C 0.38297 0.93926 0.09569 0.0
H90 H 0.38726 0.95059 0.12061 0.0
H91 H 0.37422 0.91854 0.10268 0.0
H92 H 0.40139 0.94535 0.08146 0.0
O93 O 0.33153 0.96746 0.15115 0.0
O94 O 0.31063 0.97804 0.11159 0.0
H95 H 0.33627 0.98441 0.01464 0.0
H96 H 0.36451 0.98684 0.99308 0.0
C97 C 0.34537 0.97334 0.00483 0.0
H98 H 0.33312 0.96011 0.98349 0.0
H99 H 0.28913 0.99151 0.04834 0.0
O100 O 0.35008 0.92621 0.1644 0.0
C101 C 0.32319 0.98224 0.14057 0.0
Co102 Co 0.6117 0.94252 0.35751 0.0
Co103 Co 0.65491 0.957 0.41443 0.0
C104 C 0.63325 0.90822 0.37111 0.0
O105 O 0.61756 0.91337 0.35555 0.0
O106 O 0.64899 0.92329 0.39448 0.0
C107 C 0.56726 0.91264 0.3128 0.0
O108 O 0.5735 0.89451 0.31489 0.0
C109 C 0.67058 0.94986 0.48465 0.0
C110 C 0.70884 0.98476 0.49128 0.0
C111 C 0.69074 0.96254 0.50882 0.0
N112 N 0.67654 0.96405 0.45479 0.0
N113 N 0.6996 0.98469 0.45864 0.0
C114 C 0.64513 0.92572 0.49013 0.0
H115 H 0.63129 0.92348 0.4689 0.0
H116 H 0.63693 0.92603 0.51648 0.0
H117 H 0.64798 0.90876 0.48902 0.0
C118 C 0.58534 0.95081 0.41693 0.0
N119 N 0.60519 0.94873 0.40405 0.0
N120 N 0.62375 0.95696 0.42784 0.0
C121 C 0.61652 0.96567 0.45639 0.0
C122 C 0.59172 0.96154 0.45057 0.0
C123 C 0.56228 0.94599 0.39536 0.0
H124 H 0.56874 0.9598 0.37281 0.0
H125 H 0.55289 0.92611 0.38438 0.0
H126 H 0.54793 0.94833 0.41116 0.0
O127 O 0.6422 0.97354 0.33814 0.0
O128 O 0.67369 0.98369 0.37748 0.0
H129 H 0.62797 0.99291 0.49978 0.0
H130 H 0.63209 0.96556 0.50739 0.0
C131 C 0.63373 0.97977 0.48712 0.0
H132 H 0.65412 0.99101 0.47824 0.0
H133 H 0.70865 0.99906 0.43944 0.0
O134 O 0.58147 0.93435 0.32767 0.0
C135 C 0.66552 0.98775 0.34824 0.0
Co136 Co 0.06044 0.67303 0.35632 0.0
Co137 Co 0.04674 0.70113 0.41494 0.0
C138 C 0.0944 0.72894 0.36961 0.0
O139 O 0.08923 0.70813 0.35399 0.0
O140 O 0.07964 0.72943 0.39363 0.0
C141 C 0.0922 0.65645 0.32428 0.0
O142 O 0.10923 0.6733 0.34653 0.0
C143 C 0.05588 0.72275 0.48591 0.0
C144 C 0.02124 0.72589 0.49674 0.0
C145 C 0.04391 0.72945 0.51202 0.0
N146 N 0.04081 0.71516 0.45688 0.0
N147 N 0.0203 0.71743 0.46325 0.0
C148 C 0.08156 0.72408 0.48796 0.0
H149 H 0.07882 0.70502 0.49591 0.0
H150 H 0.09425 0.73871 0.50778 0.0
H151 H 0.09104 0.72887 0.46152 0.0
C152 C 0.05222 0.63716 0.41455 0.0
N153 N 0.05499 0.65962 0.40254 0.0
N154 N 0.04734 0.67002 0.4271 0.0
C155 C 0.03847 0.65373 0.45529 0.0
C156 C 0.04192 0.63275 0.44848 0.0
C157 C 0.05547 0.61833 0.3919 0.0
H158 H 0.04497 0.61533 0.36647 0.0
H159 H 0.07626 0.62635 0.38597 0.0
H160 H 0.0481 0.59934 0.40513 0.0
O161 O 0.02875 0.6721 0.33905 0.0
O162 O 0.01886 0.69289 0.37977 0.0
H163 H 0.01302 0.66578 0.47747 0.0
H164 H 0.01077 0.6374 0.49821 0.0
C165 C 0.02412 0.65644 0.48611 0.0
H166 H 0.03806 0.66856 0.50687 0.0
H167 H 0.00532 0.7125 0.44514 0.0
O168 O 0.06941 0.65296 0.32388 0.0
C169 C 0.01438 0.68071 0.35038 0.0
Co170 Co 0.33313 0.3938 0.36027 0.0
Co171 Co 0.3057 0.35122 0.4183 0.0
C172 C 0.27692 0.37011 0.37366 0.0
O173 O 0.29765 0.38616 0.35826 0.0
O174 O 0.2767 0.35486 0.39744 0.0
C175 C 0.34778 0.4425 0.33228 0.0
O176 O 0.33099 0.44087 0.35619 0.0
C177 C 0.28376 0.33726 0.48902 0.0
C178 C 0.28067 0.29932 0.49826 0.0
C179 C 0.27659 0.31791 0.51421 0.0
N180 N 0.29204 0.33062 0.45983 0.0
N181 N 0.2899 0.30778 0.4653 0.0
C182 C 0.28191 0.36129 0.49184 0.0
H183 H 0.27903 0.36737 0.46519 0.0
H184 H 0.30016 0.37722 0.50278 0.0
H185 H 0.26584 0.35814 0.50978 0.0
C186 C 0.36872 0.42125 0.41855 0.0
N187 N 0.34633 0.4015 0.40656 0.0
N188 N 0.3362 0.38326 0.43089 0.0
C189 C 0.35261 0.39065 0.45892 0.0
C190 C 0.37335 0.41524 0.45225 0.0
C191 C 0.38748 0.4434 0.39593 0.0
H192 H 0.38998 0.43608 0.37001 0.0
H193 H 0.37977 0.45658 0.39109 0.0
H194 H 0.40669 0.45466 0.40869 0.0
O195 O 0.33519 0.36383 0.34193 0.0
O196 O 0.31486 0.33275 0.38233 0.0
H197 H 0.3419 0.35307 0.47959 0.0
H198 H 0.36967 0.37951 0.50106 0.0
C199 C 0.3505 0.37329 0.48902 0.0
H200 H 0.33788 0.37407 0.50998 0.0
H201 H 0.29515 0.29822 0.44681 0.0
O202 O 0.35216 0.42387 0.32889 0.0
C203 C 0.32698 0.34081 0.35293 0.0
Co204 Co 0.93183 0.60156 0.85692 0.0
Co205 Co 0.94835 0.64395 0.91555 0.0
C206 C 0.9001 0.6258 0.87217 0.0
O207 O 0.90403 0.60948 0.85599 0.0
O208 O 0.91568 0.64069 0.89576 0.0
C209 C 0.89774 0.55369 0.82434 0.0
O210 O 0.88074 0.55521 0.84484 0.0
C211 C 0.9416 0.65872 0.98654 0.0
C212 C 0.97705 0.69638 0.99459 0.0
C213 C 0.95438 0.67837 0.01115 0.0
N214 N 0.95617 0.66467 0.95706 0.0
N215 N 0.97723 0.68733 0.96184 0.0
C216 C 0.91541 0.63518 0.99012 0.0
H217 H 0.90634 0.62858 0.96363 0.0
H218 H 0.91724 0.61926 0.00221 0.0
H219 H 0.90283 0.63923 0.00749 0.0
C220 C 0.9401 0.57347 0.9143 0.0
N221 N 0.93777 0.59353 0.90287 0.0
N222 N 0.94642 0.61167 0.92737 0.0
C223 C 0.95547 0.6039 0.95493 0.0
C224 C 0.9512 0.5792 0.94777 0.0
C225 C 0.9358 0.55122 0.89119 0.0
H226 H 0.94663 0.55864 0.86595 0.0
H227 H 0.91494 0.53944 0.88488 0.0
H228 H 0.94211 0.53864 0.90413 0.0
O229 O 0.9638 0.63149 0.83826 0.0
O230 O 0.97559 0.66235 0.8792 0.0
H231 H 0.98299 0.64106 0.97602 0.0
H232 H 0.98297 0.61404 -0.00208 0.0
C233 C 0.9707 0.62089 0.98533 0.0
H234 H 0.95727 0.62062 0.00584 0.0
H235 H 0.99187 0.69642 0.94296 0.0
O236 O 0.92115 0.57181 0.82499 0.0
C237 C 0.97905 0.65436 0.84938 0.0
Co238 Co 0.38946 0.32926 0.85862 0.0
Co239 Co 0.34792 0.30038 0.91737 0.0
C240 C 0.36713 0.27303 0.87006 0.0
O241 O 0.38267 0.29411 0.85494 0.0
O242 O 0.35208 0.27213 0.89469 0.0
C243 C 0.43694 0.3449 0.82412 0.0
O244 O 0.4364 0.32653 0.84394 0.0
C245 C 0.33564 0.27802 0.988 0.0
C246 C 0.29788 0.27475 -0.00055 0.0
C247 C 0.317 0.27099 0.01424 0.0
N248 N 0.32813 0.28598 0.95936 0.0
N249 N 0.30536 0.28365 0.96611 0.0
C250 C 0.35993 0.27657 0.98948 0.0
H251 H 0.36481 0.27255 0.96267 0.0
H252 H 0.37622 0.29537 -0.00165 0.0
H253 H 0.35783 0.26139 0.00842 0.0
C254 C 0.41757 0.36406 0.91714 0.0
N255 N 0.39772 0.3418 0.90506 0.0
N256 N 0.37983 0.33124 0.92978 0.0
C257 C 0.38752 0.3473 0.95824 0.0
C258 C 0.41197 0.36825 0.95135 0.0
C259 C 0.43944 0.38298 0.89425 0.0
H260 H 0.43162 0.38688 0.86978 0.0
H261 H 0.4515 0.37449 0.88646 0.0
H262 H 0.45184 0.40157 0.90801 0.0
O263 O 0.35877 0.33068 0.84233 0.0
O264 O 0.32825 0.30924 0.88301 0.0
H265 H 0.35019 0.33527 0.98103 0.0
H266 H 0.37654 0.36342 0.00186 0.0
C267 C 0.37068 0.34445 0.9894 0.0
H268 H 0.37252 0.3321 0.00979 0.0
H269 H 0.29528 0.2888 0.94835 0.0
O270 O 0.41848 0.34963 0.8262 0.0
C271 C 0.33582 0.32187 0.85392 0.0
Co272 Co 0.66875 0.0606 0.85522 0.0
Co273 Co 0.69512 0.04261 0.91094 0.0
C274 C 0.72506 0.08918 0.86316 0.0
O275 O 0.7047 0.08722 0.84984 0.0
O276 O 0.72422 0.07315 0.88618 0.0
C277 C 0.65468 0.09293 0.81553 0.0
O278 O 0.67819 0.11161 0.8227 0.0
C279 C 0.71868 0.05138 0.98036 0.0
C280 C 0.72056 0.01598 0.99058 0.0
C281 C 0.72561 0.03919 0.00582 0.0
N282 N 0.70958 0.03597 0.95176 0.0
N283 N 0.71105 0.01496 0.95775 0.0
C284 C 0.7212 0.07758 0.98246 0.0
H285 H 0.72446 0.0863 0.95557 0.0
H286 H 0.70305 0.0758 0.99297 0.0
H287 H 0.7373 0.09042 0.0004 0.0
C288 C 0.63665 0.05657 0.91608 0.0
N289 N 0.65771 0.05704 0.90256 0.0
N290 N 0.66682 0.04709 0.92561 0.0
C291 C 0.65083 0.03869 0.9541 0.0
C292 C 0.63146 0.0449 0.94922 0.0
C293 C 0.61923 0.06283 0.89499 0.0
H294 H 0.6307 0.08247 0.88351 0.0
H295 H 0.60344 0.0621 0.91133 0.0
H296 H 0.61052 0.04876 0.87291 0.0
O297 O 0.66439 0.02732 0.83742 0.0
O298 O 0.68253 0.01357 0.877 0.0
H299 H 0.65902 0.00938 0.97206 0.0
H300 H 0.63274 0.00988 0.99545 0.0
C301 C 0.65193 0.02196 0.98291 0.0
H302 H 0.66547 0.03436 0.00389 0.0
H303 H 0.70497 -0.00033 0.93984 0.0
O304 O 0.64754 0.07005 0.82575 0.0
C305 C 0.67048 0.01073 0.84788 0.0
Co306 Co 0.39382 0.06715 0.63736 0.0
Co307 Co 0.35226 0.05143 0.57788 0.0
C308 C 0.3701 0.09927 0.62239 0.0
O309 O 0.38618 0.09508 0.6387 0.0
O310 O 0.35542 0.08398 0.59836 0.0
C311 C 0.44104 0.10013 0.67267 0.0
O312 O 0.44043 0.11798 0.65296 0.0
C313 C 0.33947 0.0589 0.50609 0.0
C314 C 0.30166 0.02396 0.49663 0.0
C315 C 0.3205 0.04641 0.48054 0.0
N316 N 0.33238 0.04435 0.53565 0.0
N317 N 0.30961 0.02362 0.53005 0.0
C318 C 0.36354 0.08474 0.5032 0.0
H319 H 0.3796 0.08233 0.49304 0.0
H320 H 0.3606 0.09744 0.48455 0.0
H321 H 0.36926 0.094 0.52973 0.0
C322 C 0.42292 0.06002 0.58038 0.0
N323 N 0.40257 0.06193 0.59153 0.0
N324 N 0.38467 0.05327 0.56673 0.0
C325 C 0.39284 0.04448 0.53929 0.0
C326 C 0.4176 0.04909 0.54681 0.0
C327 C 0.44517 0.06465 0.60369 0.0
H328 H 0.43776 0.05315 0.62844 0.0
H329 H 0.4562 0.08539 0.61094 0.0
H330 H 0.45844 0.05933 0.59049 0.0
O331 O 0.36354 0.03497 0.65472 0.0
O332 O 0.3331 0.02364 0.61331 0.0
H333 H 0.35572 0.01774 0.51717 0.0
H334 H 0.38249 0.01577 0.49802 0.0
C335 C 0.37622 0.02905 0.50875 0.0
H336 H 0.37784 0.04229 0.48702 0.0
H337 H 0.29976 0.00901 0.54874 0.0
O338 O 0.42277 0.07687 0.67029 0.0
C339 C 0.3408 0.01983 0.64313 0.0
Co340 Co 0.91501 0.31891 0.63373 0.0
Co341 Co 0.94387 0.30204 0.58107 0.0
C342 C 0.89029 0.26539 0.60972 0.0
O343 O 0.88827 0.28339 0.62441 0.0
O344 O 0.91081 0.26993 0.5934 0.0
C345 C 0.87791 0.33244 0.65819 0.0
O346 O 0.86508 0.32055 0.62933 0.0
C347 C 0.94708 0.28359 0.51114 0.0
C348 C 0.98569 0.28719 0.51116 0.0
C349 C 0.96393 0.27955 0.49018 0.0
N350 N 0.95839 0.29307 0.54265 0.0
N351 N 0.98136 0.29494 0.54273 0.0
C352 C 0.92142 0.28048 0.50119 0.0
H353 H 0.91581 0.29108 0.52009 0.0
H354 H 0.92204 0.28766 0.47379 0.0
H355 H 0.9065 0.25972 0.50238 0.0
C356 C 0.93116 0.36138 0.58204 0.0
N357 N 0.92827 0.33841 0.59184 0.0
N358 N 0.94075 0.33167 0.56939 0.0
C359 C 0.95226 0.35045 0.5446 0.0
C360 C 0.94623 0.36972 0.55158 0.0
C361 C 0.92318 0.37693 0.6045 0.0
H362 H 0.92785 0.37593 0.63276 0.0
H363 H 0.90204 0.36883 0.602 0.0
H364 H 0.93302 0.39752 0.59642 0.0
O365 O 0.94319 0.31857 0.66109 0.0
O366 O 0.96631 0.30984 0.62311 0.0
H367 H 0.98436 0.34626 0.52852 0.0
H368 H 0.98039 0.36966 0.5026 0.0
C369 C 0.97014 0.35077 0.51647 0.0
H370 H 0.95882 0.33564 0.49652 0.0
H371 H 0.99417 0.30181 0.56413 0.0
O372 O 0.89944 0.33388 0.66471 0.0
C373 C 0.96227 0.31528 0.65435 0.0
Co374 Co 0.67025 0.60521 0.62904 0.0
Co375 Co 0.70123 0.65055 0.57591 0.0
C376 C 0.72696 0.62984 0.62439 0.0
O377 O 0.70535 0.61278 0.63675 0.0
O378 O 0.7285 0.64592 0.60088 0.0
C379 C 0.65301 0.5577 0.66731 0.0
O380 O 0.67633 0.56158 0.66129 0.0
C381 C 0.72609 0.66589 0.5072 0.0
C382 C 0.72958 0.70399 0.49804 0.0
C383 C 0.73367 0.68539 0.48212 0.0
N384 N 0.71747 0.67241 0.53614 0.0
N385 N 0.71997 0.6954 0.53081 0.0
C386 C 0.72727 0.64151 0.5043 0.0
H387 H 0.73082 0.63578 0.53083 0.0
H388 H 0.70851 0.62563 0.49457 0.0
H389 H 0.74268 0.644 0.48549 0.0
C390 C 0.6403 0.57964 0.56598 0.0
N391 N 0.66127 0.59933 0.58108 0.0
N392 N 0.67194 0.619 0.55904 0.0
C393 C 0.65695 0.61277 0.5296 0.0
C394 C 0.63674 0.58739 0.53281 0.0
C395 C 0.62148 0.55567 0.58553 0.0
H396 H 0.63193 0.54664 0.59772 0.0
H397 H 0.60616 0.54133 0.56792 0.0
H398 H 0.61221 0.56091 0.60701 0.0
O399 O 0.66639 0.63434 0.64653 0.0
O400 O 0.68947 0.66768 0.61037 0.0
H401 H 0.66812 0.65138 0.51281 0.0
H402 H 0.64075 0.62612 0.48907 0.0
C403 C 0.65967 0.63168 0.50143 0.0
H404 H 0.67265 0.63192 0.48021 0.0
H405 H 0.71428 0.70479 0.54899 0.0
O406 O 0.64707 0.57427 0.65681 0.0
C407 C 0.67495 0.65779 0.63745 0.0
C408 C 0.00098 0.31407 0.67833 0.0
C409 C 0.97847 0.31553 0.68421 0.0
C410 C 0.0147 0.31192 0.70708 0.0
C411 C 0.00405 0.28696 0.79689 0.0
H412 H 0.0744 0.33887 0.82023 0.0
C413 C 0.05921 0.33419 0.93061 0.0
C414 C 0.05003 0.31194 0.95177 0.0
C415 C 0.05802 0.33224 0.89361 0.0
C416 C 0.05488 0.324 0.81378 0.0
H417 H 0.95318 0.31656 0.72492 0.0
H418 H 0.97682 0.31248 0.77455 0.0
H419 H 0.05623 0.34022 0.76229 0.0
H420 H 0.03425 0.27049 0.95095 0.0
H421 H 0.0323 0.26705 0.88613 0.0
H422 H 0.00177 0.27159 0.84872 0.0
C423 C 0.98379 0.31294 0.74779 0.0
C424 C 0.04459 0.32472 0.78065 0.0
C425 C 0.97038 0.31545 0.71932 0.0
C426 C 0.0414 0.28794 0.93521 0.0
C427 C 0.04027 0.28599 0.89817 0.0
C428 C 0.01432 0.28611 0.82975 0.0
C429 C 0.00579 0.31075 0.74193 0.0
C430 C 0.01873 0.30686 0.77272 0.0
C431 C 0.04744 0.30797 0.87703 0.0
C432 C 0.03946 0.30527 0.8392 0.0
H433 H 0.00774 0.31414 0.65157 0.0
H434 H 0.03174 0.3104 0.7021 0.0
H435 H 0.98409 0.27288 0.79114 0.0
H436 H 0.06525 0.35286 0.94239 0.0
H437 H 0.06329 0.3495 0.87823 0.0
C438 C 0.64793 0.71427 0.93003 0.0
C439 C 0.67263 0.72651 0.94551 0.0
C440 C 0.64509 0.71364 0.89318 0.0
C441 C 0.67881 0.73845 0.80701 0.0
H442 H 0.63531 0.66726 0.77773 0.0
C443 C 0.69106 0.69727 0.67464 0.0
C444 C 0.67024 0.67419 0.66186 0.0
C445 C 0.68811 0.709 0.7051 0.0
C446 C 0.64696 0.68742 0.78496 0.0
H447 H 0.71368 0.74848 0.93455 0.0
H448 H 0.70873 0.74702 0.86987 0.0
H449 H 0.6364 0.67863 0.83947 0.0
H450 H 0.62947 0.64683 0.66778 0.0
H451 H 0.62374 0.66819 0.71932 0.0
H452 H 0.68979 0.74705 0.75226 0.0
C453 C 0.69156 0.7384 0.88636 0.0
C454 C 0.64766 0.69392 0.82063 0.0
C455 C 0.6944 0.73907 0.92334 0.0
C456 C 0.64584 0.66453 0.67747 0.0
C457 C 0.6427 0.67663 0.70723 0.0
C458 C 0.67789 0.73198 0.77101 0.0
C459 C 0.66688 0.72491 0.87091 0.0
C460 C 0.66397 0.71935 0.83223 0.0
C461 C 0.66414 0.69804 0.7228 0.0
C462 C 0.66238 0.70622 0.75965 0.0
H463 H 0.63073 0.70362 0.946 0.0
H464 H 0.62582 0.70317 0.88202 0.0
H465 H 0.69144 0.75826 0.81523 0.0
H466 H 0.71013 0.70493 0.6631 0.0
H467 H 0.70512 0.72537 0.71622 0.0
C468 C 0.33177 0.98812 0.69164 0.0
C469 C 0.3225 0.99909 0.66686 0.0
C470 C 0.31586 0.97251 0.71898 0.0
C471 C 0.26795 0.97148 0.77595 0.0
H472 H 0.26888 0.91301 0.81899 0.0
C473 C 0.24801 0.95191 0.92487 0.0
C474 C 0.26602 0.94733 0.9425 0.0
C475 C 0.24541 0.94946 0.88788 0.0
C476 C 0.26838 0.92933 0.80736 0.0
H477 H 0.28891 0.00105 0.64966 0.0
H478 H 0.2612 0.97425 0.69842 0.0
H479 H 0.28193 0.92405 0.75697 0.0
H480 H 0.29547 0.93668 0.93531 0.0
H481 H 0.29145 0.93293 0.87136 0.0
H482 H 0.25678 0.97842 0.82675 0.0
C483 C 0.28068 0.9775 0.69628 0.0
C484 C 0.27565 0.93547 0.77178 0.0
C485 C 0.29649 0.99273 0.6684 0.0
C486 C 0.28082 0.93951 0.92269 0.0
C487 C 0.27846 0.93736 0.8858 0.0
C488 C 0.26107 0.9656 0.81164 0.0
C489 C 0.29052 0.96796 0.72244 0.0
C490 C 0.2765 0.95724 0.75623 0.0
C491 C 0.26118 0.94291 0.86775 0.0
C492 C 0.26234 0.94516 0.82825 0.0
H493 H 0.35173 0.99266 0.69092 0.0
H494 H 0.32405 0.96563 0.73896 0.0
H495 H 0.26867 0.98853 0.76472 0.0
H496 H 0.23641 0.95801 0.93961 0.0
H497 H 0.23165 0.95355 0.87498 0.0
C498 C 0.67782 0.93201 0.56132 0.0
C499 C 0.69152 0.95718 0.54722 0.0
C500 C 0.67607 0.92804 0.59814 0.0
C501 C 0.65828 0.9326 0.67316 0.0
H502 H 0.71491 0.97469 0.73693 0.0
C503 C 0.64936 0.98369 0.79439 0.0
C504 C 0.6665 0.98988 0.82307 0.0
C505 C 0.64994 0.96889 0.76613 0.0
C506 C 0.6989 0.96221 0.71982 0.0
H507 H 0.71625 0.99761 0.5608 0.0
H508 H 0.71357 0.99065 0.62455 0.0
H509 H 0.72393 0.96996 0.67511 0.0
H510 H 0.69586 0.98324 0.8464 0.0
H511 H 0.69703 0.95748 0.79669 0.0
H512 H 0.63314 0.92616 0.71739 0.0
C513 C 0.70386 0.97398 0.60726 0.0
C514 C 0.70409 0.95973 0.6843 0.0
C515 C 0.70529 0.97797 0.57062 0.0
C516 C 0.68251 0.9789 0.82456 0.0
C517 C 0.68327 0.96425 0.79604 0.0
C518 C 0.65307 0.93519 0.70869 0.0
C519 C 0.68861 0.94909 0.62145 0.0
C520 C 0.68376 0.94596 0.66027 0.0
C521 C 0.66781 0.96011 0.76585 0.0
C522 C 0.67326 0.95107 0.73192 0.0
H523 H 0.66813 0.91536 0.54419 0.0
H524 H 0.66452 0.9086 0.60841 0.0
H525 H 0.64222 0.92188 0.65521 0.0
H526 H 0.63661 0.99165 0.79267 0.0
H527 H 0.63788 0.96622 0.74322 0.0
C528 C 0.04599 0.75179 0.56913 0.0
C529 C 0.05038 0.73413 0.55017 0.0
C530 C 0.04855 0.7535 0.60616 0.0
C531 C 0.03258 0.7362 0.68192 0.0
H532 H 0.07357 0.71323 0.73367 0.0
C533 C 0.0096 0.66317 0.79924 0.0
C534 C -0.00054 0.67256 0.82514 0.0
C535 C 0.02502 0.67922 0.77186 0.0
C536 C 0.06231 0.72008 0.71969 0.0
H537 H 0.06088 0.70441 0.555 0.0
H538 H 0.06473 0.70681 0.61901 0.0
H539 H 0.08458 0.72765 0.67211 0.0
H540 H 0.9988 0.70647 0.84416 0.0
H541 H 0.02522 0.73443 0.79539 0.0
H542 H 0.00992 0.72791 0.72924 0.0
C543 C 0.06038 0.72022 0.60562 0.0
C544 C 0.06842 0.72813 0.68436 0.0
C545 C 0.05815 0.71879 0.56869 0.0
C546 C 0.00644 0.69877 0.82455 0.0
C547 C 0.02146 0.71473 0.79668 0.0
C548 C 0.02677 0.72857 0.71738 0.0
C549 C 0.05499 0.73713 0.625 0.0
C550 C 0.05279 0.73499 0.66447 0.0
C551 C 0.0302 0.70483 0.76952 0.0
C552 C 0.04081 0.7193 0.73602 0.0
H553 H 0.03992 0.7638 0.55538 0.0
H554 H 0.04461 0.76702 0.62009 0.0
H555 H 0.0199 0.74108 0.66759 0.0
H556 H 0.00461 0.64306 0.79919 0.0
H557 H 0.03129 0.67102 0.75108 0.0
C558 C 0.28343 0.34068 0.57227 0.0
C559 C 0.26982 0.31812 0.55194 0.0
C560 C 0.27954 0.34019 0.60889 0.0
C561 C 0.26025 0.2945 0.68313 0.0
H562 H 0.27636 0.35612 0.73694 0.0
C563 C 0.29164 0.30327 0.82778 0.0
C564 C 0.31713 0.32389 0.83053 0.0
C565 C 0.27606 0.30219 0.79931 0.0
C566 C 0.27138 0.33861 0.72236 0.0
H567 H 0.24085 0.27755 0.5536 0.0
H568 H 0.23351 0.27669 0.61772 0.0
H569 H 0.26591 0.3539 0.67379 0.0
H570 H 0.3454 0.3608 0.80827 0.0
H571 H 0.31815 0.35922 0.75917 0.0
H572 H 0.26674 0.27967 0.73133 0.0
C573 C 0.24744 0.29475 0.60544 0.0
C574 C 0.2656 0.33738 0.68615 0.0
C575 C 0.25156 0.29522 0.56874 0.0
C576 C 0.32586 0.34462 0.8066 0.0
C577 C 0.31017 0.34378 0.77863 0.0
C578 C 0.2657 0.29562 0.71938 0.0
C579 C 0.26191 0.31709 0.62613 0.0
C580 C 0.26134 0.31586 0.6657 0.0
C581 C 0.28561 0.32199 0.7737 0.0
C582 C 0.27259 0.31818 0.73891 0.0
H583 H 0.29827 0.35842 0.56036 0.0
H584 H 0.29157 0.35763 0.62388 0.0
H585 H 0.25728 0.27768 0.66837 0.0
H586 H 0.28448 0.287 0.84586 0.0
H587 H 0.25715 0.28523 0.79613 0.0
C588 C 0.98887 0.69918 0.32357 0.0
C589 C 0.99379 0.67861 0.32671 0.0
C590 C 0.97409 0.69988 0.29518 0.0
C591 C 0.93171 0.66229 0.22008 0.0
H592 H 0.97785 0.72186 0.16325 0.0
C593 C 0.93878 0.65681 0.07001 0.0
C594 C 0.94781 0.679 0.04884 0.0
C595 C 0.93595 0.65814 0.10663 0.0
C596 C 0.96418 0.70543 0.17881 0.0
H597 H 0.98512 0.6415 0.3052 0.0
H598 H 0.95891 0.6424 0.2563 0.0
H599 H 0.98647 0.72113 0.22608 0.0
H600 H 0.96002 0.71974 0.04892 0.0
H601 H 0.95447 0.72204 0.11301 0.0
H602 H 0.90994 0.64613 0.1725 0.0
C603 C 0.96655 0.65809 0.27537 0.0
C604 C 0.96918 0.70504 0.21498 0.0
C605 C 0.9817 0.65764 0.30321 0.0
C606 C 0.953 0.70235 0.06475 0.0
C607 C 0.9499 0.70365 0.10143 0.0
C608 C 0.92648 0.66281 0.18397 0.0
C609 C 0.96359 0.67974 0.27013 0.0
C610 C 0.95376 0.68294 0.23551 0.0
C611 C 0.94205 0.6817 0.123 0.0
C612 C 0.94347 0.68381 0.16249 0.0
H613 H 0.99807 0.71563 0.34131 0.0
H614 H 0.97205 0.71677 0.29169 0.0
H615 H 0.91937 0.64513 0.23548 0.0
H616 H 0.93543 0.63874 0.05875 0.0
H617 H 0.93052 0.64096 0.12228 0.0
C618 C 0.30957 0.29653 0.32748 0.0
C619 C 0.32921 0.32257 0.3288 0.0
C620 C 0.3086 0.28078 0.29929 0.0
C621 C 0.30042 0.26809 0.21986 0.0
H622 H 0.35896 0.26926 0.17359 0.0
C623 C 0.3418 0.28044 0.07089 0.0
C624 C 0.3187 0.26557 0.05214 0.0
C625 C 0.34252 0.27828 0.10773 0.0
C626 C 0.34237 0.2687 0.18612 0.0
H627 H 0.36455 0.35185 0.30399 0.0
H628 H 0.36316 0.32427 0.25534 0.0
H629 H 0.36231 0.28243 0.23575 0.0
H630 H 0.27851 0.23597 0.05681 0.0
H631 H 0.27983 0.23149 0.12131 0.0
H632 H 0.28117 0.25673 0.16986 0.0
C633 C 0.34841 0.31603 0.27575 0.0
C634 C 0.34427 0.27604 0.22178 0.0
C635 C 0.34911 0.33188 0.30345 0.0
C636 C 0.29657 0.24763 0.07073 0.0
C637 C 0.29734 0.2452 0.10765 0.0
C638 C 0.29864 0.26115 0.1841 0.0
C639 C 0.32756 0.2907 0.27254 0.0
C640 C 0.32365 0.27677 0.23852 0.0
C641 C 0.32014 0.2611 0.12678 0.0
C642 C 0.32 0.26247 0.16633 0.0
H643 H 0.29395 0.28888 0.34666 0.0
H644 H 0.29235 0.26129 0.29739 0.0
H645 H 0.2843 0.26873 0.23199 0.0
H646 H 0.35897 0.29502 0.05752 0.0
H647 H 0.36028 0.29134 0.12139 0.0
C648 C 0.67487 0.01853 0.29831 0.0
C649 C 0.68384 0.00735 0.32322 0.0
C650 C 0.69039 0.03265 0.26973 0.0
C651 C 0.73478 0.02827 0.21131 0.0
H652 H 0.73594 0.08669 0.16468 0.0
C653 C 0.75014 0.04131 0.06073 0.0
C654 C 0.73235 0.04639 0.04347 0.0
C655 C 0.75402 0.04503 0.09745 0.0
C656 C 0.73585 0.07036 0.17732 0.0
H657 H 0.71667 0.00367 0.33935 0.0
H658 H 0.74364 0.02785 0.28852 0.0
H659 H 0.72487 0.07873 0.22771 0.0
H660 H 0.70451 0.05913 0.05108 0.0
H661 H 0.71077 0.06515 0.11458 0.0
H662 H 0.74336 0.01835 0.16067 0.0
C663 C 0.72471 0.02589 0.29147 0.0
C664 C 0.72971 0.06597 0.21345 0.0
C665 C 0.70933 0.01216 0.32054 0.0
C666 C 0.71901 0.05588 0.06334 0.0
C667 C 0.72265 0.05934 0.09997 0.0
C668 C 0.74053 0.03241 0.1751 0.0
C669 C 0.715 0.03548 0.26519 0.0
C670 C 0.72808 0.04427 0.23037 0.0
C671 C 0.73977 0.05342 0.11769 0.0
C672 C 0.73996 0.05283 0.15728 0.0
H673 H 0.65533 0.0152 0.29989 0.0
H674 H 0.68231 0.03961 0.24972 0.0
H675 H 0.73341 0.01123 0.22361 0.0
H676 H 0.76062 0.0339 0.04595 0.0
H677 H 0.76759 0.04055 0.1101 0.0
C678 C 0.34642 0.01371 0.18915 0.0
C679 C 0.32592 0.00288 0.16475 0.0
C680 C 0.34633 0.02903 0.21706 0.0
C681 C 0.34341 0.06522 0.27162 0.0
H682 H 0.28151 0.022 0.32629 0.0
C683 C 0.2989 0.04809 0.42457 0.0
C684 C 0.32141 0.05266 0.4424 0.0
C685 C 0.29891 0.05062 0.38759 0.0
C686 C 0.29866 0.03489 0.31129 0.0
H687 H 0.29018 0.00101 0.14879 0.0
H688 H 0.28968 0.02733 0.19843 0.0
H689 H 0.28324 0.01248 0.26403 0.0
H690 H 0.36156 0.06341 0.43564 0.0
H691 H 0.36156 0.06722 0.3716 0.0
H692 H 0.35918 0.0872 0.31917 0.0
C693 C 0.30591 0.02415 0.19562 0.0
C694 C 0.29963 0.02935 0.27546 0.0
C695 C 0.30626 0.00919 0.16721 0.0
C696 C 0.34412 0.06054 0.42281 0.0
C697 C 0.34408 0.06274 0.38589 0.0
C698 C 0.34233 0.07103 0.30737 0.0
C699 C 0.32551 0.03344 0.22145 0.0
C700 C 0.32241 0.04372 0.25576 0.0
C701 C 0.32133 0.05721 0.36764 0.0
C702 C 0.32039 0.05513 0.32812 0.0
H703 H 0.36188 0.00925 0.18772 0.0
H704 H 0.36157 0.03573 0.23674 0.0
H705 H 0.36113 0.07675 0.25686 0.0
H706 H 0.28113 0.04197 0.43917 0.0
H707 H 0.28113 0.04659 0.37456 0.0
C708 C 0.9842 0.28223 0.43126 0.0
C709 C 0.96172 0.27233 0.45209 0.0
C710 C 0.98258 0.27808 0.39465 0.0
C711 C 0.94097 0.27143 0.32178 0.0
H712 H 0.99275 0.26505 0.26768 0.0
C713 C 0.9925 0.33179 0.20122 0.0
C714 C 0.0018 0.32208 0.17461 0.0
C715 C 0.97795 0.31608 0.22938 0.0
C716 C 0.97765 0.26618 0.28211 0.0
H717 H 0.92001 0.24747 0.45111 0.0
H718 H 0.91715 0.24143 0.38677 0.0
H719 H 0.98675 0.25368 0.33058 0.0
H720 H 0.00141 0.28778 0.15488 0.0
H721 H 0.97629 0.26034 0.20476 0.0
H722 H 0.93312 0.28565 0.27384 0.0
C723 C 0.93598 0.25274 0.39895 0.0
C724 C 0.97441 0.2599 0.3182 0.0
C725 C 0.93764 0.2566 0.43576 0.0
C726 C 0.99451 0.29577 0.17511 0.0
C727 C 0.98022 0.2801 0.20365 0.0
C728 C 0.94434 0.2779 0.28571 0.0
C729 C 0.95842 0.26393 0.37799 0.0
C730 C 0.95694 0.26369 0.33871 0.0
C731 C 0.97267 0.29042 0.23172 0.0
C732 C 0.96361 0.27655 0.266 0.0
H733 H 0.00309 0.29422 0.44296 0.0
H734 H 0.00022 0.28717 0.37914 0.0
H735 H 0.92738 0.27458 0.33697 0.0
H736 H 0.99765 0.35194 0.20132 0.0
H737 H 0.97263 0.32469 0.25073 0.0
C738 C 0.67201 0.65637 0.19494 0.0
C739 C 0.67997 0.67656 0.17025 0.0
C740 C 0.68874 0.65759 0.22167 0.0
C741 C 0.73606 0.70609 0.27763 0.0
H742 H 0.73838 0.64832 0.32058 0.0
C743 C 0.75706 0.70763 0.42636 0.0
C744 C 0.73951 0.68482 0.44404 0.0
C745 C 0.75973 0.70787 0.38935 0.0
C746 C 0.738 0.6647 0.30895 0.0
H747 H 0.71218 0.71299 0.15249 0.0
H748 H 0.74132 0.7155 0.20014 0.0
H749 H 0.72466 0.6455 0.25878 0.0
H750 H 0.71092 0.64441 0.43676 0.0
H751 H 0.71517 0.6448 0.37292 0.0
H752 H 0.74703 0.72447 0.32829 0.0
C753 C 0.72222 0.69861 0.19842 0.0
C754 C 0.73034 0.66312 0.2735 0.0
C755 C 0.7056 0.69712 0.17116 0.0
C756 C 0.72528 0.66209 0.42422 0.0
C757 C 0.72774 0.66236 0.38734 0.0
C758 C 0.74336 0.70754 0.31319 0.0
C759 C 0.71361 0.67926 0.2246 0.0
C760 C 0.72824 0.68337 0.25802 0.0
C761 C 0.74451 0.68538 0.36927 0.0
C762 C 0.74323 0.68637 0.32978 0.0
H763 H 0.65238 0.64026 0.1947 0.0
H764 H 0.68148 0.64252 0.24167 0.0
H765 H 0.73439 0.72191 0.26648 0.0
H766 H 0.7682 0.72544 0.44106 0.0
H767 H 0.77305 0.72589 0.3764 0.0
C768 C 0.94451 0.53928 0.97789 0.0
C769 C 0.96155 0.56447 0.9661 0.0
C770 C 0.95379 0.52279 0.98745 0.0
C771 C 0.00852 0.51269 0.96824 0.0
H772 H 0.98011 0.46285 0.04499 0.0
C773 C 0.05297 0.4512 0.01519 0.0
C774 C 0.03626 0.42611 0.02761 0.0
C775 C 0.04326 0.46714 0.00472 0.0
C776 C 0.98796 0.47637 0.02307 0.0
H777 H 0.00158 0.59261 0.95588 0.0
H778 H 0.01806 0.56408 0.97353 0.0
H779 H 0.9653 0.49381 0.03657 0.0
H780 H 0.99638 0.39752 0.03785 0.0
H781 H 0.97915 0.4251 0.01861 0.0
H782 H 0.03121 0.49529 0.95478 0.0
C783 C 0.99748 0.55691 0.97508 0.0
C784 C 0.97956 0.49422 0.01838 0.0
C785 C 0.98816 0.57339 0.96556 0.0
C786 C 0.00955 0.41666 0.02768 0.0
C787 C -0.00021 0.43261 0.01725 0.0
C788 C 0.01691 0.49484 0.97292 0.0
C789 C 0.98033 0.53117 0.98514 0.0
C790 C 0.98979 0.51265 0.99097 0.0
C791 C 0.01662 0.45832 0.00671 0.0
C792 C 0.00676 0.47647 0.00043 0.0
H793 H 0.92385 0.53191 0.9778 0.0
H794 H 0.94 0.50306 0.99474 0.0
H795 H 0.01641 0.52625 0.94637 0.0
H796 H 0.07369 0.45899 0.01566 0.0
H797 H 0.0568 0.48687 0.99709 0.0
C798 C 0.54158 0.59726 0.02414 0.0
C799 C 0.56723 0.60521 0.03327 0.0
C800 C 0.52473 0.57171 0.01405 0.0
C801 C 0.52137 0.51019 0.98716 0.0
H802 H 0.45318 0.47931 0.0298 0.0
C803 C 0.45204 0.40057 0.9819 0.0
C804 C 0.42673 0.39273 0.97107 0.0
C805 C 0.46871 0.42613 0.9921 0.0
C806 C 0.47207 0.48768 0.01751 0.0
H807 H 0.59574 0.59324 0.03838 0.0
H808 H 0.5664 0.54849 0.02062 0.0
H809 H 0.48365 0.52517 0.03855 0.0
H810 H 0.39857 0.40492 0.96329 0.0
H811 H 0.42754 0.44964 0.98167 0.0
H812 H 0.5098 0.47264 0.9663 0.0
C813 C 0.55929 0.56198 0.0206 0.0
C814 C 0.48953 0.51401 0.02234 0.0
C815 C 0.57617 0.58761 0.03058 0.0
C816 C 0.41784 0.41044 0.97241 0.0
C817 C 0.43451 0.43604 0.98269 0.0
C818 C 0.50395 0.48385 0.98243 0.0
C819 C 0.53315 0.55353 0.01328 0.0
C820 C 0.51439 0.52563 0.00718 0.0
C821 C 0.4604 0.44438 0.9915 0.0
C822 C 0.47909 0.47226 -0.00242 0.0
H823 H 0.53425 0.61051 0.02657 0.0
H824 H 0.50488 0.566 0.00793 0.0
H825 H 0.54022 0.51853 0.97476 0.0
H826 H 0.45934 0.38725 0.98053 0.0
H827 H 0.4884 0.43183 -0.0007 0.0
C828 C 0.59905 0.05128 0.98241 0.0
C829 C 0.60638 0.03435 0.96765 0.0
C830 C 0.57324 0.04245 0.99131 0.0
C831 C 0.50806 0.99129 0.9651 0.0
H832 H 0.48578 0.01624 0.04508 0.0
C833 C 0.40113 0.94813 0.00692 0.0
C834 C 0.39337 0.96488 0.02109 0.0
C835 C 0.42692 0.95741 -0.00251 0.0
C836 C 0.49173 0.0094 0.02228 0.0
H837 H 0.59304 0.99486 0.9519 0.0
H838 H 0.54801 0.97908 0.96853 0.0
H839 H 0.53137 0.02954 0.0386 0.0
H840 H 0.4059 0.00444 0.03555 0.0
H841 H 0.45101 0.02096 0.01827 0.0
H842 H 0.4684 0.97104 0.94889 0.0
C843 C 0.56204 0.99927 0.97276 0.0
C844 C 0.51786 0.01693 0.01869 0.0
C845 C 0.58785 0.00815 0.96383 0.0
C846 C 0.41143 0.9913 0.02398 0.0
C847 C 0.43727 0.00062 0.01465 0.0
C848 C 0.48193 0.98373 0.96873 0.0
C849 C 0.55426 0.0165 0.98545 0.0
C850 C 0.52635 0.00791 0.9901 0.0
C851 C 0.44548 0.98362 0.0024 0.0
C852 C 0.47344 0.99267 -0.00262 0.0
H853 H 0.61301 0.07168 0.9849 0.0
H854 H 0.56795 0.0563 0.00076 0.0
H855 H 0.51397 0.98443 0.9423 0.0
H856 H 0.38756 0.92758 0.00528 0.0
H857 H 0.43258 0.94375 0.98846 0.0
C858 C 0.58506 0.99774 0.46935 0.0
C859 C 0.57716 0.97136 0.47054 0.0
C860 C 0.56805 0.00628 0.47958 0.0
C861 C 0.49804 0.98181 0.48411 0.0
H862 H 0.51828 0.04675 0.53155 0.0
C863 C 0.42499 0.01292 0.53017 0.0
C864 C 0.43287 0.03929 0.52861 0.0
C865 C 0.4422 0.00439 0.52107 0.0
C866 C 0.51239 0.02873 0.51779 0.0
H867 H 0.54613 0.93335 0.48472 0.0
H868 H 0.51656 0.94823 0.50358 0.0
H869 H 0.54977 0.03252 0.52396 0.0
H870 H 0.46424 0.07734 0.51533 0.0
H871 H 0.49418 0.06248 0.49836 0.0
H872 H 0.46069 0.97805 0.47781 0.0
C873 C 0.53567 0.96233 0.4943 0.0
C874 C 0.53043 0.02052 0.51361 0.0
C875 C 0.55267 0.95384 0.48408 0.0
C876 C 0.45771 0.05685 0.51619 0.0
C877 C 0.47491 0.04837 0.50705 0.0
C878 C 0.48 0.99003 0.48826 0.0
C879 C 0.54282 0.98853 0.49097 0.0
C880 C 0.52348 0.99695 0.49674 0.0
C881 C 0.46765 0.02214 0.51044 0.0
C882 C 0.48695 0.01361 0.50509 0.0
H883 H 0.60369 0.01148 0.45826 0.0
H884 H 0.57414 0.02655 0.47644 0.0
H885 H 0.49215 0.9638 0.4703 0.0
H886 H 0.40611 0.99916 0.54055 0.0
H887 H 0.43602 0.98411 0.5243 0.0
C888 C 0.04942 0.60057 0.4801 0.0
C889 C 0.03204 0.60825 0.46825 0.0
C890 C 0.04043 0.57519 0.4914 0.0
C891 C 0.98146 0.51406 0.5173 0.0
H892 H 0.02002 0.48248 0.48127 0.0
C893 C 0.94014 0.40407 0.52363 0.0
C894 C 0.95696 0.39565 0.53543 0.0
C895 C 0.94964 0.42994 0.51447 0.0
C896 C 0.00916 0.49105 0.49181 0.0
H897 H 0.99178 0.59593 0.45938 0.0
H898 H 0.97587 0.55153 0.47931 0.0
H899 H 0.03589 0.52823 0.47059 0.0
H900 H 0.99684 0.40731 0.54639 0.0
H901 H 0.01366 0.45258 0.52993 0.0
H902 H 0.95461 0.47679 0.53828 0.0
C903 C 0.99642 0.56511 0.48052 0.0
C904 C 0.0183 0.51733 0.48583 0.0
C905 C 0.00545 0.59054 0.46928 0.0
C906 C 0.98358 0.41327 0.53661 0.0
C907 C 0.99314 0.43919 0.52737 0.0
C908 C 0.97229 0.48777 0.52323 0.0
C909 C 0.01386 0.55693 0.49076 0.0
C910 C 0.00455 0.52917 0.49845 0.0
C911 C 0.9762 0.44795 0.51701 0.0
C912 C 0.98597 0.47591 0.51043 0.0
H913 H 0.07005 0.6139 0.47899 0.0
H914 H 0.05437 0.5697 0.49968 0.0
H915 H 0.97054 0.52259 0.52778 0.0
H916 H 0.91949 0.3908 0.52281 0.0
H917 H 0.93612 0.43594 0.50602 0.0
C918 C 0.59369 0.58159 0.51772 0.0
C919 C 0.61225 0.57403 0.51288 0.0
C920 C 0.56784 0.56474 0.50887 0.0
C921 C 0.52288 0.49495 0.50384 0.0
H922 H 0.47522 0.51491 0.46554 0.0
C923 C 0.41669 0.42163 0.46705 0.0
C924 C 0.39833 0.42952 0.47083 0.0
C925 C 0.44272 0.43876 0.47467 0.0
C926 C 0.48819 0.50909 0.47684 0.0
H927 H 0.61898 0.54389 0.49335 0.0
H928 H 0.57388 0.51456 0.47702 0.0
H929 H 0.52116 0.54667 0.46877 0.0
H930 H 0.39214 0.46072 0.48694 0.0
H931 H 0.43741 0.49043 0.5017 0.0
H932 H 0.48995 0.45745 0.51225 0.0
C933 C 0.57915 0.53332 0.488 0.0
C934 C 0.51456 0.52728 0.47842 0.0
C935 C 0.60499 0.55021 0.49675 0.0
C936 C 0.40599 0.45414 0.48446 0.0
C937 C 0.43195 0.47125 0.49225 0.0
C938 C 0.4965 0.47678 0.50238 0.0
C939 C 0.56012 0.53997 0.49531 0.0
C940 C 0.53222 0.52043 0.49191 0.0
C941 C 0.45079 0.46413 0.4861 0.0
C942 C 0.4788 0.48361 0.48892 0.0
H943 H 0.59882 0.59965 0.5309 0.0
H944 H 0.55367 0.57041 0.51503 0.0
H945 H 0.5359 0.48917 0.51509 0.0
H946 H 0.41123 0.40292 0.45567 0.0
H947 H 0.45667 0.43266 0.46936 0.0
C948 C 0.08877 0.46488 0.21723 0.0
C949 C 0.10461 0.46667 0.18855 0.0
C950 C 0.09101 0.48713 0.2325 0.0
C951 C 0.08469 0.53356 0.23835 0.0
H952 H 0.14856 0.5981 0.25301 0.0
C953 C 0.08194 0.62446 0.27569 0.0
C954 C 0.09818 0.63915 0.30365 0.0
C955 C 0.08563 0.60577 0.25889 0.0
C956 C 0.13059 0.58016 0.24917 0.0
H957 H 0.1361 0.49307 0.15446 0.0
H958 H 0.1396 0.53208 0.18064 0.0
H959 H 0.15007 0.56001 0.23261 0.0
H960 H 0.13177 0.6468 0.33489 0.0
H961 H 0.13776 0.61357 0.30622 0.0
H962 H 0.06515 0.55315 0.25589 0.0
C963 C 0.12571 0.51349 0.19165 0.0
C964 C 0.13145 0.55843 0.23725 0.0
C965 C 0.12366 0.49115 0.1766 0.0
C966 C 0.11896 0.63573 0.31337 0.0
C967 C 0.12246 0.61678 0.29683 0.0
C968 C 0.08384 0.55512 0.25037 0.0
C969 C 0.10888 0.51164 0.21908 0.0
C970 C 0.10847 0.53486 0.23194 0.0
C971 C 0.10539 0.60113 0.27007 0.0
C972 C 0.10674 0.57869 0.25592 0.0
H973 H 0.07415 0.44624 0.22729 0.0
H974 H 0.07823 0.4851 0.25424 0.0
H975 H 0.06661 0.51585 0.23386 0.0
H976 H 0.06599 0.62697 0.26732 0.0
H977 H 0.07255 0.59448 0.23772 0.0
C978 C 0.53499 0.62466 0.22316 0.0
C979 C 0.53517 0.63962 0.19426 0.0
C980 C 0.51175 0.60728 0.23958 0.0
C981 C 0.44478 0.56571 0.21788 0.0
H982 H 0.43596 0.55465 0.31978 0.0
C983 C 0.37874 0.46767 0.28383 0.0
C984 C 0.364 0.46697 0.31332 0.0
C985 C 0.39604 0.49119 0.26803 0.0
C986 C 0.43799 0.55775 0.2913 0.0
H987 H 0.51138 0.64888 0.16066 0.0
H988 H 0.47067 0.61805 0.18906 0.0
H989 H 0.47407 0.59306 0.2966 0.0
H990 H 0.35513 0.49016 0.34877 0.0
H991 H 0.38588 0.5314 0.32144 0.0
H992 H 0.40935 0.52977 0.21254 0.0
C993 C 0.48854 0.61994 0.19901 0.0
C994 C 0.45981 0.57958 0.2781 0.0
C995 C 0.51183 0.63759 0.18291 0.0
C996 C 0.36623 0.49012 0.32601 0.0
C997 C 0.38384 0.5137 0.31052 0.0
C998 C 0.42314 0.54372 0.23108 0.0
C999 C 0.4883 0.60435 0.22709 0.0
C1000 C 0.46364 0.58343 0.24128 0.0
C1001 C 0.39914 0.51443 0.28174 0.0
C1002 C 0.41987 0.53931 0.26786 0.0
H1003 H 0.55271 0.6259 0.23253 0.0
H1004 H 0.51201 0.59528 0.26098 0.0
H1005 H 0.44743 0.56818 0.18936 0.0
H1006 H 0.37734 0.4501 0.27345 0.0
H1007 H 0.40783 0.4913 0.24606 0.0
C1008 C 0.38108 0.91559 0.20971 0.0
C1009 C 0.36333 0.89727 0.18585 0.0
C1010 C 0.39921 0.91125 0.22682 0.0
C1011 C 0.4355 0.87801 0.2143 0.0
H1012 H 0.45797 0.9019 0.31059 0.0
C1013 C 0.5259 0.883 0.28114 0.0
C1014 C 0.54234 0.90701 0.29718 0.0
C1015 C 0.50144 0.87716 0.26902 0.0
C1016 C 0.45182 0.89506 0.28371 0.0
H1017 H 0.35003 0.85961 0.16205 0.0
H1018 H 0.38199 0.85208 0.19205 0.0
H1019 H 0.41818 0.89876 0.28837 0.0
H1020 H 0.54632 0.94393 0.31217 0.0
H1021 H 0.50382 0.93367 0.29125 0.0
H1022 H 0.46971 0.87511 0.20943 0.0
C1023 C 0.38183 0.86981 0.19732 0.0
C1024 C 0.4291 0.89326 0.27102 0.0
C1025 C 0.3635 0.87409 0.18032 0.0
C1026 C 0.53411 0.92521 0.30016 0.0
C1027 C 0.50968 0.91927 0.28844 0.0
C1028 C 0.45825 0.87972 0.22709 0.0
C1029 C 0.40005 0.88853 0.22038 0.0
C1030 C 0.42122 0.88563 0.23579 0.0
C1031 C 0.493 0.89511 0.27319 0.0
C1032 C 0.46704 0.88916 0.26146 0.0
H1033 H 0.3814 0.93362 0.21458 0.0
H1034 H 0.41325 0.92622 0.24404 0.0
H1035 H 0.42996 0.87222 0.18695 0.0
H1036 H 0.53173 0.8686 0.27843 0.0
H1037 H 0.48891 0.85843 0.25719 0.0
C1038 C 0.85683 0.35932 0.66397 0.0
C1039 C 0.87027 0.34815 0.67955 0.0
C1040 C 0.8545 0.3785 0.68206 0.0
C1041 C 0.8913 0.42822 0.74825 0.0
H1042 H 0.83568 0.44365 0.74129 0.0
C1043 C 0.86628 0.50759 0.80913 0.0
C1044 C 0.89061 0.52979 0.80438 0.0
C1045 C 0.86073 0.48421 0.7933 0.0
C1046 C 0.85127 0.43945 0.74362 0.0
H1047 H 0.88941 0.34609 0.72732 0.0
H1048 H 0.88459 0.37884 0.75933 0.0
H1049 H 0.82943 0.40254 0.71822 0.0
H1050 H 0.9276 0.54532 0.77761 0.0
H1051 H 0.9178 0.50473 0.74966 0.0
H1052 H 0.91311 0.46478 0.77374 0.0
C1053 C 0.87666 0.37356 0.73276 0.0
C1054 C 0.84776 0.41604 0.73026 0.0
C1055 C 0.87931 0.35473 0.71455 0.0
C1056 C 0.90879 0.52849 0.78213 0.0
C1057 C 0.90322 0.50521 0.76626 0.0
C1058 C 0.89479 0.45147 0.7615 0.0
C1059 C 0.86535 0.38653 0.71609 0.0
C1060 C 0.86783 0.41027 0.73231 0.0
C1061 C 0.87942 0.48268 0.77245 0.0
C1062 C 0.87498 0.45751 0.75895 0.0
H1063 H 0.84974 0.35459 0.63695 0.0
H1064 H 0.84575 0.38818 0.66845 0.0
H1065 H 0.90734 0.42464 0.7497 0.0
H1066 H 0.85184 0.50802 0.82609 0.0
H1067 H 0.84226 0.46713 0.79861 0.0
C1068 C 0.48212 0.35934 0.80418 0.0
C1069 C 0.45979 0.3615 0.8022 0.0
C1070 C 0.50438 0.37649 0.78545 0.0
C1071 C 0.52777 0.42448 0.71255 0.0
H1072 H 0.59093 0.45952 0.76778 0.0
C1073 C 0.6069 0.52712 0.68192 0.0
C1074 C 0.63276 0.53293 0.68216 0.0
C1075 C 0.58734 0.50316 0.69358 0.0
C1076 C 0.57358 0.44957 0.75181 0.0
H1077 H 0.44294 0.38267 0.77814 0.0
H1078 H 0.48167 0.41257 0.74575 0.0
H1079 H 0.55313 0.42173 0.79262 0.0
H1080 H 0.65848 0.51839 0.69553 0.0
H1081 H 0.62401 0.47637 0.71669 0.0
H1082 H 0.54785 0.453 0.67244 0.0
C1083 C 0.48199 0.39753 0.76145 0.0
C1084 C 0.55197 0.42794 0.76596 0.0
C1085 C 0.45984 0.38052 0.78025 0.0
C1086 C 0.63871 0.51443 0.69503 0.0
C1087 C 0.61906 0.49044 0.7071 0.0
C1088 C 0.54929 0.4461 0.6985 0.0
C1089 C 0.50459 0.39593 0.76423 0.0
C1090 C 0.52861 0.41575 0.74691 0.0
C1091 C 0.59319 0.48453 0.70601 0.0
C1092 C 0.57208 0.45933 0.7185 0.0
H1093 H 0.48263 0.34482 0.82084 0.0
H1094 H 0.5215 0.37475 0.78787 0.0
H1095 H 0.51016 0.41513 0.69701 0.0
H1096 H 0.60162 0.54092 0.67223 0.0
H1097 H 0.56758 0.49926 0.69313 0.0
C1098 C 0.64236 0.12394 0.78953 0.0
C1099 C 0.63534 0.09882 0.80075 0.0
C1100 C 0.62343 0.12972 0.77863 0.0
C1101 C 0.55488 0.10769 0.79083 0.0
H1102 H 0.55698 0.13679 0.69791 0.0
C1103 C 0.46405 0.08722 0.71597 0.0
C1104 C 0.46408 0.10624 0.69403 0.0
C1105 C 0.48647 0.09185 0.73349 0.0
C1106 C 0.55637 0.12924 0.7243 0.0
H1107 H 0.60308 0.05991 0.80836 0.0
H1108 H 0.5703 0.07008 0.78973 0.0
H1109 H 0.59452 0.13464 0.71923 0.0
H1110 H 0.48736 0.14543 0.67435 0.0
H1111 H 0.52674 0.15352 0.70516 0.0
H1112 H 0.51659 0.10156 0.79566 0.0
C1113 C 0.59035 0.08534 0.78967 0.0
C1114 C 0.57781 0.12796 0.7364 0.0
C1115 C 0.60918 0.0795 0.80006 0.0
C1116 C 0.48677 0.13038 0.69104 0.0
C1117 C 0.50932 0.13499 0.70852 0.0
C1118 C 0.53358 0.10912 0.77889 0.0
C1119 C 0.59724 0.11053 0.77933 0.0
C1120 C 0.57679 0.11625 0.76916 0.0
C1121 C 0.50946 0.1156 0.72948 0.0
C1122 C 0.53372 0.11896 0.74493 0.0
H1123 H 0.66238 0.13922 0.78972 0.0
H1124 H 0.62915 0.14926 0.77054 0.0
H1125 H 0.55389 0.09901 0.81651 0.0
H1126 H 0.44687 0.06844 0.71887 0.0
H1127 H 0.48603 0.07636 0.74901 0.0
C1128 C 0.25275 0.38907 0.34597 0.0
C1129 C 0.25283 0.36705 0.35871 0.0
C1130 C 0.23454 0.38672 0.32094 0.0
C1131 C 0.17456 0.3424 0.27328 0.0
H1132 H 0.20921 0.39054 0.19588 0.0
C1133 C 0.11947 0.34349 0.14787 0.0
C1134 C 0.12265 0.36808 0.14151 0.0
C1135 C 0.13644 0.34068 0.17064 0.0
C1136 C 0.19927 0.37695 0.21722 0.0
H1137 H 0.23265 0.32522 0.35796 0.0
H1138 H 0.20055 0.32103 0.3139 0.0
H1139 H 0.2339 0.39092 0.24752 0.0
H1140 H 0.14707 0.40908 0.1512 0.0
H1141 H 0.17692 0.40433 0.19003 0.0
H1142 H 0.13976 0.32883 0.243 0.0
C1143 C 0.21457 0.3401 0.32337 0.0
C1144 C 0.21334 0.37728 0.24693 0.0
C1145 C 0.23278 0.34247 0.34879 0.0
C1146 C 0.14426 0.38991 0.15562 0.0
C1147 C 0.16135 0.38716 0.17787 0.0
C1148 C 0.1604 0.34209 0.24343 0.0
C1149 C 0.21623 0.3623 0.30784 0.0
C1150 C 0.20104 0.3605 0.2757 0.0
C1151 C 0.15704 0.36248 0.18679 0.0
C1152 C 0.17255 0.35981 0.21549 0.0
H1153 H 0.268 0.40823 0.35332 0.0
H1154 H 0.2358 0.40414 0.3102 0.0
H1155 H 0.16463 0.32916 0.29497 0.0
H1156 H 0.10278 0.32633 0.13758 0.0
H1157 H 0.13286 0.32146 0.17679 0.0
C1158 C 0.65956 0.88884 0.35056 0.0
C1159 C 0.63525 0.88623 0.35731 0.0
C1160 C 0.66168 0.87123 0.32821 0.0
C1161 C 0.62417 0.80755 0.28436 0.0
H1162 H 0.67054 0.84005 0.20455 0.0
C1163 C 0.6102 0.75037 0.15826 0.0
C1164 C 0.63217 0.75075 0.1444 0.0
C1165 C 0.61271 0.76895 0.18278 0.0
C1166 C 0.6577 0.83069 0.22682 0.0
H1167 H 0.59407 0.86227 0.34873 0.0
H1168 H 0.59764 0.83128 0.31071 0.0
H1169 H 0.67193 0.86627 0.25545 0.0
H1170 H 0.67398 0.7719 0.14286 0.0
H1171 H 0.67848 0.80458 0.18612 0.0
H1172 H 0.60965 0.7721 0.25584 0.0
C1173 C 0.61509 0.84689 0.32222 0.0
C1174 C 0.65861 0.84564 0.25605 0.0
C1175 C 0.61302 0.86462 0.344 0.0
C1176 C 0.65675 0.77143 0.15288 0.0
C1177 C 0.6593 0.78998 0.17784 0.0
C1178 C 0.62329 0.79266 0.2553 0.0
C1179 C 0.63948 0.85057 0.31293 0.0
C1180 C 0.64143 0.83428 0.28474 0.0
C1181 C 0.63728 0.78808 0.19436 0.0
C1182 C 0.63957 0.80414 0.22579 0.0
H1183 H 0.67701 0.90552 0.36019 0.0
H1184 H 0.68069 0.87434 0.32173 0.0
H1185 H 0.61096 0.79822 0.30629 0.0
H1186 H 0.59104 0.73462 0.15203 0.0
H1187 H 0.59537 0.76746 0.1942 0.0
C1188 C 0.2496 0.86028 0.15276 0.0
C1189 C 0.24943 0.88184 0.13831 0.0
C1190 C 0.23127 0.84488 0.17802 0.0
C1191 C 0.17028 0.82941 0.22301 0.0
H1192 H 0.20357 0.81671 0.30288 0.0
C1193 C 0.11308 0.77435 0.34812 0.0
C1194 C 0.1161 0.75296 0.35542 0.0
C1195 C 0.13043 0.79394 0.32535 0.0
C1196 C 0.194 0.82016 0.28084 0.0
H1197 H 0.2287 0.90294 0.13643 0.0
H1198 H 0.19644 0.87587 0.18088 0.0
H1199 H 0.22918 0.84062 0.25153 0.0
H1200 H 0.14048 0.73615 0.3473 0.0
H1201 H 0.17102 0.77047 0.3086 0.0
H1202 H 0.13495 0.80842 0.25235 0.0
C1203 C 0.21076 0.87089 0.17258 0.0
C1204 C 0.20861 0.83366 0.2513 0.0
C1205 C 0.22908 0.88625 0.14694 0.0
C1206 C 0.13784 0.75254 0.3422 0.0
C1207 C 0.15531 0.7722 0.32001 0.0
C1208 C 0.15561 0.81583 0.25271 0.0
C1209 C 0.21255 0.85089 0.18966 0.0
C1210 C 0.19682 0.83785 0.22165 0.0
C1211 C 0.15124 0.79257 0.31018 0.0
C1212 C 0.16725 0.81055 0.28155 0.0
H1213 H 0.26503 0.85641 0.14639 0.0
H1214 H 0.23265 0.8291 0.1899 0.0
H1215 H 0.16071 0.83245 0.20063 0.0
H1216 H 0.09627 0.77492 0.35766 0.0
H1217 H 0.127 0.80957 0.31845 0.0
C1218 C 0.85666 0.60813 0.84537 0.0
C1219 C 0.87899 0.62947 0.85897 0.0
C1220 C 0.83965 0.61171 0.82406 0.0
C1221 C 0.84164 0.6574 0.75909 0.0
H1222 H 0.76764 0.61064 0.75675 0.0
C1223 C 0.77033 0.6574 0.65199 0.0
C1224 C 0.75018 0.6328 0.6423 0.0
C1225 C 0.78796 0.6599 0.67845 0.0
C1226 C 0.78832 0.62375 0.75692 0.0
H1227 H 0.90031 0.67122 0.86297 0.0
H1228 H 0.87042 0.67755 0.82528 0.0
H1229 H 0.79242 0.61061 0.8081 0.0
H1230 H 0.73423 0.59162 0.64952 0.0
H1231 H 0.76531 0.59592 0.69462 0.0
H1232 H 0.83748 0.67005 0.70733 0.0
C1233 C 0.86617 0.65807 0.83119 0.0
C1234 C 0.80245 0.62384 0.78643 0.0
C1235 C 0.88305 0.65445 0.85307 0.0
C1236 C 0.74948 0.61081 0.65675 0.0
C1237 C 0.76707 0.61328 0.68287 0.0
C1238 C 0.82743 0.65732 0.72944 0.0
C1239 C 0.84478 0.63673 0.81553 0.0
C1240 C 0.82935 0.64013 0.78743 0.0
C1241 C 0.78562 0.63781 0.69532 0.0
C1242 C 0.80075 0.6399 0.72764 0.0
H1243 H 0.85318 0.58869 0.84943 0.0
H1244 H 0.82347 0.59487 0.81222 0.0
H1245 H 0.86241 0.67 0.75897 0.0
H1246 H 0.77112 0.67465 0.64146 0.0
H1247 H 0.80219 0.67904 0.68739 0.0
C1248 C 0.38793 0.1427 0.6492 0.0
C1249 C 0.36646 0.12032 0.63597 0.0
C1250 C 0.38458 0.15955 0.6712 0.0
C1251 C 0.33972 0.15718 0.73815 0.0
H1252 H 0.3862 0.23125 0.7403 0.0
C1253 C 0.38645 0.25009 0.83964 0.0
C1254 C 0.36442 0.24935 0.854 0.0
C1255 C 0.38402 0.23215 0.81408 0.0
C1256 C 0.3732 0.21054 0.74022 0.0
H1257 H 0.32467 0.09871 0.63342 0.0
H1258 H 0.31872 0.12835 0.67227 0.0
H1259 H 0.38579 0.20657 0.68857 0.0
H1260 H 0.32259 0.22803 0.8554 0.0
H1261 H 0.31828 0.19636 0.81045 0.0
H1262 H 0.32754 0.16126 0.79033 0.0
C1263 C 0.33814 0.13277 0.66554 0.0
C1264 C 0.37285 0.19646 0.71047 0.0
C1265 C 0.34153 0.11604 0.64297 0.0
C1266 C 0.33987 0.2288 0.84498 0.0
C1267 C 0.33742 0.21084 0.81906 0.0
C1268 C 0.34004 0.17134 0.76804 0.0
C1269 C 0.35966 0.15421 0.68082 0.0
C1270 C 0.35662 0.16955 0.70947 0.0
C1271 C 0.3595 0.21325 0.80206 0.0
C1272 C 0.35736 0.19806 0.76975 0.0
H1273 H 0.40733 0.14631 0.64435 0.0
H1274 H 0.40156 0.17578 0.6827 0.0
H1275 H 0.32717 0.1364 0.73828 0.0
H1276 H 0.40558 0.26571 0.84627 0.0
H1277 H 0.40139 0.234 0.80221 0.0
C1278 C 0.88101 0.22434 0.63797 0.0
C1279 C 0.87166 0.23889 0.62088 0.0
C1280 C 0.86512 0.20438 0.66118 0.0
C1281 C 0.82875 0.16199 0.71093 0.0
H1282 H 0.77995 0.17648 0.75858 0.0
C1283 C 0.76026 0.09658 0.82215 0.0
C1284 C 0.74939 0.10691 0.84534 0.0
C1285 C 0.77743 0.11197 0.79557 0.0
C1286 C 0.7939 0.17241 0.74629 0.0
H1287 H 0.83778 0.24209 0.61072 0.0
H1288 H 0.80923 0.20557 0.64818 0.0
H1289 H 0.80301 0.20162 0.7076 0.0
H1290 H 0.74927 0.14156 0.86133 0.0
H1291 H 0.78122 0.16921 0.81743 0.0
H1292 H 0.82101 0.13411 0.75166 0.0
C1293 C 0.82924 0.21054 0.64589 0.0
C1294 C 0.80668 0.18644 0.71601 0.0
C1295 C 0.8454 0.23112 0.62371 0.0
C1296 C 0.75768 0.13332 0.84385 0.0
C1297 C 0.77553 0.14895 0.81808 0.0
C1298 C 0.81645 0.1484 0.74193 0.0
C1299 C 0.83934 0.19813 0.66697 0.0
C1300 C 0.82429 0.18147 0.6977 0.0
C1301 C 0.78447 0.13817 0.79219 0.0
C1302 C 0.79882 0.15342 0.76013 0.0
H1303 H 0.90133 0.23022 0.6366 0.0
H1304 H 0.87387 0.19554 0.67669 0.0
H1305 H 0.84186 0.15722 0.69755 0.0
H1306 H 0.7536 0.07606 0.82238 0.0
H1307 H 0.78356 0.10272 0.77625 0.0
loop_
_geom_bond_atom_site_label_1
_geom_bond_atom_site_label_2
_geom_bond_distance
_geom_bond_site_symmetry_2
_ccdc_geom_bond_type
Co0 O3 1.970 . S
Co0 N17 1.989 . S
Co0 O25 1.967 . S
Co0 O32 1.920 . S
Co1 O4 1.966 . S
Co1 N10 2.022 . S
Co1 N18 1.993 . S
Co1 O26 1.941 . S
C2 O3 1.258 . S
C2 O4 1.263 . S
O3 Co0 1.970 . S
O3 C2 1.258 . S
O4 Co1 1.966 . S
O4 C2 1.263 . S
C5 O6 1.235 . S
C5 O32 1.289 . S
O6 C5 1.235 . S
C7 C9 1.400 . S
C7 N10 1.351 . S
C7 C12 1.501 . S
C8 C9 1.387 . S
C8 N11 1.341 . S
C9 C7 1.400 . S
C9 C8 1.387 . S
N10 Co1 2.022 . S
N10 C7 1.351 . S
N10 N11 1.365 . S
N11 C8 1.341 . S
N11 N10 1.365 . S
N11 H31 0.862 . S
C12 C7 1.501 . S
C12 H13 0.961 . S
C12 H14 0.961 . S
C12 H15 0.960 . S
H13 C12 0.961 . S
H14 C12 0.961 . S
H15 C12 0.960 . S
C16 N17 1.342 . S
C16 C20 1.401 . S
C16 C21 1.499 . S
N17 Co0 1.989 . S
N17 C16 1.342 . S
N17 N18 1.388 . S
N18 Co1 1.993 . S
N18 N17 1.388 . S
N18 C19 1.346 . S
C19 N18 1.346 . S
C19 C20 1.396 . S
C19 C29 1.510 . S
C20 C16 1.401 . S
C20 C19 1.396 . S
C21 C16 1.499 . S
C21 H22 0.959 . S
C21 H23 0.960 . S
C21 H24 0.961 . S
H22 C21 0.959 . S
H23 C21 0.960 . S
H24 C21 0.961 . S
O25 Co0 1.967 . S
O25 C33 1.258 . S
O26 Co1 1.941 . S
O26 C33 1.266 . S
H27 C29 0.959 . S
H28 C29 0.968 . S
C29 C19 1.510 . S
C29 H27 0.959 . S
C29 H28 0.968 . S
C29 H30 0.960 . S
H30 C29 0.960 . S
H31 N11 0.862 . S
O32 Co0 1.920 . S
O32 C5 1.289 . S
C33 O25 1.258 . S
C33 O26 1.266 . S
Co34 O37 1.970 . S
Co34 N51 1.989 . S
Co34 O59 1.967 . S
Co34 O66 1.920 . S
Co35 O38 1.966 . S
Co35 N44 2.022 . S
Co35 N52 1.993 . S
Co35 O60 1.941 . S
C36 O37 1.258 . S
C36 O38 1.263 . S
O37 Co34 1.970 . S
O37 C36 1.258 . S
O38 Co35 1.966 . S
O38 C36 1.263 . S
C39 O40 1.235 . S
C39 O66 1.289 . S
O40 C39 1.235 . S
C41 C43 1.400 . S
C41 N44 1.351 . S
C41 C46 1.501 . S
C42 C43 1.387 . S
C42 N45 1.341 . S
C43 C41 1.400 . S
C43 C42 1.387 . S
N44 Co35 2.022 . S
N44 C41 1.351 . S
N44 N45 1.365 . S
N45 C42 1.341 . S
N45 N44 1.365 . S
N45 H65 0.862 . S
C46 C41 1.501 . S
C46 H47 0.961 . S
C46 H48 0.961 . S
C46 H49 0.960 . S
H47 C46 0.961 . S
H48 C46 0.961 . S
H49 C46 0.960 . S
C50 N51 1.342 . S
C50 C54 1.401 . S
C50 C55 1.499 . S
N51 Co34 1.989 . S
N51 C50 1.342 . S
N51 N52 1.388 . S
N52 Co35 1.993 . S
N52 N51 1.388 . S
N52 C53 1.346 . S
C53 N52 1.346 . S
C53 C54 1.396 . S
C53 C63 1.510 . S
C54 C50 1.401 . S
C54 C53 1.396 . S
C55 C50 1.499 . S
C55 H56 0.959 . S
C55 H57 0.960 . S
C55 H58 0.961 . S
H56 C55 0.959 . S
H57 C55 0.960 . S
H58 C55 0.961 . S
O59 Co34 1.967 . S
O59 C67 1.258 . S
O60 Co35 1.941 . S
O60 C67 1.266 . S
H61 C63 0.959 . S
H62 C63 0.968 . S
C63 C53 1.510 . S
C63 H61 0.959 . S
C63 H62 0.968 . S
C63 H64 0.960 . S
H64 C63 0.960 . S
H65 N45 0.862 . S
O66 Co34 1.920 . S
O66 C39 1.289 . S
C67 O59 1.258 . S
C67 O60 1.266 . S
Co68 O71 1.970 . S
Co68 N85 1.989 . S
Co68 O93 1.967 . S
Co68 O100 1.920 . S
Co69 O72 1.966 . S
Co69 N78 2.022 . S
Co69 N86 1.993 . S
Co69 O94 1.941 . S
C70 O71 1.258 . S
C70 O72 1.263 . S
O71 Co68 1.970 . S
O71 C70 1.258 . S
O72 Co69 1.966 . S
O72 C70 1.263 . S
C73 O74 1.235 . S
C73 O100 1.289 . S
O74 C73 1.235 . S
C75 C77 1.400 . S
C75 N78 1.351 . S
C75 C80 1.501 . S
C76 C77 1.387 . S
C76 N79 1.341 . S
C77 C75 1.400 . S
C77 C76 1.387 . S
N78 Co69 2.022 . S
N78 C75 1.351 . S
N78 N79 1.365 . S
N79 C76 1.341 . S
N79 N78 1.365 . S
N79 H99 0.862 . S
C80 C75 1.501 . S
C80 H81 0.961 . S
C80 H82 0.961 . S
C80 H83 0.960 . S
H81 C80 0.961 . S
H82 C80 0.961 . S
H83 C80 0.960 . S
C84 N85 1.342 . S
C84 C88 1.401 . S
C84 C89 1.499 . S
N85 Co68 1.989 . S
N85 C84 1.342 . S
N85 N86 1.388 . S
N86 Co69 1.993 . S
N86 N85 1.388 . S
N86 C87 1.346 . S
C87 N86 1.346 . S
C87 C88 1.396 . S
C87 C97 1.510 . S
C88 C84 1.401 . S
C88 C87 1.396 . S
C89 C84 1.499 . S
C89 H90 0.959 . S
C89 H91 0.960 . S
C89 H92 0.961 . S
H90 C89 0.959 . S
H91 C89 0.960 . S
H92 C89 0.961 . S
O93 Co68 1.967 . S
O93 C101 1.258 . S
O94 Co69 1.941 . S
O94 C101 1.266 . S
H95 C97 0.959 . S
H96 C97 0.967 . S
C97 C87 1.510 . S
C97 H95 0.959 . S
C97 H96 0.967 . S
C97 H98 0.960 . S
H98 C97 0.960 . S
H99 N79 0.862 . S
O100 Co68 1.920 . S
O100 C73 1.289 . S
C101 O93 1.258 . S
C101 O94 1.266 . S
Co102 O105 1.970 . S
Co102 N119 1.989 . S
Co102 O127 1.967 . S
Co102 O134 1.920 . S
Co103 O106 1.966 . S
Co103 N112 2.022 . S
Co103 N120 1.993 . S
Co103 O128 1.941 . S
C104 O105 1.258 . S
C104 O106 1.263 . S
O105 Co102 1.970 . S
O105 C104 1.258 . S
O106 Co103 1.966 . S
O106 C104 1.263 . S
C107 O108 1.235 . S
C107 O134 1.289 . S
O108 C107 1.235 . S
C109 C111 1.400 . S
C109 N112 1.351 . S
C109 C114 1.501 . S
C110 C111 1.387 . S
C110 N113 1.341 . S
C111 C109 1.400 . S
C111 C110 1.387 . S
N112 Co103 2.022 . S
N112 C109 1.351 . S
N112 N113 1.365 . S
N113 C110 1.341 . S
N113 N112 1.365 . S
N113 H133 0.862 . S
C114 C109 1.501 . S
C114 H115 0.961 . S
C114 H116 0.961 . S
C114 H117 0.960 . S
H115 C114 0.961 . S
H116 C114 0.961 . S
H117 C114 0.960 . S
C118 N119 1.342 . S
C118 C122 1.401 . S
C118 C123 1.499 . S
N119 Co102 1.989 . S
N119 C118 1.342 . S
N119 N120 1.388 . S
N120 Co103 1.993 . S
N120 N119 1.388 . S
N120 C121 1.346 . S
C121 N120 1.346 . S
C121 C122 1.396 . S
C121 C131 1.510 . S
C122 C118 1.401 . S
C122 C121 1.396 . S
C123 C118 1.499 . S
C123 H124 0.959 . S
C123 H125 0.960 . S
C123 H126 0.961 . S
H124 C123 0.959 . S
H125 C123 0.960 . S
H126 C123 0.961 . S
O127 Co102 1.967 . S
O127 C135 1.258 . S
O128 Co103 1.941 . S
O128 C135 1.266 . S
H129 C131 0.959 . S
H130 C131 0.961 . S
C131 C121 1.510 . S
C131 H129 0.959 . S
C131 H130 0.961 . S
C131 H132 0.960 . S
H132 C131 0.960 . S
H133 N113 0.862 . S
O134 Co102 1.920 . S
O134 C107 1.289 . S
C135 O127 1.258 . S
C135 O128 1.266 . S
Co136 O139 1.970 . S
Co136 N153 1.989 . S
Co136 O161 1.967 . S
Co136 O168 1.920 . S
Co137 O140 1.966 . S
Co137 N146 2.022 . S
Co137 N154 1.993 . S
Co137 O162 1.941 . S
C138 O139 1.258 . S
C138 O140 1.263 . S
O139 Co136 1.970 . S
O139 C138 1.258 . S
O140 Co137 1.966 . S
O140 C138 1.263 . S
C141 O142 1.235 . S
C141 O168 1.289 . S
O142 C141 1.235 . S
C143 C145 1.400 . S
C143 N146 1.351 . S
C143 C148 1.501 . S
C144 C145 1.387 . S
C144 N147 1.341 . S
C145 C143 1.400 . S
C145 C144 1.387 . S
N146 Co137 2.022 . S
N146 C143 1.351 . S
N146 N147 1.365 . S
N147 C144 1.341 . S
N147 N146 1.365 . S
N147 H167 0.862 . S
C148 C143 1.501 . S
C148 H149 0.961 . S
C148 H150 0.961 . S
C148 H151 0.960 . S
H149 C148 0.961 . S
H150 C148 0.961 . S
H151 C148 0.960 . S
C152 N153 1.342 . S
C152 C156 1.401 . S
C152 C157 1.499 . S
N153 Co136 1.989 . S
N153 C152 1.342 . S
N153 N154 1.388 . S
N154 Co137 1.993 . S
N154 N153 1.388 . S
N154 C155 1.346 . S
C155 N154 1.346 . S
C155 C156 1.396 . S
C155 C165 1.510 . S
C156 C152 1.401 . S
C156 C155 1.396 . S
C157 C152 1.499 . S
C157 H158 0.959 . S
C157 H159 0.960 . S
C157 H160 0.961 . S
H158 C157 0.959 . S
H159 C157 0.960 . S
H160 C157 0.961 . S
O161 Co136 1.967 . S
O161 C169 1.258 . S
O162 Co137 1.941 . S
O162 C169 1.266 . S
H163 C165 0.959 . S
H164 C165 0.961 . S
C165 C155 1.510 . S
C165 H163 0.959 . S
C165 H164 0.961 . S
C165 H166 0.960 . S
H166 C165 0.960 . S
H167 N147 0.862 . S
O168 Co136 1.920 . S
O168 C141 1.289 . S
C169 O161 1.258 . S
C169 O162 1.266 . S
Co170 O173 1.970 . S
Co170 N187 1.989 . S
Co170 O195 1.967 . S
Co170 O202 1.920 . S
Co171 O174 1.966 . S
Co171 N180 2.022 . S
Co171 N188 1.993 . S
Co171 O196 1.941 . S
C172 O173 1.258 . S
C172 O174 1.263 . S
O173 Co170 1.970 . S
O173 C172 1.258 . S
O174 Co171 1.966 . S
O174 C172 1.263 . S
C175 O176 1.235 . S
C175 O202 1.289 . S
O176 C175 1.235 . S
C177 C179 1.400 . S
C177 N180 1.351 . S
C177 C182 1.501 . S
C178 C179 1.387 . S
C178 N181 1.341 . S
C179 C177 1.400 . S
C179 C178 1.387 . S
N180 Co171 2.022 . S
N180 C177 1.351 . S
N180 N181 1.365 . S
N181 C178 1.341 . S
N181 N180 1.365 . S
N181 H201 0.862 . S
C182 C177 1.501 . S
C182 H183 0.961 . S
C182 H184 0.961 . S
C182 H185 0.960 . S
H183 C182 0.961 . S
H184 C182 0.961 . S
H185 C182 0.960 . S
C186 N187 1.342 . S
C186 C190 1.401 . S
C186 C191 1.499 . S
N187 Co170 1.989 . S
N187 C186 1.342 . S
N187 N188 1.388 . S
N188 Co171 1.993 . S
N188 N187 1.388 . S
N188 C189 1.346 . S
C189 N188 1.346 . S
C189 C190 1.396 . S
C189 C199 1.510 . S
C190 C186 1.401 . S
C190 C189 1.396 . S
C191 C186 1.499 . S
C191 H192 0.959 . S
C191 H193 0.960 . S
C191 H194 0.961 . S
H192 C191 0.959 . S
H193 C191 0.960 . S
H194 C191 0.961 . S
O195 Co170 1.967 . S
O195 C203 1.258 . S
O196 Co171 1.941 . S
O196 C203 1.266 . S
H197 C199 0.959 . S
H198 C199 0.961 . S
C199 C189 1.510 . S
C199 H197 0.959 . S
C199 H198 0.961 . S
C199 H200 0.960 . S
H200 C199 0.960 . S
H201 N181 0.862 . S
O202 Co170 1.920 . S
O202 C175 1.289 . S
C203 O195 1.258 . S
C203 O196 1.266 . S
Co204 O207 1.970 . S
Co204 N221 1.989 . S
Co204 O229 1.967 . S
Co204 O236 1.920 . S
Co205 O208 1.966 . S
Co205 N214 2.022 . S
Co205 N222 1.993 . S
Co205 O230 1.941 . S
C206 O207 1.258 . S
C206 O208 1.263 . S
O207 Co204 1.970 . S
O207 C206 1.258 . S
O208 Co205 1.966 . S
O208 C206 1.263 . S
C209 O210 1.235 . S
C209 O236 1.289 . S
O210 C209 1.235 . S
C211 C213 1.400 . S
C211 N214 1.351 . S
C211 C216 1.501 . S
C212 C213 1.387 . S
C212 N215 1.341 . S
C213 C211 1.400 . S
C213 C212 1.387 . S
N214 Co205 2.022 . S
N214 C211 1.351 . S
N214 N215 1.365 . S
N215 C212 1.341 . S
N215 N214 1.365 . S
N215 H235 0.862 . S
C216 C211 1.501 . S
C216 H217 0.961 . S
C216 H218 0.961 . S
C216 H219 0.960 . S
H217 C216 0.961 . S
H218 C216 0.961 . S
H219 C216 0.960 . S
C220 N221 1.342 . S
C220 C224 1.401 . S
C220 C225 1.499 . S
N221 Co204 1.989 . S
N221 C220 1.342 . S
N221 N222 1.388 . S
N222 Co205 1.993 . S
N222 N221 1.388 . S
N222 C223 1.346 . S
C223 N222 1.346 . S
C223 C224 1.396 . S
C223 C233 1.510 . S
C224 C220 1.401 . S
C224 C223 1.396 . S
C225 C220 1.499 . S
C225 H226 0.959 . S
C225 H227 0.960 . S
C225 H228 0.961 . S
H226 C225 0.959 . S
H227 C225 0.960 . S
H228 C225 0.961 . S
O229 Co204 1.967 . S
O229 C237 1.258 . S
O230 Co205 1.941 . S
O230 C237 1.266 . S
H231 C233 0.959 . S
H232 C233 0.968 . S
C233 C223 1.510 . S
C233 H231 0.959 . S
C233 H232 0.968 . S
C233 H234 0.960 . S
H234 C233 0.960 . S
H235 N215 0.862 . S
O236 Co204 1.920 . S
O236 C209 1.289 . S
C237 O229 1.258 . S
C237 O230 1.266 . S
Co238 O241 1.970 . S
Co238 N255 1.989 . S
Co238 O263 1.967 . S
Co238 O270 1.920 . S
Co239 O242 1.966 . S
Co239 N248 2.022 . S
Co239 N256 1.993 . S
Co239 O264 1.941 . S
C240 O241 1.258 . S
C240 O242 1.263 . S
O241 Co238 1.970 . S
O241 C240 1.258 . S
O242 Co239 1.966 . S
O242 C240 1.263 . S
C243 O244 1.235 . S
C243 O270 1.289 . S
O244 C243 1.235 . S
C245 C247 1.400 . S
C245 N248 1.351 . S
C245 C250 1.501 . S
C246 C247 1.387 . S
C246 N249 1.341 . S
C247 C245 1.400 . S
C247 C246 1.387 . S
N248 Co239 2.022 . S
N248 C245 1.351 . S
N248 N249 1.365 . S
N249 C246 1.341 . S
N249 N248 1.365 . S
N249 H269 0.862 . S
C250 C245 1.501 . S
C250 H251 0.961 . S
C250 H252 0.961 . S
C250 H253 0.960 . S
H251 C250 0.961 . S
H252 C250 0.961 . S
H253 C250 0.960 . S
C254 N255 1.342 . S
C254 C258 1.401 . S
C254 C259 1.499 . S
N255 Co238 1.989 . S
N255 C254 1.342 . S
N255 N256 1.388 . S
N256 Co239 1.993 . S
N256 N255 1.388 . S
N256 C257 1.346 . S
C257 N256 1.346 . S
C257 C258 1.396 . S
C257 C267 1.510 . S
C258 C254 1.401 . S
C258 C257 1.396 . S
C259 C254 1.499 . S
C259 H260 0.959 . S
C259 H261 0.960 . S
C259 H262 0.961 . S
H260 C259 0.959 . S
H261 C259 0.960 . S
H262 C259 0.961 . S
O263 Co238 1.967 . S
O263 C271 1.258 . S
O264 Co239 1.941 . S
O264 C271 1.266 . S
H265 C267 0.959 . S
H266 C267 0.968 . S
C267 C257 1.510 . S
C267 H265 0.959 . S
C267 H266 0.968 . S
C267 H268 0.960 . S
H268 C267 0.960 . S
H269 N249 0.862 . S
O270 Co238 1.920 . S
O270 C243 1.289 . S
C271 O263 1.258 . S
C271 O264 1.266 . S
Co272 O275 1.970 . S
Co272 N289 1.989 . S
Co272 O297 1.967 . S
Co272 O304 1.920 . S
Co273 O276 1.966 . S
Co273 N282 2.022 . S
Co273 N290 1.993 . S
Co273 O298 1.941 . S
C274 O275 1.258 . S
C274 O276 1.263 . S
O275 Co272 1.970 . S
O275 C274 1.258 . S
O276 Co273 1.966 . S
O276 C274 1.263 . S
C277 O278 1.235 . S
C277 O304 1.289 . S
O278 C277 1.235 . S
C279 C281 1.400 . S
C279 N282 1.351 . S
C279 C284 1.501 . S
C280 C281 1.387 . S
C280 N283 1.341 . S
C281 C279 1.400 . S
C281 C280 1.387 . S
N282 Co273 2.022 . S
N282 C279 1.351 . S
N282 N283 1.365 . S
N283 C280 1.341 . S
N283 N282 1.365 . S
N283 H303 0.862 . S
C284 C279 1.501 . S
C284 H285 0.961 . S
C284 H286 0.961 . S
C284 H287 0.960 . S
H285 C284 0.961 . S
H286 C284 0.961 . S
H287 C284 0.960 . S
C288 N289 1.342 . S
C288 C292 1.401 . S
C288 C293 1.499 . S
N289 Co272 1.989 . S
N289 C288 1.342 . S
N289 N290 1.388 . S
N290 Co273 1.993 . S
N290 N289 1.388 . S
N290 C291 1.346 . S
C291 N290 1.346 . S
C291 C292 1.396 . S
C291 C301 1.510 . S
C292 C288 1.401 . S
C292 C291 1.396 . S
C293 C288 1.499 . S
C293 H294 0.959 . S
C293 H295 0.960 . S
C293 H296 0.961 . S
H294 C293 0.959 . S
H295 C293 0.960 . S
H296 C293 0.961 . S
O297 Co272 1.967 . S
O297 C305 1.258 . S
O298 Co273 1.941 . S
O298 C305 1.266 . S
H299 C301 0.959 . S
H300 C301 0.967 . S
C301 C291 1.510 . S
C301 H299 0.959 . S
C301 H300 0.967 . S
C301 H302 0.960 . S
H302 C301 0.960 . S
H303 N283 0.862 . S
O304 Co272 1.920 . S
O304 C277 1.289 . S
C305 O297 1.258 . S
C305 O298 1.266 . S
Co306 O309 1.970 . S
Co306 N323 1.989 . S
Co306 O331 1.967 . S
Co306 O338 1.920 . S
Co307 O310 1.966 . S
Co307 N316 2.022 . S
Co307 N324 1.993 . S
Co307 O332 1.941 . S
C308 O309 1.258 . S
C308 O310 1.263 . S
O309 Co306 1.970 . S
O309 C308 1.258 . S
O310 Co307 1.966 . S
O310 C308 1.263 . S
C311 O312 1.235 . S
C311 O338 1.289 . S
O312 C311 1.235 . S
C313 C315 1.400 . S
C313 N316 1.351 . S
C313 C318 1.501 . S
C314 C315 1.387 . S
C314 N317 1.341 . S
C315 C313 1.400 . S
C315 C314 1.387 . S
N316 Co307 2.022 . S
N316 C313 1.351 . S
N316 N317 1.365 . S
N317 C314 1.341 . S
N317 N316 1.365 . S
N317 H337 0.862 . S
C318 C313 1.501 . S
C318 H319 0.961 . S
C318 H320 0.961 . S
C318 H321 0.960 . S
H319 C318 0.961 . S
H320 C318 0.961 . S
H321 C318 0.960 . S
C322 N323 1.342 . S
C322 C326 1.401 . S
C322 C327 1.499 . S
N323 Co306 1.989 . S
N323 C322 1.342 . S
N323 N324 1.388 . S
N324 Co307 1.993 . S
N324 N323 1.388 . S
N324 C325 1.346 . S
C325 N324 1.346 . S
C325 C326 1.396 . S
C325 C335 1.510 . S
C326 C322 1.401 . S
C326 C325 1.396 . S
C327 C322 1.499 . S
C327 H328 0.959 . S
C327 H329 0.960 . S
C327 H330 0.961 . S
H328 C327 0.959 . S
H329 C327 0.960 . S
H330 C327 0.961 . S
O331 Co306 1.967 . S
O331 C339 1.258 . S
O332 Co307 1.941 . S
O332 C339 1.266 . S
H333 C335 0.959 . S
H334 C335 0.961 . S
C335 C325 1.510 . S
C335 H333 0.959 . S
C335 H334 0.961 . S
C335 H336 0.960 . S
H336 C335 0.960 . S
H337 N317 0.862 . S
O338 Co306 1.920 . S
O338 C311 1.289 . S
C339 O331 1.258 . S
C339 O332 1.266 . S
Co340 O343 1.970 . S
Co340 N357 1.989 . S
Co340 O365 1.967 . S
Co340 O372 1.920 . S
Co341 O344 1.966 . S
Co341 N350 2.022 . S
Co341 N358 1.993 . S
Co341 O366 1.941 . S
C342 O343 1.258 . S
C342 O344 1.263 . S
O343 Co340 1.970 . S
O343 C342 1.258 . S
O344 Co341 1.966 . S
O344 C342 1.263 . S
C345 O346 1.235 . S
C345 O372 1.289 . S
O346 C345 1.235 . S
C347 C349 1.400 . S
C347 N350 1.351 . S
C347 C352 1.501 . S
C348 C349 1.387 . S
C348 N351 1.341 . S
C349 C347 1.400 . S
C349 C348 1.387 . S
N350 Co341 2.022 . S
N350 C347 1.351 . S
N350 N351 1.365 . S
N351 C348 1.341 . S
N351 N350 1.365 . S
N351 H371 0.862 . S
C352 C347 1.501 . S
C352 H353 0.961 . S
C352 H354 0.961 . S
C352 H355 0.960 . S
H353 C352 0.961 . S
H354 C352 0.961 . S
H355 C352 0.960 . S
C356 N357 1.342 . S
C356 C360 1.401 . S
C356 C361 1.499 . S
N357 Co340 1.989 . S
N357 C356 1.342 . S
N357 N358 1.388 . S
N358 Co341 1.993 . S
N358 N357 1.388 . S
N358 C359 1.346 . S
C359 N358 1.346 . S
C359 C360 1.396 . S
C359 C369 1.510 . S
C360 C356 1.401 . S
C360 C359 1.396 . S
C361 C356 1.499 . S
C361 H362 0.959 . S
C361 H363 0.960 . S
C361 H364 0.961 . S
H362 C361 0.959 . S
H363 C361 0.960 . S
H364 C361 0.961 . S
O365 Co340 1.967 . S
O365 C373 1.258 . S
O366 Co341 1.941 . S
O366 C373 1.266 . S
H367 C369 0.959 . S
H368 C369 0.961 . S
C369 C359 1.510 . S
C369 H367 0.959 . S
C369 H368 0.961 . S
C369 H370 0.960 . S
H370 C369 0.960 . S
H371 N351 0.862 . S
O372 Co340 1.920 . S
O372 C345 1.289 . S
C373 O365 1.258 . S
C373 O366 1.266 . S
Co374 O377 1.970 . S
Co374 N391 1.989 . S
Co374 O399 1.967 . S
Co374 O406 1.920 . S
Co375 O378 1.966 . S
Co375 N384 2.022 . S
Co375 N392 1.993 . S
Co375 O400 1.941 . S
C376 O377 1.258 . S
C376 O378 1.263 . S
O377 Co374 1.970 . S
O377 C376 1.258 . S
O378 Co375 1.966 . S
O378 C376 1.263 . S
C379 O380 1.235 . S
C379 O406 1.289 . S
O380 C379 1.235 . S
C381 C383 1.400 . S
C381 N384 1.351 . S
C381 C386 1.501 . S
C382 C383 1.387 . S
C382 N385 1.341 . S
C383 C381 1.400 . S
C383 C382 1.387 . S
N384 Co375 2.022 . S
N384 C381 1.351 . S
N384 N385 1.365 . S
N385 C382 1.341 . S
N385 N384 1.365 . S
N385 H405 0.862 . S
C386 C381 1.501 . S
C386 H387 0.961 . S
C386 H388 0.961 . S
C386 H389 0.960 . S
H387 C386 0.961 . S
H388 C386 0.961 . S
H389 C386 0.960 . S
C390 N391 1.342 . S
C390 C394 1.401 . S
C390 C395 1.499 . S
N391 Co374 1.989 . S
N391 C390 1.342 . S
N391 N392 1.388 . S
N392 Co375 1.993 . S
N392 N391 1.388 . S
N392 C393 1.346 . S
C393 N392 1.346 . S
C393 C394 1.396 . S
C393 C403 1.510 . S
C394 C390 1.401 . S
C394 C393 1.396 . S
C395 C390 1.499 . S
C395 H396 0.959 . S
C395 H397 0.960 . S
C395 H398 0.961 . S
H396 C395 0.959 . S
H397 C395 0.960 . S
H398 C395 0.961 . S
O399 Co374 1.967 . S
O399 C407 1.258 . S
O400 Co375 1.941 . S
O400 C407 1.266 . S
H401 C403 0.959 . S
H402 C403 0.961 . S
C403 C393 1.510 . S
C403 H401 0.959 . S
C403 H402 0.961 . S
C403 H404 0.960 . S
H404 C403 0.960 . S
H405 N385 0.862 . S
O406 Co374 1.920 . S
O406 C379 1.289 . S
C407 O399 1.258 . S
C407 O400 1.266 . S
C408 C409 1.349 . S
C408 C410 1.327 . S
C408 H433 0.950 . S
C409 C408 1.349 . S
C409 C425 1.349 . S
C410 C408 1.327 . S
C410 C429 1.429 . S
C410 H434 0.950 . S
C411 C428 1.574 . S
C411 C430 1.368 . S
C411 H435 0.946 . S
H412 C416 0.949 . S
C413 C414 1.349 . S
C413 C415 1.327 . S
C413 H436 0.950 . S
C414 C413 1.349 . S
C414 C426 1.349 . S
C415 C413 1.327 . S
C415 C431 1.429 . S
C415 H437 0.950 . S
C416 H412 0.949 . S
C416 C424 1.574 . S
C416 C432 1.368 . S
H417 C425 0.950 . S
H418 C423 0.950 . S
H419 C424 0.949 . S
H420 C426 0.950 . S
H421 C427 0.950 . S
H422 C428 0.949 . S
C423 H418 0.950 . S
C423 C425 1.327 . S
C423 C429 1.429 . S
C424 C416 1.574 . S
C424 H419 0.949 . S
C424 C430 1.368 . S
C425 C409 1.349 . S
C425 H417 0.950 . S
C425 C423 1.327 . S
C426 C414 1.349 . S
C426 H420 0.950 . S
C426 C427 1.327 . S
C427 H421 0.950 . S
C427 C426 1.327 . S
C427 C431 1.429 . S
C428 C411 1.574 . S
C428 H422 0.949 . S
C428 C432 1.368 . S
C429 C410 1.429 . S
C429 C423 1.429 . S
C429 C430 1.523 1_655 S
C430 C411 1.368 . S
C430 C424 1.368 . S
C430 C429 1.523 1_455 S
C431 C415 1.429 . S
C431 C427 1.429 . S
C431 C432 1.523 . S
C432 C416 1.368 . S
C432 C428 1.368 . S
C432 C431 1.523 . S
H433 C408 0.950 . S
H434 C410 0.950 . S
H435 C411 0.946 . S
H436 C413 0.950 . S
H437 C415 0.950 . S
C438 C439 1.349 . S
C438 C440 1.327 . S
C438 H463 0.950 . S
C439 C438 1.349 . S
C439 C455 1.349 . S
C440 C438 1.327 . S
C440 C459 1.429 . S
C440 H464 0.950 . S
C441 C458 1.574 . S
C441 C460 1.368 . S
C441 H465 0.949 . S
H442 C446 0.949 . S
C443 C444 1.349 . S
C443 C445 1.327 . S
C443 H466 0.950 . S
C444 C443 1.349 . S
C444 C456 1.349 . S
C445 C443 1.327 . S
C445 C461 1.429 . S
C445 H467 0.950 . S
C446 H442 0.949 . S
C446 C454 1.574 . S
C446 C462 1.368 . S
H447 C455 0.950 . S
H448 C453 0.950 . S
H449 C454 0.949 . S
H450 C456 0.950 . S
H451 C457 0.950 . S
H452 C458 0.949 . S
C453 H448 0.950 . S
C453 C455 1.327 . S
C453 C459 1.429 . S
C454 C446 1.574 . S
C454 H449 0.949 . S
C454 C460 1.368 . S
C455 C439 1.349 . S
C455 H447 0.950 . S
C455 C453 1.327 . S
C456 C444 1.349 . S
C456 H450 0.950 . S
C456 C457 1.327 . S
C457 H451 0.950 . S
C457 C456 1.327 . S
C457 C461 1.429 . S
C458 C441 1.574 . S
C458 H452 0.949 . S
C458 C462 1.368 . S
C459 C440 1.429 . S
C459 C453 1.429 . S
C459 C460 1.523 . S
C460 C441 1.368 . S
C460 C454 1.368 . S
C460 C459 1.523 . S
C461 C445 1.429 . S
C461 C457 1.429 . S
C461 C462 1.523 . S
C462 C446 1.368 . S
C462 C458 1.368 . S
C462 C461 1.523 . S
H463 C438 0.950 . S
H464 C440 0.950 . S
H465 C441 0.949 . S
H466 C443 0.950 . S
H467 C445 0.950 . S
C468 C469 1.311 1_565 S
C468 C470 1.337 . S
C468 H493 0.980 . S
C469 C468 1.311 1_545 S
C469 C485 1.349 . S
C470 C468 1.337 . S
C470 C489 1.429 1_565 S
C470 H494 0.950 . S
C471 C488 1.574 . S
C471 C490 1.368 1_545 S
C471 H495 0.949 . S
H472 C476 0.949 . S
C473 C474 1.349 . S
C473 C475 1.327 . S
C473 H496 0.950 . S
C474 C473 1.349 . S
C474 C486 1.349 . S
C475 C473 1.327 . S
C475 C491 1.429 . S
C475 H497 0.950 1_565 S
C476 H472 0.949 . S
C476 C484 1.574 . S
C476 C492 1.368 . S
H477 C485 0.950 . S
H478 C483 0.950 . S
H479 C484 0.949 . S
H480 C486 0.950 . S
H481 C487 0.950 . S
H482 C488 0.949 . S
C483 H478 0.950 . S
C483 C485 1.327 . S
C483 C489 1.429 . S
C484 C476 1.574 . S
C484 H479 0.949 . S
C484 C490 1.368 . S
C485 C469 1.349 . S
C485 H477 0.950 . S
C485 C483 1.327 . S
C486 C474 1.349 . S
C486 H480 0.950 . S
C486 C487 1.327 . S
C487 H481 0.950 . S
C487 C486 1.327 . S
C487 C491 1.429 . S
C488 C471 1.574 . S
C488 H482 0.949 . S
C488 C492 1.368 1_545 S
C489 C470 1.429 1_545 S
C489 C483 1.429 . S
C489 C490 1.523 1_545 S
C490 C471 1.368 1_565 S
C490 C484 1.368 . S
C490 C489 1.523 1_565 S
C491 C475 1.429 . S
C491 C487 1.429 . S
C491 C492 1.523 . S
C492 C476 1.368 . S
C492 C488 1.368 1_565 S
C492 C491 1.523 . S
H493 C468 0.980 . S
H494 C470 0.950 . S
H495 C471 0.949 . S
H496 C473 0.950 . S
H497 C475 0.950 1_545 S
C498 C499 1.349 . S
C498 C500 1.327 . S
C498 H523 0.950 . S
C499 C498 1.349 . S
C499 C515 1.349 . S
C500 C498 1.327 . S
C500 C519 1.429 . S
C500 H524 0.950 . S
C501 C518 1.574 . S
C501 C520 1.368 1_545 S
C501 H525 0.949 . S
H502 C506 0.949 . S
C503 C504 1.349 . S
C503 C505 1.327 . S
C503 H526 0.950 . S
C504 C503 1.349 . S
C504 C516 1.345 1_545 S
C505 C503 1.327 . S
C505 C521 1.429 . S
C505 H527 0.950 . S
C506 H502 0.949 . S
C506 C514 1.574 . S
C506 C522 1.368 . S
H507 C515 0.950 . S
H508 C513 0.950 1_545 S
H509 C514 0.949 . S
H510 C516 0.952 . S
H511 C517 0.950 . S
H512 C518 0.949 . S
C513 H508 0.950 1_565 S
C513 C515 1.327 . S
C513 C519 1.429 . S
C514 C506 1.574 . S
C514 H509 0.949 . S
C514 C520 1.368 . S
C515 C499 1.349 . S
C515 H507 0.950 . S
C515 C513 1.327 . S
C516 C504 1.345 1_565 S
C516 H510 0.952 . S
C516 C517 1.329 . S
C517 H511 0.950 . S
C517 C516 1.329 . S
C517 C521 1.429 1_565 S
C518 C501 1.574 . S
C518 H512 0.949 . S
C518 C522 1.368 1_545 S
C519 C500 1.429 . S
C519 C513 1.429 . S
C519 C520 1.523 . S
C520 C501 1.368 1_565 S
C520 C514 1.368 . S
C520 C519 1.523 . S
C521 C505 1.429 . S
C521 C517 1.429 1_545 S
C521 C522 1.523 1_545 S
C522 C506 1.368 . S
C522 C518 1.368 1_565 S
C522 C521 1.523 1_565 S
H523 C498 0.950 . S
H524 C500 0.950 . S
H525 C501 0.949 . S
H526 C503 0.950 . S
H527 C505 0.950 . S
C528 C529 1.349 . S
C528 C530 1.327 . S
C528 H553 0.950 . S
C529 C528 1.349 . S
C529 C545 1.349 . S
C530 C528 1.327 . S
C530 C549 1.429 . S
C530 H554 0.950 . S
C531 C548 1.574 . S
C531 C550 1.368 . S
C531 H555 0.949 . S
H532 C536 0.949 . S
C533 C534 1.349 . S
C533 C535 1.327 . S
C533 H556 0.950 . S
C534 C533 1.349 . S
C534 C546 1.349 . S
C535 C533 1.327 . S
C535 C551 1.429 . S
C535 H557 0.950 . S
C536 H532 0.949 . S
C536 C544 1.574 . S
C536 C552 1.368 . S
H537 C545 0.950 . S
H538 C543 0.950 . S
H539 C544 0.949 . S
H540 C546 0.950 . S
H541 C547 0.950 . S
H542 C548 0.940 . S
C543 H538 0.950 . S
C543 C545 1.327 . S
C543 C549 1.429 . S
C544 C536 1.574 . S
C544 H539 0.949 . S
C544 C550 1.368 . S
C545 C529 1.349 . S
C545 H537 0.950 . S
C545 C543 1.327 . S
C546 C534 1.349 . S
C546 H540 0.950 . S
C546 C547 1.327 . S
C547 H541 0.950 . S
C547 C546 1.327 . S
C547 C551 1.429 . S
C548 C531 1.574 . S
C548 H542 0.940 . S
C548 C552 1.368 . S
C549 C530 1.429 . S
C549 C543 1.429 . S
C549 C550 1.523 . S
C550 C531 1.368 . S
C550 C544 1.368 . S
C550 C549 1.523 . S
C551 C535 1.429 . S
C551 C547 1.429 . S
C551 C552 1.523 1_655 S
C552 C536 1.368 . S
C552 C548 1.368 . S
C552 C551 1.523 1_455 S
H553 C528 0.950 . S
H554 C530 0.950 . S
H555 C531 0.949 . S
H556 C533 0.950 . S
H557 C535 0.950 . S
C558 C559 1.349 . S
C558 C560 1.327 . S
C558 H583 0.950 . S
C559 C558 1.349 . S
C559 C575 1.349 . S
C560 C558 1.327 . S
C560 C579 1.429 . S
C560 H584 0.950 . S
C561 C578 1.574 . S
C561 C580 1.368 . S
C561 H585 0.949 . S
H562 C566 0.949 . S
C563 C564 1.349 . S
C563 C565 1.327 . S
C563 H586 0.950 . S
C564 C563 1.349 . S
C564 C576 1.349 . S
C565 C563 1.327 . S
C565 C581 1.429 . S
C565 H587 0.950 . S
C566 H562 0.949 . S
C566 C574 1.574 . S
C566 C582 1.368 . S
H567 C575 0.950 . S
H568 C573 0.950 . S
H569 C574 0.949 . S
H570 C576 0.950 . S
H571 C577 0.950 . S
H572 C578 0.949 . S
C573 H568 0.950 . S
C573 C575 1.327 . S
C573 C579 1.429 . S
C574 C566 1.574 . S
C574 H569 0.949 . S
C574 C580 1.368 . S
C575 C559 1.349 . S
C575 H567 0.950 . S
C575 C573 1.327 . S
C576 C564 1.349 . S
C576 H570 0.950 . S
C576 C577 1.327 . S
C577 H571 0.950 . S
C577 C576 1.327 . S
C577 C581 1.429 . S
C578 C561 1.574 . S
C578 H572 0.949 . S
C578 C582 1.368 . S
C579 C560 1.429 . S
C579 C573 1.429 . S
C579 C580 1.523 . S
C580 C561 1.368 . S
C580 C574 1.368 . S
C580 C579 1.523 . S
C581 C565 1.429 . S
C581 C577 1.429 . S
C581 C582 1.523 . S
C582 C566 1.368 . S
C582 C578 1.368 . S
C582 C581 1.523 . S
H583 C558 0.950 . S
H584 C560 0.950 . S
H585 C561 0.949 . S
H586 C563 0.950 . S
H587 C565 0.950 . S
C588 C589 1.349 . S
C588 C590 1.327 . S
C588 H613 0.950 . S
C589 C588 1.349 . S
C589 C605 1.367 . S
C590 C588 1.327 . S
C590 C609 1.429 . S
C590 H614 0.950 . S
C591 C608 1.574 . S
C591 C610 1.368 . S
C591 H615 0.949 . S
H592 C596 0.949 . S
C593 C594 1.349 . S
C593 C595 1.327 . S
C593 H616 0.950 . S
C594 C593 1.349 . S
C594 C606 1.349 . S
C595 C593 1.327 . S
C595 C611 1.429 . S
C595 H617 0.950 . S
C596 H592 0.949 . S
C596 C604 1.574 . S
C596 C612 1.368 1_455 S
H597 C605 0.943 1_655 S
H598 C603 0.950 . S
H599 C604 0.949 . S
H600 C606 0.950 . S
H601 C607 0.950 1_455 S
H602 C608 0.949 . S
C603 H598 0.950 . S
C603 C605 1.317 1_655 S
C603 C609 1.429 1_655 S
C604 C596 1.574 . S
C604 H599 0.949 . S
C604 C610 1.368 1_455 S
C605 C589 1.367 . S
C605 H597 0.943 1_455 S
C605 C603 1.317 1_455 S
C606 C594 1.349 . S
C606 H600 0.950 . S
C606 C607 1.327 . S
C607 H601 0.950 1_655 S
C607 C606 1.327 . S
C607 C611 1.429 . S
C608 C591 1.574 . S
C608 H602 0.949 . S
C608 C612 1.368 . S
C609 C590 1.429 . S
C609 C603 1.429 1_455 S
C609 C610 1.523 1_455 S
C610 C591 1.368 . S
C610 C604 1.368 1_655 S
C610 C609 1.523 1_655 S
C611 C595 1.429 . S
C611 C607 1.429 . S
C611 C612 1.523 . S
C612 C596 1.368 1_655 S
C612 C608 1.368 . S
C612 C611 1.523 . S
H613 C588 0.950 . S
H614 C590 0.950 . S
H615 C591 0.949 . S
H616 C593 0.950 . S
H617 C595 0.950 . S
C618 C619 1.349 . S
C618 C620 1.327 . S
C618 H643 0.950 . S
C619 C618 1.349 . S
C619 C635 1.349 . S
C620 C618 1.327 . S
C620 C639 1.429 . S
C620 H644 0.950 . S
C621 C638 1.574 . S
C621 C640 1.368 . S
C621 H645 0.949 . S
H622 C626 0.949 . S
C623 C624 1.349 . S
C623 C625 1.327 . S
C623 H646 0.950 . S
C624 C623 1.349 . S
C624 C636 1.349 . S
C625 C623 1.327 . S
C625 C641 1.429 . S
C625 H647 0.950 . S
C626 H622 0.949 . S
C626 C634 1.574 . S
C626 C642 1.368 . S
H627 C635 0.950 . S
H628 C633 0.950 . S
H629 C634 0.949 . S
H630 C636 0.950 . S
H631 C637 0.950 . S
H632 C638 0.949 . S
C633 H628 0.950 . S
C633 C635 1.327 . S
C633 C639 1.429 . S
C634 C626 1.574 . S
C634 H629 0.949 . S
C634 C640 1.368 . S
C635 C619 1.349 . S
C635 H627 0.950 . S
C635 C633 1.327 . S
C636 C624 1.349 . S
C636 H630 0.950 . S
C636 C637 1.327 . S
C637 H631 0.950 . S
C637 C636 1.327 . S
C637 C641 1.429 . S
C638 C621 1.574 . S
C638 H632 0.949 . S
C638 C642 1.368 . S
C639 C620 1.429 . S
C639 C633 1.429 . S
C639 C640 1.523 . S
C640 C621 1.368 . S
C640 C634 1.368 . S
C640 C639 1.523 . S
C641 C625 1.429 . S
C641 C637 1.429 . S
C641 C642 1.523 . S
C642 C626 1.368 . S
C642 C638 1.368 . S
C642 C641 1.523 . S
H643 C618 0.950 . S
H644 C620 0.950 . S
H645 C621 0.949 . S
H646 C623 0.950 . S
H647 C625 0.950 . S
C648 C649 1.349 . S
C648 C650 1.327 . S
C648 H673 0.950 . S
C649 C648 1.349 . S
C649 C665 1.349 . S
C650 C648 1.327 . S
C650 C669 1.428 . S
C650 H674 0.950 1_565 S
C651 C668 1.574 1_565 S
C651 C670 1.368 1_565 S
C651 H675 0.949 . S
H652 C656 0.949 . S
C653 C654 1.349 . S
C653 C655 1.327 . S
C653 H676 0.950 . S
C654 C653 1.349 . S
C654 C666 1.349 . S
C655 C653 1.327 . S
C655 C671 1.429 . S
C655 H677 0.950 . S
C656 H652 0.949 . S
C656 C664 1.574 . S
C656 C672 1.368 . S
H657 C665 0.950 . S
H658 C663 0.950 . S
H659 C664 0.949 . S
H660 C666 0.950 . S
H661 C667 0.950 . S
H662 C668 0.949 1_565 S
C663 H658 0.950 . S
C663 C665 1.327 . S
C663 C669 1.429 . S
C664 C656 1.574 . S
C664 H659 0.949 . S
C664 C670 1.368 . S
C665 C649 1.349 . S
C665 H657 0.950 . S
C665 C663 1.327 . S
C666 C654 1.349 . S
C666 H660 0.950 . S
C666 C667 1.327 . S
C667 H661 0.950 . S
C667 C666 1.327 . S
C667 C671 1.429 . S
C668 C651 1.574 1_545 S
C668 H662 0.949 1_545 S
C668 C672 1.368 . S
C669 C650 1.428 . S
C669 C663 1.429 . S
C669 C670 1.523 1_565 S
C670 C651 1.368 1_545 S
C670 C664 1.368 . S
C670 C669 1.523 1_545 S
C671 C655 1.429 . S
C671 C667 1.429 . S
C671 C672 1.523 . S
C672 C656 1.368 . S
C672 C668 1.368 . S
C672 C671 1.523 . S
H673 C648 0.950 . S
H674 C650 0.950 1_545 S
H675 C651 0.949 . S
H676 C653 0.950 . S
H677 C655 0.950 . S
C678 C679 1.349 . S
C678 C680 1.327 . S
C678 H703 0.950 . S
C679 C678 1.349 . S
C679 C695 1.349 . S
C680 C678 1.327 . S
C680 C699 1.429 . S
C680 H704 0.950 . S
C681 C698 1.574 . S
C681 C700 1.368 . S
C681 H705 0.949 . S
H682 C686 0.949 . S
C683 C684 1.349 . S
C683 C685 1.327 . S
C683 H706 0.950 . S
C684 C683 1.349 . S
C684 C696 1.349 . S
C685 C683 1.327 . S
C685 C701 1.429 . S
C685 H707 0.950 . S
C686 H682 0.949 . S
C686 C694 1.574 1_545 S
C686 C702 1.368 . S
H687 C695 0.950 . S
H688 C693 0.950 1_545 S
H689 C694 0.949 . S
H690 C696 0.950 . S
H691 C697 0.950 . S
H692 C698 0.949 . S
C693 H688 0.950 1_565 S
C693 C695 1.327 . S
C693 C699 1.429 . S
C694 C686 1.574 1_565 S
C694 H689 0.949 . S
C694 C700 1.368 1_565 S
C695 C679 1.349 . S
C695 H687 0.950 . S
C695 C693 1.327 . S
C696 C684 1.349 . S
C696 H690 0.950 . S
C696 C697 1.327 . S
C697 H691 0.950 . S
C697 C696 1.327 . S
C697 C701 1.429 . S
C698 C681 1.574 . S
C698 H692 0.949 . S
C698 C702 1.368 . S
C699 C680 1.429 . S
C699 C693 1.429 . S
C699 C700 1.523 1_565 S
C700 C681 1.368 . S
C700 C694 1.368 1_545 S
C700 C699 1.523 1_545 S
C701 C685 1.429 . S
C701 C697 1.429 . S
C701 C702 1.523 . S
C702 C686 1.368 . S
C702 C698 1.368 . S
C702 C701 1.523 . S
H703 C678 0.950 . S
H704 C680 0.950 . S
H705 C681 0.949 . S
H706 C683 0.950 . S
H707 C685 0.950 . S
C708 C709 1.349 . S
C708 C710 1.327 . S
C708 H733 0.950 . S
C709 C708 1.349 . S
C709 C725 1.349 . S
C710 C708 1.327 . S
C710 C729 1.429 . S
C710 H734 0.950 1_655 S
C711 C728 1.574 . S
C711 C730 1.368 . S
C711 H735 0.949 . S
H712 C716 0.949 . S
C713 C714 1.370 . S
C713 C715 1.321 1_455 S
C713 H736 0.936 1_455 S
C714 C713 1.370 . S
C714 C726 1.349 . S
C715 C713 1.321 1_655 S
C715 C731 1.429 1_655 S
C715 H737 0.950 . S
C716 H712 0.949 . S
C716 C724 1.574 . S
C716 C732 1.368 1_455 S
H717 C725 0.950 . S
H718 C723 0.950 . S
H719 C724 0.949 . S
H720 C726 0.950 . S
H721 C727 0.950 . S
H722 C728 0.949 . S
C723 H718 0.950 . S
C723 C725 1.327 . S
C723 C729 1.429 . S
C724 C716 1.574 . S
C724 H719 0.949 . S
C724 C730 1.368 1_455 S
C725 C709 1.349 . S
C725 H717 0.950 . S
C725 C723 1.327 . S
C726 C714 1.349 . S
C726 H720 0.950 . S
C726 C727 1.327 . S
C727 H721 0.950 . S
C727 C726 1.327 . S
C727 C731 1.429 . S
C728 C711 1.574 . S
C728 H722 0.949 . S
C728 C732 1.368 . S
C729 C710 1.429 . S
C729 C723 1.429 . S
C729 C730 1.523 . S
C730 C711 1.368 . S
C730 C724 1.368 1_655 S
C730 C729 1.523 . S
C731 C715 1.429 1_455 S
C731 C727 1.429 . S
C731 C732 1.523 1_455 S
C732 C716 1.368 1_655 S
C732 C728 1.368 . S
C732 C731 1.523 1_655 S
H733 C708 0.950 . S
H734 C710 0.950 1_455 S
H735 C711 0.949 . S
H736 C713 0.936 1_655 S
H737 C715 0.950 . S
C738 C739 1.349 . S
C738 C740 1.327 . S
C738 H763 0.950 . S
C739 C738 1.349 . S
C739 C755 1.349 . S
C740 C738 1.327 . S
C740 C759 1.429 . S
C740 H764 0.950 . S
C741 C758 1.574 . S
C741 C760 1.368 . S
C741 H765 0.949 . S
H742 C746 0.949 . S
C743 C744 1.349 . S
C743 C745 1.327 . S
C743 H766 0.950 . S
C744 C743 1.349 . S
C744 C756 1.349 . S
C745 C743 1.327 . S
C745 C761 1.429 . S
C745 H767 0.950 . S
C746 H742 0.949 . S
C746 C754 1.574 . S
C746 C762 1.368 . S
H747 C755 0.950 . S
H748 C753 0.950 . S
H749 C754 0.949 . S
H750 C756 0.950 . S
H751 C757 0.950 . S
H752 C758 0.949 . S
C753 H748 0.950 . S
C753 C755 1.327 . S
C753 C759 1.429 . S
C754 C746 1.574 . S
C754 H749 0.949 . S
C754 C760 1.368 . S
C755 C739 1.349 . S
C755 H747 0.950 . S
C755 C753 1.327 . S
C756 C744 1.349 . S
C756 H750 0.950 . S
C756 C757 1.327 . S
C757 H751 0.950 . S
C757 C756 1.327 . S
C757 C761 1.429 . S
C758 C741 1.574 . S
C758 H752 0.949 . S
C758 C762 1.368 . S
C759 C740 1.429 . S
C759 C753 1.429 . S
C759 C760 1.523 . S
C760 C741 1.368 . S
C760 C754 1.368 . S
C760 C759 1.523 . S
C761 C745 1.429 . S
C761 C757 1.429 . S
C761 C762 1.523 . S
C762 C746 1.368 . S
C762 C758 1.368 . S
C762 C761 1.523 . S
H763 C738 0.950 . S
H764 C740 0.950 . S
H765 C741 0.949 . S
H766 C743 0.950 . S
H767 C745 0.950 . S
C768 C769 1.349 . S
C768 C770 1.327 . S
C768 H793 0.950 . S
C769 C768 1.349 . S
C769 C785 1.349 . S
C770 C768 1.327 . S
C770 C789 1.429 . S
C770 H794 0.950 1_556 S
C771 C788 1.574 . S
C771 C790 1.368 1_455 S
C771 H795 0.949 . S
H772 C776 0.949 . S
C773 C774 1.349 . S
C773 C775 1.327 . S
C773 H796 0.950 . S
C774 C773 1.349 . S
C774 C786 1.349 . S
C775 C773 1.327 . S
C775 C791 1.429 . S
C775 H797 0.950 1_554 S
C776 H772 0.949 . S
C776 C784 1.574 . S
C776 C792 1.368 1_655 S
H777 C785 0.950 . S
H778 C783 0.950 1_455 S
H779 C784 0.949 . S
H780 C786 0.950 . S
H781 C787 0.950 1_655 S
H782 C788 0.949 . S
C783 H778 0.950 1_655 S
C783 C785 1.327 . S
C783 C789 1.429 . S
C784 C776 1.574 . S
C784 H779 0.949 . S
C784 C790 1.368 1_554 S
C785 C769 1.349 . S
C785 H777 0.950 . S
C785 C783 1.327 . S
C786 C774 1.349 . S
C786 H780 0.950 . S
C786 C787 1.327 . S
C787 H781 0.950 1_455 S
C787 C786 1.327 . S
C787 C791 1.429 . S
C788 C771 1.574 . S
C788 H782 0.949 . S
C788 C792 1.368 1_556 S
C789 C770 1.429 . S
C789 C783 1.429 . S
C789 C790 1.523 . S
C790 C771 1.368 1_655 S
C790 C784 1.368 1_556 S
C790 C789 1.523 . S
C791 C775 1.429 . S
C791 C787 1.429 . S
C791 C792 1.523 . S
C792 C776 1.368 1_455 S
C792 C788 1.368 1_554 S
C792 C791 1.523 . S
H793 C768 0.950 . S
H794 C770 0.950 1_554 S
H795 C771 0.949 . S
H796 C773 0.950 . S
H797 C775 0.950 1_556 S
C798 C799 1.349 . S
C798 C800 1.327 . S
C798 H823 0.950 . S
C799 C798 1.349 . S
C799 C815 1.349 . S
C800 C798 1.327 . S
C800 C819 1.429 . S
C800 H824 0.950 . S
C801 C818 1.574 . S
C801 C820 1.368 1_556 S
C801 H825 0.949 . S
H802 C806 0.949 . S
C803 C804 1.349 . S
C803 C805 1.327 . S
C803 H826 0.950 . S
C804 C803 1.349 . S
C804 C816 1.349 . S
C805 C803 1.327 . S
C805 C821 1.429 . S
C805 H827 0.950 . S
C806 H802 0.949 . S
C806 C814 1.574 . S
C806 C822 1.368 1_554 S
H807 C815 0.950 . S
H808 C813 0.950 1_556 S
H809 C814 0.949 . S
H810 C816 0.950 . S
H811 C817 0.950 1_554 S
H812 C818 0.949 . S
C813 H808 0.950 1_554 S
C813 C815 1.327 . S
C813 C819 1.429 . S
C814 C806 1.574 . S
C814 H809 0.949 . S
C814 C820 1.368 . S
C815 C799 1.349 . S
C815 H807 0.950 . S
C815 C813 1.327 . S
C816 C804 1.349 . S
C816 H810 0.950 . S
C816 C817 1.327 . S
C817 H811 0.950 1_556 S
C817 C816 1.327 . S
C817 C821 1.429 . S
C818 C801 1.574 . S
C818 H812 0.949 . S
C818 C822 1.368 . S
C819 C800 1.429 . S
C819 C813 1.429 . S
C819 C820 1.523 . S
C820 C801 1.368 1_554 S
C820 C814 1.368 . S
C820 C819 1.523 . S
C821 C805 1.429 . S
C821 C817 1.429 . S
C821 C822 1.523 . S
C822 C806 1.368 1_556 S
C822 C818 1.368 . S
C822 C821 1.523 . S
H823 C798 0.950 . S
H824 C800 0.950 . S
H825 C801 0.949 . S
H826 C803 0.950 . S
H827 C805 0.950 . S
C828 C829 1.349 . S
C828 C830 1.327 . S
C828 H853 0.950 . S
C829 C828 1.349 . S
C829 C845 1.349 . S
C830 C828 1.327 . S
C830 C849 1.429 . S
C830 H854 0.950 . S
C831 C848 1.574 . S
C831 C850 1.368 1_565 S
C831 H855 0.949 . S
H832 C836 0.949 . S
C833 C834 1.349 . S
C833 C835 1.327 . S
C833 H856 0.950 . S
C834 C833 1.349 . S
C834 C846 1.349 . S
C835 C833 1.327 . S
C835 C851 1.429 . S
C835 H857 0.950 . S
C836 H832 0.949 . S
C836 C844 1.574 . S
C836 C852 1.368 1_545 S
H837 C845 0.950 1_565 S
H838 C843 0.923 1_565 S
H839 C844 0.949 . S
H840 C846 0.950 1_545 S
H841 C847 0.923 1_545 S
H842 C848 0.949 . S
C843 H838 0.923 1_545 S
C843 C845 1.321 . S
C843 C849 1.461 . S
C844 C836 1.574 . S
C844 H839 0.949 . S
C844 C850 1.368 1_554 S
C845 C829 1.349 . S
C845 H837 0.950 1_545 S
C845 C843 1.321 . S
C846 C834 1.349 . S
C846 H840 0.950 1_565 S
C846 C847 1.321 . S
C847 H841 0.923 1_565 S
C847 C846 1.321 . S
C847 C851 1.461 . S
C848 C831 1.574 . S
C848 H842 0.949 . S
C848 C852 1.368 1_556 S
C849 C830 1.429 . S
C849 C843 1.461 . S
C849 C850 1.523 . S
C850 C831 1.368 1_545 S
C850 C844 1.368 1_556 S
C850 C849 1.523 . S
C851 C835 1.429 . S
C851 C847 1.461 . S
C851 C852 1.523 . S
C852 C836 1.368 1_565 S
C852 C848 1.368 1_554 S
C852 C851 1.523 . S
H853 C828 0.950 . S
H854 C830 0.950 . S
H855 C831 0.949 . S
H856 C833 0.950 . S
H857 C835 0.950 . S
C858 C859 1.349 . S
C858 C860 1.327 . S
C858 H883 0.950 . S
C859 C858 1.349 . S
C859 C875 1.349 . S
C860 C858 1.327 . S
C860 C879 1.429 . S
C860 H884 0.950 1_565 S
C861 C878 1.574 . S
C861 C880 1.368 . S
C861 H885 0.949 . S
H862 C866 0.949 . S
C863 C864 1.349 . S
C863 C865 1.327 . S
C863 H886 0.950 . S
C864 C863 1.349 . S
C864 C876 1.349 . S
C865 C863 1.327 . S
C865 C881 1.429 . S
C865 H887 0.950 1_545 S
C866 H862 0.949 . S
C866 C874 1.574 . S
C866 C882 1.368 . S
H867 C875 0.950 . S
H868 C873 0.950 . S
H869 C874 0.949 . S
H870 C876 0.950 . S
H871 C877 0.950 . S
H872 C878 0.949 . S
C873 H868 0.950 . S
C873 C875 1.327 . S
C873 C879 1.429 . S
C874 C866 1.574 . S
C874 H869 0.949 . S
C874 C880 1.368 1_545 S
C875 C859 1.349 . S
C875 H867 0.950 . S
C875 C873 1.327 . S
C876 C864 1.349 . S
C876 H870 0.950 . S
C876 C877 1.327 . S
C877 H871 0.950 . S
C877 C876 1.327 . S
C877 C881 1.429 . S
C878 C861 1.574 . S
C878 H872 0.949 . S
C878 C882 1.368 1_565 S
C879 C860 1.429 . S
C879 C873 1.429 . S
C879 C880 1.523 . S
C880 C861 1.368 . S
C880 C874 1.368 1_565 S
C880 C879 1.523 . S
C881 C865 1.429 . S
C881 C877 1.429 . S
C881 C882 1.523 . S
C882 C866 1.368 . S
C882 C878 1.368 1_545 S
C882 C881 1.523 . S
H883 C858 0.950 . S
H884 C860 0.950 1_545 S
H885 C861 0.949 . S
H886 C863 0.950 . S
H887 C865 0.950 1_565 S
C888 C889 1.349 . S
C888 C890 1.327 . S
C888 H913 0.950 . S
C889 C888 1.349 . S
C889 C905 1.349 . S
C890 C888 1.327 . S
C890 C909 1.429 . S
C890 H914 0.950 . S
C891 C908 1.574 . S
C891 C910 1.368 1_655 S
C891 H915 0.949 . S
H892 C896 0.949 . S
C893 C894 1.349 . S
C893 C895 1.327 . S
C893 H916 0.950 . S
C894 C893 1.349 . S
C894 C906 1.349 . S
C895 C893 1.327 . S
C895 C911 1.429 . S
C895 H917 0.950 . S
C896 H892 0.949 . S
C896 C904 1.574 . S
C896 C912 1.368 1_455 S
H897 C905 0.950 . S
H898 C903 0.950 . S
H899 C904 0.949 . S
H900 C906 0.950 . S
H901 C907 0.950 . S
H902 C908 0.949 . S
C903 H898 0.950 . S
C903 C905 1.327 . S
C903 C909 1.429 . S
C904 C896 1.574 . S
C904 H899 0.949 . S
C904 C910 1.368 . S
C905 C889 1.349 . S
C905 H897 0.950 . S
C905 C903 1.327 . S
C906 C894 1.349 . S
C906 H900 0.950 . S
C906 C907 1.327 . S
C907 H901 0.950 . S
C907 C906 1.327 . S
C907 C911 1.429 . S
C908 C891 1.574 . S
C908 H902 0.949 . S
C908 C912 1.368 . S
C909 C890 1.429 . S
C909 C903 1.429 . S
C909 C910 1.523 . S
C910 C891 1.368 1_455 S
C910 C904 1.368 . S
C910 C909 1.523 . S
C911 C895 1.429 . S
C911 C907 1.429 . S
C911 C912 1.523 . S
C912 C896 1.368 1_655 S
C912 C908 1.368 . S
C912 C911 1.523 . S
H913 C888 0.950 . S
H914 C890 0.950 . S
H915 C891 0.949 . S
H916 C893 0.950 . S
H917 C895 0.950 . S
C918 C919 1.349 . S
C918 C920 1.327 . S
C918 H943 0.950 . S
C919 C918 1.349 . S
C919 C935 1.349 . S
C920 C918 1.327 . S
C920 C939 1.429 . S
C920 H944 0.950 . S
C921 C938 1.574 . S
C921 C940 1.368 . S
C921 H945 0.949 . S
H922 C926 0.949 . S
C923 C924 1.349 . S
C923 C925 1.327 . S
C923 H946 0.950 . S
C924 C923 1.349 . S
C924 C936 1.349 . S
C925 C923 1.327 . S
C925 C941 1.429 . S
C925 H947 0.950 . S
C926 H922 0.949 . S
C926 C934 1.574 . S
C926 C942 1.368 . S
H927 C935 0.950 . S
H928 C933 0.950 . S
H929 C934 0.949 . S
H930 C936 0.950 . S
H931 C937 0.950 . S
H932 C938 0.949 . S
C933 H928 0.950 . S
C933 C935 1.327 . S
C933 C939 1.429 . S
C934 C926 1.574 . S
C934 H929 0.949 . S
C934 C940 1.368 . S
C935 C919 1.349 . S
C935 H927 0.950 . S
C935 C933 1.327 . S
C936 C924 1.349 . S
C936 H930 0.950 . S
C936 C937 1.327 . S
C937 H931 0.950 . S
C937 C936 1.327 . S
C937 C941 1.429 . S
C938 C921 1.574 . S
C938 H932 0.949 . S
C938 C942 1.368 . S
C939 C920 1.429 . S
C939 C933 1.429 . S
C939 C940 1.523 . S
C940 C921 1.368 . S
C940 C934 1.368 . S
C940 C939 1.523 . S
C941 C925 1.429 . S
C941 C937 1.429 . S
C941 C942 1.523 . S
C942 C926 1.368 . S
C942 C938 1.368 . S
C942 C941 1.523 . S
H943 C918 0.950 . S
H944 C920 0.950 . S
H945 C921 0.949 . S
H946 C923 0.950 . S
H947 C925 0.950 . S
C948 C949 1.349 . S
C948 C950 1.327 . S
C948 H973 0.950 . S
C949 C948 1.349 . S
C949 C965 1.349 . S
C950 C948 1.327 . S
C950 C969 1.429 . S
C950 H974 0.950 . S
C951 C968 1.574 . S
C951 C970 1.368 . S
C951 H975 0.949 . S
H952 C956 0.949 . S
C953 C954 1.349 . S
C953 C955 1.327 . S
C953 H976 0.950 . S
C954 C953 1.349 . S
C954 C966 1.349 . S
C955 C953 1.327 . S
C955 C971 1.429 . S
C955 H977 0.950 . S
C956 H952 0.949 . S
C956 C964 1.574 . S
C956 C972 1.368 . S
H957 C965 0.950 . S
H958 C963 0.950 . S
H959 C964 0.949 . S
H960 C966 0.950 . S
H961 C967 0.950 . S
H962 C968 0.949 . S
C963 H958 0.950 . S
C963 C965 1.327 . S
C963 C969 1.429 . S
C964 C956 1.574 . S
C964 H959 0.949 . S
C964 C970 1.368 . S
C965 C949 1.349 . S
C965 H957 0.950 . S
C965 C963 1.327 . S
C966 C954 1.349 . S
C966 H960 0.950 . S
C966 C967 1.327 . S
C967 H961 0.950 . S
C967 C966 1.327 . S
C967 C971 1.429 . S
C968 C951 1.574 . S
C968 H962 0.949 . S
C968 C972 1.368 . S
C969 C950 1.429 . S
C969 C963 1.429 . S
C969 C970 1.523 . S
C970 C951 1.368 . S
C970 C964 1.368 . S
C970 C969 1.523 . S
C971 C955 1.429 . S
C971 C967 1.429 . S
C971 C972 1.523 . S
C972 C956 1.368 . S
C972 C968 1.368 . S
C972 C971 1.523 . S
H973 C948 0.950 . S
H974 C950 0.950 . S
H975 C951 0.949 . S
H976 C953 0.950 . S
H977 C955 0.950 . S
C978 C979 1.349 . S
C978 C980 1.327 . S
C978 H1003 0.950 . S
C979 C978 1.349 . S
C979 C995 1.349 . S
C980 C978 1.327 . S
C980 C999 1.429 . S
C980 H1004 0.950 . S
C981 C998 1.574 . S
C981 C1000 1.368 . S
C981 H1005 0.949 . S
H982 C986 0.949 . S
C983 C984 1.349 . S
C983 C985 1.327 . S
C983 H1006 0.950 . S
C984 C983 1.349 . S
C984 C996 1.349 . S
C985 C983 1.327 . S
C985 C1001 1.429 . S
C985 H1007 0.950 . S
C986 H982 0.949 . S
C986 C994 1.574 . S
C986 C1002 1.368 . S
H987 C995 0.950 . S
H988 C993 0.950 . S
H989 C994 0.949 . S
H990 C996 0.950 . S
H991 C997 0.950 . S
H992 C998 0.949 . S
C993 H988 0.950 . S
C993 C995 1.327 . S
C993 C999 1.429 . S
C994 C986 1.574 . S
C994 H989 0.949 . S
C994 C1000 1.368 . S
C995 C979 1.349 . S
C995 H987 0.950 . S
C995 C993 1.327 . S
C996 C984 1.349 . S
C996 H990 0.950 . S
C996 C997 1.327 . S
C997 H991 0.950 . S
C997 C996 1.327 . S
C997 C1001 1.429 . S
C998 C981 1.574 . S
C998 H992 0.949 . S
C998 C1002 1.368 . S
C999 C980 1.429 . S
C999 C993 1.429 . S
C999 C1000 1.523 . S
C1000 C981 1.368 . S
C1000 C994 1.368 . S
C1000 C999 1.523 . S
C1001 C985 1.429 . S
C1001 C997 1.429 . S
C1001 C1002 1.523 . S
C1002 C986 1.368 . S
C1002 C998 1.368 . S
C1002 C1001 1.523 . S
H1003 C978 0.950 . S
H1004 C980 0.950 . S
H1005 C981 0.949 . S
H1006 C983 0.950 . S
H1007 C985 0.950 . S
C1008 C1009 1.349 . S
C1008 C1010 1.327 . S
C1008 H1033 0.950 . S
C1009 C1008 1.349 . S
C1009 C1025 1.349 . S
C1010 C1008 1.327 . S
C1010 C1029 1.429 . S
C1010 H1034 0.950 . S
C1011 C1028 1.574 . S
C1011 C1030 1.368 . S
C1011 H1035 0.949 . S
H1012 C1016 0.949 . S
C1013 C1014 1.349 . S
C1013 C1015 1.327 . S
C1013 H1036 0.950 . S
C1014 C1013 1.349 . S
C1014 C1026 1.349 . S
C1015 C1013 1.327 . S
C1015 C1031 1.429 . S
C1015 H1037 0.950 . S
C1016 H1012 0.949 . S
C1016 C1024 1.574 . S
C1016 C1032 1.368 . S
H1017 C1025 0.950 . S
H1018 C1023 0.950 . S
H1019 C1024 0.949 . S
H1020 C1026 0.950 . S
H1021 C1027 0.950 . S
H1022 C1028 0.949 . S
C1023 H1018 0.950 . S
C1023 C1025 1.327 . S
C1023 C1029 1.429 . S
C1024 C1016 1.574 . S
C1024 H1019 0.949 . S
C1024 C1030 1.368 . S
C1025 C1009 1.349 . S
C1025 H1017 0.950 . S
C1025 C1023 1.327 . S
C1026 C1014 1.349 . S
C1026 H1020 0.950 . S
C1026 C1027 1.327 . S
C1027 H1021 0.950 . S
C1027 C1026 1.327 . S
C1027 C1031 1.429 . S
C1028 C1011 1.574 . S
C1028 H1022 0.949 . S
C1028 C1032 1.368 . S
C1029 C1010 1.429 . S
C1029 C1023 1.429 . S
C1029 C1030 1.523 . S
C1030 C1011 1.368 . S
C1030 C1024 1.368 . S
C1030 C1029 1.523 . S
C1031 C1015 1.429 . S
C1031 C1027 1.429 . S
C1031 C1032 1.523 . S
C1032 C1016 1.368 . S
C1032 C1028 1.368 . S
C1032 C1031 1.523 . S
H1033 C1008 0.950 . S
H1034 C1010 0.950 . S
H1035 C1011 0.949 . S
H1036 C1013 0.950 . S
H1037 C1015 0.950 . S
C1038 C1039 1.349 . S
C1038 C1040 1.327 . S
C1038 H1063 0.950 . S
C1039 C1038 1.349 . S
C1039 C1055 1.349 . S
C1040 C1038 1.327 . S
C1040 C1059 1.429 . S
C1040 H1064 0.950 . S
C1041 C1058 1.574 . S
C1041 C1060 1.368 . S
C1041 H1065 0.949 . S
H1042 C1046 0.949 . S
C1043 C1044 1.349 . S
C1043 C1045 1.327 . S
C1043 H1066 0.950 . S
C1044 C1043 1.349 . S
C1044 C1056 1.349 . S
C1045 C1043 1.327 . S
C1045 C1061 1.429 . S
C1045 H1067 0.950 . S
C1046 H1042 0.949 . S
C1046 C1054 1.574 . S
C1046 C1062 1.368 . S
H1047 C1055 0.950 . S
H1048 C1053 0.950 . S
H1049 C1054 0.949 . S
H1050 C1056 0.950 . S
H1051 C1057 0.950 . S
H1052 C1058 0.949 . S
C1053 H1048 0.950 . S
C1053 C1055 1.327 . S
C1053 C1059 1.429 . S
C1054 C1046 1.574 . S
C1054 H1049 0.949 . S
C1054 C1060 1.368 . S
C1055 C1039 1.349 . S
C1055 H1047 0.950 . S
C1055 C1053 1.327 . S
C1056 C1044 1.349 . S
C1056 H1050 0.950 . S
C1056 C1057 1.327 . S
C1057 H1051 0.950 . S
C1057 C1056 1.327 . S
C1057 C1061 1.429 . S
C1058 C1041 1.574 . S
C1058 H1052 0.949 . S
C1058 C1062 1.368 . S
C1059 C1040 1.429 . S
C1059 C1053 1.429 . S
C1059 C1060 1.523 . S
C1060 C1041 1.368 . S
C1060 C1054 1.368 . S
C1060 C1059 1.523 . S
C1061 C1045 1.429 . S
C1061 C1057 1.429 . S
C1061 C1062 1.523 . S
C1062 C1046 1.368 . S
C1062 C1058 1.368 . S
C1062 C1061 1.523 . S
H1063 C1038 0.950 . S
H1064 C1040 0.950 . S
H1065 C1041 0.949 . S
H1066 C1043 0.950 . S
H1067 C1045 0.950 . S
C1068 C1069 1.349 . S
C1068 C1070 1.327 . S
C1068 H1093 0.950 . S
C1069 C1068 1.349 . S
C1069 C1085 1.349 . S
C1070 C1068 1.327 . S
C1070 C1089 1.429 . S
C1070 H1094 0.950 . S
C1071 C1088 1.574 . S
C1071 C1090 1.368 . S
C1071 H1095 0.949 . S
H1072 C1076 0.949 . S
C1073 C1074 1.349 . S
C1073 C1075 1.327 . S
C1073 H1096 0.950 . S
C1074 C1073 1.349 . S
C1074 C1086 1.349 . S
C1075 C1073 1.327 . S
C1075 C1091 1.429 . S
C1075 H1097 0.950 . S
C1076 H1072 0.949 . S
C1076 C1084 1.574 . S
C1076 C1092 1.368 . S
H1077 C1085 0.950 . S
H1078 C1083 0.950 . S
H1079 C1084 0.949 . S
H1080 C1086 0.950 . S
H1081 C1087 0.950 . S
H1082 C1088 0.949 . S
C1083 H1078 0.950 . S
C1083 C1085 1.327 . S
C1083 C1089 1.429 . S
C1084 C1076 1.574 . S
C1084 H1079 0.949 . S
C1084 C1090 1.368 . S
C1085 C1069 1.349 . S
C1085 H1077 0.950 . S
C1085 C1083 1.327 . S
C1086 C1074 1.349 . S
C1086 H1080 0.950 . S
C1086 C1087 1.327 . S
C1087 H1081 0.950 . S
C1087 C1086 1.327 . S
C1087 C1091 1.429 . S
C1088 C1071 1.574 . S
C1088 H1082 0.949 . S
C1088 C1092 1.368 . S
C1089 C1070 1.429 . S
C1089 C1083 1.429 . S
C1089 C1090 1.523 . S
C1090 C1071 1.368 . S
C1090 C1084 1.368 . S
C1090 C1089 1.523 . S
C1091 C1075 1.429 . S
C1091 C1087 1.429 . S
C1091 C1092 1.523 . S
C1092 C1076 1.368 . S
C1092 C1088 1.368 . S
C1092 C1091 1.523 . S
H1093 C1068 0.950 . S
H1094 C1070 0.950 . S
H1095 C1071 0.949 . S
H1096 C1073 0.950 . S
H1097 C1075 0.950 . S
C1098 C1099 1.349 . S
C1098 C1100 1.327 . S
C1098 H1123 0.950 . S
C1099 C1098 1.349 . S
C1099 C1115 1.349 . S
C1100 C1098 1.327 . S
C1100 C1119 1.429 . S
C1100 H1124 0.950 . S
C1101 C1118 1.574 . S
C1101 C1120 1.368 . S
C1101 H1125 0.949 . S
H1102 C1106 0.949 . S
C1103 C1104 1.349 . S
C1103 C1105 1.327 . S
C1103 H1126 0.950 . S
C1104 C1103 1.349 . S
C1104 C1116 1.349 . S
C1105 C1103 1.327 . S
C1105 C1121 1.429 . S
C1105 H1127 0.950 . S
C1106 H1102 0.949 . S
C1106 C1114 1.574 . S
C1106 C1122 1.368 . S
H1107 C1115 0.950 . S
H1108 C1113 0.950 . S
H1109 C1114 0.949 . S
H1110 C1116 0.950 . S
H1111 C1117 0.950 . S
H1112 C1118 0.949 . S
C1113 H1108 0.950 . S
C1113 C1115 1.327 . S
C1113 C1119 1.429 . S
C1114 C1106 1.574 . S
C1114 H1109 0.949 . S
C1114 C1120 1.368 . S
C1115 C1099 1.349 . S
C1115 H1107 0.950 . S
C1115 C1113 1.327 . S
C1116 C1104 1.349 . S
C1116 H1110 0.950 . S
C1116 C1117 1.327 . S
C1117 H1111 0.950 . S
C1117 C1116 1.327 . S
C1117 C1121 1.429 . S
C1118 C1101 1.574 . S
C1118 H1112 0.949 . S
C1118 C1122 1.368 . S
C1119 C1100 1.429 . S
C1119 C1113 1.429 . S
C1119 C1120 1.523 . S
C1120 C1101 1.368 . S
C1120 C1114 1.368 . S
C1120 C1119 1.523 . S
C1121 C1105 1.429 . S
C1121 C1117 1.429 . S
C1121 C1122 1.523 . S
C1122 C1106 1.368 . S
C1122 C1118 1.368 . S
C1122 C1121 1.523 . S
H1123 C1098 0.950 . S
H1124 C1100 0.950 . S
H1125 C1101 0.949 . S
H1126 C1103 0.950 . S
H1127 C1105 0.950 . S
C1128 C1129 1.349 . S
C1128 C1130 1.327 . S
C1128 H1153 0.950 . S
C1129 C1128 1.349 . S
C1129 C1145 1.349 . S
C1130 C1128 1.327 . S
C1130 C1149 1.429 . S
C1130 H1154 0.950 . S
C1131 C1148 1.574 . S
C1131 C1150 1.368 . S
C1131 H1155 0.949 . S
H1132 C1136 0.949 . S
C1133 C1134 1.349 . S
C1133 C1135 1.327 . S
C1133 H1156 0.950 . S
C1134 C1133 1.349 . S
C1134 C1146 1.349 . S
C1135 C1133 1.327 . S
C1135 C1151 1.429 . S
C1135 H1157 0.950 . S
C1136 H1132 0.949 . S
C1136 C1144 1.574 . S
C1136 C1152 1.368 . S
H1137 C1145 0.950 . S
H1138 C1143 0.950 . S
H1139 C1144 0.949 . S
H1140 C1146 0.950 . S
H1141 C1147 0.950 . S
H1142 C1148 0.949 . S
C1143 H1138 0.950 . S
C1143 C1145 1.327 . S
C1143 C1149 1.429 . S
C1144 C1136 1.574 . S
C1144 H1139 0.949 . S
C1144 C1150 1.368 . S
C1145 C1129 1.349 . S
C1145 H1137 0.950 . S
C1145 C1143 1.327 . S
C1146 C1134 1.349 . S
C1146 H1140 0.950 . S
C1146 C1147 1.327 . S
C1147 H1141 0.950 . S
C1147 C1146 1.327 . S
C1147 C1151 1.429 . S
C1148 C1131 1.574 . S
C1148 H1142 0.949 . S
C1148 C1152 1.368 . S
C1149 C1130 1.429 . S
C1149 C1143 1.429 . S
C1149 C1150 1.523 . S
C1150 C1131 1.368 . S
C1150 C1144 1.368 . S
C1150 C1149 1.523 . S
C1151 C1135 1.429 . S
C1151 C1147 1.429 . S
C1151 C1152 1.523 . S
C1152 C1136 1.368 . S
C1152 C1148 1.368 . S
C1152 C1151 1.523 . S
H1153 C1128 0.950 . S
H1154 C1130 0.950 . S
H1155 C1131 0.949 . S
H1156 C1133 0.950 . S
H1157 C1135 0.950 . S
C1158 C1159 1.349 . S
C1158 C1160 1.327 . S
C1158 H1183 0.950 . S
C1159 C1158 1.349 . S
C1159 C1175 1.349 . S
C1160 C1158 1.327 . S
C1160 C1179 1.429 . S
C1160 H1184 0.950 . S
C1161 C1178 1.574 . S
C1161 C1180 1.368 . S
C1161 H1185 0.949 . S
H1162 C1166 0.949 . S
C1163 C1164 1.349 . S
C1163 C1165 1.327 . S
C1163 H1186 0.950 . S
C1164 C1163 1.349 . S
C1164 C1176 1.349 . S
C1165 C1163 1.327 . S
C1165 C1181 1.429 . S
C1165 H1187 0.950 . S
C1166 H1162 0.949 . S
C1166 C1174 1.574 . S
C1166 C1182 1.368 . S
H1167 C1175 0.950 . S
H1168 C1173 0.950 . S
H1169 C1174 0.949 . S
H1170 C1176 0.950 . S
H1171 C1177 0.950 . S
H1172 C1178 0.949 . S
C1173 H1168 0.950 . S
C1173 C1175 1.327 . S
C1173 C1179 1.429 . S
C1174 C1166 1.574 . S
C1174 H1169 0.949 . S
C1174 C1180 1.368 . S
C1175 C1159 1.349 . S
C1175 H1167 0.950 . S
C1175 C1173 1.327 . S
C1176 C1164 1.349 . S
C1176 H1170 0.950 . S
C1176 C1177 1.327 . S
C1177 H1171 0.950 . S
C1177 C1176 1.327 . S
C1177 C1181 1.429 . S
C1178 C1161 1.574 . S
C1178 H1172 0.949 . S
C1178 C1182 1.368 . S
C1179 C1160 1.429 . S
C1179 C1173 1.429 . S
C1179 C1180 1.523 . S
C1180 C1161 1.368 . S
C1180 C1174 1.368 . S
C1180 C1179 1.523 . S
C1181 C1165 1.429 . S
C1181 C1177 1.429 . S
C1181 C1182 1.523 . S
C1182 C1166 1.368 . S
C1182 C1178 1.368 . S
C1182 C1181 1.523 . S
H1183 C1158 0.950 . S
H1184 C1160 0.950 . S
H1185 C1161 0.949 . S
H1186 C1163 0.950 . S
H1187 C1165 0.950 . S
C1188 C1189 1.349 . S
C1188 C1190 1.327 . S
C1188 H1213 0.950 . S
C1189 C1188 1.349 . S
C1189 C1205 1.349 . S
C1190 C1188 1.327 . S
C1190 C1209 1.429 . S
C1190 H1214 0.950 . S
C1191 C1208 1.574 . S
C1191 C1210 1.368 . S
C1191 H1215 0.949 . S
H1192 C1196 0.949 . S
C1193 C1194 1.349 . S
C1193 C1195 1.327 . S
C1193 H1216 0.950 . S
C1194 C1193 1.349 . S
C1194 C1206 1.349 . S
C1195 C1193 1.327 . S
C1195 C1211 1.429 . S
C1195 H1217 0.950 . S
C1196 H1192 0.949 . S
C1196 C1204 1.574 . S
C1196 C1212 1.368 . S
H1197 C1205 0.950 . S
H1198 C1203 0.950 . S
H1199 C1204 0.949 . S
H1200 C1206 0.950 . S
H1201 C1207 0.950 . S
H1202 C1208 0.949 . S
C1203 H1198 0.950 . S
C1203 C1205 1.327 . S
C1203 C1209 1.429 . S
C1204 C1196 1.574 . S
C1204 H1199 0.949 . S
C1204 C1210 1.368 . S
C1205 C1189 1.349 . S
C1205 H1197 0.950 . S
C1205 C1203 1.327 . S
C1206 C1194 1.349 . S
C1206 H1200 0.950 . S
C1206 C1207 1.327 . S
C1207 H1201 0.950 . S
C1207 C1206 1.327 . S
C1207 C1211 1.429 . S
C1208 C1191 1.574 . S
C1208 H1202 0.949 . S
C1208 C1212 1.368 . S
C1209 C1190 1.429 . S
C1209 C1203 1.429 . S
C1209 C1210 1.523 . S
C1210 C1191 1.368 . S
C1210 C1204 1.368 . S
C1210 C1209 1.523 . S
C1211 C1195 1.429 . S
C1211 C1207 1.429 . S
C1211 C1212 1.523 . S
C1212 C1196 1.368 . S
C1212 C1208 1.368 . S
C1212 C1211 1.523 . S
H1213 C1188 0.950 . S
H1214 C1190 0.950 . S
H1215 C1191 0.949 . S
H1216 C1193 0.950 . S
H1217 C1195 0.950 . S
C1218 C1219 1.349 . S
C1218 C1220 1.327 . S
C1218 H1243 0.950 . S
C1219 C1218 1.349 . S
C1219 C1235 1.349 . S
C1220 C1218 1.327 . S
C1220 C1239 1.429 . S
C1220 H1244 0.950 . S
C1221 C1238 1.574 . S
C1221 C1240 1.368 . S
C1221 H1245 0.949 . S
H1222 C1226 0.949 . S
C1223 C1224 1.349 . S
C1223 C1225 1.327 . S
C1223 H1246 0.950 . S
C1224 C1223 1.349 . S
C1224 C1236 1.349 . S
C1225 C1223 1.327 . S
C1225 C1241 1.429 . S
C1225 H1247 0.950 . S
C1226 H1222 0.949 . S
C1226 C1234 1.574 . S
C1226 C1242 1.368 . S
H1227 C1235 0.950 . S
H1228 C1233 0.950 . S
H1229 C1234 0.949 . S
H1230 C1236 0.950 . S
H1231 C1237 0.950 . S
H1232 C1238 0.949 . S
C1233 H1228 0.950 . S
C1233 C1235 1.327 . S
C1233 C1239 1.429 . S
C1234 C1226 1.574 . S
C1234 H1229 0.949 . S
C1234 C1240 1.368 . S
C1235 C1219 1.349 . S
C1235 H1227 0.950 . S
C1235 C1233 1.327 . S
C1236 C1224 1.349 . S
C1236 H1230 0.950 . S
C1236 C1237 1.327 . S
C1237 H1231 0.950 . S
C1237 C1236 1.327 . S
C1237 C1241 1.429 . S
C1238 C1221 1.574 . S
C1238 H1232 0.949 . S
C1238 C1242 1.368 . S
C1239 C1220 1.429 . S
C1239 C1233 1.429 . S
C1239 C1240 1.523 . S
C1240 C1221 1.368 . S
C1240 C1234 1.368 . S
C1240 C1239 1.523 . S
C1241 C1225 1.429 . S
C1241 C1237 1.429 . S
C1241 C1242 1.523 . S
C1242 C1226 1.368 . S
C1242 C1238 1.368 . S
C1242 C1241 1.523 . S
H1243 C1218 0.950 . S
H1244 C1220 0.950 . S
H1245 C1221 0.949 . S
H1246 C1223 0.950 . S
H1247 C1225 0.950 . S
C1248 C1249 1.349 . S
C1248 C1250 1.327 . S
C1248 H1273 0.950 . S
C1249 C1248 1.349 . S
C1249 C1265 1.349 . S
C1250 C1248 1.327 . S
C1250 C1269 1.429 . S
C1250 H1274 0.950 . S
C1251 C1268 1.574 . S
C1251 C1270 1.368 . S
C1251 H1275 0.949 . S
H1252 C1256 0.949 . S
C1253 C1254 1.349 . S
C1253 C1255 1.327 . S
C1253 H1276 0.950 . S
C1254 C1253 1.349 . S
C1254 C1266 1.349 . S
C1255 C1253 1.327 . S
C1255 C1271 1.429 . S
C1255 H1277 0.950 . S
C1256 H1252 0.949 . S
C1256 C1264 1.574 . S
C1256 C1272 1.368 . S
H1257 C1265 0.950 . S
H1258 C1263 0.950 . S
H1259 C1264 0.949 . S
H1260 C1266 0.950 . S
H1261 C1267 0.950 . S
H1262 C1268 0.949 . S
C1263 H1258 0.950 . S
C1263 C1265 1.327 . S
C1263 C1269 1.429 . S
C1264 C1256 1.574 . S
C1264 H1259 0.949 . S
C1264 C1270 1.368 . S
C1265 C1249 1.349 . S
C1265 H1257 0.950 . S
C1265 C1263 1.327 . S
C1266 C1254 1.349 . S
C1266 H1260 0.950 . S
C1266 C1267 1.327 . S
C1267 H1261 0.950 . S
C1267 C1266 1.327 . S
C1267 C1271 1.429 . S
C1268 C1251 1.574 . S
C1268 H1262 0.949 . S
C1268 C1272 1.368 . S
C1269 C1250 1.429 . S
C1269 C1263 1.429 . S
C1269 C1270 1.523 . S
C1270 C1251 1.368 . S
C1270 C1264 1.368 . S
C1270 C1269 1.523 . S
C1271 C1255 1.429 . S
C1271 C1267 1.429 . S
C1271 C1272 1.523 . S
C1272 C1256 1.368 . S
C1272 C1268 1.368 . S
C1272 C1271 1.523 . S
H1273 C1248 0.950 . S
H1274 C1250 0.950 . S
H1275 C1251 0.949 . S
H1276 C1253 0.950 . S
H1277 C1255 0.950 . S
C1278 C1279 1.349 . S
C1278 C1280 1.327 . S
C1278 H1303 0.950 . S
C1279 C1278 1.349 . S
C1279 C1295 1.349 . S
C1280 C1278 1.327 . S
C1280 C1299 1.429 . S
C1280 H1304 0.950 . S
C1281 C1298 1.574 . S
C1281 C1300 1.368 . S
C1281 H1305 0.949 . S
H1282 C1286 0.949 . S
C1283 C1284 1.349 . S
C1283 C1285 1.327 . S
C1283 H1306 0.950 . S
C1284 C1283 1.349 . S
C1284 C1296 1.349 . S
C1285 C1283 1.327 . S
C1285 C1301 1.429 . S
C1285 H1307 0.950 . S
C1286 H1282 0.949 . S
C1286 C1294 1.574 . S
C1286 C1302 1.368 . S
H1287 C1295 0.950 . S
H1288 C1293 0.950 . S
H1289 C1294 0.949 . S
H1290 C1296 0.950 . S
H1291 C1297 0.950 . S
H1292 C1298 0.949 . S
C1293 H1288 0.950 . S
C1293 C1295 1.327 . S
C1293 C1299 1.429 . S
C1294 C1286 1.574 . S
C1294 H1289 0.949 . S
C1294 C1300 1.368 . S
C1295 C1279 1.349 . S
C1295 H1287 0.950 . S
C1295 C1293 1.327 . S
C1296 C1284 1.349 . S
C1296 H1290 0.950 . S
C1296 C1297 1.327 . S
C1297 H1291 0.950 . S
C1297 C1296 1.327 . S
C1297 C1301 1.429 . S
C1298 C1281 1.574 . S
C1298 H1292 0.949 . S
C1298 C1302 1.368 . S
C1299 C1280 1.429 . S
C1299 C1293 1.429 . S
C1299 C1300 1.523 . S
C1300 C1281 1.368 . S
C1300 C1294 1.368 . S
C1300 C1299 1.523 . S
C1301 C1285 1.429 . S
C1301 C1297 1.429 . S
C1301 C1302 1.523 . S
C1302 C1286 1.368 . S
C1302 C1298 1.368 . S
C1302 C1301 1.523 . S
H1303 C1278 0.950 . S
H1304 C1280 0.950 . S
H1305 C1281 0.949 . S
H1306 C1283 0.950 . S
H1307 C1285 0.950 . S
C409 C373 1.186 . S
C414 C9 1.082 1_556 S
C439 C43 1.082 1_556 S
C444 C407 1.186 . S
C469 C339 1.186 . S
C474 C77 1.082 1_556 S
C499 C111 1.082 . S
C504 C305 1.186 . S
C529 C145 1.082 . S
C534 C237 1.186 . S
C559 C179 1.082 . S
C564 C271 1.186 . S
C589 C169 1.186 . S
C594 C213 1.082 1_554 S
C619 C203 1.186 . S
C624 C247 1.082 1_554 S
C649 C135 1.186 . S
C654 C281 1.082 1_554 S
C679 C101 1.186 . S
C684 C315 1.082 . S
C709 C349 1.082 . S
C714 C33 1.186 . S
C739 C67 1.186 . S
C744 C383 1.082 . S
C769 C224 1.043 . S
C774 C20 1.043 . S
C799 C54 1.043 . S
C804 C258 1.043 . S
C829 C292 1.044 . S
C834 C88 1.044 . S
C859 C122 1.044 . S
C864 C326 1.044 . S
C889 C156 1.043 . S
C894 C360 1.043 . S
C919 C394 1.043 . S
C924 C190 1.043 . S
C949 C5 0.448 . S
C954 C141 0.448 . S
C979 C39 0.448 . S
C984 C175 0.448 . S
C1009 C73 0.448 . S
C1014 C107 0.448 . S
C1039 C345 0.448 . S
C1044 C209 0.448 . S
C1069 C243 0.448 . S
C1074 C379 0.448 . S
C1099 C277 0.448 . S
C1104 C311 0.448 . S
C1129 C172 1.292 . S
C1134 C2 1.292 . S
C1159 C104 1.292 . S
C1164 C36 1.292 . S
C1189 C70 1.292 . S
C1194 C138 1.292 . S
C1219 C206 1.292 . S
C1224 C376 1.292 . S
C1249 C308 1.292 . S
C1254 C240 1.292 . S
C1279 C342 1.292 . S
C1284 C274 1.292 . S
