# Generated by pormake.
# Topology hal, (4)-cn, num edge types: 1
# Building blocks:
#     Node 0, Type 0, BuildingBlock: AZAVOO_clean_sbu_0, # of connection points: 4
#     Node 1, Type 0, BuildingBlock: AZAVOO_clean_sbu_0, # of connection points: 4
#     Node 2, Type 0, BuildingBlock: AZAVOO_clean_sbu_0, # of connection points: 4
#     Node 3, Type 0, BuildingBlock: AZAVOO_clean_sbu_0, # of connection points: 4
#     Node 4, Type 0, BuildingBlock: AZAVOO_clean_sbu_0, # of connection points: 4
#     Node 5, Type 0, BuildingBlock: AZAVOO_clean_sbu_0, # of connection points: 4
#     Node 6, Type 0, BuildingBlock: AZAVOO_clean_sbu_0, # of connection points: 4
#     Node 7, Type 0, BuildingBlock: AZAVOO_clean_sbu_0, # of connection points: 4
#     Node 8, Type 0, BuildingBlock: AZAVOO_clean_sbu_0, # of connection points: 4
#     Node 9, Type 0, BuildingBlock: AZAVOO_clean_sbu_0, # of connection points: 4
#     Node 10, Type 0, BuildingBlock: AZAVOO_clean_sbu_0, # of connection points: 4
#     Node 11, Type 0, BuildingBlock: AZAVOO_clean_sbu_0, # of connection points: 4
#     Node 12, Type 0, BuildingBlock: AZAVOO_clean_sbu_0, # of connection points: 4
#     Node 13, Type 0, BuildingBlock: AZAVOO_clean_sbu_0, # of connection points: 4
#     Node 14, Type 0, BuildingBlock: AZAVOO_clean_sbu_0, # of connection points: 4
#     Node 15, Type 0, BuildingBlock: AZAVOO_clean_sbu_0, # of connection points: 4
#     Node 16, Type 0, BuildingBlock: AZAVOO_clean_sbu_0, # of connection points: 4
#     Node 17, Type 0, BuildingBlock: AZAVOO_clean_sbu_0, # of connection points: 4
#     Node 18, Type 0, BuildingBlock: AZAVOO_clean_sbu_0, # of connection points: 4
#     Node 19, Type 0, BuildingBlock: AZAVOO_clean_sbu_0, # of connection points: 4
#     Node 20, Type 0, BuildingBlock: AZAVOO_clean_sbu_0, # of connection points: 4
#     Node 21, Type 0, BuildingBlock: AZAVOO_clean_sbu_0, # of connection points: 4
#     Node 22, Type 0, BuildingBlock: AZAVOO_clean_sbu_0, # of connection points: 4
#     Node 23, Type 0, BuildingBlock: AZAVOO_clean_sbu_0, # of connection points: 4
#     Node 24, Type 0, BuildingBlock: AZAVOO_clean_sbu_0, # of connection points: 4
#     Node 25, Type 0, BuildingBlock: AZAVOO_clean_sbu_0, # of connection points: 4
#     Node 26, Type 0, BuildingBlock: AZAVOO_clean_sbu_0, # of connection points: 4
#     Node 27, Type 0, BuildingBlock: AZAVOO_clean_sbu_0, # of connection points: 4
#     Node 28, Type 0, BuildingBlock: AZAVOO_clean_sbu_0, # of connection points: 4
#     Node 29, Type 0, BuildingBlock: AZAVOO_clean_sbu_0, # of connection points: 4
#     Node 30, Type 0, BuildingBlock: AZAVOO_clean_sbu_0, # of connection points: 4
#     Node 31, Type 0, BuildingBlock: AZAVOO_clean_sbu_0, # of connection points: 4
#     Node 32, Type 0, BuildingBlock: AZAVOO_clean_sbu_0, # of connection points: 4
#     Node 33, Type 0, BuildingBlock: AZAVOO_clean_sbu_0, # of connection points: 4
#     Node 34, Type 0, BuildingBlock: AZAVOO_clean_sbu_0, # of connection points: 4
#     Node 35, Type 0, BuildingBlock: AZAVOO_clean_sbu_0, # of connection points: 4
#     Node 36, Type 0, BuildingBlock: AZAVOO_clean_sbu_0, # of connection points: 4
#     Node 37, Type 0, BuildingBlock: AZAVOO_clean_sbu_0, # of connection points: 4
#     Node 38, Type 0, BuildingBlock: AZAVOO_clean_sbu_0, # of connection points: 4
#     Node 39, Type 0, BuildingBlock: AZAVOO_clean_sbu_0, # of connection points: 4
#     Node 40, Type 0, BuildingBlock: AZAVOO_clean_sbu_0, # of connection points: 4
#     Node 41, Type 0, BuildingBlock: AZAVOO_clean_sbu_0, # of connection points: 4
#     Node 42, Type 0, BuildingBlock: AZAVOO_clean_sbu_0, # of connection points: 4
#     Node 43, Type 0, BuildingBlock: AZAVOO_clean_sbu_0, # of connection points: 4
#     Node 44, Type 0, BuildingBlock: AZAVOO_clean_sbu_0, # of connection points: 4
#     Node 45, Type 0, BuildingBlock: AZAVOO_clean_sbu_0, # of connection points: 4
#     Node 46, Type 0, BuildingBlock: AZAVOO_clean_sbu_0, # of connection points: 4
#     Node 47, Type 0, BuildingBlock: AZAVOO_clean_sbu_0, # of connection points: 4
#     Node 48, Type 0, BuildingBlock: AZAVOO_clean_sbu_0, # of connection points: 4
#     Node 49, Type 0, BuildingBlock: AZAVOO_clean_sbu_0, # of connection points: 4
#     Node 50, Type 0, BuildingBlock: AZAVOO_clean_sbu_0, # of connection points: 4
#     Node 51, Type 0, BuildingBlock: AZAVOO_clean_sbu_0, # of connection points: 4
#     Node 52, Type 0, BuildingBlock: AZAVOO_clean_sbu_0, # of connection points: 4
#     Node 53, Type 0, BuildingBlock: AZAVOO_clean_sbu_0, # of connection points: 4
#     Node 54, Type 0, BuildingBlock: AZAVOO_clean_sbu_0, # of connection points: 4
#     Node 55, Type 0, BuildingBlock: AZAVOO_clean_sbu_0, # of connection points: 4
#     Node 56, Type 0, BuildingBlock: AZAVOO_clean_sbu_0, # of connection points: 4
#     Node 57, Type 0, BuildingBlock: AZAVOO_clean_sbu_0, # of connection points: 4
#     Node 58, Type 0, BuildingBlock: AZAVOO_clean_sbu_0, # of connection points: 4
#     Node 59, Type 0, BuildingBlock: AZAVOO_clean_sbu_0, # of connection points: 4
#     Node 60, Type 0, BuildingBlock: AZAVOO_clean_sbu_0, # of connection points: 4
#     Node 61, Type 0, BuildingBlock: AZAVOO_clean_sbu_0, # of connection points: 4
#     Node 62, Type 0, BuildingBlock: AZAVOO_clean_sbu_0, # of connection points: 4
#     Node 63, Type 0, BuildingBlock: AZAVOO_clean_sbu_0, # of connection points: 4
#     Node 64, Type 0, BuildingBlock: AZAVOO_clean_sbu_0, # of connection points: 4
#     Node 65, Type 0, BuildingBlock: AZAVOO_clean_sbu_0, # of connection points: 4
#     Node 66, Type 0, BuildingBlock: AZAVOO_clean_sbu_0, # of connection points: 4
#     Node 67, Type 0, BuildingBlock: AZAVOO_clean_sbu_0, # of connection points: 4
#     Node 68, Type 0, BuildingBlock: AZAVOO_clean_sbu_0, # of connection points: 4
#     Node 69, Type 0, BuildingBlock: AZAVOO_clean_sbu_0, # of connection points: 4
#     Node 70, Type 0, BuildingBlock: AZAVOO_clean_sbu_0, # of connection points: 4
#     Node 71, Type 0, BuildingBlock: AZAVOO_clean_sbu_0, # of connection points: 4
#     Node 72, Type 0, BuildingBlock: AZAVOO_clean_sbu_0, # of connection points: 4
#     Node 73, Type 0, BuildingBlock: AZAVOO_clean_sbu_0, # of connection points: 4
#     Node 74, Type 0, BuildingBlock: AZAVOO_clean_sbu_0, # of connection points: 4
#     Node 75, Type 0, BuildingBlock: AZAVOO_clean_sbu_0, # of connection points: 4
#     Node 76, Type 0, BuildingBlock: AZAVOO_clean_sbu_0, # of connection points: 4
#     Node 77, Type 0, BuildingBlock: AZAVOO_clean_sbu_0, # of connection points: 4
#     Node 78, Type 0, BuildingBlock: AZAVOO_clean_sbu_0, # of connection points: 4
#     Node 79, Type 0, BuildingBlock: AZAVOO_clean_sbu_0, # of connection points: 4
#     Node 80, Type 0, BuildingBlock: AZAVOO_clean_sbu_0, # of connection points: 4
#     Node 81, Type 0, BuildingBlock: AZAVOO_clean_sbu_0, # of connection points: 4
#     Node 82, Type 0, BuildingBlock: AZAVOO_clean_sbu_0, # of connection points: 4
#     Node 83, Type 0, BuildingBlock: AZAVOO_clean_sbu_0, # of connection points: 4
#     Node 84, Type 0, BuildingBlock: AZAVOO_clean_sbu_0, # of connection points: 4
#     Node 85, Type 0, BuildingBlock: AZAVOO_clean_sbu_0, # of connection points: 4
#     Node 86, Type 0, BuildingBlock: AZAVOO_clean_sbu_0, # of connection points: 4
#     Node 87, Type 0, BuildingBlock: AZAVOO_clean_sbu_0, # of connection points: 4
#     Node 88, Type 0, BuildingBlock: AZAVOO_clean_sbu_0, # of connection points: 4
#     Node 89, Type 0, BuildingBlock: AZAVOO_clean_sbu_0, # of connection points: 4
#     Node 90, Type 0, BuildingBlock: AZAVOO_clean_sbu_0, # of connection points: 4
#     Node 91, Type 0, BuildingBlock: AZAVOO_clean_sbu_0, # of connection points: 4
#     Node 92, Type 0, BuildingBlock: AZAVOO_clean_sbu_0, # of connection points: 4
#     Node 93, Type 0, BuildingBlock: AZAVOO_clean_sbu_0, # of connection points: 4
#     Node 94, Type 0, BuildingBlock: AZAVOO_clean_sbu_0, # of connection points: 4
#     Node 95, Type 0, BuildingBlock: AZAVOO_clean_sbu_0, # of connection points: 4
#     Edge 96, Type (0, 0), BuildingBlock: AJUNOK_clean_linker_0, # of connection points: 2
#     Edge 97, Type (0, 0), BuildingBlock: AJUNOK_clean_linker_0, # of connection points: 2
#     Edge 98, Type (0, 0), BuildingBlock: AJUNOK_clean_linker_0, # of connection points: 2
#     Edge 99, Type (0, 0), BuildingBlock: AJUNOK_clean_linker_0, # of connection points: 2
#     Edge 100, Type (0, 0), BuildingBlock: AJUNOK_clean_linker_0, # of connection points: 2
#     Edge 101, Type (0, 0), BuildingBlock: AJUNOK_clean_linker_0, # of connection points: 2
#     Edge 102, Type (0, 0), BuildingBlock: AJUNOK_clean_linker_0, # of connection points: 2
#     Edge 103, Type (0, 0), BuildingBlock: AJUNOK_clean_linker_0, # of connection points: 2
#     Edge 104, Type (0, 0), BuildingBlock: AJUNOK_clean_linker_0, # of connection points: 2
#     Edge 105, Type (0, 0), BuildingBlock: AJUNOK_clean_linker_0, # of connection points: 2
#     Edge 106, Type (0, 0), BuildingBlock: AJUNOK_clean_linker_0, # of connection points: 2
#     Edge 107, Type (0, 0), BuildingBlock: AJUNOK_clean_linker_0, # of connection points: 2
#     Edge 108, Type (0, 0), BuildingBlock: AJUNOK_clean_linker_0, # of connection points: 2
#     Edge 109, Type (0, 0), BuildingBlock: AJUNOK_clean_linker_0, # of connection points: 2
#     Edge 110, Type (0, 0), BuildingBlock: AJUNOK_clean_linker_0, # of connection points: 2
#     Edge 111, Type (0, 0), BuildingBlock: AJUNOK_clean_linker_0, # of connection points: 2
#     Edge 112, Type (0, 0), BuildingBlock: AJUNOK_clean_linker_0, # of connection points: 2
#     Edge 113, Type (0, 0), BuildingBlock: AJUNOK_clean_linker_0, # of connection points: 2
#     Edge 114, Type (0, 0), BuildingBlock: AJUNOK_clean_linker_0, # of connection points: 2
#     Edge 115, Type (0, 0), BuildingBlock: AJUNOK_clean_linker_0, # of connection points: 2
#     Edge 116, Type (0, 0), BuildingBlock: AJUNOK_clean_linker_0, # of connection points: 2
#     Edge 117, Type (0, 0), BuildingBlock: AJUNOK_clean_linker_0, # of connection points: 2
#     Edge 118, Type (0, 0), BuildingBlock: AJUNOK_clean_linker_0, # of connection points: 2
#     Edge 119, Type (0, 0), BuildingBlock: AJUNOK_clean_linker_0, # of connection points: 2
#     Edge 120, Type (0, 0), BuildingBlock: AJUNOK_clean_linker_0, # of connection points: 2
#     Edge 121, Type (0, 0), BuildingBlock: AJUNOK_clean_linker_0, # of connection points: 2
#     Edge 122, Type (0, 0), BuildingBlock: AJUNOK_clean_linker_0, # of connection points: 2
#     Edge 123, Type (0, 0), BuildingBlock: AJUNOK_clean_linker_0, # of connection points: 2
#     Edge 124, Type (0, 0), BuildingBlock: AJUNOK_clean_linker_0, # of connection points: 2
#     Edge 125, Type (0, 0), BuildingBlock: AJUNOK_clean_linker_0, # of connection points: 2
#     Edge 126, Type (0, 0), BuildingBlock: AJUNOK_clean_linker_0, # of connection points: 2
#     Edge 127, Type (0, 0), BuildingBlock: AJUNOK_clean_linker_0, # of connection points: 2
#     Edge 128, Type (0, 0), BuildingBlock: AJUNOK_clean_linker_0, # of connection points: 2
#     Edge 129, Type (0, 0), BuildingBlock: AJUNOK_clean_linker_0, # of connection points: 2
#     Edge 130, Type (0, 0), BuildingBlock: AJUNOK_clean_linker_0, # of connection points: 2
#     Edge 131, Type (0, 0), BuildingBlock: AJUNOK_clean_linker_0, # of connection points: 2
#     Edge 132, Type (0, 0), BuildingBlock: AJUNOK_clean_linker_0, # of connection points: 2
#     Edge 133, Type (0, 0), BuildingBlock: AJUNOK_clean_linker_0, # of connection points: 2
#     Edge 134, Type (0, 0), BuildingBlock: AJUNOK_clean_linker_0, # of connection points: 2
#     Edge 135, Type (0, 0), BuildingBlock: AJUNOK_clean_linker_0, # of connection points: 2
#     Edge 136, Type (0, 0), BuildingBlock: AJUNOK_clean_linker_0, # of connection points: 2
#     Edge 137, Type (0, 0), BuildingBlock: AJUNOK_clean_linker_0, # of connection points: 2
#     Edge 138, Type (0, 0), BuildingBlock: AJUNOK_clean_linker_0, # of connection points: 2
#     Edge 139, Type (0, 0), BuildingBlock: AJUNOK_clean_linker_0, # of connection points: 2
#     Edge 140, Type (0, 0), BuildingBlock: AJUNOK_clean_linker_0, # of connection points: 2
#     Edge 141, Type (0, 0), BuildingBlock: AJUNOK_clean_linker_0, # of connection points: 2
#     Edge 142, Type (0, 0), BuildingBlock: AJUNOK_clean_linker_0, # of connection points: 2
#     Edge 143, Type (0, 0), BuildingBlock: AJUNOK_clean_linker_0, # of connection points: 2
#     Edge 144, Type (0, 0), BuildingBlock: AJUNOK_clean_linker_0, # of connection points: 2
#     Edge 145, Type (0, 0), BuildingBlock: AJUNOK_clean_linker_0, # of connection points: 2
#     Edge 146, Type (0, 0), BuildingBlock: AJUNOK_clean_linker_0, # of connection points: 2
#     Edge 147, Type (0, 0), BuildingBlock: AJUNOK_clean_linker_0, # of connection points: 2
#     Edge 148, Type (0, 0), BuildingBlock: AJUNOK_clean_linker_0, # of connection points: 2
#     Edge 149, Type (0, 0), BuildingBlock: AJUNOK_clean_linker_0, # of connection points: 2
#     Edge 150, Type (0, 0), BuildingBlock: AJUNOK_clean_linker_0, # of connection points: 2
#     Edge 151, Type (0, 0), BuildingBlock: AJUNOK_clean_linker_0, # of connection points: 2
#     Edge 152, Type (0, 0), BuildingBlock: AJUNOK_clean_linker_0, # of connection points: 2
#     Edge 153, Type (0, 0), BuildingBlock: AJUNOK_clean_linker_0, # of connection points: 2
#     Edge 154, Type (0, 0), BuildingBlock: AJUNOK_clean_linker_0, # of connection points: 2
#     Edge 155, Type (0, 0), BuildingBlock: AJUNOK_clean_linker_0, # of connection points: 2
#     Edge 156, Type (0, 0), BuildingBlock: AJUNOK_clean_linker_0, # of connection points: 2
#     Edge 157, Type (0, 0), BuildingBlock: AJUNOK_clean_linker_0, # of connection points: 2
#     Edge 158, Type (0, 0), BuildingBlock: AJUNOK_clean_linker_0, # of connection points: 2
#     Edge 159, Type (0, 0), BuildingBlock: AJUNOK_clean_linker_0, # of connection points: 2
#     Edge 160, Type (0, 0), BuildingBlock: AJUNOK_clean_linker_0, # of connection points: 2
#     Edge 161, Type (0, 0), BuildingBlock: AJUNOK_clean_linker_0, # of connection points: 2
#     Edge 162, Type (0, 0), BuildingBlock: AJUNOK_clean_linker_0, # of connection points: 2
#     Edge 163, Type (0, 0), BuildingBlock: AJUNOK_clean_linker_0, # of connection points: 2
#     Edge 164, Type (0, 0), BuildingBlock: AJUNOK_clean_linker_0, # of connection points: 2
#     Edge 165, Type (0, 0), BuildingBlock: AJUNOK_clean_linker_0, # of connection points: 2
#     Edge 166, Type (0, 0), BuildingBlock: AJUNOK_clean_linker_0, # of connection points: 2
#     Edge 167, Type (0, 0), BuildingBlock: AJUNOK_clean_linker_0, # of connection points: 2
#     Edge 168, Type (0, 0), BuildingBlock: AJUNOK_clean_linker_0, # of connection points: 2
#     Edge 169, Type (0, 0), BuildingBlock: AJUNOK_clean_linker_0, # of connection points: 2
#     Edge 170, Type (0, 0), BuildingBlock: AJUNOK_clean_linker_0, # of connection points: 2
#     Edge 171, Type (0, 0), BuildingBlock: AJUNOK_clean_linker_0, # of connection points: 2
#     Edge 172, Type (0, 0), BuildingBlock: AJUNOK_clean_linker_0, # of connection points: 2
#     Edge 173, Type (0, 0), BuildingBlock: AJUNOK_clean_linker_0, # of connection points: 2
#     Edge 174, Type (0, 0), BuildingBlock: AJUNOK_clean_linker_0, # of connection points: 2
#     Edge 175, Type (0, 0), BuildingBlock: AJUNOK_clean_linker_0, # of connection points: 2
#     Edge 176, Type (0, 0), BuildingBlock: AJUNOK_clean_linker_0, # of connection points: 2
#     Edge 177, Type (0, 0), BuildingBlock: AJUNOK_clean_linker_0, # of connection points: 2
#     Edge 178, Type (0, 0), BuildingBlock: AJUNOK_clean_linker_0, # of connection points: 2
#     Edge 179, Type (0, 0), BuildingBlock: AJUNOK_clean_linker_0, # of connection points: 2
#     Edge 180, Type (0, 0), BuildingBlock: AJUNOK_clean_linker_0, # of connection points: 2
#     Edge 181, Type (0, 0), BuildingBlock: AJUNOK_clean_linker_0, # of connection points: 2
#     Edge 182, Type (0, 0), BuildingBlock: AJUNOK_clean_linker_0, # of connection points: 2
#     Edge 183, Type (0, 0), BuildingBlock: AJUNOK_clean_linker_0, # of connection points: 2
#     Edge 184, Type (0, 0), BuildingBlock: AJUNOK_clean_linker_0, # of connection points: 2
#     Edge 185, Type (0, 0), BuildingBlock: AJUNOK_clean_linker_0, # of connection points: 2
#     Edge 186, Type (0, 0), BuildingBlock: AJUNOK_clean_linker_0, # of connection points: 2
#     Edge 187, Type (0, 0), BuildingBlock: AJUNOK_clean_linker_0, # of connection points: 2
#     Edge 188, Type (0, 0), BuildingBlock: AJUNOK_clean_linker_0, # of connection points: 2
#     Edge 189, Type (0, 0), BuildingBlock: AJUNOK_clean_linker_0, # of connection points: 2
#     Edge 190, Type (0, 0), BuildingBlock: AJUNOK_clean_linker_0, # of connection points: 2
#     Edge 191, Type (0, 0), BuildingBlock: AJUNOK_clean_linker_0, # of connection points: 2
#     Edge 192, Type (0, 0), BuildingBlock: AJUNOK_clean_linker_0, # of connection points: 2
#     Edge 193, Type (0, 0), BuildingBlock: AJUNOK_clean_linker_0, # of connection points: 2
#     Edge 194, Type (0, 0), BuildingBlock: AJUNOK_clean_linker_0, # of connection points: 2
#     Edge 195, Type (0, 0), BuildingBlock: AJUNOK_clean_linker_0, # of connection points: 2
#     Edge 196, Type (0, 0), BuildingBlock: AJUNOK_clean_linker_0, # of connection points: 2
#     Edge 197, Type (0, 0), BuildingBlock: AJUNOK_clean_linker_0, # of connection points: 2
#     Edge 198, Type (0, 0), BuildingBlock: AJUNOK_clean_linker_0, # of connection points: 2
#     Edge 199, Type (0, 0), BuildingBlock: AJUNOK_clean_linker_0, # of connection points: 2
#     Edge 200, Type (0, 0), BuildingBlock: AJUNOK_clean_linker_0, # of connection points: 2
#     Edge 201, Type (0, 0), BuildingBlock: AJUNOK_clean_linker_0, # of connection points: 2
#     Edge 202, Type (0, 0), BuildingBlock: AJUNOK_clean_linker_0, # of connection points: 2
#     Edge 203, Type (0, 0), BuildingBlock: AJUNOK_clean_linker_0, # of connection points: 2
#     Edge 204, Type (0, 0), BuildingBlock: AJUNOK_clean_linker_0, # of connection points: 2
#     Edge 205, Type (0, 0), BuildingBlock: AJUNOK_clean_linker_0, # of connection points: 2
#     Edge 206, Type (0, 0), BuildingBlock: AJUNOK_clean_linker_0, # of connection points: 2
#     Edge 207, Type (0, 0), BuildingBlock: AJUNOK_clean_linker_0, # of connection points: 2
#     Edge 208, Type (0, 0), BuildingBlock: AJUNOK_clean_linker_0, # of connection points: 2
#     Edge 209, Type (0, 0), BuildingBlock: AJUNOK_clean_linker_0, # of connection points: 2
#     Edge 210, Type (0, 0), BuildingBlock: AJUNOK_clean_linker_0, # of connection points: 2
#     Edge 211, Type (0, 0), BuildingBlock: AJUNOK_clean_linker_0, # of connection points: 2
#     Edge 212, Type (0, 0), BuildingBlock: AJUNOK_clean_linker_0, # of connection points: 2
#     Edge 213, Type (0, 0), BuildingBlock: AJUNOK_clean_linker_0, # of connection points: 2
#     Edge 214, Type (0, 0), BuildingBlock: AJUNOK_clean_linker_0, # of connection points: 2
#     Edge 215, Type (0, 0), BuildingBlock: AJUNOK_clean_linker_0, # of connection points: 2
#     Edge 216, Type (0, 0), BuildingBlock: AJUNOK_clean_linker_0, # of connection points: 2
#     Edge 217, Type (0, 0), BuildingBlock: AJUNOK_clean_linker_0, # of connection points: 2
#     Edge 218, Type (0, 0), BuildingBlock: AJUNOK_clean_linker_0, # of connection points: 2
#     Edge 219, Type (0, 0), BuildingBlock: AJUNOK_clean_linker_0, # of connection points: 2
#     Edge 220, Type (0, 0), BuildingBlock: AJUNOK_clean_linker_0, # of connection points: 2
#     Edge 221, Type (0, 0), BuildingBlock: AJUNOK_clean_linker_0, # of connection points: 2
#     Edge 222, Type (0, 0), BuildingBlock: AJUNOK_clean_linker_0, # of connection points: 2
#     Edge 223, Type (0, 0), BuildingBlock: AJUNOK_clean_linker_0, # of connection points: 2
#     Edge 224, Type (0, 0), BuildingBlock: AJUNOK_clean_linker_0, # of connection points: 2
#     Edge 225, Type (0, 0), BuildingBlock: AJUNOK_clean_linker_0, # of connection points: 2
#     Edge 226, Type (0, 0), BuildingBlock: AJUNOK_clean_linker_0, # of connection points: 2
#     Edge 227, Type (0, 0), BuildingBlock: AJUNOK_clean_linker_0, # of connection points: 2
#     Edge 228, Type (0, 0), BuildingBlock: AJUNOK_clean_linker_0, # of connection points: 2
#     Edge 229, Type (0, 0), BuildingBlock: AJUNOK_clean_linker_0, # of connection points: 2
#     Edge 230, Type (0, 0), BuildingBlock: AJUNOK_clean_linker_0, # of connection points: 2
#     Edge 231, Type (0, 0), BuildingBlock: AJUNOK_clean_linker_0, # of connection points: 2
#     Edge 232, Type (0, 0), BuildingBlock: AJUNOK_clean_linker_0, # of connection points: 2
#     Edge 233, Type (0, 0), BuildingBlock: AJUNOK_clean_linker_0, # of connection points: 2
#     Edge 234, Type (0, 0), BuildingBlock: AJUNOK_clean_linker_0, # of connection points: 2
#     Edge 235, Type (0, 0), BuildingBlock: AJUNOK_clean_linker_0, # of connection points: 2
#     Edge 236, Type (0, 0), BuildingBlock: AJUNOK_clean_linker_0, # of connection points: 2
#     Edge 237, Type (0, 0), BuildingBlock: AJUNOK_clean_linker_0, # of connection points: 2
#     Edge 238, Type (0, 0), BuildingBlock: AJUNOK_clean_linker_0, # of connection points: 2
#     Edge 239, Type (0, 0), BuildingBlock: AJUNOK_clean_linker_0, # of connection points: 2
#     Edge 240, Type (0, 0), BuildingBlock: AJUNOK_clean_linker_0, # of connection points: 2
#     Edge 241, Type (0, 0), BuildingBlock: AJUNOK_clean_linker_0, # of connection points: 2
#     Edge 242, Type (0, 0), BuildingBlock: AJUNOK_clean_linker_0, # of connection points: 2
#     Edge 243, Type (0, 0), BuildingBlock: AJUNOK_clean_linker_0, # of connection points: 2
#     Edge 244, Type (0, 0), BuildingBlock: AJUNOK_clean_linker_0, # of connection points: 2
#     Edge 245, Type (0, 0), BuildingBlock: AJUNOK_clean_linker_0, # of connection points: 2
#     Edge 246, Type (0, 0), BuildingBlock: AJUNOK_clean_linker_0, # of connection points: 2
#     Edge 247, Type (0, 0), BuildingBlock: AJUNOK_clean_linker_0, # of connection points: 2
#     Edge 248, Type (0, 0), BuildingBlock: AJUNOK_clean_linker_0, # of connection points: 2
#     Edge 249, Type (0, 0), BuildingBlock: AJUNOK_clean_linker_0, # of connection points: 2
#     Edge 250, Type (0, 0), BuildingBlock: AJUNOK_clean_linker_0, # of connection points: 2
#     Edge 251, Type (0, 0), BuildingBlock: AJUNOK_clean_linker_0, # of connection points: 2
#     Edge 252, Type (0, 0), BuildingBlock: AJUNOK_clean_linker_0, # of connection points: 2
#     Edge 253, Type (0, 0), BuildingBlock: AJUNOK_clean_linker_0, # of connection points: 2
#     Edge 254, Type (0, 0), BuildingBlock: AJUNOK_clean_linker_0, # of connection points: 2
#     Edge 255, Type (0, 0), BuildingBlock: AJUNOK_clean_linker_0, # of connection points: 2
#     Edge 256, Type (0, 0), BuildingBlock: AJUNOK_clean_linker_0, # of connection points: 2
#     Edge 257, Type (0, 0), BuildingBlock: AJUNOK_clean_linker_0, # of connection points: 2
#     Edge 258, Type (0, 0), BuildingBlock: AJUNOK_clean_linker_0, # of connection points: 2
#     Edge 259, Type (0, 0), BuildingBlock: AJUNOK_clean_linker_0, # of connection points: 2
#     Edge 260, Type (0, 0), BuildingBlock: AJUNOK_clean_linker_0, # of connection points: 2
#     Edge 261, Type (0, 0), BuildingBlock: AJUNOK_clean_linker_0, # of connection points: 2
#     Edge 262, Type (0, 0), BuildingBlock: AJUNOK_clean_linker_0, # of connection points: 2
#     Edge 263, Type (0, 0), BuildingBlock: AJUNOK_clean_linker_0, # of connection points: 2
#     Edge 264, Type (0, 0), BuildingBlock: AJUNOK_clean_linker_0, # of connection points: 2
#     Edge 265, Type (0, 0), BuildingBlock: AJUNOK_clean_linker_0, # of connection points: 2
#     Edge 266, Type (0, 0), BuildingBlock: AJUNOK_clean_linker_0, # of connection points: 2
#     Edge 267, Type (0, 0), BuildingBlock: AJUNOK_clean_linker_0, # of connection points: 2
#     Edge 268, Type (0, 0), BuildingBlock: AJUNOK_clean_linker_0, # of connection points: 2
#     Edge 269, Type (0, 0), BuildingBlock: AJUNOK_clean_linker_0, # of connection points: 2
#     Edge 270, Type (0, 0), BuildingBlock: AJUNOK_clean_linker_0, # of connection points: 2
#     Edge 271, Type (0, 0), BuildingBlock: AJUNOK_clean_linker_0, # of connection points: 2
#     Edge 272, Type (0, 0), BuildingBlock: AJUNOK_clean_linker_0, # of connection points: 2
#     Edge 273, Type (0, 0), BuildingBlock: AJUNOK_clean_linker_0, # of connection points: 2
#     Edge 274, Type (0, 0), BuildingBlock: AJUNOK_clean_linker_0, # of connection points: 2
#     Edge 275, Type (0, 0), BuildingBlock: AJUNOK_clean_linker_0, # of connection points: 2
#     Edge 276, Type (0, 0), BuildingBlock: AJUNOK_clean_linker_0, # of connection points: 2
#     Edge 277, Type (0, 0), BuildingBlock: AJUNOK_clean_linker_0, # of connection points: 2
#     Edge 278, Type (0, 0), BuildingBlock: AJUNOK_clean_linker_0, # of connection points: 2
#     Edge 279, Type (0, 0), BuildingBlock: AJUNOK_clean_linker_0, # of connection points: 2
#     Edge 280, Type (0, 0), BuildingBlock: AJUNOK_clean_linker_0, # of connection points: 2
#     Edge 281, Type (0, 0), BuildingBlock: AJUNOK_clean_linker_0, # of connection points: 2
#     Edge 282, Type (0, 0), BuildingBlock: AJUNOK_clean_linker_0, # of connection points: 2
#     Edge 283, Type (0, 0), BuildingBlock: AJUNOK_clean_linker_0, # of connection points: 2
#     Edge 284, Type (0, 0), BuildingBlock: AJUNOK_clean_linker_0, # of connection points: 2
#     Edge 285, Type (0, 0), BuildingBlock: AJUNOK_clean_linker_0, # of connection points: 2
#     Edge 286, Type (0, 0), BuildingBlock: AJUNOK_clean_linker_0, # of connection points: 2
#     Edge 287, Type (0, 0), BuildingBlock: AJUNOK_clean_linker_0, # of connection points: 2
# Relax obj value: 0.386
# Max RMSD: 0.331
# Mean RMSD: 0.301
data_MOF--net-hal--node1-AZAVOO_clean_sbu_0--edge1-AJUNOK_clean_linker_0
_symmetry_space_group_name_H-M    P1
_symmetry_Int_Tables_number       1
_symmetry_cell_setting            triclinic
loop_
_symmetry_equiv_pos_as_xyz
'x, y, z'
_cell_length_a     71.050415
_cell_length_b     64.09008
_cell_length_c     64.175754
_cell_angle_alpha  89.923881
_cell_angle_beta   89.768258
_cell_angle_gamma 90.0603
loop_
_atom_site_label
_atom_site_type_symbol
_atom_site_fract_x
_atom_site_fract_y
_atom_site_fract_z
_atom_type_partial_charge
Mg0 Mg 0.04434 0.16421 0.28087 0.0
O1 O 0.06484 0.17645 0.30553 0.0
O2 O 0.05365 0.2065 0.31831 0.0
Mg3 Mg 0.02628 0.21342 0.30156 0.0
C4 C 0.06604 0.19216 0.31765 0.0
C5 C 0.06402 0.1235 0.26517 0.0
O6 O 0.05581 0.12846 0.24754 0.0
O7 O 0.02328 0.15346 0.30635 0.0
O8 O 0.01353 0.18478 0.31643 0.0
O9 O 0.06019 0.18182 0.25658 0.0
O10 O 0.03642 0.19524 0.27435 0.0
C11 C 0.01294 0.16498 0.31792 0.0
C12 C 0.05001 0.19789 0.26114 0.0
O13 O 0.06025 0.13379 0.28157 0.0
Mg14 Mg 0.78734 0.08015 0.27895 0.0
O15 O 0.77532 0.09496 0.30825 0.0
O16 O 0.7476 0.08061 0.31666 0.0
Mg17 Mg 0.74094 0.05766 0.29043 0.0
C18 C 0.761 0.09337 0.32019 0.0
C19 C 0.82668 0.09772 0.27082 0.0
O20 O 0.8212 0.09221 0.25208 0.0
O21 O 0.79411 0.05058 0.29688 0.0
O22 O 0.76534 0.03693 0.30137 0.0
O23 O 0.77318 0.10391 0.25885 0.0
O24 O 0.76041 0.07398 0.26906 0.0
C25 C 0.7832 0.03621 0.30351 0.0
C26 C 0.75881 0.09149 0.25943 0.0
O27 O 0.81581 0.09414 0.28615 0.0
Mg28 Mg 0.90996 0.80844 0.27966 0.0
O29 O 0.8905 0.79667 0.3063 0.0
O30 O 0.89805 0.76369 0.31406 0.0
Mg31 Mg 0.92766 0.7617 0.30179 0.0
C32 C 0.8872 0.77942 0.31568 0.0
C33 C 0.88844 0.84734 0.2655 0.0
O34 O 0.89363 0.84037 0.24712 0.0
O35 O 0.93269 0.81867 0.30188 0.0
O36 O 0.93224 0.79074 0.32202 0.0
O37 O 0.89272 0.79073 0.25737 0.0
O38 O 0.91796 0.77792 0.27312 0.0
C39 C 0.93861 0.80878 0.31775 0.0
C40 C 0.90349 0.77493 0.26127 0.0
O41 O 0.89513 0.83904 0.2818 0.0
Mg42 Mg 0.1652 0.90108 0.27937 0.0
O43 O 0.17689 0.88482 0.30818 0.0
O44 O 0.20503 0.8981 0.31627 0.0
Mg45 Mg 0.21163 0.92272 0.2916 0.0
C46 C 0.19134 0.88569 0.3199 0.0
C47 C 0.13066 0.87576 0.27015 0.0
O48 O 0.13978 0.87673 0.25233 0.0
O49 O 0.15827 0.92917 0.29965 0.0
O50 O 0.18719 0.94151 0.30568 0.0
O51 O 0.17929 0.87812 0.25835 0.0
O52 O 0.19247 0.9073 0.26964 0.0
C53 C 0.16934 0.94234 0.30812 0.0
C54 C 0.19392 0.89002 0.25954 0.0
O55 O 0.13686 0.88615 0.28548 0.0
Mg56 Mg 0.04967 0.8132 0.69234 0.0
O57 O 0.06516 0.79612 0.66665 0.0
O58 O 0.05346 0.76451 0.66065 0.0
Mg59 Mg 0.02907 0.7614 0.68376 0.0
C60 C 0.06523 0.77902 0.65662 0.0
C61 C 0.06928 0.8567 0.69477 0.0
O62 O 0.05856 0.85863 0.71138 0.0
O63 O 0.02578 0.82003 0.66967 0.0
O64 O 0.014 0.78784 0.66647 0.0
O65 O 0.06817 0.79844 0.7165 0.0
O66 O 0.04162 0.7846 0.70498 0.0
C67 C 0.01378 0.80731 0.66207 0.0
C68 C 0.05649 0.78296 0.71625 0.0
O69 O 0.06647 0.84154 0.68252 0.0
Mg70 Mg 0.16302 0.07794 0.68969 0.0
O71 O 0.17893 0.09328 0.66292 0.0
O72 O 0.20931 0.08481 0.65997 0.0
Mg73 Mg 0.20861 0.05532 0.67961 0.0
C74 C 0.19508 0.09557 0.65449 0.0
C75 C 0.12248 0.09607 0.68989 0.0
O76 O 0.1221 0.08511 0.70721 0.0
O77 O 0.1565 0.04826 0.67122 0.0
O78 O 0.18464 0.04812 0.6567 0.0
O79 O 0.177 0.09973 0.71195 0.0
O80 O 0.1886 0.06899 0.70259 0.0
C81 C 0.16881 0.03938 0.65979 0.0
C82 C 0.19044 0.08612 0.71281 0.0
O83 O 0.13713 0.09546 0.67859 0.0
Mg84 Mg 0.90248 0.16777 0.69467 0.0
O85 O 0.88454 0.17941 0.66749 0.0
O86 O 0.89837 0.20804 0.65461 0.0
Mg87 Mg 0.92238 0.21696 0.67633 0.0
C88 C 0.88559 0.19407 0.65407 0.0
C89 C 0.88845 0.1244 0.70803 0.0
O90 O 0.89973 0.12765 0.72385 0.0
O91 O 0.92536 0.1574 0.67268 0.0
O92 O 0.93908 0.18813 0.66616 0.0
O93 O 0.88485 0.1848 0.71738 0.0
O94 O 0.91007 0.1979 0.70146 0.0
C95 C 0.93872 0.16822 0.66497 0.0
C96 C 0.89595 0.20043 0.71383 0.0
O97 O 0.88815 0.13715 0.69293 0.0
Mg98 Mg 0.7915 0.90199 0.69287 0.0
O99 O 0.77994 0.88375 0.66536 0.0
O100 O 0.75085 0.89397 0.65747 0.0
Mg101 Mg 0.74356 0.91979 0.68068 0.0
C102 C 0.76531 0.88268 0.65398 0.0
C103 C 0.82709 0.87725 0.70243 0.0
O104 O 0.81741 0.8767 0.71991 0.0
O105 O 0.79654 0.92937 0.67038 0.0
O106 O 0.76669 0.939 0.66503 0.0
O107 O 0.77727 0.8803 0.71613 0.0
O108 O 0.76453 0.90879 0.70308 0.0
C109 C 0.78434 0.94127 0.66179 0.0
C110 C 0.76308 0.89288 0.7151 0.0
O111 O 0.82064 0.88768 0.68718 0.0
Mg112 Mg 0.29028 0.05786 0.17819 0.0
O113 O 0.27677 0.07825 0.15346 0.0
O114 O 0.2499 0.06342 0.14277 0.0
Mg115 Mg 0.24734 0.03203 0.15943 0.0
C116 C 0.26186 0.07826 0.1425 0.0
C117 C 0.32381 0.08758 0.17528 0.0
O118 O 0.3249 0.07644 0.15818 0.0
O119 O 0.26771 0.06739 0.20142 0.0
O120 O 0.24265 0.04919 0.19046 0.0
O121 O 0.30676 0.03899 0.15503 0.0
O122 O 0.27788 0.03172 0.16538 0.0
C123 C 0.25063 0.06147 0.20337 0.0
C124 C 0.29225 0.02685 0.15419 0.0
O125 O 0.31009 0.08428 0.18763 0.0
Mg126 Mg 0.90607 0.27991 0.16108 0.0
O127 O 0.88717 0.30513 0.17545 0.0
O128 O 0.89727 0.31194 0.20771 0.0
Mg129 Mg 0.92378 0.29269 0.21297 0.0
C130 C 0.8859 0.3149 0.1927 0.0
C131 C 0.88735 0.26679 0.12127 0.0
O132 O 0.89296 0.24909 0.12947 0.0
O133 O 0.92808 0.3047 0.15391 0.0
O134 O 0.93844 0.31021 0.18628 0.0
O135 O 0.88951 0.25445 0.1766 0.0
O136 O 0.91474 0.26954 0.19002 0.0
C137 C 0.93911 0.31381 0.16667 0.0
C138 C 0.90143 0.25608 0.19169 0.0
O139 O 0.89132 0.28379 0.13037 0.0
Mg140 Mg 0.66162 0.9134 0.1785 0.0
O141 O 0.67487 0.8951 0.15212 0.0
O142 O 0.70183 0.90992 0.14166 0.0
Mg143 Mg 0.70447 0.93984 0.16082 0.0
C144 C 0.68953 0.89547 0.14057 0.0
C145 C 0.6303 0.87953 0.17449 0.0
O146 O 0.63045 0.88658 0.15525 0.0
O147 O 0.68404 0.90226 0.2008 0.0
O148 O 0.70949 0.9202 0.19044 0.0
O149 O 0.64473 0.93286 0.15669 0.0
O150 O 0.67374 0.94004 0.16688 0.0
C151 C 0.70129 0.90734 0.20274 0.0
C152 C 0.65921 0.94513 0.15606 0.0
O153 O 0.64231 0.88666 0.18725 0.0
Mg154 Mg 0.04587 0.69347 0.16399 0.0
O155 O 0.06491 0.6681 0.17814 0.0
O156 O 0.05413 0.6604 0.20991 0.0
Mg157 Mg 0.02859 0.68099 0.2162 0.0
C158 C 0.06585 0.65763 0.19506 0.0
C159 C 0.06482 0.70465 0.12355 0.0
O160 O 0.05744 0.7227 0.12874 0.0
O161 O 0.02356 0.66926 0.15756 0.0
O162 O 0.01273 0.66427 0.18995 0.0
O163 O 0.06305 0.71888 0.17784 0.0
O164 O 0.03849 0.7039 0.19324 0.0
C165 C 0.01215 0.66069 0.17035 0.0
C166 C 0.05215 0.71705 0.19392 0.0
O167 O 0.06007 0.68837 0.13351 0.0
Mg168 Mg 0.29387 0.91354 0.79806 0.0
O169 O 0.27801 0.89557 0.82283 0.0
O170 O 0.25084 0.91157 0.83053 0.0
Mg171 Mg 0.2506 0.94176 0.81152 0.0
C172 C 0.26246 0.8966 0.83268 0.0
C173 C 0.32996 0.8906 0.79594 0.0
O174 O 0.33372 0.90997 0.80101 0.0
O175 O 0.27289 0.90295 0.77385 0.0
O176 O 0.24745 0.92214 0.78174 0.0
O177 O 0.30908 0.93313 0.82165 0.0
O178 O 0.2815 0.94087 0.80793 0.0
C179 C 0.25604 0.90882 0.77036 0.0
C180 C 0.295 0.94577 0.82027 0.0
O181 O 0.31302 0.88566 0.79218 0.0
Mg182 Mg 0.04643 0.2723 0.80943 0.0
O183 O 0.06628 0.30149 0.80449 0.0
O184 O 0.05367 0.31419 0.77507 0.0
Mg185 Mg 0.02929 0.29644 0.76166 0.0
C186 C 0.06591 0.31498 0.78954 0.0
C187 C 0.06215 0.26347 0.85803 0.0
O188 O 0.05731 0.25525 0.87603 0.0
O189 O 0.02375 0.2943 0.82016 0.0
O190 O 0.01274 0.30729 0.79045 0.0
O191 O 0.06591 0.25143 0.79172 0.0
O192 O 0.04416 0.27135 0.77753 0.0
C193 C 0.01257 0.30615 0.81031 0.0
C194 C 0.05803 0.25867 0.77508 0.0
O195 O 0.05034 0.26342 0.84336 0.0
Mg196 Mg 0.66253 0.05521 0.79319 0.0
O197 O 0.67189 0.07755 0.81851 0.0
O198 O 0.69758 0.0647 0.83375 0.0
Mg199 Mg 0.70285 0.03282 0.81875 0.0
C200 C 0.68526 0.07893 0.83153 0.0
C201 C 0.62893 0.07423 0.77229 0.0
O202 O 0.62652 0.05432 0.76823 0.0
O203 O 0.6868 0.06579 0.77328 0.0
O204 O 0.71121 0.04975 0.78805 0.0
O205 O 0.64355 0.03817 0.81442 0.0
O206 O 0.67313 0.02919 0.80826 0.0
C207 C 0.70423 0.06126 0.7737 0.0
C208 C 0.65725 0.02523 0.81738 0.0
O209 O 0.64399 0.08016 0.78097 0.0
Mg210 Mg 0.91091 0.69919 0.81114 0.0
O211 O 0.88624 0.67536 0.81074 0.0
O212 O 0.89291 0.65558 0.7828 0.0
Mg213 Mg 0.91739 0.66788 0.764 0.0
C214 C 0.88297 0.65971 0.79884 0.0
C215 C 0.89528 0.71088 0.85879 0.0
O216 O 0.8993 0.71966 0.87671 0.0
O217 O 0.93129 0.67356 0.8207 0.0
O218 O 0.93696 0.65804 0.7903 0.0
O219 O 0.89476 0.72289 0.79285 0.0
O220 O 0.91219 0.69827 0.7788 0.0
C221 C 0.94029 0.66032 0.8097 0.0
C222 C 0.90138 0.71417 0.77618 0.0
O223 O 0.90807 0.70967 0.845 0.0
Mg224 Mg 0.16404 0.27958 0.07533 0.0
O225 O 0.17758 0.30883 0.08666 0.0
O226 O 0.20643 0.31503 0.07463 0.0
Mg227 Mg 0.211 0.28727 0.05255 0.0
C228 C 0.19211 0.32028 0.08542 0.0
C229 C 0.12614 0.27859 0.0997 0.0
O230 O 0.12916 0.25845 0.09804 0.0
O231 O 0.15765 0.29711 0.04515 0.0
O232 O 0.18705 0.30089 0.03299 0.0
O233 O 0.17849 0.26038 0.09979 0.0
O234 O 0.19023 0.26692 0.06843 0.0
C235 C 0.16931 0.30391 0.03151 0.0
C236 C 0.19208 0.25846 0.08645 0.0
O237 O 0.13748 0.29134 0.09127 0.0
Mg238 Mg 0.16527 0.69517 0.89614 0.0
O239 O 0.17695 0.66553 0.88128 0.0
O240 O 0.20517 0.65788 0.89476 0.0
Mg241 Mg 0.2124 0.68405 0.91746 0.0
C242 C 0.19137 0.65382 0.88278 0.0
C243 C 0.13275 0.69607 0.86486 0.0
O244 O 0.14417 0.71056 0.85778 0.0
O245 O 0.15911 0.67638 0.92575 0.0
O246 O 0.18839 0.67162 0.93757 0.0
O247 O 0.17979 0.71562 0.87231 0.0
O248 O 0.19279 0.70535 0.9017 0.0
C249 C 0.17061 0.66918 0.93922 0.0
C250 C 0.19435 0.71514 0.88429 0.0
O251 O 0.13648 0.6872 0.88206 0.0
Mg252 Mg 0.28699 0.18251 0.91341 0.0
O253 O 0.27867 0.15389 0.89548 0.0
O254 O 0.25038 0.14272 0.90521 0.0
Mg255 Mg 0.24212 0.16301 0.933 0.0
C256 C 0.26485 0.14148 0.89351 0.0
C257 C 0.32522 0.19089 0.89841 0.0
O258 O 0.32556 0.19181 0.91884 0.0
O259 O 0.2656 0.20174 0.89595 0.0
O260 O 0.23911 0.19204 0.91224 0.0
O261 O 0.30142 0.16384 0.93797 0.0
O262 O 0.27156 0.17313 0.93923 0.0
C263 C 0.24804 0.2038 0.89947 0.0
C264 C 0.28566 0.16423 0.94814 0.0
O265 O 0.30958 0.18856 0.88932 0.0
Mg266 Mg 0.79023 0.28161 0.89629 0.0
O267 O 0.78041 0.30905 0.87641 0.0
O268 O 0.75096 0.31702 0.88582 0.0
Mg269 Mg 0.74109 0.29336 0.91005 0.0
C270 C 0.76575 0.3204 0.87497 0.0
C271 C 0.82838 0.27144 0.87736 0.0
O272 O 0.82021 0.25316 0.87953 0.0
O273 O 0.79282 0.30384 0.92426 0.0
O274 O 0.76241 0.30809 0.93223 0.0
O275 O 0.77898 0.25826 0.87329 0.0
O276 O 0.76267 0.27146 0.89953 0.0
C277 C 0.77983 0.31149 0.93584 0.0
C278 C 0.76319 0.25986 0.88325 0.0
O279 O 0.8201 0.28739 0.88471 0.0
Mg280 Mg 0.66182 0.79355 0.91923 0.0
O281 O 0.67233 0.81961 0.89805 0.0
O282 O 0.69761 0.83457 0.91213 0.0
Mg283 Mg 0.70259 0.81754 0.94311 0.0
C284 C 0.68558 0.83302 0.8975 0.0
C285 C 0.62896 0.77126 0.89981 0.0
O286 O 0.62711 0.76695 0.91974 0.0
O287 O 0.6859 0.77296 0.90893 0.0
O288 O 0.71044 0.78708 0.92542 0.0
O289 O 0.64314 0.81492 0.93674 0.0
O290 O 0.67261 0.80788 0.94535 0.0
C291 C 0.70328 0.77295 0.91377 0.0
C292 C 0.65704 0.81743 0.94947 0.0
O293 O 0.64312 0.7818 0.89384 0.0
Mg294 Mg 0.79279 0.69388 0.06941 0.0
O295 O 0.77857 0.6658 0.08407 0.0
O296 O 0.75033 0.65917 0.07052 0.0
Mg297 Mg 0.7469 0.68353 0.04482 0.0
C298 C 0.76357 0.65492 0.08318 0.0
C299 C 0.82233 0.69423 0.10431 0.0
O300 O 0.81089 0.70929 0.10992 0.0
O301 O 0.80055 0.67326 0.04139 0.0
O302 O 0.77176 0.66834 0.02818 0.0
O303 O 0.77627 0.71598 0.09053 0.0
O304 O 0.76683 0.70487 0.05992 0.0
C305 C 0.78951 0.66516 0.02791 0.0
C306 C 0.76352 0.71579 0.07622 0.0
O307 O 0.81971 0.68516 0.08697 0.0
Mg308 Mg 0.28845 0.79472 0.05811 0.0
O309 O 0.28028 0.82244 0.07865 0.0
O310 O 0.25077 0.83103 0.0699 0.0
Mg311 Mg 0.24272 0.81354 0.04028 0.0
C312 C 0.26521 0.83293 0.08152 0.0
C313 C 0.32605 0.77692 0.07056 0.0
O314 O 0.3264 0.77514 0.05017 0.0
O315 O 0.26718 0.77407 0.07494 0.0
O316 O 0.24026 0.78378 0.05973 0.0
O317 O 0.30241 0.81373 0.03278 0.0
O318 O 0.27235 0.80595 0.03502 0.0
C319 C 0.24958 0.7717 0.07173 0.0
C320 C 0.28594 0.81346 0.02419 0.0
O321 O 0.31174 0.78498 0.07931 0.0
Mg322 Mg 0.66833 0.17777 0.05827 0.0
O323 O 0.67294 0.14966 0.07951 0.0
O324 O 0.70165 0.13768 0.07177 0.0
Mg325 Mg 0.71241 0.15321 0.04229 0.0
C326 C 0.68675 0.13741 0.08288 0.0
C327 C 0.63142 0.1984 0.06935 0.0
O328 O 0.63175 0.19988 0.04893 0.0
O329 O 0.69086 0.19618 0.07553 0.0
O330 O 0.71651 0.18408 0.0593 0.0
O331 O 0.65324 0.1596 0.03355 0.0
O332 O 0.68384 0.16432 0.03525 0.0
C333 C 0.70835 0.19738 0.07105 0.0
C334 C 0.66965 0.1575 0.02496 0.0
O335 O 0.64525 0.19002 0.07864 0.0
Mg336 Mg 0.904 0.77728 0.66454 0.0
O337 O 0.88724 0.80554 0.67649 0.0
O338 O 0.90012 0.81647 0.70631 0.0
Mg339 Mg 0.92524 0.79536 0.71281 0.0
C340 C 0.88786 0.81801 0.69195 0.0
C341 C 0.88529 0.76323 0.62365 0.0
O342 O 0.89204 0.74518 0.62983 0.0
O343 O 0.92745 0.79838 0.65302 0.0
O344 O 0.94011 0.80791 0.68336 0.0
O345 O 0.88589 0.75587 0.68302 0.0
O346 O 0.91246 0.76987 0.69453 0.0
C347 C 0.9397 0.80842 0.66344 0.0
C348 C 0.8978 0.75851 0.69798 0.0
O349 O 0.88898 0.7795 0.63414 0.0
Mg350 Mg 0.16922 0.91789 0.6865 0.0
O351 O 0.16846 0.89333 0.6597 0.0
O352 O 0.19362 0.90313 0.64092 0.0
Mg353 Mg 0.20679 0.93378 0.6507 0.0
C354 C 0.17996 0.89065 0.64445 0.0
C355 C 0.14036 0.88794 0.71804 0.0
O356 O 0.14112 0.88044 0.73707 0.0
O357 O 0.19593 0.9032 0.69844 0.0
O358 O 0.21863 0.91891 0.68029 0.0
O359 O 0.14948 0.94193 0.67206 0.0
O360 O 0.17966 0.93967 0.66592 0.0
C361 C 0.21323 0.90753 0.69551 0.0
C362 C 0.16443 0.95009 0.66378 0.0
O363 O 0.15407 0.89875 0.71137 0.0
Mg364 Mg 0.04705 0.20481 0.66434 0.0
O365 O 0.06727 0.1764 0.66844 0.0
O366 O 0.05986 0.16568 0.70084 0.0
Mg367 Mg 0.03931 0.18661 0.7178 0.0
C368 C 0.06876 0.16342 0.68365 0.0
C369 C 0.05282 0.20267 0.61119 0.0
O370 O 0.04217 0.20617 0.59486 0.0
O371 O 0.02349 0.18154 0.66264 0.0
O372 O 0.01701 0.17326 0.69564 0.0
O373 O 0.06784 0.22899 0.6762 0.0
O374 O 0.04877 0.20979 0.6954 0.0
C375 C 0.0137 0.17178 0.67614 0.0
C376 C 0.06163 0.22373 0.69446 0.0
O377 O 0.04583 0.20574 0.6291 0.0
Mg378 Mg 0.79115 0.05384 0.67935 0.0
O379 O 0.78146 0.07743 0.65492 0.0
O380 O 0.7552 0.06534 0.64018 0.0
Mg381 Mg 0.7487 0.0338 0.65515 0.0
C382 C 0.76781 0.07937 0.64219 0.0
C383 C 0.8249 0.06941 0.70337 0.0
O384 O 0.82564 0.04924 0.70695 0.0
O385 O 0.76803 0.06473 0.70083 0.0
O386 O 0.7424 0.05089 0.68617 0.0
O387 O 0.80852 0.03634 0.6565 0.0
O388 O 0.77859 0.02991 0.66357 0.0
C389 C 0.75034 0.06148 0.70057 0.0
C390 C 0.79368 0.02504 0.65345 0.0
O391 O 0.81137 0.07668 0.69273 0.0
Mg392 Mg 0.90632 0.19565 0.30556 0.0
O393 O 0.88942 0.16718 0.29474 0.0
O394 O 0.90323 0.15386 0.26638 0.0
Mg395 Mg 0.93001 0.17253 0.26073 0.0
C396 C 0.89013 0.15386 0.28 0.0
C397 C 0.88548 0.21341 0.34403 0.0
O398 O 0.89249 0.23093 0.33672 0.0
O399 O 0.92816 0.17458 0.32044 0.0
O400 O 0.94237 0.16157 0.29221 0.0
O401 O 0.8904 0.21599 0.2839 0.0
O402 O 0.91701 0.20018 0.27559 0.0
C403 C 0.94061 0.16297 0.31201 0.0
C404 C 0.90309 0.2118 0.27 0.0
O405 O 0.88896 0.1963 0.3349 0.0
Mg406 Mg 0.78759 0.91713 0.29389 0.0
O407 O 0.77938 0.89684 0.32137 0.0
O408 O 0.75386 0.9099 0.3368 0.0
Mg409 Mg 0.74731 0.94043 0.31974 0.0
C410 C 0.76646 0.89586 0.33514 0.0
C411 C 0.82135 0.89804 0.27246 0.0
O412 O 0.8222 0.91754 0.26616 0.0
O413 O 0.76281 0.90437 0.27582 0.0
O414 O 0.73887 0.92152 0.2906 0.0
O415 O 0.80622 0.93748 0.31276 0.0
O416 O 0.77614 0.94355 0.30694 0.0
C417 C 0.74537 0.9091 0.2767 0.0
C418 C 0.7919 0.9498 0.31463 0.0
O419 O 0.80724 0.89207 0.28307 0.0
Mg420 Mg 0.04736 0.7802 0.30528 0.0
O421 O 0.06729 0.80635 0.29537 0.0
O422 O 0.05427 0.82152 0.26747 0.0
Mg423 Mg 0.02719 0.80447 0.25917 0.0
C424 C 0.06727 0.82011 0.28102 0.0
C425 C 0.06808 0.76073 0.34192 0.0
O426 O 0.06546 0.74422 0.33019 0.0
O427 O 0.02731 0.80374 0.31833 0.0
O428 O 0.01249 0.81423 0.28964 0.0
O429 O 0.06285 0.7577 0.28588 0.0
O430 O 0.03875 0.77627 0.27441 0.0
C431 C 0.01412 0.81367 0.30944 0.0
C432 C 0.05208 0.76309 0.27059 0.0
O433 O 0.06173 0.77824 0.33611 0.0
Mg434 Mg 0.16304 0.05467 0.29538 0.0
O435 O 0.17162 0.07686 0.3215 0.0
O436 O 0.19632 0.06313 0.33789 0.0
Mg437 Mg 0.20186 0.03088 0.32379 0.0
C438 C 0.18447 0.07786 0.33532 0.0
C439 C 0.13108 0.07251 0.27011 0.0
O440 O 0.13039 0.05248 0.26583 0.0
O441 O 0.18894 0.06421 0.27673 0.0
O442 O 0.21143 0.04638 0.2932 0.0
O443 O 0.14284 0.0369 0.31553 0.0
O444 O 0.173 0.0296 0.31176 0.0
C445 C 0.20598 0.05802 0.2782 0.0
C446 C 0.15696 0.02495 0.31989 0.0
O447 O 0.14462 0.07929 0.28107 0.0
Mg448 Mg 0.66258 0.89796 0.78141 0.0
O449 O 0.67431 0.88274 0.8109 0.0
O450 O 0.70126 0.89823 0.82001 0.0
Mg451 Mg 0.70729 0.92321 0.79555 0.0
C452 C 0.68829 0.8848 0.82317 0.0
C453 C 0.62677 0.87197 0.77162 0.0
O454 O 0.63543 0.87136 0.75352 0.0
O455 O 0.65333 0.92629 0.80065 0.0
O456 O 0.68144 0.9404 0.80778 0.0
O457 O 0.68027 0.87672 0.76075 0.0
O458 O 0.68935 0.90722 0.77283 0.0
C459 C 0.66351 0.9403 0.80923 0.0
C460 C 0.69322 0.89089 0.76212 0.0
O461 O 0.63431 0.88165 0.78669 0.0
Mg462 Mg 0.046 0.66784 0.76863 0.0
O463 O 0.06846 0.6688 0.79498 0.0
O464 O 0.05959 0.69685 0.81378 0.0
Mg465 Mg 0.03544 0.71454 0.79895 0.0
C466 C 0.07021 0.68105 0.81074 0.0
C467 C 0.05806 0.61769 0.75913 0.0
O468 O 0.05205 0.60081 0.74965 0.0
O469 O 0.02451 0.65747 0.79243 0.0
O470 O 0.0164 0.68697 0.8084 0.0
O471 O 0.06388 0.6858 0.74633 0.0
O472 O 0.04537 0.69995 0.77006 0.0
C473 C 0.01457 0.66733 0.80567 0.0
C474 C 0.05726 0.70246 0.75505 0.0
O475 O 0.04825 0.63412 0.75801 0.0
Mg476 Mg 0.28727 0.07024 0.78083 0.0
O477 O 0.27567 0.08616 0.80914 0.0
O478 O 0.2473 0.07494 0.81881 0.0
Mg479 Mg 0.24042 0.04975 0.79468 0.0
C480 C 0.26163 0.08666 0.82144 0.0
C481 C 0.32565 0.09223 0.77289 0.0
O482 O 0.32056 0.08742 0.75383 0.0
O483 O 0.29397 0.04212 0.80156 0.0
O484 O 0.26475 0.03099 0.80823 0.0
O485 O 0.27289 0.09294 0.75961 0.0
O486 O 0.25954 0.06405 0.77136 0.0
C487 C 0.28255 0.02945 0.81041 0.0
C488 C 0.25812 0.08121 0.761 0.0
O489 O 0.31537 0.08623 0.78797 0.0
Mg490 Mg 0.90759 0.30934 0.77879 0.0
O491 O 0.88936 0.29586 0.80515 0.0
O492 O 0.89986 0.26412 0.81371 0.0
Mg493 Mg 0.92584 0.25833 0.79374 0.0
C494 C 0.88842 0.27926 0.81612 0.0
C495 C 0.88651 0.34958 0.76836 0.0
O496 O 0.8902 0.34328 0.7493 0.0
O497 O 0.92943 0.31745 0.80266 0.0
O498 O 0.94023 0.28576 0.81046 0.0
O499 O 0.88993 0.29419 0.75478 0.0
O500 O 0.91474 0.27949 0.76966 0.0
C501 C 0.94034 0.30557 0.81291 0.0
C502 C 0.90053 0.27799 0.7573 0.0
O503 O 0.89354 0.33984 0.78364 0.0
Mg504 Mg 0.66137 0.06931 0.198 0.0
O505 O 0.67208 0.08577 0.16897 0.0
O506 O 0.70162 0.07608 0.16175 0.0
Mg507 Mg 0.70966 0.05206 0.18628 0.0
C508 C 0.68679 0.08648 0.15756 0.0
C509 C 0.62595 0.09375 0.206 0.0
O510 O 0.63541 0.09473 0.22351 0.0
O511 O 0.65701 0.04062 0.17763 0.0
O512 O 0.68691 0.03138 0.17172 0.0
O513 O 0.67388 0.09383 0.21857 0.0
O514 O 0.68904 0.06571 0.20782 0.0
C515 C 0.66924 0.02878 0.16905 0.0
C516 C 0.6893 0.08325 0.21754 0.0
O517 O 0.63212 0.08217 0.19146 0.0
Mg518 Mg 0.90452 0.66205 0.20472 0.0
O519 O 0.88232 0.66389 0.17811 0.0
O520 O 0.89208 0.69246 0.1605 0.0
Mg521 Mg 0.91553 0.71018 0.1768 0.0
C522 C 0.88124 0.67665 0.16264 0.0
C523 C 0.89507 0.61099 0.21273 0.0
O524 O 0.90179 0.59442 0.2222 0.0
O525 O 0.92616 0.6529 0.18092 0.0
O526 O 0.93562 0.68346 0.16804 0.0
O527 O 0.88696 0.67898 0.22805 0.0
O528 O 0.90483 0.69389 0.20415 0.0
C529 C 0.93724 0.66366 0.16965 0.0
C530 C 0.89393 0.69584 0.22002 0.0
O531 O 0.90361 0.62817 0.21485 0.0
Mg532 Mg 0.2907 0.90245 0.19389 0.0
O533 O 0.27862 0.88545 0.16589 0.0
O534 O 0.24885 0.89515 0.16013 0.0
Mg535 Mg 0.24231 0.92026 0.18425 0.0
C536 C 0.26337 0.88438 0.15554 0.0
C537 C 0.32815 0.88098 0.20134 0.0
O538 O 0.3209 0.88233 0.22014 0.0
O539 O 0.29486 0.93071 0.17282 0.0
O540 O 0.2649 0.94044 0.16841 0.0
O541 O 0.27844 0.879 0.21617 0.0
O542 O 0.26371 0.90728 0.20502 0.0
C543 C 0.2825 0.94278 0.16488 0.0
C544 C 0.26334 0.89023 0.21557 0.0
O545 O 0.31936 0.88892 0.18612 0.0
Mg546 Mg 0.04665 0.31054 0.20256 0.0
O547 O 0.06767 0.30762 0.17459 0.0
O548 O 0.05681 0.27852 0.15907 0.0
Mg549 Mg 0.03345 0.262 0.17672 0.0
C550 C 0.06792 0.2942 0.15967 0.0
C551 C 0.05844 0.36139 0.2085 0.0
O552 O 0.05171 0.37879 0.21635 0.0
O553 O 0.02421 0.31962 0.17984 0.0
O554 O 0.0142 0.28928 0.16702 0.0
O555 O 0.06488 0.29346 0.22517 0.0
O556 O 0.04531 0.27866 0.20312 0.0
C557 C 0.01312 0.30914 0.16843 0.0
C558 C 0.05711 0.27664 0.21806 0.0
O559 O 0.04888 0.34486 0.21054 0.0
Mg560 Mg 0.79368 0.68147 0.91309 0.0
O561 O 0.78224 0.65499 0.89345 0.0
O562 O 0.75762 0.63993 0.90909 0.0
Mg563 Mg 0.75388 0.65698 0.94019 0.0
C564 C 0.76904 0.64153 0.89377 0.0
C565 C 0.82314 0.67915 0.87776 0.0
O566 O 0.82188 0.65955 0.88363 0.0
O567 O 0.76849 0.70159 0.90385 0.0
O568 O 0.74528 0.68683 0.92247 0.0
O569 O 0.81304 0.66081 0.93129 0.0
O570 O 0.78351 0.66739 0.93987 0.0
C571 C 0.75135 0.70095 0.91001 0.0
C572 C 0.79911 0.65814 0.94408 0.0
O573 O 0.81208 0.69239 0.88605 0.0
Mg574 Mg 0.78761 0.29483 0.05232 0.0
O575 O 0.78142 0.32133 0.07464 0.0
O576 O 0.75396 0.33551 0.06534 0.0
Mg577 Mg 0.74523 0.3213 0.03422 0.0
C578 C 0.76798 0.33413 0.07761 0.0
C579 C 0.82423 0.27552 0.06601 0.0
O580 O 0.82561 0.27579 0.0456 0.0
O581 O 0.76375 0.27577 0.06667 0.0
O582 O 0.73898 0.29052 0.05103 0.0
O583 O 0.80466 0.31524 0.03125 0.0
O584 O 0.7741 0.31021 0.02845 0.0
C585 C 0.74623 0.2763 0.06245 0.0
C586 C 0.7892 0.31874 0.02126 0.0
O587 O 0.80905 0.28174 0.07447 0.0
Mg588 Mg 0.66378 0.78414 0.07627 0.0
O589 O 0.67877 0.81195 0.08905 0.0
O590 O 0.70646 0.81908 0.07426 0.0
Mg591 Mg 0.70873 0.79393 0.04902 0.0
C592 C 0.69347 0.82314 0.08737 0.0
C593 C 0.62591 0.77991 0.09937 0.0
O594 O 0.62711 0.76213 0.08929 0.0
O595 O 0.65485 0.80434 0.04844 0.0
O596 O 0.68315 0.80847 0.03342 0.0
O597 O 0.68109 0.76162 0.09611 0.0
O598 O 0.68884 0.77281 0.06483 0.0
C599 C 0.66541 0.8117 0.03397 0.0
C600 C 0.6928 0.76144 0.08059 0.0
O601 O 0.63849 0.7936 0.09624 0.0
Mg602 Mg 0.16646 0.67816 0.05683 0.0
O603 O 0.17582 0.65025 0.07598 0.0
O604 O 0.20169 0.63662 0.06143 0.0
Mg605 Mg 0.20767 0.65586 0.03202 0.0
C606 C 0.18911 0.63696 0.07566 0.0
C607 C 0.1339 0.70012 0.07625 0.0
O608 O 0.13413 0.70707 0.05697 0.0
O609 O 0.19043 0.69672 0.07009 0.0
O610 O 0.21537 0.6842 0.0529 0.0
O611 O 0.14799 0.65908 0.03691 0.0
O612 O 0.17794 0.66608 0.03008 0.0
C613 C 0.20798 0.69687 0.06599 0.0
C614 C 0.16231 0.65748 0.02449 0.0
O615 O 0.14699 0.68808 0.08216 0.0
Mg616 Mg 0.28938 0.18888 0.07687 0.0
O617 O 0.27447 0.16036 0.09088 0.0
O618 O 0.24375 0.15909 0.08319 0.0
Mg619 Mg 0.24521 0.17693 0.05275 0.0
C620 C 0.25804 0.15265 0.09329 0.0
C621 C 0.32802 0.19254 0.09775 0.0
O622 O 0.32595 0.2111 0.08936 0.0
O623 O 0.29764 0.17169 0.04661 0.0
O624 O 0.27059 0.15551 0.04822 0.0
O625 O 0.27355 0.20961 0.09901 0.0
O626 O 0.26326 0.20103 0.0677 0.0
C627 C 0.28539 0.15999 0.0381 0.0
C628 C 0.26036 0.21039 0.08518 0.0
O629 O 0.31547 0.17887 0.09461 0.0
Mg630 Mg 0.16431 0.29638 0.91354 0.0
O631 O 0.17501 0.32475 0.89625 0.0
O632 O 0.19934 0.33951 0.91262 0.0
Mg633 Mg 0.20402 0.31977 0.94188 0.0
C634 C 0.18783 0.33861 0.89747 0.0
C635 C 0.12963 0.29504 0.88665 0.0
O636 O 0.12493 0.30584 0.90318 0.0
O637 O 0.18959 0.27854 0.9012 0.0
O638 O 0.21238 0.29228 0.92088 0.0
O639 O 0.14531 0.315 0.93474 0.0
O640 O 0.17499 0.30802 0.94125 0.0
C641 C 0.20672 0.27931 0.9071 0.0
C642 C 0.15948 0.31645 0.94712 0.0
O643 O 0.14607 0.28737 0.8856 0.0
Mg644 Mg 0.66611 0.1955 0.8988 0.0
O645 O 0.67566 0.16587 0.88152 0.0
O646 O 0.70688 0.1615 0.88341 0.0
Mg647 Mg 0.71347 0.18035 0.91208 0.0
C648 C 0.6908 0.15649 0.87629 0.0
C649 C 0.62845 0.20452 0.87791 0.0
O650 O 0.63744 0.22233 0.87604 0.0
O651 O 0.66262 0.17691 0.9289 0.0
O652 O 0.69014 0.16036 0.92692 0.0
O653 O 0.67904 0.21615 0.87421 0.0
O654 O 0.69387 0.20468 0.90218 0.0
C655 C 0.67448 0.1638 0.93602 0.0
C656 C 0.69439 0.21487 0.88494 0.0
O657 O 0.63622 0.18955 0.88757 0.0
Mg658 Mg 0.2892 0.78489 0.89352 0.0
O659 O 0.27377 0.81354 0.88127 0.0
O660 O 0.24274 0.8128 0.88739 0.0
Mg661 Mg 0.24238 0.79022 0.91449 0.0
C662 C 0.25726 0.82096 0.87901 0.0
C663 C 0.32504 0.78261 0.86995 0.0
O664 O 0.31977 0.76337 0.87408 0.0
O665 O 0.29383 0.80054 0.92497 0.0
O666 O 0.26474 0.81319 0.92673 0.0
O667 O 0.2763 0.76498 0.86857 0.0
O668 O 0.2638 0.77019 0.89981 0.0
C669 C 0.28109 0.81086 0.93448 0.0
C670 C 0.26265 0.76195 0.88163 0.0
O671 O 0.31589 0.79737 0.87832 0.0
Mg672 Mg 0.78826 0.57546 0.77967 0.0
O673 O 0.77558 0.59312 0.80692 0.0
O674 O 0.7471 0.58054 0.81508 0.0
Mg675 Mg 0.74026 0.55607 0.79048 0.0
C676 C 0.76096 0.59271 0.81849 0.0
C677 C 0.81846 0.60902 0.78289 0.0
O678 O 0.80555 0.61744 0.77101 0.0
O679 O 0.79277 0.54821 0.80204 0.0
O680 O 0.76319 0.53701 0.80641 0.0
O681 O 0.77541 0.5974 0.75626 0.0
O682 O 0.76115 0.56945 0.76886 0.0
C683 C 0.78078 0.53575 0.81024 0.0
C684 C 0.76045 0.58604 0.75762 0.0
O685 O 0.81667 0.59 0.78818 0.0
Mg686 Mg 0.16251 0.39958 0.78441 0.0
O687 O 0.17703 0.38674 0.81291 0.0
O688 O 0.20434 0.40299 0.81917 0.0
Mg689 Mg 0.20798 0.42591 0.79211 0.0
C690 C 0.19171 0.38961 0.82386 0.0
C691 C 0.12445 0.3785 0.7796 0.0
O692 O 0.12817 0.3865 0.76118 0.0
O693 O 0.15451 0.42887 0.80288 0.0
O694 O 0.18295 0.44357 0.80584 0.0
O695 O 0.17728 0.37647 0.76393 0.0
O696 O 0.18892 0.40735 0.77231 0.0
C697 C 0.16525 0.44348 0.80935 0.0
C698 C 0.19112 0.38958 0.76327 0.0
O699 O 0.13582 0.38231 0.79429 0.0
Mg700 Mg 0.16511 0.57731 0.19306 0.0
O701 O 0.17648 0.58991 0.16207 0.0
O702 O 0.20401 0.57452 0.15454 0.0
Mg703 Mg 0.21055 0.55226 0.18131 0.0
C704 C 0.1907 0.5871 0.1502 0.0
C705 C 0.12592 0.59584 0.20239 0.0
O706 O 0.13072 0.5877 0.22039 0.0
O707 O 0.15669 0.54677 0.17698 0.0
O708 O 0.18515 0.53273 0.17144 0.0
O709 O 0.18105 0.60151 0.21115 0.0
O710 O 0.19259 0.57079 0.2023 0.0
C711 C 0.16723 0.53209 0.1702 0.0
C712 C 0.19512 0.58872 0.21085 0.0
O713 O 0.13674 0.59295 0.18683 0.0
Mg714 Mg 0.79239 0.40298 0.19351 0.0
O715 O 0.78242 0.38663 0.16346 0.0
O716 O 0.7519 0.39256 0.15739 0.0
Mg717 Mg 0.74892 0.42327 0.17401 0.0
C718 C 0.7673 0.3832 0.15325 0.0
C719 C 0.82594 0.37528 0.20391 0.0
O720 O 0.81508 0.37371 0.22045 0.0
O721 O 0.80073 0.43302 0.17627 0.0
O722 O 0.77625 0.42959 0.15594 0.0
O723 O 0.77601 0.38008 0.21241 0.0
O724 O 0.76422 0.40999 0.20116 0.0
C725 C 0.79024 0.44026 0.16196 0.0
C726 C 0.76172 0.39245 0.2107 0.0
O727 O 0.82113 0.38771 0.18943 0.0
Mg728 Mg 0.2868 0.55664 0.67756 0.0
O729 O 0.27763 0.57752 0.65071 0.0
O730 O 0.25052 0.56511 0.63822 0.0
Mg731 Mg 0.24447 0.5344 0.65541 0.0
C732 C 0.26379 0.57853 0.63814 0.0
C733 C 0.32163 0.57125 0.6971 0.0
O734 O 0.32221 0.55077 0.69736 0.0
O735 O 0.26358 0.56844 0.69848 0.0
O736 O 0.23824 0.55168 0.68638 0.0
O737 O 0.30438 0.53758 0.65657 0.0
O738 O 0.2745 0.5311 0.66412 0.0
C739 C 0.24624 0.56349 0.69974 0.0
C740 C 0.28982 0.52555 0.65481 0.0
O741 O 0.30727 0.58029 0.68958 0.0
Mg742 Mg 0.66157 0.41272 0.67563 0.0
O743 O 0.67397 0.39439 0.64867 0.0
O744 O 0.7015 0.40831 0.63888 0.0
Mg745 Mg 0.70481 0.43855 0.65752 0.0
C746 C 0.68877 0.39437 0.6374 0.0
C747 C 0.62437 0.3906 0.67836 0.0
O748 O 0.62107 0.40919 0.67068 0.0
O749 O 0.68406 0.40075 0.69781 0.0
O750 O 0.70904 0.41947 0.68731 0.0
O751 O 0.64567 0.43407 0.65423 0.0
O752 O 0.67449 0.43995 0.66518 0.0
C753 C 0.70115 0.40661 0.69984 0.0
C754 C 0.6601 0.44627 0.6549 0.0
O755 O 0.64115 0.3859 0.6832 0.0
Mg756 Mg 0.28335 0.41629 0.29496 0.0
O757 O 0.27664 0.39592 0.32319 0.0
O758 O 0.24881 0.40621 0.33579 0.0
Mg759 Mg 0.24 0.43602 0.3192 0.0
C760 C 0.26285 0.39383 0.33586 0.0
C761 C 0.32124 0.40306 0.27891 0.0
O762 O 0.32274 0.42339 0.28083 0.0
O763 O 0.25992 0.40068 0.2761 0.0
O764 O 0.23525 0.41831 0.28888 0.0
O765 O 0.29936 0.44114 0.3128 0.0
O766 O 0.26886 0.44008 0.30807 0.0
C767 C 0.24265 0.4062 0.27533 0.0
C768 C 0.28323 0.4504 0.31418 0.0
O769 O 0.30568 0.39428 0.2833 0.0
Mg770 Mg 0.66458 0.55352 0.29473 0.0
O771 O 0.67144 0.57435 0.32217 0.0
O772 O 0.69681 0.56199 0.33831 0.0
Mg773 Mg 0.70427 0.53108 0.32237 0.0
C774 C 0.684 0.57578 0.33621 0.0
C775 C 0.63184 0.57019 0.27078 0.0
O776 O 0.63176 0.55021 0.26628 0.0
O777 O 0.69001 0.56685 0.27772 0.0
O778 O 0.71355 0.54973 0.29324 0.0
O779 O 0.64502 0.53376 0.31319 0.0
O780 O 0.67553 0.52786 0.30973 0.0
C781 C 0.70744 0.56231 0.27932 0.0
C782 C 0.65946 0.52221 0.3173 0.0
O783 O 0.64489 0.57758 0.28201 0.0
Mg784 Mg 0.15966 0.77556 0.57212 0.0
O785 O 0.16798 0.80367 0.59216 0.0
O786 O 0.1969 0.81328 0.58225 0.0
Mg787 Mg 0.20781 0.79029 0.55798 0.0
C788 C 0.18205 0.81598 0.59318 0.0
C789 C 0.1213 0.76545 0.59188 0.0
O790 O 0.12827 0.74653 0.59046 0.0
O791 O 0.15594 0.79759 0.54441 0.0
O792 O 0.18588 0.8044 0.53585 0.0
O793 O 0.17158 0.75303 0.59528 0.0
O794 O 0.1875 0.76692 0.56899 0.0
C795 C 0.16821 0.80656 0.53284 0.0
C796 C 0.18734 0.75536 0.58538 0.0
O797 O 0.13002 0.78049 0.58333 0.0
Mg798 Mg 0.16298 0.19552 0.39969 0.0
O799 O 0.17413 0.16635 0.38316 0.0
O800 O 0.20282 0.15878 0.39516 0.0
Mg801 Mg 0.21039 0.18363 0.41911 0.0
C802 C 0.18874 0.15474 0.38357 0.0
C803 C 0.12848 0.2038 0.37349 0.0
O804 O 0.13867 0.22071 0.37099 0.0
O805 O 0.15716 0.17541 0.42855 0.0
O806 O 0.18669 0.17004 0.43929 0.0
O807 O 0.17673 0.21665 0.37617 0.0
O808 O 0.19038 0.20524 0.40489 0.0
C809 C 0.16894 0.16743 0.4413 0.0
C810 C 0.1915 0.21558 0.38777 0.0
O811 O 0.13402 0.18969 0.38594 0.0
Mg812 Mg 0.28739 0.68936 0.41566 0.0
O813 O 0.28431 0.6625 0.39249 0.0
O814 O 0.26057 0.64443 0.40707 0.0
Mg815 Mg 0.25561 0.65374 0.44149 0.0
C816 C 0.27179 0.64807 0.39178 0.0
C817 C 0.31069 0.71963 0.3821 0.0
O818 O 0.31005 0.73674 0.37085 0.0
O819 O 0.2581 0.69841 0.40669 0.0
O820 O 0.24051 0.68397 0.43149 0.0
O821 O 0.31257 0.67816 0.43388 0.0
O822 O 0.28352 0.66768 0.43881 0.0
C823 C 0.2429 0.69749 0.41709 0.0
C824 C 0.30037 0.66876 0.44566 0.0
O825 O 0.29636 0.71457 0.39278 0.0
Mg826 Mg 0.79067 0.78074 0.39905 0.0
O827 O 0.77745 0.80812 0.38196 0.0
O828 O 0.74867 0.81456 0.39469 0.0
Mg829 Mg 0.74278 0.78962 0.41919 0.0
C830 C 0.76241 0.81895 0.3826 0.0
C831 C 0.82585 0.77188 0.37526 0.0
O832 O 0.81811 0.7537 0.37929 0.0
O833 O 0.7955 0.80273 0.42657 0.0
O834 O 0.76578 0.80592 0.43785 0.0
O835 O 0.7781 0.75757 0.37701 0.0
O836 O 0.76416 0.76914 0.40565 0.0
C837 C 0.78329 0.81027 0.43918 0.0
C838 C 0.76351 0.75796 0.38909 0.0
O839 O 0.81864 0.78804 0.38348 0.0
Mg840 Mg 0.66297 0.2957 0.4195 0.0
O841 O 0.67397 0.32044 0.39691 0.0
O842 O 0.70058 0.33383 0.40979 0.0
Mg843 Mg 0.70616 0.31777 0.44091 0.0
C844 C 0.68802 0.33285 0.39567 0.0
C845 C 0.6267 0.27718 0.40357 0.0
O846 O 0.62376 0.27871 0.42373 0.0
O847 O 0.68569 0.27353 0.40851 0.0
O848 O 0.71133 0.28681 0.42361 0.0
O849 O 0.64633 0.31889 0.43778 0.0
O850 O 0.676 0.31056 0.44366 0.0
C851 C 0.70322 0.27286 0.41258 0.0
C852 C 0.66141 0.32129 0.44881 0.0
O853 O 0.64239 0.28315 0.39608 0.0
Mg854 Mg 0.78727 0.19493 0.57453 0.0
O855 O 0.7762 0.16649 0.59171 0.0
O856 O 0.74812 0.15688 0.57948 0.0
Mg857 Mg 0.74075 0.1808 0.55438 0.0
C858 C 0.76202 0.15433 0.59175 0.0
C859 C 0.82682 0.20377 0.59292 0.0
O860 O 0.82278 0.22266 0.58638 0.0
O861 O 0.79401 0.17434 0.54644 0.0
O862 O 0.76502 0.16744 0.53485 0.0
O863 O 0.77316 0.21615 0.5972 0.0
O864 O 0.75984 0.20392 0.56853 0.0
C865 C 0.78289 0.16559 0.53351 0.0
C866 C 0.75841 0.21444 0.58555 0.0
O867 O 0.81544 0.18893 0.58954 0.0
Mg868 Mg 0.29048 0.29385 0.55263 0.0
O869 O 0.28132 0.31921 0.5754 0.0
O870 O 0.25688 0.3363 0.56187 0.0
Mg871 Mg 0.25197 0.32292 0.52921 0.0
C872 C 0.26839 0.33296 0.57673 0.0
C873 C 0.32368 0.27106 0.56922 0.0
O874 O 0.32549 0.27005 0.54887 0.0
O875 O 0.26464 0.27496 0.56158 0.0
O876 O 0.24223 0.29209 0.54428 0.0
O877 O 0.3108 0.31452 0.53586 0.0
O878 O 0.28082 0.31067 0.52784 0.0
C879 C 0.2476 0.27679 0.55559 0.0
C880 C 0.29697 0.31873 0.52349 0.0
O881 O 0.30877 0.27903 0.57678 0.0
Mg882 Mg 0.66535 0.67924 0.55295 0.0
O883 O 0.67341 0.65312 0.57508 0.0
O884 O 0.69755 0.63566 0.56124 0.0
Mg885 Mg 0.70322 0.64993 0.52889 0.0
C886 C 0.68575 0.63874 0.57597 0.0
C887 C 0.6342 0.70436 0.57223 0.0
O888 O 0.63282 0.70982 0.55256 0.0
O889 O 0.69136 0.69722 0.56208 0.0
O890 O 0.71352 0.68109 0.54321 0.0
O891 O 0.64435 0.65944 0.53657 0.0
O892 O 0.6743 0.66238 0.52759 0.0
C893 C 0.70817 0.69591 0.55521 0.0
C894 C 0.65794 0.65443 0.52407 0.0
O895 O 0.64822 0.69367 0.57807 0.0
Mg896 Mg 0.16447 0.41129 0.17587 0.0
O897 O 0.17403 0.3953 0.14658 0.0
O898 O 0.20007 0.41023 0.13407 0.0
Mg899 Mg 0.20404 0.43997 0.15341 0.0
C900 C 0.18746 0.3961 0.13347 0.0
C901 C 0.12965 0.39064 0.18743 0.0
O902 O 0.12774 0.41089 0.18969 0.0
O903 O 0.18957 0.39859 0.19398 0.0
O904 O 0.21152 0.42091 0.18242 0.0
O905 O 0.14526 0.43283 0.15855 0.0
O906 O 0.17486 0.44 0.16576 0.0
C907 C 0.20596 0.40672 0.19505 0.0
C908 C 0.15908 0.44594 0.15804 0.0
O909 O 0.14575 0.38337 0.18299 0.0
Mg910 Mg 0.7871 0.56507 0.17901 0.0
O911 O 0.77662 0.583 0.1512 0.0
O912 O 0.74837 0.57155 0.14156 0.0
Mg913 Mg 0.74231 0.54275 0.16173 0.0
C914 C 0.76221 0.58406 0.13954 0.0
C915 C 0.82536 0.58139 0.1842 0.0
O916 O 0.82618 0.56097 0.18299 0.0
O917 O 0.76555 0.58008 0.20072 0.0
O918 O 0.73992 0.56184 0.19175 0.0
O919 O 0.80142 0.54083 0.159 0.0
O920 O 0.77222 0.53903 0.17016 0.0
C921 C 0.74845 0.57463 0.20372 0.0
C922 C 0.78605 0.53017 0.16083 0.0
O923 O 0.80932 0.59003 0.18452 0.0
Mg924 Mg 0.78779 0.42625 0.78943 0.0
O925 O 0.7817 0.40089 0.81368 0.0
O926 O 0.75611 0.41097 0.83127 0.0
Mg927 Mg 0.74677 0.44267 0.81893 0.0
C928 C 0.76913 0.39773 0.82759 0.0
C929 C 0.8197 0.39732 0.78547 0.0
O930 O 0.80868 0.40464 0.77086 0.0
O931 O 0.76331 0.4144 0.77076 0.0
O932 O 0.73832 0.42627 0.78822 0.0
O933 O 0.80641 0.44332 0.81111 0.0
O934 O 0.77579 0.44858 0.80805 0.0
C935 C 0.74556 0.4164 0.77284 0.0
C936 C 0.79151 0.4534 0.81689 0.0
O937 O 0.80862 0.40486 0.772 0.0
Mg938 Mg 0.16005 0.55974 0.79521 0.0
O939 O 0.17167 0.57889 0.82186 0.0
O940 O 0.19586 0.56248 0.83679 0.0
Mg941 Mg 0.19944 0.53163 0.819 0.0
C942 C 0.18468 0.57797 0.83538 0.0
C943 C 0.12477 0.58239 0.78702 0.0
O944 O 0.12061 0.5627 0.79016 0.0
O945 O 0.18522 0.56927 0.775 0.0
O946 O 0.20773 0.54953 0.7892 0.0
O947 O 0.14097 0.5407 0.81617 0.0
O948 O 0.17011 0.53218 0.8082 0.0
C949 C 0.20211 0.56234 0.77524 0.0
C950 C 0.15471 0.52766 0.8177 0.0
O951 O 0.14197 0.58767 0.78584 0.0
Mg952 Mg 0.66553 0.39608 0.28066 0.0
O953 O 0.67886 0.38071 0.30865 0.0
O954 O 0.70681 0.39471 0.31606 0.0
Mg955 Mg 0.71183 0.4193 0.29082 0.0
C956 C 0.69347 0.38196 0.31999 0.0
C957 C 0.62561 0.37713 0.27547 0.0
O958 O 0.62689 0.38734 0.25776 0.0
O959 O 0.65841 0.42426 0.30108 0.0
O960 O 0.68736 0.43737 0.30544 0.0
O961 O 0.67994 0.37413 0.25888 0.0
O962 O 0.69186 0.40431 0.26935 0.0
C963 C 0.6696 0.43788 0.30869 0.0
C964 C 0.69373 0.38732 0.25894 0.0
O965 O 0.63866 0.37886 0.28877 0.0
Mg966 Mg 0.29154 0.5782 0.27667 0.0
O967 O 0.28068 0.59637 0.30528 0.0
O968 O 0.24972 0.59224 0.30969 0.0
Mg969 Mg 0.24305 0.56518 0.28874 0.0
C970 C 0.26535 0.60039 0.31491 0.0
C971 C 0.33378 0.59096 0.27021 0.0
O972 O 0.33104 0.58217 0.252 0.0
O973 O 0.29393 0.54816 0.29577 0.0
O974 O 0.26484 0.54845 0.30914 0.0
O975 O 0.27984 0.60218 0.25467 0.0
O976 O 0.26449 0.57423 0.26585 0.0
C977 C 0.28109 0.54019 0.30728 0.0
C978 C 0.26463 0.59107 0.25502 0.0
O979 O 0.32086 0.59 0.28395 0.0
Mg980 Mg 0.66254 0.57507 0.69379 0.0
O981 O 0.67345 0.59128 0.66424 0.0
O982 O 0.70184 0.5783 0.65621 0.0
Mg983 Mg 0.71026 0.55564 0.68196 0.0
C984 C 0.68784 0.59011 0.6523 0.0
C985 C 0.6261 0.5983 0.70357 0.0
O986 O 0.63532 0.59825 0.72128 0.0
O987 O 0.65727 0.54536 0.67465 0.0
O988 O 0.68692 0.53439 0.67002 0.0
O989 O 0.67625 0.59892 0.71458 0.0
O990 O 0.69006 0.57025 0.7032 0.0
C991 C 0.66919 0.5321 0.66767 0.0
C992 C 0.69113 0.58737 0.71347 0.0
O993 O 0.63311 0.5885 0.68816 0.0
Mg994 Mg 0.28659 0.39834 0.69344 0.0
O995 O 0.27557 0.38094 0.66509 0.0
O996 O 0.24727 0.39312 0.65614 0.0
Mg997 Mg 0.23915 0.41702 0.68108 0.0
C998 C 0.26132 0.3811 0.65308 0.0
C999 C 0.32635 0.38205 0.70229 0.0
O1000 O 0.32061 0.38774 0.72093 0.0
O1001 O 0.29187 0.42683 0.67326 0.0
O1002 O 0.26248 0.43828 0.66821 0.0
O1003 O 0.27357 0.37545 0.71555 0.0
O1004 O 0.25931 0.40362 0.70337 0.0
C1005 C 0.28029 0.4401 0.66588 0.0
C1006 C 0.25865 0.38698 0.71455 0.0
O1007 O 0.31564 0.38532 0.68687 0.0
Mg1008 Mg 0.7904 0.17989 0.41932 0.0
O1009 O 0.78019 0.15444 0.39731 0.0
O1010 O 0.7545 0.13929 0.41076 0.0
Mg1011 Mg 0.74927 0.15468 0.44241 0.0
C1012 C 0.76659 0.14147 0.39616 0.0
C1013 C 0.82504 0.20052 0.40238 0.0
O1014 O 0.82717 0.20073 0.4227 0.0
O1015 O 0.76609 0.19992 0.40876 0.0
O1016 O 0.74154 0.18511 0.42498 0.0
O1017 O 0.80893 0.15866 0.4375 0.0
O1018 O 0.77895 0.16466 0.4445 0.0
C1019 C 0.7486 0.19932 0.41328 0.0
C1020 C 0.79448 0.1556 0.44947 0.0
O1021 O 0.80993 0.19305 0.39491 0.0
Mg1022 Mg 0.78915 0.79612 0.55131 0.0
O1023 O 0.78028 0.82062 0.57467 0.0
O1024 O 0.75319 0.83483 0.56476 0.0
Mg1025 Mg 0.74679 0.82095 0.53243 0.0
C1026 C 0.76669 0.83316 0.57772 0.0
C1027 C 0.82112 0.76958 0.56918 0.0
O1028 O 0.81961 0.76048 0.55094 0.0
O1029 O 0.766 0.77442 0.5621 0.0
O1030 O 0.74097 0.78808 0.54603 0.0
O1031 O 0.80657 0.81882 0.53382 0.0
O1032 O 0.77663 0.81208 0.52725 0.0
C1033 C 0.74874 0.77375 0.55689 0.0
C1034 C 0.79185 0.82205 0.52246 0.0
O1035 O 0.80942 0.78356 0.57443 0.0
Mg1036 Mg 0.66348 0.28218 0.57242 0.0
O1037 O 0.67774 0.30986 0.58714 0.0
O1038 O 0.70765 0.31424 0.57731 0.0
Mg1039 Mg 0.71212 0.288 0.55363 0.0
C1040 C 0.69317 0.31991 0.58762 0.0
C1041 C 0.62971 0.28221 0.6004 0.0
O1042 O 0.63633 0.26313 0.60171 0.0
O1043 O 0.66022 0.30235 0.54372 0.0
O1044 O 0.69027 0.30503 0.53348 0.0
O1045 O 0.67485 0.26043 0.59674 0.0
O1046 O 0.68959 0.26861 0.56737 0.0
C1047 C 0.67284 0.30953 0.53144 0.0
C1048 C 0.6896 0.25907 0.58499 0.0
O1049 O 0.63636 0.29432 0.58662 0.0
Mg1050 Mg 0.16112 0.17946 0.55683 0.0
O1051 O 0.17409 0.1551 0.57748 0.0
O1052 O 0.20086 0.14272 0.5643 0.0
Mg1053 Mg 0.20361 0.15833 0.53223 0.0
C1054 C 0.18867 0.14372 0.57889 0.0
C1055 C 0.12485 0.18833 0.57636 0.0
O1056 O 0.12263 0.18629 0.55616 0.0
O1057 O 0.18404 0.20219 0.56617 0.0
O1058 O 0.20898 0.18972 0.54857 0.0
O1059 O 0.14441 0.15636 0.53819 0.0
O1060 O 0.17334 0.16643 0.53061 0.0
C1061 C 0.20123 0.2033 0.56038 0.0
C1062 C 0.15872 0.15568 0.52571 0.0
O1063 O 0.14142 0.18828 0.5836 0.0
Mg1064 Mg 0.28723 0.6958 0.57736 0.0
O1065 O 0.27606 0.66445 0.58829 0.0
O1066 O 0.24838 0.65656 0.57396 0.0
Mg1067 Mg 0.24228 0.68399 0.55207 0.0
C1068 C 0.26214 0.65216 0.58588 0.0
C1069 C 0.32775 0.70117 0.59573 0.0
O1070 O 0.32641 0.71941 0.58648 0.0
O1071 O 0.29606 0.68105 0.54663 0.0
O1072 O 0.26803 0.67497 0.53189 0.0
O1073 O 0.27113 0.71266 0.60206 0.0
O1074 O 0.26005 0.70526 0.57066 0.0
C1075 C 0.28603 0.67441 0.53156 0.0
C1076 C 0.25733 0.7129 0.58896 0.0
O1077 O 0.31467 0.68791 0.59337 0.0
Mg1078 Mg 0.16115 0.79822 0.41845 0.0
O1079 O 0.1724 0.82309 0.39633 0.0
O1080 O 0.19939 0.83537 0.40906 0.0
Mg1081 Mg 0.20365 0.82019 0.44119 0.0
C1082 C 0.18683 0.83487 0.39491 0.0
C1083 C 0.12684 0.77748 0.40045 0.0
O1084 O 0.1238 0.77665 0.42064 0.0
O1085 O 0.18397 0.77585 0.40872 0.0
O1086 O 0.20874 0.7877 0.4267 0.0
O1087 O 0.14388 0.82064 0.43702 0.0
O1088 O 0.17346 0.81252 0.44348 0.0
C1089 C 0.20086 0.77412 0.41504 0.0
C1090 C 0.15849 0.82242 0.44891 0.0
O1091 O 0.14179 0.78605 0.39378 0.0
Mg1092 Mg 0.66464 0.69411 0.40111 0.0
O1093 O 0.67526 0.66499 0.38504 0.0
O1094 O 0.70298 0.65452 0.3973 0.0
Mg1095 Mg 0.71023 0.67818 0.42267 0.0
C1096 C 0.68892 0.65216 0.3852 0.0
C1097 C 0.62644 0.70468 0.3798 0.0
O1098 O 0.63022 0.72329 0.38724 0.0
O1099 O 0.65617 0.67332 0.42867 0.0
O1100 O 0.68486 0.66518 0.44028 0.0
O1101 O 0.68009 0.71469 0.3789 0.0
O1102 O 0.69239 0.70212 0.40795 0.0
C1103 C 0.66696 0.66364 0.4413 0.0
C1104 C 0.69454 0.71245 0.39086 0.0
O1105 O 0.637 0.6894 0.38434 0.0
Mg1106 Mg 0.29064 0.27763 0.39865 0.0
O1107 O 0.27807 0.30707 0.3847 0.0
O1108 O 0.24996 0.31384 0.39879 0.0
Mg1109 Mg 0.24437 0.28783 0.42225 0.0
C1110 C 0.26344 0.31848 0.38644 0.0
C1111 C 0.33034 0.27078 0.38035 0.0
O1112 O 0.32703 0.25242 0.38874 0.0
O1113 O 0.29792 0.29693 0.42737 0.0
O1114 O 0.26901 0.30184 0.44035 0.0
O1115 O 0.27615 0.25748 0.37517 0.0
O1116 O 0.26367 0.26716 0.40531 0.0
C1117 C 0.2868 0.30469 0.44098 0.0
C1118 C 0.26181 0.25796 0.38763 0.0
O1119 O 0.31833 0.28521 0.38285 0.0
Mg1120 Mg 0.54582 0.16952 0.7828 0.0
O1121 O 0.56609 0.18081 0.80779 0.0
O1122 O 0.55213 0.20773 0.82357 0.0
Mg1123 Mg 0.52712 0.21787 0.80369 0.0
C1124 C 0.56544 0.19447 0.82217 0.0
C1125 C 0.56478 0.12918 0.76767 0.0
O1126 O 0.55826 0.13518 0.7495 0.0
O1127 O 0.52555 0.15903 0.80764 0.0
O1128 O 0.50993 0.18883 0.81202 0.0
O1129 O 0.56158 0.18698 0.75862 0.0
O1130 O 0.53772 0.19974 0.77681 0.0
C1131 C 0.51102 0.16899 0.81349 0.0
C1132 C 0.55079 0.20262 0.76314 0.0
O1133 O 0.56002 0.13888 0.784 0.0
Mg1134 Mg 0.41262 0.81106 0.77211 0.0
O1135 O 0.38712 0.80686 0.79497 0.0
O1136 O 0.39486 0.77678 0.8108 0.0
Mg1137 Mg 0.42226 0.76278 0.80076 0.0
C1138 C 0.38373 0.79212 0.80806 0.0
C1139 C 0.39658 0.85982 0.76308 0.0
O1140 O 0.40077 0.87715 0.75315 0.0
O1141 O 0.43051 0.82168 0.79945 0.0
O1142 O 0.43712 0.79127 0.81459 0.0
O1143 O 0.39867 0.79214 0.74721 0.0
O1144 O 0.41684 0.77923 0.77174 0.0
C1145 C 0.43879 0.8111 0.81356 0.0
C1146 C 0.40627 0.77598 0.75587 0.0
O1147 O 0.40776 0.84452 0.76167 0.0
Mg1148 Mg 0.54378 0.81035 0.20193 0.0
O1149 O 0.56639 0.80503 0.17564 0.0
O1150 O 0.55762 0.77339 0.16412 0.0
Mg1151 Mg 0.53244 0.75911 0.18003 0.0
C1152 C 0.56864 0.78912 0.16365 0.0
C1153 C 0.55872 0.85985 0.20658 0.0
O1154 O 0.5538 0.87855 0.21294 0.0
O1155 O 0.522 0.81713 0.1771 0.0
O1156 O 0.51456 0.78519 0.16632 0.0
O1157 O 0.56218 0.79494 0.22593 0.0
O1158 O 0.5422 0.77852 0.20556 0.0
C1159 C 0.51236 0.80493 0.16567 0.0
C1160 C 0.5551 0.7775 0.2195 0.0
O1161 O 0.54668 0.8453 0.20737 0.0
Mg1162 Mg 0.40935 0.16345 0.20118 0.0
O1163 O 0.38814 0.16873 0.17326 0.0
O1164 O 0.39343 0.20212 0.16432 0.0
Mg1165 Mg 0.4195 0.21413 0.17833 0.0
C1166 C 0.38452 0.18505 0.16222 0.0
C1167 C 0.39397 0.1134 0.20625 0.0
O1168 O 0.39952 0.09506 0.213 0.0
O1169 O 0.43291 0.15687 0.17766 0.0
O1170 O 0.43374 0.18751 0.16138 0.0
O1171 O 0.39025 0.17989 0.2243 0.0
O1172 O 0.4117 0.19511 0.20475 0.0
C1173 C 0.4391 0.16864 0.16309 0.0
C1174 C 0.39846 0.1969 0.21826 0.0
O1175 O 0.40544 0.12855 0.20693 0.0
Mg1176 Mg 0.40081 0.28001 0.66737 0.0
O1177 O 0.38555 0.30929 0.67856 0.0
O1178 O 0.39727 0.31801 0.70965 0.0
Mg1179 Mg 0.41941 0.29398 0.71851 0.0
C1180 C 0.38614 0.32125 0.69443 0.0
C1181 C 0.38803 0.26855 0.62349 0.0
O1182 O 0.39778 0.25174 0.62791 0.0
O1183 O 0.42635 0.29922 0.65952 0.0
O1184 O 0.43866 0.30372 0.69117 0.0
O1185 O 0.37959 0.25973 0.68244 0.0
O1186 O 0.4054 0.27145 0.69792 0.0
C1187 C 0.4395 0.30554 0.67135 0.0
C1188 C 0.38968 0.26143 0.69907 0.0
O1189 O 0.38852 0.28406 0.63573 0.0
Mg1190 Mg 0.54631 0.69515 0.66343 0.0
O1191 O 0.56447 0.66851 0.67675 0.0
O1192 O 0.55271 0.65923 0.7078 0.0
Mg1193 Mg 0.52647 0.67897 0.71346 0.0
C1194 C 0.56475 0.65723 0.69317 0.0
C1195 C 0.56791 0.70837 0.62453 0.0
O1196 O 0.56234 0.72672 0.63122 0.0
O1197 O 0.52435 0.67161 0.65386 0.0
O1198 O 0.51207 0.66389 0.68503 0.0
O1199 O 0.56285 0.71942 0.6801 0.0
O1200 O 0.5376 0.70359 0.69302 0.0
C1201 C 0.51242 0.66194 0.66518 0.0
C1202 C 0.55121 0.71661 0.69539 0.0
O1203 O 0.56167 0.69203 0.63331 0.0
Mg1204 Mg 0.54471 0.27657 0.30836 0.0
O1205 O 0.56397 0.3039 0.29884 0.0
O1206 O 0.55178 0.31864 0.27038 0.0
Mg1207 Mg 0.52531 0.30111 0.26175 0.0
C1208 C 0.56439 0.31765 0.28441 0.0
C1209 C 0.56984 0.25886 0.34286 0.0
O1210 O 0.5713 0.24415 0.32873 0.0
O1211 O 0.52307 0.29906 0.32154 0.0
O1212 O 0.51142 0.3121 0.29206 0.0
O1213 O 0.56125 0.25546 0.28823 0.0
O1214 O 0.53635 0.27283 0.2773 0.0
C1215 C 0.5117 0.31103 0.31194 0.0
C1216 C 0.55023 0.26054 0.27307 0.0
O1217 O 0.5593 0.27447 0.33945 0.0
Mg1218 Mg 0.40306 0.69378 0.31224 0.0
O1219 O 0.3897 0.66636 0.29577 0.0
O1220 O 0.40362 0.65851 0.26567 0.0
Mg1221 Mg 0.42718 0.68281 0.26274 0.0
C1222 C 0.39107 0.65509 0.27952 0.0
C1223 C 0.38276 0.69483 0.35659 0.0
O1224 O 0.39504 0.70951 0.36101 0.0
O1225 O 0.42763 0.67333 0.32248 0.0
O1226 O 0.44158 0.66899 0.29148 0.0
O1227 O 0.38476 0.71613 0.29477 0.0
O1228 O 0.41249 0.7051 0.28349 0.0
C1229 C 0.44092 0.66606 0.31118 0.0
C1230 C 0.39743 0.71575 0.28026 0.0
O1231 O 0.3846 0.68483 0.33969 0.0
Mg1232 Mg 0.40306 0.77691 0.16804 0.0
O1233 O 0.38486 0.80435 0.17881 0.0
O1234 O 0.39847 0.81824 0.20696 0.0
Mg1235 Mg 0.42287 0.79716 0.21629 0.0
C1236 C 0.38579 0.81827 0.19296 0.0
C1237 C 0.38813 0.76243 0.12518 0.0
O1238 O 0.39693 0.74515 0.13016 0.0
O1239 O 0.42557 0.79919 0.15693 0.0
O1240 O 0.43882 0.80831 0.1871 0.0
O1241 O 0.38578 0.75442 0.18605 0.0
O1242 O 0.41075 0.77101 0.19848 0.0
C1243 C 0.43823 0.80875 0.16718 0.0
C1244 C 0.39679 0.7585 0.20153 0.0
O1245 O 0.38881 0.77806 0.13721 0.0
Mg1246 Mg 0.55154 0.19501 0.16375 0.0
O1247 O 0.56906 0.16786 0.17635 0.0
O1248 O 0.55597 0.15776 0.20646 0.0
Mg1249 Mg 0.53103 0.17907 0.21331 0.0
C1250 C 0.56836 0.15588 0.19219 0.0
C1251 C 0.56629 0.20766 0.12103 0.0
O1252 O 0.5564 0.22434 0.12561 0.0
O1253 O 0.52858 0.17285 0.15416 0.0
O1254 O 0.51485 0.16649 0.18491 0.0
O1255 O 0.56904 0.21817 0.1807 0.0
O1256 O 0.54291 0.20361 0.19307 0.0
C1257 C 0.5155 0.16468 0.16507 0.0
C1258 C 0.55689 0.21611 0.19563 0.0
O1259 O 0.5661 0.19211 0.13326 0.0
Mg1260 Mg 0.40173 0.1986 0.80406 0.0
O1261 O 0.38269 0.16977 0.79669 0.0
O1262 O 0.39118 0.16202 0.76399 0.0
Mg1263 Mg 0.41205 0.18503 0.75016 0.0
C1264 C 0.3817 0.15809 0.78047 0.0
C1265 C 0.39749 0.19448 0.8581 0.0
O1266 O 0.4126 0.19521 0.86983 0.0
O1267 O 0.42618 0.17689 0.8056 0.0
O1268 O 0.43413 0.17136 0.77247 0.0
O1269 O 0.37997 0.22171 0.79368 0.0
O1270 O 0.40135 0.20647 0.77366 0.0
C1271 C 0.43693 0.1688 0.79197 0.0
C1272 C 0.38713 0.21867 0.77535 0.0
O1273 O 0.39904 0.19597 0.83855 0.0
Mg1274 Mg 0.54317 0.77787 0.80807 0.0
O1275 O 0.56213 0.80446 0.79666 0.0
O1276 O 0.54887 0.81972 0.76901 0.0
Mg1277 Mg 0.52226 0.80113 0.76186 0.0
C1278 C 0.56196 0.8184 0.78247 0.0
C1279 C 0.56481 0.7608 0.8461 0.0
O1280 O 0.55837 0.74292 0.83915 0.0
O1281 O 0.52205 0.80086 0.82149 0.0
O1282 O 0.50913 0.81309 0.79234 0.0
O1283 O 0.55911 0.75574 0.78869 0.0
O1284 O 0.53411 0.77304 0.77745 0.0
C1285 C 0.51027 0.81256 0.81219 0.0
C1286 C 0.54795 0.76051 0.77354 0.0
O1287 O 0.55961 0.77772 0.83766 0.0
Mg1288 Mg 0.55071 0.66606 0.2784 0.0
O1289 O 0.56886 0.67903 0.30497 0.0
O1290 O 0.55727 0.71011 0.31439 0.0
Mg1291 Mg 0.53261 0.71742 0.2931 0.0
C1292 C 0.56919 0.69537 0.31638 0.0
C1293 C 0.56892 0.6261 0.26454 0.0
O1294 O 0.56373 0.63498 0.24703 0.0
O1295 O 0.52712 0.65833 0.30135 0.0
O1296 O 0.51626 0.69033 0.30813 0.0
O1297 O 0.56944 0.68136 0.2551 0.0
O1298 O 0.5444 0.69614 0.26967 0.0
C1299 C 0.51558 0.67054 0.31053 0.0
C1300 C 0.55903 0.69766 0.25785 0.0
O1301 O 0.56408 0.6345 0.28166 0.0
Mg1302 Mg 0.40436 0.30933 0.27709 0.0
O1303 O 0.38751 0.29614 0.30475 0.0
O1304 O 0.3994 0.2649 0.31282 0.0
Mg1305 Mg 0.42408 0.25858 0.29123 0.0
C1306 C 0.38766 0.27962 0.31596 0.0
C1307 C 0.38316 0.34745 0.26385 0.0
O1308 O 0.38529 0.33679 0.24654 0.0
O1309 O 0.42772 0.31798 0.29951 0.0
O1310 O 0.43898 0.28629 0.30683 0.0
O1311 O 0.38537 0.29298 0.25489 0.0
O1312 O 0.41138 0.27937 0.2682 0.0
C1313 C 0.43914 0.30611 0.30918 0.0
C1314 C 0.3964 0.27714 0.25722 0.0
O1315 O 0.39049 0.34066 0.28053 0.0
Mg1316 Mg 0.40522 0.66279 0.6967 0.0
O1317 O 0.38693 0.67503 0.66998 0.0
O1318 O 0.39882 0.70537 0.65901 0.0
Mg1319 Mg 0.42474 0.71232 0.6786 0.0
C1320 C 0.38656 0.69086 0.65788 0.0
C1321 C 0.38425 0.62518 0.71257 0.0
O1322 O 0.38713 0.63609 0.72957 0.0
O1323 O 0.4275 0.6526 0.67352 0.0
O1324 O 0.43921 0.68366 0.66432 0.0
O1325 O 0.38808 0.68075 0.7197 0.0
O1326 O 0.41377 0.6926 0.70387 0.0
C1327 C 0.43905 0.66375 0.66307 0.0
C1328 C 0.39988 0.69577 0.71635 0.0
O1329 O 0.39072 0.63177 0.69534 0.0
Mg1330 Mg 0.54677 0.31172 0.70076 0.0
O1331 O 0.57163 0.31317 0.67699 0.0
O1332 O 0.56927 0.28158 0.66195 0.0
Mg1333 Mg 0.54763 0.25997 0.67585 0.0
C1334 C 0.57679 0.29958 0.66347 0.0
C1335 C 0.55449 0.36212 0.70773 0.0
O1336 O 0.54775 0.37993 0.71455 0.0
O1337 O 0.52555 0.31475 0.67448 0.0
O1338 O 0.52447 0.28148 0.66463 0.0
O1339 O 0.56399 0.29828 0.72687 0.0
O1340 O 0.54974 0.28006 0.70261 0.0
C1341 C 0.51786 0.29996 0.66425 0.0
C1342 C 0.55946 0.28028 0.7193 0.0
O1343 O 0.54424 0.346 0.70895 0.0
C1344 C 0.06226 0.23803 0.21963 0.0
C1345 C 0.05823 0.25697 0.22964 0.0
C1346 C 0.06041 0.21898 0.23034 0.0
C1347 C 0.05389 0.21833 0.25113 0.0
H1348 H 0.06644 0.23793 0.20337 0.0
H1349 H 0.0633 0.20465 0.222 0.0
S1350 S 0.04225 0.26416 0.28411 0.0
N1351 N 0.04804 0.27421 0.26131 0.0
N1352 N 0.04492 0.23875 0.28146 0.0
C1353 C 0.05051 0.23737 0.26132 0.0
C1354 C 0.05258 0.25663 0.25054 0.0
C1355 C 0.72383 0.08935 0.21636 0.0
C1356 C 0.7067 0.09077 0.22728 0.0
C1357 C 0.74101 0.09207 0.22663 0.0
C1358 C 0.74146 0.09596 0.24813 0.0
H1359 H 0.724 0.08518 0.20003 0.0
H1360 H 0.75397 0.08944 0.21807 0.0
S1361 S 0.70058 0.10362 0.28317 0.0
N1362 N 0.69119 0.09868 0.26017 0.0
N1363 N 0.72362 0.10309 0.27962 0.0
C1364 C 0.72449 0.09895 0.25888 0.0
C1365 C 0.707 0.0966 0.24836 0.0
C1366 C 0.88863 0.73433 0.22163 0.0
C1367 C 0.89338 0.71553 0.23149 0.0
C1368 C 0.89122 0.75347 0.23185 0.0
C1369 C 0.89935 0.75437 0.25185 0.0
H1370 H 0.88328 0.73424 0.20584 0.0
H1371 H 0.88763 0.7677 0.22365 0.0
S1372 S 0.91391 0.70896 0.284 0.0
N1373 N 0.90595 0.69862 0.26224 0.0
N1374 N 0.91131 0.73437 0.28116 0.0
C1375 C 0.90376 0.73548 0.26185 0.0
C1376 C 0.90064 0.71609 0.25172 0.0
C1377 C 0.22886 0.88446 0.21599 0.0
C1378 C 0.24608 0.88427 0.22668 0.0
C1379 C 0.21175 0.88443 0.22689 0.0
C1380 C 0.21147 0.88472 0.24875 0.0
H1381 H 0.22864 0.88572 0.19916 0.0
H1382 H 0.19876 0.88576 0.2182 0.0
S1383 S 0.2526 0.88138 0.28383 0.0
N1384 N 0.26181 0.88181 0.26013 0.0
N1385 N 0.22954 0.88236 0.28067 0.0
C1386 C 0.2285 0.88296 0.25956 0.0
C1387 C 0.24591 0.88252 0.24846 0.0
C1388 C 0.06186 0.72517 0.72424 0.0
C1389 C 0.06112 0.72321 0.74605 0.0
C1390 C 0.06142 0.74479 0.7147 0.0
C1391 C 0.06073 0.76309 0.72664 0.0
H1392 H 0.06149 0.71145 0.7144 0.0
H1393 H 0.06092 0.74561 0.69786 0.0
S1394 S 0.06205 0.76653 0.78423 0.0
N1395 N 0.06198 0.74122 0.77934 0.0
N1396 N 0.06167 0.77829 0.76128 0.0
C1397 C 0.06167 0.76147 0.74842 0.0
C1398 C 0.06171 0.74142 0.75819 0.0
C1399 C 0.24136 0.0911 0.72847 0.0
C1400 C 0.24058 0.0865 0.7499 0.0
C1401 C 0.22486 0.09218 0.71654 0.0
C1402 C 0.20712 0.08929 0.72584 0.0
H1403 H 0.25483 0.09255 0.72063 0.0
H1404 H 0.22601 0.09445 0.69986 0.0
S1405 S 0.19731 0.07973 0.78173 0.0
N1406 N 0.22049 0.08124 0.7802 0.0
N1407 N 0.18954 0.08331 0.75777 0.0
C1408 C 0.20608 0.08612 0.74741 0.0
C1409 C 0.22283 0.08473 0.75949 0.0
C1410 C 0.89787 0.22034 0.74644 0.0
C1411 C 0.89374 0.21993 0.72512 0.0
C1412 C 0.89932 0.23929 0.75702 0.0
C1413 C 0.8964 0.2583 0.74661 0.0
H1414 H 0.90092 0.20599 0.75473 0.0
H1415 H 0.90306 0.23904 0.77333 0.0
S1416 S 0.88299 0.26499 0.69119 0.0
N1417 N 0.88534 0.23952 0.69419 0.0
N1418 N 0.88747 0.2754 0.71421 0.0
C1419 C 0.89099 0.25793 0.72556 0.0
C1420 C 0.88989 0.23861 0.71472 0.0
C1421 C 0.72157 0.90837 0.74795 0.0
C1422 C 0.7116 0.88965 0.75116 0.0
C1423 C 0.73829 0.90886 0.73659 0.0
C1424 C 0.74608 0.89062 0.72816 0.0
H1425 H 0.71616 0.92307 0.75375 0.0
H1426 H 0.74515 0.9238 0.73426 0.0
S1427 S 0.72636 0.83725 0.73274 0.0
N1428 N 0.71109 0.85211 0.74535 0.0
N1429 N 0.74316 0.85305 0.72427 0.0
C1430 C 0.73678 0.87157 0.73172 0.0
C1431 C 0.71935 0.87109 0.74308 0.0
C1432 C 0.22391 0.07478 0.22488 0.0
C1433 C 0.24127 0.06449 0.22352 0.0
C1434 C 0.21317 0.07391 0.24327 0.0
C1435 C 0.21922 0.06222 0.26066 0.0
H1436 H 0.2183 0.08287 0.21144 0.0
H1437 H 0.19958 0.08157 0.2434 0.0
S1438 S 0.26408 0.03249 0.26427 0.0
N1439 N 0.26441 0.04281 0.24071 0.0
N1440 N 0.24433 0.04066 0.27514 0.0
C1441 C 0.23705 0.05254 0.25955 0.0
C1442 C 0.24801 0.05374 0.24097 0.0
C1443 C 0.88523 0.24298 0.22368 0.0
C1444 C 0.90068 0.24253 0.21005 0.0
C1445 C 0.88587 0.23233 0.2428 0.0
C1446 C 0.90191 0.22079 0.24873 0.0
H1447 H 0.873 0.25233 0.21998 0.0
H1448 H 0.87391 0.23368 0.25324 0.0
S1449 S 0.94526 0.2135 0.21693 0.0
N1450 N 0.93176 0.22876 0.20265 0.0
N1451 N 0.93312 0.20874 0.23841 0.0
C1452 C 0.91706 0.21955 0.23457 0.0
C1453 C 0.9164 0.23047 0.21526 0.0
C1454 C 0.70329 0.90961 0.24098 0.0
C1455 C 0.71089 0.90207 0.22225 0.0
C1456 C 0.71406 0.9101 0.25916 0.0
C1457 C 0.73282 0.90295 0.25926 0.0
H1458 H 0.68945 0.91671 0.24122 0.0
H1459 H 0.708 0.91746 0.27281 0.0
S1460 S 0.75727 0.87682 0.2151 0.0
N1461 N 0.73682 0.88417 0.20538 0.0
N1462 N 0.75707 0.88426 0.23975 0.0
C1463 C 0.73974 0.89312 0.2411 0.0
C1464 C 0.7288 0.893 0.22248 0.0
C1465 C 0.06047 0.72053 0.2311 0.0
C1466 C 0.0548 0.72986 0.21242 0.0
C1467 C 0.0604 0.7319 0.24968 0.0
C1468 C 0.05414 0.75275 0.25021 0.0
H1469 H 0.0645 0.70422 0.23142 0.0
H1470 H 0.06443 0.72397 0.2639 0.0
S1471 S 0.03891 0.78428 0.20479 0.0
N1472 N 0.04376 0.76109 0.19496 0.0
N1473 N 0.04334 0.78252 0.22997 0.0
C1474 C 0.04902 0.76237 0.23138 0.0
C1475 C 0.04943 0.75087 0.21241 0.0
C1476 C 0.21989 0.89283 0.73083 0.0
C1477 C 0.22659 0.90286 0.71263 0.0
C1478 C 0.23008 0.89351 0.74946 0.0
C1479 C 0.24756 0.9036 0.75029 0.0
H1480 H 0.20605 0.88572 0.73119 0.0
H1481 H 0.22386 0.88704 0.76349 0.0
S1482 S 0.27254 0.93017 0.70704 0.0
N1483 N 0.2528 0.92165 0.69655 0.0
N1484 N 0.27193 0.92239 0.73155 0.0
C1485 C 0.2552 0.91208 0.73199 0.0
C1486 C 0.24476 0.91173 0.71309 0.0
C1487 C 0.07027 0.22185 0.73158 0.0
C1488 C 0.06734 0.23415 0.71376 0.0
C1489 C 0.06883 0.23045 0.75154 0.0
C1490 C 0.06396 0.25151 0.75426 0.0
H1491 H 0.07228 0.20515 0.73011 0.0
H1492 H 0.06997 0.22014 0.76487 0.0
S1493 S 0.05844 0.29106 0.7125 0.0
N1494 N 0.06217 0.26895 0.69992 0.0
N1495 N 0.05932 0.28518 0.73755 0.0
C1496 C 0.06284 0.26439 0.73656 0.0
C1497 C 0.06463 0.25567 0.71621 0.0
C1498 C 0.74717 0.06505 0.73899 0.0
C1499 C 0.73914 0.0672 0.7191 0.0
C1500 C 0.73587 0.0648 0.75691 0.0
C1501 C 0.71621 0.06702 0.75559 0.0
H1502 H 0.76206 0.06184 0.74064 0.0
H1503 H 0.7425 0.0616 0.77175 0.0
S1504 S 0.68918 0.07872 0.70746 0.0
N1505 N 0.71105 0.07543 0.69932 0.0
N1506 N 0.68975 0.07557 0.73299 0.0
C1507 C 0.70837 0.07182 0.73598 0.0
C1508 C 0.71987 0.0717 0.71771 0.0
C1509 C 0.88702 0.75333 0.73468 0.0
C1510 C 0.89654 0.74599 0.717 0.0
C1511 C 0.88776 0.74222 0.75354 0.0
C1512 C 0.8982 0.72355 0.75529 0.0
H1513 H 0.87948 0.76801 0.73409 0.0
H1514 H 0.88071 0.74878 0.76701 0.0
S1515 S 0.9246 0.69765 0.71235 0.0
N1516 N 0.91563 0.71879 0.70158 0.0
N1517 N 0.91752 0.69806 0.73687 0.0
C1518 C 0.90715 0.71582 0.73724 0.0
C1519 C 0.90622 0.72705 0.71812 0.0
C1520 C 0.20956 0.22644 0.07866 0.0
C1521 C 0.20832 0.2449 0.09021 0.0
C1522 C 0.22616 0.21485 0.07814 0.0
C1523 C 0.24228 0.22131 0.08902 0.0
H1524 H 0.19779 0.22135 0.06923 0.0
H1525 H 0.22635 0.20107 0.06857 0.0
S1526 S 0.24584 0.26835 0.12248 0.0
N1527 N 0.22405 0.26894 0.11356 0.0
N1528 N 0.25556 0.24707 0.11267 0.0
C1529 C 0.24092 0.2393 0.10155 0.0
C1530 C 0.22386 0.25117 0.10206 0.0
C1531 C 0.2294 0.71663 0.88399 0.0
C1532 C 0.2121 0.72583 0.87875 0.0
C1533 C 0.2462 0.72806 0.883 0.0
C1534 C 0.24624 0.749 0.87662 0.0
H1535 H 0.22991 0.70076 0.88968 0.0
H1536 H 0.25907 0.72084 0.88845 0.0
S1537 S 0.20507 0.7798 0.8594 0.0
N1538 N 0.19625 0.75669 0.86544 0.0
N1539 N 0.22797 0.77809 0.86348 0.0
C1540 C 0.2293 0.75798 0.86998 0.0
C1541 C 0.21216 0.74635 0.87097 0.0
C1542 C 0.23491 0.2578 0.91415 0.0
C1543 C 0.21972 0.26239 0.90091 0.0
C1544 C 0.24492 0.23928 0.91212 0.0
C1545 C 0.24026 0.22468 0.89675 0.0
H1546 H 0.23831 0.26779 0.92721 0.0
H1547 H 0.25557 0.23569 0.92363 0.0
S1548 S 0.20496 0.23118 0.85505 0.0
N1549 N 0.20276 0.25241 0.86949 0.0
N1550 N 0.22169 0.21706 0.86603 0.0
C1551 C 0.22636 0.22968 0.88218 0.0
C1552 C 0.21611 0.24876 0.88414 0.0
C1553 C 0.72932 0.21517 0.88162 0.0
C1554 C 0.71199 0.22531 0.8785 0.0
C1555 C 0.74632 0.22625 0.88099 0.0
C1556 C 0.74646 0.24783 0.8774 0.0
H1557 H 0.72974 0.19878 0.8855 0.0
H1558 H 0.75923 0.21819 0.88493 0.0
S1559 S 0.70539 0.28107 0.86512 0.0
N1560 N 0.69631 0.25764 0.86909 0.0
N1561 N 0.72835 0.27853 0.8682 0.0
C1562 C 0.72949 0.25782 0.87254 0.0
C1563 C 0.71218 0.2465 0.87292 0.0
C1564 C 0.74638 0.73918 0.90522 0.0
C1565 C 0.73882 0.71888 0.9056 0.0
C1566 C 0.7347 0.75676 0.90663 0.0
C1567 C 0.71502 0.75471 0.90798 0.0
H1568 H 0.76149 0.74152 0.90544 0.0
H1569 H 0.74119 0.77203 0.90761 0.0
S1570 S 0.68809 0.70501 0.90586 0.0
N1571 N 0.71038 0.69777 0.9049 0.0
N1572 N 0.68838 0.73075 0.90697 0.0
C1573 C 0.70721 0.73455 0.90636 0.0
C1574 C 0.71913 0.71664 0.90533 0.0
C1575 C 0.72011 0.74342 0.09843 0.0
C1576 C 0.7104 0.74905 0.08017 0.0
C1577 C 0.73751 0.73282 0.09731 0.0
C1578 C 0.7455 0.72734 0.07792 0.0
H1579 H 0.71445 0.74755 0.11356 0.0
H1580 H 0.74465 0.72878 0.11164 0.0
S1581 S 0.72533 0.73814 0.02566 0.0
N1582 N 0.70981 0.74762 0.04226 0.0
N1583 N 0.74236 0.72863 0.04019 0.0
C1584 C 0.73576 0.73281 0.05969 0.0
C1585 C 0.71824 0.74338 0.06081 0.0
C1586 C 0.22064 0.75194 0.08069 0.0
C1587 C 0.24029 0.7521 0.07811 0.0
C1588 C 0.21038 0.73341 0.07886 0.0
C1589 C 0.21939 0.71445 0.07401 0.0
H1590 H 0.213 0.76647 0.08237 0.0
H1591 H 0.19516 0.7344 0.07935 0.0
S1592 S 0.27095 0.70583 0.07087 0.0
N1593 N 0.2687 0.7312 0.07456 0.0
N1594 N 0.24933 0.69634 0.07071 0.0
C1595 C 0.23918 0.71402 0.07393 0.0
C1596 C 0.24967 0.73288 0.07617 0.0
C1597 C 0.73477 0.24692 0.08543 0.0
C1598 C 0.73499 0.25736 0.06607 0.0
C1599 C 0.72546 0.22759 0.08771 0.0
C1600 C 0.71661 0.21829 0.07052 0.0
H1601 H 0.74201 0.25357 0.09868 0.0
H1602 H 0.72568 0.21967 0.10262 0.0
S1603 S 0.71411 0.23872 0.01656 0.0
N1604 N 0.72591 0.25661 0.02958 0.0
N1605 N 0.70877 0.22055 0.03382 0.0
C1606 C 0.71667 0.2287 0.0513 0.0
C1607 C 0.7258 0.2482 0.04907 0.0
C1608 C 0.7259 0.59131 0.71374 0.0
C1609 C 0.70862 0.59265 0.72439 0.0
C1610 C 0.74296 0.59104 0.72465 0.0
C1611 C 0.74312 0.59153 0.74652 0.0
H1612 H 0.72619 0.58947 0.69697 0.0
H1613 H 0.75596 0.5889 0.71603 0.0
S1614 S 0.70183 0.59733 0.78145 0.0
N1615 N 0.69278 0.59654 0.75778 0.0
N1616 N 0.72487 0.59552 0.77832 0.0
C1617 C 0.72605 0.59425 0.75723 0.0
C1618 C 0.70873 0.59498 0.74612 0.0
C1619 C 0.20791 0.38023 0.73054 0.0
C1620 C 0.20864 0.38475 0.75195 0.0
C1621 C 0.22442 0.37968 0.71845 0.0
C1622 C 0.24209 0.38291 0.72763 0.0
H1623 H 0.19446 0.37848 0.72284 0.0
H1624 H 0.22332 0.37758 0.70175 0.0
S1625 S 0.25165 0.39291 0.7834 0.0
N1626 N 0.22851 0.39085 0.78206 0.0
N1627 N 0.25954 0.38929 0.75943 0.0
C1628 C 0.24308 0.38598 0.74922 0.0
C1629 C 0.2263 0.38703 0.7614 0.0
C1630 C 0.23015 0.58674 0.21134 0.0
C1631 C 0.21337 0.59396 0.22049 0.0
C1632 C 0.24727 0.58777 0.22204 0.0
C1633 C 0.24816 0.59603 0.24224 0.0
H1634 H 0.22998 0.57953 0.19612 0.0
H1635 H 0.25966 0.58084 0.21499 0.0
S1636 S 0.20868 0.61851 0.27256 0.0
N1637 N 0.19901 0.61112 0.25037 0.0
N1638 N 0.23126 0.61264 0.27062 0.0
C1639 C 0.23178 0.60439 0.25114 0.0
C1640 C 0.21434 0.60357 0.24015 0.0
C1641 C 0.74393 0.37909 0.24154 0.0
C1642 C 0.74371 0.38767 0.22131 0.0
C1643 C 0.7274 0.37785 0.25355 0.0
C1644 C 0.71016 0.38463 0.24541 0.0
H1645 H 0.75712 0.3745 0.24859 0.0
H1646 H 0.72822 0.37238 0.2695 0.0
S1647 S 0.70143 0.40568 0.19265 0.0
N1648 N 0.72428 0.40106 0.1932 0.0
N1649 N 0.69336 0.39864 0.21577 0.0
C1650 C 0.70951 0.39195 0.2249 0.0
C1651 C 0.72628 0.39347 0.21279 0.0
C1652 C 0.21797 0.57508 0.72007 0.0
C1653 C 0.23643 0.56732 0.71963 0.0
C1654 C 0.20744 0.57509 0.73865 0.0
C1655 C 0.21483 0.56673 0.75726 0.0
H1656 H 0.21142 0.58048 0.70583 0.0
H1657 H 0.19302 0.58049 0.73804 0.0
S1658 S 0.26307 0.54526 0.76405 0.0
N1659 N 0.2621 0.55207 0.73928 0.0
N1660 N 0.24244 0.55168 0.77406 0.0
C1661 C 0.23372 0.55989 0.7571 0.0
C1662 C 0.24446 0.56023 0.73829 0.0
C1663 C 0.73069 0.39941 0.71894 0.0
C1664 C 0.71112 0.40232 0.71943 0.0
C1665 C 0.74156 0.40235 0.73682 0.0
C1666 C 0.73329 0.40881 0.75576 0.0
H1667 H 0.73779 0.39624 0.7043 0.0
H1668 H 0.7567 0.40098 0.73529 0.0
S1669 S 0.68209 0.41543 0.76571 0.0
N1670 N 0.68354 0.40934 0.74077 0.0
N1671 N 0.70392 0.41521 0.77444 0.0
C1672 C 0.7135 0.40989 0.75686 0.0
C1673 C 0.70241 0.40654 0.73866 0.0
C1674 C 0.22143 0.38667 0.22435 0.0
C1675 C 0.21586 0.40562 0.21511 0.0
C1676 C 0.2303 0.38653 0.24401 0.0
C1677 C 0.23305 0.40525 0.25506 0.0
H1678 H 0.21911 0.37206 0.2163 0.0
H1679 H 0.23477 0.37182 0.25068 0.0
S1680 S 0.22042 0.45869 0.23763 0.0
N1681 N 0.21353 0.4433 0.21856 0.0
N1682 N 0.22969 0.44302 0.25521 0.0
C1683 C 0.22731 0.42411 0.24592 0.0
C1684 C 0.21879 0.42429 0.22602 0.0
C1685 C 0.74484 0.5584 0.23791 0.0
C1686 C 0.74107 0.5756 0.22504 0.0
C1687 C 0.7348 0.55516 0.25635 0.0
C1688 C 0.72044 0.56893 0.2625 0.0
H1689 H 0.75482 0.54658 0.23298 0.0
H1690 H 0.73743 0.54094 0.26501 0.0
S1691 S 0.70773 0.6185 0.23608 0.0
N1692 N 0.72395 0.60804 0.22078 0.0
N1693 N 0.70491 0.60213 0.2558 0.0
C1694 C 0.71757 0.58715 0.25058 0.0
C1695 C 0.72792 0.59043 0.23169 0.0
C1696 C 0.22161 0.75562 0.59279 0.0
C1697 C 0.20457 0.74453 0.59184 0.0
C1698 C 0.23884 0.74509 0.59402 0.0
C1699 C 0.23947 0.7232 0.59384 0.0
H1700 H 0.22167 0.77248 0.59155 0.0
H1701 H 0.25176 0.75408 0.5935 0.0
S1702 S 0.19879 0.68709 0.59357 0.0
N1703 N 0.18927 0.71061 0.59284 0.0
N1704 N 0.2218 0.6908 0.59436 0.0
C1705 C 0.22254 0.71198 0.59421 0.0
C1706 C 0.20498 0.72269 0.59347 0.0
C1707 C 0.22598 0.21538 0.3815 0.0
C1708 C 0.20897 0.2265 0.38235 0.0
C1709 C 0.24328 0.2259 0.38119 0.0
C1710 C 0.24397 0.24777 0.38234 0.0
H1711 H 0.2259 0.19848 0.3821 0.0
H1712 H 0.25615 0.21686 0.38166 0.0
S1713 S 0.20332 0.28392 0.38274 0.0
N1714 N 0.19375 0.26041 0.38237 0.0
N1715 N 0.22632 0.2802 0.3824 0.0
C1716 C 0.22705 0.25903 0.38188 0.0
C1717 C 0.20947 0.24835 0.38171 0.0
C1718 C 0.22291 0.74892 0.39825 0.0
C1719 C 0.20959 0.75352 0.41366 0.0
C1720 C 0.23259 0.72988 0.39857 0.0
C1721 C 0.22944 0.71499 0.41452 0.0
H1722 H 0.22626 0.76031 0.3863 0.0
H1723 H 0.24326 0.72728 0.38675 0.0
S1724 S 0.19459 0.71978 0.45757 0.0
N1725 N 0.19259 0.74175 0.44433 0.0
N1726 N 0.21085 0.70604 0.4453 0.0
C1727 C 0.21531 0.71919 0.42938 0.0
C1728 C 0.20544 0.73851 0.42891 0.0
C1729 C 0.72946 0.7556 0.38127 0.0
C1730 C 0.74672 0.74557 0.3847 0.0
C1731 C 0.71257 0.74428 0.38158 0.0
C1732 C 0.71251 0.72279 0.38598 0.0
H1733 H 0.72896 0.77238 0.37928 0.0
H1734 H 0.69943 0.75265 0.37984 0.0
S1735 S 0.75434 0.68917 0.39371 0.0
N1736 N 0.76306 0.7129 0.39071 0.0
N1737 N 0.7313 0.69159 0.39142 0.0
C1738 C 0.72981 0.71245 0.38812 0.0
C1739 C 0.74698 0.7239 0.38746 0.0
C1740 C 0.73391 0.25528 0.40594 0.0
C1741 C 0.71416 0.25405 0.40698 0.0
C1742 C 0.74499 0.23725 0.40602 0.0
C1743 C 0.73672 0.21735 0.40753 0.0
H1744 H 0.74091 0.2703 0.4063 0.0
H1745 H 0.76014 0.23907 0.40658 0.0
S1746 S 0.68562 0.20547 0.4062 0.0
N1747 N 0.68674 0.23121 0.40603 0.0
N1748 N 0.70766 0.1973 0.4066 0.0
C1749 C 0.717 0.21581 0.40647 0.0
C1750 C 0.70569 0.23419 0.40604 0.0
C1751 C 0.72347 0.21456 0.58746 0.0
C1752 C 0.74064 0.22489 0.5909 0.0
C1753 C 0.70643 0.22553 0.58773 0.0
C1754 C 0.70618 0.24713 0.59122 0.0
H1755 H 0.72327 0.19814 0.58357 0.0
H1756 H 0.69359 0.21739 0.58365 0.0
S1757 S 0.74694 0.28086 0.60355 0.0
N1758 N 0.75613 0.25743 0.6001 0.0
N1759 N 0.72403 0.27808 0.60026 0.0
C1760 C 0.72302 0.2573 0.59627 0.0
C1761 C 0.74033 0.24611 0.59627 0.0
C1762 C 0.22888 0.22385 0.57261 0.0
C1763 C 0.2112 0.22314 0.56303 0.0
C1764 C 0.24007 0.24186 0.57136 0.0
C1765 C 0.23414 0.25952 0.55996 0.0
H1766 H 0.23436 0.21018 0.58046 0.0
H1767 H 0.25385 0.24151 0.57852 0.0
S1768 S 0.18859 0.26482 0.532 0.0
N1769 N 0.18792 0.24123 0.54229 0.0
N1770 N 0.20885 0.27496 0.53941 0.0
C1771 C 0.21605 0.25907 0.55096 0.0
C1772 C 0.20462 0.24086 0.55257 0.0
C1773 C 0.74001 0.74053 0.54054 0.0
C1774 C 0.73926 0.75347 0.55813 0.0
C1775 C 0.73094 0.72119 0.54038 0.0
C1776 C 0.72052 0.71425 0.55771 0.0
H1777 H 0.74744 0.74558 0.52663 0.0
H1778 H 0.73133 0.7121 0.52615 0.0
S1779 S 0.71576 0.74166 0.60836 0.0
N1780 N 0.72873 0.75757 0.59393 0.0
N1781 N 0.71103 0.72126 0.59352 0.0
C1782 C 0.72019 0.72679 0.57573 0.0
C1783 C 0.72975 0.74642 0.57598 0.0
C1784 C 0.5701 0.22724 0.74162 0.0
C1785 C 0.55355 0.2231 0.75313 0.0
C1786 C 0.57263 0.24635 0.73129 0.0
C1787 C 0.55878 0.26181 0.73248 0.0
H1788 H 0.58105 0.21555 0.74031 0.0
H1789 H 0.58519 0.24883 0.72197 0.0
S1790 S 0.51232 0.25829 0.75864 0.0
N1791 N 0.5226 0.23578 0.76366 0.0
N1792 N 0.52771 0.27173 0.74472 0.0
C1793 C 0.54221 0.25791 0.74375 0.0
C1794 C 0.53951 0.23852 0.75402 0.0
C1795 C 0.38732 0.73142 0.72303 0.0
C1796 C 0.39933 0.71498 0.72849 0.0
C1797 C 0.38922 0.75105 0.7325 0.0
C1798 C 0.40321 0.7547 0.74761 0.0
H1799 H 0.37697 0.72934 0.71085 0.0
H1800 H 0.38002 0.76355 0.72754 0.0
S1801 S 0.4377 0.71579 0.76723 0.0
N1802 N 0.42494 0.70289 0.75011 0.0
N1803 N 0.42909 0.73969 0.76749 0.0
C1804 C 0.41491 0.73796 0.75345 0.0
C1805 C 0.41282 0.71809 0.74395 0.0
C1806 C 0.55809 0.71917 0.22615 0.0
C1807 C 0.56305 0.71725 0.24713 0.0
C1808 C 0.55709 0.73881 0.21677 0.0
C1809 C 0.56086 0.75711 0.22814 0.0
H1810 H 0.55379 0.70557 0.21733 0.0
H1811 H 0.55253 0.73959 0.20078 0.0
S1812 S 0.57868 0.7594 0.28238 0.0
N1813 N 0.57485 0.73433 0.27812 0.0
N1814 N 0.57298 0.77153 0.26055 0.0
C1815 C 0.56782 0.75507 0.24854 0.0
C1816 C 0.56878 0.735 0.25809 0.0
C1817 C 0.40046 0.25521 0.22637 0.0
C1818 C 0.39295 0.25756 0.24634 0.0
C1819 C 0.40078 0.23571 0.21684 0.0
C1820 C 0.39384 0.21773 0.22695 0.0
H1821 H 0.40695 0.26834 0.21845 0.0
H1822 H 0.40726 0.23494 0.20177 0.0
S1823 S 0.36993 0.21688 0.27849 0.0
N1824 N 0.37634 0.24147 0.27526 0.0
N1825 N 0.37697 0.20438 0.25732 0.0
C1826 C 0.38488 0.22032 0.24639 0.0
C1827 C 0.38455 0.24036 0.25615 0.0
C1828 C 0.38409 0.25187 0.75652 0.0
C1829 C 0.38096 0.23025 0.75704 0.0
C1830 C 0.38575 0.26234 0.73746 0.0
C1831 C 0.38385 0.25151 0.71858 0.0
H1832 H 0.38713 0.2603 0.77074 0.0
H1833 H 0.38952 0.27873 0.73747 0.0
S1834 S 0.37278 0.1954 0.71205 0.0
N1835 N 0.37399 0.19881 0.73752 0.0
N1836 N 0.3766 0.2186 0.70157 0.0
C1837 C 0.37883 0.23034 0.71902 0.0
C1838 C 0.37749 0.21964 0.73838 0.0
C1839 C 0.55689 0.71853 0.73343 0.0
C1840 C 0.55274 0.72864 0.71464 0.0
C1841 C 0.55605 0.72937 0.75234 0.0
C1842 C 0.55046 0.75045 0.75306 0.0
H1843 H 0.56044 0.70209 0.73353 0.0
H1844 H 0.55903 0.72093 0.7666 0.0
S1845 S 0.53942 0.78402 0.70763 0.0
N1846 N 0.54402 0.76092 0.69743 0.0
N1847 N 0.54207 0.78128 0.73305 0.0
C1848 C 0.54686 0.76082 0.73421 0.0
C1849 C 0.5481 0.74988 0.71494 0.0
C1850 C 0.57001 0.22649 0.22994 0.0
C1851 C 0.55716 0.22974 0.2138 0.0
C1852 C 0.56811 0.23734 0.24879 0.0
C1853 C 0.55327 0.25165 0.25202 0.0
H1854 H 0.581 0.21489 0.22834 0.0
H1855 H 0.57794 0.23382 0.26116 0.0
S1856 S 0.51738 0.26691 0.21286 0.0
N1857 N 0.53042 0.24925 0.20096 0.0
N1858 N 0.52643 0.26935 0.23638 0.0
C1859 C 0.54097 0.25567 0.23534 0.0
C1860 C 0.54303 0.24473 0.2162 0.0
C1861 C 0.39782 0.72616 0.22241 0.0
C1862 C 0.39449 0.74771 0.22146 0.0
C1863 C 0.3981 0.71573 0.24158 0.0
C1864 C 0.39462 0.72647 0.26026 0.0
H1865 H 0.40099 0.71749 0.20834 0.0
H1866 H 0.40131 0.69922 0.24179 0.0
S1867 S 0.38337 0.78269 0.26562 0.0
N1868 N 0.38664 0.77931 0.24033 0.0
N1869 N 0.38644 0.75954 0.27649 0.0
C1870 C 0.39022 0.74782 0.25935 0.0
C1871 C 0.3904 0.75854 0.23986 0.0
C1872 C 0.09672 0.11693 0.27644 0.0
C1873 C 0.08097 0.1103 0.26506 0.0
C1874 C 0.1132 0.10515 0.27692 0.0
C1875 C 0.11452 0.08599 0.26636 0.0
H1876 H 0.09635 0.13145 0.28508 0.0
H1877 H 0.12476 0.11085 0.2863 0.0
S1878 S 0.07744 0.06229 0.23322 0.0
N1879 N 0.06788 0.08412 0.24193 0.0
N1880 N 0.09883 0.06142 0.2432 0.0
C1881 C 0.09902 0.07944 0.25433 0.0
C1882 C 0.08225 0.09173 0.25358 0.0
C1883 C 0.85222 0.12016 0.25614 0.0
C1884 C 0.84393 0.1104 0.27357 0.0
C1885 C 0.86743 0.13386 0.25835 0.0
C1886 C 0.87484 0.13843 0.27809 0.0
H1887 H 0.84661 0.11769 0.24066 0.0
H1888 H 0.87307 0.14142 0.24456 0.0
S1889 S 0.85998 0.11507 0.3284 0.0
N1890 N 0.84554 0.10479 0.31109 0.0
N1891 N 0.87398 0.13091 0.31518 0.0
C1892 C 0.86718 0.12829 0.29558 0.0
C1893 C 0.85179 0.11415 0.29334 0.0
C1894 C 0.86806 0.87661 0.2533 0.0
C1895 C 0.87151 0.86036 0.26746 0.0
C1896 C 0.85161 0.88862 0.25482 0.0
C1897 C 0.83791 0.88434 0.27017 0.0
H1898 H 0.87822 0.88022 0.24119 0.0
H1899 H 0.84962 0.90131 0.24389 0.0
S1900 S 0.83996 0.8424 0.31017 0.0
N1901 N 0.85974 0.84004 0.29683 0.0
N1902 N 0.82877 0.86222 0.29945 0.0
C1903 C 0.84107 0.86773 0.28409 0.0
C1904 C 0.85791 0.85585 0.2828 0.0
C1905 C 0.10199 0.8639 0.28966 0.0
C1906 C 0.11455 0.86139 0.27279 0.0
C1907 C 0.08677 0.85022 0.29256 0.0
C1908 C 0.08369 0.8337 0.27867 0.0
H1909 H 0.10381 0.87661 0.30057 0.0
H1910 H 0.07721 0.85275 0.30551 0.0
S1911 S 0.11335 0.81878 0.23358 0.0
N1912 N 0.1235 0.83993 0.24301 0.0
N1913 N 0.09478 0.81449 0.24853 0.0
C1914 C 0.09629 0.83064 0.26215 0.0
C1915 C 0.11177 0.84445 0.25917 0.0
C1916 C 0.09017 0.88742 0.70113 0.0
C1917 C 0.08805 0.86658 0.69475 0.0
C1918 C 0.10798 0.89542 0.70621 0.0
C1919 C 0.12406 0.88271 0.70522 0.0
H1920 H 0.07788 0.89715 0.70346 0.0
H1921 H 0.10893 0.911 0.71266 0.0
S1922 S 0.12627 0.82747 0.68882 0.0
N1923 N 0.10382 0.83377 0.68678 0.0
N1924 N 0.13707 0.84889 0.69658 0.0
C1925 C 0.12232 0.86237 0.69759 0.0
C1926 C 0.10433 0.85426 0.69225 0.0
C1927 C 0.11126 0.12912 0.67291 0.0
C1928 C 0.10744 0.11145 0.68541 0.0
C1929 C 0.09824 0.14555 0.67124 0.0
C1930 C 0.081 0.1448 0.68201 0.0
H1931 H 0.12478 0.13081 0.66523 0.0
H1932 H 0.10213 0.15935 0.66243 0.0
S1933 S 0.06273 0.10028 0.71332 0.0
N1934 N 0.08412 0.09305 0.70629 0.0
N1935 N 0.05965 0.12362 0.70301 0.0
C1936 C 0.07644 0.12648 0.69314 0.0
C1937 C 0.08966 0.10989 0.6949 0.0
C1938 C 0.83904 0.10464 0.70439 0.0
C1939 C 0.84087 0.08318 0.70843 0.0
C1940 C 0.85456 0.11782 0.70505 0.0
C1941 C 0.87247 0.11016 0.71006 0.0
H1942 H 0.82566 0.11126 0.69978 0.0
H1943 H 0.85258 0.13412 0.70108 0.0
S1944 S 0.88462 0.05602 0.72475 0.0
N1945 N 0.86184 0.05521 0.71966 0.0
N1946 N 0.89114 0.08053 0.72119 0.0
C1947 C 0.87442 0.08918 0.71572 0.0
C1948 C 0.85855 0.07553 0.71485 0.0
C1949 C 0.84206 0.84278 0.70834 0.0
C1950 C 0.84317 0.86292 0.69965 0.0
C1951 C 0.85661 0.82832 0.70559 0.0
C1952 C 0.87288 0.83359 0.69432 0.0
H1953 H 0.82968 0.83799 0.71701 0.0
H1954 H 0.85513 0.81288 0.71232 0.0
S1955 S 0.88354 0.88466 0.66989 0.0
N1956 N 0.86228 0.88767 0.68004 0.0
N1957 N 0.88989 0.86045 0.67529 0.0
C1958 C 0.87444 0.85375 0.6859 0.0
C1959 C 0.85949 0.86844 0.68845 0.0
C1960 C 0.26579 0.09695 0.10908 0.0
C1961 C 0.25835 0.09642 0.12933 0.0
C1962 C 0.26493 0.11523 0.09722 0.0
C1963 C 0.25651 0.13335 0.10527 0.0
H1964 H 0.27286 0.08341 0.10269 0.0
H1965 H 0.27133 0.11539 0.08185 0.0
S1966 S 0.23496 0.13974 0.15742 0.0
N1967 N 0.24224 0.11525 0.15696 0.0
N1968 N 0.24048 0.14973 0.13442 0.0
C1969 C 0.2486 0.13287 0.12526 0.0
C1970 C 0.24957 0.11429 0.1374 0.0
C1971 C 0.8381 0.26675 0.10049 0.0
C1972 C 0.84073 0.27066 0.07909 0.0
C1973 C 0.85346 0.2647 0.11386 0.0
C1974 C 0.87192 0.26663 0.10632 0.0
H1975 H 0.82406 0.26577 0.10708 0.0
H1976 H 0.85088 0.26227 0.13035 0.0
S1977 S 0.88674 0.27548 0.05171 0.0
N1978 N 0.8635 0.27518 0.05087 0.0
N1979 N 0.89234 0.27158 0.07637 0.0
C1980 C 0.87492 0.26974 0.08499 0.0
C1981 C 0.85929 0.27163 0.07124 0.0
C1982 C 0.67547 0.86971 0.11676 0.0
C1983 C 0.69177 0.87852 0.12533 0.0
C1984 C 0.67646 0.85217 0.1041 0.0
C1985 C 0.69379 0.84261 0.09949 0.0
H1986 H 0.66173 0.87624 0.12014 0.0
H1987 H 0.6634 0.84589 0.09807 0.0
S1988 S 0.74077 0.86011 0.1173 0.0
N1989 N 0.72594 0.87702 0.12775 0.0
N1990 N 0.72777 0.84367 0.10368 0.0
C1991 C 0.71036 0.85169 0.10718 0.0
C1992 C 0.70935 0.86976 0.12019 0.0
C1993 C 0.08434 0.71456 0.09275 0.0
C1994 C 0.08257 0.70425 0.11192 0.0
C1995 C 0.10132 0.71385 0.08158 0.0
C1996 C 0.11708 0.70311 0.08949 0.0
H1997 H 0.07243 0.72273 0.08612 0.0
H1998 H 0.10191 0.72134 0.06645 0.0
S1999 S 0.1201 0.67651 0.14087 0.0
N2000 N 0.09821 0.68492 0.13949 0.0
N2001 N 0.1302 0.6839 0.11887 0.0
C2002 C 0.11568 0.69382 0.10932 0.0
C2003 C 0.09836 0.69429 0.12044 0.0
C2004 C 0.26501 0.85835 0.87665 0.0
C2005 C 0.25557 0.84098 0.86836 0.0
C2006 C 0.26599 0.87711 0.86557 0.0
C2007 C 0.25757 0.87891 0.84595 0.0
H2008 H 0.27223 0.85716 0.89145 0.0
H2009 H 0.27411 0.88992 0.87191 0.0
S2010 S 0.23148 0.83787 0.8175 0.0
N2011 N 0.23757 0.82667 0.83968 0.0
N2012 N 0.23956 0.86205 0.81862 0.0
C2013 C 0.24762 0.86188 0.83778 0.0
C2014 C 0.24655 0.8428 0.84911 0.0
C2015 C 0.11379 0.26914 0.86365 0.0
C2016 C 0.11475 0.28946 0.87178 0.0
C2017 C 0.09669 0.26126 0.85615 0.0
C2018 C 0.08042 0.27368 0.85623 0.0
H2019 H 0.1256 0.25858 0.86522 0.0
H2020 H 0.09576 0.24484 0.85228 0.0
S2021 S 0.07678 0.3291 0.8716 0.0
N2022 N 0.09893 0.32283 0.8761 0.0
N2023 N 0.06689 0.30792 0.86189 0.0
C2024 C 0.08187 0.29472 0.86168 0.0
C2025 C 0.09911 0.30268 0.86948 0.0
C2026 C 0.68036 0.1198 0.87343 0.0
C2027 C 0.68933 0.13715 0.86434 0.0
C2028 C 0.67945 0.10069 0.86291 0.0
C2029 C 0.68734 0.09856 0.84296 0.0
H2030 H 0.67421 0.12098 0.88887 0.0
H2031 H 0.67242 0.0876 0.87029 0.0
S2032 S 0.71178 0.13955 0.81229 0.0
N2033 N 0.7061 0.15115 0.83443 0.0
N2034 N 0.70395 0.11532 0.81428 0.0
C2035 C 0.6962 0.11584 0.83366 0.0
C2036 C 0.69735 0.13518 0.8445 0.0
C2037 C 0.87363 0.68074 0.85925 0.0
C2038 C 0.87641 0.70213 0.85587 0.0
C2039 C 0.85573 0.67294 0.86425 0.0
C2040 C 0.84012 0.68639 0.86628 0.0
H2041 H 0.88559 0.67027 0.85986 0.0
H2042 H 0.85453 0.65658 0.8683 0.0
S2043 S 0.83971 0.74303 0.85414 0.0
N2044 N 0.86198 0.73609 0.85144 0.0
N2045 N 0.82819 0.72153 0.86051 0.0
C2046 C 0.84247 0.70744 0.86049 0.0
C2047 C 0.86071 0.71532 0.85547 0.0
C2048 C 0.1154 0.29497 0.13286 0.0
C2049 C 0.11103 0.28625 0.11336 0.0
C2050 C 0.10115 0.29941 0.14748 0.0
C2051 C 0.08218 0.29527 0.14287 0.0
H2052 H 0.12996 0.29729 0.13726 0.0
H2053 H 0.10511 0.30471 0.16287 0.0
S2054 S 0.06347 0.27611 0.09241 0.0
N2055 N 0.08655 0.27606 0.08922 0.0
N2056 N 0.0597 0.2848 0.11629 0.0
C2057 C 0.07767 0.28819 0.1227 0.0
C2058 C 0.09213 0.28349 0.10803 0.0
C2059 C 0.09906 0.68563 0.85971 0.0
C2060 C 0.11723 0.68868 0.85155 0.0
C2061 C 0.08385 0.68136 0.84642 0.0
C2062 C 0.08651 0.67931 0.82473 0.0
H2063 H 0.09639 0.6878 0.8762 0.0
H2064 H 0.06979 0.68066 0.853 0.0
S2065 S 0.13173 0.68367 0.7962 0.0
N2066 N 0.13727 0.68794 0.8208 0.0
N2067 N 0.10883 0.67919 0.79604 0.0
C2068 C 0.10481 0.68084 0.81669 0.0
C2069 C 0.12015 0.68576 0.83007 0.0
C2070 C 0.25058 0.11169 0.87374 0.0
C2071 C 0.26495 0.12669 0.87577 0.0
C2072 C 0.24949 0.09887 0.8561 0.0
C2073 C 0.2627 0.10061 0.83979 0.0
H2074 H 0.23994 0.10995 0.88575 0.0
H2075 H 0.2382 0.08754 0.85528 0.0
S2076 S 0.30339 0.13722 0.83761 0.0
N2077 N 0.29301 0.14216 0.86006 0.0
N2078 N 0.29083 0.11844 0.82696 0.0
C2079 C 0.27733 0.11536 0.84177 0.0
C2080 C 0.27851 0.12826 0.85975 0.0
C2081 C 0.85102 0.25635 0.85158 0.0
C2082 C 0.84499 0.27364 0.8634 0.0
C2083 C 0.86521 0.25827 0.8365 0.0
C2084 C 0.87383 0.27759 0.83248 0.0
H2085 H 0.84442 0.24123 0.85357 0.0
H2086 H 0.86913 0.24462 0.82754 0.0
S2087 S 0.86507 0.32714 0.86069 0.0
N2088 N 0.85013 0.31039 0.87125 0.0
N2089 N 0.87665 0.31397 0.84264 0.0
C2090 C 0.8685 0.29487 0.84461 0.0
C2091 C 0.85415 0.29289 0.86016 0.0
C2092 C 0.68025 0.83922 0.85964 0.0
C2093 C 0.68729 0.84646 0.87879 0.0
C2094 C 0.68103 0.85157 0.84168 0.0
C2095 C 0.68893 0.87167 0.8421 0.0
H2096 H 0.67404 0.82382 0.85847 0.0
H2097 H 0.67533 0.84534 0.82734 0.0
S2098 S 0.70852 0.89849 0.88846 0.0
N2099 N 0.70203 0.87531 0.89721 0.0
N2100 N 0.70349 0.8986 0.86335 0.0
C2101 C 0.69618 0.87913 0.86107 0.0
C2102 C 0.69536 0.86651 0.87944 0.0
C2103 C 0.85486 0.6812 0.11206 0.0
C2104 C 0.83675 0.68669 0.11903 0.0
C2105 C 0.86908 0.67613 0.12635 0.0
C2106 C 0.86543 0.67563 0.14795 0.0
H2107 H 0.85832 0.68195 0.09562 0.0
H2108 H 0.88324 0.67352 0.12058 0.0
S2109 S 0.81993 0.68696 0.17383 0.0
N2110 N 0.81569 0.69023 0.14875 0.0
N2111 N 0.84225 0.67996 0.17542 0.0
C2112 C 0.84712 0.67981 0.15492 0.0
C2113 C 0.83282 0.68556 0.1405 0.0
C2114 C 0.27945 0.8704 0.12409 0.0
C2115 C 0.26319 0.87142 0.13663 0.0
C2116 C 0.27988 0.85821 0.10602 0.0
C2117 C 0.26403 0.8467 0.09984 0.0
H2118 H 0.29193 0.87918 0.1282 0.0
H2119 H 0.29269 0.85779 0.09682 0.0
S2120 S 0.21849 0.84291 0.12815 0.0
N2121 N 0.23115 0.85929 0.14217 0.0
N2122 N 0.23191 0.83627 0.10815 0.0
C2123 C 0.24767 0.84757 0.11225 0.0
C2124 C 0.24725 0.85999 0.13067 0.0
C2125 C 0.70318 0.11792 0.11097 0.0
C2126 C 0.68621 0.12353 0.10121 0.0
C2127 C 0.70323 0.10592 0.12917 0.0
C2128 C 0.68631 0.09907 0.13829 0.0
H2129 H 0.71657 0.12325 0.1048 0.0
H2130 H 0.71663 0.10229 0.1363 0.0
S2131 S 0.63818 0.10725 0.11732 0.0
N2132 N 0.65214 0.11989 0.10098 0.0
N2133 N 0.65216 0.09715 0.13516 0.0
C2134 C 0.66924 0.10395 0.1283 0.0
C2135 C 0.6692 0.11623 0.10976 0.0
C2136 C 0.09263 0.62119 0.76129 0.0
C2137 C 0.07545 0.61641 0.77115 0.0
C2138 C 0.10947 0.61185 0.76795 0.0
C2139 C 0.10929 0.59737 0.78441 0.0
H2140 H 0.09278 0.63041 0.74713 0.0
H2141 H 0.12217 0.61432 0.75888 0.0
S2142 S 0.06854 0.58346 0.81793 0.0
N2143 N 0.05976 0.59926 0.80009 0.0
N2144 N 0.09127 0.58178 0.81272 0.0
C2145 C 0.09258 0.59458 0.79586 0.0
C2146 C 0.07561 0.60411 0.78916 0.0
C2147 C 0.86709 0.62535 0.80099 0.0
C2148 C 0.86575 0.64726 0.8012 0.0
C2149 C 0.85148 0.61287 0.79609 0.0
C2150 C 0.83419 0.62199 0.79065 0.0
H2151 H 0.88058 0.61788 0.80342 0.0
H2152 H 0.85328 0.5961 0.79535 0.0
S2153 S 0.82315 0.67864 0.79062 0.0
N2154 N 0.84556 0.67745 0.79724 0.0
N2155 N 0.81628 0.65423 0.78756 0.0
C2156 C 0.83246 0.64386 0.79197 0.0
C2157 C 0.84823 0.65645 0.79742 0.0
C2158 C 0.86057 0.36137 0.79131 0.0
C2159 C 0.8706 0.36363 0.77246 0.0
C2160 C 0.84412 0.37254 0.79503 0.0
C2161 C 0.83702 0.38626 0.78007 0.0
H2162 H 0.86509 0.35038 0.80312 0.0
H2163 H 0.83669 0.3701 0.80963 0.0
S2164 S 0.85929 0.40014 0.72946 0.0
N2165 N 0.87321 0.38211 0.73944 0.0
N2166 N 0.84208 0.40338 0.74654 0.0
C2167 C 0.84719 0.38943 0.76145 0.0
C2168 C 0.86406 0.378 0.75763 0.0
C2169 C 0.1058 0.35317 0.80174 0.0
C2170 C 0.10874 0.36333 0.78244 0.0
C2171 C 0.09199 0.33753 0.80414 0.0
C2172 C 0.08055 0.33153 0.78734 0.0
H2173 H 0.11441 0.35708 0.81506 0.0
H2174 H 0.0903 0.33012 0.81921 0.0
S2175 S 0.08273 0.35318 0.73335 0.0
N2176 N 0.09888 0.36623 0.74629 0.0
N2177 N 0.07344 0.33696 0.75047 0.0
C2178 C 0.08334 0.34173 0.76796 0.0
C2179 C 0.09725 0.3576 0.76561 0.0
C2180 C 0.09258 0.3537 0.20726 0.0
C2181 C 0.07651 0.36202 0.19759 0.0
C2182 C 0.11058 0.36142 0.20232 0.0
C2183 C 0.1127 0.37758 0.18768 0.0
H2184 H 0.09107 0.34288 0.22015 0.0
H2185 H 0.12253 0.35624 0.21138 0.0
S2186 S 0.07537 0.40083 0.15491 0.0
N2187 N 0.06413 0.38437 0.1704 0.0
N2188 N 0.09786 0.3988 0.16102 0.0
C2189 C 0.09697 0.38402 0.17621 0.0
C2190 C 0.07882 0.37621 0.1812 0.0
C2191 C 0.10409 0.61827 0.18132 0.0
C2192 C 0.10965 0.61042 0.20086 0.0
C2193 C 0.08996 0.63347 0.1796 0.0
C2194 C 0.08071 0.64144 0.19734 0.0
H2195 H 0.11087 0.61286 0.16718 0.0
H2196 H 0.08627 0.63901 0.16419 0.0
S2197 S 0.08998 0.62621 0.25225 0.0
N2198 N 0.10462 0.61178 0.2384 0.0
N2199 N 0.07821 0.64029 0.23517 0.0
C2200 C 0.08594 0.63351 0.21698 0.0
C2201 C 0.10032 0.61803 0.21873 0.0
C2202 C 0.84384 0.61082 0.19969 0.0
C2203 C 0.84296 0.59328 0.18656 0.0
C2204 C 0.86131 0.61853 0.20643 0.0
C2205 C 0.87812 0.60884 0.2001 0.0
H2206 H 0.83108 0.61742 0.2062 0.0
H2207 H 0.86158 0.63072 0.21811 0.0
S2208 S 0.88332 0.56614 0.16179 0.0
N2209 N 0.86036 0.56931 0.16432 0.0
N2210 N 0.89303 0.5836 0.17731 0.0
C2211 C 0.87739 0.59304 0.18512 0.0
C2212 C 0.85978 0.58529 0.17823 0.0
C2213 C 0.84309 0.34277 0.21382 0.0
C2214 C 0.84201 0.36076 0.20121 0.0
C2215 C 0.85738 0.32799 0.21098 0.0
C2216 C 0.87099 0.33056 0.19531 0.0
H2217 H 0.83264 0.33983 0.22581 0.0
H2218 H 0.85764 0.3143 0.22091 0.0
S2219 S 0.87581 0.37561 0.15946 0.0
N2220 N 0.8568 0.38089 0.17338 0.0
N2221 N 0.88347 0.35279 0.16791 0.0
C2222 C 0.8704 0.34854 0.18284 0.0
C2223 C 0.85595 0.36374 0.18583 0.0
C2224 C 0.24563 0.6236 0.60548 0.0
C2225 C 0.26234 0.63215 0.59729 0.0
C2226 C 0.24606 0.60575 0.61819 0.0
C2227 C 0.26322 0.59597 0.6231 0.0
H2228 H 0.23225 0.6312 0.60271 0.0
H2229 H 0.23299 0.60006 0.62486 0.0
S2230 S 0.31036 0.60999 0.60229 0.0
N2231 N 0.29613 0.6279 0.59269 0.0
N2232 N 0.29693 0.59451 0.61659 0.0
C2233 C 0.27984 0.60366 0.61397 0.0
C2234 C 0.2794 0.62172 0.60105 0.0
C2235 C 0.86094 0.78339 0.60489 0.0
C2236 C 0.87057 0.7644 0.60751 0.0
C2237 C 0.84504 0.7847 0.59241 0.0
C2238 C 0.83826 0.76721 0.58166 0.0
H2239 H 0.86525 0.79733 0.61312 0.0
H2240 H 0.83797 0.79963 0.59128 0.0
S2241 S 0.85929 0.71435 0.58118 0.0
N2242 N 0.87289 0.72793 0.59701 0.0
N2243 N 0.84295 0.7307 0.57296 0.0
C2244 C 0.84822 0.74837 0.58306 0.0
C2245 C 0.8644 0.7469 0.59612 0.0
C2246 C 0.70836 0.34623 0.61106 0.0
C2247 C 0.69315 0.34005 0.59856 0.0
C2248 C 0.70735 0.36461 0.62294 0.0
C2249 C 0.69113 0.37719 0.62252 0.0
H2250 H 0.72071 0.3364 0.6123 0.0
H2251 H 0.7189 0.36847 0.63321 0.0
S2252 S 0.64911 0.36975 0.58938 0.0
N2253 N 0.66256 0.34936 0.58434 0.0
N2254 N 0.66067 0.38364 0.60681 0.0
C2255 C 0.6764 0.3718 0.60912 0.0
C2256 C 0.67742 0.35327 0.59707 0.0
C2257 C 0.09236 0.17689 0.58327 0.0
C2258 C 0.10801 0.18854 0.58981 0.0
C2259 C 0.07467 0.18001 0.59213 0.0
C2260 C 0.07199 0.19485 0.60788 0.0
H2261 H 0.09353 0.16617 0.57029 0.0
H2262 H 0.06273 0.17184 0.58553 0.0
S2263 S 0.109 0.22648 0.63333 0.0
N2264 N 0.12036 0.2132 0.61513 0.0
N2265 N 0.08673 0.21914 0.63189 0.0
C2266 C 0.08782 0.20492 0.61626 0.0
C2267 C 0.106 0.20174 0.60716 0.0
C2268 C 0.27895 0.3449 0.36358 0.0
C2269 C 0.26274 0.33818 0.37436 0.0
C2270 C 0.27894 0.3632 0.35178 0.0
C2271 C 0.26272 0.37565 0.35017 0.0
H2272 H 0.29185 0.33593 0.36411 0.0
H2273 H 0.29177 0.36742 0.34361 0.0
S2274 S 0.21679 0.36576 0.37643 0.0
N2275 N 0.23018 0.34597 0.38349 0.0
N2276 N 0.23013 0.38046 0.36124 0.0
C2277 C 0.24652 0.36953 0.36142 0.0
C2278 C 0.24653 0.35078 0.37349 0.0
C2279 C 0.07907 0.76403 0.37835 0.0
C2280 C 0.08316 0.76087 0.35722 0.0
C2281 C 0.0935 0.76836 0.3925 0.0
C2282 C 0.11233 0.77027 0.38575 0.0
H2283 H 0.06462 0.76388 0.3838 0.0
H2284 H 0.08974 0.77126 0.40861 0.0
S2285 S 0.1299 0.76283 0.33167 0.0
N2286 N 0.10696 0.75911 0.33011 0.0
N2287 N 0.13418 0.76776 0.35646 0.0
C2288 C 0.11653 0.7665 0.36463 0.0
C2289 C 0.10187 0.76169 0.3504 0.0
C2290 C 0.70053 0.59936 0.36141 0.0
C2291 C 0.68458 0.59491 0.34923 0.0
C2292 C 0.70198 0.61803 0.37265 0.0
C2293 C 0.68753 0.63304 0.37222 0.0
H2294 H 0.71217 0.58848 0.36209 0.0
H2295 H 0.71454 0.62063 0.3818 0.0
S2296 S 0.64228 0.62851 0.34351 0.0
N2297 N 0.65369 0.60681 0.338 0.0
N2298 N 0.65639 0.64182 0.35891 0.0
C2299 C 0.67138 0.62869 0.36023 0.0
C2300 C 0.6699 0.60967 0.34884 0.0
C2301 C 0.85173 0.2132 0.35289 0.0
C2302 C 0.87047 0.21377 0.35962 0.0
C2303 C 0.83702 0.2098 0.36703 0.0
C2304 C 0.84061 0.20681 0.38837 0.0
H2305 H 0.8485 0.21457 0.33645 0.0
H2306 H 0.82281 0.20887 0.36106 0.0
S2307 S 0.8876 0.20792 0.41365 0.0
N2308 N 0.89207 0.21195 0.38869 0.0
N2309 N 0.86449 0.20563 0.41559 0.0
C2310 C 0.85937 0.20828 0.39537 0.0
C2311 C 0.87432 0.2117 0.38087 0.0
C2312 C 0.09309 0.75422 0.61238 0.0
C2313 C 0.10612 0.76985 0.60701 0.0
C2314 C 0.07979 0.75738 0.62826 0.0
C2315 C 0.07918 0.77621 0.63955 0.0
H2316 H 0.0933 0.73933 0.6044 0.0
H2317 H 0.07009 0.74482 0.63184 0.0
S2318 S 0.11072 0.82202 0.63168 0.0
N2319 N 0.11778 0.80482 0.61424 0.0
N2320 N 0.093 0.81081 0.64404 0.0
C2321 C 0.09213 0.79207 0.63415 0.0
C2322 C 0.10552 0.78889 0.61789 0.0
C2323 C 0.09448 0.19702 0.36697 0.0
C2324 C 0.11281 0.1998 0.35926 0.0
C2325 C 0.07932 0.19441 0.35328 0.0
C2326 C 0.08224 0.19386 0.33161 0.0
H2327 H 0.09179 0.19743 0.3836 0.0
H2328 H 0.06525 0.19282 0.35964 0.0
S2329 S 0.12779 0.19962 0.30389 0.0
N2330 N 0.13319 0.20167 0.32882 0.0
N2331 N 0.10478 0.19584 0.30309 0.0
C2332 C 0.10059 0.19605 0.32377 0.0
C2333 C 0.11589 0.19927 0.33765 0.0
C2334 C 0.27958 0.62884 0.33628 0.0
C2335 C 0.2661 0.61296 0.33417 0.0
C2336 C 0.2813 0.64002 0.35494 0.0
C2337 C 0.2698 0.63559 0.37234 0.0
H2338 H 0.28888 0.63269 0.32341 0.0
H2339 H 0.2918 0.6522 0.35569 0.0
S2340 S 0.23311 0.59415 0.37512 0.0
N2341 N 0.24152 0.59261 0.35118 0.0
N2342 N 0.2448 0.61337 0.38627 0.0
C2343 C 0.25636 0.61946 0.37045 0.0
C2344 C 0.2545 0.60824 0.35136 0.0
C2345 C 0.85111 0.79259 0.35723 0.0
C2346 C 0.84132 0.77362 0.35977 0.0
C2347 C 0.86556 0.79463 0.34239 0.0
C2348 C 0.87079 0.77773 0.3297 0.0
H2349 H 0.84772 0.80593 0.36688 0.0
H2350 H 0.87301 0.80934 0.34126 0.0
S2351 S 0.84824 0.72557 0.32822 0.0
N2352 N 0.83697 0.73815 0.3469 0.0
N2353 N 0.86419 0.74207 0.31928 0.0
C2354 C 0.86079 0.75892 0.33158 0.0
C2355 C 0.84605 0.75684 0.34656 0.0
C2356 C 0.68235 0.33855 0.35787 0.0
C2357 C 0.69027 0.34561 0.37662 0.0
C2358 C 0.68412 0.3501 0.3395 0.0
C2359 C 0.69389 0.36918 0.33911 0.0
H2360 H 0.67472 0.32392 0.35731 0.0
H2361 H 0.67759 0.34411 0.32549 0.0
S2362 S 0.71629 0.39527 0.38428 0.0
N2363 N 0.70778 0.37326 0.3939 0.0
N2364 N 0.71105 0.39508 0.35923 0.0
C2365 C 0.70198 0.37646 0.35771 0.0
C2366 C 0.70017 0.36465 0.37651 0.0
C2367 C 0.85199 0.19277 0.64335 0.0
C2368 C 0.87101 0.19554 0.6379 0.0
C2369 C 0.83776 0.1953 0.62852 0.0
C2370 C 0.84214 0.20063 0.60782 0.0
H2371 H 0.84805 0.18913 0.65928 0.0
H2372 H 0.82321 0.19344 0.63335 0.0
S2373 S 0.88975 0.20686 0.58507 0.0
N2374 N 0.89354 0.20207 0.61002 0.0
N2375 N 0.86664 0.20691 0.58214 0.0
C2376 C 0.86105 0.20284 0.602 0.0
C2377 C 0.87555 0.20025 0.61708 0.0
C2378 C 0.25634 0.36379 0.59686 0.0
C2379 C 0.26617 0.3447 0.59651 0.0
C2380 C 0.25422 0.37518 0.61539 0.0
C2381 C 0.26189 0.36791 0.63422 0.0
H2382 H 0.25052 0.37019 0.58264 0.0
H2383 H 0.24704 0.39007 0.61481 0.0
S2384 S 0.28676 0.31775 0.64239 0.0
N2385 N 0.28214 0.31824 0.61721 0.0
N2386 N 0.27828 0.33977 0.65184 0.0
C2387 C 0.27117 0.34858 0.63427 0.0
C2388 C 0.27328 0.33695 0.61548 0.0
C2389 C 0.68136 0.62289 0.63274 0.0
C2390 C 0.68787 0.60223 0.63276 0.0
C2391 C 0.68082 0.63455 0.61427 0.0
C2392 C 0.68666 0.62591 0.59513 0.0
H2393 H 0.67678 0.63016 0.64712 0.0
H2394 H 0.6759 0.65052 0.61505 0.0
S2395 S 0.70279 0.57152 0.58663 0.0
N2396 N 0.69902 0.57302 0.612 0.0
N2397 N 0.6979 0.59488 0.57719 0.0
C2398 C 0.6929 0.60509 0.59492 0.0
C2399 C 0.69351 0.59325 0.61376 0.0
C2400 C 0.59851 0.08499 0.75621 0.0
C2401 C 0.61307 0.08882 0.77051 0.0
C2402 C 0.5828 0.09816 0.7552 0.0
C2403 C 0.58102 0.11514 0.76885 0.0
H2404 H 0.59929 0.07179 0.74572 0.0
H2405 H 0.57188 0.09488 0.74392 0.0
S2406 S 0.61526 0.13188 0.80917 0.0
N2407 N 0.62473 0.11095 0.79851 0.0
N2408 N 0.59522 0.1354 0.79682 0.0
C2409 C 0.59549 0.1191 0.78323 0.0
C2410 C 0.61154 0.10601 0.784 0.0
C2411 C 0.35485 0.1367 0.79531 0.0
C2412 C 0.3689 0.1396 0.78001 0.0
C2413 C 0.34147 0.12057 0.79355 0.0
C2414 C 0.34152 0.10691 0.77635 0.0
H2415 H 0.35375 0.14735 0.80835 0.0
H2416 H 0.33051 0.11941 0.80524 0.0
S2417 S 0.37712 0.10542 0.73397 0.0
N2418 N 0.38343 0.12537 0.74856 0.0
N2419 N 0.35806 0.09576 0.74515 0.0
C2420 C 0.35612 0.10883 0.76169 0.0
C2421 C 0.36985 0.12497 0.76356 0.0
C2422 C 0.36231 0.85455 0.76676 0.0
C2423 C 0.37964 0.85941 0.77605 0.0
C2424 C 0.34544 0.86273 0.77479 0.0
C2425 C 0.34572 0.87623 0.79204 0.0
H2426 H 0.36197 0.84624 0.75207 0.0
H2427 H 0.33255 0.86031 0.76616 0.0
S2428 S 0.38715 0.88989 0.82419 0.0
N2429 N 0.39577 0.87547 0.80511 0.0
N2430 N 0.36421 0.8909 0.82026 0.0
C2431 C 0.3627 0.87898 0.80283 0.0
C2432 C 0.37971 0.87056 0.79476 0.0
C2433 C 0.6119 0.8371 0.77471 0.0
C2434 C 0.61004 0.8589 0.77517 0.0
C2435 C 0.59625 0.82409 0.77772 0.0
C2436 C 0.5782 0.83252 0.78065 0.0
H2437 H 0.62556 0.83006 0.77209 0.0
H2438 H 0.59822 0.80733 0.77724 0.0
S2439 S 0.56594 0.88861 0.78361 0.0
N2440 N 0.58894 0.88842 0.77958 0.0
N2441 N 0.55931 0.86388 0.7843 0.0
C2442 C 0.57613 0.85429 0.78119 0.0
C2443 C 0.59215 0.86755 0.77869 0.0
C2444 C 0.59857 0.86352 0.16901 0.0
C2445 C 0.61375 0.86777 0.18245 0.0
C2446 C 0.58081 0.85814 0.17696 0.0
C2447 C 0.57777 0.85677 0.19851 0.0
H2448 H 0.59994 0.866 0.15238 0.0
H2449 H 0.56905 0.85698 0.16631 0.0
S2450 S 0.61344 0.86159 0.24006 0.0
N2451 N 0.62513 0.86633 0.21826 0.0
N2452 N 0.59155 0.85675 0.23297 0.0
C2453 C 0.59314 0.8586 0.21193 0.0
C2454 C 0.61126 0.86389 0.20393 0.0
C2455 C 0.59815 0.14396 0.20798 0.0
C2456 C 0.58294 0.13994 0.19477 0.0
C2457 C 0.61184 0.12873 0.21162 0.0
C2458 C 0.6108 0.10899 0.20209 0.0
H2459 H 0.59944 0.15897 0.21561 0.0
H2460 H 0.62346 0.13259 0.22181 0.0
S2461 S 0.57316 0.09073 0.16663 0.0
N2462 N 0.56716 0.11495 0.17244 0.0
N2463 N 0.59306 0.08618 0.17909 0.0
C2464 C 0.59563 0.10483 0.18872 0.0
C2465 C 0.58161 0.12037 0.18512 0.0
C2466 C 0.34208 0.10637 0.2028 0.0
C2467 C 0.34012 0.10048 0.18178 0.0
C2468 C 0.35944 0.11334 0.21047 0.0
C2469 C 0.37516 0.11512 0.19726 0.0
H2470 H 0.3307 0.10386 0.21381 0.0
H2471 H 0.36099 0.11564 0.2271 0.0
S2472 S 0.37662 0.10568 0.14047 0.0
N2473 N 0.3548 0.09998 0.14737 0.0
N2474 N 0.38726 0.11324 0.162 0.0
C2475 C 0.37286 0.11163 0.17592 0.0
C2476 C 0.35532 0.10429 0.16809 0.0
C2477 C 0.35228 0.82942 0.1926 0.0
C2478 C 0.37143 0.83477 0.1935 0.0
C2479 C 0.33833 0.8447 0.19475 0.0
C2480 C 0.34314 0.86579 0.19744 0.0
H2481 H 0.34806 0.81325 0.19094 0.0
H2482 H 0.32368 0.83998 0.19467 0.0
S2483 S 0.39119 0.88811 0.19831 0.0
N2484 N 0.39451 0.86271 0.19574 0.0
N2485 N 0.36814 0.89153 0.19935 0.0
C2486 C 0.36217 0.87148 0.19748 0.0
C2487 C 0.37639 0.8559 0.1956 0.0
C2488 C 0.75424 0.11703 0.59907 0.0
C2489 C 0.76252 0.13587 0.6055 0.0
C2490 C 0.75603 0.09883 0.61102 0.0
C2491 C 0.76615 0.09882 0.62984 0.0
H2492 H 0.74677 0.11617 0.5844 0.0
H2493 H 0.7497 0.08458 0.60527 0.0
S2494 S 0.78872 0.14482 0.65459 0.0
N2495 N 0.78004 0.15387 0.63254 0.0
N2496 N 0.78335 0.11975 0.65509 0.0
C2497 C 0.77404 0.11775 0.63672 0.0
C2498 C 0.77223 0.13625 0.62454 0.0
C2499 C 0.35406 0.27188 0.61716 0.0
C2500 C 0.372 0.26707 0.60933 0.0
C2501 C 0.33834 0.2718 0.60427 0.0
C2502 C 0.34001 0.26722 0.58292 0.0
H2503 H 0.35217 0.276 0.63342 0.0
H2504 H 0.32491 0.27616 0.61102 0.0
S2505 S 0.38401 0.25198 0.55528 0.0
N2506 N 0.39065 0.25611 0.57958 0.0
N2507 N 0.36109 0.25635 0.55482 0.0
C2508 C 0.35785 0.26142 0.57507 0.0
C2509 C 0.37388 0.26125 0.58842 0.0
C2510 C 0.17073 0.83538 0.62496 0.0
C2511 C 0.18043 0.83523 0.60576 0.0
C2512 C 0.16981 0.8536 0.63718 0.0
C2513 C 0.17834 0.87229 0.63042 0.0
H2514 H 0.16433 0.82119 0.63085 0.0
H2515 H 0.16295 0.85283 0.65227 0.0
S2516 S 0.202 0.88091 0.57926 0.0
N2517 N 0.19649 0.8559 0.57936 0.0
N2518 N 0.1944 0.89006 0.60179 0.0
C2519 C 0.18689 0.87256 0.61053 0.0
C2520 C 0.18805 0.85406 0.59835 0.0
C2521 C 0.58875 0.72317 0.59671 0.0
C2522 C 0.58427 0.70675 0.61045 0.0
C2523 C 0.60507 0.72244 0.58437 0.0
C2524 C 0.61761 0.70558 0.58588 0.0
H2525 H 0.5796 0.73662 0.59548 0.0
H2526 H 0.60799 0.73522 0.57376 0.0
S2527 S 0.6122 0.65853 0.61925 0.0
N2528 N 0.59357 0.67295 0.62451 0.0
N2529 N 0.62427 0.67184 0.6017 0.0
C2530 C 0.61327 0.68908 0.59953 0.0
C2531 C 0.59655 0.68958 0.6117 0.0
C2532 C 0.77105 0.83919 0.35096 0.0
C2533 C 0.76195 0.83842 0.37038 0.0
C2534 C 0.77253 0.85791 0.33988 0.0
C2535 C 0.76504 0.87663 0.34784 0.0
H2536 H 0.77718 0.82522 0.34429 0.0
H2537 H 0.7795 0.85761 0.32483 0.0
S2538 S 0.74124 0.88321 0.39898 0.0
N2539 N 0.74617 0.85806 0.39776 0.0
N2540 N 0.74892 0.89338 0.37685 0.0
C2541 C 0.75597 0.87611 0.36735 0.0
C2542 C 0.75443 0.85697 0.37865 0.0
C2543 C 0.6027 0.25697 0.35521 0.0
C2544 C 0.58357 0.26004 0.35979 0.0
C2545 C 0.61656 0.26198 0.36978 0.0
C2546 C 0.61171 0.26979 0.38956 0.0
H2547 H 0.60706 0.25184 0.33985 0.0
H2548 H 0.63119 0.26022 0.3653 0.0
S2549 S 0.56324 0.27788 0.40989 0.0
N2550 N 0.56023 0.26962 0.38576 0.0
N2551 N 0.58624 0.27843 0.4136 0.0
C2552 C 0.5925 0.27153 0.3948 0.0
C2553 C 0.57842 0.26683 0.37976 0.0
C2554 C 0.17561 0.11499 0.34239 0.0
C2555 C 0.18606 0.09719 0.34802 0.0
C2556 C 0.17685 0.13357 0.35373 0.0
C2557 C 0.18868 0.13525 0.37116 0.0
H2558 H 0.16635 0.11467 0.32902 0.0
H2559 H 0.16843 0.14675 0.34877 0.0
S2560 S 0.21856 0.09313 0.39311 0.0
N2561 N 0.2084 0.08238 0.37267 0.0
N2562 N 0.21075 0.11736 0.39393 0.0
C2563 C 0.19928 0.11765 0.37702 0.0
C2564 C 0.19796 0.09863 0.36549 0.0
C2565 C 0.34351 0.71218 0.39228 0.0
C2566 C 0.32753 0.70657 0.38079 0.0
C2567 C 0.36157 0.70622 0.38564 0.0
C2568 C 0.36412 0.69466 0.3672 0.0
H2569 H 0.34221 0.72282 0.40532 0.0
H2570 H 0.37361 0.71226 0.394 0.0
S2571 S 0.32599 0.6735 0.33366 0.0
N2572 N 0.3149 0.68693 0.35187 0.0
N2573 N 0.34856 0.67518 0.33942 0.0
C2574 C 0.34792 0.68694 0.35703 0.0
C2575 C 0.32964 0.69315 0.36379 0.0
C2576 C 0.59048 0.30989 0.62953 0.0
C2577 C 0.59323 0.30279 0.65004 0.0
C2578 C 0.60292 0.30412 0.61345 0.0
C2579 C 0.61806 0.29059 0.61745 0.0
H2580 H 0.57781 0.31839 0.62558 0.0
H2581 H 0.59993 0.30902 0.59764 0.0
S2582 S 0.63266 0.27027 0.66904 0.0
N2583 N 0.61338 0.28382 0.67386 0.0
N2584 N 0.63645 0.27251 0.64374 0.0
C2585 C 0.62172 0.2848 0.63815 0.0
C2586 C 0.60939 0.2911 0.65446 0.0
C2587 C 0.58007 0.70815 0.3511 0.0
C2588 C 0.58395 0.6975 0.33238 0.0
C2589 C 0.5939 0.71048 0.36648 0.0
C2590 C 0.61197 0.70212 0.36365 0.0
H2591 H 0.5662 0.71456 0.35398 0.0
H2592 H 0.59037 0.71864 0.38074 0.0
S2593 S 0.63017 0.67603 0.31613 0.0
N2594 N 0.60778 0.68055 0.31104 0.0
N2595 N 0.6337 0.68485 0.33998 0.0
C2596 C 0.61622 0.69202 0.34479 0.0
C2597 C 0.6022 0.6897 0.32913 0.0
C2598 C 0.75644 0.10943 0.37678 0.0
C2599 C 0.76408 0.12971 0.37658 0.0
C2600 C 0.7547 0.09791 0.35828 0.0
C2601 C 0.76051 0.10638 0.33907 0.0
H2602 H 0.7523 0.10221 0.39137 0.0
H2603 H 0.74945 0.08205 0.35913 0.0
S2604 S 0.778 0.16007 0.32967 0.0
N2605 N 0.77512 0.15865 0.35517 0.0
N2606 N 0.7719 0.13697 0.32056 0.0
C2607 C 0.76713 0.12699 0.33854 0.0
C2608 C 0.76891 0.13868 0.35726 0.0
C2609 C 0.35889 0.29183 0.33495 0.0
C2610 C 0.37385 0.27756 0.33327 0.0
C2611 C 0.34532 0.28995 0.35071 0.0
C2612 C 0.34608 0.27366 0.36542 0.0
H2613 H 0.35738 0.3044 0.32378 0.0
H2614 H 0.33382 0.30104 0.35093 0.0
S2615 S 0.38344 0.23343 0.36939 0.0
N2616 N 0.38941 0.24745 0.34881 0.0
N2617 N 0.36378 0.2439 0.3783 0.0
C2618 C 0.3613 0.25969 0.36442 0.0
C2619 C 0.37519 0.26163 0.34839 0.0
C2620 C 0.18065 0.85427 0.33953 0.0
C2621 C 0.19159 0.87254 0.33886 0.0
C2622 C 0.17942 0.84219 0.35764 0.0
C2623 C 0.18905 0.84787 0.37591 0.0
H2624 H 0.17284 0.84926 0.32595 0.0
H2625 H 0.17077 0.82826 0.35728 0.0
S2626 S 0.21904 0.89488 0.38263 0.0
N2627 N 0.21196 0.8961 0.35818 0.0
N2628 N 0.20968 0.87333 0.39231 0.0
C2629 C 0.2002 0.86606 0.37545 0.0
C2630 C 0.20146 0.8784 0.35692 0.0
C2631 C 0.35955 0.70919 0.61022 0.0
C2632 C 0.34301 0.69716 0.6109 0.0
C2633 C 0.37358 0.70686 0.62533 0.0
C2634 C 0.37161 0.69247 0.64184 0.0
H2635 H 0.36166 0.72063 0.59799 0.0
H2636 H 0.38605 0.71653 0.62406 0.0
S2637 S 0.33062 0.65752 0.65103 0.0
N2638 N 0.32532 0.67039 0.62955 0.0
N2639 N 0.35156 0.66614 0.65802 0.0
C2640 C 0.35516 0.6802 0.64261 0.0
C2641 C 0.34091 0.68249 0.62714 0.0
C2642 C 0.74981 0.85478 0.60455 0.0
C2643 C 0.76662 0.84584 0.59709 0.0
C2644 C 0.74942 0.86628 0.62314 0.0
C2645 C 0.76583 0.86936 0.63502 0.0
H2646 H 0.73679 0.85273 0.59608 0.0
H2647 H 0.73612 0.87285 0.62817 0.0
S2648 S 0.81384 0.85042 0.6215 0.0
N2649 N 0.80032 0.8417 0.60257 0.0
N2650 N 0.79961 0.86316 0.63736 0.0
C2651 C 0.7828 0.86068 0.62758 0.0
C2652 C 0.7832 0.849 0.60868 0.0
C2653 C 0.20373 0.11501 0.59969 0.0
C2654 C 0.19193 0.13262 0.5988 0.0
C2655 C 0.20589 0.10374 0.61832 0.0
C2656 C 0.19634 0.10981 0.63656 0.0
H2657 H 0.21077 0.10944 0.58577 0.0
H2658 H 0.21423 0.0896 0.61814 0.0
S2659 S 0.1662 0.15649 0.64339 0.0
N2660 N 0.17237 0.15689 0.61858 0.0
N2661 N 0.17638 0.1356 0.65328 0.0
C2662 C 0.18547 0.12804 0.63619 0.0
C2663 C 0.18325 0.13948 0.61737 0.0
C2664 C 0.58743 0.59921 0.28347 0.0
C2665 C 0.58318 0.60933 0.26459 0.0
C2666 C 0.60302 0.58606 0.28509 0.0
C2667 C 0.61474 0.58242 0.26787 0.0
H2668 H 0.57909 0.60208 0.29734 0.0
H2669 H 0.60621 0.57908 0.30006 0.0
S2670 S 0.60932 0.60353 0.2146 0.0
N2671 N 0.59159 0.61366 0.2279 0.0
N2672 N 0.62085 0.58861 0.23121 0.0
C2673 C 0.61025 0.59139 0.24866 0.0
C2674 C 0.5944 0.60491 0.24693 0.0
C2675 C 0.36072 0.6381 0.28904 0.0
C2676 C 0.3773 0.63789 0.27696 0.0
C2677 C 0.34719 0.62242 0.28724 0.0
C2678 C 0.34953 0.60581 0.27317 0.0
H2679 H 0.35791 0.65072 0.29982 0.0
H2680 H 0.3345 0.62376 0.29657 0.0
S2681 S 0.39113 0.59672 0.23923 0.0
N2682 N 0.3959 0.61881 0.25136 0.0
N2683 N 0.3702 0.58931 0.24779 0.0
C2684 C 0.36621 0.60502 0.26129 0.0
C2685 C 0.38013 0.62106 0.2632 0.0
C2686 C 0.35027 0.35833 0.25823 0.0
C2687 C 0.36843 0.36331 0.2652 0.0
C2688 C 0.33508 0.37156 0.26236 0.0
C2689 C 0.3377 0.39042 0.27309 0.0
H2690 H 0.3476 0.34361 0.25049 0.0
H2691 H 0.32115 0.36681 0.25744 0.0
S2692 S 0.383 0.41129 0.29284 0.0
N2693 N 0.38855 0.38858 0.28233 0.0
N2694 N 0.3601 0.41405 0.28942 0.0
C2695 C 0.35603 0.3961 0.27912 0.0
C2696 C 0.3714 0.38234 0.27538 0.0
C2697 C 0.59226 0.36623 0.27047 0.0
C2698 C 0.61004 0.36225 0.27903 0.0
C2699 C 0.57751 0.35189 0.27273 0.0
C2700 C 0.58004 0.33291 0.28347 0.0
H2701 H 0.58971 0.38055 0.26194 0.0
H2702 H 0.56404 0.3557 0.26586 0.0
S2703 S 0.62448 0.3144 0.30745 0.0
N2704 N 0.6297 0.33768 0.29797 0.0
N2705 N 0.60203 0.31058 0.30205 0.0
C2706 C 0.59782 0.32871 0.29209 0.0
C2707 C 0.61281 0.34341 0.28989 0.0
C2708 C 0.57424 0.37286 0.67836 0.0
C2709 C 0.57279 0.36204 0.69724 0.0
C2710 C 0.59163 0.38009 0.67122 0.0
C2711 C 0.60811 0.37696 0.68289 0.0
H2712 H 0.56167 0.3773 0.66993 0.0
H2713 H 0.59189 0.38967 0.6573 0.0
S2714 S 0.61202 0.34593 0.73149 0.0
N2715 N 0.58929 0.34568 0.72601 0.0
N2716 N 0.62229 0.35942 0.71262 0.0
C2717 C 0.60715 0.36407 0.70062 0.0
C2718 C 0.58931 0.35662 0.70787 0.0
C2719 C 0.60691 0.62887 0.71503 0.0
C2720 C 0.60952 0.61217 0.70103 0.0
C2721 C 0.59228 0.64327 0.71242 0.0
C2722 C 0.57979 0.64163 0.69564 0.0
H2723 H 0.61649 0.63117 0.72791 0.0
H2724 H 0.59095 0.65603 0.72338 0.0
S2725 S 0.57874 0.59951 0.65616 0.0
N2726 N 0.59712 0.59385 0.67083 0.0
N2727 N 0.56976 0.62124 0.66582 0.0
C2728 C 0.58178 0.62476 0.68186 0.0
C2729 C 0.59661 0.60994 0.68459 0.0
C2730 C 0.3507 0.61645 0.71636 0.0
C2731 C 0.36912 0.6098 0.71211 0.0
C2732 C 0.33533 0.60359 0.71199 0.0
C2733 C 0.33801 0.58352 0.70373 0.0
H2734 H 0.3481 0.63214 0.72195 0.0
H2735 H 0.32127 0.60956 0.71463 0.0
S2736 S 0.3838 0.55836 0.69164 0.0
N2737 N 0.38947 0.58183 0.70022 0.0
N2738 N 0.36059 0.55708 0.69278 0.0
C2739 C 0.35649 0.57625 0.70059 0.0
C2740 C 0.3721 0.5896 0.70455 0.0
C2741 C 0.35105 0.35909 0.71756 0.0
C2742 C 0.3433 0.36881 0.69989 0.0
C2743 C 0.36539 0.34426 0.71566 0.0
C2744 C 0.3725 0.33854 0.69601 0.0
H2745 H 0.34552 0.36229 0.73298 0.0
H2746 H 0.37038 0.33661 0.72965 0.0
S2747 S 0.35915 0.36157 0.64514 0.0
N2748 N 0.34533 0.3733 0.66224 0.0
N2749 N 0.37222 0.34522 0.65873 0.0
C2750 C 0.36562 0.34887 0.67829 0.0
C2751 C 0.35106 0.36409 0.68022 0.0
C2752 C 0.77877 0.61054 0.11796 0.0
C2753 C 0.76176 0.60085 0.12371 0.0
C2754 C 0.77906 0.62778 0.10472 0.0
C2755 C 0.76235 0.63613 0.09654 0.0
H2756 H 0.79209 0.60495 0.12396 0.0
H2757 H 0.7926 0.63465 0.10099 0.0
S2758 S 0.71403 0.61591 0.10576 0.0
N2759 N 0.72771 0.60029 0.11949 0.0
N2760 N 0.72827 0.63288 0.09437 0.0
C2761 C 0.74522 0.62619 0.10147 0.0
C2762 C 0.74492 0.6085 0.11508 0.0
C2763 C 0.33926 0.76637 0.10464 0.0
C2764 C 0.34215 0.77023 0.0833 0.0
C2765 C 0.35437 0.76236 0.11781 0.0
C2766 C 0.37285 0.76203 0.11011 0.0
H2767 H 0.32527 0.76708 0.11139 0.0
H2768 H 0.35167 0.7604 0.13434 0.0
S2769 S 0.3881 0.76993 0.05551 0.0
N2770 N 0.36495 0.77236 0.05487 0.0
N2771 N 0.39347 0.76487 0.08003 0.0
C2772 C 0.37601 0.76482 0.08876 0.0
C2773 C 0.36058 0.76888 0.07521 0.0
C2774 C 0.20644 0.37 0.11345 0.0
C2775 C 0.18888 0.37895 0.11831 0.0
C2776 C 0.20758 0.35124 0.10221 0.0
C2777 C 0.19118 0.34094 0.09556 0.0
H2778 H 0.21929 0.37692 0.1193 0.0
H2779 H 0.22129 0.34435 0.09948 0.0
S2780 S 0.14203 0.36023 0.10117 0.0
N2781 N 0.15501 0.37765 0.11343 0.0
N2782 N 0.157 0.34272 0.0922 0.0
C2783 C 0.17363 0.35062 0.09911 0.0
C2784 C 0.17252 0.36956 0.11051 0.0
C2785 C 0.60034 0.20912 0.11561 0.0
C2786 C 0.58229 0.20932 0.10689 0.0
C2787 C 0.61624 0.20676 0.10309 0.0
C2788 C 0.6146 0.20442 0.08141 0.0
H2789 H 0.60212 0.20991 0.13236 0.0
H2790 H 0.62985 0.20595 0.1106 0.0
S2791 S 0.57018 0.20575 0.05104 0.0
N2792 N 0.56338 0.20854 0.07554 0.0
N2793 N 0.59339 0.20404 0.05158 0.0
C2794 C 0.59658 0.2059 0.07235 0.0
C2795 C 0.58034 0.20835 0.08525 0.0
C2796 C 0.75751 0.37588 0.85719 0.0
C2797 C 0.76898 0.37777 0.83934 0.0
C2798 C 0.75629 0.35712 0.86823 0.0
C2799 C 0.76658 0.33946 0.86202 0.0
H2800 H 0.74938 0.38903 0.8628 0.0
H2801 H 0.74746 0.35662 0.88204 0.0
S2802 S 0.79812 0.33563 0.81596 0.0
N2803 N 0.79045 0.35994 0.81557 0.0
N2804 N 0.78828 0.32471 0.83663 0.0
C2805 C 0.7781 0.34099 0.84422 0.0
C2806 C 0.77928 0.36012 0.83282 0.0
C2807 C 0.59723 0.75608 0.89232 0.0
C2808 C 0.61358 0.76639 0.88512 0.0
C2809 C 0.58154 0.75348 0.87938 0.0
C2810 C 0.58171 0.76134 0.85901 0.0
H2811 H 0.59629 0.7505 0.90822 0.0
H2812 H 0.569 0.74604 0.88557 0.0
S2813 S 0.62138 0.78733 0.83171 0.0
N2814 N 0.6293 0.78278 0.85543 0.0
N2815 N 0.59969 0.77812 0.83145 0.0
C2816 C 0.59813 0.77078 0.85128 0.0
C2817 C 0.61413 0.77324 0.86426 0.0
C2818 C 0.19401 0.63403 0.84972 0.0
C2819 C 0.19129 0.63406 0.87136 0.0
C2820 C 0.19233 0.61553 0.8383 0.0
C2821 C 0.1879 0.59655 0.84821 0.0
H2822 H 0.19714 0.64845 0.84156 0.0
H2823 H 0.19425 0.61608 0.82154 0.0
S2824 S 0.17808 0.58886 0.9044 0.0
N2825 N 0.18317 0.61395 0.90224 0.0
N2826 N 0.1801 0.57902 0.88069 0.0
C2827 C 0.1852 0.59637 0.86986 0.0
C2828 C 0.18686 0.61523 0.88148 0.0
C2829 C 0.34553 0.20175 0.86848 0.0
C2830 C 0.34299 0.19009 0.88681 0.0
C2831 C 0.36326 0.20275 0.85886 0.0
C2832 C 0.37877 0.19211 0.86739 0.0
H2833 H 0.33402 0.21074 0.86206 0.0
H2834 H 0.36499 0.21244 0.84512 0.0
S2835 S 0.378 0.15566 0.91215 0.0
N2836 N 0.3564 0.16505 0.91102 0.0
N2837 N 0.38973 0.1671 0.89302 0.0
C2838 C 0.37599 0.1793 0.88479 0.0
C2839 C 0.35803 0.17822 0.89448 0.0
C2840 C 0.59168 0.80499 0.138 0.0
C2841 C 0.58474 0.78757 0.14896 0.0
C2842 C 0.60514 0.80255 0.12197 0.0
C2843 C 0.61188 0.78262 0.11632 0.0
H2844 H 0.58624 0.82043 0.14132 0.0
H2845 H 0.60995 0.81627 0.11362 0.0
S2846 S 0.60039 0.73256 0.14257 0.0
N2847 N 0.58746 0.75011 0.15476 0.0
N2848 N 0.61206 0.7456 0.12449 0.0
C2849 C 0.60563 0.7653 0.12782 0.0
C2850 C 0.59228 0.76778 0.14421 0.0
C2851 C 0.61497 0.19557 0.84357 0.0
C2852 C 0.61207 0.20052 0.86465 0.0
C2853 C 0.59972 0.19297 0.83004 0.0
C2854 C 0.58112 0.19567 0.83711 0.0
H2855 H 0.62913 0.19397 0.83746 0.0
H2856 H 0.60254 0.18947 0.81381 0.0
S2857 S 0.56618 0.20721 0.89132 0.0
N2858 N 0.58943 0.20682 0.89234 0.0
N2859 N 0.56064 0.20238 0.86681 0.0
C2860 C 0.57807 0.2002 0.85829 0.0
C2861 C 0.59361 0.20252 0.87212 0.0
C2862 C 0.77004 0.62496 0.83725 0.0
C2863 C 0.76124 0.60535 0.8376 0.0
C2864 C 0.77241 0.63643 0.85553 0.0
C2865 C 0.76618 0.6287 0.87492 0.0
H2866 H 0.77529 0.63141 0.82272 0.0
H2867 H 0.77919 0.65155 0.8544 0.0
S2868 S 0.7438 0.5772 0.88441 0.0
N2869 N 0.74716 0.57804 0.85894 0.0
N2870 N 0.75163 0.59969 0.89348 0.0
C2871 C 0.75742 0.60902 0.87553 0.0
C2872 C 0.75494 0.59732 0.85681 0.0
C2873 C 0.345 0.76969 0.84092 0.0
C2874 C 0.33927 0.78653 0.85342 0.0
C2875 C 0.35828 0.77228 0.82509 0.0
C2876 C 0.3666 0.7918 0.82108 0.0
H2877 H 0.33936 0.75417 0.84343 0.0
H2878 H 0.36263 0.75861 0.81639 0.0
S2879 S 0.35604 0.84127 0.84844 0.0
N2880 N 0.34237 0.82384 0.86001 0.0
N2881 N 0.36774 0.82853 0.83014 0.0
C2882 C 0.36056 0.80904 0.83276 0.0
C2883 C 0.34687 0.80643 0.84902 0.0
C2884 C 0.19016 0.35548 0.8414 0.0
C2885 C 0.19358 0.37698 0.84275 0.0
C2886 C 0.18879 0.34326 0.85931 0.0
C2887 C 0.19068 0.35212 0.87922 0.0
H2888 H 0.18808 0.34816 0.82637 0.0
H2889 H 0.18594 0.32673 0.85756 0.0
S2890 S 0.19935 0.40786 0.89109 0.0
N2891 N 0.19875 0.40683 0.86536 0.0
N2892 N 0.19625 0.38363 0.89933 0.0
C2893 C 0.19465 0.37352 0.88083 0.0
C2894 C 0.19605 0.38605 0.86247 0.0
C2895 C 0.35496 0.172 0.14473 0.0
C2896 C 0.37114 0.1846 0.14456 0.0
C2897 C 0.34135 0.17393 0.12894 0.0
C2898 C 0.34351 0.18855 0.1126 0.0
H2899 H 0.35244 0.16126 0.15749 0.0
H2900 H 0.3287 0.16455 0.13005 0.0
S2901 S 0.38493 0.22255 0.10312 0.0
N2902 N 0.38972 0.21013 0.12496 0.0
N2903 N 0.36404 0.21396 0.09598 0.0
C2904 C 0.36015 0.20025 0.11163 0.0
C2905 C 0.374 0.19819 0.12742 0.0
C2906 C 0.75138 0.36104 0.12667 0.0
C2907 C 0.76806 0.36981 0.13457 0.0
C2908 C 0.75143 0.34979 0.108 0.0
C2909 C 0.76816 0.34684 0.09666 0.0
H2910 H 0.73816 0.36295 0.13493 0.0
H2911 H 0.73832 0.34311 0.10257 0.0
S2912 S 0.8153 0.36787 0.10959 0.0
N2913 N 0.8016 0.37566 0.1289 0.0
N2914 N 0.80162 0.35421 0.09395 0.0
C2915 C 0.78491 0.35555 0.10426 0.0
C2916 C 0.78488 0.3671 0.1232 0.0
C2917 C 0.19808 0.61952 0.13076 0.0
C2918 C 0.19165 0.59883 0.13064 0.0
C2919 C 0.19777 0.63157 0.11254 0.0
C2920 C 0.19107 0.6232 0.09375 0.0
H2921 H 0.20303 0.62653 0.14509 0.0
H2922 H 0.20245 0.64765 0.11321 0.0
S2923 S 0.17256 0.56986 0.0855 0.0
N2924 N 0.17841 0.57041 0.11041 0.0
N2925 N 0.17788 0.59315 0.07603 0.0
C2926 C 0.1849 0.60244 0.09335 0.0
C2927 C 0.18517 0.59019 0.11191 0.0
C2928 C 0.96539 0.17075 0.33762 0.0
C2929 C 0.9567 0.15594 0.3247 0.0
C2930 C -0.01504 0.17067 0.34011 0.0
C2931 C -0.0038 0.15635 0.32891 0.0
H2932 H 0.95763 0.18424 0.34309 0.0
H2933 H -0.00866 0.18413 0.34747 0.0
S2934 S -0.02119 0.10757 0.30489 0.0
N2935 N 0.95963 0.12152 0.30924 0.0
N2936 N -0.00338 0.12162 0.31367 0.0
C2937 C -0.01278 0.13846 0.32117 0.0
C2938 C 0.96727 0.1384 0.31878 0.0
C2939 C 0.79452 0.00261 0.29102 0.0
C2940 C 0.79123 0.01575 0.30806 0.0
C2941 C 0.79654 0.98119 0.29385 0.0
C2942 C 0.79531 0.97226 0.31379 0.0
H2943 H 0.79398 0.00868 0.27525 0.0
H2944 H 0.7976 0.97134 0.28016 0.0
S2945 S 0.79091 0.00059 0.36374 0.0
N2946 N 0.78966 0.01904 0.34574 0.0
N2947 N 0.7936 0.9783 0.3511 0.0
C2948 C 0.79386 0.98538 0.33116 0.0
C2949 C 0.79174 0.00735 0.32826 0.0
C2950 C -0.01458 0.83445 0.31692 0.0
C2951 C -0.0031 0.81728 0.32158 0.0
C2952 C 0.96586 0.83316 0.3195 0.0
C2953 C 0.95736 0.81439 0.32611 0.0
H2954 H -0.0087 0.84791 0.309 0.0
H2955 H 0.95732 0.84581 0.31355 0.0
S2956 S -0.01792 0.76693 0.345 0.0
N2957 N -0.00103 0.78279 0.33719 0.0
N2958 N 0.9624 0.78015 0.34188 0.0
C2959 C 0.96905 0.7986 0.33429 0.0
C2960 C -0.01111 0.80006 0.3319 0.0
C2961 C 0.14498 0.97014 0.31129 0.0
C2962 C 0.16151 0.96078 0.31883 0.0
C2963 C 0.14121 -0.00879 0.31537 0.0
C2964 C 0.15403 0.00336 0.32681 0.0
H2965 H 0.13616 0.962 0.30021 0.0
H2966 H 0.12984 -0.00138 0.30693 0.0
S2967 S 0.19505 0.98403 0.35636 0.0
N2968 N 0.18755 0.96352 0.34321 0.0
N2969 N 0.1805 0.00324 0.35052 0.0
C2970 C 0.16848 -0.00682 0.33753 0.0
C2971 C 0.17231 0.97179 0.33349 0.0
C2972 C 0.9664 0.80173 0.63991 0.0
C2973 C 0.95682 0.81593 0.65281 0.0
C2974 C -0.0139 0.80133 0.63961 0.0
C2975 C -0.00346 0.81524 0.65201 0.0
H2976 H 0.95892 0.78883 0.63283 0.0
H2977 H -0.00699 0.78819 0.63221 0.0
S2978 S -0.02237 0.86123 0.68001 0.0
N2979 N 0.95879 0.84837 0.67211 0.0
N2980 N -0.00407 0.84801 0.67113 0.0
C2981 C -0.01293 0.83243 0.66067 0.0
C2982 C 0.96702 0.83264 0.66124 0.0
C2983 C 0.14856 0.98453 0.65719 0.0
C2984 C 0.16496 0.97218 0.65652 0.0
C2985 C 0.1496 0.00646 0.65655 0.0
C2986 C 0.16706 0.01679 0.65499 0.0
H2987 H 0.13495 0.97732 0.65974 0.0
H2988 H 0.13676 0.01536 0.65854 0.0
S2989 S 0.21407 -0.00829 0.65031 0.0
N2990 N 0.19904 0.97224 0.65231 0.0
N2991 N 0.20095 0.01285 0.65062 0.0
C2992 C 0.18335 0.00456 0.65231 0.0
C2993 C 0.18231 0.9824 0.6532 0.0
C2994 C 0.96897 0.16601 0.64633 0.0
C2995 C 0.957 0.15814 0.66189 0.0
C2996 C -0.01166 0.16757 0.64982 0.0
C2997 C -0.00395 0.16176 0.6692 0.0
H2998 H 0.96311 0.17357 0.6327 0.0
H2999 H -0.00326 0.17584 0.63836 0.0
S3000 S 0.97122 0.13369 0.71175 0.0
N3001 N 0.95468 0.13912 0.6946 0.0
N3002 N -0.00898 0.1426 0.70153 0.0
C3003 C -0.01531 0.15034 0.68311 0.0
C3004 C 0.96507 0.14829 0.67927 0.0
C3005 C 0.77625 0.97259 0.6408 0.0
C3006 C 0.79025 0.96041 0.65049 0.0
C3007 C 0.77866 -0.00594 0.63813 0.0
C3008 C 0.79522 0.00387 0.64475 0.0
H3009 H 0.76249 0.96608 0.63756 0.0
H3010 H 0.76664 0.00329 0.63338 0.0
S3011 S 0.83884 0.97768 0.66254 0.0
N3012 N 0.82322 0.95868 0.6606 0.0
N3013 N 0.82788 -0.00089 0.65505 0.0
C3014 C 0.81068 -0.00873 0.65014 0.0
C3015 C 0.80814 0.96938 0.65321 0.0
C3016 C 0.30555 0.97167 0.15955 0.0
C3017 C 0.2885 0.96202 0.15399 0.0
C3018 C 0.3083 -0.00697 0.156 0.0
C3019 C 0.294 0.00522 0.14705 0.0
H3020 H 0.31586 0.96338 0.16878 0.0
H3021 H 0.32049 0.00044 0.16291 0.0
S3022 S 0.25013 0.98586 0.12299 0.0
N3023 N 0.25968 0.965 0.13376 0.0
N3024 N 0.26474 0.00533 0.12775 0.0
C3025 C 0.27847 -0.00491 0.1383 0.0
C3026 C 0.27573 0.97335 0.14166 0.0
C3027 C 0.96705 0.33566 0.17312 0.0
C3028 C 0.95655 0.32374 0.15886 0.0
C3029 C -0.0134 0.33343 0.17417 0.0
C3030 C -0.00403 0.31947 0.1608 0.0
H3031 H 0.95998 0.34385 0.18567 0.0
H3032 H -0.00617 0.34025 0.18735 0.0
S3033 S 0.97592 0.29416 0.1141 0.0
N3034 N 0.95764 0.30473 0.12606 0.0
N3035 N -0.00552 0.30016 0.12834 0.0
C3036 C -0.01381 0.31169 0.14355 0.0
C3037 C 0.96632 0.31423 0.14232 0.0
C3038 C 0.64321 0.97881 0.15946 0.0
C3039 C 0.65729 0.96694 0.1496 0.0
C3040 C 0.64613 -1e-05 0.1637 0.0
C3041 C 0.66311 0.00977 0.15796 0.0
H3042 H 0.63113 0.97117 0.16649 0.0
H3043 H 0.63602 0.00797 0.17354 0.0
S3044 S 0.70065 0.98704 0.12463 0.0
N3045 N 0.68608 0.96745 0.12924 0.0
N3046 N 0.69145 0.0075 0.13654 0.0
C3047 C 0.67557 -0.0011 0.14475 0.0
C3048 C 0.67266 0.97733 0.14068 0.0
C3049 C 0.96553 0.6641 0.14686 0.0
C3050 C 0.95498 0.65403 0.16249 0.0
C3051 C -0.01483 0.66265 0.14658 0.0
C3052 C -0.00538 0.65158 0.16232 0.0
H3053 H 0.95884 0.67521 0.13652 0.0
H3054 H -0.00712 0.67295 0.1362 0.0
S3055 S 0.97314 0.61601 0.20117 0.0
N3056 N 0.95509 0.62733 0.18962 0.0
N3057 N -0.00789 0.62534 0.18947 0.0
C3058 C -0.01589 0.63806 0.17505 0.0
C3059 C 0.96412 0.63919 0.17511 0.0
C3060 C 0.31006 0.98011 0.8174 0.0
C3061 C 0.29647 0.96744 0.82717 0.0
C3062 C 0.30668 0.00143 0.81421 0.0
C3063 C 0.28967 0.01049 0.8209 0.0
H3064 H 0.3221 0.97309 0.80973 0.0
H3065 H 0.31636 0.01012 0.80441 0.0
S3066 S 0.25303 0.98505 0.85363 0.0
N3067 N 0.2679 0.96611 0.84783 0.0
N3068 N 0.26176 0.00636 0.84275 0.0
C3069 C 0.2777 -0.00137 0.8339 0.0
C3070 C 0.28104 0.97695 0.8368 0.0
C3071 C 0.96718 0.30164 0.83679 0.0
C3072 C 0.95674 0.31472 0.82356 0.0
C3073 C -0.01316 0.30162 0.83572 0.0
C3074 C -0.00386 0.31469 0.82139 0.0
H3075 H 0.96028 0.28902 0.8451 0.0
H3076 H -0.00571 0.28901 0.84333 0.0
S3077 S 0.97541 0.35954 0.79335 0.0
N3078 N 0.95719 0.347 0.80343 0.0
N3079 N -0.00574 0.34657 0.80099 0.0
C3080 C -0.01391 0.33141 0.81278 0.0
C3081 C 0.96612 0.33162 0.81413 0.0
C3082 C 0.64319 0.97101 0.80425 0.0
C3083 C 0.65488 0.95942 0.81749 0.0
C3084 C 0.64206 -0.00727 0.80623 0.0
C3085 C 0.65259 0.00332 0.82145 0.0
H3086 H 0.63686 0.96374 0.79074 0.0
H3087 H 0.63468 0.00142 0.79428 0.0
S3088 S 0.68024 0.9792 0.86377 0.0
N3089 N 0.67331 0.95932 0.8493 0.0
N3090 N 0.67151 0.00037 0.85268 0.0
C3091 C 0.66207 -0.00837 0.83652 0.0
C3092 C 0.66303 0.96951 0.83468 0.0
C3093 C -0.01148 0.64176 0.80238 0.0
C3094 C -0.00222 0.65689 0.81447 0.0
C3095 C 0.96901 0.63921 0.80402 0.0
C3096 C 0.95842 0.65201 0.8175 0.0
H3097 H -0.00427 0.63407 0.78962 0.0
H3098 H 0.96204 0.62975 0.79237 0.0
S3099 S -0.02221 0.68447 0.86013 0.0
N3100 N -0.0037 0.67795 0.8459 0.0
N3101 N 0.95953 0.67299 0.84911 0.0
C3102 C 0.96819 0.66277 0.83321 0.0
C3103 C -0.01197 0.66548 0.83148 0.0
C3104 C 0.17514 0.3267 0.0009 0.0
C3105 C 0.16256 0.31393 0.01218 0.0
C3106 C 0.17249 0.33051 0.97968 0.0
C3107 C 0.1571 0.32184 0.96918 0.0
H3108 H 0.18807 0.33211 0.00798 0.0
H3109 H 0.18357 0.33835 0.97104 0.0
S3110 S 0.11755 0.29218 -0.00727 0.0
N3111 N 0.13221 0.29627 0.01223 0.0
N3112 N 0.1271 0.30378 0.97226 0.0
C3113 C 0.14289 0.31199 0.98093 0.0
C3114 C 0.14567 0.30789 0.00256 0.0
C3115 C 0.17344 0.6428 -0.00893 0.0
C3116 C 0.15938 0.65325 0.00229 0.0
C3117 C 0.17542 0.6459 0.9696 0.0
C3118 C 0.16366 0.65992 0.95885 0.0
H3119 H 0.18402 0.63378 -0.00079 0.0
H3120 H 0.18739 0.6389 0.96179 0.0
S3121 S 0.12288 0.68853 0.98087 0.0
N3122 N 0.13181 0.67567 0.00083 0.0
N3123 N 0.13588 0.682 0.96051 0.0
C3124 C 0.14815 0.66845 0.96946 0.0
C3125 C 0.14596 0.66501 -0.00871 0.0
C3126 C 0.30187 0.15532 0.0037 0.0
C3127 C 0.28512 0.15783 0.01515 0.0
C3128 C 0.30175 0.15565 0.9818 0.0
C3129 C 0.28493 0.15899 0.97064 0.0
H3130 H 0.31517 0.15361 0.01172 0.0
H3131 H 0.31508 0.15444 0.97365 0.0
S3132 S 0.23724 0.16606 -0.00651 0.0
N3133 N 0.2512 0.1629 0.01367 0.0
N3134 N 0.25108 0.16417 0.97294 0.0
C3135 C 0.26806 0.16074 0.982 0.0
C3136 C 0.26813 0.16003 0.00415 0.0
C3137 C 0.77209 0.33124 -0.00983 0.0
C3138 C 0.78938 0.3266 -0.0004 0.0
C3139 C 0.76973 0.32895 0.9687 0.0
C3140 C 0.78456 0.32174 0.95593 0.0
H3141 H 0.75977 0.33445 -0.00038 0.0
H3142 H 0.75566 0.33078 0.96252 0.0
S3143 S 0.83434 0.31559 0.97214 0.0
N3144 N 0.82286 0.32068 -0.00603 0.0
N3145 N 0.8184 0.31608 0.95348 0.0
C3146 C 0.8027 0.32085 0.96465 0.0
C3147 C 0.80512 0.32341 -0.0134 0.0
C3148 C 0.66681 0.83587 0.98151 0.0
C3149 C 0.65339 0.82378 0.97108 0.0
C3150 C 0.66849 0.83468 0.0032 0.0
C3151 C 0.65724 0.82081 0.01493 0.0
H3152 H 0.67726 0.84457 0.97274 0.0
H3153 H 0.68023 0.84263 0.01046 0.0
S3154 S 0.61782 0.78873 -0.00497 0.0
N3155 N 0.62657 0.80038 0.97417 0.0
N3156 N 0.63025 0.79747 0.01488 0.0
C3157 C 0.64211 0.81091 0.00497 0.0
C3158 C 0.64014 0.81248 0.98292 0.0
C3159 C 0.81308 0.66359 -0.00082 0.0
C3160 C 0.79717 0.65497 0.00907 0.0
C3161 C 0.8156 0.66143 0.97759 0.0
C3162 C 0.8022 0.65078 0.96548 0.0
H3163 H 0.8222 0.67422 0.00752 0.0
H3164 H 0.82656 0.67055 0.9701 0.0
S3165 S 0.7622 0.61939 0.98519 0.0
N3166 N 0.77104 0.63059 0.00616 0.0
N3167 N 0.77553 0.62716 0.96549 0.0
C3168 C 0.78823 0.63922 0.97571 0.0
C3169 C 0.7858 0.64114 -0.00235 0.0
C3170 C 0.29729 0.82346 0.96706 0.0
C3171 C 0.28227 0.81325 0.95718 0.0
C3172 C 0.29796 0.82474 -0.01104 0.0
C3173 C 0.28364 0.81583 0.00143 0.0
H3174 H 0.30856 0.83026 0.95788 0.0
H3175 H 0.30997 0.83219 -0.00383 0.0
S3176 S 0.24239 0.78548 0.98246 0.0
N3177 N 0.25363 0.7929 0.96123 0.0
N3178 N 0.25455 0.79549 0.00183 0.0
C3179 C 0.26857 0.80564 -0.00856 0.0
C3180 C 0.26803 0.80424 0.96944 0.0
C3181 C 0.65547 0.15056 -0.01011 0.0
C3182 C 0.67161 0.15337 0.00235 0.0
C3183 C 0.65636 0.15287 0.96809 0.0
C3184 C 0.67348 0.15767 0.95815 0.0
H3185 H 0.64184 0.14796 -0.00293 0.0
H3186 H 0.64352 0.15172 0.95911 0.0
S3187 S 0.71984 0.16626 0.98347 0.0
N3188 N 0.70531 0.1605 0.00267 0.0
N3189 N 0.70691 0.1649 0.9623 0.0
C3190 C 0.68984 0.15936 0.97034 0.0
C3191 C 0.68894 0.15708 -0.00771 0.0
C3192 C 0.80491 0.50844 0.81685 0.0
C3193 C 0.78731 0.51718 0.82177 0.0
C3194 C 0.80798 0.48702 0.81949 0.0
C3195 C 0.79335 0.474 0.8267 0.0
H3196 H 0.81539 0.51742 0.80842 0.0
H3197 H 0.82062 0.48036 0.81274 0.0
S3198 S 0.74861 0.49111 0.85079 0.0
N3199 N 0.75804 0.51267 0.8412 0.0
N3200 N 0.76376 0.47226 0.8456 0.0
C3201 C 0.77758 0.48332 0.83591 0.0
C3202 C 0.77451 0.50509 0.83346 0.0
C3203 C 0.13903 0.49391 0.81187 0.0
C3204 C 0.15153 0.5059 0.82392 0.0
C3205 C 0.14189 0.47239 0.80929 0.0
C3206 C 0.15725 0.46246 0.81882 0.0
H3207 H 0.12859 0.50154 0.80224 0.0
H3208 H 0.1335 0.46416 0.79787 0.0
S3209 S 0.18999 0.48593 0.85703 0.0
N3210 N 0.17688 0.50564 0.84906 0.0
N3211 N 0.18203 0.46512 0.84469 0.0
C3212 C 0.16779 0.47372 0.83351 0.0
C3213 C 0.16499 0.49555 0.83594 0.0
C3214 C 0.16354 0.48104 0.14218 0.0
C3215 C 0.15525 0.4684 0.15752 0.0
C3216 C 0.16533 0.50263 0.14525 0.0
C3217 C 0.15901 0.51207 0.1638 0.0
H3218 H 0.16995 0.47402 0.12854 0.0
H3219 H 0.17312 0.51172 0.13386 0.0
S3220 S 0.1363 0.48552 0.2086 0.0
N3221 N 0.14018 0.46674 0.19153 0.0
N3222 N 0.14368 0.50724 0.19733 0.0
C3223 C 0.14953 0.49976 0.17857 0.0
C3224 C 0.14767 0.47786 0.17543 0.0
C3225 C 0.80188 0.49686 0.14989 0.0
C3226 C 0.78581 0.50729 0.15762 0.0
C3227 C 0.80337 0.475 0.15101 0.0
C3228 C 0.78882 0.46302 0.15983 0.0
H3229 H 0.81366 0.50566 0.14369 0.0
H3230 H 0.81602 0.46748 0.14529 0.0
S3231 S 0.74417 0.48239 0.18277 0.0
N3232 N 0.75507 0.50347 0.17431 0.0
N3233 N 0.75825 0.46289 0.17674 0.0
C3234 C 0.77265 0.47316 0.1672 0.0
C3235 C 0.77101 0.49518 0.16594 0.0
C3236 C 0.27859 0.49237 0.63979 0.0
C3237 C 0.29252 0.50331 0.65066 0.0
C3238 C 0.27615 0.47092 0.64289 0.0
C3239 C 0.28737 0.45993 0.65722 0.0
H3240 H 0.26845 0.50074 0.63039 0.0
H3241 H 0.26431 0.46331 0.63549 0.0
S3242 S 0.32704 0.48137 0.68793 0.0
N3243 N 0.31898 0.50143 0.67453 0.0
N3244 N 0.31414 0.46121 0.68073 0.0
C3245 C 0.30262 0.47031 0.6665 0.0
C3246 C 0.30525 0.49209 0.66312 0.0
C3247 C 0.67531 0.50107 0.64549 0.0
C3248 C 0.66284 0.51211 0.65859 0.0
C3249 C 0.6731 0.47967 0.64202 0.0
C3250 C 0.65809 0.46873 0.65112 0.0
H3251 H 0.68782 0.50861 0.63934 0.0
H3252 H 0.68404 0.47132 0.63368 0.0
S3253 S 0.62007 0.49074 0.68416 0.0
N3254 N 0.63381 0.51085 0.67877 0.0
N3255 N 0.62936 0.47067 0.67173 0.0
C3256 C 0.64431 0.47997 0.66219 0.0
C3257 C 0.64672 0.50173 0.66603 0.0
C3258 C 0.29724 0.48553 0.32273 0.0
C3259 C 0.28177 0.47334 0.31625 0.0
C3260 C 0.29716 0.50743 0.32044 0.0
C3261 C 0.28156 0.51761 0.31166 0.0
H3262 H 0.30973 0.47806 0.32885 0.0
H3263 H 0.30939 0.51633 0.32514 0.0
S3264 S 0.23839 0.49288 0.29028 0.0
N3265 N 0.2508 0.47347 0.29987 0.0
N3266 N 0.25098 0.51384 0.29512 0.0
C3267 C 0.2661 0.50556 0.30519 0.0
C3268 C 0.26606 0.48363 0.30769 0.0
C3269 C 0.64371 0.48832 0.31236 0.0
C3270 C 0.65682 0.50036 0.32354 0.0
C3271 C 0.64635 0.4668 0.30983 0.0
C3272 C 0.66207 0.45688 0.31861 0.0
H3273 H 0.63284 0.49586 0.30326 0.0
H3274 H 0.63742 0.45855 0.29895 0.0
S3275 S 0.69612 0.48037 0.35541 0.0
N3276 N 0.68292 0.50014 0.34774 0.0
N3277 N 0.68768 0.45953 0.34351 0.0
C3278 C 0.67319 0.46816 0.33277 0.0
C3279 C 0.67063 0.49004 0.3351 0.0
C3280 C 0.14271 0.81615 0.48245 0.0
C3281 C 0.1563 0.82744 0.47109 0.0
C3282 C 0.14562 0.81118 0.50347 0.0
C3283 C 0.16213 0.81756 0.5137 0.0
H3284 H 0.13104 0.80878 0.47448 0.0
H3285 H 0.13588 0.80051 0.51098 0.0
S3286 S 0.19857 0.85334 0.49242 0.0
N3287 N 0.18435 0.84891 0.47261 0.0
N3288 N 0.18966 0.84021 0.51233 0.0
C3289 C 0.17419 0.83165 0.50334 0.0
C3290 C 0.17128 0.8365 0.48193 0.0
C3291 C 0.14586 0.1644 0.47064 0.0
C3292 C 0.16224 0.15716 0.46062 0.0
C3293 C 0.14297 0.1607 0.49198 0.0
C3294 C 0.15645 0.14981 0.50377 0.0
H3295 H 0.13634 0.17487 0.46264 0.0
H3296 H 0.13146 0.16868 0.49971 0.0
S3297 S 0.19828 0.12216 0.48343 0.0
N3298 N 0.18943 0.13419 0.46292 0.0
N3299 N 0.18419 0.1279 0.50314 0.0
C3300 C 0.17122 0.1399 0.49328 0.0
C3301 C 0.17408 0.14343 0.4716 0.0
C3302 C 0.28999 0.65175 0.50026 0.0
C3303 C 0.29517 0.66967 0.51149 0.0
C3304 C 0.2941 0.65 0.47891 0.0
C3305 C 0.30345 0.66616 0.46819 0.0
H3306 H 0.28151 0.63976 0.50766 0.0
H3307 H 0.28845 0.63685 0.47038 0.0
S3308 S 0.31988 0.7162 0.49071 0.0
N3309 N 0.31048 0.7035 0.51059 0.0
N3310 N 0.31826 0.70026 0.47061 0.0
C3311 C 0.30996 0.68338 0.47967 0.0
C3312 C 0.30573 0.68517 0.50133 0.0
C3313 C 0.80873 0.82037 0.48897 0.0
C3314 C 0.79411 0.82927 0.50088 0.0
C3315 C 0.80632 0.81659 0.46764 0.0
C3316 C 0.78936 0.82193 0.4578 0.0
H3317 H 0.82086 0.81356 0.49657 0.0
H3318 H 0.81674 0.80722 0.4596 0.0
S3319 S 0.75041 0.85298 0.4807 0.0
N3320 N 0.76476 0.84849 0.50039 0.0
N3321 N 0.76041 0.84214 0.46011 0.0
C3322 C 0.77641 0.83446 0.46876 0.0
C3323 C 0.77877 0.838 0.49045 0.0
C3324 C 0.6492 0.31764 0.50399 0.0
C3325 C 0.6671 0.32115 0.51263 0.0
C3326 C 0.64585 0.32194 0.48293 0.0
C3327 C 0.6604 0.32954 0.47008 0.0
H3328 H 0.63847 0.30934 0.51273 0.0
H3329 H 0.63284 0.31632 0.47616 0.0
S3330 S 0.7067 0.34935 0.48733 0.0
N3331 N 0.69728 0.33876 0.50842 0.0
N3332 N 0.69088 0.34657 0.46874 0.0
C3333 C 0.67685 0.33692 0.47951 0.0
C3334 C 0.6803 0.33262 0.50089 0.0
C3335 C 0.80961 0.16159 0.48327 0.0
C3336 C 0.79707 0.14956 0.47132 0.0
C3337 C 0.80634 0.16477 0.50458 0.0
C3338 C 0.79056 0.15584 0.51444 0.0
H3339 H 0.82045 0.17081 0.47568 0.0
H3340 H 0.81492 0.17615 0.51266 0.0
S3341 S 0.75784 0.11722 0.49131 0.0
N3342 N 0.77139 0.12466 0.47167 0.0
N3343 N 0.76548 0.13007 0.51193 0.0
C3344 C 0.77996 0.14102 0.50334 0.0
C3345 C 0.78318 0.13799 0.48165 0.0
C3346 C 0.2823 0.3296 0.47009 0.0
C3347 C 0.2943 0.31583 0.4593 0.0
C3348 C 0.28534 0.33425 0.49106 0.0
C3349 C 0.3004 0.32519 0.50183 0.0
H3350 H 0.26939 0.33501 0.46297 0.0
H3351 H 0.27446 0.34257 0.49952 0.0
S3352 S 0.33919 0.29398 0.47885 0.0
N3353 N 0.32434 0.29762 0.45944 0.0
N3354 N 0.33013 0.30655 0.49897 0.0
C3355 C 0.31439 0.31478 0.49024 0.0
C3356 C 0.31124 0.30989 0.46884 0.0
C3357 C 0.6432 0.66115 0.46984 0.0
C3358 C 0.6591 0.65285 0.45973 0.0
C3359 C 0.64055 0.65805 0.49129 0.0
C3360 C 0.65392 0.64689 0.50299 0.0
H3361 H 0.63422 0.67224 0.46191 0.0
H3362 H 0.62973 0.66706 0.49909 0.0
S3363 S 0.69322 0.61535 0.48217 0.0
N3364 N 0.68466 0.62765 0.46164 0.0
N3365 N 0.67998 0.62255 0.50211 0.0
C3366 C 0.66755 0.63529 0.49233 0.0
C3367 C 0.6701 0.63815 0.47054 0.0
C3368 C 0.47891 0.16173 0.82629 0.0
C3369 C 0.49303 0.15818 0.81148 0.0
C3370 C 0.46 0.16203 0.82032 0.0
C3371 C 0.45489 0.15969 0.7992 0.0
H3372 H 0.48257 0.16663 0.84191 0.0
H3373 H 0.44969 0.16663 0.83191 0.0
S3374 S 0.48679 0.14508 0.75569 0.0
N3375 N 0.50069 0.14783 0.77603 0.0
N3376 N 0.46527 0.14927 0.7645 0.0
C3377 C 0.46873 0.15299 0.785 0.0
C3378 C 0.48787 0.15203 0.79127 0.0
C3379 C 0.48479 0.80782 0.83787 0.0
C3380 C 0.49425 0.82125 0.82399 0.0
C3381 C 0.46508 0.80763 0.83853 0.0
C3382 C 0.45472 0.82063 0.82504 0.0
H3383 H 0.49223 0.7951 0.84531 0.0
H3384 H 0.45823 0.79482 0.84658 0.0
S3385 S 0.47351 0.86656 0.79671 0.0
N3386 N 0.49235 0.85363 0.80444 0.0
N3387 N 0.45522 0.8535 0.80596 0.0
C3388 C 0.4641 0.83792 0.81638 0.0
C3389 C 0.48413 0.83805 0.81561 0.0
C3390 C 0.48607 0.83028 0.16461 0.0
C3391 C 0.49512 0.81293 0.15563 0.0
C3392 C 0.4664 0.83131 0.16516 0.0
C3393 C 0.45551 0.81532 0.15631 0.0
H3394 H 0.49387 0.84124 0.17409 0.0
H3395 H 0.45981 0.84289 0.17509 0.0
S3396 S 0.47287 0.77218 0.12302 0.0
N3397 N 0.49209 0.7837 0.13171 0.0
N3398 N 0.45509 0.7858 0.13251 0.0
C3399 C 0.46447 0.80095 0.14306 0.0
C3400 C 0.48446 0.79974 0.14274 0.0
C3401 C 0.48832 0.18049 0.14905 0.0
C3402 C 0.49733 0.16199 0.15486 0.0
C3403 C 0.46883 0.18146 0.14798 0.0
C3404 C 0.45761 0.16408 0.15345 0.0
H3405 H 0.49618 0.19496 0.14781 0.0
H3406 H 0.46276 0.19679 0.14567 0.0
S3407 S 0.47513 0.11002 0.15983 0.0
N3408 N 0.49441 0.1245 0.15912 0.0
N3409 N 0.4572 0.12629 0.15741 0.0
C3410 C 0.4666 0.14464 0.15542 0.0
C3411 C 0.48667 0.14364 0.15632 0.0
C3412 C 0.46961 0.32377 0.66206 0.0
C3413 C 0.45839 0.30577 0.66235 0.0
C3414 C 0.48921 0.32217 0.65939 0.0
C3415 C 0.49801 0.30249 0.65763 0.0
H3416 H 0.46344 0.33886 0.66537 0.0
H3417 H 0.4976 0.33621 0.66084 0.0
S3418 S 0.47373 0.251 0.6558 0.0
N3419 N 0.45675 0.26819 0.65902 0.0
N3420 N 0.4932 0.26489 0.65379 0.0
C3421 C 0.48642 0.28466 0.65567 0.0
C3422 C 0.46666 0.28638 0.65834 0.0
C3423 C 0.48485 0.63843 0.66693 0.0
C3424 C 0.49553 0.65289 0.65536 0.0
C3425 C 0.46517 0.63877 0.66613 0.0
C3426 C 0.45591 0.65387 0.65401 0.0
H3427 H 0.49151 0.62912 0.67893 0.0
H3428 H 0.45746 0.62975 0.67764 0.0
S3429 S 0.47758 0.688 0.61402 0.0
N3430 N 0.49558 0.67704 0.626 0.0
N3431 N 0.45851 0.67802 0.62497 0.0
C3432 C 0.46641 0.66467 0.63889 0.0
C3433 C 0.48643 0.6641 0.63945 0.0
C3434 C 0.46563 0.30232 0.33391 0.0
C3435 C 0.45544 0.31519 0.32019 0.0
C3436 C 0.48519 0.30428 0.3355 0.0
C3437 C 0.49483 0.31876 0.3229 0.0
H3438 H 0.45896 0.28884 0.341 0.0
H3439 H 0.4928 0.292 0.34344 0.0
S3440 S 0.4736 0.36255 0.29369 0.0
N3441 N 0.45552 0.34794 0.30088 0.0
N3442 N 0.49245 0.3512 0.30354 0.0
C3443 C 0.48436 0.33491 0.31377 0.0
C3444 C 0.46443 0.3331 0.31232 0.0
C3445 C 0.46938 0.64407 0.30996 0.0
C3446 C 0.45853 0.65885 0.32086 0.0
C3447 C 0.48906 0.64547 0.30962 0.0
C3448 C 0.49825 0.66188 0.31998 0.0
H3449 H 0.46262 0.63339 0.29924 0.0
H3450 H 0.49669 0.63572 0.29871 0.0
S3451 S 0.47655 0.69906 0.35709 0.0
N3452 N 0.45859 0.68604 0.34724 0.0
N3453 N 0.49561 0.6889 0.34635 0.0
C3454 C 0.48779 0.67383 0.33426 0.0
C3455 C 0.46779 0.6722 0.33482 0.0
loop_
_geom_bond_atom_site_label_1
_geom_bond_atom_site_label_2
_geom_bond_distance
_geom_bond_site_symmetry_2
_ccdc_geom_bond_type
Mg0 O1 2.028 . S
Mg0 O7 1.986 . S
Mg0 O9 2.114 . S
Mg0 O10 2.251 . S
Mg0 O13 2.010 . S
O1 Mg0 2.028 . S
O1 C4 1.250 . S
O2 Mg3 2.028 . S
O2 C4 1.248 . S
Mg3 O2 2.028 . S
Mg3 O8 2.032 . S
Mg3 O10 2.079 . S
C4 O1 1.250 . S
C4 O2 1.248 . S
C5 O6 1.264 . S
C5 O13 1.249 . S
O6 C5 1.264 . S
O7 Mg0 1.986 . S
O7 C11 1.246 . S
O8 Mg3 2.032 . S
O8 C11 1.259 . S
O9 Mg0 2.114 . S
O9 C12 1.252 . S
O10 Mg0 2.251 . S
O10 Mg3 2.079 . S
O10 C12 1.273 . S
C11 O7 1.246 . S
C11 O8 1.259 . S
C12 O9 1.252 . S
C12 O10 1.273 . S
O13 Mg0 2.010 . S
O13 C5 1.249 . S
Mg14 O15 2.028 . S
Mg14 O21 1.986 . S
Mg14 O23 2.114 . S
Mg14 O24 2.251 . S
Mg14 O27 2.010 . S
O15 Mg14 2.028 . S
O15 C18 1.250 . S
O16 Mg17 2.028 . S
O16 C18 1.248 . S
Mg17 O16 2.028 . S
Mg17 O22 2.032 . S
Mg17 O24 2.079 . S
C18 O15 1.250 . S
C18 O16 1.248 . S
C19 O20 1.264 . S
C19 O27 1.249 . S
O20 C19 1.264 . S
O21 Mg14 1.986 . S
O21 C25 1.246 . S
O22 Mg17 2.032 . S
O22 C25 1.259 . S
O23 Mg14 2.114 . S
O23 C26 1.252 . S
O24 Mg14 2.251 . S
O24 Mg17 2.079 . S
O24 C26 1.273 . S
C25 O21 1.246 . S
C25 O22 1.259 . S
C26 O23 1.252 . S
C26 O24 1.273 . S
O27 Mg14 2.010 . S
O27 C19 1.249 . S
Mg28 O29 2.028 . S
Mg28 O35 1.986 . S
Mg28 O37 2.114 . S
Mg28 O38 2.251 . S
Mg28 O41 2.010 . S
O29 Mg28 2.028 . S
O29 C32 1.250 . S
O30 Mg31 2.028 . S
O30 C32 1.248 . S
Mg31 O30 2.028 . S
Mg31 O36 2.032 . S
Mg31 O38 2.079 . S
C32 O29 1.250 . S
C32 O30 1.248 . S
C33 O34 1.264 . S
C33 O41 1.249 . S
O34 C33 1.264 . S
O35 Mg28 1.986 . S
O35 C39 1.246 . S
O36 Mg31 2.032 . S
O36 C39 1.259 . S
O37 Mg28 2.114 . S
O37 C40 1.252 . S
O38 Mg28 2.251 . S
O38 Mg31 2.079 . S
O38 C40 1.273 . S
C39 O35 1.246 . S
C39 O36 1.259 . S
C40 O37 1.252 . S
C40 O38 1.273 . S
O41 Mg28 2.010 . S
O41 C33 1.249 . S
Mg42 O43 2.028 . S
Mg42 O49 1.986 . S
Mg42 O51 2.114 . S
Mg42 O52 2.251 . S
Mg42 O55 2.010 . S
O43 Mg42 2.028 . S
O43 C46 1.250 . S
O44 Mg45 2.028 . S
O44 C46 1.248 . S
Mg45 O44 2.028 . S
Mg45 O50 2.032 . S
Mg45 O52 2.079 . S
C46 O43 1.250 . S
C46 O44 1.248 . S
C47 O48 1.264 . S
C47 O55 1.249 . S
O48 C47 1.264 . S
O49 Mg42 1.986 . S
O49 C53 1.246 . S
O50 Mg45 2.032 . S
O50 C53 1.259 . S
O51 Mg42 2.114 . S
O51 C54 1.252 . S
O52 Mg42 2.251 . S
O52 Mg45 2.079 . S
O52 C54 1.273 . S
C53 O49 1.246 . S
C53 O50 1.259 . S
C54 O51 1.252 . S
C54 O52 1.273 . S
O55 Mg42 2.010 . S
O55 C47 1.249 . S
Mg56 O57 2.028 . S
Mg56 O63 1.986 . S
Mg56 O65 2.114 . S
Mg56 O66 2.251 . S
Mg56 O69 2.010 . S
O57 Mg56 2.028 . S
O57 C60 1.250 . S
O58 Mg59 2.028 . S
O58 C60 1.248 . S
Mg59 O58 2.028 . S
Mg59 O64 2.032 . S
Mg59 O66 2.079 . S
C60 O57 1.250 . S
C60 O58 1.248 . S
C61 O62 1.264 . S
C61 O69 1.249 . S
O62 C61 1.264 . S
O63 Mg56 1.986 . S
O63 C67 1.246 . S
O64 Mg59 2.032 . S
O64 C67 1.259 . S
O65 Mg56 2.114 . S
O65 C68 1.252 . S
O66 Mg56 2.251 . S
O66 Mg59 2.079 . S
O66 C68 1.273 . S
C67 O63 1.246 . S
C67 O64 1.259 . S
C68 O65 1.252 . S
C68 O66 1.273 . S
O69 Mg56 2.010 . S
O69 C61 1.249 . S
Mg70 O71 2.028 . S
Mg70 O77 1.986 . S
Mg70 O79 2.114 . S
Mg70 O80 2.251 . S
Mg70 O83 2.010 . S
O71 Mg70 2.028 . S
O71 C74 1.250 . S
O72 Mg73 2.028 . S
O72 C74 1.248 . S
Mg73 O72 2.028 . S
Mg73 O78 2.032 . S
Mg73 O80 2.079 . S
C74 O71 1.250 . S
C74 O72 1.248 . S
C75 O76 1.264 . S
C75 O83 1.249 . S
O76 C75 1.264 . S
O77 Mg70 1.986 . S
O77 C81 1.246 . S
O78 Mg73 2.032 . S
O78 C81 1.259 . S
O79 Mg70 2.114 . S
O79 C82 1.252 . S
O80 Mg70 2.251 . S
O80 Mg73 2.079 . S
O80 C82 1.273 . S
C81 O77 1.246 . S
C81 O78 1.259 . S
C82 O79 1.252 . S
C82 O80 1.273 . S
O83 Mg70 2.010 . S
O83 C75 1.249 . S
Mg84 O85 2.028 . S
Mg84 O91 1.986 . S
Mg84 O93 2.114 . S
Mg84 O94 2.251 . S
Mg84 O97 2.010 . S
O85 Mg84 2.028 . S
O85 C88 1.250 . S
O86 Mg87 2.028 . S
O86 C88 1.248 . S
Mg87 O86 2.028 . S
Mg87 O92 2.032 . S
Mg87 O94 2.079 . S
C88 O85 1.250 . S
C88 O86 1.248 . S
C89 O90 1.264 . S
C89 O97 1.249 . S
O90 C89 1.264 . S
O91 Mg84 1.986 . S
O91 C95 1.246 . S
O92 Mg87 2.032 . S
O92 C95 1.259 . S
O93 Mg84 2.114 . S
O93 C96 1.252 . S
O94 Mg84 2.251 . S
O94 Mg87 2.079 . S
O94 C96 1.273 . S
C95 O91 1.246 . S
C95 O92 1.259 . S
C96 O93 1.252 . S
C96 O94 1.273 . S
O97 Mg84 2.010 . S
O97 C89 1.249 . S
Mg98 O99 2.028 . S
Mg98 O105 1.986 . S
Mg98 O107 2.114 . S
Mg98 O108 2.251 . S
Mg98 O111 2.010 . S
O99 Mg98 2.028 . S
O99 C102 1.250 . S
O100 Mg101 2.028 . S
O100 C102 1.248 . S
Mg101 O100 2.028 . S
Mg101 O106 2.032 . S
Mg101 O108 2.079 . S
C102 O99 1.250 . S
C102 O100 1.248 . S
C103 O104 1.264 . S
C103 O111 1.249 . S
O104 C103 1.264 . S
O105 Mg98 1.986 . S
O105 C109 1.246 . S
O106 Mg101 2.032 . S
O106 C109 1.259 . S
O107 Mg98 2.114 . S
O107 C110 1.252 . S
O108 Mg98 2.251 . S
O108 Mg101 2.079 . S
O108 C110 1.273 . S
C109 O105 1.246 . S
C109 O106 1.259 . S
C110 O107 1.252 . S
C110 O108 1.273 . S
O111 Mg98 2.010 . S
O111 C103 1.249 . S
Mg112 O113 2.028 . S
Mg112 O119 1.986 . S
Mg112 O121 2.114 . S
Mg112 O122 2.251 . S
Mg112 O125 2.010 . S
O113 Mg112 2.028 . S
O113 C116 1.250 . S
O114 Mg115 2.028 . S
O114 C116 1.248 . S
Mg115 O114 2.028 . S
Mg115 O120 2.032 . S
Mg115 O122 2.079 . S
C116 O113 1.250 . S
C116 O114 1.248 . S
C117 O118 1.264 . S
C117 O125 1.249 . S
O118 C117 1.264 . S
O119 Mg112 1.986 . S
O119 C123 1.246 . S
O120 Mg115 2.032 . S
O120 C123 1.259 . S
O121 Mg112 2.114 . S
O121 C124 1.252 . S
O122 Mg112 2.251 . S
O122 Mg115 2.079 . S
O122 C124 1.273 . S
C123 O119 1.246 . S
C123 O120 1.259 . S
C124 O121 1.252 . S
C124 O122 1.273 . S
O125 Mg112 2.010 . S
O125 C117 1.249 . S
Mg126 O127 2.028 . S
Mg126 O133 1.986 . S
Mg126 O135 2.114 . S
Mg126 O136 2.251 . S
Mg126 O139 2.010 . S
O127 Mg126 2.028 . S
O127 C130 1.250 . S
O128 Mg129 2.028 . S
O128 C130 1.248 . S
Mg129 O128 2.028 . S
Mg129 O134 2.032 . S
Mg129 O136 2.079 . S
C130 O127 1.250 . S
C130 O128 1.248 . S
C131 O132 1.264 . S
C131 O139 1.249 . S
O132 C131 1.264 . S
O133 Mg126 1.986 . S
O133 C137 1.246 . S
O134 Mg129 2.032 . S
O134 C137 1.259 . S
O135 Mg126 2.114 . S
O135 C138 1.252 . S
O136 Mg126 2.251 . S
O136 Mg129 2.079 . S
O136 C138 1.273 . S
C137 O133 1.246 . S
C137 O134 1.259 . S
C138 O135 1.252 . S
C138 O136 1.273 . S
O139 Mg126 2.010 . S
O139 C131 1.249 . S
Mg140 O141 2.028 . S
Mg140 O147 1.986 . S
Mg140 O149 2.114 . S
Mg140 O150 2.251 . S
Mg140 O153 2.010 . S
O141 Mg140 2.028 . S
O141 C144 1.250 . S
O142 Mg143 2.028 . S
O142 C144 1.248 . S
Mg143 O142 2.028 . S
Mg143 O148 2.032 . S
Mg143 O150 2.079 . S
C144 O141 1.250 . S
C144 O142 1.248 . S
C145 O146 1.264 . S
C145 O153 1.249 . S
O146 C145 1.264 . S
O147 Mg140 1.986 . S
O147 C151 1.246 . S
O148 Mg143 2.032 . S
O148 C151 1.259 . S
O149 Mg140 2.114 . S
O149 C152 1.252 . S
O150 Mg140 2.251 . S
O150 Mg143 2.079 . S
O150 C152 1.273 . S
C151 O147 1.246 . S
C151 O148 1.259 . S
C152 O149 1.252 . S
C152 O150 1.273 . S
O153 Mg140 2.010 . S
O153 C145 1.249 . S
Mg154 O155 2.028 . S
Mg154 O161 1.986 . S
Mg154 O163 2.114 . S
Mg154 O164 2.251 . S
Mg154 O167 2.010 . S
O155 Mg154 2.028 . S
O155 C158 1.250 . S
O156 Mg157 2.028 . S
O156 C158 1.248 . S
Mg157 O156 2.028 . S
Mg157 O162 2.032 . S
Mg157 O164 2.079 . S
C158 O155 1.250 . S
C158 O156 1.248 . S
C159 O160 1.264 . S
C159 O167 1.249 . S
O160 C159 1.264 . S
O161 Mg154 1.986 . S
O161 C165 1.246 . S
O162 Mg157 2.032 . S
O162 C165 1.259 . S
O163 Mg154 2.114 . S
O163 C166 1.252 . S
O164 Mg154 2.251 . S
O164 Mg157 2.079 . S
O164 C166 1.273 . S
C165 O161 1.246 . S
C165 O162 1.259 . S
C166 O163 1.252 . S
C166 O164 1.273 . S
O167 Mg154 2.010 . S
O167 C159 1.249 . S
Mg168 O169 2.028 . S
Mg168 O175 1.986 . S
Mg168 O177 2.114 . S
Mg168 O178 2.251 . S
Mg168 O181 2.010 . S
O169 Mg168 2.028 . S
O169 C172 1.250 . S
O170 Mg171 2.028 . S
O170 C172 1.248 . S
Mg171 O170 2.028 . S
Mg171 O176 2.032 . S
Mg171 O178 2.079 . S
C172 O169 1.250 . S
C172 O170 1.248 . S
C173 O174 1.264 . S
C173 O181 1.249 . S
O174 C173 1.264 . S
O175 Mg168 1.986 . S
O175 C179 1.246 . S
O176 Mg171 2.032 . S
O176 C179 1.259 . S
O177 Mg168 2.114 . S
O177 C180 1.252 . S
O178 Mg168 2.251 . S
O178 Mg171 2.079 . S
O178 C180 1.273 . S
C179 O175 1.246 . S
C179 O176 1.259 . S
C180 O177 1.252 . S
C180 O178 1.273 . S
O181 Mg168 2.010 . S
O181 C173 1.249 . S
Mg182 O183 2.028 . S
Mg182 O189 1.986 . S
Mg182 O191 2.114 . S
Mg182 O192 2.251 . S
Mg182 O195 2.010 . S
O183 Mg182 2.028 . S
O183 C186 1.250 . S
O184 Mg185 2.028 . S
O184 C186 1.248 . S
Mg185 O184 2.028 . S
Mg185 O190 2.032 . S
Mg185 O192 2.079 . S
C186 O183 1.250 . S
C186 O184 1.248 . S
C187 O188 1.264 . S
C187 O195 1.249 . S
O188 C187 1.264 . S
O189 Mg182 1.986 . S
O189 C193 1.246 . S
O190 Mg185 2.032 . S
O190 C193 1.259 . S
O191 Mg182 2.114 . S
O191 C194 1.252 . S
O192 Mg182 2.251 . S
O192 Mg185 2.079 . S
O192 C194 1.273 . S
C193 O189 1.246 . S
C193 O190 1.259 . S
C194 O191 1.252 . S
C194 O192 1.273 . S
O195 Mg182 2.010 . S
O195 C187 1.249 . S
Mg196 O197 2.028 . S
Mg196 O203 1.986 . S
Mg196 O205 2.114 . S
Mg196 O206 2.251 . S
Mg196 O209 2.010 . S
O197 Mg196 2.028 . S
O197 C200 1.250 . S
O198 Mg199 2.028 . S
O198 C200 1.248 . S
Mg199 O198 2.028 . S
Mg199 O204 2.032 . S
Mg199 O206 2.079 . S
C200 O197 1.250 . S
C200 O198 1.248 . S
C201 O202 1.264 . S
C201 O209 1.249 . S
O202 C201 1.264 . S
O203 Mg196 1.986 . S
O203 C207 1.246 . S
O204 Mg199 2.032 . S
O204 C207 1.259 . S
O205 Mg196 2.114 . S
O205 C208 1.252 . S
O206 Mg196 2.251 . S
O206 Mg199 2.079 . S
O206 C208 1.273 . S
C207 O203 1.246 . S
C207 O204 1.259 . S
C208 O205 1.252 . S
C208 O206 1.273 . S
O209 Mg196 2.010 . S
O209 C201 1.249 . S
Mg210 O211 2.028 . S
Mg210 O217 1.986 . S
Mg210 O219 2.114 . S
Mg210 O220 2.251 . S
Mg210 O223 2.010 . S
O211 Mg210 2.028 . S
O211 C214 1.250 . S
O212 Mg213 2.028 . S
O212 C214 1.248 . S
Mg213 O212 2.028 . S
Mg213 O218 2.032 . S
Mg213 O220 2.079 . S
C214 O211 1.250 . S
C214 O212 1.248 . S
C215 O216 1.264 . S
C215 O223 1.249 . S
O216 C215 1.264 . S
O217 Mg210 1.986 . S
O217 C221 1.246 . S
O218 Mg213 2.032 . S
O218 C221 1.259 . S
O219 Mg210 2.114 . S
O219 C222 1.252 . S
O220 Mg210 2.251 . S
O220 Mg213 2.079 . S
O220 C222 1.273 . S
C221 O217 1.246 . S
C221 O218 1.259 . S
C222 O219 1.252 . S
C222 O220 1.273 . S
O223 Mg210 2.010 . S
O223 C215 1.249 . S
Mg224 O225 2.028 . S
Mg224 O231 1.986 . S
Mg224 O233 2.114 . S
Mg224 O234 2.251 . S
Mg224 O237 2.010 . S
O225 Mg224 2.028 . S
O225 C228 1.250 . S
O226 Mg227 2.028 . S
O226 C228 1.248 . S
Mg227 O226 2.028 . S
Mg227 O232 2.032 . S
Mg227 O234 2.079 . S
C228 O225 1.250 . S
C228 O226 1.248 . S
C229 O230 1.264 . S
C229 O237 1.249 . S
O230 C229 1.264 . S
O231 Mg224 1.986 . S
O231 C235 1.246 . S
O232 Mg227 2.032 . S
O232 C235 1.259 . S
O233 Mg224 2.114 . S
O233 C236 1.252 . S
O234 Mg224 2.251 . S
O234 Mg227 2.079 . S
O234 C236 1.273 . S
C235 O231 1.246 . S
C235 O232 1.259 . S
C236 O233 1.252 . S
C236 O234 1.273 . S
O237 Mg224 2.010 . S
O237 C229 1.249 . S
Mg238 O239 2.028 . S
Mg238 O245 1.986 . S
Mg238 O247 2.114 . S
Mg238 O248 2.251 . S
Mg238 O251 2.010 . S
O239 Mg238 2.028 . S
O239 C242 1.250 . S
O240 Mg241 2.028 . S
O240 C242 1.248 . S
Mg241 O240 2.028 . S
Mg241 O246 2.032 . S
Mg241 O248 2.079 . S
C242 O239 1.250 . S
C242 O240 1.248 . S
C243 O244 1.264 . S
C243 O251 1.249 . S
O244 C243 1.264 . S
O245 Mg238 1.986 . S
O245 C249 1.246 . S
O246 Mg241 2.032 . S
O246 C249 1.259 . S
O247 Mg238 2.114 . S
O247 C250 1.252 . S
O248 Mg238 2.251 . S
O248 Mg241 2.079 . S
O248 C250 1.273 . S
C249 O245 1.246 . S
C249 O246 1.259 . S
C250 O247 1.252 . S
C250 O248 1.273 . S
O251 Mg238 2.010 . S
O251 C243 1.249 . S
Mg252 O253 2.028 . S
Mg252 O259 1.986 . S
Mg252 O261 2.114 . S
Mg252 O262 2.251 . S
Mg252 O265 2.010 . S
O253 Mg252 2.028 . S
O253 C256 1.250 . S
O254 Mg255 2.028 . S
O254 C256 1.248 . S
Mg255 O254 2.028 . S
Mg255 O260 2.032 . S
Mg255 O262 2.079 . S
C256 O253 1.250 . S
C256 O254 1.248 . S
C257 O258 1.264 . S
C257 O265 1.249 . S
O258 C257 1.264 . S
O259 Mg252 1.986 . S
O259 C263 1.246 . S
O260 Mg255 2.032 . S
O260 C263 1.259 . S
O261 Mg252 2.114 . S
O261 C264 1.252 . S
O262 Mg252 2.251 . S
O262 Mg255 2.079 . S
O262 C264 1.273 . S
C263 O259 1.246 . S
C263 O260 1.259 . S
C264 O261 1.252 . S
C264 O262 1.273 . S
O265 Mg252 2.010 . S
O265 C257 1.249 . S
Mg266 O267 2.028 . S
Mg266 O273 1.986 . S
Mg266 O275 2.114 . S
Mg266 O276 2.251 . S
Mg266 O279 2.010 . S
O267 Mg266 2.028 . S
O267 C270 1.250 . S
O268 Mg269 2.028 . S
O268 C270 1.248 . S
Mg269 O268 2.028 . S
Mg269 O274 2.032 . S
Mg269 O276 2.079 . S
C270 O267 1.250 . S
C270 O268 1.248 . S
C271 O272 1.264 . S
C271 O279 1.249 . S
O272 C271 1.264 . S
O273 Mg266 1.986 . S
O273 C277 1.246 . S
O274 Mg269 2.032 . S
O274 C277 1.259 . S
O275 Mg266 2.114 . S
O275 C278 1.252 . S
O276 Mg266 2.251 . S
O276 Mg269 2.079 . S
O276 C278 1.273 . S
C277 O273 1.246 . S
C277 O274 1.259 . S
C278 O275 1.252 . S
C278 O276 1.273 . S
O279 Mg266 2.010 . S
O279 C271 1.249 . S
Mg280 O281 2.028 . S
Mg280 O287 1.986 . S
Mg280 O289 2.114 . S
Mg280 O290 2.251 . S
Mg280 O293 2.010 . S
O281 Mg280 2.028 . S
O281 C284 1.250 . S
O282 Mg283 2.028 . S
O282 C284 1.248 . S
Mg283 O282 2.028 . S
Mg283 O288 2.032 . S
Mg283 O290 2.079 . S
C284 O281 1.250 . S
C284 O282 1.248 . S
C285 O286 1.264 . S
C285 O293 1.249 . S
O286 C285 1.264 . S
O287 Mg280 1.986 . S
O287 C291 1.246 . S
O288 Mg283 2.032 . S
O288 C291 1.259 . S
O289 Mg280 2.114 . S
O289 C292 1.252 . S
O290 Mg280 2.251 . S
O290 Mg283 2.079 . S
O290 C292 1.273 . S
C291 O287 1.246 . S
C291 O288 1.259 . S
C292 O289 1.252 . S
C292 O290 1.273 . S
O293 Mg280 2.010 . S
O293 C285 1.249 . S
Mg294 O295 2.028 . S
Mg294 O301 1.986 . S
Mg294 O303 2.114 . S
Mg294 O304 2.251 . S
Mg294 O307 2.010 . S
O295 Mg294 2.028 . S
O295 C298 1.250 . S
O296 Mg297 2.028 . S
O296 C298 1.248 . S
Mg297 O296 2.028 . S
Mg297 O302 2.032 . S
Mg297 O304 2.079 . S
C298 O295 1.250 . S
C298 O296 1.248 . S
C299 O300 1.264 . S
C299 O307 1.249 . S
O300 C299 1.264 . S
O301 Mg294 1.986 . S
O301 C305 1.246 . S
O302 Mg297 2.032 . S
O302 C305 1.259 . S
O303 Mg294 2.114 . S
O303 C306 1.252 . S
O304 Mg294 2.251 . S
O304 Mg297 2.079 . S
O304 C306 1.273 . S
C305 O301 1.246 . S
C305 O302 1.259 . S
C306 O303 1.252 . S
C306 O304 1.273 . S
O307 Mg294 2.010 . S
O307 C299 1.249 . S
Mg308 O309 2.028 . S
Mg308 O315 1.986 . S
Mg308 O317 2.114 . S
Mg308 O318 2.251 . S
Mg308 O321 2.010 . S
O309 Mg308 2.028 . S
O309 C312 1.250 . S
O310 Mg311 2.028 . S
O310 C312 1.248 . S
Mg311 O310 2.028 . S
Mg311 O316 2.032 . S
Mg311 O318 2.079 . S
C312 O309 1.250 . S
C312 O310 1.248 . S
C313 O314 1.264 . S
C313 O321 1.249 . S
O314 C313 1.264 . S
O315 Mg308 1.986 . S
O315 C319 1.246 . S
O316 Mg311 2.032 . S
O316 C319 1.259 . S
O317 Mg308 2.114 . S
O317 C320 1.252 . S
O318 Mg308 2.251 . S
O318 Mg311 2.079 . S
O318 C320 1.273 . S
C319 O315 1.246 . S
C319 O316 1.259 . S
C320 O317 1.252 . S
C320 O318 1.273 . S
O321 Mg308 2.010 . S
O321 C313 1.249 . S
Mg322 O323 2.028 . S
Mg322 O329 1.986 . S
Mg322 O331 2.114 . S
Mg322 O332 2.251 . S
Mg322 O335 2.010 . S
O323 Mg322 2.028 . S
O323 C326 1.250 . S
O324 Mg325 2.028 . S
O324 C326 1.248 . S
Mg325 O324 2.028 . S
Mg325 O330 2.032 . S
Mg325 O332 2.079 . S
C326 O323 1.250 . S
C326 O324 1.248 . S
C327 O328 1.264 . S
C327 O335 1.249 . S
O328 C327 1.264 . S
O329 Mg322 1.986 . S
O329 C333 1.246 . S
O330 Mg325 2.032 . S
O330 C333 1.259 . S
O331 Mg322 2.114 . S
O331 C334 1.252 . S
O332 Mg322 2.251 . S
O332 Mg325 2.079 . S
O332 C334 1.273 . S
C333 O329 1.246 . S
C333 O330 1.259 . S
C334 O331 1.252 . S
C334 O332 1.273 . S
O335 Mg322 2.010 . S
O335 C327 1.249 . S
Mg336 O337 2.028 . S
Mg336 O343 1.986 . S
Mg336 O345 2.114 . S
Mg336 O346 2.251 . S
Mg336 O349 2.010 . S
O337 Mg336 2.028 . S
O337 C340 1.250 . S
O338 Mg339 2.028 . S
O338 C340 1.248 . S
Mg339 O338 2.028 . S
Mg339 O344 2.032 . S
Mg339 O346 2.079 . S
C340 O337 1.250 . S
C340 O338 1.248 . S
C341 O342 1.264 . S
C341 O349 1.249 . S
O342 C341 1.264 . S
O343 Mg336 1.986 . S
O343 C347 1.246 . S
O344 Mg339 2.032 . S
O344 C347 1.259 . S
O345 Mg336 2.114 . S
O345 C348 1.252 . S
O346 Mg336 2.251 . S
O346 Mg339 2.079 . S
O346 C348 1.273 . S
C347 O343 1.246 . S
C347 O344 1.259 . S
C348 O345 1.252 . S
C348 O346 1.273 . S
O349 Mg336 2.010 . S
O349 C341 1.249 . S
Mg350 O351 2.028 . S
Mg350 O357 1.986 . S
Mg350 O359 2.114 . S
Mg350 O360 2.251 . S
Mg350 O363 2.010 . S
O351 Mg350 2.028 . S
O351 C354 1.250 . S
O352 Mg353 2.028 . S
O352 C354 1.248 . S
Mg353 O352 2.028 . S
Mg353 O358 2.032 . S
Mg353 O360 2.079 . S
C354 O351 1.250 . S
C354 O352 1.248 . S
C355 O356 1.264 . S
C355 O363 1.249 . S
O356 C355 1.264 . S
O357 Mg350 1.986 . S
O357 C361 1.246 . S
O358 Mg353 2.032 . S
O358 C361 1.259 . S
O359 Mg350 2.114 . S
O359 C362 1.252 . S
O360 Mg350 2.251 . S
O360 Mg353 2.079 . S
O360 C362 1.273 . S
C361 O357 1.246 . S
C361 O358 1.259 . S
C362 O359 1.252 . S
C362 O360 1.273 . S
O363 Mg350 2.010 . S
O363 C355 1.249 . S
Mg364 O365 2.028 . S
Mg364 O371 1.986 . S
Mg364 O373 2.114 . S
Mg364 O374 2.251 . S
Mg364 O377 2.010 . S
O365 Mg364 2.028 . S
O365 C368 1.250 . S
O366 Mg367 2.028 . S
O366 C368 1.248 . S
Mg367 O366 2.028 . S
Mg367 O372 2.032 . S
Mg367 O374 2.079 . S
C368 O365 1.250 . S
C368 O366 1.248 . S
C369 O370 1.264 . S
C369 O377 1.249 . S
O370 C369 1.264 . S
O371 Mg364 1.986 . S
O371 C375 1.246 . S
O372 Mg367 2.032 . S
O372 C375 1.259 . S
O373 Mg364 2.114 . S
O373 C376 1.252 . S
O374 Mg364 2.251 . S
O374 Mg367 2.079 . S
O374 C376 1.273 . S
C375 O371 1.246 . S
C375 O372 1.259 . S
C376 O373 1.252 . S
C376 O374 1.273 . S
O377 Mg364 2.010 . S
O377 C369 1.249 . S
Mg378 O379 2.028 . S
Mg378 O385 1.986 . S
Mg378 O387 2.114 . S
Mg378 O388 2.251 . S
Mg378 O391 2.010 . S
O379 Mg378 2.028 . S
O379 C382 1.250 . S
O380 Mg381 2.028 . S
O380 C382 1.248 . S
Mg381 O380 2.028 . S
Mg381 O386 2.032 . S
Mg381 O388 2.079 . S
C382 O379 1.250 . S
C382 O380 1.248 . S
C383 O384 1.264 . S
C383 O391 1.249 . S
O384 C383 1.264 . S
O385 Mg378 1.986 . S
O385 C389 1.246 . S
O386 Mg381 2.032 . S
O386 C389 1.259 . S
O387 Mg378 2.114 . S
O387 C390 1.252 . S
O388 Mg378 2.251 . S
O388 Mg381 2.079 . S
O388 C390 1.273 . S
C389 O385 1.246 . S
C389 O386 1.259 . S
C390 O387 1.252 . S
C390 O388 1.273 . S
O391 Mg378 2.010 . S
O391 C383 1.249 . S
Mg392 O393 2.028 . S
Mg392 O399 1.986 . S
Mg392 O401 2.114 . S
Mg392 O402 2.251 . S
Mg392 O405 2.010 . S
O393 Mg392 2.028 . S
O393 C396 1.250 . S
O394 Mg395 2.028 . S
O394 C396 1.248 . S
Mg395 O394 2.028 . S
Mg395 O400 2.032 . S
Mg395 O402 2.079 . S
C396 O393 1.250 . S
C396 O394 1.248 . S
C397 O398 1.264 . S
C397 O405 1.249 . S
O398 C397 1.264 . S
O399 Mg392 1.986 . S
O399 C403 1.246 . S
O400 Mg395 2.032 . S
O400 C403 1.259 . S
O401 Mg392 2.114 . S
O401 C404 1.252 . S
O402 Mg392 2.251 . S
O402 Mg395 2.079 . S
O402 C404 1.273 . S
C403 O399 1.246 . S
C403 O400 1.259 . S
C404 O401 1.252 . S
C404 O402 1.273 . S
O405 Mg392 2.010 . S
O405 C397 1.249 . S
Mg406 O407 2.028 . S
Mg406 O413 1.986 . S
Mg406 O415 2.114 . S
Mg406 O416 2.251 . S
Mg406 O419 2.010 . S
O407 Mg406 2.028 . S
O407 C410 1.250 . S
O408 Mg409 2.028 . S
O408 C410 1.248 . S
Mg409 O408 2.028 . S
Mg409 O414 2.032 . S
Mg409 O416 2.079 . S
C410 O407 1.250 . S
C410 O408 1.248 . S
C411 O412 1.264 . S
C411 O419 1.249 . S
O412 C411 1.264 . S
O413 Mg406 1.986 . S
O413 C417 1.246 . S
O414 Mg409 2.032 . S
O414 C417 1.259 . S
O415 Mg406 2.114 . S
O415 C418 1.252 . S
O416 Mg406 2.251 . S
O416 Mg409 2.079 . S
O416 C418 1.273 . S
C417 O413 1.246 . S
C417 O414 1.259 . S
C418 O415 1.252 . S
C418 O416 1.273 . S
O419 Mg406 2.010 . S
O419 C411 1.249 . S
Mg420 O421 2.028 . S
Mg420 O427 1.986 . S
Mg420 O429 2.114 . S
Mg420 O430 2.251 . S
Mg420 O433 2.010 . S
O421 Mg420 2.028 . S
O421 C424 1.250 . S
O422 Mg423 2.028 . S
O422 C424 1.248 . S
Mg423 O422 2.028 . S
Mg423 O428 2.032 . S
Mg423 O430 2.079 . S
C424 O421 1.250 . S
C424 O422 1.248 . S
C425 O426 1.264 . S
C425 O433 1.249 . S
O426 C425 1.264 . S
O427 Mg420 1.986 . S
O427 C431 1.246 . S
O428 Mg423 2.032 . S
O428 C431 1.259 . S
O429 Mg420 2.114 . S
O429 C432 1.252 . S
O430 Mg420 2.251 . S
O430 Mg423 2.079 . S
O430 C432 1.273 . S
C431 O427 1.246 . S
C431 O428 1.259 . S
C432 O429 1.252 . S
C432 O430 1.273 . S
O433 Mg420 2.010 . S
O433 C425 1.249 . S
Mg434 O435 2.028 . S
Mg434 O441 1.986 . S
Mg434 O443 2.114 . S
Mg434 O444 2.251 . S
Mg434 O447 2.010 . S
O435 Mg434 2.028 . S
O435 C438 1.250 . S
O436 Mg437 2.028 . S
O436 C438 1.248 . S
Mg437 O436 2.028 . S
Mg437 O442 2.032 . S
Mg437 O444 2.079 . S
C438 O435 1.250 . S
C438 O436 1.248 . S
C439 O440 1.264 . S
C439 O447 1.249 . S
O440 C439 1.264 . S
O441 Mg434 1.986 . S
O441 C445 1.246 . S
O442 Mg437 2.032 . S
O442 C445 1.259 . S
O443 Mg434 2.114 . S
O443 C446 1.252 . S
O444 Mg434 2.251 . S
O444 Mg437 2.079 . S
O444 C446 1.273 . S
C445 O441 1.246 . S
C445 O442 1.259 . S
C446 O443 1.252 . S
C446 O444 1.273 . S
O447 Mg434 2.010 . S
O447 C439 1.249 . S
Mg448 O449 2.028 . S
Mg448 O455 1.986 . S
Mg448 O457 2.114 . S
Mg448 O458 2.251 . S
Mg448 O461 2.010 . S
O449 Mg448 2.028 . S
O449 C452 1.250 . S
O450 Mg451 2.028 . S
O450 C452 1.248 . S
Mg451 O450 2.028 . S
Mg451 O456 2.032 . S
Mg451 O458 2.079 . S
C452 O449 1.250 . S
C452 O450 1.248 . S
C453 O454 1.264 . S
C453 O461 1.249 . S
O454 C453 1.264 . S
O455 Mg448 1.986 . S
O455 C459 1.246 . S
O456 Mg451 2.032 . S
O456 C459 1.259 . S
O457 Mg448 2.114 . S
O457 C460 1.252 . S
O458 Mg448 2.251 . S
O458 Mg451 2.079 . S
O458 C460 1.273 . S
C459 O455 1.246 . S
C459 O456 1.259 . S
C460 O457 1.252 . S
C460 O458 1.273 . S
O461 Mg448 2.010 . S
O461 C453 1.249 . S
Mg462 O463 2.028 . S
Mg462 O469 1.986 . S
Mg462 O471 2.114 . S
Mg462 O472 2.251 . S
Mg462 O475 2.010 . S
O463 Mg462 2.028 . S
O463 C466 1.250 . S
O464 Mg465 2.028 . S
O464 C466 1.248 . S
Mg465 O464 2.028 . S
Mg465 O470 2.032 . S
Mg465 O472 2.079 . S
C466 O463 1.250 . S
C466 O464 1.248 . S
C467 O468 1.264 . S
C467 O475 1.249 . S
O468 C467 1.264 . S
O469 Mg462 1.986 . S
O469 C473 1.246 . S
O470 Mg465 2.032 . S
O470 C473 1.259 . S
O471 Mg462 2.114 . S
O471 C474 1.252 . S
O472 Mg462 2.251 . S
O472 Mg465 2.079 . S
O472 C474 1.273 . S
C473 O469 1.246 . S
C473 O470 1.259 . S
C474 O471 1.252 . S
C474 O472 1.273 . S
O475 Mg462 2.010 . S
O475 C467 1.249 . S
Mg476 O477 2.028 . S
Mg476 O483 1.986 . S
Mg476 O485 2.114 . S
Mg476 O486 2.251 . S
Mg476 O489 2.010 . S
O477 Mg476 2.028 . S
O477 C480 1.250 . S
O478 Mg479 2.028 . S
O478 C480 1.248 . S
Mg479 O478 2.028 . S
Mg479 O484 2.032 . S
Mg479 O486 2.079 . S
C480 O477 1.250 . S
C480 O478 1.248 . S
C481 O482 1.264 . S
C481 O489 1.249 . S
O482 C481 1.264 . S
O483 Mg476 1.986 . S
O483 C487 1.246 . S
O484 Mg479 2.032 . S
O484 C487 1.259 . S
O485 Mg476 2.114 . S
O485 C488 1.252 . S
O486 Mg476 2.251 . S
O486 Mg479 2.079 . S
O486 C488 1.273 . S
C487 O483 1.246 . S
C487 O484 1.259 . S
C488 O485 1.252 . S
C488 O486 1.273 . S
O489 Mg476 2.010 . S
O489 C481 1.249 . S
Mg490 O491 2.028 . S
Mg490 O497 1.986 . S
Mg490 O499 2.114 . S
Mg490 O500 2.251 . S
Mg490 O503 2.010 . S
O491 Mg490 2.028 . S
O491 C494 1.250 . S
O492 Mg493 2.028 . S
O492 C494 1.248 . S
Mg493 O492 2.028 . S
Mg493 O498 2.032 . S
Mg493 O500 2.079 . S
C494 O491 1.250 . S
C494 O492 1.248 . S
C495 O496 1.264 . S
C495 O503 1.249 . S
O496 C495 1.264 . S
O497 Mg490 1.986 . S
O497 C501 1.246 . S
O498 Mg493 2.032 . S
O498 C501 1.259 . S
O499 Mg490 2.114 . S
O499 C502 1.252 . S
O500 Mg490 2.251 . S
O500 Mg493 2.079 . S
O500 C502 1.273 . S
C501 O497 1.246 . S
C501 O498 1.259 . S
C502 O499 1.252 . S
C502 O500 1.273 . S
O503 Mg490 2.010 . S
O503 C495 1.249 . S
Mg504 O505 2.028 . S
Mg504 O511 1.986 . S
Mg504 O513 2.114 . S
Mg504 O514 2.251 . S
Mg504 O517 2.010 . S
O505 Mg504 2.028 . S
O505 C508 1.250 . S
O506 Mg507 2.028 . S
O506 C508 1.248 . S
Mg507 O506 2.028 . S
Mg507 O512 2.032 . S
Mg507 O514 2.079 . S
C508 O505 1.250 . S
C508 O506 1.248 . S
C509 O510 1.264 . S
C509 O517 1.249 . S
O510 C509 1.264 . S
O511 Mg504 1.986 . S
O511 C515 1.246 . S
O512 Mg507 2.032 . S
O512 C515 1.259 . S
O513 Mg504 2.114 . S
O513 C516 1.252 . S
O514 Mg504 2.251 . S
O514 Mg507 2.079 . S
O514 C516 1.273 . S
C515 O511 1.246 . S
C515 O512 1.259 . S
C516 O513 1.252 . S
C516 O514 1.273 . S
O517 Mg504 2.010 . S
O517 C509 1.249 . S
Mg518 O519 2.028 . S
Mg518 O525 1.986 . S
Mg518 O527 2.114 . S
Mg518 O528 2.251 . S
Mg518 O531 2.010 . S
O519 Mg518 2.028 . S
O519 C522 1.250 . S
O520 Mg521 2.028 . S
O520 C522 1.248 . S
Mg521 O520 2.028 . S
Mg521 O526 2.032 . S
Mg521 O528 2.079 . S
C522 O519 1.250 . S
C522 O520 1.248 . S
C523 O524 1.264 . S
C523 O531 1.249 . S
O524 C523 1.264 . S
O525 Mg518 1.986 . S
O525 C529 1.246 . S
O526 Mg521 2.032 . S
O526 C529 1.259 . S
O527 Mg518 2.114 . S
O527 C530 1.252 . S
O528 Mg518 2.251 . S
O528 Mg521 2.079 . S
O528 C530 1.273 . S
C529 O525 1.246 . S
C529 O526 1.259 . S
C530 O527 1.252 . S
C530 O528 1.273 . S
O531 Mg518 2.010 . S
O531 C523 1.249 . S
Mg532 O533 2.028 . S
Mg532 O539 1.986 . S
Mg532 O541 2.114 . S
Mg532 O542 2.251 . S
Mg532 O545 2.010 . S
O533 Mg532 2.028 . S
O533 C536 1.250 . S
O534 Mg535 2.028 . S
O534 C536 1.248 . S
Mg535 O534 2.028 . S
Mg535 O540 2.032 . S
Mg535 O542 2.079 . S
C536 O533 1.250 . S
C536 O534 1.248 . S
C537 O538 1.264 . S
C537 O545 1.249 . S
O538 C537 1.264 . S
O539 Mg532 1.986 . S
O539 C543 1.246 . S
O540 Mg535 2.032 . S
O540 C543 1.259 . S
O541 Mg532 2.114 . S
O541 C544 1.252 . S
O542 Mg532 2.251 . S
O542 Mg535 2.079 . S
O542 C544 1.273 . S
C543 O539 1.246 . S
C543 O540 1.259 . S
C544 O541 1.252 . S
C544 O542 1.273 . S
O545 Mg532 2.010 . S
O545 C537 1.249 . S
Mg546 O547 2.028 . S
Mg546 O553 1.986 . S
Mg546 O555 2.114 . S
Mg546 O556 2.251 . S
Mg546 O559 2.010 . S
O547 Mg546 2.028 . S
O547 C550 1.250 . S
O548 Mg549 2.028 . S
O548 C550 1.248 . S
Mg549 O548 2.028 . S
Mg549 O554 2.032 . S
Mg549 O556 2.079 . S
C550 O547 1.250 . S
C550 O548 1.248 . S
C551 O552 1.264 . S
C551 O559 1.249 . S
O552 C551 1.264 . S
O553 Mg546 1.986 . S
O553 C557 1.246 . S
O554 Mg549 2.032 . S
O554 C557 1.259 . S
O555 Mg546 2.114 . S
O555 C558 1.252 . S
O556 Mg546 2.251 . S
O556 Mg549 2.079 . S
O556 C558 1.273 . S
C557 O553 1.246 . S
C557 O554 1.259 . S
C558 O555 1.252 . S
C558 O556 1.273 . S
O559 Mg546 2.010 . S
O559 C551 1.249 . S
Mg560 O561 2.028 . S
Mg560 O567 1.986 . S
Mg560 O569 2.114 . S
Mg560 O570 2.251 . S
Mg560 O573 2.010 . S
O561 Mg560 2.028 . S
O561 C564 1.250 . S
O562 Mg563 2.028 . S
O562 C564 1.248 . S
Mg563 O562 2.028 . S
Mg563 O568 2.032 . S
Mg563 O570 2.079 . S
C564 O561 1.250 . S
C564 O562 1.248 . S
C565 O566 1.264 . S
C565 O573 1.249 . S
O566 C565 1.264 . S
O567 Mg560 1.986 . S
O567 C571 1.246 . S
O568 Mg563 2.032 . S
O568 C571 1.259 . S
O569 Mg560 2.114 . S
O569 C572 1.252 . S
O570 Mg560 2.251 . S
O570 Mg563 2.079 . S
O570 C572 1.273 . S
C571 O567 1.246 . S
C571 O568 1.259 . S
C572 O569 1.252 . S
C572 O570 1.273 . S
O573 Mg560 2.010 . S
O573 C565 1.249 . S
Mg574 O575 2.028 . S
Mg574 O581 1.986 . S
Mg574 O583 2.114 . S
Mg574 O584 2.251 . S
Mg574 O587 2.010 . S
O575 Mg574 2.028 . S
O575 C578 1.250 . S
O576 Mg577 2.028 . S
O576 C578 1.248 . S
Mg577 O576 2.028 . S
Mg577 O582 2.032 . S
Mg577 O584 2.079 . S
C578 O575 1.250 . S
C578 O576 1.248 . S
C579 O580 1.264 . S
C579 O587 1.249 . S
O580 C579 1.264 . S
O581 Mg574 1.986 . S
O581 C585 1.246 . S
O582 Mg577 2.032 . S
O582 C585 1.259 . S
O583 Mg574 2.114 . S
O583 C586 1.252 . S
O584 Mg574 2.251 . S
O584 Mg577 2.079 . S
O584 C586 1.273 . S
C585 O581 1.246 . S
C585 O582 1.259 . S
C586 O583 1.252 . S
C586 O584 1.273 . S
O587 Mg574 2.010 . S
O587 C579 1.249 . S
Mg588 O589 2.028 . S
Mg588 O595 1.986 . S
Mg588 O597 2.114 . S
Mg588 O598 2.251 . S
Mg588 O601 2.010 . S
O589 Mg588 2.028 . S
O589 C592 1.250 . S
O590 Mg591 2.028 . S
O590 C592 1.248 . S
Mg591 O590 2.028 . S
Mg591 O596 2.032 . S
Mg591 O598 2.079 . S
C592 O589 1.250 . S
C592 O590 1.248 . S
C593 O594 1.264 . S
C593 O601 1.249 . S
O594 C593 1.264 . S
O595 Mg588 1.986 . S
O595 C599 1.246 . S
O596 Mg591 2.032 . S
O596 C599 1.259 . S
O597 Mg588 2.114 . S
O597 C600 1.252 . S
O598 Mg588 2.251 . S
O598 Mg591 2.079 . S
O598 C600 1.273 . S
C599 O595 1.246 . S
C599 O596 1.259 . S
C600 O597 1.252 . S
C600 O598 1.273 . S
O601 Mg588 2.010 . S
O601 C593 1.249 . S
Mg602 O603 2.028 . S
Mg602 O609 1.986 . S
Mg602 O611 2.114 . S
Mg602 O612 2.251 . S
Mg602 O615 2.010 . S
O603 Mg602 2.028 . S
O603 C606 1.250 . S
O604 Mg605 2.028 . S
O604 C606 1.248 . S
Mg605 O604 2.028 . S
Mg605 O610 2.032 . S
Mg605 O612 2.079 . S
C606 O603 1.250 . S
C606 O604 1.248 . S
C607 O608 1.264 . S
C607 O615 1.249 . S
O608 C607 1.264 . S
O609 Mg602 1.986 . S
O609 C613 1.246 . S
O610 Mg605 2.032 . S
O610 C613 1.259 . S
O611 Mg602 2.114 . S
O611 C614 1.252 . S
O612 Mg602 2.251 . S
O612 Mg605 2.079 . S
O612 C614 1.273 . S
C613 O609 1.246 . S
C613 O610 1.259 . S
C614 O611 1.252 . S
C614 O612 1.273 . S
O615 Mg602 2.010 . S
O615 C607 1.249 . S
Mg616 O617 2.028 . S
Mg616 O623 1.986 . S
Mg616 O625 2.114 . S
Mg616 O626 2.251 . S
Mg616 O629 2.010 . S
O617 Mg616 2.028 . S
O617 C620 1.250 . S
O618 Mg619 2.028 . S
O618 C620 1.248 . S
Mg619 O618 2.028 . S
Mg619 O624 2.032 . S
Mg619 O626 2.079 . S
C620 O617 1.250 . S
C620 O618 1.248 . S
C621 O622 1.264 . S
C621 O629 1.249 . S
O622 C621 1.264 . S
O623 Mg616 1.986 . S
O623 C627 1.246 . S
O624 Mg619 2.032 . S
O624 C627 1.259 . S
O625 Mg616 2.114 . S
O625 C628 1.252 . S
O626 Mg616 2.251 . S
O626 Mg619 2.079 . S
O626 C628 1.273 . S
C627 O623 1.246 . S
C627 O624 1.259 . S
C628 O625 1.252 . S
C628 O626 1.273 . S
O629 Mg616 2.010 . S
O629 C621 1.249 . S
Mg630 O631 2.028 . S
Mg630 O637 1.986 . S
Mg630 O639 2.114 . S
Mg630 O640 2.251 . S
Mg630 O643 2.010 . S
O631 Mg630 2.028 . S
O631 C634 1.250 . S
O632 Mg633 2.028 . S
O632 C634 1.248 . S
Mg633 O632 2.028 . S
Mg633 O638 2.032 . S
Mg633 O640 2.079 . S
C634 O631 1.250 . S
C634 O632 1.248 . S
C635 O636 1.264 . S
C635 O643 1.249 . S
O636 C635 1.264 . S
O637 Mg630 1.986 . S
O637 C641 1.246 . S
O638 Mg633 2.032 . S
O638 C641 1.259 . S
O639 Mg630 2.114 . S
O639 C642 1.252 . S
O640 Mg630 2.251 . S
O640 Mg633 2.079 . S
O640 C642 1.273 . S
C641 O637 1.246 . S
C641 O638 1.259 . S
C642 O639 1.252 . S
C642 O640 1.273 . S
O643 Mg630 2.010 . S
O643 C635 1.249 . S
Mg644 O645 2.028 . S
Mg644 O651 1.986 . S
Mg644 O653 2.114 . S
Mg644 O654 2.251 . S
Mg644 O657 2.010 . S
O645 Mg644 2.028 . S
O645 C648 1.250 . S
O646 Mg647 2.028 . S
O646 C648 1.248 . S
Mg647 O646 2.028 . S
Mg647 O652 2.032 . S
Mg647 O654 2.079 . S
C648 O645 1.250 . S
C648 O646 1.248 . S
C649 O650 1.264 . S
C649 O657 1.249 . S
O650 C649 1.264 . S
O651 Mg644 1.986 . S
O651 C655 1.246 . S
O652 Mg647 2.032 . S
O652 C655 1.259 . S
O653 Mg644 2.114 . S
O653 C656 1.252 . S
O654 Mg644 2.251 . S
O654 Mg647 2.079 . S
O654 C656 1.273 . S
C655 O651 1.246 . S
C655 O652 1.259 . S
C656 O653 1.252 . S
C656 O654 1.273 . S
O657 Mg644 2.010 . S
O657 C649 1.249 . S
Mg658 O659 2.028 . S
Mg658 O665 1.986 . S
Mg658 O667 2.114 . S
Mg658 O668 2.251 . S
Mg658 O671 2.010 . S
O659 Mg658 2.028 . S
O659 C662 1.250 . S
O660 Mg661 2.028 . S
O660 C662 1.248 . S
Mg661 O660 2.028 . S
Mg661 O666 2.032 . S
Mg661 O668 2.079 . S
C662 O659 1.250 . S
C662 O660 1.248 . S
C663 O664 1.264 . S
C663 O671 1.249 . S
O664 C663 1.264 . S
O665 Mg658 1.986 . S
O665 C669 1.246 . S
O666 Mg661 2.032 . S
O666 C669 1.259 . S
O667 Mg658 2.114 . S
O667 C670 1.252 . S
O668 Mg658 2.251 . S
O668 Mg661 2.079 . S
O668 C670 1.273 . S
C669 O665 1.246 . S
C669 O666 1.259 . S
C670 O667 1.252 . S
C670 O668 1.273 . S
O671 Mg658 2.010 . S
O671 C663 1.249 . S
Mg672 O673 2.028 . S
Mg672 O679 1.986 . S
Mg672 O681 2.114 . S
Mg672 O682 2.251 . S
Mg672 O685 2.010 . S
O673 Mg672 2.028 . S
O673 C676 1.250 . S
O674 Mg675 2.028 . S
O674 C676 1.248 . S
Mg675 O674 2.028 . S
Mg675 O680 2.032 . S
Mg675 O682 2.079 . S
C676 O673 1.250 . S
C676 O674 1.248 . S
C677 O678 1.264 . S
C677 O685 1.249 . S
O678 C677 1.264 . S
O679 Mg672 1.986 . S
O679 C683 1.246 . S
O680 Mg675 2.032 . S
O680 C683 1.259 . S
O681 Mg672 2.114 . S
O681 C684 1.252 . S
O682 Mg672 2.251 . S
O682 Mg675 2.079 . S
O682 C684 1.273 . S
C683 O679 1.246 . S
C683 O680 1.259 . S
C684 O681 1.252 . S
C684 O682 1.273 . S
O685 Mg672 2.010 . S
O685 C677 1.249 . S
Mg686 O687 2.028 . S
Mg686 O693 1.986 . S
Mg686 O695 2.114 . S
Mg686 O696 2.251 . S
Mg686 O699 2.010 . S
O687 Mg686 2.028 . S
O687 C690 1.250 . S
O688 Mg689 2.028 . S
O688 C690 1.248 . S
Mg689 O688 2.028 . S
Mg689 O694 2.032 . S
Mg689 O696 2.079 . S
C690 O687 1.250 . S
C690 O688 1.248 . S
C691 O692 1.264 . S
C691 O699 1.249 . S
O692 C691 1.264 . S
O693 Mg686 1.986 . S
O693 C697 1.246 . S
O694 Mg689 2.032 . S
O694 C697 1.259 . S
O695 Mg686 2.114 . S
O695 C698 1.252 . S
O696 Mg686 2.251 . S
O696 Mg689 2.079 . S
O696 C698 1.273 . S
C697 O693 1.246 . S
C697 O694 1.259 . S
C698 O695 1.252 . S
C698 O696 1.273 . S
O699 Mg686 2.010 . S
O699 C691 1.249 . S
Mg700 O701 2.028 . S
Mg700 O707 1.986 . S
Mg700 O709 2.114 . S
Mg700 O710 2.251 . S
Mg700 O713 2.010 . S
O701 Mg700 2.028 . S
O701 C704 1.250 . S
O702 Mg703 2.028 . S
O702 C704 1.248 . S
Mg703 O702 2.028 . S
Mg703 O708 2.032 . S
Mg703 O710 2.079 . S
C704 O701 1.250 . S
C704 O702 1.248 . S
C705 O706 1.264 . S
C705 O713 1.249 . S
O706 C705 1.264 . S
O707 Mg700 1.986 . S
O707 C711 1.246 . S
O708 Mg703 2.032 . S
O708 C711 1.259 . S
O709 Mg700 2.114 . S
O709 C712 1.252 . S
O710 Mg700 2.251 . S
O710 Mg703 2.079 . S
O710 C712 1.273 . S
C711 O707 1.246 . S
C711 O708 1.259 . S
C712 O709 1.252 . S
C712 O710 1.273 . S
O713 Mg700 2.010 . S
O713 C705 1.249 . S
Mg714 O715 2.028 . S
Mg714 O721 1.986 . S
Mg714 O723 2.114 . S
Mg714 O724 2.251 . S
Mg714 O727 2.010 . S
O715 Mg714 2.028 . S
O715 C718 1.250 . S
O716 Mg717 2.028 . S
O716 C718 1.248 . S
Mg717 O716 2.028 . S
Mg717 O722 2.032 . S
Mg717 O724 2.079 . S
C718 O715 1.250 . S
C718 O716 1.248 . S
C719 O720 1.264 . S
C719 O727 1.249 . S
O720 C719 1.264 . S
O721 Mg714 1.986 . S
O721 C725 1.246 . S
O722 Mg717 2.032 . S
O722 C725 1.259 . S
O723 Mg714 2.114 . S
O723 C726 1.252 . S
O724 Mg714 2.251 . S
O724 Mg717 2.079 . S
O724 C726 1.273 . S
C725 O721 1.246 . S
C725 O722 1.259 . S
C726 O723 1.252 . S
C726 O724 1.273 . S
O727 Mg714 2.010 . S
O727 C719 1.249 . S
Mg728 O729 2.028 . S
Mg728 O735 1.986 . S
Mg728 O737 2.114 . S
Mg728 O738 2.251 . S
Mg728 O741 2.010 . S
O729 Mg728 2.028 . S
O729 C732 1.250 . S
O730 Mg731 2.028 . S
O730 C732 1.248 . S
Mg731 O730 2.028 . S
Mg731 O736 2.032 . S
Mg731 O738 2.079 . S
C732 O729 1.250 . S
C732 O730 1.248 . S
C733 O734 1.264 . S
C733 O741 1.249 . S
O734 C733 1.264 . S
O735 Mg728 1.986 . S
O735 C739 1.246 . S
O736 Mg731 2.032 . S
O736 C739 1.259 . S
O737 Mg728 2.114 . S
O737 C740 1.252 . S
O738 Mg728 2.251 . S
O738 Mg731 2.079 . S
O738 C740 1.273 . S
C739 O735 1.246 . S
C739 O736 1.259 . S
C740 O737 1.252 . S
C740 O738 1.273 . S
O741 Mg728 2.010 . S
O741 C733 1.249 . S
Mg742 O743 2.028 . S
Mg742 O749 1.986 . S
Mg742 O751 2.114 . S
Mg742 O752 2.251 . S
Mg742 O755 2.010 . S
O743 Mg742 2.028 . S
O743 C746 1.250 . S
O744 Mg745 2.028 . S
O744 C746 1.248 . S
Mg745 O744 2.028 . S
Mg745 O750 2.032 . S
Mg745 O752 2.079 . S
C746 O743 1.250 . S
C746 O744 1.248 . S
C747 O748 1.264 . S
C747 O755 1.249 . S
O748 C747 1.264 . S
O749 Mg742 1.986 . S
O749 C753 1.246 . S
O750 Mg745 2.032 . S
O750 C753 1.259 . S
O751 Mg742 2.114 . S
O751 C754 1.252 . S
O752 Mg742 2.251 . S
O752 Mg745 2.079 . S
O752 C754 1.273 . S
C753 O749 1.246 . S
C753 O750 1.259 . S
C754 O751 1.252 . S
C754 O752 1.273 . S
O755 Mg742 2.010 . S
O755 C747 1.249 . S
Mg756 O757 2.028 . S
Mg756 O763 1.986 . S
Mg756 O765 2.114 . S
Mg756 O766 2.251 . S
Mg756 O769 2.010 . S
O757 Mg756 2.028 . S
O757 C760 1.250 . S
O758 Mg759 2.028 . S
O758 C760 1.248 . S
Mg759 O758 2.028 . S
Mg759 O764 2.032 . S
Mg759 O766 2.079 . S
C760 O757 1.250 . S
C760 O758 1.248 . S
C761 O762 1.264 . S
C761 O769 1.249 . S
O762 C761 1.264 . S
O763 Mg756 1.986 . S
O763 C767 1.246 . S
O764 Mg759 2.032 . S
O764 C767 1.259 . S
O765 Mg756 2.114 . S
O765 C768 1.252 . S
O766 Mg756 2.251 . S
O766 Mg759 2.079 . S
O766 C768 1.273 . S
C767 O763 1.246 . S
C767 O764 1.259 . S
C768 O765 1.252 . S
C768 O766 1.273 . S
O769 Mg756 2.010 . S
O769 C761 1.249 . S
Mg770 O771 2.028 . S
Mg770 O777 1.986 . S
Mg770 O779 2.114 . S
Mg770 O780 2.251 . S
Mg770 O783 2.010 . S
O771 Mg770 2.028 . S
O771 C774 1.250 . S
O772 Mg773 2.028 . S
O772 C774 1.248 . S
Mg773 O772 2.028 . S
Mg773 O778 2.032 . S
Mg773 O780 2.079 . S
C774 O771 1.250 . S
C774 O772 1.248 . S
C775 O776 1.264 . S
C775 O783 1.249 . S
O776 C775 1.264 . S
O777 Mg770 1.986 . S
O777 C781 1.246 . S
O778 Mg773 2.032 . S
O778 C781 1.259 . S
O779 Mg770 2.114 . S
O779 C782 1.252 . S
O780 Mg770 2.251 . S
O780 Mg773 2.079 . S
O780 C782 1.273 . S
C781 O777 1.246 . S
C781 O778 1.259 . S
C782 O779 1.252 . S
C782 O780 1.273 . S
O783 Mg770 2.010 . S
O783 C775 1.249 . S
Mg784 O785 2.028 . S
Mg784 O791 1.986 . S
Mg784 O793 2.114 . S
Mg784 O794 2.251 . S
Mg784 O797 2.010 . S
O785 Mg784 2.028 . S
O785 C788 1.250 . S
O786 Mg787 2.028 . S
O786 C788 1.248 . S
Mg787 O786 2.028 . S
Mg787 O792 2.032 . S
Mg787 O794 2.079 . S
C788 O785 1.250 . S
C788 O786 1.248 . S
C789 O790 1.264 . S
C789 O797 1.249 . S
O790 C789 1.264 . S
O791 Mg784 1.986 . S
O791 C795 1.246 . S
O792 Mg787 2.032 . S
O792 C795 1.259 . S
O793 Mg784 2.114 . S
O793 C796 1.252 . S
O794 Mg784 2.251 . S
O794 Mg787 2.079 . S
O794 C796 1.273 . S
C795 O791 1.246 . S
C795 O792 1.259 . S
C796 O793 1.252 . S
C796 O794 1.273 . S
O797 Mg784 2.010 . S
O797 C789 1.249 . S
Mg798 O799 2.028 . S
Mg798 O805 1.986 . S
Mg798 O807 2.114 . S
Mg798 O808 2.251 . S
Mg798 O811 2.010 . S
O799 Mg798 2.028 . S
O799 C802 1.250 . S
O800 Mg801 2.028 . S
O800 C802 1.248 . S
Mg801 O800 2.028 . S
Mg801 O806 2.032 . S
Mg801 O808 2.079 . S
C802 O799 1.250 . S
C802 O800 1.248 . S
C803 O804 1.264 . S
C803 O811 1.249 . S
O804 C803 1.264 . S
O805 Mg798 1.986 . S
O805 C809 1.246 . S
O806 Mg801 2.032 . S
O806 C809 1.259 . S
O807 Mg798 2.114 . S
O807 C810 1.252 . S
O808 Mg798 2.251 . S
O808 Mg801 2.079 . S
O808 C810 1.273 . S
C809 O805 1.246 . S
C809 O806 1.259 . S
C810 O807 1.252 . S
C810 O808 1.273 . S
O811 Mg798 2.010 . S
O811 C803 1.249 . S
Mg812 O813 2.028 . S
Mg812 O819 1.986 . S
Mg812 O821 2.114 . S
Mg812 O822 2.251 . S
Mg812 O825 2.010 . S
O813 Mg812 2.028 . S
O813 C816 1.250 . S
O814 Mg815 2.028 . S
O814 C816 1.248 . S
Mg815 O814 2.028 . S
Mg815 O820 2.032 . S
Mg815 O822 2.079 . S
C816 O813 1.250 . S
C816 O814 1.248 . S
C817 O818 1.264 . S
C817 O825 1.249 . S
O818 C817 1.264 . S
O819 Mg812 1.986 . S
O819 C823 1.246 . S
O820 Mg815 2.032 . S
O820 C823 1.259 . S
O821 Mg812 2.114 . S
O821 C824 1.252 . S
O822 Mg812 2.251 . S
O822 Mg815 2.079 . S
O822 C824 1.273 . S
C823 O819 1.246 . S
C823 O820 1.259 . S
C824 O821 1.252 . S
C824 O822 1.273 . S
O825 Mg812 2.010 . S
O825 C817 1.249 . S
Mg826 O827 2.028 . S
Mg826 O833 1.986 . S
Mg826 O835 2.114 . S
Mg826 O836 2.251 . S
Mg826 O839 2.010 . S
O827 Mg826 2.028 . S
O827 C830 1.250 . S
O828 Mg829 2.028 . S
O828 C830 1.248 . S
Mg829 O828 2.028 . S
Mg829 O834 2.032 . S
Mg829 O836 2.079 . S
C830 O827 1.250 . S
C830 O828 1.248 . S
C831 O832 1.264 . S
C831 O839 1.249 . S
O832 C831 1.264 . S
O833 Mg826 1.986 . S
O833 C837 1.246 . S
O834 Mg829 2.032 . S
O834 C837 1.259 . S
O835 Mg826 2.114 . S
O835 C838 1.252 . S
O836 Mg826 2.251 . S
O836 Mg829 2.079 . S
O836 C838 1.273 . S
C837 O833 1.246 . S
C837 O834 1.259 . S
C838 O835 1.252 . S
C838 O836 1.273 . S
O839 Mg826 2.010 . S
O839 C831 1.249 . S
Mg840 O841 2.028 . S
Mg840 O847 1.986 . S
Mg840 O849 2.114 . S
Mg840 O850 2.251 . S
Mg840 O853 2.010 . S
O841 Mg840 2.028 . S
O841 C844 1.250 . S
O842 Mg843 2.028 . S
O842 C844 1.248 . S
Mg843 O842 2.028 . S
Mg843 O848 2.032 . S
Mg843 O850 2.079 . S
C844 O841 1.250 . S
C844 O842 1.248 . S
C845 O846 1.264 . S
C845 O853 1.249 . S
O846 C845 1.264 . S
O847 Mg840 1.986 . S
O847 C851 1.246 . S
O848 Mg843 2.032 . S
O848 C851 1.259 . S
O849 Mg840 2.114 . S
O849 C852 1.252 . S
O850 Mg840 2.251 . S
O850 Mg843 2.079 . S
O850 C852 1.273 . S
C851 O847 1.246 . S
C851 O848 1.259 . S
C852 O849 1.252 . S
C852 O850 1.273 . S
O853 Mg840 2.010 . S
O853 C845 1.249 . S
Mg854 O855 2.028 . S
Mg854 O861 1.986 . S
Mg854 O863 2.114 . S
Mg854 O864 2.251 . S
Mg854 O867 2.010 . S
O855 Mg854 2.028 . S
O855 C858 1.250 . S
O856 Mg857 2.028 . S
O856 C858 1.248 . S
Mg857 O856 2.028 . S
Mg857 O862 2.032 . S
Mg857 O864 2.079 . S
C858 O855 1.250 . S
C858 O856 1.248 . S
C859 O860 1.264 . S
C859 O867 1.249 . S
O860 C859 1.264 . S
O861 Mg854 1.986 . S
O861 C865 1.246 . S
O862 Mg857 2.032 . S
O862 C865 1.259 . S
O863 Mg854 2.114 . S
O863 C866 1.252 . S
O864 Mg854 2.251 . S
O864 Mg857 2.079 . S
O864 C866 1.273 . S
C865 O861 1.246 . S
C865 O862 1.259 . S
C866 O863 1.252 . S
C866 O864 1.273 . S
O867 Mg854 2.010 . S
O867 C859 1.249 . S
Mg868 O869 2.028 . S
Mg868 O875 1.986 . S
Mg868 O877 2.114 . S
Mg868 O878 2.251 . S
Mg868 O881 2.010 . S
O869 Mg868 2.028 . S
O869 C872 1.250 . S
O870 Mg871 2.028 . S
O870 C872 1.248 . S
Mg871 O870 2.028 . S
Mg871 O876 2.032 . S
Mg871 O878 2.079 . S
C872 O869 1.250 . S
C872 O870 1.248 . S
C873 O874 1.264 . S
C873 O881 1.249 . S
O874 C873 1.264 . S
O875 Mg868 1.986 . S
O875 C879 1.246 . S
O876 Mg871 2.032 . S
O876 C879 1.259 . S
O877 Mg868 2.114 . S
O877 C880 1.252 . S
O878 Mg868 2.251 . S
O878 Mg871 2.079 . S
O878 C880 1.273 . S
C879 O875 1.246 . S
C879 O876 1.259 . S
C880 O877 1.252 . S
C880 O878 1.273 . S
O881 Mg868 2.010 . S
O881 C873 1.249 . S
Mg882 O883 2.028 . S
Mg882 O889 1.986 . S
Mg882 O891 2.114 . S
Mg882 O892 2.251 . S
Mg882 O895 2.010 . S
O883 Mg882 2.028 . S
O883 C886 1.250 . S
O884 Mg885 2.028 . S
O884 C886 1.248 . S
Mg885 O884 2.028 . S
Mg885 O890 2.032 . S
Mg885 O892 2.079 . S
C886 O883 1.250 . S
C886 O884 1.248 . S
C887 O888 1.264 . S
C887 O895 1.249 . S
O888 C887 1.264 . S
O889 Mg882 1.986 . S
O889 C893 1.246 . S
O890 Mg885 2.032 . S
O890 C893 1.259 . S
O891 Mg882 2.114 . S
O891 C894 1.252 . S
O892 Mg882 2.251 . S
O892 Mg885 2.079 . S
O892 C894 1.273 . S
C893 O889 1.246 . S
C893 O890 1.259 . S
C894 O891 1.252 . S
C894 O892 1.273 . S
O895 Mg882 2.010 . S
O895 C887 1.249 . S
Mg896 O897 2.028 . S
Mg896 O903 1.986 . S
Mg896 O905 2.114 . S
Mg896 O906 2.251 . S
Mg896 O909 2.010 . S
O897 Mg896 2.028 . S
O897 C900 1.250 . S
O898 Mg899 2.028 . S
O898 C900 1.248 . S
Mg899 O898 2.028 . S
Mg899 O904 2.032 . S
Mg899 O906 2.079 . S
C900 O897 1.250 . S
C900 O898 1.248 . S
C901 O902 1.264 . S
C901 O909 1.249 . S
O902 C901 1.264 . S
O903 Mg896 1.986 . S
O903 C907 1.246 . S
O904 Mg899 2.032 . S
O904 C907 1.259 . S
O905 Mg896 2.114 . S
O905 C908 1.252 . S
O906 Mg896 2.251 . S
O906 Mg899 2.079 . S
O906 C908 1.273 . S
C907 O903 1.246 . S
C907 O904 1.259 . S
C908 O905 1.252 . S
C908 O906 1.273 . S
O909 Mg896 2.010 . S
O909 C901 1.249 . S
Mg910 O911 2.028 . S
Mg910 O917 1.986 . S
Mg910 O919 2.114 . S
Mg910 O920 2.251 . S
Mg910 O923 2.010 . S
O911 Mg910 2.028 . S
O911 C914 1.250 . S
O912 Mg913 2.028 . S
O912 C914 1.248 . S
Mg913 O912 2.028 . S
Mg913 O918 2.032 . S
Mg913 O920 2.079 . S
C914 O911 1.250 . S
C914 O912 1.248 . S
C915 O916 1.264 . S
C915 O923 1.249 . S
O916 C915 1.264 . S
O917 Mg910 1.986 . S
O917 C921 1.246 . S
O918 Mg913 2.032 . S
O918 C921 1.259 . S
O919 Mg910 2.114 . S
O919 C922 1.252 . S
O920 Mg910 2.251 . S
O920 Mg913 2.079 . S
O920 C922 1.273 . S
C921 O917 1.246 . S
C921 O918 1.259 . S
C922 O919 1.252 . S
C922 O920 1.273 . S
O923 Mg910 2.010 . S
O923 C915 1.249 . S
Mg924 O925 2.028 . S
Mg924 O931 1.986 . S
Mg924 O933 2.114 . S
Mg924 O934 2.251 . S
Mg924 O937 2.010 . S
O925 Mg924 2.028 . S
O925 C928 1.250 . S
O926 Mg927 2.028 . S
O926 C928 1.248 . S
Mg927 O926 2.028 . S
Mg927 O932 2.032 . S
Mg927 O934 2.079 . S
C928 O925 1.250 . S
C928 O926 1.248 . S
C929 O930 1.264 . S
C929 O937 1.249 . S
O930 C929 1.264 . S
O931 Mg924 1.986 . S
O931 C935 1.246 . S
O932 Mg927 2.032 . S
O932 C935 1.259 . S
O933 Mg924 2.114 . S
O933 C936 1.252 . S
O934 Mg924 2.251 . S
O934 Mg927 2.079 . S
O934 C936 1.273 . S
C935 O931 1.246 . S
C935 O932 1.259 . S
C936 O933 1.252 . S
C936 O934 1.273 . S
O937 Mg924 2.010 . S
O937 C929 1.249 . S
Mg938 O939 2.028 . S
Mg938 O945 1.986 . S
Mg938 O947 2.114 . S
Mg938 O948 2.251 . S
Mg938 O951 2.010 . S
O939 Mg938 2.028 . S
O939 C942 1.250 . S
O940 Mg941 2.028 . S
O940 C942 1.248 . S
Mg941 O940 2.028 . S
Mg941 O946 2.032 . S
Mg941 O948 2.079 . S
C942 O939 1.250 . S
C942 O940 1.248 . S
C943 O944 1.264 . S
C943 O951 1.249 . S
O944 C943 1.264 . S
O945 Mg938 1.986 . S
O945 C949 1.246 . S
O946 Mg941 2.032 . S
O946 C949 1.259 . S
O947 Mg938 2.114 . S
O947 C950 1.252 . S
O948 Mg938 2.251 . S
O948 Mg941 2.079 . S
O948 C950 1.273 . S
C949 O945 1.246 . S
C949 O946 1.259 . S
C950 O947 1.252 . S
C950 O948 1.273 . S
O951 Mg938 2.010 . S
O951 C943 1.249 . S
Mg952 O953 2.028 . S
Mg952 O959 1.986 . S
Mg952 O961 2.114 . S
Mg952 O962 2.251 . S
Mg952 O965 2.010 . S
O953 Mg952 2.028 . S
O953 C956 1.250 . S
O954 Mg955 2.028 . S
O954 C956 1.248 . S
Mg955 O954 2.028 . S
Mg955 O960 2.032 . S
Mg955 O962 2.079 . S
C956 O953 1.250 . S
C956 O954 1.248 . S
C957 O958 1.264 . S
C957 O965 1.249 . S
O958 C957 1.264 . S
O959 Mg952 1.986 . S
O959 C963 1.246 . S
O960 Mg955 2.032 . S
O960 C963 1.259 . S
O961 Mg952 2.114 . S
O961 C964 1.252 . S
O962 Mg952 2.251 . S
O962 Mg955 2.079 . S
O962 C964 1.273 . S
C963 O959 1.246 . S
C963 O960 1.259 . S
C964 O961 1.252 . S
C964 O962 1.273 . S
O965 Mg952 2.010 . S
O965 C957 1.249 . S
Mg966 O967 2.028 . S
Mg966 O973 1.986 . S
Mg966 O975 2.114 . S
Mg966 O976 2.251 . S
Mg966 O979 2.010 . S
O967 Mg966 2.028 . S
O967 C970 1.250 . S
O968 Mg969 2.028 . S
O968 C970 1.248 . S
Mg969 O968 2.028 . S
Mg969 O974 2.032 . S
Mg969 O976 2.079 . S
C970 O967 1.250 . S
C970 O968 1.248 . S
C971 O972 1.264 . S
C971 O979 1.249 . S
O972 C971 1.264 . S
O973 Mg966 1.986 . S
O973 C977 1.246 . S
O974 Mg969 2.032 . S
O974 C977 1.259 . S
O975 Mg966 2.114 . S
O975 C978 1.252 . S
O976 Mg966 2.251 . S
O976 Mg969 2.079 . S
O976 C978 1.273 . S
C977 O973 1.246 . S
C977 O974 1.259 . S
C978 O975 1.252 . S
C978 O976 1.273 . S
O979 Mg966 2.010 . S
O979 C971 1.249 . S
Mg980 O981 2.028 . S
Mg980 O987 1.986 . S
Mg980 O989 2.114 . S
Mg980 O990 2.251 . S
Mg980 O993 2.010 . S
O981 Mg980 2.028 . S
O981 C984 1.250 . S
O982 Mg983 2.028 . S
O982 C984 1.248 . S
Mg983 O982 2.028 . S
Mg983 O988 2.032 . S
Mg983 O990 2.079 . S
C984 O981 1.250 . S
C984 O982 1.248 . S
C985 O986 1.264 . S
C985 O993 1.249 . S
O986 C985 1.264 . S
O987 Mg980 1.986 . S
O987 C991 1.246 . S
O988 Mg983 2.032 . S
O988 C991 1.259 . S
O989 Mg980 2.114 . S
O989 C992 1.252 . S
O990 Mg980 2.251 . S
O990 Mg983 2.079 . S
O990 C992 1.273 . S
C991 O987 1.246 . S
C991 O988 1.259 . S
C992 O989 1.252 . S
C992 O990 1.273 . S
O993 Mg980 2.010 . S
O993 C985 1.249 . S
Mg994 O995 2.028 . S
Mg994 O1001 1.986 . S
Mg994 O1003 2.114 . S
Mg994 O1004 2.251 . S
Mg994 O1007 2.010 . S
O995 Mg994 2.028 . S
O995 C998 1.250 . S
O996 Mg997 2.028 . S
O996 C998 1.248 . S
Mg997 O996 2.028 . S
Mg997 O1002 2.032 . S
Mg997 O1004 2.079 . S
C998 O995 1.250 . S
C998 O996 1.248 . S
C999 O1000 1.264 . S
C999 O1007 1.249 . S
O1000 C999 1.264 . S
O1001 Mg994 1.986 . S
O1001 C1005 1.246 . S
O1002 Mg997 2.032 . S
O1002 C1005 1.259 . S
O1003 Mg994 2.114 . S
O1003 C1006 1.252 . S
O1004 Mg994 2.251 . S
O1004 Mg997 2.079 . S
O1004 C1006 1.273 . S
C1005 O1001 1.246 . S
C1005 O1002 1.259 . S
C1006 O1003 1.252 . S
C1006 O1004 1.273 . S
O1007 Mg994 2.010 . S
O1007 C999 1.249 . S
Mg1008 O1009 2.028 . S
Mg1008 O1015 1.986 . S
Mg1008 O1017 2.114 . S
Mg1008 O1018 2.251 . S
Mg1008 O1021 2.010 . S
O1009 Mg1008 2.028 . S
O1009 C1012 1.250 . S
O1010 Mg1011 2.028 . S
O1010 C1012 1.248 . S
Mg1011 O1010 2.028 . S
Mg1011 O1016 2.032 . S
Mg1011 O1018 2.079 . S
C1012 O1009 1.250 . S
C1012 O1010 1.248 . S
C1013 O1014 1.264 . S
C1013 O1021 1.249 . S
O1014 C1013 1.264 . S
O1015 Mg1008 1.986 . S
O1015 C1019 1.246 . S
O1016 Mg1011 2.032 . S
O1016 C1019 1.259 . S
O1017 Mg1008 2.114 . S
O1017 C1020 1.252 . S
O1018 Mg1008 2.251 . S
O1018 Mg1011 2.079 . S
O1018 C1020 1.273 . S
C1019 O1015 1.246 . S
C1019 O1016 1.259 . S
C1020 O1017 1.252 . S
C1020 O1018 1.273 . S
O1021 Mg1008 2.010 . S
O1021 C1013 1.249 . S
Mg1022 O1023 2.028 . S
Mg1022 O1029 1.986 . S
Mg1022 O1031 2.114 . S
Mg1022 O1032 2.251 . S
Mg1022 O1035 2.010 . S
O1023 Mg1022 2.028 . S
O1023 C1026 1.250 . S
O1024 Mg1025 2.028 . S
O1024 C1026 1.248 . S
Mg1025 O1024 2.028 . S
Mg1025 O1030 2.032 . S
Mg1025 O1032 2.079 . S
C1026 O1023 1.250 . S
C1026 O1024 1.248 . S
C1027 O1028 1.264 . S
C1027 O1035 1.249 . S
O1028 C1027 1.264 . S
O1029 Mg1022 1.986 . S
O1029 C1033 1.246 . S
O1030 Mg1025 2.032 . S
O1030 C1033 1.259 . S
O1031 Mg1022 2.114 . S
O1031 C1034 1.252 . S
O1032 Mg1022 2.251 . S
O1032 Mg1025 2.079 . S
O1032 C1034 1.273 . S
C1033 O1029 1.246 . S
C1033 O1030 1.259 . S
C1034 O1031 1.252 . S
C1034 O1032 1.273 . S
O1035 Mg1022 2.010 . S
O1035 C1027 1.249 . S
Mg1036 O1037 2.028 . S
Mg1036 O1043 1.986 . S
Mg1036 O1045 2.114 . S
Mg1036 O1046 2.251 . S
Mg1036 O1049 2.010 . S
O1037 Mg1036 2.028 . S
O1037 C1040 1.250 . S
O1038 Mg1039 2.028 . S
O1038 C1040 1.248 . S
Mg1039 O1038 2.028 . S
Mg1039 O1044 2.032 . S
Mg1039 O1046 2.079 . S
C1040 O1037 1.250 . S
C1040 O1038 1.248 . S
C1041 O1042 1.264 . S
C1041 O1049 1.249 . S
O1042 C1041 1.264 . S
O1043 Mg1036 1.986 . S
O1043 C1047 1.246 . S
O1044 Mg1039 2.032 . S
O1044 C1047 1.259 . S
O1045 Mg1036 2.114 . S
O1045 C1048 1.252 . S
O1046 Mg1036 2.251 . S
O1046 Mg1039 2.079 . S
O1046 C1048 1.273 . S
C1047 O1043 1.246 . S
C1047 O1044 1.259 . S
C1048 O1045 1.252 . S
C1048 O1046 1.273 . S
O1049 Mg1036 2.010 . S
O1049 C1041 1.249 . S
Mg1050 O1051 2.028 . S
Mg1050 O1057 1.986 . S
Mg1050 O1059 2.114 . S
Mg1050 O1060 2.251 . S
Mg1050 O1063 2.010 . S
O1051 Mg1050 2.028 . S
O1051 C1054 1.250 . S
O1052 Mg1053 2.028 . S
O1052 C1054 1.248 . S
Mg1053 O1052 2.028 . S
Mg1053 O1058 2.032 . S
Mg1053 O1060 2.079 . S
C1054 O1051 1.250 . S
C1054 O1052 1.248 . S
C1055 O1056 1.264 . S
C1055 O1063 1.249 . S
O1056 C1055 1.264 . S
O1057 Mg1050 1.986 . S
O1057 C1061 1.246 . S
O1058 Mg1053 2.032 . S
O1058 C1061 1.259 . S
O1059 Mg1050 2.114 . S
O1059 C1062 1.252 . S
O1060 Mg1050 2.251 . S
O1060 Mg1053 2.079 . S
O1060 C1062 1.273 . S
C1061 O1057 1.246 . S
C1061 O1058 1.259 . S
C1062 O1059 1.252 . S
C1062 O1060 1.273 . S
O1063 Mg1050 2.010 . S
O1063 C1055 1.249 . S
Mg1064 O1065 2.028 . S
Mg1064 O1071 1.986 . S
Mg1064 O1073 2.114 . S
Mg1064 O1074 2.251 . S
Mg1064 O1077 2.010 . S
O1065 Mg1064 2.028 . S
O1065 C1068 1.250 . S
O1066 Mg1067 2.028 . S
O1066 C1068 1.248 . S
Mg1067 O1066 2.028 . S
Mg1067 O1072 2.032 . S
Mg1067 O1074 2.079 . S
C1068 O1065 1.250 . S
C1068 O1066 1.248 . S
C1069 O1070 1.264 . S
C1069 O1077 1.249 . S
O1070 C1069 1.264 . S
O1071 Mg1064 1.986 . S
O1071 C1075 1.246 . S
O1072 Mg1067 2.032 . S
O1072 C1075 1.259 . S
O1073 Mg1064 2.114 . S
O1073 C1076 1.252 . S
O1074 Mg1064 2.251 . S
O1074 Mg1067 2.079 . S
O1074 C1076 1.273 . S
C1075 O1071 1.246 . S
C1075 O1072 1.259 . S
C1076 O1073 1.252 . S
C1076 O1074 1.273 . S
O1077 Mg1064 2.010 . S
O1077 C1069 1.249 . S
Mg1078 O1079 2.028 . S
Mg1078 O1085 1.986 . S
Mg1078 O1087 2.114 . S
Mg1078 O1088 2.251 . S
Mg1078 O1091 2.010 . S
O1079 Mg1078 2.028 . S
O1079 C1082 1.250 . S
O1080 Mg1081 2.028 . S
O1080 C1082 1.248 . S
Mg1081 O1080 2.028 . S
Mg1081 O1086 2.032 . S
Mg1081 O1088 2.079 . S
C1082 O1079 1.250 . S
C1082 O1080 1.248 . S
C1083 O1084 1.264 . S
C1083 O1091 1.249 . S
O1084 C1083 1.264 . S
O1085 Mg1078 1.986 . S
O1085 C1089 1.246 . S
O1086 Mg1081 2.032 . S
O1086 C1089 1.259 . S
O1087 Mg1078 2.114 . S
O1087 C1090 1.252 . S
O1088 Mg1078 2.251 . S
O1088 Mg1081 2.079 . S
O1088 C1090 1.273 . S
C1089 O1085 1.246 . S
C1089 O1086 1.259 . S
C1090 O1087 1.252 . S
C1090 O1088 1.273 . S
O1091 Mg1078 2.010 . S
O1091 C1083 1.249 . S
Mg1092 O1093 2.028 . S
Mg1092 O1099 1.986 . S
Mg1092 O1101 2.114 . S
Mg1092 O1102 2.251 . S
Mg1092 O1105 2.010 . S
O1093 Mg1092 2.028 . S
O1093 C1096 1.250 . S
O1094 Mg1095 2.028 . S
O1094 C1096 1.248 . S
Mg1095 O1094 2.028 . S
Mg1095 O1100 2.032 . S
Mg1095 O1102 2.079 . S
C1096 O1093 1.250 . S
C1096 O1094 1.248 . S
C1097 O1098 1.264 . S
C1097 O1105 1.249 . S
O1098 C1097 1.264 . S
O1099 Mg1092 1.986 . S
O1099 C1103 1.246 . S
O1100 Mg1095 2.032 . S
O1100 C1103 1.259 . S
O1101 Mg1092 2.114 . S
O1101 C1104 1.252 . S
O1102 Mg1092 2.251 . S
O1102 Mg1095 2.079 . S
O1102 C1104 1.273 . S
C1103 O1099 1.246 . S
C1103 O1100 1.259 . S
C1104 O1101 1.252 . S
C1104 O1102 1.273 . S
O1105 Mg1092 2.010 . S
O1105 C1097 1.249 . S
Mg1106 O1107 2.028 . S
Mg1106 O1113 1.986 . S
Mg1106 O1115 2.114 . S
Mg1106 O1116 2.251 . S
Mg1106 O1119 2.010 . S
O1107 Mg1106 2.028 . S
O1107 C1110 1.250 . S
O1108 Mg1109 2.028 . S
O1108 C1110 1.248 . S
Mg1109 O1108 2.028 . S
Mg1109 O1114 2.032 . S
Mg1109 O1116 2.079 . S
C1110 O1107 1.250 . S
C1110 O1108 1.248 . S
C1111 O1112 1.264 . S
C1111 O1119 1.249 . S
O1112 C1111 1.264 . S
O1113 Mg1106 1.986 . S
O1113 C1117 1.246 . S
O1114 Mg1109 2.032 . S
O1114 C1117 1.259 . S
O1115 Mg1106 2.114 . S
O1115 C1118 1.252 . S
O1116 Mg1106 2.251 . S
O1116 Mg1109 2.079 . S
O1116 C1118 1.273 . S
C1117 O1113 1.246 . S
C1117 O1114 1.259 . S
C1118 O1115 1.252 . S
C1118 O1116 1.273 . S
O1119 Mg1106 2.010 . S
O1119 C1111 1.249 . S
Mg1120 O1121 2.028 . S
Mg1120 O1127 1.986 . S
Mg1120 O1129 2.114 . S
Mg1120 O1130 2.251 . S
Mg1120 O1133 2.010 . S
O1121 Mg1120 2.028 . S
O1121 C1124 1.250 . S
O1122 Mg1123 2.028 . S
O1122 C1124 1.248 . S
Mg1123 O1122 2.028 . S
Mg1123 O1128 2.032 . S
Mg1123 O1130 2.079 . S
C1124 O1121 1.250 . S
C1124 O1122 1.248 . S
C1125 O1126 1.264 . S
C1125 O1133 1.249 . S
O1126 C1125 1.264 . S
O1127 Mg1120 1.986 . S
O1127 C1131 1.246 . S
O1128 Mg1123 2.032 . S
O1128 C1131 1.259 . S
O1129 Mg1120 2.114 . S
O1129 C1132 1.252 . S
O1130 Mg1120 2.251 . S
O1130 Mg1123 2.079 . S
O1130 C1132 1.273 . S
C1131 O1127 1.246 . S
C1131 O1128 1.259 . S
C1132 O1129 1.252 . S
C1132 O1130 1.273 . S
O1133 Mg1120 2.010 . S
O1133 C1125 1.249 . S
Mg1134 O1135 2.028 . S
Mg1134 O1141 1.986 . S
Mg1134 O1143 2.114 . S
Mg1134 O1144 2.251 . S
Mg1134 O1147 2.010 . S
O1135 Mg1134 2.028 . S
O1135 C1138 1.250 . S
O1136 Mg1137 2.028 . S
O1136 C1138 1.248 . S
Mg1137 O1136 2.028 . S
Mg1137 O1142 2.032 . S
Mg1137 O1144 2.079 . S
C1138 O1135 1.250 . S
C1138 O1136 1.248 . S
C1139 O1140 1.264 . S
C1139 O1147 1.249 . S
O1140 C1139 1.264 . S
O1141 Mg1134 1.986 . S
O1141 C1145 1.246 . S
O1142 Mg1137 2.032 . S
O1142 C1145 1.259 . S
O1143 Mg1134 2.114 . S
O1143 C1146 1.252 . S
O1144 Mg1134 2.251 . S
O1144 Mg1137 2.079 . S
O1144 C1146 1.273 . S
C1145 O1141 1.246 . S
C1145 O1142 1.259 . S
C1146 O1143 1.252 . S
C1146 O1144 1.273 . S
O1147 Mg1134 2.010 . S
O1147 C1139 1.249 . S
Mg1148 O1149 2.028 . S
Mg1148 O1155 1.986 . S
Mg1148 O1157 2.114 . S
Mg1148 O1158 2.251 . S
Mg1148 O1161 2.010 . S
O1149 Mg1148 2.028 . S
O1149 C1152 1.250 . S
O1150 Mg1151 2.028 . S
O1150 C1152 1.248 . S
Mg1151 O1150 2.028 . S
Mg1151 O1156 2.032 . S
Mg1151 O1158 2.079 . S
C1152 O1149 1.250 . S
C1152 O1150 1.248 . S
C1153 O1154 1.264 . S
C1153 O1161 1.249 . S
O1154 C1153 1.264 . S
O1155 Mg1148 1.986 . S
O1155 C1159 1.246 . S
O1156 Mg1151 2.032 . S
O1156 C1159 1.259 . S
O1157 Mg1148 2.114 . S
O1157 C1160 1.252 . S
O1158 Mg1148 2.251 . S
O1158 Mg1151 2.079 . S
O1158 C1160 1.273 . S
C1159 O1155 1.246 . S
C1159 O1156 1.259 . S
C1160 O1157 1.252 . S
C1160 O1158 1.273 . S
O1161 Mg1148 2.010 . S
O1161 C1153 1.249 . S
Mg1162 O1163 2.028 . S
Mg1162 O1169 1.986 . S
Mg1162 O1171 2.114 . S
Mg1162 O1172 2.251 . S
Mg1162 O1175 2.010 . S
O1163 Mg1162 2.028 . S
O1163 C1166 1.250 . S
O1164 Mg1165 2.028 . S
O1164 C1166 1.248 . S
Mg1165 O1164 2.028 . S
Mg1165 O1170 2.032 . S
Mg1165 O1172 2.079 . S
C1166 O1163 1.250 . S
C1166 O1164 1.248 . S
C1167 O1168 1.264 . S
C1167 O1175 1.249 . S
O1168 C1167 1.264 . S
O1169 Mg1162 1.986 . S
O1169 C1173 1.246 . S
O1170 Mg1165 2.032 . S
O1170 C1173 1.259 . S
O1171 Mg1162 2.114 . S
O1171 C1174 1.252 . S
O1172 Mg1162 2.251 . S
O1172 Mg1165 2.079 . S
O1172 C1174 1.273 . S
C1173 O1169 1.246 . S
C1173 O1170 1.259 . S
C1174 O1171 1.252 . S
C1174 O1172 1.273 . S
O1175 Mg1162 2.010 . S
O1175 C1167 1.249 . S
Mg1176 O1177 2.028 . S
Mg1176 O1183 1.986 . S
Mg1176 O1185 2.114 . S
Mg1176 O1186 2.251 . S
Mg1176 O1189 2.010 . S
O1177 Mg1176 2.028 . S
O1177 C1180 1.250 . S
O1178 Mg1179 2.028 . S
O1178 C1180 1.248 . S
Mg1179 O1178 2.028 . S
Mg1179 O1184 2.032 . S
Mg1179 O1186 2.079 . S
C1180 O1177 1.250 . S
C1180 O1178 1.248 . S
C1181 O1182 1.264 . S
C1181 O1189 1.249 . S
O1182 C1181 1.264 . S
O1183 Mg1176 1.986 . S
O1183 C1187 1.246 . S
O1184 Mg1179 2.032 . S
O1184 C1187 1.259 . S
O1185 Mg1176 2.114 . S
O1185 C1188 1.252 . S
O1186 Mg1176 2.251 . S
O1186 Mg1179 2.079 . S
O1186 C1188 1.273 . S
C1187 O1183 1.246 . S
C1187 O1184 1.259 . S
C1188 O1185 1.252 . S
C1188 O1186 1.273 . S
O1189 Mg1176 2.010 . S
O1189 C1181 1.249 . S
Mg1190 O1191 2.028 . S
Mg1190 O1197 1.986 . S
Mg1190 O1199 2.114 . S
Mg1190 O1200 2.251 . S
Mg1190 O1203 2.010 . S
O1191 Mg1190 2.028 . S
O1191 C1194 1.250 . S
O1192 Mg1193 2.028 . S
O1192 C1194 1.248 . S
Mg1193 O1192 2.028 . S
Mg1193 O1198 2.032 . S
Mg1193 O1200 2.079 . S
C1194 O1191 1.250 . S
C1194 O1192 1.248 . S
C1195 O1196 1.264 . S
C1195 O1203 1.249 . S
O1196 C1195 1.264 . S
O1197 Mg1190 1.986 . S
O1197 C1201 1.246 . S
O1198 Mg1193 2.032 . S
O1198 C1201 1.259 . S
O1199 Mg1190 2.114 . S
O1199 C1202 1.252 . S
O1200 Mg1190 2.251 . S
O1200 Mg1193 2.079 . S
O1200 C1202 1.273 . S
C1201 O1197 1.246 . S
C1201 O1198 1.259 . S
C1202 O1199 1.252 . S
C1202 O1200 1.273 . S
O1203 Mg1190 2.010 . S
O1203 C1195 1.249 . S
Mg1204 O1205 2.028 . S
Mg1204 O1211 1.986 . S
Mg1204 O1213 2.114 . S
Mg1204 O1214 2.251 . S
Mg1204 O1217 2.010 . S
O1205 Mg1204 2.028 . S
O1205 C1208 1.250 . S
O1206 Mg1207 2.028 . S
O1206 C1208 1.248 . S
Mg1207 O1206 2.028 . S
Mg1207 O1212 2.032 . S
Mg1207 O1214 2.079 . S
C1208 O1205 1.250 . S
C1208 O1206 1.248 . S
C1209 O1210 1.264 . S
C1209 O1217 1.249 . S
O1210 C1209 1.264 . S
O1211 Mg1204 1.986 . S
O1211 C1215 1.246 . S
O1212 Mg1207 2.032 . S
O1212 C1215 1.259 . S
O1213 Mg1204 2.114 . S
O1213 C1216 1.252 . S
O1214 Mg1204 2.251 . S
O1214 Mg1207 2.079 . S
O1214 C1216 1.273 . S
C1215 O1211 1.246 . S
C1215 O1212 1.259 . S
C1216 O1213 1.252 . S
C1216 O1214 1.273 . S
O1217 Mg1204 2.010 . S
O1217 C1209 1.249 . S
Mg1218 O1219 2.028 . S
Mg1218 O1225 1.986 . S
Mg1218 O1227 2.114 . S
Mg1218 O1228 2.251 . S
Mg1218 O1231 2.010 . S
O1219 Mg1218 2.028 . S
O1219 C1222 1.250 . S
O1220 Mg1221 2.028 . S
O1220 C1222 1.248 . S
Mg1221 O1220 2.028 . S
Mg1221 O1226 2.032 . S
Mg1221 O1228 2.079 . S
C1222 O1219 1.250 . S
C1222 O1220 1.248 . S
C1223 O1224 1.264 . S
C1223 O1231 1.249 . S
O1224 C1223 1.264 . S
O1225 Mg1218 1.986 . S
O1225 C1229 1.246 . S
O1226 Mg1221 2.032 . S
O1226 C1229 1.259 . S
O1227 Mg1218 2.114 . S
O1227 C1230 1.252 . S
O1228 Mg1218 2.251 . S
O1228 Mg1221 2.079 . S
O1228 C1230 1.273 . S
C1229 O1225 1.246 . S
C1229 O1226 1.259 . S
C1230 O1227 1.252 . S
C1230 O1228 1.273 . S
O1231 Mg1218 2.010 . S
O1231 C1223 1.249 . S
Mg1232 O1233 2.028 . S
Mg1232 O1239 1.986 . S
Mg1232 O1241 2.114 . S
Mg1232 O1242 2.251 . S
Mg1232 O1245 2.010 . S
O1233 Mg1232 2.028 . S
O1233 C1236 1.250 . S
O1234 Mg1235 2.028 . S
O1234 C1236 1.248 . S
Mg1235 O1234 2.028 . S
Mg1235 O1240 2.032 . S
Mg1235 O1242 2.079 . S
C1236 O1233 1.250 . S
C1236 O1234 1.248 . S
C1237 O1238 1.264 . S
C1237 O1245 1.249 . S
O1238 C1237 1.264 . S
O1239 Mg1232 1.986 . S
O1239 C1243 1.246 . S
O1240 Mg1235 2.032 . S
O1240 C1243 1.259 . S
O1241 Mg1232 2.114 . S
O1241 C1244 1.252 . S
O1242 Mg1232 2.251 . S
O1242 Mg1235 2.079 . S
O1242 C1244 1.273 . S
C1243 O1239 1.246 . S
C1243 O1240 1.259 . S
C1244 O1241 1.252 . S
C1244 O1242 1.273 . S
O1245 Mg1232 2.010 . S
O1245 C1237 1.249 . S
Mg1246 O1247 2.028 . S
Mg1246 O1253 1.986 . S
Mg1246 O1255 2.114 . S
Mg1246 O1256 2.251 . S
Mg1246 O1259 2.010 . S
O1247 Mg1246 2.028 . S
O1247 C1250 1.250 . S
O1248 Mg1249 2.028 . S
O1248 C1250 1.248 . S
Mg1249 O1248 2.028 . S
Mg1249 O1254 2.032 . S
Mg1249 O1256 2.079 . S
C1250 O1247 1.250 . S
C1250 O1248 1.248 . S
C1251 O1252 1.264 . S
C1251 O1259 1.249 . S
O1252 C1251 1.264 . S
O1253 Mg1246 1.986 . S
O1253 C1257 1.246 . S
O1254 Mg1249 2.032 . S
O1254 C1257 1.259 . S
O1255 Mg1246 2.114 . S
O1255 C1258 1.252 . S
O1256 Mg1246 2.251 . S
O1256 Mg1249 2.079 . S
O1256 C1258 1.273 . S
C1257 O1253 1.246 . S
C1257 O1254 1.259 . S
C1258 O1255 1.252 . S
C1258 O1256 1.273 . S
O1259 Mg1246 2.010 . S
O1259 C1251 1.249 . S
Mg1260 O1261 2.028 . S
Mg1260 O1267 1.986 . S
Mg1260 O1269 2.114 . S
Mg1260 O1270 2.251 . S
Mg1260 O1273 2.010 . S
O1261 Mg1260 2.028 . S
O1261 C1264 1.250 . S
O1262 Mg1263 2.028 . S
O1262 C1264 1.248 . S
Mg1263 O1262 2.028 . S
Mg1263 O1268 2.032 . S
Mg1263 O1270 2.079 . S
C1264 O1261 1.250 . S
C1264 O1262 1.248 . S
C1265 O1266 1.264 . S
C1265 O1273 1.249 . S
O1266 C1265 1.264 . S
O1267 Mg1260 1.986 . S
O1267 C1271 1.246 . S
O1268 Mg1263 2.032 . S
O1268 C1271 1.259 . S
O1269 Mg1260 2.114 . S
O1269 C1272 1.252 . S
O1270 Mg1260 2.251 . S
O1270 Mg1263 2.079 . S
O1270 C1272 1.273 . S
C1271 O1267 1.246 . S
C1271 O1268 1.259 . S
C1272 O1269 1.252 . S
C1272 O1270 1.273 . S
O1273 Mg1260 2.010 . S
O1273 C1265 1.249 . S
Mg1274 O1275 2.028 . S
Mg1274 O1281 1.986 . S
Mg1274 O1283 2.114 . S
Mg1274 O1284 2.251 . S
Mg1274 O1287 2.010 . S
O1275 Mg1274 2.028 . S
O1275 C1278 1.250 . S
O1276 Mg1277 2.028 . S
O1276 C1278 1.248 . S
Mg1277 O1276 2.028 . S
Mg1277 O1282 2.032 . S
Mg1277 O1284 2.079 . S
C1278 O1275 1.250 . S
C1278 O1276 1.248 . S
C1279 O1280 1.264 . S
C1279 O1287 1.249 . S
O1280 C1279 1.264 . S
O1281 Mg1274 1.986 . S
O1281 C1285 1.246 . S
O1282 Mg1277 2.032 . S
O1282 C1285 1.259 . S
O1283 Mg1274 2.114 . S
O1283 C1286 1.252 . S
O1284 Mg1274 2.251 . S
O1284 Mg1277 2.079 . S
O1284 C1286 1.273 . S
C1285 O1281 1.246 . S
C1285 O1282 1.259 . S
C1286 O1283 1.252 . S
C1286 O1284 1.273 . S
O1287 Mg1274 2.010 . S
O1287 C1279 1.249 . S
Mg1288 O1289 2.028 . S
Mg1288 O1295 1.986 . S
Mg1288 O1297 2.114 . S
Mg1288 O1298 2.251 . S
Mg1288 O1301 2.010 . S
O1289 Mg1288 2.028 . S
O1289 C1292 1.250 . S
O1290 Mg1291 2.028 . S
O1290 C1292 1.248 . S
Mg1291 O1290 2.028 . S
Mg1291 O1296 2.032 . S
Mg1291 O1298 2.079 . S
C1292 O1289 1.250 . S
C1292 O1290 1.248 . S
C1293 O1294 1.264 . S
C1293 O1301 1.249 . S
O1294 C1293 1.264 . S
O1295 Mg1288 1.986 . S
O1295 C1299 1.246 . S
O1296 Mg1291 2.032 . S
O1296 C1299 1.259 . S
O1297 Mg1288 2.114 . S
O1297 C1300 1.252 . S
O1298 Mg1288 2.251 . S
O1298 Mg1291 2.079 . S
O1298 C1300 1.273 . S
C1299 O1295 1.246 . S
C1299 O1296 1.259 . S
C1300 O1297 1.252 . S
C1300 O1298 1.273 . S
O1301 Mg1288 2.010 . S
O1301 C1293 1.249 . S
Mg1302 O1303 2.028 . S
Mg1302 O1309 1.986 . S
Mg1302 O1311 2.114 . S
Mg1302 O1312 2.251 . S
Mg1302 O1315 2.010 . S
O1303 Mg1302 2.028 . S
O1303 C1306 1.250 . S
O1304 Mg1305 2.028 . S
O1304 C1306 1.248 . S
Mg1305 O1304 2.028 . S
Mg1305 O1310 2.032 . S
Mg1305 O1312 2.079 . S
C1306 O1303 1.250 . S
C1306 O1304 1.248 . S
C1307 O1308 1.264 . S
C1307 O1315 1.249 . S
O1308 C1307 1.264 . S
O1309 Mg1302 1.986 . S
O1309 C1313 1.246 . S
O1310 Mg1305 2.032 . S
O1310 C1313 1.259 . S
O1311 Mg1302 2.114 . S
O1311 C1314 1.252 . S
O1312 Mg1302 2.251 . S
O1312 Mg1305 2.079 . S
O1312 C1314 1.273 . S
C1313 O1309 1.246 . S
C1313 O1310 1.259 . S
C1314 O1311 1.252 . S
C1314 O1312 1.273 . S
O1315 Mg1302 2.010 . S
O1315 C1307 1.249 . S
Mg1316 O1317 2.028 . S
Mg1316 O1323 1.986 . S
Mg1316 O1325 2.114 . S
Mg1316 O1326 2.251 . S
Mg1316 O1329 2.010 . S
O1317 Mg1316 2.028 . S
O1317 C1320 1.250 . S
O1318 Mg1319 2.028 . S
O1318 C1320 1.248 . S
Mg1319 O1318 2.028 . S
Mg1319 O1324 2.032 . S
Mg1319 O1326 2.079 . S
C1320 O1317 1.250 . S
C1320 O1318 1.248 . S
C1321 O1322 1.264 . S
C1321 O1329 1.249 . S
O1322 C1321 1.264 . S
O1323 Mg1316 1.986 . S
O1323 C1327 1.246 . S
O1324 Mg1319 2.032 . S
O1324 C1327 1.259 . S
O1325 Mg1316 2.114 . S
O1325 C1328 1.252 . S
O1326 Mg1316 2.251 . S
O1326 Mg1319 2.079 . S
O1326 C1328 1.273 . S
C1327 O1323 1.246 . S
C1327 O1324 1.259 . S
C1328 O1325 1.252 . S
C1328 O1326 1.273 . S
O1329 Mg1316 2.010 . S
O1329 C1321 1.249 . S
Mg1330 O1331 2.028 . S
Mg1330 O1337 1.986 . S
Mg1330 O1339 2.114 . S
Mg1330 O1340 2.251 . S
Mg1330 O1343 2.010 . S
O1331 Mg1330 2.028 . S
O1331 C1334 1.250 . S
O1332 Mg1333 2.028 . S
O1332 C1334 1.248 . S
Mg1333 O1332 2.028 . S
Mg1333 O1338 2.032 . S
Mg1333 O1340 2.079 . S
C1334 O1331 1.250 . S
C1334 O1332 1.248 . S
C1335 O1336 1.264 . S
C1335 O1343 1.249 . S
O1336 C1335 1.264 . S
O1337 Mg1330 1.986 . S
O1337 C1341 1.246 . S
O1338 Mg1333 2.032 . S
O1338 C1341 1.259 . S
O1339 Mg1330 2.114 . S
O1339 C1342 1.252 . S
O1340 Mg1330 2.251 . S
O1340 Mg1333 2.079 . S
O1340 C1342 1.273 . S
C1341 O1337 1.246 . S
C1341 O1338 1.259 . S
C1342 O1339 1.252 . S
C1342 O1340 1.273 . S
O1343 Mg1330 2.010 . S
O1343 C1335 1.249 . S
C1344 C1345 1.369 . S
C1344 C1346 1.419 . S
C1344 H1348 0.930 . S
C1345 C1344 1.369 . S
C1345 C1354 1.429 . S
C1346 C1344 1.419 . S
C1346 C1347 1.363 . S
C1346 H1349 0.929 . S
C1347 C1346 1.363 . S
C1347 C1353 1.428 . S
H1348 C1344 0.930 . S
H1349 C1346 0.929 . S
S1350 N1351 1.613 . S
S1350 N1352 1.610 . S
N1351 S1350 1.613 . S
N1351 C1354 1.350 . S
N1352 S1350 1.610 . S
N1352 C1353 1.351 . S
C1353 C1347 1.428 . S
C1353 N1352 1.351 . S
C1353 C1354 1.434 . S
C1354 C1345 1.429 . S
C1354 N1351 1.350 . S
C1354 C1353 1.434 . S
C1355 C1356 1.369 . S
C1355 C1357 1.419 . S
C1355 H1359 0.930 . S
C1356 C1355 1.369 . S
C1356 C1365 1.429 . S
C1357 C1355 1.419 . S
C1357 C1358 1.363 . S
C1357 H1360 0.929 . S
C1358 C1357 1.363 . S
C1358 C1364 1.428 . S
H1359 C1355 0.930 . S
H1360 C1357 0.929 . S
S1361 N1362 1.613 . S
S1361 N1363 1.610 . S
N1362 S1361 1.613 . S
N1362 C1365 1.350 . S
N1363 S1361 1.610 . S
N1363 C1364 1.351 . S
C1364 C1358 1.428 . S
C1364 N1363 1.351 . S
C1364 C1365 1.434 . S
C1365 C1356 1.429 . S
C1365 N1362 1.350 . S
C1365 C1364 1.434 . S
C1366 C1367 1.369 . S
C1366 C1368 1.419 . S
C1366 H1370 0.930 . S
C1367 C1366 1.369 . S
C1367 C1376 1.429 . S
C1368 C1366 1.419 . S
C1368 C1369 1.363 . S
C1368 H1371 0.929 . S
C1369 C1368 1.363 . S
C1369 C1375 1.428 . S
H1370 C1366 0.930 . S
H1371 C1368 0.929 . S
S1372 N1373 1.613 . S
S1372 N1374 1.610 . S
N1373 S1372 1.613 . S
N1373 C1376 1.350 . S
N1374 S1372 1.610 . S
N1374 C1375 1.351 . S
C1375 C1369 1.428 . S
C1375 N1374 1.351 . S
C1375 C1376 1.434 . S
C1376 C1367 1.429 . S
C1376 N1373 1.350 . S
C1376 C1375 1.434 . S
C1377 C1378 1.369 . S
C1377 C1379 1.419 . S
C1377 H1381 0.930 . S
C1378 C1377 1.369 . S
C1378 C1387 1.429 . S
C1379 C1377 1.419 . S
C1379 C1380 1.363 . S
C1379 H1382 0.929 . S
C1380 C1379 1.363 . S
C1380 C1386 1.428 . S
H1381 C1377 0.930 . S
H1382 C1379 0.929 . S
S1383 N1384 1.613 . S
S1383 N1385 1.610 . S
N1384 S1383 1.613 . S
N1384 C1387 1.350 . S
N1385 S1383 1.610 . S
N1385 C1386 1.351 . S
C1386 C1380 1.428 . S
C1386 N1385 1.351 . S
C1386 C1387 1.434 . S
C1387 C1378 1.429 . S
C1387 N1384 1.350 . S
C1387 C1386 1.434 . S
C1388 C1389 1.369 . S
C1388 C1390 1.419 . S
C1388 H1392 0.930 . S
C1389 C1388 1.369 . S
C1389 C1398 1.429 . S
C1390 C1388 1.419 . S
C1390 C1391 1.363 . S
C1390 H1393 0.929 . S
C1391 C1390 1.363 . S
C1391 C1397 1.428 . S
H1392 C1388 0.930 . S
H1393 C1390 0.929 . S
S1394 N1395 1.613 . S
S1394 N1396 1.610 . S
N1395 S1394 1.613 . S
N1395 C1398 1.350 . S
N1396 S1394 1.610 . S
N1396 C1397 1.351 . S
C1397 C1391 1.428 . S
C1397 N1396 1.351 . S
C1397 C1398 1.434 . S
C1398 C1389 1.429 . S
C1398 N1395 1.350 . S
C1398 C1397 1.434 . S
C1399 C1400 1.369 . S
C1399 C1401 1.419 . S
C1399 H1403 0.930 . S
C1400 C1399 1.369 . S
C1400 C1409 1.429 . S
C1401 C1399 1.419 . S
C1401 C1402 1.363 . S
C1401 H1404 0.929 . S
C1402 C1401 1.363 . S
C1402 C1408 1.428 . S
H1403 C1399 0.930 . S
H1404 C1401 0.929 . S
S1405 N1406 1.613 . S
S1405 N1407 1.610 . S
N1406 S1405 1.613 . S
N1406 C1409 1.350 . S
N1407 S1405 1.610 . S
N1407 C1408 1.351 . S
C1408 C1402 1.428 . S
C1408 N1407 1.351 . S
C1408 C1409 1.434 . S
C1409 C1400 1.429 . S
C1409 N1406 1.350 . S
C1409 C1408 1.434 . S
C1410 C1411 1.369 . S
C1410 C1412 1.419 . S
C1410 H1414 0.930 . S
C1411 C1410 1.369 . S
C1411 C1420 1.429 . S
C1412 C1410 1.419 . S
C1412 C1413 1.363 . S
C1412 H1415 0.929 . S
C1413 C1412 1.363 . S
C1413 C1419 1.428 . S
H1414 C1410 0.930 . S
H1415 C1412 0.929 . S
S1416 N1417 1.613 . S
S1416 N1418 1.610 . S
N1417 S1416 1.613 . S
N1417 C1420 1.350 . S
N1418 S1416 1.610 . S
N1418 C1419 1.351 . S
C1419 C1413 1.428 . S
C1419 N1418 1.351 . S
C1419 C1420 1.434 . S
C1420 C1411 1.429 . S
C1420 N1417 1.350 . S
C1420 C1419 1.434 . S
C1421 C1422 1.369 . S
C1421 C1423 1.419 . S
C1421 H1425 0.930 . S
C1422 C1421 1.369 . S
C1422 C1431 1.429 . S
C1423 C1421 1.419 . S
C1423 C1424 1.363 . S
C1423 H1426 0.929 . S
C1424 C1423 1.363 . S
C1424 C1430 1.428 . S
H1425 C1421 0.930 . S
H1426 C1423 0.929 . S
S1427 N1428 1.613 . S
S1427 N1429 1.610 . S
N1428 S1427 1.613 . S
N1428 C1431 1.350 . S
N1429 S1427 1.610 . S
N1429 C1430 1.351 . S
C1430 C1424 1.428 . S
C1430 N1429 1.351 . S
C1430 C1431 1.434 . S
C1431 C1422 1.429 . S
C1431 N1428 1.350 . S
C1431 C1430 1.434 . S
C1432 C1433 1.369 . S
C1432 C1434 1.419 . S
C1432 H1436 0.930 . S
C1433 C1432 1.369 . S
C1433 C1442 1.429 . S
C1434 C1432 1.419 . S
C1434 C1435 1.363 . S
C1434 H1437 0.929 . S
C1435 C1434 1.363 . S
C1435 C1441 1.428 . S
H1436 C1432 0.930 . S
H1437 C1434 0.929 . S
S1438 N1439 1.613 . S
S1438 N1440 1.610 . S
N1439 S1438 1.613 . S
N1439 C1442 1.350 . S
N1440 S1438 1.610 . S
N1440 C1441 1.351 . S
C1441 C1435 1.428 . S
C1441 N1440 1.351 . S
C1441 C1442 1.434 . S
C1442 C1433 1.429 . S
C1442 N1439 1.350 . S
C1442 C1441 1.434 . S
C1443 C1444 1.369 . S
C1443 C1445 1.419 . S
C1443 H1447 0.930 . S
C1444 C1443 1.369 . S
C1444 C1453 1.429 . S
C1445 C1443 1.419 . S
C1445 C1446 1.363 . S
C1445 H1448 0.929 . S
C1446 C1445 1.363 . S
C1446 C1452 1.428 . S
H1447 C1443 0.930 . S
H1448 C1445 0.929 . S
S1449 N1450 1.613 . S
S1449 N1451 1.610 . S
N1450 S1449 1.613 . S
N1450 C1453 1.350 . S
N1451 S1449 1.610 . S
N1451 C1452 1.351 . S
C1452 C1446 1.428 . S
C1452 N1451 1.351 . S
C1452 C1453 1.434 . S
C1453 C1444 1.429 . S
C1453 N1450 1.350 . S
C1453 C1452 1.434 . S
C1454 C1455 1.369 . S
C1454 C1456 1.419 . S
C1454 H1458 0.930 . S
C1455 C1454 1.369 . S
C1455 C1464 1.429 . S
C1456 C1454 1.419 . S
C1456 C1457 1.363 . S
C1456 H1459 0.929 . S
C1457 C1456 1.363 . S
C1457 C1463 1.428 . S
H1458 C1454 0.930 . S
H1459 C1456 0.929 . S
S1460 N1461 1.613 . S
S1460 N1462 1.610 . S
N1461 S1460 1.613 . S
N1461 C1464 1.350 . S
N1462 S1460 1.610 . S
N1462 C1463 1.351 . S
C1463 C1457 1.428 . S
C1463 N1462 1.351 . S
C1463 C1464 1.434 . S
C1464 C1455 1.429 . S
C1464 N1461 1.350 . S
C1464 C1463 1.434 . S
C1465 C1466 1.369 . S
C1465 C1467 1.419 . S
C1465 H1469 0.930 . S
C1466 C1465 1.369 . S
C1466 C1475 1.429 . S
C1467 C1465 1.419 . S
C1467 C1468 1.363 . S
C1467 H1470 0.929 . S
C1468 C1467 1.363 . S
C1468 C1474 1.428 . S
H1469 C1465 0.930 . S
H1470 C1467 0.929 . S
S1471 N1472 1.613 . S
S1471 N1473 1.610 . S
N1472 S1471 1.613 . S
N1472 C1475 1.350 . S
N1473 S1471 1.610 . S
N1473 C1474 1.351 . S
C1474 C1468 1.428 . S
C1474 N1473 1.351 . S
C1474 C1475 1.434 . S
C1475 C1466 1.429 . S
C1475 N1472 1.350 . S
C1475 C1474 1.434 . S
C1476 C1477 1.369 . S
C1476 C1478 1.419 . S
C1476 H1480 0.930 . S
C1477 C1476 1.369 . S
C1477 C1486 1.429 . S
C1478 C1476 1.419 . S
C1478 C1479 1.363 . S
C1478 H1481 0.929 . S
C1479 C1478 1.363 . S
C1479 C1485 1.428 . S
H1480 C1476 0.930 . S
H1481 C1478 0.929 . S
S1482 N1483 1.613 . S
S1482 N1484 1.610 . S
N1483 S1482 1.613 . S
N1483 C1486 1.350 . S
N1484 S1482 1.610 . S
N1484 C1485 1.351 . S
C1485 C1479 1.428 . S
C1485 N1484 1.351 . S
C1485 C1486 1.434 . S
C1486 C1477 1.429 . S
C1486 N1483 1.350 . S
C1486 C1485 1.434 . S
C1487 C1488 1.369 . S
C1487 C1489 1.419 . S
C1487 H1491 0.930 . S
C1488 C1487 1.369 . S
C1488 C1497 1.429 . S
C1489 C1487 1.419 . S
C1489 C1490 1.363 . S
C1489 H1492 0.929 . S
C1490 C1489 1.363 . S
C1490 C1496 1.428 . S
H1491 C1487 0.930 . S
H1492 C1489 0.929 . S
S1493 N1494 1.613 . S
S1493 N1495 1.610 . S
N1494 S1493 1.613 . S
N1494 C1497 1.350 . S
N1495 S1493 1.610 . S
N1495 C1496 1.351 . S
C1496 C1490 1.428 . S
C1496 N1495 1.351 . S
C1496 C1497 1.434 . S
C1497 C1488 1.429 . S
C1497 N1494 1.350 . S
C1497 C1496 1.434 . S
C1498 C1499 1.369 . S
C1498 C1500 1.419 . S
C1498 H1502 0.930 . S
C1499 C1498 1.369 . S
C1499 C1508 1.429 . S
C1500 C1498 1.419 . S
C1500 C1501 1.363 . S
C1500 H1503 0.929 . S
C1501 C1500 1.363 . S
C1501 C1507 1.428 . S
H1502 C1498 0.930 . S
H1503 C1500 0.929 . S
S1504 N1505 1.613 . S
S1504 N1506 1.610 . S
N1505 S1504 1.613 . S
N1505 C1508 1.350 . S
N1506 S1504 1.610 . S
N1506 C1507 1.351 . S
C1507 C1501 1.428 . S
C1507 N1506 1.351 . S
C1507 C1508 1.434 . S
C1508 C1499 1.429 . S
C1508 N1505 1.350 . S
C1508 C1507 1.434 . S
C1509 C1510 1.369 . S
C1509 C1511 1.419 . S
C1509 H1513 0.930 . S
C1510 C1509 1.369 . S
C1510 C1519 1.429 . S
C1511 C1509 1.419 . S
C1511 C1512 1.363 . S
C1511 H1514 0.929 . S
C1512 C1511 1.363 . S
C1512 C1518 1.428 . S
H1513 C1509 0.930 . S
H1514 C1511 0.929 . S
S1515 N1516 1.613 . S
S1515 N1517 1.610 . S
N1516 S1515 1.613 . S
N1516 C1519 1.350 . S
N1517 S1515 1.610 . S
N1517 C1518 1.351 . S
C1518 C1512 1.428 . S
C1518 N1517 1.351 . S
C1518 C1519 1.434 . S
C1519 C1510 1.429 . S
C1519 N1516 1.350 . S
C1519 C1518 1.434 . S
C1520 C1521 1.369 . S
C1520 C1522 1.419 . S
C1520 H1524 0.930 . S
C1521 C1520 1.369 . S
C1521 C1530 1.429 . S
C1522 C1520 1.419 . S
C1522 C1523 1.363 . S
C1522 H1525 0.929 . S
C1523 C1522 1.363 . S
C1523 C1529 1.428 . S
H1524 C1520 0.930 . S
H1525 C1522 0.929 . S
S1526 N1527 1.613 . S
S1526 N1528 1.610 . S
N1527 S1526 1.613 . S
N1527 C1530 1.350 . S
N1528 S1526 1.610 . S
N1528 C1529 1.351 . S
C1529 C1523 1.428 . S
C1529 N1528 1.351 . S
C1529 C1530 1.434 . S
C1530 C1521 1.429 . S
C1530 N1527 1.350 . S
C1530 C1529 1.434 . S
C1531 C1532 1.369 . S
C1531 C1533 1.419 . S
C1531 H1535 0.930 . S
C1532 C1531 1.369 . S
C1532 C1541 1.429 . S
C1533 C1531 1.419 . S
C1533 C1534 1.363 . S
C1533 H1536 0.929 . S
C1534 C1533 1.363 . S
C1534 C1540 1.428 . S
H1535 C1531 0.930 . S
H1536 C1533 0.929 . S
S1537 N1538 1.613 . S
S1537 N1539 1.610 . S
N1538 S1537 1.613 . S
N1538 C1541 1.350 . S
N1539 S1537 1.610 . S
N1539 C1540 1.351 . S
C1540 C1534 1.428 . S
C1540 N1539 1.351 . S
C1540 C1541 1.434 . S
C1541 C1532 1.429 . S
C1541 N1538 1.350 . S
C1541 C1540 1.434 . S
C1542 C1543 1.369 . S
C1542 C1544 1.419 . S
C1542 H1546 0.930 . S
C1543 C1542 1.369 . S
C1543 C1552 1.429 . S
C1544 C1542 1.419 . S
C1544 C1545 1.363 . S
C1544 H1547 0.929 . S
C1545 C1544 1.363 . S
C1545 C1551 1.428 . S
H1546 C1542 0.930 . S
H1547 C1544 0.929 . S
S1548 N1549 1.613 . S
S1548 N1550 1.610 . S
N1549 S1548 1.613 . S
N1549 C1552 1.350 . S
N1550 S1548 1.610 . S
N1550 C1551 1.351 . S
C1551 C1545 1.428 . S
C1551 N1550 1.351 . S
C1551 C1552 1.434 . S
C1552 C1543 1.429 . S
C1552 N1549 1.350 . S
C1552 C1551 1.434 . S
C1553 C1554 1.369 . S
C1553 C1555 1.419 . S
C1553 H1557 0.930 . S
C1554 C1553 1.369 . S
C1554 C1563 1.429 . S
C1555 C1553 1.419 . S
C1555 C1556 1.363 . S
C1555 H1558 0.929 . S
C1556 C1555 1.363 . S
C1556 C1562 1.428 . S
H1557 C1553 0.930 . S
H1558 C1555 0.929 . S
S1559 N1560 1.613 . S
S1559 N1561 1.610 . S
N1560 S1559 1.613 . S
N1560 C1563 1.350 . S
N1561 S1559 1.610 . S
N1561 C1562 1.351 . S
C1562 C1556 1.428 . S
C1562 N1561 1.351 . S
C1562 C1563 1.434 . S
C1563 C1554 1.429 . S
C1563 N1560 1.350 . S
C1563 C1562 1.434 . S
C1564 C1565 1.369 . S
C1564 C1566 1.419 . S
C1564 H1568 0.930 . S
C1565 C1564 1.369 . S
C1565 C1574 1.429 . S
C1566 C1564 1.419 . S
C1566 C1567 1.363 . S
C1566 H1569 0.929 . S
C1567 C1566 1.363 . S
C1567 C1573 1.428 . S
H1568 C1564 0.930 . S
H1569 C1566 0.929 . S
S1570 N1571 1.613 . S
S1570 N1572 1.610 . S
N1571 S1570 1.613 . S
N1571 C1574 1.350 . S
N1572 S1570 1.610 . S
N1572 C1573 1.351 . S
C1573 C1567 1.428 . S
C1573 N1572 1.351 . S
C1573 C1574 1.434 . S
C1574 C1565 1.429 . S
C1574 N1571 1.350 . S
C1574 C1573 1.434 . S
C1575 C1576 1.369 . S
C1575 C1577 1.419 . S
C1575 H1579 0.930 . S
C1576 C1575 1.369 . S
C1576 C1585 1.429 . S
C1577 C1575 1.419 . S
C1577 C1578 1.363 . S
C1577 H1580 0.929 . S
C1578 C1577 1.363 . S
C1578 C1584 1.428 . S
H1579 C1575 0.930 . S
H1580 C1577 0.929 . S
S1581 N1582 1.613 . S
S1581 N1583 1.610 . S
N1582 S1581 1.613 . S
N1582 C1585 1.350 . S
N1583 S1581 1.610 . S
N1583 C1584 1.351 . S
C1584 C1578 1.428 . S
C1584 N1583 1.351 . S
C1584 C1585 1.434 . S
C1585 C1576 1.429 . S
C1585 N1582 1.350 . S
C1585 C1584 1.434 . S
C1586 C1587 1.369 . S
C1586 C1588 1.419 . S
C1586 H1590 0.930 . S
C1587 C1586 1.369 . S
C1587 C1596 1.429 . S
C1588 C1586 1.419 . S
C1588 C1589 1.363 . S
C1588 H1591 0.929 . S
C1589 C1588 1.363 . S
C1589 C1595 1.428 . S
H1590 C1586 0.930 . S
H1591 C1588 0.929 . S
S1592 N1593 1.613 . S
S1592 N1594 1.610 . S
N1593 S1592 1.613 . S
N1593 C1596 1.350 . S
N1594 S1592 1.610 . S
N1594 C1595 1.351 . S
C1595 C1589 1.428 . S
C1595 N1594 1.351 . S
C1595 C1596 1.434 . S
C1596 C1587 1.429 . S
C1596 N1593 1.350 . S
C1596 C1595 1.434 . S
C1597 C1598 1.369 . S
C1597 C1599 1.419 . S
C1597 H1601 0.930 . S
C1598 C1597 1.369 . S
C1598 C1607 1.429 . S
C1599 C1597 1.419 . S
C1599 C1600 1.363 . S
C1599 H1602 0.929 . S
C1600 C1599 1.363 . S
C1600 C1606 1.428 . S
H1601 C1597 0.930 . S
H1602 C1599 0.929 . S
S1603 N1604 1.613 . S
S1603 N1605 1.610 . S
N1604 S1603 1.613 . S
N1604 C1607 1.350 . S
N1605 S1603 1.610 . S
N1605 C1606 1.351 . S
C1606 C1600 1.428 . S
C1606 N1605 1.351 . S
C1606 C1607 1.434 . S
C1607 C1598 1.429 . S
C1607 N1604 1.350 . S
C1607 C1606 1.434 . S
C1608 C1609 1.369 . S
C1608 C1610 1.419 . S
C1608 H1612 0.930 . S
C1609 C1608 1.369 . S
C1609 C1618 1.429 . S
C1610 C1608 1.419 . S
C1610 C1611 1.363 . S
C1610 H1613 0.929 . S
C1611 C1610 1.363 . S
C1611 C1617 1.428 . S
H1612 C1608 0.930 . S
H1613 C1610 0.929 . S
S1614 N1615 1.613 . S
S1614 N1616 1.610 . S
N1615 S1614 1.613 . S
N1615 C1618 1.350 . S
N1616 S1614 1.610 . S
N1616 C1617 1.351 . S
C1617 C1611 1.428 . S
C1617 N1616 1.351 . S
C1617 C1618 1.434 . S
C1618 C1609 1.429 . S
C1618 N1615 1.350 . S
C1618 C1617 1.434 . S
C1619 C1620 1.369 . S
C1619 C1621 1.419 . S
C1619 H1623 0.930 . S
C1620 C1619 1.369 . S
C1620 C1629 1.429 . S
C1621 C1619 1.419 . S
C1621 C1622 1.363 . S
C1621 H1624 0.929 . S
C1622 C1621 1.363 . S
C1622 C1628 1.428 . S
H1623 C1619 0.930 . S
H1624 C1621 0.929 . S
S1625 N1626 1.613 . S
S1625 N1627 1.610 . S
N1626 S1625 1.613 . S
N1626 C1629 1.350 . S
N1627 S1625 1.610 . S
N1627 C1628 1.351 . S
C1628 C1622 1.428 . S
C1628 N1627 1.351 . S
C1628 C1629 1.434 . S
C1629 C1620 1.429 . S
C1629 N1626 1.350 . S
C1629 C1628 1.434 . S
C1630 C1631 1.369 . S
C1630 C1632 1.419 . S
C1630 H1634 0.930 . S
C1631 C1630 1.369 . S
C1631 C1640 1.429 . S
C1632 C1630 1.419 . S
C1632 C1633 1.363 . S
C1632 H1635 0.929 . S
C1633 C1632 1.363 . S
C1633 C1639 1.428 . S
H1634 C1630 0.930 . S
H1635 C1632 0.929 . S
S1636 N1637 1.613 . S
S1636 N1638 1.610 . S
N1637 S1636 1.613 . S
N1637 C1640 1.350 . S
N1638 S1636 1.610 . S
N1638 C1639 1.351 . S
C1639 C1633 1.428 . S
C1639 N1638 1.351 . S
C1639 C1640 1.434 . S
C1640 C1631 1.429 . S
C1640 N1637 1.350 . S
C1640 C1639 1.434 . S
C1641 C1642 1.369 . S
C1641 C1643 1.419 . S
C1641 H1645 0.930 . S
C1642 C1641 1.369 . S
C1642 C1651 1.429 . S
C1643 C1641 1.419 . S
C1643 C1644 1.363 . S
C1643 H1646 0.929 . S
C1644 C1643 1.363 . S
C1644 C1650 1.428 . S
H1645 C1641 0.930 . S
H1646 C1643 0.929 . S
S1647 N1648 1.613 . S
S1647 N1649 1.610 . S
N1648 S1647 1.613 . S
N1648 C1651 1.350 . S
N1649 S1647 1.610 . S
N1649 C1650 1.351 . S
C1650 C1644 1.428 . S
C1650 N1649 1.351 . S
C1650 C1651 1.434 . S
C1651 C1642 1.429 . S
C1651 N1648 1.350 . S
C1651 C1650 1.434 . S
C1652 C1653 1.369 . S
C1652 C1654 1.419 . S
C1652 H1656 0.930 . S
C1653 C1652 1.369 . S
C1653 C1662 1.429 . S
C1654 C1652 1.419 . S
C1654 C1655 1.363 . S
C1654 H1657 0.929 . S
C1655 C1654 1.363 . S
C1655 C1661 1.428 . S
H1656 C1652 0.930 . S
H1657 C1654 0.929 . S
S1658 N1659 1.613 . S
S1658 N1660 1.610 . S
N1659 S1658 1.613 . S
N1659 C1662 1.350 . S
N1660 S1658 1.610 . S
N1660 C1661 1.351 . S
C1661 C1655 1.428 . S
C1661 N1660 1.351 . S
C1661 C1662 1.434 . S
C1662 C1653 1.429 . S
C1662 N1659 1.350 . S
C1662 C1661 1.434 . S
C1663 C1664 1.369 . S
C1663 C1665 1.419 . S
C1663 H1667 0.930 . S
C1664 C1663 1.369 . S
C1664 C1673 1.429 . S
C1665 C1663 1.419 . S
C1665 C1666 1.363 . S
C1665 H1668 0.929 . S
C1666 C1665 1.363 . S
C1666 C1672 1.428 . S
H1667 C1663 0.930 . S
H1668 C1665 0.929 . S
S1669 N1670 1.613 . S
S1669 N1671 1.610 . S
N1670 S1669 1.613 . S
N1670 C1673 1.350 . S
N1671 S1669 1.610 . S
N1671 C1672 1.351 . S
C1672 C1666 1.428 . S
C1672 N1671 1.351 . S
C1672 C1673 1.434 . S
C1673 C1664 1.429 . S
C1673 N1670 1.350 . S
C1673 C1672 1.434 . S
C1674 C1675 1.369 . S
C1674 C1676 1.419 . S
C1674 H1678 0.930 . S
C1675 C1674 1.369 . S
C1675 C1684 1.429 . S
C1676 C1674 1.419 . S
C1676 C1677 1.363 . S
C1676 H1679 0.929 . S
C1677 C1676 1.363 . S
C1677 C1683 1.428 . S
H1678 C1674 0.930 . S
H1679 C1676 0.929 . S
S1680 N1681 1.613 . S
S1680 N1682 1.610 . S
N1681 S1680 1.613 . S
N1681 C1684 1.350 . S
N1682 S1680 1.610 . S
N1682 C1683 1.351 . S
C1683 C1677 1.428 . S
C1683 N1682 1.351 . S
C1683 C1684 1.434 . S
C1684 C1675 1.429 . S
C1684 N1681 1.350 . S
C1684 C1683 1.434 . S
C1685 C1686 1.369 . S
C1685 C1687 1.419 . S
C1685 H1689 0.930 . S
C1686 C1685 1.369 . S
C1686 C1695 1.429 . S
C1687 C1685 1.419 . S
C1687 C1688 1.363 . S
C1687 H1690 0.929 . S
C1688 C1687 1.363 . S
C1688 C1694 1.428 . S
H1689 C1685 0.930 . S
H1690 C1687 0.929 . S
S1691 N1692 1.613 . S
S1691 N1693 1.610 . S
N1692 S1691 1.613 . S
N1692 C1695 1.350 . S
N1693 S1691 1.610 . S
N1693 C1694 1.351 . S
C1694 C1688 1.428 . S
C1694 N1693 1.351 . S
C1694 C1695 1.434 . S
C1695 C1686 1.429 . S
C1695 N1692 1.350 . S
C1695 C1694 1.434 . S
C1696 C1697 1.369 . S
C1696 C1698 1.419 . S
C1696 H1700 0.930 . S
C1697 C1696 1.369 . S
C1697 C1706 1.429 . S
C1698 C1696 1.419 . S
C1698 C1699 1.363 . S
C1698 H1701 0.929 . S
C1699 C1698 1.363 . S
C1699 C1705 1.428 . S
H1700 C1696 0.930 . S
H1701 C1698 0.929 . S
S1702 N1703 1.613 . S
S1702 N1704 1.610 . S
N1703 S1702 1.613 . S
N1703 C1706 1.350 . S
N1704 S1702 1.610 . S
N1704 C1705 1.351 . S
C1705 C1699 1.428 . S
C1705 N1704 1.351 . S
C1705 C1706 1.434 . S
C1706 C1697 1.429 . S
C1706 N1703 1.350 . S
C1706 C1705 1.434 . S
C1707 C1708 1.369 . S
C1707 C1709 1.419 . S
C1707 H1711 0.930 . S
C1708 C1707 1.369 . S
C1708 C1717 1.429 . S
C1709 C1707 1.419 . S
C1709 C1710 1.363 . S
C1709 H1712 0.929 . S
C1710 C1709 1.363 . S
C1710 C1716 1.428 . S
H1711 C1707 0.930 . S
H1712 C1709 0.929 . S
S1713 N1714 1.613 . S
S1713 N1715 1.610 . S
N1714 S1713 1.613 . S
N1714 C1717 1.350 . S
N1715 S1713 1.610 . S
N1715 C1716 1.351 . S
C1716 C1710 1.428 . S
C1716 N1715 1.351 . S
C1716 C1717 1.434 . S
C1717 C1708 1.429 . S
C1717 N1714 1.350 . S
C1717 C1716 1.434 . S
C1718 C1719 1.369 . S
C1718 C1720 1.419 . S
C1718 H1722 0.930 . S
C1719 C1718 1.369 . S
C1719 C1728 1.429 . S
C1720 C1718 1.419 . S
C1720 C1721 1.363 . S
C1720 H1723 0.929 . S
C1721 C1720 1.363 . S
C1721 C1727 1.428 . S
H1722 C1718 0.930 . S
H1723 C1720 0.929 . S
S1724 N1725 1.613 . S
S1724 N1726 1.610 . S
N1725 S1724 1.613 . S
N1725 C1728 1.350 . S
N1726 S1724 1.610 . S
N1726 C1727 1.351 . S
C1727 C1721 1.428 . S
C1727 N1726 1.351 . S
C1727 C1728 1.434 . S
C1728 C1719 1.429 . S
C1728 N1725 1.350 . S
C1728 C1727 1.434 . S
C1729 C1730 1.369 . S
C1729 C1731 1.419 . S
C1729 H1733 0.930 . S
C1730 C1729 1.369 . S
C1730 C1739 1.429 . S
C1731 C1729 1.419 . S
C1731 C1732 1.363 . S
C1731 H1734 0.929 . S
C1732 C1731 1.363 . S
C1732 C1738 1.428 . S
H1733 C1729 0.930 . S
H1734 C1731 0.929 . S
S1735 N1736 1.613 . S
S1735 N1737 1.610 . S
N1736 S1735 1.613 . S
N1736 C1739 1.350 . S
N1737 S1735 1.610 . S
N1737 C1738 1.351 . S
C1738 C1732 1.428 . S
C1738 N1737 1.351 . S
C1738 C1739 1.434 . S
C1739 C1730 1.429 . S
C1739 N1736 1.350 . S
C1739 C1738 1.434 . S
C1740 C1741 1.369 . S
C1740 C1742 1.419 . S
C1740 H1744 0.930 . S
C1741 C1740 1.369 . S
C1741 C1750 1.429 . S
C1742 C1740 1.419 . S
C1742 C1743 1.363 . S
C1742 H1745 0.929 . S
C1743 C1742 1.363 . S
C1743 C1749 1.428 . S
H1744 C1740 0.930 . S
H1745 C1742 0.929 . S
S1746 N1747 1.613 . S
S1746 N1748 1.610 . S
N1747 S1746 1.613 . S
N1747 C1750 1.350 . S
N1748 S1746 1.610 . S
N1748 C1749 1.351 . S
C1749 C1743 1.428 . S
C1749 N1748 1.351 . S
C1749 C1750 1.434 . S
C1750 C1741 1.429 . S
C1750 N1747 1.350 . S
C1750 C1749 1.434 . S
C1751 C1752 1.369 . S
C1751 C1753 1.419 . S
C1751 H1755 0.930 . S
C1752 C1751 1.369 . S
C1752 C1761 1.429 . S
C1753 C1751 1.419 . S
C1753 C1754 1.363 . S
C1753 H1756 0.929 . S
C1754 C1753 1.363 . S
C1754 C1760 1.428 . S
H1755 C1751 0.930 . S
H1756 C1753 0.929 . S
S1757 N1758 1.613 . S
S1757 N1759 1.610 . S
N1758 S1757 1.613 . S
N1758 C1761 1.350 . S
N1759 S1757 1.610 . S
N1759 C1760 1.351 . S
C1760 C1754 1.428 . S
C1760 N1759 1.351 . S
C1760 C1761 1.434 . S
C1761 C1752 1.429 . S
C1761 N1758 1.350 . S
C1761 C1760 1.434 . S
C1762 C1763 1.369 . S
C1762 C1764 1.419 . S
C1762 H1766 0.930 . S
C1763 C1762 1.369 . S
C1763 C1772 1.429 . S
C1764 C1762 1.419 . S
C1764 C1765 1.363 . S
C1764 H1767 0.929 . S
C1765 C1764 1.363 . S
C1765 C1771 1.428 . S
H1766 C1762 0.930 . S
H1767 C1764 0.929 . S
S1768 N1769 1.613 . S
S1768 N1770 1.610 . S
N1769 S1768 1.613 . S
N1769 C1772 1.350 . S
N1770 S1768 1.610 . S
N1770 C1771 1.351 . S
C1771 C1765 1.428 . S
C1771 N1770 1.351 . S
C1771 C1772 1.434 . S
C1772 C1763 1.429 . S
C1772 N1769 1.350 . S
C1772 C1771 1.434 . S
C1773 C1774 1.369 . S
C1773 C1775 1.419 . S
C1773 H1777 0.930 . S
C1774 C1773 1.369 . S
C1774 C1783 1.429 . S
C1775 C1773 1.419 . S
C1775 C1776 1.363 . S
C1775 H1778 0.929 . S
C1776 C1775 1.363 . S
C1776 C1782 1.428 . S
H1777 C1773 0.930 . S
H1778 C1775 0.929 . S
S1779 N1780 1.613 . S
S1779 N1781 1.610 . S
N1780 S1779 1.613 . S
N1780 C1783 1.350 . S
N1781 S1779 1.610 . S
N1781 C1782 1.351 . S
C1782 C1776 1.428 . S
C1782 N1781 1.351 . S
C1782 C1783 1.434 . S
C1783 C1774 1.429 . S
C1783 N1780 1.350 . S
C1783 C1782 1.434 . S
C1784 C1785 1.369 . S
C1784 C1786 1.419 . S
C1784 H1788 0.930 . S
C1785 C1784 1.369 . S
C1785 C1794 1.429 . S
C1786 C1784 1.419 . S
C1786 C1787 1.363 . S
C1786 H1789 0.929 . S
C1787 C1786 1.363 . S
C1787 C1793 1.428 . S
H1788 C1784 0.930 . S
H1789 C1786 0.929 . S
S1790 N1791 1.613 . S
S1790 N1792 1.610 . S
N1791 S1790 1.613 . S
N1791 C1794 1.350 . S
N1792 S1790 1.610 . S
N1792 C1793 1.351 . S
C1793 C1787 1.428 . S
C1793 N1792 1.351 . S
C1793 C1794 1.434 . S
C1794 C1785 1.429 . S
C1794 N1791 1.350 . S
C1794 C1793 1.434 . S
C1795 C1796 1.369 . S
C1795 C1797 1.419 . S
C1795 H1799 0.930 . S
C1796 C1795 1.369 . S
C1796 C1805 1.429 . S
C1797 C1795 1.419 . S
C1797 C1798 1.363 . S
C1797 H1800 0.929 . S
C1798 C1797 1.363 . S
C1798 C1804 1.428 . S
H1799 C1795 0.930 . S
H1800 C1797 0.929 . S
S1801 N1802 1.613 . S
S1801 N1803 1.610 . S
N1802 S1801 1.613 . S
N1802 C1805 1.350 . S
N1803 S1801 1.610 . S
N1803 C1804 1.351 . S
C1804 C1798 1.428 . S
C1804 N1803 1.351 . S
C1804 C1805 1.434 . S
C1805 C1796 1.429 . S
C1805 N1802 1.350 . S
C1805 C1804 1.434 . S
C1806 C1807 1.369 . S
C1806 C1808 1.419 . S
C1806 H1810 0.930 . S
C1807 C1806 1.369 . S
C1807 C1816 1.429 . S
C1808 C1806 1.419 . S
C1808 C1809 1.363 . S
C1808 H1811 0.929 . S
C1809 C1808 1.363 . S
C1809 C1815 1.428 . S
H1810 C1806 0.930 . S
H1811 C1808 0.929 . S
S1812 N1813 1.613 . S
S1812 N1814 1.610 . S
N1813 S1812 1.613 . S
N1813 C1816 1.350 . S
N1814 S1812 1.610 . S
N1814 C1815 1.351 . S
C1815 C1809 1.428 . S
C1815 N1814 1.351 . S
C1815 C1816 1.434 . S
C1816 C1807 1.429 . S
C1816 N1813 1.350 . S
C1816 C1815 1.434 . S
C1817 C1818 1.369 . S
C1817 C1819 1.419 . S
C1817 H1821 0.930 . S
C1818 C1817 1.369 . S
C1818 C1827 1.429 . S
C1819 C1817 1.419 . S
C1819 C1820 1.363 . S
C1819 H1822 0.929 . S
C1820 C1819 1.363 . S
C1820 C1826 1.428 . S
H1821 C1817 0.930 . S
H1822 C1819 0.929 . S
S1823 N1824 1.613 . S
S1823 N1825 1.610 . S
N1824 S1823 1.613 . S
N1824 C1827 1.350 . S
N1825 S1823 1.610 . S
N1825 C1826 1.351 . S
C1826 C1820 1.428 . S
C1826 N1825 1.351 . S
C1826 C1827 1.434 . S
C1827 C1818 1.429 . S
C1827 N1824 1.350 . S
C1827 C1826 1.434 . S
C1828 C1829 1.369 . S
C1828 C1830 1.419 . S
C1828 H1832 0.930 . S
C1829 C1828 1.369 . S
C1829 C1838 1.429 . S
C1830 C1828 1.419 . S
C1830 C1831 1.363 . S
C1830 H1833 0.929 . S
C1831 C1830 1.363 . S
C1831 C1837 1.428 . S
H1832 C1828 0.930 . S
H1833 C1830 0.929 . S
S1834 N1835 1.613 . S
S1834 N1836 1.610 . S
N1835 S1834 1.613 . S
N1835 C1838 1.350 . S
N1836 S1834 1.610 . S
N1836 C1837 1.351 . S
C1837 C1831 1.428 . S
C1837 N1836 1.351 . S
C1837 C1838 1.434 . S
C1838 C1829 1.429 . S
C1838 N1835 1.350 . S
C1838 C1837 1.434 . S
C1839 C1840 1.369 . S
C1839 C1841 1.419 . S
C1839 H1843 0.930 . S
C1840 C1839 1.369 . S
C1840 C1849 1.429 . S
C1841 C1839 1.419 . S
C1841 C1842 1.363 . S
C1841 H1844 0.929 . S
C1842 C1841 1.363 . S
C1842 C1848 1.428 . S
H1843 C1839 0.930 . S
H1844 C1841 0.929 . S
S1845 N1846 1.613 . S
S1845 N1847 1.610 . S
N1846 S1845 1.613 . S
N1846 C1849 1.350 . S
N1847 S1845 1.610 . S
N1847 C1848 1.351 . S
C1848 C1842 1.428 . S
C1848 N1847 1.351 . S
C1848 C1849 1.434 . S
C1849 C1840 1.429 . S
C1849 N1846 1.350 . S
C1849 C1848 1.434 . S
C1850 C1851 1.369 . S
C1850 C1852 1.419 . S
C1850 H1854 0.930 . S
C1851 C1850 1.369 . S
C1851 C1860 1.429 . S
C1852 C1850 1.419 . S
C1852 C1853 1.363 . S
C1852 H1855 0.929 . S
C1853 C1852 1.363 . S
C1853 C1859 1.428 . S
H1854 C1850 0.930 . S
H1855 C1852 0.929 . S
S1856 N1857 1.613 . S
S1856 N1858 1.610 . S
N1857 S1856 1.613 . S
N1857 C1860 1.350 . S
N1858 S1856 1.610 . S
N1858 C1859 1.351 . S
C1859 C1853 1.428 . S
C1859 N1858 1.351 . S
C1859 C1860 1.434 . S
C1860 C1851 1.429 . S
C1860 N1857 1.350 . S
C1860 C1859 1.434 . S
C1861 C1862 1.369 . S
C1861 C1863 1.419 . S
C1861 H1865 0.930 . S
C1862 C1861 1.369 . S
C1862 C1871 1.429 . S
C1863 C1861 1.419 . S
C1863 C1864 1.363 . S
C1863 H1866 0.929 . S
C1864 C1863 1.363 . S
C1864 C1870 1.428 . S
H1865 C1861 0.930 . S
H1866 C1863 0.929 . S
S1867 N1868 1.613 . S
S1867 N1869 1.610 . S
N1868 S1867 1.613 . S
N1868 C1871 1.350 . S
N1869 S1867 1.610 . S
N1869 C1870 1.351 . S
C1870 C1864 1.428 . S
C1870 N1869 1.351 . S
C1870 C1871 1.434 . S
C1871 C1862 1.429 . S
C1871 N1868 1.350 . S
C1871 C1870 1.434 . S
C1872 C1873 1.369 . S
C1872 C1874 1.419 . S
C1872 H1876 0.930 . S
C1873 C1872 1.369 . S
C1873 C1882 1.429 . S
C1874 C1872 1.419 . S
C1874 C1875 1.363 . S
C1874 H1877 0.929 . S
C1875 C1874 1.363 . S
C1875 C1881 1.428 . S
H1876 C1872 0.930 . S
H1877 C1874 0.929 . S
S1878 N1879 1.613 . S
S1878 N1880 1.610 . S
N1879 S1878 1.613 . S
N1879 C1882 1.350 . S
N1880 S1878 1.610 . S
N1880 C1881 1.351 . S
C1881 C1875 1.428 . S
C1881 N1880 1.351 . S
C1881 C1882 1.434 . S
C1882 C1873 1.429 . S
C1882 N1879 1.350 . S
C1882 C1881 1.434 . S
C1883 C1884 1.369 . S
C1883 C1885 1.419 . S
C1883 H1887 0.930 . S
C1884 C1883 1.369 . S
C1884 C1893 1.429 . S
C1885 C1883 1.419 . S
C1885 C1886 1.363 . S
C1885 H1888 0.929 . S
C1886 C1885 1.363 . S
C1886 C1892 1.428 . S
H1887 C1883 0.930 . S
H1888 C1885 0.929 . S
S1889 N1890 1.613 . S
S1889 N1891 1.610 . S
N1890 S1889 1.613 . S
N1890 C1893 1.350 . S
N1891 S1889 1.610 . S
N1891 C1892 1.351 . S
C1892 C1886 1.428 . S
C1892 N1891 1.351 . S
C1892 C1893 1.434 . S
C1893 C1884 1.429 . S
C1893 N1890 1.350 . S
C1893 C1892 1.434 . S
C1894 C1895 1.369 . S
C1894 C1896 1.419 . S
C1894 H1898 0.930 . S
C1895 C1894 1.369 . S
C1895 C1904 1.429 . S
C1896 C1894 1.419 . S
C1896 C1897 1.363 . S
C1896 H1899 0.929 . S
C1897 C1896 1.363 . S
C1897 C1903 1.428 . S
H1898 C1894 0.930 . S
H1899 C1896 0.929 . S
S1900 N1901 1.613 . S
S1900 N1902 1.610 . S
N1901 S1900 1.613 . S
N1901 C1904 1.350 . S
N1902 S1900 1.610 . S
N1902 C1903 1.351 . S
C1903 C1897 1.428 . S
C1903 N1902 1.351 . S
C1903 C1904 1.434 . S
C1904 C1895 1.429 . S
C1904 N1901 1.350 . S
C1904 C1903 1.434 . S
C1905 C1906 1.369 . S
C1905 C1907 1.419 . S
C1905 H1909 0.930 . S
C1906 C1905 1.369 . S
C1906 C1915 1.429 . S
C1907 C1905 1.419 . S
C1907 C1908 1.363 . S
C1907 H1910 0.929 . S
C1908 C1907 1.363 . S
C1908 C1914 1.428 . S
H1909 C1905 0.930 . S
H1910 C1907 0.929 . S
S1911 N1912 1.613 . S
S1911 N1913 1.610 . S
N1912 S1911 1.613 . S
N1912 C1915 1.350 . S
N1913 S1911 1.610 . S
N1913 C1914 1.351 . S
C1914 C1908 1.428 . S
C1914 N1913 1.351 . S
C1914 C1915 1.434 . S
C1915 C1906 1.429 . S
C1915 N1912 1.350 . S
C1915 C1914 1.434 . S
C1916 C1917 1.369 . S
C1916 C1918 1.419 . S
C1916 H1920 0.930 . S
C1917 C1916 1.369 . S
C1917 C1926 1.429 . S
C1918 C1916 1.419 . S
C1918 C1919 1.363 . S
C1918 H1921 0.929 . S
C1919 C1918 1.363 . S
C1919 C1925 1.428 . S
H1920 C1916 0.930 . S
H1921 C1918 0.929 . S
S1922 N1923 1.613 . S
S1922 N1924 1.610 . S
N1923 S1922 1.613 . S
N1923 C1926 1.350 . S
N1924 S1922 1.610 . S
N1924 C1925 1.351 . S
C1925 C1919 1.428 . S
C1925 N1924 1.351 . S
C1925 C1926 1.434 . S
C1926 C1917 1.429 . S
C1926 N1923 1.350 . S
C1926 C1925 1.434 . S
C1927 C1928 1.369 . S
C1927 C1929 1.419 . S
C1927 H1931 0.930 . S
C1928 C1927 1.369 . S
C1928 C1937 1.429 . S
C1929 C1927 1.419 . S
C1929 C1930 1.363 . S
C1929 H1932 0.929 . S
C1930 C1929 1.363 . S
C1930 C1936 1.428 . S
H1931 C1927 0.930 . S
H1932 C1929 0.929 . S
S1933 N1934 1.613 . S
S1933 N1935 1.610 . S
N1934 S1933 1.613 . S
N1934 C1937 1.350 . S
N1935 S1933 1.610 . S
N1935 C1936 1.351 . S
C1936 C1930 1.428 . S
C1936 N1935 1.351 . S
C1936 C1937 1.434 . S
C1937 C1928 1.429 . S
C1937 N1934 1.350 . S
C1937 C1936 1.434 . S
C1938 C1939 1.369 . S
C1938 C1940 1.419 . S
C1938 H1942 0.930 . S
C1939 C1938 1.369 . S
C1939 C1948 1.429 . S
C1940 C1938 1.419 . S
C1940 C1941 1.363 . S
C1940 H1943 0.929 . S
C1941 C1940 1.363 . S
C1941 C1947 1.428 . S
H1942 C1938 0.930 . S
H1943 C1940 0.929 . S
S1944 N1945 1.613 . S
S1944 N1946 1.610 . S
N1945 S1944 1.613 . S
N1945 C1948 1.350 . S
N1946 S1944 1.610 . S
N1946 C1947 1.351 . S
C1947 C1941 1.428 . S
C1947 N1946 1.351 . S
C1947 C1948 1.434 . S
C1948 C1939 1.429 . S
C1948 N1945 1.350 . S
C1948 C1947 1.434 . S
C1949 C1950 1.369 . S
C1949 C1951 1.419 . S
C1949 H1953 0.930 . S
C1950 C1949 1.369 . S
C1950 C1959 1.429 . S
C1951 C1949 1.419 . S
C1951 C1952 1.363 . S
C1951 H1954 0.929 . S
C1952 C1951 1.363 . S
C1952 C1958 1.428 . S
H1953 C1949 0.930 . S
H1954 C1951 0.929 . S
S1955 N1956 1.613 . S
S1955 N1957 1.610 . S
N1956 S1955 1.613 . S
N1956 C1959 1.350 . S
N1957 S1955 1.610 . S
N1957 C1958 1.351 . S
C1958 C1952 1.428 . S
C1958 N1957 1.351 . S
C1958 C1959 1.434 . S
C1959 C1950 1.429 . S
C1959 N1956 1.350 . S
C1959 C1958 1.434 . S
C1960 C1961 1.369 . S
C1960 C1962 1.419 . S
C1960 H1964 0.930 . S
C1961 C1960 1.369 . S
C1961 C1970 1.429 . S
C1962 C1960 1.419 . S
C1962 C1963 1.363 . S
C1962 H1965 0.929 . S
C1963 C1962 1.363 . S
C1963 C1969 1.428 . S
H1964 C1960 0.930 . S
H1965 C1962 0.929 . S
S1966 N1967 1.613 . S
S1966 N1968 1.610 . S
N1967 S1966 1.613 . S
N1967 C1970 1.350 . S
N1968 S1966 1.610 . S
N1968 C1969 1.351 . S
C1969 C1963 1.428 . S
C1969 N1968 1.351 . S
C1969 C1970 1.434 . S
C1970 C1961 1.429 . S
C1970 N1967 1.350 . S
C1970 C1969 1.434 . S
C1971 C1972 1.369 . S
C1971 C1973 1.419 . S
C1971 H1975 0.930 . S
C1972 C1971 1.369 . S
C1972 C1981 1.429 . S
C1973 C1971 1.419 . S
C1973 C1974 1.363 . S
C1973 H1976 0.929 . S
C1974 C1973 1.363 . S
C1974 C1980 1.428 . S
H1975 C1971 0.930 . S
H1976 C1973 0.929 . S
S1977 N1978 1.613 . S
S1977 N1979 1.610 . S
N1978 S1977 1.613 . S
N1978 C1981 1.350 . S
N1979 S1977 1.610 . S
N1979 C1980 1.351 . S
C1980 C1974 1.428 . S
C1980 N1979 1.351 . S
C1980 C1981 1.434 . S
C1981 C1972 1.429 . S
C1981 N1978 1.350 . S
C1981 C1980 1.434 . S
C1982 C1983 1.369 . S
C1982 C1984 1.419 . S
C1982 H1986 0.930 . S
C1983 C1982 1.369 . S
C1983 C1992 1.429 . S
C1984 C1982 1.419 . S
C1984 C1985 1.363 . S
C1984 H1987 0.929 . S
C1985 C1984 1.363 . S
C1985 C1991 1.428 . S
H1986 C1982 0.930 . S
H1987 C1984 0.929 . S
S1988 N1989 1.613 . S
S1988 N1990 1.610 . S
N1989 S1988 1.613 . S
N1989 C1992 1.350 . S
N1990 S1988 1.610 . S
N1990 C1991 1.351 . S
C1991 C1985 1.428 . S
C1991 N1990 1.351 . S
C1991 C1992 1.434 . S
C1992 C1983 1.429 . S
C1992 N1989 1.350 . S
C1992 C1991 1.434 . S
C1993 C1994 1.369 . S
C1993 C1995 1.419 . S
C1993 H1997 0.930 . S
C1994 C1993 1.369 . S
C1994 C2003 1.429 . S
C1995 C1993 1.419 . S
C1995 C1996 1.363 . S
C1995 H1998 0.929 . S
C1996 C1995 1.363 . S
C1996 C2002 1.428 . S
H1997 C1993 0.930 . S
H1998 C1995 0.929 . S
S1999 N2000 1.613 . S
S1999 N2001 1.610 . S
N2000 S1999 1.613 . S
N2000 C2003 1.350 . S
N2001 S1999 1.610 . S
N2001 C2002 1.351 . S
C2002 C1996 1.428 . S
C2002 N2001 1.351 . S
C2002 C2003 1.434 . S
C2003 C1994 1.429 . S
C2003 N2000 1.350 . S
C2003 C2002 1.434 . S
C2004 C2005 1.369 . S
C2004 C2006 1.419 . S
C2004 H2008 0.930 . S
C2005 C2004 1.369 . S
C2005 C2014 1.429 . S
C2006 C2004 1.419 . S
C2006 C2007 1.363 . S
C2006 H2009 0.929 . S
C2007 C2006 1.363 . S
C2007 C2013 1.428 . S
H2008 C2004 0.930 . S
H2009 C2006 0.929 . S
S2010 N2011 1.613 . S
S2010 N2012 1.610 . S
N2011 S2010 1.613 . S
N2011 C2014 1.350 . S
N2012 S2010 1.610 . S
N2012 C2013 1.351 . S
C2013 C2007 1.428 . S
C2013 N2012 1.351 . S
C2013 C2014 1.434 . S
C2014 C2005 1.429 . S
C2014 N2011 1.350 . S
C2014 C2013 1.434 . S
C2015 C2016 1.369 . S
C2015 C2017 1.419 . S
C2015 H2019 0.930 . S
C2016 C2015 1.369 . S
C2016 C2025 1.429 . S
C2017 C2015 1.419 . S
C2017 C2018 1.363 . S
C2017 H2020 0.929 . S
C2018 C2017 1.363 . S
C2018 C2024 1.428 . S
H2019 C2015 0.930 . S
H2020 C2017 0.929 . S
S2021 N2022 1.613 . S
S2021 N2023 1.610 . S
N2022 S2021 1.613 . S
N2022 C2025 1.350 . S
N2023 S2021 1.610 . S
N2023 C2024 1.351 . S
C2024 C2018 1.428 . S
C2024 N2023 1.351 . S
C2024 C2025 1.434 . S
C2025 C2016 1.429 . S
C2025 N2022 1.350 . S
C2025 C2024 1.434 . S
C2026 C2027 1.369 . S
C2026 C2028 1.419 . S
C2026 H2030 0.930 . S
C2027 C2026 1.369 . S
C2027 C2036 1.429 . S
C2028 C2026 1.419 . S
C2028 C2029 1.363 . S
C2028 H2031 0.929 . S
C2029 C2028 1.363 . S
C2029 C2035 1.428 . S
H2030 C2026 0.930 . S
H2031 C2028 0.929 . S
S2032 N2033 1.613 . S
S2032 N2034 1.610 . S
N2033 S2032 1.613 . S
N2033 C2036 1.350 . S
N2034 S2032 1.610 . S
N2034 C2035 1.351 . S
C2035 C2029 1.428 . S
C2035 N2034 1.351 . S
C2035 C2036 1.434 . S
C2036 C2027 1.429 . S
C2036 N2033 1.350 . S
C2036 C2035 1.434 . S
C2037 C2038 1.369 . S
C2037 C2039 1.419 . S
C2037 H2041 0.930 . S
C2038 C2037 1.369 . S
C2038 C2047 1.429 . S
C2039 C2037 1.419 . S
C2039 C2040 1.363 . S
C2039 H2042 0.929 . S
C2040 C2039 1.363 . S
C2040 C2046 1.428 . S
H2041 C2037 0.930 . S
H2042 C2039 0.929 . S
S2043 N2044 1.613 . S
S2043 N2045 1.610 . S
N2044 S2043 1.613 . S
N2044 C2047 1.350 . S
N2045 S2043 1.610 . S
N2045 C2046 1.351 . S
C2046 C2040 1.428 . S
C2046 N2045 1.351 . S
C2046 C2047 1.434 . S
C2047 C2038 1.429 . S
C2047 N2044 1.350 . S
C2047 C2046 1.434 . S
C2048 C2049 1.369 . S
C2048 C2050 1.419 . S
C2048 H2052 0.930 . S
C2049 C2048 1.369 . S
C2049 C2058 1.429 . S
C2050 C2048 1.419 . S
C2050 C2051 1.363 . S
C2050 H2053 0.929 . S
C2051 C2050 1.363 . S
C2051 C2057 1.428 . S
H2052 C2048 0.930 . S
H2053 C2050 0.929 . S
S2054 N2055 1.613 . S
S2054 N2056 1.610 . S
N2055 S2054 1.613 . S
N2055 C2058 1.350 . S
N2056 S2054 1.610 . S
N2056 C2057 1.351 . S
C2057 C2051 1.428 . S
C2057 N2056 1.351 . S
C2057 C2058 1.434 . S
C2058 C2049 1.429 . S
C2058 N2055 1.350 . S
C2058 C2057 1.434 . S
C2059 C2060 1.369 . S
C2059 C2061 1.419 . S
C2059 H2063 0.930 . S
C2060 C2059 1.369 . S
C2060 C2069 1.429 . S
C2061 C2059 1.419 . S
C2061 C2062 1.363 . S
C2061 H2064 0.929 . S
C2062 C2061 1.363 . S
C2062 C2068 1.428 . S
H2063 C2059 0.930 . S
H2064 C2061 0.929 . S
S2065 N2066 1.613 . S
S2065 N2067 1.610 . S
N2066 S2065 1.613 . S
N2066 C2069 1.350 . S
N2067 S2065 1.610 . S
N2067 C2068 1.351 . S
C2068 C2062 1.428 . S
C2068 N2067 1.351 . S
C2068 C2069 1.434 . S
C2069 C2060 1.429 . S
C2069 N2066 1.350 . S
C2069 C2068 1.434 . S
C2070 C2071 1.369 . S
C2070 C2072 1.419 . S
C2070 H2074 0.930 . S
C2071 C2070 1.369 . S
C2071 C2080 1.429 . S
C2072 C2070 1.419 . S
C2072 C2073 1.363 . S
C2072 H2075 0.929 . S
C2073 C2072 1.363 . S
C2073 C2079 1.428 . S
H2074 C2070 0.930 . S
H2075 C2072 0.929 . S
S2076 N2077 1.613 . S
S2076 N2078 1.610 . S
N2077 S2076 1.613 . S
N2077 C2080 1.350 . S
N2078 S2076 1.610 . S
N2078 C2079 1.351 . S
C2079 C2073 1.428 . S
C2079 N2078 1.351 . S
C2079 C2080 1.434 . S
C2080 C2071 1.429 . S
C2080 N2077 1.350 . S
C2080 C2079 1.434 . S
C2081 C2082 1.369 . S
C2081 C2083 1.419 . S
C2081 H2085 0.930 . S
C2082 C2081 1.369 . S
C2082 C2091 1.429 . S
C2083 C2081 1.419 . S
C2083 C2084 1.363 . S
C2083 H2086 0.929 . S
C2084 C2083 1.363 . S
C2084 C2090 1.428 . S
H2085 C2081 0.930 . S
H2086 C2083 0.929 . S
S2087 N2088 1.613 . S
S2087 N2089 1.610 . S
N2088 S2087 1.613 . S
N2088 C2091 1.350 . S
N2089 S2087 1.610 . S
N2089 C2090 1.351 . S
C2090 C2084 1.428 . S
C2090 N2089 1.351 . S
C2090 C2091 1.434 . S
C2091 C2082 1.429 . S
C2091 N2088 1.350 . S
C2091 C2090 1.434 . S
C2092 C2093 1.369 . S
C2092 C2094 1.419 . S
C2092 H2096 0.930 . S
C2093 C2092 1.369 . S
C2093 C2102 1.429 . S
C2094 C2092 1.419 . S
C2094 C2095 1.363 . S
C2094 H2097 0.929 . S
C2095 C2094 1.363 . S
C2095 C2101 1.428 . S
H2096 C2092 0.930 . S
H2097 C2094 0.929 . S
S2098 N2099 1.613 . S
S2098 N2100 1.610 . S
N2099 S2098 1.613 . S
N2099 C2102 1.350 . S
N2100 S2098 1.610 . S
N2100 C2101 1.351 . S
C2101 C2095 1.428 . S
C2101 N2100 1.351 . S
C2101 C2102 1.434 . S
C2102 C2093 1.429 . S
C2102 N2099 1.350 . S
C2102 C2101 1.434 . S
C2103 C2104 1.369 . S
C2103 C2105 1.419 . S
C2103 H2107 0.930 . S
C2104 C2103 1.369 . S
C2104 C2113 1.429 . S
C2105 C2103 1.419 . S
C2105 C2106 1.363 . S
C2105 H2108 0.929 . S
C2106 C2105 1.363 . S
C2106 C2112 1.428 . S
H2107 C2103 0.930 . S
H2108 C2105 0.929 . S
S2109 N2110 1.613 . S
S2109 N2111 1.610 . S
N2110 S2109 1.613 . S
N2110 C2113 1.350 . S
N2111 S2109 1.610 . S
N2111 C2112 1.351 . S
C2112 C2106 1.428 . S
C2112 N2111 1.351 . S
C2112 C2113 1.434 . S
C2113 C2104 1.429 . S
C2113 N2110 1.350 . S
C2113 C2112 1.434 . S
C2114 C2115 1.369 . S
C2114 C2116 1.419 . S
C2114 H2118 0.930 . S
C2115 C2114 1.369 . S
C2115 C2124 1.429 . S
C2116 C2114 1.419 . S
C2116 C2117 1.363 . S
C2116 H2119 0.929 . S
C2117 C2116 1.363 . S
C2117 C2123 1.428 . S
H2118 C2114 0.930 . S
H2119 C2116 0.929 . S
S2120 N2121 1.613 . S
S2120 N2122 1.610 . S
N2121 S2120 1.613 . S
N2121 C2124 1.350 . S
N2122 S2120 1.610 . S
N2122 C2123 1.351 . S
C2123 C2117 1.428 . S
C2123 N2122 1.351 . S
C2123 C2124 1.434 . S
C2124 C2115 1.429 . S
C2124 N2121 1.350 . S
C2124 C2123 1.434 . S
C2125 C2126 1.369 . S
C2125 C2127 1.419 . S
C2125 H2129 0.930 . S
C2126 C2125 1.369 . S
C2126 C2135 1.429 . S
C2127 C2125 1.419 . S
C2127 C2128 1.363 . S
C2127 H2130 0.929 . S
C2128 C2127 1.363 . S
C2128 C2134 1.428 . S
H2129 C2125 0.930 . S
H2130 C2127 0.929 . S
S2131 N2132 1.613 . S
S2131 N2133 1.610 . S
N2132 S2131 1.613 . S
N2132 C2135 1.350 . S
N2133 S2131 1.610 . S
N2133 C2134 1.351 . S
C2134 C2128 1.428 . S
C2134 N2133 1.351 . S
C2134 C2135 1.434 . S
C2135 C2126 1.429 . S
C2135 N2132 1.350 . S
C2135 C2134 1.434 . S
C2136 C2137 1.369 . S
C2136 C2138 1.419 . S
C2136 H2140 0.930 . S
C2137 C2136 1.369 . S
C2137 C2146 1.429 . S
C2138 C2136 1.419 . S
C2138 C2139 1.363 . S
C2138 H2141 0.929 . S
C2139 C2138 1.363 . S
C2139 C2145 1.428 . S
H2140 C2136 0.930 . S
H2141 C2138 0.929 . S
S2142 N2143 1.613 . S
S2142 N2144 1.610 . S
N2143 S2142 1.613 . S
N2143 C2146 1.350 . S
N2144 S2142 1.610 . S
N2144 C2145 1.351 . S
C2145 C2139 1.428 . S
C2145 N2144 1.351 . S
C2145 C2146 1.434 . S
C2146 C2137 1.429 . S
C2146 N2143 1.350 . S
C2146 C2145 1.434 . S
C2147 C2148 1.369 . S
C2147 C2149 1.419 . S
C2147 H2151 0.930 . S
C2148 C2147 1.369 . S
C2148 C2157 1.429 . S
C2149 C2147 1.419 . S
C2149 C2150 1.363 . S
C2149 H2152 0.929 . S
C2150 C2149 1.363 . S
C2150 C2156 1.428 . S
H2151 C2147 0.930 . S
H2152 C2149 0.929 . S
S2153 N2154 1.613 . S
S2153 N2155 1.610 . S
N2154 S2153 1.613 . S
N2154 C2157 1.350 . S
N2155 S2153 1.610 . S
N2155 C2156 1.351 . S
C2156 C2150 1.428 . S
C2156 N2155 1.351 . S
C2156 C2157 1.434 . S
C2157 C2148 1.429 . S
C2157 N2154 1.350 . S
C2157 C2156 1.434 . S
C2158 C2159 1.369 . S
C2158 C2160 1.419 . S
C2158 H2162 0.930 . S
C2159 C2158 1.369 . S
C2159 C2168 1.429 . S
C2160 C2158 1.419 . S
C2160 C2161 1.363 . S
C2160 H2163 0.929 . S
C2161 C2160 1.363 . S
C2161 C2167 1.428 . S
H2162 C2158 0.930 . S
H2163 C2160 0.929 . S
S2164 N2165 1.613 . S
S2164 N2166 1.610 . S
N2165 S2164 1.613 . S
N2165 C2168 1.350 . S
N2166 S2164 1.610 . S
N2166 C2167 1.351 . S
C2167 C2161 1.428 . S
C2167 N2166 1.351 . S
C2167 C2168 1.434 . S
C2168 C2159 1.429 . S
C2168 N2165 1.350 . S
C2168 C2167 1.434 . S
C2169 C2170 1.369 . S
C2169 C2171 1.419 . S
C2169 H2173 0.930 . S
C2170 C2169 1.369 . S
C2170 C2179 1.429 . S
C2171 C2169 1.419 . S
C2171 C2172 1.363 . S
C2171 H2174 0.929 . S
C2172 C2171 1.363 . S
C2172 C2178 1.428 . S
H2173 C2169 0.930 . S
H2174 C2171 0.929 . S
S2175 N2176 1.613 . S
S2175 N2177 1.610 . S
N2176 S2175 1.613 . S
N2176 C2179 1.350 . S
N2177 S2175 1.610 . S
N2177 C2178 1.351 . S
C2178 C2172 1.428 . S
C2178 N2177 1.351 . S
C2178 C2179 1.434 . S
C2179 C2170 1.429 . S
C2179 N2176 1.350 . S
C2179 C2178 1.434 . S
C2180 C2181 1.369 . S
C2180 C2182 1.419 . S
C2180 H2184 0.930 . S
C2181 C2180 1.369 . S
C2181 C2190 1.429 . S
C2182 C2180 1.419 . S
C2182 C2183 1.363 . S
C2182 H2185 0.929 . S
C2183 C2182 1.363 . S
C2183 C2189 1.428 . S
H2184 C2180 0.930 . S
H2185 C2182 0.929 . S
S2186 N2187 1.613 . S
S2186 N2188 1.610 . S
N2187 S2186 1.613 . S
N2187 C2190 1.350 . S
N2188 S2186 1.610 . S
N2188 C2189 1.351 . S
C2189 C2183 1.428 . S
C2189 N2188 1.351 . S
C2189 C2190 1.434 . S
C2190 C2181 1.429 . S
C2190 N2187 1.350 . S
C2190 C2189 1.434 . S
C2191 C2192 1.369 . S
C2191 C2193 1.419 . S
C2191 H2195 0.930 . S
C2192 C2191 1.369 . S
C2192 C2201 1.429 . S
C2193 C2191 1.419 . S
C2193 C2194 1.363 . S
C2193 H2196 0.929 . S
C2194 C2193 1.363 . S
C2194 C2200 1.428 . S
H2195 C2191 0.930 . S
H2196 C2193 0.929 . S
S2197 N2198 1.613 . S
S2197 N2199 1.610 . S
N2198 S2197 1.613 . S
N2198 C2201 1.350 . S
N2199 S2197 1.610 . S
N2199 C2200 1.351 . S
C2200 C2194 1.428 . S
C2200 N2199 1.351 . S
C2200 C2201 1.434 . S
C2201 C2192 1.429 . S
C2201 N2198 1.350 . S
C2201 C2200 1.434 . S
C2202 C2203 1.369 . S
C2202 C2204 1.419 . S
C2202 H2206 0.930 . S
C2203 C2202 1.369 . S
C2203 C2212 1.429 . S
C2204 C2202 1.419 . S
C2204 C2205 1.363 . S
C2204 H2207 0.929 . S
C2205 C2204 1.363 . S
C2205 C2211 1.428 . S
H2206 C2202 0.930 . S
H2207 C2204 0.929 . S
S2208 N2209 1.613 . S
S2208 N2210 1.610 . S
N2209 S2208 1.613 . S
N2209 C2212 1.350 . S
N2210 S2208 1.610 . S
N2210 C2211 1.351 . S
C2211 C2205 1.428 . S
C2211 N2210 1.351 . S
C2211 C2212 1.434 . S
C2212 C2203 1.429 . S
C2212 N2209 1.350 . S
C2212 C2211 1.434 . S
C2213 C2214 1.369 . S
C2213 C2215 1.419 . S
C2213 H2217 0.930 . S
C2214 C2213 1.369 . S
C2214 C2223 1.429 . S
C2215 C2213 1.419 . S
C2215 C2216 1.363 . S
C2215 H2218 0.929 . S
C2216 C2215 1.363 . S
C2216 C2222 1.428 . S
H2217 C2213 0.930 . S
H2218 C2215 0.929 . S
S2219 N2220 1.613 . S
S2219 N2221 1.610 . S
N2220 S2219 1.613 . S
N2220 C2223 1.350 . S
N2221 S2219 1.610 . S
N2221 C2222 1.351 . S
C2222 C2216 1.428 . S
C2222 N2221 1.351 . S
C2222 C2223 1.434 . S
C2223 C2214 1.429 . S
C2223 N2220 1.350 . S
C2223 C2222 1.434 . S
C2224 C2225 1.369 . S
C2224 C2226 1.419 . S
C2224 H2228 0.930 . S
C2225 C2224 1.369 . S
C2225 C2234 1.429 . S
C2226 C2224 1.419 . S
C2226 C2227 1.363 . S
C2226 H2229 0.929 . S
C2227 C2226 1.363 . S
C2227 C2233 1.428 . S
H2228 C2224 0.930 . S
H2229 C2226 0.929 . S
S2230 N2231 1.613 . S
S2230 N2232 1.610 . S
N2231 S2230 1.613 . S
N2231 C2234 1.350 . S
N2232 S2230 1.610 . S
N2232 C2233 1.351 . S
C2233 C2227 1.428 . S
C2233 N2232 1.351 . S
C2233 C2234 1.434 . S
C2234 C2225 1.429 . S
C2234 N2231 1.350 . S
C2234 C2233 1.434 . S
C2235 C2236 1.369 . S
C2235 C2237 1.419 . S
C2235 H2239 0.930 . S
C2236 C2235 1.369 . S
C2236 C2245 1.429 . S
C2237 C2235 1.419 . S
C2237 C2238 1.363 . S
C2237 H2240 0.929 . S
C2238 C2237 1.363 . S
C2238 C2244 1.428 . S
H2239 C2235 0.930 . S
H2240 C2237 0.929 . S
S2241 N2242 1.613 . S
S2241 N2243 1.610 . S
N2242 S2241 1.613 . S
N2242 C2245 1.350 . S
N2243 S2241 1.610 . S
N2243 C2244 1.351 . S
C2244 C2238 1.428 . S
C2244 N2243 1.351 . S
C2244 C2245 1.434 . S
C2245 C2236 1.429 . S
C2245 N2242 1.350 . S
C2245 C2244 1.434 . S
C2246 C2247 1.369 . S
C2246 C2248 1.419 . S
C2246 H2250 0.930 . S
C2247 C2246 1.369 . S
C2247 C2256 1.429 . S
C2248 C2246 1.419 . S
C2248 C2249 1.363 . S
C2248 H2251 0.929 . S
C2249 C2248 1.363 . S
C2249 C2255 1.428 . S
H2250 C2246 0.930 . S
H2251 C2248 0.929 . S
S2252 N2253 1.613 . S
S2252 N2254 1.610 . S
N2253 S2252 1.613 . S
N2253 C2256 1.350 . S
N2254 S2252 1.610 . S
N2254 C2255 1.351 . S
C2255 C2249 1.428 . S
C2255 N2254 1.351 . S
C2255 C2256 1.434 . S
C2256 C2247 1.429 . S
C2256 N2253 1.350 . S
C2256 C2255 1.434 . S
C2257 C2258 1.369 . S
C2257 C2259 1.419 . S
C2257 H2261 0.930 . S
C2258 C2257 1.369 . S
C2258 C2267 1.429 . S
C2259 C2257 1.419 . S
C2259 C2260 1.363 . S
C2259 H2262 0.929 . S
C2260 C2259 1.363 . S
C2260 C2266 1.428 . S
H2261 C2257 0.930 . S
H2262 C2259 0.929 . S
S2263 N2264 1.613 . S
S2263 N2265 1.610 . S
N2264 S2263 1.613 . S
N2264 C2267 1.350 . S
N2265 S2263 1.610 . S
N2265 C2266 1.351 . S
C2266 C2260 1.428 . S
C2266 N2265 1.351 . S
C2266 C2267 1.434 . S
C2267 C2258 1.429 . S
C2267 N2264 1.350 . S
C2267 C2266 1.434 . S
C2268 C2269 1.369 . S
C2268 C2270 1.419 . S
C2268 H2272 0.930 . S
C2269 C2268 1.369 . S
C2269 C2278 1.429 . S
C2270 C2268 1.419 . S
C2270 C2271 1.363 . S
C2270 H2273 0.929 . S
C2271 C2270 1.363 . S
C2271 C2277 1.428 . S
H2272 C2268 0.930 . S
H2273 C2270 0.929 . S
S2274 N2275 1.613 . S
S2274 N2276 1.610 . S
N2275 S2274 1.613 . S
N2275 C2278 1.350 . S
N2276 S2274 1.610 . S
N2276 C2277 1.351 . S
C2277 C2271 1.428 . S
C2277 N2276 1.351 . S
C2277 C2278 1.434 . S
C2278 C2269 1.429 . S
C2278 N2275 1.350 . S
C2278 C2277 1.434 . S
C2279 C2280 1.369 . S
C2279 C2281 1.419 . S
C2279 H2283 0.930 . S
C2280 C2279 1.369 . S
C2280 C2289 1.429 . S
C2281 C2279 1.419 . S
C2281 C2282 1.363 . S
C2281 H2284 0.929 . S
C2282 C2281 1.363 . S
C2282 C2288 1.428 . S
H2283 C2279 0.930 . S
H2284 C2281 0.929 . S
S2285 N2286 1.613 . S
S2285 N2287 1.610 . S
N2286 S2285 1.613 . S
N2286 C2289 1.350 . S
N2287 S2285 1.610 . S
N2287 C2288 1.351 . S
C2288 C2282 1.428 . S
C2288 N2287 1.351 . S
C2288 C2289 1.434 . S
C2289 C2280 1.429 . S
C2289 N2286 1.350 . S
C2289 C2288 1.434 . S
C2290 C2291 1.369 . S
C2290 C2292 1.419 . S
C2290 H2294 0.930 . S
C2291 C2290 1.369 . S
C2291 C2300 1.429 . S
C2292 C2290 1.419 . S
C2292 C2293 1.363 . S
C2292 H2295 0.929 . S
C2293 C2292 1.363 . S
C2293 C2299 1.428 . S
H2294 C2290 0.930 . S
H2295 C2292 0.929 . S
S2296 N2297 1.613 . S
S2296 N2298 1.610 . S
N2297 S2296 1.613 . S
N2297 C2300 1.350 . S
N2298 S2296 1.610 . S
N2298 C2299 1.351 . S
C2299 C2293 1.428 . S
C2299 N2298 1.351 . S
C2299 C2300 1.434 . S
C2300 C2291 1.429 . S
C2300 N2297 1.350 . S
C2300 C2299 1.434 . S
C2301 C2302 1.369 . S
C2301 C2303 1.419 . S
C2301 H2305 0.930 . S
C2302 C2301 1.369 . S
C2302 C2311 1.429 . S
C2303 C2301 1.419 . S
C2303 C2304 1.363 . S
C2303 H2306 0.929 . S
C2304 C2303 1.363 . S
C2304 C2310 1.428 . S
H2305 C2301 0.930 . S
H2306 C2303 0.929 . S
S2307 N2308 1.613 . S
S2307 N2309 1.610 . S
N2308 S2307 1.613 . S
N2308 C2311 1.350 . S
N2309 S2307 1.610 . S
N2309 C2310 1.351 . S
C2310 C2304 1.428 . S
C2310 N2309 1.351 . S
C2310 C2311 1.434 . S
C2311 C2302 1.429 . S
C2311 N2308 1.350 . S
C2311 C2310 1.434 . S
C2312 C2313 1.369 . S
C2312 C2314 1.419 . S
C2312 H2316 0.930 . S
C2313 C2312 1.369 . S
C2313 C2322 1.429 . S
C2314 C2312 1.419 . S
C2314 C2315 1.363 . S
C2314 H2317 0.929 . S
C2315 C2314 1.363 . S
C2315 C2321 1.428 . S
H2316 C2312 0.930 . S
H2317 C2314 0.929 . S
S2318 N2319 1.613 . S
S2318 N2320 1.610 . S
N2319 S2318 1.613 . S
N2319 C2322 1.350 . S
N2320 S2318 1.610 . S
N2320 C2321 1.351 . S
C2321 C2315 1.428 . S
C2321 N2320 1.351 . S
C2321 C2322 1.434 . S
C2322 C2313 1.429 . S
C2322 N2319 1.350 . S
C2322 C2321 1.434 . S
C2323 C2324 1.369 . S
C2323 C2325 1.419 . S
C2323 H2327 0.930 . S
C2324 C2323 1.369 . S
C2324 C2333 1.429 . S
C2325 C2323 1.419 . S
C2325 C2326 1.363 . S
C2325 H2328 0.929 . S
C2326 C2325 1.363 . S
C2326 C2332 1.428 . S
H2327 C2323 0.930 . S
H2328 C2325 0.929 . S
S2329 N2330 1.613 . S
S2329 N2331 1.610 . S
N2330 S2329 1.613 . S
N2330 C2333 1.350 . S
N2331 S2329 1.610 . S
N2331 C2332 1.351 . S
C2332 C2326 1.428 . S
C2332 N2331 1.351 . S
C2332 C2333 1.434 . S
C2333 C2324 1.429 . S
C2333 N2330 1.350 . S
C2333 C2332 1.434 . S
C2334 C2335 1.369 . S
C2334 C2336 1.419 . S
C2334 H2338 0.930 . S
C2335 C2334 1.369 . S
C2335 C2344 1.429 . S
C2336 C2334 1.419 . S
C2336 C2337 1.363 . S
C2336 H2339 0.929 . S
C2337 C2336 1.363 . S
C2337 C2343 1.428 . S
H2338 C2334 0.930 . S
H2339 C2336 0.929 . S
S2340 N2341 1.613 . S
S2340 N2342 1.610 . S
N2341 S2340 1.613 . S
N2341 C2344 1.350 . S
N2342 S2340 1.610 . S
N2342 C2343 1.351 . S
C2343 C2337 1.428 . S
C2343 N2342 1.351 . S
C2343 C2344 1.434 . S
C2344 C2335 1.429 . S
C2344 N2341 1.350 . S
C2344 C2343 1.434 . S
C2345 C2346 1.369 . S
C2345 C2347 1.419 . S
C2345 H2349 0.930 . S
C2346 C2345 1.369 . S
C2346 C2355 1.429 . S
C2347 C2345 1.419 . S
C2347 C2348 1.363 . S
C2347 H2350 0.929 . S
C2348 C2347 1.363 . S
C2348 C2354 1.428 . S
H2349 C2345 0.930 . S
H2350 C2347 0.929 . S
S2351 N2352 1.613 . S
S2351 N2353 1.610 . S
N2352 S2351 1.613 . S
N2352 C2355 1.350 . S
N2353 S2351 1.610 . S
N2353 C2354 1.351 . S
C2354 C2348 1.428 . S
C2354 N2353 1.351 . S
C2354 C2355 1.434 . S
C2355 C2346 1.429 . S
C2355 N2352 1.350 . S
C2355 C2354 1.434 . S
C2356 C2357 1.369 . S
C2356 C2358 1.419 . S
C2356 H2360 0.930 . S
C2357 C2356 1.369 . S
C2357 C2366 1.429 . S
C2358 C2356 1.419 . S
C2358 C2359 1.363 . S
C2358 H2361 0.929 . S
C2359 C2358 1.363 . S
C2359 C2365 1.428 . S
H2360 C2356 0.930 . S
H2361 C2358 0.929 . S
S2362 N2363 1.613 . S
S2362 N2364 1.610 . S
N2363 S2362 1.613 . S
N2363 C2366 1.350 . S
N2364 S2362 1.610 . S
N2364 C2365 1.351 . S
C2365 C2359 1.428 . S
C2365 N2364 1.351 . S
C2365 C2366 1.434 . S
C2366 C2357 1.429 . S
C2366 N2363 1.350 . S
C2366 C2365 1.434 . S
C2367 C2368 1.369 . S
C2367 C2369 1.419 . S
C2367 H2371 0.930 . S
C2368 C2367 1.369 . S
C2368 C2377 1.429 . S
C2369 C2367 1.419 . S
C2369 C2370 1.363 . S
C2369 H2372 0.929 . S
C2370 C2369 1.363 . S
C2370 C2376 1.428 . S
H2371 C2367 0.930 . S
H2372 C2369 0.929 . S
S2373 N2374 1.613 . S
S2373 N2375 1.610 . S
N2374 S2373 1.613 . S
N2374 C2377 1.350 . S
N2375 S2373 1.610 . S
N2375 C2376 1.351 . S
C2376 C2370 1.428 . S
C2376 N2375 1.351 . S
C2376 C2377 1.434 . S
C2377 C2368 1.429 . S
C2377 N2374 1.350 . S
C2377 C2376 1.434 . S
C2378 C2379 1.369 . S
C2378 C2380 1.419 . S
C2378 H2382 0.930 . S
C2379 C2378 1.369 . S
C2379 C2388 1.429 . S
C2380 C2378 1.419 . S
C2380 C2381 1.363 . S
C2380 H2383 0.929 . S
C2381 C2380 1.363 . S
C2381 C2387 1.428 . S
H2382 C2378 0.930 . S
H2383 C2380 0.929 . S
S2384 N2385 1.613 . S
S2384 N2386 1.610 . S
N2385 S2384 1.613 . S
N2385 C2388 1.350 . S
N2386 S2384 1.610 . S
N2386 C2387 1.351 . S
C2387 C2381 1.428 . S
C2387 N2386 1.351 . S
C2387 C2388 1.434 . S
C2388 C2379 1.429 . S
C2388 N2385 1.350 . S
C2388 C2387 1.434 . S
C2389 C2390 1.369 . S
C2389 C2391 1.419 . S
C2389 H2393 0.930 . S
C2390 C2389 1.369 . S
C2390 C2399 1.429 . S
C2391 C2389 1.419 . S
C2391 C2392 1.363 . S
C2391 H2394 0.929 . S
C2392 C2391 1.363 . S
C2392 C2398 1.428 . S
H2393 C2389 0.930 . S
H2394 C2391 0.929 . S
S2395 N2396 1.613 . S
S2395 N2397 1.610 . S
N2396 S2395 1.613 . S
N2396 C2399 1.350 . S
N2397 S2395 1.610 . S
N2397 C2398 1.351 . S
C2398 C2392 1.428 . S
C2398 N2397 1.351 . S
C2398 C2399 1.434 . S
C2399 C2390 1.429 . S
C2399 N2396 1.350 . S
C2399 C2398 1.434 . S
C2400 C2401 1.369 . S
C2400 C2402 1.419 . S
C2400 H2404 0.930 . S
C2401 C2400 1.369 . S
C2401 C2410 1.429 . S
C2402 C2400 1.419 . S
C2402 C2403 1.363 . S
C2402 H2405 0.929 . S
C2403 C2402 1.363 . S
C2403 C2409 1.428 . S
H2404 C2400 0.930 . S
H2405 C2402 0.929 . S
S2406 N2407 1.613 . S
S2406 N2408 1.610 . S
N2407 S2406 1.613 . S
N2407 C2410 1.350 . S
N2408 S2406 1.610 . S
N2408 C2409 1.351 . S
C2409 C2403 1.428 . S
C2409 N2408 1.351 . S
C2409 C2410 1.434 . S
C2410 C2401 1.429 . S
C2410 N2407 1.350 . S
C2410 C2409 1.434 . S
C2411 C2412 1.369 . S
C2411 C2413 1.419 . S
C2411 H2415 0.930 . S
C2412 C2411 1.369 . S
C2412 C2421 1.429 . S
C2413 C2411 1.419 . S
C2413 C2414 1.363 . S
C2413 H2416 0.929 . S
C2414 C2413 1.363 . S
C2414 C2420 1.428 . S
H2415 C2411 0.930 . S
H2416 C2413 0.929 . S
S2417 N2418 1.613 . S
S2417 N2419 1.610 . S
N2418 S2417 1.613 . S
N2418 C2421 1.350 . S
N2419 S2417 1.610 . S
N2419 C2420 1.351 . S
C2420 C2414 1.428 . S
C2420 N2419 1.351 . S
C2420 C2421 1.434 . S
C2421 C2412 1.429 . S
C2421 N2418 1.350 . S
C2421 C2420 1.434 . S
C2422 C2423 1.369 . S
C2422 C2424 1.419 . S
C2422 H2426 0.930 . S
C2423 C2422 1.369 . S
C2423 C2432 1.429 . S
C2424 C2422 1.419 . S
C2424 C2425 1.363 . S
C2424 H2427 0.929 . S
C2425 C2424 1.363 . S
C2425 C2431 1.428 . S
H2426 C2422 0.930 . S
H2427 C2424 0.929 . S
S2428 N2429 1.613 . S
S2428 N2430 1.610 . S
N2429 S2428 1.613 . S
N2429 C2432 1.350 . S
N2430 S2428 1.610 . S
N2430 C2431 1.351 . S
C2431 C2425 1.428 . S
C2431 N2430 1.351 . S
C2431 C2432 1.434 . S
C2432 C2423 1.429 . S
C2432 N2429 1.350 . S
C2432 C2431 1.434 . S
C2433 C2434 1.369 . S
C2433 C2435 1.419 . S
C2433 H2437 0.930 . S
C2434 C2433 1.369 . S
C2434 C2443 1.429 . S
C2435 C2433 1.419 . S
C2435 C2436 1.363 . S
C2435 H2438 0.929 . S
C2436 C2435 1.363 . S
C2436 C2442 1.428 . S
H2437 C2433 0.930 . S
H2438 C2435 0.929 . S
S2439 N2440 1.613 . S
S2439 N2441 1.610 . S
N2440 S2439 1.613 . S
N2440 C2443 1.350 . S
N2441 S2439 1.610 . S
N2441 C2442 1.351 . S
C2442 C2436 1.428 . S
C2442 N2441 1.351 . S
C2442 C2443 1.434 . S
C2443 C2434 1.429 . S
C2443 N2440 1.350 . S
C2443 C2442 1.434 . S
C2444 C2445 1.369 . S
C2444 C2446 1.419 . S
C2444 H2448 0.930 . S
C2445 C2444 1.369 . S
C2445 C2454 1.429 . S
C2446 C2444 1.419 . S
C2446 C2447 1.363 . S
C2446 H2449 0.929 . S
C2447 C2446 1.363 . S
C2447 C2453 1.428 . S
H2448 C2444 0.930 . S
H2449 C2446 0.929 . S
S2450 N2451 1.613 . S
S2450 N2452 1.610 . S
N2451 S2450 1.613 . S
N2451 C2454 1.350 . S
N2452 S2450 1.610 . S
N2452 C2453 1.351 . S
C2453 C2447 1.428 . S
C2453 N2452 1.351 . S
C2453 C2454 1.434 . S
C2454 C2445 1.429 . S
C2454 N2451 1.350 . S
C2454 C2453 1.434 . S
C2455 C2456 1.369 . S
C2455 C2457 1.419 . S
C2455 H2459 0.930 . S
C2456 C2455 1.369 . S
C2456 C2465 1.429 . S
C2457 C2455 1.419 . S
C2457 C2458 1.363 . S
C2457 H2460 0.929 . S
C2458 C2457 1.363 . S
C2458 C2464 1.428 . S
H2459 C2455 0.930 . S
H2460 C2457 0.929 . S
S2461 N2462 1.613 . S
S2461 N2463 1.610 . S
N2462 S2461 1.613 . S
N2462 C2465 1.350 . S
N2463 S2461 1.610 . S
N2463 C2464 1.351 . S
C2464 C2458 1.428 . S
C2464 N2463 1.351 . S
C2464 C2465 1.434 . S
C2465 C2456 1.429 . S
C2465 N2462 1.350 . S
C2465 C2464 1.434 . S
C2466 C2467 1.369 . S
C2466 C2468 1.419 . S
C2466 H2470 0.930 . S
C2467 C2466 1.369 . S
C2467 C2476 1.429 . S
C2468 C2466 1.419 . S
C2468 C2469 1.363 . S
C2468 H2471 0.929 . S
C2469 C2468 1.363 . S
C2469 C2475 1.428 . S
H2470 C2466 0.930 . S
H2471 C2468 0.929 . S
S2472 N2473 1.613 . S
S2472 N2474 1.610 . S
N2473 S2472 1.613 . S
N2473 C2476 1.350 . S
N2474 S2472 1.610 . S
N2474 C2475 1.351 . S
C2475 C2469 1.428 . S
C2475 N2474 1.351 . S
C2475 C2476 1.434 . S
C2476 C2467 1.429 . S
C2476 N2473 1.350 . S
C2476 C2475 1.434 . S
C2477 C2478 1.369 . S
C2477 C2479 1.419 . S
C2477 H2481 0.930 . S
C2478 C2477 1.369 . S
C2478 C2487 1.429 . S
C2479 C2477 1.419 . S
C2479 C2480 1.363 . S
C2479 H2482 0.929 . S
C2480 C2479 1.363 . S
C2480 C2486 1.428 . S
H2481 C2477 0.930 . S
H2482 C2479 0.929 . S
S2483 N2484 1.613 . S
S2483 N2485 1.610 . S
N2484 S2483 1.613 . S
N2484 C2487 1.350 . S
N2485 S2483 1.610 . S
N2485 C2486 1.351 . S
C2486 C2480 1.428 . S
C2486 N2485 1.351 . S
C2486 C2487 1.434 . S
C2487 C2478 1.429 . S
C2487 N2484 1.350 . S
C2487 C2486 1.434 . S
C2488 C2489 1.369 . S
C2488 C2490 1.419 . S
C2488 H2492 0.930 . S
C2489 C2488 1.369 . S
C2489 C2498 1.429 . S
C2490 C2488 1.419 . S
C2490 C2491 1.363 . S
C2490 H2493 0.929 . S
C2491 C2490 1.363 . S
C2491 C2497 1.428 . S
H2492 C2488 0.930 . S
H2493 C2490 0.929 . S
S2494 N2495 1.613 . S
S2494 N2496 1.610 . S
N2495 S2494 1.613 . S
N2495 C2498 1.350 . S
N2496 S2494 1.610 . S
N2496 C2497 1.351 . S
C2497 C2491 1.428 . S
C2497 N2496 1.351 . S
C2497 C2498 1.434 . S
C2498 C2489 1.429 . S
C2498 N2495 1.350 . S
C2498 C2497 1.434 . S
C2499 C2500 1.369 . S
C2499 C2501 1.419 . S
C2499 H2503 0.930 . S
C2500 C2499 1.369 . S
C2500 C2509 1.429 . S
C2501 C2499 1.419 . S
C2501 C2502 1.363 . S
C2501 H2504 0.929 . S
C2502 C2501 1.363 . S
C2502 C2508 1.428 . S
H2503 C2499 0.930 . S
H2504 C2501 0.929 . S
S2505 N2506 1.613 . S
S2505 N2507 1.610 . S
N2506 S2505 1.613 . S
N2506 C2509 1.350 . S
N2507 S2505 1.610 . S
N2507 C2508 1.351 . S
C2508 C2502 1.428 . S
C2508 N2507 1.351 . S
C2508 C2509 1.434 . S
C2509 C2500 1.429 . S
C2509 N2506 1.350 . S
C2509 C2508 1.434 . S
C2510 C2511 1.369 . S
C2510 C2512 1.419 . S
C2510 H2514 0.930 . S
C2511 C2510 1.369 . S
C2511 C2520 1.429 . S
C2512 C2510 1.419 . S
C2512 C2513 1.363 . S
C2512 H2515 0.929 . S
C2513 C2512 1.363 . S
C2513 C2519 1.428 . S
H2514 C2510 0.930 . S
H2515 C2512 0.929 . S
S2516 N2517 1.613 . S
S2516 N2518 1.610 . S
N2517 S2516 1.613 . S
N2517 C2520 1.350 . S
N2518 S2516 1.610 . S
N2518 C2519 1.351 . S
C2519 C2513 1.428 . S
C2519 N2518 1.351 . S
C2519 C2520 1.434 . S
C2520 C2511 1.429 . S
C2520 N2517 1.350 . S
C2520 C2519 1.434 . S
C2521 C2522 1.369 . S
C2521 C2523 1.419 . S
C2521 H2525 0.930 . S
C2522 C2521 1.369 . S
C2522 C2531 1.429 . S
C2523 C2521 1.419 . S
C2523 C2524 1.363 . S
C2523 H2526 0.929 . S
C2524 C2523 1.363 . S
C2524 C2530 1.428 . S
H2525 C2521 0.930 . S
H2526 C2523 0.929 . S
S2527 N2528 1.613 . S
S2527 N2529 1.610 . S
N2528 S2527 1.613 . S
N2528 C2531 1.350 . S
N2529 S2527 1.610 . S
N2529 C2530 1.351 . S
C2530 C2524 1.428 . S
C2530 N2529 1.351 . S
C2530 C2531 1.434 . S
C2531 C2522 1.429 . S
C2531 N2528 1.350 . S
C2531 C2530 1.434 . S
C2532 C2533 1.369 . S
C2532 C2534 1.419 . S
C2532 H2536 0.930 . S
C2533 C2532 1.369 . S
C2533 C2542 1.429 . S
C2534 C2532 1.419 . S
C2534 C2535 1.363 . S
C2534 H2537 0.929 . S
C2535 C2534 1.363 . S
C2535 C2541 1.428 . S
H2536 C2532 0.930 . S
H2537 C2534 0.929 . S
S2538 N2539 1.613 . S
S2538 N2540 1.610 . S
N2539 S2538 1.613 . S
N2539 C2542 1.350 . S
N2540 S2538 1.610 . S
N2540 C2541 1.351 . S
C2541 C2535 1.428 . S
C2541 N2540 1.351 . S
C2541 C2542 1.434 . S
C2542 C2533 1.429 . S
C2542 N2539 1.350 . S
C2542 C2541 1.434 . S
C2543 C2544 1.369 . S
C2543 C2545 1.419 . S
C2543 H2547 0.930 . S
C2544 C2543 1.369 . S
C2544 C2553 1.429 . S
C2545 C2543 1.419 . S
C2545 C2546 1.363 . S
C2545 H2548 0.929 . S
C2546 C2545 1.363 . S
C2546 C2552 1.428 . S
H2547 C2543 0.930 . S
H2548 C2545 0.929 . S
S2549 N2550 1.613 . S
S2549 N2551 1.610 . S
N2550 S2549 1.613 . S
N2550 C2553 1.350 . S
N2551 S2549 1.610 . S
N2551 C2552 1.351 . S
C2552 C2546 1.428 . S
C2552 N2551 1.351 . S
C2552 C2553 1.434 . S
C2553 C2544 1.429 . S
C2553 N2550 1.350 . S
C2553 C2552 1.434 . S
C2554 C2555 1.369 . S
C2554 C2556 1.419 . S
C2554 H2558 0.930 . S
C2555 C2554 1.369 . S
C2555 C2564 1.429 . S
C2556 C2554 1.419 . S
C2556 C2557 1.363 . S
C2556 H2559 0.929 . S
C2557 C2556 1.363 . S
C2557 C2563 1.428 . S
H2558 C2554 0.930 . S
H2559 C2556 0.929 . S
S2560 N2561 1.613 . S
S2560 N2562 1.610 . S
N2561 S2560 1.613 . S
N2561 C2564 1.350 . S
N2562 S2560 1.610 . S
N2562 C2563 1.351 . S
C2563 C2557 1.428 . S
C2563 N2562 1.351 . S
C2563 C2564 1.434 . S
C2564 C2555 1.429 . S
C2564 N2561 1.350 . S
C2564 C2563 1.434 . S
C2565 C2566 1.369 . S
C2565 C2567 1.419 . S
C2565 H2569 0.930 . S
C2566 C2565 1.369 . S
C2566 C2575 1.429 . S
C2567 C2565 1.419 . S
C2567 C2568 1.363 . S
C2567 H2570 0.929 . S
C2568 C2567 1.363 . S
C2568 C2574 1.428 . S
H2569 C2565 0.930 . S
H2570 C2567 0.929 . S
S2571 N2572 1.613 . S
S2571 N2573 1.610 . S
N2572 S2571 1.613 . S
N2572 C2575 1.350 . S
N2573 S2571 1.610 . S
N2573 C2574 1.351 . S
C2574 C2568 1.428 . S
C2574 N2573 1.351 . S
C2574 C2575 1.434 . S
C2575 C2566 1.429 . S
C2575 N2572 1.350 . S
C2575 C2574 1.434 . S
C2576 C2577 1.369 . S
C2576 C2578 1.419 . S
C2576 H2580 0.930 . S
C2577 C2576 1.369 . S
C2577 C2586 1.429 . S
C2578 C2576 1.419 . S
C2578 C2579 1.363 . S
C2578 H2581 0.929 . S
C2579 C2578 1.363 . S
C2579 C2585 1.428 . S
H2580 C2576 0.930 . S
H2581 C2578 0.929 . S
S2582 N2583 1.613 . S
S2582 N2584 1.610 . S
N2583 S2582 1.613 . S
N2583 C2586 1.350 . S
N2584 S2582 1.610 . S
N2584 C2585 1.351 . S
C2585 C2579 1.428 . S
C2585 N2584 1.351 . S
C2585 C2586 1.434 . S
C2586 C2577 1.429 . S
C2586 N2583 1.350 . S
C2586 C2585 1.434 . S
C2587 C2588 1.369 . S
C2587 C2589 1.419 . S
C2587 H2591 0.930 . S
C2588 C2587 1.369 . S
C2588 C2597 1.429 . S
C2589 C2587 1.419 . S
C2589 C2590 1.363 . S
C2589 H2592 0.929 . S
C2590 C2589 1.363 . S
C2590 C2596 1.428 . S
H2591 C2587 0.930 . S
H2592 C2589 0.929 . S
S2593 N2594 1.613 . S
S2593 N2595 1.610 . S
N2594 S2593 1.613 . S
N2594 C2597 1.350 . S
N2595 S2593 1.610 . S
N2595 C2596 1.351 . S
C2596 C2590 1.428 . S
C2596 N2595 1.351 . S
C2596 C2597 1.434 . S
C2597 C2588 1.429 . S
C2597 N2594 1.350 . S
C2597 C2596 1.434 . S
C2598 C2599 1.369 . S
C2598 C2600 1.419 . S
C2598 H2602 0.930 . S
C2599 C2598 1.369 . S
C2599 C2608 1.429 . S
C2600 C2598 1.419 . S
C2600 C2601 1.363 . S
C2600 H2603 0.929 . S
C2601 C2600 1.363 . S
C2601 C2607 1.428 . S
H2602 C2598 0.930 . S
H2603 C2600 0.929 . S
S2604 N2605 1.613 . S
S2604 N2606 1.610 . S
N2605 S2604 1.613 . S
N2605 C2608 1.350 . S
N2606 S2604 1.610 . S
N2606 C2607 1.351 . S
C2607 C2601 1.428 . S
C2607 N2606 1.351 . S
C2607 C2608 1.434 . S
C2608 C2599 1.429 . S
C2608 N2605 1.350 . S
C2608 C2607 1.434 . S
C2609 C2610 1.369 . S
C2609 C2611 1.419 . S
C2609 H2613 0.930 . S
C2610 C2609 1.369 . S
C2610 C2619 1.429 . S
C2611 C2609 1.419 . S
C2611 C2612 1.363 . S
C2611 H2614 0.929 . S
C2612 C2611 1.363 . S
C2612 C2618 1.428 . S
H2613 C2609 0.930 . S
H2614 C2611 0.929 . S
S2615 N2616 1.613 . S
S2615 N2617 1.610 . S
N2616 S2615 1.613 . S
N2616 C2619 1.350 . S
N2617 S2615 1.610 . S
N2617 C2618 1.351 . S
C2618 C2612 1.428 . S
C2618 N2617 1.351 . S
C2618 C2619 1.434 . S
C2619 C2610 1.429 . S
C2619 N2616 1.350 . S
C2619 C2618 1.434 . S
C2620 C2621 1.369 . S
C2620 C2622 1.419 . S
C2620 H2624 0.930 . S
C2621 C2620 1.369 . S
C2621 C2630 1.429 . S
C2622 C2620 1.419 . S
C2622 C2623 1.363 . S
C2622 H2625 0.929 . S
C2623 C2622 1.363 . S
C2623 C2629 1.428 . S
H2624 C2620 0.930 . S
H2625 C2622 0.929 . S
S2626 N2627 1.613 . S
S2626 N2628 1.610 . S
N2627 S2626 1.613 . S
N2627 C2630 1.350 . S
N2628 S2626 1.610 . S
N2628 C2629 1.351 . S
C2629 C2623 1.428 . S
C2629 N2628 1.351 . S
C2629 C2630 1.434 . S
C2630 C2621 1.429 . S
C2630 N2627 1.350 . S
C2630 C2629 1.434 . S
C2631 C2632 1.369 . S
C2631 C2633 1.419 . S
C2631 H2635 0.930 . S
C2632 C2631 1.369 . S
C2632 C2641 1.429 . S
C2633 C2631 1.419 . S
C2633 C2634 1.363 . S
C2633 H2636 0.929 . S
C2634 C2633 1.363 . S
C2634 C2640 1.428 . S
H2635 C2631 0.930 . S
H2636 C2633 0.929 . S
S2637 N2638 1.613 . S
S2637 N2639 1.610 . S
N2638 S2637 1.613 . S
N2638 C2641 1.350 . S
N2639 S2637 1.610 . S
N2639 C2640 1.351 . S
C2640 C2634 1.428 . S
C2640 N2639 1.351 . S
C2640 C2641 1.434 . S
C2641 C2632 1.429 . S
C2641 N2638 1.350 . S
C2641 C2640 1.434 . S
C2642 C2643 1.369 . S
C2642 C2644 1.419 . S
C2642 H2646 0.930 . S
C2643 C2642 1.369 . S
C2643 C2652 1.429 . S
C2644 C2642 1.419 . S
C2644 C2645 1.363 . S
C2644 H2647 0.929 . S
C2645 C2644 1.363 . S
C2645 C2651 1.428 . S
H2646 C2642 0.930 . S
H2647 C2644 0.929 . S
S2648 N2649 1.613 . S
S2648 N2650 1.610 . S
N2649 S2648 1.613 . S
N2649 C2652 1.350 . S
N2650 S2648 1.610 . S
N2650 C2651 1.351 . S
C2651 C2645 1.428 . S
C2651 N2650 1.351 . S
C2651 C2652 1.434 . S
C2652 C2643 1.429 . S
C2652 N2649 1.350 . S
C2652 C2651 1.434 . S
C2653 C2654 1.369 . S
C2653 C2655 1.419 . S
C2653 H2657 0.930 . S
C2654 C2653 1.369 . S
C2654 C2663 1.429 . S
C2655 C2653 1.419 . S
C2655 C2656 1.363 . S
C2655 H2658 0.929 . S
C2656 C2655 1.363 . S
C2656 C2662 1.428 . S
H2657 C2653 0.930 . S
H2658 C2655 0.929 . S
S2659 N2660 1.613 . S
S2659 N2661 1.610 . S
N2660 S2659 1.613 . S
N2660 C2663 1.350 . S
N2661 S2659 1.610 . S
N2661 C2662 1.351 . S
C2662 C2656 1.428 . S
C2662 N2661 1.351 . S
C2662 C2663 1.434 . S
C2663 C2654 1.429 . S
C2663 N2660 1.350 . S
C2663 C2662 1.434 . S
C2664 C2665 1.369 . S
C2664 C2666 1.419 . S
C2664 H2668 0.930 . S
C2665 C2664 1.369 . S
C2665 C2674 1.429 . S
C2666 C2664 1.419 . S
C2666 C2667 1.363 . S
C2666 H2669 0.929 . S
C2667 C2666 1.363 . S
C2667 C2673 1.428 . S
H2668 C2664 0.930 . S
H2669 C2666 0.929 . S
S2670 N2671 1.613 . S
S2670 N2672 1.610 . S
N2671 S2670 1.613 . S
N2671 C2674 1.350 . S
N2672 S2670 1.610 . S
N2672 C2673 1.351 . S
C2673 C2667 1.428 . S
C2673 N2672 1.351 . S
C2673 C2674 1.434 . S
C2674 C2665 1.429 . S
C2674 N2671 1.350 . S
C2674 C2673 1.434 . S
C2675 C2676 1.369 . S
C2675 C2677 1.419 . S
C2675 H2679 0.930 . S
C2676 C2675 1.369 . S
C2676 C2685 1.429 . S
C2677 C2675 1.419 . S
C2677 C2678 1.363 . S
C2677 H2680 0.929 . S
C2678 C2677 1.363 . S
C2678 C2684 1.428 . S
H2679 C2675 0.930 . S
H2680 C2677 0.929 . S
S2681 N2682 1.613 . S
S2681 N2683 1.610 . S
N2682 S2681 1.613 . S
N2682 C2685 1.350 . S
N2683 S2681 1.610 . S
N2683 C2684 1.351 . S
C2684 C2678 1.428 . S
C2684 N2683 1.351 . S
C2684 C2685 1.434 . S
C2685 C2676 1.429 . S
C2685 N2682 1.350 . S
C2685 C2684 1.434 . S
C2686 C2687 1.369 . S
C2686 C2688 1.419 . S
C2686 H2690 0.930 . S
C2687 C2686 1.369 . S
C2687 C2696 1.429 . S
C2688 C2686 1.419 . S
C2688 C2689 1.363 . S
C2688 H2691 0.929 . S
C2689 C2688 1.363 . S
C2689 C2695 1.428 . S
H2690 C2686 0.930 . S
H2691 C2688 0.929 . S
S2692 N2693 1.613 . S
S2692 N2694 1.610 . S
N2693 S2692 1.613 . S
N2693 C2696 1.350 . S
N2694 S2692 1.610 . S
N2694 C2695 1.351 . S
C2695 C2689 1.428 . S
C2695 N2694 1.351 . S
C2695 C2696 1.434 . S
C2696 C2687 1.429 . S
C2696 N2693 1.350 . S
C2696 C2695 1.434 . S
C2697 C2698 1.369 . S
C2697 C2699 1.419 . S
C2697 H2701 0.930 . S
C2698 C2697 1.369 . S
C2698 C2707 1.429 . S
C2699 C2697 1.419 . S
C2699 C2700 1.363 . S
C2699 H2702 0.929 . S
C2700 C2699 1.363 . S
C2700 C2706 1.428 . S
H2701 C2697 0.930 . S
H2702 C2699 0.929 . S
S2703 N2704 1.613 . S
S2703 N2705 1.610 . S
N2704 S2703 1.613 . S
N2704 C2707 1.350 . S
N2705 S2703 1.610 . S
N2705 C2706 1.351 . S
C2706 C2700 1.428 . S
C2706 N2705 1.351 . S
C2706 C2707 1.434 . S
C2707 C2698 1.429 . S
C2707 N2704 1.350 . S
C2707 C2706 1.434 . S
C2708 C2709 1.369 . S
C2708 C2710 1.419 . S
C2708 H2712 0.930 . S
C2709 C2708 1.369 . S
C2709 C2718 1.429 . S
C2710 C2708 1.419 . S
C2710 C2711 1.363 . S
C2710 H2713 0.929 . S
C2711 C2710 1.363 . S
C2711 C2717 1.428 . S
H2712 C2708 0.930 . S
H2713 C2710 0.929 . S
S2714 N2715 1.613 . S
S2714 N2716 1.610 . S
N2715 S2714 1.613 . S
N2715 C2718 1.350 . S
N2716 S2714 1.610 . S
N2716 C2717 1.351 . S
C2717 C2711 1.428 . S
C2717 N2716 1.351 . S
C2717 C2718 1.434 . S
C2718 C2709 1.429 . S
C2718 N2715 1.350 . S
C2718 C2717 1.434 . S
C2719 C2720 1.369 . S
C2719 C2721 1.419 . S
C2719 H2723 0.930 . S
C2720 C2719 1.369 . S
C2720 C2729 1.429 . S
C2721 C2719 1.419 . S
C2721 C2722 1.363 . S
C2721 H2724 0.929 . S
C2722 C2721 1.363 . S
C2722 C2728 1.428 . S
H2723 C2719 0.930 . S
H2724 C2721 0.929 . S
S2725 N2726 1.613 . S
S2725 N2727 1.610 . S
N2726 S2725 1.613 . S
N2726 C2729 1.350 . S
N2727 S2725 1.610 . S
N2727 C2728 1.351 . S
C2728 C2722 1.428 . S
C2728 N2727 1.351 . S
C2728 C2729 1.434 . S
C2729 C2720 1.429 . S
C2729 N2726 1.350 . S
C2729 C2728 1.434 . S
C2730 C2731 1.369 . S
C2730 C2732 1.419 . S
C2730 H2734 0.930 . S
C2731 C2730 1.369 . S
C2731 C2740 1.429 . S
C2732 C2730 1.419 . S
C2732 C2733 1.363 . S
C2732 H2735 0.929 . S
C2733 C2732 1.363 . S
C2733 C2739 1.428 . S
H2734 C2730 0.930 . S
H2735 C2732 0.929 . S
S2736 N2737 1.613 . S
S2736 N2738 1.610 . S
N2737 S2736 1.613 . S
N2737 C2740 1.350 . S
N2738 S2736 1.610 . S
N2738 C2739 1.351 . S
C2739 C2733 1.428 . S
C2739 N2738 1.351 . S
C2739 C2740 1.434 . S
C2740 C2731 1.429 . S
C2740 N2737 1.350 . S
C2740 C2739 1.434 . S
C2741 C2742 1.369 . S
C2741 C2743 1.419 . S
C2741 H2745 0.930 . S
C2742 C2741 1.369 . S
C2742 C2751 1.429 . S
C2743 C2741 1.419 . S
C2743 C2744 1.363 . S
C2743 H2746 0.929 . S
C2744 C2743 1.363 . S
C2744 C2750 1.428 . S
H2745 C2741 0.930 . S
H2746 C2743 0.929 . S
S2747 N2748 1.613 . S
S2747 N2749 1.610 . S
N2748 S2747 1.613 . S
N2748 C2751 1.350 . S
N2749 S2747 1.610 . S
N2749 C2750 1.351 . S
C2750 C2744 1.428 . S
C2750 N2749 1.351 . S
C2750 C2751 1.434 . S
C2751 C2742 1.429 . S
C2751 N2748 1.350 . S
C2751 C2750 1.434 . S
C2752 C2753 1.369 . S
C2752 C2754 1.419 . S
C2752 H2756 0.930 . S
C2753 C2752 1.369 . S
C2753 C2762 1.429 . S
C2754 C2752 1.419 . S
C2754 C2755 1.363 . S
C2754 H2757 0.929 . S
C2755 C2754 1.363 . S
C2755 C2761 1.428 . S
H2756 C2752 0.930 . S
H2757 C2754 0.929 . S
S2758 N2759 1.613 . S
S2758 N2760 1.610 . S
N2759 S2758 1.613 . S
N2759 C2762 1.350 . S
N2760 S2758 1.610 . S
N2760 C2761 1.351 . S
C2761 C2755 1.428 . S
C2761 N2760 1.351 . S
C2761 C2762 1.434 . S
C2762 C2753 1.429 . S
C2762 N2759 1.350 . S
C2762 C2761 1.434 . S
C2763 C2764 1.369 . S
C2763 C2765 1.419 . S
C2763 H2767 0.930 . S
C2764 C2763 1.369 . S
C2764 C2773 1.429 . S
C2765 C2763 1.419 . S
C2765 C2766 1.363 . S
C2765 H2768 0.929 . S
C2766 C2765 1.363 . S
C2766 C2772 1.428 . S
H2767 C2763 0.930 . S
H2768 C2765 0.929 . S
S2769 N2770 1.613 . S
S2769 N2771 1.610 . S
N2770 S2769 1.613 . S
N2770 C2773 1.350 . S
N2771 S2769 1.610 . S
N2771 C2772 1.351 . S
C2772 C2766 1.428 . S
C2772 N2771 1.351 . S
C2772 C2773 1.434 . S
C2773 C2764 1.429 . S
C2773 N2770 1.350 . S
C2773 C2772 1.434 . S
C2774 C2775 1.369 . S
C2774 C2776 1.419 . S
C2774 H2778 0.930 . S
C2775 C2774 1.369 . S
C2775 C2784 1.429 . S
C2776 C2774 1.419 . S
C2776 C2777 1.363 . S
C2776 H2779 0.929 . S
C2777 C2776 1.363 . S
C2777 C2783 1.428 . S
H2778 C2774 0.930 . S
H2779 C2776 0.929 . S
S2780 N2781 1.613 . S
S2780 N2782 1.610 . S
N2781 S2780 1.613 . S
N2781 C2784 1.350 . S
N2782 S2780 1.610 . S
N2782 C2783 1.351 . S
C2783 C2777 1.428 . S
C2783 N2782 1.351 . S
C2783 C2784 1.434 . S
C2784 C2775 1.429 . S
C2784 N2781 1.350 . S
C2784 C2783 1.434 . S
C2785 C2786 1.369 . S
C2785 C2787 1.419 . S
C2785 H2789 0.930 . S
C2786 C2785 1.369 . S
C2786 C2795 1.429 . S
C2787 C2785 1.419 . S
C2787 C2788 1.363 . S
C2787 H2790 0.929 . S
C2788 C2787 1.363 . S
C2788 C2794 1.428 . S
H2789 C2785 0.930 . S
H2790 C2787 0.929 . S
S2791 N2792 1.613 . S
S2791 N2793 1.610 . S
N2792 S2791 1.613 . S
N2792 C2795 1.350 . S
N2793 S2791 1.610 . S
N2793 C2794 1.351 . S
C2794 C2788 1.428 . S
C2794 N2793 1.351 . S
C2794 C2795 1.434 . S
C2795 C2786 1.429 . S
C2795 N2792 1.350 . S
C2795 C2794 1.434 . S
C2796 C2797 1.369 . S
C2796 C2798 1.419 . S
C2796 H2800 0.930 . S
C2797 C2796 1.369 . S
C2797 C2806 1.429 . S
C2798 C2796 1.419 . S
C2798 C2799 1.363 . S
C2798 H2801 0.929 . S
C2799 C2798 1.363 . S
C2799 C2805 1.428 . S
H2800 C2796 0.930 . S
H2801 C2798 0.929 . S
S2802 N2803 1.613 . S
S2802 N2804 1.610 . S
N2803 S2802 1.613 . S
N2803 C2806 1.350 . S
N2804 S2802 1.610 . S
N2804 C2805 1.351 . S
C2805 C2799 1.428 . S
C2805 N2804 1.351 . S
C2805 C2806 1.434 . S
C2806 C2797 1.429 . S
C2806 N2803 1.350 . S
C2806 C2805 1.434 . S
C2807 C2808 1.369 . S
C2807 C2809 1.419 . S
C2807 H2811 0.930 . S
C2808 C2807 1.369 . S
C2808 C2817 1.429 . S
C2809 C2807 1.419 . S
C2809 C2810 1.363 . S
C2809 H2812 0.929 . S
C2810 C2809 1.363 . S
C2810 C2816 1.428 . S
H2811 C2807 0.930 . S
H2812 C2809 0.929 . S
S2813 N2814 1.613 . S
S2813 N2815 1.610 . S
N2814 S2813 1.613 . S
N2814 C2817 1.350 . S
N2815 S2813 1.610 . S
N2815 C2816 1.351 . S
C2816 C2810 1.428 . S
C2816 N2815 1.351 . S
C2816 C2817 1.434 . S
C2817 C2808 1.429 . S
C2817 N2814 1.350 . S
C2817 C2816 1.434 . S
C2818 C2819 1.369 . S
C2818 C2820 1.419 . S
C2818 H2822 0.930 . S
C2819 C2818 1.369 . S
C2819 C2828 1.429 . S
C2820 C2818 1.419 . S
C2820 C2821 1.363 . S
C2820 H2823 0.929 . S
C2821 C2820 1.363 . S
C2821 C2827 1.428 . S
H2822 C2818 0.930 . S
H2823 C2820 0.929 . S
S2824 N2825 1.613 . S
S2824 N2826 1.610 . S
N2825 S2824 1.613 . S
N2825 C2828 1.350 . S
N2826 S2824 1.610 . S
N2826 C2827 1.351 . S
C2827 C2821 1.428 . S
C2827 N2826 1.351 . S
C2827 C2828 1.434 . S
C2828 C2819 1.429 . S
C2828 N2825 1.350 . S
C2828 C2827 1.434 . S
C2829 C2830 1.369 . S
C2829 C2831 1.419 . S
C2829 H2833 0.930 . S
C2830 C2829 1.369 . S
C2830 C2839 1.429 . S
C2831 C2829 1.419 . S
C2831 C2832 1.363 . S
C2831 H2834 0.929 . S
C2832 C2831 1.363 . S
C2832 C2838 1.428 . S
H2833 C2829 0.930 . S
H2834 C2831 0.929 . S
S2835 N2836 1.613 . S
S2835 N2837 1.610 . S
N2836 S2835 1.613 . S
N2836 C2839 1.350 . S
N2837 S2835 1.610 . S
N2837 C2838 1.351 . S
C2838 C2832 1.428 . S
C2838 N2837 1.351 . S
C2838 C2839 1.434 . S
C2839 C2830 1.429 . S
C2839 N2836 1.350 . S
C2839 C2838 1.434 . S
C2840 C2841 1.369 . S
C2840 C2842 1.419 . S
C2840 H2844 0.930 . S
C2841 C2840 1.369 . S
C2841 C2850 1.429 . S
C2842 C2840 1.419 . S
C2842 C2843 1.363 . S
C2842 H2845 0.929 . S
C2843 C2842 1.363 . S
C2843 C2849 1.428 . S
H2844 C2840 0.930 . S
H2845 C2842 0.929 . S
S2846 N2847 1.613 . S
S2846 N2848 1.610 . S
N2847 S2846 1.613 . S
N2847 C2850 1.350 . S
N2848 S2846 1.610 . S
N2848 C2849 1.351 . S
C2849 C2843 1.428 . S
C2849 N2848 1.351 . S
C2849 C2850 1.434 . S
C2850 C2841 1.429 . S
C2850 N2847 1.350 . S
C2850 C2849 1.434 . S
C2851 C2852 1.369 . S
C2851 C2853 1.419 . S
C2851 H2855 0.930 . S
C2852 C2851 1.369 . S
C2852 C2861 1.429 . S
C2853 C2851 1.419 . S
C2853 C2854 1.363 . S
C2853 H2856 0.929 . S
C2854 C2853 1.363 . S
C2854 C2860 1.428 . S
H2855 C2851 0.930 . S
H2856 C2853 0.929 . S
S2857 N2858 1.613 . S
S2857 N2859 1.610 . S
N2858 S2857 1.613 . S
N2858 C2861 1.350 . S
N2859 S2857 1.610 . S
N2859 C2860 1.351 . S
C2860 C2854 1.428 . S
C2860 N2859 1.351 . S
C2860 C2861 1.434 . S
C2861 C2852 1.429 . S
C2861 N2858 1.350 . S
C2861 C2860 1.434 . S
C2862 C2863 1.369 . S
C2862 C2864 1.419 . S
C2862 H2866 0.930 . S
C2863 C2862 1.369 . S
C2863 C2872 1.429 . S
C2864 C2862 1.419 . S
C2864 C2865 1.363 . S
C2864 H2867 0.929 . S
C2865 C2864 1.363 . S
C2865 C2871 1.428 . S
H2866 C2862 0.930 . S
H2867 C2864 0.929 . S
S2868 N2869 1.613 . S
S2868 N2870 1.610 . S
N2869 S2868 1.613 . S
N2869 C2872 1.350 . S
N2870 S2868 1.610 . S
N2870 C2871 1.351 . S
C2871 C2865 1.428 . S
C2871 N2870 1.351 . S
C2871 C2872 1.434 . S
C2872 C2863 1.429 . S
C2872 N2869 1.350 . S
C2872 C2871 1.434 . S
C2873 C2874 1.369 . S
C2873 C2875 1.419 . S
C2873 H2877 0.930 . S
C2874 C2873 1.369 . S
C2874 C2883 1.429 . S
C2875 C2873 1.419 . S
C2875 C2876 1.363 . S
C2875 H2878 0.929 . S
C2876 C2875 1.363 . S
C2876 C2882 1.428 . S
H2877 C2873 0.930 . S
H2878 C2875 0.929 . S
S2879 N2880 1.613 . S
S2879 N2881 1.610 . S
N2880 S2879 1.613 . S
N2880 C2883 1.350 . S
N2881 S2879 1.610 . S
N2881 C2882 1.351 . S
C2882 C2876 1.428 . S
C2882 N2881 1.351 . S
C2882 C2883 1.434 . S
C2883 C2874 1.429 . S
C2883 N2880 1.350 . S
C2883 C2882 1.434 . S
C2884 C2885 1.369 . S
C2884 C2886 1.419 . S
C2884 H2888 0.930 . S
C2885 C2884 1.369 . S
C2885 C2894 1.429 . S
C2886 C2884 1.419 . S
C2886 C2887 1.363 . S
C2886 H2889 0.929 . S
C2887 C2886 1.363 . S
C2887 C2893 1.428 . S
H2888 C2884 0.930 . S
H2889 C2886 0.929 . S
S2890 N2891 1.613 . S
S2890 N2892 1.610 . S
N2891 S2890 1.613 . S
N2891 C2894 1.350 . S
N2892 S2890 1.610 . S
N2892 C2893 1.351 . S
C2893 C2887 1.428 . S
C2893 N2892 1.351 . S
C2893 C2894 1.434 . S
C2894 C2885 1.429 . S
C2894 N2891 1.350 . S
C2894 C2893 1.434 . S
C2895 C2896 1.369 . S
C2895 C2897 1.419 . S
C2895 H2899 0.930 . S
C2896 C2895 1.369 . S
C2896 C2905 1.429 . S
C2897 C2895 1.419 . S
C2897 C2898 1.363 . S
C2897 H2900 0.929 . S
C2898 C2897 1.363 . S
C2898 C2904 1.428 . S
H2899 C2895 0.930 . S
H2900 C2897 0.929 . S
S2901 N2902 1.613 . S
S2901 N2903 1.610 . S
N2902 S2901 1.613 . S
N2902 C2905 1.350 . S
N2903 S2901 1.610 . S
N2903 C2904 1.351 . S
C2904 C2898 1.428 . S
C2904 N2903 1.351 . S
C2904 C2905 1.434 . S
C2905 C2896 1.429 . S
C2905 N2902 1.350 . S
C2905 C2904 1.434 . S
C2906 C2907 1.369 . S
C2906 C2908 1.419 . S
C2906 H2910 0.930 . S
C2907 C2906 1.369 . S
C2907 C2916 1.429 . S
C2908 C2906 1.419 . S
C2908 C2909 1.363 . S
C2908 H2911 0.929 . S
C2909 C2908 1.363 . S
C2909 C2915 1.428 . S
H2910 C2906 0.930 . S
H2911 C2908 0.929 . S
S2912 N2913 1.613 . S
S2912 N2914 1.610 . S
N2913 S2912 1.613 . S
N2913 C2916 1.350 . S
N2914 S2912 1.610 . S
N2914 C2915 1.351 . S
C2915 C2909 1.428 . S
C2915 N2914 1.351 . S
C2915 C2916 1.434 . S
C2916 C2907 1.429 . S
C2916 N2913 1.350 . S
C2916 C2915 1.434 . S
C2917 C2918 1.369 . S
C2917 C2919 1.419 . S
C2917 H2921 0.930 . S
C2918 C2917 1.369 . S
C2918 C2927 1.429 . S
C2919 C2917 1.419 . S
C2919 C2920 1.363 . S
C2919 H2922 0.929 . S
C2920 C2919 1.363 . S
C2920 C2926 1.428 . S
H2921 C2917 0.930 . S
H2922 C2919 0.929 . S
S2923 N2924 1.613 . S
S2923 N2925 1.610 . S
N2924 S2923 1.613 . S
N2924 C2927 1.350 . S
N2925 S2923 1.610 . S
N2925 C2926 1.351 . S
C2926 C2920 1.428 . S
C2926 N2925 1.351 . S
C2926 C2927 1.434 . S
C2927 C2918 1.429 . S
C2927 N2924 1.350 . S
C2927 C2926 1.434 . S
C2928 C2929 1.369 . S
C2928 C2930 1.419 1_655 S
C2928 H2932 0.930 . S
C2929 C2928 1.369 . S
C2929 C2938 1.429 . S
C2930 C2928 1.419 1_455 S
C2930 C2931 1.363 . S
C2930 H2933 0.929 . S
C2931 C2930 1.363 . S
C2931 C2937 1.428 . S
H2932 C2928 0.930 . S
H2933 C2930 0.929 . S
S2934 N2935 1.613 . S
S2934 N2936 1.610 1_655 S
N2935 S2934 1.613 . S
N2935 C2938 1.350 . S
N2936 S2934 1.610 1_455 S
N2936 C2937 1.351 . S
C2937 C2931 1.428 . S
C2937 N2936 1.351 . S
C2937 C2938 1.434 1_455 S
C2938 C2929 1.429 . S
C2938 N2935 1.350 . S
C2938 C2937 1.434 1_655 S
C2939 C2940 1.369 . S
C2939 C2941 1.419 1_545 S
C2939 H2943 0.930 . S
C2940 C2939 1.369 . S
C2940 C2949 1.429 . S
C2941 C2939 1.419 1_565 S
C2941 C2942 1.363 . S
C2941 H2944 0.929 . S
C2942 C2941 1.363 . S
C2942 C2948 1.428 . S
H2943 C2939 0.930 . S
H2944 C2941 0.929 . S
S2945 N2946 1.613 . S
S2945 N2947 1.610 1_545 S
N2946 S2945 1.613 . S
N2946 C2949 1.350 . S
N2947 S2945 1.610 1_565 S
N2947 C2948 1.351 . S
C2948 C2942 1.428 . S
C2948 N2947 1.351 . S
C2948 C2949 1.434 1_565 S
C2949 C2940 1.429 . S
C2949 N2946 1.350 . S
C2949 C2948 1.434 1_545 S
C2950 C2951 1.369 . S
C2950 C2952 1.419 1_455 S
C2950 H2954 0.930 . S
C2951 C2950 1.369 . S
C2951 C2960 1.429 . S
C2952 C2950 1.419 1_655 S
C2952 C2953 1.363 . S
C2952 H2955 0.929 . S
C2953 C2952 1.363 . S
C2953 C2959 1.428 . S
H2954 C2950 0.930 . S
H2955 C2952 0.929 . S
S2956 N2957 1.613 1_655 S
S2956 N2958 1.610 . S
N2957 S2956 1.613 1_455 S
N2957 C2960 1.350 . S
N2958 S2956 1.610 . S
N2958 C2959 1.351 . S
C2959 C2953 1.428 . S
C2959 N2958 1.351 . S
C2959 C2960 1.434 1_655 S
C2960 C2951 1.429 . S
C2960 N2957 1.350 . S
C2960 C2959 1.434 1_455 S
C2961 C2962 1.369 . S
C2961 C2963 1.419 1_565 S
C2961 H2965 0.930 . S
C2962 C2961 1.369 . S
C2962 C2971 1.429 . S
C2963 C2961 1.419 1_545 S
C2963 C2964 1.363 . S
C2963 H2966 0.929 . S
C2964 C2963 1.363 . S
C2964 C2970 1.428 . S
H2965 C2961 0.930 . S
H2966 C2963 0.929 . S
S2967 N2968 1.613 . S
S2967 N2969 1.610 1_565 S
N2968 S2967 1.613 . S
N2968 C2971 1.350 . S
N2969 S2967 1.610 1_545 S
N2969 C2970 1.351 . S
C2970 C2964 1.428 . S
C2970 N2969 1.351 . S
C2970 C2971 1.434 1_545 S
C2971 C2962 1.429 . S
C2971 N2968 1.350 . S
C2971 C2970 1.434 1_565 S
C2972 C2973 1.369 . S
C2972 C2974 1.419 1_655 S
C2972 H2976 0.930 . S
C2973 C2972 1.369 . S
C2973 C2982 1.429 . S
C2974 C2972 1.419 1_455 S
C2974 C2975 1.363 . S
C2974 H2977 0.929 . S
C2975 C2974 1.363 . S
C2975 C2981 1.428 . S
H2976 C2972 0.930 . S
H2977 C2974 0.929 . S
S2978 N2979 1.613 . S
S2978 N2980 1.610 1_655 S
N2979 S2978 1.613 . S
N2979 C2982 1.350 . S
N2980 S2978 1.610 1_455 S
N2980 C2981 1.351 . S
C2981 C2975 1.428 . S
C2981 N2980 1.351 . S
C2981 C2982 1.434 1_455 S
C2982 C2973 1.429 . S
C2982 N2979 1.350 . S
C2982 C2981 1.434 1_655 S
C2983 C2984 1.369 . S
C2983 C2985 1.419 1_565 S
C2983 H2987 0.930 . S
C2984 C2983 1.369 . S
C2984 C2993 1.429 . S
C2985 C2983 1.419 1_545 S
C2985 C2986 1.363 . S
C2985 H2988 0.929 . S
C2986 C2985 1.363 . S
C2986 C2992 1.428 . S
H2987 C2983 0.930 . S
H2988 C2985 0.929 . S
S2989 N2990 1.613 1_545 S
S2989 N2991 1.610 . S
N2990 S2989 1.613 1_565 S
N2990 C2993 1.350 . S
N2991 S2989 1.610 . S
N2991 C2992 1.351 . S
C2992 C2986 1.428 . S
C2992 N2991 1.351 . S
C2992 C2993 1.434 1_545 S
C2993 C2984 1.429 . S
C2993 N2990 1.350 . S
C2993 C2992 1.434 1_565 S
C2994 C2995 1.369 . S
C2994 C2996 1.419 1_655 S
C2994 H2998 0.930 . S
C2995 C2994 1.369 . S
C2995 C3004 1.429 . S
C2996 C2994 1.419 1_455 S
C2996 C2997 1.363 . S
C2996 H2999 0.929 . S
C2997 C2996 1.363 . S
C2997 C3003 1.428 . S
H2998 C2994 0.930 . S
H2999 C2996 0.929 . S
S3000 N3001 1.613 1_455 S
S3000 N3002 1.610 . S
N3001 S3000 1.613 1_655 S
N3001 C3004 1.350 . S
N3002 S3000 1.610 . S
N3002 C3003 1.351 . S
C3003 C2997 1.428 . S
C3003 N3002 1.351 . S
C3003 C3004 1.434 1_455 S
C3004 C2995 1.429 . S
C3004 N3001 1.350 . S
C3004 C3003 1.434 1_655 S
C3005 C3006 1.369 . S
C3005 C3007 1.419 1_565 S
C3005 H3009 0.930 . S
C3006 C3005 1.369 . S
C3006 C3015 1.429 . S
C3007 C3005 1.419 1_545 S
C3007 C3008 1.363 . S
C3007 H3010 0.929 . S
C3008 C3007 1.363 . S
C3008 C3014 1.428 . S
H3009 C3005 0.930 . S
H3010 C3007 0.929 . S
S3011 N3012 1.613 1_545 S
S3011 N3013 1.610 . S
N3012 S3011 1.613 1_565 S
N3012 C3015 1.350 . S
N3013 S3011 1.610 . S
N3013 C3014 1.351 . S
C3014 C3008 1.428 . S
C3014 N3013 1.351 . S
C3014 C3015 1.434 1_545 S
C3015 C3006 1.429 . S
C3015 N3012 1.350 . S
C3015 C3014 1.434 1_565 S
C3016 C3017 1.369 . S
C3016 C3018 1.419 1_565 S
C3016 H3020 0.930 . S
C3017 C3016 1.369 . S
C3017 C3026 1.429 . S
C3018 C3016 1.419 1_545 S
C3018 C3019 1.363 . S
C3018 H3021 0.929 . S
C3019 C3018 1.363 . S
C3019 C3025 1.428 . S
H3020 C3016 0.930 . S
H3021 C3018 0.929 . S
S3022 N3023 1.613 . S
S3022 N3024 1.610 1_565 S
N3023 S3022 1.613 . S
N3023 C3026 1.350 . S
N3024 S3022 1.610 1_545 S
N3024 C3025 1.351 . S
C3025 C3019 1.428 . S
C3025 N3024 1.351 . S
C3025 C3026 1.434 1_545 S
C3026 C3017 1.429 . S
C3026 N3023 1.350 . S
C3026 C3025 1.434 1_565 S
C3027 C3028 1.369 . S
C3027 C3029 1.419 1_655 S
C3027 H3031 0.930 . S
C3028 C3027 1.369 . S
C3028 C3037 1.429 . S
C3029 C3027 1.419 1_455 S
C3029 C3030 1.363 . S
C3029 H3032 0.929 . S
C3030 C3029 1.363 . S
C3030 C3036 1.428 . S
H3031 C3027 0.930 . S
H3032 C3029 0.929 . S
S3033 N3034 1.613 1_455 S
S3033 N3035 1.610 . S
N3034 S3033 1.613 1_655 S
N3034 C3037 1.350 . S
N3035 S3033 1.610 . S
N3035 C3036 1.351 . S
C3036 C3030 1.428 . S
C3036 N3035 1.351 . S
C3036 C3037 1.434 1_455 S
C3037 C3028 1.429 . S
C3037 N3034 1.350 . S
C3037 C3036 1.434 1_655 S
C3038 C3039 1.369 . S
C3038 C3040 1.419 1_565 S
C3038 H3042 0.930 . S
C3039 C3038 1.369 . S
C3039 C3048 1.429 . S
C3040 C3038 1.419 1_545 S
C3040 C3041 1.363 . S
C3040 H3043 0.929 . S
C3041 C3040 1.363 . S
C3041 C3047 1.428 . S
H3042 C3038 0.930 . S
H3043 C3040 0.929 . S
S3044 N3045 1.613 1_545 S
S3044 N3046 1.610 . S
N3045 S3044 1.613 1_565 S
N3045 C3048 1.350 . S
N3046 S3044 1.610 . S
N3046 C3047 1.351 . S
C3047 C3041 1.428 . S
C3047 N3046 1.351 . S
C3047 C3048 1.434 1_545 S
C3048 C3039 1.429 . S
C3048 N3045 1.350 . S
C3048 C3047 1.434 1_565 S
C3049 C3050 1.369 . S
C3049 C3051 1.419 1_655 S
C3049 H3053 0.930 . S
C3050 C3049 1.369 . S
C3050 C3059 1.429 . S
C3051 C3049 1.419 1_455 S
C3051 C3052 1.363 . S
C3051 H3054 0.929 . S
C3052 C3051 1.363 . S
C3052 C3058 1.428 . S
H3053 C3049 0.930 . S
H3054 C3051 0.929 . S
S3055 N3056 1.613 1_455 S
S3055 N3057 1.610 . S
N3056 S3055 1.613 1_655 S
N3056 C3059 1.350 . S
N3057 S3055 1.610 . S
N3057 C3058 1.351 . S
C3058 C3052 1.428 . S
C3058 N3057 1.351 . S
C3058 C3059 1.434 1_455 S
C3059 C3050 1.429 . S
C3059 N3056 1.350 . S
C3059 C3058 1.434 1_655 S
C3060 C3061 1.369 . S
C3060 C3062 1.419 1_565 S
C3060 H3064 0.930 . S
C3061 C3060 1.369 . S
C3061 C3070 1.429 . S
C3062 C3060 1.419 1_545 S
C3062 C3063 1.363 . S
C3062 H3065 0.929 . S
C3063 C3062 1.363 . S
C3063 C3069 1.428 . S
H3064 C3060 0.930 . S
H3065 C3062 0.929 . S
S3066 N3067 1.613 1_545 S
S3066 N3068 1.610 . S
N3067 S3066 1.613 1_565 S
N3067 C3070 1.350 . S
N3068 S3066 1.610 . S
N3068 C3069 1.351 . S
C3069 C3063 1.428 . S
C3069 N3068 1.351 . S
C3069 C3070 1.434 1_545 S
C3070 C3061 1.429 . S
C3070 N3067 1.350 . S
C3070 C3069 1.434 1_565 S
C3071 C3072 1.369 . S
C3071 C3073 1.419 1_655 S
C3071 H3075 0.930 . S
C3072 C3071 1.369 . S
C3072 C3081 1.429 . S
C3073 C3071 1.419 1_455 S
C3073 C3074 1.363 . S
C3073 H3076 0.929 . S
C3074 C3073 1.363 . S
C3074 C3080 1.428 . S
H3075 C3071 0.930 . S
H3076 C3073 0.929 . S
S3077 N3078 1.613 1_455 S
S3077 N3079 1.610 . S
N3078 S3077 1.613 1_655 S
N3078 C3081 1.350 . S
N3079 S3077 1.610 . S
N3079 C3080 1.351 . S
C3080 C3074 1.428 . S
C3080 N3079 1.351 . S
C3080 C3081 1.434 1_455 S
C3081 C3072 1.429 . S
C3081 N3078 1.350 . S
C3081 C3080 1.434 1_655 S
C3082 C3083 1.369 . S
C3082 C3084 1.419 1_565 S
C3082 H3086 0.930 . S
C3083 C3082 1.369 . S
C3083 C3092 1.429 . S
C3084 C3082 1.419 1_545 S
C3084 C3085 1.363 . S
C3084 H3087 0.929 . S
C3085 C3084 1.363 . S
C3085 C3091 1.428 . S
H3086 C3082 0.930 . S
H3087 C3084 0.929 . S
S3088 N3089 1.613 . S
S3088 N3090 1.610 1_565 S
N3089 S3088 1.613 . S
N3089 C3092 1.350 . S
N3090 S3088 1.610 1_545 S
N3090 C3091 1.351 . S
C3091 C3085 1.428 . S
C3091 N3090 1.351 . S
C3091 C3092 1.434 1_545 S
C3092 C3083 1.429 . S
C3092 N3089 1.350 . S
C3092 C3091 1.434 1_565 S
C3093 C3094 1.369 . S
C3093 C3095 1.419 1_455 S
C3093 H3097 0.930 . S
C3094 C3093 1.369 . S
C3094 C3103 1.429 . S
C3095 C3093 1.419 1_655 S
C3095 C3096 1.363 . S
C3095 H3098 0.929 . S
C3096 C3095 1.363 . S
C3096 C3102 1.428 . S
H3097 C3093 0.930 . S
H3098 C3095 0.929 . S
S3099 N3100 1.613 . S
S3099 N3101 1.610 1_455 S
N3100 S3099 1.613 . S
N3100 C3103 1.350 . S
N3101 S3099 1.610 1_655 S
N3101 C3102 1.351 . S
C3102 C3096 1.428 . S
C3102 N3101 1.351 . S
C3102 C3103 1.434 1_655 S
C3103 C3094 1.429 . S
C3103 N3100 1.350 . S
C3103 C3102 1.434 1_455 S
C3104 C3105 1.369 . S
C3104 C3106 1.419 1_554 S
C3104 H3108 0.930 . S
C3105 C3104 1.369 . S
C3105 C3114 1.429 . S
C3106 C3104 1.419 1_556 S
C3106 C3107 1.363 . S
C3106 H3109 0.929 . S
C3107 C3106 1.363 . S
C3107 C3113 1.428 . S
H3108 C3104 0.930 . S
H3109 C3106 0.929 . S
S3110 N3111 1.613 1_556 S
S3110 N3112 1.610 . S
N3111 S3110 1.613 1_554 S
N3111 C3114 1.350 . S
N3112 S3110 1.610 . S
N3112 C3113 1.351 . S
C3113 C3107 1.428 . S
C3113 N3112 1.351 . S
C3113 C3114 1.434 1_556 S
C3114 C3105 1.429 . S
C3114 N3111 1.350 . S
C3114 C3113 1.434 1_554 S
C3115 C3116 1.369 . S
C3115 C3117 1.419 1_554 S
C3115 H3119 0.930 . S
C3116 C3115 1.369 . S
C3116 C3125 1.429 . S
C3117 C3115 1.419 1_556 S
C3117 C3118 1.363 . S
C3117 H3120 0.929 . S
C3118 C3117 1.363 . S
C3118 C3124 1.428 . S
H3119 C3115 0.930 . S
H3120 C3117 0.929 . S
S3121 N3122 1.613 . S
S3121 N3123 1.610 1_554 S
N3122 S3121 1.613 . S
N3122 C3125 1.350 . S
N3123 S3121 1.610 1_556 S
N3123 C3124 1.351 . S
C3124 C3118 1.428 . S
C3124 N3123 1.351 . S
C3124 C3125 1.434 1_556 S
C3125 C3116 1.429 . S
C3125 N3122 1.350 . S
C3125 C3124 1.434 1_554 S
C3126 C3127 1.369 . S
C3126 C3128 1.419 1_554 S
C3126 H3130 0.930 . S
C3127 C3126 1.369 . S
C3127 C3136 1.429 . S
C3128 C3126 1.419 1_556 S
C3128 C3129 1.363 . S
C3128 H3131 0.929 . S
C3129 C3128 1.363 . S
C3129 C3135 1.428 . S
H3130 C3126 0.930 . S
H3131 C3128 0.929 . S
S3132 N3133 1.613 . S
S3132 N3134 1.610 1_554 S
N3133 S3132 1.613 . S
N3133 C3136 1.350 . S
N3134 S3132 1.610 1_556 S
N3134 C3135 1.351 . S
C3135 C3129 1.428 . S
C3135 N3134 1.351 . S
C3135 C3136 1.434 1_556 S
C3136 C3127 1.429 . S
C3136 N3133 1.350 . S
C3136 C3135 1.434 1_554 S
C3137 C3138 1.369 . S
C3137 C3139 1.419 1_554 S
C3137 H3141 0.930 . S
C3138 C3137 1.369 . S
C3138 C3147 1.429 . S
C3139 C3137 1.419 1_556 S
C3139 C3140 1.363 . S
C3139 H3142 0.929 . S
C3140 C3139 1.363 . S
C3140 C3146 1.428 . S
H3141 C3137 0.930 . S
H3142 C3139 0.929 . S
S3143 N3144 1.613 1_556 S
S3143 N3145 1.610 . S
N3144 S3143 1.613 1_554 S
N3144 C3147 1.350 . S
N3145 S3143 1.610 . S
N3145 C3146 1.351 . S
C3146 C3140 1.428 . S
C3146 N3145 1.351 . S
C3146 C3147 1.434 1_556 S
C3147 C3138 1.429 . S
C3147 N3144 1.350 . S
C3147 C3146 1.434 1_554 S
C3148 C3149 1.369 . S
C3148 C3150 1.419 1_556 S
C3148 H3152 0.930 . S
C3149 C3148 1.369 . S
C3149 C3158 1.429 . S
C3150 C3148 1.419 1_554 S
C3150 C3151 1.363 . S
C3150 H3153 0.929 . S
C3151 C3150 1.363 . S
C3151 C3157 1.428 . S
H3152 C3148 0.930 . S
H3153 C3150 0.929 . S
S3154 N3155 1.613 . S
S3154 N3156 1.610 1_556 S
N3155 S3154 1.613 . S
N3155 C3158 1.350 . S
N3156 S3154 1.610 1_554 S
N3156 C3157 1.351 . S
C3157 C3151 1.428 . S
C3157 N3156 1.351 . S
C3157 C3158 1.434 1_554 S
C3158 C3149 1.429 . S
C3158 N3155 1.350 . S
C3158 C3157 1.434 1_556 S
C3159 C3160 1.369 . S
C3159 C3161 1.419 1_554 S
C3159 H3163 0.930 . S
C3160 C3159 1.369 . S
C3160 C3169 1.429 . S
C3161 C3159 1.419 1_556 S
C3161 C3162 1.363 . S
C3161 H3164 0.929 . S
C3162 C3161 1.363 . S
C3162 C3168 1.428 . S
H3163 C3159 0.930 . S
H3164 C3161 0.929 . S
S3165 N3166 1.613 . S
S3165 N3167 1.610 1_554 S
N3166 S3165 1.613 . S
N3166 C3169 1.350 . S
N3167 S3165 1.610 1_556 S
N3167 C3168 1.351 . S
C3168 C3162 1.428 . S
C3168 N3167 1.351 . S
C3168 C3169 1.434 1_556 S
C3169 C3160 1.429 . S
C3169 N3166 1.350 . S
C3169 C3168 1.434 1_554 S
C3170 C3171 1.369 . S
C3170 C3172 1.419 1_556 S
C3170 H3174 0.930 . S
C3171 C3170 1.369 . S
C3171 C3180 1.429 . S
C3172 C3170 1.419 1_554 S
C3172 C3173 1.363 . S
C3172 H3175 0.929 . S
C3173 C3172 1.363 . S
C3173 C3179 1.428 . S
H3174 C3170 0.930 . S
H3175 C3172 0.929 . S
S3176 N3177 1.613 . S
S3176 N3178 1.610 1_556 S
N3177 S3176 1.613 . S
N3177 C3180 1.350 . S
N3178 S3176 1.610 1_554 S
N3178 C3179 1.351 . S
C3179 C3173 1.428 . S
C3179 N3178 1.351 . S
C3179 C3180 1.434 1_554 S
C3180 C3171 1.429 . S
C3180 N3177 1.350 . S
C3180 C3179 1.434 1_556 S
C3181 C3182 1.369 . S
C3181 C3183 1.419 1_554 S
C3181 H3185 0.930 . S
C3182 C3181 1.369 . S
C3182 C3191 1.429 . S
C3183 C3181 1.419 1_556 S
C3183 C3184 1.363 . S
C3183 H3186 0.929 . S
C3184 C3183 1.363 . S
C3184 C3190 1.428 . S
H3185 C3181 0.930 . S
H3186 C3183 0.929 . S
S3187 N3188 1.613 1_556 S
S3187 N3189 1.610 . S
N3188 S3187 1.613 1_554 S
N3188 C3191 1.350 . S
N3189 S3187 1.610 . S
N3189 C3190 1.351 . S
C3190 C3184 1.428 . S
C3190 N3189 1.351 . S
C3190 C3191 1.434 1_556 S
C3191 C3182 1.429 . S
C3191 N3188 1.350 . S
C3191 C3190 1.434 1_554 S
C3192 C3193 1.369 . S
C3192 C3194 1.419 . S
C3192 H3196 0.930 . S
C3193 C3192 1.369 . S
C3193 C3202 1.429 . S
C3194 C3192 1.419 . S
C3194 C3195 1.363 . S
C3194 H3197 0.929 . S
C3195 C3194 1.363 . S
C3195 C3201 1.428 . S
H3196 C3192 0.930 . S
H3197 C3194 0.929 . S
S3198 N3199 1.613 . S
S3198 N3200 1.610 . S
N3199 S3198 1.613 . S
N3199 C3202 1.350 . S
N3200 S3198 1.610 . S
N3200 C3201 1.351 . S
C3201 C3195 1.428 . S
C3201 N3200 1.351 . S
C3201 C3202 1.434 . S
C3202 C3193 1.429 . S
C3202 N3199 1.350 . S
C3202 C3201 1.434 . S
C3203 C3204 1.369 . S
C3203 C3205 1.419 . S
C3203 H3207 0.930 . S
C3204 C3203 1.369 . S
C3204 C3213 1.429 . S
C3205 C3203 1.419 . S
C3205 C3206 1.363 . S
C3205 H3208 0.929 . S
C3206 C3205 1.363 . S
C3206 C3212 1.428 . S
H3207 C3203 0.930 . S
H3208 C3205 0.929 . S
S3209 N3210 1.613 . S
S3209 N3211 1.610 . S
N3210 S3209 1.613 . S
N3210 C3213 1.350 . S
N3211 S3209 1.610 . S
N3211 C3212 1.351 . S
C3212 C3206 1.428 . S
C3212 N3211 1.351 . S
C3212 C3213 1.434 . S
C3213 C3204 1.429 . S
C3213 N3210 1.350 . S
C3213 C3212 1.434 . S
C3214 C3215 1.369 . S
C3214 C3216 1.419 . S
C3214 H3218 0.930 . S
C3215 C3214 1.369 . S
C3215 C3224 1.429 . S
C3216 C3214 1.419 . S
C3216 C3217 1.363 . S
C3216 H3219 0.929 . S
C3217 C3216 1.363 . S
C3217 C3223 1.428 . S
H3218 C3214 0.930 . S
H3219 C3216 0.929 . S
S3220 N3221 1.613 . S
S3220 N3222 1.610 . S
N3221 S3220 1.613 . S
N3221 C3224 1.350 . S
N3222 S3220 1.610 . S
N3222 C3223 1.351 . S
C3223 C3217 1.428 . S
C3223 N3222 1.351 . S
C3223 C3224 1.434 . S
C3224 C3215 1.429 . S
C3224 N3221 1.350 . S
C3224 C3223 1.434 . S
C3225 C3226 1.369 . S
C3225 C3227 1.419 . S
C3225 H3229 0.930 . S
C3226 C3225 1.369 . S
C3226 C3235 1.429 . S
C3227 C3225 1.419 . S
C3227 C3228 1.363 . S
C3227 H3230 0.929 . S
C3228 C3227 1.363 . S
C3228 C3234 1.428 . S
H3229 C3225 0.930 . S
H3230 C3227 0.929 . S
S3231 N3232 1.613 . S
S3231 N3233 1.610 . S
N3232 S3231 1.613 . S
N3232 C3235 1.350 . S
N3233 S3231 1.610 . S
N3233 C3234 1.351 . S
C3234 C3228 1.428 . S
C3234 N3233 1.351 . S
C3234 C3235 1.434 . S
C3235 C3226 1.429 . S
C3235 N3232 1.350 . S
C3235 C3234 1.434 . S
C3236 C3237 1.369 . S
C3236 C3238 1.419 . S
C3236 H3240 0.930 . S
C3237 C3236 1.369 . S
C3237 C3246 1.429 . S
C3238 C3236 1.419 . S
C3238 C3239 1.363 . S
C3238 H3241 0.929 . S
C3239 C3238 1.363 . S
C3239 C3245 1.428 . S
H3240 C3236 0.930 . S
H3241 C3238 0.929 . S
S3242 N3243 1.613 . S
S3242 N3244 1.610 . S
N3243 S3242 1.613 . S
N3243 C3246 1.350 . S
N3244 S3242 1.610 . S
N3244 C3245 1.351 . S
C3245 C3239 1.428 . S
C3245 N3244 1.351 . S
C3245 C3246 1.434 . S
C3246 C3237 1.429 . S
C3246 N3243 1.350 . S
C3246 C3245 1.434 . S
C3247 C3248 1.369 . S
C3247 C3249 1.419 . S
C3247 H3251 0.930 . S
C3248 C3247 1.369 . S
C3248 C3257 1.429 . S
C3249 C3247 1.419 . S
C3249 C3250 1.363 . S
C3249 H3252 0.929 . S
C3250 C3249 1.363 . S
C3250 C3256 1.428 . S
H3251 C3247 0.930 . S
H3252 C3249 0.929 . S
S3253 N3254 1.613 . S
S3253 N3255 1.610 . S
N3254 S3253 1.613 . S
N3254 C3257 1.350 . S
N3255 S3253 1.610 . S
N3255 C3256 1.351 . S
C3256 C3250 1.428 . S
C3256 N3255 1.351 . S
C3256 C3257 1.434 . S
C3257 C3248 1.429 . S
C3257 N3254 1.350 . S
C3257 C3256 1.434 . S
C3258 C3259 1.369 . S
C3258 C3260 1.419 . S
C3258 H3262 0.930 . S
C3259 C3258 1.369 . S
C3259 C3268 1.429 . S
C3260 C3258 1.419 . S
C3260 C3261 1.363 . S
C3260 H3263 0.929 . S
C3261 C3260 1.363 . S
C3261 C3267 1.428 . S
H3262 C3258 0.930 . S
H3263 C3260 0.929 . S
S3264 N3265 1.613 . S
S3264 N3266 1.610 . S
N3265 S3264 1.613 . S
N3265 C3268 1.350 . S
N3266 S3264 1.610 . S
N3266 C3267 1.351 . S
C3267 C3261 1.428 . S
C3267 N3266 1.351 . S
C3267 C3268 1.434 . S
C3268 C3259 1.429 . S
C3268 N3265 1.350 . S
C3268 C3267 1.434 . S
C3269 C3270 1.369 . S
C3269 C3271 1.419 . S
C3269 H3273 0.930 . S
C3270 C3269 1.369 . S
C3270 C3279 1.429 . S
C3271 C3269 1.419 . S
C3271 C3272 1.363 . S
C3271 H3274 0.929 . S
C3272 C3271 1.363 . S
C3272 C3278 1.428 . S
H3273 C3269 0.930 . S
H3274 C3271 0.929 . S
S3275 N3276 1.613 . S
S3275 N3277 1.610 . S
N3276 S3275 1.613 . S
N3276 C3279 1.350 . S
N3277 S3275 1.610 . S
N3277 C3278 1.351 . S
C3278 C3272 1.428 . S
C3278 N3277 1.351 . S
C3278 C3279 1.434 . S
C3279 C3270 1.429 . S
C3279 N3276 1.350 . S
C3279 C3278 1.434 . S
C3280 C3281 1.369 . S
C3280 C3282 1.419 . S
C3280 H3284 0.930 . S
C3281 C3280 1.369 . S
C3281 C3290 1.429 . S
C3282 C3280 1.419 . S
C3282 C3283 1.363 . S
C3282 H3285 0.929 . S
C3283 C3282 1.363 . S
C3283 C3289 1.428 . S
H3284 C3280 0.930 . S
H3285 C3282 0.929 . S
S3286 N3287 1.613 . S
S3286 N3288 1.610 . S
N3287 S3286 1.613 . S
N3287 C3290 1.350 . S
N3288 S3286 1.610 . S
N3288 C3289 1.351 . S
C3289 C3283 1.428 . S
C3289 N3288 1.351 . S
C3289 C3290 1.434 . S
C3290 C3281 1.429 . S
C3290 N3287 1.350 . S
C3290 C3289 1.434 . S
C3291 C3292 1.369 . S
C3291 C3293 1.419 . S
C3291 H3295 0.930 . S
C3292 C3291 1.369 . S
C3292 C3301 1.429 . S
C3293 C3291 1.419 . S
C3293 C3294 1.363 . S
C3293 H3296 0.929 . S
C3294 C3293 1.363 . S
C3294 C3300 1.428 . S
H3295 C3291 0.930 . S
H3296 C3293 0.929 . S
S3297 N3298 1.613 . S
S3297 N3299 1.610 . S
N3298 S3297 1.613 . S
N3298 C3301 1.350 . S
N3299 S3297 1.610 . S
N3299 C3300 1.351 . S
C3300 C3294 1.428 . S
C3300 N3299 1.351 . S
C3300 C3301 1.434 . S
C3301 C3292 1.429 . S
C3301 N3298 1.350 . S
C3301 C3300 1.434 . S
C3302 C3303 1.369 . S
C3302 C3304 1.419 . S
C3302 H3306 0.930 . S
C3303 C3302 1.369 . S
C3303 C3312 1.429 . S
C3304 C3302 1.419 . S
C3304 C3305 1.363 . S
C3304 H3307 0.929 . S
C3305 C3304 1.363 . S
C3305 C3311 1.428 . S
H3306 C3302 0.930 . S
H3307 C3304 0.929 . S
S3308 N3309 1.613 . S
S3308 N3310 1.610 . S
N3309 S3308 1.613 . S
N3309 C3312 1.350 . S
N3310 S3308 1.610 . S
N3310 C3311 1.351 . S
C3311 C3305 1.428 . S
C3311 N3310 1.351 . S
C3311 C3312 1.434 . S
C3312 C3303 1.429 . S
C3312 N3309 1.350 . S
C3312 C3311 1.434 . S
C3313 C3314 1.369 . S
C3313 C3315 1.419 . S
C3313 H3317 0.930 . S
C3314 C3313 1.369 . S
C3314 C3323 1.429 . S
C3315 C3313 1.419 . S
C3315 C3316 1.363 . S
C3315 H3318 0.929 . S
C3316 C3315 1.363 . S
C3316 C3322 1.428 . S
H3317 C3313 0.930 . S
H3318 C3315 0.929 . S
S3319 N3320 1.613 . S
S3319 N3321 1.610 . S
N3320 S3319 1.613 . S
N3320 C3323 1.350 . S
N3321 S3319 1.610 . S
N3321 C3322 1.351 . S
C3322 C3316 1.428 . S
C3322 N3321 1.351 . S
C3322 C3323 1.434 . S
C3323 C3314 1.429 . S
C3323 N3320 1.350 . S
C3323 C3322 1.434 . S
C3324 C3325 1.369 . S
C3324 C3326 1.419 . S
C3324 H3328 0.930 . S
C3325 C3324 1.369 . S
C3325 C3334 1.429 . S
C3326 C3324 1.419 . S
C3326 C3327 1.363 . S
C3326 H3329 0.929 . S
C3327 C3326 1.363 . S
C3327 C3333 1.428 . S
H3328 C3324 0.930 . S
H3329 C3326 0.929 . S
S3330 N3331 1.613 . S
S3330 N3332 1.610 . S
N3331 S3330 1.613 . S
N3331 C3334 1.350 . S
N3332 S3330 1.610 . S
N3332 C3333 1.351 . S
C3333 C3327 1.428 . S
C3333 N3332 1.351 . S
C3333 C3334 1.434 . S
C3334 C3325 1.429 . S
C3334 N3331 1.350 . S
C3334 C3333 1.434 . S
C3335 C3336 1.369 . S
C3335 C3337 1.419 . S
C3335 H3339 0.930 . S
C3336 C3335 1.369 . S
C3336 C3345 1.429 . S
C3337 C3335 1.419 . S
C3337 C3338 1.363 . S
C3337 H3340 0.929 . S
C3338 C3337 1.363 . S
C3338 C3344 1.428 . S
H3339 C3335 0.930 . S
H3340 C3337 0.929 . S
S3341 N3342 1.613 . S
S3341 N3343 1.610 . S
N3342 S3341 1.613 . S
N3342 C3345 1.350 . S
N3343 S3341 1.610 . S
N3343 C3344 1.351 . S
C3344 C3338 1.428 . S
C3344 N3343 1.351 . S
C3344 C3345 1.434 . S
C3345 C3336 1.429 . S
C3345 N3342 1.350 . S
C3345 C3344 1.434 . S
C3346 C3347 1.369 . S
C3346 C3348 1.419 . S
C3346 H3350 0.930 . S
C3347 C3346 1.369 . S
C3347 C3356 1.429 . S
C3348 C3346 1.419 . S
C3348 C3349 1.363 . S
C3348 H3351 0.929 . S
C3349 C3348 1.363 . S
C3349 C3355 1.428 . S
H3350 C3346 0.930 . S
H3351 C3348 0.929 . S
S3352 N3353 1.613 . S
S3352 N3354 1.610 . S
N3353 S3352 1.613 . S
N3353 C3356 1.350 . S
N3354 S3352 1.610 . S
N3354 C3355 1.351 . S
C3355 C3349 1.428 . S
C3355 N3354 1.351 . S
C3355 C3356 1.434 . S
C3356 C3347 1.429 . S
C3356 N3353 1.350 . S
C3356 C3355 1.434 . S
C3357 C3358 1.369 . S
C3357 C3359 1.419 . S
C3357 H3361 0.930 . S
C3358 C3357 1.369 . S
C3358 C3367 1.429 . S
C3359 C3357 1.419 . S
C3359 C3360 1.363 . S
C3359 H3362 0.929 . S
C3360 C3359 1.363 . S
C3360 C3366 1.428 . S
H3361 C3357 0.930 . S
H3362 C3359 0.929 . S
S3363 N3364 1.613 . S
S3363 N3365 1.610 . S
N3364 S3363 1.613 . S
N3364 C3367 1.350 . S
N3365 S3363 1.610 . S
N3365 C3366 1.351 . S
C3366 C3360 1.428 . S
C3366 N3365 1.351 . S
C3366 C3367 1.434 . S
C3367 C3358 1.429 . S
C3367 N3364 1.350 . S
C3367 C3366 1.434 . S
C3368 C3369 1.369 . S
C3368 C3370 1.419 . S
C3368 H3372 0.930 . S
C3369 C3368 1.369 . S
C3369 C3378 1.429 . S
C3370 C3368 1.419 . S
C3370 C3371 1.363 . S
C3370 H3373 0.929 . S
C3371 C3370 1.363 . S
C3371 C3377 1.428 . S
H3372 C3368 0.930 . S
H3373 C3370 0.929 . S
S3374 N3375 1.613 . S
S3374 N3376 1.610 . S
N3375 S3374 1.613 . S
N3375 C3378 1.350 . S
N3376 S3374 1.610 . S
N3376 C3377 1.351 . S
C3377 C3371 1.428 . S
C3377 N3376 1.351 . S
C3377 C3378 1.434 . S
C3378 C3369 1.429 . S
C3378 N3375 1.350 . S
C3378 C3377 1.434 . S
C3379 C3380 1.369 . S
C3379 C3381 1.419 . S
C3379 H3383 0.930 . S
C3380 C3379 1.369 . S
C3380 C3389 1.429 . S
C3381 C3379 1.419 . S
C3381 C3382 1.363 . S
C3381 H3384 0.929 . S
C3382 C3381 1.363 . S
C3382 C3388 1.428 . S
H3383 C3379 0.930 . S
H3384 C3381 0.929 . S
S3385 N3386 1.613 . S
S3385 N3387 1.610 . S
N3386 S3385 1.613 . S
N3386 C3389 1.350 . S
N3387 S3385 1.610 . S
N3387 C3388 1.351 . S
C3388 C3382 1.428 . S
C3388 N3387 1.351 . S
C3388 C3389 1.434 . S
C3389 C3380 1.429 . S
C3389 N3386 1.350 . S
C3389 C3388 1.434 . S
C3390 C3391 1.369 . S
C3390 C3392 1.419 . S
C3390 H3394 0.930 . S
C3391 C3390 1.369 . S
C3391 C3400 1.429 . S
C3392 C3390 1.419 . S
C3392 C3393 1.363 . S
C3392 H3395 0.929 . S
C3393 C3392 1.363 . S
C3393 C3399 1.428 . S
H3394 C3390 0.930 . S
H3395 C3392 0.929 . S
S3396 N3397 1.613 . S
S3396 N3398 1.610 . S
N3397 S3396 1.613 . S
N3397 C3400 1.350 . S
N3398 S3396 1.610 . S
N3398 C3399 1.351 . S
C3399 C3393 1.428 . S
C3399 N3398 1.351 . S
C3399 C3400 1.434 . S
C3400 C3391 1.429 . S
C3400 N3397 1.350 . S
C3400 C3399 1.434 . S
C3401 C3402 1.369 . S
C3401 C3403 1.419 . S
C3401 H3405 0.930 . S
C3402 C3401 1.369 . S
C3402 C3411 1.429 . S
C3403 C3401 1.419 . S
C3403 C3404 1.363 . S
C3403 H3406 0.929 . S
C3404 C3403 1.363 . S
C3404 C3410 1.428 . S
H3405 C3401 0.930 . S
H3406 C3403 0.929 . S
S3407 N3408 1.613 . S
S3407 N3409 1.610 . S
N3408 S3407 1.613 . S
N3408 C3411 1.350 . S
N3409 S3407 1.610 . S
N3409 C3410 1.351 . S
C3410 C3404 1.428 . S
C3410 N3409 1.351 . S
C3410 C3411 1.434 . S
C3411 C3402 1.429 . S
C3411 N3408 1.350 . S
C3411 C3410 1.434 . S
C3412 C3413 1.369 . S
C3412 C3414 1.419 . S
C3412 H3416 0.930 . S
C3413 C3412 1.369 . S
C3413 C3422 1.429 . S
C3414 C3412 1.419 . S
C3414 C3415 1.363 . S
C3414 H3417 0.929 . S
C3415 C3414 1.363 . S
C3415 C3421 1.428 . S
H3416 C3412 0.930 . S
H3417 C3414 0.929 . S
S3418 N3419 1.613 . S
S3418 N3420 1.610 . S
N3419 S3418 1.613 . S
N3419 C3422 1.350 . S
N3420 S3418 1.610 . S
N3420 C3421 1.351 . S
C3421 C3415 1.428 . S
C3421 N3420 1.351 . S
C3421 C3422 1.434 . S
C3422 C3413 1.429 . S
C3422 N3419 1.350 . S
C3422 C3421 1.434 . S
C3423 C3424 1.369 . S
C3423 C3425 1.419 . S
C3423 H3427 0.930 . S
C3424 C3423 1.369 . S
C3424 C3433 1.429 . S
C3425 C3423 1.419 . S
C3425 C3426 1.363 . S
C3425 H3428 0.929 . S
C3426 C3425 1.363 . S
C3426 C3432 1.428 . S
H3427 C3423 0.930 . S
H3428 C3425 0.929 . S
S3429 N3430 1.613 . S
S3429 N3431 1.610 . S
N3430 S3429 1.613 . S
N3430 C3433 1.350 . S
N3431 S3429 1.610 . S
N3431 C3432 1.351 . S
C3432 C3426 1.428 . S
C3432 N3431 1.351 . S
C3432 C3433 1.434 . S
C3433 C3424 1.429 . S
C3433 N3430 1.350 . S
C3433 C3432 1.434 . S
C3434 C3435 1.369 . S
C3434 C3436 1.419 . S
C3434 H3438 0.930 . S
C3435 C3434 1.369 . S
C3435 C3444 1.429 . S
C3436 C3434 1.419 . S
C3436 C3437 1.363 . S
C3436 H3439 0.929 . S
C3437 C3436 1.363 . S
C3437 C3443 1.428 . S
H3438 C3434 0.930 . S
H3439 C3436 0.929 . S
S3440 N3441 1.613 . S
S3440 N3442 1.610 . S
N3441 S3440 1.613 . S
N3441 C3444 1.350 . S
N3442 S3440 1.610 . S
N3442 C3443 1.351 . S
C3443 C3437 1.428 . S
C3443 N3442 1.351 . S
C3443 C3444 1.434 . S
C3444 C3435 1.429 . S
C3444 N3441 1.350 . S
C3444 C3443 1.434 . S
C3445 C3446 1.369 . S
C3445 C3447 1.419 . S
C3445 H3449 0.930 . S
C3446 C3445 1.369 . S
C3446 C3455 1.429 . S
C3447 C3445 1.419 . S
C3447 C3448 1.363 . S
C3447 H3450 0.929 . S
C3448 C3447 1.363 . S
C3448 C3454 1.428 . S
H3449 C3445 0.930 . S
H3450 C3447 0.929 . S
S3451 N3452 1.613 . S
S3451 N3453 1.610 . S
N3452 S3451 1.613 . S
N3452 C3455 1.350 . S
N3453 S3451 1.610 . S
N3453 C3454 1.351 . S
C3454 C3448 1.428 . S
C3454 N3453 1.351 . S
C3454 C3455 1.434 . S
C3455 C3446 1.429 . S
C3455 N3452 1.350 . S
C3455 C3454 1.434 . S
C1345 C558 1.369 . S
C1347 C12 1.368 . S
C1356 C516 1.580 . S
C1358 C26 1.580 . S
C1367 C530 1.369 . S
C1369 C40 1.368 . S
C1378 C544 1.580 . S
C1380 C54 1.580 . S
C1389 C474 1.368 . S
C1391 C68 1.369 . S
C1400 C488 1.579 . S
C1402 C82 1.579 . S
C1411 C96 1.369 . S
C1413 C502 1.369 . S
C1422 C460 1.581 . S
C1424 C110 1.581 . S
C1433 C123 1.374 . S
C1435 C445 1.374 . S
C1444 C138 1.369 . S
C1446 C404 1.368 . S
C1455 C151 1.378 . S
C1457 C417 1.378 . S
C1466 C166 1.369 . S
C1468 C432 1.368 . S
C1477 C361 1.374 . S
C1479 C179 1.376 . S
C1488 C376 1.369 . S
C1490 C194 1.369 . S
C1499 C389 1.376 . S
C1501 C207 1.378 . S
C1510 C348 1.369 . S
C1512 C222 1.368 . S
C1521 C236 1.581 . S
C1523 C628 1.580 . S
C1532 C250 1.580 . S
C1534 C670 1.580 . S
C1543 C641 1.379 . S
C1545 C263 1.377 . S
C1554 C656 1.580 . S
C1556 C278 1.581 . S
C1565 C571 1.375 . S
C1567 C291 1.377 . S
C1576 C600 1.578 . S
C1578 C306 1.579 . S
C1587 C319 1.376 . S
C1589 C613 1.374 . S
C1598 C585 1.373 . S
C1600 C333 1.375 . S
C1609 C992 1.579 . S
C1611 C684 1.580 . S
C1620 C698 1.579 . S
C1622 C1006 1.579 . S
C1631 C712 1.581 . S
C1633 C978 1.581 . S
C1642 C726 1.579 . S
C1644 C964 1.579 . S
C1653 C739 1.374 . S
C1655 C949 1.374 . S
C1664 C753 1.375 . S
C1666 C935 1.374 . S
C1675 C907 1.373 . S
C1677 C767 1.374 . S
C1686 C921 1.379 . S
C1688 C781 1.378 . S
C1697 C796 1.579 . S
C1699 C1076 1.580 . S
C1708 C810 1.579 . S
C1710 C1118 1.580 . S
C1719 C1089 1.374 . S
C1721 C823 1.374 . S
C1730 C838 1.579 . S
C1732 C1104 1.580 . S
C1741 C851 1.376 . S
C1743 C1019 1.374 . S
C1752 C866 1.580 . S
C1754 C1048 1.580 . S
C1763 C1061 1.374 . S
C1765 C879 1.374 . S
C1774 C1033 1.379 . S
C1776 C893 1.378 . S
C1785 C1132 1.368 . S
C1787 C1342 1.368 . S
C1796 C1328 1.369 . S
C1798 C1146 1.368 . S
C1807 C1300 1.369 . S
C1809 C1160 1.369 . S
C1818 C1314 1.369 . S
C1820 C1174 1.369 . S
C1829 C1272 1.369 . S
C1831 C1188 1.369 . S
C1840 C1202 1.369 . S
C1842 C1286 1.368 . S
C1851 C1258 1.369 . S
C1853 C1216 1.368 . S
C1862 C1244 1.368 . S
C1864 C1230 1.369 . S
C1873 C5 0.880 . S
C1875 C439 0.826 . S
C1884 C19 0.973 . S
C1886 C396 1.023 . S
C1895 C33 0.889 . S
C1897 C411 0.845 . S
C1906 C47 0.958 . S
C1908 C424 1.020 . S
C1917 C61 0.885 . S
C1919 C355 0.841 . S
C1928 C75 0.957 . S
C1930 C368 1.023 . S
C1939 C383 0.822 . S
C1941 C89 0.880 . S
C1950 C103 0.967 . S
C1952 C340 1.024 . S
C1961 C116 1.086 . S
C1963 C620 1.091 . S
C1972 C579 0.823 . S
C1974 C131 0.881 . S
C1983 C144 1.089 . S
C1985 C592 1.089 . S
C1994 C159 0.888 . S
C1996 C607 0.844 . S
C2005 C662 1.092 . S
C2007 C172 1.085 . S
C2016 C635 0.838 . S
C2018 C187 0.888 . S
C2027 C648 1.093 . S
C2029 C200 1.085 . S
C2038 C215 0.877 . S
C2040 C565 0.828 . S
C2049 C229 0.960 . S
C2051 C550 1.023 . S
C2060 C243 0.966 . S
C2062 C466 1.019 . S
C2071 C256 1.085 . S
C2073 C480 1.093 . S
C2082 C271 0.972 . S
C2084 C494 1.023 . S
C2093 C284 1.091 . S
C2095 C452 1.090 . S
C2104 C299 0.965 . S
C2106 C522 1.019 . S
C2115 C536 1.092 . S
C2117 C312 1.086 . S
C2126 C326 1.087 . S
C2128 C508 1.093 . S
C2137 C467 0.890 . S
C2139 C943 0.840 . S
C2148 C214 1.020 . S
C2150 C677 0.970 . S
C2159 C495 0.879 . S
C2161 C929 0.826 . S
C2170 C691 0.955 . S
C2172 C186 1.021 . S
C2181 C551 0.890 . S
C2183 C901 0.839 . S
C2192 C705 0.955 . S
C2194 C158 1.021 . S
C2203 C915 0.828 . S
C2205 C523 0.884 . S
C2214 C719 0.968 . S
C2216 C130 1.024 . S
C2225 C1068 1.091 . S
C2227 C732 1.089 . S
C2236 C341 0.878 . S
C2238 C1027 0.825 . S
C2247 C1040 1.090 . S
C2249 C746 1.090 . S
C2258 C1055 0.842 . S
C2260 C369 0.884 . S
C2269 C1110 1.089 . S
C2271 C760 1.088 . S
C2280 C425 0.883 . S
C2282 C1083 0.838 . S
C2291 C774 1.085 . S
C2293 C1096 1.093 . S
C2302 C397 0.884 . S
C2304 C1013 0.831 . S
C2313 C789 0.973 . S
C2315 C60 1.021 . S
C2324 C803 0.965 . S
C2326 C4 1.019 . S
C2335 C970 1.089 . S
C2337 C816 1.089 . S
C2346 C831 0.956 . S
C2348 C32 1.020 . S
C2357 C844 1.091 . S
C2359 C956 1.090 . S
C2368 C88 1.023 . S
C2370 C859 0.959 . S
C2379 C872 1.085 . S
C2381 C998 1.092 . S
C2390 C984 1.089 . S
C2392 C886 1.090 . S
C2401 C201 0.849 . S
C2403 C1125 0.890 . S
C2412 C1264 1.020 . S
C2414 C481 0.958 . S
C2423 C1139 0.890 . S
C2425 C173 0.840 . S
C2434 C453 0.964 . S
C2436 C1278 1.024 . S
C2445 C145 0.831 . S
C2447 C1153 0.880 . S
C2456 C1250 1.024 . S
C2458 C509 0.962 . S
C2467 C117 0.838 . S
C2469 C1167 0.888 . S
C2478 C1236 1.023 . S
C2480 C537 0.959 . S
C2489 C858 1.094 . S
C2491 C382 1.086 . S
C2500 C1181 0.883 . S
C2502 C873 0.829 . S
C2511 C788 1.088 . S
C2513 C354 1.089 . S
C2522 C1195 0.890 . S
C2524 C887 0.846 . S
C2533 C830 1.088 . S
C2535 C410 1.090 . S
C2544 C1209 0.885 . S
C2546 C845 0.832 . S
C2555 C438 1.091 . S
C2557 C802 1.089 . S
C2566 C817 0.848 . S
C2568 C1223 0.889 . S
C2577 C1334 1.019 . S
C2579 C1041 0.968 . S
C2588 C1292 1.022 . S
C2590 C1097 0.972 . S
C2599 C1012 1.085 . S
C2601 C18 1.092 . S
C2610 C1306 1.020 . S
C2612 C1111 0.957 . S
C2621 C46 1.088 . S
C2623 C1082 1.089 . S
C2632 C1069 0.971 . S
C2634 C1320 1.020 . S
C2643 C1026 1.086 . S
C2645 C102 1.093 . S
C2654 C1054 1.085 . S
C2656 C74 1.092 . S
C2665 C1293 0.877 . S
C2667 C775 0.826 . S
C2676 C1222 1.021 . S
C2678 C971 0.957 . S
C2687 C1307 0.888 . S
C2689 C761 0.835 . S
C2698 C957 0.969 . S
C2700 C1208 1.020 . S
C2709 C1335 0.878 . S
C2711 C747 0.829 . S
C2720 C985 0.969 . S
C2722 C1194 1.024 . S
C2731 C1321 0.886 . S
C2733 C733 0.833 . S
C2742 C999 0.973 . S
C2744 C1180 1.023 . S
C2753 C914 1.089 . S
C2755 C298 1.089 . S
C2764 C313 0.823 . S
C2766 C1237 0.881 . S
C2775 C900 1.087 . S
C2777 C228 1.093 . S
C2786 C1251 0.884 . S
C2788 C327 0.830 . S
C2797 C928 1.085 . S
C2799 C270 1.092 . S
C2808 C285 0.849 . S
C2810 C1279 0.889 . S
C2819 C242 1.089 . S
C2821 C942 1.090 . S
C2830 C257 0.828 . S
C2832 C1265 0.884 . S
C2841 C1152 1.019 . S
C2843 C593 0.960 . S
C2852 C649 0.960 . S
C2854 C1124 1.023 . S
C2863 C676 1.089 . S
C2865 C564 1.090 . S
C2874 C663 0.974 . S
C2876 C1138 1.022 . S
C2885 C690 1.089 . S
C2887 C634 1.090 . S
C2896 C1166 1.021 . S
C2898 C621 0.957 . S
C2907 C718 1.091 . S
C2909 C578 1.089 . S
C2918 C704 1.089 . S
C2920 C606 1.090 . S
C2929 C403 1.086 . S
C2931 C11 1.084 . S
C2940 C25 1.259 . S
C2942 C418 1.276 . S
C2951 C431 1.076 . S
C2953 C39 1.076 . S
C2962 C53 1.254 . S
C2964 C446 1.277 . S
C2973 C347 1.084 . S
C2975 C67 1.085 . S
C2984 C362 1.272 . S
C2986 C81 1.251 . S
C2995 C95 1.076 . S
C2997 C375 1.076 . S
C3006 C109 1.259 . S
C3008 C390 1.273 . S
C3017 C543 1.253 . S
C3019 C124 1.277 . S
C3028 C137 1.086 . S
C3030 C557 1.080 . S
C3039 C152 1.277 . S
C3041 C515 1.252 . S
C3050 C529 1.079 . S
C3052 C165 1.076 . S
C3061 C180 1.274 . S
C3063 C487 1.251 . S
C3072 C501 1.085 . S
C3074 C193 1.078 . S
C3083 C459 1.257 . S
C3085 C208 1.277 . S
C3094 C473 1.084 . S
C3096 C221 1.085 . S
C3105 C235 1.257 . S
C3107 C642 1.272 . S
C3116 C614 1.271 . S
C3118 C249 1.257 . S
C3127 C627 1.249 . S
C3129 C264 1.274 . S
C3138 C586 1.277 . S
C3140 C277 1.258 . S
C3149 C292 1.271 . S
C3151 C599 1.258 . S
C3160 C305 1.255 . S
C3162 C572 1.277 . S
C3171 C669 1.250 . S
C3173 C320 1.273 . S
C3182 C334 1.271 . S
C3184 C655 1.252 . S
C3193 C683 1.250 . S
C3195 C936 1.276 . S
C3204 C950 1.277 . S
C3206 C697 1.252 . S
C3215 C908 1.270 . S
C3217 C711 1.256 . S
C3226 C922 1.271 . S
C3228 C725 1.252 . S
C3237 C740 1.271 . S
C3239 C1005 1.257 . S
C3248 C991 1.256 . S
C3250 C754 1.271 . S
C3259 C768 1.271 . S
C3261 C977 1.252 . S
C3270 C782 1.278 . S
C3272 C963 1.252 . S
C3281 C1090 1.278 . S
C3283 C795 1.252 . S
C3292 C809 1.254 . S
C3294 C1062 1.277 . S
C3303 C1075 1.252 . S
C3305 C824 1.272 . S
C3314 C1034 1.276 . S
C3316 C837 1.251 . S
C3325 C1047 1.251 . S
C3327 C852 1.277 . S
C3336 C1020 1.278 . S
C3338 C865 1.253 . S
C3347 C1117 1.258 . S
C3349 C880 1.272 . S
C3358 C1103 1.252 . S
C3360 C894 1.277 . S
C3369 C1131 1.075 . S
C3371 C1271 1.077 . S
C3380 C1285 1.084 . S
C3382 C1145 1.085 . S
C3391 C1159 1.075 . S
C3393 C1243 1.080 . S
C3402 C1257 1.086 . S
C3404 C1173 1.083 . S
C3413 C1187 1.075 . S
C3415 C1341 1.077 . S
C3424 C1201 1.083 . S
C3426 C1327 1.077 . S
C3435 C1313 1.085 . S
C3437 C1215 1.078 . S
C3446 C1229 1.079 . S
C3448 C1299 1.076 . S
