# Generated by pormake.
# Topology smm, (6)-cn, num edge types: 1
# Building blocks:
#     Node 0, Type 0, BuildingBlock: BETDIP_clean_sbu_0, # of connection points: 6
#     Node 1, Type 0, BuildingBlock: BETDIP_clean_sbu_0, # of connection points: 6
#     Node 2, Type 0, BuildingBlock: BETDIP_clean_sbu_0, # of connection points: 6
#     Node 3, Type 0, BuildingBlock: BETDIP_clean_sbu_0, # of connection points: 6
#     Node 4, Type 0, BuildingBlock: BETDIP_clean_sbu_0, # of connection points: 6
#     Node 5, Type 0, BuildingBlock: BETDIP_clean_sbu_0, # of connection points: 6
#     Node 6, Type 0, BuildingBlock: BETDIP_clean_sbu_0, # of connection points: 6
#     Node 7, Type 0, BuildingBlock: BETDIP_clean_sbu_0, # of connection points: 6
#     Node 8, Type 0, BuildingBlock: BETDIP_clean_sbu_0, # of connection points: 6
#     Edge 9, Type (0, 0), BuildingBlock: ZUJKAS_clean_linker_0, # of connection points: 2
#     Edge 10, Type (0, 0), BuildingBlock: ZUJKAS_clean_linker_0, # of connection points: 2
#     Edge 11, Type (0, 0), BuildingBlock: ZUJKAS_clean_linker_0, # of connection points: 2
#     Edge 12, Type (0, 0), BuildingBlock: ZUJKAS_clean_linker_0, # of connection points: 2
#     Edge 13, Type (0, 0), BuildingBlock: ZUJKAS_clean_linker_0, # of connection points: 2
#     Edge 14, Type (0, 0), BuildingBlock: ZUJKAS_clean_linker_0, # of connection points: 2
#     Edge 15, Type (0, 0), BuildingBlock: ZUJKAS_clean_linker_0, # of connection points: 2
#     Edge 16, Type (0, 0), BuildingBlock: ZUJKAS_clean_linker_0, # of connection points: 2
#     Edge 17, Type (0, 0), BuildingBlock: ZUJKAS_clean_linker_0, # of connection points: 2
#     Edge 18, Type (0, 0), BuildingBlock: ZUJKAS_clean_linker_0, # of connection points: 2
#     Edge 19, Type (0, 0), BuildingBlock: ZUJKAS_clean_linker_0, # of connection points: 2
#     Edge 20, Type (0, 0), BuildingBlock: ZUJKAS_clean_linker_0, # of connection points: 2
#     Edge 21, Type (0, 0), BuildingBlock: ZUJKAS_clean_linker_0, # of connection points: 2
#     Edge 22, Type (0, 0), BuildingBlock: ZUJKAS_clean_linker_0, # of connection points: 2
#     Edge 23, Type (0, 0), BuildingBlock: ZUJKAS_clean_linker_0, # of connection points: 2
#     Edge 24, Type (0, 0), BuildingBlock: ZUJKAS_clean_linker_0, # of connection points: 2
#     Edge 25, Type (0, 0), BuildingBlock: ZUJKAS_clean_linker_0, # of connection points: 2
#     Edge 26, Type (0, 0), BuildingBlock: ZUJKAS_clean_linker_0, # of connection points: 2
#     Edge 27, Type (0, 0), BuildingBlock: ZUJKAS_clean_linker_0, # of connection points: 2
#     Edge 28, Type (0, 0), BuildingBlock: ZUJKAS_clean_linker_0, # of connection points: 2
#     Edge 29, Type (0, 0), BuildingBlock: ZUJKAS_clean_linker_0, # of connection points: 2
#     Edge 30, Type (0, 0), BuildingBlock: ZUJKAS_clean_linker_0, # of connection points: 2
#     Edge 31, Type (0, 0), BuildingBlock: ZUJKAS_clean_linker_0, # of connection points: 2
#     Edge 32, Type (0, 0), BuildingBlock: ZUJKAS_clean_linker_0, # of connection points: 2
#     Edge 33, Type (0, 0), BuildingBlock: ZUJKAS_clean_linker_0, # of connection points: 2
#     Edge 34, Type (0, 0), BuildingBlock: ZUJKAS_clean_linker_0, # of connection points: 2
#     Edge 35, Type (0, 0), BuildingBlock: ZUJKAS_clean_linker_0, # of connection points: 2
# Relax obj value: 0.043
# Max RMSD: 0.118
# Mean RMSD: 0.118
data_MOF--net-smm--node1-BETDIP_clean_sbu_0--edge1-ZUJKAS_clean_linker_0
_symmetry_space_group_name_H-M    P1
_symmetry_Int_Tables_number       1
_symmetry_cell_setting            triclinic
loop_
_symmetry_equiv_pos_as_xyz
'x, y, z'
_cell_length_a     85.348533
_cell_length_b     85.261144
_cell_length_c     18.574295
_cell_angle_alpha  90.094766
_cell_angle_beta   89.994864
_cell_angle_gamma 119.98152
loop_
_atom_site_label
_atom_site_type_symbol
_atom_site_fract_x
_atom_site_fract_y
_atom_site_fract_z
_atom_type_partial_charge
Tb0 Tb 1.02914 0.20421 -0.00552 0.0
Tb1 Tb 0.06304 0.20287 0.95497 0.0
C2 C 1.00668 0.21043 0.05817 0.0
C3 C 1.00194 0.22479 0.07106 0.0
C4 C 1.00958 0.23702 0.12883 0.0
C5 C 1.0033 0.24892 0.14653 0.0
C6 C 0.98916 0.24884 0.10721 0.0
C7 C 0.98185 0.23692 0.04833 0.0
C8 C 0.98811 0.22502 0.03071 0.0
C9 C 1.03284 0.19954 0.85701 0.0
C10 C 0.06584 0.24092 0.95511 0.0
C11 C 0.08599 0.19604 0.90004 0.0
C12 C 0.09243 0.183 0.91121 0.0
C13 C 0.09641 0.17556 0.85132 0.0
C14 C 0.10365 0.16413 0.8604 0.0
C15 C 0.1072 0.15999 0.9297 0.0
C16 C 0.10285 0.16719 -0.01028 0.0
C17 C 0.09547 0.1785 0.98061 0.0
C18 C 0.0585 0.20631 0.0933 0.0
C19 C 1.02547 0.1659 0.98197 0.0
O20 O 1.0214 0.2123 0.08844 0.0
O21 O 1.00427 0.20365 -0.00688 0.0
O22 O 0.04526 0.20937 0.90009 0.0
O23 O 1.01733 0.19334 0.88875 0.0
O24 O 0.04999 0.23324 -0.01109 0.0
O25 O 0.0723 0.23099 0.92702 0.0
O26 O 0.06955 0.18954 0.87482 0.0
O27 O 0.08971 0.20803 0.951 0.0
O28 O 0.0465 0.19695 0.04825 0.0
O29 O 0.07414 0.21284 0.06276 0.0
O30 O 0.04205 0.17404 0.95457 0.0
O31 O 1.01837 0.17526 0.01017 0.0
H32 H 1.0201 0.2371 0.16171 0.0
H33 H 1.00941 0.25805 0.19166 0.0
H34 H 0.97078 0.23624 0.01742 0.0
H35 H 0.98167 0.21557 -0.01325 0.0
H36 H 0.09421 0.17886 0.79731 0.0
H37 H 0.10697 0.15896 0.813 0.0
H38 H 0.10516 0.16407 0.04383 0.0
H39 H 0.0924 0.18393 0.02786 0.0
Tb40 Tb 0.87507 0.84936 -0.00333 0.0
Tb41 Tb 0.87634 0.88448 0.95532 0.0
C42 C 0.86895 0.82101 0.06261 0.0
C43 C 0.85469 0.80191 0.07532 0.0
C44 C 0.8472 0.79657 0.14446 0.0
C45 C 0.83544 0.77829 0.16038 0.0
C46 C 0.83096 0.76483 0.10766 0.0
C47 C 0.83808 0.77023 0.03787 0.0
C48 C 0.8498 0.78853 0.02188 0.0
C49 C 0.87905 0.85696 0.85848 0.0
C50 C 0.83828 0.84924 0.95778 0.0
C51 C 0.8823 0.9138 0.89839 0.0
C52 C 0.89491 0.93339 0.90702 0.0
C53 C 0.88993 0.94562 0.88009 0.0
C54 C 0.90122 0.96427 0.88967 0.0
C55 C 0.91779 0.97112 0.92644 0.0
C56 C 0.92285 0.95879 0.95278 0.0
C57 C 0.91147 0.94007 0.94344 0.0
C58 C 0.87345 0.87713 0.09421 0.0
C59 C 0.91332 0.88393 0.98127 0.0
O60 O 0.86654 0.83372 0.09108 0.0
O61 O 0.87622 0.82537 -0.00161 0.0
O62 O 0.86953 0.85989 0.90192 0.0
O63 O 0.88525 0.84765 0.89036 0.0
O64 O 0.84603 0.84117 -0.00811 0.0
O65 O 0.84816 0.8655 0.9287 0.0
O66 O 0.88901 0.90394 0.87405 0.0
O67 O 0.87096 0.90593 0.95141 0.0
O68 O 0.88261 0.87426 0.049 0.0
O69 O 0.8668 0.8861 0.0634 0.0
O70 O 0.90512 0.89222 0.95282 0.0
O71 O 0.90403 0.86771 0.01137 0.0
H72 H 0.85091 0.80651 0.18705 0.0
H73 H 0.83042 0.77466 0.21489 0.0
H74 H 0.83474 0.76027 -0.00432 0.0
H75 H 0.85537 0.79211 0.9681 0.0
H76 H 0.87721 0.94073 0.85189 0.0
H77 H 0.897 0.97334 0.86774 0.0
H78 H 0.93543 0.96359 0.98187 0.0
H79 H 0.91549 0.93084 0.96523 0.0
Tb80 Tb 0.23 0.04964 -0.00224 0.0
Tb81 Tb 0.19491 1.01579 0.95635 0.0
C82 C 0.25852 0.07209 0.06255 0.0
C83 C 0.27772 0.0771 0.07442 0.0
C84 C 0.28257 0.0695 0.13135 0.0
C85 C 0.3008 0.07597 0.14824 0.0
C86 C 0.31468 0.09028 0.10892 0.0
C87 C 0.3098 0.09755 0.05085 0.0
C88 C 0.29158 0.0911 0.03405 0.0
C89 C 0.22226 0.04596 0.85961 0.0
C90 C 0.23008 1.0129 0.95899 0.0
C91 C 0.16546 0.99238 0.90034 0.0
C92 C 0.14584 0.98518 0.90998 0.0
C93 C 0.13881 0.9961 0.93365 0.0
C94 C 0.12009 0.98865 0.94304 0.0
C95 C 0.10809 0.97013 0.92961 0.0
C96 C 0.11527 0.95933 0.90589 0.0
C97 C 0.13391 0.96679 0.89616 0.0
C98 C 0.20234 1.02032 0.09527 0.0
C99 C 0.19552 0.05338 0.9822 0.0
O100 O 0.24587 0.05705 0.09157 0.0
O101 O 0.25398 0.07481 -0.00164 0.0
O102 O 0.21942 0.03352 0.90287 0.0
O103 O 0.23151 0.06147 0.89164 0.0
O104 O 0.2381 0.02869 -0.00647 0.0
O105 O 0.21389 1.0066 0.92934 0.0
O106 O 0.17515 1.00896 0.87616 0.0
O107 O 0.17361 0.98889 0.95221 0.0
O108 O 0.20517 0.03234 0.05015 0.0
O109 O 0.19336 1.0047 0.06441 0.0
O110 O 0.18733 0.03697 0.95291 0.0
O111 O 0.21162 0.06019 0.01332 0.0
H112 H 0.27228 0.05884 0.1642 0.0
H113 H 0.30402 0.06988 0.19274 0.0
H114 H 0.32005 0.10874 0.01996 0.0
H115 H 0.28837 0.09752 -0.00928 0.0
H116 H 0.14776 1.01031 0.94525 0.0
H117 H 0.11505 0.99732 0.96197 0.0
H118 H 0.10646 0.94511 0.894 0.0
H119 H 0.13903 0.95812 0.87784 0.0
Tb120 Tb 0.69692 0.53793 0.32781 0.0
Tb121 Tb 0.73071 0.53666 0.28582 0.0
C122 C 0.6744 0.54347 0.3946 0.0
C123 C 0.66952 0.55745 0.41215 0.0
C124 C 0.66536 0.55917 0.48376 0.0
C125 C 0.65863 0.57064 0.50169 0.0
C126 C 0.65582 0.58067 0.4483 0.0
C127 C 0.66063 0.57944 0.37677 0.0
C128 C 0.66738 0.56793 0.35881 0.0
C129 C 0.70053 0.534 0.1895 0.0
C130 C 0.7336 0.57476 0.29031 0.0
C131 C 0.75406 0.53072 0.22864 0.0
C132 C 0.76105 0.51811 0.23739 0.0
C133 C 0.77825 0.52309 0.21058 0.0
C134 C 0.78563 0.51183 0.22041 0.0
C135 C 0.77594 0.49528 0.25733 0.0
C136 C 0.75854 0.49022 0.28351 0.0
C137 C 0.75119 0.50158 0.27389 0.0
C138 C 0.7262 0.53931 0.42495 0.0
C139 C 0.69314 0.49965 0.31021 0.0
O140 O 0.68912 0.54518 0.42404 0.0
O141 O 0.6722 0.53761 0.32808 0.0
O142 O 0.71298 0.54356 0.23293 0.0
O143 O 0.68503 0.52764 0.22156 0.0
O144 O 0.71785 0.56698 0.32486 0.0
O145 O 0.73987 0.56489 0.26012 0.0
O146 O 0.7375 0.52396 0.20441 0.0
O147 O 0.75753 0.54213 0.28155 0.0
O148 O 0.7142 0.53024 0.37949 0.0
O149 O 0.74182 0.54602 0.39417 0.0
O150 O 0.70963 0.50789 0.28193 0.0
O151 O 0.68622 0.5089 0.34087 0.0
H152 H 0.66688 0.55124 0.52585 0.0
H153 H 0.65543 0.57148 0.55748 0.0
H154 H 0.65856 0.58688 0.33416 0.0
H155 H 0.67044 0.56686 0.30305 0.0
H156 H 0.78608 0.53579 0.1823 0.0
H157 H 0.79892 0.51604 0.19855 0.0
H158 H 0.75076 0.47766 0.31271 0.0
H159 H 0.73792 0.49754 0.29552 0.0
Tb160 Tb 0.54136 0.18222 0.32941 0.0
Tb161 Tb 0.54312 0.21755 0.28791 0.0
C162 C 0.53497 0.15378 0.39538 0.0
C163 C 0.52077 0.13463 0.40758 0.0
C164 C 0.5131 0.12921 0.47639 0.0
C165 C 0.5015 0.11088 0.4921 0.0
C166 C 0.49737 0.09747 0.4395 0.0
C167 C 0.50463 0.10296 0.36996 0.0
C168 C 0.5162 0.12131 0.35418 0.0
C169 C 0.54537 0.18975 0.19113 0.0
C170 C 0.50482 0.18265 0.29078 0.0
C171 C 0.55012 0.24725 0.23179 0.0
C172 C 0.56321 0.26675 0.24259 0.0
C173 C 0.57121 0.2779 0.18253 0.0
C174 C 0.58269 0.29659 0.19102 0.0
C175 C 0.58632 0.30458 0.25987 0.0
C176 C 0.57857 0.29331 0.32013 0.0
C177 C 0.5672 0.2746 0.31164 0.0
C178 C 0.54025 0.2103 0.42689 0.0
C179 C 0.57981 0.21639 0.31391 0.0
O180 O 0.53238 0.16643 0.42338 0.0
O181 O 0.54248 0.15822 0.3316 0.0
O182 O 0.53599 0.19287 0.23458 0.0
O183 O 0.55136 0.18027 0.22302 0.0
O184 O 0.51244 0.17444 0.32478 0.0
O185 O 0.51482 0.19888 0.2615 0.0
O186 O 0.55654 0.23717 0.20733 0.0
O187 O 0.53809 0.23915 0.28255 0.0
O188 O 0.54924 0.20721 0.38162 0.0
O189 O 0.53383 0.21947 0.3961 0.0
O190 O 0.57178 0.22479 0.28499 0.0
O191 O 0.57035 0.20028 0.3446 0.0
H192 H 0.51656 0.13911 0.51896 0.0
H193 H 0.49636 0.10718 0.54643 0.0
H194 H 0.50156 0.09304 0.32783 0.0
H195 H 0.52192 0.12496 0.30065 0.0
H196 H 0.56831 0.27218 0.12877 0.0
H197 H 0.5883 0.30487 0.14342 0.0
H198 H 0.58128 0.29897 0.37397 0.0
H199 H 0.56134 0.26632 0.35907 0.0
Tb200 Tb 0.89667 0.38299 0.3331 0.0
Tb201 Tb 0.86152 0.34918 0.2918 0.0
C202 C 0.92514 0.40524 0.39861 0.0
C203 C 0.94422 0.40999 0.41124 0.0
C204 C 0.94959 0.40775 0.48021 0.0
C205 C 0.96786 0.41419 0.49601 0.0
C206 C 0.98128 0.42318 0.44334 0.0
C207 C 0.97583 0.42497 0.37372 0.0
C208 C 0.95755 0.41848 0.35786 0.0
C209 C 0.88889 0.37943 0.19503 0.0
C210 C 0.89671 0.34628 0.29382 0.0
C211 C 0.8321 0.32566 0.23591 0.0
C212 C 0.81245 0.31831 0.24554 0.0
C213 C 0.80531 0.32914 0.26896 0.0
C214 C 0.78658 0.32162 0.2781 0.0
C215 C 0.77467 0.30307 0.26482 0.0
C216 C 0.78195 0.29233 0.2416 0.0
C217 C 0.80061 0.29988 0.23197 0.0
C218 C 0.86905 0.35366 0.43066 0.0
C219 C 0.86221 0.38685 0.31795 0.0
O220 O 0.9124 0.39024 0.42746 0.0
O221 O 0.92074 0.40804 0.33428 0.0
O222 O 0.88601 0.36693 0.23807 0.0
O223 O 0.89822 0.39492 0.22723 0.0
O224 O 0.90477 0.36207 0.32827 0.0
O225 O 0.88049 0.33998 0.26446 0.0
O226 O 0.8417 0.34226 0.21179 0.0
O227 O 0.8403 0.32224 0.28777 0.0
O228 O 0.87186 0.36569 0.38565 0.0
O229 O 0.86007 0.33805 0.39968 0.0
O230 O 0.85383 0.3703 0.28975 0.0
O231 O 0.87846 0.39376 0.34782 0.0
H232 H 0.93969 0.40151 0.52278 0.0
H233 H 0.97153 0.41273 0.55039 0.0
H234 H 0.98575 0.43159 0.33153 0.0
H235 H 0.95395 0.42054 0.30421 0.0
H236 H 0.8142 0.34335 0.28058 0.0
H237 H 0.78146 0.33024 0.29673 0.0
H238 H 0.7732 0.27808 0.22997 0.0
H239 H 0.80582 0.29126 0.21395 0.0
Tb240 Tb 0.36286 0.8708 0.66266 0.0
Tb241 Tb 0.39648 0.86913 0.62159 0.0
C242 C 0.34064 0.87718 0.72749 0.0
C243 C 0.33573 0.89145 0.73943 0.0
C244 C 0.34342 0.90393 0.79639 0.0
C245 C 0.33699 0.91574 0.81349 0.0
C246 C 0.32265 0.91532 0.77436 0.0
C247 C 0.31532 0.90316 0.71622 0.0
C248 C 0.32172 0.89135 0.69919 0.0
C249 C 0.36643 0.86656 0.52455 0.0
C250 C 0.39972 0.90738 0.62379 0.0
C251 C 0.4193 0.86222 0.56601 0.0
C252 C 0.42587 0.84929 0.57746 0.0
C253 C 0.42948 0.8415 0.51774 0.0
C254 C 0.43684 0.83017 0.52695 0.0
C255 C 0.44088 0.82649 0.59621 0.0
C256 C 0.4369 0.83403 0.65609 0.0
C257 C 0.42941 0.84525 0.64687 0.0
C258 C 0.39205 0.87217 0.76045 0.0
C259 C 0.35871 0.83238 0.64738 0.0
O260 O 0.35567 0.87949 0.75644 0.0
O261 O 0.33782 0.86986 0.6633 0.0
O262 O 0.3789 0.8761 0.5679 0.0
O263 O 0.35096 0.86049 0.55644 0.0
O264 O 0.38396 0.89978 0.65818 0.0
O265 O 0.40592 0.89735 0.59442 0.0
O266 O 0.40277 0.85558 0.54169 0.0
O267 O 0.42316 0.87439 0.6163 0.0
O268 O 0.38 0.86307 0.71524 0.0
O269 O 0.40765 0.87862 0.72971 0.0
O270 O 0.37513 0.84045 0.61853 0.0
O271 O 0.352 0.84182 0.67804 0.0
H272 H 0.35408 0.90427 0.82913 0.0
H273 H 0.34312 0.92506 0.85805 0.0
H274 H 0.3041 0.90223 0.68548 0.0
H275 H 0.31525 0.8817 0.65585 0.0
H276 H 0.42691 0.84445 0.46373 0.0
H277 H 0.43986 0.82473 0.47964 0.0
H278 H 0.43959 0.83127 0.7102 0.0
H279 H 0.42663 0.85095 0.69402 0.0
Tb280 Tb 0.20837 0.51515 0.66481 0.0
Tb281 Tb 0.20952 0.55018 0.62307 0.0
C282 C 0.2033 0.48731 0.73196 0.0
C283 C 0.19046 0.46784 0.74285 0.0
C284 C 0.19731 0.4568 0.76592 0.0
C285 C 0.18571 0.4384 0.77927 0.0
C286 C 0.16691 0.43053 0.76976 0.0
C287 C 0.16004 0.44166 0.74639 0.0
C288 C 0.17173 0.46017 0.73292 0.0
C289 C 0.21233 0.52261 0.52635 0.0
C290 C 0.17151 0.5148 0.62476 0.0
C291 C 0.21604 0.57979 0.5676 0.0
C292 C 0.22888 0.59937 0.5788 0.0
C293 C 0.23852 0.61021 0.5199 0.0
C294 C 0.24987 0.62893 0.52819 0.0
C295 C 0.25174 0.63726 0.59559 0.0
C296 C 0.24232 0.62632 0.65483 0.0
C297 C 0.23107 0.60759 0.64662 0.0
C298 C 0.2067 0.54292 0.76214 0.0
C299 C 0.2465 0.54977 0.64879 0.0
O300 O 0.19877 0.49887 0.75703 0.0
O301 O 0.21128 0.49212 0.66921 0.0
O302 O 0.20285 0.52561 0.56971 0.0
O303 O 0.21836 0.51319 0.55836 0.0
O304 O 0.17926 0.50672 0.65889 0.0
O305 O 0.18139 0.53111 0.59594 0.0
O306 O 0.22272 0.56996 0.5429 0.0
O307 O 0.20395 0.57143 0.61791 0.0
O308 O 0.21587 0.54006 0.71698 0.0
O309 O 0.20003 0.55186 0.73123 0.0
O310 O 0.23824 0.55782 0.61893 0.0
O311 O 0.23724 0.53382 0.6808 0.0
H312 H 0.21171 0.46248 0.77442 0.0
H313 H 0.1915 0.4304 0.79841 0.0
H314 H 0.14566 0.43605 0.7379 0.0
H315 H 0.16617 0.46846 0.71509 0.0
H316 H 0.23702 0.60422 0.46704 0.0
H317 H 0.25679 0.63694 0.48131 0.0
H318 H 0.24365 0.63225 0.70768 0.0
H319 H 0.22393 0.5996 0.69327 0.0
Tb320 Tb 0.56359 0.71593 0.66437 0.0
Tb321 Tb 0.52838 0.68221 0.62276 0.0
C322 C 0.59195 0.73798 0.73087 0.0
C323 C 0.61106 0.74287 0.74338 0.0
C324 C 0.61649 0.74084 0.81252 0.0
C325 C 0.63479 0.74742 0.82829 0.0
C326 C 0.64816 0.75635 0.77541 0.0
C327 C 0.64265 0.75794 0.70562 0.0
C328 C 0.62434 0.75129 0.68978 0.0
C329 C 0.5559 0.71242 0.5262 0.0
C330 C 0.56343 0.67908 0.62456 0.0
C331 C 0.49866 0.65937 0.56705 0.0
C332 C 0.47917 0.65286 0.5784 0.0
C333 C 0.46795 0.64997 0.51876 0.0
C334 C 0.44928 0.64271 0.52769 0.0
C335 C 0.4414 0.63806 0.59657 0.0
C336 C 0.45274 0.64129 0.65643 0.0
C337 C 0.47142 0.64868 0.64752 0.0
C338 C 0.53576 0.68667 0.76176 0.0
C339 C 0.5293 0.71997 0.64894 0.0
O340 O 0.5793 0.72275 0.75865 0.0
O341 O 0.58754 0.74106 0.66701 0.0
O342 O 0.55292 0.69991 0.56931 0.0
O343 O 0.56531 0.72791 0.55836 0.0
O344 O 0.57162 0.69496 0.6585 0.0
O345 O 0.54713 0.67272 0.59583 0.0
O346 O 0.50859 0.67588 0.54266 0.0
O347 O 0.50693 0.65551 0.61735 0.0
O348 O 0.53871 0.69871 0.71656 0.0
O349 O 0.52666 0.67105 0.7309 0.0
O350 O 0.52101 0.70355 0.61976 0.0
O351 O 0.54539 0.7267 0.67988 0.0
H352 H 0.60662 0.73465 0.85522 0.0
H353 H 0.6385 0.74613 0.88278 0.0
H354 H 0.65254 0.76451 0.6633 0.0
H355 H 0.62068 0.75318 0.63599 0.0
H356 H 0.47359 0.65304 0.46495 0.0
H357 H 0.44095 0.64027 0.48037 0.0
H358 H 0.44716 0.63811 0.7103 0.0
H359 H 0.47975 0.65088 0.69466 0.0
H360 H 0.0983 0.26115 0.88691 0.0
H361 H 0.11359 0.29336 0.8578 0.0
H362 H 0.07063 0.29793 0.95945 0.0
H363 H 0.05529 0.26568 -0.01017 0.0
H364 H 0.10083 0.31126 0.77316 0.0
H365 H 0.11566 0.34 0.04981 0.0
H366 H 0.10893 0.31667 0.0314 0.0
H367 H 0.09233 0.32376 0.0327 0.0
C368 C 0.09213 0.26899 0.90377 0.0
C369 C 0.07554 0.26075 0.94095 0.0
C370 C 0.1009 0.28743 0.88688 0.0
C371 C 0.09339 0.29816 0.907 0.0
C372 C 0.07689 0.29004 0.94452 0.0
H373 H 0.13375 0.41411 0.83715 0.0
H374 H 0.11463 0.38197 0.86709 0.0
C375 C 0.06808 0.27155 0.96159 0.0
C376 C 0.10261 0.31763 0.88614 0.0
H377 H 0.12305 0.36071 0.95387 0.0
C378 C 0.10568 0.32207 0.81272 0.0
C379 C 0.10882 0.33176 0.93765 0.0
C380 C 0.10644 0.32789 0.01736 0.0
C381 C 0.11482 0.34017 0.78944 0.0
C382 C 0.12142 0.35431 0.84099 0.0
C383 C 0.11801 0.34989 0.91434 0.0
C384 C 0.13259 0.37372 0.82012 0.0
C385 C 0.11718 0.34397 0.70967 0.0
C386 C 0.14906 0.37982 0.78388 0.0
C387 C 0.15993 0.39812 0.76626 0.0
C388 C 0.1547 0.41085 0.78506 0.0
C389 C 0.13811 0.40469 0.821 0.0
C390 C 0.12722 0.38633 0.83866 0.0
H391 H 0.10686 0.33232 0.67792 0.0
H392 H 0.11627 0.35617 0.69601 0.0
H393 H 0.1307 0.3464 0.69306 0.0
H394 H 0.15369 0.37046 0.77012 0.0
H395 H 0.1725 0.40229 0.73798 0.0
H396 H 0.81319 0.81487 0.00198 0.0
H397 H 0.78084 0.79783 0.97247 0.0
H398 H 0.7861 0.84352 0.85307 0.0
H399 H 0.8183 0.86058 0.88171 0.0
H400 H 0.7529 0.80634 -0.00033 0.0
H401 H 0.76283 0.80158 0.707 0.0
H402 H 0.78071 0.8077 0.77202 0.0
H403 H 0.77488 0.8242 0.74241 0.0
C404 C 0.80747 0.82132 0.96959 0.0
C405 C 0.81844 0.83909 0.94388 0.0
C406 C 0.78896 0.81155 0.95276 0.0
C407 C 0.7811 0.81928 0.90946 0.0
C408 C 0.79192 0.83714 0.8853 0.0
H409 H 0.67609 0.78931 0.73283 0.0
H410 H 0.70798 0.80358 0.76671 0.0
C411 C 0.81036 0.84692 0.90218 0.0
C412 C 0.7616 0.8088 0.88952 0.0
H413 H 0.73299 0.79287 0.745 0.0
C414 C 0.74852 0.80324 0.94408 0.0
C415 C 0.7559 0.80478 0.81693 0.0
C416 C 0.76929 0.80971 0.75617 0.0
C417 C 0.72991 0.79432 0.92784 0.0
C418 C 0.7242 0.7905 0.85509 0.0
C419 C 0.73732 0.79582 0.8007 0.0
C420 C 0.70475 0.78146 0.83395 0.0
C421 C 0.71658 0.78967 -0.01138 0.0
C422 C 0.69228 0.76409 0.8593 0.0
C423 C 0.67398 0.75585 0.83986 0.0
C424 C 0.66776 0.76472 0.79396 0.0
C425 C 0.68038 0.78196 0.7675 0.0
C426 C 0.69864 0.79021 0.78718 0.0
H427 H 0.72318 0.7976 0.03805 0.0
H428 H 0.70547 0.7922 0.97307 0.0
H429 H 0.71055 0.7751 0.00187 0.0
H430 H 0.69671 0.75684 0.89391 0.0
H431 H 0.66472 0.74246 0.86035 0.0
H432 H 0.26434 1.02211 0.00432 0.0
H433 H 0.28114 1.00643 0.97758 0.0
H434 H 0.23573 0.96614 0.85606 0.0
H435 H 0.21876 0.98148 0.8833 0.0
H436 H 0.25019 0.95101 0.94503 0.0
H437 H 0.3044 1.00667 0.78539 0.0
H438 H 0.30166 1.01306 0.87467 0.0
H439 H 0.28378 1.00636 0.80985 0.0
C440 C 0.2579 1.00989 0.97202 0.0
C441 C 0.24019 1.00314 0.94573 0.0
C442 C 0.26759 1.00101 0.95633 0.0
C443 C 0.25984 0.98526 0.9137 0.0
C444 C 0.24205 0.97831 0.88873 0.0
H445 H 0.31077 0.9333 0.68712 0.0
H446 H 0.29593 0.95033 0.72309 0.0
C447 C 0.23236 0.98714 0.90441 0.0
C448 C 0.27008 0.97585 0.89531 0.0
H449 H 0.30778 0.9812 0.80838 0.0
C450 C 0.2628 0.95764 0.91531 0.0
C451 C 0.28643 0.9844 0.85562 0.0
C452 C 0.29449 1.00365 0.82945 0.0
C453 C 0.27142 0.94778 0.89707 0.0
C454 C 0.28797 0.95643 0.85873 0.0
C455 C 0.2952 0.97462 0.83836 0.0
C456 C 0.29765 0.94666 0.83744 0.0
C457 C 0.26246 0.92803 0.91737 0.0
C458 C 0.30391 0.9392 0.8897 0.0
C459 C 0.31231 0.92936 0.8693 0.0
C460 C 0.31474 0.9268 0.79607 0.0
C461 C 0.30889 0.93474 0.74392 0.0
C462 C 0.3005 0.94459 0.76441 0.0
H463 H 0.2479 0.92236 0.93007 0.0
H464 H 0.2637 0.9199 0.87329 0.0
H465 H 0.26919 0.92655 0.9659 0.0
H466 H 0.30215 0.94087 0.94641 0.0
H467 H 0.31647 0.92335 0.91102 0.0
H468 H 0.48476 0.19438 0.21737 0.0
H469 H 0.45237 0.17772 0.19188 0.0
H470 H 0.44717 0.13176 0.3091 0.0
H471 H 0.47972 0.14826 0.3342 0.0
H472 H 0.42945 0.12216 0.17764 0.0
H473 H 0.41077 0.16654 0.32844 0.0
H474 H 0.42855 0.17855 0.26433 0.0
H475 H 0.43231 0.16767 0.33992 0.0
C476 C 0.47676 0.18078 0.23831 0.0
C477 C 0.48492 0.17273 0.27817 0.0
C478 C 0.45817 0.17128 0.22392 0.0
C479 C 0.44723 0.15356 0.24943 0.0
C480 C 0.4553 0.14545 0.28913 0.0
H481 H 0.32903 0.09674 0.24526 0.0
H482 H 0.36086 0.11077 0.28021 0.0
C483 C 0.47393 0.15494 0.3036 0.0
C484 C 0.4275 0.14335 0.23274 0.0
H485 H 0.38844 0.14501 0.24889 0.0
C486 C 0.42046 0.1271 0.1936 0.0
C487 C 0.41568 0.14965 0.25426 0.0
C488 C 0.42214 0.16646 0.29967 0.0
C489 C 0.40208 0.11725 0.17389 0.0
C490 C 0.39043 0.12394 0.1929 0.0
C491 C 0.39737 0.13995 0.23361 0.0
C492 C 0.37101 0.1146 0.17116 0.0
C493 C 0.39527 0.09964 0.13359 0.0
C494 C 0.36603 0.11206 0.09813 0.0
C495 C 0.3478 0.10391 0.07791 0.0
C496 C 0.33408 0.09817 0.13027 0.0
C497 C 0.33914 0.10068 0.20341 0.0
C498 C 0.35737 0.10885 0.22355 0.0
H499 H 0.40437 0.09395 0.14084 0.0
H500 H 0.38147 0.08944 0.1516 0.0
H501 H 0.39469 0.10207 0.07524 0.0
H502 H 0.37629 0.11667 0.0566 0.0
H503 H 0.34445 0.10212 0.02115 0.0
H504 H 0.88526 0.31468 0.21915 0.0
H505 H 0.9021 0.29913 0.19325 0.0
H506 H 0.94779 0.33983 0.3122 0.0
H507 H 0.9311 0.35571 0.33769 0.0
H508 H 0.95759 0.33195 0.18079 0.0
H509 H 0.91327 0.26859 0.32898 0.0
H510 H 0.90126 0.27438 0.26489 0.0
H511 H 0.91201 0.28894 0.34099 0.0
C512 C 0.89885 0.32031 0.24037 0.0
C513 C 0.90677 0.33645 0.28085 0.0
C514 C 0.90844 0.31131 0.22575 0.0
C515 C 0.92613 0.31813 0.25166 0.0
C516 C 0.93412 0.33425 0.29194 0.0
H517 H 0.9827 0.25642 0.24412 0.0
H518 H 0.96883 0.2743 0.28033 0.0
C519 C 0.92453 0.34329 0.30662 0.0
C520 C 0.9364 0.30868 0.23482 0.0
H521 H 0.9348 0.26792 0.24908 0.0
C522 C 0.95267 0.31799 0.19614 0.0
C523 C 0.93013 0.29052 0.25556 0.0
C524 C 0.91331 0.28006 0.30052 0.0
C525 C 0.96255 0.30951 0.17605 0.0
C526 C 0.95587 0.29111 0.19416 0.0
C527 C 0.93985 0.28196 0.23449 0.0
C528 C 0.9652 0.28106 0.17174 0.0
C529 C 0.98017 0.3204 0.13627 0.0
C530 C 0.96779 0.27884 0.09854 0.0
C531 C 0.97586 0.26872 0.07761 0.0
C532 C 0.98144 0.26046 0.12939 0.0
C533 C 0.97889 0.2628 0.20271 0.0
C534 C 0.97081 0.27292 0.22356 0.0
H535 H 0.98587 0.33518 0.14454 0.0
H536 H 0.99034 0.3167 0.15383 0.0
H537 H 0.97778 0.3176 0.07774 0.0
H538 H 0.96328 0.28468 0.05741 0.0
H539 H 0.97769 0.26732 0.02073 0.0
H540 H 0.83598 0.7368 0.06593 0.0
H541 H 0.81834 0.70492 0.10044 0.0
H542 H 0.78329 0.71655 0.22884 0.0
H543 H 0.80063 0.74845 0.19325 0.0
H544 H 0.8126 0.69084 0.24201 0.0
H545 H 0.74759 0.67266 0.10686 0.0
H546 H 0.76858 0.69278 0.08412 0.0
H547 H 0.75659 0.69223 0.16442 0.0
C548 C 0.82433 0.73256 0.10047 0.0
C549 C 0.81969 0.74523 0.12642 0.0
C550 C 0.81433 0.71432 0.12061 0.0
C551 C 0.79937 0.70827 0.16664 0.0
C552 C 0.79461 0.72083 0.1924 0.0
H553 H 0.72447 0.59991 0.33605 0.0
H554 H 0.74044 0.63251 0.31105 0.0
C555 C 0.80465 0.73911 0.17251 0.0
C556 C 0.78924 0.68897 0.18961 0.0
H557 H 0.748 0.65027 0.18037 0.0
C558 C 0.79848 0.68197 0.22851 0.0
C559 C 0.77076 0.67742 0.17254 0.0
C560 C 0.76027 0.68404 0.12921 0.0
C561 C 0.78978 0.66379 0.25083 0.0
C562 C 0.7714 0.65211 0.23238 0.0
C563 C 0.76206 0.65919 0.19453 0.0
C564 C 0.76188 0.63238 0.24927 0.0
C565 C 0.80032 0.65734 0.29486 0.0
C566 C 0.76848 0.62139 0.22243 0.0
C567 C 0.75945 0.60281 0.23684 0.0
C568 C 0.74346 0.59468 0.27793 0.0
C569 C 0.73679 0.60569 0.30456 0.0
C570 C 0.74588 0.62434 0.29015 0.0
H571 H 0.81192 0.66877 0.3229 0.0
H572 H 0.79159 0.64722 0.33563 0.0
H573 H 0.80583 0.6509 0.25863 0.0
H574 H 0.78053 0.62714 0.18932 0.0
H575 H 0.76495 0.59479 0.21487 0.0
H576 H 0.14626 0.4805 0.66943 0.0
H577 H 0.11392 0.46356 0.63995 0.0
H578 H 0.11944 0.5092 0.51941 0.0
H579 H 0.15164 0.52613 0.54788 0.0
H580 H 0.08615 0.47213 0.66688 0.0
H581 H 0.09578 0.46729 0.3741 0.0
H582 H 0.11372 0.47343 0.43878 0.0
H583 H 0.10792 0.48995 0.40908 0.0
C584 C 0.14061 0.48695 0.63668 0.0
C585 C 0.15167 0.50466 0.61063 0.0
C586 C 0.1221 0.47724 0.61991 0.0
C587 C 0.1143 0.48498 0.57632 0.0
C588 C 0.12521 0.50279 0.5518 0.0
H589 H 1.00943 0.45609 0.40138 0.0
H590 H 0.04131 0.47004 0.43503 0.0
C591 C 0.14365 0.5125 0.5686 0.0
C592 C 0.09477 0.47459 0.55661 0.0
H593 H 0.06603 0.45895 0.41238 0.0
C594 C 0.08173 0.46909 0.61132 0.0
C595 C 0.089 0.47063 0.48406 0.0
C596 C 0.10231 0.47547 0.42308 0.0
C597 C 0.06311 0.46032 0.59531 0.0
C598 C 0.05734 0.45659 0.52261 0.0
C599 C 0.07041 0.46183 0.46805 0.0
C600 C 0.03787 0.44775 0.50168 0.0
C601 C 0.04984 0.45572 0.65628 0.0
C602 C 1.02528 0.43039 0.52679 0.0
C603 C 1.00698 0.42234 0.50746 0.0
C604 C 1.00088 0.43138 0.46192 0.0
C605 C 1.01362 0.44861 0.43576 0.0
C606 C 1.03188 0.45667 0.4553 0.0
H607 H 0.05652 0.46355 0.7058 0.0
H608 H 0.03882 0.45842 0.6411 0.0
H609 H 0.04367 0.44112 0.6692 0.0
H610 H 1.02961 0.42301 0.56109 0.0
H611 H 0.99763 0.40894 0.52772 0.0
H612 H 0.55081 0.64594 0.56082 0.0
H613 H 0.56749 0.63027 0.53389 0.0
H614 H 0.6156 0.67434 0.6279 0.0
H615 H 0.59891 0.69001 0.65638 0.0
H616 H 0.59683 0.64076 0.44791 0.0
H617 H 0.61341 0.63098 0.72705 0.0
H618 H 0.597 0.63783 0.70735 0.0
H619 H 0.62079 0.65413 0.70486 0.0
C620 C 0.5649 0.65228 0.57641 0.0
C621 C 0.57346 0.66924 0.61111 0.0
C622 C 0.57445 0.64329 0.56076 0.0
C623 C 0.59277 0.65098 0.57952 0.0
C624 C 0.60139 0.66792 0.61419 0.0
H625 H 0.66432 0.61441 0.39812 0.0
H626 H 0.64975 0.63207 0.42876 0.0
C627 C 0.59182 0.67691 0.63018 0.0
C628 C 0.60287 0.64144 0.56079 0.0
H629 H 0.62703 0.62316 0.63293 0.0
C630 C 0.60344 0.63692 0.48839 0.0
C631 C 0.61136 0.63625 0.61362 0.0
C632 C 0.61051 0.63987 0.69266 0.0
C633 C 0.61224 0.62742 0.4674 0.0
C634 C 0.62104 0.62255 0.52004 0.0
C635 C 0.62045 0.62704 0.59245 0.0
C636 C 0.63022 0.61208 0.50166 0.0
C637 C 0.61157 0.62222 0.38929 0.0
C638 C 0.62442 0.59514 0.53357 0.0
C639 C 0.63276 0.58506 0.51637 0.0
C640 C 0.6472 0.59169 0.467 0.0
C641 C 0.6531 0.60876 0.43553 0.0
C642 C 0.64476 0.61888 0.45297 0.0
H643 H 0.60061 0.62288 0.35961 0.0
H644 H 0.62461 0.63173 0.3632 0.0
H645 H 0.60945 0.60831 0.38405 0.0
H646 H 0.61323 0.58958 0.5712 0.0
H647 H 0.62764 0.57188 0.54091 0.0
H648 H 0.46682 0.08062 0.52375 0.0
H649 H 0.44989 0.04868 0.5594 0.0
H650 H 0.48578 0.03789 0.43264 0.0
H651 H 0.50301 0.06979 0.39816 0.0
H652 H 0.43195 1.01693 0.4729 0.0
H653 H 0.48745 1.01808 0.6326 0.0
H654 H 0.48762 0.03848 0.60528 0.0
H655 H 0.49368 0.02638 0.54228 0.0
C656 C 0.47118 0.07147 0.50376 0.0
C657 C 0.48635 0.07784 0.45824 0.0
C658 C 0.46143 0.0532 0.52391 0.0
C659 C 0.46672 0.04094 0.49963 0.0
C660 C 0.48161 0.04715 0.45305 0.0
H661 H 0.43107 0.92722 0.54782 0.0
H662 H 0.44653 0.95952 0.52034 0.0
C663 C 0.49132 0.06538 0.43267 0.0
C664 C 0.4567 1.02163 0.52268 0.0
H665 H 0.46183 0.9892 0.60983 0.0
C666 C 0.43842 1.01088 0.50332 0.0
C667 C 0.46515 1.01375 0.56242 0.0
C668 C 0.48451 0.02478 0.58753 0.0
C669 C 0.42855 0.99233 0.52059 0.0
C670 C 0.43708 0.98439 0.55966 0.0
C671 C 0.45529 0.99524 0.57985 0.0
C672 C 0.42758 0.96475 0.57802 0.0
C673 C 0.40927 0.98128 0.49468 0.0
C674 C 0.41191 0.9569 0.62081 0.0
C675 C 0.40296 0.93834 0.63663 0.0
C676 C 0.40958 0.92725 0.61036 0.0
C677 C 0.42552 0.93527 0.5689 0.0
C678 C 0.43441 0.95379 0.55308 0.0
H679 H 0.40626 0.98821 0.45075 0.0
H680 H 0.40641 0.96779 0.47499 0.0
H681 H 0.39996 0.97916 0.54005 0.0
H682 H 0.40659 0.96513 0.64211 0.0
H683 H 0.3908 0.93267 0.66904 0.0
H684 H 0.20572 0.08591 0.04881 0.0
H685 H 0.19023 0.10355 0.04557 0.0
H686 H 0.14893 0.06314 0.90872 0.0
H687 H 0.16405 0.04529 0.91286 0.0
H688 H 0.18285 0.1188 0.93267 0.0
H689 H 0.11838 0.06878 0.06037 0.0
H690 H 0.13825 0.06643 0.06174 0.0
H691 H 0.12391 0.05976 0.98339 0.0
C692 C 0.19326 0.08069 0.01847 0.0
C693 C 0.18609 0.06408 0.98157 0.0
C694 C 0.18442 0.09081 0.01662 0.0
C695 C 0.1682 0.08455 0.978 0.0
C696 C 0.16113 0.06806 0.94056 0.0
H697 H 0.09961 0.12877 0.85816 0.0
H698 H 0.11462 0.11079 0.8713 0.0
C699 C 0.16989 0.0579 0.94266 0.0
C700 C 0.15906 0.09556 0.97452 0.0
H701 H 0.11863 0.0939 0.00257 0.0
C702 C 0.16886 0.11339 0.94858 0.0
C703 C 0.14078 0.08854 -0.00475 0.0
C704 C 0.12976 0.0699 0.02742 0.0
C705 C 0.16078 0.1242 0.9412 0.0
C706 C 0.14244 0.11707 0.96082 0.0
C707 C 0.13266 0.09931 -0.01279 0.0
C708 C 0.13318 0.12786 0.95403 0.0
C709 C 0.17179 0.14305 0.91084 0.0
C710 C 0.13845 0.14328 -0.00311 0.0
C711 C 0.12988 0.15355 -0.01036 0.0
C712 C 0.11586 0.14865 0.93918 0.0
C713 C 0.11048 0.13305 0.89691 0.0
C714 C 0.11898 0.1227 0.90461 0.0
H715 H 0.18442 0.14518 0.88482 0.0
H716 H 0.16378 0.14576 0.87076 0.0
H717 H 0.17555 0.15307 0.95507 0.0
H718 H 0.14924 0.14739 0.03594 0.0
H719 H 0.13447 0.16555 0.02263 0.0
H720 H 0.90752 0.99575 0.96439 0.0
H721 H 0.9266 0.02859 0.97718 0.0
H722 H 0.9738 0.02453 0.92795 0.0
H723 H 0.95476 0.99165 0.91366 0.0
H724 H 0.95683 0.04897 0.07112 0.0
H725 H 0.97596 0.06233 0.78231 0.0
H726 H 0.95715 0.04123 0.81329 0.0
H727 H 0.97991 0.04566 0.82448 0.0
C728 C 0.92195 1.00184 0.95573 0.0
C729 C 0.92957 0.99105 0.93731 0.0
C730 C 0.93285 1.02061 0.96355 0.0
C731 C 0.95159 0.02906 0.95258 0.0
C732 C 0.95933 1.01833 0.93563 0.0
H733 H 0.03689 0.1422 0.94352 0.0
H734 H 1.01928 0.10916 0.94061 0.0
C735 C 0.94844 0.99952 0.92813 0.0
C736 C 0.96296 0.04909 0.95869 0.0
H737 H 0.98977 0.08731 0.8615 0.0
C738 C 0.96403 0.05737 0.02533 0.0
C739 C 0.97237 0.06003 0.89893 0.0
C740 C 0.97124 0.05194 0.82547 0.0
C741 C 0.97446 0.07627 0.03409 0.0
C742 C 0.98372 0.08726 0.97408 0.0
C743 C 0.98269 0.07893 0.90752 0.0
C744 C 0.9945 0.10741 0.97882 0.0
C745 C 0.97575 0.08423 0.10795 0.0
C746 C 0.98647 0.11754 0.00094 0.0
C747 C 0.99656 0.1365 0.00314 0.0
C748 C 1.01486 0.14577 0.98237 0.0
C749 C 1.02284 0.13557 0.96 0.0
C750 C 1.01278 0.11663 0.95821 0.0
H751 H 0.97253 0.07401 0.15094 0.0
H752 H 0.98948 0.09591 0.11801 0.0
H753 H 0.96586 0.08903 0.11199 0.0
H754 H 0.97229 0.11081 0.01536 0.0
H755 H 0.98991 0.14388 0.01999 0.0
H756 H 0.93542 0.87159 0.03231 0.0
H757 H 0.96849 0.88695 0.02829 0.0
H758 H 0.96995 0.93278 0.92394 0.0
H759 H 0.93697 0.91766 0.92823 0.0
H760 H 0.99075 0.89877 0.90684 0.0
H761 H 1.00636 0.95664 0.08777 0.0
H762 H 0.98421 0.93668 0.08336 0.0
H763 H 0.9913 0.95381 0.01505 0.0
C764 C 0.94275 0.885 0.00901 0.0
C765 C 0.93345 0.89338 0.98091 0.0
C766 C 0.96169 0.89376 0.00668 0.0
C767 C 0.97176 0.91114 0.97678 0.0
C768 C 0.96253 0.91955 0.94869 0.0
H769 H 0.08649 0.98432 0.89267 0.0
H770 H 0.05356 0.97008 0.90479 0.0
C771 C 0.94361 0.9108 0.95085 0.0
C772 C 0.99185 0.92015 0.97223 0.0
H773 H 1.03105 0.95796 0.02349 0.0
C774 C 0.99957 0.91166 0.93271 0.0
C775 C 1.00337 0.93704 0.00558 0.0
C776 C 0.99594 0.94654 0.05089 0.0
C777 C 1.01842 0.9197 0.92457 0.0
C778 C 1.02996 0.93655 0.95823 0.0
C779 C 1.02224 0.94506 -0.00231 0.0
C780 C 0.05005 0.94547 0.95333 0.0
C781 C 1.02575 0.91025 0.87837 0.0
C782 C 0.05914 0.93661 0.97815 0.0
C783 C 0.07794 0.94471 0.97125 0.0
C784 C 0.08815 0.96196 0.93999 0.0
C785 C 0.07908 0.97107 0.91729 0.0
C786 C 0.06024 0.96291 0.92394 0.0
H787 H 1.01534 0.90046 0.84062 0.0
H788 H 0.03763 0.92015 0.84666 0.0
H789 H 1.03009 0.9026 0.91349 0.0
H790 H 0.05169 0.92338 0.00291 0.0
H791 H 0.08449 0.93746 -0.00922 0.0
H792 H 0.81085 0.50567 0.29503 0.0
H793 H 0.82462 0.48663 0.30847 0.0
H794 H 0.77337 0.43924 0.26049 0.0
H795 H 0.75953 0.45824 0.24556 0.0
H796 H 0.8147 0.45646 0.40348 0.0
H797 H 0.80902 0.43685 0.11503 0.0
H798 H 0.8068 0.45577 0.14549 0.0
H799 H 0.78843 0.43304 0.157 0.0
C800 C 0.80251 0.49121 0.28677 0.0
C801 C 0.7841 0.48352 0.26853 0.0
C802 C 0.81039 0.48033 0.29497 0.0
C803 C 0.8001 0.46154 0.28456 0.0
C804 C 0.78164 0.45374 0.26776 0.0
H805 H 0.8275 0.37597 0.27531 0.0
H806 H 0.81235 0.3938 0.27177 0.0
C807 C 0.77371 0.46461 0.25989 0.0
C808 C 0.80876 0.45017 0.29107 0.0
H809 H 0.82013 0.42314 0.1947 0.0
C810 C 0.81591 0.44917 0.35788 0.0
C811 C 0.8103 0.44065 0.23157 0.0
C812 C 0.80338 0.44168 0.15798 0.0
C813 C 0.8243 0.43869 0.3671 0.0
C814 C 0.82604 0.42931 0.30733 0.0
C815 C 0.81883 0.4303 0.24056 0.0
C816 C 0.83524 0.41836 0.31256 0.0
C817 C 0.83081 0.43744 0.44124 0.0
C818 C 0.85324 0.42618 0.33633 0.0
C819 C 0.86192 0.41591 0.33923 0.0
C820 C 0.85287 0.39765 0.31737 0.0
C821 C 0.83489 0.38992 0.29301 0.0
C822 C 0.82619 0.40014 0.29074 0.0
H823 H 0.82371 0.44064 0.48389 0.0
H824 H 0.82879 0.42371 0.45144 0.0
H825 H 0.84547 0.44739 0.44577 0.0
H826 H 0.86073 0.44032 0.35156 0.0
H827 H 0.87583 0.42239 0.3575 0.0
H828 H 0.66004 0.47735 0.37199 0.0
H829 H 0.64245 0.44424 0.36825 0.0
H830 H 0.68407 0.44321 0.24021 0.0
H831 H 0.7019 0.4762 0.24498 0.0
H832 H 0.6283 0.42162 0.25426 0.0
H833 H 0.67688 0.40701 0.39426 0.0
H834 H 0.67926 0.42926 0.39388 0.0
H835 H 0.6866 0.4215 0.31773 0.0
C836 C 0.66554 0.47009 0.34349 0.0
C837 C 0.68247 0.47951 0.30918 0.0
C838 C 0.65544 0.45113 0.34133 0.0
C839 C 0.66204 0.44114 0.30503 0.0
C840 C 0.67886 0.45052 0.27021 0.0
H841 H 0.61817 0.32773 0.19152 0.0
H842 H 0.63627 0.36076 0.20337 0.0
C843 C 0.68901 0.46946 0.27261 0.0
C844 C 0.65104 0.42099 0.30126 0.0
H845 H 0.65218 0.38211 0.33475 0.0
C846 C 0.63349 0.413 0.27242 0.0
C847 C 0.65777 0.40967 0.3249 0.0
C848 C 0.67609 0.41727 0.36008 0.0
C849 C 0.62267 0.3941 0.26518 0.0
C850 C 0.6295 0.38284 0.28794 0.0
C851 C 0.647 0.39078 0.31703 0.0
C852 C 0.61864 0.36277 0.2819 0.0
C853 C 0.60414 0.38631 0.23178 0.0
C854 C 0.60286 0.3529 0.32287 0.0
C855 C 0.59252 0.33403 0.31636 0.0
C856 C 0.59771 0.32462 0.26855 0.0
C857 C 0.61366 0.33455 0.22819 0.0
C858 C 0.62407 0.35342 0.23516 0.0
H859 H 0.60237 0.3968 0.20358 0.0
H860 H 0.60168 0.37541 0.19286 0.0
H861 H 0.59374 0.38031 0.27465 0.0
H862 H 0.59852 0.35981 0.35987 0.0
H863 H 0.58025 0.32685 0.3478 0.0
H864 H 0.60371 0.24953 0.25684 0.0
H865 H 0.63669 0.26423 0.25221 0.0
H866 H 0.63466 0.21916 0.36544 0.0
H867 H 0.60162 0.2042 0.3696 0.0
H868 H 0.66212 0.27489 0.36311 0.0
H869 H 0.66489 0.22351 0.18797 0.0
H870 H 0.64445 0.22455 0.20045 0.0
H871 H 0.65168 0.2145 0.26826 0.0
C872 C 0.61023 0.24269 0.28081 0.0
C873 C 0.59992 0.22559 0.31326 0.0
C874 C 0.62913 0.25115 0.27815 0.0
C875 C 0.63818 0.2427 0.30743 0.0
C876 C 0.62798 0.22579 0.3411 0.0
H877 H 0.7511 0.2705 0.32685 0.0
H878 H 0.7183 0.25651 0.33958 0.0
C879 C 0.60906 0.2173 0.3438 0.0
C880 C 0.65827 0.25163 0.30292 0.0
H881 H 0.6927 0.24642 0.23585 0.0
C882 C 0.66882 0.2687 0.33513 0.0
C883 C 0.66702 0.24355 0.26643 0.0
C884 C 0.65646 0.2256 0.22821 0.0
C885 C 0.68785 0.27775 0.33296 0.0
C886 C 0.69661 0.26969 0.29624 0.0
C887 C 0.68603 0.25261 0.26409 0.0
C888 C 0.7167 0.27866 0.29045 0.0
C889 C 0.69837 0.29565 0.37156 0.0
C890 C 0.72682 0.29578 0.25828 0.0
C891 C 0.74564 0.30386 0.25107 0.0
C892 C 0.75473 0.29487 0.27497 0.0
C893 C 0.74454 0.27773 0.30712 0.0
C894 C 0.72577 0.26972 0.31467 0.0
H895 H 0.69006 0.29737 0.41349 0.0
H896 H 0.7107 0.29696 0.39738 0.0
H897 H 0.70259 0.30681 0.33213 0.0
H898 H 0.72014 0.30278 0.23743 0.0
H899 H 0.75301 0.31693 0.22505 0.0
H900 H 0.54001 0.75289 0.71319 0.0
H901 H 0.52461 0.77061 0.71005 0.0
H902 H 0.48244 0.7296 0.57802 0.0
H903 H 0.49746 0.71165 0.58214 0.0
H904 H 0.51658 0.78531 0.59665 0.0
H905 H 0.45292 0.73616 0.7318 0.0
H906 H 0.47277 0.73377 0.7319 0.0
H907 H 0.45793 0.72666 0.655 0.0
C908 C 0.52738 0.74755 0.68395 0.0
C909 C 0.51994 0.73075 0.64836 0.0
C910 C 0.51859 0.75773 0.68214 0.0
C911 C 0.50216 0.75132 0.64491 0.0
C912 C 0.49482 0.73464 0.60877 0.0
H913 H 0.43288 0.79484 0.52718 0.0
H914 H 0.448 0.77697 0.54042 0.0
C915 C 0.50353 0.72442 0.61082 0.0
C916 C 0.49305 0.76235 0.64153 0.0
H917 H 0.45283 0.76093 0.67241 0.0
C918 C 0.5027 0.78003 0.61384 0.0
C919 C 0.4749 0.75549 0.66394 0.0
C920 C 0.46408 0.73705 0.698 0.0
C921 C 0.49459 0.79081 0.60633 0.0
C922 C 0.47638 0.78382 0.62761 0.0
C923 C 0.46676 0.76623 0.65578 0.0
C924 C 0.46708 0.79457 0.62067 0.0
C925 C 0.50542 0.80946 0.57405 0.0
C926 C 0.47262 0.81026 0.66213 0.0
C927 C 0.46398 0.82047 0.65483 0.0
C928 C 0.44964 0.81523 0.60571 0.0
C929 C 0.444 0.79938 0.56485 0.0
C930 C 0.45257 0.7891 0.57261 0.0
H931 H 0.51789 0.81141 0.54709 0.0
H932 H 0.49717 0.81193 0.53431 0.0
H933 H 0.50946 0.81975 0.61736 0.0
H934 H 0.48366 0.81462 0.70015 0.0
H935 H 0.46877 0.83267 0.6867 0.0
H936 H 0.24394 0.66017 0.67116 0.0
H937 H 0.26216 0.69315 0.68146 0.0
H938 H 0.30356 0.69279 0.54957 0.0
H939 H 0.28532 0.65982 0.53845 0.0
H940 H 0.29575 0.71511 0.73646 0.0
H941 H 0.29541 0.72969 0.44591 0.0
H942 H 0.28073 0.70759 0.48367 0.0
H943 H 0.304 0.71472 0.46412 0.0
C944 C 0.25697 0.66709 0.64465 0.0
C945 C 0.26311 0.65732 0.6036 0.0
C946 C 0.26735 0.68597 0.65037 0.0
C947 C 0.2841 0.69555 0.61518 0.0
C948 C 0.29047 0.6858 0.57557 0.0
H949 H 0.36774 0.80864 0.58692 0.0
H950 H 0.34966 0.77563 0.5823 0.0
C951 C 0.28004 0.66693 0.56941 0.0
C952 C 0.29497 0.71568 0.62066 0.0
H953 H 0.31515 0.75446 0.52035 0.0
C954 C 0.2999 0.72371 0.6892 0.0
C955 C 0.30038 0.72696 0.55904 0.0
C956 C 0.29472 0.71934 0.48407 0.0
C957 C 0.31039 0.74261 0.6977 0.0
C958 C 0.31593 0.75385 0.63606 0.0
C959 C 0.31095 0.74584 0.56758 0.0
C960 C 0.32701 0.77394 0.64119 0.0
C961 C 0.31581 0.75039 0.77253 0.0
C962 C 0.32027 0.78405 0.67555 0.0
C963 C 0.33059 0.803 0.67829 0.0
C964 C 0.34786 0.81224 0.64651 0.0
C965 C 0.35455 0.80204 0.61222 0.0
C966 C 0.34421 0.78312 0.60938 0.0
H967 H 0.31424 0.73996 0.8122 0.0
H968 H 0.33007 0.76162 0.77356 0.0
H969 H 0.30706 0.7559 0.78983 0.0
H970 H 0.3069 0.7773 0.69934 0.0
H971 H 0.32495 0.81038 0.70479 0.0
H972 H 0.41822 0.64709 0.53045 0.0
H973 H 0.38533 0.63245 0.54366 0.0
H974 H 0.38634 0.59461 0.69473 0.0
H975 H 0.4192 0.60931 0.68242 0.0
H976 H 0.35944 0.59819 0.51353 0.0
H977 H 0.35648 0.61112 0.80433 0.0
H978 H 0.37726 0.62228 0.7536 0.0
H979 H 0.36874 0.59955 0.78586 0.0
C980 C 0.41144 0.63567 0.56661 0.0
C981 C 0.4214 0.62946 0.60571 0.0
C982 C 0.39263 0.62733 0.57428 0.0
C983 C 0.38331 0.6126 0.6212 0.0
C984 C 0.3932 0.60627 0.6598 0.0
H985 H 0.26888 0.53911 0.71132 0.0
H986 H 0.30196 0.55426 0.70467 0.0
C987 C 0.41203 0.61467 0.65256 0.0
C988 C 0.36322 0.60345 0.62748 0.0
H989 H 0.32856 0.59061 0.74782 0.0
C990 C 0.35272 0.59665 0.56474 0.0
C991 C 0.35436 0.60135 0.69433 0.0
C992 C 0.36478 0.60911 0.76326 0.0
C993 C 0.33371 0.58763 0.5671 0.0
C994 C 0.32489 0.58549 0.63389 0.0
C995 C 0.33533 0.5922 0.69669 0.0
C996 C 0.30484 0.57653 0.63933 0.0
C997 C 0.32319 0.58016 0.49816 0.0
C998 C 0.29548 0.58416 0.6059 0.0
C999 C 0.27659 0.57559 0.60976 0.0
C1000 C 0.26662 0.55916 0.64729 0.0
C1001 C 0.27608 0.55169 0.68179 0.0
C1002 C 0.295 0.56035 0.67812 0.0
H1003 H 0.33163 0.57906 0.45506 0.0
H1004 H 0.31117 0.56659 0.50711 0.0
H1005 H 0.3184 0.58935 0.47889 0.0
H1006 H 0.30279 0.59679 0.5767 0.0
H1007 H 0.26983 0.5818 0.5827 0.0
H1008 H 1.00683 0.18155 0.75568 0.0
H1009 H 1.011 0.18164 0.62502 0.0
H1010 H 0.06859 0.21613 0.65238 0.0
H1011 H 0.06454 0.21588 0.78281 0.0
H1012 H 1.02598 0.21194 0.53595 0.0
H1013 H 0.06518 0.17613 0.52084 0.0
H1014 H 0.05279 0.17572 0.60029 0.0
H1015 H 0.07457 0.19506 0.58163 0.0
C1016 C 1.02038 0.18898 0.73373 0.0
C1017 C 0.03537 0.19869 0.77906 0.0
C1018 C 1.02274 0.18904 0.65927 0.0
C1019 C 0.04011 0.19872 0.62923 0.0
C1020 C 0.05511 0.20829 0.67461 0.0
H1021 H 0.0837 0.22434 0.19718 0.0
H1022 H 0.07888 0.22283 0.32776 0.0
C1023 C 0.05277 0.20821 0.74901 0.0
C1024 C 0.04248 0.1996 0.55019 0.0
H1025 H 0.06376 0.19072 0.41391 0.0
C1026 C 1.03413 0.20718 0.50912 0.0
C1027 C 0.05317 0.19343 0.51558 0.0
C1028 C 0.06182 0.18447 0.55669 0.0
C1029 C 0.03648 0.2091 0.43428 0.0
C1030 C 0.04727 0.20306 0.39981 0.0
C1031 C 0.05556 0.19541 0.44078 0.0
C1032 C 0.05002 0.20441 0.32105 0.0
C1033 C 1.02774 0.21793 0.39287 0.0
C1034 C 0.03538 0.19448 0.27444 0.0
C1035 C 0.03811 0.1953 0.20012 0.0
C1036 C 0.05552 0.20604 0.17139 0.0
C1037 C 0.07014 0.21601 0.21808 0.0
C1038 C 0.06742 0.21515 0.29246 0.0
H1039 H 1.02352 0.22558 0.42883 0.0
H1040 H 0.0371 0.2273 0.35142 0.0
H1041 H 1.01551 0.20731 0.36498 0.0
H1042 H 1.02191 0.18587 0.29563 0.0
H1043 H 1.02664 0.18731 0.16529 0.0
H1044 H 0.86269 0.87238 0.78461 0.0
H1045 H 0.86209 0.87592 0.65408 0.0
H1046 H 0.89564 0.85178 0.62557 0.0
H1047 H 0.89642 0.84832 0.75643 0.0
H1048 H 0.90618 0.88401 0.54303 0.0
H1049 H 0.83317 0.83337 0.51295 0.0
H1050 H 0.83827 0.85071 0.57896 0.0
H1051 H 0.84595 0.83478 0.59259 0.0
C1052 C 0.86998 0.86788 0.75052 0.0
C1053 C 0.87949 0.85995 0.78033 0.0
C1054 C 0.86955 0.86983 0.67606 0.0
C1055 C 0.87856 0.86382 0.63035 0.0
C1056 C 0.8885 0.85637 0.66011 0.0
H1057 H 0.89219 0.86395 0.16632 0.0
H1058 H 0.89341 0.86042 0.2966 0.0
C1059 C 0.88892 0.8544 0.73465 0.0
C1060 C 0.87759 0.86531 0.5514 0.0
H1061 H 0.8482 0.8506 0.40961 0.0
C1062 C 0.89354 0.87666 0.51366 0.0
C1063 C 0.86105 0.8557 0.5136 0.0
C1064 C 0.84363 0.84282 0.55133 0.0
C1065 C 0.89334 0.87896 0.43895 0.0
C1066 C 0.87679 0.86934 0.40109 0.0
C1067 C 0.86085 0.85795 0.43889 0.0
C1068 C 0.87569 0.87099 0.32221 0.0
C1069 C 0.91075 0.89198 0.40152 0.0
C1070 C 0.86485 0.87753 0.29343 0.0
C1071 C 0.86395 0.87934 0.21903 0.0
C1072 C 0.87382 0.87455 0.17238 0.0
C1073 C 0.88443 0.86771 0.20117 0.0
C1074 C 0.88527 0.86585 0.27552 0.0
H1075 H 0.92101 0.90165 0.44001 0.0
H1076 H 0.91644 0.88425 0.37508 0.0
H1077 H 0.90836 0.8998 0.35946 0.0
H1078 H 0.85727 0.88145 0.32863 0.0
H1079 H 0.85565 0.8846 0.19808 0.0
H1080 H 0.20677 1.01417 0.7854 0.0
H1081 H 0.20322 1.01005 0.65479 0.0
H1082 H 0.22737 0.06778 0.62709 0.0
H1083 H 0.23084 0.07199 0.75799 0.0
H1084 H 0.19519 0.0461 0.54392 0.0
H1085 H 0.24589 1.02376 0.5146 0.0
H1086 H 0.22854 1.01151 0.58026 0.0
H1087 H 0.24441 0.03512 0.59426 0.0
C1088 C 0.21127 0.02597 0.75145 0.0
C1089 C 0.21922 0.04342 0.78148 0.0
C1090 C 0.20931 1.02361 0.67697 0.0
C1091 C 0.21533 0.03865 0.63149 0.0
C1092 C 0.22277 0.05604 0.66147 0.0
H1093 H 0.21559 0.05229 0.16759 0.0
H1094 H 0.21904 0.05703 0.29796 0.0
C1095 C 0.22476 0.05842 0.73603 0.0
C1096 C 0.21389 0.03621 0.55254 0.0
H1097 H 0.22876 1.02162 0.41093 0.0
C1098 C 0.20257 0.04083 0.51464 0.0
C1099 C 0.22356 0.02932 0.51487 0.0
C1100 C 0.23641 0.02477 0.55282 0.0
C1101 C 0.20035 0.03837 0.43987 0.0
C1102 C 0.21 0.03145 0.40216 0.0
C1103 C 0.22138 0.0269 0.44012 0.0
C1104 C 0.20841 0.02872 0.32328 0.0
C1105 C 0.18735 0.04277 0.40219 0.0
C1106 C 0.20186 1.01133 0.29438 0.0
C1107 C 0.20009 1.00862 0.21996 0.0
C1108 C 0.20492 1.02329 0.17344 0.0
C1109 C 0.21178 0.04075 0.20235 0.0
C1110 C 0.2136 0.04345 0.27674 0.0
H1111 H 0.17768 0.04341 0.44049 0.0
H1112 H 0.19509 0.05619 0.37582 0.0
H1113 H 0.17956 0.03256 0.36002 0.0
H1114 H 0.19789 0.99981 0.3295 0.0
H1115 H 0.1948 0.99504 0.19889 0.0
H1116 H 0.75136 0.55736 0.52891 0.0
H1117 H 0.74659 0.55568 0.65948 0.0
H1118 H 0.68961 0.51873 0.62743 0.0
H1119 H 0.69438 0.52 0.49713 0.0
H1120 H 0.72456 0.56436 0.74032 0.0
H1121 H 0.7037 0.49174 0.77123 0.0
H1122 H 0.71434 0.50436 0.69052 0.0
H1123 H 0.69069 0.496 0.70636 0.0
C1124 C 0.73784 0.54887 0.54986 0.0
C1125 C 0.72324 0.53881 0.50318 0.0
C1126 C 0.73513 0.54793 0.62428 0.0
C1127 C 0.7178 0.53686 0.65307 0.0
C1128 C 0.70315 0.52706 0.60636 0.0
H1129 H 0.67453 0.5163 0.08767 0.0
H1130 H 0.67873 0.51691 0.95678 0.0
C1131 C 0.70586 0.52794 0.53198 0.0
C1132 C 0.71506 0.5358 0.73197 0.0
H1133 H 0.70066 0.50655 0.87415 0.0
C1134 C 0.71941 0.55175 0.76967 0.0
C1135 C 0.70831 0.5193 0.76996 0.0
C1136 C 0.70413 0.50189 0.73266 0.0
C1137 C 0.71696 0.5516 0.84439 0.0
C1138 C 0.71023 0.53511 0.88232 0.0
C1139 C 0.7058 0.51915 0.84469 0.0
C1140 C 0.7078 0.53421 0.9613 0.0
C1141 C 0.72131 0.56902 0.882 0.0
C1142 C 0.72281 0.5434 0.00689 0.0
C1143 C 0.72046 0.54306 0.08136 0.0
C1144 C 0.70305 0.53347 0.11133 0.0
C1145 C 0.68808 0.52386 0.06578 0.0
C1146 C 0.69045 0.52419 -0.00878 0.0
H1147 H 0.7222 0.5794 0.84354 0.0
H1148 H 0.71092 0.56662 0.92321 0.0
H1149 H 0.73455 0.57455 0.90968 0.0
H1150 H 0.73634 0.55093 0.98479 0.0
H1151 H 0.73224 0.55048 0.11535 0.0
H1152 H 0.52294 0.21837 0.53087 0.0
H1153 H 0.52451 0.21518 0.66141 0.0
H1154 H 0.55963 0.19294 0.62919 0.0
H1155 H 0.55845 0.19649 0.4989 0.0
H1156 H 0.51479 0.18414 0.74233 0.0
H1157 H 0.58796 0.23402 0.77259 0.0
H1158 H 0.5754 0.23247 0.69211 0.0
H1159 H 0.58298 0.21652 0.7076 0.0
C1160 C 0.531 0.21283 0.55177 0.0
C1161 C 0.5406 0.20771 0.50506 0.0
C1162 C 0.53188 0.211 0.62617 0.0
C1163 C 0.54243 0.20411 0.65489 0.0
C1164 C 0.55173 0.19865 0.60815 0.0
H1165 H 0.56235 0.18063 0.08905 0.0
H1166 H 0.5617 0.18421 0.95821 0.0
C1167 C 0.5509 0.20053 0.53379 0.0
C1168 C 0.54348 0.20242 0.73377 0.0
H1169 H 0.57287 0.21655 0.87566 0.0
C1170 C 0.52747 0.19128 0.77159 0.0
C1171 C 0.56006 0.21174 0.7716 0.0
C1172 C 0.57757 0.2245 0.73412 0.0
C1173 C 0.52762 0.189 0.8463 0.0
C1174 C 0.54419 0.19833 0.88408 0.0
C1175 C 0.56021 0.20942 0.84631 0.0
C1176 C 0.54511 0.1968 0.96303 0.0
C1177 C 0.51011 0.17639 0.88405 0.0
C1178 C 0.53635 0.20308 0.00877 0.0
C1179 C 0.53671 0.20107 0.08322 0.0
C1180 C 0.5459 0.1928 0.11299 0.0
C1181 C 0.5551 0.18697 0.0673 0.0
C1182 C 0.55474 0.18901 -0.00723 0.0
H1183 H 0.49954 0.16707 0.84567 0.0
H1184 H 0.5122 0.1682 0.92529 0.0
H1185 H 0.505 0.18449 0.9117 0.0
H1186 H 0.52914 0.20944 -0.01319 0.0
H1187 H 0.52961 0.20579 0.11734 0.0
H1188 H 0.86148 0.3283 0.53398 0.0
H1189 H 0.86457 0.33297 0.66463 0.0
H1190 H 0.88524 0.39014 0.63409 0.0
H1191 H 0.88216 0.38555 0.50345 0.0
H1192 H 0.90537 0.38107 0.73301 0.0
H1193 H 0.83166 0.34462 0.79164 0.0
H1194 H 0.83942 0.3322 0.73851 0.0
H1195 H 0.84061 0.35231 0.70243 0.0
C1196 C 0.86669 0.34185 0.55523 0.0
C1197 C 0.87157 0.35657 0.50889 0.0
C1198 C 0.86837 0.34448 0.6297 0.0
C1199 C 0.87488 0.36185 0.65879 0.0
C1200 C 0.8801 0.37662 0.61251 0.0
H1201 H 0.89731 0.40562 0.0944 0.0
H1202 H 0.89367 0.40168 0.96357 0.0
C1203 C 0.87838 0.37399 0.53805 0.0
C1204 C 0.87637 0.36463 0.73758 0.0
H1205 H 0.85146 0.35376 0.892 0.0
C1206 C 0.89361 0.37519 0.76788 0.0
C1207 C 0.86096 0.35691 0.78257 0.0
C1208 C 0.84208 0.34599 0.75232 0.0
C1209 C 0.89589 0.37793 0.84251 0.0
C1210 C 0.88047 0.37018 0.88759 0.0
C1211 C 0.86323 0.35968 0.85719 0.0
C1212 C 0.88199 0.37257 0.96665 0.0
C1213 C 0.91481 0.38868 0.8726 0.0
C1214 C 0.87603 0.35744 0.01163 0.0
C1215 C 0.87797 0.35965 0.0862 0.0
C1216 C 0.88585 0.37702 0.11685 0.0
C1217 C 0.89133 0.3921 0.07195 0.0
C1218 C 0.88936 0.38989 -0.00265 0.0
H1219 H 0.92514 0.38978 0.83336 0.0
H1220 H 0.91771 0.40258 0.88566 0.0
H1221 H 0.91621 0.38242 0.92278 0.0
H1222 H 0.87019 0.34396 -0.01109 0.0
H1223 H 0.87356 0.34779 0.11972 0.0
H1224 H 0.3982 0.88242 0.45082 0.0
H1225 H 0.40232 0.88293 0.32026 0.0
H1226 H 0.3446 0.85009 0.29165 0.0
H1227 H 0.34037 0.8494 0.42252 0.0
H1228 H 0.36598 0.83916 0.20846 0.0
H1229 H 0.3892 0.91246 0.18046 0.0
H1230 H 0.40123 0.90707 0.24618 0.0
H1231 H 0.37771 0.89966 0.25979 0.0
C1232 C 0.3864 0.87526 0.41669 0.0
C1233 C 0.36895 0.86599 0.44645 0.0
C1234 C 0.38877 0.87564 0.34224 0.0
C1235 C 0.37374 0.86682 0.29652 0.0
C1236 C 0.35634 0.85709 0.32623 0.0
H1237 H 0.3601 0.85378 0.83241 0.0
H1238 H 0.35538 0.85248 0.96275 0.0
C1239 C 0.35395 0.85671 0.40077 0.0
C1240 C 0.37619 0.86782 0.2176 0.0
H1241 H 0.39113 0.89737 0.07657 0.0
C1242 C 0.3714 0.85184 0.17942 0.0
C1243 C 0.38328 0.88443 0.18025 0.0
C1244 C 0.38803 0.90188 0.2185 0.0
C1245 C 0.37387 0.85208 0.10468 0.0
C1246 C 0.38098 0.8687 0.06728 0.0
C1247 C 0.38571 0.88467 0.10552 0.0
C1248 C 0.38371 0.86984 -0.01157 0.0
C1249 C 0.36927 0.83464 0.06669 0.0
C1250 C 0.40111 0.88052 0.95974 0.0
C1251 C 0.40381 0.88146 0.88533 0.0
C1252 C 0.38911 0.8718 0.83862 0.0
C1253 C 0.37165 0.86138 0.86733 0.0
C1254 C 0.36896 0.86049 0.94169 0.0
H1255 H 0.3685 0.82424 0.10483 0.0
H1256 H 0.35589 0.82914 0.04018 0.0
H1257 H 0.37944 0.83694 0.02461 0.0
H1258 H 0.41264 0.88793 -0.00499 0.0
H1259 H 0.41739 0.88961 0.86443 0.0
H1260 H 0.22499 0.52926 0.83452 0.0
H1261 H 0.2258 0.52537 0.96486 0.0
H1262 H 0.19016 0.54704 -0.00385 0.0
H1263 H 0.18901 0.55061 0.86576 0.0
H1264 H 0.23765 0.55204 0.07064 0.0
H1265 H 0.1656 0.50018 0.11245 0.0
H1266 H 0.17598 0.50558 0.0245 0.0
H1267 H 0.16883 0.52003 0.06603 0.0
C1268 C 0.21717 0.53299 0.86921 0.0
C1269 C 0.20682 0.54011 0.84027 0.0
C1270 C 0.21769 0.53082 0.94354 0.0
C1271 C 0.20785 0.53568 -0.01 0.0
C1272 C 0.19756 0.54285 0.96111 0.0
H1273 H 0.1962 0.5382 0.45194 0.0
H1274 H 0.19602 0.54204 0.32136 0.0
C1275 C 0.19699 0.54498 0.88677 0.0
C1276 C 0.20885 0.53385 0.06886 0.0
H1277 H 0.18314 0.51365 0.21758 0.0
C1278 C 0.22576 0.54357 0.1028 0.0
C1279 C 0.1933 0.52279 0.11051 0.0
C1280 C 0.17492 0.51141 0.07656 0.0
C1281 C 0.22749 0.54281 0.17767 0.0
C1282 C 0.21193 0.53186 0.2193 0.0
C1283 C 0.19503 0.52209 0.18537 0.0
C1284 C 0.21284 0.53029 0.29829 0.0
C1285 C 0.24588 0.55402 0.21182 0.0
C1286 C 0.22237 0.52243 0.32835 0.0
C1287 C 0.22248 0.52021 0.40285 0.0
C1288 C 0.21299 0.52576 0.44823 0.0
C1289 C 0.20363 0.53381 0.41811 0.0
C1290 C 0.20349 0.53599 0.34366 0.0
H1291 H 0.25553 0.56481 0.17512 0.0
H1292 H 0.24488 0.56039 0.26252 0.0
H1293 H 0.25149 0.54511 0.22517 0.0
H1294 H 0.22942 0.51769 0.29408 0.0
H1295 H 0.22977 0.51393 0.42482 0.0
H1296 H 0.56449 0.73857 0.42507 0.0
H1297 H 0.56031 0.73445 0.29438 0.0
H1298 H 0.53624 0.67669 0.32099 0.0
H1299 H 0.54014 0.6807 0.45145 0.0
H1300 H 0.57486 0.71904 0.20366 0.0
H1301 H 0.49987 0.68082 0.19153 0.0
H1302 H 0.51215 0.69306 0.27083 0.0
H1303 H 0.50926 0.67111 0.25124 0.0
C1304 C 0.55815 0.725 0.40295 0.0
C1305 C 0.55262 0.70995 0.44811 0.0
C1306 C 0.5558 0.72267 0.32846 0.0
C1307 C 0.54777 0.70526 0.29817 0.0
C1308 C 0.54213 0.69021 0.34338 0.0
H1309 H 0.52814 0.6614 0.86563 0.0
H1310 H 0.5317 0.66629 -0.00382 0.0
C1311 C 0.54445 0.69253 0.41781 0.0
C1312 C 0.54606 0.70288 0.21906 0.0
H1313 H 0.51548 0.68191 0.08373 0.0
C1314 C 0.56188 0.71104 0.1773 0.0
C1315 C 0.5291 0.69239 0.18502 0.0
C1316 C 0.5116 0.68397 0.22681 0.0
C1317 C 0.56122 0.70868 0.10237 0.0
C1318 C 0.54427 0.69806 0.06847 0.0
C1319 C 0.52845 0.68997 0.11012 0.0
C1320 C 0.54264 0.69526 -0.01036 0.0
C1321 C 0.57867 0.7172 0.06025 0.0
C1322 C 0.54752 0.70992 0.94307 0.0
C1323 C 0.54547 0.70716 0.86874 0.0
C1324 C 0.53848 0.68967 0.83992 0.0
C1325 C 0.53361 0.67501 0.88657 0.0
C1326 C 0.53562 0.67778 0.96095 0.0
H1327 H 0.59058 0.72125 0.09565 0.0
H1328 H 0.57841 0.70775 0.01842 0.0
H1329 H 0.58042 0.72952 0.03276 0.0
H1330 H 0.55265 0.72346 0.96431 0.0
H1331 H 0.54913 0.71866 0.83396 0.0
loop_
_geom_bond_atom_site_label_1
_geom_bond_atom_site_label_2
_geom_bond_distance
_geom_bond_site_symmetry_2
_ccdc_geom_bond_type
Tb0 C2 2.809 . S
Tb0 O20 2.484 . S
Tb0 O21 2.440 1_554 S
Tb0 O22 2.658 1_654 S
Tb0 O23 2.409 1_554 S
Tb0 O24 2.378 1_654 S
Tb0 O28 2.325 1_655 S
Tb0 O31 2.341 . S
Tb1 C11 2.809 1_554 S
Tb1 O22 2.325 1_554 S
Tb1 O25 2.341 1_554 S
Tb1 O26 2.484 1_554 S
Tb1 O27 2.440 . S
Tb1 O28 2.658 . S
Tb1 O29 2.409 . S
Tb1 O30 2.378 . S
C2 Tb0 2.809 . S
C2 C3 1.514 . S
C2 O20 1.248 . S
C2 O21 1.266 1_554 S
C3 C2 1.514 . S
C3 C4 1.359 . S
C3 C8 1.348 1_554 S
C4 C3 1.359 . S
C4 C5 1.380 . S
C4 H32 0.929 . S
C5 C4 1.380 . S
C5 C6 1.347 . S
C5 H33 0.931 . S
C6 C5 1.347 . S
C6 C7 1.369 1_554 S
C7 C6 1.369 1_556 S
C7 C8 1.408 . S
C7 H34 0.930 . S
C8 C3 1.348 1_556 S
C8 C7 1.408 . S
C8 H35 0.930 . S
C9 O22 1.281 . S
C9 O23 1.254 1_455 S
C10 O24 1.236 . S
C10 O25 1.266 . S
C11 Tb1 2.809 1_556 S
C11 C12 1.514 . S
C11 O26 1.248 . S
C11 O27 1.266 1_556 S
C12 C11 1.514 . S
C12 C13 1.359 . S
C12 C17 1.348 1_556 S
C13 C12 1.359 . S
C13 C14 1.380 . S
C13 H36 0.929 . S
C14 C13 1.380 . S
C14 C15 1.347 . S
C14 H37 0.931 . S
C15 C14 1.347 . S
C15 C16 1.369 1_556 S
C16 C15 1.369 1_554 S
C16 C17 1.408 . S
C16 H38 0.930 . S
C17 C12 1.348 1_554 S
C17 C16 1.408 . S
C17 H39 0.930 . S
C18 O28 1.281 . S
C18 O29 1.254 . S
C19 O30 1.236 1_655 S
C19 O31 1.266 . S
O20 Tb0 2.484 . S
O20 C2 1.248 . S
O21 Tb0 2.440 1_556 S
O21 C2 1.266 1_556 S
O22 Tb0 2.658 1_456 S
O22 Tb1 2.325 1_556 S
O22 C9 1.281 . S
O23 Tb0 2.409 1_556 S
O23 C9 1.254 1_655 S
O24 Tb0 2.378 1_456 S
O24 C10 1.236 . S
O25 Tb1 2.341 1_556 S
O25 C10 1.266 . S
O26 Tb1 2.484 1_556 S
O26 C11 1.248 . S
O27 Tb1 2.440 . S
O27 C11 1.266 1_554 S
O28 Tb0 2.325 1_455 S
O28 Tb1 2.658 . S
O28 C18 1.281 . S
O29 Tb1 2.409 . S
O29 C18 1.254 . S
O30 Tb1 2.378 . S
O30 C19 1.236 1_455 S
O31 Tb0 2.341 . S
O31 C19 1.266 . S
H32 C4 0.929 . S
H33 C5 0.931 . S
H34 C7 0.930 . S
H35 C8 0.930 . S
H36 C13 0.929 . S
H37 C14 0.931 . S
H38 C16 0.930 . S
H39 C17 0.930 . S
Tb40 C42 2.809 . S
Tb40 O60 2.484 . S
Tb40 O61 2.440 1_554 S
Tb40 O62 2.658 1_554 S
Tb40 O63 2.409 1_554 S
Tb40 O64 2.378 1_554 S
Tb40 O68 2.325 . S
Tb40 O71 2.341 . S
Tb41 C51 2.809 1_554 S
Tb41 O62 2.325 1_554 S
Tb41 O65 2.341 1_554 S
Tb41 O66 2.484 1_554 S
Tb41 O67 2.440 . S
Tb41 O68 2.658 . S
Tb41 O69 2.409 . S
Tb41 O70 2.378 . S
C42 Tb40 2.809 . S
C42 C43 1.514 . S
C42 O60 1.248 . S
C42 O61 1.266 1_554 S
C43 C42 1.514 . S
C43 C44 1.359 . S
C43 C48 1.348 1_554 S
C44 C43 1.359 . S
C44 C45 1.380 . S
C44 H72 0.929 . S
C45 C44 1.380 . S
C45 C46 1.347 . S
C45 H73 0.931 . S
C46 C45 1.347 . S
C46 C47 1.369 1_554 S
C47 C46 1.369 1_556 S
C47 C48 1.408 . S
C47 H74 0.930 . S
C48 C43 1.348 1_556 S
C48 C47 1.408 . S
C48 H75 0.930 . S
C49 O62 1.281 . S
C49 O63 1.254 . S
C50 O64 1.236 . S
C50 O65 1.266 . S
C51 Tb41 2.809 1_556 S
C51 C52 1.514 . S
C51 O66 1.248 . S
C51 O67 1.266 1_556 S
C52 C51 1.514 . S
C52 C53 1.359 . S
C52 C57 1.348 1_556 S
C53 C52 1.359 . S
C53 C54 1.380 . S
C53 H76 0.929 . S
C54 C53 1.380 . S
C54 C55 1.347 . S
C54 H77 0.931 . S
C55 C54 1.347 . S
C55 C56 1.369 1_556 S
C56 C55 1.369 1_554 S
C56 C57 1.408 . S
C56 H78 0.930 . S
C57 C52 1.348 1_554 S
C57 C56 1.408 . S
C57 H79 0.930 . S
C58 O68 1.281 . S
C58 O69 1.254 . S
C59 O70 1.236 . S
C59 O71 1.266 . S
O60 Tb40 2.484 . S
O60 C42 1.248 . S
O61 Tb40 2.440 1_556 S
O61 C42 1.266 1_556 S
O62 Tb40 2.658 1_556 S
O62 Tb41 2.325 1_556 S
O62 C49 1.281 . S
O63 Tb40 2.409 1_556 S
O63 C49 1.254 . S
O64 Tb40 2.378 1_556 S
O64 C50 1.236 . S
O65 Tb41 2.341 1_556 S
O65 C50 1.266 . S
O66 Tb41 2.484 1_556 S
O66 C51 1.248 . S
O67 Tb41 2.440 . S
O67 C51 1.266 1_554 S
O68 Tb40 2.325 . S
O68 Tb41 2.658 . S
O68 C58 1.281 . S
O69 Tb41 2.409 . S
O69 C58 1.254 . S
O70 Tb41 2.378 . S
O70 C59 1.236 . S
O71 Tb40 2.341 . S
O71 C59 1.266 . S
H72 C44 0.929 . S
H73 C45 0.931 . S
H74 C47 0.930 . S
H75 C48 0.930 . S
H76 C53 0.929 . S
H77 C54 0.931 . S
H78 C56 0.930 . S
H79 C57 0.930 . S
Tb80 C82 2.809 . S
Tb80 O100 2.484 . S
Tb80 O101 2.440 1_554 S
Tb80 O102 2.658 1_554 S
Tb80 O103 2.409 1_554 S
Tb80 O104 2.378 1_554 S
Tb80 O108 2.325 . S
Tb80 O111 2.341 . S
Tb81 C91 2.809 1_554 S
Tb81 O102 2.325 1_564 S
Tb81 O105 2.341 1_554 S
Tb81 O106 2.484 1_554 S
Tb81 O107 2.440 . S
Tb81 O108 2.658 1_565 S
Tb81 O109 2.409 . S
Tb81 O110 2.378 1_565 S
C82 Tb80 2.809 . S
C82 C83 1.514 . S
C82 O100 1.248 . S
C82 O101 1.266 1_554 S
C83 C82 1.514 . S
C83 C84 1.359 . S
C83 C88 1.348 1_554 S
C84 C83 1.359 . S
C84 C85 1.380 . S
C84 H112 0.929 . S
C85 C84 1.380 . S
C85 C86 1.347 . S
C85 H113 0.931 . S
C86 C85 1.347 . S
C86 C87 1.369 1_554 S
C87 C86 1.369 1_556 S
C87 C88 1.408 . S
C87 H114 0.930 . S
C88 C83 1.348 1_556 S
C88 C87 1.408 . S
C88 H115 0.930 . S
C89 O102 1.281 . S
C89 O103 1.254 . S
C90 O104 1.236 1_565 S
C90 O105 1.266 . S
C91 Tb81 2.809 1_556 S
C91 C92 1.514 . S
C91 O106 1.248 . S
C91 O107 1.266 1_556 S
C92 C91 1.514 . S
C92 C93 1.359 . S
C92 C97 1.348 1_556 S
C93 C92 1.359 . S
C93 C94 1.380 . S
C93 H116 0.929 . S
C94 C93 1.380 . S
C94 C95 1.347 . S
C94 H117 0.931 . S
C95 C94 1.347 . S
C95 C96 1.369 1_556 S
C96 C95 1.369 1_554 S
C96 C97 1.408 . S
C96 H118 0.930 . S
C97 C92 1.348 1_554 S
C97 C96 1.408 . S
C97 H119 0.930 . S
C98 O108 1.281 . S
C98 O109 1.254 1_545 S
C99 O110 1.236 . S
C99 O111 1.266 . S
O100 Tb80 2.484 . S
O100 C82 1.248 . S
O101 Tb80 2.440 1_556 S
O101 C82 1.266 1_556 S
O102 Tb80 2.658 1_556 S
O102 Tb81 2.325 1_546 S
O102 C89 1.281 . S
O103 Tb80 2.409 1_556 S
O103 C89 1.254 . S
O104 Tb80 2.378 1_556 S
O104 C90 1.236 1_545 S
O105 Tb81 2.341 1_556 S
O105 C90 1.266 . S
O106 Tb81 2.484 1_556 S
O106 C91 1.248 . S
O107 Tb81 2.440 . S
O107 C91 1.266 1_554 S
O108 Tb80 2.325 . S
O108 Tb81 2.658 1_545 S
O108 C98 1.281 . S
O109 Tb81 2.409 . S
O109 C98 1.254 1_565 S
O110 Tb81 2.378 1_545 S
O110 C99 1.236 . S
O111 Tb80 2.341 . S
O111 C99 1.266 . S
H112 C84 0.929 . S
H113 C85 0.931 . S
H114 C87 0.930 . S
H115 C88 0.930 . S
H116 C93 0.929 . S
H117 C94 0.931 . S
H118 C96 0.930 . S
H119 C97 0.930 . S
Tb120 C122 2.809 . S
Tb120 O140 2.484 . S
Tb120 O141 2.440 . S
Tb120 O142 2.658 . S
Tb120 O143 2.409 . S
Tb120 O144 2.378 . S
Tb120 O148 2.325 . S
Tb120 O151 2.341 . S
Tb121 C131 2.809 . S
Tb121 O142 2.325 . S
Tb121 O145 2.341 . S
Tb121 O146 2.484 . S
Tb121 O147 2.440 . S
Tb121 O148 2.658 . S
Tb121 O149 2.409 . S
Tb121 O150 2.378 . S
C122 Tb120 2.809 . S
C122 C123 1.514 . S
C122 O140 1.248 . S
C122 O141 1.266 . S
C123 C122 1.514 . S
C123 C124 1.359 . S
C123 C128 1.348 . S
C124 C123 1.359 . S
C124 C125 1.380 . S
C124 H152 0.929 . S
C125 C124 1.380 . S
C125 C126 1.347 . S
C125 H153 0.931 . S
C126 C125 1.347 . S
C126 C127 1.369 . S
C127 C126 1.369 . S
C127 C128 1.408 . S
C127 H154 0.930 . S
C128 C123 1.348 . S
C128 C127 1.408 . S
C128 H155 0.930 . S
C129 O142 1.281 . S
C129 O143 1.254 . S
C130 O144 1.236 . S
C130 O145 1.266 . S
C131 Tb121 2.809 . S
C131 C132 1.514 . S
C131 O146 1.248 . S
C131 O147 1.266 . S
C132 C131 1.514 . S
C132 C133 1.359 . S
C132 C137 1.348 . S
C133 C132 1.359 . S
C133 C134 1.380 . S
C133 H156 0.929 . S
C134 C133 1.380 . S
C134 C135 1.347 . S
C134 H157 0.931 . S
C135 C134 1.347 . S
C135 C136 1.369 . S
C136 C135 1.369 . S
C136 C137 1.408 . S
C136 H158 0.930 . S
C137 C132 1.348 . S
C137 C136 1.408 . S
C137 H159 0.930 . S
C138 O148 1.281 . S
C138 O149 1.254 . S
C139 O150 1.236 . S
C139 O151 1.266 . S
O140 Tb120 2.484 . S
O140 C122 1.248 . S
O141 Tb120 2.440 . S
O141 C122 1.266 . S
O142 Tb120 2.658 . S
O142 Tb121 2.325 . S
O142 C129 1.281 . S
O143 Tb120 2.409 . S
O143 C129 1.254 . S
O144 Tb120 2.378 . S
O144 C130 1.236 . S
O145 Tb121 2.341 . S
O145 C130 1.266 . S
O146 Tb121 2.484 . S
O146 C131 1.248 . S
O147 Tb121 2.440 . S
O147 C131 1.266 . S
O148 Tb120 2.325 . S
O148 Tb121 2.658 . S
O148 C138 1.281 . S
O149 Tb121 2.409 . S
O149 C138 1.254 . S
O150 Tb121 2.378 . S
O150 C139 1.236 . S
O151 Tb120 2.341 . S
O151 C139 1.266 . S
H152 C124 0.929 . S
H153 C125 0.931 . S
H154 C127 0.930 . S
H155 C128 0.930 . S
H156 C133 0.929 . S
H157 C134 0.931 . S
H158 C136 0.930 . S
H159 C137 0.930 . S
Tb160 C162 2.809 . S
Tb160 O180 2.484 . S
Tb160 O181 2.440 . S
Tb160 O182 2.658 . S
Tb160 O183 2.409 . S
Tb160 O184 2.378 . S
Tb160 O188 2.325 . S
Tb160 O191 2.341 . S
Tb161 C171 2.809 . S
Tb161 O182 2.325 . S
Tb161 O185 2.341 . S
Tb161 O186 2.484 . S
Tb161 O187 2.440 . S
Tb161 O188 2.658 . S
Tb161 O189 2.409 . S
Tb161 O190 2.378 . S
C162 Tb160 2.809 . S
C162 C163 1.514 . S
C162 O180 1.248 . S
C162 O181 1.266 . S
C163 C162 1.514 . S
C163 C164 1.359 . S
C163 C168 1.348 . S
C164 C163 1.359 . S
C164 C165 1.380 . S
C164 H192 0.929 . S
C165 C164 1.380 . S
C165 C166 1.347 . S
C165 H193 0.931 . S
C166 C165 1.347 . S
C166 C167 1.369 . S
C167 C166 1.369 . S
C167 C168 1.408 . S
C167 H194 0.930 . S
C168 C163 1.348 . S
C168 C167 1.408 . S
C168 H195 0.930 . S
C169 O182 1.281 . S
C169 O183 1.254 . S
C170 O184 1.236 . S
C170 O185 1.266 . S
C171 Tb161 2.809 . S
C171 C172 1.514 . S
C171 O186 1.248 . S
C171 O187 1.266 . S
C172 C171 1.514 . S
C172 C173 1.359 . S
C172 C177 1.348 . S
C173 C172 1.359 . S
C173 C174 1.380 . S
C173 H196 0.929 . S
C174 C173 1.380 . S
C174 C175 1.347 . S
C174 H197 0.931 . S
C175 C174 1.347 . S
C175 C176 1.369 . S
C176 C175 1.369 . S
C176 C177 1.408 . S
C176 H198 0.930 . S
C177 C172 1.348 . S
C177 C176 1.408 . S
C177 H199 0.930 . S
C178 O188 1.281 . S
C178 O189 1.254 . S
C179 O190 1.236 . S
C179 O191 1.266 . S
O180 Tb160 2.484 . S
O180 C162 1.248 . S
O181 Tb160 2.440 . S
O181 C162 1.266 . S
O182 Tb160 2.658 . S
O182 Tb161 2.325 . S
O182 C169 1.281 . S
O183 Tb160 2.409 . S
O183 C169 1.254 . S
O184 Tb160 2.378 . S
O184 C170 1.236 . S
O185 Tb161 2.341 . S
O185 C170 1.266 . S
O186 Tb161 2.484 . S
O186 C171 1.248 . S
O187 Tb161 2.440 . S
O187 C171 1.266 . S
O188 Tb160 2.325 . S
O188 Tb161 2.658 . S
O188 C178 1.281 . S
O189 Tb161 2.409 . S
O189 C178 1.254 . S
O190 Tb161 2.378 . S
O190 C179 1.236 . S
O191 Tb160 2.341 . S
O191 C179 1.266 . S
H192 C164 0.929 . S
H193 C165 0.931 . S
H194 C167 0.930 . S
H195 C168 0.930 . S
H196 C173 0.929 . S
H197 C174 0.931 . S
H198 C176 0.930 . S
H199 C177 0.930 . S
Tb200 C202 2.809 . S
Tb200 O220 2.484 . S
Tb200 O221 2.440 . S
Tb200 O222 2.658 . S
Tb200 O223 2.409 . S
Tb200 O224 2.378 . S
Tb200 O228 2.325 . S
Tb200 O231 2.341 . S
Tb201 C211 2.809 . S
Tb201 O222 2.325 . S
Tb201 O225 2.341 . S
Tb201 O226 2.484 . S
Tb201 O227 2.440 . S
Tb201 O228 2.658 . S
Tb201 O229 2.409 . S
Tb201 O230 2.378 . S
C202 Tb200 2.809 . S
C202 C203 1.514 . S
C202 O220 1.248 . S
C202 O221 1.266 . S
C203 C202 1.514 . S
C203 C204 1.359 . S
C203 C208 1.348 . S
C204 C203 1.359 . S
C204 C205 1.380 . S
C204 H232 0.929 . S
C205 C204 1.380 . S
C205 C206 1.347 . S
C205 H233 0.931 . S
C206 C205 1.347 . S
C206 C207 1.369 . S
C207 C206 1.369 . S
C207 C208 1.408 . S
C207 H234 0.930 . S
C208 C203 1.348 . S
C208 C207 1.408 . S
C208 H235 0.930 . S
C209 O222 1.281 . S
C209 O223 1.254 . S
C210 O224 1.236 . S
C210 O225 1.266 . S
C211 Tb201 2.809 . S
C211 C212 1.514 . S
C211 O226 1.248 . S
C211 O227 1.266 . S
C212 C211 1.514 . S
C212 C213 1.359 . S
C212 C217 1.348 . S
C213 C212 1.359 . S
C213 C214 1.380 . S
C213 H236 0.929 . S
C214 C213 1.380 . S
C214 C215 1.347 . S
C214 H237 0.931 . S
C215 C214 1.347 . S
C215 C216 1.369 . S
C216 C215 1.369 . S
C216 C217 1.408 . S
C216 H238 0.930 . S
C217 C212 1.348 . S
C217 C216 1.408 . S
C217 H239 0.930 . S
C218 O228 1.281 . S
C218 O229 1.254 . S
C219 O230 1.236 . S
C219 O231 1.266 . S
O220 Tb200 2.484 . S
O220 C202 1.248 . S
O221 Tb200 2.440 . S
O221 C202 1.266 . S
O222 Tb200 2.658 . S
O222 Tb201 2.325 . S
O222 C209 1.281 . S
O223 Tb200 2.409 . S
O223 C209 1.254 . S
O224 Tb200 2.378 . S
O224 C210 1.236 . S
O225 Tb201 2.341 . S
O225 C210 1.266 . S
O226 Tb201 2.484 . S
O226 C211 1.248 . S
O227 Tb201 2.440 . S
O227 C211 1.266 . S
O228 Tb200 2.325 . S
O228 Tb201 2.658 . S
O228 C218 1.281 . S
O229 Tb201 2.409 . S
O229 C218 1.254 . S
O230 Tb201 2.378 . S
O230 C219 1.236 . S
O231 Tb200 2.341 . S
O231 C219 1.266 . S
H232 C204 0.929 . S
H233 C205 0.931 . S
H234 C207 0.930 . S
H235 C208 0.930 . S
H236 C213 0.929 . S
H237 C214 0.931 . S
H238 C216 0.930 . S
H239 C217 0.930 . S
Tb240 C242 2.809 . S
Tb240 O260 2.484 . S
Tb240 O261 2.440 . S
Tb240 O262 2.658 . S
Tb240 O263 2.409 . S
Tb240 O264 2.378 . S
Tb240 O268 2.325 . S
Tb240 O271 2.341 . S
Tb241 C251 2.809 . S
Tb241 O262 2.325 . S
Tb241 O265 2.341 . S
Tb241 O266 2.484 . S
Tb241 O267 2.440 . S
Tb241 O268 2.658 . S
Tb241 O269 2.409 . S
Tb241 O270 2.378 . S
C242 Tb240 2.809 . S
C242 C243 1.514 . S
C242 O260 1.248 . S
C242 O261 1.266 . S
C243 C242 1.514 . S
C243 C244 1.359 . S
C243 C248 1.348 . S
C244 C243 1.359 . S
C244 C245 1.380 . S
C244 H272 0.929 . S
C245 C244 1.380 . S
C245 C246 1.347 . S
C245 H273 0.931 . S
C246 C245 1.347 . S
C246 C247 1.369 . S
C247 C246 1.369 . S
C247 C248 1.408 . S
C247 H274 0.930 . S
C248 C243 1.348 . S
C248 C247 1.408 . S
C248 H275 0.930 . S
C249 O262 1.281 . S
C249 O263 1.254 . S
C250 O264 1.236 . S
C250 O265 1.266 . S
C251 Tb241 2.809 . S
C251 C252 1.514 . S
C251 O266 1.248 . S
C251 O267 1.266 . S
C252 C251 1.514 . S
C252 C253 1.359 . S
C252 C257 1.348 . S
C253 C252 1.359 . S
C253 C254 1.380 . S
C253 H276 0.929 . S
C254 C253 1.380 . S
C254 C255 1.347 . S
C254 H277 0.931 . S
C255 C254 1.347 . S
C255 C256 1.369 . S
C256 C255 1.369 . S
C256 C257 1.408 . S
C256 H278 0.930 . S
C257 C252 1.348 . S
C257 C256 1.408 . S
C257 H279 0.930 . S
C258 O268 1.281 . S
C258 O269 1.254 . S
C259 O270 1.236 . S
C259 O271 1.266 . S
O260 Tb240 2.484 . S
O260 C242 1.248 . S
O261 Tb240 2.440 . S
O261 C242 1.266 . S
O262 Tb240 2.658 . S
O262 Tb241 2.325 . S
O262 C249 1.281 . S
O263 Tb240 2.409 . S
O263 C249 1.254 . S
O264 Tb240 2.378 . S
O264 C250 1.236 . S
O265 Tb241 2.341 . S
O265 C250 1.266 . S
O266 Tb241 2.484 . S
O266 C251 1.248 . S
O267 Tb241 2.440 . S
O267 C251 1.266 . S
O268 Tb240 2.325 . S
O268 Tb241 2.658 . S
O268 C258 1.281 . S
O269 Tb241 2.409 . S
O269 C258 1.254 . S
O270 Tb241 2.378 . S
O270 C259 1.236 . S
O271 Tb240 2.341 . S
O271 C259 1.266 . S
H272 C244 0.929 . S
H273 C245 0.931 . S
H274 C247 0.930 . S
H275 C248 0.930 . S
H276 C253 0.929 . S
H277 C254 0.931 . S
H278 C256 0.930 . S
H279 C257 0.930 . S
Tb280 C282 2.809 . S
Tb280 O300 2.484 . S
Tb280 O301 2.440 . S
Tb280 O302 2.658 . S
Tb280 O303 2.409 . S
Tb280 O304 2.378 . S
Tb280 O308 2.325 . S
Tb280 O311 2.341 . S
Tb281 C291 2.809 . S
Tb281 O302 2.325 . S
Tb281 O305 2.341 . S
Tb281 O306 2.484 . S
Tb281 O307 2.440 . S
Tb281 O308 2.658 . S
Tb281 O309 2.409 . S
Tb281 O310 2.378 . S
C282 Tb280 2.809 . S
C282 C283 1.514 . S
C282 O300 1.248 . S
C282 O301 1.266 . S
C283 C282 1.514 . S
C283 C284 1.359 . S
C283 C288 1.348 . S
C284 C283 1.359 . S
C284 C285 1.380 . S
C284 H312 0.929 . S
C285 C284 1.380 . S
C285 C286 1.347 . S
C285 H313 0.931 . S
C286 C285 1.347 . S
C286 C287 1.369 . S
C287 C286 1.369 . S
C287 C288 1.408 . S
C287 H314 0.930 . S
C288 C283 1.348 . S
C288 C287 1.408 . S
C288 H315 0.930 . S
C289 O302 1.281 . S
C289 O303 1.254 . S
C290 O304 1.236 . S
C290 O305 1.266 . S
C291 Tb281 2.809 . S
C291 C292 1.514 . S
C291 O306 1.248 . S
C291 O307 1.266 . S
C292 C291 1.514 . S
C292 C293 1.359 . S
C292 C297 1.348 . S
C293 C292 1.359 . S
C293 C294 1.380 . S
C293 H316 0.929 . S
C294 C293 1.380 . S
C294 C295 1.347 . S
C294 H317 0.931 . S
C295 C294 1.347 . S
C295 C296 1.369 . S
C296 C295 1.369 . S
C296 C297 1.408 . S
C296 H318 0.930 . S
C297 C292 1.348 . S
C297 C296 1.408 . S
C297 H319 0.930 . S
C298 O308 1.281 . S
C298 O309 1.254 . S
C299 O310 1.236 . S
C299 O311 1.266 . S
O300 Tb280 2.484 . S
O300 C282 1.248 . S
O301 Tb280 2.440 . S
O301 C282 1.266 . S
O302 Tb280 2.658 . S
O302 Tb281 2.325 . S
O302 C289 1.281 . S
O303 Tb280 2.409 . S
O303 C289 1.254 . S
O304 Tb280 2.378 . S
O304 C290 1.236 . S
O305 Tb281 2.341 . S
O305 C290 1.266 . S
O306 Tb281 2.484 . S
O306 C291 1.248 . S
O307 Tb281 2.440 . S
O307 C291 1.266 . S
O308 Tb280 2.325 . S
O308 Tb281 2.658 . S
O308 C298 1.281 . S
O309 Tb281 2.409 . S
O309 C298 1.254 . S
O310 Tb281 2.378 . S
O310 C299 1.236 . S
O311 Tb280 2.341 . S
O311 C299 1.266 . S
H312 C284 0.929 . S
H313 C285 0.931 . S
H314 C287 0.930 . S
H315 C288 0.930 . S
H316 C293 0.929 . S
H317 C294 0.931 . S
H318 C296 0.930 . S
H319 C297 0.930 . S
Tb320 C322 2.809 . S
Tb320 O340 2.484 . S
Tb320 O341 2.440 . S
Tb320 O342 2.658 . S
Tb320 O343 2.409 . S
Tb320 O344 2.378 . S
Tb320 O348 2.325 . S
Tb320 O351 2.341 . S
Tb321 C331 2.809 . S
Tb321 O342 2.325 . S
Tb321 O345 2.341 . S
Tb321 O346 2.484 . S
Tb321 O347 2.440 . S
Tb321 O348 2.658 . S
Tb321 O349 2.409 . S
Tb321 O350 2.378 . S
C322 Tb320 2.809 . S
C322 C323 1.514 . S
C322 O340 1.248 . S
C322 O341 1.266 . S
C323 C322 1.514 . S
C323 C324 1.359 . S
C323 C328 1.348 . S
C324 C323 1.359 . S
C324 C325 1.380 . S
C324 H352 0.929 . S
C325 C324 1.380 . S
C325 C326 1.347 . S
C325 H353 0.931 . S
C326 C325 1.347 . S
C326 C327 1.369 . S
C327 C326 1.369 . S
C327 C328 1.408 . S
C327 H354 0.930 . S
C328 C323 1.348 . S
C328 C327 1.408 . S
C328 H355 0.930 . S
C329 O342 1.281 . S
C329 O343 1.254 . S
C330 O344 1.236 . S
C330 O345 1.266 . S
C331 Tb321 2.809 . S
C331 C332 1.514 . S
C331 O346 1.248 . S
C331 O347 1.266 . S
C332 C331 1.514 . S
C332 C333 1.359 . S
C332 C337 1.348 . S
C333 C332 1.359 . S
C333 C334 1.380 . S
C333 H356 0.929 . S
C334 C333 1.380 . S
C334 C335 1.347 . S
C334 H357 0.931 . S
C335 C334 1.347 . S
C335 C336 1.369 . S
C336 C335 1.369 . S
C336 C337 1.408 . S
C336 H358 0.930 . S
C337 C332 1.348 . S
C337 C336 1.408 . S
C337 H359 0.930 . S
C338 O348 1.281 . S
C338 O349 1.254 . S
C339 O350 1.236 . S
C339 O351 1.266 . S
O340 Tb320 2.484 . S
O340 C322 1.248 . S
O341 Tb320 2.440 . S
O341 C322 1.266 . S
O342 Tb320 2.658 . S
O342 Tb321 2.325 . S
O342 C329 1.281 . S
O343 Tb320 2.409 . S
O343 C329 1.254 . S
O344 Tb320 2.378 . S
O344 C330 1.236 . S
O345 Tb321 2.341 . S
O345 C330 1.266 . S
O346 Tb321 2.484 . S
O346 C331 1.248 . S
O347 Tb321 2.440 . S
O347 C331 1.266 . S
O348 Tb320 2.325 . S
O348 Tb321 2.658 . S
O348 C338 1.281 . S
O349 Tb321 2.409 . S
O349 C338 1.254 . S
O350 Tb321 2.378 . S
O350 C339 1.236 . S
O351 Tb320 2.341 . S
O351 C339 1.266 . S
H352 C324 0.929 . S
H353 C325 0.931 . S
H354 C327 0.930 . S
H355 C328 0.930 . S
H356 C333 0.929 . S
H357 C334 0.931 . S
H358 C336 0.930 . S
H359 C337 0.930 . S
H360 C368 0.929 1_554 S
H361 C370 0.930 . S
H362 C372 0.930 . S
H363 C375 0.929 . S
H364 C378 0.930 . S
H365 C380 0.960 . S
H366 C380 0.960 1_554 S
H367 C380 0.960 . S
C368 H360 0.929 1_556 S
C368 C369 1.377 . S
C368 C370 1.384 . S
C369 C368 1.377 . S
C369 C375 1.390 . S
C370 H361 0.930 . S
C370 C368 1.384 . S
C370 C371 1.372 . S
C371 C370 1.372 . S
C371 C372 1.400 . S
C371 C376 1.490 . S
C372 H362 0.930 . S
C372 C371 1.400 . S
C372 C375 1.386 . S
H373 C389 0.930 . S
H374 C390 0.931 . S
C375 H363 0.929 . S
C375 C369 1.390 . S
C375 C372 1.386 . S
C376 C371 1.490 . S
C376 C378 1.395 . S
C376 C379 1.403 . S
H377 C383 0.930 . S
C378 H364 0.930 . S
C378 C376 1.395 . S
C378 C381 1.403 . S
C379 C376 1.403 . S
C379 C380 1.524 . S
C379 C383 1.400 . S
C380 H365 0.960 . S
C380 H366 0.960 1_556 S
C380 H367 0.960 . S
C380 C379 1.524 . S
C381 C378 1.403 . S
C381 C382 1.392 . S
C381 C385 1.495 . S
C382 C381 1.392 . S
C382 C383 1.385 . S
C382 C384 1.478 . S
C383 H377 0.930 . S
C383 C379 1.400 . S
C383 C382 1.385 . S
C384 C382 1.478 . S
C384 C386 1.381 . S
C384 C390 1.383 . S
C385 C381 1.495 . S
C385 H391 0.959 . S
C385 H392 0.961 . S
C385 H393 0.960 . S
C386 C384 1.381 . S
C386 C387 1.394 . S
C386 H394 0.930 . S
C387 C386 1.394 . S
C387 C388 1.383 . S
C387 H395 0.929 . S
C388 C387 1.383 . S
C388 C389 1.377 . S
C389 H373 0.930 . S
C389 C388 1.377 . S
C389 C390 1.379 . S
C390 H374 0.931 . S
C390 C384 1.383 . S
C390 C389 1.379 . S
H391 C385 0.959 . S
H392 C385 0.961 . S
H393 C385 0.960 . S
H394 C386 0.930 . S
H395 C387 0.929 . S
H396 C404 0.929 . S
H397 C406 0.930 1_554 S
H398 C408 0.930 . S
H399 C411 0.929 . S
H400 C414 0.930 . S
H401 C416 0.960 . S
H402 C416 0.960 . S
H403 C416 0.960 . S
C404 H396 0.929 . S
C404 C405 1.377 1_554 S
C404 C406 1.384 1_554 S
C405 C404 1.377 1_556 S
C405 C411 1.390 . S
C406 H397 0.930 1_556 S
C406 C404 1.384 1_556 S
C406 C407 1.372 . S
C407 C406 1.372 . S
C407 C408 1.400 . S
C407 C412 1.490 . S
C408 H398 0.930 . S
C408 C407 1.400 . S
C408 C411 1.386 . S
H409 C425 0.930 . S
H410 C426 0.931 . S
C411 H399 0.929 . S
C411 C405 1.390 . S
C411 C408 1.386 . S
C412 C407 1.490 . S
C412 C414 1.395 . S
C412 C415 1.403 . S
H413 C419 0.930 . S
C414 H400 0.930 . S
C414 C412 1.395 . S
C414 C417 1.403 . S
C415 C412 1.403 . S
C415 C416 1.524 . S
C415 C419 1.400 . S
C416 H401 0.960 . S
C416 H402 0.960 . S
C416 H403 0.960 . S
C416 C415 1.524 . S
C417 C414 1.403 . S
C417 C418 1.392 . S
C417 C421 1.495 . S
C418 C417 1.392 . S
C418 C419 1.385 . S
C418 C420 1.478 . S
C419 H413 0.930 . S
C419 C415 1.400 . S
C419 C418 1.385 . S
C420 C418 1.478 . S
C420 C422 1.381 . S
C420 C426 1.383 . S
C421 C417 1.495 . S
C421 H427 0.959 1_556 S
C421 H428 0.961 . S
C421 H429 0.960 . S
C422 C420 1.381 . S
C422 C423 1.394 . S
C422 H430 0.930 . S
C423 C422 1.394 . S
C423 C424 1.383 . S
C423 H431 0.929 . S
C424 C423 1.383 . S
C424 C425 1.377 . S
C425 H409 0.930 . S
C425 C424 1.377 . S
C425 C426 1.379 . S
C426 H410 0.931 . S
C426 C420 1.383 . S
C426 C425 1.379 . S
H427 C421 0.959 1_554 S
H428 C421 0.961 . S
H429 C421 0.960 . S
H430 C422 0.930 . S
H431 C423 0.929 . S
H432 C440 0.929 . S
H433 C442 0.930 1_554 S
H434 C444 0.930 . S
H435 C447 0.929 . S
H436 C450 0.930 . S
H437 C452 0.960 . S
H438 C452 0.960 . S
H439 C452 0.960 . S
C440 H432 0.929 . S
C440 C441 1.377 1_554 S
C440 C442 1.384 1_554 S
C441 C440 1.377 1_556 S
C441 C447 1.390 . S
C442 H433 0.930 1_556 S
C442 C440 1.384 1_556 S
C442 C443 1.372 . S
C443 C442 1.372 . S
C443 C444 1.400 . S
C443 C448 1.490 . S
C444 H434 0.930 . S
C444 C443 1.400 . S
C444 C447 1.386 . S
H445 C461 0.930 . S
H446 C462 0.931 . S
C447 H435 0.929 . S
C447 C441 1.390 . S
C447 C444 1.386 . S
C448 C443 1.490 . S
C448 C450 1.395 . S
C448 C451 1.403 . S
H449 C455 0.930 . S
C450 H436 0.930 . S
C450 C448 1.395 . S
C450 C453 1.403 . S
C451 C448 1.403 . S
C451 C452 1.524 . S
C451 C455 1.400 . S
C452 H437 0.960 . S
C452 H438 0.960 . S
C452 H439 0.960 . S
C452 C451 1.524 . S
C453 C450 1.403 . S
C453 C454 1.392 . S
C453 C457 1.495 . S
C454 C453 1.392 . S
C454 C455 1.385 . S
C454 C456 1.478 . S
C455 H449 0.930 . S
C455 C451 1.400 . S
C455 C454 1.385 . S
C456 C454 1.478 . S
C456 C458 1.381 . S
C456 C462 1.383 . S
C457 C453 1.495 . S
C457 H463 0.959 . S
C457 H464 0.961 . S
C457 H465 0.960 . S
C458 C456 1.381 . S
C458 C459 1.394 . S
C458 H466 0.930 . S
C459 C458 1.394 . S
C459 C460 1.383 . S
C459 H467 0.929 . S
C460 C459 1.383 . S
C460 C461 1.377 . S
C461 H445 0.930 . S
C461 C460 1.377 . S
C461 C462 1.379 . S
C462 H446 0.931 . S
C462 C456 1.383 . S
C462 C461 1.379 . S
H463 C457 0.959 . S
H464 C457 0.961 . S
H465 C457 0.960 . S
H466 C458 0.930 . S
H467 C459 0.929 . S
H468 C476 0.929 . S
H469 C478 0.930 . S
H470 C480 0.930 . S
H471 C483 0.929 . S
H472 C486 0.930 . S
H473 C488 0.960 . S
H474 C488 0.960 . S
H475 C488 0.960 . S
C476 H468 0.929 . S
C476 C477 1.377 . S
C476 C478 1.384 . S
C477 C476 1.377 . S
C477 C483 1.390 . S
C478 H469 0.930 . S
C478 C476 1.384 . S
C478 C479 1.372 . S
C479 C478 1.372 . S
C479 C480 1.400 . S
C479 C484 1.490 . S
C480 H470 0.930 . S
C480 C479 1.400 . S
C480 C483 1.386 . S
H481 C497 0.930 . S
H482 C498 0.931 . S
C483 H471 0.929 . S
C483 C477 1.390 . S
C483 C480 1.386 . S
C484 C479 1.490 . S
C484 C486 1.395 . S
C484 C487 1.403 . S
H485 C491 0.930 . S
C486 H472 0.930 . S
C486 C484 1.395 . S
C486 C489 1.403 . S
C487 C484 1.403 . S
C487 C488 1.524 . S
C487 C491 1.400 . S
C488 H473 0.960 . S
C488 H474 0.960 . S
C488 H475 0.960 . S
C488 C487 1.524 . S
C489 C486 1.403 . S
C489 C490 1.392 . S
C489 C493 1.495 . S
C490 C489 1.392 . S
C490 C491 1.385 . S
C490 C492 1.478 . S
C491 H485 0.930 . S
C491 C487 1.400 . S
C491 C490 1.385 . S
C492 C490 1.478 . S
C492 C494 1.381 . S
C492 C498 1.383 . S
C493 C489 1.495 . S
C493 H499 0.959 . S
C493 H500 0.961 . S
C493 H501 0.960 . S
C494 C492 1.381 . S
C494 C495 1.394 . S
C494 H502 0.930 . S
C495 C494 1.394 . S
C495 C496 1.383 . S
C495 H503 0.929 1_554 S
C496 C495 1.383 . S
C496 C497 1.377 . S
C497 H481 0.930 . S
C497 C496 1.377 . S
C497 C498 1.379 . S
C498 H482 0.931 . S
C498 C492 1.383 . S
C498 C497 1.379 . S
H499 C493 0.959 . S
H500 C493 0.961 . S
H501 C493 0.960 . S
H502 C494 0.930 . S
H503 C495 0.929 1_556 S
H504 C512 0.929 . S
H505 C514 0.930 . S
H506 C516 0.930 . S
H507 C519 0.929 . S
H508 C522 0.930 . S
H509 C524 0.960 . S
H510 C524 0.960 . S
H511 C524 0.960 . S
C512 H504 0.929 . S
C512 C513 1.377 . S
C512 C514 1.384 . S
C513 C512 1.377 . S
C513 C519 1.390 . S
C514 H505 0.930 . S
C514 C512 1.384 . S
C514 C515 1.372 . S
C515 C514 1.372 . S
C515 C516 1.400 . S
C515 C520 1.490 . S
C516 H506 0.930 . S
C516 C515 1.400 . S
C516 C519 1.386 . S
H517 C533 0.930 . S
H518 C534 0.931 . S
C519 H507 0.929 . S
C519 C513 1.390 . S
C519 C516 1.386 . S
C520 C515 1.490 . S
C520 C522 1.395 . S
C520 C523 1.403 . S
H521 C527 0.930 . S
C522 H508 0.930 . S
C522 C520 1.395 . S
C522 C525 1.403 . S
C523 C520 1.403 . S
C523 C524 1.524 . S
C523 C527 1.400 . S
C524 H509 0.960 . S
C524 H510 0.960 . S
C524 H511 0.960 . S
C524 C523 1.524 . S
C525 C522 1.403 . S
C525 C526 1.392 . S
C525 C529 1.495 . S
C526 C525 1.392 . S
C526 C527 1.385 . S
C526 C528 1.478 . S
C527 H521 0.930 . S
C527 C523 1.400 . S
C527 C526 1.385 . S
C528 C526 1.478 . S
C528 C530 1.381 . S
C528 C534 1.383 . S
C529 C525 1.495 . S
C529 H535 0.959 . S
C529 H536 0.961 . S
C529 H537 0.960 . S
C530 C528 1.381 . S
C530 C531 1.394 . S
C530 H538 0.930 . S
C531 C530 1.394 . S
C531 C532 1.383 . S
C531 H539 0.929 1_554 S
C532 C531 1.383 . S
C532 C533 1.377 . S
C533 H517 0.930 . S
C533 C532 1.377 . S
C533 C534 1.379 . S
C534 H518 0.931 . S
C534 C528 1.383 . S
C534 C533 1.379 . S
H535 C529 0.959 . S
H536 C529 0.961 . S
H537 C529 0.960 . S
H538 C530 0.930 . S
H539 C531 0.929 1_556 S
H540 C548 0.929 1_556 S
H541 C550 0.930 . S
H542 C552 0.930 . S
H543 C555 0.929 . S
H544 C558 0.930 . S
H545 C560 0.960 . S
H546 C560 0.960 . S
H547 C560 0.960 . S
C548 H540 0.929 1_554 S
C548 C549 1.377 . S
C548 C550 1.384 . S
C549 C548 1.377 . S
C549 C555 1.390 . S
C550 H541 0.930 . S
C550 C548 1.384 . S
C550 C551 1.372 . S
C551 C550 1.372 . S
C551 C552 1.400 . S
C551 C556 1.490 . S
C552 H542 0.930 . S
C552 C551 1.400 . S
C552 C555 1.386 . S
H553 C569 0.930 . S
H554 C570 0.931 . S
C555 H543 0.929 . S
C555 C549 1.390 . S
C555 C552 1.386 . S
C556 C551 1.490 . S
C556 C558 1.395 . S
C556 C559 1.403 . S
H557 C563 0.930 . S
C558 H544 0.930 . S
C558 C556 1.395 . S
C558 C561 1.403 . S
C559 C556 1.403 . S
C559 C560 1.524 . S
C559 C563 1.400 . S
C560 H545 0.960 . S
C560 H546 0.960 . S
C560 H547 0.960 . S
C560 C559 1.524 . S
C561 C558 1.403 . S
C561 C562 1.392 . S
C561 C565 1.495 . S
C562 C561 1.392 . S
C562 C563 1.385 . S
C562 C564 1.478 . S
C563 H557 0.930 . S
C563 C559 1.400 . S
C563 C562 1.385 . S
C564 C562 1.478 . S
C564 C566 1.381 . S
C564 C570 1.383 . S
C565 C561 1.495 . S
C565 H571 0.959 . S
C565 H572 0.961 . S
C565 H573 0.960 . S
C566 C564 1.381 . S
C566 C567 1.394 . S
C566 H574 0.930 . S
C567 C566 1.394 . S
C567 C568 1.383 . S
C567 H575 0.929 . S
C568 C567 1.383 . S
C568 C569 1.377 . S
C569 H553 0.930 . S
C569 C568 1.377 . S
C569 C570 1.379 . S
C570 H554 0.931 . S
C570 C564 1.383 . S
C570 C569 1.379 . S
H571 C565 0.959 . S
H572 C565 0.961 . S
H573 C565 0.960 . S
H574 C566 0.930 . S
H575 C567 0.929 . S
H576 C584 0.929 . S
H577 C586 0.930 . S
H578 C588 0.930 . S
H579 C591 0.929 . S
H580 C594 0.930 . S
H581 C596 0.960 . S
H582 C596 0.960 . S
H583 C596 0.960 . S
C584 H576 0.929 . S
C584 C585 1.377 . S
C584 C586 1.384 . S
C585 C584 1.377 . S
C585 C591 1.390 . S
C586 H577 0.930 . S
C586 C584 1.384 . S
C586 C587 1.372 . S
C587 C586 1.372 . S
C587 C588 1.400 . S
C587 C592 1.490 . S
C588 H578 0.930 . S
C588 C587 1.400 . S
C588 C591 1.386 . S
H589 C605 0.930 . S
H590 C606 0.931 . S
C591 H579 0.929 . S
C591 C585 1.390 . S
C591 C588 1.386 . S
C592 C587 1.490 . S
C592 C594 1.395 . S
C592 C595 1.403 . S
H593 C599 0.930 . S
C594 H580 0.930 . S
C594 C592 1.395 . S
C594 C597 1.403 . S
C595 C592 1.403 . S
C595 C596 1.524 . S
C595 C599 1.400 . S
C596 H581 0.960 . S
C596 H582 0.960 . S
C596 H583 0.960 . S
C596 C595 1.524 . S
C597 C594 1.403 . S
C597 C598 1.392 . S
C597 C601 1.495 . S
C598 C597 1.392 . S
C598 C599 1.385 . S
C598 C600 1.478 . S
C599 H593 0.930 . S
C599 C595 1.400 . S
C599 C598 1.385 . S
C600 C598 1.478 . S
C600 C602 1.381 . S
C600 C606 1.383 . S
C601 C597 1.495 . S
C601 H607 0.959 . S
C601 H608 0.961 . S
C601 H609 0.960 . S
C602 C600 1.381 . S
C602 C603 1.395 1_455 S
C602 H610 0.930 . S
C603 C602 1.395 1_655 S
C603 C604 1.383 . S
C603 H611 0.929 . S
C604 C603 1.383 . S
C604 C605 1.377 . S
C605 H589 0.930 . S
C605 C604 1.377 . S
C605 C606 1.379 1_655 S
C606 H590 0.931 . S
C606 C600 1.383 . S
C606 C605 1.379 1_455 S
H607 C601 0.959 . S
H608 C601 0.961 . S
H609 C601 0.960 . S
H610 C602 0.930 . S
H611 C603 0.929 . S
H612 C620 0.929 . S
H613 C622 0.930 . S
H614 C624 0.930 . S
H615 C627 0.929 . S
H616 C630 0.930 . S
H617 C632 0.960 . S
H618 C632 0.960 . S
H619 C632 0.960 . S
C620 H612 0.929 . S
C620 C621 1.377 . S
C620 C622 1.384 . S
C621 C620 1.377 . S
C621 C627 1.390 . S
C622 H613 0.930 . S
C622 C620 1.384 . S
C622 C623 1.372 . S
C623 C622 1.372 . S
C623 C624 1.400 . S
C623 C628 1.490 . S
C624 H614 0.930 . S
C624 C623 1.400 . S
C624 C627 1.386 . S
H625 C641 0.930 . S
H626 C642 0.931 . S
C627 H615 0.929 . S
C627 C621 1.390 . S
C627 C624 1.386 . S
C628 C623 1.490 . S
C628 C630 1.395 . S
C628 C631 1.403 . S
H629 C635 0.930 . S
C630 H616 0.930 . S
C630 C628 1.395 . S
C630 C633 1.403 . S
C631 C628 1.403 . S
C631 C632 1.524 . S
C631 C635 1.400 . S
C632 H617 0.960 . S
C632 H618 0.960 . S
C632 H619 0.960 . S
C632 C631 1.524 . S
C633 C630 1.403 . S
C633 C634 1.392 . S
C633 C637 1.495 . S
C634 C633 1.392 . S
C634 C635 1.385 . S
C634 C636 1.478 . S
C635 H629 0.930 . S
C635 C631 1.400 . S
C635 C634 1.385 . S
C636 C634 1.478 . S
C636 C638 1.381 . S
C636 C642 1.383 . S
C637 C633 1.495 . S
C637 H643 0.959 . S
C637 H644 0.961 . S
C637 H645 0.960 . S
C638 C636 1.381 . S
C638 C639 1.394 . S
C638 H646 0.930 . S
C639 C638 1.394 . S
C639 C640 1.383 . S
C639 H647 0.929 . S
C640 C639 1.383 . S
C640 C641 1.377 . S
C641 H625 0.930 . S
C641 C640 1.377 . S
C641 C642 1.379 . S
C642 H626 0.931 . S
C642 C636 1.383 . S
C642 C641 1.379 . S
H643 C637 0.959 . S
H644 C637 0.961 . S
H645 C637 0.960 . S
H646 C638 0.930 . S
H647 C639 0.929 . S
H648 C656 0.929 . S
H649 C658 0.930 . S
H650 C660 0.930 . S
H651 C663 0.929 . S
H652 C666 0.930 . S
H653 C668 0.960 . S
H654 C668 0.960 1_545 S
H655 C668 0.960 1_545 S
C656 H648 0.929 . S
C656 C657 1.377 . S
C656 C658 1.384 . S
C657 C656 1.377 . S
C657 C663 1.390 . S
C658 H649 0.930 . S
C658 C656 1.384 . S
C658 C659 1.372 . S
C659 C658 1.372 . S
C659 C660 1.400 . S
C659 C664 1.490 1_545 S
C660 H650 0.930 . S
C660 C659 1.400 . S
C660 C663 1.386 . S
H661 C677 0.930 . S
H662 C678 0.931 . S
C663 H651 0.929 . S
C663 C657 1.390 . S
C663 C660 1.386 . S
C664 C659 1.490 1_565 S
C664 C666 1.395 . S
C664 C667 1.403 . S
H665 C671 0.930 . S
C666 H652 0.930 . S
C666 C664 1.395 . S
C666 C669 1.403 . S
C667 C664 1.403 . S
C667 C668 1.524 . S
C667 C671 1.400 . S
C668 H653 0.960 . S
C668 H654 0.960 1_565 S
C668 H655 0.960 1_565 S
C668 C667 1.524 . S
C669 C666 1.403 . S
C669 C670 1.392 . S
C669 C673 1.495 . S
C670 C669 1.392 . S
C670 C671 1.385 . S
C670 C672 1.478 . S
C671 H665 0.930 . S
C671 C667 1.400 . S
C671 C670 1.385 . S
C672 C670 1.478 . S
C672 C674 1.381 . S
C672 C678 1.383 . S
C673 C669 1.495 . S
C673 H679 0.959 . S
C673 H680 0.961 . S
C673 H681 0.960 . S
C674 C672 1.381 . S
C674 C675 1.394 . S
C674 H682 0.930 . S
C675 C674 1.394 . S
C675 C676 1.383 . S
C675 H683 0.929 . S
C676 C675 1.383 . S
C676 C677 1.377 . S
C677 H661 0.930 . S
C677 C676 1.377 . S
C677 C678 1.379 . S
C678 H662 0.931 . S
C678 C672 1.383 . S
C678 C677 1.379 . S
H679 C673 0.959 . S
H680 C673 0.961 . S
H681 C673 0.960 . S
H682 C674 0.930 . S
H683 C675 0.929 . S
H684 C692 0.929 . S
H685 C694 0.930 . S
H686 C696 0.930 . S
H687 C699 0.929 . S
H688 C702 0.930 . S
H689 C704 0.960 . S
H690 C704 0.960 . S
H691 C704 0.960 . S
C692 H684 0.929 . S
C692 C693 1.377 . S
C692 C694 1.384 . S
C693 C692 1.377 . S
C693 C699 1.390 1_554 S
C694 H685 0.930 . S
C694 C692 1.384 . S
C694 C695 1.372 . S
C695 C694 1.372 . S
C695 C696 1.400 1_554 S
C695 C700 1.490 1_554 S
C696 H686 0.930 . S
C696 C695 1.400 1_556 S
C696 C699 1.386 . S
H697 C713 0.930 . S
H698 C714 0.931 . S
C699 H687 0.929 . S
C699 C693 1.390 1_556 S
C699 C696 1.386 . S
C700 C695 1.490 1_556 S
C700 C702 1.395 . S
C700 C703 1.403 1_556 S
H701 C707 0.930 . S
C702 H688 0.930 . S
C702 C700 1.395 . S
C702 C705 1.403 . S
C703 C700 1.403 1_554 S
C703 C704 1.524 . S
C703 C707 1.400 . S
C704 H689 0.960 . S
C704 H690 0.960 . S
C704 H691 0.960 . S
C704 C703 1.524 . S
C705 C702 1.403 . S
C705 C706 1.392 . S
C705 C709 1.495 . S
C706 C705 1.392 . S
C706 C707 1.385 1_556 S
C706 C708 1.478 . S
C707 H701 0.930 . S
C707 C703 1.400 . S
C707 C706 1.385 1_554 S
C708 C706 1.478 . S
C708 C710 1.381 1_556 S
C708 C714 1.383 . S
C709 C705 1.495 . S
C709 H715 0.959 . S
C709 H716 0.961 . S
C709 H717 0.960 . S
C710 C708 1.381 1_554 S
C710 C711 1.394 . S
C710 H718 0.930 . S
C711 C710 1.394 . S
C711 C712 1.383 1_554 S
C711 H719 0.929 . S
C712 C711 1.383 1_556 S
C712 C713 1.377 . S
C713 H697 0.930 . S
C713 C712 1.377 . S
C713 C714 1.379 . S
C714 H698 0.931 . S
C714 C708 1.383 . S
C714 C713 1.379 . S
H715 C709 0.959 . S
H716 C709 0.961 . S
H717 C709 0.960 . S
H718 C710 0.930 . S
H719 C711 0.929 . S
H720 C728 0.929 . S
H721 C730 0.930 . S
H722 C732 0.930 . S
H723 C735 0.929 . S
H724 C738 0.930 . S
H725 C740 0.960 . S
H726 C740 0.960 . S
H727 C740 0.960 . S
C728 H720 0.929 . S
C728 C729 1.377 . S
C728 C730 1.384 1_565 S
C729 C728 1.377 . S
C729 C735 1.390 1_556 S
C730 H721 0.930 . S
C730 C728 1.384 1_545 S
C730 C731 1.372 . S
C731 C730 1.372 . S
C731 C732 1.400 1_556 S
C731 C736 1.490 . S
C732 H722 0.930 . S
C732 C731 1.400 1_554 S
C732 C735 1.386 1_545 S
H733 C749 0.930 . S
H734 C750 0.931 . S
C735 H723 0.929 . S
C735 C729 1.390 1_554 S
C735 C732 1.386 1_565 S
C736 C731 1.490 . S
C736 C738 1.395 1_556 S
C736 C739 1.403 . S
H737 C743 0.930 . S
C738 H724 0.930 . S
C738 C736 1.395 1_554 S
C738 C741 1.403 . S
C739 C736 1.403 . S
C739 C740 1.524 . S
C739 C743 1.400 . S
C740 H725 0.960 . S
C740 H726 0.960 . S
C740 H727 0.960 . S
C740 C739 1.524 . S
C741 C738 1.403 . S
C741 C742 1.392 1_554 S
C741 C745 1.495 . S
C742 C741 1.392 1_556 S
C742 C743 1.385 . S
C742 C744 1.478 1_556 S
C743 H737 0.930 . S
C743 C739 1.400 . S
C743 C742 1.385 . S
C744 C742 1.478 1_554 S
C744 C746 1.381 1_554 S
C744 C750 1.383 . S
C745 C741 1.495 . S
C745 H751 0.959 . S
C745 H752 0.961 . S
C745 H753 0.960 . S
C746 C744 1.381 1_556 S
C746 C747 1.394 . S
C746 H754 0.930 . S
C747 C746 1.394 . S
C747 C748 1.383 1_556 S
C747 H755 0.929 . S
C748 C747 1.383 1_554 S
C748 C749 1.377 . S
C749 H733 0.930 . S
C749 C748 1.377 . S
C749 C750 1.379 . S
C750 H734 0.931 . S
C750 C744 1.383 . S
C750 C749 1.379 . S
H751 C745 0.959 . S
H752 C745 0.961 . S
H753 C745 0.960 . S
H754 C746 0.930 . S
H755 C747 0.929 . S
H756 C764 0.929 . S
H757 C766 0.930 . S
H758 C768 0.930 . S
H759 C771 0.929 . S
H760 C774 0.930 . S
H761 C776 0.960 . S
H762 C776 0.960 1_554 S
H763 C776 0.960 . S
C764 H756 0.929 . S
C764 C765 1.377 . S
C764 C766 1.384 . S
C765 C764 1.377 . S
C765 C771 1.390 1_554 S
C766 H757 0.930 . S
C766 C764 1.384 . S
C766 C767 1.372 . S
C767 C766 1.372 . S
C767 C768 1.400 1_554 S
C767 C772 1.490 1_554 S
C768 H758 0.930 . S
C768 C767 1.400 1_556 S
C768 C771 1.386 . S
H769 C785 0.930 . S
H770 C786 0.931 . S
C771 H759 0.929 . S
C771 C765 1.390 1_556 S
C771 C768 1.386 . S
C772 C767 1.490 1_556 S
C772 C774 1.395 1_556 S
C772 C775 1.403 . S
H773 C779 0.930 . S
C774 H760 0.930 . S
C774 C772 1.395 1_554 S
C774 C777 1.403 . S
C775 C772 1.403 . S
C775 C776 1.524 . S
C775 C779 1.400 . S
C776 H761 0.960 . S
C776 H762 0.960 1_556 S
C776 H763 0.960 . S
C776 C775 1.524 . S
C777 C774 1.403 . S
C777 C778 1.392 1_554 S
C777 C781 1.495 . S
C778 C777 1.392 1_556 S
C778 C779 1.385 . S
C778 C780 1.478 1_655 S
C779 H773 0.930 . S
C779 C775 1.400 . S
C779 C778 1.385 . S
C780 C778 1.478 1_455 S
C780 C782 1.381 1_556 S
C780 C786 1.383 . S
C781 C777 1.495 . S
C781 H787 0.959 . S
C781 H788 0.961 1_554 S
C781 H789 0.960 . S
C782 C780 1.381 1_554 S
C782 C783 1.394 . S
C782 H790 0.930 . S
C783 C782 1.394 . S
C783 C784 1.383 1_554 S
C783 H791 0.929 . S
C784 C783 1.383 1_556 S
C784 C785 1.377 . S
C785 H769 0.930 . S
C785 C784 1.377 . S
C785 C786 1.379 . S
C786 H770 0.931 . S
C786 C780 1.383 . S
C786 C785 1.379 . S
H787 C781 0.959 . S
H788 C781 0.961 1_556 S
H789 C781 0.960 . S
H790 C782 0.930 . S
H791 C783 0.929 . S
H792 C800 0.929 . S
H793 C802 0.930 . S
H794 C804 0.930 . S
H795 C807 0.929 . S
H796 C810 0.930 . S
H797 C812 0.960 . S
H798 C812 0.960 . S
H799 C812 0.960 . S
C800 H792 0.929 . S
C800 C801 1.377 . S
C800 C802 1.384 . S
C801 C800 1.377 . S
C801 C807 1.390 . S
C802 H793 0.930 . S
C802 C800 1.384 . S
C802 C803 1.372 . S
C803 C802 1.372 . S
C803 C804 1.400 . S
C803 C808 1.490 . S
C804 H794 0.930 . S
C804 C803 1.400 . S
C804 C807 1.386 . S
H805 C821 0.930 . S
H806 C822 0.931 . S
C807 H795 0.929 . S
C807 C801 1.390 . S
C807 C804 1.386 . S
C808 C803 1.490 . S
C808 C810 1.395 . S
C808 C811 1.403 . S
H809 C815 0.930 . S
C810 H796 0.930 . S
C810 C808 1.395 . S
C810 C813 1.403 . S
C811 C808 1.403 . S
C811 C812 1.524 . S
C811 C815 1.400 . S
C812 H797 0.960 . S
C812 H798 0.960 . S
C812 H799 0.960 . S
C812 C811 1.524 . S
C813 C810 1.403 . S
C813 C814 1.392 . S
C813 C817 1.495 . S
C814 C813 1.392 . S
C814 C815 1.385 . S
C814 C816 1.478 . S
C815 H809 0.930 . S
C815 C811 1.400 . S
C815 C814 1.385 . S
C816 C814 1.478 . S
C816 C818 1.381 . S
C816 C822 1.383 . S
C817 C813 1.495 . S
C817 H823 0.959 . S
C817 H824 0.961 . S
C817 H825 0.960 . S
C818 C816 1.381 . S
C818 C819 1.394 . S
C818 H826 0.930 . S
C819 C818 1.394 . S
C819 C820 1.383 . S
C819 H827 0.929 . S
C820 C819 1.383 . S
C820 C821 1.377 . S
C821 H805 0.930 . S
C821 C820 1.377 . S
C821 C822 1.379 . S
C822 H806 0.931 . S
C822 C816 1.383 . S
C822 C821 1.379 . S
H823 C817 0.959 . S
H824 C817 0.961 . S
H825 C817 0.960 . S
H826 C818 0.930 . S
H827 C819 0.929 . S
H828 C836 0.929 . S
H829 C838 0.930 . S
H830 C840 0.930 . S
H831 C843 0.929 . S
H832 C846 0.930 . S
H833 C848 0.960 . S
H834 C848 0.960 . S
H835 C848 0.960 . S
C836 H828 0.929 . S
C836 C837 1.377 . S
C836 C838 1.384 . S
C837 C836 1.377 . S
C837 C843 1.390 . S
C838 H829 0.930 . S
C838 C836 1.384 . S
C838 C839 1.372 . S
C839 C838 1.372 . S
C839 C840 1.400 . S
C839 C844 1.490 . S
C840 H830 0.930 . S
C840 C839 1.400 . S
C840 C843 1.386 . S
H841 C857 0.930 . S
H842 C858 0.931 . S
C843 H831 0.929 . S
C843 C837 1.390 . S
C843 C840 1.386 . S
C844 C839 1.490 . S
C844 C846 1.395 . S
C844 C847 1.403 . S
H845 C851 0.930 . S
C846 H832 0.930 . S
C846 C844 1.395 . S
C846 C849 1.403 . S
C847 C844 1.403 . S
C847 C848 1.524 . S
C847 C851 1.400 . S
C848 H833 0.960 . S
C848 H834 0.960 . S
C848 H835 0.960 . S
C848 C847 1.524 . S
C849 C846 1.403 . S
C849 C850 1.392 . S
C849 C853 1.495 . S
C850 C849 1.392 . S
C850 C851 1.385 . S
C850 C852 1.478 . S
C851 H845 0.930 . S
C851 C847 1.400 . S
C851 C850 1.385 . S
C852 C850 1.478 . S
C852 C854 1.381 . S
C852 C858 1.383 . S
C853 C849 1.495 . S
C853 H859 0.959 . S
C853 H860 0.961 . S
C853 H861 0.960 . S
C854 C852 1.381 . S
C854 C855 1.394 . S
C854 H862 0.930 . S
C855 C854 1.394 . S
C855 C856 1.383 . S
C855 H863 0.929 . S
C856 C855 1.383 . S
C856 C857 1.377 . S
C857 H841 0.930 . S
C857 C856 1.377 . S
C857 C858 1.379 . S
C858 H842 0.931 . S
C858 C852 1.383 . S
C858 C857 1.379 . S
H859 C853 0.959 . S
H860 C853 0.961 . S
H861 C853 0.960 . S
H862 C854 0.930 . S
H863 C855 0.929 . S
H864 C872 0.929 . S
H865 C874 0.930 . S
H866 C876 0.930 . S
H867 C879 0.929 . S
H868 C882 0.930 . S
H869 C884 0.960 . S
H870 C884 0.960 . S
H871 C884 0.960 . S
C872 H864 0.929 . S
C872 C873 1.377 . S
C872 C874 1.384 . S
C873 C872 1.377 . S
C873 C879 1.390 . S
C874 H865 0.930 . S
C874 C872 1.384 . S
C874 C875 1.372 . S
C875 C874 1.372 . S
C875 C876 1.400 . S
C875 C880 1.490 . S
C876 H866 0.930 . S
C876 C875 1.400 . S
C876 C879 1.386 . S
H877 C893 0.930 . S
H878 C894 0.931 . S
C879 H867 0.929 . S
C879 C873 1.390 . S
C879 C876 1.386 . S
C880 C875 1.490 . S
C880 C882 1.395 . S
C880 C883 1.403 . S
H881 C887 0.930 . S
C882 H868 0.930 . S
C882 C880 1.395 . S
C882 C885 1.403 . S
C883 C880 1.403 . S
C883 C884 1.524 . S
C883 C887 1.400 . S
C884 H869 0.960 . S
C884 H870 0.960 . S
C884 H871 0.960 . S
C884 C883 1.524 . S
C885 C882 1.403 . S
C885 C886 1.392 . S
C885 C889 1.495 . S
C886 C885 1.392 . S
C886 C887 1.385 . S
C886 C888 1.478 . S
C887 H881 0.930 . S
C887 C883 1.400 . S
C887 C886 1.385 . S
C888 C886 1.478 . S
C888 C890 1.381 . S
C888 C894 1.383 . S
C889 C885 1.495 . S
C889 H895 0.959 . S
C889 H896 0.961 . S
C889 H897 0.960 . S
C890 C888 1.381 . S
C890 C891 1.394 . S
C890 H898 0.930 . S
C891 C890 1.394 . S
C891 C892 1.383 . S
C891 H899 0.929 . S
C892 C891 1.383 . S
C892 C893 1.377 . S
C893 H877 0.930 . S
C893 C892 1.377 . S
C893 C894 1.379 . S
C894 H878 0.931 . S
C894 C888 1.383 . S
C894 C893 1.379 . S
H895 C889 0.959 . S
H896 C889 0.961 . S
H897 C889 0.960 . S
H898 C890 0.930 . S
H899 C891 0.929 . S
H900 C908 0.929 . S
H901 C910 0.930 . S
H902 C912 0.930 . S
H903 C915 0.929 . S
H904 C918 0.930 . S
H905 C920 0.960 . S
H906 C920 0.960 . S
H907 C920 0.960 . S
C908 H900 0.929 . S
C908 C909 1.377 . S
C908 C910 1.384 . S
C909 C908 1.377 . S
C909 C915 1.390 . S
C910 H901 0.930 . S
C910 C908 1.384 . S
C910 C911 1.372 . S
C911 C910 1.372 . S
C911 C912 1.400 . S
C911 C916 1.490 . S
C912 H902 0.930 . S
C912 C911 1.400 . S
C912 C915 1.386 . S
H913 C929 0.930 . S
H914 C930 0.931 . S
C915 H903 0.929 . S
C915 C909 1.390 . S
C915 C912 1.386 . S
C916 C911 1.490 . S
C916 C918 1.395 . S
C916 C919 1.403 . S
H917 C923 0.930 . S
C918 H904 0.930 . S
C918 C916 1.395 . S
C918 C921 1.403 . S
C919 C916 1.403 . S
C919 C920 1.524 . S
C919 C923 1.400 . S
C920 H905 0.960 . S
C920 H906 0.960 . S
C920 H907 0.960 . S
C920 C919 1.524 . S
C921 C918 1.403 . S
C921 C922 1.392 . S
C921 C925 1.495 . S
C922 C921 1.392 . S
C922 C923 1.385 . S
C922 C924 1.478 . S
C923 H917 0.930 . S
C923 C919 1.400 . S
C923 C922 1.385 . S
C924 C922 1.478 . S
C924 C926 1.381 . S
C924 C930 1.383 . S
C925 C921 1.495 . S
C925 H931 0.959 . S
C925 H932 0.961 . S
C925 H933 0.960 . S
C926 C924 1.381 . S
C926 C927 1.394 . S
C926 H934 0.930 . S
C927 C926 1.394 . S
C927 C928 1.383 . S
C927 H935 0.929 . S
C928 C927 1.383 . S
C928 C929 1.377 . S
C929 H913 0.930 . S
C929 C928 1.377 . S
C929 C930 1.379 . S
C930 H914 0.931 . S
C930 C924 1.383 . S
C930 C929 1.379 . S
H931 C925 0.959 . S
H932 C925 0.961 . S
H933 C925 0.960 . S
H934 C926 0.930 . S
H935 C927 0.929 . S
H936 C944 0.929 . S
H937 C946 0.930 . S
H938 C948 0.930 . S
H939 C951 0.929 . S
H940 C954 0.930 . S
H941 C956 0.960 . S
H942 C956 0.960 . S
H943 C956 0.960 . S
C944 H936 0.929 . S
C944 C945 1.377 . S
C944 C946 1.384 . S
C945 C944 1.377 . S
C945 C951 1.390 . S
C946 H937 0.930 . S
C946 C944 1.384 . S
C946 C947 1.372 . S
C947 C946 1.372 . S
C947 C948 1.400 . S
C947 C952 1.490 . S
C948 H938 0.930 . S
C948 C947 1.400 . S
C948 C951 1.386 . S
H949 C965 0.930 . S
H950 C966 0.931 . S
C951 H939 0.929 . S
C951 C945 1.390 . S
C951 C948 1.386 . S
C952 C947 1.490 . S
C952 C954 1.395 . S
C952 C955 1.403 . S
H953 C959 0.930 . S
C954 H940 0.930 . S
C954 C952 1.395 . S
C954 C957 1.403 . S
C955 C952 1.403 . S
C955 C956 1.524 . S
C955 C959 1.400 . S
C956 H941 0.960 . S
C956 H942 0.960 . S
C956 H943 0.960 . S
C956 C955 1.524 . S
C957 C954 1.403 . S
C957 C958 1.392 . S
C957 C961 1.495 . S
C958 C957 1.392 . S
C958 C959 1.385 . S
C958 C960 1.478 . S
C959 H953 0.930 . S
C959 C955 1.400 . S
C959 C958 1.385 . S
C960 C958 1.478 . S
C960 C962 1.381 . S
C960 C966 1.383 . S
C961 C957 1.495 . S
C961 H967 0.959 . S
C961 H968 0.961 . S
C961 H969 0.960 . S
C962 C960 1.381 . S
C962 C963 1.394 . S
C962 H970 0.930 . S
C963 C962 1.394 . S
C963 C964 1.383 . S
C963 H971 0.929 . S
C964 C963 1.383 . S
C964 C965 1.377 . S
C965 H949 0.930 . S
C965 C964 1.377 . S
C965 C966 1.379 . S
C966 H950 0.931 . S
C966 C960 1.383 . S
C966 C965 1.379 . S
H967 C961 0.959 . S
H968 C961 0.961 . S
H969 C961 0.960 . S
H970 C962 0.930 . S
H971 C963 0.929 . S
H972 C980 0.929 . S
H973 C982 0.930 . S
H974 C984 0.930 . S
H975 C987 0.929 . S
H976 C990 0.930 . S
H977 C992 0.960 . S
H978 C992 0.960 . S
H979 C992 0.960 . S
C980 H972 0.929 . S
C980 C981 1.377 . S
C980 C982 1.384 . S
C981 C980 1.377 . S
C981 C987 1.390 . S
C982 H973 0.930 . S
C982 C980 1.384 . S
C982 C983 1.372 . S
C983 C982 1.372 . S
C983 C984 1.400 . S
C983 C988 1.490 . S
C984 H974 0.930 . S
C984 C983 1.400 . S
C984 C987 1.386 . S
H985 C1001 0.930 . S
H986 C1002 0.931 . S
C987 H975 0.929 . S
C987 C981 1.390 . S
C987 C984 1.386 . S
C988 C983 1.490 . S
C988 C990 1.395 . S
C988 C991 1.403 . S
H989 C995 0.930 . S
C990 H976 0.930 . S
C990 C988 1.395 . S
C990 C993 1.403 . S
C991 C988 1.403 . S
C991 C992 1.524 . S
C991 C995 1.400 . S
C992 H977 0.960 . S
C992 H978 0.960 . S
C992 H979 0.960 . S
C992 C991 1.524 . S
C993 C990 1.403 . S
C993 C994 1.392 . S
C993 C997 1.495 . S
C994 C993 1.392 . S
C994 C995 1.385 . S
C994 C996 1.478 . S
C995 H989 0.930 . S
C995 C991 1.400 . S
C995 C994 1.385 . S
C996 C994 1.478 . S
C996 C998 1.381 . S
C996 C1002 1.383 . S
C997 C993 1.495 . S
C997 H1003 0.959 . S
C997 H1004 0.961 . S
C997 H1005 0.960 . S
C998 C996 1.381 . S
C998 C999 1.394 . S
C998 H1006 0.930 . S
C999 C998 1.394 . S
C999 C1000 1.383 . S
C999 H1007 0.929 . S
C1000 C999 1.383 . S
C1000 C1001 1.377 . S
C1001 H985 0.930 . S
C1001 C1000 1.377 . S
C1001 C1002 1.379 . S
C1002 H986 0.931 . S
C1002 C996 1.383 . S
C1002 C1001 1.379 . S
H1003 C997 0.959 . S
H1004 C997 0.961 . S
H1005 C997 0.960 . S
H1006 C998 0.930 . S
H1007 C999 0.929 . S
H1008 C1016 0.929 . S
H1009 C1018 0.930 . S
H1010 C1020 0.930 . S
H1011 C1023 0.929 . S
H1012 C1026 0.930 . S
H1013 C1028 0.960 . S
H1014 C1028 0.960 . S
H1015 C1028 0.960 . S
C1016 H1008 0.929 . S
C1016 C1017 1.377 1_655 S
C1016 C1018 1.384 . S
C1017 C1016 1.377 1_455 S
C1017 C1023 1.390 . S
C1018 H1009 0.930 . S
C1018 C1016 1.384 . S
C1018 C1019 1.372 1_655 S
C1019 C1018 1.372 1_455 S
C1019 C1020 1.400 . S
C1019 C1024 1.490 . S
C1020 H1010 0.930 . S
C1020 C1019 1.400 . S
C1020 C1023 1.386 . S
H1021 C1037 0.930 . S
H1022 C1038 0.931 . S
C1023 H1011 0.929 . S
C1023 C1017 1.390 . S
C1023 C1020 1.386 . S
C1024 C1019 1.490 . S
C1024 C1026 1.395 1_455 S
C1024 C1027 1.403 . S
H1025 C1031 0.930 . S
C1026 H1012 0.930 . S
C1026 C1024 1.395 1_655 S
C1026 C1029 1.403 . S
C1027 C1024 1.403 . S
C1027 C1028 1.524 . S
C1027 C1031 1.400 . S
C1028 H1013 0.960 . S
C1028 H1014 0.960 . S
C1028 H1015 0.960 . S
C1028 C1027 1.524 . S
C1029 C1026 1.403 . S
C1029 C1030 1.392 1_655 S
C1029 C1033 1.495 . S
C1030 C1029 1.392 1_455 S
C1030 C1031 1.385 . S
C1030 C1032 1.478 . S
C1031 H1025 0.930 . S
C1031 C1027 1.400 . S
C1031 C1030 1.385 . S
C1032 C1030 1.478 . S
C1032 C1034 1.381 1_455 S
C1032 C1038 1.383 . S
C1033 C1029 1.495 . S
C1033 H1039 0.959 . S
C1033 H1040 0.961 . S
C1033 H1041 0.960 . S
C1034 C1032 1.381 1_655 S
C1034 C1035 1.394 . S
C1034 H1042 0.930 . S
C1035 C1034 1.394 . S
C1035 C1036 1.383 1_655 S
C1035 H1043 0.929 . S
C1036 C1035 1.383 1_455 S
C1036 C1037 1.377 . S
C1037 H1021 0.930 . S
C1037 C1036 1.377 . S
C1037 C1038 1.379 . S
C1038 H1022 0.931 . S
C1038 C1032 1.383 . S
C1038 C1037 1.379 . S
H1039 C1033 0.959 . S
H1040 C1033 0.961 . S
H1041 C1033 0.960 . S
H1042 C1034 0.930 . S
H1043 C1035 0.929 . S
H1044 C1052 0.929 . S
H1045 C1054 0.930 . S
H1046 C1056 0.930 . S
H1047 C1059 0.929 . S
H1048 C1062 0.930 . S
H1049 C1064 0.960 . S
H1050 C1064 0.960 . S
H1051 C1064 0.960 . S
C1052 H1044 0.929 . S
C1052 C1053 1.377 . S
C1052 C1054 1.384 . S
C1053 C1052 1.377 . S
C1053 C1059 1.390 . S
C1054 H1045 0.930 . S
C1054 C1052 1.384 . S
C1054 C1055 1.372 . S
C1055 C1054 1.372 . S
C1055 C1056 1.400 . S
C1055 C1060 1.490 . S
C1056 H1046 0.930 . S
C1056 C1055 1.400 . S
C1056 C1059 1.386 . S
H1057 C1073 0.930 . S
H1058 C1074 0.931 . S
C1059 H1047 0.929 . S
C1059 C1053 1.390 . S
C1059 C1056 1.386 . S
C1060 C1055 1.490 . S
C1060 C1062 1.395 . S
C1060 C1063 1.403 . S
H1061 C1067 0.930 . S
C1062 H1048 0.930 . S
C1062 C1060 1.395 . S
C1062 C1065 1.403 . S
C1063 C1060 1.403 . S
C1063 C1064 1.524 . S
C1063 C1067 1.400 . S
C1064 H1049 0.960 . S
C1064 H1050 0.960 . S
C1064 H1051 0.960 . S
C1064 C1063 1.524 . S
C1065 C1062 1.403 . S
C1065 C1066 1.392 . S
C1065 C1069 1.495 . S
C1066 C1065 1.392 . S
C1066 C1067 1.385 . S
C1066 C1068 1.478 . S
C1067 H1061 0.930 . S
C1067 C1063 1.400 . S
C1067 C1066 1.385 . S
C1068 C1066 1.478 . S
C1068 C1070 1.381 . S
C1068 C1074 1.383 . S
C1069 C1065 1.495 . S
C1069 H1075 0.959 . S
C1069 H1076 0.961 . S
C1069 H1077 0.960 . S
C1070 C1068 1.381 . S
C1070 C1071 1.394 . S
C1070 H1078 0.930 . S
C1071 C1070 1.394 . S
C1071 C1072 1.383 . S
C1071 H1079 0.929 . S
C1072 C1071 1.383 . S
C1072 C1073 1.377 . S
C1073 H1057 0.930 . S
C1073 C1072 1.377 . S
C1073 C1074 1.379 . S
C1074 H1058 0.931 . S
C1074 C1068 1.383 . S
C1074 C1073 1.379 . S
H1075 C1069 0.959 . S
H1076 C1069 0.961 . S
H1077 C1069 0.960 . S
H1078 C1070 0.930 . S
H1079 C1071 0.929 . S
H1080 C1088 0.928 . S
H1081 C1090 0.930 1_565 S
H1082 C1092 0.930 . S
H1083 C1095 0.929 . S
H1084 C1098 0.930 . S
H1085 C1100 0.960 . S
H1086 C1100 0.960 . S
H1087 C1100 0.960 . S
C1088 H1080 0.928 . S
C1088 C1089 1.377 . S
C1088 C1090 1.384 . S
C1089 C1088 1.377 . S
C1089 C1095 1.390 . S
C1090 H1081 0.930 1_545 S
C1090 C1088 1.384 . S
C1090 C1091 1.372 . S
C1091 C1090 1.372 . S
C1091 C1092 1.400 . S
C1091 C1096 1.490 . S
C1092 H1082 0.930 . S
C1092 C1091 1.400 . S
C1092 C1095 1.386 . S
H1093 C1109 0.930 . S
H1094 C1110 0.931 . S
C1095 H1083 0.929 . S
C1095 C1089 1.390 . S
C1095 C1092 1.386 . S
C1096 C1091 1.490 . S
C1096 C1098 1.395 . S
C1096 C1099 1.403 . S
H1097 C1103 0.930 1_565 S
C1098 H1084 0.930 . S
C1098 C1096 1.395 . S
C1098 C1101 1.403 . S
C1099 C1096 1.403 . S
C1099 C1100 1.524 1_545 S
C1099 C1103 1.400 . S
C1100 H1085 0.960 . S
C1100 H1086 0.960 . S
C1100 H1087 0.960 . S
C1100 C1099 1.524 1_565 S
C1101 C1098 1.403 . S
C1101 C1102 1.392 . S
C1101 C1105 1.495 . S
C1102 C1101 1.392 . S
C1102 C1103 1.385 . S
C1102 C1104 1.478 . S
C1103 H1097 0.930 1_545 S
C1103 C1099 1.400 . S
C1103 C1102 1.385 . S
C1104 C1102 1.478 . S
C1104 C1106 1.381 . S
C1104 C1110 1.383 . S
C1105 C1101 1.495 . S
C1105 H1111 0.959 . S
C1105 H1112 0.961 . S
C1105 H1113 0.960 . S
C1106 C1104 1.381 . S
C1106 C1107 1.394 . S
C1106 H1114 0.930 1_545 S
C1107 C1106 1.394 . S
C1107 C1108 1.383 . S
C1107 H1115 0.929 1_545 S
C1108 C1107 1.383 . S
C1108 C1109 1.377 . S
C1109 H1093 0.930 . S
C1109 C1108 1.377 . S
C1109 C1110 1.379 . S
C1110 H1094 0.931 . S
C1110 C1104 1.383 . S
C1110 C1109 1.379 . S
H1111 C1105 0.959 . S
H1112 C1105 0.961 . S
H1113 C1105 0.960 . S
H1114 C1106 0.930 1_565 S
H1115 C1107 0.929 1_565 S
H1116 C1124 0.929 . S
H1117 C1126 0.930 . S
H1118 C1128 0.930 . S
H1119 C1131 0.929 . S
H1120 C1134 0.930 . S
H1121 C1136 0.960 . S
H1122 C1136 0.960 . S
H1123 C1136 0.960 . S
C1124 H1116 0.929 . S
C1124 C1125 1.377 . S
C1124 C1126 1.384 . S
C1125 C1124 1.377 . S
C1125 C1131 1.390 . S
C1126 H1117 0.930 . S
C1126 C1124 1.384 . S
C1126 C1127 1.372 . S
C1127 C1126 1.372 . S
C1127 C1128 1.400 . S
C1127 C1132 1.490 . S
C1128 H1118 0.930 . S
C1128 C1127 1.400 . S
C1128 C1131 1.386 . S
H1129 C1145 0.930 . S
H1130 C1146 0.931 . S
C1131 H1119 0.929 . S
C1131 C1125 1.390 . S
C1131 C1128 1.386 . S
C1132 C1127 1.490 . S
C1132 C1134 1.395 . S
C1132 C1135 1.403 . S
H1133 C1139 0.930 . S
C1134 H1120 0.930 . S
C1134 C1132 1.395 . S
C1134 C1137 1.403 . S
C1135 C1132 1.403 . S
C1135 C1136 1.524 . S
C1135 C1139 1.400 . S
C1136 H1121 0.960 . S
C1136 H1122 0.960 . S
C1136 H1123 0.960 . S
C1136 C1135 1.524 . S
C1137 C1134 1.403 . S
C1137 C1138 1.392 . S
C1137 C1141 1.495 . S
C1138 C1137 1.392 . S
C1138 C1139 1.385 . S
C1138 C1140 1.476 1_556 S
C1139 H1133 0.930 . S
C1139 C1135 1.400 . S
C1139 C1138 1.385 . S
C1140 C1138 1.476 1_554 S
C1140 C1142 1.382 . S
C1140 C1146 1.383 . S
C1141 C1137 1.495 . S
C1141 H1147 0.959 . S
C1141 H1148 0.961 . S
C1141 H1149 0.960 . S
C1142 C1140 1.382 . S
C1142 C1143 1.394 . S
C1142 H1150 0.930 . S
C1143 C1142 1.394 . S
C1143 C1144 1.383 . S
C1143 H1151 0.929 . S
C1144 C1143 1.383 . S
C1144 C1145 1.377 . S
C1145 H1129 0.930 . S
C1145 C1144 1.377 . S
C1145 C1146 1.379 . S
C1146 H1130 0.931 . S
C1146 C1140 1.383 . S
C1146 C1145 1.379 . S
H1147 C1141 0.959 . S
H1148 C1141 0.961 . S
H1149 C1141 0.960 . S
H1150 C1142 0.930 . S
H1151 C1143 0.929 . S
H1152 C1160 0.929 . S
H1153 C1162 0.930 . S
H1154 C1164 0.930 . S
H1155 C1167 0.929 . S
H1156 C1170 0.930 . S
H1157 C1172 0.960 . S
H1158 C1172 0.960 . S
H1159 C1172 0.960 . S
C1160 H1152 0.929 . S
C1160 C1161 1.377 . S
C1160 C1162 1.384 . S
C1161 C1160 1.377 . S
C1161 C1167 1.390 . S
C1162 H1153 0.930 . S
C1162 C1160 1.384 . S
C1162 C1163 1.372 . S
C1163 C1162 1.372 . S
C1163 C1164 1.400 . S
C1163 C1168 1.490 . S
C1164 H1154 0.930 . S
C1164 C1163 1.400 . S
C1164 C1167 1.386 . S
H1165 C1181 0.930 . S
H1166 C1182 0.931 . S
C1167 H1155 0.929 . S
C1167 C1161 1.390 . S
C1167 C1164 1.386 . S
C1168 C1163 1.490 . S
C1168 C1170 1.395 . S
C1168 C1171 1.403 . S
H1169 C1175 0.930 . S
C1170 H1156 0.930 . S
C1170 C1168 1.395 . S
C1170 C1173 1.403 . S
C1171 C1168 1.403 . S
C1171 C1172 1.524 . S
C1171 C1175 1.400 . S
C1172 H1157 0.960 . S
C1172 H1158 0.960 . S
C1172 H1159 0.960 . S
C1172 C1171 1.524 . S
C1173 C1170 1.403 . S
C1173 C1174 1.392 . S
C1173 C1177 1.495 . S
C1174 C1173 1.392 . S
C1174 C1175 1.385 . S
C1174 C1176 1.476 1_556 S
C1175 H1169 0.930 . S
C1175 C1171 1.400 . S
C1175 C1174 1.385 . S
C1176 C1174 1.476 1_554 S
C1176 C1178 1.382 . S
C1176 C1182 1.383 . S
C1177 C1173 1.495 . S
C1177 H1183 0.959 . S
C1177 H1184 0.961 . S
C1177 H1185 0.960 . S
C1178 C1176 1.382 . S
C1178 C1179 1.394 . S
C1178 H1186 0.930 . S
C1179 C1178 1.394 . S
C1179 C1180 1.383 . S
C1179 H1187 0.929 . S
C1180 C1179 1.383 . S
C1180 C1181 1.377 . S
C1181 H1165 0.930 . S
C1181 C1180 1.377 . S
C1181 C1182 1.379 . S
C1182 H1166 0.931 . S
C1182 C1176 1.383 . S
C1182 C1181 1.379 . S
H1183 C1177 0.959 . S
H1184 C1177 0.961 . S
H1185 C1177 0.960 . S
H1186 C1178 0.930 . S
H1187 C1179 0.929 . S
H1188 C1196 0.929 . S
H1189 C1198 0.930 . S
H1190 C1200 0.930 . S
H1191 C1203 0.929 . S
H1192 C1206 0.930 . S
H1193 C1208 0.960 . S
H1194 C1208 0.960 . S
H1195 C1208 0.960 . S
C1196 H1188 0.929 . S
C1196 C1197 1.377 . S
C1196 C1198 1.384 . S
C1197 C1196 1.377 . S
C1197 C1203 1.390 . S
C1198 H1189 0.930 . S
C1198 C1196 1.384 . S
C1198 C1199 1.372 . S
C1199 C1198 1.372 . S
C1199 C1200 1.400 . S
C1199 C1204 1.490 . S
C1200 H1190 0.930 . S
C1200 C1199 1.400 . S
C1200 C1203 1.386 . S
H1201 C1217 0.930 . S
H1202 C1218 0.931 . S
C1203 H1191 0.929 . S
C1203 C1197 1.390 . S
C1203 C1200 1.386 . S
C1204 C1199 1.490 . S
C1204 C1206 1.395 . S
C1204 C1207 1.403 . S
H1205 C1211 0.930 . S
C1206 H1192 0.930 . S
C1206 C1204 1.395 . S
C1206 C1209 1.403 . S
C1207 C1204 1.403 . S
C1207 C1208 1.524 . S
C1207 C1211 1.400 . S
C1208 H1193 0.960 . S
C1208 H1194 0.960 . S
C1208 H1195 0.960 . S
C1208 C1207 1.524 . S
C1209 C1206 1.403 . S
C1209 C1210 1.392 . S
C1209 C1213 1.495 . S
C1210 C1209 1.392 . S
C1210 C1211 1.385 . S
C1210 C1212 1.480 . S
C1211 H1205 0.930 . S
C1211 C1207 1.400 . S
C1211 C1210 1.385 . S
C1212 C1210 1.480 . S
C1212 C1214 1.380 1_556 S
C1212 C1218 1.382 1_556 S
C1213 C1209 1.495 . S
C1213 H1219 0.959 . S
C1213 H1220 0.961 . S
C1213 H1221 0.960 . S
C1214 C1212 1.380 1_554 S
C1214 C1215 1.394 . S
C1214 H1222 0.930 . S
C1215 C1214 1.394 . S
C1215 C1216 1.383 . S
C1215 H1223 0.929 . S
C1216 C1215 1.383 . S
C1216 C1217 1.377 . S
C1217 H1201 0.930 . S
C1217 C1216 1.377 . S
C1217 C1218 1.379 . S
C1218 H1202 0.931 . S
C1218 C1212 1.382 1_554 S
C1218 C1217 1.379 . S
H1219 C1213 0.959 . S
H1220 C1213 0.961 . S
H1221 C1213 0.960 . S
H1222 C1214 0.930 . S
H1223 C1215 0.929 . S
H1224 C1232 0.929 . S
H1225 C1234 0.930 . S
H1226 C1236 0.930 . S
H1227 C1239 0.929 . S
H1228 C1242 0.930 . S
H1229 C1244 0.960 . S
H1230 C1244 0.960 . S
H1231 C1244 0.960 . S
C1232 H1224 0.929 . S
C1232 C1233 1.377 . S
C1232 C1234 1.384 . S
C1233 C1232 1.377 . S
C1233 C1239 1.390 . S
C1234 H1225 0.930 . S
C1234 C1232 1.384 . S
C1234 C1235 1.372 . S
C1235 C1234 1.372 . S
C1235 C1236 1.400 . S
C1235 C1240 1.490 . S
C1236 H1226 0.930 . S
C1236 C1235 1.400 . S
C1236 C1239 1.386 . S
H1237 C1253 0.930 . S
H1238 C1254 0.931 1_554 S
C1239 H1227 0.929 . S
C1239 C1233 1.390 . S
C1239 C1236 1.386 . S
C1240 C1235 1.490 . S
C1240 C1242 1.395 . S
C1240 C1243 1.403 . S
H1241 C1247 0.930 . S
C1242 H1228 0.930 . S
C1242 C1240 1.395 . S
C1242 C1245 1.403 . S
C1243 C1240 1.403 . S
C1243 C1244 1.524 . S
C1243 C1247 1.400 . S
C1244 H1229 0.960 . S
C1244 H1230 0.960 . S
C1244 H1231 0.960 . S
C1244 C1243 1.524 . S
C1245 C1242 1.403 . S
C1245 C1246 1.392 . S
C1245 C1249 1.495 . S
C1246 C1245 1.392 . S
C1246 C1247 1.385 . S
C1246 C1248 1.478 . S
C1247 H1241 0.930 . S
C1247 C1243 1.400 . S
C1247 C1246 1.385 . S
C1248 C1246 1.478 . S
C1248 C1250 1.381 1_554 S
C1248 C1254 1.383 1_554 S
C1249 C1245 1.495 . S
C1249 H1255 0.959 . S
C1249 H1256 0.961 . S
C1249 H1257 0.960 . S
C1250 C1248 1.381 1_556 S
C1250 C1251 1.394 . S
C1250 H1258 0.930 . S
C1251 C1250 1.394 . S
C1251 C1252 1.383 . S
C1251 H1259 0.929 . S
C1252 C1251 1.383 . S
C1252 C1253 1.377 . S
C1253 H1237 0.930 . S
C1253 C1252 1.377 . S
C1253 C1254 1.379 . S
C1254 H1238 0.931 1_556 S
C1254 C1248 1.383 1_556 S
C1254 C1253 1.379 . S
H1255 C1249 0.959 . S
H1256 C1249 0.961 . S
H1257 C1249 0.960 . S
H1258 C1250 0.930 . S
H1259 C1251 0.929 . S
H1260 C1268 0.929 . S
H1261 C1270 0.937 . S
H1262 C1272 0.930 1_554 S
H1263 C1275 0.929 . S
H1264 C1278 0.930 . S
H1265 C1280 0.960 . S
H1266 C1280 0.960 . S
H1267 C1280 0.960 . S
C1268 H1260 0.929 . S
C1268 C1269 1.377 . S
C1268 C1270 1.384 . S
C1269 C1268 1.377 . S
C1269 C1275 1.390 . S
C1270 H1261 0.937 . S
C1270 C1268 1.384 . S
C1270 C1271 1.372 1_556 S
C1271 C1270 1.372 1_554 S
C1271 C1272 1.400 1_554 S
C1271 C1276 1.490 . S
C1272 H1262 0.930 1_556 S
C1272 C1271 1.400 1_556 S
C1272 C1275 1.386 . S
H1273 C1289 0.930 . S
H1274 C1290 0.931 . S
C1275 H1263 0.929 . S
C1275 C1269 1.390 . S
C1275 C1272 1.386 . S
C1276 C1271 1.490 . S
C1276 C1278 1.395 . S
C1276 C1279 1.403 . S
H1277 C1283 0.930 . S
C1278 H1264 0.930 . S
C1278 C1276 1.395 . S
C1278 C1281 1.403 . S
C1279 C1276 1.403 . S
C1279 C1280 1.524 . S
C1279 C1283 1.400 . S
C1280 H1265 0.960 . S
C1280 H1266 0.960 . S
C1280 H1267 0.960 . S
C1280 C1279 1.524 . S
C1281 C1278 1.403 . S
C1281 C1282 1.392 . S
C1281 C1285 1.495 . S
C1282 C1281 1.392 . S
C1282 C1283 1.385 . S
C1282 C1284 1.478 . S
C1283 H1277 0.930 . S
C1283 C1279 1.400 . S
C1283 C1282 1.385 . S
C1284 C1282 1.478 . S
C1284 C1286 1.381 . S
C1284 C1290 1.383 . S
C1285 C1281 1.495 . S
C1285 H1291 0.959 . S
C1285 H1292 0.961 . S
C1285 H1293 0.960 . S
C1286 C1284 1.381 . S
C1286 C1287 1.394 . S
C1286 H1294 0.930 . S
C1287 C1286 1.394 . S
C1287 C1288 1.383 . S
C1287 H1295 0.929 . S
C1288 C1287 1.383 . S
C1288 C1289 1.377 . S
C1289 H1273 0.930 . S
C1289 C1288 1.377 . S
C1289 C1290 1.379 . S
C1290 H1274 0.931 . S
C1290 C1284 1.383 . S
C1290 C1289 1.379 . S
H1291 C1285 0.959 . S
H1292 C1285 0.961 . S
H1293 C1285 0.960 . S
H1294 C1286 0.930 . S
H1295 C1287 0.929 . S
H1296 C1304 0.929 . S
H1297 C1306 0.930 . S
H1298 C1308 0.930 . S
H1299 C1311 0.929 . S
H1300 C1314 0.930 . S
H1301 C1316 0.960 . S
H1302 C1316 0.960 . S
H1303 C1316 0.960 . S
C1304 H1296 0.929 . S
C1304 C1305 1.377 . S
C1304 C1306 1.384 . S
C1305 C1304 1.377 . S
C1305 C1311 1.390 . S
C1306 H1297 0.930 . S
C1306 C1304 1.384 . S
C1306 C1307 1.372 . S
C1307 C1306 1.372 . S
C1307 C1308 1.400 . S
C1307 C1312 1.490 . S
C1308 H1298 0.930 . S
C1308 C1307 1.400 . S
C1308 C1311 1.386 . S
H1309 C1325 0.930 . S
H1310 C1326 0.931 1_554 S
C1311 H1299 0.929 . S
C1311 C1305 1.390 . S
C1311 C1308 1.386 . S
C1312 C1307 1.490 . S
C1312 C1314 1.395 . S
C1312 C1315 1.403 . S
H1313 C1319 0.930 . S
C1314 H1300 0.930 . S
C1314 C1312 1.395 . S
C1314 C1317 1.403 . S
C1315 C1312 1.403 . S
C1315 C1316 1.524 . S
C1315 C1319 1.400 . S
C1316 H1301 0.960 . S
C1316 H1302 0.960 . S
C1316 H1303 0.960 . S
C1316 C1315 1.524 . S
C1317 C1314 1.403 . S
C1317 C1318 1.392 . S
C1317 C1321 1.495 . S
C1318 C1317 1.392 . S
C1318 C1319 1.385 . S
C1318 C1320 1.478 . S
C1319 H1313 0.930 . S
C1319 C1315 1.400 . S
C1319 C1318 1.385 . S
C1320 C1318 1.478 . S
C1320 C1322 1.381 1_554 S
C1320 C1326 1.383 1_554 S
C1321 C1317 1.495 . S
C1321 H1327 0.959 . S
C1321 H1328 0.961 . S
C1321 H1329 0.960 . S
C1322 C1320 1.381 1_556 S
C1322 C1323 1.394 . S
C1322 H1330 0.930 . S
C1323 C1322 1.394 . S
C1323 C1324 1.383 . S
C1323 H1331 0.929 . S
C1324 C1323 1.383 . S
C1324 C1325 1.377 . S
C1325 H1309 0.930 . S
C1325 C1324 1.377 . S
C1325 C1326 1.379 . S
C1326 H1310 0.931 1_556 S
C1326 C1320 1.383 1_556 S
C1326 C1325 1.379 . S
H1327 C1321 0.959 . S
H1328 C1321 0.961 . S
H1329 C1321 0.960 . S
H1330 C1322 0.930 . S
H1331 C1323 0.929 . S
C369 C10 1.921 . S
C388 C286 1.965 . S
C405 C50 1.918 . S
C424 C326 1.950 . S
C441 C90 1.920 . S
C460 C246 1.952 . S
C477 C170 1.914 . S
C496 C86 1.972 . S
C513 C210 1.914 . S
C532 C6 1.971 . S
C549 C46 1.968 . S
C568 C130 1.908 . S
C585 C290 1.916 . S
C604 C206 1.951 . S
C621 C330 1.921 . S
C640 C126 1.960 . S
C657 C166 1.966 . S
C676 C250 1.893 . S
C693 C99 1.763 . S
C712 C15 1.750 . S
C729 C55 1.758 . S
C748 C19 1.755 . S
C765 C59 1.764 . S
C784 C95 1.745 . S
C801 C135 1.759 . S
C820 C219 1.757 . S
C837 C139 1.763 . S
C856 C175 1.750 . S
C873 C179 1.764 . S
C892 C215 1.762 . S
C909 C339 1.764 . S
C928 C255 1.746 . S
C945 C295 1.757 . S
C964 C259 1.755 . S
C981 C335 1.758 . S
C1000 C299 1.763 . S
C1017 C9 0.919 . S
C1036 C18 0.953 . S
C1053 C49 0.924 . S
C1072 C58 0.920 . S
C1089 C89 0.924 . S
C1108 C98 0.924 . S
C1125 C138 0.908 . S
C1144 C129 0.908 . S
C1161 C178 0.908 . S
C1180 C169 0.908 . S
C1197 C218 0.912 . S
C1216 C209 0.876 . S
C1233 C249 0.923 . S
C1252 C258 0.917 . S
C1269 C298 0.917 . S
C1288 C289 0.884 . S
C1305 C329 0.922 . S
C1324 C338 0.951 . S
