# Generated by pormake.
# Topology sod-g, (3)-cn, num edge types: 1
# Building blocks:
#     Node 0, Type 0, BuildingBlock: OLANEW_clean_sbu_2, # of connection points: 3
#     Node 1, Type 0, BuildingBlock: OLANEW_clean_sbu_2, # of connection points: 3
#     Node 2, Type 0, BuildingBlock: OLANEW_clean_sbu_2, # of connection points: 3
#     Node 3, Type 0, BuildingBlock: OLANEW_clean_sbu_2, # of connection points: 3
#     Node 4, Type 0, BuildingBlock: OLANEW_clean_sbu_2, # of connection points: 3
#     Node 5, Type 0, BuildingBlock: OLANEW_clean_sbu_2, # of connection points: 3
#     Node 6, Type 0, BuildingBlock: OLANEW_clean_sbu_2, # of connection points: 3
#     Node 7, Type 0, BuildingBlock: OLANEW_clean_sbu_2, # of connection points: 3
#     Node 8, Type 0, BuildingBlock: OLANEW_clean_sbu_2, # of connection points: 3
#     Node 9, Type 0, BuildingBlock: OLANEW_clean_sbu_2, # of connection points: 3
#     Node 10, Type 0, BuildingBlock: OLANEW_clean_sbu_2, # of connection points: 3
#     Node 11, Type 0, BuildingBlock: OLANEW_clean_sbu_2, # of connection points: 3
#     Node 12, Type 0, BuildingBlock: OLANEW_clean_sbu_2, # of connection points: 3
#     Node 13, Type 0, BuildingBlock: OLANEW_clean_sbu_2, # of connection points: 3
#     Node 14, Type 0, BuildingBlock: OLANEW_clean_sbu_2, # of connection points: 3
#     Node 15, Type 0, BuildingBlock: OLANEW_clean_sbu_2, # of connection points: 3
#     Node 16, Type 0, BuildingBlock: OLANEW_clean_sbu_2, # of connection points: 3
#     Node 17, Type 0, BuildingBlock: OLANEW_clean_sbu_2, # of connection points: 3
#     Node 18, Type 0, BuildingBlock: OLANEW_clean_sbu_2, # of connection points: 3
#     Node 19, Type 0, BuildingBlock: OLANEW_clean_sbu_2, # of connection points: 3
#     Node 20, Type 0, BuildingBlock: OLANEW_clean_sbu_2, # of connection points: 3
#     Node 21, Type 0, BuildingBlock: OLANEW_clean_sbu_2, # of connection points: 3
#     Node 22, Type 0, BuildingBlock: OLANEW_clean_sbu_2, # of connection points: 3
#     Node 23, Type 0, BuildingBlock: OLANEW_clean_sbu_2, # of connection points: 3
#     Node 24, Type 0, BuildingBlock: OLANEW_clean_sbu_2, # of connection points: 3
#     Node 25, Type 0, BuildingBlock: OLANEW_clean_sbu_2, # of connection points: 3
#     Node 26, Type 0, BuildingBlock: OLANEW_clean_sbu_2, # of connection points: 3
#     Node 27, Type 0, BuildingBlock: OLANEW_clean_sbu_2, # of connection points: 3
#     Node 28, Type 0, BuildingBlock: OLANEW_clean_sbu_2, # of connection points: 3
#     Node 29, Type 0, BuildingBlock: OLANEW_clean_sbu_2, # of connection points: 3
#     Node 30, Type 0, BuildingBlock: OLANEW_clean_sbu_2, # of connection points: 3
#     Node 31, Type 0, BuildingBlock: OLANEW_clean_sbu_2, # of connection points: 3
#     Node 32, Type 0, BuildingBlock: OLANEW_clean_sbu_2, # of connection points: 3
#     Node 33, Type 0, BuildingBlock: OLANEW_clean_sbu_2, # of connection points: 3
#     Node 34, Type 0, BuildingBlock: OLANEW_clean_sbu_2, # of connection points: 3
#     Node 35, Type 0, BuildingBlock: OLANEW_clean_sbu_2, # of connection points: 3
#     Node 36, Type 0, BuildingBlock: OLANEW_clean_sbu_2, # of connection points: 3
#     Node 37, Type 0, BuildingBlock: OLANEW_clean_sbu_2, # of connection points: 3
#     Node 38, Type 0, BuildingBlock: OLANEW_clean_sbu_2, # of connection points: 3
#     Node 39, Type 0, BuildingBlock: OLANEW_clean_sbu_2, # of connection points: 3
#     Node 40, Type 0, BuildingBlock: OLANEW_clean_sbu_2, # of connection points: 3
#     Node 41, Type 0, BuildingBlock: OLANEW_clean_sbu_2, # of connection points: 3
#     Node 42, Type 0, BuildingBlock: OLANEW_clean_sbu_2, # of connection points: 3
#     Node 43, Type 0, BuildingBlock: OLANEW_clean_sbu_2, # of connection points: 3
#     Node 44, Type 0, BuildingBlock: OLANEW_clean_sbu_2, # of connection points: 3
#     Node 45, Type 0, BuildingBlock: OLANEW_clean_sbu_2, # of connection points: 3
#     Node 46, Type 0, BuildingBlock: OLANEW_clean_sbu_2, # of connection points: 3
#     Node 47, Type 0, BuildingBlock: OLANEW_clean_sbu_2, # of connection points: 3
#     Edge 48, Type (0, 0), BuildingBlock: KIFKEQ_clean_linker_1, # of connection points: 2
#     Edge 49, Type (0, 0), BuildingBlock: KIFKEQ_clean_linker_1, # of connection points: 2
#     Edge 50, Type (0, 0), BuildingBlock: KIFKEQ_clean_linker_1, # of connection points: 2
#     Edge 51, Type (0, 0), BuildingBlock: KIFKEQ_clean_linker_1, # of connection points: 2
#     Edge 52, Type (0, 0), BuildingBlock: KIFKEQ_clean_linker_1, # of connection points: 2
#     Edge 53, Type (0, 0), BuildingBlock: KIFKEQ_clean_linker_1, # of connection points: 2
#     Edge 54, Type (0, 0), BuildingBlock: KIFKEQ_clean_linker_1, # of connection points: 2
#     Edge 55, Type (0, 0), BuildingBlock: KIFKEQ_clean_linker_1, # of connection points: 2
#     Edge 56, Type (0, 0), BuildingBlock: KIFKEQ_clean_linker_1, # of connection points: 2
#     Edge 57, Type (0, 0), BuildingBlock: KIFKEQ_clean_linker_1, # of connection points: 2
#     Edge 58, Type (0, 0), BuildingBlock: KIFKEQ_clean_linker_1, # of connection points: 2
#     Edge 59, Type (0, 0), BuildingBlock: KIFKEQ_clean_linker_1, # of connection points: 2
#     Edge 60, Type (0, 0), BuildingBlock: KIFKEQ_clean_linker_1, # of connection points: 2
#     Edge 61, Type (0, 0), BuildingBlock: KIFKEQ_clean_linker_1, # of connection points: 2
#     Edge 62, Type (0, 0), BuildingBlock: KIFKEQ_clean_linker_1, # of connection points: 2
#     Edge 63, Type (0, 0), BuildingBlock: KIFKEQ_clean_linker_1, # of connection points: 2
#     Edge 64, Type (0, 0), BuildingBlock: KIFKEQ_clean_linker_1, # of connection points: 2
#     Edge 65, Type (0, 0), BuildingBlock: KIFKEQ_clean_linker_1, # of connection points: 2
#     Edge 66, Type (0, 0), BuildingBlock: KIFKEQ_clean_linker_1, # of connection points: 2
#     Edge 67, Type (0, 0), BuildingBlock: KIFKEQ_clean_linker_1, # of connection points: 2
#     Edge 68, Type (0, 0), BuildingBlock: KIFKEQ_clean_linker_1, # of connection points: 2
#     Edge 69, Type (0, 0), BuildingBlock: KIFKEQ_clean_linker_1, # of connection points: 2
#     Edge 70, Type (0, 0), BuildingBlock: KIFKEQ_clean_linker_1, # of connection points: 2
#     Edge 71, Type (0, 0), BuildingBlock: KIFKEQ_clean_linker_1, # of connection points: 2
#     Edge 72, Type (0, 0), BuildingBlock: KIFKEQ_clean_linker_1, # of connection points: 2
#     Edge 73, Type (0, 0), BuildingBlock: KIFKEQ_clean_linker_1, # of connection points: 2
#     Edge 74, Type (0, 0), BuildingBlock: KIFKEQ_clean_linker_1, # of connection points: 2
#     Edge 75, Type (0, 0), BuildingBlock: KIFKEQ_clean_linker_1, # of connection points: 2
#     Edge 76, Type (0, 0), BuildingBlock: KIFKEQ_clean_linker_1, # of connection points: 2
#     Edge 77, Type (0, 0), BuildingBlock: KIFKEQ_clean_linker_1, # of connection points: 2
#     Edge 78, Type (0, 0), BuildingBlock: KIFKEQ_clean_linker_1, # of connection points: 2
#     Edge 79, Type (0, 0), BuildingBlock: KIFKEQ_clean_linker_1, # of connection points: 2
#     Edge 80, Type (0, 0), BuildingBlock: KIFKEQ_clean_linker_1, # of connection points: 2
#     Edge 81, Type (0, 0), BuildingBlock: KIFKEQ_clean_linker_1, # of connection points: 2
#     Edge 82, Type (0, 0), BuildingBlock: KIFKEQ_clean_linker_1, # of connection points: 2
#     Edge 83, Type (0, 0), BuildingBlock: KIFKEQ_clean_linker_1, # of connection points: 2
#     Edge 84, Type (0, 0), BuildingBlock: KIFKEQ_clean_linker_1, # of connection points: 2
#     Edge 85, Type (0, 0), BuildingBlock: KIFKEQ_clean_linker_1, # of connection points: 2
#     Edge 86, Type (0, 0), BuildingBlock: KIFKEQ_clean_linker_1, # of connection points: 2
#     Edge 87, Type (0, 0), BuildingBlock: KIFKEQ_clean_linker_1, # of connection points: 2
#     Edge 88, Type (0, 0), BuildingBlock: KIFKEQ_clean_linker_1, # of connection points: 2
#     Edge 89, Type (0, 0), BuildingBlock: KIFKEQ_clean_linker_1, # of connection points: 2
#     Edge 90, Type (0, 0), BuildingBlock: KIFKEQ_clean_linker_1, # of connection points: 2
#     Edge 91, Type (0, 0), BuildingBlock: KIFKEQ_clean_linker_1, # of connection points: 2
#     Edge 92, Type (0, 0), BuildingBlock: KIFKEQ_clean_linker_1, # of connection points: 2
#     Edge 93, Type (0, 0), BuildingBlock: KIFKEQ_clean_linker_1, # of connection points: 2
#     Edge 94, Type (0, 0), BuildingBlock: KIFKEQ_clean_linker_1, # of connection points: 2
#     Edge 95, Type (0, 0), BuildingBlock: KIFKEQ_clean_linker_1, # of connection points: 2
#     Edge 96, Type (0, 0), BuildingBlock: KIFKEQ_clean_linker_1, # of connection points: 2
#     Edge 97, Type (0, 0), BuildingBlock: KIFKEQ_clean_linker_1, # of connection points: 2
#     Edge 98, Type (0, 0), BuildingBlock: KIFKEQ_clean_linker_1, # of connection points: 2
#     Edge 99, Type (0, 0), BuildingBlock: KIFKEQ_clean_linker_1, # of connection points: 2
#     Edge 100, Type (0, 0), BuildingBlock: KIFKEQ_clean_linker_1, # of connection points: 2
#     Edge 101, Type (0, 0), BuildingBlock: KIFKEQ_clean_linker_1, # of connection points: 2
#     Edge 102, Type (0, 0), BuildingBlock: KIFKEQ_clean_linker_1, # of connection points: 2
#     Edge 103, Type (0, 0), BuildingBlock: KIFKEQ_clean_linker_1, # of connection points: 2
#     Edge 104, Type (0, 0), BuildingBlock: KIFKEQ_clean_linker_1, # of connection points: 2
#     Edge 105, Type (0, 0), BuildingBlock: KIFKEQ_clean_linker_1, # of connection points: 2
#     Edge 106, Type (0, 0), BuildingBlock: KIFKEQ_clean_linker_1, # of connection points: 2
#     Edge 107, Type (0, 0), BuildingBlock: KIFKEQ_clean_linker_1, # of connection points: 2
#     Edge 108, Type (0, 0), BuildingBlock: KIFKEQ_clean_linker_1, # of connection points: 2
#     Edge 109, Type (0, 0), BuildingBlock: KIFKEQ_clean_linker_1, # of connection points: 2
#     Edge 110, Type (0, 0), BuildingBlock: KIFKEQ_clean_linker_1, # of connection points: 2
#     Edge 111, Type (0, 0), BuildingBlock: KIFKEQ_clean_linker_1, # of connection points: 2
#     Edge 112, Type (0, 0), BuildingBlock: KIFKEQ_clean_linker_1, # of connection points: 2
#     Edge 113, Type (0, 0), BuildingBlock: KIFKEQ_clean_linker_1, # of connection points: 2
#     Edge 114, Type (0, 0), BuildingBlock: KIFKEQ_clean_linker_1, # of connection points: 2
#     Edge 115, Type (0, 0), BuildingBlock: KIFKEQ_clean_linker_1, # of connection points: 2
#     Edge 116, Type (0, 0), BuildingBlock: KIFKEQ_clean_linker_1, # of connection points: 2
#     Edge 117, Type (0, 0), BuildingBlock: KIFKEQ_clean_linker_1, # of connection points: 2
#     Edge 118, Type (0, 0), BuildingBlock: KIFKEQ_clean_linker_1, # of connection points: 2
#     Edge 119, Type (0, 0), BuildingBlock: KIFKEQ_clean_linker_1, # of connection points: 2
# Relax obj value: 0.024
# Max RMSD: 0.011
# Mean RMSD: 0.011
data_MOF--net-sod-g--node1-OLANEW_clean_sbu_2--edge1-KIFKEQ_clean_linker_1
_symmetry_space_group_name_H-M    P1
_symmetry_Int_Tables_number       1
_symmetry_cell_setting            triclinic
loop_
_symmetry_equiv_pos_as_xyz
'x, y, z'
_cell_length_a     104.31348
_cell_length_b     104.30273
_cell_length_c     104.31127
_cell_angle_alpha  90.014168
_cell_angle_beta   89.989851
_cell_angle_gamma 90.016852
loop_
_atom_site_label
_atom_site_type_symbol
_atom_site_fract_x
_atom_site_fract_y
_atom_site_fract_z
_atom_type_partial_charge
O0 O 0.03755 0.46113 0.13839 0.0
Cd1 Cd 0.057 0.44824 0.1371 0.0
O2 O 0.04534 0.46716 0.15692 0.0
Cd3 Cd 0.04373 0.47674 0.17544 0.0
O4 O 0.03978 0.47977 0.19572 0.0
C5 C 0.0325 0.4716 0.20107 0.0
O6 O 0.02768 0.46227 0.1941 0.0
C7 C 0.03671 0.46805 0.14837 0.0
C8 C 0.07609 0.46402 0.12723 0.0
O9 O 0.06994 0.45626 0.11996 0.0
O10 O 0.0735 0.46402 0.13924 0.0
O11 O 0.53316 0.03712 0.1376 0.0
Cd12 Cd 0.54628 0.05629 0.13523 0.0
O13 O 0.53132 0.04063 0.15821 0.0
Cd14 Cd 0.5236 0.03769 0.17747 0.0
O15 O 0.51984 0.03396 0.19769 0.0
C16 C 0.52365 0.02349 0.20262 0.0
O17 O 0.52939 0.01501 0.19528 0.0
C18 C 0.52845 0.034 0.14838 0.0
C19 C 0.53106 0.07399 0.12236 0.0
O20 O 0.5383 0.06619 0.11622 0.0
O21 O 0.53142 0.07377 0.13464 0.0
O22 O 0.96423 0.53859 0.13802 0.0
Cd23 Cd 0.9449 0.55109 0.13411 0.0
O24 O 0.95627 0.53324 0.15671 0.0
Cd25 Cd 0.95766 0.52436 0.17562 0.0
O26 O 0.96055 0.52139 0.19611 0.0
C27 C 0.96711 0.52979 0.20201 0.0
O28 O 0.97191 0.53944 0.19548 0.0
C29 C 0.96506 0.53218 0.14834 0.0
C30 C 0.92829 0.53492 0.12093 0.0
O31 O 0.93619 0.54218 0.11493 0.0
O32 O 0.92789 0.53569 0.13318 0.0
O33 O 0.45821 0.96057 0.13759 0.0
Cd34 Cd 0.44625 0.94091 0.13366 0.0
O35 O 0.46385 0.95285 0.15629 0.0
Cd36 Cd 0.47298 0.95435 0.17507 0.0
O37 O 0.47835 0.95764 0.19499 0.0
C38 C 0.47733 0.96883 0.19969 0.0
O39 O 0.47345 0.97825 0.19227 0.0
C40 C 0.46462 0.96164 0.14788 0.0
C41 C 0.4632 0.92417 0.12166 0.0
O42 O 0.45617 0.93185 0.11514 0.0
O43 O 0.46186 0.92407 0.13388 0.0
O44 O 0.04016 0.53732 0.86233 0.0
Cd45 Cd 0.0601 0.5495 0.86179 0.0
O46 O 0.045 0.53211 0.8426 0.0
Cd47 Cd 0.04121 0.52358 0.82386 0.0
O48 O 0.03756 0.5207 0.80348 0.0
C49 C 0.03346 0.53031 0.79723 0.0
O50 O 0.03145 0.54113 0.80337 0.0
C51 C 0.03764 0.53097 0.85225 0.0
C52 C 0.07903 0.53374 0.87196 0.0
O53 O 0.07349 0.54222 0.87891 0.0
O54 O 0.07593 0.53301 0.8601 0.0
O55 O 0.46237 0.03888 0.85933 0.0
Cd56 Cd 0.4503 0.05862 0.86245 0.0
O57 O 0.46678 0.04483 0.83968 0.0
Cd58 Cd 0.47459 0.04196 0.82047 0.0
O59 O 0.47745 0.03892 0.79999 0.0
C60 C 0.46825 0.03393 0.79377 0.0
O61 O 0.45776 0.03071 0.79997 0.0
C62 C 0.46815 0.03687 0.84881 0.0
C63 C 0.46644 0.07525 0.87566 0.0
O64 O 0.45894 0.06757 0.88165 0.0
O65 O 0.46596 0.0754 0.86339 0.0
O66 O 0.96004 0.46422 0.86611 0.0
Cd67 Cd 0.9401 0.45201 0.86584 0.0
O68 O 0.95702 0.46598 0.84548 0.0
Cd69 Cd 0.95998 0.47245 0.82578 0.0
O70 O 0.96298 0.47265 0.80511 0.0
C71 C 0.96562 0.46195 0.79993 0.0
O72 O 0.96652 0.45173 0.80724 0.0
C73 C 0.96363 0.46869 0.85538 0.0
C74 C 0.9208 0.46807 0.87479 0.0
O75 O 0.92627 0.46 0.88227 0.0
O76 O 0.92419 0.46827 0.86298 0.0
O77 O 0.53729 0.96273 0.86369 0.0
Cd78 Cd 0.55006 0.94348 0.86703 0.0
O79 O 0.53473 0.95734 0.84358 0.0
Cd80 Cd 0.52662 0.95845 0.82431 0.0
O81 O 0.52315 0.96085 0.80387 0.0
C82 C 0.53057 0.96832 0.79774 0.0
O83 O 0.53966 0.97438 0.80402 0.0
C84 C 0.53227 0.96492 0.85281 0.0
C85 C 0.53421 0.92635 0.87993 0.0
O86 O 0.54137 0.93424 0.88606 0.0
O87 O 0.53493 0.92621 0.86767 0.0
O88 O 0.13399 0.03722 0.45974 0.0
Cd89 Cd 0.13025 0.05648 0.44709 0.0
O90 O 0.15318 0.04447 0.46417 0.0
Cd91 Cd 0.17242 0.04283 0.47225 0.0
O92 O 0.19286 0.03992 0.47539 0.0
C93 C 0.19906 0.0344 0.46648 0.0
O94 O 0.19286 0.03065 0.45617 0.0
C95 C 0.14452 0.03604 0.46572 0.0
C96 C 0.11852 0.07389 0.46352 0.0
O97 O 0.11189 0.06604 0.45679 0.0
O98 O 0.13073 0.07386 0.4621 0.0
O99 O 0.95654 0.14091 0.46545 0.0
Cd100 Cd 0.9362 0.14045 0.45397 0.0
O101 O 0.9519 0.16093 0.46974 0.0
Cd102 Cd 0.95638 0.17992 0.47733 0.0
O103 O 0.96156 0.19996 0.48018 0.0
C104 C 0.96803 0.20538 0.4714 0.0
O105 O 0.97147 0.19863 0.46133 0.0
C106 C 0.95928 0.15133 0.47113 0.0
C107 C 0.91862 0.12806 0.46973 0.0
O108 O 0.92434 0.122 0.4607 0.0
O109 O 0.9209 0.14006 0.47103 0.0
O110 O 0.86073 0.96106 0.45863 0.0
Cd111 Cd 0.86473 0.94163 0.44631 0.0
O112 O 0.84236 0.95285 0.46466 0.0
Cd113 Cd 0.82373 0.95396 0.47418 0.0
O114 O 0.8035 0.95678 0.47858 0.0
C115 C 0.7986 0.96782 0.477 0.0
O116 O 0.80601 0.9773 0.47326 0.0
C117 C 0.8506 0.96181 0.46533 0.0
C118 C 0.87812 0.92526 0.46254 0.0
O119 O 0.88402 0.93314 0.45519 0.0
O120 O 0.86587 0.92477 0.46185 0.0
O121 O 0.03883 0.86185 0.46089 0.0
Cd122 Cd 0.05832 0.86404 0.44824 0.0
O123 O 0.04263 0.84138 0.46329 0.0
Cd124 Cd 0.04043 0.82203 0.47099 0.0
O125 O 0.03741 0.80151 0.47343 0.0
C126 C 0.03116 0.79569 0.46474 0.0
O127 O 0.02666 0.80232 0.45502 0.0
C128 C 0.03582 0.85115 0.46587 0.0
C129 C 0.07544 0.87696 0.46409 0.0
O130 O 0.06792 0.88307 0.45654 0.0
O131 O 0.07529 0.86468 0.46371 0.0
O132 O 0.13429 0.96304 0.537 0.0
Cd133 Cd 0.13209 0.94375 0.54997 0.0
O134 O 0.15474 0.95905 0.53469 0.0
Cd135 Cd 0.17401 0.96117 0.52675 0.0
O136 O 0.19448 0.96371 0.5235 0.0
C137 C 0.20111 0.96788 0.53282 0.0
O138 O 0.19532 0.97059 0.54368 0.0
C139 C 0.14502 0.96589 0.532 0.0
C140 C 0.12036 0.92587 0.53404 0.0
O141 O 0.11372 0.93341 0.54112 0.0
O142 O 0.1326 0.9264 0.53492 0.0
O143 O 0.03762 0.13959 0.53692 0.0
Cd144 Cd 0.05755 0.13753 0.5489 0.0
O145 O 0.04149 0.15999 0.5339 0.0
Cd146 Cd 0.03875 0.17914 0.52577 0.0
O147 O 0.03517 0.19936 0.52178 0.0
C148 C 0.02435 0.20422 0.52457 0.0
O149 O 0.0154 0.19683 0.52944 0.0
C150 C 0.03445 0.15022 0.53191 0.0
C151 C 0.07424 0.12416 0.53298 0.0
O152 O 0.06688 0.11826 0.54086 0.0
O153 O 0.07409 0.13645 0.53301 0.0
O154 O 0.86137 0.03464 0.53603 0.0
Cd155 Cd 0.8627 0.0539 0.54919 0.0
O156 O 0.84314 0.04283 0.52967 0.0
Cd157 Cd 0.82473 0.04171 0.51982 0.0
O158 O 0.80439 0.03833 0.51652 0.0
C159 C 0.79848 0.03244 0.52539 0.0
O160 O 0.80494 0.0287 0.53554 0.0
C161 C 0.85152 0.03402 0.5289 0.0
C162 C 0.87271 0.0733 0.53389 0.0
O163 O 0.87992 0.067 0.54159 0.0
O164 O 0.86071 0.07068 0.5337 0.0
O165 O 0.96364 0.8639 0.53682 0.0
Cd166 Cd 0.9442 0.86811 0.54906 0.0
O167 O 0.95727 0.84408 0.53406 0.0
Cd168 Cd 0.95963 0.82431 0.52758 0.0
O169 O 0.9615 0.80356 0.52605 0.0
C170 C 0.954 0.79678 0.53285 0.0
O171 O 0.94548 0.80256 0.54011 0.0
C172 C 0.96532 0.85294 0.53179 0.0
C173 C 0.92729 0.88017 0.53233 0.0
O174 O 0.93513 0.88666 0.53922 0.0
O175 O 0.92713 0.86796 0.5337 0.0
O176 O 0.45972 0.14043 0.0383 0.0
Cd177 Cd 0.44742 0.1368 0.05781 0.0
O178 O 0.46559 0.15912 0.04591 0.0
Cd179 Cd 0.47499 0.17775 0.04418 0.0
O180 O 0.48033 0.19756 0.04024 0.0
C181 C 0.48005 0.20168 0.02878 0.0
O182 O 0.47701 0.19372 0.01949 0.0
C183 C 0.46631 0.15061 0.03721 0.0
C184 C 0.46357 0.12359 0.07441 0.0
O185 O 0.45626 0.1176 0.06654 0.0
O186 O 0.46288 0.13585 0.07475 0.0
O187 O 0.46365 0.86201 0.96495 0.0
Cd188 Cd 0.45063 0.86508 0.94582 0.0
O189 O 0.46633 0.84188 0.9597 0.0
Cd190 Cd 0.47461 0.8227 0.96101 0.0
O191 O 0.47797 0.80229 0.96381 0.0
C192 C 0.46918 0.79599 0.96943 0.0
O193 O 0.45888 0.8021 0.97334 0.0
C194 C 0.46877 0.85119 0.96718 0.0
C195 C 0.46618 0.878 0.92843 0.0
O196 O 0.45903 0.88412 0.93633 0.0
O197 O 0.46558 0.86573 0.9284 0.0
O198 O 0.13645 0.46421 0.96072 0.0
Cd199 Cd 0.13691 0.45183 0.94089 0.0
O200 O 0.15619 0.46927 0.95575 0.0
Cd201 Cd 0.17499 0.4777 0.95953 0.0
O202 O 0.19525 0.48083 0.96358 0.0
C203 C 0.20123 0.47177 0.96909 0.0
O204 O 0.1949 0.46134 0.97224 0.0
C205 C 0.14658 0.47051 0.96315 0.0
C206 C 0.12718 0.46756 0.9217 0.0
O207 O 0.12004 0.45926 0.92728 0.0
O208 O 0.13902 0.46812 0.9249 0.0
O209 O 0.53538 0.1392 0.96235 0.0
Cd210 Cd 0.54863 0.13655 0.9433 0.0
O211 O 0.53346 0.15975 0.95852 0.0
Cd212 Cd 0.52548 0.17895 0.96116 0.0
O213 O 0.5208 0.19907 0.96438 0.0
C214 C 0.52326 0.20425 0.97514 0.0
O215 O 0.52827 0.19721 0.98431 0.0
C216 C 0.53061 0.15001 0.96528 0.0
C217 C 0.5335 0.12351 0.92563 0.0
O218 O 0.54063 0.11744 0.93357 0.0
O219 O 0.53392 0.13579 0.9257 0.0
O220 O 0.86125 0.53881 0.95947 0.0
Cd221 Cd 0.86 0.55092 0.93952 0.0
O222 O 0.84071 0.53561 0.95701 0.0
Cd223 Cd 0.8218 0.52733 0.96055 0.0
O224 O 0.80147 0.52456 0.96445 0.0
C225 C 0.79523 0.53434 0.96816 0.0
O226 O 0.80135 0.54526 0.96961 0.0
C227 C 0.85096 0.53353 0.96327 0.0
C228 C 0.87013 0.53513 0.92057 0.0
O229 O 0.87702 0.5438 0.92591 0.0
O230 O 0.85832 0.53426 0.92385 0.0
O231 O 0.53863 0.85882 0.04105 0.0
Cd232 Cd 0.55039 0.86242 0.06089 0.0
O233 O 0.53407 0.83933 0.04739 0.0
Cd234 Cd 0.52605 0.82015 0.0448 0.0
O235 O 0.52202 0.79993 0.04143 0.0
C236 C 0.52419 0.79513 0.03045 0.0
O237 O 0.52843 0.80262 0.02124 0.0
C238 C 0.53283 0.84828 0.03922 0.0
C239 C 0.53376 0.87563 0.07703 0.0
O240 O 0.54132 0.88162 0.06942 0.0
O241 O 0.53442 0.86336 0.07736 0.0
O242 O 0.13636 0.53657 0.04213 0.0
Cd243 Cd 0.13725 0.54753 0.06275 0.0
O244 O 0.15671 0.53264 0.04519 0.0
Cd245 Cd 0.17542 0.52387 0.04163 0.0
O246 O 0.19552 0.51942 0.03795 0.0
C247 C 0.20039 0.52184 0.02704 0.0
O248 O 0.19305 0.52659 0.01798 0.0
C249 C 0.14667 0.53128 0.0384 0.0
C250 C 0.12666 0.53102 0.08082 0.0
O251 O 0.11995 0.54 0.07579 0.0
O252 O 0.13848 0.53012 0.07761 0.0
O253 O 0.86635 0.46236 0.0354 0.0
Cd254 Cd 0.87017 0.44948 0.05449 0.0
O255 O 0.84674 0.46569 0.04213 0.0
Cd256 Cd 0.8272 0.47291 0.04 0.0
O257 O 0.80669 0.47542 0.03692 0.0
C258 C 0.80045 0.46576 0.03289 0.0
O259 O 0.80664 0.45501 0.03071 0.0
C260 C 0.85558 0.46785 0.03401 0.0
C261 C 0.88244 0.46556 0.07187 0.0
O262 O 0.88885 0.45871 0.06393 0.0
O263 O 0.87021 0.46442 0.07193 0.0
O264 O 0.53963 0.96187 0.6354 0.0
Cd265 Cd 0.55951 0.94961 0.63622 0.0
O266 O 0.54296 0.96552 0.65575 0.0
Cd267 Cd 0.54011 0.97427 0.67456 0.0
O268 O 0.53683 0.97749 0.69493 0.0
C269 C 0.53233 0.96812 0.70128 0.0
O270 O 0.52976 0.95737 0.69523 0.0
C271 C 0.53628 0.96739 0.64572 0.0
C272 C 0.57856 0.96539 0.62626 0.0
O273 O 0.57308 0.95691 0.61924 0.0
O274 O 0.57534 0.96608 0.63809 0.0
O275 O 0.03701 0.53832 0.63492 0.0
Cd276 Cd 0.04922 0.55809 0.63248 0.0
O277 O 0.03385 0.54291 0.65513 0.0
Cd278 Cd 0.02565 0.54113 0.67434 0.0
O279 O 0.02249 0.53852 0.69483 0.0
C280 C 0.02996 0.53097 0.70078 0.0
O281 O 0.03891 0.5249 0.6943 0.0
C282 C 0.03182 0.53558 0.64559 0.0
C283 C 0.03338 0.57473 0.61895 0.0
O284 O 0.04121 0.56727 0.61312 0.0
O285 O 0.03342 0.57471 0.63124 0.0
O286 O 0.46308 0.03756 0.63158 0.0
Cd287 Cd 0.44359 0.04981 0.62774 0.0
O288 O 0.45633 0.03386 0.65111 0.0
Cd289 Cd 0.45836 0.0265 0.67061 0.0
O290 O 0.46091 0.02362 0.69115 0.0
C291 C 0.46749 0.03187 0.69725 0.0
O292 O 0.4726 0.04148 0.6909 0.0
C293 C 0.46457 0.03202 0.64231 0.0
C294 C 0.42666 0.03298 0.61584 0.0
O295 O 0.43435 0.03997 0.60928 0.0
O296 O 0.42661 0.03434 0.62806 0.0
O297 O 0.96348 0.45945 0.63669 0.0
Cd298 Cd 0.95157 0.43934 0.63629 0.0
O299 O 0.96722 0.45475 0.65677 0.0
Cd300 Cd 0.97434 0.4585 0.67609 0.0
O301 O 0.9762 0.46089 0.69675 0.0
C302 C 0.96984 0.45321 0.70374 0.0
O303 O 0.96287 0.44429 0.69819 0.0
C304 C 0.969 0.46209 0.64721 0.0
C305 C 0.96781 0.42083 0.62608 0.0
O306 O 0.95946 0.42645 0.61905 0.0
O307 O 0.96821 0.42367 0.63802 0.0
O308 O 0.53823 0.04048 0.36046 0.0
Cd309 Cd 0.55761 0.05291 0.36434 0.0
O310 O 0.54599 0.03508 0.3417 0.0
Cd311 Cd 0.54462 0.02598 0.32289 0.0
O312 O 0.54133 0.02068 0.30296 0.0
C313 C 0.53006 0.02136 0.29838 0.0
O314 O 0.52059 0.02483 0.30594 0.0
C315 C 0.53727 0.03406 0.35016 0.0
C316 C 0.57448 0.03649 0.37686 0.0
O317 O 0.56661 0.04352 0.38316 0.0
O318 O 0.57471 0.03759 0.36463 0.0
O319 O 0.96171 0.53541 0.36264 0.0
Cd320 Cd 0.94964 0.55495 0.36681 0.0
O321 O 0.96703 0.54339 0.34395 0.0
Cd322 Cd 0.97566 0.54187 0.32493 0.0
O323 O 0.97849 0.53878 0.30445 0.0
C324 C 0.96948 0.53318 0.29846 0.0
O325 O 0.95931 0.52946 0.3049 0.0
C326 C 0.96797 0.5345 0.35224 0.0
C327 C 0.96621 0.57138 0.37973 0.0
O328 O 0.95893 0.5636 0.38585 0.0
O329 O 0.96531 0.57173 0.36748 0.0
O330 O 0.46357 0.96358 0.36058 0.0
Cd331 Cd 0.44462 0.95015 0.36294 0.0
O332 O 0.45978 0.96564 0.34004 0.0
Cd333 Cd 0.46233 0.97369 0.32086 0.0
O334 O 0.4657 0.97777 0.30065 0.0
C335 C 0.47622 0.97436 0.29554 0.0
O336 O 0.48498 0.96883 0.3027 0.0
C337 C 0.46648 0.96849 0.34982 0.0
C338 C 0.4268 0.9651 0.37598 0.0
O339 O 0.43471 0.95791 0.38204 0.0
O340 O 0.42696 0.96479 0.36369 0.0
O341 O 0.0366 0.45944 0.35984 0.0
Cd342 Cd 0.04876 0.43951 0.36069 0.0
O343 O 0.03021 0.45232 0.34117 0.0
Cd344 Cd 0.02061 0.45471 0.32274 0.0
O345 O 0.01783 0.45906 0.30251 0.0
C346 C 0.02689 0.4651 0.29705 0.0
O347 O 0.03692 0.46846 0.30389 0.0
C348 C 0.02966 0.46077 0.34993 0.0
C349 C 0.03285 0.42121 0.37178 0.0
O350 O 0.04129 0.42712 0.37848 0.0
O351 O 0.03223 0.42365 0.35976 0.0
O352 O 0.63642 0.5325 0.95875 0.0
Cd353 Cd 0.63053 0.55097 0.94575 0.0
O354 O 0.65364 0.54314 0.96434 0.0
Cd355 Cd 0.67229 0.5445 0.97373 0.0
O356 O 0.69273 0.54278 0.97759 0.0
C357 C 0.69882 0.53449 0.97106 0.0
O358 O 0.69248 0.5274 0.9628 0.0
C359 C 0.64657 0.53327 0.96542 0.0
C360 C 0.61846 0.56808 0.96228 0.0
O361 O 0.61205 0.5596 0.95611 0.0
O362 O 0.63056 0.56878 0.96026 0.0
O363 O 0.46051 0.63425 0.96071 0.0
Cd364 Cd 0.44065 0.63442 0.94839 0.0
O365 O 0.45617 0.65439 0.9645 0.0
Cd366 Cd 0.45836 0.67316 0.97352 0.0
O367 O 0.46156 0.69341 0.97747 0.0
C368 C 0.46854 0.69959 0.96963 0.0
O369 O 0.47365 0.69344 0.95989 0.0
C370 C 0.46337 0.64471 0.96626 0.0
C371 C 0.42143 0.62516 0.96438 0.0
O372 O 0.42701 0.61777 0.95629 0.0
O373 O 0.42466 0.637 0.96462 0.0
O374 O 0.36229 0.46012 0.96389 0.0
Cd375 Cd 0.36228 0.44039 0.95136 0.0
O376 O 0.34254 0.45487 0.9686 0.0
Cd377 Cd 0.32359 0.45836 0.97681 0.0
O378 O 0.30333 0.46215 0.98024 0.0
C379 C 0.2975 0.4693 0.97229 0.0
O380 O 0.30398 0.47428 0.9627 0.0
C381 C 0.35203 0.46238 0.97004 0.0
C382 C 0.37188 0.4211 0.96706 0.0
O383 O 0.37913 0.42683 0.95896 0.0
O384 O 0.36001 0.42422 0.96745 0.0
O385 O 0.53586 0.3651 0.96304 0.0
Cd386 Cd 0.55534 0.36794 0.95047 0.0
O387 O 0.54069 0.34485 0.96576 0.0
Cd388 Cd 0.53871 0.32568 0.97406 0.0
O389 O 0.53579 0.30553 0.97888 0.0
C390 C 0.52498 0.30028 0.97678 0.0
O391 O 0.51562 0.30725 0.97205 0.0
C392 C 0.5333 0.3543 0.96802 0.0
C393 C 0.57266 0.38059 0.96632 0.0
O394 O 0.56499 0.38683 0.95904 0.0
O395 O 0.57248 0.36831 0.96574 0.0
O396 O 0.63968 0.46364 0.03786 0.0
Cd397 Cd 0.63507 0.44466 0.05065 0.0
O398 O 0.65833 0.45528 0.03303 0.0
Cd399 Cd 0.6774 0.45596 0.02444 0.0
O400 O 0.69797 0.45804 0.02143 0.0
C401 C 0.70396 0.46548 0.02899 0.0
O402 O 0.69747 0.47166 0.03785 0.0
C403 C 0.65013 0.46419 0.03164 0.0
C404 C 0.62177 0.42803 0.03459 0.0
O405 O 0.61584 0.43624 0.04156 0.0
O406 O 0.63399 0.42735 0.0356 0.0
O407 O 0.5379 0.63476 0.03573 0.0
Cd408 Cd 0.5576 0.63172 0.04789 0.0
O409 O 0.54394 0.65442 0.03145 0.0
Cd410 Cd 0.5412 0.67366 0.02364 0.0
O411 O 0.53802 0.69405 0.0203 0.0
C412 C 0.52756 0.69909 0.02398 0.0
O413 O 0.5188 0.69176 0.02929 0.0
C414 C 0.53599 0.6453 0.02995 0.0
C415 C 0.57408 0.61825 0.03183 0.0
O416 O 0.56652 0.61238 0.03953 0.0
O417 O 0.57421 0.63054 0.0321 0.0
O418 O 0.36033 0.54107 0.03666 0.0
Cd419 Cd 0.35922 0.56163 0.04771 0.0
O420 O 0.33998 0.54392 0.03256 0.0
Cd421 Cd 0.32136 0.54024 0.02365 0.0
O422 O 0.30125 0.53647 0.01933 0.0
C423 C 0.29632 0.52576 0.02241 0.0
O424 O 0.30362 0.51697 0.02772 0.0
C425 C 0.35011 0.53725 0.03125 0.0
C426 C 0.37 0.57975 0.03139 0.0
O427 O 0.37662 0.57466 0.0404 0.0
O428 O 0.35817 0.57659 0.03038 0.0
O429 O 0.45684 0.35842 0.03672 0.0
Cd430 Cd 0.43668 0.35776 0.04852 0.0
O431 O 0.45223 0.33877 0.03099 0.0
Cd432 Cd 0.45667 0.32044 0.02186 0.0
O433 O 0.46212 0.30078 0.01736 0.0
C434 C 0.47307 0.29673 0.02082 0.0
O435 O 0.48098 0.30468 0.02657 0.0
C436 C 0.45952 0.34851 0.03019 0.0
C437 C 0.4183 0.36889 0.03274 0.0
O438 O 0.42379 0.37541 0.0416 0.0
O439 O 0.42118 0.357 0.03166 0.0
O440 O 0.96014 0.63561 0.53225 0.0
Cd441 Cd 0.94737 0.63044 0.5511 0.0
O442 O 0.9638 0.65449 0.54067 0.0
Cd443 Cd 0.97116 0.67408 0.54007 0.0
O444 O 0.97174 0.69489 0.5383 0.0
C445 C 0.96104 0.70037 0.53634 0.0
O446 O 0.95066 0.69328 0.5355 0.0
C447 C 0.96575 0.6464 0.53177 0.0
C448 C 0.96396 0.61868 0.56833 0.0
O449 O 0.95763 0.61211 0.5601 0.0
O450 O 0.96207 0.63081 0.56873 0.0
O451 O 0.96348 0.36382 0.46173 0.0
Cd452 Cd 0.951 0.36424 0.44198 0.0
O453 O 0.97036 0.34539 0.45442 0.0
Cd454 Cd 0.98034 0.32712 0.45652 0.0
O455 O 0.9835 0.30683 0.46036 0.0
C456 C 0.97517 0.30134 0.46736 0.0
O457 O 0.96566 0.30819 0.47198 0.0
C458 C 0.97072 0.3541 0.46294 0.0
C459 C 0.9668 0.37409 0.42291 0.0
O460 O 0.9587 0.38128 0.42872 0.0
O461 O 0.96714 0.36217 0.42585 0.0
O462 O 0.63836 0.96285 0.45999 0.0
Cd463 Cd 0.63549 0.95075 0.44022 0.0
O464 O 0.65822 0.96688 0.45449 0.0
Cd465 Cd 0.67745 0.97448 0.45789 0.0
O466 O 0.69776 0.97772 0.46171 0.0
C467 C 0.7026 0.97346 0.47204 0.0
O468 O 0.69513 0.96759 0.48032 0.0
C469 C 0.64892 0.96846 0.46221 0.0
C470 C 0.62261 0.96699 0.42344 0.0
O471 O 0.61647 0.95948 0.43098 0.0
O472 O 0.63489 0.96646 0.42348 0.0
O473 O 0.03888 0.63615 0.46338 0.0
Cd474 Cd 0.05195 0.63077 0.4448 0.0
O475 O 0.03344 0.65382 0.45343 0.0
Cd476 Cd 0.02416 0.67256 0.45281 0.0
O477 O 0.02103 0.69308 0.4551 0.0
C478 C 0.02983 0.69922 0.46087 0.0
O479 O 0.03987 0.69288 0.46508 0.0
C480 C 0.03227 0.64636 0.46299 0.0
C481 C 0.03577 0.61796 0.4279 0.0
O482 O 0.04233 0.61184 0.43629 0.0
O483 O 0.03725 0.63014 0.42717 0.0
O484 O 0.36118 0.03592 0.46086 0.0
Cd485 Cd 0.36458 0.04844 0.44145 0.0
O486 O 0.34144 0.03223 0.45477 0.0
Cd487 Cd 0.32202 0.02485 0.45733 0.0
O488 O 0.30148 0.02226 0.4601 0.0
C489 C 0.29551 0.03085 0.46634 0.0
O490 O 0.302 0.04059 0.47102 0.0
C491 C 0.35051 0.03036 0.46268 0.0
C492 C 0.37757 0.03243 0.42455 0.0
O493 O 0.38366 0.03967 0.43239 0.0
O494 O 0.36531 0.03312 0.42435 0.0
O495 O 0.03894 0.36155 0.53926 0.0
Cd496 Cd 0.0509 0.36155 0.55934 0.0
O497 O 0.03165 0.34307 0.54598 0.0
Cd498 Cd 0.02121 0.32509 0.54347 0.0
O499 O 0.0165 0.30504 0.5399 0.0
C500 C 0.01938 0.30015 0.52912 0.0
O501 O 0.02456 0.30749 0.52028 0.0
C502 C 0.03158 0.35199 0.53768 0.0
C503 C 0.03481 0.3719 0.5779 0.0
O504 O 0.04329 0.37884 0.57233 0.0
O505 O 0.03424 0.35998 0.575 0.0
O506 O 0.63727 0.03649 0.53883 0.0
Cd507 Cd 0.63738 0.04829 0.559 0.0
O508 O 0.65752 0.03296 0.54284 0.0
Cd509 Cd 0.67642 0.02436 0.54021 0.0
O510 O 0.69662 0.02098 0.53617 0.0
C511 C 0.70226 0.02897 0.52891 0.0
O512 O 0.69563 0.0385 0.52403 0.0
C513 C 0.64779 0.0312 0.53571 0.0
C514 C 0.62725 0.03211 0.57761 0.0
O515 O 0.62024 0.04057 0.57211 0.0
O516 O 0.63915 0.03159 0.57459 0.0
O517 O 0.36344 0.95856 0.53467 0.0
Cd518 Cd 0.36654 0.94578 0.55395 0.0
O519 O 0.34352 0.96184 0.54034 0.0
Cd520 Cd 0.32454 0.97065 0.53963 0.0
O521 O 0.30412 0.97458 0.53783 0.0
C522 C 0.29761 0.96723 0.53061 0.0
O523 O 0.30352 0.95797 0.52444 0.0
C524 C 0.35274 0.96401 0.53267 0.0
C525 C 0.37932 0.96186 0.57096 0.0
O526 O 0.3855 0.95456 0.56325 0.0
O527 O 0.36705 0.96112 0.57104 0.0
H528 H 0.98988 0.5355 0.141 0.0
H529 H 0.96434 0.50849 0.15921 0.0
H530 H 0.0073 0.51981 0.14223 0.0
H531 H 0.98173 0.49281 0.16041 0.0
H532 H 0.01179 0.46482 0.14118 0.0
H533 H 0.99441 0.48058 0.14258 0.0
H534 H 0.02044 0.50781 0.15973 0.0
H535 H 0.03777 0.49209 0.15834 0.0
C536 C 0.98807 0.52628 0.14543 0.0
C537 C 0.97586 0.52327 0.15022 0.0
C538 C 0.99802 0.51734 0.14616 0.0
C539 C 0.99583 0.50513 0.15143 0.0
C540 C 0.98364 0.50216 0.15631 0.0
C541 C 0.97376 0.51119 0.15577 0.0
C542 C 0.01373 0.47413 0.14537 0.0
C543 C 0.02603 0.47718 0.14986 0.0
C544 C 0.0038 0.4831 0.14623 0.0
C545 C 0.00611 0.49536 0.15131 0.0
C546 C 0.01843 0.49841 0.15579 0.0
C547 C 0.02828 0.48937 0.15513 0.0
H548 H 0.51183 0.02657 0.12988 0.0
H549 H 0.52428 0.01712 0.16819 0.0
H550 H 0.49602 0.00944 0.13075 0.0
H551 H 0.50792 0.00043 0.16941 0.0
H552 H 0.48807 0.96193 0.15939 0.0
H553 H 0.50322 0.97966 0.16044 0.0
H554 H 0.47604 0.00396 0.14076 0.0
H555 H 0.46092 0.98611 0.13967 0.0
C556 C 0.51109 0.0209 0.13855 0.0
C557 C 0.51908 0.0234 0.14909 0.0
C558 C 0.50192 0.01118 0.13912 0.0
C559 C 0.50054 0.00369 0.15024 0.0
C560 C 0.5087 0.00605 0.16072 0.0
C561 C 0.51792 0.01577 0.16012 0.0
C562 C 0.48517 0.97117 0.15567 0.0
C563 C 0.47322 0.97273 0.14968 0.0
C564 C 0.49389 0.98132 0.15619 0.0
C565 C 0.49087 0.99323 0.15066 0.0
C566 C 0.47875 0.99485 0.14494 0.0
C567 C 0.47006 0.98468 0.14438 0.0
H568 H 0.98011 0.47272 0.83519 0.0
H569 H 0.9728 0.48401 0.87433 0.0
H570 H 0.9973 0.48841 0.83382 0.0
H571 H 0.99064 0.49902 0.87334 0.0
H572 H 0.01455 0.53405 0.86404 0.0
H573 H 0.9966 0.51902 0.86443 0.0
H574 H 0.01834 0.49262 0.84098 0.0
H575 H 0.03604 0.5078 0.84037 0.0
C576 C 0.98204 0.47867 0.84344 0.0
C577 C 0.97478 0.47744 0.85471 0.0
C578 C 0.99211 0.48749 0.84277 0.0
C579 C 0.9953 0.49513 0.85343 0.0
C580 C 0.98828 0.49356 0.86483 0.0
C581 C 0.97814 0.48483 0.86546 0.0
C582 C 0.01539 0.52508 0.85887 0.0
C583 C 0.02655 0.52221 0.85194 0.0
C584 C 0.00516 0.51641 0.85917 0.0
C585 C 0.00599 0.50457 0.85273 0.0
C586 C 0.01721 0.50174 0.8458 0.0
C587 C 0.02736 0.51047 0.8454 0.0
H588 H 0.46516 0.01339 0.85967 0.0
H589 H 0.4908 0.03541 0.83582 0.0
H590 H 0.48039 0.99565 0.85968 0.0
H591 H 0.50615 0.01781 0.83595 0.0
H592 H 0.52731 0.97973 0.83153 0.0
H593 H 0.51088 0.99623 0.82928 0.0
H594 H 0.50081 0.99148 0.8692 0.0
H595 H 0.51663 0.97449 0.87117 0.0
C596 C 0.47399 0.01436 0.8543 0.0
C597 C 0.4767 0.02568 0.84756 0.0
C598 C 0.48277 0.00425 0.85438 0.0
C599 C 0.49455 0.00533 0.84789 0.0
C600 C 0.49709 0.01656 0.84087 0.0
C601 C 0.48826 0.02663 0.84072 0.0
C602 C 0.52134 0.98196 0.8397 0.0
C603 C 0.52299 0.97553 0.85141 0.0
C604 C 0.51207 0.99159 0.83849 0.0
C605 C 0.50438 0.99506 0.84901 0.0
C606 C 0.50632 0.98883 0.8608 0.0
C607 C 0.51551 0.9792 0.86198 0.0
H608 H 0.1653 0.98191 0.52652 0.0
H609 H 0.12603 0.97384 0.51622 0.0
H610 H 0.16641 0.99808 0.50964 0.0
H611 H 0.12686 0.99047 0.49991 0.0
H612 H 0.13507 0.01185 0.4635 0.0
H613 H 0.13611 0.99463 0.4793 0.0
H614 H 0.15826 0.01907 0.5044 0.0
H615 H 0.1573 0.03617 0.48853 0.0
C616 C 0.15697 0.98345 0.52054 0.0
C617 C 0.1457 0.97633 0.52244 0.0
C618 C 0.15753 0.99288 0.51101 0.0
C619 C 0.14678 0.99545 0.50328 0.0
C620 C 0.13542 0.98853 0.50545 0.0
C621 C 0.13489 0.9791 0.51492 0.0
C622 C 0.14031 0.01344 0.47232 0.0
C623 C 0.14631 0.02524 0.47468 0.0
C624 C 0.14084 0.00363 0.48142 0.0
C625 C 0.14721 0.00548 0.49316 0.0
C626 C 0.15346 0.01722 0.49538 0.0
C627 C 0.15299 0.02701 0.48624 0.0
H628 H 0.02501 0.13095 0.51724 0.0
H629 H 0.01822 0.17047 0.5274 0.0
H630 H 0.007 0.13162 0.50244 0.0
H631 H 0.00081 0.17151 0.51188 0.0
H632 H 0.96147 0.16409 0.49376 0.0
H633 H 0.97961 0.1642 0.50841 0.0
H634 H 0.00075 0.13995 0.48226 0.0
H635 H 0.98238 0.13966 0.46775 0.0
C636 C 0.01975 0.13984 0.5162 0.0
C637 C 0.02328 0.15078 0.52322 0.0
C638 C 0.00952 0.14028 0.50758 0.0
C639 C 0.00257 0.15168 0.50576 0.0
C640 C 0.00595 0.16256 0.513 0.0
C641 C 0.01613 0.16207 0.52171 0.0
C642 C 0.97011 0.15906 0.49101 0.0
C643 C 0.97064 0.15208 0.47951 0.0
C644 C 0.98051 0.15906 0.49943 0.0
C645 C 0.99169 0.1521 0.49654 0.0
C646 C 0.99224 0.14525 0.48491 0.0
C647 C 0.98177 0.14515 0.47654 0.0
H648 H 0.84022 0.96132 0.48926 0.0
H649 H 0.85765 0.98665 0.46156 0.0
H650 H 0.83916 0.9789 0.50473 0.0
H651 H 0.85666 0.00424 0.47708 0.0
H652 H 0.84168 0.0351 0.5048 0.0
H653 H 0.83996 0.01767 0.48923 0.0
H654 H 0.8567 0.99157 0.51663 0.0
H655 H 0.85835 0.00903 0.53226 0.0
C656 C 0.8435 0.97073 0.48637 0.0
C657 C 0.84879 0.97271 0.47415 0.0
C658 C 0.84306 0.98072 0.49528 0.0
C659 C 0.84782 0.9929 0.49208 0.0
C660 C 0.85282 0.99497 0.47974 0.0
C661 C 0.85341 0.98492 0.47089 0.0
C662 C 0.84472 0.02558 0.50759 0.0
C663 C 0.84993 0.02333 0.5198 0.0
C664 C 0.84388 0.01566 0.49863 0.0
C665 C 0.84814 0.00328 0.50176 0.0
C666 C 0.8532 0.001 0.51404 0.0
C667 C 0.85421 0.01097 0.52294 0.0
H668 H 0.02734 0.87054 0.48089 0.0
H669 H 0.01997 0.83081 0.47186 0.0
H670 H 0.01063 0.86999 0.49708 0.0
H671 H 0.00383 0.82996 0.48875 0.0
H672 H 0.96576 0.83859 0.50995 0.0
H673 H 0.98286 0.83738 0.49409 0.0
H674 H 0.00647 0.86182 0.51784 0.0
H675 H 0.98918 0.86325 0.53351 0.0
C676 C 0.02223 0.86162 0.48246 0.0
C677 C 0.02525 0.85061 0.47533 0.0
C678 C 0.01275 0.86126 0.49188 0.0
C679 C 0.00605 0.84985 0.49445 0.0
C680 C 0.00885 0.83889 0.48709 0.0
C681 C 0.01829 0.8393 0.47756 0.0
C682 C 0.97474 0.8434 0.51193 0.0
C683 C 0.97622 0.85087 0.52303 0.0
C684 C 0.98454 0.84277 0.5028 0.0
C685 C 0.99604 0.84958 0.50462 0.0
C686 C 0.99765 0.85667 0.51599 0.0
C687 C 0.9878 0.85741 0.52503 0.0
H688 H 0.51387 0.13163 0.97277 0.0
H689 H 0.52642 0.16998 0.98193 0.0
H690 H 0.49795 0.13273 0.98979 0.0
H691 H 0.50998 0.17143 0.99852 0.0
H692 H 0.48993 0.16179 0.03701 0.0
H693 H 0.50519 0.16256 0.01937 0.0
H694 H 0.47795 0.14297 0.99504 0.0
H695 H 0.4627 0.14219 0.01279 0.0
C696 C 0.51313 0.14036 0.97835 0.0
C697 C 0.52118 0.15084 0.97581 0.0
C698 C 0.5039 0.14105 0.98801 0.0
C699 C 0.50253 0.15225 0.99539 0.0
C700 C 0.51075 0.16268 0.99298 0.0
C701 C 0.52002 0.16195 0.98332 0.0
C702 C 0.48704 0.15804 0.02778 0.0
C703 C 0.47502 0.15218 0.02618 0.0
C704 C 0.49583 0.15839 0.01768 0.0
C705 C 0.49281 0.15281 0.00579 0.0
C706 C 0.48065 0.1472 0.00413 0.0
C707 C 0.47189 0.14681 0.01425 0.0
H708 H 0.4845 0.86966 0.97638 0.0
H709 H 0.47377 0.83012 0.98225 0.0
H710 H 0.50039 0.86791 0.99335 0.0
H711 H 0.49023 0.8281 0.99876 0.0
H712 H 0.51009 0.83542 0.03793 0.0
H713 H 0.49485 0.83522 0.02025 0.0
H714 H 0.52082 0.85835 0.99771 0.0
H715 H 0.53599 0.85863 0.01551 0.0
C716 C 0.48563 0.86055 0.98123 0.0
C717 C 0.47811 0.84994 0.97775 0.0
C718 C 0.49485 0.85949 0.99085 0.0
C719 C 0.49677 0.84779 0.99726 0.0
C720 C 0.48905 0.83723 0.99397 0.0
C721 C 0.47977 0.83831 0.98434 0.0
C722 C 0.51272 0.84009 0.02905 0.0
C723 C 0.52433 0.84684 0.028 0.0
C724 C 0.50394 0.84006 0.01894 0.0
C725 C 0.50657 0.84683 0.00757 0.0
C726 C 0.51838 0.85323 0.00641 0.0
C727 C 0.52712 0.85332 0.01655 0.0
H728 H 0.16626 0.52703 0.02139 0.0
H729 H 0.12678 0.51732 0.02903 0.0
H730 H 0.16663 0.51185 0.00367 0.0
H731 H 0.1268 0.50279 0.01073 0.0
H732 H 0.13487 0.46756 0.9863 0.0
H733 H 0.13503 0.48244 0.00438 0.0
H734 H 0.15875 0.50854 0.98258 0.0
H735 H 0.15873 0.49355 0.9647 0.0
C736 C 0.15771 0.52153 0.01938 0.0
C737 C 0.14665 0.52302 0.02688 0.0
C738 C 0.15782 0.51302 0.00904 0.0
C739 C 0.14678 0.50595 0.00584 0.0
C740 C 0.13557 0.50782 0.01309 0.0
C741 C 0.1355 0.51627 0.02349 0.0
C742 C 0.14019 0.47645 0.98546 0.0
C743 C 0.14704 0.47927 0.97424 0.0
C744 C 0.14022 0.48502 0.99576 0.0
C745 C 0.14694 0.4967 0.99497 0.0
C746 C 0.15372 0.49952 0.98367 0.0
C747 C 0.15378 0.4909 0.97342 0.0
H748 H 0.86551 0.4664 0.00995 0.0
H749 H 0.84198 0.49014 0.03433 0.0
H750 H 0.86386 0.48229 0.99286 0.0
H751 H 0.84052 0.50617 0.01743 0.0
H752 H 0.83181 0.5278 0.98048 0.0
H753 H 0.83203 0.51121 0.99691 0.0
H754 H 0.87169 0.5031 0.988 0.0
H755 H 0.87111 0.51902 0.97097 0.0
C756 C 0.85989 0.47498 0.01159 0.0
C757 C 0.85366 0.47692 0.02335 0.0
C758 C 0.85903 0.48414 0.00186 0.0
C759 C 0.8521 0.49556 0.00377 0.0
C760 C 0.84573 0.4974 0.01551 0.0
C761 C 0.8465 0.48817 0.02519 0.0
C762 C 0.84044 0.52222 0.98178 0.0
C763 C 0.85129 0.5244 0.97411 0.0
C764 C 0.84066 0.51288 0.99139 0.0
C765 C 0.85182 0.50565 0.99367 0.0
C766 C 0.86282 0.50821 0.9863 0.0
C767 C 0.86254 0.51747 0.97664 0.0
H768 H 0.52795 0.98178 0.62574 0.0
H769 H 0.5197 0.97319 0.66537 0.0
H770 H 0.51077 0.99757 0.62557 0.0
H771 H 0.50306 0.98959 0.6655 0.0
H772 H 0.46488 0.00973 0.65594 0.0
H773 H 0.48214 0.99408 0.65725 0.0
H774 H 0.50594 0.01845 0.63364 0.0
H775 H 0.48852 0.03401 0.63222 0.0
C776 C 0.52252 0.98334 0.63446 0.0
C777 C 0.52542 0.97649 0.64567 0.0
C778 C 0.51278 0.99251 0.63441 0.0
C779 C 0.50568 0.99505 0.64559 0.0
C780 C 0.50836 0.98793 0.65673 0.0
C781 C 0.51808 0.97869 0.65674 0.0
C782 C 0.47393 0.01191 0.65136 0.0
C783 C 0.47546 0.0232 0.64419 0.0
C784 C 0.48381 0.00289 0.65203 0.0
C785 C 0.49543 0.00497 0.64552 0.0
C786 C 0.49704 0.01643 0.63859 0.0
C787 C 0.48712 0.0254 0.63785 0.0
H788 H 0.02626 0.52029 0.6664 0.0
H789 H 0.01756 0.52563 0.6263 0.0
H790 H 0.01026 0.50332 0.66763 0.0
H791 H 0.00227 0.50808 0.62725 0.0
H792 H 0.96662 0.485 0.63498 0.0
H793 H 0.98162 0.50296 0.63526 0.0
H794 H 0.00631 0.48186 0.661 0.0
H795 H 0.99115 0.4641 0.66089 0.0
C796 C 0.02081 0.51799 0.65791 0.0
C797 C 0.02287 0.52461 0.64637 0.0
C798 C 0.01181 0.50806 0.65853 0.0
C799 C 0.00481 0.50442 0.64757 0.0
C800 C 0.0072 0.51082 0.63596 0.0
C801 C 0.01611 0.52079 0.63537 0.0
C802 C 0.97519 0.48431 0.6408 0.0
C803 C 0.97761 0.47328 0.64811 0.0
C804 C 0.98384 0.49454 0.6409 0.0
C805 C 0.99522 0.49387 0.64813 0.0
C806 C 0.99754 0.48284 0.65553 0.0
C807 C 0.98882 0.47267 0.65553 0.0
H808 H 0.47376 0.98505 0.36844 0.0
H809 H 0.48305 0.97323 0.32989 0.0
H810 H 0.49051 0.00127 0.36755 0.0
H811 H 0.49936 0.98998 0.32866 0.0
H812 H 0.53748 0.01067 0.33851 0.0
H813 H 0.52014 0.99508 0.33752 0.0
H814 H 0.49533 0.02151 0.35761 0.0
H815 H 0.51279 0.03708 0.35863 0.0
C816 C 0.47931 0.98601 0.35972 0.0
C817 C 0.47688 0.97808 0.34911 0.0
C818 C 0.48881 0.99541 0.35914 0.0
C819 C 0.49614 0.99709 0.34795 0.0
C820 C 0.49385 0.98898 0.33741 0.0
C821 C 0.48435 0.97953 0.33802 0.0
C822 C 0.5282 0.01331 0.34233 0.0
C823 C 0.52639 0.02519 0.3484 0.0
C824 C 0.51827 0.00433 0.34185 0.0
C825 C 0.50634 0.00702 0.34751 0.0
C826 C 0.50446 0.01905 0.35332 0.0
C827 C 0.51441 0.02801 0.35384 0.0
H828 H 0.03382 0.48538 0.35772 0.0
H829 H 0.00555 0.4608 0.34011 0.0
H830 H 0.01866 0.50332 0.35693 0.0
H831 H 0.99043 0.47869 0.33934 0.0
H832 H 0.96397 0.50968 0.35922 0.0
H833 H 0.97907 0.49178 0.35744 0.0
H834 H 0.00667 0.51683 0.33943 0.0
H835 H 0.99157 0.53469 0.34116 0.0
C836 C 0.02442 0.48387 0.35356 0.0
C837 C 0.02091 0.4718 0.34877 0.0
C838 C 0.01579 0.49412 0.35305 0.0
C839 C 0.00341 0.49236 0.34803 0.0
C840 C -8e-05 0.48028 0.34324 0.0
C841 C 0.00862 0.47011 0.34355 0.0
C842 C 0.97319 0.51128 0.35471 0.0
C843 C 0.97654 0.52348 0.35012 0.0
C844 C 0.9818 0.50107 0.35367 0.0
C845 C 0.994 0.50296 0.34828 0.0
C846 C 0.99731 0.51514 0.34362 0.0
C847 C 0.98862 0.5253 0.34446 0.0
H848 H 0.64262 0.5076 0.96276 0.0
H849 H 0.65684 0.53607 0.98923 0.0
H850 H 0.64563 0.49099 0.97906 0.0
H851 H 0.65999 0.51948 0.00545 0.0
H852 H 0.64265 0.48904 0.03408 0.0
H853 H 0.64387 0.50592 0.01785 0.0
H854 H 0.66309 0.4798 0.99212 0.0
H855 H 0.66177 0.46292 0.00831 0.0
C856 C 0.64662 0.51024 0.97198 0.0
C857 C 0.64972 0.52306 0.97467 0.0
C858 C 0.64841 0.50076 0.98127 0.0
C859 C 0.65308 0.50397 0.99349 0.0
C860 C 0.65638 0.51676 0.9961 0.0
C861 C 0.65475 0.52621 0.98676 0.0
C862 C 0.64734 0.48701 0.02504 0.0
C863 C 0.65231 0.47476 0.02252 0.0
C864 C 0.64809 0.49666 0.01578 0.0
C865 C 0.6536 0.49415 0.00374 0.0
C866 C 0.6588 0.48197 0.00132 0.0
C867 C 0.65821 0.47238 0.01065 0.0
H868 H 0.47263 0.6253 0.98088 0.0
H869 H 0.47922 0.66506 0.9715 0.0
H870 H 0.49 0.62609 0.99646 0.0
H871 H 0.49605 0.66614 0.98766 0.0
H872 H 0.53486 0.65843 0.00737 0.0
H873 H 0.51735 0.65876 0.99195 0.0
H874 H 0.4948 0.63478 0.01714 0.0
H875 H 0.51246 0.63436 0.03248 0.0
C876 C 0.47773 0.63425 0.98223 0.0
C877 C 0.47431 0.64522 0.97523 0.0
C878 C 0.48759 0.63475 0.99127 0.0
C879 C 0.49428 0.64625 0.99351 0.0
C880 C 0.49107 0.65714 0.98623 0.0
C881 C 0.48125 0.65661 0.97713 0.0
C882 C 0.52602 0.65356 0.00979 0.0
C883 C 0.52491 0.64659 0.02124 0.0
C884 C 0.516 0.65367 0.0009 0.0
C885 C 0.50466 0.64677 0.00327 0.0
C886 C 0.50348 0.64002 0.0149 0.0
C887 C 0.51353 0.63986 0.02374 0.0
H888 H 0.36346 0.48571 0.96739 0.0
H889 H 0.33952 0.46363 0.99291 0.0
H890 H 0.36282 0.50371 0.98236 0.0
H891 H 0.33901 0.48145 0.00798 0.0
H892 H 0.33074 0.52008 0.02655 0.0
H893 H 0.3308 0.50245 0.01126 0.0
H894 H 0.37069 0.50998 0.00289 0.0
H895 H 0.37029 0.52818 0.01753 0.0
C896 C 0.35802 0.48475 0.97619 0.0
C897 C 0.35128 0.47341 0.97885 0.0
C898 C 0.35772 0.495 0.98481 0.0
C899 C 0.35083 0.49406 0.99639 0.0
C900 C 0.34416 0.48264 0.99904 0.0
C901 C 0.34439 0.47244 0.99037 0.0
C902 C 0.33939 0.5182 0.02118 0.0
C903 C 0.35036 0.5258 0.0229 0.0
C904 C 0.33953 0.5079 0.0126 0.0
C905 C 0.35072 0.50487 0.0057 0.0
C906 C 0.36182 0.51222 0.00779 0.0
C907 C 0.36164 0.52256 0.01631 0.0
H908 H 0.46138 0.33734 0.00671 0.0
H909 H 0.48254 0.36032 0.03383 0.0
H910 H 0.47925 0.33835 0.99176 0.0
H911 H 0.5006 0.36123 0.01894 0.0
H912 H 0.52382 0.3727 0.98376 0.0
H913 H 0.50616 0.37092 0.99895 0.0
H914 H 0.50062 0.33137 0.98779 0.0
H915 H 0.5177 0.33352 0.97198 0.0
C916 C 0.47003 0.34228 0.00963 0.0
C917 C 0.47071 0.34849 0.02155 0.0
C918 C 0.48026 0.34293 0.00102 0.0
C919 C 0.4914 0.34984 0.00414 0.0
C920 C 0.4921 0.35597 0.01615 0.0
C921 C 0.48181 0.35539 0.02472 0.0
C922 C 0.51877 0.36365 0.98452 0.0
C923 C 0.52237 0.35312 0.97694 0.0
C924 C 0.50876 0.36257 0.99334 0.0
C925 C 0.50209 0.35094 0.99476 0.0
C926 C 0.50555 0.34048 0.98697 0.0
C927 C 0.51552 0.3416 0.97809 0.0
H928 H 0.03486 0.64164 0.48853 0.0
H929 H 0.00843 0.65656 0.46041 0.0
H930 H 0.01841 0.6439 0.50514 0.0
H931 H 0.99201 0.65882 0.47699 0.0
H932 H 0.96383 0.63908 0.50682 0.0
H933 H 0.9801 0.64129 0.49006 0.0
H934 H 0.00473 0.66138 0.51658 0.0
H935 H 0.98845 0.65919 0.53333 0.0
C936 C 0.02561 0.64563 0.48598 0.0
C937 C 0.02296 0.64913 0.47326 0.0
C938 C 0.01624 0.64697 0.49546 0.0
C939 C 0.00397 0.65157 0.49232 0.0
C940 C 0.0014 0.65528 0.47965 0.0
C941 C 0.01084 0.65413 0.47021 0.0
C942 C 0.97262 0.64418 0.50897 0.0
C943 C 0.97482 0.64913 0.52128 0.0
C944 C 0.9819 0.64549 0.49939 0.0
C945 C 0.99364 0.65153 0.50205 0.0
C946 C 0.99574 0.6567 0.5143 0.0
C947 C 0.98637 0.65558 0.52382 0.0
H948 H 0.03628 0.36032 0.51337 0.0
H949 H 0.00716 0.34292 0.53707 0.0
H950 H 0.02142 0.36028 0.49516 0.0
H951 H 0.99236 0.34283 0.51891 0.0
H952 H 0.96636 0.36173 0.48755 0.0
H953 H 0.98126 0.36061 0.50569 0.0
H954 H 0.00982 0.34342 0.48115 0.0
H955 H 0.99496 0.34458 0.46306 0.0
C956 C 0.02675 0.35638 0.51462 0.0
C957 C 0.02293 0.35139 0.52652 0.0
C958 C 0.01829 0.35631 0.50423 0.0
C959 C 0.00577 0.35152 0.50565 0.0
C960 C 0.00195 0.34659 0.51758 0.0
C961 C 0.01047 0.34648 0.5279 0.0
C962 C 0.97579 0.35764 0.48609 0.0
C963 C 0.97945 0.35301 0.474 0.0
C964 C 0.98427 0.35695 0.49645 0.0
C965 C 0.99665 0.35188 0.49479 0.0
C966 C 0.00033 0.34737 0.48266 0.0
C967 C 0.99178 0.34788 0.47237 0.0
H968 H 0.66807 0.02653 0.51957 0.0
H969 H 0.62846 0.01659 0.52624 0.0
H970 H 0.66925 0.01062 0.50253 0.0
H971 H 0.6293 0.00134 0.50858 0.0
H972 H 0.63768 0.96573 0.48557 0.0
H973 H 0.63793 0.98089 0.50338 0.0
H974 H 0.66214 0.00631 0.48132 0.0
H975 H 0.66205 0.99101 0.46369 0.0
C976 C 0.65967 0.02083 0.51751 0.0
C977 C 0.64831 0.02248 0.52456 0.0
C978 C 0.66025 0.01188 0.50755 0.0
C979 C 0.64942 0.00453 0.50428 0.0
C980 C 0.63793 0.00656 0.51105 0.0
C981 C 0.63739 0.01543 0.52106 0.0
C982 C 0.64319 0.97449 0.48464 0.0
C983 C 0.65006 0.97708 0.47337 0.0
C984 C 0.64325 0.98324 0.49478 0.0
C985 C 0.65001 0.99488 0.49378 0.0
C986 C 0.65703 0.99735 0.48254 0.0
C987 C 0.65705 0.98854 0.47244 0.0
H988 H 0.3315 0.97015 0.51822 0.0
H989 H 0.37162 0.97903 0.52315 0.0
H990 H 0.32973 0.98708 0.50215 0.0
H991 H 0.37008 0.99539 0.50663 0.0
H992 H 0.36157 0.03219 0.48619 0.0
H993 H 0.36118 0.01635 0.50339 0.0
H994 H 0.33647 0.99217 0.48055 0.0
H995 H 0.33679 0.00808 0.46345 0.0
C996 C 0.33989 0.97582 0.51601 0.0
C997 C 0.3516 0.97352 0.52223 0.0
C998 C 0.33894 0.98538 0.50663 0.0
C999 C 0.34972 0.99274 0.50324 0.0
C1000 C 0.3615 0.99014 0.50923 0.0
C1001 C 0.36243 0.98065 0.51859 0.0
C1002 C 0.35591 0.02357 0.48495 0.0
C1003 C 0.34903 0.02147 0.47358 0.0
C1004 C 0.35575 0.01445 0.49475 0.0
C1005 C 0.34886 0.00294 0.49332 0.0
C1006 C 0.34171 0.00101 0.48206 0.0
C1007 C 0.34181 0.01018 0.47228 0.0
H1008 H 0.01971 0.45404 0.21563 0.0
H1009 H 0.04012 0.49001 0.21816 0.0
H1010 H 0.01742 0.45367 0.23882 0.0
H1011 H 0.0375 0.48984 0.2414 0.0
H1012 H 0.04586 0.47538 0.28229 0.0
H1013 H 0.0461 0.47802 0.25915 0.0
H1014 H 0.00736 0.46347 0.25705 0.0
H1015 H 0.00726 0.46046 0.28024 0.0
C1016 C 0.02356 0.46197 0.22112 0.0
C1017 C 0.0302 0.472 0.21506 0.0
C1018 C 0.02216 0.4618 0.23444 0.0
C1019 C 0.02732 0.4717 0.242 0.0
C1020 C 0.0336 0.48196 0.23588 0.0
C1021 C 0.03505 0.48209 0.22256 0.0
C1022 C 0.03735 0.47282 0.27692 0.0
C1023 C 0.02658 0.46761 0.2831 0.0
C1024 C 0.03746 0.47443 0.26363 0.0
C1025 C 0.02676 0.47093 0.25622 0.0
C1026 C 0.01583 0.46608 0.26246 0.0
C1027 C 0.01575 0.46441 0.27575 0.0
H1028 H 0.54742 0.01371 0.28032 0.0
H1029 H 0.50774 0.02469 0.28501 0.0
H1030 H 0.5444 0.01263 0.25721 0.0
H1031 H 0.5047 0.02346 0.26183 0.0
H1032 H 0.51206 0.03888 0.22039 0.0
H1033 H 0.5124 0.03657 0.24362 0.0
H1034 H 0.53329 0.00102 0.23982 0.0
H1035 H 0.53309 0.00339 0.21654 0.0
C1036 C 0.53801 0.01573 0.27644 0.0
C1037 C 0.52786 0.01941 0.2845 0.0
C1038 C 0.53625 0.01502 0.26319 0.0
C1039 C 0.52432 0.01802 0.25769 0.0
C1040 C 0.51404 0.02125 0.26579 0.0
C1041 C 0.51578 0.0219 0.27906 0.0
C1042 C 0.51661 0.0305 0.22449 0.0
C1043 C 0.52267 0.02139 0.21662 0.0
C1044 C 0.51672 0.02913 0.23781 0.0
C1045 C 0.52294 0.01864 0.24355 0.0
C1046 C 0.52857 0.00928 0.23566 0.0
C1047 C 0.5284 0.01062 0.22233 0.0
H1048 H 0.95904 0.51091 0.21837 0.0
H1049 H 0.97874 0.54735 0.21753 0.0
H1050 H 0.96069 0.5106 0.2417 0.0
H1051 H 0.98008 0.5472 0.2408 0.0
H1052 H 0.98937 0.53893 0.28231 0.0
H1053 H 0.98985 0.53692 0.25901 0.0
H1054 H 0.95127 0.52181 0.25954 0.0
H1055 H 0.95092 0.52348 0.28279 0.0
C1056 C 0.96374 0.51884 0.22316 0.0
C1057 C 0.9687 0.52919 0.2161 0.0
C1058 C 0.96463 0.51869 0.23653 0.0
C1059 C 0.97046 0.52891 0.24314 0.0
C1060 C 0.97568 0.5391 0.23603 0.0
C1061 C 0.97483 0.53923 0.22267 0.0
C1062 C 0.98103 0.53509 0.27745 0.0
C1063 C 0.97008 0.53142 0.2844 0.0
C1064 C 0.98128 0.534 0.26409 0.0
C1065 C 0.97058 0.52925 0.25739 0.0
C1066 C 0.95975 0.52534 0.26439 0.0
C1067 C 0.95951 0.52639 0.27773 0.0
H1068 H 0.48578 0.95158 0.21749 0.0
H1069 H 0.47338 0.9909 0.21332 0.0
H1070 H 0.48705 0.95445 0.24062 0.0
H1071 H 0.47479 0.99378 0.23651 0.0
H1072 H 0.4602 0.98556 0.27809 0.0
H1073 H 0.46222 0.98549 0.25482 0.0
H1074 H 0.4985 0.9658 0.25795 0.0
H1075 H 0.49645 0.96573 0.28126 0.0
C1076 C 0.48349 0.96089 0.22149 0.0
C1077 C 0.47936 0.97098 0.21357 0.0
C1078 C 0.4843 0.96255 0.23474 0.0
C1079 C 0.48096 0.97433 0.24039 0.0
C1080 C 0.47728 0.98455 0.23244 0.0
C1081 C 0.47652 0.98291 0.21916 0.0
C1082 C 0.46868 0.98134 0.27383 0.0
C1083 C 0.4781 0.97553 0.28152 0.0
C1084 C 0.46988 0.98138 0.2605 0.0
C1085 C 0.48049 0.97557 0.25455 0.0
C1086 C 0.49014 0.9702 0.26226 0.0
C1087 C 0.48898 0.97021 0.27561 0.0
H1088 H 0.01239 0.54173 0.71703 0.0
H1089 H 0.04585 0.5173 0.71647 0.0
H1090 H 0.01199 0.54063 0.74037 0.0
H1091 H 0.04563 0.51647 0.73978 0.0
H1092 H 0.0363 0.50941 0.78158 0.0
H1093 H 0.03416 0.50862 0.7583 0.0
H1094 H 0.0246 0.54892 0.75786 0.0
H1095 H 0.02641 0.54964 0.78109 0.0
C1096 C 0.01964 0.5361 0.72188 0.0
C1097 C 0.0292 0.52967 0.71489 0.0
C1098 C 0.01944 0.53552 0.73526 0.0
C1099 C 0.02882 0.52853 0.74196 0.0
C1100 C 0.03818 0.52182 0.73494 0.0
C1101 C 0.03834 0.52237 0.72156 0.0
C1102 C 0.03365 0.51807 0.77652 0.0
C1103 C 0.03158 0.5296 0.78319 0.0
C1104 C 0.03249 0.51763 0.76317 0.0
C1105 C 0.02925 0.52872 0.7562 0.0
C1106 C 0.02693 0.54017 0.76293 0.0
C1107 C 0.02806 0.5406 0.77626 0.0
H1108 H 0.45854 0.01309 0.71325 0.0
H1109 H 0.47931 0.04896 0.71318 0.0
H1110 H 0.45971 0.01249 0.73659 0.0
H1111 H 0.48019 0.04851 0.73648 0.0
H1112 H 0.48859 0.03918 0.77803 0.0
H1113 H 0.48938 0.03755 0.75471 0.0
H1114 H 0.45026 0.0239 0.75437 0.0
H1115 H 0.44958 0.02522 0.77764 0.0
C1116 C 0.46338 0.02083 0.7182 0.0
C1117 C 0.46878 0.03111 0.71135 0.0
C1118 C 0.46399 0.02052 0.73158 0.0
C1119 C 0.46999 0.03048 0.73841 0.0
C1120 C 0.47564 0.0406 0.73153 0.0
C1121 C 0.47506 0.0409 0.71815 0.0
C1122 C 0.4802 0.03575 0.77297 0.0
C1123 C 0.46901 0.03238 0.77969 0.0
C1124 C 0.48063 0.03487 0.75961 0.0
C1125 C 0.46987 0.03064 0.75266 0.0
C1126 C 0.45878 0.02704 0.75942 0.0
C1127 C 0.45836 0.02788 0.77277 0.0
H1128 H 0.96992 0.44022 0.78602 0.0
H1129 H 0.96479 0.48115 0.78203 0.0
H1130 H 0.97169 0.43817 0.76284 0.0
H1131 H 0.9664 0.47904 0.75877 0.0
H1132 H 0.95772 0.43794 0.72116 0.0
H1133 H 0.9573 0.44023 0.74437 0.0
H1134 H 0.98181 0.4735 0.74161 0.0
H1135 H 0.9821 0.47133 0.71829 0.0
C1136 C 0.96919 0.44879 0.78021 0.0
C1137 C 0.96716 0.46084 0.78587 0.0
C1138 C 0.97014 0.4476 0.76691 0.0
C1139 C 0.96911 0.45843 0.75898 0.0
C1140 C 0.96733 0.47053 0.76465 0.0
C1141 C 0.96634 0.47172 0.77796 0.0
C1142 C 0.96305 0.44573 0.72548 0.0
C1143 C 0.96994 0.45445 0.71787 0.0
C1144 C 0.96287 0.44699 0.7388 0.0
C1145 C 0.96954 0.45703 0.74482 0.0
C1146 C 0.97647 0.46575 0.73723 0.0
C1147 C 0.97669 0.46445 0.72389 0.0
H1148 H 0.51244 0.95783 0.78194 0.0
H1149 H 0.54644 0.98152 0.78164 0.0
H1150 H 0.51159 0.95879 0.7586 0.0
H1151 H 0.5458 0.98218 0.75833 0.0
H1152 H 0.53596 0.98908 0.71668 0.0
H1153 H 0.53422 0.99013 0.73998 0.0
H1154 H 0.52361 0.95008 0.74094 0.0
H1155 H 0.525 0.94913 0.71769 0.0
C1156 C 0.51972 0.96327 0.7769 0.0
C1157 C 0.52955 0.96953 0.78364 0.0
C1158 C 0.51927 0.96376 0.76352 0.0
C1159 C 0.52867 0.97049 0.75658 0.0
C1160 C 0.53831 0.97704 0.76337 0.0
C1161 C 0.53873 0.97659 0.77674 0.0
C1162 C 0.53316 0.98053 0.72186 0.0
C1163 C 0.53068 0.96901 0.71533 0.0
C1164 C 0.53223 0.98111 0.73522 0.0
C1165 C 0.52882 0.97018 0.74234 0.0
C1166 C 0.52608 0.95874 0.73576 0.0
C1167 C 0.52697 0.95817 0.72242 0.0
H1168 H 0.27925 0.01193 0.4582 0.0
H1169 H 0.27983 0.04865 0.47739 0.0
H1170 H 0.2559 0.01175 0.45928 0.0
H1171 H 0.25652 0.04862 0.47818 0.0
H1172 H 0.21475 0.04035 0.48667 0.0
H1173 H 0.23803 0.03839 0.4877 0.0
H1174 H 0.23841 0.02305 0.44921 0.0
H1175 H 0.21517 0.02469 0.4483 0.0
C1176 C 0.2744 0.01995 0.46267 0.0
C1177 C 0.2814 0.03034 0.46764 0.0
C1178 C 0.26102 0.01988 0.46324 0.0
C1179 C 0.25433 0.0302 0.46875 0.0
C1180 C 0.26136 0.04044 0.47401 0.0
C1181 C 0.27474 0.04049 0.47348 0.0
C1182 C 0.2198 0.03648 0.47846 0.0
C1183 C 0.21311 0.03272 0.46739 0.0
C1184 C 0.23315 0.03542 0.47903 0.0
C1185 C 0.24009 0.0306 0.46852 0.0
C1186 C 0.23336 0.02663 0.45754 0.0
C1187 C 0.22003 0.02766 0.45699 0.0
H1188 H 0.9634 0.2219 0.49126 0.0
H1189 H 0.97904 0.22029 0.45293 0.0
H1190 H 0.96669 0.24504 0.49162 0.0
H1191 H 0.98197 0.24342 0.45313 0.0
H1192 H 0.99381 0.28439 0.45992 0.0
H1193 H 0.99363 0.26111 0.46223 0.0
H1194 H 0.95706 0.26336 0.48158 0.0
H1195 H 0.95742 0.28656 0.4796 0.0
C1196 C 0.96758 0.22647 0.48293 0.0
C1197 C 0.97086 0.21927 0.47203 0.0
C1198 C 0.96941 0.23975 0.48311 0.0
C1199 C 0.97451 0.24612 0.47237 0.0
C1200 C 0.97816 0.23883 0.46163 0.0
C1201 C 0.97639 0.22556 0.46148 0.0
C1202 C 0.9858 0.27991 0.46478 0.0
C1203 C 0.97559 0.28732 0.4695 0.0
C1204 C 0.98566 0.26656 0.46604 0.0
C1205 C 0.9753 0.26034 0.47203 0.0
C1206 C 0.96528 0.26782 0.47707 0.0
C1207 C 0.96544 0.28114 0.47585 0.0
H1208 H 0.72069 0.9848 0.45683 0.0
H1209 H 0.71622 0.96369 0.4922 0.0
H1210 H 0.74388 0.98437 0.45951 0.0
H1211 H 0.73944 0.96344 0.49496 0.0
H1212 H 0.78059 0.95016 0.48414 0.0
H1213 H 0.75738 0.95269 0.48421 0.0
H1214 H 0.76162 0.99227 0.4728 0.0
H1215 H 0.78487 0.98971 0.47254 0.0
C1216 C 0.72464 0.9802 0.46526 0.0
C1217 C 0.7166 0.97419 0.47425 0.0
C1218 C 0.73794 0.98003 0.46683 0.0
C1219 C 0.7435 0.97383 0.47742 0.0
C1220 C 0.73545 0.96815 0.48662 0.0
C1221 C 0.72214 0.96836 0.48506 0.0
C1222 C 0.77659 0.95944 0.48177 0.0
C1223 C 0.78458 0.9697 0.47823 0.0
C1224 C 0.76328 0.96091 0.48188 0.0
C1225 C 0.75766 0.97267 0.47844 0.0
C1226 C 0.76567 0.98305 0.47532 0.0
C1227 C 0.77899 0.98159 0.47524 0.0
H1228 H 0.03864 0.77921 0.48372 0.0
H1229 H 0.02033 0.78027 0.44657 0.0
H1230 H 0.03724 0.75588 0.48371 0.0
H1231 H 0.01925 0.75696 0.44641 0.0
H1232 H 0.01007 0.71519 0.45424 0.0
H1233 H 0.00931 0.7385 0.45619 0.0
H1234 H 0.04734 0.73834 0.47263 0.0
H1235 H 0.04796 0.7151 0.471 0.0
C1236 C 0.03429 0.77447 0.47556 0.0
C1237 C 0.02966 0.78159 0.46511 0.0
C1238 C 0.03355 0.76109 0.47553 0.0
C1239 C 0.02821 0.75454 0.46503 0.0
C1240 C 0.02329 0.7617 0.45473 0.0
C1241 C 0.02399 0.77507 0.45478 0.0
C1242 C 0.01823 0.72014 0.45834 0.0
C1243 C 0.02909 0.7133 0.46242 0.0
C1244 C 0.01782 0.73349 0.4594 0.0
C1245 C 0.02827 0.7403 0.46454 0.0
C1246 C 0.03904 0.73341 0.4688 0.0
C1247 C 0.03943 0.72007 0.46778 0.0
H1248 H 0.21605 0.9639 0.5116 0.0
H1249 H 0.21807 0.97457 0.55159 0.0
H1250 H 0.23936 0.965 0.51016 0.0
H1251 H 0.24133 0.97533 0.55023 0.0
H1252 H 0.28247 0.98563 0.54159 0.0
H1253 H 0.25913 0.98698 0.54122 0.0
H1254 H 0.25755 0.95289 0.51772 0.0
H1255 H 0.28085 0.95174 0.51781 0.0
C1256 C 0.22146 0.9665 0.52008 0.0
C1257 C 0.2152 0.9691 0.53173 0.0
C1258 C 0.23483 0.96706 0.51926 0.0
C1259 C 0.24223 0.97021 0.53009 0.0
C1260 C 0.23593 0.97305 0.54166 0.0
C1261 C 0.22258 0.97252 0.54246 0.0
C1262 C 0.27714 0.97849 0.53626 0.0
C1263 C 0.28351 0.96854 0.52979 0.0
C1264 C 0.26376 0.97922 0.5361 0.0
C1265 C 0.25646 0.97 0.5295 0.0
C1266 C 0.26287 0.96024 0.52277 0.0
C1267 C 0.27624 0.95953 0.52289 0.0
H1268 H 0.04094 0.22221 0.51515 0.0
H1269 H 0.00301 0.2179 0.53127 0.0
H1270 H 0.03823 0.2454 0.51498 0.0
H1271 H 0.00025 0.24112 0.53092 0.0
H1272 H 0.00955 0.28226 0.54556 0.0
H1273 H 0.00953 0.25906 0.543 0.0
H1274 H 0.02619 0.26315 0.5053 0.0
H1275 H 0.0264 0.28639 0.50792 0.0
C1276 C 0.03196 0.22619 0.51851 0.0
C1277 C 0.02224 0.2182 0.52333 0.0
C1278 C 0.03037 0.23949 0.51833 0.0
C1279 C 0.01904 0.2451 0.52299 0.0
C1280 C 0.00915 0.23709 0.52742 0.0
C1281 C 0.01072 0.22378 0.52757 0.0
C1282 C 0.01309 0.27823 0.53667 0.0
C1283 C 0.01809 0.28618 0.527 0.0
C1284 C 0.013 0.26493 0.53517 0.0
C1285 C 0.01793 0.25926 0.52397 0.0
C1286 C 0.02249 0.26722 0.51411 0.0
C1287 C 0.02255 0.28054 0.51559 0.0
H1288 H 0.78232 0.03787 0.50541 0.0
H1289 H 0.7829 0.02257 0.54391 0.0
H1290 H 0.75904 0.03563 0.50491 0.0
H1291 H 0.75969 0.02069 0.54356 0.0
H1292 H 0.71862 0.00994 0.53653 0.0
H1293 H 0.74188 0.00943 0.53434 0.0
H1294 H 0.74081 0.04586 0.51463 0.0
H1295 H 0.71757 0.04618 0.51648 0.0
C1296 C 0.77749 0.03401 0.51376 0.0
C1297 C 0.78446 0.03046 0.52473 0.0
C1298 C 0.76414 0.03278 0.51349 0.0
C1299 C 0.75748 0.02803 0.52421 0.0
C1300 C 0.76451 0.02421 0.53506 0.0
C1301 C 0.77783 0.02538 0.5353 0.0
C1302 C 0.72335 0.01778 0.53162 0.0
C1303 C 0.71626 0.02815 0.52677 0.0
C1304 C 0.73669 0.01752 0.53042 0.0
C1305 C 0.74324 0.02766 0.52441 0.0
C1306 C 0.73608 0.03782 0.5192 0.0
C1307 C 0.72275 0.03805 0.52033 0.0
H1308 H 0.97144 0.78182 0.52012 0.0
H1309 H 0.93891 0.77972 0.54571 0.0
H1310 H 0.97322 0.75848 0.52052 0.0
H1311 H 0.94081 0.75647 0.54623 0.0
H1312 H 0.98062 0.71788 0.53695 0.0
H1313 H 0.97895 0.74121 0.53575 0.0
H1314 H 0.93783 0.73804 0.53193 0.0
H1315 H 0.93946 0.7148 0.5333 0.0
C1316 C 0.96467 0.77639 0.52583 0.0
C1317 C 0.95502 0.78263 0.53287 0.0
C1318 C 0.96574 0.76303 0.52611 0.0
C1319 C 0.95715 0.75564 0.5334 0.0
C1320 C 0.94748 0.76189 0.54039 0.0
C1321 C 0.94643 0.77523 0.54014 0.0
C1322 C 0.97123 0.72217 0.53584 0.0
C1323 C 0.96017 0.71449 0.53528 0.0
C1324 C 0.97028 0.73552 0.53507 0.0
C1325 C 0.95825 0.74146 0.53379 0.0
C1326 C 0.94722 0.73376 0.5331 0.0
C1327 C 0.94817 0.72043 0.53382 0.0
H1328 H 0.48695 0.22047 0.04566 0.0
H1329 H 0.47697 0.21421 0.00593 0.0
H1330 H 0.48726 0.24351 0.04196 0.0
H1331 H 0.47742 0.23733 0.00222 0.0
H1332 H 0.45918 0.27794 0.00896 0.0
H1333 H 0.4631 0.25493 0.00942 0.0
H1334 H 0.49815 0.26126 0.03053 0.0
H1335 H 0.49419 0.28432 0.03019 0.0
C1336 C 0.48501 0.224 0.03609 0.0
C1337 C 0.48178 0.21551 0.02613 0.0
C1338 C 0.48528 0.23721 0.03395 0.0
C1339 C 0.48229 0.24223 0.02181 0.0
C1340 C 0.47961 0.23373 0.01171 0.0
C1341 C 0.47941 0.22049 0.01384 0.0
C1342 C 0.46781 0.27445 0.01355 0.0
C1343 C 0.47629 0.28295 0.01968 0.0
C1344 C 0.47011 0.26126 0.01373 0.0
C1345 C 0.48089 0.25628 0.02009 0.0
C1346 C 0.48967 0.26482 0.0257 0.0
C1347 C 0.48742 0.27803 0.02546 0.0
H1348 H 0.45095 0.77961 0.97854 0.0
H1349 H 0.48959 0.78054 0.96362 0.0
H1350 H 0.45189 0.75634 0.97959 0.0
H1351 H 0.49067 0.75722 0.96503 0.0
H1352 H 0.48048 0.71586 0.95298 0.0
H1353 H 0.48152 0.73913 0.95404 0.0
H1354 H 0.46151 0.73839 0.99032 0.0
H1355 H 0.46014 0.71508 0.98907 0.0
C1356 C 0.45971 0.77486 0.97564 0.0
C1357 C 0.47016 0.78192 0.9709 0.0
C1358 C 0.46029 0.7615 0.97633 0.0
C1359 C 0.47135 0.75489 0.97237 0.0
C1360 C 0.48193 0.762 0.96797 0.0
C1361 C 0.48134 0.77536 0.96722 0.0
C1362 C 0.47638 0.72064 0.96124 0.0
C1363 C 0.47012 0.71362 0.97088 0.0
C1364 C 0.47706 0.734 0.96189 0.0
C1365 C 0.47155 0.74064 0.97224 0.0
C1366 C 0.46566 0.73358 0.98211 0.0
C1367 C 0.46493 0.72022 0.98142 0.0
H1368 H 0.21717 0.49212 0.96444 0.0
H1369 H 0.217 0.45313 0.97844 0.0
H1370 H 0.24044 0.49281 0.96668 0.0
H1371 H 0.24022 0.4537 0.98034 0.0
H1372 H 0.28131 0.46097 0.99119 0.0
H1373 H 0.25802 0.46283 0.99186 0.0
H1374 H 0.25868 0.4835 0.95596 0.0
H1375 H 0.28194 0.48194 0.95547 0.0
C1376 C 0.22209 0.48372 0.96803 0.0
C1377 C 0.21524 0.47254 0.97119 0.0
C1378 C 0.23543 0.48409 0.96926 0.0
C1379 C 0.24221 0.47329 0.97363 0.0
C1380 C 0.23531 0.46225 0.97711 0.0
C1381 C 0.22198 0.46189 0.97593 0.0
C1382 C 0.27649 0.46601 0.98351 0.0
C1383 C 0.28347 0.47122 0.97323 0.0
C1384 C 0.26313 0.46703 0.98386 0.0
C1385 C 0.25646 0.47323 0.97392 0.0
C1386 C 0.2635 0.47879 0.96385 0.0
C1387 C 0.27685 0.47781 0.96353 0.0
H1388 H 0.54229 0.28318 0.98651 0.0
H1389 H 0.5039 0.28574 0.97113 0.0
H1390 H 0.54031 0.25994 0.98755 0.0
H1391 H 0.50189 0.26246 0.97231 0.0
H1392 H 0.51281 0.22138 0.9583 0.0
H1393 H 0.51191 0.24462 0.96035 0.0
H1394 H 0.52879 0.24204 0.99806 0.0
H1395 H 0.52984 0.21875 0.99599 0.0
C1396 C 0.53337 0.27881 0.98351 0.0
C1397 C 0.52331 0.28631 0.97861 0.0
C1398 C 0.5322 0.26548 0.98418 0.0
C1399 C 0.52097 0.25937 0.97995 0.0
C1400 C 0.51073 0.2669 0.97549 0.0
C1401 C 0.51187 0.28024 0.97487 0.0
C1402 C 0.51621 0.22574 0.96709 0.0
C1403 C 0.52152 0.21822 0.97693 0.0
C1404 C 0.51561 0.23906 0.9683 0.0
C1405 C 0.52034 0.24516 0.97934 0.0
C1406 C 0.52522 0.23762 0.98937 0.0
C1407 C 0.52577 0.22427 0.9882 0.0
H1408 H 0.77977 0.51315 0.96707 0.0
H1409 H 0.77895 0.55404 0.9737 0.0
H1410 H 0.7565 0.51234 0.96927 0.0
H1411 H 0.75573 0.5533 0.97554 0.0
H1412 H 0.71478 0.54695 0.98777 0.0
H1413 H 0.73813 0.54605 0.98852 0.0
H1414 H 0.73807 0.51898 0.95715 0.0
H1415 H 0.71477 0.51959 0.95665 0.0
C1416 C 0.77463 0.52196 0.96902 0.0
C1417 C 0.7812 0.53367 0.97015 0.0
C1418 C 0.76129 0.52151 0.97022 0.0
C1419 C 0.75423 0.53276 0.97252 0.0
C1420 C 0.76086 0.54441 0.97394 0.0
C1421 C 0.77419 0.54485 0.97279 0.0
C1422 C 0.71976 0.54072 0.98111 0.0
C1423 C 0.71292 0.5334 0.9721 0.0
C1424 C 0.73314 0.54026 0.9815 0.0
C1425 C 0.73999 0.5325 0.97285 0.0
C1426 C 0.73311 0.52493 0.96406 0.0
C1427 C 0.71974 0.52535 0.96372 0.0
H1428 H 0.50716 0.71308 0.03265 0.0
H1429 H 0.54384 0.71692 0.01376 0.0
H1430 H 0.50493 0.73636 0.03301 0.0
H1431 H 0.54168 0.74017 0.01431 0.0
H1432 H 0.52982 0.78154 0.00872 0.0
H1433 H 0.52931 0.75833 0.00587 0.0
H1434 H 0.51546 0.75388 0.04465 0.0
H1435 H 0.51579 0.77705 0.04746 0.0
C1436 C 0.51471 0.71887 0.02849 0.0
C1437 C 0.52572 0.71314 0.02326 0.0
C1438 C 0.51345 0.73221 0.02876 0.0
C1439 C 0.52316 0.74011 0.02376 0.0
C1440 C 0.53397 0.73436 0.01813 0.0
C1441 C 0.53524 0.72103 0.01789 0.0
C1442 C 0.52655 0.77562 0.0166 0.0
C1443 C 0.52293 0.78115 0.02835 0.0
C1444 C 0.52631 0.76232 0.01498 0.0
C1445 C 0.52241 0.75426 0.02505 0.0
C1446 C 0.5184 0.75982 0.03665 0.0
C1447 C 0.51866 0.77311 0.03829 0.0
H1448 H 0.27855 0.54205 0.01215 0.0
H1449 H 0.28244 0.50477 0.02982 0.0
H1450 H 0.25534 0.53954 0.01202 0.0
H1451 H 0.2592 0.50221 0.02951 0.0
H1452 H 0.21824 0.5126 0.04385 0.0
H1453 H 0.24142 0.51221 0.04123 0.0
H1454 H 0.23741 0.52733 0.00289 0.0
H1455 H 0.21417 0.5279 0.00556 0.0
C1456 C 0.27447 0.53324 0.01585 0.0
C1457 C 0.28234 0.52367 0.02111 0.0
C1458 C 0.26116 0.53177 0.01569 0.0
C1459 C 0.25542 0.5207 0.02082 0.0
C1460 C 0.26333 0.51092 0.02565 0.0
C1461 C 0.27665 0.51237 0.02577 0.0
C1462 C 0.22227 0.51572 0.03481 0.0
C1463 C 0.21436 0.5204 0.02496 0.0
C1464 C 0.23557 0.51542 0.03328 0.0
C1465 C 0.24126 0.5198 0.02187 0.0
C1466 C 0.23332 0.52405 0.01185 0.0
C1467 C 0.22 0.52432 0.01337 0.0
H1468 H 0.72028 0.45435 0.01171 0.0
H1469 H 0.71962 0.47906 0.04496 0.0
H1470 H 0.74364 0.45524 0.01153 0.0
H1471 H 0.74294 0.47969 0.04498 0.0
H1472 H 0.78479 0.48664 0.03568 0.0
H1473 H 0.76152 0.48741 0.03353 0.0
H1474 H 0.76105 0.44701 0.02434 0.0
H1475 H 0.78429 0.44632 0.02616 0.0
C1476 C 0.72511 0.45999 0.01896 0.0
C1477 C 0.71809 0.46658 0.02839 0.0
C1478 C 0.73851 0.46045 0.0189 0.0
C1479 C 0.74517 0.46748 0.02828 0.0
C1480 C 0.73812 0.47431 0.03752 0.0
C1481 C 0.72474 0.47388 0.03756 0.0
C1482 C 0.77972 0.47795 0.03313 0.0
C1483 C 0.78639 0.46641 0.03114 0.0
C1484 C 0.76638 0.47837 0.03195 0.0
C1485 C 0.75941 0.46726 0.0288 0.0
C1486 C 0.76612 0.45579 0.0266 0.0
C1487 C 0.77945 0.45537 0.02774 0.0
H1488 H 0.13542 0.50708 0.08657 0.0
H1489 H 0.10436 0.53337 0.09429 0.0
H1490 H 0.12443 0.49049 0.09899 0.0
H1491 H 0.09353 0.51683 0.10691 0.0
H1492 H 0.08436 0.48643 0.13787 0.0
H1493 H 0.09784 0.50283 0.12787 0.0
H1494 H 0.1021 0.47893 0.09436 0.0
H1495 H 0.08841 0.46263 0.1042 0.0
C1496 C 0.12637 0.50938 0.0911 0.0
C1497 C 0.12071 0.5215 0.08944 0.0
C1498 C 0.12008 0.49988 0.09814 0.0
C1499 C 0.10817 0.50242 0.10386 0.0
C1500 C 0.10276 0.51469 0.10265 0.0
C1501 C 0.10892 0.52411 0.0954 0.0
C1502 C 0.08831 0.48461 0.12844 0.0
C1503 C 0.08531 0.47327 0.12178 0.0
C1504 C 0.09596 0.49401 0.12272 0.0
C1505 C 0.10097 0.4921 0.11038 0.0
C1506 C 0.09841 0.48056 0.10394 0.0
C1507 C 0.09055 0.47128 0.10954 0.0
H1508 H 0.47951 0.13329 0.09287 0.0
H1509 H 0.46916 0.09806 0.07364 0.0
H1510 H 0.49626 0.1219 0.10464 0.0
H1511 H 0.48582 0.08673 0.08544 0.0
H1512 H 0.52616 0.07452 0.09668 0.0
H1513 H 0.50976 0.08688 0.08554 0.0
H1514 H 0.49871 0.1046 0.12129 0.0
H1515 H 0.51519 0.09227 0.13249 0.0
C1516 C 0.48073 0.12311 0.09123 0.0
C1517 C 0.47303 0.11658 0.0823 0.0
C1518 C 0.4903 0.11659 0.098 0.0
C1519 C 0.49242 0.10346 0.09586 0.0
C1520 C 0.48454 0.0969 0.08712 0.0
C1521 C 0.47493 0.10337 0.08044 0.0
C1522 C 0.52033 0.08114 0.10216 0.0
C1523 C 0.52194 0.08238 0.11548 0.0
C1524 C 0.51087 0.08814 0.09579 0.0
C1525 C 0.50288 0.09659 0.10258 0.0
C1526 C 0.50477 0.09818 0.11582 0.0
C1527 C 0.51418 0.0911 0.12222 0.0
H1528 H 0.91022 0.51858 0.13072 0.0
H1529 H 0.92886 0.52952 0.09535 0.0
H1530 H 0.89885 0.50149 0.1194 0.0
H1531 H 0.91745 0.51253 0.0841 0.0
H1532 H 0.90785 0.47171 0.07212 0.0
H1533 H 0.91831 0.48868 0.08429 0.0
H1534 H 0.88224 0.49817 0.10225 0.0
H1535 H 0.87172 0.4811 0.09012 0.0
C1536 C 0.9118 0.51743 0.12052 0.0
C1537 C 0.92049 0.52537 0.11394 0.0
C1538 C 0.90526 0.50766 0.11405 0.0
C1539 C 0.90738 0.5056 0.1009 0.0
C1540 C 0.9158 0.51376 0.09428 0.0
C1541 C 0.92226 0.52355 0.10071 0.0
C1542 C 0.90215 0.47733 0.07874 0.0
C1543 C 0.88894 0.47509 0.08012 0.0
C1544 C 0.90813 0.48711 0.08563 0.0
C1545 C 0.90106 0.49483 0.09411 0.0
C1546 C 0.88793 0.49234 0.09582 0.0
C1547 C 0.88192 0.48259 0.08885 0.0
H1548 H 0.47 0.92428 0.09641 0.0
H1549 H 0.47883 0.90616 0.13261 0.0
H1550 H 0.4873 0.91235 0.08621 0.0
H1551 H 0.49622 0.89426 0.12236 0.0
H1552 H 0.51703 0.86585 0.09473 0.0
H1553 H 0.49975 0.87718 0.10578 0.0
H1554 H 0.51115 0.91248 0.0874 0.0
H1555 H 0.52834 0.9012 0.0763 0.0
C1556 C 0.47557 0.91769 0.10218 0.0
C1557 C 0.47306 0.91619 0.11533 0.0
C1558 C 0.48555 0.91094 0.09635 0.0
C1559 C 0.49318 0.90247 0.10352 0.0
C1560 C 0.49046 0.90069 0.11659 0.0
C1561 C 0.48052 0.90752 0.12245 0.0
C1562 C 0.51591 0.87605 0.09313 0.0
C1563 C 0.52402 0.88262 0.08461 0.0
C1564 C 0.50604 0.88253 0.09949 0.0
C1565 C 0.50404 0.89568 0.09735 0.0
C1566 C 0.51234 0.9023 0.08907 0.0
C1567 C 0.52225 0.89585 0.08279 0.0
H1568 H 0.09213 0.53606 0.89448 0.0
H1569 H 0.08618 0.51045 0.86247 0.0
H1570 H 0.10535 0.5198 0.90499 0.0
H1571 H 0.09921 0.49412 0.87313 0.0
H1572 H 0.10476 0.46541 0.9084 0.0
H1573 H 0.09468 0.48164 0.89481 0.0
H1574 H 0.12688 0.5069 0.90095 0.0
H1575 H 0.13712 0.4906 0.91435 0.0
C1576 C 0.09376 0.52702 0.88964 0.0
C1577 C 0.0881 0.5245 0.87768 0.0
C1578 C 0.10136 0.51776 0.89562 0.0
C1579 C 0.10323 0.50574 0.88985 0.0
C1580 C 0.09785 0.50332 0.87776 0.0
C1581 C 0.09046 0.51267 0.87166 0.0
C1582 C 0.10977 0.47435 0.90669 0.0
C1583 C 0.1217 0.47676 0.91245 0.0
C1584 C 0.10404 0.48359 0.89888 0.0
C1585 C 0.11002 0.49549 0.8969 0.0
C1586 C 0.12208 0.4978 0.90239 0.0
C1587 C 0.12794 0.48845 0.91 0.0
H1588 H 0.52841 0.09786 0.92542 0.0
H1589 H 0.51796 0.13346 0.90697 0.0
H1590 H 0.51213 0.08663 0.91297 0.0
H1591 H 0.5016 0.12217 0.89455 0.0
H1592 H 0.4827 0.09343 0.86596 0.0
H1593 H 0.49935 0.10527 0.87746 0.0
H1594 H 0.48818 0.08667 0.91272 0.0
H1595 H 0.47161 0.07482 0.90129 0.0
C1596 C 0.52272 0.10327 0.91863 0.0
C1597 C 0.52445 0.11656 0.91722 0.0
C1598 C 0.51333 0.09685 0.91158 0.0
C1599 C 0.50552 0.10356 0.9029 0.0
C1600 C 0.50752 0.11676 0.90115 0.0
C1601 C 0.51686 0.12322 0.90828 0.0
C1602 C 0.48374 0.09194 0.87618 0.0
C1603 C 0.47586 0.08317 0.88271 0.0
C1604 C 0.49325 0.09874 0.88276 0.0
C1605 C 0.49513 0.0968 0.89595 0.0
C1606 C 0.48708 0.08821 0.90251 0.0
C1607 C 0.47753 0.0815 0.89597 0.0
H1608 H 0.86078 0.51167 0.9138 0.0
H1609 H 0.89263 0.53739 0.9074 0.0
H1610 H 0.87165 0.49512 0.90123 0.0
H1611 H 0.90334 0.5209 0.89465 0.0
H1612 H 0.91352 0.49076 0.86403 0.0
H1613 H 0.89983 0.50728 0.87354 0.0
H1614 H 0.89327 0.48297 0.90637 0.0
H1615 H 0.90713 0.46654 0.89702 0.0
C1616 C 0.86998 0.51387 0.90951 0.0
C1617 C 0.8759 0.5258 0.91163 0.0
C1618 C 0.8762 0.50439 0.90237 0.0
C1619 C 0.88831 0.50676 0.89702 0.0
C1620 C 0.89396 0.51888 0.89861 0.0
C1621 C 0.88785 0.52829 0.90595 0.0
C1622 C 0.90901 0.48888 0.87319 0.0
C1623 C 0.91143 0.4774 0.87983 0.0
C1624 C 0.90124 0.49834 0.87863 0.0
C1625 C 0.89553 0.49636 0.89066 0.0
C1626 C 0.89749 0.48467 0.89703 0.0
C1627 C 0.90546 0.47531 0.89172 0.0
H1628 H 0.51835 0.90799 0.86989 0.0
H1629 H 0.52869 0.92653 0.90549 0.0
H1630 H 0.50154 0.89604 0.88103 0.0
H1631 H 0.51197 0.91456 0.91656 0.0
H1632 H 0.47143 0.90362 0.92833 0.0
H1633 H 0.48805 0.91473 0.91626 0.0
H1634 H 0.49877 0.87913 0.89806 0.0
H1635 H 0.48206 0.86794 0.91011 0.0
C1636 C 0.51712 0.90943 0.8801 0.0
C1637 C 0.52482 0.91824 0.8868 0.0
C1638 C 0.50752 0.90257 0.88647 0.0
C1639 C 0.50537 0.90448 0.89963 0.0
C1640 C 0.51328 0.91305 0.90637 0.0
C1641 C 0.52292 0.91983 0.90004 0.0
C1642 C 0.47724 0.89816 0.92167 0.0
C1643 C 0.47546 0.88489 0.92021 0.0
C1644 C 0.48682 0.90452 0.91484 0.0
C1645 C 0.49479 0.89776 0.90633 0.0
C1646 C 0.49274 0.88457 0.90453 0.0
C1647 C 0.4832 0.87818 0.91144 0.0
H1648 H 0.12964 0.09252 0.47833 0.0
H1649 H 0.0934 0.07388 0.47073 0.0
H1650 H 0.11961 0.1049 0.49553 0.0
H1651 H 0.08345 0.08626 0.48785 0.0
H1652 H 0.07426 0.09837 0.52871 0.0
H1653 H 0.08537 0.08672 0.51179 0.0
H1654 H 0.10269 0.12199 0.49875 0.0
H1655 H 0.09159 0.13371 0.51574 0.0
C1656 C 0.11952 0.09114 0.48025 0.0
C1657 C 0.11232 0.08219 0.4732 0.0
C1658 C 0.1138 0.09825 0.49008 0.0
C1659 C 0.1008 0.09644 0.4931 0.0
C1660 C 0.09355 0.0877 0.48586 0.0
C1661 C 0.09923 0.08068 0.47599 0.0
C1662 C 0.08053 0.10364 0.52233 0.0
C1663 C 0.08199 0.11697 0.52353 0.0
C1664 C 0.08681 0.09697 0.51258 0.0
C1665 C 0.09477 0.10348 0.50388 0.0
C1666 C 0.09663 0.11673 0.50535 0.0
C1667 C 0.09026 0.12344 0.51506 0.0
H1668 H 0.9066 0.10508 0.46628 0.0
H1669 H 0.91191 0.13555 0.49384 0.0
H1670 H 0.8942 0.09297 0.48211 0.0
H1671 H 0.89976 0.12327 0.50973 0.0
H1672 H 0.89548 0.08598 0.53611 0.0
H1673 H 0.90531 0.10047 0.52049 0.0
H1674 H 0.87247 0.09615 0.49572 0.0
H1675 H 0.86245 0.08189 0.51145 0.0
C1676 C 0.90502 0.10922 0.47567 0.0
C1677 C 0.91022 0.12124 0.47884 0.0
C1678 C 0.89791 0.10233 0.48469 0.0
C1679 C 0.89609 0.10722 0.49709 0.0
C1680 C 0.90108 0.11931 0.50021 0.0
C1681 C 0.90797 0.12634 0.49112 0.0
C1682 C 0.89029 0.08826 0.52741 0.0
C1683 C 0.87821 0.08282 0.52498 0.0
C1684 C 0.89589 0.09656 0.51852 0.0
C1685 C 0.88962 0.09936 0.50694 0.0
C1686 C 0.87747 0.09409 0.50458 0.0
C1687 C 0.87175 0.08599 0.51359 0.0
H1688 H 0.90374 0.92599 0.46778 0.0
H1689 H 0.86852 0.90728 0.47908 0.0
H1690 H 0.91516 0.91475 0.48476 0.0
H1691 H 0.88 0.89609 0.49616 0.0
H1692 H 0.90917 0.86927 0.51678 0.0
H1693 H 0.89712 0.87958 0.49955 0.0
H1694 H 0.9152 0.91573 0.50856 0.0
H1695 H 0.92729 0.90547 0.52569 0.0
C1696 C 0.89844 0.91941 0.47382 0.0
C1697 C 0.88521 0.91757 0.47211 0.0
C1698 C 0.90497 0.91305 0.48361 0.0
C1699 C 0.89844 0.90465 0.49186 0.0
C1700 C 0.88529 0.90247 0.48991 0.0
C1701 C 0.87873 0.90891 0.48015 0.0
C1702 C 0.9105 0.87944 0.51514 0.0
C1703 C 0.91922 0.88654 0.52258 0.0
C1704 C 0.90357 0.88534 0.5053 0.0
C1705 C 0.90531 0.89843 0.50264 0.0
C1706 C 0.91382 0.90558 0.51025 0.0
C1707 C 0.92067 0.89971 0.52013 0.0
H1708 H 0.1315 0.90783 0.51854 0.0
H1709 H 0.09501 0.92517 0.52775 0.0
H1710 H 0.12131 0.89565 0.50128 0.0
H1711 H 0.08491 0.91302 0.51055 0.0
H1712 H 0.07527 0.90257 0.4693 0.0
H1713 H 0.08651 0.91371 0.48647 0.0
H1714 H 0.10453 0.87823 0.49783 0.0
H1715 H 0.09326 0.86699 0.4806 0.0
C1716 C 0.1213 0.90894 0.51697 0.0
C1717 C 0.11407 0.91751 0.52448 0.0
C1718 C 0.11548 0.90196 0.50711 0.0
C1719 C 0.10236 0.90352 0.5045 0.0
C1720 C 0.09508 0.9118 0.51223 0.0
C1721 C 0.10086 0.91868 0.52214 0.0
C1722 C 0.08172 0.89714 0.47536 0.0
C1723 C 0.08333 0.88388 0.47362 0.0
C1724 C 0.08808 0.90351 0.48526 0.0
C1725 C 0.09626 0.8968 0.49357 0.0
C1726 C 0.09828 0.88364 0.49155 0.0
C1727 C 0.09182 0.87722 0.4817 0.0
H1728 H 0.60464 0.03407 0.59061 0.0
H1729 H 0.63699 0.00889 0.58464 0.0
H1730 H 0.59437 0.01768 0.60386 0.0
H1731 H 0.62655 0.99243 0.5977 0.0
H1732 H 0.59176 0.96322 0.60377 0.0
H1733 H 0.60503 0.97956 0.59344 0.0
H1734 H 0.59873 0.00502 0.62545 0.0
H1735 H 0.58565 0.98861 0.63594 0.0
C1736 C 0.6096 0.02509 0.59224 0.0
C1737 C 0.6216 0.02274 0.58658 0.0
C1738 C 0.60376 0.01575 0.59985 0.0
C1739 C 0.60969 0.00382 0.60175 0.0
C1740 C 0.62179 0.00156 0.59633 0.0
C1741 C 0.62776 0.01099 0.58892 0.0
C1742 C 0.59337 0.97223 0.60869 0.0
C1743 C 0.58765 0.97466 0.62064 0.0
C1744 C 0.601 0.98154 0.60281 0.0
C1745 C 0.60284 0.99352 0.60866 0.0
C1746 C 0.5974 0.99585 0.62075 0.0
C1747 C 0.58997 0.98645 0.62675 0.0
H1748 H 0.01587 0.59185 0.6284 0.0
H1749 H 0.02946 0.57492 0.5931 0.0
H1750 H 0.99892 0.60286 0.61655 0.0
H1751 H 0.01261 0.58597 0.58132 0.0
H1752 H 0.97173 0.59372 0.56788 0.0
H1753 H 0.98885 0.58387 0.58033 0.0
H1754 H 0.99554 0.61981 0.59977 0.0
H1755 H 0.97832 0.62972 0.58735 0.0
C1756 C 0.01534 0.59059 0.61811 0.0
C1757 C 0.02397 0.58246 0.6117 0.0
C1758 C 0.00565 0.59692 0.61133 0.0
C1759 C 0.00436 0.59515 0.59804 0.0
C1760 C 0.01324 0.58733 0.59159 0.0
C1761 C 0.02295 0.58108 0.59834 0.0
C1762 C 0.97678 0.59952 0.57487 0.0
C1763 C 0.97369 0.61252 0.5766 0.0
C1764 C 0.98665 0.5939 0.58192 0.0
C1765 C 0.99361 0.60111 0.59092 0.0
C1766 C 0.9903 0.61401 0.59293 0.0
C1767 C 0.98046 0.61968 0.5858 0.0
H1768 H 0.40873 0.01728 0.62687 0.0
H1769 H 0.42675 0.02615 0.59061 0.0
H1770 H 0.39705 -0.00034 0.61671 0.0
H1771 H 0.41506 0.00863 0.58052 0.0
H1772 H 0.40486 0.96741 0.57082 0.0
H1773 H 0.41575 0.98474 0.58208 0.0
H1774 H 0.38006 0.9957 0.59995 0.0
H1775 H 0.3691 0.97828 0.58872 0.0
C1776 C 0.41011 0.01555 0.61672 0.0
C1777 C 0.4187 0.02308 0.60955 0.0
C1778 C 0.4034 0.00549 0.61091 0.0
C1779 C 0.40526 0.0027 0.59787 0.0
C1780 C 0.41361 0.01043 0.59065 0.0
C1781 C 0.42022 0.02053 0.59642 0.0
C1782 C 0.39934 0.97342 0.57725 0.0
C1783 C 0.3861 0.97151 0.57883 0.0
C1784 C 0.40557 0.98341 0.58361 0.0
C1785 C 0.39872 0.99166 0.59176 0.0
C1786 C 0.38558 0.98947 0.59375 0.0
C1787 C 0.37931 0.97951 0.5873 0.0
H1788 H 0.01149 0.36236 0.58486 0.0
H1789 H 0.03685 0.39458 0.59079 0.0
H1790 H 0.995 0.37299 0.59773 0.0
H1791 H 0.02043 0.40506 0.60386 0.0
H1792 H 0.99098 0.41374 0.63589 0.0
H1793 H 0.00748 0.40071 0.62548 0.0
H1794 H 0.98241 0.39474 0.59312 0.0
H1795 H 0.96598 0.40798 0.60337 0.0
C1796 C 0.01362 0.3716 0.5891 0.0
C1797 C 0.02543 0.37767 0.5868 0.0
C1798 C 0.00418 0.37768 0.59639 0.0
C1799 C 0.00648 0.38981 0.60174 0.0
C1800 C 0.01847 0.39566 0.5999 0.0
C1801 C 0.02783 0.38969 0.59239 0.0
C1802 C 0.98893 0.40951 0.62663 0.0
C1803 C 0.97722 0.4119 0.62041 0.0
C1804 C 0.99839 0.40212 0.62067 0.0
C1805 C 0.99618 0.39676 0.60853 0.0
C1806 C 0.98428 0.39871 0.60254 0.0
C1807 C 0.97493 0.40632 0.60837 0.0
H1808 H 0.59289 0.02093 0.36647 0.0
H1809 H 0.57401 0.03009 0.40221 0.0
H1810 H 0.60476 0.0038 0.37717 0.0
H1811 H 0.5859 0.01304 0.41285 0.0
H1812 H 0.59698 0.97217 0.4234 0.0
H1813 H 0.58587 0.98913 0.41183 0.0
H1814 H 0.62154 0.00061 0.39422 0.0
H1815 H 0.63272 0.98356 0.40577 0.0
C1816 C 0.59136 0.01937 0.37662 0.0
C1817 C 0.58248 0.02684 0.38348 0.0
C1818 C 0.59817 0.00959 0.38274 0.0
C1819 C 0.59615 0.00702 0.3958 0.0
C1820 C 0.5875 0.01468 0.40272 0.0
C1821 C 0.58076 0.02451 0.39664 0.0
C1822 C 0.60246 0.97822 0.41698 0.0
C1823 C 0.61574 0.97655 0.41554 0.0
C1824 C 0.5961 0.988 0.41043 0.0
C1825 C 0.60287 0.99627 0.40223 0.0
C1826 C 0.61608 0.99435 0.40045 0.0
C1827 C 0.62247 0.98461 0.40709 0.0
H1828 H 0.98287 0.58896 0.3696 0.0
H1829 H 0.97157 0.57127 0.40533 0.0
H1830 H 1e-05 0.60041 0.38072 0.0
H1831 H 0.9886 0.58278 0.4164 0.0
H1832 H 0.02926 0.59264 0.42861 0.0
H1833 H 0.01231 0.58191 0.41666 0.0
H1834 H 0.00346 0.61738 0.39723 0.0
H1835 H 0.02053 0.62815 0.40912 0.0
C1836 C 0.98396 0.58761 0.37983 0.0
C1837 C 0.97589 0.57917 0.38657 0.0
C1838 C 0.99376 0.59419 0.3862 0.0
C1839 C 0.99572 0.59239 0.3994 0.0
C1840 C 0.98745 0.58419 0.40618 0.0
C1841 C 0.97763 0.57767 0.39984 0.0
C1842 C 0.02378 0.59815 0.42172 0.0
C1843 C 0.02621 0.61126 0.41985 0.0
C1844 C 0.014 0.59201 0.41495 0.0
C1845 C 0.00647 0.59884 0.40611 0.0
C1846 C 0.00914 0.61187 0.40394 0.0
C1847 C 0.0189 0.61803 0.41077 0.0
H1848 H 0.36766 0.01655 0.40613 0.0
H1849 H 0.40311 0.02685 0.42497 0.0
H1850 H 0.37891 -0.0002 0.3942 0.0
H1851 H 0.41429 0.01018 0.41303 0.0
H1852 H 0.42636 0.96987 0.40168 0.0
H1853 H 0.41406 0.98622 0.41295 0.0
H1854 H 0.39608 0.99733 0.37736 0.0
H1855 H 0.40837 0.98091 0.36603 0.0
C1856 C 0.37786 0.01532 0.40765 0.0
C1857 C 0.38449 0.023 0.41653 0.0
C1858 C 0.38429 0.00575 0.4008 0.0
C1859 C 0.39744 0.00361 0.40279 0.0
C1860 C 0.4041 0.01148 0.41146 0.0
C1861 C 0.39771 0.02109 0.41822 0.0
C1862 C 0.4197 0.9757 0.39626 0.0
C1863 C 0.41838 0.97413 0.38295 0.0
C1864 C 0.41273 0.98513 0.40271 0.0
C1865 C 0.40423 0.99314 0.396 0.0
C1866 C 0.40254 0.99127 0.38277 0.0
C1867 C 0.4096 0.98189 0.37629 0.0
H1868 H 0.96474 0.39658 0.40972 0.0
H1869 H 0.98976 0.36407 0.41546 0.0
H1870 H 0.98091 0.40654 0.39595 0.0
H1871 H 0.00601 0.37421 0.40191 0.0
H1872 H 0.03522 0.40896 0.39476 0.0
H1873 H 0.01899 0.3961 0.40578 0.0
H1874 H 0.99313 0.4013 0.37392 0.0
H1875 H 0.00944 0.41393 0.36273 0.0
C1876 C 0.97364 0.39152 0.40794 0.0
C1877 C 0.97601 0.37957 0.41367 0.0
C1878 C 0.98284 0.39719 0.40004 0.0
C1879 C 0.99467 0.39112 0.39793 0.0
C1880 C 0.99696 0.37907 0.40344 0.0
C1881 C 0.98765 0.37327 0.41113 0.0
C1882 C 0.02615 0.4072 0.39004 0.0
C1883 C 0.02358 0.41245 0.37791 0.0
C1884 C 0.0169 0.39982 0.39631 0.0
C1885 C 0.00485 0.39777 0.39067 0.0
C1886 C 0.00236 0.40279 0.37845 0.0
C1887 C 0.0117 0.40995 0.37205 0.0
H1888 H 0.62924 0.58724 0.97663 0.0
H1889 H 0.5935 0.56733 0.97002 0.0
H1890 H 0.61917 0.59955 0.99384 0.0
H1891 H 0.58346 0.57969 0.98711 0.0
H1892 H 0.57424 0.59243 0.02769 0.0
H1893 H 0.58534 0.58076 0.01078 0.0
H1894 H 0.6022 0.61611 0.99734 0.0
H1895 H 0.59116 0.62783 0.01435 0.0
C1896 C 0.61922 0.58557 0.97876 0.0
C1897 C 0.61218 0.57628 0.97199 0.0
C1898 C 0.61345 0.59264 0.9886 0.0
C1899 C 0.60057 0.59049 0.99189 0.0
C1900 C 0.59347 0.5814 0.98492 0.0
C1901 C 0.5992 0.5744 0.97507 0.0
C1902 C 0.58041 0.59771 0.02121 0.0
C1903 C 0.58178 0.61107 0.02233 0.0
C1904 C 0.58668 0.59103 0.01146 0.0
C1905 C 0.59452 0.59755 0.00265 0.0
C1906 C 0.59625 0.61083 0.00402 0.0
C1907 C 0.58991 0.61754 0.01375 0.0
H1908 H 0.39257 0.59277 0.03376 0.0
H1909 H 0.36123 0.58592 0.00755 0.0
H1910 H 0.40362 0.60523 0.01725 0.0
H1911 H 0.37243 0.5982 0.99099 0.0
H1912 H 0.40815 0.60267 0.96285 0.0
H1913 H 0.39427 0.59318 0.9792 0.0
H1914 H 0.40015 0.6262 0.00345 0.0
H1915 H 0.41386 0.63584 0.98702 0.0
C1916 C 0.38799 0.59405 0.02453 0.0
C1917 C 0.37607 0.58835 0.02192 0.0
C1918 C 0.39428 0.60121 0.01512 0.0
C1919 C 0.38886 0.60261 0.00288 0.0
C1920 C 0.37681 0.59719 0.00036 0.0
C1921 C 0.3704 0.59023 0.00984 0.0
C1922 C 0.40634 0.60798 0.9716 0.0
C1923 C 0.4121 0.61997 0.97368 0.0
C1924 C 0.39836 0.60258 0.9809 0.0
C1925 C 0.3962 0.60897 0.99255 0.0
C1926 C 0.40173 0.62108 0.99454 0.0
C1927 C 0.40951 0.6266 0.98513 0.0
H1928 H 0.39434 0.40785 0.96503 0.0
H1929 H 0.36163 0.41339 0.98984 0.0
H1930 H 0.4041 0.39383 0.98108 0.0
H1931 H 0.37155 0.39956 0.00598 0.0
H1932 H 0.40567 0.39164 0.03553 0.0
H1933 H 0.39298 0.40293 0.01936 0.0
H1934 H 0.39899 0.37179 0.99279 0.0
H1935 H 0.41148 0.36034 0.009 0.0
C1936 C 0.38919 0.40598 0.97385 0.0
C1937 C 0.37724 0.41172 0.9762 0.0
C1938 C 0.39474 0.39792 0.98299 0.0
C1939 C 0.38856 0.39567 0.99473 0.0
C1940 C 0.3765 0.4012 0.99699 0.0
C1941 C 0.37082 0.40905 0.98775 0.0
C1942 C 0.40412 0.38712 0.0263 0.0
C1943 C 0.40958 0.37513 0.02351 0.0
C1944 C 0.39683 0.39355 0.01709 0.0
C1945 C 0.39507 0.38821 0.00486 0.0
C1946 C 0.40027 0.3761 0.00215 0.0
C1947 C 0.40735 0.36955 0.01144 0.0
H1948 H 0.63137 0.40924 0.01898 0.0
H1949 H 0.59633 0.42913 0.02865 0.0
H1950 H 0.62005 0.39754 0.00213 0.0
H1951 H 0.58506 0.4174 0.01189 0.0
H1952 H 0.57333 0.40624 0.97139 0.0
H1953 H 0.58551 0.41719 0.98804 0.0
H1954 H 0.60262 0.38121 -0.00071 0.0
H1955 H 0.59048 0.3702 0.98254 0.0
C1956 C 0.62124 0.41103 0.0176 0.0
C1957 C 0.61476 0.42014 0.02513 0.0
C1958 C 0.61476 0.40431 0.00797 0.0
C1959 C 0.60171 0.40666 0.00562 0.0
C1960 C 0.59517 0.41555 0.01335 0.0
C1961 C 0.60161 0.42219 0.02301 0.0
C1962 C 0.57977 0.40066 0.97733 0.0
C1963 C 0.5809 0.38734 0.97568 0.0
C1964 C 0.58667 0.40692 0.98693 0.0
C1965 C 0.59491 0.40003 0.99505 0.0
C1966 C 0.59637 0.38677 0.99314 0.0
C1967 C 0.5894 0.38048 0.98358 0.0
loop_
_geom_bond_atom_site_label_1
_geom_bond_atom_site_label_2
_geom_bond_distance
_geom_bond_site_symmetry_2
_ccdc_geom_bond_type
O0 Cd1 2.300 . S
O0 C7 1.275 . S
Cd1 O0 2.300 . S
Cd1 O9 2.381 . S
Cd1 O10 2.378 . S
O2 Cd3 2.385 . S
O2 C7 1.255 . S
Cd3 O2 2.385 . S
Cd3 O4 2.317 . S
O4 Cd3 2.317 . S
O4 C5 1.232 . S
C5 O4 1.232 . S
C5 O6 1.218 . S
O6 C5 1.218 . S
C7 O0 1.275 . S
C7 O2 1.255 . S
C8 O9 1.258 . S
C8 O10 1.256 . S
O9 Cd1 2.381 . S
O9 C8 1.258 . S
O10 Cd1 2.378 . S
O10 C8 1.256 . S
O11 Cd12 2.300 . S
O11 C18 1.275 . S
Cd12 O11 2.300 . S
Cd12 O20 2.381 . S
Cd12 O21 2.378 . S
O13 Cd14 2.385 . S
O13 C18 1.255 . S
Cd14 O13 2.385 . S
Cd14 O15 2.317 . S
O15 Cd14 2.317 . S
O15 C16 1.232 . S
C16 O15 1.232 . S
C16 O17 1.218 . S
O17 C16 1.218 . S
C18 O11 1.275 . S
C18 O13 1.255 . S
C19 O20 1.258 . S
C19 O21 1.256 . S
O20 Cd12 2.381 . S
O20 C19 1.258 . S
O21 Cd12 2.378 . S
O21 C19 1.256 . S
O22 Cd23 2.300 . S
O22 C29 1.275 . S
Cd23 O22 2.300 . S
Cd23 O31 2.381 . S
Cd23 O32 2.378 . S
O24 Cd25 2.385 . S
O24 C29 1.255 . S
Cd25 O24 2.385 . S
Cd25 O26 2.317 . S
O26 Cd25 2.317 . S
O26 C27 1.232 . S
C27 O26 1.232 . S
C27 O28 1.218 . S
O28 C27 1.218 . S
C29 O22 1.275 . S
C29 O24 1.255 . S
C30 O31 1.258 . S
C30 O32 1.256 . S
O31 Cd23 2.381 . S
O31 C30 1.258 . S
O32 Cd23 2.378 . S
O32 C30 1.256 . S
O33 Cd34 2.300 . S
O33 C40 1.275 . S
Cd34 O33 2.300 . S
Cd34 O42 2.381 . S
Cd34 O43 2.378 . S
O35 Cd36 2.385 . S
O35 C40 1.255 . S
Cd36 O35 2.385 . S
Cd36 O37 2.317 . S
O37 Cd36 2.317 . S
O37 C38 1.232 . S
C38 O37 1.232 . S
C38 O39 1.218 . S
O39 C38 1.218 . S
C40 O33 1.275 . S
C40 O35 1.255 . S
C41 O42 1.258 . S
C41 O43 1.256 . S
O42 Cd34 2.381 . S
O42 C41 1.258 . S
O43 Cd34 2.378 . S
O43 C41 1.256 . S
O44 Cd45 2.300 . S
O44 C51 1.275 . S
Cd45 O44 2.300 . S
Cd45 O53 2.381 . S
Cd45 O54 2.378 . S
O46 Cd47 2.385 . S
O46 C51 1.255 . S
Cd47 O46 2.385 . S
Cd47 O48 2.317 . S
O48 Cd47 2.317 . S
O48 C49 1.232 . S
C49 O48 1.232 . S
C49 O50 1.218 . S
O50 C49 1.218 . S
C51 O44 1.275 . S
C51 O46 1.255 . S
C52 O53 1.258 . S
C52 O54 1.256 . S
O53 Cd45 2.381 . S
O53 C52 1.258 . S
O54 Cd45 2.378 . S
O54 C52 1.256 . S
O55 Cd56 2.300 . S
O55 C62 1.275 . S
Cd56 O55 2.300 . S
Cd56 O64 2.381 . S
Cd56 O65 2.378 . S
O57 Cd58 2.385 . S
O57 C62 1.255 . S
Cd58 O57 2.385 . S
Cd58 O59 2.317 . S
O59 Cd58 2.317 . S
O59 C60 1.232 . S
C60 O59 1.232 . S
C60 O61 1.218 . S
O61 C60 1.218 . S
C62 O55 1.275 . S
C62 O57 1.255 . S
C63 O64 1.258 . S
C63 O65 1.256 . S
O64 Cd56 2.381 . S
O64 C63 1.258 . S
O65 Cd56 2.378 . S
O65 C63 1.256 . S
O66 Cd67 2.300 . S
O66 C73 1.275 . S
Cd67 O66 2.300 . S
Cd67 O75 2.381 . S
Cd67 O76 2.378 . S
O68 Cd69 2.385 . S
O68 C73 1.255 . S
Cd69 O68 2.385 . S
Cd69 O70 2.317 . S
O70 Cd69 2.317 . S
O70 C71 1.232 . S
C71 O70 1.232 . S
C71 O72 1.218 . S
O72 C71 1.218 . S
C73 O66 1.275 . S
C73 O68 1.255 . S
C74 O75 1.258 . S
C74 O76 1.256 . S
O75 Cd67 2.381 . S
O75 C74 1.258 . S
O76 Cd67 2.378 . S
O76 C74 1.256 . S
O77 Cd78 2.300 . S
O77 C84 1.275 . S
Cd78 O77 2.300 . S
Cd78 O86 2.381 . S
Cd78 O87 2.378 . S
O79 Cd80 2.385 . S
O79 C84 1.255 . S
Cd80 O79 2.385 . S
Cd80 O81 2.317 . S
O81 Cd80 2.317 . S
O81 C82 1.232 . S
C82 O81 1.232 . S
C82 O83 1.218 . S
O83 C82 1.218 . S
C84 O77 1.275 . S
C84 O79 1.255 . S
C85 O86 1.258 . S
C85 O87 1.256 . S
O86 Cd78 2.381 . S
O86 C85 1.258 . S
O87 Cd78 2.378 . S
O87 C85 1.256 . S
O88 Cd89 2.300 . S
O88 C95 1.275 . S
Cd89 O88 2.300 . S
Cd89 O97 2.381 . S
Cd89 O98 2.378 . S
O90 Cd91 2.385 . S
O90 C95 1.255 . S
Cd91 O90 2.385 . S
Cd91 O92 2.317 . S
O92 Cd91 2.317 . S
O92 C93 1.232 . S
C93 O92 1.232 . S
C93 O94 1.218 . S
O94 C93 1.218 . S
C95 O88 1.275 . S
C95 O90 1.255 . S
C96 O97 1.258 . S
C96 O98 1.256 . S
O97 Cd89 2.381 . S
O97 C96 1.258 . S
O98 Cd89 2.378 . S
O98 C96 1.256 . S
O99 Cd100 2.300 . S
O99 C106 1.275 . S
Cd100 O99 2.300 . S
Cd100 O108 2.381 . S
Cd100 O109 2.378 . S
O101 Cd102 2.385 . S
O101 C106 1.255 . S
Cd102 O101 2.385 . S
Cd102 O103 2.317 . S
O103 Cd102 2.317 . S
O103 C104 1.232 . S
C104 O103 1.232 . S
C104 O105 1.218 . S
O105 C104 1.218 . S
C106 O99 1.275 . S
C106 O101 1.255 . S
C107 O108 1.258 . S
C107 O109 1.256 . S
O108 Cd100 2.381 . S
O108 C107 1.258 . S
O109 Cd100 2.378 . S
O109 C107 1.256 . S
O110 Cd111 2.300 . S
O110 C117 1.275 . S
Cd111 O110 2.300 . S
Cd111 O119 2.381 . S
Cd111 O120 2.378 . S
O112 Cd113 2.385 . S
O112 C117 1.255 . S
Cd113 O112 2.385 . S
Cd113 O114 2.317 . S
O114 Cd113 2.317 . S
O114 C115 1.232 . S
C115 O114 1.232 . S
C115 O116 1.218 . S
O116 C115 1.218 . S
C117 O110 1.275 . S
C117 O112 1.255 . S
C118 O119 1.258 . S
C118 O120 1.256 . S
O119 Cd111 2.381 . S
O119 C118 1.258 . S
O120 Cd111 2.378 . S
O120 C118 1.256 . S
O121 Cd122 2.300 . S
O121 C128 1.275 . S
Cd122 O121 2.300 . S
Cd122 O130 2.381 . S
Cd122 O131 2.378 . S
O123 Cd124 2.385 . S
O123 C128 1.255 . S
Cd124 O123 2.385 . S
Cd124 O125 2.317 . S
O125 Cd124 2.317 . S
O125 C126 1.232 . S
C126 O125 1.232 . S
C126 O127 1.218 . S
O127 C126 1.218 . S
C128 O121 1.275 . S
C128 O123 1.255 . S
C129 O130 1.258 . S
C129 O131 1.256 . S
O130 Cd122 2.381 . S
O130 C129 1.258 . S
O131 Cd122 2.378 . S
O131 C129 1.256 . S
O132 Cd133 2.300 . S
O132 C139 1.275 . S
Cd133 O132 2.300 . S
Cd133 O141 2.381 . S
Cd133 O142 2.378 . S
O134 Cd135 2.385 . S
O134 C139 1.255 . S
Cd135 O134 2.385 . S
Cd135 O136 2.317 . S
O136 Cd135 2.317 . S
O136 C137 1.232 . S
C137 O136 1.232 . S
C137 O138 1.218 . S
O138 C137 1.218 . S
C139 O132 1.275 . S
C139 O134 1.255 . S
C140 O141 1.258 . S
C140 O142 1.256 . S
O141 Cd133 2.381 . S
O141 C140 1.258 . S
O142 Cd133 2.378 . S
O142 C140 1.256 . S
O143 Cd144 2.300 . S
O143 C150 1.275 . S
Cd144 O143 2.300 . S
Cd144 O152 2.381 . S
Cd144 O153 2.378 . S
O145 Cd146 2.385 . S
O145 C150 1.255 . S
Cd146 O145 2.385 . S
Cd146 O147 2.317 . S
O147 Cd146 2.317 . S
O147 C148 1.232 . S
C148 O147 1.232 . S
C148 O149 1.218 . S
O149 C148 1.218 . S
C150 O143 1.275 . S
C150 O145 1.255 . S
C151 O152 1.258 . S
C151 O153 1.256 . S
O152 Cd144 2.381 . S
O152 C151 1.258 . S
O153 Cd144 2.378 . S
O153 C151 1.256 . S
O154 Cd155 2.300 . S
O154 C161 1.275 . S
Cd155 O154 2.300 . S
Cd155 O163 2.381 . S
Cd155 O164 2.378 . S
O156 Cd157 2.385 . S
O156 C161 1.255 . S
Cd157 O156 2.385 . S
Cd157 O158 2.317 . S
O158 Cd157 2.317 . S
O158 C159 1.232 . S
C159 O158 1.232 . S
C159 O160 1.218 . S
O160 C159 1.218 . S
C161 O154 1.275 . S
C161 O156 1.255 . S
C162 O163 1.258 . S
C162 O164 1.256 . S
O163 Cd155 2.381 . S
O163 C162 1.258 . S
O164 Cd155 2.378 . S
O164 C162 1.256 . S
O165 Cd166 2.300 . S
O165 C172 1.275 . S
Cd166 O165 2.300 . S
Cd166 O174 2.381 . S
Cd166 O175 2.378 . S
O167 Cd168 2.385 . S
O167 C172 1.255 . S
Cd168 O167 2.385 . S
Cd168 O169 2.317 . S
O169 Cd168 2.317 . S
O169 C170 1.232 . S
C170 O169 1.232 . S
C170 O171 1.218 . S
O171 C170 1.218 . S
C172 O165 1.275 . S
C172 O167 1.255 . S
C173 O174 1.258 . S
C173 O175 1.256 . S
O174 Cd166 2.381 . S
O174 C173 1.258 . S
O175 Cd166 2.378 . S
O175 C173 1.256 . S
O176 Cd177 2.300 . S
O176 C183 1.275 . S
Cd177 O176 2.300 . S
Cd177 O185 2.381 . S
Cd177 O186 2.378 . S
O178 Cd179 2.385 . S
O178 C183 1.255 . S
Cd179 O178 2.385 . S
Cd179 O180 2.317 . S
O180 Cd179 2.317 . S
O180 C181 1.232 . S
C181 O180 1.232 . S
C181 O182 1.218 . S
O182 C181 1.218 . S
C183 O176 1.275 . S
C183 O178 1.255 . S
C184 O185 1.258 . S
C184 O186 1.256 . S
O185 Cd177 2.381 . S
O185 C184 1.258 . S
O186 Cd177 2.378 . S
O186 C184 1.256 . S
O187 Cd188 2.300 . S
O187 C194 1.275 . S
Cd188 O187 2.300 . S
Cd188 O196 2.381 . S
Cd188 O197 2.378 . S
O189 Cd190 2.385 . S
O189 C194 1.255 . S
Cd190 O189 2.385 . S
Cd190 O191 2.317 . S
O191 Cd190 2.317 . S
O191 C192 1.232 . S
C192 O191 1.232 . S
C192 O193 1.218 . S
O193 C192 1.218 . S
C194 O187 1.275 . S
C194 O189 1.255 . S
C195 O196 1.258 . S
C195 O197 1.256 . S
O196 Cd188 2.381 . S
O196 C195 1.258 . S
O197 Cd188 2.378 . S
O197 C195 1.256 . S
O198 Cd199 2.300 . S
O198 C205 1.275 . S
Cd199 O198 2.300 . S
Cd199 O207 2.381 . S
Cd199 O208 2.378 . S
O200 Cd201 2.385 . S
O200 C205 1.255 . S
Cd201 O200 2.385 . S
Cd201 O202 2.317 . S
O202 Cd201 2.317 . S
O202 C203 1.232 . S
C203 O202 1.232 . S
C203 O204 1.218 . S
O204 C203 1.218 . S
C205 O198 1.275 . S
C205 O200 1.255 . S
C206 O207 1.258 . S
C206 O208 1.256 . S
O207 Cd199 2.381 . S
O207 C206 1.258 . S
O208 Cd199 2.378 . S
O208 C206 1.256 . S
O209 Cd210 2.300 . S
O209 C216 1.275 . S
Cd210 O209 2.300 . S
Cd210 O218 2.381 . S
Cd210 O219 2.378 . S
O211 Cd212 2.385 . S
O211 C216 1.255 . S
Cd212 O211 2.385 . S
Cd212 O213 2.317 . S
O213 Cd212 2.317 . S
O213 C214 1.232 . S
C214 O213 1.232 . S
C214 O215 1.218 . S
O215 C214 1.218 . S
C216 O209 1.275 . S
C216 O211 1.255 . S
C217 O218 1.258 . S
C217 O219 1.256 . S
O218 Cd210 2.381 . S
O218 C217 1.258 . S
O219 Cd210 2.378 . S
O219 C217 1.256 . S
O220 Cd221 2.300 . S
O220 C227 1.275 . S
Cd221 O220 2.300 . S
Cd221 O229 2.381 . S
Cd221 O230 2.378 . S
O222 Cd223 2.385 . S
O222 C227 1.255 . S
Cd223 O222 2.385 . S
Cd223 O224 2.317 . S
O224 Cd223 2.317 . S
O224 C225 1.232 . S
C225 O224 1.232 . S
C225 O226 1.218 . S
O226 C225 1.218 . S
C227 O220 1.275 . S
C227 O222 1.255 . S
C228 O229 1.258 . S
C228 O230 1.256 . S
O229 Cd221 2.381 . S
O229 C228 1.258 . S
O230 Cd221 2.378 . S
O230 C228 1.256 . S
O231 Cd232 2.300 . S
O231 C238 1.275 . S
Cd232 O231 2.300 . S
Cd232 O240 2.381 . S
Cd232 O241 2.378 . S
O233 Cd234 2.385 . S
O233 C238 1.255 . S
Cd234 O233 2.385 . S
Cd234 O235 2.317 . S
O235 Cd234 2.317 . S
O235 C236 1.232 . S
C236 O235 1.232 . S
C236 O237 1.218 . S
O237 C236 1.218 . S
C238 O231 1.275 . S
C238 O233 1.255 . S
C239 O240 1.258 . S
C239 O241 1.256 . S
O240 Cd232 2.381 . S
O240 C239 1.258 . S
O241 Cd232 2.378 . S
O241 C239 1.256 . S
O242 Cd243 2.300 . S
O242 C249 1.275 . S
Cd243 O242 2.300 . S
Cd243 O251 2.381 . S
Cd243 O252 2.378 . S
O244 Cd245 2.385 . S
O244 C249 1.255 . S
Cd245 O244 2.385 . S
Cd245 O246 2.317 . S
O246 Cd245 2.317 . S
O246 C247 1.232 . S
C247 O246 1.232 . S
C247 O248 1.218 . S
O248 C247 1.218 . S
C249 O242 1.275 . S
C249 O244 1.255 . S
C250 O251 1.258 . S
C250 O252 1.256 . S
O251 Cd243 2.381 . S
O251 C250 1.258 . S
O252 Cd243 2.378 . S
O252 C250 1.256 . S
O253 Cd254 2.300 . S
O253 C260 1.275 . S
Cd254 O253 2.300 . S
Cd254 O262 2.381 . S
Cd254 O263 2.378 . S
O255 Cd256 2.385 . S
O255 C260 1.255 . S
Cd256 O255 2.385 . S
Cd256 O257 2.317 . S
O257 Cd256 2.317 . S
O257 C258 1.232 . S
C258 O257 1.232 . S
C258 O259 1.218 . S
O259 C258 1.218 . S
C260 O253 1.275 . S
C260 O255 1.255 . S
C261 O262 1.258 . S
C261 O263 1.256 . S
O262 Cd254 2.381 . S
O262 C261 1.258 . S
O263 Cd254 2.378 . S
O263 C261 1.256 . S
O264 Cd265 2.300 . S
O264 C271 1.275 . S
Cd265 O264 2.300 . S
Cd265 O273 2.381 . S
Cd265 O274 2.378 . S
O266 Cd267 2.385 . S
O266 C271 1.255 . S
Cd267 O266 2.385 . S
Cd267 O268 2.317 . S
O268 Cd267 2.317 . S
O268 C269 1.232 . S
C269 O268 1.232 . S
C269 O270 1.218 . S
O270 C269 1.218 . S
C271 O264 1.275 . S
C271 O266 1.255 . S
C272 O273 1.258 . S
C272 O274 1.256 . S
O273 Cd265 2.381 . S
O273 C272 1.258 . S
O274 Cd265 2.378 . S
O274 C272 1.256 . S
O275 Cd276 2.300 . S
O275 C282 1.275 . S
Cd276 O275 2.300 . S
Cd276 O284 2.381 . S
Cd276 O285 2.378 . S
O277 Cd278 2.385 . S
O277 C282 1.255 . S
Cd278 O277 2.385 . S
Cd278 O279 2.317 . S
O279 Cd278 2.317 . S
O279 C280 1.232 . S
C280 O279 1.232 . S
C280 O281 1.218 . S
O281 C280 1.218 . S
C282 O275 1.275 . S
C282 O277 1.255 . S
C283 O284 1.258 . S
C283 O285 1.256 . S
O284 Cd276 2.381 . S
O284 C283 1.258 . S
O285 Cd276 2.378 . S
O285 C283 1.256 . S
O286 Cd287 2.300 . S
O286 C293 1.275 . S
Cd287 O286 2.300 . S
Cd287 O295 2.381 . S
Cd287 O296 2.378 . S
O288 Cd289 2.385 . S
O288 C293 1.255 . S
Cd289 O288 2.385 . S
Cd289 O290 2.317 . S
O290 Cd289 2.317 . S
O290 C291 1.232 . S
C291 O290 1.232 . S
C291 O292 1.218 . S
O292 C291 1.218 . S
C293 O286 1.275 . S
C293 O288 1.255 . S
C294 O295 1.258 . S
C294 O296 1.256 . S
O295 Cd287 2.381 . S
O295 C294 1.258 . S
O296 Cd287 2.378 . S
O296 C294 1.256 . S
O297 Cd298 2.300 . S
O297 C304 1.275 . S
Cd298 O297 2.300 . S
Cd298 O306 2.381 . S
Cd298 O307 2.378 . S
O299 Cd300 2.385 . S
O299 C304 1.255 . S
Cd300 O299 2.385 . S
Cd300 O301 2.317 . S
O301 Cd300 2.317 . S
O301 C302 1.232 . S
C302 O301 1.232 . S
C302 O303 1.218 . S
O303 C302 1.218 . S
C304 O297 1.275 . S
C304 O299 1.255 . S
C305 O306 1.258 . S
C305 O307 1.256 . S
O306 Cd298 2.381 . S
O306 C305 1.258 . S
O307 Cd298 2.378 . S
O307 C305 1.256 . S
O308 Cd309 2.300 . S
O308 C315 1.275 . S
Cd309 O308 2.300 . S
Cd309 O317 2.381 . S
Cd309 O318 2.378 . S
O310 Cd311 2.385 . S
O310 C315 1.255 . S
Cd311 O310 2.385 . S
Cd311 O312 2.317 . S
O312 Cd311 2.317 . S
O312 C313 1.232 . S
C313 O312 1.232 . S
C313 O314 1.218 . S
O314 C313 1.218 . S
C315 O308 1.275 . S
C315 O310 1.255 . S
C316 O317 1.258 . S
C316 O318 1.256 . S
O317 Cd309 2.381 . S
O317 C316 1.258 . S
O318 Cd309 2.378 . S
O318 C316 1.256 . S
O319 Cd320 2.300 . S
O319 C326 1.275 . S
Cd320 O319 2.300 . S
Cd320 O328 2.381 . S
Cd320 O329 2.378 . S
O321 Cd322 2.385 . S
O321 C326 1.255 . S
Cd322 O321 2.385 . S
Cd322 O323 2.317 . S
O323 Cd322 2.317 . S
O323 C324 1.232 . S
C324 O323 1.232 . S
C324 O325 1.218 . S
O325 C324 1.218 . S
C326 O319 1.275 . S
C326 O321 1.255 . S
C327 O328 1.258 . S
C327 O329 1.256 . S
O328 Cd320 2.381 . S
O328 C327 1.258 . S
O329 Cd320 2.378 . S
O329 C327 1.256 . S
O330 Cd331 2.300 . S
O330 C337 1.275 . S
Cd331 O330 2.300 . S
Cd331 O339 2.381 . S
Cd331 O340 2.378 . S
O332 Cd333 2.385 . S
O332 C337 1.255 . S
Cd333 O332 2.385 . S
Cd333 O334 2.317 . S
O334 Cd333 2.317 . S
O334 C335 1.232 . S
C335 O334 1.232 . S
C335 O336 1.218 . S
O336 C335 1.218 . S
C337 O330 1.275 . S
C337 O332 1.255 . S
C338 O339 1.258 . S
C338 O340 1.256 . S
O339 Cd331 2.381 . S
O339 C338 1.258 . S
O340 Cd331 2.378 . S
O340 C338 1.256 . S
O341 Cd342 2.300 . S
O341 C348 1.275 . S
Cd342 O341 2.300 . S
Cd342 O350 2.381 . S
Cd342 O351 2.378 . S
O343 Cd344 2.385 . S
O343 C348 1.255 . S
Cd344 O343 2.385 . S
Cd344 O345 2.317 . S
O345 Cd344 2.317 . S
O345 C346 1.232 . S
C346 O345 1.232 . S
C346 O347 1.218 . S
O347 C346 1.218 . S
C348 O341 1.275 . S
C348 O343 1.255 . S
C349 O350 1.258 . S
C349 O351 1.256 . S
O350 Cd342 2.381 . S
O350 C349 1.258 . S
O351 Cd342 2.378 . S
O351 C349 1.256 . S
O352 Cd353 2.300 . S
O352 C359 1.275 . S
Cd353 O352 2.300 . S
Cd353 O361 2.381 . S
Cd353 O362 2.378 . S
O354 Cd355 2.385 . S
O354 C359 1.255 . S
Cd355 O354 2.385 . S
Cd355 O356 2.317 . S
O356 Cd355 2.317 . S
O356 C357 1.232 . S
C357 O356 1.232 . S
C357 O358 1.218 . S
O358 C357 1.218 . S
C359 O352 1.275 . S
C359 O354 1.255 . S
C360 O361 1.258 . S
C360 O362 1.256 . S
O361 Cd353 2.381 . S
O361 C360 1.258 . S
O362 Cd353 2.378 . S
O362 C360 1.256 . S
O363 Cd364 2.300 . S
O363 C370 1.275 . S
Cd364 O363 2.300 . S
Cd364 O372 2.381 . S
Cd364 O373 2.378 . S
O365 Cd366 2.385 . S
O365 C370 1.255 . S
Cd366 O365 2.385 . S
Cd366 O367 2.317 . S
O367 Cd366 2.317 . S
O367 C368 1.232 . S
C368 O367 1.232 . S
C368 O369 1.218 . S
O369 C368 1.218 . S
C370 O363 1.275 . S
C370 O365 1.255 . S
C371 O372 1.258 . S
C371 O373 1.256 . S
O372 Cd364 2.381 . S
O372 C371 1.258 . S
O373 Cd364 2.378 . S
O373 C371 1.256 . S
O374 Cd375 2.300 . S
O374 C381 1.275 . S
Cd375 O374 2.300 . S
Cd375 O383 2.381 . S
Cd375 O384 2.378 . S
O376 Cd377 2.385 . S
O376 C381 1.255 . S
Cd377 O376 2.385 . S
Cd377 O378 2.317 . S
O378 Cd377 2.317 . S
O378 C379 1.232 . S
C379 O378 1.232 . S
C379 O380 1.218 . S
O380 C379 1.218 . S
C381 O374 1.275 . S
C381 O376 1.255 . S
C382 O383 1.258 . S
C382 O384 1.256 . S
O383 Cd375 2.381 . S
O383 C382 1.258 . S
O384 Cd375 2.378 . S
O384 C382 1.256 . S
O385 Cd386 2.300 . S
O385 C392 1.275 . S
Cd386 O385 2.300 . S
Cd386 O394 2.381 . S
Cd386 O395 2.378 . S
O387 Cd388 2.385 . S
O387 C392 1.255 . S
Cd388 O387 2.385 . S
Cd388 O389 2.317 . S
O389 Cd388 2.317 . S
O389 C390 1.232 . S
C390 O389 1.232 . S
C390 O391 1.218 . S
O391 C390 1.218 . S
C392 O385 1.275 . S
C392 O387 1.255 . S
C393 O394 1.258 . S
C393 O395 1.256 . S
O394 Cd386 2.381 . S
O394 C393 1.258 . S
O395 Cd386 2.378 . S
O395 C393 1.256 . S
O396 Cd397 2.300 . S
O396 C403 1.275 . S
Cd397 O396 2.300 . S
Cd397 O405 2.381 . S
Cd397 O406 2.378 . S
O398 Cd399 2.385 . S
O398 C403 1.255 . S
Cd399 O398 2.385 . S
Cd399 O400 2.317 . S
O400 Cd399 2.317 . S
O400 C401 1.232 . S
C401 O400 1.232 . S
C401 O402 1.218 . S
O402 C401 1.218 . S
C403 O396 1.275 . S
C403 O398 1.255 . S
C404 O405 1.258 . S
C404 O406 1.256 . S
O405 Cd397 2.381 . S
O405 C404 1.258 . S
O406 Cd397 2.378 . S
O406 C404 1.256 . S
O407 Cd408 2.300 . S
O407 C414 1.275 . S
Cd408 O407 2.300 . S
Cd408 O416 2.381 . S
Cd408 O417 2.378 . S
O409 Cd410 2.385 . S
O409 C414 1.255 . S
Cd410 O409 2.385 . S
Cd410 O411 2.317 . S
O411 Cd410 2.317 . S
O411 C412 1.232 . S
C412 O411 1.232 . S
C412 O413 1.218 . S
O413 C412 1.218 . S
C414 O407 1.275 . S
C414 O409 1.255 . S
C415 O416 1.258 . S
C415 O417 1.256 . S
O416 Cd408 2.381 . S
O416 C415 1.258 . S
O417 Cd408 2.378 . S
O417 C415 1.256 . S
O418 Cd419 2.300 . S
O418 C425 1.275 . S
Cd419 O418 2.300 . S
Cd419 O427 2.381 . S
Cd419 O428 2.378 . S
O420 Cd421 2.385 . S
O420 C425 1.255 . S
Cd421 O420 2.385 . S
Cd421 O422 2.317 . S
O422 Cd421 2.317 . S
O422 C423 1.232 . S
C423 O422 1.232 . S
C423 O424 1.218 . S
O424 C423 1.218 . S
C425 O418 1.275 . S
C425 O420 1.255 . S
C426 O427 1.258 . S
C426 O428 1.256 . S
O427 Cd419 2.381 . S
O427 C426 1.258 . S
O428 Cd419 2.378 . S
O428 C426 1.256 . S
O429 Cd430 2.300 . S
O429 C436 1.275 . S
Cd430 O429 2.300 . S
Cd430 O438 2.381 . S
Cd430 O439 2.378 . S
O431 Cd432 2.385 . S
O431 C436 1.255 . S
Cd432 O431 2.385 . S
Cd432 O433 2.317 . S
O433 Cd432 2.317 . S
O433 C434 1.232 . S
C434 O433 1.232 . S
C434 O435 1.218 . S
O435 C434 1.218 . S
C436 O429 1.275 . S
C436 O431 1.255 . S
C437 O438 1.258 . S
C437 O439 1.256 . S
O438 Cd430 2.381 . S
O438 C437 1.258 . S
O439 Cd430 2.378 . S
O439 C437 1.256 . S
O440 Cd441 2.300 . S
O440 C447 1.275 . S
Cd441 O440 2.300 . S
Cd441 O449 2.381 . S
Cd441 O450 2.378 . S
O442 Cd443 2.385 . S
O442 C447 1.255 . S
Cd443 O442 2.385 . S
Cd443 O444 2.317 . S
O444 Cd443 2.317 . S
O444 C445 1.232 . S
C445 O444 1.232 . S
C445 O446 1.218 . S
O446 C445 1.218 . S
C447 O440 1.275 . S
C447 O442 1.255 . S
C448 O449 1.258 . S
C448 O450 1.256 . S
O449 Cd441 2.381 . S
O449 C448 1.258 . S
O450 Cd441 2.378 . S
O450 C448 1.256 . S
O451 Cd452 2.300 . S
O451 C458 1.275 . S
Cd452 O451 2.300 . S
Cd452 O460 2.381 . S
Cd452 O461 2.378 . S
O453 Cd454 2.385 . S
O453 C458 1.255 . S
Cd454 O453 2.385 . S
Cd454 O455 2.317 . S
O455 Cd454 2.317 . S
O455 C456 1.232 . S
C456 O455 1.232 . S
C456 O457 1.218 . S
O457 C456 1.218 . S
C458 O451 1.275 . S
C458 O453 1.255 . S
C459 O460 1.258 . S
C459 O461 1.256 . S
O460 Cd452 2.381 . S
O460 C459 1.258 . S
O461 Cd452 2.378 . S
O461 C459 1.256 . S
O462 Cd463 2.300 . S
O462 C469 1.275 . S
Cd463 O462 2.300 . S
Cd463 O471 2.381 . S
Cd463 O472 2.378 . S
O464 Cd465 2.385 . S
O464 C469 1.255 . S
Cd465 O464 2.385 . S
Cd465 O466 2.317 . S
O466 Cd465 2.317 . S
O466 C467 1.232 . S
C467 O466 1.232 . S
C467 O468 1.218 . S
O468 C467 1.218 . S
C469 O462 1.275 . S
C469 O464 1.255 . S
C470 O471 1.258 . S
C470 O472 1.256 . S
O471 Cd463 2.381 . S
O471 C470 1.258 . S
O472 Cd463 2.378 . S
O472 C470 1.256 . S
O473 Cd474 2.300 . S
O473 C480 1.275 . S
Cd474 O473 2.300 . S
Cd474 O482 2.381 . S
Cd474 O483 2.378 . S
O475 Cd476 2.385 . S
O475 C480 1.255 . S
Cd476 O475 2.385 . S
Cd476 O477 2.317 . S
O477 Cd476 2.317 . S
O477 C478 1.232 . S
C478 O477 1.232 . S
C478 O479 1.218 . S
O479 C478 1.218 . S
C480 O473 1.275 . S
C480 O475 1.255 . S
C481 O482 1.258 . S
C481 O483 1.256 . S
O482 Cd474 2.381 . S
O482 C481 1.258 . S
O483 Cd474 2.378 . S
O483 C481 1.256 . S
O484 Cd485 2.300 . S
O484 C491 1.275 . S
Cd485 O484 2.300 . S
Cd485 O493 2.381 . S
Cd485 O494 2.378 . S
O486 Cd487 2.385 . S
O486 C491 1.255 . S
Cd487 O486 2.385 . S
Cd487 O488 2.317 . S
O488 Cd487 2.317 . S
O488 C489 1.232 . S
C489 O488 1.232 . S
C489 O490 1.218 . S
O490 C489 1.218 . S
C491 O484 1.275 . S
C491 O486 1.255 . S
C492 O493 1.258 . S
C492 O494 1.256 . S
O493 Cd485 2.381 . S
O493 C492 1.258 . S
O494 Cd485 2.378 . S
O494 C492 1.256 . S
O495 Cd496 2.300 . S
O495 C502 1.275 . S
Cd496 O495 2.300 . S
Cd496 O504 2.381 . S
Cd496 O505 2.378 . S
O497 Cd498 2.385 . S
O497 C502 1.255 . S
Cd498 O497 2.385 . S
Cd498 O499 2.317 . S
O499 Cd498 2.317 . S
O499 C500 1.232 . S
C500 O499 1.232 . S
C500 O501 1.218 . S
O501 C500 1.218 . S
C502 O495 1.275 . S
C502 O497 1.255 . S
C503 O504 1.258 . S
C503 O505 1.256 . S
O504 Cd496 2.381 . S
O504 C503 1.258 . S
O505 Cd496 2.378 . S
O505 C503 1.256 . S
O506 Cd507 2.300 . S
O506 C513 1.275 . S
Cd507 O506 2.300 . S
Cd507 O515 2.381 . S
Cd507 O516 2.378 . S
O508 Cd509 2.385 . S
O508 C513 1.255 . S
Cd509 O508 2.385 . S
Cd509 O510 2.317 . S
O510 Cd509 2.317 . S
O510 C511 1.232 . S
C511 O510 1.232 . S
C511 O512 1.218 . S
O512 C511 1.218 . S
C513 O506 1.275 . S
C513 O508 1.255 . S
C514 O515 1.258 . S
C514 O516 1.256 . S
O515 Cd507 2.381 . S
O515 C514 1.258 . S
O516 Cd507 2.378 . S
O516 C514 1.256 . S
O517 Cd518 2.300 . S
O517 C524 1.275 . S
Cd518 O517 2.300 . S
Cd518 O526 2.381 . S
Cd518 O527 2.378 . S
O519 Cd520 2.385 . S
O519 C524 1.255 . S
Cd520 O519 2.385 . S
Cd520 O521 2.317 . S
O521 Cd520 2.317 . S
O521 C522 1.232 . S
C522 O521 1.232 . S
C522 O523 1.218 . S
O523 C522 1.218 . S
C524 O517 1.275 . S
C524 O519 1.255 . S
C525 O526 1.258 . S
C525 O527 1.256 . S
O526 Cd518 2.381 . S
O526 C525 1.258 . S
O527 Cd518 2.378 . S
O527 C525 1.256 . S
H528 C536 0.950 . S
H529 C541 0.950 . S
H530 C538 0.950 1_455 S
H531 C540 0.950 . S
H532 C542 0.950 . S
H533 C544 0.950 1_655 S
H534 C546 0.950 . S
H535 C547 0.950 . S
C536 H528 0.950 . S
C536 C537 1.386 . S
C536 C538 1.391 . S
C537 C536 1.386 . S
C537 C541 1.393 . S
C538 H530 0.950 1_655 S
C538 C536 1.391 . S
C538 C539 1.400 . S
C539 C538 1.400 . S
C539 C540 1.398 . S
C539 C545 1.491 1_655 S
C540 H531 0.950 . S
C540 C539 1.398 . S
C540 C541 1.391 . S
C541 H529 0.950 . S
C541 C537 1.393 . S
C541 C540 1.391 . S
C542 H532 0.950 . S
C542 C543 1.386 . S
C542 C544 1.391 . S
C543 C542 1.386 . S
C543 C547 1.393 . S
C544 H533 0.950 1_455 S
C544 C542 1.391 . S
C544 C545 1.400 . S
C545 C539 1.491 1_455 S
C545 C544 1.400 . S
C545 C546 1.398 . S
C546 H534 0.950 . S
C546 C545 1.398 . S
C546 C547 1.391 . S
C547 H535 0.950 . S
C547 C543 1.393 . S
C547 C546 1.391 . S
H548 C556 0.950 . S
H549 C561 0.950 . S
H550 C558 0.950 . S
H551 C560 0.950 1_565 S
H552 C562 0.950 . S
H553 C564 0.950 . S
H554 C566 0.950 1_545 S
H555 C567 0.950 . S
C556 H548 0.950 . S
C556 C557 1.386 . S
C556 C558 1.391 . S
C557 C556 1.386 . S
C557 C561 1.393 . S
C558 H550 0.950 . S
C558 C556 1.391 . S
C558 C559 1.400 . S
C559 C558 1.400 . S
C559 C560 1.398 . S
C559 C565 1.491 1_545 S
C560 H551 0.950 1_545 S
C560 C559 1.398 . S
C560 C561 1.391 . S
C561 H549 0.950 . S
C561 C557 1.393 . S
C561 C560 1.391 . S
C562 H552 0.950 . S
C562 C563 1.386 . S
C562 C564 1.391 . S
C563 C562 1.386 . S
C563 C567 1.393 . S
C564 H553 0.950 . S
C564 C562 1.391 . S
C564 C565 1.400 . S
C565 C559 1.491 1_565 S
C565 C564 1.400 . S
C565 C566 1.398 . S
C566 H554 0.950 1_565 S
C566 C565 1.398 . S
C566 C567 1.391 . S
C567 H555 0.950 . S
C567 C563 1.393 . S
C567 C566 1.391 . S
H568 C576 0.950 . S
H569 C581 0.950 . S
H570 C578 0.950 . S
H571 C580 0.950 . S
H572 C582 0.950 . S
H573 C584 0.950 . S
H574 C586 0.950 . S
H575 C587 0.950 . S
C576 H568 0.950 . S
C576 C577 1.386 . S
C576 C578 1.391 . S
C577 C576 1.386 . S
C577 C581 1.393 . S
C578 H570 0.950 . S
C578 C576 1.391 . S
C578 C579 1.400 . S
C579 C578 1.400 . S
C579 C580 1.398 . S
C579 C585 1.491 1_655 S
C580 H571 0.950 . S
C580 C579 1.398 . S
C580 C581 1.391 . S
C581 H569 0.950 . S
C581 C577 1.393 . S
C581 C580 1.391 . S
C582 H572 0.950 . S
C582 C583 1.386 . S
C582 C584 1.391 . S
C583 C582 1.386 . S
C583 C587 1.393 . S
C584 H573 0.950 . S
C584 C582 1.391 . S
C584 C585 1.400 . S
C585 C579 1.491 1_455 S
C585 C584 1.400 . S
C585 C586 1.398 . S
C586 H574 0.950 . S
C586 C585 1.398 . S
C586 C587 1.391 . S
C587 H575 0.950 . S
C587 C583 1.393 . S
C587 C586 1.391 . S
H588 C596 0.950 . S
H589 C601 0.950 . S
H590 C598 0.950 . S
H591 C600 0.950 . S
H592 C602 0.950 . S
H593 C604 0.950 . S
H594 C606 0.950 . S
H595 C607 0.950 . S
C596 H588 0.950 . S
C596 C597 1.386 . S
C596 C598 1.391 . S
C597 C596 1.386 . S
C597 C601 1.393 . S
C598 H590 0.950 . S
C598 C596 1.391 . S
C598 C599 1.400 . S
C599 C598 1.400 . S
C599 C600 1.398 . S
C599 C605 1.491 1_545 S
C600 H591 0.950 . S
C600 C599 1.398 . S
C600 C601 1.391 . S
C601 H589 0.950 . S
C601 C597 1.393 . S
C601 C600 1.391 . S
C602 H592 0.950 . S
C602 C603 1.386 . S
C602 C604 1.391 . S
C603 C602 1.386 . S
C603 C607 1.393 . S
C604 H593 0.950 . S
C604 C602 1.391 . S
C604 C605 1.400 . S
C605 C599 1.491 1_565 S
C605 C604 1.400 . S
C605 C606 1.398 . S
C606 H594 0.950 . S
C606 C605 1.398 . S
C606 C607 1.391 . S
C607 H595 0.950 . S
C607 C603 1.393 . S
C607 C606 1.391 . S
H608 C616 0.950 . S
H609 C621 0.950 . S
H610 C618 0.950 1_545 S
H611 C620 0.950 . S
H612 C622 0.950 . S
H613 C624 0.950 1_565 S
H614 C626 0.950 . S
H615 C627 0.950 . S
C616 H608 0.950 . S
C616 C617 1.386 . S
C616 C618 1.391 . S
C617 C616 1.386 . S
C617 C621 1.393 . S
C618 H610 0.950 1_565 S
C618 C616 1.391 . S
C618 C619 1.400 . S
C619 C618 1.400 . S
C619 C620 1.398 . S
C619 C625 1.491 1_565 S
C620 H611 0.950 . S
C620 C619 1.398 . S
C620 C621 1.391 . S
C621 H609 0.950 . S
C621 C617 1.393 . S
C621 C620 1.391 . S
C622 H612 0.950 . S
C622 C623 1.386 . S
C622 C624 1.391 . S
C623 C622 1.386 . S
C623 C627 1.393 . S
C624 H613 0.950 1_545 S
C624 C622 1.391 . S
C624 C625 1.400 . S
C625 C619 1.491 1_545 S
C625 C624 1.400 . S
C625 C626 1.398 . S
C626 H614 0.950 . S
C626 C625 1.398 . S
C626 C627 1.391 . S
C627 H615 0.950 . S
C627 C623 1.393 . S
C627 C626 1.391 . S
H628 C636 0.950 . S
H629 C641 0.950 . S
H630 C638 0.950 . S
H631 C640 0.950 . S
H632 C642 0.950 . S
H633 C644 0.950 . S
H634 C646 0.950 . S
H635 C647 0.950 . S
C636 H628 0.950 . S
C636 C637 1.386 . S
C636 C638 1.391 . S
C637 C636 1.386 . S
C637 C641 1.393 . S
C638 H630 0.950 . S
C638 C636 1.391 . S
C638 C639 1.400 . S
C639 C638 1.400 . S
C639 C640 1.398 . S
C639 C645 1.491 1_455 S
C640 H631 0.950 . S
C640 C639 1.398 . S
C640 C641 1.391 . S
C641 H629 0.950 . S
C641 C637 1.393 . S
C641 C640 1.391 . S
C642 H632 0.950 . S
C642 C643 1.386 . S
C642 C644 1.391 . S
C643 C642 1.386 . S
C643 C647 1.393 . S
C644 H633 0.950 . S
C644 C642 1.391 . S
C644 C645 1.400 . S
C645 C639 1.491 1_655 S
C645 C644 1.400 . S
C645 C646 1.398 . S
C646 H634 0.950 . S
C646 C645 1.398 . S
C646 C647 1.391 . S
C647 H635 0.950 . S
C647 C643 1.393 . S
C647 C646 1.391 . S
H648 C656 0.950 . S
H649 C661 0.950 . S
H650 C658 0.950 . S
H651 C660 0.950 1_545 S
H652 C662 0.950 . S
H653 C664 0.950 . S
H654 C666 0.950 1_565 S
H655 C667 0.950 . S
C656 H648 0.950 . S
C656 C657 1.386 . S
C656 C658 1.391 . S
C657 C656 1.386 . S
C657 C661 1.393 . S
C658 H650 0.950 . S
C658 C656 1.391 . S
C658 C659 1.400 . S
C659 C658 1.400 . S
C659 C660 1.398 . S
C659 C665 1.491 1_565 S
C660 H651 0.950 1_565 S
C660 C659 1.398 . S
C660 C661 1.391 . S
C661 H649 0.950 . S
C661 C657 1.393 . S
C661 C660 1.391 . S
C662 H652 0.950 . S
C662 C663 1.386 . S
C662 C664 1.391 . S
C663 C662 1.386 . S
C663 C667 1.393 . S
C664 H653 0.950 . S
C664 C662 1.391 . S
C664 C665 1.400 . S
C665 C659 1.491 1_545 S
C665 C664 1.400 . S
C665 C666 1.398 . S
C666 H654 0.950 1_545 S
C666 C665 1.398 . S
C666 C667 1.391 . S
C667 H655 0.950 . S
C667 C663 1.393 . S
C667 C666 1.391 . S
H668 C676 0.950 . S
H669 C681 0.950 . S
H670 C678 0.950 . S
H671 C680 0.950 1_655 S
H672 C682 0.950 . S
H673 C684 0.950 . S
H674 C686 0.950 1_455 S
H675 C687 0.950 . S
C676 H668 0.950 . S
C676 C677 1.386 . S
C676 C678 1.391 . S
C677 C676 1.386 . S
C677 C681 1.393 . S
C678 H670 0.950 . S
C678 C676 1.391 . S
C678 C679 1.400 . S
C679 C678 1.400 . S
C679 C680 1.398 . S
C679 C685 1.491 1_455 S
C680 H671 0.950 1_455 S
C680 C679 1.398 . S
C680 C681 1.391 . S
C681 H669 0.950 . S
C681 C677 1.393 . S
C681 C680 1.391 . S
C682 H672 0.950 . S
C682 C683 1.386 . S
C682 C684 1.391 . S
C683 C682 1.386 . S
C683 C687 1.393 . S
C684 H673 0.950 . S
C684 C682 1.391 . S
C684 C685 1.400 . S
C685 C679 1.491 1_655 S
C685 C684 1.400 . S
C685 C686 1.398 . S
C686 H674 0.950 1_655 S
C686 C685 1.398 . S
C686 C687 1.391 . S
C687 H675 0.950 . S
C687 C683 1.393 . S
C687 C686 1.391 . S
H688 C696 0.950 . S
H689 C701 0.950 . S
H690 C698 0.950 . S
H691 C700 0.890 1_554 S
H692 C702 0.950 . S
H693 C704 0.950 . S
H694 C706 0.890 1_556 S
H695 C707 0.950 . S
C696 H688 0.950 . S
C696 C697 1.386 . S
C696 C698 1.391 . S
C697 C696 1.386 . S
C697 C701 1.393 . S
C698 H690 0.950 . S
C698 C696 1.391 . S
C698 C699 1.400 . S
C699 C698 1.400 . S
C699 C700 1.398 . S
C699 C705 1.491 1_556 S
C700 H691 0.890 1_556 S
C700 C699 1.398 . S
C700 C701 1.391 . S
C701 H689 0.950 . S
C701 C697 1.393 . S
C701 C700 1.391 . S
C702 H692 0.950 . S
C702 C703 1.386 . S
C702 C704 1.391 . S
C703 C702 1.386 . S
C703 C707 1.393 . S
C704 H693 0.950 . S
C704 C702 1.391 . S
C704 C705 1.400 . S
C705 C699 1.491 1_554 S
C705 C704 1.400 . S
C705 C706 1.398 . S
C706 H694 0.890 1_554 S
C706 C705 1.398 . S
C706 C707 1.391 . S
C707 H695 0.950 . S
C707 C703 1.393 . S
C707 C706 1.391 . S
H708 C716 0.950 . S
H709 C721 0.950 . S
H710 C718 0.950 . S
H711 C720 0.921 1_554 S
H712 C722 0.950 . S
H713 C724 0.950 . S
H714 C726 0.921 1_556 S
H715 C727 0.950 . S
C716 H708 0.950 . S
C716 C717 1.386 . S
C716 C718 1.391 . S
C717 C716 1.386 . S
C717 C721 1.393 . S
C718 H710 0.950 . S
C718 C716 1.391 . S
C718 C719 1.400 . S
C719 C718 1.400 . S
C719 C720 1.398 . S
C719 C725 1.491 1_556 S
C720 H711 0.921 1_556 S
C720 C719 1.398 . S
C720 C721 1.391 . S
C721 H709 0.950 . S
C721 C717 1.393 . S
C721 C720 1.391 . S
C722 H712 0.950 . S
C722 C723 1.386 . S
C722 C724 1.391 . S
C723 C722 1.386 . S
C723 C727 1.393 . S
C724 H713 0.950 . S
C724 C722 1.391 . S
C724 C725 1.400 . S
C725 C719 1.491 1_554 S
C725 C724 1.400 . S
C725 C726 1.398 . S
C726 H714 0.921 1_554 S
C726 C725 1.398 . S
C726 C727 1.391 . S
C727 H715 0.950 . S
C727 C723 1.393 . S
C727 C726 1.391 . S
H728 C736 0.950 . S
H729 C741 0.950 . S
H730 C738 0.950 . S
H731 C740 0.950 . S
H732 C742 0.950 . S
H733 C744 0.950 . S
H734 C746 0.950 . S
H735 C747 0.950 . S
C736 H728 0.950 . S
C736 C737 1.386 . S
C736 C738 1.391 . S
C737 C736 1.386 . S
C737 C741 1.393 . S
C738 H730 0.950 . S
C738 C736 1.391 . S
C738 C739 1.400 . S
C739 C738 1.400 . S
C739 C740 1.398 . S
C739 C745 1.491 1_554 S
C740 H731 0.950 . S
C740 C739 1.398 . S
C740 C741 1.391 . S
C741 H729 0.950 . S
C741 C737 1.393 . S
C741 C740 1.391 . S
C742 H732 0.950 . S
C742 C743 1.386 . S
C742 C744 1.391 . S
C743 C742 1.386 . S
C743 C747 1.393 . S
C744 H733 0.950 . S
C744 C742 1.391 . S
C744 C745 1.400 . S
C745 C739 1.491 1_556 S
C745 C744 1.400 . S
C745 C746 1.398 . S
C746 H734 0.950 . S
C746 C745 1.398 . S
C746 C747 1.391 . S
C747 H735 0.950 . S
C747 C743 1.393 . S
C747 C746 1.391 . S
H748 C756 0.950 . S
H749 C761 0.950 . S
H750 C758 0.921 1_556 S
H751 C760 0.950 . S
H752 C762 0.950 . S
H753 C764 0.921 1_554 S
H754 C766 0.950 . S
H755 C767 0.950 . S
C756 H748 0.950 . S
C756 C757 1.386 . S
C756 C758 1.391 . S
C757 C756 1.386 . S
C757 C761 1.393 . S
C758 H750 0.921 1_554 S
C758 C756 1.391 . S
C758 C759 1.400 . S
C759 C758 1.400 . S
C759 C760 1.398 . S
C759 C765 1.491 1_554 S
C760 H751 0.950 . S
C760 C759 1.398 . S
C760 C761 1.391 . S
C761 H749 0.950 . S
C761 C757 1.393 . S
C761 C760 1.391 . S
C762 H752 0.950 . S
C762 C763 1.386 . S
C762 C764 1.391 . S
C763 C762 1.386 . S
C763 C767 1.393 . S
C764 H753 0.921 1_556 S
C764 C762 1.391 . S
C764 C765 1.400 . S
C765 C759 1.491 1_556 S
C765 C764 1.400 . S
C765 C766 1.398 . S
C766 H754 0.950 . S
C766 C765 1.398 . S
C766 C767 1.391 . S
C767 H755 0.950 . S
C767 C763 1.393 . S
C767 C766 1.391 . S
H768 C776 0.950 . S
H769 C781 0.950 . S
H770 C778 0.950 . S
H771 C780 0.950 . S
H772 C782 0.950 . S
H773 C784 0.950 . S
H774 C786 0.950 . S
H775 C787 0.950 . S
C776 H768 0.950 . S
C776 C777 1.386 . S
C776 C778 1.391 . S
C777 C776 1.386 . S
C777 C781 1.393 . S
C778 H770 0.950 . S
C778 C776 1.391 . S
C778 C779 1.400 . S
C779 C778 1.400 . S
C779 C780 1.398 . S
C779 C785 1.491 1_565 S
C780 H771 0.950 . S
C780 C779 1.398 . S
C780 C781 1.391 . S
C781 H769 0.950 . S
C781 C777 1.393 . S
C781 C780 1.391 . S
C782 H772 0.950 . S
C782 C783 1.386 . S
C782 C784 1.391 . S
C783 C782 1.386 . S
C783 C787 1.393 . S
C784 H773 0.950 . S
C784 C782 1.391 . S
C784 C785 1.400 . S
C785 C779 1.491 1_545 S
C785 C784 1.400 . S
C785 C786 1.398 . S
C786 H774 0.950 . S
C786 C785 1.398 . S
C786 C787 1.391 . S
C787 H775 0.950 . S
C787 C783 1.393 . S
C787 C786 1.391 . S
H788 C796 0.950 . S
H789 C801 0.950 . S
H790 C798 0.950 . S
H791 C800 0.942 . S
H792 C802 0.950 . S
H793 C804 0.950 . S
H794 C806 0.942 . S
H795 C807 0.950 . S
C796 H788 0.950 . S
C796 C797 1.386 . S
C796 C798 1.391 . S
C797 C796 1.386 . S
C797 C801 1.393 . S
C798 H790 0.950 . S
C798 C796 1.391 . S
C798 C799 1.400 . S
C799 C798 1.400 . S
C799 C800 1.401 1_455 S
C799 C805 1.491 1_455 S
C800 H791 0.942 . S
C800 C799 1.401 1_655 S
C800 C801 1.396 1_655 S
C801 H789 0.950 . S
C801 C797 1.393 . S
C801 C800 1.396 1_455 S
C802 H792 0.950 . S
C802 C803 1.386 . S
C802 C804 1.391 . S
C803 C802 1.386 . S
C803 C807 1.393 . S
C804 H793 0.950 . S
C804 C802 1.391 . S
C804 C805 1.400 . S
C805 C799 1.491 1_655 S
C805 C804 1.400 . S
C805 C806 1.401 1_655 S
C806 H794 0.942 . S
C806 C805 1.401 1_455 S
C806 C807 1.396 1_455 S
C807 H795 0.950 . S
C807 C803 1.393 . S
C807 C806 1.396 1_655 S
H808 C816 0.950 . S
H809 C821 0.950 . S
H810 C818 0.950 1_545 S
H811 C820 0.950 . S
H812 C822 0.950 . S
H813 C824 0.950 1_565 S
H814 C826 0.950 . S
H815 C827 0.950 . S
C816 H808 0.950 . S
C816 C817 1.386 . S
C816 C818 1.391 . S
C817 C816 1.386 . S
C817 C821 1.393 . S
C818 H810 0.950 1_565 S
C818 C816 1.391 . S
C818 C819 1.400 . S
C819 C818 1.400 . S
C819 C820 1.398 . S
C819 C825 1.491 1_565 S
C820 H811 0.950 . S
C820 C819 1.398 . S
C820 C821 1.391 . S
C821 H809 0.950 . S
C821 C817 1.393 . S
C821 C820 1.391 . S
C822 H812 0.950 . S
C822 C823 1.386 . S
C822 C824 1.391 . S
C823 C822 1.386 . S
C823 C827 1.393 . S
C824 H813 0.950 1_545 S
C824 C822 1.391 . S
C824 C825 1.400 . S
C825 C819 1.491 1_545 S
C825 C824 1.400 . S
C825 C826 1.398 . S
C826 H814 0.950 . S
C826 C825 1.398 . S
C826 C827 1.391 . S
C827 H815 0.950 . S
C827 C823 1.393 . S
C827 C826 1.391 . S
H828 C836 0.950 . S
H829 C841 0.950 . S
H830 C838 0.950 . S
H831 C840 1.032 . S
H832 C842 0.950 . S
H833 C844 0.950 . S
H834 C846 1.032 . S
H835 C847 0.950 . S
C836 H828 0.950 . S
C836 C837 1.386 . S
C836 C838 1.391 . S
C837 C836 1.386 . S
C837 C841 1.393 . S
C838 H830 0.950 . S
C838 C836 1.391 . S
C838 C839 1.400 . S
C839 C838 1.400 . S
C839 C840 1.369 1_455 S
C839 C845 1.491 1_455 S
C840 H831 1.032 . S
C840 C839 1.369 1_655 S
C840 C841 1.345 1_655 S
C841 H829 0.950 . S
C841 C837 1.393 . S
C841 C840 1.345 1_455 S
C842 H832 0.950 . S
C842 C843 1.386 . S
C842 C844 1.391 . S
C843 C842 1.386 . S
C843 C847 1.393 . S
C844 H833 0.950 . S
C844 C842 1.391 . S
C844 C845 1.400 . S
C845 C839 1.491 1_655 S
C845 C844 1.400 . S
C845 C846 1.369 1_655 S
C846 H834 1.032 . S
C846 C845 1.369 1_455 S
C846 C847 1.345 1_455 S
C847 H835 0.950 . S
C847 C843 1.393 . S
C847 C846 1.345 1_655 S
H848 C856 0.950 . S
H849 C861 0.950 . S
H850 C858 0.950 . S
H851 C860 0.950 . S
H852 C862 0.950 . S
H853 C864 0.950 . S
H854 C866 0.950 . S
H855 C867 0.950 . S
C856 H848 0.950 . S
C856 C857 1.386 . S
C856 C858 1.391 . S
C857 C856 1.386 . S
C857 C861 1.393 . S
C858 H850 0.950 . S
C858 C856 1.391 . S
C858 C859 1.400 . S
C859 C858 1.400 . S
C859 C860 1.398 1_556 S
C859 C865 1.491 1_556 S
C860 H851 0.950 . S
C860 C859 1.398 1_554 S
C860 C861 1.391 1_554 S
C861 H849 0.950 . S
C861 C857 1.393 . S
C861 C860 1.391 1_556 S
C862 H852 0.950 . S
C862 C863 1.386 . S
C862 C864 1.391 . S
C863 C862 1.386 . S
C863 C867 1.393 . S
C864 H853 0.950 . S
C864 C862 1.391 . S
C864 C865 1.400 . S
C865 C859 1.491 1_554 S
C865 C864 1.400 . S
C865 C866 1.398 1_554 S
C866 H854 0.950 . S
C866 C865 1.398 1_556 S
C866 C867 1.391 1_556 S
C867 H855 0.950 . S
C867 C863 1.393 . S
C867 C866 1.391 1_554 S
H868 C876 0.950 . S
H869 C881 0.950 . S
H870 C878 0.950 . S
H871 C880 0.950 . S
H872 C882 0.950 . S
H873 C884 0.950 . S
H874 C886 0.950 . S
H875 C887 0.950 . S
C876 H868 0.950 . S
C876 C877 1.386 . S
C876 C878 1.391 . S
C877 C876 1.386 . S
C877 C881 1.393 . S
C878 H870 0.950 . S
C878 C876 1.391 . S
C878 C879 1.400 . S
C879 C878 1.400 . S
C879 C880 1.398 . S
C879 C885 1.491 1_556 S
C880 H871 0.950 . S
C880 C879 1.398 . S
C880 C881 1.391 . S
C881 H869 0.950 . S
C881 C877 1.393 . S
C881 C880 1.391 . S
C882 H872 0.950 . S
C882 C883 1.386 . S
C882 C884 1.391 . S
C883 C882 1.386 . S
C883 C887 1.393 . S
C884 H873 0.950 . S
C884 C882 1.391 . S
C884 C885 1.400 . S
C885 C879 1.491 1_554 S
C885 C884 1.400 . S
C885 C886 1.398 . S
C886 H874 0.950 . S
C886 C885 1.398 . S
C886 C887 1.391 . S
C887 H875 0.950 . S
C887 C883 1.393 . S
C887 C886 1.391 . S
H888 C896 0.950 . S
H889 C901 0.950 . S
H890 C898 0.950 . S
H891 C900 0.950 1_554 S
H892 C902 0.950 . S
H893 C904 0.950 . S
H894 C906 0.950 1_556 S
H895 C907 0.950 . S
C896 H888 0.950 . S
C896 C897 1.386 . S
C896 C898 1.391 . S
C897 C896 1.386 . S
C897 C901 1.393 . S
C898 H890 0.950 . S
C898 C896 1.391 . S
C898 C899 1.400 . S
C899 C898 1.400 . S
C899 C900 1.398 . S
C899 C905 1.491 1_556 S
C900 H891 0.950 1_556 S
C900 C899 1.398 . S
C900 C901 1.391 . S
C901 H889 0.950 . S
C901 C897 1.393 . S
C901 C900 1.391 . S
C902 H892 0.950 . S
C902 C903 1.386 . S
C902 C904 1.391 . S
C903 C902 1.386 . S
C903 C907 1.393 . S
C904 H893 0.950 . S
C904 C902 1.391 . S
C904 C905 1.400 . S
C905 C899 1.491 1_554 S
C905 C904 1.400 . S
C905 C906 1.398 . S
C906 H894 0.950 1_554 S
C906 C905 1.398 . S
C906 C907 1.391 . S
C907 H895 0.950 . S
C907 C903 1.393 . S
C907 C906 1.391 . S
H908 C916 0.950 . S
H909 C921 0.950 . S
H910 C918 0.950 . S
H911 C920 0.950 . S
H912 C922 0.950 . S
H913 C924 0.950 . S
H914 C926 0.950 . S
H915 C927 0.950 . S
C916 H908 0.950 . S
C916 C917 1.386 . S
C916 C918 1.391 . S
C917 C916 1.386 . S
C917 C921 1.393 . S
C918 H910 0.950 . S
C918 C916 1.391 . S
C918 C919 1.400 . S
C919 C918 1.400 . S
C919 C920 1.398 . S
C919 C925 1.491 1_554 S
C920 H911 0.950 . S
C920 C919 1.398 . S
C920 C921 1.391 . S
C921 H909 0.950 . S
C921 C917 1.393 . S
C921 C920 1.391 . S
C922 H912 0.950 . S
C922 C923 1.386 . S
C922 C924 1.391 . S
C923 C922 1.386 . S
C923 C927 1.393 . S
C924 H913 0.950 . S
C924 C922 1.391 . S
C924 C925 1.400 . S
C925 C919 1.491 1_556 S
C925 C924 1.400 . S
C925 C926 1.398 . S
C926 H914 0.950 . S
C926 C925 1.398 . S
C926 C927 1.391 . S
C927 H915 0.950 . S
C927 C923 1.393 . S
C927 C926 1.391 . S
H928 C936 0.950 . S
H929 C941 0.950 . S
H930 C938 0.950 . S
H931 C940 0.950 . S
H932 C942 0.950 . S
H933 C944 0.950 . S
H934 C946 0.950 . S
H935 C947 0.950 . S
C936 H928 0.950 . S
C936 C937 1.386 . S
C936 C938 1.391 . S
C937 C936 1.386 . S
C937 C941 1.393 . S
C938 H930 0.950 . S
C938 C936 1.391 . S
C938 C939 1.400 . S
C939 C938 1.400 . S
C939 C940 1.398 1_455 S
C939 C945 1.491 1_455 S
C940 H931 0.950 . S
C940 C939 1.398 1_655 S
C940 C941 1.391 1_655 S
C941 H929 0.950 . S
C941 C937 1.393 . S
C941 C940 1.391 1_455 S
C942 H932 0.950 . S
C942 C943 1.386 . S
C942 C944 1.391 . S
C943 C942 1.386 . S
C943 C947 1.393 . S
C944 H933 0.950 . S
C944 C942 1.391 . S
C944 C945 1.400 . S
C945 C939 1.491 1_655 S
C945 C944 1.400 . S
C945 C946 1.398 1_655 S
C946 H934 0.950 . S
C946 C945 1.398 1_455 S
C946 C947 1.391 1_455 S
C947 H935 0.950 . S
C947 C943 1.393 . S
C947 C946 1.391 1_655 S
H948 C956 0.950 . S
H949 C961 0.950 . S
H950 C958 0.950 . S
H951 C960 0.950 . S
H952 C962 0.950 . S
H953 C964 0.950 . S
H954 C966 0.950 . S
H955 C967 0.950 . S
C956 H948 0.950 . S
C956 C957 1.386 . S
C956 C958 1.391 . S
C957 C956 1.386 . S
C957 C961 1.393 . S
C958 H950 0.950 . S
C958 C956 1.391 . S
C958 C959 1.400 . S
C959 C958 1.400 . S
C959 C960 1.398 1_455 S
C959 C965 1.491 1_455 S
C960 H951 0.950 . S
C960 C959 1.398 1_655 S
C960 C961 1.391 1_655 S
C961 H949 0.950 . S
C961 C957 1.393 . S
C961 C960 1.391 1_455 S
C962 H952 0.950 . S
C962 C963 1.386 . S
C962 C964 1.391 . S
C963 C962 1.386 . S
C963 C967 1.393 . S
C964 H953 0.950 . S
C964 C962 1.391 . S
C964 C965 1.400 . S
C965 C959 1.491 1_655 S
C965 C964 1.400 . S
C965 C966 1.398 1_655 S
C966 H954 0.950 . S
C966 C965 1.398 1_455 S
C966 C967 1.391 1_455 S
C967 H955 0.950 . S
C967 C963 1.393 . S
C967 C966 1.391 1_655 S
H968 C976 0.950 . S
H969 C981 0.950 . S
H970 C978 0.950 . S
H971 C980 0.965 . S
H972 C982 0.950 . S
H973 C984 0.950 . S
H974 C986 0.965 . S
H975 C987 0.950 . S
C976 H968 0.950 . S
C976 C977 1.386 . S
C976 C978 1.391 . S
C977 C976 1.386 . S
C977 C981 1.393 . S
C978 H970 0.950 . S
C978 C976 1.391 . S
C978 C979 1.400 . S
C979 C978 1.400 . S
C979 C980 1.398 . S
C979 C985 1.491 1_545 S
C980 H971 0.965 . S
C980 C979 1.398 . S
C980 C981 1.391 . S
C981 H969 0.950 . S
C981 C977 1.393 . S
C981 C980 1.391 . S
C982 H972 0.950 . S
C982 C983 1.386 . S
C982 C984 1.391 . S
C983 C982 1.386 . S
C983 C987 1.393 . S
C984 H973 0.950 . S
C984 C982 1.391 . S
C984 C985 1.400 . S
C985 C979 1.491 1_565 S
C985 C984 1.400 . S
C985 C986 1.398 . S
C986 H974 0.965 . S
C986 C985 1.398 . S
C986 C987 1.391 . S
C987 H975 0.950 . S
C987 C983 1.393 . S
C987 C986 1.391 . S
H988 C996 0.950 . S
H989 C1001 0.950 . S
H990 C998 0.950 . S
H991 C1000 0.950 1_545 S
H992 C1002 0.950 . S
H993 C1004 0.950 . S
H994 C1006 0.950 1_565 S
H995 C1007 0.950 . S
C996 H988 0.950 . S
C996 C997 1.386 . S
C996 C998 1.391 . S
C997 C996 1.386 . S
C997 C1001 1.393 . S
C998 H990 0.950 . S
C998 C996 1.391 . S
C998 C999 1.400 . S
C999 C998 1.400 . S
C999 C1000 1.398 . S
C999 C1005 1.491 1_565 S
C1000 H991 0.950 1_565 S
C1000 C999 1.398 . S
C1000 C1001 1.391 . S
C1001 H989 0.950 . S
C1001 C997 1.393 . S
C1001 C1000 1.391 . S
C1002 H992 0.950 . S
C1002 C1003 1.386 . S
C1002 C1004 1.391 . S
C1003 C1002 1.386 . S
C1003 C1007 1.393 . S
C1004 H993 0.950 . S
C1004 C1002 1.391 . S
C1004 C1005 1.400 . S
C1005 C999 1.491 1_545 S
C1005 C1004 1.400 . S
C1005 C1006 1.398 . S
C1006 H994 0.950 1_545 S
C1006 C1005 1.398 . S
C1006 C1007 1.391 . S
C1007 H995 0.950 . S
C1007 C1003 1.393 . S
C1007 C1006 1.391 . S
H1008 C1016 0.950 . S
H1009 C1021 0.950 . S
H1010 C1018 0.950 . S
H1011 C1020 0.950 . S
H1012 C1022 0.950 . S
H1013 C1024 0.950 . S
H1014 C1026 0.950 . S
H1015 C1027 0.950 . S
C1016 H1008 0.950 . S
C1016 C1017 1.386 . S
C1016 C1018 1.391 . S
C1017 C1016 1.386 . S
C1017 C1021 1.393 . S
C1018 H1010 0.950 . S
C1018 C1016 1.391 . S
C1018 C1019 1.400 . S
C1019 C1018 1.400 . S
C1019 C1020 1.398 . S
C1019 C1025 1.491 . S
C1020 H1011 0.950 . S
C1020 C1019 1.398 . S
C1020 C1021 1.391 . S
C1021 H1009 0.950 . S
C1021 C1017 1.393 . S
C1021 C1020 1.391 . S
C1022 H1012 0.950 . S
C1022 C1023 1.386 . S
C1022 C1024 1.391 . S
C1023 C1022 1.386 . S
C1023 C1027 1.393 . S
C1024 H1013 0.950 . S
C1024 C1022 1.391 . S
C1024 C1025 1.400 . S
C1025 C1019 1.491 . S
C1025 C1024 1.400 . S
C1025 C1026 1.398 . S
C1026 H1014 0.950 . S
C1026 C1025 1.398 . S
C1026 C1027 1.391 . S
C1027 H1015 0.950 . S
C1027 C1023 1.393 . S
C1027 C1026 1.391 . S
H1028 C1036 0.950 . S
H1029 C1041 0.950 . S
H1030 C1038 0.950 . S
H1031 C1040 0.950 . S
H1032 C1042 0.950 . S
H1033 C1044 0.950 . S
H1034 C1046 0.950 . S
H1035 C1047 0.950 . S
C1036 H1028 0.950 . S
C1036 C1037 1.386 . S
C1036 C1038 1.391 . S
C1037 C1036 1.386 . S
C1037 C1041 1.393 . S
C1038 H1030 0.950 . S
C1038 C1036 1.391 . S
C1038 C1039 1.400 . S
C1039 C1038 1.400 . S
C1039 C1040 1.398 . S
C1039 C1045 1.491 . S
C1040 H1031 0.950 . S
C1040 C1039 1.398 . S
C1040 C1041 1.391 . S
C1041 H1029 0.950 . S
C1041 C1037 1.393 . S
C1041 C1040 1.391 . S
C1042 H1032 0.950 . S
C1042 C1043 1.386 . S
C1042 C1044 1.391 . S
C1043 C1042 1.386 . S
C1043 C1047 1.393 . S
C1044 H1033 0.950 . S
C1044 C1042 1.391 . S
C1044 C1045 1.400 . S
C1045 C1039 1.491 . S
C1045 C1044 1.400 . S
C1045 C1046 1.398 . S
C1046 H1034 0.950 . S
C1046 C1045 1.398 . S
C1046 C1047 1.391 . S
C1047 H1035 0.950 . S
C1047 C1043 1.393 . S
C1047 C1046 1.391 . S
H1048 C1056 0.950 . S
H1049 C1061 0.950 . S
H1050 C1058 0.950 . S
H1051 C1060 0.950 . S
H1052 C1062 0.950 . S
H1053 C1064 0.950 . S
H1054 C1066 0.950 . S
H1055 C1067 0.950 . S
C1056 H1048 0.950 . S
C1056 C1057 1.386 . S
C1056 C1058 1.391 . S
C1057 C1056 1.386 . S
C1057 C1061 1.393 . S
C1058 H1050 0.950 . S
C1058 C1056 1.391 . S
C1058 C1059 1.400 . S
C1059 C1058 1.400 . S
C1059 C1060 1.398 . S
C1059 C1065 1.491 . S
C1060 H1051 0.950 . S
C1060 C1059 1.398 . S
C1060 C1061 1.391 . S
C1061 H1049 0.950 . S
C1061 C1057 1.393 . S
C1061 C1060 1.391 . S
C1062 H1052 0.950 . S
C1062 C1063 1.386 . S
C1062 C1064 1.391 . S
C1063 C1062 1.386 . S
C1063 C1067 1.393 . S
C1064 H1053 0.950 . S
C1064 C1062 1.391 . S
C1064 C1065 1.400 . S
C1065 C1059 1.491 . S
C1065 C1064 1.400 . S
C1065 C1066 1.398 . S
C1066 H1054 0.950 . S
C1066 C1065 1.398 . S
C1066 C1067 1.391 . S
C1067 H1055 0.950 . S
C1067 C1063 1.393 . S
C1067 C1066 1.391 . S
H1068 C1076 0.950 . S
H1069 C1081 0.950 . S
H1070 C1078 0.950 . S
H1071 C1080 0.950 . S
H1072 C1082 0.950 . S
H1073 C1084 0.950 . S
H1074 C1086 0.950 . S
H1075 C1087 0.950 . S
C1076 H1068 0.950 . S
C1076 C1077 1.386 . S
C1076 C1078 1.391 . S
C1077 C1076 1.386 . S
C1077 C1081 1.393 . S
C1078 H1070 0.950 . S
C1078 C1076 1.391 . S
C1078 C1079 1.400 . S
C1079 C1078 1.400 . S
C1079 C1080 1.398 . S
C1079 C1085 1.491 . S
C1080 H1071 0.950 . S
C1080 C1079 1.398 . S
C1080 C1081 1.391 . S
C1081 H1069 0.950 . S
C1081 C1077 1.393 . S
C1081 C1080 1.391 . S
C1082 H1072 0.950 . S
C1082 C1083 1.386 . S
C1082 C1084 1.391 . S
C1083 C1082 1.386 . S
C1083 C1087 1.393 . S
C1084 H1073 0.950 . S
C1084 C1082 1.391 . S
C1084 C1085 1.400 . S
C1085 C1079 1.491 . S
C1085 C1084 1.400 . S
C1085 C1086 1.398 . S
C1086 H1074 0.950 . S
C1086 C1085 1.398 . S
C1086 C1087 1.391 . S
C1087 H1075 0.950 . S
C1087 C1083 1.393 . S
C1087 C1086 1.391 . S
H1088 C1096 0.950 . S
H1089 C1101 0.950 . S
H1090 C1098 0.950 . S
H1091 C1100 0.950 . S
H1092 C1102 0.950 . S
H1093 C1104 0.950 . S
H1094 C1106 0.950 . S
H1095 C1107 0.950 . S
C1096 H1088 0.950 . S
C1096 C1097 1.386 . S
C1096 C1098 1.391 . S
C1097 C1096 1.386 . S
C1097 C1101 1.393 . S
C1098 H1090 0.950 . S
C1098 C1096 1.391 . S
C1098 C1099 1.400 . S
C1099 C1098 1.400 . S
C1099 C1100 1.398 . S
C1099 C1105 1.491 . S
C1100 H1091 0.950 . S
C1100 C1099 1.398 . S
C1100 C1101 1.391 . S
C1101 H1089 0.950 . S
C1101 C1097 1.393 . S
C1101 C1100 1.391 . S
C1102 H1092 0.950 . S
C1102 C1103 1.386 . S
C1102 C1104 1.391 . S
C1103 C1102 1.386 . S
C1103 C1107 1.393 . S
C1104 H1093 0.950 . S
C1104 C1102 1.391 . S
C1104 C1105 1.400 . S
C1105 C1099 1.491 . S
C1105 C1104 1.400 . S
C1105 C1106 1.398 . S
C1106 H1094 0.950 . S
C1106 C1105 1.398 . S
C1106 C1107 1.391 . S
C1107 H1095 0.950 . S
C1107 C1103 1.393 . S
C1107 C1106 1.391 . S
H1108 C1116 0.950 . S
H1109 C1121 0.950 . S
H1110 C1118 0.950 . S
H1111 C1120 0.950 . S
H1112 C1122 0.950 . S
H1113 C1124 0.950 . S
H1114 C1126 0.950 . S
H1115 C1127 0.950 . S
C1116 H1108 0.950 . S
C1116 C1117 1.386 . S
C1116 C1118 1.391 . S
C1117 C1116 1.386 . S
C1117 C1121 1.393 . S
C1118 H1110 0.950 . S
C1118 C1116 1.391 . S
C1118 C1119 1.400 . S
C1119 C1118 1.400 . S
C1119 C1120 1.398 . S
C1119 C1125 1.491 . S
C1120 H1111 0.950 . S
C1120 C1119 1.398 . S
C1120 C1121 1.391 . S
C1121 H1109 0.950 . S
C1121 C1117 1.393 . S
C1121 C1120 1.391 . S
C1122 H1112 0.950 . S
C1122 C1123 1.386 . S
C1122 C1124 1.391 . S
C1123 C1122 1.386 . S
C1123 C1127 1.393 . S
C1124 H1113 0.950 . S
C1124 C1122 1.391 . S
C1124 C1125 1.400 . S
C1125 C1119 1.491 . S
C1125 C1124 1.400 . S
C1125 C1126 1.398 . S
C1126 H1114 0.950 . S
C1126 C1125 1.398 . S
C1126 C1127 1.391 . S
C1127 H1115 0.950 . S
C1127 C1123 1.393 . S
C1127 C1126 1.391 . S
H1128 C1136 0.950 . S
H1129 C1141 0.950 . S
H1130 C1138 0.950 . S
H1131 C1140 0.950 . S
H1132 C1142 0.950 . S
H1133 C1144 0.950 . S
H1134 C1146 0.950 . S
H1135 C1147 0.950 . S
C1136 H1128 0.950 . S
C1136 C1137 1.386 . S
C1136 C1138 1.391 . S
C1137 C1136 1.386 . S
C1137 C1141 1.393 . S
C1138 H1130 0.950 . S
C1138 C1136 1.391 . S
C1138 C1139 1.400 . S
C1139 C1138 1.400 . S
C1139 C1140 1.398 . S
C1139 C1145 1.491 . S
C1140 H1131 0.950 . S
C1140 C1139 1.398 . S
C1140 C1141 1.391 . S
C1141 H1129 0.950 . S
C1141 C1137 1.393 . S
C1141 C1140 1.391 . S
C1142 H1132 0.950 . S
C1142 C1143 1.386 . S
C1142 C1144 1.391 . S
C1143 C1142 1.386 . S
C1143 C1147 1.393 . S
C1144 H1133 0.950 . S
C1144 C1142 1.391 . S
C1144 C1145 1.400 . S
C1145 C1139 1.491 . S
C1145 C1144 1.400 . S
C1145 C1146 1.398 . S
C1146 H1134 0.950 . S
C1146 C1145 1.398 . S
C1146 C1147 1.391 . S
C1147 H1135 0.950 . S
C1147 C1143 1.393 . S
C1147 C1146 1.391 . S
H1148 C1156 0.950 . S
H1149 C1161 0.950 . S
H1150 C1158 0.950 . S
H1151 C1160 0.950 . S
H1152 C1162 0.950 . S
H1153 C1164 0.950 . S
H1154 C1166 0.950 . S
H1155 C1167 0.950 . S
C1156 H1148 0.950 . S
C1156 C1157 1.386 . S
C1156 C1158 1.391 . S
C1157 C1156 1.386 . S
C1157 C1161 1.393 . S
C1158 H1150 0.950 . S
C1158 C1156 1.391 . S
C1158 C1159 1.400 . S
C1159 C1158 1.400 . S
C1159 C1160 1.398 . S
C1159 C1165 1.491 . S
C1160 H1151 0.950 . S
C1160 C1159 1.398 . S
C1160 C1161 1.391 . S
C1161 H1149 0.950 . S
C1161 C1157 1.393 . S
C1161 C1160 1.391 . S
C1162 H1152 0.950 . S
C1162 C1163 1.386 . S
C1162 C1164 1.391 . S
C1163 C1162 1.386 . S
C1163 C1167 1.393 . S
C1164 H1153 0.950 . S
C1164 C1162 1.391 . S
C1164 C1165 1.400 . S
C1165 C1159 1.491 . S
C1165 C1164 1.400 . S
C1165 C1166 1.398 . S
C1166 H1154 0.950 . S
C1166 C1165 1.398 . S
C1166 C1167 1.391 . S
C1167 H1155 0.950 . S
C1167 C1163 1.393 . S
C1167 C1166 1.391 . S
H1168 C1176 0.950 . S
H1169 C1181 0.950 . S
H1170 C1178 0.950 . S
H1171 C1180 0.950 . S
H1172 C1182 0.950 . S
H1173 C1184 0.950 . S
H1174 C1186 0.950 . S
H1175 C1187 0.950 . S
C1176 H1168 0.950 . S
C1176 C1177 1.386 . S
C1176 C1178 1.391 . S
C1177 C1176 1.386 . S
C1177 C1181 1.393 . S
C1178 H1170 0.950 . S
C1178 C1176 1.391 . S
C1178 C1179 1.400 . S
C1179 C1178 1.400 . S
C1179 C1180 1.398 . S
C1179 C1185 1.491 . S
C1180 H1171 0.950 . S
C1180 C1179 1.398 . S
C1180 C1181 1.391 . S
C1181 H1169 0.950 . S
C1181 C1177 1.393 . S
C1181 C1180 1.391 . S
C1182 H1172 0.950 . S
C1182 C1183 1.386 . S
C1182 C1184 1.391 . S
C1183 C1182 1.386 . S
C1183 C1187 1.393 . S
C1184 H1173 0.950 . S
C1184 C1182 1.391 . S
C1184 C1185 1.400 . S
C1185 C1179 1.491 . S
C1185 C1184 1.400 . S
C1185 C1186 1.398 . S
C1186 H1174 0.950 . S
C1186 C1185 1.398 . S
C1186 C1187 1.391 . S
C1187 H1175 0.950 . S
C1187 C1183 1.393 . S
C1187 C1186 1.391 . S
H1188 C1196 0.950 . S
H1189 C1201 0.950 . S
H1190 C1198 0.950 . S
H1191 C1200 0.950 . S
H1192 C1202 0.950 . S
H1193 C1204 0.950 . S
H1194 C1206 0.950 . S
H1195 C1207 0.950 . S
C1196 H1188 0.950 . S
C1196 C1197 1.386 . S
C1196 C1198 1.391 . S
C1197 C1196 1.386 . S
C1197 C1201 1.393 . S
C1198 H1190 0.950 . S
C1198 C1196 1.391 . S
C1198 C1199 1.400 . S
C1199 C1198 1.400 . S
C1199 C1200 1.398 . S
C1199 C1205 1.491 . S
C1200 H1191 0.950 . S
C1200 C1199 1.398 . S
C1200 C1201 1.391 . S
C1201 H1189 0.950 . S
C1201 C1197 1.393 . S
C1201 C1200 1.391 . S
C1202 H1192 0.950 . S
C1202 C1203 1.386 . S
C1202 C1204 1.391 . S
C1203 C1202 1.386 . S
C1203 C1207 1.393 . S
C1204 H1193 0.950 . S
C1204 C1202 1.391 . S
C1204 C1205 1.400 . S
C1205 C1199 1.491 . S
C1205 C1204 1.400 . S
C1205 C1206 1.398 . S
C1206 H1194 0.950 . S
C1206 C1205 1.398 . S
C1206 C1207 1.391 . S
C1207 H1195 0.950 . S
C1207 C1203 1.393 . S
C1207 C1206 1.391 . S
H1208 C1216 0.950 . S
H1209 C1221 0.950 . S
H1210 C1218 0.950 . S
H1211 C1220 0.950 . S
H1212 C1222 0.950 . S
H1213 C1224 0.950 . S
H1214 C1226 0.950 . S
H1215 C1227 0.950 . S
C1216 H1208 0.950 . S
C1216 C1217 1.386 . S
C1216 C1218 1.391 . S
C1217 C1216 1.386 . S
C1217 C1221 1.393 . S
C1218 H1210 0.950 . S
C1218 C1216 1.391 . S
C1218 C1219 1.400 . S
C1219 C1218 1.400 . S
C1219 C1220 1.398 . S
C1219 C1225 1.491 . S
C1220 H1211 0.950 . S
C1220 C1219 1.398 . S
C1220 C1221 1.391 . S
C1221 H1209 0.950 . S
C1221 C1217 1.393 . S
C1221 C1220 1.391 . S
C1222 H1212 0.950 . S
C1222 C1223 1.386 . S
C1222 C1224 1.391 . S
C1223 C1222 1.386 . S
C1223 C1227 1.393 . S
C1224 H1213 0.950 . S
C1224 C1222 1.391 . S
C1224 C1225 1.400 . S
C1225 C1219 1.491 . S
C1225 C1224 1.400 . S
C1225 C1226 1.398 . S
C1226 H1214 0.950 . S
C1226 C1225 1.398 . S
C1226 C1227 1.391 . S
C1227 H1215 0.950 . S
C1227 C1223 1.393 . S
C1227 C1226 1.391 . S
H1228 C1236 0.950 . S
H1229 C1241 0.950 . S
H1230 C1238 0.950 . S
H1231 C1240 0.950 . S
H1232 C1242 0.950 . S
H1233 C1244 0.950 . S
H1234 C1246 0.950 . S
H1235 C1247 0.950 . S
C1236 H1228 0.950 . S
C1236 C1237 1.386 . S
C1236 C1238 1.391 . S
C1237 C1236 1.386 . S
C1237 C1241 1.393 . S
C1238 H1230 0.950 . S
C1238 C1236 1.391 . S
C1238 C1239 1.400 . S
C1239 C1238 1.400 . S
C1239 C1240 1.398 . S
C1239 C1245 1.491 . S
C1240 H1231 0.950 . S
C1240 C1239 1.398 . S
C1240 C1241 1.391 . S
C1241 H1229 0.950 . S
C1241 C1237 1.393 . S
C1241 C1240 1.391 . S
C1242 H1232 0.950 . S
C1242 C1243 1.386 . S
C1242 C1244 1.391 . S
C1243 C1242 1.386 . S
C1243 C1247 1.393 . S
C1244 H1233 0.950 . S
C1244 C1242 1.391 . S
C1244 C1245 1.400 . S
C1245 C1239 1.491 . S
C1245 C1244 1.400 . S
C1245 C1246 1.398 . S
C1246 H1234 0.950 . S
C1246 C1245 1.398 . S
C1246 C1247 1.391 . S
C1247 H1235 0.950 . S
C1247 C1243 1.393 . S
C1247 C1246 1.391 . S
H1248 C1256 0.950 . S
H1249 C1261 0.950 . S
H1250 C1258 0.950 . S
H1251 C1260 0.950 . S
H1252 C1262 0.950 . S
H1253 C1264 0.950 . S
H1254 C1266 0.950 . S
H1255 C1267 0.950 . S
C1256 H1248 0.950 . S
C1256 C1257 1.386 . S
C1256 C1258 1.391 . S
C1257 C1256 1.386 . S
C1257 C1261 1.393 . S
C1258 H1250 0.950 . S
C1258 C1256 1.391 . S
C1258 C1259 1.400 . S
C1259 C1258 1.400 . S
C1259 C1260 1.398 . S
C1259 C1265 1.491 . S
C1260 H1251 0.950 . S
C1260 C1259 1.398 . S
C1260 C1261 1.391 . S
C1261 H1249 0.950 . S
C1261 C1257 1.393 . S
C1261 C1260 1.391 . S
C1262 H1252 0.950 . S
C1262 C1263 1.386 . S
C1262 C1264 1.391 . S
C1263 C1262 1.386 . S
C1263 C1267 1.393 . S
C1264 H1253 0.950 . S
C1264 C1262 1.391 . S
C1264 C1265 1.400 . S
C1265 C1259 1.491 . S
C1265 C1264 1.400 . S
C1265 C1266 1.398 . S
C1266 H1254 0.950 . S
C1266 C1265 1.398 . S
C1266 C1267 1.391 . S
C1267 H1255 0.950 . S
C1267 C1263 1.393 . S
C1267 C1266 1.391 . S
H1268 C1276 0.950 . S
H1269 C1281 0.950 . S
H1270 C1278 0.950 . S
H1271 C1280 0.950 . S
H1272 C1282 0.950 . S
H1273 C1284 0.950 . S
H1274 C1286 0.950 . S
H1275 C1287 0.950 . S
C1276 H1268 0.950 . S
C1276 C1277 1.386 . S
C1276 C1278 1.391 . S
C1277 C1276 1.386 . S
C1277 C1281 1.393 . S
C1278 H1270 0.950 . S
C1278 C1276 1.391 . S
C1278 C1279 1.400 . S
C1279 C1278 1.400 . S
C1279 C1280 1.398 . S
C1279 C1285 1.491 . S
C1280 H1271 0.950 . S
C1280 C1279 1.398 . S
C1280 C1281 1.391 . S
C1281 H1269 0.950 . S
C1281 C1277 1.393 . S
C1281 C1280 1.391 . S
C1282 H1272 0.950 . S
C1282 C1283 1.386 . S
C1282 C1284 1.391 . S
C1283 C1282 1.386 . S
C1283 C1287 1.393 . S
C1284 H1273 0.950 . S
C1284 C1282 1.391 . S
C1284 C1285 1.400 . S
C1285 C1279 1.491 . S
C1285 C1284 1.400 . S
C1285 C1286 1.398 . S
C1286 H1274 0.950 . S
C1286 C1285 1.398 . S
C1286 C1287 1.391 . S
C1287 H1275 0.950 . S
C1287 C1283 1.393 . S
C1287 C1286 1.391 . S
H1288 C1296 0.950 . S
H1289 C1301 0.950 . S
H1290 C1298 0.950 . S
H1291 C1300 0.950 . S
H1292 C1302 0.950 . S
H1293 C1304 0.950 . S
H1294 C1306 0.950 . S
H1295 C1307 0.950 . S
C1296 H1288 0.950 . S
C1296 C1297 1.386 . S
C1296 C1298 1.391 . S
C1297 C1296 1.386 . S
C1297 C1301 1.393 . S
C1298 H1290 0.950 . S
C1298 C1296 1.391 . S
C1298 C1299 1.400 . S
C1299 C1298 1.400 . S
C1299 C1300 1.398 . S
C1299 C1305 1.491 . S
C1300 H1291 0.950 . S
C1300 C1299 1.398 . S
C1300 C1301 1.391 . S
C1301 H1289 0.950 . S
C1301 C1297 1.393 . S
C1301 C1300 1.391 . S
C1302 H1292 0.950 . S
C1302 C1303 1.386 . S
C1302 C1304 1.391 . S
C1303 C1302 1.386 . S
C1303 C1307 1.393 . S
C1304 H1293 0.950 . S
C1304 C1302 1.391 . S
C1304 C1305 1.400 . S
C1305 C1299 1.491 . S
C1305 C1304 1.400 . S
C1305 C1306 1.398 . S
C1306 H1294 0.950 . S
C1306 C1305 1.398 . S
C1306 C1307 1.391 . S
C1307 H1295 0.950 . S
C1307 C1303 1.393 . S
C1307 C1306 1.391 . S
H1308 C1316 0.950 . S
H1309 C1321 0.950 . S
H1310 C1318 0.950 . S
H1311 C1320 0.950 . S
H1312 C1322 0.950 . S
H1313 C1324 0.950 . S
H1314 C1326 0.950 . S
H1315 C1327 0.950 . S
C1316 H1308 0.950 . S
C1316 C1317 1.386 . S
C1316 C1318 1.391 . S
C1317 C1316 1.386 . S
C1317 C1321 1.393 . S
C1318 H1310 0.950 . S
C1318 C1316 1.391 . S
C1318 C1319 1.400 . S
C1319 C1318 1.400 . S
C1319 C1320 1.398 . S
C1319 C1325 1.491 . S
C1320 H1311 0.950 . S
C1320 C1319 1.398 . S
C1320 C1321 1.391 . S
C1321 H1309 0.950 . S
C1321 C1317 1.393 . S
C1321 C1320 1.391 . S
C1322 H1312 0.950 . S
C1322 C1323 1.386 . S
C1322 C1324 1.391 . S
C1323 C1322 1.386 . S
C1323 C1327 1.393 . S
C1324 H1313 0.950 . S
C1324 C1322 1.391 . S
C1324 C1325 1.400 . S
C1325 C1319 1.491 . S
C1325 C1324 1.400 . S
C1325 C1326 1.398 . S
C1326 H1314 0.950 . S
C1326 C1325 1.398 . S
C1326 C1327 1.391 . S
C1327 H1315 0.950 . S
C1327 C1323 1.393 . S
C1327 C1326 1.391 . S
H1328 C1336 0.950 . S
H1329 C1341 0.950 . S
H1330 C1338 0.950 . S
H1331 C1340 0.950 . S
H1332 C1342 0.950 . S
H1333 C1344 0.950 . S
H1334 C1346 0.950 . S
H1335 C1347 0.950 . S
C1336 H1328 0.950 . S
C1336 C1337 1.386 . S
C1336 C1338 1.391 . S
C1337 C1336 1.386 . S
C1337 C1341 1.393 . S
C1338 H1330 0.950 . S
C1338 C1336 1.391 . S
C1338 C1339 1.400 . S
C1339 C1338 1.400 . S
C1339 C1340 1.398 . S
C1339 C1345 1.491 . S
C1340 H1331 0.950 . S
C1340 C1339 1.398 . S
C1340 C1341 1.391 . S
C1341 H1329 0.950 . S
C1341 C1337 1.393 . S
C1341 C1340 1.391 . S
C1342 H1332 0.950 . S
C1342 C1343 1.386 . S
C1342 C1344 1.391 . S
C1343 C1342 1.386 . S
C1343 C1347 1.393 . S
C1344 H1333 0.950 . S
C1344 C1342 1.391 . S
C1344 C1345 1.400 . S
C1345 C1339 1.491 . S
C1345 C1344 1.400 . S
C1345 C1346 1.398 . S
C1346 H1334 0.950 . S
C1346 C1345 1.398 . S
C1346 C1347 1.391 . S
C1347 H1335 0.950 . S
C1347 C1343 1.393 . S
C1347 C1346 1.391 . S
H1348 C1356 0.950 . S
H1349 C1361 0.950 . S
H1350 C1358 0.950 . S
H1351 C1360 0.950 . S
H1352 C1362 0.950 . S
H1353 C1364 0.950 . S
H1354 C1366 0.950 . S
H1355 C1367 0.950 . S
C1356 H1348 0.950 . S
C1356 C1357 1.386 . S
C1356 C1358 1.391 . S
C1357 C1356 1.386 . S
C1357 C1361 1.393 . S
C1358 H1350 0.950 . S
C1358 C1356 1.391 . S
C1358 C1359 1.400 . S
C1359 C1358 1.400 . S
C1359 C1360 1.398 . S
C1359 C1365 1.491 . S
C1360 H1351 0.950 . S
C1360 C1359 1.398 . S
C1360 C1361 1.391 . S
C1361 H1349 0.950 . S
C1361 C1357 1.393 . S
C1361 C1360 1.391 . S
C1362 H1352 0.950 . S
C1362 C1363 1.386 . S
C1362 C1364 1.391 . S
C1363 C1362 1.386 . S
C1363 C1367 1.393 . S
C1364 H1353 0.950 . S
C1364 C1362 1.391 . S
C1364 C1365 1.400 . S
C1365 C1359 1.491 . S
C1365 C1364 1.400 . S
C1365 C1366 1.398 . S
C1366 H1354 0.950 . S
C1366 C1365 1.398 . S
C1366 C1367 1.391 . S
C1367 H1355 0.950 . S
C1367 C1363 1.393 . S
C1367 C1366 1.391 . S
H1368 C1376 0.950 . S
H1369 C1381 0.950 . S
H1370 C1378 0.950 . S
H1371 C1380 0.950 . S
H1372 C1382 0.950 . S
H1373 C1384 0.950 . S
H1374 C1386 0.950 . S
H1375 C1387 0.950 . S
C1376 H1368 0.950 . S
C1376 C1377 1.386 . S
C1376 C1378 1.391 . S
C1377 C1376 1.386 . S
C1377 C1381 1.393 . S
C1378 H1370 0.950 . S
C1378 C1376 1.391 . S
C1378 C1379 1.400 . S
C1379 C1378 1.400 . S
C1379 C1380 1.398 . S
C1379 C1385 1.491 . S
C1380 H1371 0.950 . S
C1380 C1379 1.398 . S
C1380 C1381 1.391 . S
C1381 H1369 0.950 . S
C1381 C1377 1.393 . S
C1381 C1380 1.391 . S
C1382 H1372 0.950 . S
C1382 C1383 1.386 . S
C1382 C1384 1.391 . S
C1383 C1382 1.386 . S
C1383 C1387 1.393 . S
C1384 H1373 0.950 . S
C1384 C1382 1.391 . S
C1384 C1385 1.400 . S
C1385 C1379 1.491 . S
C1385 C1384 1.400 . S
C1385 C1386 1.398 . S
C1386 H1374 0.950 . S
C1386 C1385 1.398 . S
C1386 C1387 1.391 . S
C1387 H1375 0.950 . S
C1387 C1383 1.393 . S
C1387 C1386 1.391 . S
H1388 C1396 0.950 . S
H1389 C1401 0.950 . S
H1390 C1398 0.950 . S
H1391 C1400 0.950 . S
H1392 C1402 0.950 . S
H1393 C1404 0.950 . S
H1394 C1406 0.950 . S
H1395 C1407 0.950 . S
C1396 H1388 0.950 . S
C1396 C1397 1.386 . S
C1396 C1398 1.391 . S
C1397 C1396 1.386 . S
C1397 C1401 1.393 . S
C1398 H1390 0.950 . S
C1398 C1396 1.391 . S
C1398 C1399 1.400 . S
C1399 C1398 1.400 . S
C1399 C1400 1.398 . S
C1399 C1405 1.491 . S
C1400 H1391 0.950 . S
C1400 C1399 1.398 . S
C1400 C1401 1.391 . S
C1401 H1389 0.950 . S
C1401 C1397 1.393 . S
C1401 C1400 1.391 . S
C1402 H1392 0.950 . S
C1402 C1403 1.386 . S
C1402 C1404 1.391 . S
C1403 C1402 1.386 . S
C1403 C1407 1.393 . S
C1404 H1393 0.950 . S
C1404 C1402 1.391 . S
C1404 C1405 1.400 . S
C1405 C1399 1.491 . S
C1405 C1404 1.400 . S
C1405 C1406 1.398 . S
C1406 H1394 0.950 . S
C1406 C1405 1.398 . S
C1406 C1407 1.391 . S
C1407 H1395 0.950 . S
C1407 C1403 1.393 . S
C1407 C1406 1.391 . S
H1408 C1416 0.950 . S
H1409 C1421 0.950 . S
H1410 C1418 0.950 . S
H1411 C1420 0.950 . S
H1412 C1422 0.950 . S
H1413 C1424 0.950 . S
H1414 C1426 0.950 . S
H1415 C1427 0.950 . S
C1416 H1408 0.950 . S
C1416 C1417 1.386 . S
C1416 C1418 1.391 . S
C1417 C1416 1.386 . S
C1417 C1421 1.393 . S
C1418 H1410 0.950 . S
C1418 C1416 1.391 . S
C1418 C1419 1.400 . S
C1419 C1418 1.400 . S
C1419 C1420 1.398 . S
C1419 C1425 1.491 . S
C1420 H1411 0.950 . S
C1420 C1419 1.398 . S
C1420 C1421 1.391 . S
C1421 H1409 0.950 . S
C1421 C1417 1.393 . S
C1421 C1420 1.391 . S
C1422 H1412 0.950 . S
C1422 C1423 1.386 . S
C1422 C1424 1.391 . S
C1423 C1422 1.386 . S
C1423 C1427 1.393 . S
C1424 H1413 0.950 . S
C1424 C1422 1.391 . S
C1424 C1425 1.400 . S
C1425 C1419 1.491 . S
C1425 C1424 1.400 . S
C1425 C1426 1.398 . S
C1426 H1414 0.950 . S
C1426 C1425 1.398 . S
C1426 C1427 1.391 . S
C1427 H1415 0.950 . S
C1427 C1423 1.393 . S
C1427 C1426 1.391 . S
H1428 C1436 0.950 . S
H1429 C1441 0.950 . S
H1430 C1438 0.950 . S
H1431 C1440 0.950 . S
H1432 C1442 0.950 . S
H1433 C1444 0.950 . S
H1434 C1446 0.950 . S
H1435 C1447 0.950 . S
C1436 H1428 0.950 . S
C1436 C1437 1.386 . S
C1436 C1438 1.391 . S
C1437 C1436 1.386 . S
C1437 C1441 1.393 . S
C1438 H1430 0.950 . S
C1438 C1436 1.391 . S
C1438 C1439 1.400 . S
C1439 C1438 1.400 . S
C1439 C1440 1.398 . S
C1439 C1445 1.491 . S
C1440 H1431 0.950 . S
C1440 C1439 1.398 . S
C1440 C1441 1.391 . S
C1441 H1429 0.950 . S
C1441 C1437 1.393 . S
C1441 C1440 1.391 . S
C1442 H1432 0.950 . S
C1442 C1443 1.386 . S
C1442 C1444 1.391 . S
C1443 C1442 1.386 . S
C1443 C1447 1.393 . S
C1444 H1433 0.950 . S
C1444 C1442 1.391 . S
C1444 C1445 1.400 . S
C1445 C1439 1.491 . S
C1445 C1444 1.400 . S
C1445 C1446 1.398 . S
C1446 H1434 0.950 . S
C1446 C1445 1.398 . S
C1446 C1447 1.391 . S
C1447 H1435 0.950 . S
C1447 C1443 1.393 . S
C1447 C1446 1.391 . S
H1448 C1456 0.950 . S
H1449 C1461 0.950 . S
H1450 C1458 0.950 . S
H1451 C1460 0.950 . S
H1452 C1462 0.950 . S
H1453 C1464 0.950 . S
H1454 C1466 0.950 . S
H1455 C1467 0.950 . S
C1456 H1448 0.950 . S
C1456 C1457 1.386 . S
C1456 C1458 1.391 . S
C1457 C1456 1.386 . S
C1457 C1461 1.393 . S
C1458 H1450 0.950 . S
C1458 C1456 1.391 . S
C1458 C1459 1.400 . S
C1459 C1458 1.400 . S
C1459 C1460 1.398 . S
C1459 C1465 1.491 . S
C1460 H1451 0.950 . S
C1460 C1459 1.398 . S
C1460 C1461 1.391 . S
C1461 H1449 0.950 . S
C1461 C1457 1.393 . S
C1461 C1460 1.391 . S
C1462 H1452 0.950 . S
C1462 C1463 1.386 . S
C1462 C1464 1.391 . S
C1463 C1462 1.386 . S
C1463 C1467 1.393 . S
C1464 H1453 0.950 . S
C1464 C1462 1.391 . S
C1464 C1465 1.400 . S
C1465 C1459 1.491 . S
C1465 C1464 1.400 . S
C1465 C1466 1.398 . S
C1466 H1454 0.950 . S
C1466 C1465 1.398 . S
C1466 C1467 1.391 . S
C1467 H1455 0.950 . S
C1467 C1463 1.393 . S
C1467 C1466 1.391 . S
H1468 C1476 0.950 . S
H1469 C1481 0.950 . S
H1470 C1478 0.950 . S
H1471 C1480 0.950 . S
H1472 C1482 0.950 . S
H1473 C1484 0.950 . S
H1474 C1486 0.950 . S
H1475 C1487 0.950 . S
C1476 H1468 0.950 . S
C1476 C1477 1.386 . S
C1476 C1478 1.391 . S
C1477 C1476 1.386 . S
C1477 C1481 1.393 . S
C1478 H1470 0.950 . S
C1478 C1476 1.391 . S
C1478 C1479 1.400 . S
C1479 C1478 1.400 . S
C1479 C1480 1.398 . S
C1479 C1485 1.491 . S
C1480 H1471 0.950 . S
C1480 C1479 1.398 . S
C1480 C1481 1.391 . S
C1481 H1469 0.950 . S
C1481 C1477 1.393 . S
C1481 C1480 1.391 . S
C1482 H1472 0.950 . S
C1482 C1483 1.386 . S
C1482 C1484 1.391 . S
C1483 C1482 1.386 . S
C1483 C1487 1.393 . S
C1484 H1473 0.950 . S
C1484 C1482 1.391 . S
C1484 C1485 1.400 . S
C1485 C1479 1.491 . S
C1485 C1484 1.400 . S
C1485 C1486 1.398 . S
C1486 H1474 0.950 . S
C1486 C1485 1.398 . S
C1486 C1487 1.391 . S
C1487 H1475 0.950 . S
C1487 C1483 1.393 . S
C1487 C1486 1.391 . S
H1488 C1496 0.950 . S
H1489 C1501 0.950 . S
H1490 C1498 0.950 . S
H1491 C1500 0.950 . S
H1492 C1502 0.950 . S
H1493 C1504 0.950 . S
H1494 C1506 0.950 . S
H1495 C1507 0.950 . S
C1496 H1488 0.950 . S
C1496 C1497 1.386 . S
C1496 C1498 1.391 . S
C1497 C1496 1.386 . S
C1497 C1501 1.393 . S
C1498 H1490 0.950 . S
C1498 C1496 1.391 . S
C1498 C1499 1.400 . S
C1499 C1498 1.400 . S
C1499 C1500 1.398 . S
C1499 C1505 1.491 . S
C1500 H1491 0.950 . S
C1500 C1499 1.398 . S
C1500 C1501 1.391 . S
C1501 H1489 0.950 . S
C1501 C1497 1.393 . S
C1501 C1500 1.391 . S
C1502 H1492 0.950 . S
C1502 C1503 1.386 . S
C1502 C1504 1.391 . S
C1503 C1502 1.386 . S
C1503 C1507 1.393 . S
C1504 H1493 0.950 . S
C1504 C1502 1.391 . S
C1504 C1505 1.400 . S
C1505 C1499 1.491 . S
C1505 C1504 1.400 . S
C1505 C1506 1.398 . S
C1506 H1494 0.950 . S
C1506 C1505 1.398 . S
C1506 C1507 1.391 . S
C1507 H1495 0.950 . S
C1507 C1503 1.393 . S
C1507 C1506 1.391 . S
H1508 C1516 0.950 . S
H1509 C1521 0.950 . S
H1510 C1518 0.950 . S
H1511 C1520 0.950 . S
H1512 C1522 0.950 . S
H1513 C1524 0.950 . S
H1514 C1526 0.950 . S
H1515 C1527 0.950 . S
C1516 H1508 0.950 . S
C1516 C1517 1.386 . S
C1516 C1518 1.391 . S
C1517 C1516 1.386 . S
C1517 C1521 1.393 . S
C1518 H1510 0.950 . S
C1518 C1516 1.391 . S
C1518 C1519 1.400 . S
C1519 C1518 1.400 . S
C1519 C1520 1.398 . S
C1519 C1525 1.491 . S
C1520 H1511 0.950 . S
C1520 C1519 1.398 . S
C1520 C1521 1.391 . S
C1521 H1509 0.950 . S
C1521 C1517 1.393 . S
C1521 C1520 1.391 . S
C1522 H1512 0.950 . S
C1522 C1523 1.386 . S
C1522 C1524 1.391 . S
C1523 C1522 1.386 . S
C1523 C1527 1.393 . S
C1524 H1513 0.950 . S
C1524 C1522 1.391 . S
C1524 C1525 1.400 . S
C1525 C1519 1.491 . S
C1525 C1524 1.400 . S
C1525 C1526 1.398 . S
C1526 H1514 0.950 . S
C1526 C1525 1.398 . S
C1526 C1527 1.391 . S
C1527 H1515 0.950 . S
C1527 C1523 1.393 . S
C1527 C1526 1.391 . S
H1528 C1536 0.950 . S
H1529 C1541 0.950 . S
H1530 C1538 0.950 . S
H1531 C1540 0.950 . S
H1532 C1542 0.950 . S
H1533 C1544 0.950 . S
H1534 C1546 0.950 . S
H1535 C1547 0.950 . S
C1536 H1528 0.950 . S
C1536 C1537 1.386 . S
C1536 C1538 1.391 . S
C1537 C1536 1.386 . S
C1537 C1541 1.393 . S
C1538 H1530 0.950 . S
C1538 C1536 1.391 . S
C1538 C1539 1.400 . S
C1539 C1538 1.400 . S
C1539 C1540 1.398 . S
C1539 C1545 1.491 . S
C1540 H1531 0.950 . S
C1540 C1539 1.398 . S
C1540 C1541 1.391 . S
C1541 H1529 0.950 . S
C1541 C1537 1.393 . S
C1541 C1540 1.391 . S
C1542 H1532 0.950 . S
C1542 C1543 1.386 . S
C1542 C1544 1.391 . S
C1543 C1542 1.386 . S
C1543 C1547 1.393 . S
C1544 H1533 0.950 . S
C1544 C1542 1.391 . S
C1544 C1545 1.400 . S
C1545 C1539 1.491 . S
C1545 C1544 1.400 . S
C1545 C1546 1.398 . S
C1546 H1534 0.950 . S
C1546 C1545 1.398 . S
C1546 C1547 1.391 . S
C1547 H1535 0.950 . S
C1547 C1543 1.393 . S
C1547 C1546 1.391 . S
H1548 C1556 0.950 . S
H1549 C1561 0.950 . S
H1550 C1558 0.950 . S
H1551 C1560 0.950 . S
H1552 C1562 0.950 . S
H1553 C1564 0.950 . S
H1554 C1566 0.950 . S
H1555 C1567 0.950 . S
C1556 H1548 0.950 . S
C1556 C1557 1.386 . S
C1556 C1558 1.391 . S
C1557 C1556 1.386 . S
C1557 C1561 1.393 . S
C1558 H1550 0.950 . S
C1558 C1556 1.391 . S
C1558 C1559 1.400 . S
C1559 C1558 1.400 . S
C1559 C1560 1.398 . S
C1559 C1565 1.491 . S
C1560 H1551 0.950 . S
C1560 C1559 1.398 . S
C1560 C1561 1.391 . S
C1561 H1549 0.950 . S
C1561 C1557 1.393 . S
C1561 C1560 1.391 . S
C1562 H1552 0.950 . S
C1562 C1563 1.386 . S
C1562 C1564 1.391 . S
C1563 C1562 1.386 . S
C1563 C1567 1.393 . S
C1564 H1553 0.950 . S
C1564 C1562 1.391 . S
C1564 C1565 1.400 . S
C1565 C1559 1.491 . S
C1565 C1564 1.400 . S
C1565 C1566 1.398 . S
C1566 H1554 0.950 . S
C1566 C1565 1.398 . S
C1566 C1567 1.391 . S
C1567 H1555 0.950 . S
C1567 C1563 1.393 . S
C1567 C1566 1.391 . S
H1568 C1576 0.950 . S
H1569 C1581 0.950 . S
H1570 C1578 0.950 . S
H1571 C1580 0.950 . S
H1572 C1582 0.950 . S
H1573 C1584 0.950 . S
H1574 C1586 0.950 . S
H1575 C1587 0.950 . S
C1576 H1568 0.950 . S
C1576 C1577 1.386 . S
C1576 C1578 1.391 . S
C1577 C1576 1.386 . S
C1577 C1581 1.393 . S
C1578 H1570 0.950 . S
C1578 C1576 1.391 . S
C1578 C1579 1.400 . S
C1579 C1578 1.400 . S
C1579 C1580 1.398 . S
C1579 C1585 1.491 . S
C1580 H1571 0.950 . S
C1580 C1579 1.398 . S
C1580 C1581 1.391 . S
C1581 H1569 0.950 . S
C1581 C1577 1.393 . S
C1581 C1580 1.391 . S
C1582 H1572 0.950 . S
C1582 C1583 1.386 . S
C1582 C1584 1.391 . S
C1583 C1582 1.386 . S
C1583 C1587 1.393 . S
C1584 H1573 0.950 . S
C1584 C1582 1.391 . S
C1584 C1585 1.400 . S
C1585 C1579 1.491 . S
C1585 C1584 1.400 . S
C1585 C1586 1.398 . S
C1586 H1574 0.950 . S
C1586 C1585 1.398 . S
C1586 C1587 1.391 . S
C1587 H1575 0.950 . S
C1587 C1583 1.393 . S
C1587 C1586 1.391 . S
H1588 C1596 0.950 . S
H1589 C1601 0.950 . S
H1590 C1598 0.950 . S
H1591 C1600 0.950 . S
H1592 C1602 0.950 . S
H1593 C1604 0.950 . S
H1594 C1606 0.950 . S
H1595 C1607 0.950 . S
C1596 H1588 0.950 . S
C1596 C1597 1.386 . S
C1596 C1598 1.391 . S
C1597 C1596 1.386 . S
C1597 C1601 1.393 . S
C1598 H1590 0.950 . S
C1598 C1596 1.391 . S
C1598 C1599 1.400 . S
C1599 C1598 1.400 . S
C1599 C1600 1.398 . S
C1599 C1605 1.491 . S
C1600 H1591 0.950 . S
C1600 C1599 1.398 . S
C1600 C1601 1.391 . S
C1601 H1589 0.950 . S
C1601 C1597 1.393 . S
C1601 C1600 1.391 . S
C1602 H1592 0.950 . S
C1602 C1603 1.386 . S
C1602 C1604 1.391 . S
C1603 C1602 1.386 . S
C1603 C1607 1.393 . S
C1604 H1593 0.950 . S
C1604 C1602 1.391 . S
C1604 C1605 1.400 . S
C1605 C1599 1.491 . S
C1605 C1604 1.400 . S
C1605 C1606 1.398 . S
C1606 H1594 0.950 . S
C1606 C1605 1.398 . S
C1606 C1607 1.391 . S
C1607 H1595 0.950 . S
C1607 C1603 1.393 . S
C1607 C1606 1.391 . S
H1608 C1616 0.950 . S
H1609 C1621 0.950 . S
H1610 C1618 0.950 . S
H1611 C1620 0.950 . S
H1612 C1622 0.950 . S
H1613 C1624 0.950 . S
H1614 C1626 0.950 . S
H1615 C1627 0.950 . S
C1616 H1608 0.950 . S
C1616 C1617 1.386 . S
C1616 C1618 1.391 . S
C1617 C1616 1.386 . S
C1617 C1621 1.393 . S
C1618 H1610 0.950 . S
C1618 C1616 1.391 . S
C1618 C1619 1.400 . S
C1619 C1618 1.400 . S
C1619 C1620 1.398 . S
C1619 C1625 1.491 . S
C1620 H1611 0.950 . S
C1620 C1619 1.398 . S
C1620 C1621 1.391 . S
C1621 H1609 0.950 . S
C1621 C1617 1.393 . S
C1621 C1620 1.391 . S
C1622 H1612 0.950 . S
C1622 C1623 1.386 . S
C1622 C1624 1.391 . S
C1623 C1622 1.386 . S
C1623 C1627 1.393 . S
C1624 H1613 0.950 . S
C1624 C1622 1.391 . S
C1624 C1625 1.400 . S
C1625 C1619 1.491 . S
C1625 C1624 1.400 . S
C1625 C1626 1.398 . S
C1626 H1614 0.950 . S
C1626 C1625 1.398 . S
C1626 C1627 1.391 . S
C1627 H1615 0.950 . S
C1627 C1623 1.393 . S
C1627 C1626 1.391 . S
H1628 C1636 0.950 . S
H1629 C1641 0.950 . S
H1630 C1638 0.950 . S
H1631 C1640 0.950 . S
H1632 C1642 0.950 . S
H1633 C1644 0.950 . S
H1634 C1646 0.950 . S
H1635 C1647 0.950 . S
C1636 H1628 0.950 . S
C1636 C1637 1.386 . S
C1636 C1638 1.391 . S
C1637 C1636 1.386 . S
C1637 C1641 1.393 . S
C1638 H1630 0.950 . S
C1638 C1636 1.391 . S
C1638 C1639 1.400 . S
C1639 C1638 1.400 . S
C1639 C1640 1.398 . S
C1639 C1645 1.491 . S
C1640 H1631 0.950 . S
C1640 C1639 1.398 . S
C1640 C1641 1.391 . S
C1641 H1629 0.950 . S
C1641 C1637 1.393 . S
C1641 C1640 1.391 . S
C1642 H1632 0.950 . S
C1642 C1643 1.386 . S
C1642 C1644 1.391 . S
C1643 C1642 1.386 . S
C1643 C1647 1.393 . S
C1644 H1633 0.950 . S
C1644 C1642 1.391 . S
C1644 C1645 1.400 . S
C1645 C1639 1.491 . S
C1645 C1644 1.400 . S
C1645 C1646 1.398 . S
C1646 H1634 0.950 . S
C1646 C1645 1.398 . S
C1646 C1647 1.391 . S
C1647 H1635 0.950 . S
C1647 C1643 1.393 . S
C1647 C1646 1.391 . S
H1648 C1656 0.950 . S
H1649 C1661 0.950 . S
H1650 C1658 0.950 . S
H1651 C1660 0.950 . S
H1652 C1662 0.950 . S
H1653 C1664 0.950 . S
H1654 C1666 0.950 . S
H1655 C1667 0.950 . S
C1656 H1648 0.950 . S
C1656 C1657 1.386 . S
C1656 C1658 1.391 . S
C1657 C1656 1.386 . S
C1657 C1661 1.393 . S
C1658 H1650 0.950 . S
C1658 C1656 1.391 . S
C1658 C1659 1.400 . S
C1659 C1658 1.400 . S
C1659 C1660 1.398 . S
C1659 C1665 1.491 . S
C1660 H1651 0.950 . S
C1660 C1659 1.398 . S
C1660 C1661 1.391 . S
C1661 H1649 0.950 . S
C1661 C1657 1.393 . S
C1661 C1660 1.391 . S
C1662 H1652 0.950 . S
C1662 C1663 1.386 . S
C1662 C1664 1.391 . S
C1663 C1662 1.386 . S
C1663 C1667 1.393 . S
C1664 H1653 0.950 . S
C1664 C1662 1.391 . S
C1664 C1665 1.400 . S
C1665 C1659 1.491 . S
C1665 C1664 1.400 . S
C1665 C1666 1.398 . S
C1666 H1654 0.950 . S
C1666 C1665 1.398 . S
C1666 C1667 1.391 . S
C1667 H1655 0.950 . S
C1667 C1663 1.393 . S
C1667 C1666 1.391 . S
H1668 C1676 0.950 . S
H1669 C1681 0.950 . S
H1670 C1678 0.950 . S
H1671 C1680 0.950 . S
H1672 C1682 0.950 . S
H1673 C1684 0.950 . S
H1674 C1686 0.950 . S
H1675 C1687 0.950 . S
C1676 H1668 0.950 . S
C1676 C1677 1.386 . S
C1676 C1678 1.391 . S
C1677 C1676 1.386 . S
C1677 C1681 1.393 . S
C1678 H1670 0.950 . S
C1678 C1676 1.391 . S
C1678 C1679 1.400 . S
C1679 C1678 1.400 . S
C1679 C1680 1.398 . S
C1679 C1685 1.491 . S
C1680 H1671 0.950 . S
C1680 C1679 1.398 . S
C1680 C1681 1.391 . S
C1681 H1669 0.950 . S
C1681 C1677 1.393 . S
C1681 C1680 1.391 . S
C1682 H1672 0.950 . S
C1682 C1683 1.386 . S
C1682 C1684 1.391 . S
C1683 C1682 1.386 . S
C1683 C1687 1.393 . S
C1684 H1673 0.950 . S
C1684 C1682 1.391 . S
C1684 C1685 1.400 . S
C1685 C1679 1.491 . S
C1685 C1684 1.400 . S
C1685 C1686 1.398 . S
C1686 H1674 0.950 . S
C1686 C1685 1.398 . S
C1686 C1687 1.391 . S
C1687 H1675 0.950 . S
C1687 C1683 1.393 . S
C1687 C1686 1.391 . S
H1688 C1696 0.950 . S
H1689 C1701 0.950 . S
H1690 C1698 0.950 . S
H1691 C1700 0.950 . S
H1692 C1702 0.950 . S
H1693 C1704 0.950 . S
H1694 C1706 0.950 . S
H1695 C1707 0.950 . S
C1696 H1688 0.950 . S
C1696 C1697 1.386 . S
C1696 C1698 1.391 . S
C1697 C1696 1.386 . S
C1697 C1701 1.393 . S
C1698 H1690 0.950 . S
C1698 C1696 1.391 . S
C1698 C1699 1.400 . S
C1699 C1698 1.400 . S
C1699 C1700 1.398 . S
C1699 C1705 1.491 . S
C1700 H1691 0.950 . S
C1700 C1699 1.398 . S
C1700 C1701 1.391 . S
C1701 H1689 0.950 . S
C1701 C1697 1.393 . S
C1701 C1700 1.391 . S
C1702 H1692 0.950 . S
C1702 C1703 1.386 . S
C1702 C1704 1.391 . S
C1703 C1702 1.386 . S
C1703 C1707 1.393 . S
C1704 H1693 0.950 . S
C1704 C1702 1.391 . S
C1704 C1705 1.400 . S
C1705 C1699 1.491 . S
C1705 C1704 1.400 . S
C1705 C1706 1.398 . S
C1706 H1694 0.950 . S
C1706 C1705 1.398 . S
C1706 C1707 1.391 . S
C1707 H1695 0.950 . S
C1707 C1703 1.393 . S
C1707 C1706 1.391 . S
H1708 C1716 0.950 . S
H1709 C1721 0.950 . S
H1710 C1718 0.950 . S
H1711 C1720 0.950 . S
H1712 C1722 0.950 . S
H1713 C1724 0.950 . S
H1714 C1726 0.950 . S
H1715 C1727 0.950 . S
C1716 H1708 0.950 . S
C1716 C1717 1.386 . S
C1716 C1718 1.391 . S
C1717 C1716 1.386 . S
C1717 C1721 1.393 . S
C1718 H1710 0.950 . S
C1718 C1716 1.391 . S
C1718 C1719 1.400 . S
C1719 C1718 1.400 . S
C1719 C1720 1.398 . S
C1719 C1725 1.491 . S
C1720 H1711 0.950 . S
C1720 C1719 1.398 . S
C1720 C1721 1.391 . S
C1721 H1709 0.950 . S
C1721 C1717 1.393 . S
C1721 C1720 1.391 . S
C1722 H1712 0.950 . S
C1722 C1723 1.386 . S
C1722 C1724 1.391 . S
C1723 C1722 1.386 . S
C1723 C1727 1.393 . S
C1724 H1713 0.950 . S
C1724 C1722 1.391 . S
C1724 C1725 1.400 . S
C1725 C1719 1.491 . S
C1725 C1724 1.400 . S
C1725 C1726 1.398 . S
C1726 H1714 0.950 . S
C1726 C1725 1.398 . S
C1726 C1727 1.391 . S
C1727 H1715 0.950 . S
C1727 C1723 1.393 . S
C1727 C1726 1.391 . S
H1728 C1736 0.950 . S
H1729 C1741 0.950 . S
H1730 C1738 0.950 . S
H1731 C1740 0.950 . S
H1732 C1742 0.950 . S
H1733 C1744 0.950 . S
H1734 C1746 0.950 . S
H1735 C1747 0.950 . S
C1736 H1728 0.950 . S
C1736 C1737 1.386 . S
C1736 C1738 1.391 . S
C1737 C1736 1.386 . S
C1737 C1741 1.393 . S
C1738 H1730 0.950 . S
C1738 C1736 1.391 . S
C1738 C1739 1.400 . S
C1739 C1738 1.400 . S
C1739 C1740 1.398 1_545 S
C1739 C1745 1.491 1_545 S
C1740 H1731 0.950 . S
C1740 C1739 1.398 1_565 S
C1740 C1741 1.391 1_565 S
C1741 H1729 0.950 . S
C1741 C1737 1.393 . S
C1741 C1740 1.391 1_545 S
C1742 H1732 0.950 . S
C1742 C1743 1.386 . S
C1742 C1744 1.391 . S
C1743 C1742 1.386 . S
C1743 C1747 1.393 . S
C1744 H1733 0.950 . S
C1744 C1742 1.391 . S
C1744 C1745 1.400 . S
C1745 C1739 1.491 1_565 S
C1745 C1744 1.400 . S
C1745 C1746 1.398 1_565 S
C1746 H1734 0.950 . S
C1746 C1745 1.398 1_545 S
C1746 C1747 1.391 1_545 S
C1747 H1735 0.950 . S
C1747 C1743 1.393 . S
C1747 C1746 1.391 1_565 S
H1748 C1756 0.950 . S
H1749 C1761 0.950 . S
H1750 C1758 0.950 . S
H1751 C1760 0.950 . S
H1752 C1762 0.950 . S
H1753 C1764 0.950 . S
H1754 C1766 0.950 . S
H1755 C1767 0.950 . S
C1756 H1748 0.950 . S
C1756 C1757 1.386 . S
C1756 C1758 1.391 . S
C1757 C1756 1.386 . S
C1757 C1761 1.393 . S
C1758 H1750 0.950 . S
C1758 C1756 1.391 . S
C1758 C1759 1.400 . S
C1759 C1758 1.400 . S
C1759 C1760 1.398 . S
C1759 C1765 1.491 1_455 S
C1760 H1751 0.950 . S
C1760 C1759 1.398 . S
C1760 C1761 1.391 . S
C1761 H1749 0.950 . S
C1761 C1757 1.393 . S
C1761 C1760 1.391 . S
C1762 H1752 0.950 . S
C1762 C1763 1.386 . S
C1762 C1764 1.391 . S
C1763 C1762 1.386 . S
C1763 C1767 1.393 . S
C1764 H1753 0.950 . S
C1764 C1762 1.391 . S
C1764 C1765 1.400 . S
C1765 C1759 1.491 1_655 S
C1765 C1764 1.400 . S
C1765 C1766 1.398 . S
C1766 H1754 0.950 . S
C1766 C1765 1.398 . S
C1766 C1767 1.391 . S
C1767 H1755 0.950 . S
C1767 C1763 1.393 . S
C1767 C1766 1.391 . S
H1768 C1776 0.950 . S
H1769 C1781 0.950 . S
H1770 C1778 0.950 . S
H1771 C1780 0.950 . S
H1772 C1782 0.950 . S
H1773 C1784 0.950 . S
H1774 C1786 0.950 . S
H1775 C1787 0.950 . S
C1776 H1768 0.950 . S
C1776 C1777 1.386 . S
C1776 C1778 1.391 . S
C1777 C1776 1.386 . S
C1777 C1781 1.393 . S
C1778 H1770 0.950 . S
C1778 C1776 1.391 . S
C1778 C1779 1.400 . S
C1779 C1778 1.400 . S
C1779 C1780 1.398 . S
C1779 C1785 1.491 1_545 S
C1780 H1771 0.950 . S
C1780 C1779 1.398 . S
C1780 C1781 1.391 . S
C1781 H1769 0.950 . S
C1781 C1777 1.393 . S
C1781 C1780 1.391 . S
C1782 H1772 0.950 . S
C1782 C1783 1.386 . S
C1782 C1784 1.391 . S
C1783 C1782 1.386 . S
C1783 C1787 1.393 . S
C1784 H1773 0.950 . S
C1784 C1782 1.391 . S
C1784 C1785 1.400 . S
C1785 C1779 1.491 1_565 S
C1785 C1784 1.400 . S
C1785 C1786 1.398 . S
C1786 H1774 0.950 . S
C1786 C1785 1.398 . S
C1786 C1787 1.391 . S
C1787 H1775 0.950 . S
C1787 C1783 1.393 . S
C1787 C1786 1.391 . S
H1788 C1796 0.950 . S
H1789 C1801 0.950 . S
H1790 C1798 0.950 . S
H1791 C1800 0.950 . S
H1792 C1802 0.950 . S
H1793 C1804 0.950 . S
H1794 C1806 0.950 . S
H1795 C1807 0.950 . S
C1796 H1788 0.950 . S
C1796 C1797 1.386 . S
C1796 C1798 1.391 1_455 S
C1797 C1796 1.386 . S
C1797 C1801 1.393 . S
C1798 H1790 0.950 . S
C1798 C1796 1.391 1_655 S
C1798 C1799 1.400 1_655 S
C1799 C1798 1.400 1_455 S
C1799 C1800 1.398 . S
C1799 C1805 1.491 1_455 S
C1800 H1791 0.950 . S
C1800 C1799 1.398 . S
C1800 C1801 1.391 . S
C1801 H1789 0.950 . S
C1801 C1797 1.393 . S
C1801 C1800 1.391 . S
C1802 H1792 0.950 . S
C1802 C1803 1.386 . S
C1802 C1804 1.391 1_655 S
C1803 C1802 1.386 . S
C1803 C1807 1.393 . S
C1804 H1793 0.950 . S
C1804 C1802 1.391 1_455 S
C1804 C1805 1.400 1_455 S
C1805 C1799 1.491 1_655 S
C1805 C1804 1.400 1_655 S
C1805 C1806 1.398 . S
C1806 H1794 0.950 . S
C1806 C1805 1.398 . S
C1806 C1807 1.391 . S
C1807 H1795 0.950 . S
C1807 C1803 1.393 . S
C1807 C1806 1.391 . S
H1808 C1816 0.950 . S
H1809 C1821 0.950 . S
H1810 C1818 0.950 . S
H1811 C1820 0.950 1_565 S
H1812 C1822 0.950 . S
H1813 C1824 0.950 . S
H1814 C1826 0.950 1_545 S
H1815 C1827 0.950 . S
C1816 H1808 0.950 . S
C1816 C1817 1.386 . S
C1816 C1818 1.391 . S
C1817 C1816 1.386 . S
C1817 C1821 1.393 . S
C1818 H1810 0.950 . S
C1818 C1816 1.391 . S
C1818 C1819 1.400 . S
C1819 C1818 1.400 . S
C1819 C1820 1.398 . S
C1819 C1825 1.491 1_545 S
C1820 H1811 0.950 1_545 S
C1820 C1819 1.398 . S
C1820 C1821 1.391 . S
C1821 H1809 0.950 . S
C1821 C1817 1.393 . S
C1821 C1820 1.391 . S
C1822 H1812 0.950 . S
C1822 C1823 1.386 . S
C1822 C1824 1.391 . S
C1823 C1822 1.386 . S
C1823 C1827 1.393 . S
C1824 H1813 0.950 . S
C1824 C1822 1.391 . S
C1824 C1825 1.400 . S
C1825 C1819 1.491 1_565 S
C1825 C1824 1.400 . S
C1825 C1826 1.398 . S
C1826 H1814 0.950 1_565 S
C1826 C1825 1.398 . S
C1826 C1827 1.391 . S
C1827 H1815 0.950 . S
C1827 C1823 1.393 . S
C1827 C1826 1.391 . S
H1828 C1836 0.950 . S
H1829 C1841 0.950 . S
H1830 C1838 0.966 . S
H1831 C1840 0.950 . S
H1832 C1842 0.950 . S
H1833 C1844 0.966 . S
H1834 C1846 0.950 . S
H1835 C1847 0.950 . S
C1836 H1828 0.950 . S
C1836 C1837 1.386 . S
C1836 C1838 1.391 . S
C1837 C1836 1.386 . S
C1837 C1841 1.393 . S
C1838 H1830 0.966 . S
C1838 C1836 1.391 . S
C1838 C1839 1.400 . S
C1839 C1838 1.400 . S
C1839 C1840 1.398 . S
C1839 C1845 1.491 1_655 S
C1840 H1831 0.950 . S
C1840 C1839 1.398 . S
C1840 C1841 1.391 . S
C1841 H1829 0.950 . S
C1841 C1837 1.393 . S
C1841 C1840 1.391 . S
C1842 H1832 0.950 . S
C1842 C1843 1.386 . S
C1842 C1844 1.391 . S
C1843 C1842 1.386 . S
C1843 C1847 1.393 . S
C1844 H1833 0.966 . S
C1844 C1842 1.391 . S
C1844 C1845 1.400 . S
C1845 C1839 1.491 1_455 S
C1845 C1844 1.400 . S
C1845 C1846 1.398 . S
C1846 H1834 0.950 . S
C1846 C1845 1.398 . S
C1846 C1847 1.391 . S
C1847 H1835 0.950 . S
C1847 C1843 1.393 . S
C1847 C1846 1.391 . S
H1848 C1856 0.950 . S
H1849 C1861 0.950 . S
H1850 C1858 0.950 1_565 S
H1851 C1860 0.950 . S
H1852 C1862 0.950 . S
H1853 C1864 0.950 1_545 S
H1854 C1866 0.950 . S
H1855 C1867 0.950 . S
C1856 H1848 0.950 . S
C1856 C1857 1.386 . S
C1856 C1858 1.391 . S
C1857 C1856 1.386 . S
C1857 C1861 1.393 . S
C1858 H1850 0.950 1_545 S
C1858 C1856 1.391 . S
C1858 C1859 1.400 . S
C1859 C1858 1.400 . S
C1859 C1860 1.398 . S
C1859 C1865 1.491 1_545 S
C1860 H1851 0.950 . S
C1860 C1859 1.398 . S
C1860 C1861 1.391 . S
C1861 H1849 0.950 . S
C1861 C1857 1.393 . S
C1861 C1860 1.391 . S
C1862 H1852 0.950 . S
C1862 C1863 1.386 . S
C1862 C1864 1.391 . S
C1863 C1862 1.386 . S
C1863 C1867 1.393 . S
C1864 H1853 0.950 1_565 S
C1864 C1862 1.391 . S
C1864 C1865 1.400 . S
C1865 C1859 1.491 1_565 S
C1865 C1864 1.400 . S
C1865 C1866 1.398 . S
C1866 H1854 0.950 . S
C1866 C1865 1.398 . S
C1866 C1867 1.391 . S
C1867 H1855 0.950 . S
C1867 C1863 1.393 . S
C1867 C1866 1.391 . S
H1868 C1876 0.950 . S
H1869 C1881 0.950 . S
H1870 C1878 0.950 . S
H1871 C1880 0.950 . S
H1872 C1882 0.950 . S
H1873 C1884 0.950 . S
H1874 C1886 0.950 . S
H1875 C1887 0.950 . S
C1876 H1868 0.950 . S
C1876 C1877 1.386 . S
C1876 C1878 1.391 . S
C1877 C1876 1.386 . S
C1877 C1881 1.393 . S
C1878 H1870 0.950 . S
C1878 C1876 1.391 . S
C1878 C1879 1.400 . S
C1879 C1878 1.400 . S
C1879 C1880 1.398 1_655 S
C1879 C1885 1.491 1_655 S
C1880 H1871 0.950 . S
C1880 C1879 1.398 1_455 S
C1880 C1881 1.391 1_455 S
C1881 H1869 0.950 . S
C1881 C1877 1.393 . S
C1881 C1880 1.391 1_655 S
C1882 H1872 0.950 . S
C1882 C1883 1.386 . S
C1882 C1884 1.391 . S
C1883 C1882 1.386 . S
C1883 C1887 1.393 . S
C1884 H1873 0.950 . S
C1884 C1882 1.391 . S
C1884 C1885 1.400 . S
C1885 C1879 1.491 1_455 S
C1885 C1884 1.400 . S
C1885 C1886 1.398 1_455 S
C1886 H1874 0.950 . S
C1886 C1885 1.398 1_655 S
C1886 C1887 1.391 1_655 S
C1887 H1875 0.950 . S
C1887 C1883 1.393 . S
C1887 C1886 1.391 1_455 S
H1888 C1896 0.950 . S
H1889 C1901 0.950 . S
H1890 C1898 0.950 . S
H1891 C1900 0.950 . S
H1892 C1902 0.950 . S
H1893 C1904 0.950 . S
H1894 C1906 0.950 . S
H1895 C1907 0.950 . S
C1896 H1888 0.950 . S
C1896 C1897 1.386 . S
C1896 C1898 1.391 . S
C1897 C1896 1.386 . S
C1897 C1901 1.393 . S
C1898 H1890 0.950 . S
C1898 C1896 1.391 . S
C1898 C1899 1.400 . S
C1899 C1898 1.400 . S
C1899 C1900 1.398 . S
C1899 C1905 1.491 1_556 S
C1900 H1891 0.950 . S
C1900 C1899 1.398 . S
C1900 C1901 1.391 . S
C1901 H1889 0.950 . S
C1901 C1897 1.393 . S
C1901 C1900 1.391 . S
C1902 H1892 0.950 . S
C1902 C1903 1.386 . S
C1902 C1904 1.391 . S
C1903 C1902 1.386 . S
C1903 C1907 1.393 . S
C1904 H1893 0.950 . S
C1904 C1902 1.391 . S
C1904 C1905 1.400 . S
C1905 C1899 1.491 1_554 S
C1905 C1904 1.400 . S
C1905 C1906 1.398 . S
C1906 H1894 0.950 . S
C1906 C1905 1.398 . S
C1906 C1907 1.391 . S
C1907 H1895 0.950 . S
C1907 C1903 1.393 . S
C1907 C1906 1.391 . S
H1908 C1916 0.950 . S
H1909 C1921 0.950 . S
H1910 C1918 0.950 . S
H1911 C1920 1.034 . S
H1912 C1922 0.950 . S
H1913 C1924 0.950 . S
H1914 C1926 1.034 . S
H1915 C1927 0.950 . S
C1916 H1908 0.950 . S
C1916 C1917 1.386 . S
C1916 C1918 1.391 . S
C1917 C1916 1.386 . S
C1917 C1921 1.393 . S
C1918 H1910 0.950 . S
C1918 C1916 1.391 . S
C1918 C1919 1.400 . S
C1919 C1918 1.400 . S
C1919 C1920 1.368 1_554 S
C1919 C1925 1.491 1_554 S
C1920 H1911 1.034 . S
C1920 C1919 1.368 1_556 S
C1920 C1921 1.344 1_556 S
C1921 H1909 0.950 . S
C1921 C1917 1.393 . S
C1921 C1920 1.344 1_554 S
C1922 H1912 0.950 . S
C1922 C1923 1.386 . S
C1922 C1924 1.391 . S
C1923 C1922 1.386 . S
C1923 C1927 1.393 . S
C1924 H1913 0.950 . S
C1924 C1922 1.391 . S
C1924 C1925 1.400 . S
C1925 C1919 1.491 1_556 S
C1925 C1924 1.400 . S
C1925 C1926 1.368 1_556 S
C1926 H1914 1.034 . S
C1926 C1925 1.368 1_554 S
C1926 C1927 1.344 1_554 S
C1927 H1915 0.950 . S
C1927 C1923 1.393 . S
C1927 C1926 1.344 1_556 S
H1928 C1936 0.950 . S
H1929 C1941 0.950 . S
H1930 C1938 0.950 . S
H1931 C1940 0.950 . S
H1932 C1942 0.950 . S
H1933 C1944 0.950 . S
H1934 C1946 0.950 . S
H1935 C1947 0.950 . S
C1936 H1928 0.950 . S
C1936 C1937 1.386 . S
C1936 C1938 1.391 . S
C1937 C1936 1.386 . S
C1937 C1941 1.393 . S
C1938 H1930 0.950 . S
C1938 C1936 1.391 . S
C1938 C1939 1.400 . S
C1939 C1938 1.400 . S
C1939 C1940 1.398 1_556 S
C1939 C1945 1.491 1_556 S
C1940 H1931 0.950 . S
C1940 C1939 1.398 1_554 S
C1940 C1941 1.391 1_554 S
C1941 H1929 0.950 . S
C1941 C1937 1.393 . S
C1941 C1940 1.391 1_556 S
C1942 H1932 0.950 . S
C1942 C1943 1.386 . S
C1942 C1944 1.391 . S
C1943 C1942 1.386 . S
C1943 C1947 1.393 . S
C1944 H1933 0.950 . S
C1944 C1942 1.391 . S
C1944 C1945 1.400 . S
C1945 C1939 1.491 1_554 S
C1945 C1944 1.400 . S
C1945 C1946 1.398 1_554 S
C1946 H1934 0.950 . S
C1946 C1945 1.398 1_556 S
C1946 C1947 1.391 1_556 S
C1947 H1935 0.950 . S
C1947 C1943 1.393 . S
C1947 C1946 1.391 1_554 S
H1948 C1956 0.950 . S
H1949 C1961 0.950 . S
H1950 C1958 0.950 1_556 S
H1951 C1960 0.950 . S
H1952 C1962 0.950 . S
H1953 C1964 0.950 1_554 S
H1954 C1966 0.950 . S
H1955 C1967 0.950 . S
C1956 H1948 0.950 . S
C1956 C1957 1.386 . S
C1956 C1958 1.391 . S
C1957 C1956 1.386 . S
C1957 C1961 1.393 . S
C1958 H1950 0.950 1_554 S
C1958 C1956 1.391 . S
C1958 C1959 1.400 . S
C1959 C1958 1.400 . S
C1959 C1960 1.398 . S
C1959 C1965 1.491 1_554 S
C1960 H1951 0.950 . S
C1960 C1959 1.398 . S
C1960 C1961 1.391 . S
C1961 H1949 0.950 . S
C1961 C1957 1.393 . S
C1961 C1960 1.391 . S
C1962 H1952 0.950 . S
C1962 C1963 1.386 . S
C1962 C1964 1.391 . S
C1963 C1962 1.386 . S
C1963 C1967 1.393 . S
C1964 H1953 0.950 1_556 S
C1964 C1962 1.391 . S
C1964 C1965 1.400 . S
C1965 C1959 1.491 1_556 S
C1965 C1964 1.400 . S
C1965 C1966 1.398 . S
C1966 H1954 0.950 . S
C1966 C1965 1.398 . S
C1966 C1967 1.391 . S
C1967 H1955 0.950 . S
C1967 C1963 1.393 . S
C1967 C1966 1.391 . S
C537 C29 1.452 . S
C543 C7 1.450 . S
C557 C18 1.463 . S
C563 C40 1.464 . S
C577 C73 1.436 . S
C583 C51 1.435 . S
C597 C62 1.465 . S
C603 C84 1.464 . S
C617 C139 1.441 . S
C623 C95 1.440 . S
C637 C150 1.469 . S
C643 C106 1.469 . S
C657 C117 1.454 . S
C663 C161 1.456 . S
C677 C128 1.463 . S
C683 C172 1.464 . S
C697 C216 1.465 . S
C703 C183 1.466 . S
C717 C194 1.465 . S
C723 C238 1.466 . S
C737 C249 1.434 . S
C743 C205 1.434 . S
C757 C260 1.462 . S
C763 C227 1.461 . S
C777 C271 1.469 . S
C783 C293 1.470 . S
C797 C282 1.441 . S
C803 C304 1.440 . S
C817 C337 1.464 . S
C823 C315 1.466 . S
C837 C348 1.456 . S
C843 C326 1.454 . S
C857 C359 1.446 . S
C863 C403 1.444 . S
C877 C370 1.469 . S
C883 C414 1.470 . S
C897 C381 1.464 . S
C903 C425 1.462 . S
C917 C436 1.435 . S
C923 C392 1.436 . S
C937 C480 1.445 . S
C943 C447 1.443 . S
C957 C502 1.447 . S
C963 C458 1.445 . S
C977 C513 1.435 . S
C983 C469 1.435 . S
C997 C524 1.436 . S
C1003 C491 1.436 . S
C1017 C5 1.254 . S
C1023 C346 1.220 . S
C1037 C313 1.196 . S
C1043 C16 1.235 . S
C1057 C27 1.196 . S
C1063 C324 1.229 . S
C1077 C38 1.204 . S
C1083 C335 1.249 . S
C1097 C280 1.197 . S
C1103 C49 1.224 . S
C1117 C291 1.197 . S
C1123 C60 1.222 . S
C1137 C71 1.251 . S
C1143 C302 1.233 . S
C1157 C82 1.197 . S
C1163 C269 1.223 . S
C1177 C489 1.197 . S
C1183 C93 1.221 . S
C1197 C104 1.196 . S
C1203 C456 1.229 . S
C1217 C467 1.204 . S
C1223 C115 1.249 . S
C1237 C126 1.200 . S
C1243 C478 1.215 . S
C1257 C137 1.230 . S
C1263 C522 1.252 . S
C1277 C148 1.196 . S
C1283 C500 1.234 . S
C1297 C159 1.237 . S
C1303 C511 1.248 . S
C1317 C170 1.244 . S
C1323 C445 1.243 . S
C1337 C181 1.198 . S
C1343 C434 1.243 . S
C1357 C192 1.211 . S
C1363 C368 1.203 . S
C1377 C203 1.235 . S
C1383 C379 1.250 . S
C1397 C390 1.220 . S
C1403 C214 1.254 . S
C1417 C225 1.229 . S
C1423 C357 1.252 . S
C1437 C412 1.233 . S
C1443 C236 1.196 . S
C1457 C423 1.211 . S
C1463 C247 1.253 . S
C1477 C401 1.198 . S
C1483 C258 1.221 . S
C1497 C250 1.632 . S
C1503 C8 1.634 . S
C1517 C184 1.647 . S
C1523 C19 1.646 . S
C1537 C30 1.646 . S
C1543 C261 1.646 . S
C1557 C41 1.621 . S
C1563 C239 1.621 . S
C1577 C52 1.640 . S
C1583 C206 1.638 . S
C1597 C217 1.626 . S
C1603 C63 1.627 . S
C1617 C228 1.635 . S
C1623 C74 1.636 . S
C1637 C85 1.646 . S
C1643 C195 1.645 . S
C1657 C96 1.643 . S
C1663 C151 1.642 . S
C1677 C107 1.642 . S
C1683 C162 1.641 . S
C1697 C118 1.623 . S
C1703 C173 1.623 . S
C1717 C140 1.648 . S
C1723 C129 1.647 . S
C1737 C514 1.630 . S
C1743 C272 1.629 . S
C1757 C283 1.648 . S
C1763 C448 1.648 . S
C1777 C294 1.648 . S
C1783 C525 1.647 . S
C1797 C503 1.638 . S
C1803 C305 1.639 . S
C1817 C316 1.643 . S
C1823 C470 1.642 . S
C1837 C327 1.648 . S
C1843 C481 1.648 . S
C1857 C492 1.645 . S
C1863 C338 1.646 . S
C1877 C459 1.628 . S
C1883 C349 1.627 . S
C1897 C360 1.648 . S
C1903 C415 1.648 . S
C1917 C426 1.639 . S
C1923 C371 1.638 . S
C1937 C382 1.638 . S
C1943 C437 1.637 . S
C1957 C404 1.646 . S
C1963 C393 1.647 . S
