# Generated by pormake.
# Topology wgo, (5)-cn, num edge types: 1
# Building blocks:
#     Node 0, Type 0, BuildingBlock: BEQFEK_clean_sbu_0, # of connection points: 5
#     Node 1, Type 0, BuildingBlock: BEQFEK_clean_sbu_0, # of connection points: 5
#     Node 2, Type 0, BuildingBlock: BEQFEK_clean_sbu_0, # of connection points: 5
#     Node 3, Type 0, BuildingBlock: BEQFEK_clean_sbu_0, # of connection points: 5
#     Node 4, Type 0, BuildingBlock: BEQFEK_clean_sbu_0, # of connection points: 5
#     Node 5, Type 0, BuildingBlock: BEQFEK_clean_sbu_0, # of connection points: 5
#     Node 6, Type 0, BuildingBlock: BEQFEK_clean_sbu_0, # of connection points: 5
#     Node 7, Type 0, BuildingBlock: BEQFEK_clean_sbu_0, # of connection points: 5
#     Node 8, Type 0, BuildingBlock: BEQFEK_clean_sbu_0, # of connection points: 5
#     Node 9, Type 0, BuildingBlock: BEQFEK_clean_sbu_0, # of connection points: 5
#     Node 10, Type 0, BuildingBlock: BEQFEK_clean_sbu_0, # of connection points: 5
#     Node 11, Type 0, BuildingBlock: BEQFEK_clean_sbu_0, # of connection points: 5
#     Node 12, Type 0, BuildingBlock: BEQFEK_clean_sbu_0, # of connection points: 5
#     Node 13, Type 0, BuildingBlock: BEQFEK_clean_sbu_0, # of connection points: 5
#     Node 14, Type 0, BuildingBlock: BEQFEK_clean_sbu_0, # of connection points: 5
#     Node 15, Type 0, BuildingBlock: BEQFEK_clean_sbu_0, # of connection points: 5
#     Node 16, Type 0, BuildingBlock: BEQFEK_clean_sbu_0, # of connection points: 5
#     Node 17, Type 0, BuildingBlock: BEQFEK_clean_sbu_0, # of connection points: 5
#     Node 18, Type 0, BuildingBlock: BEQFEK_clean_sbu_0, # of connection points: 5
#     Node 19, Type 0, BuildingBlock: BEQFEK_clean_sbu_0, # of connection points: 5
#     Node 20, Type 0, BuildingBlock: BEQFEK_clean_sbu_0, # of connection points: 5
#     Node 21, Type 0, BuildingBlock: BEQFEK_clean_sbu_0, # of connection points: 5
#     Node 22, Type 0, BuildingBlock: BEQFEK_clean_sbu_0, # of connection points: 5
#     Node 23, Type 0, BuildingBlock: BEQFEK_clean_sbu_0, # of connection points: 5
#     Node 24, Type 0, BuildingBlock: BEQFEK_clean_sbu_0, # of connection points: 5
#     Node 25, Type 0, BuildingBlock: BEQFEK_clean_sbu_0, # of connection points: 5
#     Node 26, Type 0, BuildingBlock: BEQFEK_clean_sbu_0, # of connection points: 5
#     Node 27, Type 0, BuildingBlock: BEQFEK_clean_sbu_0, # of connection points: 5
#     Node 28, Type 0, BuildingBlock: BEQFEK_clean_sbu_0, # of connection points: 5
#     Node 29, Type 0, BuildingBlock: BEQFEK_clean_sbu_0, # of connection points: 5
#     Node 30, Type 0, BuildingBlock: BEQFEK_clean_sbu_0, # of connection points: 5
#     Node 31, Type 0, BuildingBlock: BEQFEK_clean_sbu_0, # of connection points: 5
#     Edge 32, Type (0, 0), BuildingBlock: UVAHIK_clean_linker_0, # of connection points: 2
#     Edge 33, Type (0, 0), BuildingBlock: UVAHIK_clean_linker_0, # of connection points: 2
#     Edge 34, Type (0, 0), BuildingBlock: UVAHIK_clean_linker_0, # of connection points: 2
#     Edge 35, Type (0, 0), BuildingBlock: UVAHIK_clean_linker_0, # of connection points: 2
#     Edge 36, Type (0, 0), BuildingBlock: UVAHIK_clean_linker_0, # of connection points: 2
#     Edge 37, Type (0, 0), BuildingBlock: UVAHIK_clean_linker_0, # of connection points: 2
#     Edge 38, Type (0, 0), BuildingBlock: UVAHIK_clean_linker_0, # of connection points: 2
#     Edge 39, Type (0, 0), BuildingBlock: UVAHIK_clean_linker_0, # of connection points: 2
#     Edge 40, Type (0, 0), BuildingBlock: UVAHIK_clean_linker_0, # of connection points: 2
#     Edge 41, Type (0, 0), BuildingBlock: UVAHIK_clean_linker_0, # of connection points: 2
#     Edge 42, Type (0, 0), BuildingBlock: UVAHIK_clean_linker_0, # of connection points: 2
#     Edge 43, Type (0, 0), BuildingBlock: UVAHIK_clean_linker_0, # of connection points: 2
#     Edge 44, Type (0, 0), BuildingBlock: UVAHIK_clean_linker_0, # of connection points: 2
#     Edge 45, Type (0, 0), BuildingBlock: UVAHIK_clean_linker_0, # of connection points: 2
#     Edge 46, Type (0, 0), BuildingBlock: UVAHIK_clean_linker_0, # of connection points: 2
#     Edge 47, Type (0, 0), BuildingBlock: UVAHIK_clean_linker_0, # of connection points: 2
#     Edge 48, Type (0, 0), BuildingBlock: UVAHIK_clean_linker_0, # of connection points: 2
#     Edge 49, Type (0, 0), BuildingBlock: UVAHIK_clean_linker_0, # of connection points: 2
#     Edge 50, Type (0, 0), BuildingBlock: UVAHIK_clean_linker_0, # of connection points: 2
#     Edge 51, Type (0, 0), BuildingBlock: UVAHIK_clean_linker_0, # of connection points: 2
#     Edge 52, Type (0, 0), BuildingBlock: UVAHIK_clean_linker_0, # of connection points: 2
#     Edge 53, Type (0, 0), BuildingBlock: UVAHIK_clean_linker_0, # of connection points: 2
#     Edge 54, Type (0, 0), BuildingBlock: UVAHIK_clean_linker_0, # of connection points: 2
#     Edge 55, Type (0, 0), BuildingBlock: UVAHIK_clean_linker_0, # of connection points: 2
#     Edge 56, Type (0, 0), BuildingBlock: UVAHIK_clean_linker_0, # of connection points: 2
#     Edge 57, Type (0, 0), BuildingBlock: UVAHIK_clean_linker_0, # of connection points: 2
#     Edge 58, Type (0, 0), BuildingBlock: UVAHIK_clean_linker_0, # of connection points: 2
#     Edge 59, Type (0, 0), BuildingBlock: UVAHIK_clean_linker_0, # of connection points: 2
#     Edge 60, Type (0, 0), BuildingBlock: UVAHIK_clean_linker_0, # of connection points: 2
#     Edge 61, Type (0, 0), BuildingBlock: UVAHIK_clean_linker_0, # of connection points: 2
#     Edge 62, Type (0, 0), BuildingBlock: UVAHIK_clean_linker_0, # of connection points: 2
#     Edge 63, Type (0, 0), BuildingBlock: UVAHIK_clean_linker_0, # of connection points: 2
#     Edge 64, Type (0, 0), BuildingBlock: UVAHIK_clean_linker_0, # of connection points: 2
#     Edge 65, Type (0, 0), BuildingBlock: UVAHIK_clean_linker_0, # of connection points: 2
#     Edge 66, Type (0, 0), BuildingBlock: UVAHIK_clean_linker_0, # of connection points: 2
#     Edge 67, Type (0, 0), BuildingBlock: UVAHIK_clean_linker_0, # of connection points: 2
#     Edge 68, Type (0, 0), BuildingBlock: UVAHIK_clean_linker_0, # of connection points: 2
#     Edge 69, Type (0, 0), BuildingBlock: UVAHIK_clean_linker_0, # of connection points: 2
#     Edge 70, Type (0, 0), BuildingBlock: UVAHIK_clean_linker_0, # of connection points: 2
#     Edge 71, Type (0, 0), BuildingBlock: UVAHIK_clean_linker_0, # of connection points: 2
#     Edge 72, Type (0, 0), BuildingBlock: UVAHIK_clean_linker_0, # of connection points: 2
#     Edge 73, Type (0, 0), BuildingBlock: UVAHIK_clean_linker_0, # of connection points: 2
#     Edge 74, Type (0, 0), BuildingBlock: UVAHIK_clean_linker_0, # of connection points: 2
#     Edge 75, Type (0, 0), BuildingBlock: UVAHIK_clean_linker_0, # of connection points: 2
#     Edge 76, Type (0, 0), BuildingBlock: UVAHIK_clean_linker_0, # of connection points: 2
#     Edge 77, Type (0, 0), BuildingBlock: UVAHIK_clean_linker_0, # of connection points: 2
#     Edge 78, Type (0, 0), BuildingBlock: UVAHIK_clean_linker_0, # of connection points: 2
#     Edge 79, Type (0, 0), BuildingBlock: UVAHIK_clean_linker_0, # of connection points: 2
#     Edge 80, Type (0, 0), BuildingBlock: UVAHIK_clean_linker_0, # of connection points: 2
#     Edge 81, Type (0, 0), BuildingBlock: UVAHIK_clean_linker_0, # of connection points: 2
#     Edge 82, Type (0, 0), BuildingBlock: UVAHIK_clean_linker_0, # of connection points: 2
#     Edge 83, Type (0, 0), BuildingBlock: UVAHIK_clean_linker_0, # of connection points: 2
#     Edge 84, Type (0, 0), BuildingBlock: UVAHIK_clean_linker_0, # of connection points: 2
#     Edge 85, Type (0, 0), BuildingBlock: UVAHIK_clean_linker_0, # of connection points: 2
#     Edge 86, Type (0, 0), BuildingBlock: UVAHIK_clean_linker_0, # of connection points: 2
#     Edge 87, Type (0, 0), BuildingBlock: UVAHIK_clean_linker_0, # of connection points: 2
#     Edge 88, Type (0, 0), BuildingBlock: UVAHIK_clean_linker_0, # of connection points: 2
#     Edge 89, Type (0, 0), BuildingBlock: UVAHIK_clean_linker_0, # of connection points: 2
#     Edge 90, Type (0, 0), BuildingBlock: UVAHIK_clean_linker_0, # of connection points: 2
#     Edge 91, Type (0, 0), BuildingBlock: UVAHIK_clean_linker_0, # of connection points: 2
#     Edge 92, Type (0, 0), BuildingBlock: UVAHIK_clean_linker_0, # of connection points: 2
#     Edge 93, Type (0, 0), BuildingBlock: UVAHIK_clean_linker_0, # of connection points: 2
#     Edge 94, Type (0, 0), BuildingBlock: UVAHIK_clean_linker_0, # of connection points: 2
#     Edge 95, Type (0, 0), BuildingBlock: UVAHIK_clean_linker_0, # of connection points: 2
#     Edge 96, Type (0, 0), BuildingBlock: UVAHIK_clean_linker_0, # of connection points: 2
#     Edge 97, Type (0, 0), BuildingBlock: UVAHIK_clean_linker_0, # of connection points: 2
#     Edge 98, Type (0, 0), BuildingBlock: UVAHIK_clean_linker_0, # of connection points: 2
#     Edge 99, Type (0, 0), BuildingBlock: UVAHIK_clean_linker_0, # of connection points: 2
#     Edge 100, Type (0, 0), BuildingBlock: UVAHIK_clean_linker_0, # of connection points: 2
#     Edge 101, Type (0, 0), BuildingBlock: UVAHIK_clean_linker_0, # of connection points: 2
#     Edge 102, Type (0, 0), BuildingBlock: UVAHIK_clean_linker_0, # of connection points: 2
#     Edge 103, Type (0, 0), BuildingBlock: UVAHIK_clean_linker_0, # of connection points: 2
#     Edge 104, Type (0, 0), BuildingBlock: UVAHIK_clean_linker_0, # of connection points: 2
#     Edge 105, Type (0, 0), BuildingBlock: UVAHIK_clean_linker_0, # of connection points: 2
#     Edge 106, Type (0, 0), BuildingBlock: UVAHIK_clean_linker_0, # of connection points: 2
#     Edge 107, Type (0, 0), BuildingBlock: UVAHIK_clean_linker_0, # of connection points: 2
#     Edge 108, Type (0, 0), BuildingBlock: UVAHIK_clean_linker_0, # of connection points: 2
#     Edge 109, Type (0, 0), BuildingBlock: UVAHIK_clean_linker_0, # of connection points: 2
#     Edge 110, Type (0, 0), BuildingBlock: UVAHIK_clean_linker_0, # of connection points: 2
#     Edge 111, Type (0, 0), BuildingBlock: UVAHIK_clean_linker_0, # of connection points: 2
# Relax obj value: 0.249
# Max RMSD: 0.167
# Mean RMSD: 0.167
data_MOF--net-wgo--node1-BEQFEK_clean_sbu_0--edge1-UVAHIK_clean_linker_0
_symmetry_space_group_name_H-M    P1
_symmetry_Int_Tables_number       1
_symmetry_cell_setting            triclinic
loop_
_symmetry_equiv_pos_as_xyz
'x, y, z'
_cell_length_a     44.120003
_cell_length_b     44.110391
_cell_length_c     140.12978
_cell_angle_alpha  89.99638
_cell_angle_beta   89.953537
_cell_angle_gamma 89.993663
loop_
_atom_site_label
_atom_site_type_symbol
_atom_site_fract_x
_atom_site_fract_y
_atom_site_fract_z
_atom_type_partial_charge
Co0 Co 0.4611 0.02512 0.07607 0.0
Co1 Co 0.39984 0.0527 0.06949 0.0
C2 C 0.44138 0.02454 0.05541 0.0
O3 O 0.45992 0.01936 0.06213 0.0
O4 O 0.41593 0.03707 0.05708 0.0
C5 C 0.50093 0.97608 0.07621 0.0
O6 O 0.47885 0.96398 0.0712 0.0
C7 C 0.33619 0.0562 0.06354 0.0
C8 C 0.32371 0.10182 0.06876 0.0
C9 C 0.31205 0.0762 0.06441 0.0
N10 N 0.36078 0.06924 0.0674 0.0
N11 N 0.3533 0.0967 0.07035 0.0
C12 C 0.33635 0.02573 0.05882 0.0
H13 H 0.35821 0.02209 0.05508 0.0
H14 H 0.33406 0.00769 0.06427 0.0
H15 H 0.31738 0.02369 0.05366 0.0
C16 C 0.4211 0.99346 0.0898 0.0
N17 N 0.42525 0.01128 0.0821 0.0
N18 N 0.39906 0.02291 0.07947 0.0
C19 C 0.37739 0.01308 0.08556 0.0
C20 C 0.39061 0.99385 0.09222 0.0
C21 C 0.44621 0.97733 0.09487 0.0
H22 H 0.46426 0.99379 0.09676 0.0
H23 H 0.45624 0.96025 0.09 0.0
H24 H 0.43819 0.96555 0.10139 0.0
O25 O 0.46835 0.06854 0.07892 0.0
O26 O 0.42462 0.08725 0.07379 0.0
H27 H 0.33545 0.02166 0.09312 0.0
H28 H 0.33153 0.01354 0.08064 0.0
C29 C 0.34575 0.02531 0.08598 0.0
H30 H 0.34573 0.0499 0.08441 0.0
H31 H 0.36818 0.11162 0.07373 0.0
O32 O 0.49694 0.00196 0.07998 0.0
C33 C 0.45075 0.09091 0.07744 0.0
Co34 Co 0.21407 0.21127 0.32549 0.0
Co35 Co 0.18844 0.14889 0.31917 0.0
C36 C 0.2167 0.18881 0.30494 0.0
O37 O 0.22066 0.208 0.31158 0.0
O38 O 0.20466 0.16313 0.30665 0.0
C39 C 0.26358 0.25082 0.32584 0.0
O40 O 0.27683 0.2275 0.32175 0.0
C41 C 0.18266 0.08493 0.31348 0.0
C42 C 0.14098 0.07211 0.32126 0.0
C43 C 0.16375 0.0606 0.31551 0.0
N44 N 0.1717 0.10951 0.31795 0.0
N45 N 0.14648 0.10182 0.32243 0.0
C46 C 0.20999 0.0854 0.30713 0.0
H47 H 0.22729 0.10122 0.31 0.0
H48 H 0.21976 0.06247 0.30614 0.0
H49 H 0.2031 0.09411 0.30003 0.0
C50 C 0.24536 0.17309 0.33981 0.0
N51 N 0.22792 0.17646 0.332 0.0
N52 N 0.21815 0.14975 0.32917 0.0
C53 C 0.22958 0.12835 0.33505 0.0
C54 C 0.24714 0.14243 0.34203 0.0
C55 C 0.25732 0.19908 0.34555 0.0
H56 H 0.24177 0.21875 0.34502 0.0
H57 H 0.27974 0.20588 0.34267 0.0
H58 H 0.26005 0.19274 0.35316 0.0
O59 O 0.17076 0.21829 0.32807 0.0
O60 O 0.15323 0.1742 0.3229 0.0
H61 H 0.19989 0.09 0.3354 0.0
H62 H 0.23865 0.08129 0.33867 0.0
C63 C 0.22406 0.09505 0.33392 0.0
H64 H 0.22909 0.08836 0.32649 0.0
H65 H 0.13364 0.11661 0.32661 0.0
O66 O 0.23671 0.24788 0.32896 0.0
C67 C 0.14877 0.20042 0.32641 0.0
Co68 Co 0.03055 0.96925 0.57615 0.0
Co69 Co 0.09217 0.9429 0.56918 0.0
C70 C 0.05072 0.97182 0.55541 0.0
O71 O 0.0322 0.97635 0.56222 0.0
O72 O 0.07625 0.9592 0.55691 0.0
C73 C 0.9903 0.01853 0.57732 0.0
O74 O 0.0123 0.03228 0.57271 0.0
C75 C 0.15496 0.93413 0.5621 0.0
C76 C 0.16822 0.89399 0.57058 0.0
C77 C 0.17895 0.9146 0.56395 0.0
N78 N 0.13131 0.92563 0.56753 0.0
N79 N 0.1393 0.90137 0.57247 0.0
C80 C 0.15421 0.95986 0.55513 0.0
H81 H 0.15686 0.98165 0.55898 0.0
H82 H 0.17267 0.95773 0.54979 0.0
H83 H 0.13207 0.96037 0.55141 0.0
C84 C 0.07061 -0.00047 0.59016 0.0
N85 N 0.06622 0.98248 0.58232 0.0
N86 N 0.0925 0.97247 0.57918 0.0
C87 C 0.11463 0.98339 0.58487 0.0
C88 C 0.10152 0.00084 0.59207 0.0
C89 C 0.04535 0.01131 0.59626 0.0
H90 H 0.02558 0.99585 0.59589 0.0
H91 H 0.0383 0.03389 0.59357 0.0
H92 H 0.05252 0.01361 0.60381 0.0
O93 O 0.02344 0.92587 0.57859 0.0
O94 O 0.06703 0.90792 0.57314 0.0
H95 H 0.15282 0.95367 0.58567 0.0
H96 H 0.16204 0.99328 0.58746 0.0
C97 C 0.14765 0.97722 0.5834 0.0
H98 H 0.15324 0.9794 0.57575 0.0
H99 H 0.1252 0.89027 0.57731 0.0
O100 O 0.99447 0.99165 0.5803 0.0
C101 C 0.04098 0.90372 0.5768 0.0
Co102 Co 0.27181 0.78064 0.82604 0.0
Co103 Co 0.29998 0.84159 0.81935 0.0
C104 C 0.27184 0.79989 0.80533 0.0
O105 O 0.2663 0.78152 0.81209 0.0
O106 O 0.28458 0.82526 0.80696 0.0
C107 C 0.22279 0.74051 0.82635 0.0
O108 O 0.21062 0.76206 0.82113 0.0
C109 C 0.30488 0.90492 0.81298 0.0
C110 C 0.34995 0.91717 0.81869 0.0
C111 C 0.32519 0.9288 0.81386 0.0
N112 N 0.31696 0.8805 0.81725 0.0
N113 N 0.34407 0.88786 0.82051 0.0
C114 C 0.27511 0.90481 0.80785 0.0
H115 H 0.25645 0.90881 0.81298 0.0
H116 H 0.27447 0.92284 0.80232 0.0
H117 H 0.27118 0.88243 0.80448 0.0
C118 C 0.23994 0.82116 0.83952 0.0
N119 N 0.25808 0.81669 0.83192 0.0
N120 N 0.26981 0.84276 0.82921 0.0
C121 C 0.25956 0.86473 0.83512 0.0
C122 C 0.2401 0.85177 0.84178 0.0
C123 C 0.22371 0.79626 0.84468 0.0
H124 H 0.24004 0.77811 0.84657 0.0
H125 H 0.20646 0.7863 0.83986 0.0
H126 H 0.21213 0.80451 0.8512 0.0
O127 O 0.31504 0.77329 0.82899 0.0
O128 O 0.33436 0.81658 0.82373 0.0
H129 H 0.26605 0.90793 0.84217 0.0
H130 H 0.26051 0.90974 0.82949 0.0
C131 C 0.27126 0.89659 0.8353 0.0
H132 H 0.29612 0.89669 0.83419 0.0
H133 H 0.35826 0.87308 0.82423 0.0
O134 O 0.24862 0.74497 0.8301 0.0
C135 C 0.33767 0.79052 0.82747 0.0
Co136 Co 0.46107 0.96898 0.43912 0.0
Co137 Co 0.39916 0.94336 0.44609 0.0
C138 C 0.44103 0.97133 0.45989 0.0
O139 O 0.45956 0.97564 0.45307 0.0
O140 O 0.41527 0.95919 0.45841 0.0
C141 C 0.50151 0.01798 0.43812 0.0
O142 O 0.47939 0.03167 0.4427 0.0
C143 C 0.3362 0.93485 0.45312 0.0
C144 C 0.32278 0.8951 0.44449 0.0
C145 C 0.31213 0.91551 0.45119 0.0
N146 N 0.35985 0.92642 0.44767 0.0
N147 N 0.35174 0.9024 0.44264 0.0
C148 C 0.33702 0.96029 0.46019 0.0
H149 H 0.33382 0.9822 0.45645 0.0
H150 H 0.31887 0.95768 0.46562 0.0
H151 H 0.35936 0.96097 0.46379 0.0
C152 C 0.4213 0.00044 0.42527 0.0
N153 N 0.42554 0.98294 0.43303 0.0
N154 N 0.39916 0.97324 0.43617 0.0
C155 C 0.37712 0.98481 0.43057 0.0
C156 C 0.39039 0.00239 0.42343 0.0
C157 C 0.44665 0.01213 0.41919 0.0
H158 H 0.46625 -0.00357 0.4195 0.0
H159 H 0.45397 0.03454 0.42195 0.0
H160 H 0.43942 0.01476 0.41165 0.0
O161 O 0.4676 0.9256 0.4365 0.0
O162 O 0.42393 0.90816 0.44205 0.0
H163 H 0.33836 0.95587 0.42971 0.0
H164 H 0.32984 0.99574 0.42815 0.0
C165 C 0.34402 0.97918 0.43209 0.0
H166 H 0.33867 0.98105 0.43977 0.0
H167 H 0.3658 0.8914 0.43776 0.0
O168 O 0.49738 0.99119 0.43507 0.0
C169 C 0.44981 0.90365 0.43831 0.0
Co170 Co 0.27701 0.20909 0.68963 0.0
Co171 Co 0.30379 0.1477 0.69655 0.0
C172 C 0.2748 0.18909 0.71036 0.0
O173 O 0.27012 0.20757 0.70356 0.0
O174 O 0.28754 0.16362 0.70886 0.0
C175 C 0.22719 0.24838 0.68846 0.0
O176 O 0.21448 0.22679 0.69353 0.0
C177 C 0.3119 0.08506 0.70363 0.0
C178 C 0.35138 0.07083 0.695 0.0
C179 C 0.33064 0.06053 0.70166 0.0
N180 N 0.32089 0.10855 0.69822 0.0
N181 N 0.34482 0.10002 0.69321 0.0
C182 C 0.28637 0.0865 0.71067 0.0
H183 H 0.26441 0.08688 0.70684 0.0
H184 H 0.28684 0.06685 0.71562 0.0
H185 H 0.28799 0.10773 0.71487 0.0
C186 C 0.24632 0.1689 0.67579 0.0
N187 N 0.26384 0.17333 0.68352 0.0
N188 N 0.274 0.14708 0.68661 0.0
C189 C 0.26271 0.1249 0.681 0.0
C190 C 0.2448 0.13799 0.67391 0.0
C191 C 0.23419 0.19412 0.66974 0.0
H192 H 0.24994 0.2137 0.66988 0.0
H193 H 0.21201 0.20156 0.67265 0.0
H194 H 0.231 0.18676 0.66224 0.0
O195 O 0.32028 0.21642 0.68709 0.0
O196 O 0.33867 0.17294 0.69249 0.0
H197 H 0.29246 0.08673 0.68017 0.0
H198 H 0.25289 0.07746 0.67837 0.0
C199 C 0.26891 0.09186 0.68244 0.0
H200 H 0.2667 0.0862 0.69008 0.0
H201 H 0.35611 0.11389 0.68834 0.0
O202 O 0.25402 0.24464 0.68539 0.0
C203 C 0.34259 0.19903 0.68883 0.0
Co204 Co 0.03073 0.02775 0.93976 0.0
Co205 Co 0.09309 0.05324 0.94625 0.0
C206 C 0.05211 0.02549 0.96038 0.0
O207 O 0.03316 0.02124 0.95369 0.0
O208 O 0.07781 0.03752 0.95871 0.0
C209 C 0.99093 0.97849 0.93922 0.0
O210 O 0.01395 0.9651 0.94342 0.0
C211 C 0.1564 0.06068 0.95282 0.0
C212 C 0.17009 0.10037 0.94419 0.0
C213 C 0.18079 0.07946 0.95073 0.0
N214 N 0.13256 0.06985 0.94759 0.0
N215 N 0.1408 0.09386 0.94258 0.0
C216 C 0.15545 0.03497 0.95979 0.0
H217 H 0.15579 0.0131 0.9559 0.0
H218 H 0.17502 0.03583 0.96476 0.0
H219 H 0.13411 0.03591 0.96396 0.0
C220 C 0.06954 0.99607 0.92563 0.0
N221 N 0.06584 0.01358 0.93342 0.0
N222 N 0.09243 0.02343 0.93632 0.0
C223 C 0.11404 0.01216 0.93048 0.0
C224 C 0.10026 0.99448 0.92348 0.0
C225 C 0.04382 0.98393 0.91982 0.0
H226 H 0.02416 -0.00044 0.92019 0.0
H227 H 0.03681 0.96165 0.92275 0.0
H228 H 0.05052 0.98086 0.91224 0.0
O229 O 0.024 0.0712 0.93716 0.0
O230 O 0.06828 0.08838 0.94229 0.0
H231 H 0.15193 0.04217 0.92942 0.0
H232 H 0.16117 0.0028 0.9272 0.0
C233 C 0.14719 0.01843 0.93156 0.0
H234 H 0.15376 0.01568 0.93912 0.0
H235 H 0.12663 0.10531 0.93784 0.0
O236 O 0.99421 0.00532 0.9361 0.0
C237 C 0.04214 0.09301 0.93876 0.0
Co238 Co 0.21804 0.78209 0.18943 0.0
Co239 Co 0.19 0.84266 0.19646 0.0
C240 C 0.21869 0.80037 0.21022 0.0
O241 O 0.22408 0.78228 0.20337 0.0
O242 O 0.20582 0.82575 0.20871 0.0
C243 C 0.26687 0.74186 0.18881 0.0
O244 O 0.27927 0.76322 0.19405 0.0
C245 C 0.18578 0.90555 0.20319 0.0
C246 C 0.14063 0.91856 0.19771 0.0
C247 C 0.1657 0.92969 0.2025 0.0
N248 N 0.17329 0.8815 0.19884 0.0
N249 N 0.14612 0.88928 0.19572 0.0
C250 C 0.21577 0.90484 0.20819 0.0
H251 H 0.2192 0.8825 0.21164 0.0
H252 H 0.23429 0.90801 0.20294 0.0
H253 H 0.21719 0.92303 0.21364 0.0
C254 C 0.24945 0.82325 0.17601 0.0
N255 N 0.23158 0.81841 0.18365 0.0
N256 N 0.21984 0.84433 0.1865 0.0
C257 C 0.22977 0.86656 0.18064 0.0
C258 C 0.24904 0.85395 0.17386 0.0
C259 C 0.26569 0.79861 0.17073 0.0
H260 H 0.2493 0.78069 0.16868 0.0
H261 H 0.28275 0.78821 0.17552 0.0
H262 H 0.27749 0.80722 0.1643 0.0
O263 O 0.17469 0.77494 0.18659 0.0
O264 O 0.15543 0.81798 0.19206 0.0
H265 H 0.19305 0.89825 0.18181 0.0
H266 H 0.22277 0.91 0.17377 0.0
C267 C 0.21787 0.89836 0.18062 0.0
H268 H 0.22873 0.91135 0.18645 0.0
H269 H 0.13165 0.87484 0.19198 0.0
O270 O 0.24098 0.74656 0.18513 0.0
C271 C 0.15207 0.79207 0.18823 0.0
Co272 Co 0.53157 0.96519 0.9392 0.0
Co273 Co 0.59423 0.94184 0.9462 0.0
C274 C 0.55159 0.96864 0.95998 0.0
O275 O 0.53293 0.9721 0.95316 0.0
O276 O 0.57776 0.95739 0.9585 0.0
C277 C 0.49099 0.0137 0.93811 0.0
O278 O 0.51362 0.02773 0.94231 0.0
C279 C 0.65728 0.93476 0.95325 0.0
C280 C 0.67164 0.89528 0.94463 0.0
C281 C 0.68174 0.91584 0.95136 0.0
N282 N 0.63393 0.92591 0.94775 0.0
N283 N 0.6426 0.90208 0.94273 0.0
C284 C 0.65583 0.96021 0.96031 0.0
H285 H 0.63342 0.96047 0.96387 0.0
H286 H 0.65868 0.98214 0.95655 0.0
H287 H 0.67392 0.95798 0.96577 0.0
C288 C 0.57046 -0.00277 0.92516 0.0
N289 N 0.56671 0.98011 0.93303 0.0
N290 N 0.59337 0.97142 0.93622 0.0
C291 C 0.61507 0.98327 0.93054 0.0
C292 C 0.60132 -5e-05 0.92329 0.0
C293 C 0.54482 0.00771 0.919 0.0
H294 H 0.52554 0.99166 0.91951 0.0
H295 H 0.53707 0.03027 0.92152 0.0
H296 H 0.55195 0.00968 0.91143 0.0
O297 O 0.52619 0.92156 0.93663 0.0
O298 O 0.57054 0.90599 0.94217 0.0
H299 H 0.65462 0.95539 0.92973 0.0
H300 H 0.66201 0.99542 0.92805 0.0
C301 C 0.64831 0.97859 0.93206 0.0
H302 H 0.65362 0.9808 0.93973 0.0
H303 H 0.62886 0.89084 0.93782 0.0
O304 O 0.49477 0.98665 0.93524 0.0
C305 C 0.54488 0.90039 0.93845 0.0
Co306 Co 0.77231 0.78104 0.6902 0.0
Co307 Co 0.80119 0.84241 0.69622 0.0
C308 C 0.77251 0.80295 0.7107 0.0
O309 O 0.76714 0.78395 0.70411 0.0
O310 O 0.78531 0.82817 0.70885 0.0
C311 C 0.72256 0.74158 0.69044 0.0
O312 O 0.7102 0.76432 0.69509 0.0
C313 C 0.80665 0.9069 0.70111 0.0
C314 C 0.85233 0.91723 0.6955 0.0
C315 C 0.82723 0.93032 0.69975 0.0
N316 N 0.81895 0.8813 0.69768 0.0
N317 N 0.84646 0.88752 0.6945 0.0
C318 C 0.77642 0.90818 0.70597 0.0
H319 H 0.7613 0.89017 0.70315 0.0
H320 H 0.76562 0.93072 0.70522 0.0
H321 H 0.77977 0.90384 0.71369 0.0
C322 C 0.74015 0.82046 0.67645 0.0
N323 N 0.75875 0.8165 0.68396 0.0
N324 N 0.77112 0.84264 0.6863 0.0
C325 C 0.76111 0.86403 0.68015 0.0
C326 C 0.74094 0.8507 0.67379 0.0
C327 C 0.72441 0.79516 0.67135 0.0
H328 H 0.73985 0.77543 0.6707 0.0
H329 H 0.70441 0.78802 0.67559 0.0
H330 H 0.71669 0.80221 0.66415 0.0
O331 O 0.81539 0.77286 0.68723 0.0
O332 O 0.83518 0.81626 0.6922 0.0
H333 H 0.79659 0.89722 0.68049 0.0
H334 H 0.76384 0.90862 0.67363 0.0
C335 C 0.77152 0.89633 0.68008 0.0
H336 H 0.76201 0.90811 0.68638 0.0
H337 H 0.86083 0.87169 0.69131 0.0
O338 O 0.74867 0.74501 0.68677 0.0
C339 C 0.83822 0.78989 0.68866 0.0
Co340 Co 0.96196 0.02317 0.43936 0.0
Co341 Co 0.90101 0.05284 0.44553 0.0
C342 C 0.94101 0.02424 0.45992 0.0
O343 O 0.95968 0.01815 0.45329 0.0
O344 O 0.91602 0.0375 0.4581 0.0
C345 C 0.00137 0.97324 0.43937 0.0
O346 O 0.97889 0.96086 0.44413 0.0
C347 C 0.83766 0.06048 0.45179 0.0
C348 C 0.82538 0.10263 0.44418 0.0
C349 C 0.81374 0.08015 0.45001 0.0
N350 N 0.8621 0.07062 0.44705 0.0
N351 N 0.85474 0.0961 0.44266 0.0
C352 C 0.83765 0.03298 0.45807 0.0
H353 H 0.85886 0.03218 0.46229 0.0
H354 H 0.83687 0.01222 0.45362 0.0
H355 H 0.81793 0.03307 0.46299 0.0
C356 C 0.92162 0.99127 0.4258 0.0
N357 N 0.92614 0.0098 0.4333 0.0
N358 N 0.90022 0.02235 0.43578 0.0
C359 C 0.87838 0.01242 0.4298 0.0
C360 C 0.89119 0.99225 0.42332 0.0
C361 C 0.94657 0.97562 0.42049 0.0
H362 H 0.96647 0.99087 0.4199 0.0
H363 H 0.95359 0.9552 0.42455 0.0
H364 H 0.93925 0.96856 0.41325 0.0
O365 O 0.97022 0.06618 0.43632 0.0
O366 O 0.92704 0.08658 0.44125 0.0
H367 H 0.84558 0.04805 0.42894 0.0
H368 H 0.83221 0.01201 0.42443 0.0
C369 C 0.84619 0.02313 0.42999 0.0
H370 H 0.8361 0.01798 0.43702 0.0
H371 H 0.86951 0.10853 0.43836 0.0
O372 O -0.00226 -0.00063 0.43573 0.0
C373 C 0.9534 0.08922 0.43767 0.0
Co374 Co 0.71627 0.20924 0.18956 0.0
Co375 Co 0.68794 0.14889 0.19672 0.0
C376 C 0.71713 0.19139 0.21036 0.0
O377 O 0.72258 0.20936 0.20349 0.0
O378 O 0.70406 0.16608 0.2089 0.0
C379 C 0.76533 0.24935 0.18859 0.0
O380 O 0.77739 0.22881 0.19422 0.0
C381 C 0.684 0.08604 0.2035 0.0
C382 C 0.63865 0.07296 0.19821 0.0
C383 C 0.66397 0.06183 0.20286 0.0
N384 N 0.67124 0.11011 0.19923 0.0
N385 N 0.64395 0.10229 0.19623 0.0
C386 C 0.71422 0.08682 0.20836 0.0
H387 H 0.71769 0.10913 0.21182 0.0
H388 H 0.73251 0.08384 0.20301 0.0
H389 H 0.716 0.06856 0.21378 0.0
C390 C 0.74702 0.16765 0.17613 0.0
N391 N 0.72949 0.17269 0.18383 0.0
N392 N 0.71756 0.1469 0.18672 0.0
C393 C 0.727 0.12456 0.18081 0.0
C394 C 0.74616 0.13697 0.17396 0.0
C395 C 0.76327 0.19211 0.17077 0.0
H396 H 0.74686 0.20993 0.16863 0.0
H397 H 0.78027 0.20271 0.17553 0.0
H398 H 0.77514 0.18328 0.16437 0.0
O399 O 0.67286 0.21646 0.18676 0.0
O400 O 0.65342 0.17359 0.19232 0.0
H401 H 0.71909 0.08131 0.17392 0.0
H402 H 0.72535 0.07972 0.18657 0.0
C403 C 0.71457 0.09297 0.18079 0.0
H404 H 0.68978 0.09348 0.18204 0.0
H405 H 0.62928 0.11672 0.19256 0.0
O406 O 0.73936 0.24442 0.185 0.0
C407 C 0.65017 0.19945 0.18844 0.0
Co408 Co 0.52898 0.02223 0.57606 0.0
Co409 Co 0.59025 0.05148 0.56999 0.0
C410 C 0.55024 0.0235 0.55551 0.0
O411 O 0.53146 0.01753 0.56212 0.0
O412 O 0.57536 0.03646 0.55736 0.0
C413 C 0.48951 0.97242 0.57588 0.0
O414 O 0.51211 0.96011 0.57115 0.0
C415 C 0.65384 0.05934 0.5639 0.0
C416 C 0.66577 0.10129 0.57167 0.0
C417 C 0.67763 0.07906 0.56579 0.0
N418 N 0.62924 0.06923 0.56862 0.0
N419 N 0.63642 0.09457 0.57311 0.0
C420 C 0.65412 0.03207 0.55753 0.0
H421 H 0.65584 0.01119 0.5619 0.0
H422 H 0.67353 0.03288 0.55249 0.0
H423 H 0.63266 0.03081 0.55345 0.0
C424 C 0.56895 0.98972 0.5896 0.0
N425 N 0.56464 0.00847 0.58214 0.0
N426 N 0.59068 0.02083 0.57969 0.0
C427 C 0.61239 0.01058 0.58567 0.0
C428 C 0.59936 0.99037 0.59209 0.0
C429 C 0.54385 0.97409 0.59484 0.0
H430 H 0.52402 0.98943 0.59544 0.0
H431 H 0.53679 0.9538 0.59073 0.0
H432 H 0.55107 0.96684 0.60207 0.0
O433 O 0.52091 0.06526 0.57917 0.0
O434 O 0.56429 0.08527 0.57427 0.0
H435 H 0.64547 0.0459 0.58665 0.0
H436 H 0.65851 0.00963 0.59107 0.0
C437 C 0.64467 0.02103 0.58553 0.0
H438 H 0.65475 0.01599 0.57849 0.0
H439 H 0.6215 0.10682 0.57742 0.0
O440 O 0.49305 -0.0015 0.57956 0.0
C441 C 0.53795 0.08815 0.57784 0.0
Co442 Co 0.72073 0.78258 0.32536 0.0
Co443 Co 0.68972 0.84284 0.31919 0.0
C444 C 0.71795 0.80317 0.30471 0.0
O445 O 0.72415 0.78463 0.31136 0.0
O446 O 0.70498 0.82832 0.30653 0.0
C447 C 0.77193 0.74571 0.32442 0.0
O448 O 0.78045 0.76737 0.31857 0.0
C449 C 0.68203 0.90676 0.31401 0.0
C450 C 0.63622 0.91604 0.3197 0.0
C451 C 0.66084 0.92965 0.31533 0.0
N452 N 0.67057 0.88098 0.31759 0.0
N453 N 0.64296 0.88654 0.3208 0.0
C454 C 0.71209 0.90868 0.30907 0.0
H455 H 0.72787 0.89139 0.31198 0.0
H456 H 0.72215 0.93162 0.30963 0.0
H457 H 0.70871 0.90364 0.30139 0.0
C458 C 0.7525 0.82375 0.33862 0.0
N459 N 0.73364 0.81896 0.33122 0.0
N460 N 0.72048 0.84465 0.32883 0.0
C461 C 0.73018 0.86657 0.33484 0.0
C462 C 0.75103 0.85408 0.34115 0.0
C463 C 0.76903 0.79907 0.34378 0.0
H464 H 0.75366 0.77949 0.34491 0.0
H465 H 0.7883 0.7913 0.33931 0.0
H466 H 0.77787 0.80691 0.35076 0.0
O467 O 0.67814 0.773 0.3288 0.0
O468 O 0.65722 0.81588 0.32377 0.0
H469 H 0.69358 0.89855 0.33453 0.0
H470 H 0.72608 0.91114 0.3413 0.0
C471 C 0.71867 0.8985 0.33488 0.0
H472 H 0.72768 0.91048 0.32855 0.0
H473 H 0.62912 0.87044 0.32409 0.0
O474 O 0.747 0.74838 0.3289 0.0
C475 C 0.65496 0.78969 0.32749 0.0
Co476 Co 0.95881 0.96806 0.07647 0.0
Co477 Co 0.89877 0.93942 0.06925 0.0
C478 C 0.94123 0.969 0.05566 0.0
O479 O 0.95906 0.97458 0.06255 0.0
O480 O 0.91602 0.95571 0.0571 0.0
C481 C -0.00111 0.01707 0.07743 0.0
O482 O 0.97799 0.02949 0.07201 0.0
C483 C 0.83612 0.93538 0.06237 0.0
C484 C 0.82313 0.88978 0.06749 0.0
C485 C 0.81202 0.91521 0.06288 0.0
N486 N 0.86013 0.92261 0.06666 0.0
N487 N 0.85238 0.89517 0.06956 0.0
C488 C 0.83686 0.96578 0.05761 0.0
H489 H 0.85924 0.9695 0.05421 0.0
H490 H 0.83362 0.98387 0.063 0.0
H491 H 0.81874 0.96764 0.05215 0.0
C492 C 0.91693 -0.00149 0.08989 0.0
N493 N 0.92217 0.98101 0.08219 0.0
N494 N 0.89649 0.96893 0.07928 0.0
C495 C 0.87403 0.97823 0.08517 0.0
C496 C 0.88623 -0.00254 0.09202 0.0
C497 C 0.94122 0.01497 0.09525 0.0
H498 H 0.95908 -0.00132 0.09743 0.0
H499 H 0.95181 0.03195 0.09046 0.0
H500 H 0.93223 0.0269 0.10161 0.0
O501 O 0.96627 0.92465 0.0792 0.0
O502 O 0.92357 0.90494 0.07364 0.0
H503 H 0.84311 0.94092 0.0838 0.0
H504 H 0.83086 0.96982 0.09205 0.0
C505 C 0.84251 0.96565 0.08515 0.0
H506 H 0.8292 0.97664 0.07942 0.0
H507 H 0.86679 0.88044 0.07321 0.0
O508 O 0.99396 0.9911 0.08102 0.0
C509 C 0.94945 0.90184 0.0775 0.0
Co510 Co 0.77883 0.20939 0.82595 0.0
Co511 Co 0.80284 0.14714 0.8188 0.0
C512 C 0.77624 0.19034 0.8051 0.0
O513 O 0.77231 0.20879 0.81196 0.0
O514 O 0.78765 0.16421 0.80654 0.0
C515 C 0.73033 0.25014 0.8273 0.0
O516 O 0.7168 0.22877 0.82235 0.0
C517 C 0.80982 0.08452 0.81141 0.0
C518 C 0.84911 0.06949 0.81998 0.0
C519 C 0.82853 0.05984 0.81319 0.0
N520 N 0.81879 0.10755 0.81702 0.0
N521 N 0.84253 0.0985 0.82201 0.0
C522 C 0.78445 0.08652 0.80434 0.0
H523 H 0.78499 0.10879 0.8007 0.0
H524 H 0.76242 0.08464 0.80811 0.0
H525 H 0.78607 0.06817 0.79895 0.0
C526 C 0.74626 0.1698 0.83965 0.0
N527 N 0.76388 0.17389 0.8319 0.0
N528 N 0.77288 0.14737 0.82867 0.0
C529 C 0.76077 0.12542 0.8342 0.0
C530 C 0.74351 0.13887 0.84138 0.0
C531 C 0.73529 0.19519 0.84584 0.0
H532 H 0.75168 0.21423 0.84569 0.0
H533 H 0.71323 0.20346 0.84308 0.0
H534 H 0.73219 0.18763 0.85333 0.0
O535 O 0.82235 0.21481 0.82867 0.0
O536 O 0.83849 0.17068 0.82308 0.0
H537 H 0.7889 0.08605 0.83499 0.0
H538 H 0.74887 0.07831 0.83652 0.0
C539 C 0.76573 0.09224 0.83261 0.0
H540 H 0.76384 0.08709 0.82492 0.0
H541 H 0.85382 0.11192 0.827 0.0
O542 O 0.75716 0.24569 0.83026 0.0
C543 C 0.84373 0.1963 0.8269 0.0
Co544 Co 0.95903 0.52832 0.5753 0.0
Co545 Co 0.89722 0.55356 0.5684 0.0
C546 C 0.93845 0.52477 0.5546 0.0
O547 O 0.95722 0.52099 0.56138 0.0
O548 O 0.91266 0.53683 0.55611 0.0
C549 C -0.00142 0.47884 0.57651 0.0
O550 O 0.97675 0.46582 0.57162 0.0
C551 C 0.83405 0.55944 0.56197 0.0
C552 C 0.82055 0.60134 0.56951 0.0
C553 C 0.80961 0.57852 0.56368 0.0
N554 N 0.85811 0.57034 0.56672 0.0
N555 N 0.85005 0.5957 0.57104 0.0
C556 C 0.83513 0.53196 0.5557 0.0
H557 H 0.84777 0.51344 0.55928 0.0
H558 H 0.81217 0.52421 0.55362 0.0
H559 H 0.84789 0.53773 0.54912 0.0
C560 C 0.91967 0.49788 0.5895 0.0
N561 N 0.9236 0.51484 0.58161 0.0
N562 N 0.8971 0.52443 0.57855 0.0
C563 C 0.87528 0.51343 0.58437 0.0
C564 C 0.88886 0.49623 0.59154 0.0
C565 C 0.94524 0.48643 0.59553 0.0
H566 H 0.9646 0.50242 0.59521 0.0
H567 H 0.95285 0.46418 0.59272 0.0
H568 H 0.93817 0.48357 0.60308 0.0
O569 O 0.96602 0.57181 0.5777 0.0
O570 O 0.92208 0.58882 0.57224 0.0
H571 H 0.83725 0.54352 0.58453 0.0
H572 H 0.828 0.50482 0.58775 0.0
C573 C 0.84212 0.51929 0.58306 0.0
H574 H 0.83574 0.51444 0.57559 0.0
H575 H 0.86438 0.60853 0.57536 0.0
O576 O 0.99489 0.50578 0.57949 0.0
C577 C 0.94805 0.59358 0.57587 0.0
Co578 Co 0.7129 0.71332 0.82671 0.0
Co579 Co 0.68922 0.65077 0.81987 0.0
C580 C 0.71678 0.6923 0.806 0.0
O581 O 0.71997 0.71114 0.81279 0.0
O582 O 0.70541 0.66619 0.8075 0.0
C583 C 0.76199 0.75288 0.82741 0.0
O584 O 0.77545 0.72941 0.82349 0.0
C585 C 0.6844 0.5872 0.81364 0.0
C586 C 0.64278 0.57328 0.82126 0.0
C587 C 0.66564 0.56255 0.81541 0.0
N588 N 0.67322 0.61123 0.81835 0.0
N589 N 0.64806 0.60288 0.82274 0.0
C590 C 0.71175 0.58851 0.80731 0.0
H591 H 0.72914 0.60372 0.81044 0.0
H592 H 0.72136 0.5657 0.80595 0.0
H593 H 0.70497 0.59845 0.80036 0.0
C594 C 0.74434 0.67486 0.84094 0.0
N595 N 0.72736 0.67836 0.83304 0.0
N596 N 0.71851 0.65161 0.82996 0.0
C597 C 0.73008 0.63008 0.83576 0.0
C598 C 0.74677 0.64409 0.84297 0.0
C599 C 0.7551 0.70072 0.84697 0.0
H600 H 0.73925 0.72014 0.84637 0.0
H601 H 0.77772 0.7081 0.8444 0.0
H602 H 0.75705 0.69396 0.85457 0.0
O603 O 0.66932 0.71935 0.8292 0.0
O604 O 0.65348 0.675 0.82371 0.0
H605 H 0.70131 0.59104 0.83591 0.0
H606 H 0.74036 0.58305 0.83902 0.0
C607 C 0.72532 0.59677 0.83439 0.0
H608 H 0.73026 0.59071 0.8269 0.0
H609 H 0.63507 0.61713 0.82706 0.0
O610 O 0.73495 0.75003 0.8304 0.0
C611 C 0.64803 0.70082 0.82736 0.0
Co612 Co 0.53191 0.46588 0.07584 0.0
Co613 Co 0.59391 0.44048 0.06891 0.0
C614 C 0.55191 0.46796 0.05506 0.0
O615 O 0.53341 0.47222 0.06189 0.0
O616 O 0.57775 0.45599 0.05655 0.0
C617 C 0.49185 0.51501 0.07671 0.0
O618 O 0.51446 0.52859 0.07235 0.0
C619 C 0.65689 0.43265 0.06191 0.0
C620 C 0.67102 0.39343 0.07067 0.0
C621 C 0.68135 0.4139 0.06393 0.0
N622 N 0.63337 0.42389 0.06735 0.0
N623 N 0.64187 0.40016 0.07245 0.0
C624 C 0.65558 0.45789 0.05477 0.0
H625 H 0.65706 0.48002 0.05849 0.0
H626 H 0.67445 0.45618 0.04955 0.0
H627 H 0.63368 0.45725 0.05091 0.0
C628 C 0.57145 0.49787 0.08961 0.0
N629 N 0.56733 0.48019 0.08189 0.0
N630 N 0.59377 0.47058 0.07878 0.0
C631 C 0.61574 0.48238 0.08436 0.0
C632 C 0.60234 0.50003 0.09146 0.0
C633 C 0.54603 0.5095 0.09568 0.0
H634 H 0.52647 0.49376 0.09536 0.0
H635 H 0.53868 0.5319 0.09292 0.0
H636 H 0.55322 0.51217 0.10322 0.0
O637 O 0.52566 0.42256 0.07857 0.0
O638 O 0.56938 0.40519 0.07304 0.0
H639 H 0.65459 0.45357 0.08525 0.0
H640 H 0.66295 0.49345 0.08684 0.0
C641 C 0.64887 0.47687 0.08288 0.0
H642 H 0.65433 0.47881 0.07521 0.0
H643 H 0.62798 0.38902 0.07735 0.0
O644 O 0.49551 0.48814 0.07975 0.0
C645 C 0.54354 0.40065 0.07681 0.0
Co646 Co 0.773 0.28123 0.3265 0.0
Co647 Co 0.79988 0.34306 0.31988 0.0
C648 C 0.77249 0.30156 0.30577 0.0
O649 O 0.76747 0.28293 0.31251 0.0
O650 O 0.78476 0.32718 0.30741 0.0
C651 C 0.72338 0.24175 0.32699 0.0
O652 O 0.71178 0.26302 0.32153 0.0
C653 C 0.80805 0.40669 0.31355 0.0
C654 C 0.84862 0.41885 0.32197 0.0
C655 C 0.82741 0.43068 0.31572 0.0
N656 N 0.81723 0.38222 0.31849 0.0
N657 N 0.84175 0.38957 0.32337 0.0
C658 C 0.78193 0.40644 0.30674 0.0
H659 H 0.77947 0.38373 0.30346 0.0
H660 H 0.76068 0.41154 0.31065 0.0
H661 H 0.78518 0.42361 0.30104 0.0
C662 C 0.7409 0.32125 0.34015 0.0
N663 N 0.75897 0.317 0.33252 0.0
N664 N 0.76949 0.34335 0.32961 0.0
C665 C 0.75821 0.36532 0.33531 0.0
C666 C 0.73968 0.35203 0.34217 0.0
C667 C 0.72573 0.29608 0.3455 0.0
H668 H 0.70769 0.28622 0.34095 0.0
H669 H 0.71522 0.30406 0.35223 0.0
H670 H 0.74243 0.27794 0.34705 0.0
O671 O 0.8163 0.27395 0.32938 0.0
O672 O 0.83423 0.31788 0.32418 0.0
H673 H 0.75703 0.41151 0.34065 0.0
H674 H 0.76126 0.40754 0.3279 0.0
C675 C 0.76768 0.39788 0.33491 0.0
H676 H 0.79265 0.3994 0.33563 0.0
H677 H 0.85325 0.37483 0.32792 0.0
O678 O 0.74955 0.24567 0.33055 0.0
C679 C 0.83839 0.29183 0.32783 0.0
Co680 Co 0.96024 0.4686 0.93954 0.0
Co681 Co 0.89888 0.44237 0.94674 0.0
C682 C 0.94123 0.47077 0.96038 0.0
O683 O 0.9595 0.47536 0.95351 0.0
O684 O 0.91554 0.45838 0.95896 0.0
C685 C 0.00016 0.51798 0.93806 0.0
O686 O 0.97909 0.53108 0.94325 0.0
C687 C 0.83648 0.43405 0.95415 0.0
C688 C 0.82233 0.39422 0.94568 0.0
C689 C 0.81217 0.41486 0.95238 0.0
N690 N 0.85976 0.42535 0.94859 0.0
N691 N 0.85126 0.40125 0.94367 0.0
C692 C 0.83789 0.45966 0.96116 0.0
H693 H 0.83633 0.48159 0.95733 0.0
H694 H 0.81916 0.45819 0.96643 0.0
H695 H 0.85989 0.45922 0.96496 0.0
C696 C 0.91957 0.49986 0.92591 0.0
N697 N 0.92426 0.4822 0.93361 0.0
N698 N 0.89808 0.47222 0.93682 0.0
C699 C 0.87572 0.48373 0.93133 0.0
C700 C 0.88858 0.50164 0.9242 0.0
C701 C 0.94457 0.51189 0.91975 0.0
H702 H 0.96402 0.49598 0.91976 0.0
H703 H 0.95233 0.53396 0.92266 0.0
H704 H 0.93685 0.51528 0.91229 0.0
O705 O 0.96702 0.42525 0.93693 0.0
O706 O 0.92364 0.40733 0.94257 0.0
H707 H 0.8373 0.45431 0.93061 0.0
H708 H 0.82824 0.49405 0.92902 0.0
C709 C 0.84273 0.47773 0.93294 0.0
H710 H 0.83752 0.47963 0.94062 0.0
H711 H 0.86499 0.39006 0.93874 0.0
O712 O 0.99585 0.49114 0.93507 0.0
C713 C 0.94948 0.40312 0.93876 0.0
Co714 Co 0.77712 0.71268 0.18873 0.0
Co715 Co 0.80155 0.65047 0.19565 0.0
C716 C 0.77372 0.6921 0.20947 0.0
O717 O 0.77012 0.71082 0.20267 0.0
O718 O 0.78543 0.66613 0.20799 0.0
C719 C 0.72788 0.75223 0.18793 0.0
O720 O 0.71468 0.72932 0.19225 0.0
C721 C 0.8066 0.58678 0.2018 0.0
C722 C 0.84922 0.57361 0.19461 0.0
C723 C 0.82589 0.56245 0.20018 0.0
N724 N 0.81795 0.61109 0.19727 0.0
N725 N 0.84369 0.60317 0.19313 0.0
C726 C 0.77854 0.58745 0.20781 0.0
H727 H 0.76356 0.60641 0.2056 0.0
H728 H 0.76611 0.56566 0.20748 0.0
H729 H 0.78522 0.59126 0.21535 0.0
C730 C 0.74574 0.67367 0.17466 0.0
N731 N 0.76296 0.67746 0.18249 0.0
N732 N 0.77207 0.65084 0.18561 0.0
C733 C 0.76043 0.62911 0.1799 0.0
C734 C 0.74342 0.64285 0.17272 0.0
C735 C 0.73455 0.69931 0.16861 0.0
H736 H 0.75047 0.71871 0.16901 0.0
H737 H 0.71215 0.70684 0.17133 0.0
H738 H 0.73201 0.69228 0.16105 0.0
O739 O 0.82063 0.7191 0.1862 0.0
O740 O 0.83701 0.67494 0.19169 0.0
H741 H 0.78936 0.59016 0.18016 0.0
H742 H 0.75067 0.58191 0.17668 0.0
C743 C 0.76518 0.59585 0.1814 0.0
H744 H 0.75947 0.59004 0.18886 0.0
H745 H 0.85694 0.61769 0.18899 0.0
O746 O 0.75477 0.749 0.18485 0.0
C747 C 0.84213 0.70079 0.18801 0.0
Co748 Co 0.5308 0.52793 0.43996 0.0
Co749 Co 0.59278 0.55461 0.44628 0.0
C750 C 0.55157 0.527 0.46053 0.0
O751 O 0.53272 0.52224 0.45386 0.0
O752 O 0.57715 0.53915 0.45879 0.0
C753 C 0.49096 0.4791 0.44012 0.0
O754 O 0.51374 0.46683 0.44476 0.0
C755 C 0.65677 0.55729 0.45194 0.0
C756 C 0.66977 0.60243 0.44643 0.0
C757 C 0.68121 0.57682 0.45086 0.0
N758 N 0.63222 0.57058 0.44814 0.0
N759 N 0.64002 0.59775 0.44502 0.0
C760 C 0.65631 0.52705 0.45681 0.0
H761 H 0.63458 0.52398 0.46067 0.0
H762 H 0.65802 0.50872 0.45143 0.0
H763 H 0.67548 0.52492 0.46189 0.0
C764 C 0.56973 0.49553 0.4261 0.0
N765 N 0.56615 0.51355 0.43377 0.0
N766 N 0.59261 0.52479 0.4363 0.0
C767 C 0.61391 0.51448 0.43016 0.0
C768 C 0.60016 0.49537 0.42357 0.0
C769 C 0.5442 0.47953 0.42119 0.0
H770 H 0.52602 0.49603 0.41948 0.0
H771 H 0.53457 0.46235 0.4261 0.0
H772 H 0.55167 0.46783 0.4146 0.0
O773 O 0.52404 0.57141 0.43712 0.0
O774 O 0.56818 0.58953 0.44212 0.0
H775 H 0.64626 0.55074 0.4311 0.0
H776 H 0.65592 0.52193 0.42251 0.0
C777 C 0.64578 0.52608 0.42964 0.0
H778 H 0.65983 0.5143 0.43503 0.0
H779 H 0.62525 0.61276 0.44162 0.0
O780 O 0.49441 0.5051 0.43637 0.0
C781 C 0.54198 0.59355 0.43856 0.0
Co782 Co 0.71721 0.28301 0.68911 0.0
Co783 Co 0.69174 0.34474 0.6963 0.0
C784 C 0.71996 0.30234 0.70994 0.0
O785 O 0.72421 0.28394 0.70307 0.0
O786 O 0.70781 0.32814 0.70851 0.0
C787 C 0.76668 0.24334 0.68762 0.0
O788 O 0.77967 0.26471 0.69271 0.0
C789 C 0.68327 0.40727 0.70366 0.0
C790 C 0.64341 0.4212 0.69516 0.0
C791 C 0.66388 0.43144 0.7019 0.0
N792 N 0.67479 0.38396 0.69808 0.0
N793 N 0.65072 0.39235 0.69314 0.0
C794 C 0.70883 0.40602 0.71068 0.0
H795 H 0.70927 0.38361 0.71424 0.0
H796 H 0.73069 0.40897 0.70689 0.0
H797 H 0.70656 0.4241 0.71614 0.0
C798 C 0.74803 0.3234 0.67525 0.0
N799 N 0.73084 0.31889 0.68307 0.0
N800 N 0.72132 0.34519 0.68632 0.0
C801 C 0.73269 0.36742 0.68075 0.0
C802 C 0.74997 0.35439 0.6735 0.0
C803 C 0.75939 0.29826 0.66902 0.0
H804 H 0.74345 0.27884 0.66923 0.0
H805 H 0.78172 0.29051 0.67171 0.0
H806 H 0.76205 0.30586 0.66152 0.0
O807 O 0.67373 0.2763 0.68663 0.0
O808 O 0.65661 0.32011 0.6922 0.0
H809 H 0.70377 0.40624 0.68006 0.0
H810 H 0.74361 0.41478 0.67848 0.0
C811 C 0.7271 0.40047 0.68239 0.0
H812 H 0.72904 0.40556 0.69009 0.0
H813 H 0.63967 0.37858 0.68819 0.0
O814 O 0.73974 0.24731 0.68468 0.0
C815 C 0.65193 0.29425 0.68846 0.0
Co816 Co 0.03386 0.46292 0.43885 0.0
Co817 Co 0.09576 0.43908 0.44628 0.0
C818 C 0.05213 0.46605 0.45977 0.0
O819 O 0.03395 0.46979 0.45283 0.0
O820 O 0.07829 0.45461 0.45844 0.0
C821 C 0.99328 0.51139 0.4374 0.0
O822 O 0.01508 0.5252 0.44208 0.0
C823 C 0.15795 0.43245 0.45394 0.0
C824 C 0.17347 0.39281 0.4456 0.0
C825 C 0.18273 0.4137 0.45236 0.0
N826 N 0.13524 0.42321 0.44825 0.0
N827 N 0.14456 0.39926 0.4434 0.0
C828 C 0.15554 0.45812 0.46089 0.0
H829 H 0.15675 0.48001 0.45702 0.0
H830 H 0.17403 0.45722 0.46626 0.0
H831 H 0.13338 0.45721 0.46461 0.0
C832 C 0.07391 0.49491 0.42516 0.0
N833 N 0.06954 0.47769 0.43298 0.0
N834 N 0.09593 0.46875 0.43632 0.0
C835 C 0.11808 0.48051 0.43079 0.0
C836 C 0.1049 0.49744 0.42349 0.0
C837 C 0.04875 0.50558 0.41884 0.0
H838 H 0.02956 0.48938 0.41909 0.0
H839 H 0.04062 0.52794 0.42141 0.0
H840 H 0.05648 0.50801 0.41134 0.0
O841 O 0.0285 0.41934 0.43622 0.0
O842 O 0.07238 0.40331 0.44201 0.0
H843 H 0.1573 0.45212 0.43021 0.0
H844 H 0.16529 0.49204 0.42853 0.0
C845 C 0.15118 0.47543 0.43248 0.0
H846 H 0.15616 0.47764 0.44017 0.0
H847 H 0.1314 0.38774 0.4384 0.0
O848 O -0.0024 0.48447 0.43448 0.0
C849 C 0.04692 0.39799 0.43811 0.0
Co850 Co 0.27573 0.27997 0.18889 0.0
Co851 Co 0.30146 0.3417 0.1958 0.0
C852 C 0.27444 0.29892 0.20967 0.0
O853 O 0.26989 0.28054 0.20284 0.0
O854 O 0.2863 0.32478 0.20814 0.0
C855 C 0.22694 0.24013 0.18844 0.0
O856 O 0.21445 0.26243 0.19326 0.0
C857 C 0.30508 0.40509 0.20232 0.0
C858 C 0.34959 0.41841 0.19638 0.0
C859 C 0.32486 0.42938 0.20139 0.0
N860 N 0.31744 0.38102 0.19791 0.0
N861 N 0.34421 0.38904 0.19451 0.0
C862 C 0.27562 0.40428 0.20763 0.0
H863 H 0.25661 0.40842 0.20264 0.0
H864 H 0.27511 0.42195 0.21327 0.0
H865 H 0.27215 0.38164 0.21088 0.0
C866 C 0.24303 0.31975 0.17538 0.0
N867 N 0.261 0.31568 0.18303 0.0
N868 N 0.27144 0.34211 0.18591 0.0
C869 C 0.26038 0.36391 0.1801 0.0
C870 C 0.2418 0.35045 0.17331 0.0
C871 C 0.22847 0.29446 0.16993 0.0
H872 H 0.24528 0.27622 0.16863 0.0
H873 H 0.2098 0.28482 0.17427 0.0
H874 H 0.21894 0.30233 0.16304 0.0
O875 O 0.31919 0.27381 0.18598 0.0
O876 O 0.33657 0.31776 0.19137 0.0
H877 H 0.29539 0.39752 0.18106 0.0
H878 H 0.26413 0.40809 0.17344 0.0
C879 C 0.27048 0.39631 0.18015 0.0
H880 H 0.2596 0.4083 0.18619 0.0
H881 H 0.35852 0.37467 0.19068 0.0
O882 O 0.25316 0.24392 0.18488 0.0
C883 C 0.34104 0.29195 0.18757 0.0
Co884 Co 0.4625 0.52432 0.93938 0.0
Co885 Co 0.40139 0.55327 0.94561 0.0
C886 C 0.44087 0.52356 0.95988 0.0
O887 O 0.45981 0.51835 0.95326 0.0
O888 O 0.41578 0.53666 0.95811 0.0
C889 C 0.50225 0.47492 0.93957 0.0
O890 O 0.4798 0.46271 0.9444 0.0
C891 C 0.33707 0.55789 0.95067 0.0
C892 C 0.32653 0.60435 0.94577 0.0
C893 C 0.31354 0.57854 0.94962 0.0
N894 N 0.36258 0.5708 0.9474 0.0
N895 N 0.35625 0.59875 0.94466 0.0
C896 C 0.336 0.52696 0.95507 0.0
H897 H 0.351 0.52668 0.96142 0.0
H898 H 0.34519 0.50994 0.95002 0.0
H899 H 0.31274 0.52062 0.95731 0.0
C900 C 0.42284 0.49344 0.92543 0.0
N901 N 0.42687 0.51143 0.93308 0.0
N902 N 0.40078 0.52373 0.93553 0.0
C903 C 0.37931 0.51414 0.92934 0.0
C904 C 0.39252 0.49439 0.92283 0.0
C905 C 0.44787 0.47638 0.92061 0.0
H906 H 0.46646 0.49226 0.91875 0.0
H907 H 0.45713 0.45934 0.92564 0.0
H908 H 0.43999 0.46446 0.91411 0.0
O909 O 0.47081 0.56756 0.93667 0.0
O910 O 0.42749 0.58742 0.9417 0.0
H911 H 0.34796 0.5513 0.9304 0.0
H912 H 0.33823 0.52363 0.92146 0.0
C913 C 0.34786 0.52679 0.92871 0.0
H914 H 0.33299 0.51485 0.93385 0.0
H915 H 0.372 0.61366 0.94168 0.0
O916 O 0.49846 0.50076 0.93575 0.0
C917 C 0.4539 0.59043 0.93818 0.0
Co918 Co 0.21309 0.71148 0.68916 0.0
Co919 Co 0.18934 0.6488 0.69595 0.0
C920 C 0.21658 0.69034 0.70987 0.0
O921 O 0.21996 0.70927 0.70311 0.0
O922 O 0.20524 0.66426 0.70832 0.0
C923 C 0.26198 0.75166 0.68838 0.0
O924 O 0.27569 0.72861 0.69246 0.0
C925 C 0.18441 0.58486 0.70197 0.0
C926 C 0.14185 0.57186 0.69473 0.0
C927 C 0.16507 0.56061 0.70032 0.0
N928 N 0.17317 0.60925 0.69745 0.0
N929 N 0.14748 0.60142 0.69328 0.0
C930 C 0.21241 0.58535 0.708 0.0
H931 H 0.22675 0.60519 0.70616 0.0
H932 H 0.2256 0.56412 0.70721 0.0
H933 H 0.20562 0.58727 0.7156 0.0
C934 C 0.2449 0.67298 0.67496 0.0
N935 N 0.22768 0.67651 0.68283 0.0
N936 N 0.21885 0.64976 0.68591 0.0
C937 C 0.23069 0.62821 0.68017 0.0
C938 C 0.24749 0.64219 0.67298 0.0
C939 C 0.25587 0.69879 0.66895 0.0
H940 H 0.23998 0.7182 0.66948 0.0
H941 H 0.27837 0.70622 0.6716 0.0
H942 H 0.25814 0.69196 0.66136 0.0
O943 O 0.1695 0.71745 0.68663 0.0
O944 O 0.15368 0.67305 0.69208 0.0
H945 H 0.20232 0.58885 0.68033 0.0
H946 H 0.24127 0.58116 0.677 0.0
C947 C 0.22635 0.59489 0.68167 0.0
H948 H 0.23184 0.58919 0.68915 0.0
H949 H 0.1343 0.61599 0.68915 0.0
O950 O 0.23497 0.74832 0.68542 0.0
C951 C 0.14822 0.69888 0.68844 0.0
Co952 Co 0.03109 0.52775 0.07634 0.0
Co953 Co 0.09372 0.55262 0.06977 0.0
C954 C 0.05228 0.52579 0.05565 0.0
O955 O 0.03336 0.52165 0.06237 0.0
O956 O 0.07817 0.53742 0.0573 0.0
C957 C 0.99079 0.47882 0.07683 0.0
O958 O 0.0137 0.46526 0.07262 0.0
C959 C 0.15708 0.56032 0.06311 0.0
C960 C 0.17082 0.5995 0.07194 0.0
C961 C 0.18142 0.57909 0.06524 0.0
N962 N 0.13332 0.56905 0.06846 0.0
N963 N 0.14161 0.59274 0.0736 0.0
C964 C 0.15611 0.53508 0.05597 0.0
H965 H 0.13427 0.53553 0.05207 0.0
H966 H 0.15771 0.51297 0.0597 0.0
H967 H 0.17506 0.53694 0.05079 0.0
C968 C 0.06981 0.49538 0.09033 0.0
N969 N 0.06614 0.51303 0.08257 0.0
N970 N 0.0928 0.52254 0.07961 0.0
C971 C 0.1144 0.51083 0.08534 0.0
C972 C 0.10058 0.4933 0.09238 0.0
C973 C 0.04407 0.48361 0.09623 0.0
H974 H 0.0245 0.49933 0.09582 0.0
H975 H 0.03691 0.46126 0.09338 0.0
H976 H 0.05083 0.48076 0.1038 0.0
O977 O 0.02491 0.57119 0.07909 0.0
O978 O 0.06928 0.58789 0.07386 0.0
H979 H 0.15303 0.53987 0.08643 0.0
H980 H 0.16147 0.50011 0.08824 0.0
C981 C 0.14762 0.51645 0.0841 0.0
H982 H 0.15368 0.51426 0.07648 0.0
H983 H 0.12751 0.60384 0.07846 0.0
O984 O 0.9943 0.5056 0.07997 0.0
C985 C 0.0433 0.5928 0.07747 0.0
Co986 Co 0.2187 0.28052 0.8264 0.0
Co987 Co 0.1894 0.34085 0.81964 0.0
C988 C 0.21839 0.29941 0.80568 0.0
O989 O 0.22431 0.28127 0.81246 0.0
O990 O 0.20509 0.32451 0.80728 0.0
C991 C 0.26823 0.24103 0.82672 0.0
O992 O 0.28013 0.26267 0.82148 0.0
C993 C 0.18424 0.40395 0.81319 0.0
C994 C 0.13911 0.41624 0.81887 0.0
C995 C 0.16396 0.42786 0.81408 0.0
N996 N 0.17208 0.37954 0.81745 0.0
N997 N 0.14491 0.38689 0.82068 0.0
C998 C 0.21412 0.4038 0.80811 0.0
H999 H 0.23276 0.40656 0.81332 0.0
H1000 H 0.21536 0.42248 0.80281 0.0
H1001 H 0.21753 0.38179 0.80445 0.0
C1002 C 0.24992 0.32178 0.83978 0.0
N1003 N 0.2318 0.31687 0.83221 0.0
N1004 N 0.21955 0.34269 0.82949 0.0
C1005 C 0.22941 0.36491 0.83536 0.0
C1006 C 0.24917 0.3524 0.842 0.0
C1007 C 0.26673 0.29726 0.84493 0.0
H1008 H 0.25075 0.2789 0.84692 0.0
H1009 H 0.28397 0.28745 0.84007 0.0
H1010 H 0.27839 0.30584 0.85139 0.0
O1011 O 0.17556 0.27255 0.82934 0.0
O1012 O 0.15538 0.31544 0.82408 0.0
H1013 H 0.22185 0.4079 0.84244 0.0
H1014 H 0.22764 0.40997 0.82978 0.0
C1015 C 0.21703 0.39652 0.83555 0.0
H1016 H 0.19219 0.39612 0.83441 0.0
H1017 H 0.13067 0.37211 0.82439 0.0
O1018 O 0.2424 0.24527 0.83051 0.0
C1019 C 0.1526 0.28934 0.82784 0.0
Co1020 Co 0.45964 0.46291 0.57647 0.0
Co1021 Co 0.39776 0.43929 0.56909 0.0
C1022 C 0.44071 0.467 0.55561 0.0
O1023 O 0.45907 0.47027 0.56253 0.0
O1024 O 0.41453 0.45557 0.55693 0.0
C1025 C 0.49937 0.51192 0.57803 0.0
O1026 O 0.47745 0.52528 0.57328 0.0
C1027 C 0.33473 0.43487 0.56232 0.0
C1028 C 0.32045 0.39239 0.56938 0.0
C1029 C 0.31008 0.4158 0.56368 0.0
N1030 N 0.35843 0.42332 0.5671 0.0
N1031 N 0.34987 0.39766 0.57115 0.0
C1032 C 0.33637 0.46286 0.55629 0.0
H1033 H 0.35392 0.47855 0.55908 0.0
H1034 H 0.31415 0.47446 0.55583 0.0
H1035 H 0.34314 0.4562 0.54896 0.0
C1036 C 0.41987 0.49472 0.59028 0.0
N1037 N 0.42405 0.47738 0.58248 0.0
N1038 N 0.39758 0.46858 0.57918 0.0
C1039 C 0.37555 0.48055 0.58472 0.0
C1040 C 0.38895 0.49751 0.59198 0.0
C1041 C 0.44515 0.50557 0.59653 0.0
H1042 H 0.46424 0.48923 0.59635 0.0
H1043 H 0.45339 0.52774 0.59383 0.0
H1044 H 0.43748 0.50846 0.60402 0.0
O1045 O 0.46537 0.41927 0.57898 0.0
O1046 O 0.42149 0.40347 0.57314 0.0
H1047 H 0.33639 0.45197 0.58424 0.0
H1048 H 0.32824 0.49079 0.58761 0.0
C1049 C 0.34237 0.47608 0.583 0.0
H1050 H 0.33712 0.4817 0.5755 0.0
H1051 H 0.36382 0.38429 0.57544 0.0
O1052 O 0.49567 0.4848 0.58085 0.0
C1053 C 0.44699 0.39799 0.577 0.0
Co1054 Co 0.28062 0.70821 0.32614 0.0
Co1055 Co 0.30538 0.64631 0.31891 0.0
C1056 C 0.27753 0.68907 0.30531 0.0
O1057 O 0.2736 0.70747 0.31219 0.0
O1058 O 0.28939 0.66312 0.30671 0.0
C1059 C 0.23176 0.7486 0.32761 0.0
O1060 O 0.2183 0.72713 0.32268 0.0
C1061 C 0.31248 0.58371 0.31154 0.0
C1062 C 0.35214 0.56889 0.31998 0.0
C1063 C 0.33127 0.55906 0.3133 0.0
N1064 N 0.32164 0.60685 0.31708 0.0
N1065 N 0.34562 0.59794 0.32198 0.0
C1066 C 0.28684 0.58557 0.30457 0.0
H1067 H 0.28741 0.60769 0.30082 0.0
H1068 H 0.26494 0.58404 0.30842 0.0
H1069 H 0.28811 0.567 0.29924 0.0
C1070 C 0.24903 0.66824 0.33993 0.0
N1071 N 0.26639 0.67255 0.33214 0.0
N1072 N 0.27577 0.64616 0.32891 0.0
C1073 C 0.26413 0.62406 0.33448 0.0
C1074 C 0.24682 0.63729 0.3417 0.0
C1075 C 0.23778 0.6935 0.34613 0.0
H1076 H 0.25389 0.71278 0.34594 0.0
H1077 H 0.21557 0.70145 0.34339 0.0
H1078 H 0.23489 0.68596 0.35363 0.0
O1079 O 0.32414 0.71404 0.32872 0.0
O1080 O 0.34098 0.67038 0.32298 0.0
H1081 H 0.29292 0.58514 0.33515 0.0
H1082 H 0.25311 0.57678 0.33691 0.0
C1083 C 0.26952 0.59095 0.3329 0.0
H1084 H 0.26725 0.58569 0.32523 0.0
H1085 H 0.35709 0.61149 0.32689 0.0
O1086 O 0.25869 0.74435 0.33052 0.0
C1087 C 0.34585 0.69605 0.32682 0.0
C1088 C 0.47855 0.00226 0.04387 0.0
C1089 C 0.45079 0.01712 0.0455 0.0
C1090 C 0.489 -0.00285 0.03461 0.0
C1091 C 0.46502 0.9928 0.00941 0.0
H1092 H 0.55028 0.00743 1.00439 0.0
C1093 C 0.51353 0.99103 0.97122 0.0
C1094 C 0.54165 0.97664 0.96979 0.0
C1095 C 0.50278 -0.00324 0.98042 0.0
C1096 C 0.5265 0.00291 1.00569 0.0
H1097 H 0.41185 0.03751 0.03858 0.0
H1098 H 0.43021 0.02861 0.02233 0.0
H1099 H 0.53014 0.01531 0.0204 0.0
H1100 H 0.58081 0.95764 0.97697 0.0
H1101 H 0.56187 0.96742 0.99307 0.0
H1102 H 0.46139 0.98026 0.99471 0.0
C1103 C 0.4438 0.02082 0.02828 0.0
C1104 C 0.51493 0.00744 0.01487 0.0
C1105 C 0.4333 0.02598 0.03759 0.0
C1106 C 0.5591 0.96881 0.97781 0.0
C1107 C 0.54827 0.97451 0.98704 0.0
C1108 C 0.4766 0.98822 1.00023 0.0
C1109 C 0.47201 0.00673 0.02669 0.0
C1110 C 0.48406 0.00236 0.01686 0.0
C1111 C 0.51978 0.98822 0.98846 0.0
C1112 C 0.50751 0.99319 0.99824 0.0
H1113 H 0.49257 0.99484 0.04977 0.0
H1114 H 0.51049 0.98567 0.03365 0.0
H1115 H 0.44125 0.98829 0.01072 0.0
H1116 H 0.49955 -0.00235 0.96522 0.0
H1117 H 0.48106 0.00792 0.98123 0.0
C1118 C 0.21664 0.18006 0.28714 0.0
C1119 C 0.22505 0.19772 0.29506 0.0
C1120 C 0.22259 0.19022 0.27784 0.0
C1121 C 0.26927 0.24519 0.26407 0.0
H1122 H 0.20572 0.23733 0.24515 0.0
C1123 C 0.27537 0.30618 0.22752 0.0
C1124 C 0.26686 0.28897 0.21951 0.0
C1125 C 0.26987 0.29532 0.23676 0.0
C1126 C 0.22382 0.23948 0.25032 0.0
H1127 H 0.24722 0.23953 0.29937 0.0
H1128 H 0.25727 0.25712 0.28329 0.0
H1129 H 0.19829 0.21619 0.26106 0.0
H1130 H 0.24514 0.24716 0.21499 0.0
H1131 H 0.23584 0.22837 0.231 0.0
H1132 H 0.29477 0.26856 0.25335 0.0
C1133 C 0.24629 0.23536 0.28421 0.0
C1134 C 0.2196 0.22724 0.25944 0.0
C1135 C 0.24031 0.22529 0.29346 0.0
C1136 C 0.25209 0.26107 0.22097 0.0
C1137 C 0.24655 0.25031 0.23018 0.0
C1138 C 0.27349 0.25744 0.25496 0.0
C1139 C 0.23721 0.21817 0.27627 0.0
C1140 C 0.24224 0.23 0.26644 0.0
C1141 C 0.25562 0.26711 0.23819 0.0
C1142 C 0.25081 0.25477 0.24797 0.0
H1143 H 0.2049 0.15871 0.28812 0.0
H1144 H 0.21564 0.17624 0.27188 0.0
H1145 H 0.28736 0.24738 0.26925 0.0
H1146 H 0.28673 0.32777 0.22665 0.0
H1147 H 0.27679 0.30903 0.24279 0.0
C1148 C 0.97679 0.00088 0.47163 0.0
C1149 C 0.94979 0.01694 0.46988 0.0
C1150 C 0.9868 0.99578 0.48094 0.0
C1151 C 0.98005 0.02574 0.50539 0.0
H1152 H 0.01888 0.94989 0.51221 0.0
C1153 C 0.01376 0.99554 0.5441 0.0
C1154 C 0.04115 0.97985 0.54558 0.0
C1155 C 0.00304 0.00093 0.53488 0.0
C1156 C 0.00847 0.97135 0.51039 0.0
H1157 H 0.91171 0.0395 0.47662 0.0
H1158 H 0.9291 0.03025 0.49295 0.0
H1159 H -0.00248 0.95618 0.49631 0.0
H1160 H 0.07919 0.95839 0.53847 0.0
H1161 H 0.0605 0.96805 0.52233 0.0
H1162 H 0.99098 0.04085 0.5195 0.0
C1163 C 0.94271 0.02201 0.48706 0.0
C1164 C -0.00388 0.97494 0.50127 0.0
C1165 C 0.93262 0.02711 0.47771 0.0
C1166 C 0.058 0.97047 0.53759 0.0
C1167 C 0.04717 0.9758 0.52834 0.0
C1168 C 0.99237 0.02213 0.51452 0.0
C1169 C 0.9701 0.00652 0.48877 0.0
C1170 C 0.98187 0.00223 0.49864 0.0
C1171 C 0.01935 0.99076 0.52689 0.0
C1172 C 0.00682 0.99492 0.51712 0.0
H1173 H 0.99066 0.99265 0.4658 0.0
H1174 H 0.00816 0.98412 0.48196 0.0
H1175 H 0.9697 0.04723 0.50356 0.0
H1176 H 0.00017 0.00318 0.55008 0.0
H1177 H 0.98143 0.01227 0.53404 0.0
C1178 C 0.23943 0.72787 0.72117 0.0
C1179 C 0.22473 0.69994 0.71969 0.0
C1180 C 0.24516 0.73844 0.73038 0.0
C1181 C 0.2506 0.71457 0.75564 0.0
H1182 H 0.23629 0.7999 0.76064 0.0
C1183 C 0.24966 0.76264 0.79381 0.0
C1184 C 0.26459 0.79038 0.79542 0.0
C1185 C 0.24466 0.75215 0.78455 0.0
C1186 C 0.24072 0.77611 0.75934 0.0
H1187 H 0.20526 0.66087 0.72681 0.0
H1188 H 0.21506 0.6795 0.74294 0.0
H1189 H 0.22845 0.77982 0.74462 0.0
H1190 H 0.28521 0.82919 0.78849 0.0
H1191 H 0.27651 0.81074 0.77226 0.0
H1192 H 0.26275 0.71084 0.77038 0.0
C1193 C 0.22236 0.69309 0.73693 0.0
C1194 C 0.23625 0.76456 0.75015 0.0
C1195 C 0.21666 0.68244 0.72768 0.0
C1196 C 0.27364 0.80777 0.78751 0.0
C1197 C 0.26858 0.79722 0.77821 0.0
C1198 C 0.25504 0.72611 0.76483 0.0
C1199 C 0.2363 0.72145 0.73839 0.0
C1200 C 0.24112 0.73364 0.74818 0.0
C1201 C 0.2544 0.76906 0.77663 0.0
C1202 C 0.25008 0.757 0.7668 0.0
H1203 H 0.24627 0.74187 0.71519 0.0
H1204 H 0.25651 0.76004 0.73122 0.0
H1205 H 0.25502 0.69077 0.75435 0.0
H1206 H 0.24211 0.7487 0.79972 0.0
H1207 H 0.23312 0.73069 0.7836 0.0
C1208 C 0.5585 0.02686 0.53772 0.0
C1209 C 0.54136 0.01652 0.54553 0.0
C1210 C 0.5482 0.02224 0.52836 0.0
C1211 C 0.47747 0.00777 0.51492 0.0
H1212 H 0.53146 0.98429 0.49439 0.0
C1213 C 0.43383 0.9703 0.47773 0.0
C1214 C 0.45078 0.97929 0.46972 0.0
C1215 C 0.44467 0.97584 0.48696 0.0
C1216 C 0.51611 0.99123 0.50002 0.0
H1217 H 0.50056 0.99207 0.54958 0.0
H1218 H 0.48301 0.98387 0.53339 0.0
H1219 H 0.55168 0.99159 0.51043 0.0
H1220 H 0.4919 0.00224 0.46517 0.0
H1221 H 0.51037 0.01222 0.48118 0.0
H1222 H 0.4419 0.00745 0.50454 0.0
C1223 C 0.50402 0.9961 0.53446 0.0
C1224 C 0.52774 0.99539 0.50921 0.0
C1225 C 0.51426 0.00066 0.54376 0.0
C1226 C 0.47832 0.99472 0.47116 0.0
C1227 C 0.48908 0.00028 0.48036 0.0
C1228 C 0.46585 0.00366 0.50573 0.0
C1229 C 0.52056 0.00724 0.52664 0.0
C1230 C 0.50852 0.00355 0.51679 0.0
C1231 C 0.47264 0.99054 0.48839 0.0
C1232 C 0.485 0.99524 0.49817 0.0
H1233 H 0.57945 0.03916 0.53882 0.0
H1234 H 0.56143 0.03119 0.52249 0.0
H1235 H 0.46211 0.01459 0.52056 0.0
H1236 H 0.41258 0.95832 0.47688 0.0
H1237 H 0.43152 0.96782 0.49299 0.0
C1238 C 0.25071 0.22588 0.72166 0.0
C1239 C 0.26659 0.1986 0.72019 0.0
C1240 C 0.24495 0.2365 0.73086 0.0
C1241 C 0.24161 0.21333 0.75621 0.0
H1242 H 0.2528 0.29932 0.76087 0.0
C1243 C 0.24174 0.26267 0.79422 0.0
C1244 C 0.22585 0.2899 0.79578 0.0
C1245 C 0.24694 0.25208 0.78498 0.0
C1246 C 0.24924 0.27533 0.75967 0.0
H1247 H 0.28811 0.16066 0.72733 0.0
H1248 H 0.27819 0.17937 0.74346 0.0
H1249 H 0.26079 0.27901 0.74488 0.0
H1250 H 0.20371 0.32775 0.78879 0.0
H1251 H 0.21272 0.30911 0.77259 0.0
H1252 H 0.23015 0.20966 0.77101 0.0
C1253 C 0.27003 0.19242 0.73744 0.0
C1254 C 0.25381 0.26365 0.7505 0.0
C1255 C 0.27579 0.18173 0.7282 0.0
C1256 C 0.21604 0.30672 0.78784 0.0
C1257 C 0.22127 0.29607 0.77856 0.0
C1258 C 0.23706 0.22501 0.76538 0.0
C1259 C 0.25493 0.22019 0.73888 0.0
C1260 C 0.25005 0.2325 0.74865 0.0
C1261 C 0.23641 0.26838 0.77703 0.0
C1262 C 0.24089 0.25614 0.76723 0.0
H1263 H 0.243 0.23938 0.71567 0.0
H1264 H 0.23269 0.25762 0.7317 0.0
H1265 H 0.23808 0.18934 0.75502 0.0
H1266 H 0.2499 0.24919 0.80015 0.0
H1267 H 0.25923 0.23102 0.78406 0.0
C1268 C 0.93423 0.9678 0.03781 0.0
C1269 C 0.95115 0.97678 0.04583 0.0
C1270 C 0.94511 0.97331 0.02858 0.0
C1271 C 0.00056 0.01976 0.01496 0.0
H1272 H 0.99338 0.95566 0.99617 0.0
C1273 C 0.06045 0.02619 0.97818 0.0
C1274 C 0.04294 0.01748 0.97027 0.0
C1275 C 0.05014 0.02051 0.98748 0.0
C1276 C 0.99537 0.9739 1.00131 0.0
H1277 H 0.99246 -0.00064 0.05037 0.0
H1278 H 0.01135 0.00866 0.03436 0.0
H1279 H 0.97221 0.94844 0.01209 0.0
H1280 H 0.00125 0.99513 0.96595 0.0
H1281 H 0.98343 0.98551 0.98205 0.0
H1282 H 0.02371 0.04522 1.00417 0.0
C1283 C 0.98958 -0.0024 0.03517 0.0
C1284 C 0.98312 0.96979 0.01043 0.0
C1285 C 0.97877 0.99208 0.04438 0.0
C1286 C 0.01537 0.00224 0.97187 0.0
C1287 C 0.00517 -0.00348 0.98112 0.0
C1288 C 0.01282 0.02386 1.00584 0.0
C1289 C 0.97309 0.98801 0.02715 0.0
C1290 C 0.98552 0.99268 0.01737 0.0
C1291 C 0.02222 0.00586 0.98905 0.0
C1292 C 0.01031 0.00101 0.99889 0.0
H1293 H 0.91285 0.95605 0.03867 0.0
H1294 H 0.93162 0.96601 0.02255 0.0
H1295 H 0.0025 0.03802 0.02009 0.0
H1296 H 0.08179 0.03792 0.97721 0.0
H1297 H 0.06402 0.02766 0.99345 0.0
C1298 C 0.25469 0.72705 0.29414 0.0
C1299 C 0.26935 0.69905 0.29552 0.0
C1300 C 0.24874 0.73782 0.28496 0.0
C1301 C 0.24227 0.71424 0.2597 0.0
H1302 H 0.25635 0.79962 0.25471 0.0
C1303 C 0.24122 0.76277 0.22156 0.0
C1304 C 0.22632 0.79059 0.22007 0.0
C1305 C 0.24668 0.75212 0.23078 0.0
C1306 C 0.25198 0.77581 0.25601 0.0
H1307 H 0.28859 0.66011 0.28827 0.0
H1308 H 0.27838 0.67906 0.2722 0.0
H1309 H 0.26491 0.77938 0.27068 0.0
H1310 H 0.20619 0.82937 0.22717 0.0
H1311 H 0.21567 0.81065 0.24332 0.0
H1312 H 0.22944 0.71066 0.24502 0.0
C1313 C 0.27128 0.69257 0.27826 0.0
C1314 C 0.25687 0.76417 0.26517 0.0
C1315 C 0.27722 0.68172 0.28747 0.0
C1316 C 0.21773 0.80788 0.22805 0.0
C1317 C 0.22324 0.79718 0.23731 0.0
C1318 C 0.23741 0.72587 0.25054 0.0
C1319 C 0.25731 0.72095 0.2769 0.0
C1320 C 0.25208 0.73324 0.26713 0.0
C1321 C 0.23743 0.76896 0.23878 0.0
C1322 C 0.24227 0.75678 0.24857 0.0
H1323 H 0.24803 0.74094 0.30017 0.0
H1324 H 0.23738 0.75945 0.28419 0.0
H1325 H 0.2379 0.69043 0.26098 0.0
H1326 H 0.24841 0.7489 0.2156 0.0
H1327 H 0.25821 0.73061 0.23164 0.0
C1328 C 0.77521 0.81111 0.72852 0.0
C1329 C 0.76506 0.79411 0.72065 0.0
C1330 C 0.77028 0.80067 0.73785 0.0
C1331 C 0.75533 0.72969 0.75114 0.0
H1332 H 0.73113 0.78323 0.77169 0.0
C1333 C 0.71668 0.68518 0.78815 0.0
C1334 C 0.7252 0.70209 0.79622 0.0
C1335 C 0.72257 0.69617 0.77895 0.0
C1336 C 0.73828 0.768 0.76606 0.0
H1337 H 0.74053 0.75346 0.7165 0.0
H1338 H 0.73181 0.7357 0.73264 0.0
H1339 H 0.73903 0.80382 0.75572 0.0
H1340 H 0.74779 0.74325 0.8009 0.0
H1341 H 0.75842 0.76196 0.78495 0.0
H1342 H 0.75464 0.69387 0.76145 0.0
C1343 C 0.74415 0.75669 0.73163 0.0
C1344 C 0.74278 0.77984 0.7569 0.0
C1345 C 0.74901 0.76706 0.72236 0.0
C1346 C 0.74058 0.72972 0.79486 0.0
C1347 C 0.74652 0.74061 0.78569 0.0
C1348 C 0.7509 0.71786 0.76029 0.0
C1349 C 0.75514 0.77304 0.73949 0.0
C1350 C 0.75118 0.7608 0.74932 0.0
C1351 C 0.73719 0.72426 0.77761 0.0
C1352 C 0.74222 0.73683 0.76787 0.0
H1353 H 0.78766 0.832 0.72746 0.0
H1354 H 0.77911 0.81378 0.74376 0.0
H1355 H 0.76232 0.71445 0.74549 0.0
H1356 H 0.70474 0.66387 0.78894 0.0
H1357 H 0.71487 0.68306 0.77288 0.0
C1358 C 0.74027 0.22879 0.22165 0.0
C1359 C 0.7249 0.20122 0.22019 0.0
C1360 C 0.74583 0.23951 0.23086 0.0
C1361 C 0.75 0.21609 0.25616 0.0
H1362 H 0.73737 0.30178 0.26101 0.0
C1363 C 0.74983 0.26455 0.29427 0.0
C1364 C 0.76508 0.29211 0.29587 0.0
C1365 C 0.74466 0.25407 0.28502 0.0
C1366 C 0.74134 0.27788 0.25975 0.0
H1367 H 0.70401 0.16294 0.22734 0.0
H1368 H 0.7136 0.18179 0.24346 0.0
H1369 H 0.72945 0.28161 0.245 0.0
H1370 H 0.78612 0.33066 0.28891 0.0
H1371 H 0.7772 0.31222 0.27269 0.0
H1372 H 0.76187 0.21235 0.27092 0.0
C1373 C 0.72151 0.195 0.23744 0.0
C1374 C 0.7368 0.26629 0.25057 0.0
C1375 C 0.71593 0.18423 0.2282 0.0
C1376 C 0.77429 0.30937 0.28794 0.0
C1377 C 0.76911 0.29882 0.27865 0.0
C1378 C 0.75454 0.22768 0.26534 0.0
C1379 C 0.73619 0.22299 0.23888 0.0
C1380 C 0.74106 0.23524 0.24866 0.0
C1381 C 0.7546 0.27081 0.27709 0.0
C1382 C 0.75018 0.25871 0.26726 0.0
H1383 H 0.74777 0.24242 0.21567 0.0
H1384 H 0.75773 0.26082 0.23169 0.0
H1385 H 0.75394 0.19219 0.25492 0.0
H1386 H 0.74212 0.25073 0.30019 0.0
H1387 H 0.73285 0.23276 0.28409 0.0
C1388 C 0.74987 0.72939 0.22066 0.0
C1389 C 0.7654 0.70186 0.21927 0.0
C1390 C 0.74403 0.74023 0.22984 0.0
C1391 C 0.77217 0.73488 0.25448 0.0
H1392 H 0.69607 0.77394 0.26091 0.0
C1393 C 0.74115 0.76703 0.29307 0.0
C1394 C 0.72514 0.79411 0.29476 0.0
C1395 C 0.74646 0.75689 0.28379 0.0
C1396 C 0.71762 0.76351 0.25919 0.0
H1397 H 0.78616 0.6637 0.22651 0.0
H1398 H 0.77578 0.68261 0.24259 0.0
H1399 H 0.70324 0.75251 0.24501 0.0
H1400 H 0.70276 0.83212 0.28794 0.0
H1401 H 0.71238 0.81448 0.27164 0.0
H1402 H 0.78664 0.74594 0.26862 0.0
C1403 C 0.76847 0.69596 0.23653 0.0
C1404 C 0.72168 0.7511 0.25009 0.0
C1405 C 0.77421 0.685 0.22732 0.0
C1406 C 0.71513 0.81117 0.28689 0.0
C1407 C 0.72045 0.80093 0.27756 0.0
C1408 C 0.76814 0.74734 0.26357 0.0
C1409 C 0.75362 0.72389 0.23789 0.0
C1410 C 0.74897 0.73653 0.24763 0.0
C1411 C 0.736 0.77352 0.27591 0.0
C1412 C 0.74076 0.76168 0.26606 0.0
H1413 H 0.74263 0.74299 0.21464 0.0
H1414 H 0.7328 0.76193 0.23062 0.0
H1415 H 0.79369 0.72438 0.25277 0.0
H1416 H 0.74927 0.75323 0.29893 0.0
H1417 H 0.75813 0.73551 0.28282 0.0
C1418 C 0.77636 0.18286 0.78727 0.0
C1419 C 0.76864 0.20044 0.79528 0.0
C1420 C 0.77096 0.19374 0.77803 0.0
C1421 C 0.7586 0.26549 0.76482 0.0
H1422 H 0.72997 0.21251 0.74469 0.0
C1423 C 0.72006 0.30997 0.72776 0.0
C1424 C 0.72791 0.29244 0.71975 0.0
C1425 C 0.72563 0.29917 0.737 0.0
C1426 C 0.7383 0.22756 0.75021 0.0
H1427 H 0.74817 0.24287 0.79982 0.0
H1428 H 0.73847 0.26147 0.7838 0.0
H1429 H 0.73785 0.1922 0.76068 0.0
H1430 H 0.7488 0.25022 0.71522 0.0
H1431 H 0.75874 0.23175 0.73124 0.0
H1432 H 0.75901 0.30085 0.75434 0.0
C1433 C 0.74929 0.23958 0.78462 0.0
C1434 C 0.74282 0.21589 0.75938 0.0
C1435 C 0.75469 0.22876 0.79383 0.0
C1436 C 0.74219 0.26428 0.7212 0.0
C1437 C 0.74773 0.25354 0.73041 0.0
C1438 C 0.75406 0.27717 0.75565 0.0
C1439 C 0.75769 0.22242 0.7766 0.0
C1440 C 0.753 0.23471 0.76681 0.0
C1441 C 0.73916 0.27062 0.73843 0.0
C1442 C 0.74389 0.25834 0.74822 0.0
H1443 H 0.78718 0.16098 0.78812 0.0
H1444 H 0.7779 0.18001 0.77201 0.0
H1445 H 0.76694 0.28054 0.77033 0.0
H1446 H 0.70899 0.33172 0.72691 0.0
H1447 H 0.71858 0.31284 0.74303 0.0
C1448 C 0.93024 0.52394 0.53679 0.0
C1449 C 0.94795 0.51633 0.54478 0.0
C1450 C 0.94078 0.51795 0.52754 0.0
C1451 C -0.00264 0.47236 0.51406 0.0
H1452 H 0.98753 0.53465 0.49479 0.0
C1453 C 0.05897 0.46644 0.47762 0.0
C1454 C 0.04166 0.47391 0.46953 0.0
C1455 C 0.04775 0.47207 0.48681 0.0
C1456 C 0.99024 0.5169 0.50006 0.0
H1457 H 0.9903 0.49562 0.54926 0.0
H1458 H 0.00856 0.48551 0.53325 0.0
H1459 H 0.96609 0.54222 0.51066 0.0
H1460 H -0.00075 0.49395 0.46481 0.0
H1461 H 0.97982 0.50352 0.48075 0.0
H1462 H 0.02159 0.44709 0.50347 0.0
C1463 C 0.98646 0.49586 0.53408 0.0
C1464 C 0.97784 0.5212 0.50916 0.0
C1465 C 0.976 0.50186 0.5433 0.0
C1466 C 0.01325 0.48782 0.47086 0.0
C1467 C 0.00212 0.49351 0.48002 0.0
C1468 C 0.00978 0.46808 0.50497 0.0
C1469 C 0.96918 0.50411 0.52608 0.0
C1470 C 0.98131 0.49901 0.51628 0.0
C1471 C 0.01906 0.48543 0.48812 0.0
C1472 C 0.00641 0.4903 0.49786 0.0
H1473 H 0.90852 0.53504 0.53767 0.0
H1474 H 0.92671 0.52423 0.52153 0.0
H1475 H 0.00011 0.45461 0.51933 0.0
H1476 H 0.08095 0.45576 0.47686 0.0
H1477 H 0.06157 0.46595 0.4929 0.0
C1478 C 0.47652 0.4993 0.97145 0.0
C1479 C 0.44954 0.51551 0.9698 0.0
C1480 C 0.48657 0.49368 0.98072 0.0
C1481 C 0.48006 0.52257 1.00531 0.0
H1482 H 0.51936 0.44663 0.01176 0.0
C1483 C 0.51446 0.49126 0.04383 0.0
C1484 C 0.54202 0.47581 0.04524 0.0
C1485 C 0.50354 0.49675 0.03465 0.0
C1486 C 0.50881 0.46812 0.01004 0.0
H1487 H 0.4115 0.53771 0.97668 0.0
H1488 H 0.42896 0.52753 0.99295 0.0
H1489 H 0.49769 0.45347 0.99592 0.0
H1490 H 0.5801 0.45477 0.03803 0.0
H1491 H 0.56105 0.46459 0.02193 0.0
H1492 H 0.49116 0.53717 0.01945 0.0
C1493 C 0.44253 0.51959 0.98701 0.0
C1494 C 0.49628 0.47201 1.00096 0.0
C1495 C 0.43239 0.52521 0.97769 0.0
C1496 C 0.55879 0.46668 0.03721 0.0
C1497 C 0.54775 0.4721 0.02799 0.0
C1498 C 0.49255 0.51865 0.0144 0.0
C1499 C 0.46994 0.50403 0.98862 0.0
C1500 C 0.48186 0.49934 0.99846 0.0
C1501 C 0.51982 0.48692 0.02661 0.0
C1502 C 0.50716 0.4914 0.01687 0.0
H1503 H 0.49037 0.4914 0.96557 0.0
H1504 H 0.50794 0.48197 0.98167 0.0
H1505 H 0.4696 0.54409 1.00358 0.0
H1506 H 0.50092 0.49871 0.04985 0.0
H1507 H 0.48184 0.50796 0.03386 0.0
C1508 C 0.01499 0.50354 0.04417 0.0
C1509 C 0.04292 0.51809 0.04577 0.0
C1510 C 0.00471 0.49804 0.03492 0.0
C1511 C 0.01329 0.52493 0.01017 0.0
H1512 H 0.97095 0.45042 1.00399 0.0
C1513 C 0.97914 0.49321 0.97165 0.0
C1514 C 0.95114 0.47861 0.9702 0.0
C1515 C 0.98991 0.49868 0.98086 0.0
C1516 C 0.98235 0.47153 1.00563 0.0
H1517 H 0.08229 0.53758 0.03882 0.0
H1518 H 0.06438 0.52769 0.02259 0.0
H1519 H 0.99208 0.45734 0.01991 0.0
H1520 H 0.91216 0.4591 0.97737 0.0
H1521 H 0.9309 0.46897 0.99348 0.0
H1522 H 0.00353 0.53912 0.99589 0.0
C1523 C 0.05029 0.52091 0.02855 0.0
C1524 C 0.99457 0.47546 0.01475 0.0
C1525 C 0.06067 0.52637 0.03785 0.0
C1526 C 0.93383 0.47031 0.97822 0.0
C1527 C 0.94469 0.47576 0.98745 0.0
C1528 C 0.00107 0.52099 1.00104 0.0
C1529 C 0.02204 0.50691 0.02698 0.0
C1530 C 0.01013 0.50224 0.01715 0.0
C1531 C 0.97302 0.48973 0.98888 0.0
C1532 C 0.98541 0.49426 0.99866 0.0
H1533 H 0.00067 0.49678 0.05009 0.0
H1534 H 0.98271 0.48754 0.03399 0.0
H1535 H 0.02467 0.54604 0.01182 0.0
H1536 H 0.99312 0.49997 0.96566 0.0
H1537 H 0.01195 0.50918 0.98168 0.0
C1538 C 0.55996 0.52809 0.47835 0.0
C1539 C 0.54236 0.51942 0.47044 0.0
C1540 C 0.54956 0.52274 0.48766 0.0
C1541 C 0.47847 0.50924 0.50107 0.0
H1542 H 0.53178 0.48079 0.52113 0.0
C1543 C 0.43371 0.46826 0.53777 0.0
C1544 C 0.45097 0.47553 0.54588 0.0
C1545 C 0.44476 0.47457 0.5286 0.0
C1546 C 0.51664 0.48911 0.51564 0.0
H1547 H 0.50052 0.49722 0.46618 0.0
H1548 H 0.48279 0.48776 0.48229 0.0
H1549 H 0.55207 0.48963 0.50516 0.0
H1550 H 0.49301 0.49614 0.55068 0.0
H1551 H 0.51188 0.50745 0.53479 0.0
H1552 H 0.44305 0.50876 0.51152 0.0
C1553 C 0.50427 0.49925 0.48133 0.0
C1554 C 0.52831 0.49416 0.50649 0.0
C1555 C 0.51461 0.50453 0.47207 0.0
C1556 C 0.47915 0.48995 0.54461 0.0
C1557 C 0.49013 0.49628 0.53547 0.0
C1558 C 0.46683 0.50424 0.51022 0.0
C1559 C 0.52135 0.50867 0.48925 0.0
C1560 C 0.50932 0.50411 0.49908 0.0
C1561 C 0.47329 0.48834 0.52735 0.0
C1562 C 0.48572 0.49401 0.51762 0.0
H1563 H 0.58141 0.53962 0.47735 0.0
H1564 H 0.56322 0.53038 0.49361 0.0
H1565 H 0.46331 0.51743 0.49557 0.0
H1566 H 0.41196 0.45709 0.53848 0.0
H1567 H 0.43128 0.46792 0.5225 0.0
C1568 C 0.53726 0.93649 0.07047 0.0
C1569 C 0.53184 0.96354 0.07551 0.0
C1570 C 0.56686 0.92794 0.06813 0.0
C1571 C 0.63841 0.96314 0.06253 0.0
H1572 H 0.67679 0.88611 0.0681 0.0
C1573 C 0.76664 0.94874 0.06345 0.0
C1574 C 0.77966 0.92078 0.06102 0.0
C1575 C 0.73529 0.95237 0.06332 0.0
C1576 C 0.66619 0.90748 0.06628 0.0
H1577 H 0.55327 0.0016 0.08266 0.0
H1578 H 0.60472 0.98672 0.0785 0.0
H1579 H 0.62361 0.89399 0.07236 0.0
H1580 H 0.7704 0.87498 0.05628 0.0
H1581 H 0.71534 0.88147 0.05589 0.0
H1582 H 0.68067 0.97687 0.05647 0.0
C1583 C 0.58605 0.9724 0.07629 0.0
C1584 C 0.63587 0.91199 0.06879 0.0
C1585 C 0.55662 0.98075 0.07872 0.0
C1586 C 0.76083 0.89683 0.05812 0.0
C1587 C 0.72939 0.90049 0.05796 0.0
C1588 C 0.66851 0.95854 0.05992 0.0
C1589 C 0.5913 0.94649 0.07072 0.0
C1590 C 0.62212 0.94019 0.0672 0.0
C1591 C 0.71627 0.9281 0.0608 0.0
C1592 C 0.68304 0.93102 0.06204 0.0
H1593 H 0.51862 0.9227 0.06794 0.0
H1594 H 0.57051 0.90775 0.06388 0.0
H1595 H 0.62796 0.98488 0.06106 0.0
H1596 H 0.78039 0.96725 0.06607 0.0
H1597 H 0.72596 0.97372 0.06576 0.0
C1598 C 0.35241 0.50838 0.30924 0.0
C1599 C 0.32705 0.52707 0.31063 0.0
C1600 C 0.34903 0.47695 0.30866 0.0
C1601 C 0.29104 0.41552 0.30721 0.0
H1602 H 0.34726 0.37195 0.3235 0.0
C1603 C 0.25836 0.307 0.32656 0.0
C1604 C 0.27653 0.28147 0.32475 0.0
C1605 C 0.26806 0.33576 0.32384 0.0
C1606 C 0.33168 0.38379 0.31883 0.0
H1607 H 0.27825 0.52772 0.3124 0.0
H1608 H 0.27225 0.47324 0.31146 0.0
H1609 H 0.35744 0.42476 0.31936 0.0
H1610 H 0.32004 0.26633 0.3193 0.0
H1611 H 0.33738 0.31718 0.3148 0.0
H1612 H 0.26441 0.37496 0.30721 0.0
C1613 C 0.29472 0.48264 0.3105 0.0
C1614 C 0.33754 0.41394 0.31639 0.0
C1615 C 0.29811 0.514 0.311 0.0
C1616 C 0.30551 0.28558 0.32076 0.0
C1617 C 0.31541 0.31455 0.31816 0.0
C1618 C 0.28501 0.38559 0.30976 0.0
C1619 C 0.32022 0.46367 0.30961 0.0
C1620 C 0.31681 0.43041 0.31078 0.0
C1621 C 0.29628 0.33964 0.3194 0.0
C1622 C 0.30486 0.36982 0.3158 0.0
H1623 H 0.37499 0.518 0.30897 0.0
H1624 H 0.36907 0.46302 0.30783 0.0
H1625 H 0.27498 0.42732 0.3027 0.0
H1626 H 0.23597 0.30469 0.32965 0.0
H1627 H 0.25319 0.35496 0.32501 0.0
C1628 C 0.72889 0.10017 0.56242 0.0
C1629 C 0.71025 0.07487 0.564 0.0
C1630 C 0.7604 0.09706 0.56236 0.0
C1631 C 0.82211 0.03939 0.56209 0.0
H1632 H 0.86602 0.09948 0.57686 0.0
C1633 C 0.93472 0.01261 0.57987 0.0
C1634 C 0.95923 0.03091 0.57706 0.0
C1635 C 0.9051 0.02135 0.57784 0.0
C1636 C 0.85402 0.08277 0.57265 0.0
H1637 H 0.70984 0.02656 0.56682 0.0
H1638 H 0.76446 0.02105 0.56676 0.0
H1639 H 0.8126 0.1079 0.57303 0.0
H1640 H 0.97176 0.07392 0.57064 0.0
H1641 H 0.9195 0.08953 0.56731 0.0
H1642 H 0.86319 0.01361 0.56216 0.0
C1643 C 0.75498 0.04318 0.56525 0.0
C1644 C 0.82355 0.0876 0.57038 0.0
C1645 C 0.72355 0.04627 0.56524 0.0
C1646 C 0.95335 0.05927 0.57285 0.0
C1647 C 0.92355 0.06821 0.57093 0.0
C1648 C 0.85235 0.0344 0.56447 0.0
C1649 C 0.77381 0.06862 0.56401 0.0
C1650 C 0.80707 0.06561 0.56527 0.0
C1651 C 0.89936 0.04875 0.57311 0.0
C1652 C 0.86831 0.05572 0.56994 0.0
H1653 H 0.71909 0.12251 0.56152 0.0
H1654 H 0.77425 0.11703 0.56127 0.0
H1655 H 0.81032 0.02234 0.55796 0.0
H1656 H 0.9384 0.99073 0.58318 0.0
H1657 H 0.88666 0.00625 0.57971 0.0
C1658 C 0.1449 0.47918 0.80973 0.0
C1659 C 0.16915 0.46039 0.81239 0.0
C1660 C 0.14834 0.51066 0.80969 0.0
C1661 C 0.20622 0.57176 0.81145 0.0
H1662 H 0.14157 0.61666 0.82386 0.0
C1663 C 0.22769 0.68513 0.82946 0.0
C1664 C 0.21039 0.70948 0.82598 0.0
C1665 C 0.21948 0.65541 0.82734 0.0
C1666 C 0.15961 0.60438 0.8203 0.0
H1667 H 0.21587 0.45969 0.81717 0.0
H1668 H 0.22193 0.51421 0.81711 0.0
H1669 H 0.13405 0.56322 0.81984 0.0
H1670 H 0.1695 0.72173 0.81828 0.0
H1671 H 0.15481 0.66937 0.81477 0.0
H1672 H 0.23222 0.61258 0.81236 0.0
C1673 C 0.20052 0.50486 0.81475 0.0
C1674 C 0.1553 0.57391 0.81793 0.0
C1675 C 0.19712 0.47348 0.81473 0.0
C1676 C 0.18337 0.70342 0.82101 0.0
C1677 C 0.17496 0.67355 0.81899 0.0
C1678 C 0.21062 0.60201 0.81394 0.0
C1679 C 0.176 0.52385 0.81243 0.0
C1680 C 0.17885 0.5571 0.81368 0.0
C1681 C 0.19363 0.64947 0.82183 0.0
C1682 C 0.18762 0.61831 0.81857 0.0
H1683 H 0.12303 0.46955 0.80796 0.0
H1684 H 0.12913 0.52467 0.80777 0.0
H1685 H 0.22454 0.55966 0.80799 0.0
H1686 H 0.24852 0.68897 0.83336 0.0
H1687 H 0.23391 0.63704 0.82973 0.0
C1688 C 0.76808 0.047 0.45046 0.0
C1689 C 0.78116 0.07564 0.45182 0.0
C1690 C 0.73669 0.04364 0.45047 0.0
C1691 C 0.66776 0.08765 0.44553 0.0
H1692 H 0.62876 0.01306 0.45351 0.0
C1693 C 0.5383 0.05869 0.44273 0.0
C1694 C 0.53258 0.03032 0.43851 0.0
C1695 C 0.56803 0.06767 0.44474 0.0
C1696 C 0.63943 0.03401 0.45127 0.0
H1697 H 0.77196 0.1231 0.4545 0.0
H1698 H 0.71684 0.11716 0.45477 0.0
H1699 H 0.68156 0.02211 0.45775 0.0
H1700 H 0.55363 0.99011 0.43249 0.0
H1701 H 0.60525 0.0057 0.4361 0.0
H1702 H 0.62523 0.09936 0.43907 0.0
C1703 C 0.73084 0.09735 0.45358 0.0
C1704 C 0.66961 0.03919 0.45367 0.0
C1705 C 0.76233 0.10072 0.45351 0.0
C1706 C 0.55719 0.012 0.4358 0.0
C1707 C 0.58674 0.02079 0.43792 0.0
C1708 C 0.63735 0.08262 0.44324 0.0
C1709 C 0.71766 0.06887 0.45183 0.0
C1710 C 0.68443 0.06564 0.45058 0.0
C1711 C 0.5923 0.04823 0.44265 0.0
C1712 C 0.62329 0.05536 0.44586 0.0
H1713 H 0.78194 0.02746 0.44878 0.0
H1714 H 0.72738 0.0215 0.44887 0.0
H1715 H 0.67854 0.10813 0.44295 0.0
H1716 H 0.5198 0.07335 0.44487 0.0
H1717 H 0.57193 0.08903 0.44835 0.0
C1718 C 0.22852 0.30245 0.68333 0.0
C1719 C 0.21318 0.2787 0.68794 0.0
C1720 C 0.2185 0.33223 0.6843 0.0
C1721 C 0.17656 0.3797 0.70124 0.0
H1722 H 0.18907 0.44077 0.68173 0.0
C1723 C 0.14813 0.50863 0.70458 0.0
C1724 C 0.17116 0.52808 0.70138 0.0
C1725 C 0.15111 0.47726 0.70353 0.0
C1726 C 0.18558 0.42391 0.68724 0.0
H1727 H 0.17393 0.26722 0.69655 0.0
H1728 H 0.15603 0.31936 0.69807 0.0
H1729 H 0.1946 0.38735 0.67766 0.0
H1730 H 0.21515 0.53037 0.69453 0.0
H1731 H 0.22058 0.47565 0.69282 0.0
H1732 H 0.1674 0.41663 0.71079 0.0
C1733 C 0.17626 0.31496 0.69391 0.0
C1734 C 0.18871 0.39337 0.68493 0.0
C1735 C 0.18637 0.28509 0.69297 0.0
C1736 C 0.1976 0.5158 0.6974 0.0
C1737 C 0.20044 0.48457 0.69625 0.0
C1738 C 0.17307 0.41034 0.70353 0.0
C1739 C 0.19278 0.33893 0.68983 0.0
C1740 C 0.18502 0.37094 0.69195 0.0
C1741 C 0.17686 0.46514 0.69905 0.0
C1742 C 0.17834 0.43266 0.6966 0.0
H1743 H 0.24919 0.29828 0.67936 0.0
H1744 H 0.23197 0.35012 0.68113 0.0
H1745 H 0.17391 0.36303 0.70685 0.0
H1746 H 0.12729 0.51777 0.7075 0.0
H1747 H 0.13259 0.46267 0.7057 0.0
C1748 C 0.73194 0.89368 0.95541 0.0
C1749 C 0.71374 0.91943 0.95409 0.0
C1750 C 0.7634 0.89648 0.95603 0.0
C1751 C 0.82588 0.95329 0.95766 0.0
H1752 H 0.86844 0.89656 0.94125 0.0
C1753 C 0.93485 0.98424 0.93829 0.0
C1754 C 0.96013 0.96583 0.94021 0.0
C1755 C 0.90593 0.97492 0.94097 0.0
C1756 C 0.85687 0.91226 0.94595 0.0
H1757 H 0.71395 0.9683 0.95251 0.0
H1758 H 0.76853 0.97329 0.95351 0.0
H1759 H 0.81543 0.88731 0.94535 0.0
H1760 H 0.97464 0.92226 0.94577 0.0
H1761 H 0.92349 0.90558 0.95019 0.0
H1762 H 0.86693 0.97915 0.95771 0.0
C1763 C 0.75872 0.95095 0.95438 0.0
C1764 C 0.82661 0.90694 0.94837 0.0
C1765 C 0.72731 0.94815 0.95384 0.0
C1766 C 0.9556 0.93697 0.94424 0.0
C1767 C 0.92646 0.92744 0.94679 0.0
C1768 C 0.85592 0.9588 0.95512 0.0
C1769 C 0.7772 0.92507 0.95519 0.0
C1770 C 0.81052 0.92788 0.95403 0.0
C1771 C 0.90164 0.94685 0.94546 0.0
C1772 C 0.87133 0.93876 0.94904 0.0
H1773 H 0.72191 0.87127 0.95559 0.0
H1774 H 0.77695 0.87616 0.95681 0.0
H1775 H 0.81438 0.96949 0.9622 0.0
H1776 H 0.93749 0.00654 0.93517 0.0
H1777 H 0.88693 0.98998 0.93974 0.0
C1778 C 0.26131 0.68651 0.18576 0.0
C1779 C 0.27898 0.71072 0.18915 0.0
C1780 C 0.26922 0.65673 0.18791 0.0
C1781 C 0.32882 0.60528 0.19497 0.0
H1782 H 0.26375 0.56133 0.20748 0.0
C1783 C 0.34359 0.48065 0.20585 0.0
C1784 C 0.31937 0.46174 0.20327 0.0
C1785 C 0.34002 0.5121 0.20589 0.0
C1786 C 0.2821 0.57321 0.20396 0.0
H1787 H 0.32022 0.72261 0.19672 0.0
H1788 H 0.33438 0.67014 0.20027 0.0
H1789 H 0.25629 0.61413 0.20292 0.0
H1790 H 0.27244 0.46077 0.19872 0.0
H1791 H 0.26614 0.51529 0.19874 0.0
H1792 H 0.3542 0.56405 0.19557 0.0
C1793 C 0.31418 0.67449 0.1961 0.0
C1794 C 0.27782 0.60338 0.20136 0.0
C1795 C 0.30607 0.70442 0.19405 0.0
C1796 C 0.29121 0.47467 0.20107 0.0
C1797 C 0.28767 0.50605 0.20104 0.0
C1798 C 0.333 0.57489 0.19745 0.0
C1799 C 0.29514 0.65058 0.19336 0.0
C1800 C 0.3009 0.61942 0.19667 0.0
C1801 C 0.31224 0.52516 0.20321 0.0
C1802 C 0.30942 0.55835 0.20179 0.0
H1803 H 0.24042 0.69054 0.18191 0.0
H1804 H 0.25451 0.63849 0.18558 0.0
H1805 H 0.34691 0.61734 0.19137 0.0
H1806 H 0.3656 0.47113 0.20753 0.0
H1807 H 0.35925 0.52618 0.20774 0.0
C1808 C 0.43504 0.00741 0.93679 0.0
C1809 C 0.46001 0.02613 0.93879 0.0
C1810 C 0.40583 0.01665 0.93918 0.0
C1811 C 0.35626 0.07972 0.94387 0.0
H1812 H 0.31294 0.0224 0.95987 0.0
C1813 C 0.23201 0.10036 0.95416 0.0
C1814 C 0.2131 0.07509 0.95293 0.0
C1815 C 0.26346 0.09685 0.95439 0.0
C1816 C 0.32465 0.03861 0.95538 0.0
H1817 H 0.47372 0.07016 0.94418 0.0
H1818 H 0.42216 0.08664 0.94813 0.0
H1819 H 0.36537 0.01223 0.95538 0.0
H1820 H 0.21207 0.02635 0.951 0.0
H1821 H 0.26661 0.02013 0.95134 0.0
H1822 H 0.31518 0.10533 0.9434 0.0
C1823 C 0.42553 0.06462 0.94487 0.0
C1824 C 0.35462 0.03279 0.95283 0.0
C1825 C 0.45493 0.0552 0.94259 0.0
C1826 C 0.22602 0.04612 0.95229 0.0
C1827 C 0.2574 0.04261 0.95245 0.0
C1828 C 0.32607 0.08537 0.9463 0.0
C1829 C 0.40097 0.04494 0.94348 0.0
C1830 C 0.37039 0.05294 0.94688 0.0
C1831 C 0.27653 0.06801 0.95324 0.0
C1832 C 0.3097 0.06446 0.9519 0.0
H1833 H 0.43811 0.98494 0.93382 0.0
H1834 H 0.38706 0.00134 0.9379 0.0
H1835 H 0.36809 0.09554 0.93927 0.0
H1836 H 0.22249 0.12297 0.9546 0.0
H1837 H 0.27754 0.11681 0.95515 0.0
C1838 C 0.68173 0.70608 0.69589 0.0
C1839 C 0.70998 0.71076 0.69146 0.0
C1840 C 0.67248 0.67682 0.69841 0.0
C1841 C 0.7045 0.60616 0.70611 0.0
H1842 H 0.63305 0.56517 0.69654 0.0
C1843 C 0.69555 0.47746 0.7044 0.0
C1844 C 0.66705 0.46344 0.7047 0.0
C1845 C 0.69791 0.5089 0.70503 0.0
C1846 C 0.65268 0.57647 0.69951 0.0
H1847 H 0.74983 0.68828 0.68571 0.0
H1848 H 0.7338 0.63751 0.69025 0.0
H1849 H 0.64143 0.61847 0.69262 0.0
H1850 H 0.61883 0.47086 0.70639 0.0
H1851 H 0.62295 0.52593 0.70779 0.0
H1852 H 0.71606 0.56449 0.71296 0.0
C1853 C 0.71899 0.65649 0.69179 0.0
C1854 C 0.6575 0.6069 0.69719 0.0
C1855 C 0.728 0.68553 0.68914 0.0
C1856 C 0.64109 0.48123 0.70617 0.0
C1857 C 0.64344 0.51272 0.7069 0.0
C1858 C 0.69949 0.57595 0.70855 0.0
C1859 C 0.69158 0.65203 0.69666 0.0
C1860 C 0.68397 0.62156 0.7002 0.0
C1861 C 0.6718 0.52698 0.706 0.0
C1862 C 0.6741 0.5604 0.70499 0.0
H1863 H 0.66733 0.72508 0.69775 0.0
H1864 H 0.65114 0.67371 0.70212 0.0
H1865 H 0.72487 0.61732 0.70862 0.0
H1866 H 0.71584 0.46444 0.70296 0.0
H1867 H 0.72006 0.51905 0.70412 0.0
C1868 C 0.05733 0.97878 0.43777 0.0
C1869 C 0.03227 0.96073 0.44024 0.0
C1870 C 0.08651 0.96994 0.44032 0.0
C1871 C 0.13666 0.90891 0.44576 0.0
H1872 H 0.1786 0.96787 0.46151 0.0
C1873 C 0.26209 0.89273 0.45515 0.0
C1874 C 0.27996 0.91869 0.4538 0.0
C1875 C 0.23057 0.8951 0.4557 0.0
C1876 C 0.16729 0.9512 0.45709 0.0
H1877 H 0.01837 0.91816 0.44667 0.0
H1878 H 0.06996 0.90226 0.45086 0.0
H1879 H 0.12581 0.97641 0.4571 0.0
H1880 H 0.27909 0.96749 0.45208 0.0
H1881 H 0.22442 0.97174 0.45292 0.0
H1882 H 0.17849 0.88459 0.44519 0.0
C1883 C 0.06663 0.9235 0.44712 0.0
C1884 C 0.1371 0.95607 0.45461 0.0
C1885 C 0.03724 0.93258 0.4447 0.0
C1886 C 0.26598 0.9472 0.45342 0.0
C1887 C 0.23451 0.94957 0.45388 0.0
C1888 C 0.16708 0.90424 0.44811 0.0
C1889 C 0.09127 0.94267 0.44523 0.0
C1890 C 0.12185 0.93535 0.44874 0.0
C1891 C 0.21636 0.92347 0.45474 0.0
C1892 C 0.18298 0.92579 0.45359 0.0
H1893 H 0.05436 0.00054 0.43431 0.0
H1894 H 0.10537 0.98481 0.43869 0.0
H1895 H 0.12521 0.8927 0.44121 0.0
H1896 H 0.27244 0.87047 0.45542 0.0
H1897 H 0.21731 0.87461 0.45653 0.0
C1898 C 0.84259 0.51033 0.20437 0.0
C1899 C 0.81963 0.52994 0.20123 0.0
C1900 C 0.83938 0.47899 0.20332 0.0
C1901 C 0.80402 0.42567 0.18719 0.0
H1902 H 0.81692 0.36499 0.20677 0.0
C1903 C 0.76291 0.30333 0.18337 0.0
C1904 C 0.77873 0.27993 0.18799 0.0
C1905 C 0.77234 0.33332 0.18432 0.0
C1906 C 0.8139 0.38161 0.20116 0.0
H1907 H 0.77552 0.53253 0.19448 0.0
H1908 H 0.7697 0.47784 0.19277 0.0
H1909 H 0.82329 0.41862 0.21064 0.0
H1910 H 0.81826 0.26929 0.19656 0.0
H1911 H 0.83518 0.32174 0.19801 0.0
H1912 H 0.79485 0.389 0.17767 0.0
C1913 C 0.78997 0.48662 0.19615 0.0
C1914 C 0.81732 0.41227 0.20342 0.0
C1915 C 0.79304 0.51784 0.19729 0.0
C1916 C 0.80543 0.28688 0.19299 0.0
C1917 C 0.81498 0.31694 0.19389 0.0
C1918 C 0.80097 0.39509 0.1849 0.0
C1919 C 0.81345 0.46703 0.19891 0.0
C1920 C 0.8117 0.43452 0.1965 0.0
C1921 C 0.79796 0.34056 0.18982 0.0
C1922 C 0.80518 0.37272 0.19191 0.0
H1923 H 0.86353 0.51933 0.20724 0.0
H1924 H 0.85784 0.46428 0.20545 0.0
H1925 H 0.80025 0.44248 0.18167 0.0
H1926 H 0.74228 0.29874 0.17945 0.0
H1927 H 0.7585 0.35093 0.18115 0.0
C1928 C 0.22896 0.8918 0.55993 0.0
C1929 C 0.21113 0.91777 0.56135 0.0
C1930 C 0.26048 0.89414 0.55936 0.0
C1931 C 0.32377 0.95018 0.55797 0.0
H1932 H 0.36597 0.8916 0.57381 0.0
C1933 C 0.43351 0.97786 0.57737 0.0
C1934 C 0.45865 0.95987 0.57493 0.0
C1935 C 0.40439 0.96897 0.57477 0.0
C1936 C 0.35449 0.90783 0.56927 0.0
H1937 H 0.21211 0.96652 0.56321 0.0
H1938 H 0.26677 0.9707 0.56231 0.0
H1939 H 0.31268 0.88346 0.56983 0.0
H1940 H 0.47275 0.91736 0.56851 0.0
H1941 H 0.42126 0.90137 0.56423 0.0
H1942 H 0.36521 0.97544 0.55798 0.0
C1943 C 0.25663 0.94857 0.56131 0.0
C1944 C 0.32407 0.90314 0.56692 0.0
C1945 C 0.22517 0.94624 0.5618 0.0
C1946 C 0.45382 0.93174 0.57045 0.0
C1947 C 0.42449 0.92261 0.56798 0.0
C1948 C 0.35396 0.95505 0.56045 0.0
C1949 C 0.27473 0.92246 0.56036 0.0
C1950 C 0.30812 0.92473 0.56146 0.0
C1951 C 0.39978 0.94171 0.56984 0.0
C1952 C 0.36925 0.93432 0.56631 0.0
H1953 H 0.21857 0.86957 0.55962 0.0
H1954 H 0.27371 0.87365 0.55848 0.0
H1955 H 0.31241 0.96687 0.55358 0.0
H1956 H 0.43638 -0.00039 0.58084 0.0
H1957 H 0.38548 0.98379 0.57639 0.0
C1958 C 0.79599 0.47711 0.31261 0.0
C1959 C 0.82453 0.46342 0.31362 0.0
C1960 C 0.79328 0.50861 0.31257 0.0
C1961 C 0.79096 0.5707 0.32109 0.0
H1962 H 0.8513 0.62746 0.31186 0.0
C1963 C 0.78256 0.69504 0.33151 0.0
C1964 C 0.7871 0.71604 0.32414 0.0
C1965 C 0.79179 0.66501 0.3304 0.0
C1966 C 0.83414 0.61193 0.31444 0.0
H1967 H 0.87274 0.47207 0.31493 0.0
H1968 H 0.8679 0.52692 0.31529 0.0
H1969 H 0.85605 0.57379 0.30798 0.0
H1970 H 0.8065 0.72277 0.31007 0.0
H1971 H 0.82156 0.67021 0.30796 0.0
H1972 H 0.76824 0.60865 0.32717 0.0
C1973 C 0.84765 0.51346 0.31426 0.0
C1974 C 0.837 0.58112 0.31228 0.0
C1975 C 0.8504 0.48195 0.31413 0.0
C1976 C 0.80281 0.70703 0.31589 0.0
C1977 C 0.81152 0.67686 0.3147 0.0
C1978 C 0.7879 0.60141 0.32314 0.0
C1979 C 0.81893 0.52713 0.31381 0.0
C1980 C 0.81542 0.56013 0.31559 0.0
C1981 C 0.8051 0.65526 0.3218 0.0
C1982 C 0.8095 0.62244 0.31989 0.0
H1983 H 0.77543 0.46385 0.3125 0.0
H1984 H 0.77085 0.51841 0.31199 0.0
H1985 H 0.77425 0.5552 0.32396 0.0
H1986 H 0.77082 0.70156 0.33799 0.0
H1987 H 0.78738 0.64918 0.33614 0.0
C1988 C 0.05379 0.01212 0.08128 0.0
C1989 C 0.02998 0.02937 0.07743 0.0
C1990 C 0.0838 0.02002 0.07945 0.0
C1991 C 0.13579 0.07925 0.07206 0.0
H1992 H 0.18087 0.01276 0.06075 0.0
C1993 C 0.26001 0.09383 0.06037 0.0
C1994 C 0.27947 0.07028 0.06316 0.0
C1995 C 0.22862 0.08994 0.06075 0.0
C1996 C 0.1687 0.03151 0.06395 0.0
H1997 H 0.01893 0.06998 0.0694 0.0
H1998 H 0.0717 0.08408 0.06638 0.0
H1999 H 0.12807 0.00541 0.06528 0.0
H2000 H 0.28147 0.02434 0.06863 0.0
H2001 H 0.22706 0.01751 0.06932 0.0
H2002 H 0.1767 0.10505 0.07111 0.0
C2003 C 0.06693 0.06423 0.07067 0.0
C2004 C 0.13851 0.02728 0.06654 0.0
C2005 C 0.0368 0.05614 0.07241 0.0
C2006 C 0.26711 0.0425 0.06609 0.0
C2007 C 0.23581 0.03868 0.06653 0.0
C2008 C 0.16619 0.0834 0.06959 0.0
C2009 C 0.09054 0.04551 0.07386 0.0
C2010 C 0.122 0.05093 0.07076 0.0
C2011 C 0.21619 0.06254 0.06406 0.0
C2012 C 0.18312 0.05937 0.06566 0.0
H2013 H 0.04934 0.9915 0.08524 0.0
H2014 H 0.10176 0.00557 0.08212 0.0
H2015 H 0.12337 0.0978 0.07529 0.0
H2016 H 0.26909 0.11554 0.05816 0.0
H2017 H 0.21412 0.10862 0.05868 0.0
C2018 C 0.69983 0.51843 0.81749 0.0
C2019 C 0.67218 0.53014 0.81421 0.0
C2020 C 0.70358 0.48727 0.8186 0.0
C2021 C 0.67547 0.41234 0.81225 0.0
H2022 H 0.7031 0.39048 0.83762 0.0
C2023 C 0.68965 0.28748 0.82322 0.0
C2024 C 0.7172 0.28086 0.82779 0.0
C2025 C 0.68 0.31749 0.82224 0.0
C2026 C 0.69556 0.39617 0.83049 0.0
H2027 H 0.62713 0.51883 0.80924 0.0
H2028 H 0.63397 0.46391 0.81097 0.0
H2029 H 0.69669 0.44371 0.83346 0.0
H2030 H 0.75519 0.30027 0.83549 0.0
H2031 H 0.73877 0.35233 0.83365 0.0
H2032 H 0.6754 0.36488 0.80914 0.0
C2033 C 0.6527 0.47889 0.81263 0.0
C2034 C 0.69193 0.42661 0.82811 0.0
C2035 C 0.64883 0.51016 0.81162 0.0
C2036 C 0.7339 0.3046 0.8319 0.0
C2037 C 0.72436 0.33452 0.83088 0.0
C2038 C 0.67948 0.3818 0.81459 0.0
C2039 C 0.67974 0.46734 0.81644 0.0
C2040 C 0.68235 0.43496 0.81894 0.0
C2041 C 0.69774 0.34139 0.82582 0.0
C2042 C 0.69005 0.37342 0.82369 0.0
H2043 H 0.71779 0.5334 0.81985 0.0
H2044 H 0.72469 0.4788 0.82151 0.0
H2045 H 0.66799 0.41831 0.80513 0.0
H2046 H 0.67616 0.26963 0.82004 0.0
H2047 H 0.65907 0.32202 0.81847 0.0
C2048 C 0.05294 0.48071 0.58126 0.0
C2049 C 0.02901 0.46505 0.57687 0.0
C2050 C 0.08271 0.4709 0.5801 0.0
C2051 C 0.12936 0.42874 0.56298 0.0
H2052 H 0.19152 0.44205 0.58206 0.0
C2053 C 0.25802 0.39946 0.55933 0.0
C2054 C 0.27774 0.42243 0.5624 0.0
C2055 C 0.2267 0.40287 0.56036 0.0
C2056 C 0.17435 0.43836 0.57666 0.0
H2057 H 0.01725 0.42546 0.56846 0.0
H2058 H 0.06939 0.40792 0.56662 0.0
H2059 H 0.13836 0.44758 0.58644 0.0
H2060 H 0.2805 0.46693 0.56891 0.0
H2061 H 0.22586 0.47309 0.57058 0.0
H2062 H 0.16574 0.41929 0.55324 0.0
C2063 C 0.06512 0.42824 0.57074 0.0
C2064 C 0.14396 0.44148 0.57916 0.0
C2065 C 0.03525 0.43814 0.57187 0.0
C2066 C 0.26575 0.44935 0.56616 0.0
C2067 C 0.23456 0.45264 0.56728 0.0
C2068 C 0.15985 0.42525 0.56051 0.0
C2069 C 0.08923 0.44507 0.5746 0.0
C2070 C 0.12113 0.43746 0.57229 0.0
C2071 C 0.21488 0.42904 0.56468 0.0
C2072 C 0.18255 0.4308 0.56728 0.0
H2073 H 0.04889 0.50146 0.58519 0.0
H2074 H 0.10071 0.4846 0.5831 0.0
H2075 H 0.11235 0.42583 0.55748 0.0
H2076 H 0.26692 0.37828 0.55659 0.0
H2077 H 0.21191 0.38435 0.55835 0.0
C2078 C 0.84989 0.0093 0.80911 0.0
C2079 C 0.82443 0.02791 0.81044 0.0
C2080 C 0.84663 0.97786 0.80859 0.0
C2081 C 0.78896 0.91602 0.80746 0.0
H2082 H 0.84513 0.87409 0.82419 0.0
C2083 C 0.75643 0.80907 0.82769 0.0
C2084 C 0.77482 0.78351 0.82616 0.0
C2085 C 0.76601 0.83762 0.82472 0.0
C2086 C 0.82957 0.88546 0.8194 0.0
H2087 H 0.77559 0.02845 0.81208 0.0
H2088 H 0.76981 0.97392 0.81125 0.0
H2089 H 0.85517 0.92654 0.81962 0.0
H2090 H 0.8186 0.76818 0.82099 0.0
H2091 H 0.83573 0.81868 0.81606 0.0
H2092 H 0.76247 0.87538 0.80778 0.0
C2093 C 0.79226 0.98338 0.81031 0.0
C2094 C 0.83536 0.91539 0.81671 0.0
C2095 C 0.79552 0.01477 0.81075 0.0
C2096 C 0.8039 0.78745 0.82222 0.0
C2097 C 0.81368 0.81622 0.81938 0.0
C2098 C 0.783 0.88631 0.81026 0.0
C2099 C 0.81786 0.96449 0.80955 0.0
C2100 C 0.81463 0.9313 0.81093 0.0
C2101 C 0.79433 0.84127 0.82032 0.0
C2102 C 0.80283 0.87114 0.81646 0.0
H2103 H 0.87244 0.019 0.80889 0.0
H2104 H 0.86674 0.96398 0.80785 0.0
H2105 H 0.7729 0.92738 0.80284 0.0
H2106 H 0.73395 0.80688 0.83072 0.0
H2107 H 0.75098 0.85682 0.82567 0.0
C2108 C 0.2322 0.60085 0.06166 0.0
C2109 C 0.21366 0.57526 0.06281 0.0
C2110 C 0.26367 0.59775 0.06123 0.0
C2111 C 0.32555 0.5403 0.05961 0.0
H2112 H 0.36884 0.59676 0.07591 0.0
C2113 C 0.43589 0.50907 0.07815 0.0
C2114 C 0.46094 0.5276 0.07605 0.0
C2115 C 0.40671 0.51839 0.07578 0.0
C2116 C 0.35705 0.5811 0.07125 0.0
H2117 H 0.2133 0.52639 0.06437 0.0
H2118 H 0.2679 0.52087 0.06371 0.0
H2119 H 0.31573 0.60625 0.07199 0.0
H2120 H 0.47481 0.57138 0.07048 0.0
H2121 H 0.42325 0.58803 0.06659 0.0
H2122 H 0.36651 0.5143 0.05938 0.0
C2123 C 0.25836 0.54331 0.06281 0.0
C2124 C 0.32674 0.58657 0.06894 0.0
C2125 C 0.22695 0.54642 0.06315 0.0
C2126 C 0.45596 0.55657 0.07215 0.0
C2127 C 0.42657 0.56609 0.06991 0.0
C2128 C 0.35564 0.53465 0.06204 0.0
C2129 C 0.27715 0.569 0.06211 0.0
C2130 C 0.31042 0.5658 0.06329 0.0
C2131 C 0.40193 0.54658 0.07141 0.0
C2132 C 0.37134 0.55461 0.06806 0.0
H2133 H 0.22239 0.62336 0.06143 0.0
H2134 H 0.27746 0.61794 0.06054 0.0
H2135 H 0.31389 0.52422 0.05508 0.0
H2136 H 0.43888 0.48668 0.08118 0.0
H2137 H 0.38787 0.50322 0.07713 0.0
C2138 C 0.7229 0.18812 0.33261 0.0
C2139 C 0.70864 0.21181 0.32766 0.0
C2140 C 0.71194 0.15858 0.33191 0.0
C2141 C 0.66998 0.11071 0.31517 0.0
H2142 H 0.67886 0.0513 0.33537 0.0
C2143 C 0.64277 0.98177 0.31157 0.0
C2144 C 0.66553 0.96261 0.31512 0.0
C2145 C 0.64467 0.01311 0.31293 0.0
C2146 C 0.67631 0.0677 0.32967 0.0
H2147 H 0.67033 0.22357 0.31868 0.0
H2148 H 0.65086 0.17191 0.3176 0.0
H2149 H 0.6853 0.10498 0.33898 0.0
H2150 H 0.70763 0.96087 0.32306 0.0
H2151 H 0.71126 0.01548 0.32528 0.0
H2152 H 0.66121 0.07313 0.30587 0.0
C2153 C 0.67094 0.17612 0.32184 0.0
C2154 C 0.67998 0.09838 0.33173 0.0
C2155 C 0.68198 0.20572 0.32252 0.0
C2156 C 0.69038 0.9752 0.31993 0.0
C2157 C 0.69215 0.00638 0.32137 0.0
C2158 C 0.66603 0.07997 0.31313 0.0
C2159 C 0.68635 0.15211 0.3263 0.0
C2160 C 0.67772 0.12017 0.32445 0.0
C2161 C 0.66903 0.02553 0.31806 0.0
C2162 C 0.67003 0.0582 0.32032 0.0
H2163 H 0.74343 0.19207 0.33666 0.0
H2164 H 0.72456 0.14061 0.33537 0.0
H2165 H 0.66843 0.12688 0.30938 0.0
H2166 H 0.6231 0.97239 0.30801 0.0
H2167 H 0.62652 0.02746 0.31035 0.0
C2168 C 0.26104 0.59591 0.95311 0.0
C2169 C 0.28068 0.57306 0.94989 0.0
C2170 C 0.22978 0.5932 0.95179 0.0
C2171 C 0.16326 0.57174 0.95175 0.0
H2172 H 0.13885 0.54892 0.92614 0.0
C2173 C 0.05387 0.51587 0.93256 0.0
C2174 C 0.03056 0.53167 0.93724 0.0
C2175 C 0.08379 0.52573 0.93324 0.0
C2176 C 0.14528 0.55519 0.93333 0.0
H2177 H 0.28328 0.52965 0.94268 0.0
H2178 H 0.22871 0.52471 0.94047 0.0
H2179 H 0.19251 0.55469 0.92987 0.0
H2180 H 0.01998 0.57155 0.94567 0.0
H2181 H 0.07231 0.58913 0.94671 0.0
H2182 H 0.11617 0.57115 0.95534 0.0
C2183 C 0.23744 0.54459 0.94409 0.0
C2184 C 0.17597 0.55844 0.93546 0.0
C2185 C 0.26859 0.54716 0.9455 0.0
C2186 C 0.03749 0.55875 0.94205 0.0
C2187 C 0.06748 0.56869 0.94271 0.0
C2188 C 0.13252 0.56819 0.94965 0.0
C2189 C 0.21784 0.56787 0.94703 0.0
C2190 C 0.18523 0.56619 0.94473 0.0
C2191 C 0.09105 0.55173 0.93857 0.0
C2192 C 0.12324 0.55933 0.94046 0.0
H2193 H 0.26997 0.6163 0.95638 0.0
H2194 H 0.21511 0.6115 0.95408 0.0
H2195 H 0.16989 0.57771 0.95895 0.0
H2196 H 0.04928 0.49499 0.92876 0.0
H2197 H 0.10137 0.51195 0.93003 0.0
C2198 C 0.6978 0.01663 0.20232 0.0
C2199 C 0.66964 0.02941 0.20464 0.0
C2200 C 0.70159 0.98529 0.20231 0.0
C2201 C 0.65731 0.91623 0.19863 0.0
H2202 H 0.73441 0.87798 0.20421 0.0
C2203 C 0.6874 0.7878 0.19355 0.0
C2204 C 0.71504 0.783 0.18877 0.0
C2205 C 0.67844 0.81714 0.19608 0.0
C2206 C 0.71275 0.88843 0.20264 0.0
H2207 H 0.6236 0.01966 0.20905 0.0
H2208 H 0.63033 0.9646 0.20919 0.0
H2209 H 0.72575 0.93032 0.20909 0.0
H2210 H 0.75373 0.80531 0.18223 0.0
H2211 H 0.73812 0.85626 0.1867 0.0
H2212 H 0.64458 0.87406 0.19212 0.0
C2213 C 0.64941 0.97886 0.20731 0.0
C2214 C 0.70778 0.91832 0.20542 0.0
C2215 C 0.64561 0.0103 0.2073 0.0
C2216 C 0.73245 0.80817 0.18598 0.0
C2217 C 0.72367 0.83732 0.18859 0.0
C2218 C 0.66219 0.88611 0.19594 0.0
C2219 C 0.67724 0.96602 0.20458 0.0
C2220 C 0.6804 0.93288 0.20317 0.0
C2221 C 0.69715 0.84192 0.19393 0.0
C2222 C 0.69031 0.87239 0.19766 0.0
H2223 H 0.7164 0.03059 0.19987 0.0
H2224 H 0.72313 0.97618 0.19996 0.0
H2225 H 0.63606 0.92688 0.19671 0.0
H2226 H 0.67344 0.76886 0.19576 0.0
H2227 H 0.65778 0.82028 0.20014 0.0
C2228 C 0.45589 0.43787 0.44546 0.0
C2229 C 0.46022 0.46645 0.44122 0.0
C2230 C 0.42684 0.42835 0.44809 0.0
C2231 C 0.35594 0.45971 0.45616 0.0
H2232 H 0.31662 0.38669 0.44706 0.0
C2233 C 0.2276 0.44691 0.45481 0.0
C2234 C 0.21448 0.418 0.45525 0.0
C2235 C 0.25894 0.45025 0.45544 0.0
C2236 C 0.32748 0.40677 0.44989 0.0
H2237 H 0.43739 0.5067 0.43592 0.0
H2238 H 0.3869 0.49016 0.44063 0.0
H2239 H 0.36945 0.39641 0.44286 0.0
H2240 H 0.22332 0.37012 0.45719 0.0
H2241 H 0.27823 0.37599 0.45857 0.0
H2242 H 0.31424 0.47036 0.46316 0.0
C2243 C 0.406 0.4753 0.44196 0.0
C2244 C 0.35763 0.41236 0.44742 0.0
C2245 C 0.43486 0.48459 0.43919 0.0
C2246 C 0.23301 0.39267 0.45687 0.0
C2247 C 0.26439 0.39602 0.45758 0.0
C2248 C 0.326 0.45394 0.45876 0.0
C2249 C 0.40189 0.4475 0.44663 0.0
C2250 C 0.37166 0.43937 0.45027 0.0
C2251 C 0.27778 0.42474 0.45652 0.0
C2252 C 0.31106 0.42795 0.45537 0.0
H2253 H 0.47503 0.42338 0.44708 0.0
H2254 H 0.42403 0.40672 0.45164 0.0
H2255 H 0.36663 0.48046 0.45857 0.0
H2256 H 0.21398 0.46672 0.45326 0.0
H2257 H 0.26842 0.47265 0.4544 0.0
C2258 C 0.76532 0.18957 0.68214 0.0
C2259 C 0.78067 0.21305 0.68688 0.0
C2260 C 0.77546 0.15975 0.68288 0.0
C2261 C 0.81724 0.11139 0.69952 0.0
H2262 H 0.80598 0.05141 0.67961 0.0
C2263 C 0.84425 0.98276 0.70348 0.0
C2264 C 0.82184 0.96319 0.69994 0.0
C2265 C 0.84187 0.01403 0.70207 0.0
C2266 C 0.80912 0.06794 0.68524 0.0
H2267 H 0.82005 0.22403 0.69548 0.0
H2268 H 0.83807 0.17184 0.69663 0.0
H2269 H 0.80009 0.10505 0.67585 0.0
H2270 H 0.77983 0.96064 0.69198 0.0
H2271 H 0.77528 0.01519 0.6897 0.0
H2272 H 0.82608 0.07404 0.7089 0.0
C2273 C 0.81779 0.17648 0.69253 0.0
C2274 C 0.8058 0.09862 0.68309 0.0
C2275 C 0.80759 0.20639 0.69181 0.0
C2276 C 0.7968 0.97531 0.69511 0.0
C2277 C 0.79453 0.00646 0.69363 0.0
C2278 C 0.82079 0.08066 0.70165 0.0
C2279 C 0.80128 0.15275 0.68832 0.0
C2280 C 0.8091 0.12065 0.69025 0.0
C2281 C 0.81735 0.02603 0.69692 0.0
C2282 C 0.81601 0.05866 0.69458 0.0
H2283 H 0.74458 0.19396 0.67825 0.0
H2284 H 0.76205 0.14202 0.67961 0.0
H2285 H 0.81955 0.12775 0.70523 0.0
H2286 H 0.86407 0.97375 0.70705 0.0
H2287 H 0.85984 0.02867 0.70462 0.0
C2288 C 0.95596 0.55143 0.44212 0.0
C2289 C 0.96223 0.52379 0.43752 0.0
C2290 C 0.92602 0.56004 0.44395 0.0
C2291 C 0.85388 0.52457 0.44891 0.0
H2292 H 0.817 0.60243 0.4435 0.0
C2293 C 0.72557 0.54223 0.4493 0.0
C2294 C 0.71375 0.57045 0.45203 0.0
C2295 C 0.75679 0.53779 0.44883 0.0
C2296 C 0.82715 0.58079 0.44525 0.0
H2297 H 0.94203 0.48477 0.43053 0.0
H2298 H 0.88996 0.49979 0.43377 0.0
H2299 H 0.8701 0.59372 0.4393 0.0
H2300 H 0.72507 0.61593 0.45662 0.0
H2301 H 0.7799 0.60798 0.45603 0.0
H2302 H 0.81133 0.5115 0.4549 0.0
C2303 C 0.90821 0.51451 0.43608 0.0
C2304 C 0.85744 0.5758 0.44278 0.0
C2305 C 0.93801 0.50605 0.43417 0.0
C2306 C 0.7337 0.59388 0.45457 0.0
C2307 C 0.76501 0.5894 0.45415 0.0
C2308 C 0.82381 0.52963 0.45148 0.0
C2309 C 0.90203 0.54101 0.44125 0.0
C2310 C 0.87075 0.54739 0.44438 0.0
C2311 C 0.77688 0.56149 0.45107 0.0
C2312 C 0.80986 0.55754 0.44947 0.0
H2313 H 0.97415 0.56565 0.44475 0.0
H2314 H 0.92171 0.58067 0.44792 0.0
H2315 H 0.86394 0.50267 0.45041 0.0
H2316 H 0.71084 0.52411 0.44694 0.0
H2317 H 0.76511 0.51623 0.44622 0.0
C2318 C 0.23176 0.18435 0.18616 0.0
C2319 C 0.21435 0.20925 0.18916 0.0
C2320 C 0.22329 0.15501 0.18866 0.0
C2321 C 0.16257 0.10544 0.19602 0.0
H2322 H 0.22671 0.06142 0.20895 0.0
C2323 C 0.14699 0.98094 0.20706 0.0
C2324 C 0.17115 0.96206 0.20437 0.0
C2325 C 0.1506 0.0124 0.20716 0.0
C2326 C 0.20859 0.07336 0.20534 0.0
H2327 H 0.17302 0.22278 0.19643 0.0
H2328 H 0.15788 0.17105 0.20062 0.0
H2329 H 0.23488 0.11394 0.20418 0.0
H2330 H 0.21796 0.96123 0.19964 0.0
H2331 H 0.22434 0.01569 0.19984 0.0
H2332 H 0.13677 0.06447 0.19673 0.0
C2333 C 0.17831 0.17453 0.19647 0.0
C2334 C 0.21327 0.10335 0.20262 0.0
C2335 C 0.18698 0.20403 0.19406 0.0
C2336 C 0.19926 0.97505 0.20211 0.0
C2337 C 0.20285 0.0064 0.20217 0.0
C2338 C 0.15798 0.07522 0.19864 0.0
C2339 C 0.19706 0.14999 0.19409 0.0
C2340 C 0.19061 0.11934 0.19773 0.0
C2341 C 0.17836 0.02547 0.20447 0.0
C2342 C 0.18127 0.05865 0.20311 0.0
H2343 H 0.25285 0.18754 0.18232 0.0
H2344 H 0.23777 0.13625 0.18661 0.0
H2345 H 0.14479 0.11747 0.19227 0.0
H2346 H 0.12502 0.97141 0.20877 0.0
H2347 H 0.13142 0.02649 0.20906 0.0
C2348 C 0.55826 0.48084 0.93828 0.0
C2349 C 0.53318 0.46259 0.94057 0.0
C2350 C 0.58736 0.47207 0.94096 0.0
C2351 C 0.63702 0.41048 0.94665 0.0
H2352 H 0.6792 0.46973 0.96222 0.0
C2353 C 0.76183 0.39304 0.9565 0.0
C2354 C 0.78009 0.41865 0.95501 0.0
C2355 C 0.73034 0.39591 0.95699 0.0
C2356 C 0.66782 0.45298 0.95786 0.0
H2357 H 0.51916 0.41982 0.94683 0.0
H2358 H 0.57057 0.40406 0.95125 0.0
H2359 H 0.62669 0.47874 0.95758 0.0
H2360 H 0.77997 0.46736 0.95301 0.0
H2361 H 0.72536 0.47246 0.95376 0.0
H2362 H 0.67851 0.38555 0.94637 0.0
C2363 C 0.56735 0.42538 0.94754 0.0
C2364 C 0.63779 0.45812 0.95524 0.0
C2365 C 0.53805 0.43438 0.945 0.0
C2366 C 0.76654 0.44734 0.95447 0.0
C2367 C 0.7351 0.4502 0.95486 0.0
C2368 C 0.66727 0.40553 0.94914 0.0
C2369 C 0.592 0.44469 0.94582 0.0
C2370 C 0.62246 0.43729 0.94942 0.0
C2371 C 0.71657 0.42442 0.95584 0.0
C2372 C 0.68327 0.42714 0.95456 0.0
H2373 H 0.55534 0.50267 0.93486 0.0
H2374 H 0.60622 0.48705 0.93944 0.0
H2375 H 0.62551 0.39416 0.94215 0.0
H2376 H 0.77185 0.37065 0.95689 0.0
H2377 H 0.71677 0.37566 0.95791 0.0
C2378 C 0.30383 0.78697 0.69309 0.0
C2379 C 0.27468 0.78247 0.68928 0.0
C2380 C 0.31359 0.81611 0.69555 0.0
C2381 C 0.28274 0.88709 0.70392 0.0
H2382 H 0.35552 0.92608 0.69447 0.0
C2383 C 0.29704 0.01556 0.70342 0.0
C2384 C 0.3261 0.0283 0.70398 0.0
C2385 C 0.29333 0.9842 0.70363 0.0
C2386 C 0.3355 0.91531 0.69738 0.0
H2387 H 0.23365 0.80516 0.68455 0.0
H2388 H 0.25063 0.85574 0.68895 0.0
H2389 H 0.34512 0.87339 0.69021 0.0
H2390 H 0.37392 0.0186 0.70559 0.0
H2391 H 0.36742 0.96358 0.70622 0.0
H2392 H 0.27287 0.9287 0.71108 0.0
C2393 C 0.26575 0.83672 0.69008 0.0
C2394 C 0.32951 0.88524 0.69488 0.0
C2395 C 0.25618 0.80778 0.6875 0.0
C2396 C 0.35126 0.00923 0.70521 0.0
C2397 C 0.34754 0.97779 0.70549 0.0
C2398 C 0.2889 0.91694 0.70654 0.0
C2399 C 0.29416 0.84099 0.69436 0.0
C2400 C 0.30261 0.8713 0.69789 0.0
C2401 C 0.31861 0.9649 0.7044 0.0
C2402 C 0.31483 0.93175 0.70304 0.0
H2403 H 0.31862 0.76791 0.69452 0.0
H2404 H 0.33569 0.81902 0.69879 0.0
H2405 H 0.2621 0.8765 0.70647 0.0
H2406 H 0.27735 0.02961 0.70213 0.0
H2407 H 0.27078 0.97512 0.70256 0.0
C2408 C 0.73223 0.39245 0.06028 0.0
C2409 C 0.71354 0.41793 0.06146 0.0
C2410 C 0.76369 0.39572 0.05989 0.0
C2411 C 0.82539 0.45349 0.05857 0.0
H2412 H 0.86826 0.39702 0.07496 0.0
C2413 C 0.93472 0.48502 0.0777 0.0
C2414 C 0.95989 0.46637 0.07586 0.0
C2415 C 0.90573 0.47574 0.07508 0.0
C2416 C 0.8566 0.41268 0.07028 0.0
H2417 H 0.71292 0.46679 0.06305 0.0
H2418 H 0.76748 0.47259 0.06245 0.0
H2419 H 0.81541 0.38728 0.07079 0.0
H2420 H 0.97415 0.42247 0.07049 0.0
H2421 H 0.92292 0.40589 0.06617 0.0
H2422 H 0.8662 0.47974 0.05856 0.0
C2423 C 0.75808 0.45011 0.06152 0.0
C2424 C 0.82643 0.40707 0.06782 0.0
C2425 C 0.72667 0.44684 0.06182 0.0
C2426 C 0.95519 0.43737 0.07196 0.0
C2427 C 0.92599 0.42789 0.06947 0.0
C2428 C 0.85534 0.45928 0.06114 0.0
C2429 C 0.77701 0.42452 0.06083 0.0
C2430 C 0.81024 0.42786 0.06213 0.0
C2431 C 0.90126 0.44747 0.07073 0.0
C2432 C 0.87088 0.43932 0.0672 0.0
H2433 H 0.72255 0.36989 0.06004 0.0
H2434 H 0.77759 0.3756 0.05921 0.0
H2435 H 0.81383 0.46959 0.05401 0.0
H2436 H 0.9375 0.50745 0.08072 0.0
H2437 H 0.88682 0.49097 0.07625 0.0
C2438 C 0.26367 0.1856 0.82977 0.0
C2439 C 0.28078 0.21007 0.82628 0.0
C2440 C 0.27182 0.15595 0.82753 0.0
C2441 C 0.33112 0.10494 0.82017 0.0
H2442 H 0.26587 0.0613 0.80768 0.0
C2443 C 0.3447 0.97986 0.80943 0.0
C2444 C 0.32024 0.9613 0.81207 0.0
C2445 C 0.34154 0.01137 0.80937 0.0
C2446 C 0.28428 0.0731 0.81118 0.0
H2447 H 0.32136 0.22259 0.81844 0.0
H2448 H 0.33598 0.17032 0.81473 0.0
H2449 H 0.25865 0.11414 0.81223 0.0
H2450 H 0.27339 0.96105 0.81675 0.0
H2451 H 0.26782 0.01562 0.81665 0.0
H2452 H 0.35627 0.06355 0.81958 0.0
C2453 C 0.31601 0.17438 0.81905 0.0
C2454 C 0.28014 0.10329 0.81377 0.0
C2455 C 0.30764 0.20418 0.82119 0.0
C2456 C 0.29231 0.97465 0.81434 0.0
C2457 C 0.28919 0.00607 0.81433 0.0
C2458 C 0.33515 0.07452 0.81769 0.0
C2459 C 0.29745 0.15021 0.82189 0.0
C2460 C 0.30326 0.11919 0.81847 0.0
C2461 C 0.31395 0.02482 0.81206 0.0
C2462 C 0.31147 0.05808 0.81338 0.0
H2463 H 0.24298 0.18931 0.83377 0.0
H2464 H 0.2575 0.1375 0.82993 0.0
H2465 H 0.34923 0.11692 0.82377 0.0
H2466 H 0.36653 0.97002 0.80771 0.0
H2467 H 0.36092 0.02518 0.80747 0.0
C2468 C 0.76556 0.54427 0.56578 0.0
C2469 C 0.77713 0.57211 0.5626 0.0
C2470 C 0.7345 0.5406 0.56713 0.0
C2471 C 0.65915 0.56903 0.56171 0.0
H2472 H 0.64008 0.54115 0.58729 0.0
C2473 C 0.53564 0.55343 0.57384 0.0
C2474 C 0.52983 0.52564 0.5784 0.0
C2475 C 0.5654 0.56358 0.57265 0.0
C2476 C 0.64499 0.54878 0.58011 0.0
H2477 H 0.76563 0.61751 0.55798 0.0
H2478 H 0.71084 0.61078 0.56012 0.0
H2479 H 0.69281 0.54777 0.58256 0.0
H2480 H 0.55041 0.48778 0.58587 0.0
H2481 H 0.60203 0.50506 0.58365 0.0
H2482 H 0.61141 0.56889 0.5591 0.0
C2483 C 0.72587 0.59189 0.56153 0.0
C2484 C 0.67514 0.55253 0.57741 0.0
C2485 C 0.75706 0.59569 0.56029 0.0
C2486 C 0.55412 0.50924 0.58229 0.0
C2487 C 0.58379 0.51928 0.58106 0.0
C2488 C 0.6289 0.56488 0.56437 0.0
C2489 C 0.71453 0.56468 0.5653 0.0
C2490 C 0.68246 0.56215 0.56815 0.0
C2491 C 0.58984 0.5461 0.57598 0.0
C2492 C 0.62153 0.55418 0.57355 0.0
H2493 H 0.7806 0.52608 0.56791 0.0
H2494 H 0.72616 0.51936 0.57 0.0
H2495 H 0.66436 0.57656 0.55454 0.0
H2496 H 0.51735 0.5667 0.57083 0.0
H2497 H 0.5693 0.58464 0.56888 0.0
C2498 C 0.19777 0.01655 0.31803 0.0
C2499 C 0.17014 0.02803 0.31465 0.0
C2500 C 0.2016 0.98545 0.31929 0.0
C2501 C 0.17391 0.9103 0.31301 0.0
H2502 H 0.20317 0.88851 0.3382 0.0
C2503 C 0.19046 0.78549 0.32373 0.0
C2504 C 0.21831 0.77918 0.32817 0.0
C2505 C 0.18035 0.81538 0.32284 0.0
C2506 C 0.19516 0.89419 0.33112 0.0
H2507 H 0.1251 0.01638 0.30976 0.0
H2508 H 0.13207 0.96155 0.31176 0.0
H2509 H 0.19577 0.94171 0.33415 0.0
H2510 H 0.25644 0.79904 0.33569 0.0
H2511 H 0.23921 0.85091 0.33399 0.0
H2512 H 0.17437 0.8629 0.30983 0.0
C2513 C 0.15074 0.97666 0.31337 0.0
C2514 C 0.19095 0.92462 0.32881 0.0
C2515 C 0.14679 0.00788 0.3122 0.0
C2516 C 0.23491 0.80312 0.33221 0.0
C2517 C 0.22491 0.83293 0.33127 0.0
C2518 C 0.17847 0.8798 0.31528 0.0
C2519 C 0.17785 0.96534 0.31721 0.0
C2520 C 0.1808 0.93295 0.31969 0.0
C2521 C 0.19793 0.83949 0.32636 0.0
C2522 C 0.18965 0.87144 0.32432 0.0
H2523 H 0.21573 0.03167 0.32029 0.0
H2524 H 0.22277 0.97718 0.32221 0.0
H2525 H 0.16603 0.91625 0.30593 0.0
H2526 H 0.17704 0.7675 0.32061 0.0
H2527 H 0.15917 0.81966 0.31918 0.0
C2528 C 0.25572 0.86003 0.15625 0.0
C2529 C 0.26295 0.86925 0.16555 0.0
C2530 C 0.269 0.87435 0.14839 0.0
C2531 C 0.33591 0.91816 0.14124 0.0
H2532 H 0.28699 0.94129 0.11945 0.0
C2533 C 0.386 0.98694 0.10988 0.0
C2534 C 0.37592 0.97999 0.10065 0.0
C2535 C 0.37188 0.97407 0.11785 0.0
C2536 C 0.30111 0.9346 0.1254 0.0
H2537 H 0.28905 0.90078 0.17403 0.0
H2538 H 0.3127 0.92577 0.16026 0.0
H2539 H 0.263 0.91755 0.13323 0.0
H2540 H 0.34318 0.95465 0.09241 0.0
H2541 H 0.31892 0.93133 0.10628 0.0
H2542 H 0.37413 0.93447 0.13338 0.0
C2543 C 0.29693 0.90736 0.15903 0.0
C2544 C 0.28729 0.9211 0.13332 0.0
C2545 C 0.28336 0.89323 0.1669 0.0
C2546 C 0.35133 0.96022 0.09949 0.0
C2547 C 0.33735 0.9471 0.10744 0.0
C2548 C 0.34979 0.93137 0.13328 0.0
C2549 C 0.28992 0.89804 0.14969 0.0
C2550 C 0.30453 0.91275 0.14133 0.0
C2551 C 0.34743 0.95383 0.11675 0.0
C2552 C 0.33259 0.9398 0.12525 0.0
H2553 H 0.23975 0.84176 0.15507 0.0
H2554 H 0.26329 0.86654 0.14128 0.0
H2555 H 0.34985 0.91159 0.14725 0.0
H2556 H 0.4046 0.00262 0.11093 0.0
H2557 H 0.3799 0.98034 0.12487 0.0
C2558 C 0.38441 0.04654 0.4123 0.0
C2559 C 0.37544 0.01743 0.4152 0.0
C2560 C 0.37106 0.06034 0.40436 0.0
C2561 C 0.32316 0.04258 0.38299 0.0
H2562 H 0.31408 0.12999 0.38208 0.0
C2563 C 0.24702 0.1067 0.35597 0.0
C2564 C 0.26222 0.12843 0.35042 0.0
C2565 C 0.26133 0.09329 0.3638 0.0
C2566 C 0.31664 0.10556 0.38225 0.0
H2567 H 0.34567 0.97977 0.41197 0.0
H2568 H 0.32081 0.00447 0.39861 0.0
H2569 H 0.33719 0.10638 0.39604 0.0
H2570 H 0.30402 0.15373 0.34884 0.0
H2571 H 0.32858 0.13119 0.36285 0.0
H2572 H 0.30119 0.04201 0.36934 0.0
C2573 C 0.33882 0.0165 0.40223 0.0
C2574 C 0.33007 0.09195 0.39021 0.0
C2575 C 0.35266 0.00249 0.41004 0.0
C2576 C 0.29173 0.13713 0.35302 0.0
C2577 C 0.30579 0.12422 0.36099 0.0
C2578 C 0.30912 0.05617 0.37514 0.0
C2579 C 0.34796 0.04556 0.3992 0.0
C2580 C 0.33361 0.06022 0.3907 0.0
C2581 C 0.29079 0.10199 0.36639 0.0
C2582 C 0.30582 0.08775 0.37469 0.0
H2583 H 0.40184 0.05868 0.41617 0.0
H2584 H 0.37923 0.08244 0.40221 0.0
H2585 H 0.32605 0.01822 0.38292 0.0
H2586 H 0.22395 0.10021 0.35431 0.0
H2587 H 0.24921 0.07644 0.36794 0.0
C2588 C 0.10808 0.04426 0.60344 0.0
C2589 C 0.11654 0.01513 0.60041 0.0
C2590 C 0.12148 0.05737 0.61148 0.0
C2591 C 0.16848 0.03772 0.63288 0.0
H2592 H 0.17907 0.1249 0.63415 0.0
C2593 C 0.24445 0.10054 0.66041 0.0
C2594 C 0.22948 0.12297 0.66576 0.0
C2595 C 0.23016 0.08692 0.6526 0.0
C2596 C 0.1761 0.10053 0.63389 0.0
H2597 H 0.14546 0.97671 0.60353 0.0
H2598 H 0.17045 0.00021 0.61708 0.0
H2599 H 0.15612 0.10227 0.62003 0.0
H2600 H 0.18787 0.14871 0.66712 0.0
H2601 H 0.16343 0.12582 0.65317 0.0
H2602 H 0.18988 0.03624 0.64663 0.0
C2603 C 0.15279 0.01278 0.61348 0.0
C2604 C 0.16275 0.08749 0.62582 0.0
C2605 C 0.13888 -0.00054 0.60556 0.0
C2606 C 0.20006 0.1317 0.66307 0.0
C2607 C 0.18605 0.11858 0.65514 0.0
C2608 C 0.18245 0.05075 0.64084 0.0
C2609 C 0.14415 0.04187 0.61662 0.0
C2610 C 0.15861 0.05586 0.62521 0.0
C2611 C 0.20096 0.09602 0.64986 0.0
C2612 C 0.18624 0.08225 0.64143 0.0
H2613 H 0.09099 0.05694 0.59958 0.0
H2614 H 0.11369 0.07952 0.61372 0.0
H2615 H 0.16515 0.01341 0.63284 0.0
H2616 H 0.26741 0.09388 0.66215 0.0
H2617 H 0.2422 0.06976 0.64857 0.0
C2618 C 0.20483 0.89014 0.84874 0.0
C2619 C 0.22582 0.86668 0.85008 0.0
C2620 C 0.19093 0.90394 0.8566 0.0
C2621 C 0.17612 0.89239 0.88257 0.0
H2622 H 0.15699 0.97809 0.88183 0.0
C2623 C 0.10677 0.95 0.91254 0.0
C2624 C 0.11456 0.97975 0.91509 0.0
C2625 C 0.11988 0.93626 0.90454 0.0
C2626 C 0.16245 0.9542 0.88222 0.0
H2627 H 0.24982 0.83986 0.86055 0.0
H2628 H 0.22639 0.86443 0.87432 0.0
H2629 H 0.18173 0.95456 0.86822 0.0
H2630 H 0.14165 0.01875 0.91116 0.0
H2631 H 0.16569 0.99445 0.89751 0.0
H2632 H 0.15805 0.8923 0.89673 0.0
C2633 C 0.21969 0.87162 0.86724 0.0
C2634 C 0.17626 0.94055 0.87433 0.0
C2635 C 0.23327 0.85763 0.85938 0.0
C2636 C 0.13564 0.99556 0.90947 0.0
C2637 C 0.14904 0.98175 0.90154 0.0
C2638 C 0.16261 0.90611 0.8905 0.0
C2639 C 0.19814 0.89484 0.86598 0.0
C2640 C 0.1833 0.90943 0.87438 0.0
C2641 C 0.14131 0.95191 0.89894 0.0
C2642 C 0.15556 0.93722 0.89045 0.0
H2643 H 0.19884 0.89744 0.84161 0.0
H2644 H 0.17419 0.9214 0.85531 0.0
H2645 H 0.18072 0.8683 0.88286 0.0
H2646 H 0.09056 0.9373 0.91675 0.0
H2647 H 0.11293 0.91346 0.9027 0.0
C2648 C 0.69902 0.13363 0.85243 0.0
C2649 C 0.72801 0.12405 0.84956 0.0
C2650 C 0.68484 0.12046 0.86035 0.0
C2651 C 0.6811 0.05148 0.87444 0.0
H2652 H 0.65286 0.10257 0.89513 0.0
C2653 C 0.63889 -0.00033 0.90983 0.0
C2654 C 0.61583 0.01458 0.9149 0.0
C2655 C 0.65236 0.01328 0.90188 0.0
C2656 C 0.66004 0.0879 0.88936 0.0
H2657 H 0.76505 0.09349 0.85284 0.0
H2658 H 0.73962 0.06946 0.86639 0.0
H2659 H 0.67578 0.1256 0.88104 0.0
H2660 H 0.58856 0.05532 0.91555 0.0
H2661 H 0.6107 0.07841 0.90137 0.0
H2662 H 0.66455 0.01382 0.88247 0.0
C2663 C 0.72797 0.08723 0.86251 0.0
C2664 C 0.67335 0.10117 0.88132 0.0
C2665 C 0.74241 0.10083 0.85472 0.0
C2666 C 0.60623 0.04324 0.91176 0.0
C2667 C 0.61928 0.05664 0.90369 0.0
C2668 C 0.66725 0.03821 0.88239 0.0
C2669 C 0.69915 0.09706 0.86543 0.0
C2670 C 0.68422 0.08307 0.87383 0.0
C2671 C 0.64264 0.0419 0.89864 0.0
C2672 C 0.65675 0.05618 0.89003 0.0
H2673 H 0.68728 0.15129 0.84854 0.0
H2674 H 0.66252 0.12829 0.86243 0.0
H2675 H 0.68902 0.03705 0.8687 0.0
H2676 H 0.64636 0.97728 0.91194 0.0
H2677 H 0.67056 0.0013 0.89832 0.0
C2678 C 0.74385 0.8767 0.65799 0.0
C2679 C 0.72625 0.86463 0.6654 0.0
C2680 C 0.72998 0.88972 0.65001 0.0
C2681 C 0.65647 0.8936 0.63702 0.0
H2682 H 0.69331 0.96452 0.62551 0.0
C2683 C 0.61294 0.94413 0.60146 0.0
C2684 C 0.61368 0.97574 0.60043 0.0
C2685 C 0.62652 0.93027 0.60936 0.0
C2686 C 0.68248 0.94492 0.62868 0.0
H2687 H 0.68064 0.85603 0.67034 0.0
H2688 H 0.65613 0.87954 0.65653 0.0
H2689 H 0.71665 0.94149 0.63943 0.0
H2690 H 0.62799 0.01785 0.60692 0.0
H2691 H 0.65114 0.99391 0.62083 0.0
H2692 H 0.62167 0.89776 0.62648 0.0
C2693 C 0.68064 0.87863 0.65675 0.0
C2694 C 0.69617 0.93139 0.6366 0.0
C2695 C 0.69458 0.86537 0.66469 0.0
C2696 C 0.62766 0.99336 0.6075 0.0
C2697 C 0.641 0.97958 0.61543 0.0
C2698 C 0.64263 0.9073 0.62914 0.0
C2699 C 0.69817 0.89106 0.64931 0.0
C2700 C 0.68341 0.9055 0.64087 0.0
C2701 C 0.64079 0.94782 0.61645 0.0
C2702 C 0.65547 0.93314 0.62486 0.0
H2703 H 0.76837 0.87583 0.65834 0.0
H2704 H 0.74426 0.8984 0.64435 0.0
H2705 H 0.64615 0.87349 0.64003 0.0
H2706 H 0.60218 0.93016 0.59608 0.0
H2707 H 0.6262 0.90577 0.60982 0.0
C2708 C 0.79713 0.87014 0.35014 0.0
C2709 C 0.76547 0.86861 0.34949 0.0
C2710 C 0.81087 0.8835 0.3581 0.0
C2711 C 0.79463 0.93495 0.37852 0.0
H2712 H 0.86944 0.90155 0.3885 0.0
C2713 C 0.8627 0.99591 0.40796 0.0
C2714 C 0.87673 0.97798 0.41494 0.0
C2715 C 0.84938 0.98247 0.39996 0.0
C2716 C 0.84839 0.91102 0.38587 0.0
H2717 H 0.72321 0.87866 0.35663 0.0
H2718 H 0.74699 0.90149 0.37064 0.0
H2719 H 0.84533 0.87782 0.37479 0.0
H2720 H 0.8883 0.93222 0.41909 0.0
H2721 H 0.86436 0.90844 0.40524 0.0
H2722 H 0.79708 0.96748 0.38979 0.0
C2723 C 0.76137 0.8933 0.36493 0.0
C2724 C 0.83477 0.89764 0.37791 0.0
C2725 C 0.7477 0.88015 0.35694 0.0
C2726 C 0.8775 0.94643 0.41378 0.0
C2727 C 0.86398 0.93291 0.40581 0.0
C2728 C 0.80813 0.94818 0.38652 0.0
C2729 C 0.79316 0.89526 0.36561 0.0
C2730 C 0.80772 0.90946 0.37411 0.0
C2731 C 0.84971 0.95077 0.3988 0.0
C2732 C 0.83523 0.93646 0.3903 0.0
H2733 H 0.81121 0.86121 0.34446 0.0
H2734 H 0.83535 0.88493 0.35829 0.0
H2735 H 0.77404 0.94496 0.37574 0.0
H2736 H 0.86236 0.02037 0.40865 0.0
H2737 H 0.8392 -0.00298 0.39463 0.0
C2738 C 0.88011 0.00353 0.10966 0.0
C2739 C 0.87062 0.01073 0.10038 0.0
C2740 C 0.86555 0.01629 0.11757 0.0
C2741 C 0.82035 0.08213 0.12483 0.0
H2742 H 0.79891 0.03274 0.14671 0.0
C2743 C 0.75169 0.13124 0.1563 0.0
C2744 C 0.75929 0.12163 0.16553 0.0
C2745 C 0.76433 0.11701 0.14832 0.0
C2746 C 0.8051 0.04699 0.14072 0.0
H2747 H 0.83832 0.03619 0.09199 0.0
H2748 H 0.8129 0.05891 0.10584 0.0
H2749 H 0.82286 0.00926 0.13286 0.0
H2750 H 0.78544 0.0895 0.17376 0.0
H2751 H 0.80836 0.06501 0.15985 0.0
H2752 H 0.80338 0.11999 0.13271 0.0
C2753 C 0.83171 0.04357 0.10701 0.0
C2754 C 0.81873 0.03346 0.13277 0.0
C2755 C 0.84609 0.03053 0.09911 0.0
C2756 C 0.77935 0.09727 0.16668 0.0
C2757 C 0.79226 0.08318 0.1587 0.0
C2758 C 0.80701 0.09572 0.13281 0.0
C2759 C 0.84133 0.03664 0.11633 0.0
C2760 C 0.82648 0.05089 0.12473 0.0
C2761 C 0.78502 0.09294 0.1494 0.0
C2762 C 0.79916 0.07834 0.14088 0.0
H2763 H 0.8988 0.98801 0.11079 0.0
H2764 H 0.87359 0.01065 0.12465 0.0
H2765 H 0.82646 0.09623 0.1188 0.0
H2766 H 0.73581 0.14968 0.15527 0.0
H2767 H 0.75763 0.12475 0.1413 0.0
C2768 C 0.88296 0.45221 0.6027 0.0
C2769 C 0.87435 0.48153 0.59991 0.0
C2770 C 0.87004 0.43862 0.61075 0.0
C2771 C 0.82433 0.45685 0.63259 0.0
H2772 H 0.81364 0.36961 0.63332 0.0
C2773 C 0.74989 0.39271 0.66023 0.0
C2774 C 0.76486 0.36961 0.66528 0.0
C2775 C 0.76379 0.40673 0.65242 0.0
C2776 C 0.81665 0.39399 0.63321 0.0
H2777 H 0.84584 0.51985 0.60348 0.0
H2778 H 0.82165 0.49555 0.61707 0.0
H2779 H 0.83584 0.3932 0.61922 0.0
H2780 H 0.80609 0.34303 0.66608 0.0
H2781 H 0.82984 0.36666 0.65212 0.0
H2782 H 0.80373 0.45739 0.64647 0.0
C2783 C 0.83903 0.48315 0.61325 0.0
C2784 C 0.82958 0.40758 0.62516 0.0
C2785 C 0.85246 0.49695 0.60532 0.0
C2786 C 0.79388 0.36056 0.66227 0.0
C2787 C 0.80751 0.37411 0.65432 0.0
C2788 C 0.8108 0.44327 0.64054 0.0
C2789 C 0.84774 0.45382 0.61614 0.0
C2790 C 0.83374 0.43925 0.62473 0.0
C2791 C 0.79262 0.39739 0.64936 0.0
C2792 C 0.80697 0.41173 0.64094 0.0
H2793 H 0.89979 0.43976 0.59866 0.0
H2794 H 0.87792 0.41631 0.6128 0.0
H2795 H 0.8277 0.48114 0.63269 0.0
H2796 H 0.7272 0.39964 0.66221 0.0
H2797 H 0.75175 0.42442 0.64863 0.0
C2798 C 0.74622 0.60749 0.85667 0.0
C2799 C 0.76137 0.62991 0.8514 0.0
C2800 C 0.75997 0.59408 0.8646 0.0
C2801 C 0.83526 0.58537 0.87663 0.0
H2802 H 0.78533 0.55698 0.8976 0.0
C2803 C 0.882 0.54661 0.91344 0.0
C2804 C 0.87324 0.5172 0.91614 0.0
C2805 C 0.86842 0.5609 0.90563 0.0
C2806 C 0.79949 0.56477 0.89177 0.0
H2807 H 0.80254 0.65641 0.85043 0.0
H2808 H 0.82589 0.63449 0.86458 0.0
H2809 H 0.76157 0.58181 0.88398 0.0
H2810 H 0.84364 0.47956 0.91267 0.0
H2811 H 0.81878 0.50521 0.89931 0.0
H2812 H 0.87325 0.56923 0.88473 0.0
C2813 C 0.80385 0.62622 0.86241 0.0
C2814 C 0.78592 0.5788 0.88391 0.0
C2815 C 0.79031 0.63916 0.85436 0.0
C2816 C 0.85036 0.50251 0.91092 0.0
C2817 C 0.83629 0.51706 0.90324 0.0
C2818 C 0.84884 0.57193 0.88459 0.0
C2819 C 0.78897 0.60331 0.86763 0.0
C2820 C 0.80356 0.58908 0.87616 0.0
C2821 C 0.84538 0.54628 0.90049 0.0
C2822 C 0.83105 0.5613 0.89219 0.0
H2823 H 0.72358 0.60038 0.8547 0.0
H2824 H 0.74783 0.57625 0.86828 0.0
H2825 H 0.84968 0.59233 0.87078 0.0
H2826 H 0.89936 0.5586 0.91739 0.0
H2827 H 0.87566 0.58352 0.90366 0.0
C2828 C 0.63988 0.50056 0.1049 0.0
C2829 C 0.61714 0.51531 0.09967 0.0
C2830 C 0.65352 0.51478 0.11271 0.0
C2831 C 0.66187 0.5905 0.12455 0.0
H2832 H 0.68999 0.54116 0.14567 0.0
C2833 C 0.69929 0.63736 0.16157 0.0
C2834 C 0.7285 0.62837 0.1644 0.0
C2835 C 0.68545 0.62411 0.15362 0.0
C2836 C 0.68229 0.55515 0.1398 0.0
H2837 H 0.59063 0.55645 0.09855 0.0
H2838 H 0.61291 0.58061 0.1125 0.0
H2839 H 0.6656 0.51698 0.13206 0.0
H2840 H 0.76646 0.59917 0.16094 0.0
H2841 H 0.74158 0.57486 0.14734 0.0
H2842 H 0.67764 0.62876 0.13261 0.0
C2843 C 0.62119 0.55848 0.11041 0.0
C2844 C 0.66851 0.54134 0.13194 0.0
C2845 C 0.60803 0.54447 0.10248 0.0
C2846 C 0.7436 0.60593 0.1591 0.0
C2847 C 0.7295 0.5922 0.15129 0.0
C2848 C 0.67506 0.60434 0.13251 0.0
C2849 C 0.64422 0.54388 0.11565 0.0
C2850 C 0.65833 0.55876 0.12414 0.0
C2851 C 0.70036 0.60124 0.14847 0.0
C2852 C 0.6856 0.58674 0.14016 0.0
H2853 H 0.64697 0.47782 0.10304 0.0
H2854 H 0.67148 0.50288 0.11639 0.0
H2855 H 0.65495 0.60476 0.11865 0.0
H2856 H 0.68708 0.65451 0.16555 0.0
H2857 H 0.66289 0.63134 0.15159 0.0
C2858 C 0.60394 0.48707 0.40594 0.0
C2859 C 0.61442 0.48082 0.41518 0.0
C2860 C 0.61761 0.47345 0.39802 0.0
C2861 C 0.66363 0.4075 0.39098 0.0
H2862 H 0.68138 0.45509 0.36839 0.0
C2863 C 0.73388 0.35897 0.35976 0.0
C2864 C 0.72526 0.3669 0.35046 0.0
C2865 C 0.72045 0.3731 0.36762 0.0
C2866 C 0.67622 0.44134 0.37459 0.0
H2867 H 0.64759 0.45615 0.42347 0.0
H2868 H 0.67158 0.43212 0.40962 0.0
H2869 H 0.6577 0.47927 0.38216 0.0
H2870 H 0.69623 0.39574 0.34199 0.0
H2871 H 0.6721 0.42016 0.35572 0.0
H2872 H 0.68171 0.36949 0.38341 0.0
C2873 C 0.65258 0.44725 0.40848 0.0
C2874 C 0.6627 0.45525 0.38249 0.0
C2875 C 0.63902 0.46106 0.41639 0.0
C2876 C 0.70316 0.38932 0.34912 0.0
C2877 C 0.68954 0.40337 0.35699 0.0
C2878 C 0.67695 0.39355 0.38306 0.0
C2879 C 0.64201 0.45327 0.3992 0.0
C2880 C 0.65633 0.4385 0.39079 0.0
C2881 C 0.69799 0.39542 0.36635 0.0
C2882 C 0.68351 0.41029 0.37476 0.0
H2883 H 0.58526 0.50262 0.40485 0.0
H2884 H 0.60884 0.47842 0.39097 0.0
H2885 H 0.65859 0.39388 0.39722 0.0
H2886 H 0.75125 0.342 0.36093 0.0
H2887 H 0.72798 0.36679 0.3747 0.0
C2888 C 0.2026 0.63148 0.35282 0.0
C2889 C 0.23168 0.6223 0.34991 0.0
C2890 C 0.18876 0.6182 0.36077 0.0
C2891 C 0.18596 0.5494 0.37492 0.0
H2892 H 0.15774 0.6004 0.39563 0.0
C2893 C 0.14316 0.49732 0.41021 0.0
C2894 C 0.11999 0.51223 0.41523 0.0
C2895 C 0.15695 0.51101 0.40233 0.0
C2896 C 0.16493 0.58575 0.38986 0.0
H2897 H 0.26923 0.59233 0.35316 0.0
H2898 H 0.24437 0.56807 0.36677 0.0
H2899 H 0.18042 0.62351 0.38152 0.0
H2900 H 0.09293 0.55311 0.41588 0.0
H2901 H 0.11558 0.57633 0.40182 0.0
H2902 H 0.16959 0.51169 0.38296 0.0
C2903 C 0.23241 0.58562 0.3629 0.0
C2904 C 0.1781 0.59907 0.3818 0.0
C2905 C 0.24651 0.59935 0.35507 0.0
C2906 C 0.11067 0.54101 0.41213 0.0
C2907 C 0.12402 0.5545 0.40413 0.0
C2908 C 0.17223 0.53608 0.38288 0.0
C2909 C 0.2035 0.59508 0.36586 0.0
C2910 C 0.18891 0.581 0.37429 0.0
C2911 C 0.14743 0.53972 0.3991 0.0
C2912 C 0.16169 0.55402 0.39052 0.0
H2913 H 0.19053 0.64891 0.34893 0.0
H2914 H 0.16637 0.62573 0.36289 0.0
H2915 H 0.19387 0.53502 0.36917 0.0
H2916 H 0.15043 0.47484 0.41231 0.0
H2917 H 0.17519 0.499 0.3988 0.0
C2918 C 0.13692 0.49372 0.10613 0.0
C2919 C 0.11496 0.47838 0.10072 0.0
C2920 C 0.15061 0.47966 0.11396 0.0
C2921 C 0.13911 0.42123 0.13205 0.0
H2922 H 0.22675 0.42192 0.13433 0.0
C2923 C 0.20335 0.38565 0.16641 0.0
C2924 C 0.22722 0.36512 0.16504 0.0
C2925 C 0.18929 0.39929 0.15855 0.0
C2926 C 0.20226 0.42152 0.13377 0.0
H2927 H 0.08974 0.43649 0.09934 0.0
H2928 H 0.11307 0.41215 0.11324 0.0
H2929 H 0.2026 0.44602 0.12056 0.0
H2930 H 0.25582 0.34313 0.15458 0.0
H2931 H 0.23163 0.36744 0.14081 0.0
H2932 H 0.13878 0.39703 0.14533 0.0
C2933 C 0.11984 0.43498 0.11135 0.0
C2934 C 0.18846 0.43544 0.12594 0.0
C2935 C 0.1065 0.44889 0.10342 0.0
C2936 C 0.23727 0.35879 0.15576 0.0
C2937 C 0.22355 0.37277 0.14791 0.0
C2938 C 0.1529 0.40773 0.13997 0.0
C2939 C 0.14219 0.45017 0.11666 0.0
C2940 C 0.15675 0.43535 0.12498 0.0
C2941 C 0.19931 0.39303 0.14923 0.0
C2942 C 0.18462 0.40765 0.14089 0.0
H2943 H 0.14332 0.51676 0.10438 0.0
H2944 H 0.16745 0.49205 0.11801 0.0
H2945 H 0.11462 0.421 0.13152 0.0
H2946 H 0.19544 0.3909 0.17354 0.0
H2947 H 0.17084 0.41504 0.15977 0.0
C2948 C 0.38823 0.48598 0.90523 0.0
C2949 C 0.37787 0.47999 0.91451 0.0
C2950 C 0.37398 0.47268 0.89736 0.0
C2951 C 0.32768 0.40742 0.89038 0.0
H2952 H 0.3063 0.45628 0.86839 0.0
C2953 C 0.25626 0.35845 0.85958 0.0
C2954 C 0.26327 0.36768 0.85026 0.0
C2955 C 0.26981 0.37267 0.8674 0.0
C2956 C 0.3125 0.44216 0.8744 0.0
H2957 H 0.3445 0.456 0.92293 0.0
H2958 H 0.31971 0.43227 0.90916 0.0
H2959 H 0.33128 0.47988 0.88202 0.0
H2960 H 0.28932 0.39905 0.84171 0.0
H2961 H 0.31389 0.42344 0.85534 0.0
H2962 H 0.30969 0.36956 0.88275 0.0
C2963 C 0.33891 0.4471 0.90796 0.0
C2964 C 0.32671 0.45576 0.88223 0.0
C2965 C 0.35295 0.46069 0.91582 0.0
C2966 C 0.28369 0.3916 0.84886 0.0
C2967 C 0.29754 0.40564 0.85668 0.0
C2968 C 0.3138 0.39374 0.88252 0.0
C2969 C 0.34926 0.45298 0.89865 0.0
C2970 C 0.33435 0.43855 0.89031 0.0
C2971 C 0.29087 0.3963 0.86607 0.0
C2972 C 0.30588 0.41093 0.87443 0.0
H2973 H 0.40721 0.50113 0.90407 0.0
H2974 H 0.38252 0.47752 0.89027 0.0
H2975 H 0.33368 0.39352 0.89647 0.0
H2976 H 0.24014 0.34033 0.8608 0.0
H2977 H 0.26351 0.36528 0.8745 0.0
C2978 C 0.29143 0.63706 0.6617 0.0
C2979 C 0.26236 0.62787 0.66461 0.0
C2980 C 0.30531 0.62369 0.65376 0.0
C2981 C 0.3085 0.55413 0.64013 0.0
H2982 H 0.33663 0.60309 0.61892 0.0
C2983 C 0.35118 0.49851 0.60538 0.0
C2984 C 0.37409 0.51302 0.60014 0.0
C2985 C 0.33751 0.51297 0.61315 0.0
C2986 C 0.32947 0.58901 0.62484 0.0
H2987 H 0.2246 0.59829 0.66127 0.0
H2988 H 0.24951 0.57385 0.6477 0.0
H2989 H 0.31383 0.62755 0.6328 0.0
H2990 H 0.40103 0.55386 0.59902 0.0
H2991 H 0.37863 0.57847 0.61289 0.0
H2992 H 0.32503 0.51568 0.63249 0.0
C2993 C 0.26149 0.59139 0.65158 0.0
C2994 C 0.31623 0.60311 0.63276 0.0
C2995 C 0.24737 0.60521 0.65938 0.0
C2996 C 0.38341 0.54212 0.60293 0.0
C2997 C 0.37021 0.55638 0.61083 0.0
C2998 C 0.32231 0.54005 0.63231 0.0
C2999 C 0.29056 0.60053 0.64869 0.0
C3000 C 0.30541 0.58577 0.64043 0.0
C3001 C 0.34696 0.54206 0.61605 0.0
C3002 C 0.33278 0.55723 0.6245 0.0
H3003 H 0.30356 0.65439 0.66562 0.0
H3004 H 0.3278 0.63103 0.65168 0.0
H3005 H 0.30059 0.54031 0.64602 0.0
H3006 H 0.34396 0.47579 0.60353 0.0
H3007 H 0.31939 0.50127 0.61683 0.0
C3008 C 0.43885 0.14491 0.08103 0.0
C3009 C 0.46061 0.12203 0.07974 0.0
C3010 C 0.44768 0.17493 0.08236 0.0
C3011 C 0.51357 0.22469 0.0876 0.0
H3012 H 0.46604 0.28359 0.07351 0.0
C3013 C 0.55513 0.34532 0.07824 0.0
C3014 C 0.53411 0.36921 0.07894 0.0
C3015 C 0.54601 0.31539 0.0797 0.0
C3016 C 0.47928 0.2675 0.0776 0.0
H3017 H 0.50875 0.11242 0.07919 0.0
H3018 H 0.52432 0.16519 0.08123 0.0
H3019 H 0.45074 0.23071 0.07353 0.0
H3020 H 0.48722 0.38043 0.08202 0.0
H3021 H 0.47127 0.32801 0.0845 0.0
H3022 H 0.5427 0.26172 0.09136 0.0
C3023 C 0.50038 0.15982 0.08138 0.0
C3024 C 0.4705 0.23715 0.07764 0.0
C3025 C 0.49149 0.12961 0.08018 0.0
C3026 C 0.50394 0.36256 0.08139 0.0
C3027 C 0.49478 0.33257 0.08278 0.0
C3028 C 0.5225 0.25511 0.0875 0.0
C3029 C 0.47851 0.18291 0.08229 0.0
C3030 C 0.48756 0.21533 0.08261 0.0
C3031 C 0.51565 0.30868 0.08183 0.0
C3032 C 0.50548 0.27676 0.08246 0.0
H3033 H 0.41486 0.13969 0.0809 0.0
H3034 H 0.43026 0.19197 0.08329 0.0
H3035 H 0.52701 0.20855 0.0916 0.0
H3036 H 0.57859 0.34966 0.07641 0.0
H3037 H 0.56251 0.29741 0.07884 0.0
C3038 C 0.8925 0.30446 0.33098 0.0
C3039 C 0.86974 0.2824 0.33001 0.0
C3040 C 0.92267 0.29598 0.33217 0.0
C3041 C 0.97331 0.23096 0.33765 0.0
H3042 H 0.03101 0.27773 0.32281 0.0
C3043 C 0.09345 0.1891 0.32798 0.0
C3044 C 0.11734 0.21016 0.32843 0.0
C3045 C 0.06357 0.19834 0.32946 0.0
C3046 C 0.01526 0.26473 0.32711 0.0
H3047 H 0.86057 0.23413 0.32989 0.0
H3048 H 0.91359 0.2192 0.33171 0.0
H3049 H 0.97801 0.29269 0.32304 0.0
H3050 H 0.12863 0.25732 0.33103 0.0
H3051 H 0.07626 0.27349 0.33353 0.0
H3052 H 0.01074 0.20239 0.34142 0.0
C3053 C 0.90801 0.2431 0.33171 0.0
C3054 C 0.98485 0.2733 0.32726 0.0
C3055 C 0.87765 0.25162 0.33063 0.0
C3056 C 0.11074 0.24056 0.3306 0.0
C3057 C 0.08078 0.24984 0.332 0.0
C3058 C 0.00377 0.22223 0.33743 0.0
C3059 C 0.93094 0.26523 0.3323 0.0
C3060 C 0.96345 0.25648 0.3325 0.0
C3061 C 0.0569 0.22886 0.33136 0.0
C3062 C 0.02499 0.23896 0.33212 0.0
H3063 H 0.88707 0.32838 0.33069 0.0
H3064 H 0.93961 0.31362 0.33286 0.0
H3065 H 0.95751 0.21774 0.34186 0.0
H3066 H 0.09773 0.16547 0.32637 0.0
H3067 H 0.04559 0.18174 0.32883 0.0
C3068 C 0.93513 0.64805 0.57834 0.0
C3069 C 0.95721 0.62515 0.57786 0.0
C3070 C 0.94351 0.6782 0.57969 0.0
C3071 C 0.00763 0.72802 0.58672 0.0
H3072 H 0.96403 0.78717 0.57152 0.0
C3073 C 0.05183 0.84834 0.5784 0.0
C3074 C 0.0309 0.87236 0.57873 0.0
C3075 C 0.04221 0.81847 0.57962 0.0
C3076 C 0.97612 0.77099 0.57592 0.0
H3077 H 0.00538 0.61579 0.57862 0.0
H3078 H 0.02018 0.66871 0.58067 0.0
H3079 H 0.94878 0.73425 0.57104 0.0
H3080 H 0.98358 0.88395 0.58086 0.0
H3081 H 0.96673 0.83156 0.58289 0.0
H3082 H 0.03569 0.76495 0.59128 0.0
C3083 C -0.0037 0.66327 0.58021 0.0
C3084 C 0.96737 0.74063 0.57566 0.0
C3085 C 0.98786 0.63295 0.57898 0.0
C3086 C 0.00024 0.86594 0.58055 0.0
C3087 C 0.99057 0.83599 0.58167 0.0
C3088 C 0.01657 0.75841 0.5869 0.0
C3089 C 0.97421 0.68629 0.58044 0.0
C3090 C 0.98308 0.71873 0.58103 0.0
C3091 C 0.01143 0.81197 0.5811 0.0
C3092 C 0.00096 0.78013 0.58146 0.0
H3093 H 0.91127 0.64273 0.57764 0.0
H3094 H 0.92585 0.69522 0.58006 0.0
H3095 H 0.01994 0.71183 0.59105 0.0
H3096 H 0.07565 0.85253 0.57706 0.0
H3097 H 0.05871 0.80037 0.57907 0.0
C3098 C 0.59383 0.68647 0.82967 0.0
C3099 C 0.61622 0.70911 0.82939 0.0
C3100 C 0.56349 0.69404 0.83108 0.0
C3101 C 0.51226 0.75639 0.8387 0.0
H3102 H 0.45423 0.71351 0.82289 0.0
C3103 C 0.39272 0.80093 0.82996 0.0
C3104 C 0.36863 0.78008 0.82978 0.0
C3105 C 0.42238 0.79109 0.83143 0.0
C3106 C 0.47008 0.72534 0.82747 0.0
H3107 H 0.62446 0.7574 0.83058 0.0
H3108 H 0.57122 0.77081 0.83276 0.0
H3109 H 0.50735 0.69896 0.82245 0.0
H3110 H 0.35664 0.73263 0.83133 0.0
H3111 H 0.40874 0.71537 0.8338 0.0
H3112 H 0.47484 0.78355 0.84341 0.0
C3113 C 0.57721 0.7471 0.83208 0.0
C3114 C 0.50056 0.71701 0.82723 0.0
C3115 C 0.60771 0.73946 0.83078 0.0
C3116 C 0.37473 0.74924 0.83141 0.0
C3117 C 0.40451 0.73934 0.83278 0.0
C3118 C 0.48175 0.7649 0.83887 0.0
C3119 C 0.5547 0.72448 0.83212 0.0
C3120 C 0.52208 0.73258 0.83278 0.0
C3121 C 0.42864 0.76015 0.83268 0.0
C3122 C 0.46044 0.74961 0.83319 0.0
H3123 H 0.59968 0.66281 0.82875 0.0
H3124 H 0.54688 0.67598 0.83129 0.0
H3125 H 0.52815 0.76853 0.84318 0.0
H3126 H 0.38879 0.82488 0.8288 0.0
H3127 H 0.44056 0.80759 0.83123 0.0
C3128 C 0.50159 0.63257 0.43572 0.0
C3129 C 0.53241 0.6248 0.43628 0.0
C3130 C 0.49293 0.66282 0.43445 0.0
C3131 C 0.52293 0.74013 0.43817 0.0
H3132 H 0.4515 0.76454 0.42401 0.0
C3133 C 0.48969 0.86554 0.43398 0.0
C3134 C 0.4594 0.87219 0.43627 0.0
C3135 C 0.49896 0.83552 0.4327 0.0
C3136 C 0.47149 0.75798 0.428 0.0
H3137 H 0.5783 0.64222 0.43535 0.0
H3138 H 0.56329 0.69458 0.43286 0.0
H3139 H 0.46708 0.71134 0.42399 0.0
H3140 H 0.41485 0.85263 0.43865 0.0
H3141 H 0.4311 0.80037 0.4364 0.0
H3142 H 0.52729 0.78666 0.4422 0.0
C3143 C 0.54574 0.67763 0.43373 0.0
C3144 C 0.48035 0.72754 0.42801 0.0
C3145 C 0.55435 0.64757 0.43511 0.0
C3146 C 0.4384 0.84829 0.43694 0.0
C3147 C 0.44762 0.81835 0.43558 0.0
C3148 C 0.51423 0.77051 0.43808 0.0
C3149 C 0.51495 0.68577 0.43362 0.0
C3150 C 0.50606 0.71823 0.43317 0.0
C3151 C 0.47808 0.81163 0.4336 0.0
C3152 C 0.48829 0.7797 0.43307 0.0
H3153 H 0.48419 0.61548 0.43661 0.0
H3154 H 0.46901 0.66831 0.43448 0.0
H3155 H 0.54246 0.73372 0.44239 0.0
H3156 H 0.5064 0.88342 0.43339 0.0
H3157 H 0.52255 0.83095 0.43109 0.0
C3158 C 0.6127 0.25435 0.68533 0.0
C3159 C 0.62039 0.28504 0.68646 0.0
C3160 C 0.5824 0.24577 0.6842 0.0
C3161 C 0.5051 0.27427 0.68911 0.0
H3162 H 0.48057 0.20544 0.67373 0.0
C3163 C 0.37988 0.24008 0.68493 0.0
C3164 C 0.37381 0.20937 0.6868 0.0
C3165 C 0.40968 0.25002 0.68367 0.0
C3166 C 0.48717 0.2247 0.67806 0.0
H3167 H 0.60264 0.33091 0.68677 0.0
H3168 H 0.55013 0.31609 0.6845 0.0
H3169 H 0.53352 0.22171 0.67363 0.0
H3170 H 0.39412 0.16483 0.68844 0.0
H3171 H 0.44604 0.18225 0.6862 0.0
H3172 H 0.45878 0.27723 0.69352 0.0
C3173 C 0.56724 0.29851 0.6848 0.0
C3174 C 0.51747 0.23394 0.67804 0.0
C3175 C 0.5974 0.30703 0.68605 0.0
C3176 C 0.39804 0.18868 0.68706 0.0
C3177 C 0.42777 0.19858 0.68571 0.0
C3178 C 0.47482 0.26522 0.68905 0.0
C3179 C 0.55926 0.26775 0.68407 0.0
C3180 C 0.52685 0.25868 0.68364 0.0
C3181 C 0.43391 0.2294 0.68415 0.0
C3182 C 0.46562 0.24017 0.68361 0.0
H3183 H 0.62994 0.2369 0.68564 0.0
H3184 H 0.57706 0.22186 0.68376 0.0
H3185 H 0.51156 0.293 0.69367 0.0
H3186 H 0.36171 0.25657 0.68466 0.0
H3187 H 0.41382 0.27389 0.6824 0.0
C3188 C 0.05498 0.14733 0.93594 0.0
C3189 C 0.0329 0.12451 0.93669 0.0
C3190 C 0.04654 0.17749 0.93463 0.0
C3191 C 0.98176 0.22749 0.92827 0.0
H3192 H 0.02697 0.28643 0.94308 0.0
C3193 C 0.93845 0.34775 0.93718 0.0
C3194 C 0.95935 0.37177 0.9367 0.0
C3195 C 0.94794 0.31789 0.93582 0.0
C3196 C 0.01441 0.27031 0.93879 0.0
H3197 H 0.98466 0.11526 0.9364 0.0
H3198 H 0.96978 0.16817 0.9344 0.0
H3199 H 0.04227 0.23351 0.94332 0.0
H3200 H 0.00647 0.38334 0.93415 0.0
H3201 H 0.02308 0.33098 0.93188 0.0
H3202 H 0.95323 0.26449 0.92406 0.0
C3203 C 0.99368 0.16268 0.93463 0.0
C3204 C 0.02319 0.23995 0.93891 0.0
C3205 C 0.00218 0.13237 0.93583 0.0
C3206 C 0.98983 0.36534 0.93459 0.0
C3207 C -0.00063 0.3354 0.93332 0.0
C3208 C 0.97281 0.25789 0.92824 0.0
C3209 C 0.01578 0.18565 0.93417 0.0
C3210 C 0.00692 0.21812 0.93369 0.0
C3211 C 0.97856 0.31139 0.93404 0.0
C3212 C 0.98898 0.27954 0.93354 0.0
H3213 H 0.07888 0.14195 0.93644 0.0
H3214 H 0.06419 0.19446 0.93406 0.0
H3215 H 0.96899 0.21136 0.92406 0.0
H3216 H 0.91476 0.35193 0.93874 0.0
H3217 H 0.93147 0.29979 0.9365 0.0
C3218 C 0.88209 0.73992 0.18474 0.0
C3219 C 0.87382 0.70942 0.18596 0.0
C3220 C 0.91252 0.74787 0.18347 0.0
C3221 C 0.98939 0.71797 0.18813 0.0
H3222 H 0.01472 0.78582 0.17244 0.0
C3223 C 0.11505 0.75097 0.1841 0.0
C3224 C 0.12108 0.7817 0.18592 0.0
C3225 C 0.08528 0.74109 0.18269 0.0
C3226 C 0.00791 0.7668 0.17684 0.0
H3227 H 0.89071 0.66322 0.18628 0.0
H3228 H 0.94339 0.67693 0.18379 0.0
H3229 H 0.96149 0.77048 0.17256 0.0
H3230 H 0.1008 0.82637 0.18725 0.0
H3231 H 0.04904 0.8091 0.18477 0.0
H3232 H 0.03574 0.7144 0.19244 0.0
C3233 C 0.92665 0.69486 0.18412 0.0
C3234 C 0.97745 0.75811 0.17695 0.0
C3235 C 0.89638 0.68698 0.18551 0.0
C3236 C 0.09692 0.80249 0.18593 0.0
C3237 C 0.06727 0.79267 0.18443 0.0
C3238 C 0.01982 0.72649 0.18795 0.0
C3239 C 0.9352 0.72542 0.18328 0.0
C3240 C 0.96777 0.7338 0.18269 0.0
C3241 C 0.06109 0.76182 0.18297 0.0
C3242 C 0.02932 0.75121 0.18241 0.0
H3243 H 0.8652 0.75772 0.18507 0.0
H3244 H 0.91833 0.77166 0.18294 0.0
H3245 H 0.98271 0.69953 0.19278 0.0
H3246 H 0.13318 0.73441 0.18403 0.0
H3247 H 0.08111 0.71718 0.18151 0.0
C3248 C 0.44444 0.64566 0.93567 0.0
C3249 C 0.46496 0.62129 0.93601 0.0
C3250 C 0.45474 0.67517 0.93422 0.0
C3251 C 0.52069 0.72236 0.93838 0.0
H3252 H 0.47876 0.78023 0.92225 0.0
C3253 C 0.55965 0.84623 0.93623 0.0
C3254 C 0.53691 0.86854 0.93636 0.0
C3255 C 0.55229 0.81584 0.93479 0.0
C3256 C 0.49056 0.7644 0.92685 0.0
H3257 H 0.51234 0.60869 0.93481 0.0
H3258 H 0.53042 0.66057 0.93237 0.0
H3259 H 0.46353 0.72699 0.92209 0.0
H3260 H 0.48866 0.87657 0.93487 0.0
H3261 H 0.47563 0.82329 0.93264 0.0
H3262 H 0.54692 0.75967 0.94345 0.0
C3263 C 0.50634 0.65665 0.93324 0.0
C3264 C 0.48193 0.73393 0.92671 0.0
C3265 C 0.49598 0.62699 0.9346 0.0
C3266 C 0.50669 0.8599 0.93479 0.0
C3267 C 0.49927 0.82937 0.93345 0.0
C3268 C 0.52915 0.75283 0.93858 0.0
C3269 C 0.48581 0.68102 0.93314 0.0
C3270 C 0.49671 0.7127 0.93256 0.0
C3271 C 0.52197 0.80694 0.93357 0.0
C3272 C 0.51399 0.77429 0.93289 0.0
H3273 H 0.42037 0.64203 0.93666 0.0
H3274 H 0.43844 0.69354 0.93427 0.0
H3275 H 0.53215 0.70658 0.94308 0.0
H3276 H 0.58322 0.85218 0.93729 0.0
H3277 H 0.57041 0.79928 0.93472 0.0
C3278 C 0.87491 0.74802 0.68494 0.0
C3279 C 0.86908 0.779 0.68639 0.0
C3280 C 0.90459 0.73781 0.68353 0.0
C3281 C 0.98181 0.76267 0.67702 0.0
H3282 H 0.00765 0.69729 0.69361 0.0
C3283 C 0.10787 0.73744 0.68495 0.0
C3284 C 0.1164 0.70712 0.68642 0.0
C3285 C 0.07736 0.74504 0.68368 0.0
C3286 C 0.00078 0.71519 0.68879 0.0
H3287 H 0.88963 0.82368 0.68706 0.0
H3288 H 0.94117 0.80587 0.68458 0.0
H3289 H 0.95455 0.71198 0.69328 0.0
H3290 H 0.09983 0.66085 0.6872 0.0
H3291 H 0.04701 0.67397 0.68472 0.0
H3292 H 0.02812 0.76605 0.67257 0.0
C3293 C 0.92288 0.78949 0.68453 0.0
C3294 C 0.97031 0.72359 0.68861 0.0
C3295 C 0.89334 0.79963 0.68603 0.0
C3296 C 0.09399 0.68449 0.68623 0.0
C3297 C 0.06363 0.69202 0.68485 0.0
C3298 C 0.01231 0.75411 0.67714 0.0
C3299 C 0.92887 0.75845 0.68343 0.0
C3300 C 0.9606 0.74768 0.68283 0.0
C3301 C 0.05484 0.72243 0.68374 0.0
C3302 C 0.02221 0.73051 0.68312 0.0
H3303 H 0.85669 0.73157 0.68515 0.0
H3304 H 0.90861 0.71375 0.68262 0.0
H3305 H 0.97484 0.78117 0.67244 0.0
H3306 H 0.12462 0.75539 0.68508 0.0
H3307 H 0.07135 0.76873 0.68294 0.0
C3308 C 0.94436 0.14441 0.43493 0.0
C3309 C 0.96466 0.11987 0.43532 0.0
C3310 C 0.95494 0.1738 0.43341 0.0
C3311 C 0.02132 0.22025 0.43763 0.0
H3312 H 0.98021 0.27868 0.42149 0.0
C3313 C 0.06138 0.34379 0.43578 0.0
C3314 C 0.03881 0.36627 0.4359 0.0
C3315 C 0.05383 0.31349 0.43425 0.0
C3316 C 0.99179 0.26269 0.42609 0.0
H3317 H 0.01191 0.1068 0.43411 0.0
H3318 H 0.03046 0.15844 0.43156 0.0
H3319 H 0.96442 0.2256 0.42127 0.0
H3320 H 0.99068 0.37471 0.43429 0.0
H3321 H 0.9773 0.3216 0.4319 0.0
H3322 H 0.04785 0.25723 0.44277 0.0
C3323 C 0.00635 0.15476 0.43244 0.0
C3324 C 0.98284 0.23231 0.42592 0.0
C3325 C 0.99572 0.12524 0.43387 0.0
C3326 C 0.00857 0.3579 0.43421 0.0
C3327 C 0.00096 0.32747 0.43279 0.0
C3328 C 0.03009 0.25062 0.43787 0.0
C3329 C 0.98607 0.17933 0.43233 0.0
C3330 C -0.00268 0.21089 0.43177 0.0
C3331 C 0.02347 0.30486 0.43292 0.0
C3332 C 0.01523 0.27229 0.43217 0.0
H3333 H 0.92026 0.14103 0.43597 0.0
H3334 H 0.93883 0.19234 0.43345 0.0
H3335 H 0.03254 0.20431 0.44233 0.0
H3336 H 0.08496 0.34955 0.43693 0.0
H3337 H 0.07182 0.29679 0.43419 0.0
C3338 C 0.6134 0.24041 0.18391 0.0
C3339 C 0.61923 0.20984 0.18606 0.0
C3340 C 0.58372 0.25032 0.18234 0.0
C3341 C 0.5063 0.22429 0.17661 0.0
H3342 H 0.48116 0.29376 0.19159 0.0
C3343 C 0.38061 0.25244 0.18431 0.0
C3344 C 0.37244 0.28307 0.18523 0.0
C3345 C 0.41098 0.24431 0.18298 0.0
C3346 C 0.48783 0.27469 0.1872 0.0
H3347 H 0.59862 0.16547 0.18782 0.0
H3348 H 0.54703 0.1828 0.18507 0.0
H3349 H 0.53411 0.27861 0.19155 0.0
H3350 H 0.3893 0.32926 0.18486 0.0
H3351 H 0.44187 0.3152 0.18227 0.0
H3352 H 0.45992 0.22023 0.17231 0.0
C3353 C 0.56536 0.19907 0.18459 0.0
C3354 C 0.51822 0.26601 0.18719 0.0
C3355 C 0.59492 0.18923 0.18625 0.0
C3356 C 0.39494 0.30542 0.18434 0.0
C3357 C 0.42513 0.29735 0.1829 0.0
C3358 C 0.47588 0.23313 0.17655 0.0
C3359 C 0.5594 0.22978 0.18278 0.0
C3360 C 0.5277 0.2405 0.182 0.0
C3361 C 0.43366 0.2667 0.18243 0.0
C3362 C 0.46622 0.25822 0.18194 0.0
H3363 H 0.63164 0.25683 0.18369 0.0
H3364 H 0.57973 0.27411 0.18089 0.0
H3365 H 0.51309 0.20467 0.17248 0.0
H3366 H 0.36375 0.23472 0.18498 0.0
H3367 H 0.41676 0.22047 0.18275 0.0
C3368 C 0.54757 0.1432 0.58062 0.0
C3369 C 0.52697 0.11893 0.58016 0.0
C3370 C 0.53731 0.17274 0.58206 0.0
C3371 C 0.47172 0.21996 0.57744 0.0
H3372 H 0.51283 0.27824 0.59363 0.0
C3373 C 0.43242 0.34374 0.57914 0.0
C3374 C 0.45505 0.36617 0.57911 0.0
C3375 C 0.43983 0.31341 0.58064 0.0
C3376 C 0.50127 0.2623 0.58901 0.0
H3377 H 0.47952 0.10648 0.58117 0.0
H3378 H 0.46152 0.1584 0.58358 0.0
H3379 H 0.528 0.22498 0.59402 0.0
H3380 H 0.50316 0.37443 0.58086 0.0
H3381 H 0.51632 0.32121 0.5832 0.0
H3382 H 0.44581 0.25714 0.57213 0.0
C3383 C 0.48562 0.15439 0.58282 0.0
C3384 C 0.50986 0.23181 0.58928 0.0
C3385 C 0.49593 0.12471 0.58148 0.0
C3386 C 0.48522 0.35767 0.58085 0.0
C3387 C 0.49271 0.32718 0.58225 0.0
C3388 C 0.46331 0.25042 0.57711 0.0
C3389 C 0.50621 0.17871 0.58299 0.0
C3390 C 0.49535 0.21043 0.58343 0.0
C3391 C 0.47012 0.30465 0.58204 0.0
C3392 C 0.47816 0.27203 0.58283 0.0
H3393 H 0.57167 0.1395 0.5797 0.0
H3394 H 0.55366 0.19106 0.58208 0.0
H3395 H 0.46051 0.20406 0.57273 0.0
H3396 H 0.40888 0.34957 0.57795 0.0
H3397 H 0.42177 0.29678 0.58065 0.0
C3398 C 0.38435 0.73475 0.33181 0.0
C3399 C 0.37745 0.70505 0.32891 0.0
C3400 C 0.41443 0.74352 0.33324 0.0
C3401 C 0.492 0.7145 0.33715 0.0
H3402 H 0.516 0.78921 0.3247 0.0
C3403 C 0.61722 0.74781 0.3299 0.0
C3404 C 0.62444 0.7788 0.33009 0.0
C3405 C 0.58718 0.73835 0.33115 0.0
C3406 C 0.50967 0.76857 0.32838 0.0
H3407 H 0.39669 0.66094 0.3256 0.0
H3408 H 0.44907 0.67636 0.32807 0.0
H3409 H 0.46315 0.77393 0.3245 0.0
H3410 H 0.60657 0.82395 0.3325 0.0
H3411 H 0.55465 0.80751 0.33497 0.0
H3412 H 0.53871 0.70909 0.34097 0.0
C3413 C 0.43123 0.69279 0.32927 0.0
C3414 C 0.47933 0.75981 0.32825 0.0
C3415 C 0.4012 0.68407 0.32778 0.0
C3416 C 0.60155 0.79994 0.33212 0.0
C3417 C 0.57175 0.79052 0.3335 0.0
C3418 C 0.52243 0.72338 0.33734 0.0
C3419 C 0.43818 0.72272 0.33187 0.0
C3420 C 0.47018 0.73262 0.33257 0.0
C3421 C 0.56399 0.75973 0.33272 0.0
C3422 C 0.53162 0.75048 0.33292 0.0
H3423 H 0.36659 0.75142 0.33279 0.0
H3424 H 0.41915 0.76668 0.33534 0.0
H3425 H 0.4855 0.6935 0.3406 0.0
H3426 H 0.63447 0.73105 0.32833 0.0
H3427 H 0.58196 0.71446 0.33046 0.0
C3428 C 0.99092 0.86528 0.08169 0.0
C3429 C 0.96017 0.87094 0.0798 0.0
C3430 C 0.00115 0.83562 0.08311 0.0
C3431 C 0.97621 0.75793 0.0889 0.0
H3432 H 0.04416 0.73348 0.07313 0.0
C3433 C 0.00401 0.6325 0.08084 0.0
C3434 C 0.03456 0.62437 0.07966 0.0
C3435 C 0.99594 0.66286 0.08219 0.0
C3436 C 0.02553 0.73996 0.07774 0.0
H3437 H 0.91581 0.85011 0.07835 0.0
H3438 H 0.93368 0.79854 0.08085 0.0
H3439 H 0.02876 0.78638 0.07345 0.0
H3440 H 0.08071 0.6414 0.07947 0.0
H3441 H 0.06674 0.694 0.08209 0.0
H3442 H 0.97284 0.71144 0.09315 0.0
C3443 C 0.94986 0.81697 0.08124 0.0
C3444 C 0.01671 0.77031 0.07791 0.0
C3445 C 0.9397 0.84651 0.07973 0.0
C3446 C 0.05692 0.64698 0.08022 0.0
C3447 C 0.0489 0.67719 0.08168 0.0
C3448 C 0.9852 0.72755 0.08881 0.0
C3449 C 0.98074 0.81117 0.08278 0.0
C3450 C 0.99172 0.77953 0.08338 0.0
C3451 C 0.01829 0.68562 0.08248 0.0
C3452 C 0.00974 0.71814 0.08312 0.0
H3453 H 0.00724 0.88363 0.08181 0.0
H3454 H 0.02507 0.83175 0.08435 0.0
H3455 H 0.957 0.76452 0.09325 0.0
H3456 H 0.98628 0.61557 0.08042 0.0
H3457 H 0.97211 0.66857 0.08268 0.0
C3458 C 0.09737 0.29866 0.83042 0.0
C3459 C 0.12186 0.27828 0.83017 0.0
C3460 C 0.06792 0.28821 0.8319 0.0
C3461 C 0.02146 0.22176 0.82777 0.0
H3462 H 0.96259 0.26358 0.84358 0.0
C3463 C 0.89785 0.1819 0.8294 0.0
C3464 C 0.87539 0.20448 0.82915 0.0
C3465 C 0.9281 0.18949 0.83098 0.0
C3466 C 0.9787 0.25181 0.83907 0.0
H3467 H 0.13477 0.23104 0.8316 0.0
H3468 H 0.08302 0.21271 0.83408 0.0
H3469 H 0.01567 0.27931 0.84391 0.0
H3470 H 0.86694 0.25269 0.83058 0.0
H3471 H 0.91998 0.26612 0.83305 0.0
H3472 H 0.98462 0.19509 0.82261 0.0
C3473 C 0.08679 0.23679 0.83311 0.0
C3474 C 0.00908 0.26072 0.83931 0.0
C3475 C 0.11637 0.24729 0.83173 0.0
C3476 C 0.88373 0.23478 0.83075 0.0
C3477 C 0.91412 0.24243 0.83223 0.0
C3478 C 0.9911 0.21303 0.82747 0.0
C3479 C 0.06227 0.25713 0.83308 0.0
C3480 C 0.03067 0.24598 0.83358 0.0
C3481 C 0.93672 0.21989 0.83223 0.0
C3482 C 0.96927 0.22814 0.83304 0.0
H3483 H 0.10085 0.32271 0.8293 0.0
H3484 H 0.04943 0.30437 0.83175 0.0
H3485 H 0.03754 0.21033 0.82316 0.0
H3486 H 0.89211 0.15827 0.82832 0.0
H3487 H 0.94478 0.17148 0.83115 0.0
loop_
_geom_bond_atom_site_label_1
_geom_bond_atom_site_label_2
_geom_bond_distance
_geom_bond_site_symmetry_2
_ccdc_geom_bond_type
Co0 O3 1.980 . S
Co0 N17 1.989 1_545 S
Co0 O25 1.967 . S
Co0 O32 1.920 . S
Co1 O4 1.966 . S
Co1 N10 2.022 . S
Co1 N18 1.993 1_545 S
Co1 O26 1.941 . S
C2 O3 1.266 . S
C2 O4 1.263 . S
O3 Co0 1.980 . S
O3 C2 1.266 . S
O4 Co1 1.966 . S
O4 C2 1.263 . S
C5 O6 1.235 . S
C5 O32 1.289 1_565 S
O6 C5 1.235 . S
C7 C9 1.400 . S
C7 N10 1.351 . S
C7 C12 1.501 1_545 S
C8 C9 1.387 . S
C8 N11 1.341 . S
C9 C7 1.400 . S
C9 C8 1.387 . S
N10 Co1 2.022 . S
N10 C7 1.351 . S
N10 N11 1.365 . S
N11 C8 1.341 . S
N11 N10 1.365 . S
N11 H31 0.862 . S
C12 C7 1.501 1_565 S
C12 H13 0.968 . S
C12 H14 0.961 . S
C12 H15 0.960 1_565 S
H13 C12 0.968 . S
H14 C12 0.961 . S
H15 C12 0.960 1_545 S
C16 N17 1.342 . S
C16 C20 1.401 . S
C16 C21 1.499 . S
N17 Co0 1.989 1_565 S
N17 C16 1.342 . S
N17 N18 1.388 . S
N18 Co1 1.993 1_565 S
N18 N17 1.388 . S
N18 C19 1.346 . S
C19 N18 1.346 . S
C19 C20 1.396 . S
C19 C29 1.510 . S
C20 C16 1.401 . S
C20 C19 1.396 . S
C21 C16 1.499 . S
C21 H22 0.959 . S
C21 H23 0.960 . S
C21 H24 0.961 . S
H22 C21 0.959 . S
H23 C21 0.960 . S
H24 C21 0.961 . S
O25 Co0 1.967 . S
O25 C33 1.258 . S
O26 Co1 1.941 . S
O26 C33 1.266 . S
H27 C29 0.959 . S
H28 C29 0.961 . S
C29 C19 1.510 . S
C29 H27 0.959 . S
C29 H28 0.961 . S
C29 H30 0.960 . S
H30 C29 0.960 . S
H31 N11 0.862 . S
O32 Co0 1.920 . S
O32 C5 1.289 1_545 S
C33 O25 1.258 . S
C33 O26 1.266 . S
Co34 O37 1.970 . S
Co34 N51 1.989 . S
Co34 O59 1.967 . S
Co34 O66 1.920 . S
Co35 O38 1.966 . S
Co35 N44 2.022 . S
Co35 N52 1.993 . S
Co35 O60 1.941 . S
C36 O37 1.258 . S
C36 O38 1.263 . S
O37 Co34 1.970 . S
O37 C36 1.258 . S
O38 Co35 1.966 . S
O38 C36 1.263 . S
C39 O40 1.235 . S
C39 O66 1.289 . S
O40 C39 1.235 . S
C41 C43 1.400 . S
C41 N44 1.351 . S
C41 C46 1.501 . S
C42 C43 1.387 . S
C42 N45 1.341 . S
C43 C41 1.400 . S
C43 C42 1.387 . S
N44 Co35 2.022 . S
N44 C41 1.351 . S
N44 N45 1.365 . S
N45 C42 1.341 . S
N45 N44 1.365 . S
N45 H65 0.862 . S
C46 C41 1.501 . S
C46 H47 0.961 . S
C46 H48 0.961 . S
C46 H49 0.960 . S
H47 C46 0.961 . S
H48 C46 0.961 . S
H49 C46 0.960 . S
C50 N51 1.342 . S
C50 C54 1.401 . S
C50 C55 1.499 . S
N51 Co34 1.989 . S
N51 C50 1.342 . S
N51 N52 1.388 . S
N52 Co35 1.993 . S
N52 N51 1.388 . S
N52 C53 1.346 . S
C53 N52 1.346 . S
C53 C54 1.396 . S
C53 C63 1.510 . S
C54 C50 1.401 . S
C54 C53 1.396 . S
C55 C50 1.499 . S
C55 H56 0.959 . S
C55 H57 0.960 . S
C55 H58 0.961 . S
H56 C55 0.959 . S
H57 C55 0.960 . S
H58 C55 0.961 . S
O59 Co34 1.967 . S
O59 C67 1.258 . S
O60 Co35 1.941 . S
O60 C67 1.266 . S
H61 C63 0.959 . S
H62 C63 0.961 . S
C63 C53 1.510 . S
C63 H61 0.959 . S
C63 H62 0.961 . S
C63 H64 0.960 . S
H64 C63 0.960 . S
H65 N45 0.862 . S
O66 Co34 1.920 . S
O66 C39 1.289 . S
C67 O59 1.258 . S
C67 O60 1.266 . S
Co68 O71 1.980 . S
Co68 N85 1.989 1_565 S
Co68 O93 1.967 . S
Co68 O100 1.920 1_455 S
Co69 O72 1.966 . S
Co69 N78 2.022 . S
Co69 N86 1.993 1_565 S
Co69 O94 1.941 . S
C70 O71 1.266 . S
C70 O72 1.263 . S
O71 Co68 1.980 . S
O71 C70 1.266 . S
O72 Co69 1.966 . S
O72 C70 1.263 . S
C73 O74 1.235 . S
C73 O100 1.289 1_545 S
O74 C73 1.235 . S
C75 C77 1.400 . S
C75 N78 1.351 . S
C75 C80 1.501 1_565 S
C76 C77 1.387 . S
C76 N79 1.341 . S
C77 C75 1.400 . S
C77 C76 1.387 . S
N78 Co69 2.022 . S
N78 C75 1.351 . S
N78 N79 1.365 . S
N79 C76 1.341 . S
N79 N78 1.365 . S
N79 H99 0.862 . S
C80 C75 1.501 1_545 S
C80 H81 0.968 . S
C80 H82 0.961 . S
C80 H83 0.960 1_545 S
H81 C80 0.968 . S
H82 C80 0.961 . S
H83 C80 0.960 1_565 S
C84 N85 1.342 . S
C84 C88 1.401 . S
C84 C89 1.501 1_455 S
N85 Co68 1.989 1_545 S
N85 C84 1.342 . S
N85 N86 1.388 . S
N86 Co69 1.993 1_545 S
N86 N85 1.388 . S
N86 C87 1.346 . S
C87 N86 1.346 . S
C87 C88 1.396 . S
C87 C97 1.510 . S
C88 C84 1.401 . S
C88 C87 1.396 . S
C89 C84 1.501 1_655 S
C89 H90 0.957 . S
C89 H91 0.959 . S
C89 H92 0.961 . S
H90 C89 0.957 . S
H91 C89 0.959 . S
H92 C89 0.961 . S
O93 Co68 1.967 . S
O93 C101 1.258 . S
O94 Co69 1.941 . S
O94 C101 1.266 . S
H95 C97 0.959 . S
H96 C97 0.961 . S
C97 C87 1.510 . S
C97 H95 0.959 . S
C97 H96 0.961 . S
C97 H98 0.960 . S
H98 C97 0.960 . S
H99 N79 0.862 . S
O100 Co68 1.920 1_655 S
O100 C73 1.289 1_565 S
C101 O93 1.258 . S
C101 O94 1.266 . S
Co102 O105 1.970 . S
Co102 N119 1.989 . S
Co102 O127 1.967 . S
Co102 O134 1.920 . S
Co103 O106 1.966 . S
Co103 N112 2.022 . S
Co103 N120 1.993 . S
Co103 O128 1.941 . S
C104 O105 1.258 . S
C104 O106 1.263 . S
O105 Co102 1.970 . S
O105 C104 1.258 . S
O106 Co103 1.966 . S
O106 C104 1.263 . S
C107 O108 1.235 . S
C107 O134 1.289 . S
O108 C107 1.235 . S
C109 C111 1.400 . S
C109 N112 1.351 . S
C109 C114 1.501 . S
C110 C111 1.387 . S
C110 N113 1.341 . S
C111 C109 1.400 . S
C111 C110 1.387 . S
N112 Co103 2.022 . S
N112 C109 1.351 . S
N112 N113 1.365 . S
N113 C110 1.341 . S
N113 N112 1.365 . S
N113 H133 0.862 . S
C114 C109 1.501 . S
C114 H115 0.961 . S
C114 H116 0.961 . S
C114 H117 0.960 . S
H115 C114 0.961 . S
H116 C114 0.961 . S
H117 C114 0.960 . S
C118 N119 1.342 . S
C118 C122 1.401 . S
C118 C123 1.499 . S
N119 Co102 1.989 . S
N119 C118 1.342 . S
N119 N120 1.388 . S
N120 Co103 1.993 . S
N120 N119 1.388 . S
N120 C121 1.346 . S
C121 N120 1.346 . S
C121 C122 1.396 . S
C121 C131 1.510 . S
C122 C118 1.401 . S
C122 C121 1.396 . S
C123 C118 1.499 . S
C123 H124 0.959 . S
C123 H125 0.960 . S
C123 H126 0.961 . S
H124 C123 0.959 . S
H125 C123 0.960 . S
H126 C123 0.961 . S
O127 Co102 1.967 . S
O127 C135 1.258 . S
O128 Co103 1.941 . S
O128 C135 1.266 . S
H129 C131 0.959 . S
H130 C131 0.961 . S
C131 C121 1.510 . S
C131 H129 0.959 . S
C131 H130 0.961 . S
C131 H132 0.960 . S
H132 C131 0.960 . S
H133 N113 0.862 . S
O134 Co102 1.920 . S
O134 C107 1.289 . S
C135 O127 1.258 . S
C135 O128 1.266 . S
Co136 O139 1.980 . S
Co136 N153 1.989 1_565 S
Co136 O161 1.967 . S
Co136 O168 1.920 . S
Co137 O140 1.966 . S
Co137 N146 2.022 . S
Co137 N154 1.993 1_565 S
Co137 O162 1.941 . S
C138 O139 1.266 . S
C138 O140 1.263 . S
O139 Co136 1.980 . S
O139 C138 1.266 . S
O140 Co137 1.966 . S
O140 C138 1.263 . S
C141 O142 1.235 . S
C141 O168 1.289 1_545 S
O142 C141 1.235 . S
C143 C145 1.400 . S
C143 N146 1.351 . S
C143 C148 1.501 1_565 S
C144 C145 1.387 . S
C144 N147 1.341 . S
C145 C143 1.400 . S
C145 C144 1.387 . S
N146 Co137 2.022 . S
N146 C143 1.351 . S
N146 N147 1.365 . S
N147 C144 1.341 . S
N147 N146 1.365 . S
N147 H167 0.862 . S
C148 C143 1.501 1_545 S
C148 H149 0.968 . S
C148 H150 0.961 . S
C148 H151 0.960 1_545 S
H149 C148 0.968 . S
H150 C148 0.961 . S
H151 C148 0.960 1_565 S
C152 N153 1.342 . S
C152 C156 1.401 . S
C152 C157 1.499 . S
N153 Co136 1.989 1_545 S
N153 C152 1.342 . S
N153 N154 1.388 . S
N154 Co137 1.993 1_545 S
N154 N153 1.388 . S
N154 C155 1.346 . S
C155 N154 1.346 . S
C155 C156 1.396 . S
C155 C165 1.510 . S
C156 C152 1.401 . S
C156 C155 1.396 . S
C157 C152 1.499 . S
C157 H158 0.959 . S
C157 H159 0.960 . S
C157 H160 0.961 . S
H158 C157 0.959 . S
H159 C157 0.960 . S
H160 C157 0.961 . S
O161 Co136 1.967 . S
O161 C169 1.258 . S
O162 Co137 1.941 . S
O162 C169 1.266 . S
H163 C165 0.959 . S
H164 C165 0.961 . S
C165 C155 1.510 . S
C165 H163 0.959 . S
C165 H164 0.961 . S
C165 H166 0.960 . S
H166 C165 0.960 . S
H167 N147 0.862 . S
O168 Co136 1.920 . S
O168 C141 1.289 1_565 S
C169 O161 1.258 . S
C169 O162 1.266 . S
Co170 O173 1.970 . S
Co170 N187 1.989 . S
Co170 O195 1.967 . S
Co170 O202 1.920 . S
Co171 O174 1.966 . S
Co171 N180 2.022 . S
Co171 N188 1.993 . S
Co171 O196 1.941 . S
C172 O173 1.258 . S
C172 O174 1.263 . S
O173 Co170 1.970 . S
O173 C172 1.258 . S
O174 Co171 1.966 . S
O174 C172 1.263 . S
C175 O176 1.235 . S
C175 O202 1.289 . S
O176 C175 1.235 . S
C177 C179 1.400 . S
C177 N180 1.351 . S
C177 C182 1.501 . S
C178 C179 1.387 . S
C178 N181 1.341 . S
C179 C177 1.400 . S
C179 C178 1.387 . S
N180 Co171 2.022 . S
N180 C177 1.351 . S
N180 N181 1.365 . S
N181 C178 1.341 . S
N181 N180 1.365 . S
N181 H201 0.862 . S
C182 C177 1.501 . S
C182 H183 0.961 . S
C182 H184 0.961 . S
C182 H185 0.960 . S
H183 C182 0.961 . S
H184 C182 0.961 . S
H185 C182 0.960 . S
C186 N187 1.342 . S
C186 C190 1.401 . S
C186 C191 1.499 . S
N187 Co170 1.989 . S
N187 C186 1.342 . S
N187 N188 1.388 . S
N188 Co171 1.993 . S
N188 N187 1.388 . S
N188 C189 1.346 . S
C189 N188 1.346 . S
C189 C190 1.396 . S
C189 C199 1.510 . S
C190 C186 1.401 . S
C190 C189 1.396 . S
C191 C186 1.499 . S
C191 H192 0.959 . S
C191 H193 0.960 . S
C191 H194 0.961 . S
H192 C191 0.959 . S
H193 C191 0.960 . S
H194 C191 0.961 . S
O195 Co170 1.967 . S
O195 C203 1.258 . S
O196 Co171 1.941 . S
O196 C203 1.266 . S
H197 C199 0.959 . S
H198 C199 0.961 . S
C199 C189 1.510 . S
C199 H197 0.959 . S
C199 H198 0.961 . S
C199 H200 0.960 . S
H200 C199 0.960 . S
H201 N181 0.862 . S
O202 Co170 1.920 . S
O202 C175 1.289 . S
C203 O195 1.258 . S
C203 O196 1.266 . S
Co204 O207 1.980 . S
Co204 N221 1.989 1_545 S
Co204 O229 1.967 . S
Co204 O236 1.920 1_455 S
Co205 O208 1.966 . S
Co205 N214 2.022 . S
Co205 N222 1.993 1_545 S
Co205 O230 1.941 . S
C206 O207 1.266 . S
C206 O208 1.263 . S
O207 Co204 1.980 . S
O207 C206 1.266 . S
O208 Co205 1.966 . S
O208 C206 1.263 . S
C209 O210 1.235 . S
C209 O236 1.289 1_565 S
O210 C209 1.235 . S
C211 C213 1.400 . S
C211 N214 1.351 . S
C211 C216 1.501 1_545 S
C212 C213 1.387 . S
C212 N215 1.341 . S
C213 C211 1.400 . S
C213 C212 1.387 . S
N214 Co205 2.022 . S
N214 C211 1.351 . S
N214 N215 1.365 . S
N215 C212 1.341 . S
N215 N214 1.365 . S
N215 H235 0.862 . S
C216 C211 1.501 1_565 S
C216 H217 0.968 . S
C216 H218 0.961 . S
C216 H219 0.960 1_565 S
H217 C216 0.968 . S
H218 C216 0.961 . S
H219 C216 0.960 1_545 S
C220 N221 1.342 . S
C220 C224 1.401 . S
C220 C225 1.501 1_455 S
N221 Co204 1.989 1_565 S
N221 C220 1.342 . S
N221 N222 1.388 . S
N222 Co205 1.993 1_565 S
N222 N221 1.388 . S
N222 C223 1.346 . S
C223 N222 1.346 . S
C223 C224 1.396 . S
C223 C233 1.510 . S
C224 C220 1.401 . S
C224 C223 1.396 . S
C225 C220 1.501 1_655 S
C225 H226 0.957 . S
C225 H227 0.959 . S
C225 H228 0.961 . S
H226 C225 0.957 . S
H227 C225 0.959 . S
H228 C225 0.961 . S
O229 Co204 1.967 . S
O229 C237 1.258 . S
O230 Co205 1.941 . S
O230 C237 1.266 . S
H231 C233 0.959 . S
H232 C233 0.961 . S
C233 C223 1.510 . S
C233 H231 0.959 . S
C233 H232 0.961 . S
C233 H234 0.960 . S
H234 C233 0.960 . S
H235 N215 0.862 . S
O236 Co204 1.920 1_655 S
O236 C209 1.289 1_545 S
C237 O229 1.258 . S
C237 O230 1.266 . S
Co238 O241 1.970 . S
Co238 N255 1.989 . S
Co238 O263 1.967 . S
Co238 O270 1.920 . S
Co239 O242 1.966 . S
Co239 N248 2.022 . S
Co239 N256 1.993 . S
Co239 O264 1.941 . S
C240 O241 1.258 . S
C240 O242 1.263 . S
O241 Co238 1.970 . S
O241 C240 1.258 . S
O242 Co239 1.966 . S
O242 C240 1.263 . S
C243 O244 1.235 . S
C243 O270 1.289 . S
O244 C243 1.235 . S
C245 C247 1.400 . S
C245 N248 1.351 . S
C245 C250 1.501 . S
C246 C247 1.387 . S
C246 N249 1.341 . S
C247 C245 1.400 . S
C247 C246 1.387 . S
N248 Co239 2.022 . S
N248 C245 1.351 . S
N248 N249 1.365 . S
N249 C246 1.341 . S
N249 N248 1.365 . S
N249 H269 0.862 . S
C250 C245 1.501 . S
C250 H251 0.961 . S
C250 H252 0.961 . S
C250 H253 0.960 . S
H251 C250 0.961 . S
H252 C250 0.961 . S
H253 C250 0.960 . S
C254 N255 1.342 . S
C254 C258 1.401 . S
C254 C259 1.499 . S
N255 Co238 1.989 . S
N255 C254 1.342 . S
N255 N256 1.388 . S
N256 Co239 1.993 . S
N256 N255 1.388 . S
N256 C257 1.346 . S
C257 N256 1.346 . S
C257 C258 1.396 . S
C257 C267 1.510 . S
C258 C254 1.401 . S
C258 C257 1.396 . S
C259 C254 1.499 . S
C259 H260 0.959 . S
C259 H261 0.960 . S
C259 H262 0.961 . S
H260 C259 0.959 . S
H261 C259 0.960 . S
H262 C259 0.961 . S
O263 Co238 1.967 . S
O263 C271 1.258 . S
O264 Co239 1.941 . S
O264 C271 1.266 . S
H265 C267 0.959 . S
H266 C267 0.961 . S
C267 C257 1.510 . S
C267 H265 0.959 . S
C267 H266 0.961 . S
C267 H268 0.960 . S
H268 C267 0.960 . S
H269 N249 0.862 . S
O270 Co238 1.920 . S
O270 C243 1.289 . S
C271 O263 1.258 . S
C271 O264 1.266 . S
Co272 O275 1.980 . S
Co272 N289 1.989 1_565 S
Co272 O297 1.967 . S
Co272 O304 1.920 . S
Co273 O276 1.966 . S
Co273 N282 2.022 . S
Co273 N290 1.993 1_565 S
Co273 O298 1.941 . S
C274 O275 1.266 . S
C274 O276 1.263 . S
O275 Co272 1.980 . S
O275 C274 1.266 . S
O276 Co273 1.966 . S
O276 C274 1.263 . S
C277 O278 1.235 . S
C277 O304 1.289 1_545 S
O278 C277 1.235 . S
C279 C281 1.400 . S
C279 N282 1.351 . S
C279 C284 1.501 1_565 S
C280 C281 1.387 . S
C280 N283 1.341 . S
C281 C279 1.400 . S
C281 C280 1.387 . S
N282 Co273 2.022 . S
N282 C279 1.351 . S
N282 N283 1.365 . S
N283 C280 1.341 . S
N283 N282 1.365 . S
N283 H303 0.862 . S
C284 C279 1.501 1_545 S
C284 H285 0.968 . S
C284 H286 0.961 . S
C284 H287 0.960 1_545 S
H285 C284 0.968 . S
H286 C284 0.961 . S
H287 C284 0.960 1_565 S
C288 N289 1.342 . S
C288 C292 1.401 . S
C288 C293 1.499 . S
N289 Co272 1.989 1_545 S
N289 C288 1.342 . S
N289 N290 1.388 . S
N290 Co273 1.993 1_545 S
N290 N289 1.388 . S
N290 C291 1.346 . S
C291 N290 1.346 . S
C291 C292 1.396 . S
C291 C301 1.510 . S
C292 C288 1.401 . S
C292 C291 1.396 . S
C293 C288 1.499 . S
C293 H294 0.959 . S
C293 H295 0.960 . S
C293 H296 0.961 . S
H294 C293 0.959 . S
H295 C293 0.960 . S
H296 C293 0.961 . S
O297 Co272 1.967 . S
O297 C305 1.258 . S
O298 Co273 1.941 . S
O298 C305 1.266 . S
H299 C301 0.959 . S
H300 C301 0.961 . S
C301 C291 1.510 . S
C301 H299 0.959 . S
C301 H300 0.961 . S
C301 H302 0.960 . S
H302 C301 0.960 . S
H303 N283 0.862 . S
O304 Co272 1.920 . S
O304 C277 1.289 1_565 S
C305 O297 1.258 . S
C305 O298 1.266 . S
Co306 O309 1.970 . S
Co306 N323 1.989 . S
Co306 O331 1.967 . S
Co306 O338 1.920 . S
Co307 O310 1.966 . S
Co307 N316 2.022 . S
Co307 N324 1.993 . S
Co307 O332 1.941 . S
C308 O309 1.258 . S
C308 O310 1.263 . S
O309 Co306 1.970 . S
O309 C308 1.258 . S
O310 Co307 1.966 . S
O310 C308 1.263 . S
C311 O312 1.235 . S
C311 O338 1.289 . S
O312 C311 1.235 . S
C313 C315 1.400 . S
C313 N316 1.351 . S
C313 C318 1.501 . S
C314 C315 1.387 . S
C314 N317 1.341 . S
C315 C313 1.400 . S
C315 C314 1.387 . S
N316 Co307 2.022 . S
N316 C313 1.351 . S
N316 N317 1.365 . S
N317 C314 1.341 . S
N317 N316 1.365 . S
N317 H337 0.862 . S
C318 C313 1.501 . S
C318 H319 0.961 . S
C318 H320 0.961 . S
C318 H321 0.960 . S
H319 C318 0.961 . S
H320 C318 0.961 . S
H321 C318 0.960 . S
C322 N323 1.342 . S
C322 C326 1.401 . S
C322 C327 1.499 . S
N323 Co306 1.989 . S
N323 C322 1.342 . S
N323 N324 1.388 . S
N324 Co307 1.993 . S
N324 N323 1.388 . S
N324 C325 1.346 . S
C325 N324 1.346 . S
C325 C326 1.396 . S
C325 C335 1.510 . S
C326 C322 1.401 . S
C326 C325 1.396 . S
C327 C322 1.499 . S
C327 H328 0.959 . S
C327 H329 0.960 . S
C327 H330 0.961 . S
H328 C327 0.959 . S
H329 C327 0.960 . S
H330 C327 0.961 . S
O331 Co306 1.967 . S
O331 C339 1.258 . S
O332 Co307 1.941 . S
O332 C339 1.266 . S
H333 C335 0.959 . S
H334 C335 0.961 . S
C335 C325 1.510 . S
C335 H333 0.959 . S
C335 H334 0.961 . S
C335 H336 0.960 . S
H336 C335 0.960 . S
H337 N317 0.862 . S
O338 Co306 1.920 . S
O338 C311 1.289 . S
C339 O331 1.258 . S
C339 O332 1.266 . S
Co340 O343 1.980 . S
Co340 N357 1.989 1_545 S
Co340 O365 1.967 . S
Co340 O372 1.920 1_655 S
Co341 O344 1.966 . S
Co341 N350 2.022 . S
Co341 N358 1.993 1_545 S
Co341 O366 1.941 . S
C342 O343 1.266 . S
C342 O344 1.263 . S
O343 Co340 1.980 . S
O343 C342 1.266 . S
O344 Co341 1.966 . S
O344 C342 1.263 . S
C345 O346 1.235 . S
C345 O372 1.289 1_565 S
O346 C345 1.235 . S
C347 C349 1.400 . S
C347 N350 1.351 . S
C347 C352 1.501 1_545 S
C348 C349 1.387 . S
C348 N351 1.341 . S
C349 C347 1.400 . S
C349 C348 1.387 . S
N350 Co341 2.022 . S
N350 C347 1.351 . S
N350 N351 1.365 . S
N351 C348 1.341 . S
N351 N350 1.365 . S
N351 H371 0.862 . S
C352 C347 1.501 1_565 S
C352 H353 0.968 . S
C352 H354 0.961 . S
C352 H355 0.960 1_565 S
H353 C352 0.968 . S
H354 C352 0.961 . S
H355 C352 0.960 1_545 S
C356 N357 1.342 . S
C356 C360 1.401 . S
C356 C361 1.501 1_655 S
N357 Co340 1.989 1_565 S
N357 C356 1.342 . S
N357 N358 1.388 . S
N358 Co341 1.993 1_565 S
N358 N357 1.388 . S
N358 C359 1.346 . S
C359 N358 1.346 . S
C359 C360 1.396 . S
C359 C369 1.510 . S
C360 C356 1.401 . S
C360 C359 1.396 . S
C361 C356 1.501 1_455 S
C361 H362 0.957 . S
C361 H363 0.959 . S
C361 H364 0.961 . S
H362 C361 0.957 . S
H363 C361 0.959 . S
H364 C361 0.961 . S
O365 Co340 1.967 . S
O365 C373 1.258 . S
O366 Co341 1.941 . S
O366 C373 1.266 . S
H367 C369 0.959 . S
H368 C369 0.961 . S
C369 C359 1.510 . S
C369 H367 0.959 . S
C369 H368 0.961 . S
C369 H370 0.960 . S
H370 C369 0.960 . S
H371 N351 0.862 . S
O372 Co340 1.920 1_455 S
O372 C345 1.289 1_545 S
C373 O365 1.258 . S
C373 O366 1.266 . S
Co374 O377 1.970 . S
Co374 N391 1.989 . S
Co374 O399 1.967 . S
Co374 O406 1.920 . S
Co375 O378 1.966 . S
Co375 N384 2.022 . S
Co375 N392 1.993 . S
Co375 O400 1.941 . S
C376 O377 1.258 . S
C376 O378 1.263 . S
O377 Co374 1.970 . S
O377 C376 1.258 . S
O378 Co375 1.966 . S
O378 C376 1.263 . S
C379 O380 1.235 . S
C379 O406 1.289 . S
O380 C379 1.235 . S
C381 C383 1.400 . S
C381 N384 1.351 . S
C381 C386 1.501 . S
C382 C383 1.387 . S
C382 N385 1.341 . S
C383 C381 1.400 . S
C383 C382 1.387 . S
N384 Co375 2.022 . S
N384 C381 1.351 . S
N384 N385 1.365 . S
N385 C382 1.341 . S
N385 N384 1.365 . S
N385 H405 0.862 . S
C386 C381 1.501 . S
C386 H387 0.961 . S
C386 H388 0.961 . S
C386 H389 0.960 . S
H387 C386 0.961 . S
H388 C386 0.961 . S
H389 C386 0.960 . S
C390 N391 1.342 . S
C390 C394 1.401 . S
C390 C395 1.499 . S
N391 Co374 1.989 . S
N391 C390 1.342 . S
N391 N392 1.388 . S
N392 Co375 1.993 . S
N392 N391 1.388 . S
N392 C393 1.346 . S
C393 N392 1.346 . S
C393 C394 1.396 . S
C393 C403 1.510 . S
C394 C390 1.401 . S
C394 C393 1.396 . S
C395 C390 1.499 . S
C395 H396 0.959 . S
C395 H397 0.960 . S
C395 H398 0.961 . S
H396 C395 0.959 . S
H397 C395 0.960 . S
H398 C395 0.961 . S
O399 Co374 1.967 . S
O399 C407 1.258 . S
O400 Co375 1.941 . S
O400 C407 1.266 . S
H401 C403 0.959 . S
H402 C403 0.961 . S
C403 C393 1.510 . S
C403 H401 0.959 . S
C403 H402 0.961 . S
C403 H404 0.960 . S
H404 C403 0.960 . S
H405 N385 0.862 . S
O406 Co374 1.920 . S
O406 C379 1.289 . S
C407 O399 1.258 . S
C407 O400 1.266 . S
Co408 O411 1.980 . S
Co408 N425 1.989 1_545 S
Co408 O433 1.967 . S
Co408 O440 1.920 . S
Co409 O412 1.966 . S
Co409 N418 2.022 . S
Co409 N426 1.993 1_545 S
Co409 O434 1.941 . S
C410 O411 1.266 . S
C410 O412 1.263 . S
O411 Co408 1.980 . S
O411 C410 1.266 . S
O412 Co409 1.966 . S
O412 C410 1.263 . S
C413 O414 1.235 . S
C413 O440 1.289 1_565 S
O414 C413 1.235 . S
C415 C417 1.400 . S
C415 N418 1.351 . S
C415 C420 1.501 1_545 S
C416 C417 1.387 . S
C416 N419 1.341 . S
C417 C415 1.400 . S
C417 C416 1.387 . S
N418 Co409 2.022 . S
N418 C415 1.351 . S
N418 N419 1.365 . S
N419 C416 1.341 . S
N419 N418 1.365 . S
N419 H439 0.862 . S
C420 C415 1.501 1_565 S
C420 H421 0.968 . S
C420 H422 0.961 . S
C420 H423 0.960 1_565 S
H421 C420 0.968 . S
H422 C420 0.961 . S
H423 C420 0.960 1_545 S
C424 N425 1.342 . S
C424 C428 1.401 . S
C424 C429 1.499 . S
N425 Co408 1.989 1_565 S
N425 C424 1.342 . S
N425 N426 1.388 . S
N426 Co409 1.993 1_565 S
N426 N425 1.388 . S
N426 C427 1.346 . S
C427 N426 1.346 . S
C427 C428 1.396 . S
C427 C437 1.510 . S
C428 C424 1.401 . S
C428 C427 1.396 . S
C429 C424 1.499 . S
C429 H430 0.959 . S
C429 H431 0.960 . S
C429 H432 0.961 . S
H430 C429 0.959 . S
H431 C429 0.960 . S
H432 C429 0.961 . S
O433 Co408 1.967 . S
O433 C441 1.258 . S
O434 Co409 1.941 . S
O434 C441 1.266 . S
H435 C437 0.959 . S
H436 C437 0.961 . S
C437 C427 1.510 . S
C437 H435 0.959 . S
C437 H436 0.961 . S
C437 H438 0.960 . S
H438 C437 0.960 . S
H439 N419 0.862 . S
O440 Co408 1.920 . S
O440 C413 1.289 1_545 S
C441 O433 1.258 . S
C441 O434 1.266 . S
Co442 O445 1.970 . S
Co442 N459 1.989 . S
Co442 O467 1.967 . S
Co442 O474 1.920 . S
Co443 O446 1.966 . S
Co443 N452 2.022 . S
Co443 N460 1.993 . S
Co443 O468 1.941 . S
C444 O445 1.258 . S
C444 O446 1.263 . S
O445 Co442 1.970 . S
O445 C444 1.258 . S
O446 Co443 1.966 . S
O446 C444 1.263 . S
C447 O448 1.235 . S
C447 O474 1.289 . S
O448 C447 1.235 . S
C449 C451 1.400 . S
C449 N452 1.351 . S
C449 C454 1.501 . S
C450 C451 1.387 . S
C450 N453 1.341 . S
C451 C449 1.400 . S
C451 C450 1.387 . S
N452 Co443 2.022 . S
N452 C449 1.351 . S
N452 N453 1.365 . S
N453 C450 1.341 . S
N453 N452 1.365 . S
N453 H473 0.862 . S
C454 C449 1.501 . S
C454 H455 0.961 . S
C454 H456 0.961 . S
C454 H457 0.960 . S
H455 C454 0.961 . S
H456 C454 0.961 . S
H457 C454 0.960 . S
C458 N459 1.342 . S
C458 C462 1.401 . S
C458 C463 1.499 . S
N459 Co442 1.989 . S
N459 C458 1.342 . S
N459 N460 1.388 . S
N460 Co443 1.993 . S
N460 N459 1.388 . S
N460 C461 1.346 . S
C461 N460 1.346 . S
C461 C462 1.396 . S
C461 C471 1.510 . S
C462 C458 1.401 . S
C462 C461 1.396 . S
C463 C458 1.499 . S
C463 H464 0.959 . S
C463 H465 0.960 . S
C463 H466 0.961 . S
H464 C463 0.959 . S
H465 C463 0.960 . S
H466 C463 0.961 . S
O467 Co442 1.967 . S
O467 C475 1.258 . S
O468 Co443 1.941 . S
O468 C475 1.266 . S
H469 C471 0.959 . S
H470 C471 0.961 . S
C471 C461 1.510 . S
C471 H469 0.959 . S
C471 H470 0.961 . S
C471 H472 0.960 . S
H472 C471 0.960 . S
H473 N453 0.862 . S
O474 Co442 1.920 . S
O474 C447 1.289 . S
C475 O467 1.258 . S
C475 O468 1.266 . S
Co476 O479 1.980 . S
Co476 N493 1.989 1_565 S
Co476 O501 1.967 . S
Co476 O508 1.920 1_655 S
Co477 O480 1.966 . S
Co477 N486 2.022 . S
Co477 N494 1.993 1_565 S
Co477 O502 1.941 . S
C478 O479 1.266 . S
C478 O480 1.263 . S
O479 Co476 1.980 . S
O479 C478 1.266 . S
O480 Co477 1.966 . S
O480 C478 1.263 . S
C481 O482 1.235 . S
C481 O508 1.289 1_545 S
O482 C481 1.235 . S
C483 C485 1.400 . S
C483 N486 1.351 . S
C483 C488 1.501 1_565 S
C484 C485 1.387 . S
C484 N487 1.341 . S
C485 C483 1.400 . S
C485 C484 1.387 . S
N486 Co477 2.022 . S
N486 C483 1.351 . S
N486 N487 1.365 . S
N487 C484 1.341 . S
N487 N486 1.365 . S
N487 H507 0.862 . S
C488 C483 1.501 1_545 S
C488 H489 0.968 . S
C488 H490 0.961 . S
C488 H491 0.960 1_545 S
H489 C488 0.968 . S
H490 C488 0.961 . S
H491 C488 0.960 1_565 S
C492 N493 1.342 . S
C492 C496 1.401 . S
C492 C497 1.501 1_655 S
N493 Co476 1.989 1_545 S
N493 C492 1.342 . S
N493 N494 1.388 . S
N494 Co477 1.993 1_545 S
N494 N493 1.388 . S
N494 C495 1.346 . S
C495 N494 1.346 . S
C495 C496 1.396 . S
C495 C505 1.510 . S
C496 C492 1.401 . S
C496 C495 1.396 . S
C497 C492 1.501 1_455 S
C497 H498 0.957 . S
C497 H499 0.959 . S
C497 H500 0.961 . S
H498 C497 0.957 . S
H499 C497 0.959 . S
H500 C497 0.961 . S
O501 Co476 1.967 . S
O501 C509 1.258 . S
O502 Co477 1.941 . S
O502 C509 1.266 . S
H503 C505 0.959 . S
H504 C505 0.961 . S
C505 C495 1.510 . S
C505 H503 0.959 . S
C505 H504 0.961 . S
C505 H506 0.960 . S
H506 C505 0.960 . S
H507 N487 0.862 . S
O508 Co476 1.920 1_455 S
O508 C481 1.289 1_565 S
C509 O501 1.258 . S
C509 O502 1.266 . S
Co510 O513 1.970 . S
Co510 N527 1.989 . S
Co510 O535 1.967 . S
Co510 O542 1.920 . S
Co511 O514 1.966 . S
Co511 N520 2.022 . S
Co511 N528 1.993 . S
Co511 O536 1.941 . S
C512 O513 1.258 . S
C512 O514 1.263 . S
O513 Co510 1.970 . S
O513 C512 1.258 . S
O514 Co511 1.966 . S
O514 C512 1.263 . S
C515 O516 1.235 . S
C515 O542 1.289 . S
O516 C515 1.235 . S
C517 C519 1.400 . S
C517 N520 1.351 . S
C517 C522 1.501 . S
C518 C519 1.387 . S
C518 N521 1.341 . S
C519 C517 1.400 . S
C519 C518 1.387 . S
N520 Co511 2.022 . S
N520 C517 1.351 . S
N520 N521 1.365 . S
N521 C518 1.341 . S
N521 N520 1.365 . S
N521 H541 0.862 . S
C522 C517 1.501 . S
C522 H523 0.961 . S
C522 H524 0.961 . S
C522 H525 0.960 . S
H523 C522 0.961 . S
H524 C522 0.961 . S
H525 C522 0.960 . S
C526 N527 1.342 . S
C526 C530 1.401 . S
C526 C531 1.499 . S
N527 Co510 1.989 . S
N527 C526 1.342 . S
N527 N528 1.388 . S
N528 Co511 1.993 . S
N528 N527 1.388 . S
N528 C529 1.346 . S
C529 N528 1.346 . S
C529 C530 1.396 . S
C529 C539 1.510 . S
C530 C526 1.401 . S
C530 C529 1.396 . S
C531 C526 1.499 . S
C531 H532 0.959 . S
C531 H533 0.960 . S
C531 H534 0.961 . S
H532 C531 0.959 . S
H533 C531 0.960 . S
H534 C531 0.961 . S
O535 Co510 1.967 . S
O535 C543 1.258 . S
O536 Co511 1.941 . S
O536 C543 1.266 . S
H537 C539 0.959 . S
H538 C539 0.961 . S
C539 C529 1.510 . S
C539 H537 0.959 . S
C539 H538 0.961 . S
C539 H540 0.960 . S
H540 C539 0.960 . S
H541 N521 0.862 . S
O542 Co510 1.920 . S
O542 C515 1.289 . S
C543 O535 1.258 . S
C543 O536 1.266 . S
Co544 O547 1.970 . S
Co544 N561 1.989 . S
Co544 O569 1.967 . S
Co544 O576 1.920 1_655 S
Co545 O548 1.966 . S
Co545 N554 2.022 . S
Co545 N562 1.993 . S
Co545 O570 1.941 . S
C546 O547 1.258 . S
C546 O548 1.263 . S
O547 Co544 1.970 . S
O547 C546 1.258 . S
O548 Co545 1.966 . S
O548 C546 1.263 . S
C549 O550 1.235 . S
C549 O576 1.289 . S
O550 C549 1.235 . S
C551 C553 1.400 . S
C551 N554 1.351 . S
C551 C556 1.501 . S
C552 C553 1.387 . S
C552 N555 1.341 . S
C553 C551 1.400 . S
C553 C552 1.387 . S
N554 Co545 2.022 . S
N554 C551 1.351 . S
N554 N555 1.365 . S
N555 C552 1.341 . S
N555 N554 1.365 . S
N555 H575 0.862 . S
C556 C551 1.501 . S
C556 H557 0.961 . S
C556 H558 0.961 . S
C556 H559 0.960 . S
H557 C556 0.961 . S
H558 C556 0.961 . S
H559 C556 0.960 . S
C560 N561 1.342 . S
C560 C564 1.401 . S
C560 C565 1.501 1_655 S
N561 Co544 1.989 . S
N561 C560 1.342 . S
N561 N562 1.388 . S
N562 Co545 1.993 . S
N562 N561 1.388 . S
N562 C563 1.346 . S
C563 N562 1.346 . S
C563 C564 1.396 . S
C563 C573 1.510 . S
C564 C560 1.401 . S
C564 C563 1.396 . S
C565 C560 1.501 1_455 S
C565 H566 0.958 . S
C565 H567 0.959 . S
C565 H568 0.961 . S
H566 C565 0.958 . S
H567 C565 0.959 . S
H568 C565 0.961 . S
O569 Co544 1.967 . S
O569 C577 1.258 . S
O570 Co545 1.941 . S
O570 C577 1.266 . S
H571 C573 0.959 . S
H572 C573 0.961 . S
C573 C563 1.510 . S
C573 H571 0.959 . S
C573 H572 0.961 . S
C573 H574 0.960 . S
H574 C573 0.960 . S
H575 N555 0.862 . S
O576 Co544 1.920 1_455 S
O576 C549 1.289 . S
C577 O569 1.258 . S
C577 O570 1.266 . S
Co578 O581 1.970 . S
Co578 N595 1.989 . S
Co578 O603 1.967 . S
Co578 O610 1.920 . S
Co579 O582 1.966 . S
Co579 N588 2.022 . S
Co579 N596 1.993 . S
Co579 O604 1.941 . S
C580 O581 1.258 . S
C580 O582 1.263 . S
O581 Co578 1.970 . S
O581 C580 1.258 . S
O582 Co579 1.966 . S
O582 C580 1.263 . S
C583 O584 1.235 . S
C583 O610 1.289 . S
O584 C583 1.235 . S
C585 C587 1.400 . S
C585 N588 1.351 . S
C585 C590 1.501 . S
C586 C587 1.387 . S
C586 N589 1.341 . S
C587 C585 1.400 . S
C587 C586 1.387 . S
N588 Co579 2.022 . S
N588 C585 1.351 . S
N588 N589 1.365 . S
N589 C586 1.341 . S
N589 N588 1.365 . S
N589 H609 0.862 . S
C590 C585 1.501 . S
C590 H591 0.961 . S
C590 H592 0.961 . S
C590 H593 0.960 . S
H591 C590 0.961 . S
H592 C590 0.961 . S
H593 C590 0.960 . S
C594 N595 1.342 . S
C594 C598 1.401 . S
C594 C599 1.499 . S
N595 Co578 1.989 . S
N595 C594 1.342 . S
N595 N596 1.388 . S
N596 Co579 1.993 . S
N596 N595 1.388 . S
N596 C597 1.346 . S
C597 N596 1.346 . S
C597 C598 1.396 . S
C597 C607 1.510 . S
C598 C594 1.401 . S
C598 C597 1.396 . S
C599 C594 1.499 . S
C599 H600 0.959 . S
C599 H601 0.960 . S
C599 H602 0.961 . S
H600 C599 0.959 . S
H601 C599 0.960 . S
H602 C599 0.961 . S
O603 Co578 1.967 . S
O603 C611 1.258 . S
O604 Co579 1.941 . S
O604 C611 1.266 . S
H605 C607 0.959 . S
H606 C607 0.961 . S
C607 C597 1.510 . S
C607 H605 0.959 . S
C607 H606 0.961 . S
C607 H608 0.960 . S
H608 C607 0.960 . S
H609 N589 0.862 . S
O610 Co578 1.920 . S
O610 C583 1.289 . S
C611 O603 1.258 . S
C611 O604 1.266 . S
Co612 O615 1.970 . S
Co612 N629 1.989 . S
Co612 O637 1.967 . S
Co612 O644 1.920 . S
Co613 O616 1.966 . S
Co613 N622 2.022 . S
Co613 N630 1.993 . S
Co613 O638 1.941 . S
C614 O615 1.258 . S
C614 O616 1.263 . S
O615 Co612 1.970 . S
O615 C614 1.258 . S
O616 Co613 1.966 . S
O616 C614 1.263 . S
C617 O618 1.235 . S
C617 O644 1.289 . S
O618 C617 1.235 . S
C619 C621 1.400 . S
C619 N622 1.351 . S
C619 C624 1.501 . S
C620 C621 1.387 . S
C620 N623 1.341 . S
C621 C619 1.400 . S
C621 C620 1.387 . S
N622 Co613 2.022 . S
N622 C619 1.351 . S
N622 N623 1.365 . S
N623 C620 1.341 . S
N623 N622 1.365 . S
N623 H643 0.862 . S
C624 C619 1.501 . S
C624 H625 0.961 . S
C624 H626 0.961 . S
C624 H627 0.960 . S
H625 C624 0.961 . S
H626 C624 0.961 . S
H627 C624 0.960 . S
C628 N629 1.342 . S
C628 C632 1.401 . S
C628 C633 1.499 . S
N629 Co612 1.989 . S
N629 C628 1.342 . S
N629 N630 1.388 . S
N630 Co613 1.993 . S
N630 N629 1.388 . S
N630 C631 1.346 . S
C631 N630 1.346 . S
C631 C632 1.396 . S
C631 C641 1.510 . S
C632 C628 1.401 . S
C632 C631 1.396 . S
C633 C628 1.499 . S
C633 H634 0.959 . S
C633 H635 0.960 . S
C633 H636 0.961 . S
H634 C633 0.959 . S
H635 C633 0.960 . S
H636 C633 0.961 . S
O637 Co612 1.967 . S
O637 C645 1.258 . S
O638 Co613 1.941 . S
O638 C645 1.266 . S
H639 C641 0.959 . S
H640 C641 0.961 . S
C641 C631 1.510 . S
C641 H639 0.959 . S
C641 H640 0.961 . S
C641 H642 0.960 . S
H642 C641 0.960 . S
H643 N623 0.862 . S
O644 Co612 1.920 . S
O644 C617 1.289 . S
C645 O637 1.258 . S
C645 O638 1.266 . S
Co646 O649 1.970 . S
Co646 N663 1.989 . S
Co646 O671 1.967 . S
Co646 O678 1.920 . S
Co647 O650 1.966 . S
Co647 N656 2.022 . S
Co647 N664 1.993 . S
Co647 O672 1.941 . S
C648 O649 1.258 . S
C648 O650 1.263 . S
O649 Co646 1.970 . S
O649 C648 1.258 . S
O650 Co647 1.966 . S
O650 C648 1.263 . S
C651 O652 1.235 . S
C651 O678 1.289 . S
O652 C651 1.235 . S
C653 C655 1.400 . S
C653 N656 1.351 . S
C653 C658 1.501 . S
C654 C655 1.387 . S
C654 N657 1.341 . S
C655 C653 1.400 . S
C655 C654 1.387 . S
N656 Co647 2.022 . S
N656 C653 1.351 . S
N656 N657 1.365 . S
N657 C654 1.341 . S
N657 N656 1.365 . S
N657 H677 0.862 . S
C658 C653 1.501 . S
C658 H659 0.961 . S
C658 H660 0.961 . S
C658 H661 0.960 . S
H659 C658 0.961 . S
H660 C658 0.961 . S
H661 C658 0.960 . S
C662 N663 1.342 . S
C662 C666 1.401 . S
C662 C667 1.499 . S
N663 Co646 1.989 . S
N663 C662 1.342 . S
N663 N664 1.388 . S
N664 Co647 1.993 . S
N664 N663 1.388 . S
N664 C665 1.346 . S
C665 N664 1.346 . S
C665 C666 1.396 . S
C665 C675 1.510 . S
C666 C662 1.401 . S
C666 C665 1.396 . S
C667 C662 1.499 . S
C667 H668 0.959 . S
C667 H669 0.960 . S
C667 H670 0.961 . S
H668 C667 0.959 . S
H669 C667 0.960 . S
H670 C667 0.961 . S
O671 Co646 1.967 . S
O671 C679 1.258 . S
O672 Co647 1.941 . S
O672 C679 1.266 . S
H673 C675 0.959 . S
H674 C675 0.961 . S
C675 C665 1.510 . S
C675 H673 0.959 . S
C675 H674 0.961 . S
C675 H676 0.960 . S
H676 C675 0.960 . S
H677 N657 0.862 . S
O678 Co646 1.920 . S
O678 C651 1.289 . S
C679 O671 1.258 . S
C679 O672 1.266 . S
Co680 O683 1.970 . S
Co680 N697 1.989 . S
Co680 O705 1.967 . S
Co680 O712 1.920 1_655 S
Co681 O684 1.966 . S
Co681 N690 2.022 . S
Co681 N698 1.993 . S
Co681 O706 1.941 . S
C682 O683 1.258 . S
C682 O684 1.263 . S
O683 Co680 1.970 . S
O683 C682 1.258 . S
O684 Co681 1.966 . S
O684 C682 1.263 . S
C685 O686 1.235 . S
C685 O712 1.289 . S
O686 C685 1.235 . S
C687 C689 1.400 . S
C687 N690 1.351 . S
C687 C692 1.501 . S
C688 C689 1.387 . S
C688 N691 1.341 . S
C689 C687 1.400 . S
C689 C688 1.387 . S
N690 Co681 2.022 . S
N690 C687 1.351 . S
N690 N691 1.365 . S
N691 C688 1.341 . S
N691 N690 1.365 . S
N691 H711 0.862 . S
C692 C687 1.501 . S
C692 H693 0.961 . S
C692 H694 0.961 . S
C692 H695 0.960 . S
H693 C692 0.961 . S
H694 C692 0.961 . S
H695 C692 0.960 . S
C696 N697 1.342 . S
C696 C700 1.401 . S
C696 C701 1.501 1_655 S
N697 Co680 1.989 . S
N697 C696 1.342 . S
N697 N698 1.388 . S
N698 Co681 1.993 . S
N698 N697 1.388 . S
N698 C699 1.346 . S
C699 N698 1.346 . S
C699 C700 1.396 . S
C699 C709 1.510 . S
C700 C696 1.401 . S
C700 C699 1.396 . S
C701 C696 1.501 1_455 S
C701 H702 0.958 . S
C701 H703 0.959 . S
C701 H704 0.961 . S
H702 C701 0.958 . S
H703 C701 0.959 . S
H704 C701 0.961 . S
O705 Co680 1.967 . S
O705 C713 1.258 . S
O706 Co681 1.941 . S
O706 C713 1.266 . S
H707 C709 0.959 . S
H708 C709 0.961 . S
C709 C699 1.510 . S
C709 H707 0.959 . S
C709 H708 0.961 . S
C709 H710 0.960 . S
H710 C709 0.960 . S
H711 N691 0.862 . S
O712 Co680 1.920 1_455 S
O712 C685 1.289 . S
C713 O705 1.258 . S
C713 O706 1.266 . S
Co714 O717 1.970 . S
Co714 N731 1.989 . S
Co714 O739 1.967 . S
Co714 O746 1.920 . S
Co715 O718 1.966 . S
Co715 N724 2.022 . S
Co715 N732 1.993 . S
Co715 O740 1.941 . S
C716 O717 1.258 . S
C716 O718 1.263 . S
O717 Co714 1.970 . S
O717 C716 1.258 . S
O718 Co715 1.966 . S
O718 C716 1.263 . S
C719 O720 1.235 . S
C719 O746 1.289 . S
O720 C719 1.235 . S
C721 C723 1.400 . S
C721 N724 1.351 . S
C721 C726 1.501 . S
C722 C723 1.387 . S
C722 N725 1.341 . S
C723 C721 1.400 . S
C723 C722 1.387 . S
N724 Co715 2.022 . S
N724 C721 1.351 . S
N724 N725 1.365 . S
N725 C722 1.341 . S
N725 N724 1.365 . S
N725 H745 0.862 . S
C726 C721 1.501 . S
C726 H727 0.961 . S
C726 H728 0.961 . S
C726 H729 0.960 . S
H727 C726 0.961 . S
H728 C726 0.961 . S
H729 C726 0.960 . S
C730 N731 1.342 . S
C730 C734 1.401 . S
C730 C735 1.499 . S
N731 Co714 1.989 . S
N731 C730 1.342 . S
N731 N732 1.388 . S
N732 Co715 1.993 . S
N732 N731 1.388 . S
N732 C733 1.346 . S
C733 N732 1.346 . S
C733 C734 1.396 . S
C733 C743 1.510 . S
C734 C730 1.401 . S
C734 C733 1.396 . S
C735 C730 1.499 . S
C735 H736 0.959 . S
C735 H737 0.960 . S
C735 H738 0.961 . S
H736 C735 0.959 . S
H737 C735 0.960 . S
H738 C735 0.961 . S
O739 Co714 1.967 . S
O739 C747 1.258 . S
O740 Co715 1.941 . S
O740 C747 1.266 . S
H741 C743 0.959 . S
H742 C743 0.961 . S
C743 C733 1.510 . S
C743 H741 0.959 . S
C743 H742 0.961 . S
C743 H744 0.960 . S
H744 C743 0.960 . S
H745 N725 0.862 . S
O746 Co714 1.920 . S
O746 C719 1.289 . S
C747 O739 1.258 . S
C747 O740 1.266 . S
Co748 O751 1.970 . S
Co748 N765 1.989 . S
Co748 O773 1.967 . S
Co748 O780 1.920 . S
Co749 O752 1.966 . S
Co749 N758 2.022 . S
Co749 N766 1.993 . S
Co749 O774 1.941 . S
C750 O751 1.258 . S
C750 O752 1.263 . S
O751 Co748 1.970 . S
O751 C750 1.258 . S
O752 Co749 1.966 . S
O752 C750 1.263 . S
C753 O754 1.235 . S
C753 O780 1.289 . S
O754 C753 1.235 . S
C755 C757 1.400 . S
C755 N758 1.351 . S
C755 C760 1.501 . S
C756 C757 1.387 . S
C756 N759 1.341 . S
C757 C755 1.400 . S
C757 C756 1.387 . S
N758 Co749 2.022 . S
N758 C755 1.351 . S
N758 N759 1.365 . S
N759 C756 1.341 . S
N759 N758 1.365 . S
N759 H779 0.862 . S
C760 C755 1.501 . S
C760 H761 0.961 . S
C760 H762 0.961 . S
C760 H763 0.960 . S
H761 C760 0.961 . S
H762 C760 0.961 . S
H763 C760 0.960 . S
C764 N765 1.342 . S
C764 C768 1.401 . S
C764 C769 1.499 . S
N765 Co748 1.989 . S
N765 C764 1.342 . S
N765 N766 1.388 . S
N766 Co749 1.993 . S
N766 N765 1.388 . S
N766 C767 1.346 . S
C767 N766 1.346 . S
C767 C768 1.396 . S
C767 C777 1.510 . S
C768 C764 1.401 . S
C768 C767 1.396 . S
C769 C764 1.499 . S
C769 H770 0.959 . S
C769 H771 0.960 . S
C769 H772 0.961 . S
H770 C769 0.959 . S
H771 C769 0.960 . S
H772 C769 0.961 . S
O773 Co748 1.967 . S
O773 C781 1.258 . S
O774 Co749 1.941 . S
O774 C781 1.266 . S
H775 C777 0.959 . S
H776 C777 0.961 . S
C777 C767 1.510 . S
C777 H775 0.959 . S
C777 H776 0.961 . S
C777 H778 0.960 . S
H778 C777 0.960 . S
H779 N759 0.862 . S
O780 Co748 1.920 . S
O780 C753 1.289 . S
C781 O773 1.258 . S
C781 O774 1.266 . S
Co782 O785 1.970 . S
Co782 N799 1.989 . S
Co782 O807 1.967 . S
Co782 O814 1.920 . S
Co783 O786 1.966 . S
Co783 N792 2.022 . S
Co783 N800 1.993 . S
Co783 O808 1.941 . S
C784 O785 1.258 . S
C784 O786 1.263 . S
O785 Co782 1.970 . S
O785 C784 1.258 . S
O786 Co783 1.966 . S
O786 C784 1.263 . S
C787 O788 1.235 . S
C787 O814 1.289 . S
O788 C787 1.235 . S
C789 C791 1.400 . S
C789 N792 1.351 . S
C789 C794 1.501 . S
C790 C791 1.387 . S
C790 N793 1.341 . S
C791 C789 1.400 . S
C791 C790 1.387 . S
N792 Co783 2.022 . S
N792 C789 1.351 . S
N792 N793 1.365 . S
N793 C790 1.341 . S
N793 N792 1.365 . S
N793 H813 0.862 . S
C794 C789 1.501 . S
C794 H795 0.961 . S
C794 H796 0.961 . S
C794 H797 0.960 . S
H795 C794 0.961 . S
H796 C794 0.961 . S
H797 C794 0.960 . S
C798 N799 1.342 . S
C798 C802 1.401 . S
C798 C803 1.499 . S
N799 Co782 1.989 . S
N799 C798 1.342 . S
N799 N800 1.388 . S
N800 Co783 1.993 . S
N800 N799 1.388 . S
N800 C801 1.346 . S
C801 N800 1.346 . S
C801 C802 1.396 . S
C801 C811 1.510 . S
C802 C798 1.401 . S
C802 C801 1.396 . S
C803 C798 1.499 . S
C803 H804 0.959 . S
C803 H805 0.960 . S
C803 H806 0.961 . S
H804 C803 0.959 . S
H805 C803 0.960 . S
H806 C803 0.961 . S
O807 Co782 1.967 . S
O807 C815 1.258 . S
O808 Co783 1.941 . S
O808 C815 1.266 . S
H809 C811 0.959 . S
H810 C811 0.961 . S
C811 C801 1.510 . S
C811 H809 0.959 . S
C811 H810 0.961 . S
C811 H812 0.960 . S
H812 C811 0.960 . S
H813 N793 0.862 . S
O814 Co782 1.920 . S
O814 C787 1.289 . S
C815 O807 1.258 . S
C815 O808 1.266 . S
Co816 O819 1.970 . S
Co816 N833 1.989 . S
Co816 O841 1.967 . S
Co816 O848 1.920 1_455 S
Co817 O820 1.966 . S
Co817 N826 2.022 . S
Co817 N834 1.993 . S
Co817 O842 1.941 . S
C818 O819 1.258 . S
C818 O820 1.263 . S
O819 Co816 1.970 . S
O819 C818 1.258 . S
O820 Co817 1.966 . S
O820 C818 1.263 . S
C821 O822 1.235 . S
C821 O848 1.289 . S
O822 C821 1.235 . S
C823 C825 1.400 . S
C823 N826 1.351 . S
C823 C828 1.501 . S
C824 C825 1.387 . S
C824 N827 1.341 . S
C825 C823 1.400 . S
C825 C824 1.387 . S
N826 Co817 2.022 . S
N826 C823 1.351 . S
N826 N827 1.365 . S
N827 C824 1.341 . S
N827 N826 1.365 . S
N827 H847 0.862 . S
C828 C823 1.501 . S
C828 H829 0.961 . S
C828 H830 0.961 . S
C828 H831 0.960 . S
H829 C828 0.961 . S
H830 C828 0.961 . S
H831 C828 0.960 . S
C832 N833 1.342 . S
C832 C836 1.401 . S
C832 C837 1.501 1_455 S
N833 Co816 1.989 . S
N833 C832 1.342 . S
N833 N834 1.388 . S
N834 Co817 1.993 . S
N834 N833 1.388 . S
N834 C835 1.346 . S
C835 N834 1.346 . S
C835 C836 1.396 . S
C835 C845 1.510 . S
C836 C832 1.401 . S
C836 C835 1.396 . S
C837 C832 1.501 1_655 S
C837 H838 0.958 . S
C837 H839 0.959 . S
C837 H840 0.961 . S
H838 C837 0.958 . S
H839 C837 0.959 . S
H840 C837 0.961 . S
O841 Co816 1.967 . S
O841 C849 1.258 . S
O842 Co817 1.941 . S
O842 C849 1.266 . S
H843 C845 0.959 . S
H844 C845 0.961 . S
C845 C835 1.510 . S
C845 H843 0.959 . S
C845 H844 0.961 . S
C845 H846 0.960 . S
H846 C845 0.960 . S
H847 N827 0.862 . S
O848 Co816 1.920 1_655 S
O848 C821 1.289 . S
C849 O841 1.258 . S
C849 O842 1.266 . S
Co850 O853 1.970 . S
Co850 N867 1.989 . S
Co850 O875 1.967 . S
Co850 O882 1.920 . S
Co851 O854 1.966 . S
Co851 N860 2.022 . S
Co851 N868 1.993 . S
Co851 O876 1.941 . S
C852 O853 1.258 . S
C852 O854 1.263 . S
O853 Co850 1.970 . S
O853 C852 1.258 . S
O854 Co851 1.966 . S
O854 C852 1.263 . S
C855 O856 1.235 . S
C855 O882 1.289 . S
O856 C855 1.235 . S
C857 C859 1.400 . S
C857 N860 1.351 . S
C857 C862 1.501 . S
C858 C859 1.387 . S
C858 N861 1.341 . S
C859 C857 1.400 . S
C859 C858 1.387 . S
N860 Co851 2.022 . S
N860 C857 1.351 . S
N860 N861 1.365 . S
N861 C858 1.341 . S
N861 N860 1.365 . S
N861 H881 0.862 . S
C862 C857 1.501 . S
C862 H863 0.961 . S
C862 H864 0.961 . S
C862 H865 0.960 . S
H863 C862 0.961 . S
H864 C862 0.961 . S
H865 C862 0.960 . S
C866 N867 1.342 . S
C866 C870 1.401 . S
C866 C871 1.499 . S
N867 Co850 1.989 . S
N867 C866 1.342 . S
N867 N868 1.388 . S
N868 Co851 1.993 . S
N868 N867 1.388 . S
N868 C869 1.346 . S
C869 N868 1.346 . S
C869 C870 1.396 . S
C869 C879 1.510 . S
C870 C866 1.401 . S
C870 C869 1.396 . S
C871 C866 1.499 . S
C871 H872 0.959 . S
C871 H873 0.960 . S
C871 H874 0.961 . S
H872 C871 0.959 . S
H873 C871 0.960 . S
H874 C871 0.961 . S
O875 Co850 1.967 . S
O875 C883 1.258 . S
O876 Co851 1.941 . S
O876 C883 1.266 . S
H877 C879 0.959 . S
H878 C879 0.961 . S
C879 C869 1.510 . S
C879 H877 0.959 . S
C879 H878 0.961 . S
C879 H880 0.960 . S
H880 C879 0.960 . S
H881 N861 0.862 . S
O882 Co850 1.920 . S
O882 C855 1.289 . S
C883 O875 1.258 . S
C883 O876 1.266 . S
Co884 O887 1.970 . S
Co884 N901 1.989 . S
Co884 O909 1.967 . S
Co884 O916 1.920 . S
Co885 O888 1.966 . S
Co885 N894 2.022 . S
Co885 N902 1.993 . S
Co885 O910 1.941 . S
C886 O887 1.258 . S
C886 O888 1.263 . S
O887 Co884 1.970 . S
O887 C886 1.258 . S
O888 Co885 1.966 . S
O888 C886 1.263 . S
C889 O890 1.235 . S
C889 O916 1.289 . S
O890 C889 1.235 . S
C891 C893 1.400 . S
C891 N894 1.351 . S
C891 C896 1.501 . S
C892 C893 1.387 . S
C892 N895 1.341 . S
C893 C891 1.400 . S
C893 C892 1.387 . S
N894 Co885 2.022 . S
N894 C891 1.351 . S
N894 N895 1.365 . S
N895 C892 1.341 . S
N895 N894 1.365 . S
N895 H915 0.862 . S
C896 C891 1.501 . S
C896 H897 0.961 . S
C896 H898 0.961 . S
C896 H899 0.960 . S
H897 C896 0.961 . S
H898 C896 0.961 . S
H899 C896 0.960 . S
C900 N901 1.342 . S
C900 C904 1.401 . S
C900 C905 1.499 . S
N901 Co884 1.989 . S
N901 C900 1.342 . S
N901 N902 1.388 . S
N902 Co885 1.993 . S
N902 N901 1.388 . S
N902 C903 1.346 . S
C903 N902 1.346 . S
C903 C904 1.396 . S
C903 C913 1.510 . S
C904 C900 1.401 . S
C904 C903 1.396 . S
C905 C900 1.499 . S
C905 H906 0.959 . S
C905 H907 0.960 . S
C905 H908 0.961 . S
H906 C905 0.959 . S
H907 C905 0.960 . S
H908 C905 0.961 . S
O909 Co884 1.967 . S
O909 C917 1.258 . S
O910 Co885 1.941 . S
O910 C917 1.266 . S
H911 C913 0.959 . S
H912 C913 0.961 . S
C913 C903 1.510 . S
C913 H911 0.959 . S
C913 H912 0.961 . S
C913 H914 0.960 . S
H914 C913 0.960 . S
H915 N895 0.862 . S
O916 Co884 1.920 . S
O916 C889 1.289 . S
C917 O909 1.258 . S
C917 O910 1.266 . S
Co918 O921 1.970 . S
Co918 N935 1.989 . S
Co918 O943 1.967 . S
Co918 O950 1.920 . S
Co919 O922 1.966 . S
Co919 N928 2.022 . S
Co919 N936 1.993 . S
Co919 O944 1.941 . S
C920 O921 1.258 . S
C920 O922 1.263 . S
O921 Co918 1.970 . S
O921 C920 1.258 . S
O922 Co919 1.966 . S
O922 C920 1.263 . S
C923 O924 1.235 . S
C923 O950 1.289 . S
O924 C923 1.235 . S
C925 C927 1.400 . S
C925 N928 1.351 . S
C925 C930 1.501 . S
C926 C927 1.387 . S
C926 N929 1.341 . S
C927 C925 1.400 . S
C927 C926 1.387 . S
N928 Co919 2.022 . S
N928 C925 1.351 . S
N928 N929 1.365 . S
N929 C926 1.341 . S
N929 N928 1.365 . S
N929 H949 0.862 . S
C930 C925 1.501 . S
C930 H931 0.961 . S
C930 H932 0.961 . S
C930 H933 0.960 . S
H931 C930 0.961 . S
H932 C930 0.961 . S
H933 C930 0.960 . S
C934 N935 1.342 . S
C934 C938 1.401 . S
C934 C939 1.499 . S
N935 Co918 1.989 . S
N935 C934 1.342 . S
N935 N936 1.388 . S
N936 Co919 1.993 . S
N936 N935 1.388 . S
N936 C937 1.346 . S
C937 N936 1.346 . S
C937 C938 1.396 . S
C937 C947 1.510 . S
C938 C934 1.401 . S
C938 C937 1.396 . S
C939 C934 1.499 . S
C939 H940 0.959 . S
C939 H941 0.960 . S
C939 H942 0.961 . S
H940 C939 0.959 . S
H941 C939 0.960 . S
H942 C939 0.961 . S
O943 Co918 1.967 . S
O943 C951 1.258 . S
O944 Co919 1.941 . S
O944 C951 1.266 . S
H945 C947 0.959 . S
H946 C947 0.961 . S
C947 C937 1.510 . S
C947 H945 0.959 . S
C947 H946 0.961 . S
C947 H948 0.960 . S
H948 C947 0.960 . S
H949 N929 0.862 . S
O950 Co918 1.920 . S
O950 C923 1.289 . S
C951 O943 1.258 . S
C951 O944 1.266 . S
Co952 O955 1.970 . S
Co952 N969 1.989 . S
Co952 O977 1.967 . S
Co952 O984 1.920 1_455 S
Co953 O956 1.966 . S
Co953 N962 2.022 . S
Co953 N970 1.993 . S
Co953 O978 1.941 . S
C954 O955 1.258 . S
C954 O956 1.263 . S
O955 Co952 1.970 . S
O955 C954 1.258 . S
O956 Co953 1.966 . S
O956 C954 1.263 . S
C957 O958 1.235 . S
C957 O984 1.289 . S
O958 C957 1.235 . S
C959 C961 1.400 . S
C959 N962 1.351 . S
C959 C964 1.501 . S
C960 C961 1.387 . S
C960 N963 1.341 . S
C961 C959 1.400 . S
C961 C960 1.387 . S
N962 Co953 2.022 . S
N962 C959 1.351 . S
N962 N963 1.365 . S
N963 C960 1.341 . S
N963 N962 1.365 . S
N963 H983 0.862 . S
C964 C959 1.501 . S
C964 H965 0.961 . S
C964 H966 0.961 . S
C964 H967 0.960 . S
H965 C964 0.961 . S
H966 C964 0.961 . S
H967 C964 0.960 . S
C968 N969 1.342 . S
C968 C972 1.401 . S
C968 C973 1.501 1_455 S
N969 Co952 1.989 . S
N969 C968 1.342 . S
N969 N970 1.388 . S
N970 Co953 1.993 . S
N970 N969 1.388 . S
N970 C971 1.346 . S
C971 N970 1.346 . S
C971 C972 1.396 . S
C971 C981 1.510 . S
C972 C968 1.401 . S
C972 C971 1.396 . S
C973 C968 1.501 1_655 S
C973 H974 0.958 . S
C973 H975 0.959 . S
C973 H976 0.961 . S
H974 C973 0.958 . S
H975 C973 0.959 . S
H976 C973 0.961 . S
O977 Co952 1.967 . S
O977 C985 1.258 . S
O978 Co953 1.941 . S
O978 C985 1.266 . S
H979 C981 0.959 . S
H980 C981 0.961 . S
C981 C971 1.510 . S
C981 H979 0.959 . S
C981 H980 0.961 . S
C981 H982 0.960 . S
H982 C981 0.960 . S
H983 N963 0.862 . S
O984 Co952 1.920 1_655 S
O984 C957 1.289 . S
C985 O977 1.258 . S
C985 O978 1.266 . S
Co986 O989 1.970 . S
Co986 N1003 1.989 . S
Co986 O1011 1.967 . S
Co986 O1018 1.920 . S
Co987 O990 1.966 . S
Co987 N996 2.022 . S
Co987 N1004 1.993 . S
Co987 O1012 1.941 . S
C988 O989 1.258 . S
C988 O990 1.263 . S
O989 Co986 1.970 . S
O989 C988 1.258 . S
O990 Co987 1.966 . S
O990 C988 1.263 . S
C991 O992 1.235 . S
C991 O1018 1.289 . S
O992 C991 1.235 . S
C993 C995 1.400 . S
C993 N996 1.351 . S
C993 C998 1.501 . S
C994 C995 1.387 . S
C994 N997 1.341 . S
C995 C993 1.400 . S
C995 C994 1.387 . S
N996 Co987 2.022 . S
N996 C993 1.351 . S
N996 N997 1.365 . S
N997 C994 1.341 . S
N997 N996 1.365 . S
N997 H1017 0.862 . S
C998 C993 1.501 . S
C998 H999 0.961 . S
C998 H1000 0.961 . S
C998 H1001 0.960 . S
H999 C998 0.961 . S
H1000 C998 0.961 . S
H1001 C998 0.960 . S
C1002 N1003 1.342 . S
C1002 C1006 1.401 . S
C1002 C1007 1.499 . S
N1003 Co986 1.989 . S
N1003 C1002 1.342 . S
N1003 N1004 1.388 . S
N1004 Co987 1.993 . S
N1004 N1003 1.388 . S
N1004 C1005 1.346 . S
C1005 N1004 1.346 . S
C1005 C1006 1.396 . S
C1005 C1015 1.510 . S
C1006 C1002 1.401 . S
C1006 C1005 1.396 . S
C1007 C1002 1.499 . S
C1007 H1008 0.959 . S
C1007 H1009 0.960 . S
C1007 H1010 0.961 . S
H1008 C1007 0.959 . S
H1009 C1007 0.960 . S
H1010 C1007 0.961 . S
O1011 Co986 1.967 . S
O1011 C1019 1.258 . S
O1012 Co987 1.941 . S
O1012 C1019 1.266 . S
H1013 C1015 0.959 . S
H1014 C1015 0.961 . S
C1015 C1005 1.510 . S
C1015 H1013 0.959 . S
C1015 H1014 0.961 . S
C1015 H1016 0.960 . S
H1016 C1015 0.960 . S
H1017 N997 0.862 . S
O1018 Co986 1.920 . S
O1018 C991 1.289 . S
C1019 O1011 1.258 . S
C1019 O1012 1.266 . S
Co1020 O1023 1.970 . S
Co1020 N1037 1.989 . S
Co1020 O1045 1.967 . S
Co1020 O1052 1.920 . S
Co1021 O1024 1.966 . S
Co1021 N1030 2.022 . S
Co1021 N1038 1.993 . S
Co1021 O1046 1.941 . S
C1022 O1023 1.258 . S
C1022 O1024 1.263 . S
O1023 Co1020 1.970 . S
O1023 C1022 1.258 . S
O1024 Co1021 1.966 . S
O1024 C1022 1.263 . S
C1025 O1026 1.235 . S
C1025 O1052 1.289 . S
O1026 C1025 1.235 . S
C1027 C1029 1.400 . S
C1027 N1030 1.351 . S
C1027 C1032 1.501 . S
C1028 C1029 1.387 . S
C1028 N1031 1.341 . S
C1029 C1027 1.400 . S
C1029 C1028 1.387 . S
N1030 Co1021 2.022 . S
N1030 C1027 1.351 . S
N1030 N1031 1.365 . S
N1031 C1028 1.341 . S
N1031 N1030 1.365 . S
N1031 H1051 0.862 . S
C1032 C1027 1.501 . S
C1032 H1033 0.961 . S
C1032 H1034 0.961 . S
C1032 H1035 0.960 . S
H1033 C1032 0.961 . S
H1034 C1032 0.961 . S
H1035 C1032 0.960 . S
C1036 N1037 1.342 . S
C1036 C1040 1.401 . S
C1036 C1041 1.499 . S
N1037 Co1020 1.989 . S
N1037 C1036 1.342 . S
N1037 N1038 1.388 . S
N1038 Co1021 1.993 . S
N1038 N1037 1.388 . S
N1038 C1039 1.346 . S
C1039 N1038 1.346 . S
C1039 C1040 1.396 . S
C1039 C1049 1.510 . S
C1040 C1036 1.401 . S
C1040 C1039 1.396 . S
C1041 C1036 1.499 . S
C1041 H1042 0.959 . S
C1041 H1043 0.960 . S
C1041 H1044 0.961 . S
H1042 C1041 0.959 . S
H1043 C1041 0.960 . S
H1044 C1041 0.961 . S
O1045 Co1020 1.967 . S
O1045 C1053 1.258 . S
O1046 Co1021 1.941 . S
O1046 C1053 1.266 . S
H1047 C1049 0.959 . S
H1048 C1049 0.961 . S
C1049 C1039 1.510 . S
C1049 H1047 0.959 . S
C1049 H1048 0.961 . S
C1049 H1050 0.960 . S
H1050 C1049 0.960 . S
H1051 N1031 0.862 . S
O1052 Co1020 1.920 . S
O1052 C1025 1.289 . S
C1053 O1045 1.258 . S
C1053 O1046 1.266 . S
Co1054 O1057 1.970 . S
Co1054 N1071 1.989 . S
Co1054 O1079 1.967 . S
Co1054 O1086 1.920 . S
Co1055 O1058 1.966 . S
Co1055 N1064 2.022 . S
Co1055 N1072 1.993 . S
Co1055 O1080 1.941 . S
C1056 O1057 1.258 . S
C1056 O1058 1.263 . S
O1057 Co1054 1.970 . S
O1057 C1056 1.258 . S
O1058 Co1055 1.966 . S
O1058 C1056 1.263 . S
C1059 O1060 1.235 . S
C1059 O1086 1.289 . S
O1060 C1059 1.235 . S
C1061 C1063 1.400 . S
C1061 N1064 1.351 . S
C1061 C1066 1.501 . S
C1062 C1063 1.387 . S
C1062 N1065 1.341 . S
C1063 C1061 1.400 . S
C1063 C1062 1.387 . S
N1064 Co1055 2.022 . S
N1064 C1061 1.351 . S
N1064 N1065 1.365 . S
N1065 C1062 1.341 . S
N1065 N1064 1.365 . S
N1065 H1085 0.862 . S
C1066 C1061 1.501 . S
C1066 H1067 0.961 . S
C1066 H1068 0.961 . S
C1066 H1069 0.960 . S
H1067 C1066 0.961 . S
H1068 C1066 0.961 . S
H1069 C1066 0.960 . S
C1070 N1071 1.342 . S
C1070 C1074 1.401 . S
C1070 C1075 1.499 . S
N1071 Co1054 1.989 . S
N1071 C1070 1.342 . S
N1071 N1072 1.388 . S
N1072 Co1055 1.993 . S
N1072 N1071 1.388 . S
N1072 C1073 1.346 . S
C1073 N1072 1.346 . S
C1073 C1074 1.396 . S
C1073 C1083 1.510 . S
C1074 C1070 1.401 . S
C1074 C1073 1.396 . S
C1075 C1070 1.499 . S
C1075 H1076 0.959 . S
C1075 H1077 0.960 . S
C1075 H1078 0.961 . S
H1076 C1075 0.959 . S
H1077 C1075 0.960 . S
H1078 C1075 0.961 . S
O1079 Co1054 1.967 . S
O1079 C1087 1.258 . S
O1080 Co1055 1.941 . S
O1080 C1087 1.266 . S
H1081 C1083 0.959 . S
H1082 C1083 0.961 . S
C1083 C1073 1.510 . S
C1083 H1081 0.959 . S
C1083 H1082 0.961 . S
C1083 H1084 0.960 . S
H1084 C1083 0.960 . S
H1085 N1065 0.862 . S
O1086 Co1054 1.920 . S
O1086 C1059 1.289 . S
C1087 O1079 1.258 . S
C1087 O1080 1.266 . S
C1088 C1089 1.349 . S
C1088 C1090 1.327 . S
C1088 H1113 0.950 . S
C1089 C1088 1.349 . S
C1089 C1105 1.349 1_545 S
C1090 C1088 1.327 . S
C1090 C1109 1.429 . S
C1090 H1114 0.950 . S
C1091 C1108 1.574 1_554 S
C1091 C1110 1.339 1_565 S
C1091 H1115 0.949 . S
H1092 C1096 0.949 . S
C1093 C1094 1.349 . S
C1093 C1095 1.327 . S
C1093 H1116 0.950 . S
C1094 C1093 1.349 . S
C1094 C1106 1.349 1_565 S
C1095 C1093 1.327 . S
C1095 C1111 1.429 . S
C1095 H1117 0.950 . S
C1096 H1092 0.949 . S
C1096 C1104 1.574 1_556 S
C1096 C1112 1.339 1_545 S
H1097 C1105 0.950 . S
H1098 C1103 0.950 . S
H1099 C1104 0.949 . S
H1100 C1106 0.950 . S
H1101 C1107 0.950 . S
H1102 C1108 0.949 . S
C1103 H1098 0.950 . S
C1103 C1105 1.327 . S
C1103 C1109 1.429 1_565 S
C1104 C1096 1.574 1_554 S
C1104 H1099 0.949 . S
C1104 C1110 1.397 . S
C1105 C1089 1.349 1_565 S
C1105 H1097 0.950 . S
C1105 C1103 1.327 . S
C1106 C1094 1.349 1_545 S
C1106 H1100 0.950 . S
C1106 C1107 1.327 . S
C1107 H1101 0.950 . S
C1107 C1106 1.327 . S
C1107 C1111 1.429 1_545 S
C1108 C1091 1.574 1_556 S
C1108 H1102 0.949 . S
C1108 C1112 1.397 . S
C1109 C1090 1.429 . S
C1109 C1103 1.429 1_545 S
C1109 C1110 1.525 . S
C1110 C1091 1.339 1_545 S
C1110 C1104 1.397 . S
C1110 C1109 1.525 . S
C1111 C1095 1.429 . S
C1111 C1107 1.429 1_565 S
C1111 C1112 1.525 . S
C1112 C1096 1.339 1_565 S
C1112 C1108 1.397 . S
C1112 C1111 1.525 . S
H1113 C1088 0.950 . S
H1114 C1090 0.950 . S
H1115 C1091 0.949 . S
H1116 C1093 0.950 . S
H1117 C1095 0.950 . S
C1118 C1119 1.349 . S
C1118 C1120 1.327 . S
C1118 H1143 0.950 . S
C1119 C1118 1.349 . S
C1119 C1135 1.349 . S
C1120 C1118 1.327 . S
C1120 C1139 1.429 . S
C1120 H1144 0.950 . S
C1121 C1138 1.574 . S
C1121 C1140 1.368 . S
C1121 H1145 0.949 . S
H1122 C1126 0.949 . S
C1123 C1124 1.349 . S
C1123 C1125 1.327 . S
C1123 H1146 0.950 . S
C1124 C1123 1.349 . S
C1124 C1136 1.349 . S
C1125 C1123 1.327 . S
C1125 C1141 1.429 . S
C1125 H1147 0.950 . S
C1126 H1122 0.949 . S
C1126 C1134 1.574 . S
C1126 C1142 1.368 . S
H1127 C1135 0.950 . S
H1128 C1133 0.950 . S
H1129 C1134 0.949 . S
H1130 C1136 0.950 . S
H1131 C1137 0.950 . S
H1132 C1138 0.949 . S
C1133 H1128 0.950 . S
C1133 C1135 1.327 . S
C1133 C1139 1.429 . S
C1134 C1126 1.574 . S
C1134 H1129 0.949 . S
C1134 C1140 1.368 . S
C1135 C1119 1.349 . S
C1135 H1127 0.950 . S
C1135 C1133 1.327 . S
C1136 C1124 1.349 . S
C1136 H1130 0.950 . S
C1136 C1137 1.327 . S
C1137 H1131 0.950 . S
C1137 C1136 1.327 . S
C1137 C1141 1.429 . S
C1138 C1121 1.574 . S
C1138 H1132 0.949 . S
C1138 C1142 1.368 . S
C1139 C1120 1.429 . S
C1139 C1133 1.429 . S
C1139 C1140 1.523 . S
C1140 C1121 1.368 . S
C1140 C1134 1.368 . S
C1140 C1139 1.523 . S
C1141 C1125 1.429 . S
C1141 C1137 1.429 . S
C1141 C1142 1.523 . S
C1142 C1126 1.368 . S
C1142 C1138 1.368 . S
C1142 C1141 1.523 . S
H1143 C1118 0.950 . S
H1144 C1120 0.950 . S
H1145 C1121 0.949 . S
H1146 C1123 0.950 . S
H1147 C1125 0.950 . S
C1148 C1149 1.349 1_565 S
C1148 C1150 1.327 . S
C1148 H1173 0.950 . S
C1149 C1148 1.349 1_545 S
C1149 C1165 1.349 . S
C1150 C1148 1.327 . S
C1150 C1169 1.429 1_565 S
C1150 H1174 0.950 1_655 S
C1151 C1168 1.574 . S
C1151 C1170 1.396 . S
C1151 H1175 0.949 . S
H1152 C1156 0.949 . S
C1153 C1154 1.349 1_545 S
C1153 C1155 1.327 . S
C1153 H1176 0.950 . S
C1154 C1153 1.349 1_565 S
C1154 C1166 1.349 . S
C1155 C1153 1.327 . S
C1155 C1171 1.429 1_545 S
C1155 H1177 0.950 1_455 S
C1156 H1152 0.949 . S
C1156 C1164 1.574 . S
C1156 C1172 1.396 . S
H1157 C1165 0.950 . S
H1158 C1163 0.950 . S
H1159 C1164 0.949 . S
H1160 C1166 0.950 . S
H1161 C1167 0.950 . S
H1162 C1168 0.949 . S
C1163 H1158 0.950 . S
C1163 C1165 1.327 . S
C1163 C1169 1.429 . S
C1164 C1156 1.574 . S
C1164 H1159 0.949 . S
C1164 C1170 1.340 1_465 S
C1165 C1149 1.349 . S
C1165 H1157 0.950 . S
C1165 C1163 1.327 . S
C1166 C1154 1.349 . S
C1166 H1160 0.950 . S
C1166 C1167 1.327 . S
C1167 H1161 0.950 . S
C1167 C1166 1.327 . S
C1167 C1171 1.429 . S
C1168 C1151 1.574 . S
C1168 H1162 0.949 . S
C1168 C1172 1.340 1_645 S
C1169 C1150 1.429 1_545 S
C1169 C1163 1.429 . S
C1169 C1170 1.525 . S
C1170 C1151 1.396 . S
C1170 C1164 1.340 1_645 S
C1170 C1169 1.525 . S
C1171 C1155 1.429 1_565 S
C1171 C1167 1.429 . S
C1171 C1172 1.525 . S
C1172 C1156 1.396 . S
C1172 C1168 1.340 1_465 S
C1172 C1171 1.525 . S
H1173 C1148 0.950 . S
H1174 C1150 0.950 1_455 S
H1175 C1151 0.949 . S
H1176 C1153 0.950 . S
H1177 C1155 0.950 1_655 S
C1178 C1179 1.349 . S
C1178 C1180 1.327 . S
C1178 H1203 0.950 . S
C1179 C1178 1.349 . S
C1179 C1195 1.349 . S
C1180 C1178 1.327 . S
C1180 C1199 1.429 . S
C1180 H1204 0.950 . S
C1181 C1198 1.574 . S
C1181 C1200 1.368 . S
C1181 H1205 0.949 . S
H1182 C1186 0.949 . S
C1183 C1184 1.349 . S
C1183 C1185 1.327 . S
C1183 H1206 0.950 . S
C1184 C1183 1.349 . S
C1184 C1196 1.349 . S
C1185 C1183 1.327 . S
C1185 C1201 1.429 . S
C1185 H1207 0.950 . S
C1186 H1182 0.949 . S
C1186 C1194 1.574 . S
C1186 C1202 1.368 . S
H1187 C1195 0.950 . S
H1188 C1193 0.950 . S
H1189 C1194 0.949 . S
H1190 C1196 0.950 . S
H1191 C1197 0.950 . S
H1192 C1198 0.949 . S
C1193 H1188 0.950 . S
C1193 C1195 1.327 . S
C1193 C1199 1.429 . S
C1194 C1186 1.574 . S
C1194 H1189 0.949 . S
C1194 C1200 1.368 . S
C1195 C1179 1.349 . S
C1195 H1187 0.950 . S
C1195 C1193 1.327 . S
C1196 C1184 1.349 . S
C1196 H1190 0.950 . S
C1196 C1197 1.327 . S
C1197 H1191 0.950 . S
C1197 C1196 1.327 . S
C1197 C1201 1.429 . S
C1198 C1181 1.574 . S
C1198 H1192 0.949 . S
C1198 C1202 1.368 . S
C1199 C1180 1.429 . S
C1199 C1193 1.429 . S
C1199 C1200 1.523 . S
C1200 C1181 1.368 . S
C1200 C1194 1.368 . S
C1200 C1199 1.523 . S
C1201 C1185 1.429 . S
C1201 C1197 1.429 . S
C1201 C1202 1.523 . S
C1202 C1186 1.368 . S
C1202 C1198 1.368 . S
C1202 C1201 1.523 . S
H1203 C1178 0.950 . S
H1204 C1180 0.950 . S
H1205 C1181 0.949 . S
H1206 C1183 0.950 . S
H1207 C1185 0.950 . S
C1208 C1209 1.349 1_565 S
C1208 C1210 1.327 . S
C1208 H1233 0.950 . S
C1209 C1208 1.349 1_545 S
C1209 C1225 1.349 . S
C1210 C1208 1.327 . S
C1210 C1229 1.429 1_565 S
C1210 H1234 0.950 . S
C1211 C1228 1.574 . S
C1211 C1230 1.380 . S
C1211 H1235 0.949 . S
H1212 C1216 0.949 . S
C1213 C1214 1.349 1_545 S
C1213 C1215 1.327 . S
C1213 H1236 0.950 . S
C1214 C1213 1.349 1_565 S
C1214 C1226 1.349 . S
C1215 C1213 1.327 . S
C1215 C1231 1.429 1_545 S
C1215 H1237 0.950 . S
C1216 H1212 0.949 . S
C1216 C1224 1.574 . S
C1216 C1232 1.380 . S
H1217 C1225 0.950 . S
H1218 C1223 0.950 . S
H1219 C1224 0.949 . S
H1220 C1226 0.950 . S
H1221 C1227 0.950 . S
H1222 C1228 0.949 . S
C1223 H1218 0.950 . S
C1223 C1225 1.327 . S
C1223 C1229 1.429 . S
C1224 C1216 1.574 . S
C1224 H1219 0.949 . S
C1224 C1230 1.357 1_565 S
C1225 C1209 1.349 . S
C1225 H1217 0.950 . S
C1225 C1223 1.327 . S
C1226 C1214 1.349 . S
C1226 H1220 0.950 . S
C1226 C1227 1.327 . S
C1227 H1221 0.950 . S
C1227 C1226 1.327 . S
C1227 C1231 1.429 . S
C1228 C1211 1.574 . S
C1228 H1222 0.949 . S
C1228 C1232 1.357 1_545 S
C1229 C1210 1.429 1_545 S
C1229 C1223 1.429 . S
C1229 C1230 1.525 . S
C1230 C1211 1.380 . S
C1230 C1224 1.357 1_545 S
C1230 C1229 1.525 . S
C1231 C1215 1.429 1_565 S
C1231 C1227 1.429 . S
C1231 C1232 1.525 . S
C1232 C1216 1.380 . S
C1232 C1228 1.357 1_565 S
C1232 C1231 1.525 . S
H1233 C1208 0.950 . S
H1234 C1210 0.950 . S
H1235 C1211 0.949 . S
H1236 C1213 0.950 . S
H1237 C1215 0.950 . S
C1238 C1239 1.349 . S
C1238 C1240 1.327 . S
C1238 H1263 0.950 . S
C1239 C1238 1.349 . S
C1239 C1255 1.349 . S
C1240 C1238 1.327 . S
C1240 C1259 1.429 . S
C1240 H1264 0.950 . S
C1241 C1258 1.574 . S
C1241 C1260 1.368 . S
C1241 H1265 0.949 . S
H1242 C1246 0.949 . S
C1243 C1244 1.349 . S
C1243 C1245 1.327 . S
C1243 H1266 0.950 . S
C1244 C1243 1.349 . S
C1244 C1256 1.349 . S
C1245 C1243 1.327 . S
C1245 C1261 1.429 . S
C1245 H1267 0.950 . S
C1246 H1242 0.949 . S
C1246 C1254 1.574 . S
C1246 C1262 1.368 . S
H1247 C1255 0.950 . S
H1248 C1253 0.950 . S
H1249 C1254 0.949 . S
H1250 C1256 0.950 . S
H1251 C1257 0.950 . S
H1252 C1258 0.949 . S
C1253 H1248 0.950 . S
C1253 C1255 1.327 . S
C1253 C1259 1.429 . S
C1254 C1246 1.574 . S
C1254 H1249 0.949 . S
C1254 C1260 1.368 . S
C1255 C1239 1.349 . S
C1255 H1247 0.950 . S
C1255 C1253 1.327 . S
C1256 C1244 1.349 . S
C1256 H1250 0.950 . S
C1256 C1257 1.327 . S
C1257 H1251 0.950 . S
C1257 C1256 1.327 . S
C1257 C1261 1.429 . S
C1258 C1241 1.574 . S
C1258 H1252 0.949 . S
C1258 C1262 1.368 . S
C1259 C1240 1.429 . S
C1259 C1253 1.429 . S
C1259 C1260 1.523 . S
C1260 C1241 1.368 . S
C1260 C1254 1.368 . S
C1260 C1259 1.523 . S
C1261 C1245 1.429 . S
C1261 C1257 1.429 . S
C1261 C1262 1.523 . S
C1262 C1246 1.368 . S
C1262 C1258 1.368 . S
C1262 C1261 1.523 . S
H1263 C1238 0.950 . S
H1264 C1240 0.950 . S
H1265 C1241 0.949 . S
H1266 C1243 0.950 . S
H1267 C1245 0.950 . S
C1268 C1269 1.349 . S
C1268 C1270 1.327 . S
C1268 H1293 0.950 . S
C1269 C1268 1.349 . S
C1269 C1285 1.349 1_565 S
C1270 C1268 1.327 . S
C1270 C1289 1.429 . S
C1270 H1294 0.950 . S
C1271 C1288 1.574 1_554 S
C1271 C1290 1.340 1_445 S
C1271 H1295 0.949 . S
H1272 C1276 0.949 . S
C1273 C1274 1.349 . S
C1273 C1275 1.327 . S
C1273 H1296 0.950 . S
C1274 C1273 1.349 . S
C1274 C1286 1.349 1_545 S
C1275 C1273 1.327 . S
C1275 C1291 1.429 . S
C1275 H1297 0.950 . S
C1276 H1272 0.949 . S
C1276 C1284 1.574 1_556 S
C1276 C1292 1.340 1_665 S
H1277 C1285 0.950 . S
H1278 C1283 0.950 1_455 S
H1279 C1284 0.949 . S
H1280 C1286 0.950 . S
H1281 C1287 0.950 1_655 S
H1282 C1288 0.949 . S
C1283 H1278 0.950 1_655 S
C1283 C1285 1.327 . S
C1283 C1289 1.429 1_545 S
C1284 C1276 1.574 1_554 S
C1284 H1279 0.949 . S
C1284 C1290 1.396 . S
C1285 C1269 1.349 1_545 S
C1285 H1277 0.950 . S
C1285 C1283 1.327 . S
C1286 C1274 1.349 1_565 S
C1286 H1280 0.950 . S
C1286 C1287 1.327 . S
C1287 H1281 0.950 1_455 S
C1287 C1286 1.327 . S
C1287 C1291 1.429 1_565 S
C1288 C1271 1.574 1_556 S
C1288 H1282 0.949 . S
C1288 C1292 1.396 . S
C1289 C1270 1.429 . S
C1289 C1283 1.429 1_565 S
C1289 C1290 1.525 . S
C1290 C1271 1.340 1_665 S
C1290 C1284 1.396 . S
C1290 C1289 1.525 . S
C1291 C1275 1.429 . S
C1291 C1287 1.429 1_545 S
C1291 C1292 1.525 . S
C1292 C1276 1.340 1_445 S
C1292 C1288 1.396 . S
C1292 C1291 1.525 . S
H1293 C1268 0.950 . S
H1294 C1270 0.950 . S
H1295 C1271 0.949 . S
H1296 C1273 0.950 . S
H1297 C1275 0.950 . S
C1298 C1299 1.349 . S
C1298 C1300 1.327 . S
C1298 H1323 0.950 . S
C1299 C1298 1.349 . S
C1299 C1315 1.349 . S
C1300 C1298 1.327 . S
C1300 C1319 1.429 . S
C1300 H1324 0.950 . S
C1301 C1318 1.574 . S
C1301 C1320 1.368 . S
C1301 H1325 0.949 . S
H1302 C1306 0.949 . S
C1303 C1304 1.349 . S
C1303 C1305 1.327 . S
C1303 H1326 0.950 . S
C1304 C1303 1.349 . S
C1304 C1316 1.349 . S
C1305 C1303 1.327 . S
C1305 C1321 1.429 . S
C1305 H1327 0.950 . S
C1306 H1302 0.949 . S
C1306 C1314 1.574 . S
C1306 C1322 1.368 . S
H1307 C1315 0.950 . S
H1308 C1313 0.950 . S
H1309 C1314 0.949 . S
H1310 C1316 0.950 . S
H1311 C1317 0.950 . S
H1312 C1318 0.949 . S
C1313 H1308 0.950 . S
C1313 C1315 1.327 . S
C1313 C1319 1.429 . S
C1314 C1306 1.574 . S
C1314 H1309 0.949 . S
C1314 C1320 1.368 . S
C1315 C1299 1.349 . S
C1315 H1307 0.950 . S
C1315 C1313 1.327 . S
C1316 C1304 1.349 . S
C1316 H1310 0.950 . S
C1316 C1317 1.327 . S
C1317 H1311 0.950 . S
C1317 C1316 1.327 . S
C1317 C1321 1.429 . S
C1318 C1301 1.574 . S
C1318 H1312 0.949 . S
C1318 C1322 1.368 . S
C1319 C1300 1.429 . S
C1319 C1313 1.429 . S
C1319 C1320 1.523 . S
C1320 C1301 1.368 . S
C1320 C1314 1.368 . S
C1320 C1319 1.523 . S
C1321 C1305 1.429 . S
C1321 C1317 1.429 . S
C1321 C1322 1.523 . S
C1322 C1306 1.368 . S
C1322 C1318 1.368 . S
C1322 C1321 1.523 . S
H1323 C1298 0.950 . S
H1324 C1300 0.950 . S
H1325 C1301 0.949 . S
H1326 C1303 0.950 . S
H1327 C1305 0.950 . S
C1328 C1329 1.349 . S
C1328 C1330 1.327 . S
C1328 H1353 0.950 . S
C1329 C1328 1.349 . S
C1329 C1345 1.349 . S
C1330 C1328 1.327 . S
C1330 C1349 1.429 . S
C1330 H1354 0.950 . S
C1331 C1348 1.574 . S
C1331 C1350 1.368 . S
C1331 H1355 0.949 . S
H1332 C1336 0.949 . S
C1333 C1334 1.349 . S
C1333 C1335 1.327 . S
C1333 H1356 0.950 . S
C1334 C1333 1.349 . S
C1334 C1346 1.349 . S
C1335 C1333 1.327 . S
C1335 C1351 1.429 . S
C1335 H1357 0.950 . S
C1336 H1332 0.949 . S
C1336 C1344 1.574 . S
C1336 C1352 1.368 . S
H1337 C1345 0.950 . S
H1338 C1343 0.950 . S
H1339 C1344 0.949 . S
H1340 C1346 0.950 . S
H1341 C1347 0.950 . S
H1342 C1348 0.949 . S
C1343 H1338 0.950 . S
C1343 C1345 1.327 . S
C1343 C1349 1.429 . S
C1344 C1336 1.574 . S
C1344 H1339 0.949 . S
C1344 C1350 1.368 . S
C1345 C1329 1.349 . S
C1345 H1337 0.950 . S
C1345 C1343 1.327 . S
C1346 C1334 1.349 . S
C1346 H1340 0.950 . S
C1346 C1347 1.327 . S
C1347 H1341 0.950 . S
C1347 C1346 1.327 . S
C1347 C1351 1.429 . S
C1348 C1331 1.574 . S
C1348 H1342 0.949 . S
C1348 C1352 1.368 . S
C1349 C1330 1.429 . S
C1349 C1343 1.429 . S
C1349 C1350 1.523 . S
C1350 C1331 1.368 . S
C1350 C1344 1.368 . S
C1350 C1349 1.523 . S
C1351 C1335 1.429 . S
C1351 C1347 1.429 . S
C1351 C1352 1.523 . S
C1352 C1336 1.368 . S
C1352 C1348 1.368 . S
C1352 C1351 1.523 . S
H1353 C1328 0.950 . S
H1354 C1330 0.950 . S
H1355 C1331 0.949 . S
H1356 C1333 0.950 . S
H1357 C1335 0.950 . S
C1358 C1359 1.349 . S
C1358 C1360 1.327 . S
C1358 H1383 0.950 . S
C1359 C1358 1.349 . S
C1359 C1375 1.349 . S
C1360 C1358 1.327 . S
C1360 C1379 1.429 . S
C1360 H1384 0.950 . S
C1361 C1378 1.574 . S
C1361 C1380 1.368 . S
C1361 H1385 0.949 . S
H1362 C1366 0.949 . S
C1363 C1364 1.349 . S
C1363 C1365 1.327 . S
C1363 H1386 0.950 . S
C1364 C1363 1.349 . S
C1364 C1376 1.349 . S
C1365 C1363 1.327 . S
C1365 C1381 1.429 . S
C1365 H1387 0.950 . S
C1366 H1362 0.949 . S
C1366 C1374 1.574 . S
C1366 C1382 1.368 . S
H1367 C1375 0.950 . S
H1368 C1373 0.950 . S
H1369 C1374 0.949 . S
H1370 C1376 0.950 . S
H1371 C1377 0.950 . S
H1372 C1378 0.949 . S
C1373 H1368 0.950 . S
C1373 C1375 1.327 . S
C1373 C1379 1.429 . S
C1374 C1366 1.574 . S
C1374 H1369 0.949 . S
C1374 C1380 1.368 . S
C1375 C1359 1.349 . S
C1375 H1367 0.950 . S
C1375 C1373 1.327 . S
C1376 C1364 1.349 . S
C1376 H1370 0.950 . S
C1376 C1377 1.327 . S
C1377 H1371 0.950 . S
C1377 C1376 1.327 . S
C1377 C1381 1.429 . S
C1378 C1361 1.574 . S
C1378 H1372 0.949 . S
C1378 C1382 1.368 . S
C1379 C1360 1.429 . S
C1379 C1373 1.429 . S
C1379 C1380 1.523 . S
C1380 C1361 1.368 . S
C1380 C1374 1.368 . S
C1380 C1379 1.523 . S
C1381 C1365 1.429 . S
C1381 C1377 1.429 . S
C1381 C1382 1.523 . S
C1382 C1366 1.368 . S
C1382 C1378 1.368 . S
C1382 C1381 1.523 . S
H1383 C1358 0.950 . S
H1384 C1360 0.950 . S
H1385 C1361 0.949 . S
H1386 C1363 0.950 . S
H1387 C1365 0.950 . S
C1388 C1389 1.349 . S
C1388 C1390 1.327 . S
C1388 H1413 0.950 . S
C1389 C1388 1.349 . S
C1389 C1405 1.349 . S
C1390 C1388 1.327 . S
C1390 C1409 1.429 . S
C1390 H1414 0.950 . S
C1391 C1408 1.574 . S
C1391 C1410 1.368 . S
C1391 H1415 0.949 . S
H1392 C1396 0.949 . S
C1393 C1394 1.349 . S
C1393 C1395 1.327 . S
C1393 H1416 0.950 . S
C1394 C1393 1.349 . S
C1394 C1406 1.349 . S
C1395 C1393 1.327 . S
C1395 C1411 1.429 . S
C1395 H1417 0.950 . S
C1396 H1392 0.949 . S
C1396 C1404 1.574 . S
C1396 C1412 1.368 . S
H1397 C1405 0.950 . S
H1398 C1403 0.950 . S
H1399 C1404 0.949 . S
H1400 C1406 0.950 . S
H1401 C1407 0.950 . S
H1402 C1408 0.949 . S
C1403 H1398 0.950 . S
C1403 C1405 1.327 . S
C1403 C1409 1.429 . S
C1404 C1396 1.574 . S
C1404 H1399 0.949 . S
C1404 C1410 1.368 . S
C1405 C1389 1.349 . S
C1405 H1397 0.950 . S
C1405 C1403 1.327 . S
C1406 C1394 1.349 . S
C1406 H1400 0.950 . S
C1406 C1407 1.327 . S
C1407 H1401 0.950 . S
C1407 C1406 1.327 . S
C1407 C1411 1.429 . S
C1408 C1391 1.574 . S
C1408 H1402 0.949 . S
C1408 C1412 1.368 . S
C1409 C1390 1.429 . S
C1409 C1403 1.429 . S
C1409 C1410 1.523 . S
C1410 C1391 1.368 . S
C1410 C1404 1.368 . S
C1410 C1409 1.523 . S
C1411 C1395 1.429 . S
C1411 C1407 1.429 . S
C1411 C1412 1.523 . S
C1412 C1396 1.368 . S
C1412 C1408 1.368 . S
C1412 C1411 1.523 . S
H1413 C1388 0.950 . S
H1414 C1390 0.950 . S
H1415 C1391 0.949 . S
H1416 C1393 0.950 . S
H1417 C1395 0.950 . S
C1418 C1419 1.349 . S
C1418 C1420 1.327 . S
C1418 H1443 0.950 . S
C1419 C1418 1.349 . S
C1419 C1435 1.349 . S
C1420 C1418 1.327 . S
C1420 C1439 1.429 . S
C1420 H1444 0.950 . S
C1421 C1438 1.574 . S
C1421 C1440 1.368 . S
C1421 H1445 0.949 . S
H1422 C1426 0.949 . S
C1423 C1424 1.349 . S
C1423 C1425 1.327 . S
C1423 H1446 0.950 . S
C1424 C1423 1.349 . S
C1424 C1436 1.349 . S
C1425 C1423 1.327 . S
C1425 C1441 1.429 . S
C1425 H1447 0.950 . S
C1426 H1422 0.949 . S
C1426 C1434 1.574 . S
C1426 C1442 1.368 . S
H1427 C1435 0.950 . S
H1428 C1433 0.950 . S
H1429 C1434 0.949 . S
H1430 C1436 0.950 . S
H1431 C1437 0.950 . S
H1432 C1438 0.949 . S
C1433 H1428 0.950 . S
C1433 C1435 1.327 . S
C1433 C1439 1.429 . S
C1434 C1426 1.574 . S
C1434 H1429 0.949 . S
C1434 C1440 1.368 . S
C1435 C1419 1.349 . S
C1435 H1427 0.950 . S
C1435 C1433 1.327 . S
C1436 C1424 1.349 . S
C1436 H1430 0.950 . S
C1436 C1437 1.327 . S
C1437 H1431 0.950 . S
C1437 C1436 1.327 . S
C1437 C1441 1.429 . S
C1438 C1421 1.574 . S
C1438 H1432 0.949 . S
C1438 C1442 1.368 . S
C1439 C1420 1.429 . S
C1439 C1433 1.429 . S
C1439 C1440 1.523 . S
C1440 C1421 1.368 . S
C1440 C1434 1.368 . S
C1440 C1439 1.523 . S
C1441 C1425 1.429 . S
C1441 C1437 1.429 . S
C1441 C1442 1.523 . S
C1442 C1426 1.368 . S
C1442 C1438 1.368 . S
C1442 C1441 1.523 . S
H1443 C1418 0.950 . S
H1444 C1420 0.950 . S
H1445 C1421 0.949 . S
H1446 C1423 0.950 . S
H1447 C1425 0.950 . S
C1448 C1449 1.349 . S
C1448 C1450 1.327 . S
C1448 H1473 0.950 . S
C1449 C1448 1.349 . S
C1449 C1465 1.349 . S
C1450 C1448 1.327 . S
C1450 C1469 1.429 . S
C1450 H1474 0.950 . S
C1451 C1468 1.574 . S
C1451 C1470 1.368 1_455 S
C1451 H1475 0.949 . S
H1452 C1456 0.949 . S
C1453 C1454 1.349 . S
C1453 C1455 1.327 . S
C1453 H1476 0.950 . S
C1454 C1453 1.349 . S
C1454 C1466 1.349 . S
C1455 C1453 1.327 . S
C1455 C1471 1.429 . S
C1455 H1477 0.950 . S
C1456 H1452 0.949 . S
C1456 C1464 1.574 . S
C1456 C1472 1.368 1_655 S
H1457 C1465 0.950 . S
H1458 C1463 0.964 . S
H1459 C1464 0.949 . S
H1460 C1466 0.950 . S
H1461 C1467 0.964 . S
H1462 C1468 0.949 . S
C1463 H1458 0.964 . S
C1463 C1465 1.327 . S
C1463 C1469 1.429 . S
C1464 C1456 1.574 . S
C1464 H1459 0.949 . S
C1464 C1470 1.368 . S
C1465 C1449 1.349 . S
C1465 H1457 0.950 . S
C1465 C1463 1.327 . S
C1466 C1454 1.349 . S
C1466 H1460 0.950 . S
C1466 C1467 1.327 . S
C1467 H1461 0.964 . S
C1467 C1466 1.327 . S
C1467 C1471 1.429 . S
C1468 C1451 1.574 . S
C1468 H1462 0.949 . S
C1468 C1472 1.368 . S
C1469 C1450 1.429 . S
C1469 C1463 1.429 . S
C1469 C1470 1.523 . S
C1470 C1451 1.368 1_655 S
C1470 C1464 1.368 . S
C1470 C1469 1.523 . S
C1471 C1455 1.429 . S
C1471 C1467 1.429 . S
C1471 C1472 1.523 . S
C1472 C1456 1.368 1_455 S
C1472 C1468 1.368 . S
C1472 C1471 1.523 . S
H1473 C1448 0.950 . S
H1474 C1450 0.950 . S
H1475 C1451 0.949 . S
H1476 C1453 0.950 . S
H1477 C1455 0.950 . S
C1478 C1479 1.349 . S
C1478 C1480 1.327 . S
C1478 H1503 0.950 . S
C1479 C1478 1.349 . S
C1479 C1495 1.349 . S
C1480 C1478 1.327 . S
C1480 C1499 1.429 . S
C1480 H1504 0.950 . S
C1481 C1498 1.574 1_556 S
C1481 C1500 1.368 . S
C1481 H1505 0.949 . S
H1482 C1486 0.949 . S
C1483 C1484 1.349 . S
C1483 C1485 1.327 . S
C1483 H1506 0.950 . S
C1484 C1483 1.349 . S
C1484 C1496 1.349 . S
C1485 C1483 1.327 . S
C1485 C1501 1.429 . S
C1485 H1507 0.950 . S
C1486 H1482 0.949 . S
C1486 C1494 1.574 1_554 S
C1486 C1502 1.368 . S
H1487 C1495 0.950 . S
H1488 C1493 0.950 . S
H1489 C1494 0.949 . S
H1490 C1496 0.950 . S
H1491 C1497 0.950 . S
H1492 C1498 0.949 . S
C1493 H1488 0.950 . S
C1493 C1495 1.327 . S
C1493 C1499 1.429 . S
C1494 C1486 1.574 1_556 S
C1494 H1489 0.949 . S
C1494 C1500 1.368 . S
C1495 C1479 1.349 . S
C1495 H1487 0.950 . S
C1495 C1493 1.327 . S
C1496 C1484 1.349 . S
C1496 H1490 0.950 . S
C1496 C1497 1.327 . S
C1497 H1491 0.950 . S
C1497 C1496 1.327 . S
C1497 C1501 1.429 . S
C1498 C1481 1.574 1_554 S
C1498 H1492 0.949 . S
C1498 C1502 1.368 . S
C1499 C1480 1.429 . S
C1499 C1493 1.429 . S
C1499 C1500 1.523 . S
C1500 C1481 1.368 . S
C1500 C1494 1.368 . S
C1500 C1499 1.523 . S
C1501 C1485 1.429 . S
C1501 C1497 1.429 . S
C1501 C1502 1.523 . S
C1502 C1486 1.368 . S
C1502 C1498 1.368 . S
C1502 C1501 1.523 . S
H1503 C1478 0.950 . S
H1504 C1480 0.950 . S
H1505 C1481 0.949 . S
H1506 C1483 0.950 . S
H1507 C1485 0.950 . S
C1508 C1509 1.349 . S
C1508 C1510 1.327 . S
C1508 H1533 0.950 . S
C1509 C1508 1.349 . S
C1509 C1525 1.349 . S
C1510 C1508 1.327 . S
C1510 C1529 1.429 . S
C1510 H1534 0.950 1_455 S
C1511 C1528 1.574 1_554 S
C1511 C1530 1.368 . S
C1511 H1535 0.949 . S
H1512 C1516 0.949 . S
C1513 C1514 1.349 . S
C1513 C1515 1.327 . S
C1513 H1536 0.950 . S
C1514 C1513 1.349 . S
C1514 C1526 1.349 . S
C1515 C1513 1.327 . S
C1515 C1531 1.429 . S
C1515 H1537 0.950 1_655 S
C1516 H1512 0.949 . S
C1516 C1524 1.574 1_556 S
C1516 C1532 1.368 . S
H1517 C1525 0.950 . S
H1518 C1523 0.950 . S
H1519 C1524 0.949 . S
H1520 C1526 0.950 . S
H1521 C1527 0.950 . S
H1522 C1528 0.949 . S
C1523 H1518 0.950 . S
C1523 C1525 1.327 . S
C1523 C1529 1.429 . S
C1524 C1516 1.574 1_554 S
C1524 H1519 0.949 . S
C1524 C1530 1.368 1_655 S
C1525 C1509 1.349 . S
C1525 H1517 0.950 . S
C1525 C1523 1.327 . S
C1526 C1514 1.349 . S
C1526 H1520 0.950 . S
C1526 C1527 1.327 . S
C1527 H1521 0.950 . S
C1527 C1526 1.327 . S
C1527 C1531 1.429 . S
C1528 C1511 1.574 1_556 S
C1528 H1522 0.949 . S
C1528 C1532 1.368 1_455 S
C1529 C1510 1.429 . S
C1529 C1523 1.429 . S
C1529 C1530 1.523 . S
C1530 C1511 1.368 . S
C1530 C1524 1.368 1_455 S
C1530 C1529 1.523 . S
C1531 C1515 1.429 . S
C1531 C1527 1.429 . S
C1531 C1532 1.523 . S
C1532 C1516 1.368 . S
C1532 C1528 1.368 1_655 S
C1532 C1531 1.523 . S
H1533 C1508 0.950 . S
H1534 C1510 0.950 1_655 S
H1535 C1511 0.949 . S
H1536 C1513 0.950 . S
H1537 C1515 0.950 1_455 S
C1538 C1539 1.349 . S
C1538 C1540 1.327 . S
C1538 H1563 0.950 . S
C1539 C1538 1.349 . S
C1539 C1555 1.349 . S
C1540 C1538 1.327 . S
C1540 C1559 1.429 . S
C1540 H1564 0.950 . S
C1541 C1558 1.574 . S
C1541 C1560 1.368 . S
C1541 H1565 0.949 . S
H1542 C1546 0.949 . S
C1543 C1544 1.349 . S
C1543 C1545 1.327 . S
C1543 H1566 0.950 . S
C1544 C1543 1.349 . S
C1544 C1556 1.349 . S
C1545 C1543 1.327 . S
C1545 C1561 1.429 . S
C1545 H1567 0.950 . S
C1546 H1542 0.949 . S
C1546 C1554 1.574 . S
C1546 C1562 1.368 . S
H1547 C1555 0.950 . S
H1548 C1553 0.950 . S
H1549 C1554 0.949 . S
H1550 C1556 0.950 . S
H1551 C1557 0.950 . S
H1552 C1558 0.949 . S
C1553 H1548 0.950 . S
C1553 C1555 1.327 . S
C1553 C1559 1.429 . S
C1554 C1546 1.574 . S
C1554 H1549 0.949 . S
C1554 C1560 1.368 . S
C1555 C1539 1.349 . S
C1555 H1547 0.950 . S
C1555 C1553 1.327 . S
C1556 C1544 1.349 . S
C1556 H1550 0.950 . S
C1556 C1557 1.327 . S
C1557 H1551 0.950 . S
C1557 C1556 1.327 . S
C1557 C1561 1.429 . S
C1558 C1541 1.574 . S
C1558 H1552 0.949 . S
C1558 C1562 1.368 . S
C1559 C1540 1.429 . S
C1559 C1553 1.429 . S
C1559 C1560 1.523 . S
C1560 C1541 1.368 . S
C1560 C1554 1.368 . S
C1560 C1559 1.523 . S
C1561 C1545 1.429 . S
C1561 C1557 1.429 . S
C1561 C1562 1.523 . S
C1562 C1546 1.368 . S
C1562 C1558 1.368 . S
C1562 C1561 1.523 . S
H1563 C1538 0.950 . S
H1564 C1540 0.950 . S
H1565 C1541 0.949 . S
H1566 C1543 0.950 . S
H1567 C1545 0.950 . S
C1568 C1569 1.349 . S
C1568 C1570 1.327 . S
C1568 H1593 0.950 . S
C1569 C1568 1.349 . S
C1569 C1585 1.349 1_565 S
C1570 C1568 1.327 . S
C1570 C1589 1.429 . S
C1570 H1594 0.950 . S
C1571 C1588 1.574 . S
C1571 C1590 1.368 1_545 S
C1571 H1595 0.949 . S
H1572 C1576 0.949 . S
C1573 C1574 1.349 1_545 S
C1573 C1575 1.327 . S
C1573 H1596 0.950 . S
C1574 C1573 1.349 1_565 S
C1574 C1586 1.349 . S
C1575 C1573 1.327 . S
C1575 C1591 1.429 1_545 S
C1575 H1597 0.950 . S
C1576 H1572 0.949 . S
C1576 C1584 1.574 . S
C1576 C1592 1.368 . S
H1577 C1585 0.950 . S
H1578 C1583 0.950 . S
H1579 C1584 0.949 . S
H1580 C1586 0.950 . S
H1581 C1587 0.950 . S
H1582 C1588 0.949 . S
C1583 H1578 0.950 . S
C1583 C1585 1.327 . S
C1583 C1589 1.429 1_545 S
C1584 C1576 1.574 . S
C1584 H1579 0.949 . S
C1584 C1590 1.368 . S
C1585 C1569 1.349 1_545 S
C1585 H1577 0.950 . S
C1585 C1583 1.327 . S
C1586 C1574 1.349 . S
C1586 H1580 0.950 . S
C1586 C1587 1.327 . S
C1587 H1581 0.950 . S
C1587 C1586 1.327 . S
C1587 C1591 1.429 . S
C1588 C1571 1.574 . S
C1588 H1582 0.949 . S
C1588 C1592 1.368 1_545 S
C1589 C1570 1.429 . S
C1589 C1583 1.429 1_565 S
C1589 C1590 1.523 . S
C1590 C1571 1.368 1_565 S
C1590 C1584 1.368 . S
C1590 C1589 1.523 . S
C1591 C1575 1.429 1_565 S
C1591 C1587 1.429 . S
C1591 C1592 1.523 . S
C1592 C1576 1.368 . S
C1592 C1588 1.368 1_565 S
C1592 C1591 1.523 . S
H1593 C1568 0.950 . S
H1594 C1570 0.950 . S
H1595 C1571 0.949 . S
H1596 C1573 0.950 . S
H1597 C1575 0.950 . S
C1598 C1599 1.349 . S
C1598 C1600 1.327 . S
C1598 H1623 0.950 . S
C1599 C1598 1.349 . S
C1599 C1615 1.349 . S
C1600 C1598 1.327 . S
C1600 C1619 1.429 . S
C1600 H1624 0.950 . S
C1601 C1618 1.574 . S
C1601 C1620 1.368 . S
C1601 H1625 0.949 . S
H1602 C1606 0.949 . S
C1603 C1604 1.349 . S
C1603 C1605 1.327 . S
C1603 H1626 0.950 . S
C1604 C1603 1.349 . S
C1604 C1616 1.349 . S
C1605 C1603 1.327 . S
C1605 C1621 1.429 . S
C1605 H1627 0.950 . S
C1606 H1602 0.949 . S
C1606 C1614 1.574 . S
C1606 C1622 1.368 . S
H1607 C1615 0.950 . S
H1608 C1613 0.950 . S
H1609 C1614 0.949 . S
H1610 C1616 0.950 . S
H1611 C1617 0.950 . S
H1612 C1618 0.949 . S
C1613 H1608 0.950 . S
C1613 C1615 1.327 . S
C1613 C1619 1.429 . S
C1614 C1606 1.574 . S
C1614 H1609 0.949 . S
C1614 C1620 1.368 . S
C1615 C1599 1.349 . S
C1615 H1607 0.950 . S
C1615 C1613 1.327 . S
C1616 C1604 1.349 . S
C1616 H1610 0.950 . S
C1616 C1617 1.327 . S
C1617 H1611 0.950 . S
C1617 C1616 1.327 . S
C1617 C1621 1.429 . S
C1618 C1601 1.574 . S
C1618 H1612 0.949 . S
C1618 C1622 1.368 . S
C1619 C1600 1.429 . S
C1619 C1613 1.429 . S
C1619 C1620 1.523 . S
C1620 C1601 1.368 . S
C1620 C1614 1.368 . S
C1620 C1619 1.523 . S
C1621 C1605 1.429 . S
C1621 C1617 1.429 . S
C1621 C1622 1.523 . S
C1622 C1606 1.368 . S
C1622 C1618 1.368 . S
C1622 C1621 1.523 . S
H1623 C1598 0.950 . S
H1624 C1600 0.950 . S
H1625 C1601 0.949 . S
H1626 C1603 0.950 . S
H1627 C1605 0.950 . S
C1628 C1629 1.349 . S
C1628 C1630 1.327 . S
C1628 H1653 0.950 . S
C1629 C1628 1.349 . S
C1629 C1645 1.349 1_545 S
C1630 C1628 1.327 . S
C1630 C1649 1.429 . S
C1630 H1654 0.950 . S
C1631 C1648 1.574 . S
C1631 C1650 1.368 1_565 S
C1631 H1655 0.949 . S
H1632 C1636 0.949 . S
C1633 C1634 1.349 1_565 S
C1633 C1635 1.327 . S
C1633 H1656 0.950 . S
C1634 C1633 1.349 1_545 S
C1634 C1646 1.349 . S
C1635 C1633 1.327 . S
C1635 C1651 1.429 1_565 S
C1635 H1657 0.950 . S
C1636 H1632 0.949 . S
C1636 C1644 1.574 . S
C1636 C1652 1.368 . S
H1637 C1645 0.950 . S
H1638 C1643 0.950 . S
H1639 C1644 0.949 . S
H1640 C1646 0.950 . S
H1641 C1647 0.950 . S
H1642 C1648 0.949 . S
C1643 H1638 0.950 . S
C1643 C1645 1.327 . S
C1643 C1649 1.429 1_565 S
C1644 C1636 1.574 . S
C1644 H1639 0.949 . S
C1644 C1650 1.368 . S
C1645 C1629 1.349 1_565 S
C1645 H1637 0.950 . S
C1645 C1643 1.327 . S
C1646 C1634 1.349 . S
C1646 H1640 0.950 . S
C1646 C1647 1.327 . S
C1647 H1641 0.950 . S
C1647 C1646 1.327 . S
C1647 C1651 1.429 . S
C1648 C1631 1.574 . S
C1648 H1642 0.949 . S
C1648 C1652 1.368 1_565 S
C1649 C1630 1.429 . S
C1649 C1643 1.429 1_545 S
C1649 C1650 1.523 . S
C1650 C1631 1.368 1_545 S
C1650 C1644 1.368 . S
C1650 C1649 1.523 . S
C1651 C1635 1.429 1_545 S
C1651 C1647 1.429 . S
C1651 C1652 1.523 . S
C1652 C1636 1.368 . S
C1652 C1648 1.368 1_545 S
C1652 C1651 1.523 . S
H1653 C1628 0.950 . S
H1654 C1630 0.950 . S
H1655 C1631 0.949 . S
H1656 C1633 0.950 . S
H1657 C1635 0.950 . S
C1658 C1659 1.349 . S
C1658 C1660 1.327 . S
C1658 H1683 0.950 . S
C1659 C1658 1.349 . S
C1659 C1675 1.349 . S
C1660 C1658 1.327 . S
C1660 C1679 1.429 . S
C1660 H1684 0.950 . S
C1661 C1678 1.574 . S
C1661 C1680 1.368 . S
C1661 H1685 0.949 . S
H1662 C1666 0.949 . S
C1663 C1664 1.349 . S
C1663 C1665 1.327 . S
C1663 H1686 0.950 . S
C1664 C1663 1.349 . S
C1664 C1676 1.349 . S
C1665 C1663 1.327 . S
C1665 C1681 1.429 . S
C1665 H1687 0.950 . S
C1666 H1662 0.949 . S
C1666 C1674 1.574 . S
C1666 C1682 1.368 . S
H1667 C1675 0.950 . S
H1668 C1673 0.950 . S
H1669 C1674 0.949 . S
H1670 C1676 0.950 . S
H1671 C1677 0.950 . S
H1672 C1678 0.949 . S
C1673 H1668 0.950 . S
C1673 C1675 1.327 . S
C1673 C1679 1.429 . S
C1674 C1666 1.574 . S
C1674 H1669 0.949 . S
C1674 C1680 1.368 . S
C1675 C1659 1.349 . S
C1675 H1667 0.950 . S
C1675 C1673 1.327 . S
C1676 C1664 1.349 . S
C1676 H1670 0.950 . S
C1676 C1677 1.327 . S
C1677 H1671 0.950 . S
C1677 C1676 1.327 . S
C1677 C1681 1.429 . S
C1678 C1661 1.574 . S
C1678 H1672 0.949 . S
C1678 C1682 1.368 . S
C1679 C1660 1.429 . S
C1679 C1673 1.429 . S
C1679 C1680 1.523 . S
C1680 C1661 1.368 . S
C1680 C1674 1.368 . S
C1680 C1679 1.523 . S
C1681 C1665 1.429 . S
C1681 C1677 1.429 . S
C1681 C1682 1.523 . S
C1682 C1666 1.368 . S
C1682 C1678 1.368 . S
C1682 C1681 1.523 . S
H1683 C1658 0.950 . S
H1684 C1660 0.950 . S
H1685 C1661 0.949 . S
H1686 C1663 0.950 . S
H1687 C1665 0.950 . S
C1688 C1689 1.349 1_565 S
C1688 C1690 1.327 . S
C1688 H1713 0.950 . S
C1689 C1688 1.349 1_545 S
C1689 C1705 1.349 . S
C1690 C1688 1.327 . S
C1690 C1709 1.429 1_565 S
C1690 H1714 0.950 . S
C1691 C1708 1.574 . S
C1691 C1710 1.368 . S
C1691 H1715 0.949 . S
H1692 C1696 0.949 . S
C1693 C1694 1.349 . S
C1693 C1695 1.327 . S
C1693 H1716 0.950 . S
C1694 C1693 1.349 . S
C1694 C1706 1.349 1_545 S
C1695 C1693 1.327 . S
C1695 C1711 1.429 . S
C1695 H1717 0.950 . S
C1696 H1692 0.949 . S
C1696 C1704 1.574 . S
C1696 C1712 1.368 1_565 S
H1697 C1705 0.950 . S
H1698 C1703 0.950 . S
H1699 C1704 0.949 . S
H1700 C1706 0.950 . S
H1701 C1707 0.950 . S
H1702 C1708 0.949 . S
C1703 H1698 0.950 . S
C1703 C1705 1.327 . S
C1703 C1709 1.429 . S
C1704 C1696 1.574 . S
C1704 H1699 0.949 . S
C1704 C1710 1.368 1_565 S
C1705 C1689 1.349 . S
C1705 H1697 0.950 . S
C1705 C1703 1.327 . S
C1706 C1694 1.349 1_565 S
C1706 H1700 0.950 . S
C1706 C1707 1.327 . S
C1707 H1701 0.950 . S
C1707 C1706 1.327 . S
C1707 C1711 1.429 1_565 S
C1708 C1691 1.574 . S
C1708 H1702 0.949 . S
C1708 C1712 1.368 . S
C1709 C1690 1.429 1_545 S
C1709 C1703 1.429 . S
C1709 C1710 1.523 . S
C1710 C1691 1.368 . S
C1710 C1704 1.368 1_545 S
C1710 C1709 1.523 . S
C1711 C1695 1.429 . S
C1711 C1707 1.429 1_545 S
C1711 C1712 1.523 . S
C1712 C1696 1.368 1_545 S
C1712 C1708 1.368 . S
C1712 C1711 1.523 . S
H1713 C1688 0.950 . S
H1714 C1690 0.950 . S
H1715 C1691 0.949 . S
H1716 C1693 0.950 . S
H1717 C1695 0.950 . S
C1718 C1719 1.349 . S
C1718 C1720 1.327 . S
C1718 H1743 0.950 . S
C1719 C1718 1.349 . S
C1719 C1735 1.349 . S
C1720 C1718 1.327 . S
C1720 C1739 1.429 . S
C1720 H1744 0.950 . S
C1721 C1738 1.574 . S
C1721 C1740 1.368 . S
C1721 H1745 0.949 . S
H1722 C1726 0.949 . S
C1723 C1724 1.349 . S
C1723 C1725 1.327 . S
C1723 H1746 0.950 . S
C1724 C1723 1.349 . S
C1724 C1736 1.349 . S
C1725 C1723 1.327 . S
C1725 C1741 1.429 . S
C1725 H1747 0.950 . S
C1726 H1722 0.949 . S
C1726 C1734 1.574 . S
C1726 C1742 1.368 . S
H1727 C1735 0.950 . S
H1728 C1733 0.950 . S
H1729 C1734 0.949 . S
H1730 C1736 0.950 . S
H1731 C1737 0.950 . S
H1732 C1738 0.949 . S
C1733 H1728 0.950 . S
C1733 C1735 1.327 . S
C1733 C1739 1.429 . S
C1734 C1726 1.574 . S
C1734 H1729 0.949 . S
C1734 C1740 1.368 . S
C1735 C1719 1.349 . S
C1735 H1727 0.950 . S
C1735 C1733 1.327 . S
C1736 C1724 1.349 . S
C1736 H1730 0.950 . S
C1736 C1737 1.327 . S
C1737 H1731 0.950 . S
C1737 C1736 1.327 . S
C1737 C1741 1.429 . S
C1738 C1721 1.574 . S
C1738 H1732 0.949 . S
C1738 C1742 1.368 . S
C1739 C1720 1.429 . S
C1739 C1733 1.429 . S
C1739 C1740 1.523 . S
C1740 C1721 1.368 . S
C1740 C1734 1.368 . S
C1740 C1739 1.523 . S
C1741 C1725 1.429 . S
C1741 C1737 1.429 . S
C1741 C1742 1.523 . S
C1742 C1726 1.368 . S
C1742 C1738 1.368 . S
C1742 C1741 1.523 . S
H1743 C1718 0.950 . S
H1744 C1720 0.950 . S
H1745 C1721 0.949 . S
H1746 C1723 0.950 . S
H1747 C1725 0.950 . S
C1748 C1749 1.349 . S
C1748 C1750 1.327 . S
C1748 H1773 0.950 . S
C1749 C1748 1.349 . S
C1749 C1765 1.349 1_565 S
C1750 C1748 1.327 . S
C1750 C1769 1.429 . S
C1750 H1774 0.950 . S
C1751 C1768 1.574 . S
C1751 C1770 1.368 1_545 S
C1751 H1775 0.949 . S
H1752 C1756 0.949 . S
C1753 C1754 1.349 1_545 S
C1753 C1755 1.327 . S
C1753 H1776 0.950 . S
C1754 C1753 1.349 1_565 S
C1754 C1766 1.349 . S
C1755 C1753 1.327 . S
C1755 C1771 1.429 1_545 S
C1755 H1777 0.950 . S
C1756 H1752 0.949 . S
C1756 C1764 1.574 . S
C1756 C1772 1.368 . S
H1757 C1765 0.950 . S
H1758 C1763 0.950 . S
H1759 C1764 0.949 . S
H1760 C1766 0.950 . S
H1761 C1767 0.950 . S
H1762 C1768 0.949 . S
C1763 H1758 0.950 . S
C1763 C1765 1.327 . S
C1763 C1769 1.429 1_545 S
C1764 C1756 1.574 . S
C1764 H1759 0.949 . S
C1764 C1770 1.368 . S
C1765 C1749 1.349 1_545 S
C1765 H1757 0.950 . S
C1765 C1763 1.327 . S
C1766 C1754 1.349 . S
C1766 H1760 0.950 . S
C1766 C1767 1.327 . S
C1767 H1761 0.950 . S
C1767 C1766 1.327 . S
C1767 C1771 1.429 . S
C1768 C1751 1.574 . S
C1768 H1762 0.949 . S
C1768 C1772 1.368 1_545 S
C1769 C1750 1.429 . S
C1769 C1763 1.429 1_565 S
C1769 C1770 1.523 . S
C1770 C1751 1.368 1_565 S
C1770 C1764 1.368 . S
C1770 C1769 1.523 . S
C1771 C1755 1.429 1_565 S
C1771 C1767 1.429 . S
C1771 C1772 1.523 . S
C1772 C1756 1.368 . S
C1772 C1768 1.368 1_565 S
C1772 C1771 1.523 . S
H1773 C1748 0.950 . S
H1774 C1750 0.950 . S
H1775 C1751 0.949 . S
H1776 C1753 0.950 . S
H1777 C1755 0.950 . S
C1778 C1779 1.349 . S
C1778 C1780 1.327 . S
C1778 H1803 0.950 . S
C1779 C1778 1.349 . S
C1779 C1795 1.349 . S
C1780 C1778 1.327 . S
C1780 C1799 1.429 . S
C1780 H1804 0.950 . S
C1781 C1798 1.574 . S
C1781 C1800 1.368 . S
C1781 H1805 0.949 . S
H1782 C1786 0.949 . S
C1783 C1784 1.349 . S
C1783 C1785 1.327 . S
C1783 H1806 0.950 . S
C1784 C1783 1.349 . S
C1784 C1796 1.349 . S
C1785 C1783 1.327 . S
C1785 C1801 1.429 . S
C1785 H1807 0.950 . S
C1786 H1782 0.949 . S
C1786 C1794 1.574 . S
C1786 C1802 1.368 . S
H1787 C1795 0.950 . S
H1788 C1793 0.950 . S
H1789 C1794 0.949 . S
H1790 C1796 0.950 . S
H1791 C1797 0.950 . S
H1792 C1798 0.949 . S
C1793 H1788 0.950 . S
C1793 C1795 1.327 . S
C1793 C1799 1.429 . S
C1794 C1786 1.574 . S
C1794 H1789 0.949 . S
C1794 C1800 1.368 . S
C1795 C1779 1.349 . S
C1795 H1787 0.950 . S
C1795 C1793 1.327 . S
C1796 C1784 1.349 . S
C1796 H1790 0.950 . S
C1796 C1797 1.327 . S
C1797 H1791 0.950 . S
C1797 C1796 1.327 . S
C1797 C1801 1.429 . S
C1798 C1781 1.574 . S
C1798 H1792 0.949 . S
C1798 C1802 1.368 . S
C1799 C1780 1.429 . S
C1799 C1793 1.429 . S
C1799 C1800 1.523 . S
C1800 C1781 1.368 . S
C1800 C1794 1.368 . S
C1800 C1799 1.523 . S
C1801 C1785 1.429 . S
C1801 C1797 1.429 . S
C1801 C1802 1.523 . S
C1802 C1786 1.368 . S
C1802 C1798 1.368 . S
C1802 C1801 1.523 . S
H1803 C1778 0.950 . S
H1804 C1780 0.950 . S
H1805 C1781 0.949 . S
H1806 C1783 0.950 . S
H1807 C1785 0.950 . S
C1808 C1809 1.349 1_565 S
C1808 C1810 1.327 . S
C1808 H1833 0.950 . S
C1809 C1808 1.349 1_545 S
C1809 C1825 1.349 . S
C1810 C1808 1.327 . S
C1810 C1829 1.429 1_565 S
C1810 H1834 0.950 . S
C1811 C1828 1.574 . S
C1811 C1830 1.368 . S
C1811 H1835 0.949 . S
H1812 C1816 0.949 . S
C1813 C1814 1.349 . S
C1813 C1815 1.327 . S
C1813 H1836 0.950 . S
C1814 C1813 1.349 . S
C1814 C1826 1.349 1_545 S
C1815 C1813 1.327 . S
C1815 C1831 1.429 . S
C1815 H1837 0.950 . S
C1816 H1812 0.949 . S
C1816 C1824 1.574 . S
C1816 C1832 1.368 1_565 S
H1817 C1825 0.950 . S
H1818 C1823 0.950 . S
H1819 C1824 0.949 . S
H1820 C1826 0.950 . S
H1821 C1827 0.950 . S
H1822 C1828 0.949 . S
C1823 H1818 0.950 . S
C1823 C1825 1.327 . S
C1823 C1829 1.429 . S
C1824 C1816 1.574 . S
C1824 H1819 0.949 . S
C1824 C1830 1.368 1_565 S
C1825 C1809 1.349 . S
C1825 H1817 0.950 . S
C1825 C1823 1.327 . S
C1826 C1814 1.349 1_565 S
C1826 H1820 0.950 . S
C1826 C1827 1.327 . S
C1827 H1821 0.950 . S
C1827 C1826 1.327 . S
C1827 C1831 1.429 1_565 S
C1828 C1811 1.574 . S
C1828 H1822 0.949 . S
C1828 C1832 1.368 . S
C1829 C1810 1.429 1_545 S
C1829 C1823 1.429 . S
C1829 C1830 1.523 . S
C1830 C1811 1.368 . S
C1830 C1824 1.368 1_545 S
C1830 C1829 1.523 . S
C1831 C1815 1.429 . S
C1831 C1827 1.429 1_545 S
C1831 C1832 1.523 . S
C1832 C1816 1.368 1_545 S
C1832 C1828 1.368 . S
C1832 C1831 1.523 . S
H1833 C1808 0.950 . S
H1834 C1810 0.950 . S
H1835 C1811 0.949 . S
H1836 C1813 0.950 . S
H1837 C1815 0.950 . S
C1838 C1839 1.349 . S
C1838 C1840 1.327 . S
C1838 H1863 0.950 . S
C1839 C1838 1.349 . S
C1839 C1855 1.349 . S
C1840 C1838 1.327 . S
C1840 C1859 1.429 . S
C1840 H1864 0.950 . S
C1841 C1858 1.574 . S
C1841 C1860 1.368 . S
C1841 H1865 0.949 . S
H1842 C1846 0.949 . S
C1843 C1844 1.349 . S
C1843 C1845 1.327 . S
C1843 H1866 0.950 . S
C1844 C1843 1.349 . S
C1844 C1856 1.349 . S
C1845 C1843 1.327 . S
C1845 C1861 1.429 . S
C1845 H1867 0.950 . S
C1846 H1842 0.949 . S
C1846 C1854 1.574 . S
C1846 C1862 1.368 . S
H1847 C1855 0.950 . S
H1848 C1853 0.950 . S
H1849 C1854 0.949 . S
H1850 C1856 0.950 . S
H1851 C1857 0.950 . S
H1852 C1858 0.949 . S
C1853 H1848 0.950 . S
C1853 C1855 1.327 . S
C1853 C1859 1.429 . S
C1854 C1846 1.574 . S
C1854 H1849 0.949 . S
C1854 C1860 1.368 . S
C1855 C1839 1.349 . S
C1855 H1847 0.950 . S
C1855 C1853 1.327 . S
C1856 C1844 1.349 . S
C1856 H1850 0.950 . S
C1856 C1857 1.327 . S
C1857 H1851 0.950 . S
C1857 C1856 1.327 . S
C1857 C1861 1.429 . S
C1858 C1841 1.574 . S
C1858 H1852 0.949 . S
C1858 C1862 1.368 . S
C1859 C1840 1.429 . S
C1859 C1853 1.429 . S
C1859 C1860 1.523 . S
C1860 C1841 1.368 . S
C1860 C1854 1.368 . S
C1860 C1859 1.523 . S
C1861 C1845 1.429 . S
C1861 C1857 1.429 . S
C1861 C1862 1.523 . S
C1862 C1846 1.368 . S
C1862 C1858 1.368 . S
C1862 C1861 1.523 . S
H1863 C1838 0.950 . S
H1864 C1840 0.950 . S
H1865 C1841 0.949 . S
H1866 C1843 0.950 . S
H1867 C1845 0.950 . S
C1868 C1869 1.349 1_545 S
C1868 C1870 1.327 . S
C1868 H1893 0.950 . S
C1869 C1868 1.349 1_565 S
C1869 C1885 1.349 . S
C1870 C1868 1.327 . S
C1870 C1889 1.429 1_545 S
C1870 H1894 0.950 . S
C1871 C1888 1.574 . S
C1871 C1890 1.368 . S
C1871 H1895 0.949 . S
H1872 C1876 0.949 . S
C1873 C1874 1.349 . S
C1873 C1875 1.327 . S
C1873 H1896 0.950 . S
C1874 C1873 1.349 . S
C1874 C1886 1.349 1_565 S
C1875 C1873 1.327 . S
C1875 C1891 1.429 . S
C1875 H1897 0.950 . S
C1876 H1872 0.949 . S
C1876 C1884 1.574 . S
C1876 C1892 1.368 1_545 S
H1877 C1885 0.950 . S
H1878 C1883 0.950 . S
H1879 C1884 0.949 . S
H1880 C1886 0.950 . S
H1881 C1887 0.950 . S
H1882 C1888 0.949 . S
C1883 H1878 0.950 . S
C1883 C1885 1.327 . S
C1883 C1889 1.429 . S
C1884 C1876 1.574 . S
C1884 H1879 0.949 . S
C1884 C1890 1.368 1_545 S
C1885 C1869 1.349 . S
C1885 H1877 0.950 . S
C1885 C1883 1.327 . S
C1886 C1874 1.349 1_545 S
C1886 H1880 0.950 . S
C1886 C1887 1.327 . S
C1887 H1881 0.950 . S
C1887 C1886 1.327 . S
C1887 C1891 1.429 1_545 S
C1888 C1871 1.574 . S
C1888 H1882 0.949 . S
C1888 C1892 1.368 . S
C1889 C1870 1.429 1_565 S
C1889 C1883 1.429 . S
C1889 C1890 1.523 . S
C1890 C1871 1.368 . S
C1890 C1884 1.368 1_565 S
C1890 C1889 1.523 . S
C1891 C1875 1.429 . S
C1891 C1887 1.429 1_565 S
C1891 C1892 1.523 . S
C1892 C1876 1.368 1_565 S
C1892 C1888 1.368 . S
C1892 C1891 1.523 . S
H1893 C1868 0.950 . S
H1894 C1870 0.950 . S
H1895 C1871 0.949 . S
H1896 C1873 0.950 . S
H1897 C1875 0.950 . S
C1898 C1899 1.349 . S
C1898 C1900 1.327 . S
C1898 H1923 0.950 . S
C1899 C1898 1.349 . S
C1899 C1915 1.349 . S
C1900 C1898 1.327 . S
C1900 C1919 1.429 . S
C1900 H1924 0.950 . S
C1901 C1918 1.574 . S
C1901 C1920 1.368 . S
C1901 H1925 0.949 . S
H1902 C1906 0.949 . S
C1903 C1904 1.349 . S
C1903 C1905 1.327 . S
C1903 H1926 0.950 . S
C1904 C1903 1.349 . S
C1904 C1916 1.349 . S
C1905 C1903 1.327 . S
C1905 C1921 1.429 . S
C1905 H1927 0.950 . S
C1906 H1902 0.949 . S
C1906 C1914 1.574 . S
C1906 C1922 1.368 . S
H1907 C1915 0.950 . S
H1908 C1913 0.950 . S
H1909 C1914 0.949 . S
H1910 C1916 0.950 . S
H1911 C1917 0.950 . S
H1912 C1918 0.949 . S
C1913 H1908 0.950 . S
C1913 C1915 1.327 . S
C1913 C1919 1.429 . S
C1914 C1906 1.574 . S
C1914 H1909 0.949 . S
C1914 C1920 1.368 . S
C1915 C1899 1.349 . S
C1915 H1907 0.950 . S
C1915 C1913 1.327 . S
C1916 C1904 1.349 . S
C1916 H1910 0.950 . S
C1916 C1917 1.327 . S
C1917 H1911 0.950 . S
C1917 C1916 1.327 . S
C1917 C1921 1.429 . S
C1918 C1901 1.574 . S
C1918 H1912 0.949 . S
C1918 C1922 1.368 . S
C1919 C1900 1.429 . S
C1919 C1913 1.429 . S
C1919 C1920 1.523 . S
C1920 C1901 1.368 . S
C1920 C1914 1.368 . S
C1920 C1919 1.523 . S
C1921 C1905 1.429 . S
C1921 C1917 1.429 . S
C1921 C1922 1.523 . S
C1922 C1906 1.368 . S
C1922 C1918 1.368 . S
C1922 C1921 1.523 . S
H1923 C1898 0.950 . S
H1924 C1900 0.950 . S
H1925 C1901 0.949 . S
H1926 C1903 0.950 . S
H1927 C1905 0.950 . S
C1928 C1929 1.349 . S
C1928 C1930 1.327 . S
C1928 H1953 0.950 . S
C1929 C1928 1.349 . S
C1929 C1945 1.349 1_565 S
C1930 C1928 1.327 . S
C1930 C1949 1.429 . S
C1930 H1954 0.950 . S
C1931 C1948 1.574 . S
C1931 C1950 1.368 1_545 S
C1931 H1955 0.949 . S
H1932 C1936 0.949 . S
C1933 C1934 1.349 . S
C1933 C1935 1.327 1_565 S
C1933 H1956 0.950 1_565 S
C1934 C1933 1.349 . S
C1934 C1946 1.349 . S
C1935 C1933 1.327 1_545 S
C1935 C1951 1.426 1_545 S
C1935 H1957 0.952 . S
C1936 H1932 0.949 . S
C1936 C1944 1.574 . S
C1936 C1952 1.368 . S
H1937 C1945 0.950 . S
H1938 C1943 0.950 . S
H1939 C1944 0.949 . S
H1940 C1946 0.950 . S
H1941 C1947 0.950 . S
H1942 C1948 0.949 . S
C1943 H1938 0.950 . S
C1943 C1945 1.327 . S
C1943 C1949 1.429 1_545 S
C1944 C1936 1.574 . S
C1944 H1939 0.949 . S
C1944 C1950 1.368 . S
C1945 C1929 1.349 1_545 S
C1945 H1937 0.950 . S
C1945 C1943 1.327 . S
C1946 C1934 1.349 . S
C1946 H1940 0.950 . S
C1946 C1947 1.327 . S
C1947 H1941 0.950 . S
C1947 C1946 1.327 . S
C1947 C1951 1.429 . S
C1948 C1931 1.574 . S
C1948 H1942 0.949 . S
C1948 C1952 1.368 1_545 S
C1949 C1930 1.429 . S
C1949 C1943 1.429 1_565 S
C1949 C1950 1.523 . S
C1950 C1931 1.368 1_565 S
C1950 C1944 1.368 . S
C1950 C1949 1.523 . S
C1951 C1935 1.426 1_565 S
C1951 C1947 1.429 . S
C1951 C1952 1.523 . S
C1952 C1936 1.368 . S
C1952 C1948 1.368 1_565 S
C1952 C1951 1.523 . S
H1953 C1928 0.950 . S
H1954 C1930 0.950 . S
H1955 C1931 0.949 . S
H1956 C1933 0.950 1_545 S
H1957 C1935 0.952 . S
C1958 C1959 1.349 . S
C1958 C1960 1.327 . S
C1958 H1983 0.950 . S
C1959 C1958 1.349 . S
C1959 C1975 1.349 . S
C1960 C1958 1.327 . S
C1960 C1979 1.429 . S
C1960 H1984 0.950 . S
C1961 C1978 1.574 . S
C1961 C1980 1.368 . S
C1961 H1985 0.949 . S
H1962 C1966 0.949 . S
C1963 C1964 1.349 . S
C1963 C1965 1.327 . S
C1963 H1986 0.950 . S
C1964 C1963 1.349 . S
C1964 C1976 1.349 . S
C1965 C1963 1.327 . S
C1965 C1981 1.429 . S
C1965 H1987 0.950 . S
C1966 H1962 0.949 . S
C1966 C1974 1.574 . S
C1966 C1982 1.368 . S
H1967 C1975 0.950 . S
H1968 C1973 0.950 . S
H1969 C1974 0.949 . S
H1970 C1976 0.950 . S
H1971 C1977 0.950 . S
H1972 C1978 0.949 . S
C1973 H1968 0.950 . S
C1973 C1975 1.327 . S
C1973 C1979 1.429 . S
C1974 C1966 1.574 . S
C1974 H1969 0.949 . S
C1974 C1980 1.368 . S
C1975 C1959 1.349 . S
C1975 H1967 0.950 . S
C1975 C1973 1.327 . S
C1976 C1964 1.349 . S
C1976 H1970 0.950 . S
C1976 C1977 1.327 . S
C1977 H1971 0.950 . S
C1977 C1976 1.327 . S
C1977 C1981 1.429 . S
C1978 C1961 1.574 . S
C1978 H1972 0.949 . S
C1978 C1982 1.368 . S
C1979 C1960 1.429 . S
C1979 C1973 1.429 . S
C1979 C1980 1.523 . S
C1980 C1961 1.368 . S
C1980 C1974 1.368 . S
C1980 C1979 1.523 . S
C1981 C1965 1.429 . S
C1981 C1977 1.429 . S
C1981 C1982 1.523 . S
C1982 C1966 1.368 . S
C1982 C1978 1.368 . S
C1982 C1981 1.523 . S
H1983 C1958 0.950 . S
H1984 C1960 0.950 . S
H1985 C1961 0.949 . S
H1986 C1963 0.950 . S
H1987 C1965 0.950 . S
C1988 C1989 1.349 1_565 S
C1988 C1990 1.327 . S
C1988 H2013 0.950 . S
C1989 C1988 1.349 1_545 S
C1989 C2005 1.349 . S
C1990 C1988 1.327 . S
C1990 C2009 1.429 1_565 S
C1990 H2014 0.950 . S
C1991 C2008 1.574 . S
C1991 C2010 1.368 . S
C1991 H2015 0.949 . S
H1992 C1996 0.949 . S
C1993 C1994 1.349 . S
C1993 C1995 1.327 . S
C1993 H2016 0.950 . S
C1994 C1993 1.349 . S
C1994 C2006 1.349 1_545 S
C1995 C1993 1.327 . S
C1995 C2011 1.429 . S
C1995 H2017 0.950 . S
C1996 H1992 0.949 . S
C1996 C2004 1.574 . S
C1996 C2012 1.368 1_565 S
H1997 C2005 0.950 . S
H1998 C2003 0.950 . S
H1999 C2004 0.949 . S
H2000 C2006 0.950 . S
H2001 C2007 0.950 . S
H2002 C2008 0.949 . S
C2003 H1998 0.950 . S
C2003 C2005 1.327 . S
C2003 C2009 1.429 . S
C2004 C1996 1.574 . S
C2004 H1999 0.949 . S
C2004 C2010 1.368 1_565 S
C2005 C1989 1.349 . S
C2005 H1997 0.950 . S
C2005 C2003 1.327 . S
C2006 C1994 1.349 1_565 S
C2006 H2000 0.950 . S
C2006 C2007 1.327 . S
C2007 H2001 0.950 . S
C2007 C2006 1.327 . S
C2007 C2011 1.429 1_565 S
C2008 C1991 1.574 . S
C2008 H2002 0.949 . S
C2008 C2012 1.368 . S
C2009 C1990 1.429 1_545 S
C2009 C2003 1.429 . S
C2009 C2010 1.523 . S
C2010 C1991 1.368 . S
C2010 C2004 1.368 1_545 S
C2010 C2009 1.523 . S
C2011 C1995 1.429 . S
C2011 C2007 1.429 1_545 S
C2011 C2012 1.523 . S
C2012 C1996 1.368 1_545 S
C2012 C2008 1.368 . S
C2012 C2011 1.523 . S
H2013 C1988 0.950 . S
H2014 C1990 0.950 . S
H2015 C1991 0.949 . S
H2016 C1993 0.950 . S
H2017 C1995 0.950 . S
C2018 C2019 1.349 . S
C2018 C2020 1.327 . S
C2018 H2043 0.950 . S
C2019 C2018 1.349 . S
C2019 C2035 1.349 . S
C2020 C2018 1.327 . S
C2020 C2039 1.429 . S
C2020 H2044 0.950 . S
C2021 C2038 1.574 . S
C2021 C2040 1.368 . S
C2021 H2045 0.949 . S
H2022 C2026 0.949 . S
C2023 C2024 1.349 . S
C2023 C2025 1.327 . S
C2023 H2046 0.950 . S
C2024 C2023 1.349 . S
C2024 C2036 1.349 . S
C2025 C2023 1.327 . S
C2025 C2041 1.429 . S
C2025 H2047 0.950 . S
C2026 H2022 0.949 . S
C2026 C2034 1.574 . S
C2026 C2042 1.368 . S
H2027 C2035 0.950 . S
H2028 C2033 0.950 . S
H2029 C2034 0.949 . S
H2030 C2036 0.950 . S
H2031 C2037 0.950 . S
H2032 C2038 0.949 . S
C2033 H2028 0.950 . S
C2033 C2035 1.327 . S
C2033 C2039 1.429 . S
C2034 C2026 1.574 . S
C2034 H2029 0.949 . S
C2034 C2040 1.368 . S
C2035 C2019 1.349 . S
C2035 H2027 0.950 . S
C2035 C2033 1.327 . S
C2036 C2024 1.349 . S
C2036 H2030 0.950 . S
C2036 C2037 1.327 . S
C2037 H2031 0.950 . S
C2037 C2036 1.327 . S
C2037 C2041 1.429 . S
C2038 C2021 1.574 . S
C2038 H2032 0.949 . S
C2038 C2042 1.368 . S
C2039 C2020 1.429 . S
C2039 C2033 1.429 . S
C2039 C2040 1.523 . S
C2040 C2021 1.368 . S
C2040 C2034 1.368 . S
C2040 C2039 1.523 . S
C2041 C2025 1.429 . S
C2041 C2037 1.429 . S
C2041 C2042 1.523 . S
C2042 C2026 1.368 . S
C2042 C2038 1.368 . S
C2042 C2041 1.523 . S
H2043 C2018 0.950 . S
H2044 C2020 0.950 . S
H2045 C2021 0.949 . S
H2046 C2023 0.950 . S
H2047 C2025 0.950 . S
C2048 C2049 1.349 . S
C2048 C2050 1.327 . S
C2048 H2073 0.950 . S
C2049 C2048 1.349 . S
C2049 C2065 1.349 . S
C2050 C2048 1.327 . S
C2050 C2069 1.429 . S
C2050 H2074 0.950 . S
C2051 C2068 1.574 . S
C2051 C2070 1.368 . S
C2051 H2075 0.949 . S
H2052 C2056 0.949 . S
C2053 C2054 1.349 . S
C2053 C2055 1.327 . S
C2053 H2076 0.950 . S
C2054 C2053 1.349 . S
C2054 C2066 1.349 . S
C2055 C2053 1.327 . S
C2055 C2071 1.429 . S
C2055 H2077 0.950 . S
C2056 H2052 0.949 . S
C2056 C2064 1.574 . S
C2056 C2072 1.368 . S
H2057 C2065 0.950 . S
H2058 C2063 0.950 . S
H2059 C2064 0.949 . S
H2060 C2066 0.950 . S
H2061 C2067 0.950 . S
H2062 C2068 0.949 . S
C2063 H2058 0.950 . S
C2063 C2065 1.327 . S
C2063 C2069 1.429 . S
C2064 C2056 1.574 . S
C2064 H2059 0.949 . S
C2064 C2070 1.368 . S
C2065 C2049 1.349 . S
C2065 H2057 0.950 . S
C2065 C2063 1.327 . S
C2066 C2054 1.349 . S
C2066 H2060 0.950 . S
C2066 C2067 1.327 . S
C2067 H2061 0.950 . S
C2067 C2066 1.327 . S
C2067 C2071 1.429 . S
C2068 C2051 1.574 . S
C2068 H2062 0.949 . S
C2068 C2072 1.368 . S
C2069 C2050 1.429 . S
C2069 C2063 1.429 . S
C2069 C2070 1.523 . S
C2070 C2051 1.368 . S
C2070 C2064 1.368 . S
C2070 C2069 1.523 . S
C2071 C2055 1.429 . S
C2071 C2067 1.429 . S
C2071 C2072 1.523 . S
C2072 C2056 1.368 . S
C2072 C2068 1.368 . S
C2072 C2071 1.523 . S
H2073 C2048 0.950 . S
H2074 C2050 0.950 . S
H2075 C2051 0.949 . S
H2076 C2053 0.950 . S
H2077 C2055 0.950 . S
C2078 C2079 1.349 . S
C2078 C2080 1.327 . S
C2078 H2103 0.950 . S
C2079 C2078 1.349 . S
C2079 C2095 1.349 . S
C2080 C2078 1.327 . S
C2080 C2099 1.429 . S
C2080 H2104 0.950 . S
C2081 C2098 1.574 . S
C2081 C2100 1.368 . S
C2081 H2105 0.949 . S
H2082 C2086 0.949 . S
C2083 C2084 1.349 . S
C2083 C2085 1.327 . S
C2083 H2106 0.950 . S
C2084 C2083 1.349 . S
C2084 C2096 1.349 . S
C2085 C2083 1.327 . S
C2085 C2101 1.429 . S
C2085 H2107 0.950 . S
C2086 H2082 0.949 . S
C2086 C2094 1.574 . S
C2086 C2102 1.368 . S
H2087 C2095 0.950 . S
H2088 C2093 0.950 . S
H2089 C2094 0.949 . S
H2090 C2096 0.950 . S
H2091 C2097 0.950 . S
H2092 C2098 0.949 . S
C2093 H2088 0.950 . S
C2093 C2095 1.327 . S
C2093 C2099 1.429 . S
C2094 C2086 1.574 . S
C2094 H2089 0.949 . S
C2094 C2100 1.368 . S
C2095 C2079 1.349 . S
C2095 H2087 0.950 . S
C2095 C2093 1.327 . S
C2096 C2084 1.349 . S
C2096 H2090 0.950 . S
C2096 C2097 1.327 . S
C2097 H2091 0.950 . S
C2097 C2096 1.327 . S
C2097 C2101 1.429 . S
C2098 C2081 1.574 . S
C2098 H2092 0.949 . S
C2098 C2102 1.368 . S
C2099 C2080 1.429 . S
C2099 C2093 1.429 . S
C2099 C2100 1.523 1_545 S
C2100 C2081 1.368 . S
C2100 C2094 1.368 . S
C2100 C2099 1.523 1_565 S
C2101 C2085 1.429 . S
C2101 C2097 1.429 . S
C2101 C2102 1.523 . S
C2102 C2086 1.368 . S
C2102 C2098 1.368 . S
C2102 C2101 1.523 . S
H2103 C2078 0.950 . S
H2104 C2080 0.950 . S
H2105 C2081 0.949 . S
H2106 C2083 0.950 . S
H2107 C2085 0.950 . S
C2108 C2109 1.349 . S
C2108 C2110 1.327 . S
C2108 H2133 0.950 . S
C2109 C2108 1.349 . S
C2109 C2125 1.349 . S
C2110 C2108 1.327 . S
C2110 C2129 1.429 . S
C2110 H2134 0.950 . S
C2111 C2128 1.574 . S
C2111 C2130 1.368 . S
C2111 H2135 0.949 . S
H2112 C2116 0.949 . S
C2113 C2114 1.349 . S
C2113 C2115 1.327 . S
C2113 H2136 0.950 . S
C2114 C2113 1.349 . S
C2114 C2126 1.349 . S
C2115 C2113 1.327 . S
C2115 C2131 1.429 . S
C2115 H2137 0.950 . S
C2116 H2112 0.949 . S
C2116 C2124 1.574 . S
C2116 C2132 1.368 . S
H2117 C2125 0.950 . S
H2118 C2123 0.950 . S
H2119 C2124 0.949 . S
H2120 C2126 0.950 . S
H2121 C2127 0.950 . S
H2122 C2128 0.949 . S
C2123 H2118 0.950 . S
C2123 C2125 1.327 . S
C2123 C2129 1.429 . S
C2124 C2116 1.574 . S
C2124 H2119 0.949 . S
C2124 C2130 1.368 . S
C2125 C2109 1.349 . S
C2125 H2117 0.950 . S
C2125 C2123 1.327 . S
C2126 C2114 1.349 . S
C2126 H2120 0.950 . S
C2126 C2127 1.327 . S
C2127 H2121 0.950 . S
C2127 C2126 1.327 . S
C2127 C2131 1.429 . S
C2128 C2111 1.574 . S
C2128 H2122 0.949 . S
C2128 C2132 1.368 . S
C2129 C2110 1.429 . S
C2129 C2123 1.429 . S
C2129 C2130 1.523 . S
C2130 C2111 1.368 . S
C2130 C2124 1.368 . S
C2130 C2129 1.523 . S
C2131 C2115 1.429 . S
C2131 C2127 1.429 . S
C2131 C2132 1.523 . S
C2132 C2116 1.368 . S
C2132 C2128 1.368 . S
C2132 C2131 1.523 . S
H2133 C2108 0.950 . S
H2134 C2110 0.950 . S
H2135 C2111 0.949 . S
H2136 C2113 0.950 . S
H2137 C2115 0.950 . S
C2138 C2139 1.349 . S
C2138 C2140 1.327 . S
C2138 H2163 0.950 . S
C2139 C2138 1.349 . S
C2139 C2155 1.349 . S
C2140 C2138 1.327 . S
C2140 C2159 1.429 . S
C2140 H2164 0.950 . S
C2141 C2158 1.574 . S
C2141 C2160 1.368 . S
C2141 H2165 0.949 . S
H2142 C2146 0.949 . S
C2143 C2144 1.349 . S
C2143 C2145 1.327 . S
C2143 H2166 0.950 . S
C2144 C2143 1.349 . S
C2144 C2156 1.349 . S
C2145 C2143 1.327 . S
C2145 C2161 1.429 . S
C2145 H2167 0.950 . S
C2146 H2142 0.949 . S
C2146 C2154 1.574 . S
C2146 C2162 1.368 . S
H2147 C2155 0.950 . S
H2148 C2153 0.950 . S
H2149 C2154 0.949 . S
H2150 C2156 0.950 . S
H2151 C2157 0.950 . S
H2152 C2158 0.949 . S
C2153 H2148 0.950 . S
C2153 C2155 1.327 . S
C2153 C2159 1.429 . S
C2154 C2146 1.574 . S
C2154 H2149 0.949 . S
C2154 C2160 1.368 . S
C2155 C2139 1.349 . S
C2155 H2147 0.950 . S
C2155 C2153 1.327 . S
C2156 C2144 1.349 . S
C2156 H2150 0.950 . S
C2156 C2157 1.327 . S
C2157 H2151 0.950 . S
C2157 C2156 1.327 . S
C2157 C2161 1.429 . S
C2158 C2141 1.574 . S
C2158 H2152 0.949 . S
C2158 C2162 1.368 . S
C2159 C2140 1.429 . S
C2159 C2153 1.429 . S
C2159 C2160 1.523 . S
C2160 C2141 1.368 . S
C2160 C2154 1.368 . S
C2160 C2159 1.523 . S
C2161 C2145 1.429 . S
C2161 C2157 1.429 . S
C2161 C2162 1.523 1_565 S
C2162 C2146 1.368 . S
C2162 C2158 1.368 . S
C2162 C2161 1.523 1_545 S
H2163 C2138 0.950 . S
H2164 C2140 0.950 . S
H2165 C2141 0.949 . S
H2166 C2143 0.950 . S
H2167 C2145 0.950 . S
C2168 C2169 1.349 . S
C2168 C2170 1.327 . S
C2168 H2193 0.950 . S
C2169 C2168 1.349 . S
C2169 C2185 1.349 . S
C2170 C2168 1.327 . S
C2170 C2189 1.429 . S
C2170 H2194 0.950 . S
C2171 C2188 1.574 . S
C2171 C2190 1.368 . S
C2171 H2195 0.949 . S
H2172 C2176 0.949 . S
C2173 C2174 1.349 . S
C2173 C2175 1.327 . S
C2173 H2196 0.950 . S
C2174 C2173 1.349 . S
C2174 C2186 1.349 . S
C2175 C2173 1.327 . S
C2175 C2191 1.429 . S
C2175 H2197 0.950 . S
C2176 H2172 0.949 . S
C2176 C2184 1.574 . S
C2176 C2192 1.368 . S
H2177 C2185 0.950 . S
H2178 C2183 0.950 . S
H2179 C2184 0.949 . S
H2180 C2186 0.950 . S
H2181 C2187 0.950 . S
H2182 C2188 0.949 . S
C2183 H2178 0.950 . S
C2183 C2185 1.327 . S
C2183 C2189 1.429 . S
C2184 C2176 1.574 . S
C2184 H2179 0.949 . S
C2184 C2190 1.368 . S
C2185 C2169 1.349 . S
C2185 H2177 0.950 . S
C2185 C2183 1.327 . S
C2186 C2174 1.349 . S
C2186 H2180 0.950 . S
C2186 C2187 1.327 . S
C2187 H2181 0.950 . S
C2187 C2186 1.327 . S
C2187 C2191 1.429 . S
C2188 C2171 1.574 . S
C2188 H2182 0.949 . S
C2188 C2192 1.368 . S
C2189 C2170 1.429 . S
C2189 C2183 1.429 . S
C2189 C2190 1.523 . S
C2190 C2171 1.368 . S
C2190 C2184 1.368 . S
C2190 C2189 1.523 . S
C2191 C2175 1.429 . S
C2191 C2187 1.429 . S
C2191 C2192 1.523 . S
C2192 C2176 1.368 . S
C2192 C2188 1.368 . S
C2192 C2191 1.523 . S
H2193 C2168 0.950 . S
H2194 C2170 0.950 . S
H2195 C2171 0.949 . S
H2196 C2173 0.950 . S
H2197 C2175 0.950 . S
C2198 C2199 1.349 . S
C2198 C2200 1.327 . S
C2198 H2223 0.950 . S
C2199 C2198 1.349 . S
C2199 C2215 1.349 . S
C2200 C2198 1.327 . S
C2200 C2219 1.429 . S
C2200 H2224 0.950 . S
C2201 C2218 1.574 . S
C2201 C2220 1.368 . S
C2201 H2225 0.949 . S
H2202 C2206 0.949 . S
C2203 C2204 1.349 . S
C2203 C2205 1.327 . S
C2203 H2226 0.950 . S
C2204 C2203 1.349 . S
C2204 C2216 1.349 . S
C2205 C2203 1.327 . S
C2205 C2221 1.429 . S
C2205 H2227 0.950 . S
C2206 H2202 0.949 . S
C2206 C2214 1.574 . S
C2206 C2222 1.368 . S
H2207 C2215 0.950 . S
H2208 C2213 0.950 . S
H2209 C2214 0.949 . S
H2210 C2216 0.950 . S
H2211 C2217 0.950 . S
H2212 C2218 0.949 . S
C2213 H2208 0.950 . S
C2213 C2215 1.327 . S
C2213 C2219 1.429 . S
C2214 C2206 1.574 . S
C2214 H2209 0.949 . S
C2214 C2220 1.368 . S
C2215 C2199 1.349 . S
C2215 H2207 0.950 . S
C2215 C2213 1.327 . S
C2216 C2204 1.349 . S
C2216 H2210 0.950 . S
C2216 C2217 1.327 . S
C2217 H2211 0.950 . S
C2217 C2216 1.327 . S
C2217 C2221 1.429 . S
C2218 C2201 1.574 . S
C2218 H2212 0.949 . S
C2218 C2222 1.368 . S
C2219 C2200 1.429 . S
C2219 C2213 1.429 . S
C2219 C2220 1.523 1_545 S
C2220 C2201 1.368 . S
C2220 C2214 1.368 . S
C2220 C2219 1.523 1_565 S
C2221 C2205 1.429 . S
C2221 C2217 1.429 . S
C2221 C2222 1.523 . S
C2222 C2206 1.368 . S
C2222 C2218 1.368 . S
C2222 C2221 1.523 . S
H2223 C2198 0.950 . S
H2224 C2200 0.950 . S
H2225 C2201 0.949 . S
H2226 C2203 0.950 . S
H2227 C2205 0.950 . S
C2228 C2229 1.349 . S
C2228 C2230 1.327 . S
C2228 H2253 0.950 . S
C2229 C2228 1.349 . S
C2229 C2245 1.349 . S
C2230 C2228 1.327 . S
C2230 C2249 1.429 . S
C2230 H2254 0.950 . S
C2231 C2248 1.574 . S
C2231 C2250 1.368 . S
C2231 H2255 0.949 . S
H2232 C2236 0.949 . S
C2233 C2234 1.349 . S
C2233 C2235 1.327 . S
C2233 H2256 0.950 . S
C2234 C2233 1.349 . S
C2234 C2246 1.349 . S
C2235 C2233 1.327 . S
C2235 C2251 1.429 . S
C2235 H2257 0.950 . S
C2236 H2232 0.949 . S
C2236 C2244 1.574 . S
C2236 C2252 1.368 . S
H2237 C2245 0.950 . S
H2238 C2243 0.950 . S
H2239 C2244 0.949 . S
H2240 C2246 0.950 . S
H2241 C2247 0.950 . S
H2242 C2248 0.949 . S
C2243 H2238 0.950 . S
C2243 C2245 1.327 . S
C2243 C2249 1.429 . S
C2244 C2236 1.574 . S
C2244 H2239 0.949 . S
C2244 C2250 1.368 . S
C2245 C2229 1.349 . S
C2245 H2237 0.950 . S
C2245 C2243 1.327 . S
C2246 C2234 1.349 . S
C2246 H2240 0.950 . S
C2246 C2247 1.327 . S
C2247 H2241 0.950 . S
C2247 C2246 1.327 . S
C2247 C2251 1.429 . S
C2248 C2231 1.574 . S
C2248 H2242 0.949 . S
C2248 C2252 1.368 . S
C2249 C2230 1.429 . S
C2249 C2243 1.429 . S
C2249 C2250 1.523 . S
C2250 C2231 1.368 . S
C2250 C2244 1.368 . S
C2250 C2249 1.523 . S
C2251 C2235 1.429 . S
C2251 C2247 1.429 . S
C2251 C2252 1.523 . S
C2252 C2236 1.368 . S
C2252 C2248 1.368 . S
C2252 C2251 1.523 . S
H2253 C2228 0.950 . S
H2254 C2230 0.950 . S
H2255 C2231 0.949 . S
H2256 C2233 0.950 . S
H2257 C2235 0.950 . S
C2258 C2259 1.349 . S
C2258 C2260 1.327 . S
C2258 H2283 0.950 . S
C2259 C2258 1.349 . S
C2259 C2275 1.349 . S
C2260 C2258 1.327 . S
C2260 C2279 1.429 . S
C2260 H2284 0.950 . S
C2261 C2278 1.574 . S
C2261 C2280 1.368 . S
C2261 H2285 0.949 . S
H2262 C2266 0.949 . S
C2263 C2264 1.349 . S
C2263 C2265 1.327 . S
C2263 H2286 0.950 . S
C2264 C2263 1.349 . S
C2264 C2276 1.349 . S
C2265 C2263 1.327 . S
C2265 C2281 1.429 . S
C2265 H2287 0.950 . S
C2266 H2262 0.949 . S
C2266 C2274 1.574 . S
C2266 C2282 1.368 . S
H2267 C2275 0.950 . S
H2268 C2273 0.950 . S
H2269 C2274 0.949 . S
H2270 C2276 0.950 . S
H2271 C2277 0.950 . S
H2272 C2278 0.949 . S
C2273 H2268 0.950 . S
C2273 C2275 1.327 . S
C2273 C2279 1.429 . S
C2274 C2266 1.574 . S
C2274 H2269 0.949 . S
C2274 C2280 1.368 . S
C2275 C2259 1.349 . S
C2275 H2267 0.950 . S
C2275 C2273 1.327 . S
C2276 C2264 1.349 . S
C2276 H2270 0.950 . S
C2276 C2277 1.327 . S
C2277 H2271 0.950 . S
C2277 C2276 1.327 . S
C2277 C2281 1.429 . S
C2278 C2261 1.574 . S
C2278 H2272 0.949 . S
C2278 C2282 1.368 . S
C2279 C2260 1.429 . S
C2279 C2273 1.429 . S
C2279 C2280 1.523 . S
C2280 C2261 1.368 . S
C2280 C2274 1.368 . S
C2280 C2279 1.523 . S
C2281 C2265 1.429 . S
C2281 C2277 1.429 . S
C2281 C2282 1.523 1_565 S
C2282 C2266 1.368 . S
C2282 C2278 1.368 . S
C2282 C2281 1.523 1_545 S
H2283 C2258 0.950 . S
H2284 C2260 0.950 . S
H2285 C2261 0.949 . S
H2286 C2263 0.950 . S
H2287 C2265 0.950 . S
C2288 C2289 1.349 . S
C2288 C2290 1.327 . S
C2288 H2313 0.950 . S
C2289 C2288 1.349 . S
C2289 C2305 1.349 . S
C2290 C2288 1.327 . S
C2290 C2309 1.429 . S
C2290 H2314 0.950 . S
C2291 C2308 1.574 . S
C2291 C2310 1.368 . S
C2291 H2315 0.949 . S
H2292 C2296 0.949 . S
C2293 C2294 1.349 . S
C2293 C2295 1.327 . S
C2293 H2316 0.950 . S
C2294 C2293 1.349 . S
C2294 C2306 1.349 . S
C2295 C2293 1.327 . S
C2295 C2311 1.429 . S
C2295 H2317 0.950 . S
C2296 H2292 0.949 . S
C2296 C2304 1.574 . S
C2296 C2312 1.368 . S
H2297 C2305 0.950 . S
H2298 C2303 0.950 . S
H2299 C2304 0.949 . S
H2300 C2306 0.950 . S
H2301 C2307 0.950 . S
H2302 C2308 0.949 . S
C2303 H2298 0.950 . S
C2303 C2305 1.327 . S
C2303 C2309 1.429 . S
C2304 C2296 1.574 . S
C2304 H2299 0.949 . S
C2304 C2310 1.368 . S
C2305 C2289 1.349 . S
C2305 H2297 0.950 . S
C2305 C2303 1.327 . S
C2306 C2294 1.349 . S
C2306 H2300 0.950 . S
C2306 C2307 1.327 . S
C2307 H2301 0.950 . S
C2307 C2306 1.327 . S
C2307 C2311 1.429 . S
C2308 C2291 1.574 . S
C2308 H2302 0.949 . S
C2308 C2312 1.368 . S
C2309 C2290 1.429 . S
C2309 C2303 1.429 . S
C2309 C2310 1.523 . S
C2310 C2291 1.368 . S
C2310 C2304 1.368 . S
C2310 C2309 1.523 . S
C2311 C2295 1.429 . S
C2311 C2307 1.429 . S
C2311 C2312 1.523 . S
C2312 C2296 1.368 . S
C2312 C2308 1.368 . S
C2312 C2311 1.523 . S
H2313 C2288 0.950 . S
H2314 C2290 0.950 . S
H2315 C2291 0.949 . S
H2316 C2293 0.950 . S
H2317 C2295 0.950 . S
C2318 C2319 1.349 . S
C2318 C2320 1.327 . S
C2318 H2343 0.950 . S
C2319 C2318 1.349 . S
C2319 C2335 1.349 . S
C2320 C2318 1.327 . S
C2320 C2339 1.429 . S
C2320 H2344 0.950 . S
C2321 C2338 1.574 . S
C2321 C2340 1.368 . S
C2321 H2345 0.949 . S
H2322 C2326 0.949 . S
C2323 C2324 1.349 . S
C2323 C2325 1.327 . S
C2323 H2346 0.950 . S
C2324 C2323 1.349 . S
C2324 C2336 1.349 . S
C2325 C2323 1.327 . S
C2325 C2341 1.429 . S
C2325 H2347 0.950 . S
C2326 H2322 0.949 . S
C2326 C2334 1.574 . S
C2326 C2342 1.368 . S
H2327 C2335 0.950 . S
H2328 C2333 0.950 . S
H2329 C2334 0.949 . S
H2330 C2336 0.950 . S
H2331 C2337 0.950 . S
H2332 C2338 0.949 . S
C2333 H2328 0.950 . S
C2333 C2335 1.327 . S
C2333 C2339 1.429 . S
C2334 C2326 1.574 . S
C2334 H2329 0.949 . S
C2334 C2340 1.368 . S
C2335 C2319 1.349 . S
C2335 H2327 0.950 . S
C2335 C2333 1.327 . S
C2336 C2324 1.349 . S
C2336 H2330 0.950 . S
C2336 C2337 1.327 . S
C2337 H2331 0.950 . S
C2337 C2336 1.327 . S
C2337 C2341 1.429 . S
C2338 C2321 1.574 . S
C2338 H2332 0.949 . S
C2338 C2342 1.368 . S
C2339 C2320 1.429 . S
C2339 C2333 1.429 . S
C2339 C2340 1.523 . S
C2340 C2321 1.368 . S
C2340 C2334 1.368 . S
C2340 C2339 1.523 . S
C2341 C2325 1.429 . S
C2341 C2337 1.429 . S
C2341 C2342 1.523 1_565 S
C2342 C2326 1.368 . S
C2342 C2338 1.368 . S
C2342 C2341 1.523 1_545 S
H2343 C2318 0.950 . S
H2344 C2320 0.950 . S
H2345 C2321 0.949 . S
H2346 C2323 0.950 . S
H2347 C2325 0.950 . S
C2348 C2349 1.349 . S
C2348 C2350 1.327 . S
C2348 H2373 0.950 . S
C2349 C2348 1.349 . S
C2349 C2365 1.349 . S
C2350 C2348 1.327 . S
C2350 C2369 1.429 . S
C2350 H2374 0.950 . S
C2351 C2368 1.574 . S
C2351 C2370 1.368 . S
C2351 H2375 0.949 . S
H2352 C2356 0.949 . S
C2353 C2354 1.349 . S
C2353 C2355 1.327 . S
C2353 H2376 0.950 . S
C2354 C2353 1.349 . S
C2354 C2366 1.349 . S
C2355 C2353 1.327 . S
C2355 C2371 1.429 . S
C2355 H2377 0.950 . S
C2356 H2352 0.949 . S
C2356 C2364 1.574 . S
C2356 C2372 1.368 . S
H2357 C2365 0.950 . S
H2358 C2363 0.950 . S
H2359 C2364 0.949 . S
H2360 C2366 0.950 . S
H2361 C2367 0.950 . S
H2362 C2368 0.949 . S
C2363 H2358 0.950 . S
C2363 C2365 1.327 . S
C2363 C2369 1.429 . S
C2364 C2356 1.574 . S
C2364 H2359 0.949 . S
C2364 C2370 1.368 . S
C2365 C2349 1.349 . S
C2365 H2357 0.950 . S
C2365 C2363 1.327 . S
C2366 C2354 1.349 . S
C2366 H2360 0.950 . S
C2366 C2367 1.327 . S
C2367 H2361 0.950 . S
C2367 C2366 1.327 . S
C2367 C2371 1.429 . S
C2368 C2351 1.574 . S
C2368 H2362 0.949 . S
C2368 C2372 1.368 . S
C2369 C2350 1.429 . S
C2369 C2363 1.429 . S
C2369 C2370 1.523 . S
C2370 C2351 1.368 . S
C2370 C2364 1.368 . S
C2370 C2369 1.523 . S
C2371 C2355 1.429 . S
C2371 C2367 1.429 . S
C2371 C2372 1.523 . S
C2372 C2356 1.368 . S
C2372 C2368 1.368 . S
C2372 C2371 1.523 . S
H2373 C2348 0.950 . S
H2374 C2350 0.950 . S
H2375 C2351 0.949 . S
H2376 C2353 0.950 . S
H2377 C2355 0.950 . S
C2378 C2379 1.349 . S
C2378 C2380 1.327 . S
C2378 H2403 0.950 . S
C2379 C2378 1.349 . S
C2379 C2395 1.349 . S
C2380 C2378 1.327 . S
C2380 C2399 1.429 . S
C2380 H2404 0.950 . S
C2381 C2398 1.574 . S
C2381 C2400 1.368 . S
C2381 H2405 0.949 . S
H2382 C2386 0.949 . S
C2383 C2384 1.349 . S
C2383 C2385 1.327 . S
C2383 H2406 0.950 . S
C2384 C2383 1.349 . S
C2384 C2396 1.349 . S
C2385 C2383 1.327 . S
C2385 C2401 1.429 . S
C2385 H2407 0.950 . S
C2386 H2382 0.949 . S
C2386 C2394 1.574 . S
C2386 C2402 1.368 . S
H2387 C2395 0.950 . S
H2388 C2393 0.950 . S
H2389 C2394 0.949 . S
H2390 C2396 0.950 . S
H2391 C2397 0.950 . S
H2392 C2398 0.949 . S
C2393 H2388 0.950 . S
C2393 C2395 1.327 . S
C2393 C2399 1.429 . S
C2394 C2386 1.574 . S
C2394 H2389 0.949 . S
C2394 C2400 1.368 . S
C2395 C2379 1.349 . S
C2395 H2387 0.950 . S
C2395 C2393 1.327 . S
C2396 C2384 1.349 . S
C2396 H2390 0.950 . S
C2396 C2397 1.327 . S
C2397 H2391 0.950 . S
C2397 C2396 1.327 . S
C2397 C2401 1.429 . S
C2398 C2381 1.574 . S
C2398 H2392 0.949 . S
C2398 C2402 1.368 . S
C2399 C2380 1.429 . S
C2399 C2393 1.429 . S
C2399 C2400 1.523 . S
C2400 C2381 1.368 . S
C2400 C2394 1.368 . S
C2400 C2399 1.523 . S
C2401 C2385 1.429 . S
C2401 C2397 1.429 . S
C2401 C2402 1.523 1_545 S
C2402 C2386 1.368 . S
C2402 C2398 1.368 . S
C2402 C2401 1.523 1_565 S
H2403 C2378 0.950 . S
H2404 C2380 0.950 . S
H2405 C2381 0.949 . S
H2406 C2383 0.950 . S
H2407 C2385 0.950 . S
C2408 C2409 1.349 . S
C2408 C2410 1.327 . S
C2408 H2433 0.950 . S
C2409 C2408 1.349 . S
C2409 C2425 1.349 . S
C2410 C2408 1.327 . S
C2410 C2429 1.429 . S
C2410 H2434 0.950 . S
C2411 C2428 1.574 . S
C2411 C2430 1.368 . S
C2411 H2435 0.949 . S
H2412 C2416 0.949 . S
C2413 C2414 1.349 . S
C2413 C2415 1.327 . S
C2413 H2436 0.950 . S
C2414 C2413 1.349 . S
C2414 C2426 1.349 . S
C2415 C2413 1.327 . S
C2415 C2431 1.429 . S
C2415 H2437 0.950 . S
C2416 H2412 0.949 . S
C2416 C2424 1.574 . S
C2416 C2432 1.368 . S
H2417 C2425 0.950 . S
H2418 C2423 0.950 . S
H2419 C2424 0.949 . S
H2420 C2426 0.950 . S
H2421 C2427 0.950 . S
H2422 C2428 0.949 . S
C2423 H2418 0.950 . S
C2423 C2425 1.327 . S
C2423 C2429 1.429 . S
C2424 C2416 1.574 . S
C2424 H2419 0.949 . S
C2424 C2430 1.368 . S
C2425 C2409 1.349 . S
C2425 H2417 0.950 . S
C2425 C2423 1.327 . S
C2426 C2414 1.349 . S
C2426 H2420 0.950 . S
C2426 C2427 1.327 . S
C2427 H2421 0.950 . S
C2427 C2426 1.327 . S
C2427 C2431 1.429 . S
C2428 C2411 1.574 . S
C2428 H2422 0.949 . S
C2428 C2432 1.368 . S
C2429 C2410 1.429 . S
C2429 C2423 1.429 . S
C2429 C2430 1.523 . S
C2430 C2411 1.368 . S
C2430 C2424 1.368 . S
C2430 C2429 1.523 . S
C2431 C2415 1.429 . S
C2431 C2427 1.429 . S
C2431 C2432 1.523 . S
C2432 C2416 1.368 . S
C2432 C2428 1.368 . S
C2432 C2431 1.523 . S
H2433 C2408 0.950 . S
H2434 C2410 0.950 . S
H2435 C2411 0.949 . S
H2436 C2413 0.950 . S
H2437 C2415 0.950 . S
C2438 C2439 1.349 . S
C2438 C2440 1.327 . S
C2438 H2463 0.950 . S
C2439 C2438 1.349 . S
C2439 C2455 1.349 . S
C2440 C2438 1.327 . S
C2440 C2459 1.429 . S
C2440 H2464 0.950 . S
C2441 C2458 1.574 . S
C2441 C2460 1.368 . S
C2441 H2465 0.949 . S
H2442 C2446 0.949 . S
C2443 C2444 1.349 . S
C2443 C2445 1.327 . S
C2443 H2466 0.950 . S
C2444 C2443 1.349 . S
C2444 C2456 1.349 . S
C2445 C2443 1.327 . S
C2445 C2461 1.429 . S
C2445 H2467 0.950 . S
C2446 H2442 0.949 . S
C2446 C2454 1.574 . S
C2446 C2462 1.368 . S
H2447 C2455 0.950 . S
H2448 C2453 0.950 . S
H2449 C2454 0.949 . S
H2450 C2456 0.950 . S
H2451 C2457 0.950 . S
H2452 C2458 0.949 . S
C2453 H2448 0.950 . S
C2453 C2455 1.327 . S
C2453 C2459 1.429 . S
C2454 C2446 1.574 . S
C2454 H2449 0.949 . S
C2454 C2460 1.368 . S
C2455 C2439 1.349 . S
C2455 H2447 0.950 . S
C2455 C2453 1.327 . S
C2456 C2444 1.349 . S
C2456 H2450 0.950 . S
C2456 C2457 1.327 . S
C2457 H2451 0.950 . S
C2457 C2456 1.327 . S
C2457 C2461 1.429 . S
C2458 C2441 1.574 . S
C2458 H2452 0.949 . S
C2458 C2462 1.368 . S
C2459 C2440 1.429 . S
C2459 C2453 1.429 . S
C2459 C2460 1.523 . S
C2460 C2441 1.368 . S
C2460 C2454 1.368 . S
C2460 C2459 1.523 . S
C2461 C2445 1.429 . S
C2461 C2457 1.429 . S
C2461 C2462 1.523 1_565 S
C2462 C2446 1.368 . S
C2462 C2458 1.368 . S
C2462 C2461 1.523 1_545 S
H2463 C2438 0.950 . S
H2464 C2440 0.950 . S
H2465 C2441 0.949 . S
H2466 C2443 0.950 . S
H2467 C2445 0.950 . S
C2468 C2469 1.349 . S
C2468 C2470 1.327 . S
C2468 H2493 0.950 . S
C2469 C2468 1.349 . S
C2469 C2485 1.349 . S
C2470 C2468 1.327 . S
C2470 C2489 1.429 . S
C2470 H2494 0.950 . S
C2471 C2488 1.574 . S
C2471 C2490 1.368 . S
C2471 H2495 0.949 . S
H2472 C2476 0.949 . S
C2473 C2474 1.349 . S
C2473 C2475 1.327 . S
C2473 H2496 0.950 . S
C2474 C2473 1.349 . S
C2474 C2486 1.349 . S
C2475 C2473 1.327 . S
C2475 C2491 1.429 . S
C2475 H2497 0.950 . S
C2476 H2472 0.949 . S
C2476 C2484 1.574 . S
C2476 C2492 1.368 . S
H2477 C2485 0.950 . S
H2478 C2483 0.950 . S
H2479 C2484 0.949 . S
H2480 C2486 0.950 . S
H2481 C2487 0.950 . S
H2482 C2488 0.949 . S
C2483 H2478 0.950 . S
C2483 C2485 1.327 . S
C2483 C2489 1.429 . S
C2484 C2476 1.574 . S
C2484 H2479 0.949 . S
C2484 C2490 1.368 . S
C2485 C2469 1.349 . S
C2485 H2477 0.950 . S
C2485 C2483 1.327 . S
C2486 C2474 1.349 . S
C2486 H2480 0.950 . S
C2486 C2487 1.327 . S
C2487 H2481 0.950 . S
C2487 C2486 1.327 . S
C2487 C2491 1.429 . S
C2488 C2471 1.574 . S
C2488 H2482 0.949 . S
C2488 C2492 1.368 . S
C2489 C2470 1.429 . S
C2489 C2483 1.429 . S
C2489 C2490 1.523 . S
C2490 C2471 1.368 . S
C2490 C2484 1.368 . S
C2490 C2489 1.523 . S
C2491 C2475 1.429 . S
C2491 C2487 1.429 . S
C2491 C2492 1.523 . S
C2492 C2476 1.368 . S
C2492 C2488 1.368 . S
C2492 C2491 1.523 . S
H2493 C2468 0.950 . S
H2494 C2470 0.950 . S
H2495 C2471 0.949 . S
H2496 C2473 0.950 . S
H2497 C2475 0.950 . S
C2498 C2499 1.349 . S
C2498 C2500 1.327 . S
C2498 H2523 0.950 . S
C2499 C2498 1.349 . S
C2499 C2515 1.349 . S
C2500 C2498 1.327 . S
C2500 C2519 1.429 . S
C2500 H2524 0.950 . S
C2501 C2518 1.574 . S
C2501 C2520 1.368 . S
C2501 H2525 0.949 . S
H2502 C2506 0.949 . S
C2503 C2504 1.349 . S
C2503 C2505 1.327 . S
C2503 H2526 0.950 . S
C2504 C2503 1.349 . S
C2504 C2516 1.349 . S
C2505 C2503 1.327 . S
C2505 C2521 1.429 . S
C2505 H2527 0.950 . S
C2506 H2502 0.949 . S
C2506 C2514 1.574 . S
C2506 C2522 1.368 . S
H2507 C2515 0.950 . S
H2508 C2513 0.950 . S
H2509 C2514 0.949 . S
H2510 C2516 0.950 . S
H2511 C2517 0.950 . S
H2512 C2518 0.949 . S
C2513 H2508 0.950 . S
C2513 C2515 1.327 . S
C2513 C2519 1.429 . S
C2514 C2506 1.574 . S
C2514 H2509 0.949 . S
C2514 C2520 1.368 . S
C2515 C2499 1.349 . S
C2515 H2507 0.950 . S
C2515 C2513 1.327 . S
C2516 C2504 1.349 . S
C2516 H2510 0.950 . S
C2516 C2517 1.327 . S
C2517 H2511 0.950 . S
C2517 C2516 1.327 . S
C2517 C2521 1.429 . S
C2518 C2501 1.574 . S
C2518 H2512 0.949 . S
C2518 C2522 1.368 . S
C2519 C2500 1.429 . S
C2519 C2513 1.429 . S
C2519 C2520 1.523 1_545 S
C2520 C2501 1.368 . S
C2520 C2514 1.368 . S
C2520 C2519 1.523 1_565 S
C2521 C2505 1.429 . S
C2521 C2517 1.429 . S
C2521 C2522 1.523 . S
C2522 C2506 1.368 . S
C2522 C2518 1.368 . S
C2522 C2521 1.523 . S
H2523 C2498 0.950 . S
H2524 C2500 0.950 . S
H2525 C2501 0.949 . S
H2526 C2503 0.950 . S
H2527 C2505 0.950 . S
C2528 C2529 1.349 . S
C2528 C2530 1.327 . S
C2528 H2553 0.950 . S
C2529 C2528 1.349 . S
C2529 C2545 1.349 . S
C2530 C2528 1.327 . S
C2530 C2549 1.429 . S
C2530 H2554 0.950 . S
C2531 C2548 1.574 . S
C2531 C2550 1.368 . S
C2531 H2555 0.949 . S
H2532 C2536 0.949 . S
C2533 C2534 1.349 . S
C2533 C2535 1.327 . S
C2533 H2556 0.950 . S
C2534 C2533 1.349 . S
C2534 C2546 1.349 . S
C2535 C2533 1.327 . S
C2535 C2551 1.429 . S
C2535 H2557 0.950 . S
C2536 H2532 0.949 . S
C2536 C2544 1.574 . S
C2536 C2552 1.368 . S
H2537 C2545 0.950 . S
H2538 C2543 0.950 . S
H2539 C2544 0.949 . S
H2540 C2546 0.950 . S
H2541 C2547 0.950 . S
H2542 C2548 0.949 . S
C2543 H2538 0.950 . S
C2543 C2545 1.327 . S
C2543 C2549 1.429 . S
C2544 C2536 1.574 . S
C2544 H2539 0.949 . S
C2544 C2550 1.368 . S
C2545 C2529 1.349 . S
C2545 H2537 0.950 . S
C2545 C2543 1.327 . S
C2546 C2534 1.349 . S
C2546 H2540 0.950 . S
C2546 C2547 1.327 . S
C2547 H2541 0.950 . S
C2547 C2546 1.327 . S
C2547 C2551 1.429 . S
C2548 C2531 1.574 . S
C2548 H2542 0.949 . S
C2548 C2552 1.368 . S
C2549 C2530 1.429 . S
C2549 C2543 1.429 . S
C2549 C2550 1.523 . S
C2550 C2531 1.368 . S
C2550 C2544 1.368 . S
C2550 C2549 1.523 . S
C2551 C2535 1.429 . S
C2551 C2547 1.429 . S
C2551 C2552 1.523 . S
C2552 C2536 1.368 . S
C2552 C2548 1.368 . S
C2552 C2551 1.523 . S
H2553 C2528 0.950 . S
H2554 C2530 0.950 . S
H2555 C2531 0.949 . S
H2556 C2533 0.950 . S
H2557 C2535 0.950 . S
C2558 C2559 1.349 . S
C2558 C2560 1.327 . S
C2558 H2583 0.950 . S
C2559 C2558 1.349 . S
C2559 C2575 1.349 . S
C2560 C2558 1.327 . S
C2560 C2579 1.429 . S
C2560 H2584 0.950 . S
C2561 C2578 1.574 . S
C2561 C2580 1.368 . S
C2561 H2585 0.949 . S
H2562 C2566 0.949 . S
C2563 C2564 1.349 . S
C2563 C2565 1.327 . S
C2563 H2586 0.950 . S
C2564 C2563 1.349 . S
C2564 C2576 1.349 . S
C2565 C2563 1.327 . S
C2565 C2581 1.429 . S
C2565 H2587 0.950 . S
C2566 H2562 0.949 . S
C2566 C2574 1.574 . S
C2566 C2582 1.368 . S
H2567 C2575 0.950 . S
H2568 C2573 0.950 . S
H2569 C2574 0.949 . S
H2570 C2576 0.950 . S
H2571 C2577 0.950 . S
H2572 C2578 0.949 . S
C2573 H2568 0.950 . S
C2573 C2575 1.327 . S
C2573 C2579 1.429 . S
C2574 C2566 1.574 . S
C2574 H2569 0.949 . S
C2574 C2580 1.368 . S
C2575 C2559 1.349 . S
C2575 H2567 0.950 . S
C2575 C2573 1.327 . S
C2576 C2564 1.349 . S
C2576 H2570 0.950 . S
C2576 C2577 1.327 . S
C2577 H2571 0.950 . S
C2577 C2576 1.327 . S
C2577 C2581 1.429 . S
C2578 C2561 1.574 . S
C2578 H2572 0.949 . S
C2578 C2582 1.368 . S
C2579 C2560 1.429 . S
C2579 C2573 1.429 . S
C2579 C2580 1.523 . S
C2580 C2561 1.368 . S
C2580 C2574 1.368 . S
C2580 C2579 1.523 . S
C2581 C2565 1.429 . S
C2581 C2577 1.429 . S
C2581 C2582 1.523 . S
C2582 C2566 1.368 . S
C2582 C2578 1.368 . S
C2582 C2581 1.523 . S
H2583 C2558 0.950 . S
H2584 C2560 0.950 . S
H2585 C2561 0.949 . S
H2586 C2563 0.950 . S
H2587 C2565 0.950 . S
C2588 C2589 1.349 . S
C2588 C2590 1.327 . S
C2588 H2613 0.950 . S
C2589 C2588 1.349 . S
C2589 C2605 1.349 . S
C2590 C2588 1.327 . S
C2590 C2609 1.429 . S
C2590 H2614 0.950 . S
C2591 C2608 1.574 . S
C2591 C2610 1.368 . S
C2591 H2615 0.949 . S
H2592 C2596 0.949 . S
C2593 C2594 1.349 . S
C2593 C2595 1.327 . S
C2593 H2616 0.950 . S
C2594 C2593 1.349 . S
C2594 C2606 1.349 . S
C2595 C2593 1.327 . S
C2595 C2611 1.429 . S
C2595 H2617 0.950 . S
C2596 H2592 0.949 . S
C2596 C2604 1.574 . S
C2596 C2612 1.368 . S
H2597 C2605 0.950 . S
H2598 C2603 0.950 . S
H2599 C2604 0.949 . S
H2600 C2606 0.950 . S
H2601 C2607 0.950 . S
H2602 C2608 0.949 . S
C2603 H2598 0.950 . S
C2603 C2605 1.327 . S
C2603 C2609 1.429 . S
C2604 C2596 1.574 . S
C2604 H2599 0.949 . S
C2604 C2610 1.368 . S
C2605 C2589 1.349 . S
C2605 H2597 0.950 . S
C2605 C2603 1.327 . S
C2606 C2594 1.349 . S
C2606 H2600 0.950 . S
C2606 C2607 1.327 . S
C2607 H2601 0.950 . S
C2607 C2606 1.327 . S
C2607 C2611 1.429 . S
C2608 C2591 1.574 . S
C2608 H2602 0.949 . S
C2608 C2612 1.368 . S
C2609 C2590 1.429 . S
C2609 C2603 1.429 . S
C2609 C2610 1.523 . S
C2610 C2591 1.368 . S
C2610 C2604 1.368 . S
C2610 C2609 1.523 . S
C2611 C2595 1.429 . S
C2611 C2607 1.429 . S
C2611 C2612 1.523 . S
C2612 C2596 1.368 . S
C2612 C2608 1.368 . S
C2612 C2611 1.523 . S
H2613 C2588 0.950 . S
H2614 C2590 0.950 . S
H2615 C2591 0.949 . S
H2616 C2593 0.950 . S
H2617 C2595 0.950 . S
C2618 C2619 1.349 . S
C2618 C2620 1.327 . S
C2618 H2643 0.950 . S
C2619 C2618 1.349 . S
C2619 C2635 1.349 . S
C2620 C2618 1.327 . S
C2620 C2639 1.429 . S
C2620 H2644 0.950 . S
C2621 C2638 1.574 . S
C2621 C2640 1.368 . S
C2621 H2645 0.949 . S
H2622 C2626 0.949 . S
C2623 C2624 1.349 . S
C2623 C2625 1.327 . S
C2623 H2646 0.950 . S
C2624 C2623 1.349 . S
C2624 C2636 1.349 . S
C2625 C2623 1.327 . S
C2625 C2641 1.429 . S
C2625 H2647 0.950 . S
C2626 H2622 0.949 . S
C2626 C2634 1.574 . S
C2626 C2642 1.368 . S
H2627 C2635 0.950 . S
H2628 C2633 0.950 . S
H2629 C2634 0.949 . S
H2630 C2636 0.950 . S
H2631 C2637 0.950 . S
H2632 C2638 0.949 . S
C2633 H2628 0.950 . S
C2633 C2635 1.327 . S
C2633 C2639 1.429 . S
C2634 C2626 1.574 . S
C2634 H2629 0.949 . S
C2634 C2640 1.368 . S
C2635 C2619 1.349 . S
C2635 H2627 0.950 . S
C2635 C2633 1.327 . S
C2636 C2624 1.349 . S
C2636 H2630 0.950 . S
C2636 C2637 1.327 . S
C2637 H2631 0.950 . S
C2637 C2636 1.327 . S
C2637 C2641 1.429 . S
C2638 C2621 1.574 . S
C2638 H2632 0.949 . S
C2638 C2642 1.368 . S
C2639 C2620 1.429 . S
C2639 C2633 1.429 . S
C2639 C2640 1.523 . S
C2640 C2621 1.368 . S
C2640 C2634 1.368 . S
C2640 C2639 1.523 . S
C2641 C2625 1.429 . S
C2641 C2637 1.429 . S
C2641 C2642 1.523 . S
C2642 C2626 1.368 . S
C2642 C2638 1.368 . S
C2642 C2641 1.523 . S
H2643 C2618 0.950 . S
H2644 C2620 0.950 . S
H2645 C2621 0.949 . S
H2646 C2623 0.950 . S
H2647 C2625 0.950 . S
C2648 C2649 1.349 . S
C2648 C2650 1.327 . S
C2648 H2673 0.950 . S
C2649 C2648 1.349 . S
C2649 C2665 1.349 . S
C2650 C2648 1.327 . S
C2650 C2669 1.429 . S
C2650 H2674 0.950 . S
C2651 C2668 1.574 . S
C2651 C2670 1.368 . S
C2651 H2675 0.949 . S
H2652 C2656 0.949 . S
C2653 C2654 1.349 . S
C2653 C2655 1.327 . S
C2653 H2676 0.950 . S
C2654 C2653 1.349 . S
C2654 C2666 1.349 . S
C2655 C2653 1.327 . S
C2655 C2671 1.429 . S
C2655 H2677 0.950 . S
C2656 H2652 0.949 . S
C2656 C2664 1.574 . S
C2656 C2672 1.368 . S
H2657 C2665 0.950 . S
H2658 C2663 0.950 . S
H2659 C2664 0.949 . S
H2660 C2666 0.950 . S
H2661 C2667 0.950 . S
H2662 C2668 0.949 . S
C2663 H2658 0.950 . S
C2663 C2665 1.327 . S
C2663 C2669 1.429 . S
C2664 C2656 1.574 . S
C2664 H2659 0.949 . S
C2664 C2670 1.368 . S
C2665 C2649 1.349 . S
C2665 H2657 0.950 . S
C2665 C2663 1.327 . S
C2666 C2654 1.349 . S
C2666 H2660 0.950 . S
C2666 C2667 1.327 . S
C2667 H2661 0.950 . S
C2667 C2666 1.327 . S
C2667 C2671 1.429 . S
C2668 C2651 1.574 . S
C2668 H2662 0.949 . S
C2668 C2672 1.368 . S
C2669 C2650 1.429 . S
C2669 C2663 1.429 . S
C2669 C2670 1.523 . S
C2670 C2651 1.368 . S
C2670 C2664 1.368 . S
C2670 C2669 1.523 . S
C2671 C2655 1.429 . S
C2671 C2667 1.429 . S
C2671 C2672 1.523 . S
C2672 C2656 1.368 . S
C2672 C2668 1.368 . S
C2672 C2671 1.523 . S
H2673 C2648 0.950 . S
H2674 C2650 0.950 . S
H2675 C2651 0.949 . S
H2676 C2653 0.950 . S
H2677 C2655 0.950 . S
C2678 C2679 1.349 . S
C2678 C2680 1.327 . S
C2678 H2703 0.950 . S
C2679 C2678 1.349 . S
C2679 C2695 1.349 . S
C2680 C2678 1.327 . S
C2680 C2699 1.429 . S
C2680 H2704 0.950 . S
C2681 C2698 1.574 . S
C2681 C2700 1.368 . S
C2681 H2705 0.949 . S
H2682 C2686 0.949 . S
C2683 C2684 1.349 . S
C2683 C2685 1.327 . S
C2683 H2706 0.950 . S
C2684 C2683 1.349 . S
C2684 C2696 1.349 . S
C2685 C2683 1.327 . S
C2685 C2701 1.429 . S
C2685 H2707 0.950 . S
C2686 H2682 0.949 . S
C2686 C2694 1.574 . S
C2686 C2702 1.368 . S
H2687 C2695 0.950 . S
H2688 C2693 0.950 . S
H2689 C2694 0.949 . S
H2690 C2696 0.950 . S
H2691 C2697 0.950 . S
H2692 C2698 0.949 . S
C2693 H2688 0.950 . S
C2693 C2695 1.327 . S
C2693 C2699 1.429 . S
C2694 C2686 1.574 . S
C2694 H2689 0.949 . S
C2694 C2700 1.368 . S
C2695 C2679 1.349 . S
C2695 H2687 0.950 . S
C2695 C2693 1.327 . S
C2696 C2684 1.349 . S
C2696 H2690 0.950 . S
C2696 C2697 1.327 . S
C2697 H2691 0.950 . S
C2697 C2696 1.327 . S
C2697 C2701 1.429 . S
C2698 C2681 1.574 . S
C2698 H2692 0.949 . S
C2698 C2702 1.368 . S
C2699 C2680 1.429 . S
C2699 C2693 1.429 . S
C2699 C2700 1.523 . S
C2700 C2681 1.368 . S
C2700 C2694 1.368 . S
C2700 C2699 1.523 . S
C2701 C2685 1.429 . S
C2701 C2697 1.429 . S
C2701 C2702 1.523 . S
C2702 C2686 1.368 . S
C2702 C2698 1.368 . S
C2702 C2701 1.523 . S
H2703 C2678 0.950 . S
H2704 C2680 0.950 . S
H2705 C2681 0.949 . S
H2706 C2683 0.950 . S
H2707 C2685 0.950 . S
C2708 C2709 1.349 . S
C2708 C2710 1.327 . S
C2708 H2733 0.950 . S
C2709 C2708 1.349 . S
C2709 C2725 1.349 . S
C2710 C2708 1.327 . S
C2710 C2729 1.429 . S
C2710 H2734 0.950 . S
C2711 C2728 1.574 . S
C2711 C2730 1.368 . S
C2711 H2735 0.949 . S
H2712 C2716 0.949 . S
C2713 C2714 1.349 . S
C2713 C2715 1.327 . S
C2713 H2736 0.950 . S
C2714 C2713 1.349 . S
C2714 C2726 1.349 . S
C2715 C2713 1.327 . S
C2715 C2731 1.429 . S
C2715 H2737 0.950 . S
C2716 H2712 0.949 . S
C2716 C2724 1.574 . S
C2716 C2732 1.368 . S
H2717 C2725 0.950 . S
H2718 C2723 0.950 . S
H2719 C2724 0.949 . S
H2720 C2726 0.950 . S
H2721 C2727 0.950 . S
H2722 C2728 0.949 . S
C2723 H2718 0.950 . S
C2723 C2725 1.327 . S
C2723 C2729 1.429 . S
C2724 C2716 1.574 . S
C2724 H2719 0.949 . S
C2724 C2730 1.368 . S
C2725 C2709 1.349 . S
C2725 H2717 0.950 . S
C2725 C2723 1.327 . S
C2726 C2714 1.349 . S
C2726 H2720 0.950 . S
C2726 C2727 1.327 . S
C2727 H2721 0.950 . S
C2727 C2726 1.327 . S
C2727 C2731 1.429 . S
C2728 C2711 1.574 . S
C2728 H2722 0.949 . S
C2728 C2732 1.368 . S
C2729 C2710 1.429 . S
C2729 C2723 1.429 . S
C2729 C2730 1.523 . S
C2730 C2711 1.368 . S
C2730 C2724 1.368 . S
C2730 C2729 1.523 . S
C2731 C2715 1.429 . S
C2731 C2727 1.429 . S
C2731 C2732 1.523 . S
C2732 C2716 1.368 . S
C2732 C2728 1.368 . S
C2732 C2731 1.523 . S
H2733 C2708 0.950 . S
H2734 C2710 0.950 . S
H2735 C2711 0.949 . S
H2736 C2713 0.950 . S
H2737 C2715 0.950 . S
C2738 C2739 1.349 . S
C2738 C2740 1.327 . S
C2738 H2763 0.950 . S
C2739 C2738 1.349 . S
C2739 C2755 1.349 . S
C2740 C2738 1.327 . S
C2740 C2759 1.429 . S
C2740 H2764 0.950 . S
C2741 C2758 1.574 . S
C2741 C2760 1.368 . S
C2741 H2765 0.949 . S
H2742 C2746 0.949 . S
C2743 C2744 1.349 . S
C2743 C2745 1.327 . S
C2743 H2766 0.950 . S
C2744 C2743 1.349 . S
C2744 C2756 1.349 . S
C2745 C2743 1.327 . S
C2745 C2761 1.429 . S
C2745 H2767 0.950 . S
C2746 H2742 0.949 . S
C2746 C2754 1.574 . S
C2746 C2762 1.368 . S
H2747 C2755 0.950 . S
H2748 C2753 0.950 . S
H2749 C2754 0.949 . S
H2750 C2756 0.950 . S
H2751 C2757 0.950 . S
H2752 C2758 0.949 . S
C2753 H2748 0.950 . S
C2753 C2755 1.327 . S
C2753 C2759 1.429 . S
C2754 C2746 1.574 . S
C2754 H2749 0.949 . S
C2754 C2760 1.368 . S
C2755 C2739 1.349 . S
C2755 H2747 0.950 . S
C2755 C2753 1.327 . S
C2756 C2744 1.349 . S
C2756 H2750 0.950 . S
C2756 C2757 1.327 . S
C2757 H2751 0.950 . S
C2757 C2756 1.327 . S
C2757 C2761 1.429 . S
C2758 C2741 1.574 . S
C2758 H2752 0.949 . S
C2758 C2762 1.368 . S
C2759 C2740 1.429 . S
C2759 C2753 1.429 . S
C2759 C2760 1.523 . S
C2760 C2741 1.368 . S
C2760 C2754 1.368 . S
C2760 C2759 1.523 . S
C2761 C2745 1.429 . S
C2761 C2757 1.429 . S
C2761 C2762 1.523 . S
C2762 C2746 1.368 . S
C2762 C2758 1.368 . S
C2762 C2761 1.523 . S
H2763 C2738 0.950 . S
H2764 C2740 0.950 . S
H2765 C2741 0.949 . S
H2766 C2743 0.950 . S
H2767 C2745 0.950 . S
C2768 C2769 1.349 . S
C2768 C2770 1.327 . S
C2768 H2793 0.950 . S
C2769 C2768 1.349 . S
C2769 C2785 1.349 . S
C2770 C2768 1.327 . S
C2770 C2789 1.429 . S
C2770 H2794 0.950 . S
C2771 C2788 1.574 . S
C2771 C2790 1.368 . S
C2771 H2795 0.949 . S
H2772 C2776 0.949 . S
C2773 C2774 1.349 . S
C2773 C2775 1.327 . S
C2773 H2796 0.950 . S
C2774 C2773 1.349 . S
C2774 C2786 1.349 . S
C2775 C2773 1.327 . S
C2775 C2791 1.429 . S
C2775 H2797 0.950 . S
C2776 H2772 0.949 . S
C2776 C2784 1.574 . S
C2776 C2792 1.368 . S
H2777 C2785 0.950 . S
H2778 C2783 0.950 . S
H2779 C2784 0.949 . S
H2780 C2786 0.950 . S
H2781 C2787 0.950 . S
H2782 C2788 0.949 . S
C2783 H2778 0.950 . S
C2783 C2785 1.327 . S
C2783 C2789 1.429 . S
C2784 C2776 1.574 . S
C2784 H2779 0.949 . S
C2784 C2790 1.368 . S
C2785 C2769 1.349 . S
C2785 H2777 0.950 . S
C2785 C2783 1.327 . S
C2786 C2774 1.349 . S
C2786 H2780 0.950 . S
C2786 C2787 1.327 . S
C2787 H2781 0.950 . S
C2787 C2786 1.327 . S
C2787 C2791 1.429 . S
C2788 C2771 1.574 . S
C2788 H2782 0.949 . S
C2788 C2792 1.368 . S
C2789 C2770 1.429 . S
C2789 C2783 1.429 . S
C2789 C2790 1.523 . S
C2790 C2771 1.368 . S
C2790 C2784 1.368 . S
C2790 C2789 1.523 . S
C2791 C2775 1.429 . S
C2791 C2787 1.429 . S
C2791 C2792 1.523 . S
C2792 C2776 1.368 . S
C2792 C2788 1.368 . S
C2792 C2791 1.523 . S
H2793 C2768 0.950 . S
H2794 C2770 0.950 . S
H2795 C2771 0.949 . S
H2796 C2773 0.950 . S
H2797 C2775 0.950 . S
C2798 C2799 1.349 . S
C2798 C2800 1.327 . S
C2798 H2823 0.950 . S
C2799 C2798 1.349 . S
C2799 C2815 1.349 . S
C2800 C2798 1.327 . S
C2800 C2819 1.429 . S
C2800 H2824 0.950 . S
C2801 C2818 1.574 . S
C2801 C2820 1.368 . S
C2801 H2825 0.949 . S
H2802 C2806 0.949 . S
C2803 C2804 1.349 . S
C2803 C2805 1.327 . S
C2803 H2826 0.950 . S
C2804 C2803 1.349 . S
C2804 C2816 1.349 . S
C2805 C2803 1.327 . S
C2805 C2821 1.429 . S
C2805 H2827 0.950 . S
C2806 H2802 0.949 . S
C2806 C2814 1.574 . S
C2806 C2822 1.368 . S
H2807 C2815 0.950 . S
H2808 C2813 0.950 . S
H2809 C2814 0.949 . S
H2810 C2816 0.950 . S
H2811 C2817 0.950 . S
H2812 C2818 0.949 . S
C2813 H2808 0.950 . S
C2813 C2815 1.327 . S
C2813 C2819 1.429 . S
C2814 C2806 1.574 . S
C2814 H2809 0.949 . S
C2814 C2820 1.368 . S
C2815 C2799 1.349 . S
C2815 H2807 0.950 . S
C2815 C2813 1.327 . S
C2816 C2804 1.349 . S
C2816 H2810 0.950 . S
C2816 C2817 1.327 . S
C2817 H2811 0.950 . S
C2817 C2816 1.327 . S
C2817 C2821 1.429 . S
C2818 C2801 1.574 . S
C2818 H2812 0.949 . S
C2818 C2822 1.368 . S
C2819 C2800 1.429 . S
C2819 C2813 1.429 . S
C2819 C2820 1.523 . S
C2820 C2801 1.368 . S
C2820 C2814 1.368 . S
C2820 C2819 1.523 . S
C2821 C2805 1.429 . S
C2821 C2817 1.429 . S
C2821 C2822 1.523 . S
C2822 C2806 1.368 . S
C2822 C2818 1.368 . S
C2822 C2821 1.523 . S
H2823 C2798 0.950 . S
H2824 C2800 0.950 . S
H2825 C2801 0.949 . S
H2826 C2803 0.950 . S
H2827 C2805 0.950 . S
C2828 C2829 1.349 . S
C2828 C2830 1.327 . S
C2828 H2853 0.950 . S
C2829 C2828 1.349 . S
C2829 C2845 1.349 . S
C2830 C2828 1.327 . S
C2830 C2849 1.429 . S
C2830 H2854 0.950 . S
C2831 C2848 1.574 . S
C2831 C2850 1.368 . S
C2831 H2855 0.949 . S
H2832 C2836 0.949 . S
C2833 C2834 1.349 . S
C2833 C2835 1.327 . S
C2833 H2856 0.950 . S
C2834 C2833 1.349 . S
C2834 C2846 1.349 . S
C2835 C2833 1.327 . S
C2835 C2851 1.429 . S
C2835 H2857 0.950 . S
C2836 H2832 0.949 . S
C2836 C2844 1.574 . S
C2836 C2852 1.368 . S
H2837 C2845 0.950 . S
H2838 C2843 0.950 . S
H2839 C2844 0.949 . S
H2840 C2846 0.950 . S
H2841 C2847 0.950 . S
H2842 C2848 0.949 . S
C2843 H2838 0.950 . S
C2843 C2845 1.327 . S
C2843 C2849 1.429 . S
C2844 C2836 1.574 . S
C2844 H2839 0.949 . S
C2844 C2850 1.368 . S
C2845 C2829 1.349 . S
C2845 H2837 0.950 . S
C2845 C2843 1.327 . S
C2846 C2834 1.349 . S
C2846 H2840 0.950 . S
C2846 C2847 1.327 . S
C2847 H2841 0.950 . S
C2847 C2846 1.327 . S
C2847 C2851 1.429 . S
C2848 C2831 1.574 . S
C2848 H2842 0.949 . S
C2848 C2852 1.368 . S
C2849 C2830 1.429 . S
C2849 C2843 1.429 . S
C2849 C2850 1.523 . S
C2850 C2831 1.368 . S
C2850 C2844 1.368 . S
C2850 C2849 1.523 . S
C2851 C2835 1.429 . S
C2851 C2847 1.429 . S
C2851 C2852 1.523 . S
C2852 C2836 1.368 . S
C2852 C2848 1.368 . S
C2852 C2851 1.523 . S
H2853 C2828 0.950 . S
H2854 C2830 0.950 . S
H2855 C2831 0.949 . S
H2856 C2833 0.950 . S
H2857 C2835 0.950 . S
C2858 C2859 1.349 . S
C2858 C2860 1.327 . S
C2858 H2883 0.950 . S
C2859 C2858 1.349 . S
C2859 C2875 1.349 . S
C2860 C2858 1.327 . S
C2860 C2879 1.429 . S
C2860 H2884 0.950 . S
C2861 C2878 1.574 . S
C2861 C2880 1.368 . S
C2861 H2885 0.949 . S
H2862 C2866 0.949 . S
C2863 C2864 1.349 . S
C2863 C2865 1.327 . S
C2863 H2886 0.950 . S
C2864 C2863 1.349 . S
C2864 C2876 1.349 . S
C2865 C2863 1.327 . S
C2865 C2881 1.429 . S
C2865 H2887 0.950 . S
C2866 H2862 0.949 . S
C2866 C2874 1.574 . S
C2866 C2882 1.368 . S
H2867 C2875 0.950 . S
H2868 C2873 0.950 . S
H2869 C2874 0.949 . S
H2870 C2876 0.950 . S
H2871 C2877 0.950 . S
H2872 C2878 0.949 . S
C2873 H2868 0.950 . S
C2873 C2875 1.327 . S
C2873 C2879 1.429 . S
C2874 C2866 1.574 . S
C2874 H2869 0.949 . S
C2874 C2880 1.368 . S
C2875 C2859 1.349 . S
C2875 H2867 0.950 . S
C2875 C2873 1.327 . S
C2876 C2864 1.349 . S
C2876 H2870 0.950 . S
C2876 C2877 1.327 . S
C2877 H2871 0.950 . S
C2877 C2876 1.327 . S
C2877 C2881 1.429 . S
C2878 C2861 1.574 . S
C2878 H2872 0.949 . S
C2878 C2882 1.368 . S
C2879 C2860 1.429 . S
C2879 C2873 1.429 . S
C2879 C2880 1.523 . S
C2880 C2861 1.368 . S
C2880 C2874 1.368 . S
C2880 C2879 1.523 . S
C2881 C2865 1.429 . S
C2881 C2877 1.429 . S
C2881 C2882 1.523 . S
C2882 C2866 1.368 . S
C2882 C2878 1.368 . S
C2882 C2881 1.523 . S
H2883 C2858 0.950 . S
H2884 C2860 0.950 . S
H2885 C2861 0.949 . S
H2886 C2863 0.950 . S
H2887 C2865 0.950 . S
C2888 C2889 1.349 . S
C2888 C2890 1.327 . S
C2888 H2913 0.950 . S
C2889 C2888 1.349 . S
C2889 C2905 1.349 . S
C2890 C2888 1.327 . S
C2890 C2909 1.429 . S
C2890 H2914 0.950 . S
C2891 C2908 1.574 . S
C2891 C2910 1.368 . S
C2891 H2915 0.949 . S
H2892 C2896 0.949 . S
C2893 C2894 1.349 . S
C2893 C2895 1.327 . S
C2893 H2916 0.950 . S
C2894 C2893 1.349 . S
C2894 C2906 1.349 . S
C2895 C2893 1.327 . S
C2895 C2911 1.429 . S
C2895 H2917 0.950 . S
C2896 H2892 0.949 . S
C2896 C2904 1.574 . S
C2896 C2912 1.368 . S
H2897 C2905 0.950 . S
H2898 C2903 0.950 . S
H2899 C2904 0.949 . S
H2900 C2906 0.950 . S
H2901 C2907 0.950 . S
H2902 C2908 0.949 . S
C2903 H2898 0.950 . S
C2903 C2905 1.327 . S
C2903 C2909 1.429 . S
C2904 C2896 1.574 . S
C2904 H2899 0.949 . S
C2904 C2910 1.368 . S
C2905 C2889 1.349 . S
C2905 H2897 0.950 . S
C2905 C2903 1.327 . S
C2906 C2894 1.349 . S
C2906 H2900 0.950 . S
C2906 C2907 1.327 . S
C2907 H2901 0.950 . S
C2907 C2906 1.327 . S
C2907 C2911 1.429 . S
C2908 C2891 1.574 . S
C2908 H2902 0.949 . S
C2908 C2912 1.368 . S
C2909 C2890 1.429 . S
C2909 C2903 1.429 . S
C2909 C2910 1.523 . S
C2910 C2891 1.368 . S
C2910 C2904 1.368 . S
C2910 C2909 1.523 . S
C2911 C2895 1.429 . S
C2911 C2907 1.429 . S
C2911 C2912 1.523 . S
C2912 C2896 1.368 . S
C2912 C2908 1.368 . S
C2912 C2911 1.523 . S
H2913 C2888 0.950 . S
H2914 C2890 0.950 . S
H2915 C2891 0.949 . S
H2916 C2893 0.950 . S
H2917 C2895 0.950 . S
C2918 C2919 1.349 . S
C2918 C2920 1.327 . S
C2918 H2943 0.950 . S
C2919 C2918 1.349 . S
C2919 C2935 1.349 . S
C2920 C2918 1.327 . S
C2920 C2939 1.429 . S
C2920 H2944 0.950 . S
C2921 C2938 1.574 . S
C2921 C2940 1.368 . S
C2921 H2945 0.949 . S
H2922 C2926 0.949 . S
C2923 C2924 1.349 . S
C2923 C2925 1.327 . S
C2923 H2946 0.950 . S
C2924 C2923 1.349 . S
C2924 C2936 1.349 . S
C2925 C2923 1.327 . S
C2925 C2941 1.429 . S
C2925 H2947 0.950 . S
C2926 H2922 0.949 . S
C2926 C2934 1.574 . S
C2926 C2942 1.368 . S
H2927 C2935 0.950 . S
H2928 C2933 0.950 . S
H2929 C2934 0.949 . S
H2930 C2936 0.950 . S
H2931 C2937 0.950 . S
H2932 C2938 0.949 . S
C2933 H2928 0.950 . S
C2933 C2935 1.327 . S
C2933 C2939 1.429 . S
C2934 C2926 1.574 . S
C2934 H2929 0.949 . S
C2934 C2940 1.368 . S
C2935 C2919 1.349 . S
C2935 H2927 0.950 . S
C2935 C2933 1.327 . S
C2936 C2924 1.349 . S
C2936 H2930 0.950 . S
C2936 C2937 1.327 . S
C2937 H2931 0.950 . S
C2937 C2936 1.327 . S
C2937 C2941 1.429 . S
C2938 C2921 1.574 . S
C2938 H2932 0.949 . S
C2938 C2942 1.368 . S
C2939 C2920 1.429 . S
C2939 C2933 1.429 . S
C2939 C2940 1.523 . S
C2940 C2921 1.368 . S
C2940 C2934 1.368 . S
C2940 C2939 1.523 . S
C2941 C2925 1.429 . S
C2941 C2937 1.429 . S
C2941 C2942 1.523 . S
C2942 C2926 1.368 . S
C2942 C2938 1.368 . S
C2942 C2941 1.523 . S
H2943 C2918 0.950 . S
H2944 C2920 0.950 . S
H2945 C2921 0.949 . S
H2946 C2923 0.950 . S
H2947 C2925 0.950 . S
C2948 C2949 1.349 . S
C2948 C2950 1.327 . S
C2948 H2973 0.950 . S
C2949 C2948 1.349 . S
C2949 C2965 1.349 . S
C2950 C2948 1.327 . S
C2950 C2969 1.429 . S
C2950 H2974 0.950 . S
C2951 C2968 1.574 . S
C2951 C2970 1.368 . S
C2951 H2975 0.949 . S
H2952 C2956 0.949 . S
C2953 C2954 1.349 . S
C2953 C2955 1.327 . S
C2953 H2976 0.950 . S
C2954 C2953 1.349 . S
C2954 C2966 1.349 . S
C2955 C2953 1.327 . S
C2955 C2971 1.429 . S
C2955 H2977 0.950 . S
C2956 H2952 0.949 . S
C2956 C2964 1.574 . S
C2956 C2972 1.368 . S
H2957 C2965 0.950 . S
H2958 C2963 0.950 . S
H2959 C2964 0.949 . S
H2960 C2966 0.950 . S
H2961 C2967 0.950 . S
H2962 C2968 0.949 . S
C2963 H2958 0.950 . S
C2963 C2965 1.327 . S
C2963 C2969 1.429 . S
C2964 C2956 1.574 . S
C2964 H2959 0.949 . S
C2964 C2970 1.368 . S
C2965 C2949 1.349 . S
C2965 H2957 0.950 . S
C2965 C2963 1.327 . S
C2966 C2954 1.349 . S
C2966 H2960 0.950 . S
C2966 C2967 1.327 . S
C2967 H2961 0.950 . S
C2967 C2966 1.327 . S
C2967 C2971 1.429 . S
C2968 C2951 1.574 . S
C2968 H2962 0.949 . S
C2968 C2972 1.368 . S
C2969 C2950 1.429 . S
C2969 C2963 1.429 . S
C2969 C2970 1.523 . S
C2970 C2951 1.368 . S
C2970 C2964 1.368 . S
C2970 C2969 1.523 . S
C2971 C2955 1.429 . S
C2971 C2967 1.429 . S
C2971 C2972 1.523 . S
C2972 C2956 1.368 . S
C2972 C2968 1.368 . S
C2972 C2971 1.523 . S
H2973 C2948 0.950 . S
H2974 C2950 0.950 . S
H2975 C2951 0.949 . S
H2976 C2953 0.950 . S
H2977 C2955 0.950 . S
C2978 C2979 1.349 . S
C2978 C2980 1.327 . S
C2978 H3003 0.950 . S
C2979 C2978 1.349 . S
C2979 C2995 1.349 . S
C2980 C2978 1.327 . S
C2980 C2999 1.429 . S
C2980 H3004 0.950 . S
C2981 C2998 1.574 . S
C2981 C3000 1.368 . S
C2981 H3005 0.949 . S
H2982 C2986 0.949 . S
C2983 C2984 1.349 . S
C2983 C2985 1.327 . S
C2983 H3006 0.950 . S
C2984 C2983 1.349 . S
C2984 C2996 1.349 . S
C2985 C2983 1.327 . S
C2985 C3001 1.429 . S
C2985 H3007 0.950 . S
C2986 H2982 0.949 . S
C2986 C2994 1.574 . S
C2986 C3002 1.368 . S
H2987 C2995 0.950 . S
H2988 C2993 0.950 . S
H2989 C2994 0.949 . S
H2990 C2996 0.950 . S
H2991 C2997 0.950 . S
H2992 C2998 0.949 . S
C2993 H2988 0.950 . S
C2993 C2995 1.327 . S
C2993 C2999 1.429 . S
C2994 C2986 1.574 . S
C2994 H2989 0.949 . S
C2994 C3000 1.368 . S
C2995 C2979 1.349 . S
C2995 H2987 0.950 . S
C2995 C2993 1.327 . S
C2996 C2984 1.349 . S
C2996 H2990 0.950 . S
C2996 C2997 1.327 . S
C2997 H2991 0.950 . S
C2997 C2996 1.327 . S
C2997 C3001 1.429 . S
C2998 C2981 1.574 . S
C2998 H2992 0.949 . S
C2998 C3002 1.368 . S
C2999 C2980 1.429 . S
C2999 C2993 1.429 . S
C2999 C3000 1.523 . S
C3000 C2981 1.368 . S
C3000 C2994 1.368 . S
C3000 C2999 1.523 . S
C3001 C2985 1.429 . S
C3001 C2997 1.429 . S
C3001 C3002 1.523 . S
C3002 C2986 1.368 . S
C3002 C2998 1.368 . S
C3002 C3001 1.523 . S
H3003 C2978 0.950 . S
H3004 C2980 0.950 . S
H3005 C2981 0.949 . S
H3006 C2983 0.950 . S
H3007 C2985 0.950 . S
C3008 C3009 1.349 . S
C3008 C3010 1.327 . S
C3008 H3033 0.950 . S
C3009 C3008 1.349 . S
C3009 C3025 1.349 . S
C3010 C3008 1.327 . S
C3010 C3029 1.429 . S
C3010 H3034 0.950 . S
C3011 C3028 1.574 . S
C3011 C3030 1.368 . S
C3011 H3035 0.949 . S
H3012 C3016 0.949 . S
C3013 C3014 1.349 . S
C3013 C3015 1.327 . S
C3013 H3036 0.950 . S
C3014 C3013 1.349 . S
C3014 C3026 1.349 . S
C3015 C3013 1.327 . S
C3015 C3031 1.429 . S
C3015 H3037 0.950 . S
C3016 H3012 0.949 . S
C3016 C3024 1.574 . S
C3016 C3032 1.368 . S
H3017 C3025 0.950 . S
H3018 C3023 0.950 . S
H3019 C3024 0.949 . S
H3020 C3026 0.950 . S
H3021 C3027 0.950 . S
H3022 C3028 0.949 . S
C3023 H3018 0.950 . S
C3023 C3025 1.327 . S
C3023 C3029 1.429 . S
C3024 C3016 1.574 . S
C3024 H3019 0.949 . S
C3024 C3030 1.368 . S
C3025 C3009 1.349 . S
C3025 H3017 0.950 . S
C3025 C3023 1.327 . S
C3026 C3014 1.349 . S
C3026 H3020 0.950 . S
C3026 C3027 1.327 . S
C3027 H3021 0.950 . S
C3027 C3026 1.327 . S
C3027 C3031 1.429 . S
C3028 C3011 1.574 . S
C3028 H3022 0.949 . S
C3028 C3032 1.368 . S
C3029 C3010 1.429 . S
C3029 C3023 1.429 . S
C3029 C3030 1.523 . S
C3030 C3011 1.368 . S
C3030 C3024 1.368 . S
C3030 C3029 1.523 . S
C3031 C3015 1.429 . S
C3031 C3027 1.429 . S
C3031 C3032 1.523 . S
C3032 C3016 1.368 . S
C3032 C3028 1.368 . S
C3032 C3031 1.523 . S
H3033 C3008 0.950 . S
H3034 C3010 0.950 . S
H3035 C3011 0.949 . S
H3036 C3013 0.950 . S
H3037 C3015 0.950 . S
C3038 C3039 1.349 . S
C3038 C3040 1.327 . S
C3038 H3063 0.950 . S
C3039 C3038 1.349 . S
C3039 C3055 1.349 . S
C3040 C3038 1.327 . S
C3040 C3059 1.429 . S
C3040 H3064 0.950 . S
C3041 C3058 1.574 1_655 S
C3041 C3060 1.368 . S
C3041 H3065 0.949 . S
H3042 C3046 0.949 . S
C3043 C3044 1.349 . S
C3043 C3045 1.327 . S
C3043 H3066 0.950 . S
C3044 C3043 1.349 . S
C3044 C3056 1.349 . S
C3045 C3043 1.327 . S
C3045 C3061 1.429 . S
C3045 H3067 0.950 . S
C3046 H3042 0.949 . S
C3046 C3054 1.574 1_455 S
C3046 C3062 1.368 . S
H3047 C3055 0.950 . S
H3048 C3053 0.950 . S
H3049 C3054 0.949 . S
H3050 C3056 0.950 . S
H3051 C3057 0.950 . S
H3052 C3058 0.949 . S
C3053 H3048 0.950 . S
C3053 C3055 1.327 . S
C3053 C3059 1.429 . S
C3054 C3046 1.574 1_655 S
C3054 H3049 0.949 . S
C3054 C3060 1.368 . S
C3055 C3039 1.349 . S
C3055 H3047 0.950 . S
C3055 C3053 1.327 . S
C3056 C3044 1.349 . S
C3056 H3050 0.950 . S
C3056 C3057 1.327 . S
C3057 H3051 0.950 . S
C3057 C3056 1.327 . S
C3057 C3061 1.429 . S
C3058 C3041 1.574 1_455 S
C3058 H3052 0.949 . S
C3058 C3062 1.368 . S
C3059 C3040 1.429 . S
C3059 C3053 1.429 . S
C3059 C3060 1.523 . S
C3060 C3041 1.368 . S
C3060 C3054 1.368 . S
C3060 C3059 1.523 . S
C3061 C3045 1.429 . S
C3061 C3057 1.429 . S
C3061 C3062 1.523 . S
C3062 C3046 1.368 . S
C3062 C3058 1.368 . S
C3062 C3061 1.523 . S
H3063 C3038 0.950 . S
H3064 C3040 0.950 . S
H3065 C3041 0.949 . S
H3066 C3043 0.950 . S
H3067 C3045 0.950 . S
C3068 C3069 1.349 . S
C3068 C3070 1.327 . S
C3068 H3093 0.950 . S
C3069 C3068 1.349 . S
C3069 C3085 1.349 . S
C3070 C3068 1.327 . S
C3070 C3089 1.429 . S
C3070 H3094 0.950 . S
C3071 C3088 1.574 . S
C3071 C3090 1.368 1_455 S
C3071 H3095 0.949 . S
H3072 C3076 0.949 . S
C3073 C3074 1.349 . S
C3073 C3075 1.327 . S
C3073 H3096 0.950 . S
C3074 C3073 1.349 . S
C3074 C3086 1.349 . S
C3075 C3073 1.327 . S
C3075 C3091 1.429 . S
C3075 H3097 0.950 . S
C3076 H3072 0.949 . S
C3076 C3084 1.574 . S
C3076 C3092 1.368 1_655 S
H3077 C3085 0.950 1_455 S
H3078 C3083 0.940 1_455 S
H3079 C3084 0.949 . S
H3080 C3086 0.950 1_655 S
H3081 C3087 0.940 1_655 S
H3082 C3088 0.949 . S
C3083 H3078 0.940 1_655 S
C3083 C3085 1.331 . S
C3083 C3089 1.435 . S
C3084 C3076 1.574 . S
C3084 H3079 0.949 . S
C3084 C3090 1.368 . S
C3085 C3069 1.349 . S
C3085 H3077 0.950 1_655 S
C3085 C3083 1.331 . S
C3086 C3074 1.349 . S
C3086 H3080 0.950 1_455 S
C3086 C3087 1.331 . S
C3087 H3081 0.940 1_455 S
C3087 C3086 1.331 . S
C3087 C3091 1.435 . S
C3088 C3071 1.574 . S
C3088 H3082 0.949 . S
C3088 C3092 1.368 . S
C3089 C3070 1.429 . S
C3089 C3083 1.435 . S
C3089 C3090 1.523 . S
C3090 C3071 1.368 1_655 S
C3090 C3084 1.368 . S
C3090 C3089 1.523 . S
C3091 C3075 1.429 . S
C3091 C3087 1.435 . S
C3091 C3092 1.523 . S
C3092 C3076 1.368 1_455 S
C3092 C3088 1.368 . S
C3092 C3091 1.523 . S
H3093 C3068 0.950 . S
H3094 C3070 0.950 . S
H3095 C3071 0.949 . S
H3096 C3073 0.950 . S
H3097 C3075 0.950 . S
C3098 C3099 1.349 . S
C3098 C3100 1.327 . S
C3098 H3123 0.950 . S
C3099 C3098 1.349 . S
C3099 C3115 1.349 . S
C3100 C3098 1.327 . S
C3100 C3119 1.429 . S
C3100 H3124 0.950 . S
C3101 C3118 1.574 . S
C3101 C3120 1.368 . S
C3101 H3125 0.949 . S
H3102 C3106 0.949 . S
C3103 C3104 1.349 . S
C3103 C3105 1.327 . S
C3103 H3126 0.950 . S
C3104 C3103 1.349 . S
C3104 C3116 1.349 . S
C3105 C3103 1.327 . S
C3105 C3121 1.429 . S
C3105 H3127 0.950 . S
C3106 H3102 0.949 . S
C3106 C3114 1.574 . S
C3106 C3122 1.368 . S
H3107 C3115 0.950 . S
H3108 C3113 0.950 . S
H3109 C3114 0.949 . S
H3110 C3116 0.950 . S
H3111 C3117 0.950 . S
H3112 C3118 0.949 . S
C3113 H3108 0.950 . S
C3113 C3115 1.327 . S
C3113 C3119 1.429 . S
C3114 C3106 1.574 . S
C3114 H3109 0.949 . S
C3114 C3120 1.368 . S
C3115 C3099 1.349 . S
C3115 H3107 0.950 . S
C3115 C3113 1.327 . S
C3116 C3104 1.349 . S
C3116 H3110 0.950 . S
C3116 C3117 1.327 . S
C3117 H3111 0.950 . S
C3117 C3116 1.327 . S
C3117 C3121 1.429 . S
C3118 C3101 1.574 . S
C3118 H3112 0.949 . S
C3118 C3122 1.368 . S
C3119 C3100 1.429 . S
C3119 C3113 1.429 . S
C3119 C3120 1.523 . S
C3120 C3101 1.368 . S
C3120 C3114 1.368 . S
C3120 C3119 1.523 . S
C3121 C3105 1.429 . S
C3121 C3117 1.429 . S
C3121 C3122 1.523 . S
C3122 C3106 1.368 . S
C3122 C3118 1.368 . S
C3122 C3121 1.523 . S
H3123 C3098 0.950 . S
H3124 C3100 0.950 . S
H3125 C3101 0.949 . S
H3126 C3103 0.950 . S
H3127 C3105 0.950 . S
C3128 C3129 1.349 . S
C3128 C3130 1.327 . S
C3128 H3153 0.950 . S
C3129 C3128 1.349 . S
C3129 C3145 1.349 . S
C3130 C3128 1.327 . S
C3130 C3149 1.429 . S
C3130 H3154 0.950 . S
C3131 C3148 1.574 . S
C3131 C3150 1.368 . S
C3131 H3155 0.949 . S
H3132 C3136 0.949 . S
C3133 C3134 1.349 . S
C3133 C3135 1.327 . S
C3133 H3156 0.950 . S
C3134 C3133 1.349 . S
C3134 C3146 1.349 . S
C3135 C3133 1.327 . S
C3135 C3151 1.429 . S
C3135 H3157 0.950 . S
C3136 H3132 0.949 . S
C3136 C3144 1.574 . S
C3136 C3152 1.368 . S
H3137 C3145 0.950 . S
H3138 C3143 0.950 . S
H3139 C3144 0.949 . S
H3140 C3146 0.950 . S
H3141 C3147 0.950 . S
H3142 C3148 0.949 . S
C3143 H3138 0.950 . S
C3143 C3145 1.327 . S
C3143 C3149 1.429 . S
C3144 C3136 1.574 . S
C3144 H3139 0.949 . S
C3144 C3150 1.368 . S
C3145 C3129 1.349 . S
C3145 H3137 0.950 . S
C3145 C3143 1.327 . S
C3146 C3134 1.349 . S
C3146 H3140 0.950 . S
C3146 C3147 1.327 . S
C3147 H3141 0.950 . S
C3147 C3146 1.327 . S
C3147 C3151 1.429 . S
C3148 C3131 1.574 . S
C3148 H3142 0.949 . S
C3148 C3152 1.368 . S
C3149 C3130 1.429 . S
C3149 C3143 1.429 . S
C3149 C3150 1.523 . S
C3150 C3131 1.368 . S
C3150 C3144 1.368 . S
C3150 C3149 1.523 . S
C3151 C3135 1.429 . S
C3151 C3147 1.429 . S
C3151 C3152 1.523 . S
C3152 C3136 1.368 . S
C3152 C3148 1.368 . S
C3152 C3151 1.523 . S
H3153 C3128 0.950 . S
H3154 C3130 0.950 . S
H3155 C3131 0.949 . S
H3156 C3133 0.950 . S
H3157 C3135 0.950 . S
C3158 C3159 1.349 . S
C3158 C3160 1.327 . S
C3158 H3183 0.950 . S
C3159 C3158 1.349 . S
C3159 C3175 1.349 . S
C3160 C3158 1.327 . S
C3160 C3179 1.429 . S
C3160 H3184 0.950 . S
C3161 C3178 1.574 . S
C3161 C3180 1.368 . S
C3161 H3185 0.949 . S
H3162 C3166 0.949 . S
C3163 C3164 1.349 . S
C3163 C3165 1.327 . S
C3163 H3186 0.950 . S
C3164 C3163 1.349 . S
C3164 C3176 1.349 . S
C3165 C3163 1.327 . S
C3165 C3181 1.429 . S
C3165 H3187 0.950 . S
C3166 H3162 0.949 . S
C3166 C3174 1.574 . S
C3166 C3182 1.368 . S
H3167 C3175 0.950 . S
H3168 C3173 0.950 . S
H3169 C3174 0.949 . S
H3170 C3176 0.950 . S
H3171 C3177 0.950 . S
H3172 C3178 0.949 . S
C3173 H3168 0.950 . S
C3173 C3175 1.327 . S
C3173 C3179 1.429 . S
C3174 C3166 1.574 . S
C3174 H3169 0.949 . S
C3174 C3180 1.368 . S
C3175 C3159 1.349 . S
C3175 H3167 0.950 . S
C3175 C3173 1.327 . S
C3176 C3164 1.349 . S
C3176 H3170 0.950 . S
C3176 C3177 1.327 . S
C3177 H3171 0.950 . S
C3177 C3176 1.327 . S
C3177 C3181 1.429 . S
C3178 C3161 1.574 . S
C3178 H3172 0.949 . S
C3178 C3182 1.368 . S
C3179 C3160 1.429 . S
C3179 C3173 1.429 . S
C3179 C3180 1.523 . S
C3180 C3161 1.368 . S
C3180 C3174 1.368 . S
C3180 C3179 1.523 . S
C3181 C3165 1.429 . S
C3181 C3177 1.429 . S
C3181 C3182 1.523 . S
C3182 C3166 1.368 . S
C3182 C3178 1.368 . S
C3182 C3181 1.523 . S
H3183 C3158 0.950 . S
H3184 C3160 0.950 . S
H3185 C3161 0.949 . S
H3186 C3163 0.950 . S
H3187 C3165 0.950 . S
C3188 C3189 1.349 . S
C3188 C3190 1.327 . S
C3188 H3213 0.950 . S
C3189 C3188 1.349 . S
C3189 C3205 1.349 . S
C3190 C3188 1.327 . S
C3190 C3209 1.429 . S
C3190 H3214 0.950 . S
C3191 C3208 1.574 . S
C3191 C3210 1.368 1_655 S
C3191 H3215 0.949 . S
H3192 C3196 0.949 . S
C3193 C3194 1.349 . S
C3193 C3195 1.327 . S
C3193 H3216 0.950 . S
C3194 C3193 1.349 . S
C3194 C3206 1.349 . S
C3195 C3193 1.327 . S
C3195 C3211 1.429 . S
C3195 H3217 0.950 . S
C3196 H3192 0.949 . S
C3196 C3204 1.574 . S
C3196 C3212 1.368 1_455 S
H3197 C3205 0.950 1_655 S
H3198 C3203 0.940 1_655 S
H3199 C3204 0.949 . S
H3200 C3206 0.950 1_455 S
H3201 C3207 0.940 1_455 S
H3202 C3208 0.949 . S
C3203 H3198 0.940 1_455 S
C3203 C3205 1.331 . S
C3203 C3209 1.435 . S
C3204 C3196 1.574 . S
C3204 H3199 0.949 . S
C3204 C3210 1.368 . S
C3205 C3189 1.349 . S
C3205 H3197 0.950 1_455 S
C3205 C3203 1.331 . S
C3206 C3194 1.349 . S
C3206 H3200 0.950 1_655 S
C3206 C3207 1.331 . S
C3207 H3201 0.940 1_655 S
C3207 C3206 1.331 . S
C3207 C3211 1.435 . S
C3208 C3191 1.574 . S
C3208 H3202 0.949 . S
C3208 C3212 1.368 . S
C3209 C3190 1.429 . S
C3209 C3203 1.435 . S
C3209 C3210 1.523 . S
C3210 C3191 1.368 1_455 S
C3210 C3204 1.368 . S
C3210 C3209 1.523 . S
C3211 C3195 1.429 . S
C3211 C3207 1.435 . S
C3211 C3212 1.523 . S
C3212 C3196 1.368 1_655 S
C3212 C3208 1.368 . S
C3212 C3211 1.523 . S
H3213 C3188 0.950 . S
H3214 C3190 0.950 . S
H3215 C3191 0.949 . S
H3216 C3193 0.950 . S
H3217 C3195 0.950 . S
C3218 C3219 1.349 . S
C3218 C3220 1.327 . S
C3218 H3243 0.950 . S
C3219 C3218 1.349 . S
C3219 C3235 1.349 . S
C3220 C3218 1.327 . S
C3220 C3239 1.429 . S
C3220 H3244 0.950 . S
C3221 C3238 1.574 1_655 S
C3221 C3240 1.368 . S
C3221 H3245 0.949 . S
H3222 C3226 0.949 . S
C3223 C3224 1.349 . S
C3223 C3225 1.327 . S
C3223 H3246 0.950 . S
C3224 C3223 1.349 . S
C3224 C3236 1.349 . S
C3225 C3223 1.327 . S
C3225 C3241 1.429 . S
C3225 H3247 0.950 . S
C3226 H3222 0.949 . S
C3226 C3234 1.574 1_455 S
C3226 C3242 1.368 . S
H3227 C3235 0.950 . S
H3228 C3233 0.950 . S
H3229 C3234 0.949 . S
H3230 C3236 0.950 . S
H3231 C3237 0.950 . S
H3232 C3238 0.949 . S
C3233 H3228 0.950 . S
C3233 C3235 1.327 . S
C3233 C3239 1.429 . S
C3234 C3226 1.574 1_655 S
C3234 H3229 0.949 . S
C3234 C3240 1.368 . S
C3235 C3219 1.349 . S
C3235 H3227 0.950 . S
C3235 C3233 1.327 . S
C3236 C3224 1.349 . S
C3236 H3230 0.950 . S
C3236 C3237 1.327 . S
C3237 H3231 0.950 . S
C3237 C3236 1.327 . S
C3237 C3241 1.429 . S
C3238 C3221 1.574 1_455 S
C3238 H3232 0.949 . S
C3238 C3242 1.368 . S
C3239 C3220 1.429 . S
C3239 C3233 1.429 . S
C3239 C3240 1.523 . S
C3240 C3221 1.368 . S
C3240 C3234 1.368 . S
C3240 C3239 1.523 . S
C3241 C3225 1.429 . S
C3241 C3237 1.429 . S
C3241 C3242 1.523 . S
C3242 C3226 1.368 . S
C3242 C3238 1.368 . S
C3242 C3241 1.523 . S
H3243 C3218 0.950 . S
H3244 C3220 0.950 . S
H3245 C3221 0.949 . S
H3246 C3223 0.950 . S
H3247 C3225 0.950 . S
C3248 C3249 1.349 . S
C3248 C3250 1.327 . S
C3248 H3273 0.950 . S
C3249 C3248 1.349 . S
C3249 C3265 1.349 . S
C3250 C3248 1.327 . S
C3250 C3269 1.429 . S
C3250 H3274 0.950 . S
C3251 C3268 1.574 . S
C3251 C3270 1.368 . S
C3251 H3275 0.949 . S
H3252 C3256 0.949 . S
C3253 C3254 1.349 . S
C3253 C3255 1.327 . S
C3253 H3276 0.950 . S
C3254 C3253 1.349 . S
C3254 C3266 1.349 . S
C3255 C3253 1.327 . S
C3255 C3271 1.429 . S
C3255 H3277 0.950 . S
C3256 H3252 0.949 . S
C3256 C3264 1.574 . S
C3256 C3272 1.368 . S
H3257 C3265 0.950 . S
H3258 C3263 0.950 . S
H3259 C3264 0.949 . S
H3260 C3266 0.950 . S
H3261 C3267 0.950 . S
H3262 C3268 0.949 . S
C3263 H3258 0.950 . S
C3263 C3265 1.327 . S
C3263 C3269 1.429 . S
C3264 C3256 1.574 . S
C3264 H3259 0.949 . S
C3264 C3270 1.368 . S
C3265 C3249 1.349 . S
C3265 H3257 0.950 . S
C3265 C3263 1.327 . S
C3266 C3254 1.349 . S
C3266 H3260 0.950 . S
C3266 C3267 1.327 . S
C3267 H3261 0.950 . S
C3267 C3266 1.327 . S
C3267 C3271 1.429 . S
C3268 C3251 1.574 . S
C3268 H3262 0.949 . S
C3268 C3272 1.368 . S
C3269 C3250 1.429 . S
C3269 C3263 1.429 . S
C3269 C3270 1.523 . S
C3270 C3251 1.368 . S
C3270 C3264 1.368 . S
C3270 C3269 1.523 . S
C3271 C3255 1.429 . S
C3271 C3267 1.429 . S
C3271 C3272 1.523 . S
C3272 C3256 1.368 . S
C3272 C3268 1.368 . S
C3272 C3271 1.523 . S
H3273 C3248 0.950 . S
H3274 C3250 0.950 . S
H3275 C3251 0.949 . S
H3276 C3253 0.950 . S
H3277 C3255 0.950 . S
C3278 C3279 1.349 . S
C3278 C3280 1.327 . S
C3278 H3303 0.950 . S
C3279 C3278 1.349 . S
C3279 C3295 1.349 . S
C3280 C3278 1.327 . S
C3280 C3299 1.429 . S
C3280 H3304 0.950 . S
C3281 C3298 1.574 1_655 S
C3281 C3300 1.368 . S
C3281 H3305 0.949 . S
H3282 C3286 0.949 . S
C3283 C3284 1.349 . S
C3283 C3285 1.327 . S
C3283 H3306 0.950 . S
C3284 C3283 1.349 . S
C3284 C3296 1.349 . S
C3285 C3283 1.327 . S
C3285 C3301 1.429 . S
C3285 H3307 0.950 . S
C3286 H3282 0.949 . S
C3286 C3294 1.574 1_455 S
C3286 C3302 1.368 . S
H3287 C3295 0.950 . S
H3288 C3293 0.950 . S
H3289 C3294 0.949 . S
H3290 C3296 0.950 . S
H3291 C3297 0.950 . S
H3292 C3298 0.949 . S
C3293 H3288 0.950 . S
C3293 C3295 1.327 . S
C3293 C3299 1.429 . S
C3294 C3286 1.574 1_655 S
C3294 H3289 0.949 . S
C3294 C3300 1.368 . S
C3295 C3279 1.349 . S
C3295 H3287 0.950 . S
C3295 C3293 1.327 . S
C3296 C3284 1.349 . S
C3296 H3290 0.950 . S
C3296 C3297 1.327 . S
C3297 H3291 0.950 . S
C3297 C3296 1.327 . S
C3297 C3301 1.429 . S
C3298 C3281 1.574 1_455 S
C3298 H3292 0.949 . S
C3298 C3302 1.368 . S
C3299 C3280 1.429 . S
C3299 C3293 1.429 . S
C3299 C3300 1.523 . S
C3300 C3281 1.368 . S
C3300 C3294 1.368 . S
C3300 C3299 1.523 . S
C3301 C3285 1.429 . S
C3301 C3297 1.429 . S
C3301 C3302 1.523 . S
C3302 C3286 1.368 . S
C3302 C3298 1.368 . S
C3302 C3301 1.523 . S
H3303 C3278 0.950 . S
H3304 C3280 0.950 . S
H3305 C3281 0.949 . S
H3306 C3283 0.950 . S
H3307 C3285 0.950 . S
C3308 C3309 1.349 . S
C3308 C3310 1.327 . S
C3308 H3333 0.950 . S
C3309 C3308 1.349 . S
C3309 C3325 1.349 . S
C3310 C3308 1.327 . S
C3310 C3329 1.429 . S
C3310 H3334 0.950 . S
C3311 C3328 1.574 . S
C3311 C3330 1.368 1_455 S
C3311 H3335 0.949 . S
H3312 C3316 0.949 . S
C3313 C3314 1.349 . S
C3313 C3315 1.327 . S
C3313 H3336 0.950 . S
C3314 C3313 1.349 . S
C3314 C3326 1.349 . S
C3315 C3313 1.327 . S
C3315 C3331 1.429 . S
C3315 H3337 0.950 . S
C3316 H3312 0.949 . S
C3316 C3324 1.574 . S
C3316 C3332 1.368 1_655 S
H3317 C3325 0.950 1_455 S
H3318 C3323 0.940 1_455 S
H3319 C3324 0.949 . S
H3320 C3326 0.950 1_655 S
H3321 C3327 0.940 1_655 S
H3322 C3328 0.949 . S
C3323 H3318 0.940 1_655 S
C3323 C3325 1.331 . S
C3323 C3329 1.435 . S
C3324 C3316 1.574 . S
C3324 H3319 0.949 . S
C3324 C3330 1.368 . S
C3325 C3309 1.349 . S
C3325 H3317 0.950 1_655 S
C3325 C3323 1.331 . S
C3326 C3314 1.349 . S
C3326 H3320 0.950 1_455 S
C3326 C3327 1.331 . S
C3327 H3321 0.940 1_455 S
C3327 C3326 1.331 . S
C3327 C3331 1.435 . S
C3328 C3311 1.574 . S
C3328 H3322 0.949 . S
C3328 C3332 1.368 . S
C3329 C3310 1.429 . S
C3329 C3323 1.435 . S
C3329 C3330 1.523 . S
C3330 C3311 1.368 1_655 S
C3330 C3324 1.368 . S
C3330 C3329 1.523 . S
C3331 C3315 1.429 . S
C3331 C3327 1.435 . S
C3331 C3332 1.523 . S
C3332 C3316 1.368 1_455 S
C3332 C3328 1.368 . S
C3332 C3331 1.523 . S
H3333 C3308 0.950 . S
H3334 C3310 0.950 . S
H3335 C3311 0.949 . S
H3336 C3313 0.950 . S
H3337 C3315 0.950 . S
C3338 C3339 1.349 . S
C3338 C3340 1.327 . S
C3338 H3363 0.950 . S
C3339 C3338 1.349 . S
C3339 C3355 1.349 . S
C3340 C3338 1.327 . S
C3340 C3359 1.429 . S
C3340 H3364 0.950 . S
C3341 C3358 1.574 . S
C3341 C3360 1.368 . S
C3341 H3365 0.949 . S
H3342 C3346 0.949 . S
C3343 C3344 1.349 . S
C3343 C3345 1.327 . S
C3343 H3366 0.950 . S
C3344 C3343 1.349 . S
C3344 C3356 1.349 . S
C3345 C3343 1.327 . S
C3345 C3361 1.429 . S
C3345 H3367 0.950 . S
C3346 H3342 0.949 . S
C3346 C3354 1.574 . S
C3346 C3362 1.368 . S
H3347 C3355 0.950 . S
H3348 C3353 0.950 . S
H3349 C3354 0.949 . S
H3350 C3356 0.950 . S
H3351 C3357 0.950 . S
H3352 C3358 0.949 . S
C3353 H3348 0.950 . S
C3353 C3355 1.327 . S
C3353 C3359 1.429 . S
C3354 C3346 1.574 . S
C3354 H3349 0.949 . S
C3354 C3360 1.368 . S
C3355 C3339 1.349 . S
C3355 H3347 0.950 . S
C3355 C3353 1.327 . S
C3356 C3344 1.349 . S
C3356 H3350 0.950 . S
C3356 C3357 1.327 . S
C3357 H3351 0.950 . S
C3357 C3356 1.327 . S
C3357 C3361 1.429 . S
C3358 C3341 1.574 . S
C3358 H3352 0.949 . S
C3358 C3362 1.368 . S
C3359 C3340 1.429 . S
C3359 C3353 1.429 . S
C3359 C3360 1.523 . S
C3360 C3341 1.368 . S
C3360 C3354 1.368 . S
C3360 C3359 1.523 . S
C3361 C3345 1.429 . S
C3361 C3357 1.429 . S
C3361 C3362 1.523 . S
C3362 C3346 1.368 . S
C3362 C3358 1.368 . S
C3362 C3361 1.523 . S
H3363 C3338 0.950 . S
H3364 C3340 0.950 . S
H3365 C3341 0.949 . S
H3366 C3343 0.950 . S
H3367 C3345 0.950 . S
C3368 C3369 1.349 . S
C3368 C3370 1.327 . S
C3368 H3393 0.950 . S
C3369 C3368 1.349 . S
C3369 C3385 1.349 . S
C3370 C3368 1.327 . S
C3370 C3389 1.429 . S
C3370 H3394 0.950 . S
C3371 C3388 1.574 . S
C3371 C3390 1.368 . S
C3371 H3395 0.949 . S
H3372 C3376 0.949 . S
C3373 C3374 1.349 . S
C3373 C3375 1.327 . S
C3373 H3396 0.950 . S
C3374 C3373 1.349 . S
C3374 C3386 1.349 . S
C3375 C3373 1.327 . S
C3375 C3391 1.429 . S
C3375 H3397 0.950 . S
C3376 H3372 0.949 . S
C3376 C3384 1.574 . S
C3376 C3392 1.368 . S
H3377 C3385 0.950 . S
H3378 C3383 0.950 . S
H3379 C3384 0.949 . S
H3380 C3386 0.950 . S
H3381 C3387 0.950 . S
H3382 C3388 0.949 . S
C3383 H3378 0.950 . S
C3383 C3385 1.327 . S
C3383 C3389 1.429 . S
C3384 C3376 1.574 . S
C3384 H3379 0.949 . S
C3384 C3390 1.368 . S
C3385 C3369 1.349 . S
C3385 H3377 0.950 . S
C3385 C3383 1.327 . S
C3386 C3374 1.349 . S
C3386 H3380 0.950 . S
C3386 C3387 1.327 . S
C3387 H3381 0.950 . S
C3387 C3386 1.327 . S
C3387 C3391 1.429 . S
C3388 C3371 1.574 . S
C3388 H3382 0.949 . S
C3388 C3392 1.368 . S
C3389 C3370 1.429 . S
C3389 C3383 1.429 . S
C3389 C3390 1.523 . S
C3390 C3371 1.368 . S
C3390 C3384 1.368 . S
C3390 C3389 1.523 . S
C3391 C3375 1.429 . S
C3391 C3387 1.429 . S
C3391 C3392 1.523 . S
C3392 C3376 1.368 . S
C3392 C3388 1.368 . S
C3392 C3391 1.523 . S
H3393 C3368 0.950 . S
H3394 C3370 0.950 . S
H3395 C3371 0.949 . S
H3396 C3373 0.950 . S
H3397 C3375 0.950 . S
C3398 C3399 1.349 . S
C3398 C3400 1.327 . S
C3398 H3423 0.950 . S
C3399 C3398 1.349 . S
C3399 C3415 1.349 . S
C3400 C3398 1.327 . S
C3400 C3419 1.429 . S
C3400 H3424 0.950 . S
C3401 C3418 1.574 . S
C3401 C3420 1.368 . S
C3401 H3425 0.949 . S
H3402 C3406 0.949 . S
C3403 C3404 1.349 . S
C3403 C3405 1.327 . S
C3403 H3426 0.950 . S
C3404 C3403 1.349 . S
C3404 C3416 1.349 . S
C3405 C3403 1.327 . S
C3405 C3421 1.429 . S
C3405 H3427 0.950 . S
C3406 H3402 0.949 . S
C3406 C3414 1.574 . S
C3406 C3422 1.368 . S
H3407 C3415 0.950 . S
H3408 C3413 0.950 . S
H3409 C3414 0.949 . S
H3410 C3416 0.950 . S
H3411 C3417 0.950 . S
H3412 C3418 0.949 . S
C3413 H3408 0.950 . S
C3413 C3415 1.327 . S
C3413 C3419 1.429 . S
C3414 C3406 1.574 . S
C3414 H3409 0.949 . S
C3414 C3420 1.368 . S
C3415 C3399 1.349 . S
C3415 H3407 0.950 . S
C3415 C3413 1.327 . S
C3416 C3404 1.349 . S
C3416 H3410 0.950 . S
C3416 C3417 1.327 . S
C3417 H3411 0.950 . S
C3417 C3416 1.327 . S
C3417 C3421 1.429 . S
C3418 C3401 1.574 . S
C3418 H3412 0.949 . S
C3418 C3422 1.368 . S
C3419 C3400 1.429 . S
C3419 C3413 1.429 . S
C3419 C3420 1.523 . S
C3420 C3401 1.368 . S
C3420 C3414 1.368 . S
C3420 C3419 1.523 . S
C3421 C3405 1.429 . S
C3421 C3417 1.429 . S
C3421 C3422 1.523 . S
C3422 C3406 1.368 . S
C3422 C3418 1.368 . S
C3422 C3421 1.523 . S
H3423 C3398 0.950 . S
H3424 C3400 0.950 . S
H3425 C3401 0.949 . S
H3426 C3403 0.950 . S
H3427 C3405 0.950 . S
C3428 C3429 1.349 . S
C3428 C3430 1.331 . S
C3428 H3453 0.950 1_655 S
C3429 C3428 1.349 . S
C3429 C3445 1.349 . S
C3430 C3428 1.331 . S
C3430 C3449 1.435 . S
C3430 H3454 0.940 1_655 S
C3431 C3448 1.574 . S
C3431 C3450 1.368 . S
C3431 H3455 0.949 . S
H3432 C3436 0.949 . S
C3433 C3434 1.349 . S
C3433 C3435 1.331 . S
C3433 H3456 0.950 1_455 S
C3434 C3433 1.349 . S
C3434 C3446 1.349 . S
C3435 C3433 1.331 . S
C3435 C3451 1.435 . S
C3435 H3457 0.940 1_455 S
C3436 H3432 0.949 . S
C3436 C3444 1.574 . S
C3436 C3452 1.368 . S
H3437 C3445 0.950 . S
H3438 C3443 0.950 . S
H3439 C3444 0.949 . S
H3440 C3446 0.950 . S
H3441 C3447 0.950 . S
H3442 C3448 0.949 . S
C3443 H3438 0.950 . S
C3443 C3445 1.327 . S
C3443 C3449 1.429 . S
C3444 C3436 1.574 . S
C3444 H3439 0.949 . S
C3444 C3450 1.368 1_455 S
C3445 C3429 1.349 . S
C3445 H3437 0.950 . S
C3445 C3443 1.327 . S
C3446 C3434 1.349 . S
C3446 H3440 0.950 . S
C3446 C3447 1.327 . S
C3447 H3441 0.950 . S
C3447 C3446 1.327 . S
C3447 C3451 1.429 . S
C3448 C3431 1.574 . S
C3448 H3442 0.949 . S
C3448 C3452 1.368 1_655 S
C3449 C3430 1.435 . S
C3449 C3443 1.429 . S
C3449 C3450 1.523 . S
C3450 C3431 1.368 . S
C3450 C3444 1.368 1_655 S
C3450 C3449 1.523 . S
C3451 C3435 1.435 . S
C3451 C3447 1.429 . S
C3451 C3452 1.523 . S
C3452 C3436 1.368 . S
C3452 C3448 1.368 1_455 S
C3452 C3451 1.523 . S
H3453 C3428 0.950 1_455 S
H3454 C3430 0.940 1_455 S
H3455 C3431 0.949 . S
H3456 C3433 0.950 1_655 S
H3457 C3435 0.940 1_655 S
C3458 C3459 1.349 . S
C3458 C3460 1.327 . S
C3458 H3483 0.950 . S
C3459 C3458 1.349 . S
C3459 C3475 1.349 . S
C3460 C3458 1.327 . S
C3460 C3479 1.429 . S
C3460 H3484 0.950 . S
C3461 C3478 1.574 1_455 S
C3461 C3480 1.368 . S
C3461 H3485 0.949 . S
H3462 C3466 0.949 . S
C3463 C3464 1.349 . S
C3463 C3465 1.327 . S
C3463 H3486 0.950 . S
C3464 C3463 1.349 . S
C3464 C3476 1.349 . S
C3465 C3463 1.327 . S
C3465 C3481 1.429 . S
C3465 H3487 0.950 . S
C3466 H3462 0.949 . S
C3466 C3474 1.574 1_655 S
C3466 C3482 1.368 . S
H3467 C3475 0.950 . S
H3468 C3473 0.950 . S
H3469 C3474 0.949 . S
H3470 C3476 0.950 . S
H3471 C3477 0.950 . S
H3472 C3478 0.949 . S
C3473 H3468 0.950 . S
C3473 C3475 1.327 . S
C3473 C3479 1.429 . S
C3474 C3466 1.574 1_455 S
C3474 H3469 0.949 . S
C3474 C3480 1.368 . S
C3475 C3459 1.349 . S
C3475 H3467 0.950 . S
C3475 C3473 1.327 . S
C3476 C3464 1.349 . S
C3476 H3470 0.950 . S
C3476 C3477 1.327 . S
C3477 H3471 0.950 . S
C3477 C3476 1.327 . S
C3477 C3481 1.429 . S
C3478 C3461 1.574 1_655 S
C3478 H3472 0.949 . S
C3478 C3482 1.368 . S
C3479 C3460 1.429 . S
C3479 C3473 1.429 . S
C3479 C3480 1.523 . S
C3480 C3461 1.368 . S
C3480 C3474 1.368 . S
C3480 C3479 1.523 . S
C3481 C3465 1.429 . S
C3481 C3477 1.429 . S
C3481 C3482 1.523 . S
C3482 C3466 1.368 . S
C3482 C3478 1.368 . S
C3482 C3481 1.523 . S
H3483 C3458 0.950 . S
H3484 C3460 0.950 . S
H3485 C3461 0.949 . S
H3486 C3463 0.950 . S
H3487 C3465 0.950 . S
C1089 C2 1.499 . S
C1094 C274 1.499 . S
C1119 C36 1.499 . S
C1124 C852 1.499 . S
C1149 C342 1.499 . S
C1154 C70 1.499 . S
C1179 C920 1.499 . S
C1184 C104 1.499 . S
C1209 C410 1.499 . S
C1214 C138 1.499 . S
C1239 C172 1.499 . S
C1244 C988 1.499 . S
C1269 C478 1.499 . S
C1274 C206 1.499 . S
C1299 C1056 1.499 . S
C1304 C240 1.499 . S
C1329 C308 1.499 . S
C1334 C580 1.499 . S
C1359 C376 1.499 . S
C1364 C648 1.499 . S
C1389 C716 1.499 . S
C1394 C444 1.499 . S
C1419 C512 1.499 . S
C1424 C784 1.499 . S
C1449 C546 1.499 . S
C1454 C818 1.499 . S
C1479 C886 1.499 . S
C1484 C614 1.499 . S
C1509 C954 1.499 . S
C1514 C682 1.499 . S
C1539 C750 1.499 . S
C1544 C1022 1.499 . S
C1569 C5 0.628 . S
C1574 C485 0.666 . S
C1599 C1063 0.666 . S
C1604 C39 0.628 . S
C1629 C417 0.666 . S
C1634 C73 0.628 . S
C1659 C995 0.666 . S
C1664 C107 0.628 . S
C1689 C349 0.666 . S
C1694 C141 0.628 . S
C1719 C175 0.628 . S
C1724 C927 0.666 . S
C1749 C281 0.666 . S
C1754 C209 0.628 . S
C1779 C243 0.628 . S
C1784 C859 0.666 . S
C1809 C277 0.628 . S
C1814 C213 0.666 . S
C1839 C311 0.628 . S
C1844 C791 0.666 . S
C1869 C345 0.628 . S
C1874 C145 0.666 . S
C1899 C723 0.666 . S
C1904 C379 0.628 . S
C1929 C77 0.666 . S
C1934 C413 0.628 . S
C1959 C655 0.666 . S
C1964 C447 0.628 . S
C1989 C481 0.628 . S
C1994 C9 0.666 . S
C2019 C587 0.666 . S
C2024 C515 0.628 . S
C2049 C549 0.628 . S
C2054 C1029 0.666 . S
C2079 C519 0.666 . S
C2084 C583 0.628 . S
C2109 C961 0.666 . S
C2114 C617 0.628 . S
C2139 C651 0.628 . S
C2144 C451 0.666 . S
C2169 C893 0.666 . S
C2174 C685 0.628 . S
C2199 C383 0.666 . S
C2204 C719 0.628 . S
C2229 C753 0.628 . S
C2234 C825 0.666 . S
C2259 C787 0.628 . S
C2264 C315 0.666 . S
C2289 C821 0.628 . S
C2294 C757 0.666 . S
C2319 C855 0.628 . S
C2324 C247 0.666 . S
C2349 C889 0.628 . S
C2354 C689 0.666 . S
C2379 C923 0.628 . S
C2384 C179 0.666 . S
C2409 C621 0.666 . S
C2414 C957 0.628 . S
C2439 C991 0.628 . S
C2444 C111 0.666 . S
C2469 C553 0.666 . S
C2474 C1025 0.628 . S
C2499 C43 0.666 . S
C2504 C1059 0.628 . S
C2529 C258 1.719 . S
C2534 C20 1.719 . S
C2559 C156 1.718 . S
C2564 C54 1.718 . S
C2589 C88 1.719 . S
C2594 C190 1.719 . S
C2619 C122 1.718 . S
C2624 C224 1.718 . S
C2649 C530 1.719 . S
C2654 C292 1.719 . S
C2679 C326 1.718 . S
C2684 C428 1.718 . S
C2709 C462 1.719 . S
C2714 C360 1.719 . S
C2739 C496 1.718 . S
C2744 C394 1.718 . S
C2769 C564 1.718 . S
C2774 C802 1.718 . S
C2799 C598 1.718 . S
C2804 C700 1.718 . S
C2829 C632 1.718 . S
C2834 C734 1.718 . S
C2859 C768 1.718 . S
C2864 C666 1.718 . S
C2889 C1074 1.718 . S
C2894 C836 1.718 . S
C2919 C972 1.718 . S
C2924 C870 1.718 . S
C2949 C904 1.718 . S
C2954 C1006 1.718 . S
C2979 C938 1.718 . S
C2984 C1040 1.718 . S
C3009 C33 2.152 . S
C3014 C645 2.152 . S
C3039 C679 2.152 . S
C3044 C67 2.152 . S
C3069 C577 2.152 . S
C3074 C101 2.152 . S
C3099 C611 2.152 . S
C3104 C135 2.152 . S
C3129 C781 2.152 . S
C3134 C169 2.152 . S
C3159 C815 2.152 . S
C3164 C203 2.152 . S
C3189 C237 2.152 . S
C3194 C713 2.152 . S
C3219 C747 2.152 . S
C3224 C271 2.152 . S
C3249 C917 2.152 . S
C3254 C305 2.152 . S
C3279 C339 2.152 . S
C3284 C951 2.152 . S
C3309 C373 2.152 . S
C3314 C849 2.152 . S
C3339 C407 2.152 . S
C3344 C883 2.152 . S
C3369 C441 2.152 . S
C3374 C1053 2.152 . S
C3399 C1087 2.152 . S
C3404 C475 2.152 . S
C3429 C509 2.152 . S
C3434 C985 2.152 . S
C3459 C1019 2.152 . S
C3464 C543 2.152 . S
