# Generated by pormake.
# Topology wkl, (6)-cn, num edge types: 1
# Building blocks:
#     Node 0, Type 0, BuildingBlock: OJICUG_clean_sbu_0, # of connection points: 6
#     Node 1, Type 0, BuildingBlock: OJICUG_clean_sbu_0, # of connection points: 6
#     Node 2, Type 0, BuildingBlock: OJICUG_clean_sbu_0, # of connection points: 6
#     Node 3, Type 0, BuildingBlock: OJICUG_clean_sbu_0, # of connection points: 6
#     Node 4, Type 0, BuildingBlock: OJICUG_clean_sbu_0, # of connection points: 6
#     Node 5, Type 0, BuildingBlock: OJICUG_clean_sbu_0, # of connection points: 6
#     Node 6, Type 0, BuildingBlock: OJICUG_clean_sbu_0, # of connection points: 6
#     Node 7, Type 0, BuildingBlock: OJICUG_clean_sbu_0, # of connection points: 6
#     Node 8, Type 0, BuildingBlock: OJICUG_clean_sbu_0, # of connection points: 6
#     Node 9, Type 0, BuildingBlock: OJICUG_clean_sbu_0, # of connection points: 6
#     Node 10, Type 0, BuildingBlock: OJICUG_clean_sbu_0, # of connection points: 6
#     Node 11, Type 0, BuildingBlock: OJICUG_clean_sbu_0, # of connection points: 6
#     Edge 12, Type (0, 0), BuildingBlock: TEMPAE_clean_linker_10, # of connection points: 2
#     Edge 13, Type (0, 0), BuildingBlock: TEMPAE_clean_linker_10, # of connection points: 2
#     Edge 14, Type (0, 0), BuildingBlock: TEMPAE_clean_linker_10, # of connection points: 2
#     Edge 15, Type (0, 0), BuildingBlock: TEMPAE_clean_linker_10, # of connection points: 2
#     Edge 16, Type (0, 0), BuildingBlock: TEMPAE_clean_linker_10, # of connection points: 2
#     Edge 17, Type (0, 0), BuildingBlock: TEMPAE_clean_linker_10, # of connection points: 2
#     Edge 18, Type (0, 0), BuildingBlock: TEMPAE_clean_linker_10, # of connection points: 2
#     Edge 19, Type (0, 0), BuildingBlock: TEMPAE_clean_linker_10, # of connection points: 2
#     Edge 20, Type (0, 0), BuildingBlock: TEMPAE_clean_linker_10, # of connection points: 2
#     Edge 21, Type (0, 0), BuildingBlock: TEMPAE_clean_linker_10, # of connection points: 2
#     Edge 22, Type (0, 0), BuildingBlock: TEMPAE_clean_linker_10, # of connection points: 2
#     Edge 23, Type (0, 0), BuildingBlock: TEMPAE_clean_linker_10, # of connection points: 2
#     Edge 24, Type (0, 0), BuildingBlock: TEMPAE_clean_linker_10, # of connection points: 2
#     Edge 25, Type (0, 0), BuildingBlock: TEMPAE_clean_linker_10, # of connection points: 2
#     Edge 26, Type (0, 0), BuildingBlock: TEMPAE_clean_linker_10, # of connection points: 2
#     Edge 27, Type (0, 0), BuildingBlock: TEMPAE_clean_linker_10, # of connection points: 2
#     Edge 28, Type (0, 0), BuildingBlock: TEMPAE_clean_linker_10, # of connection points: 2
#     Edge 29, Type (0, 0), BuildingBlock: TEMPAE_clean_linker_10, # of connection points: 2
#     Edge 30, Type (0, 0), BuildingBlock: TEMPAE_clean_linker_10, # of connection points: 2
#     Edge 31, Type (0, 0), BuildingBlock: TEMPAE_clean_linker_10, # of connection points: 2
#     Edge 32, Type (0, 0), BuildingBlock: TEMPAE_clean_linker_10, # of connection points: 2
#     Edge 33, Type (0, 0), BuildingBlock: TEMPAE_clean_linker_10, # of connection points: 2
#     Edge 34, Type (0, 0), BuildingBlock: TEMPAE_clean_linker_10, # of connection points: 2
#     Edge 35, Type (0, 0), BuildingBlock: TEMPAE_clean_linker_10, # of connection points: 2
#     Edge 36, Type (0, 0), BuildingBlock: TEMPAE_clean_linker_10, # of connection points: 2
#     Edge 37, Type (0, 0), BuildingBlock: TEMPAE_clean_linker_10, # of connection points: 2
#     Edge 38, Type (0, 0), BuildingBlock: TEMPAE_clean_linker_10, # of connection points: 2
#     Edge 39, Type (0, 0), BuildingBlock: TEMPAE_clean_linker_10, # of connection points: 2
#     Edge 40, Type (0, 0), BuildingBlock: TEMPAE_clean_linker_10, # of connection points: 2
#     Edge 41, Type (0, 0), BuildingBlock: TEMPAE_clean_linker_10, # of connection points: 2
#     Edge 42, Type (0, 0), BuildingBlock: TEMPAE_clean_linker_10, # of connection points: 2
#     Edge 43, Type (0, 0), BuildingBlock: TEMPAE_clean_linker_10, # of connection points: 2
#     Edge 44, Type (0, 0), BuildingBlock: TEMPAE_clean_linker_10, # of connection points: 2
#     Edge 45, Type (0, 0), BuildingBlock: TEMPAE_clean_linker_10, # of connection points: 2
#     Edge 46, Type (0, 0), BuildingBlock: TEMPAE_clean_linker_10, # of connection points: 2
#     Edge 47, Type (0, 0), BuildingBlock: TEMPAE_clean_linker_10, # of connection points: 2
# Relax obj value: 0.345
# Max RMSD: 0.288
# Mean RMSD: 0.288
data_MOF--net-wkl--node1-OJICUG_clean_sbu_0--edge1-TEMPAE_clean_linker_10
_symmetry_space_group_name_H-M    P1
_symmetry_Int_Tables_number       1
_symmetry_cell_setting            triclinic
loop_
_symmetry_equiv_pos_as_xyz
'x, y, z'
_cell_length_a     73.010312
_cell_length_b     73.056002
_cell_length_c     15.926415
_cell_angle_alpha  89.939816
_cell_angle_beta   90.040474
_cell_angle_gamma 119.99269
loop_
_atom_site_label
_atom_site_type_symbol
_atom_site_fract_x
_atom_site_fract_y
_atom_site_fract_z
_atom_type_partial_charge
Sc0 Sc 0.45615 0.08206 0.07977 0.0
Sc1 Sc 0.47986 0.12729 0.95257 0.0
Sc2 Sc 0.42687 0.10604 0.01738 0.0
O3 O 0.45432 0.10516 0.01654 0.0
C4 C 0.40947 0.05636 0.01125 0.0
C5 C 0.48335 0.08626 0.91687 0.0
C6 C 0.44122 0.11561 0.8263 0.0
C7 C 0.501 0.12232 0.1203 0.0
C8 C 0.43035 0.09514 0.20675 0.0
C9 C 0.46139 0.15525 0.02055 0.0
O10 O 0.42713 0.05769 0.02723 0.0
O11 O 0.48624 0.10437 0.8975 0.0
O12 O 0.42658 0.10728 0.88125 0.0
O13 O 0.48543 0.10424 0.13835 0.0
O14 O 0.42548 0.10493 0.15298 0.0
O15 O 0.47688 0.15311 0.99871 0.0
O16 O 0.43998 0.08526 0.18711 0.0
O17 O 0.5015 0.1325 0.05458 0.0
O18 O 0.44262 0.13987 0.02633 0.0
O19 O 0.47305 0.07624 0.98166 0.0
O20 O 0.40677 0.07223 0.01099 0.0
O21 O 0.46078 0.1241 0.84456 0.0
Sc22 Sc 0.36384 0.4678 0.31572 0.0
Sc23 Sc 0.34047 0.48891 0.18483 0.0
Sc24 Sc 0.31149 0.43546 0.24618 0.0
O25 O 0.33862 0.46404 0.24882 0.0
C26 C 0.34646 0.42144 0.2476 0.0
C27 C 0.38575 0.49434 0.14941 0.0
C28 C 0.31532 0.45003 0.05706 0.0
C29 C 0.36621 0.51171 0.35097 0.0
C30 C 0.32473 0.43985 0.43823 0.0
C31 C 0.29393 0.46773 0.25113 0.0
O32 O 0.36152 0.43946 0.26854 0.0
O33 O 0.36991 0.49609 0.12806 0.0
O34 O 0.3107 0.43538 0.11054 0.0
O35 O 0.369 0.49654 0.37212 0.0
O36 O 0.31034 0.43362 0.38226 0.0
O37 O 0.31142 0.48428 0.23622 0.0
O38 O 0.34433 0.45118 0.42149 0.0
O39 O 0.35683 0.5116 0.28359 0.0
O40 O 0.2915 0.44926 0.25085 0.0
O41 O 0.38618 0.4851 0.21662 0.0
O42 O 0.32749 0.41742 0.23989 0.0
O43 O 0.32459 0.46951 0.07714 0.0
Sc44 Sc 0.8923 0.36763 0.36645 0.0
Sc45 Sc 0.84648 0.35018 0.24394 0.0
Sc46 Sc 0.8632 0.3144 0.30568 0.0
O47 O 0.86734 0.34411 0.3052 0.0
C48 C 0.91327 0.34213 0.29369 0.0
C49 C 0.89033 0.39157 0.20192 0.0
C50 C 0.85298 0.31991 0.11585 0.0
C51 C 0.85598 0.37823 0.40931 0.0
C52 C 0.8759 0.32863 0.49517 0.0
C53 C 0.81588 0.30554 0.32258 0.0
O54 O 0.91411 0.35936 0.31339 0.0
O55 O 0.87129 0.37792 0.18481 0.0
O56 O 0.86048 0.31248 0.1698 0.0
O57 O 0.87313 0.37848 0.42572 0.0
O58 O 0.86548 0.31428 0.44112 0.0
O59 O 0.81929 0.32343 0.29749 0.0
O60 O 0.88712 0.34808 0.47561 0.0
O61 O 0.84476 0.36899 0.34511 0.0
O62 O 0.82984 0.30007 0.32322 0.0
O63 O 0.9 0.39015 0.26583 0.0
O64 O 0.89623 0.32448 0.29271 0.0
O65 O 0.84627 0.33243 0.13551 0.0
Sc66 Sc 0.53115 0.90396 0.58713 0.0
Sc67 Sc 0.50646 0.85785 0.46458 0.0
Sc68 Sc 0.55963 0.879 0.52729 0.0
O69 O 0.5324 0.88028 0.52625 0.0
C70 C 0.57784 0.92859 0.51591 0.0
C71 C 0.50442 0.89948 0.42232 0.0
C72 C 0.54449 0.86804 0.33711 0.0
C73 C 0.48573 0.86467 0.62951 0.0
C74 C 0.55637 0.89072 0.71651 0.0
C75 C 0.52441 0.83026 0.54155 0.0
O76 O 0.56055 0.92773 0.53502 0.0
O77 O 0.50071 0.88091 0.40605 0.0
O78 O 0.5593 0.87652 0.39134 0.0
O79 O 0.50151 0.88274 0.64551 0.0
O80 O 0.56166 0.8813 0.66272 0.0
O81 O 0.50896 0.83214 0.51655 0.0
O82 O 0.54656 0.90042 0.69663 0.0
O83 O 0.48504 0.85381 0.56593 0.0
O84 O 0.54329 0.84548 0.54372 0.0
O85 O 0.51505 0.90986 0.48597 0.0
O86 O 0.58019 0.91254 0.51491 0.0
O87 O 0.52502 0.85979 0.35633 0.0
Sc88 Sc 0.62728 0.52895 0.66166 0.0
Sc89 Sc 0.65223 0.50796 0.53814 0.0
Sc90 Sc 0.68047 0.5611 0.60389 0.0
O91 O 0.65328 0.53265 0.60114 0.0
C92 C 0.64622 0.57594 0.59897 0.0
C93 C 0.60718 0.5026 0.49366 0.0
C94 C 0.678 0.54729 0.41343 0.0
C95 C 0.62476 0.48488 0.70042 0.0
C96 C 0.66495 0.55564 0.79283 0.0
C97 C 0.69788 0.52887 0.61585 0.0
O98 O 0.63047 0.55778 0.61325 0.0
O99 O 0.62301 0.50038 0.47758 0.0
O100 O 0.68256 0.56176 0.46785 0.0
O101 O 0.62104 0.49969 0.71761 0.0
O102 O 0.67991 0.56206 0.73944 0.0
O103 O 0.68106 0.51254 0.59256 0.0
O104 O 0.6455 0.54476 0.77232 0.0
O105 O 0.63549 0.48537 0.63675 0.0
O106 O 0.70009 0.54722 0.61636 0.0
O107 O 0.60624 0.51234 0.55831 0.0
O108 O 0.66511 0.5796 0.59737 0.0
O109 O 0.66857 0.52772 0.43214 0.0
Sc110 Sc 0.0955 0.62833 0.87492 0.0
Sc111 Sc 0.14011 0.6419 0.75281 0.0
Sc112 Sc 0.12722 0.68045 0.80852 0.0
O113 O 0.12096 0.65015 0.81206 0.0
C114 C 0.07702 0.65524 0.80186 0.0
C115 C 0.09545 0.60221 0.71388 0.0
C116 C 0.135 0.67269 0.62126 0.0
C117 C 0.12891 0.61458 0.9224 0.0
C118 C 0.11543 0.66859 0.99791 0.0
C119 C 0.17352 0.68643 0.81723 0.0
O120 O 0.07536 0.63726 0.81178 0.0
O121 O 0.11413 0.61569 0.69144 0.0
O122 O 0.12672 0.67984 0.67282 0.0
O123 O 0.11355 0.61728 0.94195 0.0
O124 O 0.12815 0.68183 0.94431 0.0
O125 O 0.16778 0.66703 0.81042 0.0
O126 O 0.10124 0.64987 0.97798 0.0
O127 O 0.13923 0.62155 0.85414 0.0
O128 O 0.16096 0.69356 0.80779 0.0
O129 O 0.08708 0.6041 0.7809 0.0
O130 O 0.09439 0.67244 0.80979 0.0
O131 O 0.14254 0.66101 0.64419 0.0
Sc132 Sc 0.8792 0.57088 0.83486 0.0
Sc133 Sc 0.8575 0.51762 0.89762 0.0
Sc134 Sc 0.9032 0.54166 0.77292 0.0
O135 O 0.87996 0.54337 0.83525 0.0
C136 C 0.89077 0.56787 0.64543 0.0
C137 C 0.83023 0.53607 0.82125 0.0
C138 C 0.86339 0.4968 0.73074 0.0
C139 C 0.86826 0.55577 0.02509 0.0
C140 C 0.92864 0.58791 0.84694 0.0
C141 C 0.89851 0.51437 0.93663 0.0
O142 O 0.88129 0.57301 0.69941 0.0
O143 O 0.83204 0.52055 0.84582 0.0
O144 O 0.88132 0.51258 0.71277 0.0
O145 O 0.87688 0.57055 0.97081 0.0
O146 O 0.92727 0.57042 0.82763 0.0
O147 O 0.88037 0.51148 0.9558 0.0
O148 O 0.91296 0.59092 0.84675 0.0
O149 O 0.85976 0.53629 0.00587 0.0
O150 O 0.90854 0.52459 0.8717 0.0
O151 O 0.84555 0.55492 0.8192 0.0
O152 O 0.90037 0.55794 0.66491 0.0
O153 O 0.85311 0.49606 0.79638 0.0
Sc154 Sc 0.30144 0.85752 0.07129 0.0
Sc155 Sc 0.3391 0.84348 0.12998 0.0
Sc156 Sc 0.3537 0.88755 1.00371 0.0
O157 O 0.33144 0.86281 0.0684 0.0
C158 C 0.31326 0.86897 0.88182 0.0
C159 C 0.29424 0.81069 0.06468 0.0
C160 C 0.36567 0.85285 0.95926 0.0
C161 C 0.30873 0.8497 0.25953 0.0
C162 C 0.32842 0.90775 0.07656 0.0
C163 C 0.37982 0.88741 0.16487 0.0
O164 O 0.2999 0.8565 0.93558 0.0
O165 O 0.3135 0.816 0.07406 0.0
O166 O 0.36319 0.86821 0.9373 0.0
O167 O 0.30186 0.85809 0.20708 0.0
O168 O 0.34605 0.90861 0.06649 0.0
O169 O 0.36572 0.86928 0.19023 0.0
O170 O 0.31077 0.89077 0.0693 0.0
O171 O 0.32024 0.84192 0.23777 0.0
O172 O 0.37819 0.89539 0.09623 0.0
O173 O 0.28747 0.82361 0.07183 0.0
O174 O 0.33219 0.88263 0.90142 0.0
O175 O 0.3591 0.84335 0.02938 0.0
Sc176 Sc 0.43403 0.31083 0.08765 0.0
Sc177 Sc 0.48734 0.34027 0.1539 0.0
Sc178 Sc 0.46625 0.3636 0.02153 0.0
O179 O 0.46252 0.33821 0.08775 0.0
C180 C 0.43899 0.32524 0.89593 0.0
C181 C 0.46657 0.29363 0.08342 0.0
C182 C 0.51063 0.36614 0.9893 0.0
C183 C 0.4483 0.31448 0.27903 0.0
C184 C 0.41932 0.34512 0.089 0.0
C185 C 0.49219 0.3856 0.18797 0.0
O186 O 0.43159 0.31085 0.95193 0.0
O187 O 0.48239 0.31046 0.11019 0.0
O188 O 0.49599 0.37001 0.97078 0.0
O189 O 0.43388 0.30828 0.22334 0.0
O190 O 0.43687 0.36006 0.06287 0.0
O191 O 0.49513 0.37032 0.20622 0.0
O192 O 0.41585 0.3265 0.10161 0.0
O193 O 0.46788 0.32557 0.26187 0.0
O194 O 0.48191 0.38557 0.12335 0.0
O195 O 0.44836 0.29154 0.07346 0.0
O196 O 0.4513 0.34464 0.91285 0.0
O197 O 0.50993 0.3555 0.05365 0.0
Sc198 Sc 0.10949 0.42507 0.37675 0.0
Sc199 Sc 0.12766 0.47758 0.43391 0.0
Sc200 Sc 0.08265 0.45067 0.31001 0.0
O201 O 0.10667 0.45123 0.37345 0.0
C202 C 0.09898 0.42681 0.18773 0.0
C203 C 0.15769 0.46179 0.37427 0.0
C204 C 0.11983 0.49623 0.26362 0.0
C205 C 0.11783 0.43993 0.56441 0.0
C206 C 0.05963 0.40498 0.37981 0.0
C207 C 0.08553 0.47818 0.47057 0.0
O208 O 0.1111 0.4251 0.24107 0.0
O209 O 0.15397 0.47693 0.37824 0.0
O210 O 0.10335 0.47909 0.24297 0.0
O211 O 0.10814 0.42476 0.51241 0.0
O212 O 0.06024 0.42257 0.37373 0.0
O213 O 0.10335 0.48094 0.49439 0.0
O214 O 0.07585 0.40305 0.37059 0.0
O215 O 0.12747 0.45933 0.54197 0.0
O216 O 0.07671 0.46867 0.40276 0.0
O217 O 0.14348 0.44257 0.38257 0.0
O218 O 0.08603 0.43299 0.20793 0.0
O219 O 0.12956 0.49839 0.33267 0.0
Sc220 Sc 0.6855 0.12738 0.54562 0.0
Sc221 Sc 0.64938 0.14359 0.60816 0.0
Sc222 Sc 0.63228 0.09827 0.48434 0.0
O223 O 0.6557 0.12309 0.54613 0.0
C224 C 0.67147 0.11487 0.35632 0.0
C225 C 0.6941 0.1747 0.53122 0.0
C226 C 0.62152 0.13436 0.44193 0.0
C227 C 0.67988 0.13708 0.73551 0.0
C228 C 0.65767 0.07736 0.55733 0.0
C229 C 0.60809 0.09976 0.64908 0.0
O230 O 0.68577 0.12569 0.41008 0.0
O231 O 0.67589 0.1708 0.55426 0.0
O232 O 0.62177 0.11756 0.42391 0.0
O233 O 0.68716 0.12947 0.68154 0.0
O234 O 0.64039 0.0766 0.53927 0.0
O235 O 0.62189 0.11862 0.66791 0.0
O236 O 0.67547 0.09424 0.556 0.0
O237 O 0.66748 0.14396 0.71595 0.0
O238 O 0.60945 0.09051 0.58379 0.0
O239 O 0.69986 0.16094 0.53143 0.0
O240 O 0.65208 0.10331 0.37615 0.0
O241 O 0.6302 0.14515 0.50767 0.0
Sc242 Sc 0.55838 0.68521 0.7394 0.0
Sc243 Sc 0.50547 0.65515 0.80681 0.0
Sc244 Sc 0.52778 0.63195 0.68146 0.0
O245 O 0.53052 0.65741 0.74258 0.0
C246 C 0.55356 0.67007 0.55079 0.0
C247 C 0.52446 0.70062 0.73012 0.0
C248 C 0.483 0.62761 0.64367 0.0
C249 C 0.5448 0.68217 0.93014 0.0
C250 C 0.57474 0.65214 0.74397 0.0
C251 C 0.50185 0.61094 0.8497 0.0
O252 O 0.559 0.68495 0.60386 0.0
O253 O 0.50858 0.68327 0.75203 0.0
O254 O 0.4985 0.62513 0.62425 0.0
O255 O 0.55929 0.687 0.8755 0.0
O256 O 0.5567 0.63601 0.7323 0.0
O257 O 0.49946 0.62654 0.86801 0.0
O258 O 0.57795 0.67088 0.74293 0.0
O259 O 0.52519 0.6723 0.91178 0.0
O260 O 0.51121 0.61033 0.78332 0.0
O261 O 0.54321 0.70381 0.72984 0.0
O262 O 0.54369 0.65061 0.57167 0.0
O263 O 0.48289 0.63748 0.70922 0.0
C264 C 0.4151 0.10047 0.70724 0.0
C265 C 0.43565 0.11441 0.73598 0.0
C266 C 0.41068 0.09728 0.62074 0.0
C267 C 0.4272 0.10826 0.56198 0.0
C268 C 0.44763 0.12328 0.59069 0.0
C269 C 0.45158 0.1262 0.67707 0.0
C270 C 0.38864 0.0813 0.59244 0.0
C271 C 0.46572 0.1354 0.53029 0.0
C272 C 0.4296 0.08401 0.35572 0.0
C273 C 0.42613 0.09635 0.29723 0.0
C274 C 0.4287 0.08688 0.44223 0.0
C275 C 0.42412 0.10245 0.47145 0.0
C276 C 0.41922 0.11402 0.41309 0.0
C277 C 0.42031 0.11086 0.32652 0.0
C278 C 0.434 0.07416 0.50222 0.0
C279 C 0.41405 0.13059 0.44189 0.0
H280 H 0.40266 0.09135 0.75214 0.0
H281 H 0.46745 0.13727 0.69838 0.0
H282 H 0.38356 0.08767 0.5397 0.0
H283 H 0.38853 0.06692 0.56932 0.0
H284 H 0.37695 0.07663 0.64422 0.0
H285 H 0.48013 0.14779 0.56229 0.0
H286 H 0.46973 0.12432 0.49866 0.0
H287 H 0.4611 0.143 0.48082 0.0
H288 H 0.43382 0.07254 0.33402 0.0
H289 H 0.41749 0.12041 0.282 0.0
H290 H 0.4218 0.06699 0.55198 0.0
H291 H 0.44932 0.08474 0.53352 0.0
H292 H 0.43527 0.06137 0.46993 0.0
H293 H 0.40262 0.12456 0.49469 0.0
H294 H 0.40738 0.13573 0.39035 0.0
H295 H 0.42866 0.14462 0.46507 0.0
C296 C 0.31543 0.46066 0.90771 0.0
C297 C 0.31101 0.44464 0.96655 0.0
C298 C 0.31406 0.45666 0.8213 0.0
C299 C 0.30798 0.43608 0.79249 0.0
C300 C 0.30216 0.4195 0.8512 0.0
C301 C 0.3038 0.42398 0.93767 0.0
C302 C 0.32043 0.47484 0.76091 0.0
C303 C 0.29534 0.3973 0.82282 0.0
C304 C 0.29863 0.42972 0.55681 0.0
C305 C 0.31887 0.43509 0.52802 0.0
C306 C 0.29428 0.42855 0.64338 0.0
C307 C 0.31057 0.43289 0.70197 0.0
C308 C 0.33055 0.43686 0.67303 0.0
C309 C 0.33442 0.43787 0.58665 0.0
C310 C 0.2727 0.42399 0.6719 0.0
C311 C 0.34838 0.44151 0.7332 0.0
H312 H 0.32074 0.47663 0.92897 0.0
H313 H 0.30017 0.41143 0.98243 0.0
H314 H 0.33535 0.47842 0.72887 0.0
H315 H 0.30818 0.47054 0.71175 0.0
H316 H 0.32291 0.4894 0.79299 0.0
H317 H 0.28805 0.38567 0.87467 0.0
H318 H 0.28387 0.39258 0.77029 0.0
H319 H 0.30929 0.39662 0.79942 0.0
H320 H 0.28649 0.42746 0.512 0.0
H321 H 0.35001 0.44166 0.56509 0.0
H322 H 0.27366 0.43883 0.69412 0.0
H323 H 0.26706 0.41271 0.72526 0.0
H324 H 0.26087 0.41741 0.6204 0.0
H325 H 0.35352 0.45685 0.76488 0.0
H326 H 0.36228 0.44237 0.70097 0.0
H327 H 0.34297 0.42919 0.78264 0.0
C328 C 0.8568 0.3037 0.61461 0.0
C329 C 0.87358 0.32302 0.58585 0.0
C330 C 0.85271 0.29968 0.70103 0.0
C331 C 0.86572 0.31534 0.76001 0.0
C332 C 0.88338 0.33433 0.73142 0.0
C333 C 0.88708 0.33792 0.64496 0.0
C334 C 0.83377 0.2792 0.72882 0.0
C335 C 0.89771 0.35145 0.792 0.0
C336 C 0.84401 0.32235 0.966 0.0
C337 C 0.85363 0.3155 0.02495 0.0
C338 C 0.84695 0.32133 0.8795 0.0
C339 C 0.85976 0.31315 0.85058 0.0
C340 C 0.86847 0.305 0.90922 0.0
C341 C 0.86532 0.30628 0.99578 0.0
C342 C 0.83729 0.33014 0.81928 0.0
C343 C 0.88202 0.29595 0.8808 0.0
H344 H 0.84623 0.29207 0.56963 0.0
H345 H 0.90022 0.35281 0.62364 0.0
H346 H 0.83795 0.27227 0.78239 0.0
H347 H 0.82114 0.2823 0.75049 0.0
H348 H 0.82731 0.26743 0.67715 0.0
H349 H 0.91177 0.36445 0.76034 0.0
H350 H 0.88881 0.35823 0.82281 0.0
H351 H 0.90321 0.34478 0.84211 0.0
H352 H 0.83474 0.32928 0.98742 0.0
H353 H 0.87278 0.30087 0.04051 0.0
H354 H 0.8285 0.31856 0.7689 0.0
H355 H 0.85002 0.34458 0.7888 0.0
H356 H 0.82633 0.3343 0.85117 0.0
H357 H 0.87428 0.28466 0.82837 0.0
H358 H 0.88523 0.28773 0.93255 0.0
H359 H 0.89735 0.30887 0.85707 0.0
C360 C 0.53366 0.85794 0.18759 0.0
C361 C 0.54981 0.86919 0.24636 0.0
C362 C 0.53744 0.8611 0.10107 0.0
C363 C 0.55795 0.87583 0.07199 0.0
C364 C 0.57465 0.88628 0.13048 0.0
C365 C 0.5704 0.88285 0.21708 0.0
C366 C 0.51915 0.84954 0.04101 0.0
C367 C 0.59677 0.90196 0.10188 0.0
C368 C 0.5652 0.8739 0.83613 0.0
C369 C 0.5601 0.88899 0.80724 0.0
C370 C 0.56573 0.87017 0.92258 0.0
C371 C 0.56108 0.88181 0.98141 0.0
C372 C 0.55712 0.89786 0.9527 0.0
C373 C 0.55669 0.90125 0.86622 0.0
C374 C 0.57012 0.853 0.95064 0.0
C375 C 0.55212 0.91069 0.01316 0.0
H376 H 0.51774 0.84714 0.20918 0.0
H377 H 0.58302 0.89159 0.26174 0.0
H378 H 0.51548 0.86099 0.01051 0.0
H379 H 0.52339 0.84185 0.99062 0.0
H380 H 0.50466 0.83729 0.07304 0.0
H381 H 0.60849 0.90646 0.15348 0.0
H382 H 0.6016 0.89538 0.04918 0.0
H383 H 0.59716 0.91646 0.07852 0.0
H384 H 0.56786 0.86433 0.79126 0.0
H385 H 0.55296 0.9131 0.84483 0.0
H386 H 0.55531 0.83932 0.97447 0.0
H387 H 0.58173 0.85867 1.00288 0.0
H388 H 0.57625 0.84744 0.89864 0.0
H389 H 0.53671 0.90027 0.04411 0.0
H390 H 0.55121 0.92375 0.98137 0.0
H391 H 0.5643 0.9175 0.06316 0.0
C392 C 0.69101 0.5677 0.91236 0.0
C393 C 0.67018 0.55968 0.88364 0.0
C394 C 0.69556 0.56915 0.99876 0.0
C395 C 0.6789 0.56237 0.05772 0.0
C396 C 0.65805 0.55533 0.02917 0.0
C397 C 0.65396 0.5541 0.94273 0.0
C398 C 0.71801 0.57688 0.02671 0.0
C399 C 0.63979 0.54794 0.08984 0.0
C400 C 0.67969 0.53738 0.26478 0.0
C401 C 0.68201 0.55285 0.3229 0.0
C402 C 0.67986 0.5408 0.17816 0.0
C403 C 0.68254 0.56024 0.14837 0.0
C404 C 0.68635 0.57649 0.20625 0.0
C405 C 0.68602 0.5726 0.29301 0.0
C406 C 0.67581 0.52304 0.11877 0.0
C407 C 0.68953 0.59752 0.17682 0.0
H408 H 0.70369 0.57213 0.86743 0.0
H409 H 0.63785 0.54809 0.92155 0.0
H410 H 0.72243 0.58853 0.07833 0.0
H411 H 0.71936 0.56339 0.05137 0.0
H412 H 0.72949 0.58427 0.97445 0.0
H413 H 0.62488 0.54459 0.05803 0.0
H414 H 0.63713 0.5333 0.12178 0.0
H415 H 0.64348 0.56003 0.13906 0.0
H416 H 0.67689 0.52216 0.28694 0.0
H417 H 0.6879 0.58468 0.33725 0.0
H418 H 0.6879 0.52883 0.06836 0.0
H419 H 0.66017 0.51704 0.08826 0.0
H420 H 0.67592 0.50964 0.15139 0.0
H421 H 0.70085 0.60365 0.12366 0.0
H422 H 0.69545 0.60947 0.22791 0.0
H423 H 0.67427 0.59549 0.15392 0.0
C424 C 0.14185 0.6673 0.47162 0.0
C425 C 0.13479 0.67687 0.52976 0.0
C426 C 0.13975 0.66906 0.38488 0.0
C427 C 0.1305 0.68083 0.35485 0.0
C428 C 0.12429 0.69143 0.41272 0.0
C429 C 0.12642 0.68926 0.49949 0.0
C430 C 0.14648 0.65739 0.3255 0.0
C431 C 0.11458 0.70431 0.38315 0.0
C432 C 0.1368 0.69136 0.11934 0.0
C433 C 0.11808 0.67411 0.08869 0.0
C434 C 0.14066 0.69453 0.20625 0.0
C435 C 0.12545 0.6801 0.26368 0.0
C436 C 0.10604 0.66344 0.2331 0.0
C437 C 0.10259 0.6607 0.14629 0.0
C438 C 0.16148 0.7126 0.23634 0.0
C439 C 0.08936 0.64769 0.29193 0.0
H440 H 0.14842 0.65776 0.49377 0.0
H441 H 0.12102 0.69684 0.54355 0.0
H442 H 0.13237 0.64463 0.29338 0.0
H443 H 0.15711 0.66825 0.27628 0.0
H444 H 0.15477 0.65019 0.35837 0.0
H445 H 0.11308 0.71369 0.43478 0.0
H446 H 0.12421 0.71522 0.33205 0.0
H447 H 0.0986 0.69363 0.35719 0.0
H448 H 0.14888 0.70184 0.07556 0.0
H449 H 0.08795 0.64746 0.12355 0.0
H450 H 0.17142 0.70631 0.26149 0.0
H451 H 0.1589 0.72121 0.28812 0.0
H452 H 0.17034 0.72395 0.18512 0.0
H453 H 0.0954 0.63819 0.32336 0.0
H454 H 0.07445 0.63673 0.25868 0.0
H455 H 0.08571 0.656 0.3417 0.0
C456 C 0.88291 0.58179 0.14474 0.0
C457 C 0.86948 0.56113 0.11583 0.0
C458 C 0.88633 0.58616 0.23125 0.0
C459 C 0.87611 0.56948 0.29005 0.0
C460 C 0.86162 0.54888 0.26134 0.0
C461 C 0.85846 0.54498 0.1749 0.0
C462 C 0.90172 0.60838 0.25946 0.0
C463 C 0.85033 0.53061 0.32174 0.0
C464 C 0.90172 0.56876 0.49598 0.0
C465 C 0.88918 0.57181 0.55482 0.0
C466 C 0.89838 0.5692 0.40947 0.0
C467 C 0.8821 0.57279 0.3806 0.0
C468 C 0.87021 0.57715 0.43931 0.0
C469 C 0.8739 0.57662 0.52581 0.0
C470 C 0.91149 0.56452 0.34915 0.0
C471 C 0.8528 0.58116 0.41107 0.0
H472 H 0.89147 0.59441 0.09986 0.0
H473 H 0.84784 0.529 0.15364 0.0
H474 H 0.89499 0.61307 0.31208 0.0
H475 H 0.91639 0.60909 0.28279 0.0
H476 H 0.906 0.62001 0.20765 0.0
H477 H 0.83827 0.51598 0.28995 0.0
H478 H 0.862 0.52727 0.35251 0.0
H479 H 0.84245 0.53468 0.3719 0.0
H480 H 0.91374 0.56527 0.5175 0.0
H481 H 0.86411 0.57901 0.57059 0.0
H482 H 0.9181 0.57667 0.29897 0.0
H483 H 0.9013 0.54904 0.31842 0.0
H484 H 0.92474 0.56396 0.38104 0.0
H485 H 0.85829 0.59269 0.35856 0.0
H486 H 0.8471 0.58721 0.46292 0.0
H487 H 0.83924 0.56622 0.38759 0.0
C488 C 0.32122 0.88199 0.73374 0.0
C489 C 0.30756 0.86664 0.79125 0.0
C490 C 0.31827 0.87871 0.64693 0.0
C491 C 0.30115 0.85962 0.61631 0.0
C492 C 0.28646 0.84465 0.6737 0.0
C493 C 0.28984 0.84832 0.76062 0.0
C494 C 0.33433 0.89513 0.58814 0.0
C495 C 0.26787 0.8242 0.64353 0.0
C496 C 0.29252 0.85903 0.38021 0.0
C497 C 0.30441 0.85006 0.35074 0.0
C498 C 0.29028 0.86124 0.46683 0.0
C499 C 0.30033 0.85449 0.52529 0.0
C500 C 0.31156 0.84461 0.49602 0.0
C501 C 0.31338 0.84244 0.40946 0.0
C502 C 0.27796 0.8716 0.49563 0.0
C503 C 0.32262 0.83727 0.55605 0.0
H504 H 0.33481 0.89634 0.75651 0.0
H505 H 0.27915 0.83637 0.80436 0.0
H506 H 0.34348 0.88867 0.5569 0.0
H507 H 0.32631 0.89912 0.53824 0.0
H508 H 0.3456 0.90989 0.62141 0.0
H509 H 0.25631 0.81572 0.69459 0.0
H510 H 0.25966 0.8272 0.59125 0.0
H511 H 0.27358 0.81372 0.61911 0.0
H512 H 0.28539 0.86486 0.33564 0.0
H513 H 0.3225 0.83537 0.38794 0.0
H514 H 0.28901 0.88753 0.52103 0.0
H515 H 0.26692 0.8623 0.54694 0.0
H516 H 0.26877 0.87334 0.44367 0.0
H517 H 0.33561 0.85113 0.58849 0.0
H518 H 0.32943 0.82857 0.52366 0.0
H519 H 0.31146 0.82684 0.60495 0.0
C520 C 0.43841 0.3353 0.74678 0.0
C521 C 0.43415 0.31945 0.80617 0.0
C522 C 0.43693 0.33108 0.66061 0.0
C523 C 0.431 0.31047 0.6327 0.0
C524 C 0.42525 0.29403 0.69208 0.0
C525 C 0.4269 0.29871 0.77838 0.0
C526 C 0.44311 0.34909 0.59955 0.0
C527 C 0.41863 0.27181 0.66467 0.0
C528 C 0.42203 0.30406 0.39709 0.0
C529 C 0.44242 0.30977 0.36882 0.0
C530 C 0.41751 0.3027 0.48349 0.0
C531 C 0.43375 0.30718 0.54249 0.0
C532 C 0.45387 0.31148 0.5141 0.0
C533 C 0.45794 0.3127 0.42783 0.0
C534 C 0.39578 0.29782 0.51142 0.0
C535 C 0.47164 0.31627 0.57478 0.0
H536 H 0.44366 0.35129 0.76756 0.0
H537 H 0.42347 0.28635 0.82379 0.0
H538 H 0.45812 0.35281 0.56789 0.0
H539 H 0.43087 0.34455 0.55018 0.0
H540 H 0.44537 0.36365 0.63102 0.0
H541 H 0.41117 0.26025 0.71666 0.0
H542 H 0.40739 0.26696 0.61129 0.0
H543 H 0.43273 0.27116 0.64287 0.0
H544 H 0.4099 0.30165 0.35199 0.0
H545 H 0.47363 0.31675 0.40668 0.0
H546 H 0.39647 0.31256 0.53331 0.0
H547 H 0.39021 0.28656 0.56485 0.0
H548 H 0.38404 0.29108 0.45967 0.0
H549 H 0.47666 0.33163 0.60616 0.0
H550 H 0.48563 0.3172 0.54301 0.0
H551 H 0.46624 0.304 0.6244 0.0
C552 C 0.1183 0.42221 0.06576 0.0
C553 C 0.10083 0.42318 0.09701 0.0
C554 C 0.12164 0.42212 0.97871 0.0
C555 C 0.10721 0.42309 0.92182 0.0
C556 C 0.0889 0.42273 0.95308 0.0
C557 C 0.08591 0.42271 0.03999 0.0
C558 C 0.14123 0.42223 0.94782 0.0
C559 C 0.07307 0.42373 0.89484 0.0
C560 C 0.12581 0.45189 0.71402 0.0
C561 C 0.11703 0.43522 0.65579 0.0
C562 C 0.1235 0.44805 0.8007 0.0
C563 C 0.11227 0.42699 0.83058 0.0
C564 C 0.10424 0.41004 0.77261 0.0
C565 C 0.10663 0.41434 0.68584 0.0
C566 C 0.13222 0.46663 0.8602 0.0
C567 C 0.09241 0.38737 0.80209 0.0
H568 H 0.1299 0.4225 0.1091 0.0
H569 H 0.07218 0.42316 0.06318 0.0
H570 H 0.13729 0.41085 0.89546 0.0
H571 H 0.15263 0.43816 0.92332 0.0
H572 H 0.14909 0.41822 0.99853 0.0
H573 H 0.05876 0.42143 0.92862 0.0
H574 H 0.08053 0.43936 0.86323 0.0
H575 H 0.0681 0.41152 0.84518 0.0
H576 H 0.13398 0.4681 0.69203 0.0
H577 H 0.09989 0.40132 0.64168 0.0
H578 H 0.14224 0.46506 0.90876 0.0
H579 H 0.11898 0.46695 0.89313 0.0
H580 H 0.14177 0.48197 0.82731 0.0
H581 H 0.10128 0.3848 0.8529 0.0
H582 H 0.08958 0.37608 0.75031 0.0
H583 H 0.07689 0.38378 0.82841 0.0
C584 C 0.69326 0.12442 0.8555 0.0
C585 C 0.68438 0.13643 0.8263 0.0
C586 C 0.69462 0.12133 0.94207 0.0
C587 C 0.68689 0.13042 1.00067 0.0
C588 C 0.67908 0.14355 0.97167 0.0
C589 C 0.67797 0.14642 0.88516 0.0
C590 C 0.70325 0.10741 0.97054 0.0
C591 C 0.67072 0.15362 0.03186 0.0
C592 C 0.66194 0.10363 0.20674 0.0
C593 C 0.67702 0.11701 0.26559 0.0
C594 C 0.6655 0.10717 0.12022 0.0
C595 C 0.68468 0.12452 0.0913 0.0
C596 C 0.70052 0.13736 0.14999 0.0
C597 C 0.69652 0.13346 0.23651 0.0
C598 C 0.64818 0.09303 0.05993 0.0
C599 C 0.72124 0.15591 0.12168 0.0
H600 H 0.69833 0.11668 0.8108 0.0
H601 H 0.67132 0.15595 0.86367 0.0
H602 H 0.71451 0.11488 0.02329 0.0
H603 H 0.69008 0.09216 0.99377 0.0
H604 H 0.71138 0.10407 0.9189 0.0
H605 H 0.66686 0.16479 0.99986 0.0
H606 H 0.65618 0.14114 0.06269 0.0
H607 H 0.68247 0.16226 0.08198 0.0
H608 H 0.64691 0.09072 0.22824 0.0
H609 H 0.70832 0.1439 0.28126 0.0
H610 H 0.65458 0.08725 0.00992 0.0
H611 H 0.64167 0.10218 0.02897 0.0
H612 H 0.63501 0.07917 0.09188 0.0
H613 H 0.72807 0.15125 0.06935 0.0
H614 H 0.73296 0.16246 0.17355 0.0
H615 H 0.71847 0.16861 0.09792 0.0
C616 C 0.56518 0.69604 0.43099 0.0
C617 C 0.55755 0.6753 0.45994 0.0
C618 C 0.56661 0.70054 0.34453 0.0
C619 C 0.5602 0.6839 0.28576 0.0
C620 C 0.55355 0.66317 0.31454 0.0
C621 C 0.55236 0.65914 0.40102 0.0
C622 C 0.57396 0.72288 0.3163 0.0
C623 C 0.54653 0.64494 0.25408 0.0
C624 C 0.53483 0.68388 0.07866 0.0
C625 C 0.55039 0.68642 0.02053 0.0
C626 C 0.53832 0.68426 0.16527 0.0
C627 C 0.55795 0.68739 0.19505 0.0
C628 C 0.57428 0.69145 0.13713 0.0
C629 C 0.5703 0.69089 0.05036 0.0
C630 C 0.52047 0.67993 0.22469 0.0
C631 C 0.59551 0.69513 0.16656 0.0
H632 H 0.56933 0.70869 0.47577 0.0
H633 H 0.54666 0.6431 0.42234 0.0
H634 H 0.58559 0.72745 0.26448 0.0
H635 H 0.56028 0.72393 0.29185 0.0
H636 H 0.58124 0.73442 0.36839 0.0
H637 H 0.54348 0.63015 0.28609 0.0
H638 H 0.53179 0.64195 0.22201 0.0
H639 H 0.5587 0.64884 0.20495 0.0
H640 H 0.51948 0.68073 0.05652 0.0
H641 H 0.58247 0.69295 0.00611 0.0
H642 H 0.52606 0.69208 0.27481 0.0
H643 H 0.51477 0.66439 0.2556 0.0
H644 H 0.50689 0.67968 0.19202 0.0
H645 H 0.60143 0.70647 0.21966 0.0
H646 H 0.60745 0.70126 0.11543 0.0
H647 H 0.59384 0.68003 0.18955 0.0
C648 C 0.39342 0.01855 0.97265 0.0
C649 C 0.39089 0.03507 1.00337 0.0
C650 C 0.37736 -0.00246 0.98198 0.0
C651 C 0.3585 0.993 0.02456 0.0
C652 C 0.35512 0.00967 0.04905 0.0
C653 C 0.3714 0.03063 0.03767 0.0
C654 C 0.3814 0.98019 0.95272 0.0
C655 C 0.33522 0.00552 0.09401 0.0
C656 C 0.321 0.93445 0.01592 0.0
C657 C 0.32909 0.92805 0.0823 0.0
C658 C 0.32863 0.95601 1.00101 0.0
C659 C 0.34441 0.97112 0.05454 0.0
C660 C 0.35016 0.96443 0.12852 0.0
C661 C 0.34263 0.94287 0.14085 0.0
C662 C 0.32186 0.96251 0.9223 0.0
C663 C 0.36642 0.98004 0.18883 0.0
H664 H 0.4084 0.02203 0.94501 0.0
H665 H 0.36941 0.04343 0.06153 0.0
H666 H 0.38382 0.97238 0.00801 0.0
H667 H 0.36759 0.96799 0.91739 0.0
H668 H 0.39562 0.98633 0.91197 0.0
H669 H 0.33248 0.01912 0.08792 0.0
H670 H 0.32117 0.99111 0.06976 0.0
H671 H 0.33678 0.00303 0.16177 0.0
H672 H 0.31058 0.92287 0.97041 0.0
H673 H 0.34879 0.93775 0.1922 0.0
H674 H 0.33358 0.96572 0.8719 0.0
H675 H 0.32114 0.97716 0.93246 0.0
H676 H 0.30617 0.94981 0.90014 0.0
H677 H 0.38241 0.98667 0.16074 0.0
H678 H 0.3663 0.97251 0.24963 0.0
H679 H 0.36359 0.99337 0.20107 0.0
C680 C 0.40236 0.36656 0.06087 0.0
C681 C 0.4024 0.35002 0.10522 0.0
C682 C 0.38851 0.37373 0.08251 0.0
C683 C 0.3745 0.36422 0.15079 0.0
C684 C 0.37316 0.34632 0.19117 0.0
C685 C 0.38718 0.33934 0.16765 0.0
C686 C 0.39025 0.3927 0.03699 0.0
C687 C 0.35819 0.33563 0.26341 0.0
C688 C 0.36998 0.40639 0.26694 0.0
C689 C 0.35154 0.4046 0.23202 0.0
C690 C 0.37665 0.3921 0.24614 0.0
C691 C 0.36462 0.37567 0.18856 0.0
C692 C 0.34515 0.37276 0.15793 0.0
C693 C 0.33877 0.38734 0.18019 0.0
C694 C 0.39744 0.39563 0.281 0.0
C695 C 0.3318 0.35523 0.0973 0.0
H696 H 0.41376 0.37447 0.01102 0.0
H697 H 0.38705 0.32637 0.20138 0.0
H698 H 0.37435 0.38996 0.01975 0.0
H699 H 0.39769 0.40668 0.079 0.0
H700 H 0.39995 0.39649 0.97903 0.0
H701 H 0.35565 0.31953 0.27508 0.0
H702 H 0.3649 0.34514 0.32123 0.0
H703 H 0.34267 0.33449 0.25155 0.0
H704 H 0.37962 0.41941 0.30879 0.0
H705 H 0.32437 0.38577 0.15381 0.0
H706 H 0.40937 0.40105 0.22994 0.0
H707 H 0.39565 0.38067 0.30626 0.0
H708 H 0.40364 0.40768 0.33172 0.0
H709 H 0.33872 0.35973 0.03347 0.0
H710 H 0.31531 0.3522 0.09462 0.0
H711 H 0.3315 0.34038 0.11482 0.0
C712 C 0.02302 0.38599 0.43282 0.0
C713 C 0.03864 0.38605 0.38212 0.0
C714 C 0.00164 0.37202 0.41658 0.0
C715 C -0.00404 0.35831 0.34644 0.0
C716 C 0.01173 0.3565 0.30183 0.0
C717 C 0.03307 0.37042 0.32069 0.0
C718 C 0.98527 0.3739 0.46784 0.0
C719 C 0.00631 0.34181 0.22783 0.0
C720 C 0.93672 0.32742 0.32471 0.0
C721 C 0.93346 0.34256 0.28378 0.0
C722 C 0.95729 0.33115 0.33855 0.0
C723 C 0.97467 0.35027 0.30971 0.0
C724 C 0.97118 0.36414 0.25865 0.0
C725 C 0.95055 0.36022 0.24719 0.0
C726 C 0.96033 0.31579 0.39182 0.0
C727 C 0.98928 0.3844 0.22415 0.0
H728 H 0.02748 0.39799 0.4809 0.0
H729 H 0.04526 0.37053 0.28149 0.0
H730 H 0.9791 0.38258 0.43099 0.0
H731 H 0.97173 0.35806 0.48283 0.0
H732 H 0.99196 0.38259 0.52749 0.0
H733 H 0.01884 0.3377 0.21647 0.0
H734 H 0.99098 0.32706 0.23711 0.0
H735 H 0.00496 0.34978 0.17073 0.0
H736 H 0.92343 0.31369 0.35288 0.0
H737 H 0.94789 0.37172 0.21446 0.0
H738 H 0.96218 0.32086 0.45843 0.0
H739 H 0.97472 0.31531 0.37323 0.0
H740 H 0.94642 0.29959 0.38755 0.0
H741 H -0.00308 0.39589 0.27607 0.0
H742 H 0.9839 0.39172 0.1761 0.0
H743 H 0.00143 0.38147 0.19558 0.0
C744 C 0.59418 0.96567 0.46772 0.0
C745 C 0.59649 0.94961 0.50488 0.0
C746 C 0.61018 0.98677 0.47426 0.0
C747 C 0.62866 0.99184 0.52102 0.0
C748 C 0.63188 0.97552 0.55201 0.0
C749 C 0.61571 0.95445 0.54297 0.0
C750 C 0.60639 0.0037 0.43783 0.0
C751 C 0.65136 0.98025 0.60169 0.0
C752 C 0.6658 0.05032 0.50703 0.0
C753 C 0.65678 0.0571 0.56833 0.0
C754 C 0.65855 0.02871 0.49628 0.0
C755 C 0.64223 0.01396 0.54894 0.0
C756 C 0.63545 0.02112 0.61852 0.0
C757 C 0.64259 0.04271 0.62651 0.0
C758 C 0.66638 0.02171 0.4222 0.0
C759 C 0.61859 0.0059 0.67799 0.0
H760 H 0.57937 0.96181 0.43734 0.0
H761 H 0.61745 0.94195 0.57183 0.0
H762 H 0.60319 0.01192 0.48942 0.0
H763 H 0.62059 0.01567 0.4036 0.0
H764 H 0.5927 -0.00294 0.39411 0.0
H765 H 0.65428 0.96672 0.60034 0.0
H766 H 0.66558 0.99455 0.57771 0.0
H767 H 0.64906 0.98323 0.6681 0.0
H768 H 0.67674 0.0616 0.46183 0.0
H769 H 0.63574 0.04814 0.67393 0.0
H770 H 0.65534 0.01811 0.36872 0.0
H771 H 0.66698 0.00717 0.43686 0.0
H772 H 0.68233 0.03429 0.40199 0.0
H773 H 0.60294 -0.00115 0.64665 0.0
H774 H 0.61792 0.01388 0.73627 0.0
H775 H 0.62146 0.99283 0.69532 0.0
C776 C 0.62388 0.59194 0.56932 0.0
C777 C 0.6426 0.59397 0.60171 0.0
C778 C 0.61742 0.60639 0.59125 0.0
C779 C 0.62967 0.62274 0.64913 0.0
C780 C 0.64947 0.62588 0.6764 0.0
C781 C 0.65585 0.61154 0.65136 0.0
C782 C 0.59655 0.60301 0.55827 0.0
C783 C 0.66287 0.64295 0.73866 0.0
C784 C 0.60883 0.6602 0.68071 0.0
C785 C 0.59295 0.64887 0.74011 0.0
C786 C 0.62231 0.65283 0.65432 0.0
C787 C 0.62003 0.63408 0.69008 0.0
C788 C 0.60573 0.62415 0.75739 0.0
C789 C 0.59204 0.63147 0.78061 0.0
C790 C 0.63721 0.66377 0.58205 0.0
C791 C 0.60343 0.60456 0.79937 0.0
H792 H 0.61373 0.57839 0.53059 0.0
H793 H 0.67028 0.61299 0.67709 0.0
H794 H 0.58455 0.59651 0.60904 0.0
H795 H 0.59805 0.61823 0.53782 0.0
H796 H 0.59067 0.59181 0.50459 0.0
H797 H 0.67946 0.64623 0.73919 0.0
H798 H 0.66288 0.65784 0.72488 0.0
H799 H 0.65619 0.63774 0.80253 0.0
H800 H 0.60933 0.67356 0.64874 0.0
H801 H 0.57974 0.62279 0.82664 0.0
H802 H 0.62988 0.655 0.52323 0.0
H803 H 0.65238 0.66398 0.59072 0.0
H804 H 0.64053 0.68027 0.57415 0.0
H805 H 0.59508 0.59086 0.75642 0.0
H806 H 0.59425 0.60088 0.85872 0.0
H807 H 0.61917 0.60646 0.81337 0.0
C808 C 0.04156 0.64109 0.73983 0.0
C809 C 0.05729 0.65569 0.79299 0.0
C810 C 0.02058 0.63628 0.74891 0.0
C811 C 0.01531 0.64596 0.81435 0.0
C812 C 0.03155 0.66256 0.86147 0.0
C813 C 0.05254 0.66736 0.84982 0.0
C814 C 0.00381 0.61896 0.69526 0.0
C815 C 0.02662 0.67351 0.93068 0.0
C816 C 0.95652 0.62482 0.81615 0.0
C817 C 0.94994 0.60592 0.86012 0.0
C818 C 0.97813 0.63957 0.80739 0.0
C819 C 0.99316 0.63521 0.84441 0.0
C820 C 0.98632 0.61743 0.89781 0.0
C821 C 0.96474 0.60283 0.90409 0.0
C822 C 0.98476 0.65849 0.75118 0.0
C823 C 0.00183 0.61251 0.94073 0.0
H824 H 0.04541 0.63228 0.69535 0.0
H825 H 0.06482 0.67868 0.89096 0.0
H826 H -0.00471 0.60426 0.73298 0.0
H827 H 0.99205 0.62333 0.6737 0.0
H828 H 0.01071 0.61554 0.63939 0.0
H829 H 0.04039 0.68937 0.94404 0.0
H830 H 0.01277 0.67523 0.91466 0.0
H831 H 0.02279 0.66392 0.98889 0.0
H832 H 0.94498 0.62717 0.78218 0.0
H833 H 0.9595 0.58827 0.93893 0.0
H834 H 0.98741 0.65453 0.68674 0.0
H835 H -0.00028 0.67229 0.77304 0.0
H836 H 0.9723 0.66297 0.74787 0.0
H837 H 0.00912 0.60697 0.8934 0.0
H838 H 0.99406 0.6 0.98925 0.0
H839 H 0.01471 0.62686 0.9709 0.0
C840 C 0.50086 0.06433 0.90478 0.0
C841 C 0.4953 0.07839 0.86838 0.0
C842 C 0.51693 0.06151 0.86958 0.0
C843 C 0.52767 0.07317 0.79713 0.0
C844 C 0.52041 0.08544 0.75509 0.0
C845 C 0.50423 0.08779 0.79102 0.0
C846 C 0.52363 0.0476 0.91432 0.0
C847 C 0.53118 0.09791 0.67681 0.0
C848 C 0.5867 0.09944 0.77174 0.0
C849 C 0.58838 0.08941 0.69949 0.0
C850 C 0.56703 0.09301 0.80889 0.0
C851 C 0.54859 0.07595 0.77354 0.0
C852 C 0.55045 0.06422 0.70676 0.0
C853 C 0.57036 0.07117 0.67006 0.0
C854 C 0.56584 0.10581 0.88104 0.0
C855 C 0.53128 0.04543 0.66949 0.0
H856 H 0.49386 0.05677 0.96406 0.0
H857 H 0.49965 0.09828 0.76143 0.0
H858 H 0.52875 0.0395 0.86908 0.0
H859 H 0.53721 0.05746 0.95611 0.0
H860 H 0.51062 0.03552 0.95364 0.0
H861 H 0.52228 0.10489 0.64723 0.0
H862 H 0.54724 0.11094 0.69305 0.0
H863 H 0.53302 0.08773 0.62999 0.0
H864 H 0.60058 0.11324 0.79629 0.0
H865 H 0.57149 0.06305 0.61513 0.0
H866 H 0.55618 0.09527 0.9329 0.0
H867 H 0.55807 0.11473 0.85955 0.0
H868 H 0.58172 0.11727 0.90615 0.0
H869 H 0.51948 0.03614 0.71868 0.0
H870 H 0.53567 0.03488 0.63561 0.0
H871 H 0.52364 0.05101 0.62395 0.0
C872 C 0.40455 0.51498 0.02181 0.0
C873 C 0.40523 0.50574 0.09816 0.0
C874 C 0.42315 0.52965 0.98113 0.0
C875 C 0.44295 0.53505 0.01713 0.0
C876 C 0.44379 0.52416 0.08926 0.0
C877 C 0.42486 0.50966 0.12936 0.0
C878 C 0.42151 0.54072 0.90364 0.0
C879 C 0.4646 0.52895 0.12783 0.0
C880 C 0.4877 0.57222 0.87493 0.0
C881 C 0.49093 0.59182 0.90318 0.0
C882 C 0.47346 0.5534 0.91631 0.0
C883 C 0.46213 0.55431 0.98671 0.0
C884 C 0.46691 0.57416 0.02014 0.0
C885 C 0.48134 0.59266 0.97825 0.0
C886 C 0.46936 0.53257 0.88061 0.0
C887 C 0.45536 0.57588 0.09576 0.0
H888 H 0.38946 0.51171 0.99607 0.0
H889 H 0.42558 0.50239 0.18769 0.0
H890 H 0.42697 0.55751 0.91869 0.0
H891 H 0.43182 0.54052 0.85301 0.0
H892 H 0.40506 0.53334 0.87941 0.0
H893 H 0.46278 0.51586 0.16903 0.0
H894 H 0.47651 0.53183 0.07869 0.0
H895 H 0.47081 0.54347 0.16654 0.0
H896 H 0.49527 0.57139 0.81768 0.0
H897 H 0.48409 0.60775 1.00178 0.0
H898 H 0.4549 0.52575 0.84118 0.0
H899 H 0.46669 0.52107 0.93136 0.0
H900 H 0.48271 0.53452 0.84076 0.0
H901 H 0.43856 0.57004 0.07913 0.0
H902 H 0.46235 0.59241 0.11855 0.0
H903 H 0.45557 0.56593 0.14794 0.0
C904 C 0.9219 0.49851 0.95131 0.0
C905 C 0.90657 0.5026 0.98546 0.0
C906 C 0.92554 0.48294 0.9863 0.0
C907 C 0.91345 0.47121 0.05634 0.0
C908 C 0.89971 0.47693 0.09634 0.0
C909 C 0.89653 0.49262 0.06061 0.0
C910 C 0.94093 0.47788 0.94377 0.0
C911 C 0.88674 0.46507 0.17217 0.0
C912 C 0.89054 0.41251 0.0779 0.0
C913 C 0.90034 0.41131 0.15183 0.0
C914 C 0.89612 0.43204 0.04138 0.0
C915 C 0.91202 0.45083 0.07935 0.0
C916 C 0.92368 0.44961 0.14793 0.0
C917 C 0.91765 0.4298 0.18373 0.0
C918 C 0.8835 0.43258 0.96709 0.0
C919 C 0.94127 0.46923 0.18818 0.0
H920 H 0.93 0.50634 0.89386 0.0
H921 H 0.88503 0.49604 0.0886 0.0
H922 H 0.9492 0.47322 0.99018 0.0
H923 H 0.93218 0.46442 0.90012 0.0
H924 H 0.95289 0.49154 0.90676 0.0
H925 H 0.87848 0.47283 0.20064 0.0
H926 H 0.87469 0.44878 0.15344 0.0
H927 H 0.89692 0.46375 0.22071 0.0
H928 H 0.87749 0.39826 0.05158 0.0
H929 H 0.92556 0.42905 0.24016 0.0
H930 H 0.89418 0.44309 0.91724 0.0
H931 H 0.87329 0.43904 0.98715 0.0
H932 H 0.87325 0.41664 0.93985 0.0
H933 H 0.9505 0.48151 0.14047 0.0
H934 H 0.95217 0.46567 0.2241 0.0
H935 H 0.9344 0.47589 0.23243 0.0
C936 C 0.48321 0.89745 0.29671 0.0
C937 C 0.49306 0.90767 0.37175 0.0
C938 C 0.46736 0.90031 0.2605 0.0
C939 C 0.46141 0.91392 0.29986 0.0
C940 C 0.47323 0.92643 0.36892 0.0
C941 C 0.48893 0.92308 0.40455 0.0
C942 C 0.45546 0.88696 0.18556 0.0
C943 C 0.46801 0.94184 0.41015 0.0
C944 C 0.41804 0.91546 0.17606 0.0
C945 C 0.40011 0.89814 0.21137 0.0
C946 C 0.43828 0.92242 0.20944 0.0
C947 C 0.44054 0.9116 0.2788 0.0
C948 C 0.42232 0.89563 0.31986 0.0
C949 C 0.40233 0.88921 0.28594 0.0
C950 C 0.45724 0.94011 0.16603 0.0
C951 C 0.42396 0.88384 0.39493 0.0
H952 H 0.48674 0.88595 0.26963 0.0
H953 H 0.49671 0.93135 0.46176 0.0
H954 H 0.43933 0.87471 0.20528 0.0
H955 H 0.45372 0.89678 0.13662 0.0
H956 H 0.46347 0.87891 0.15725 0.0
H957 H 0.48174 0.95412 0.44589 0.0
H958 H 0.46302 0.94969 0.36304 0.0
H959 H 0.45473 0.93322 0.45477 0.0
H960 H 0.41651 0.92278 0.11926 0.0
H961 H 0.38855 0.87616 0.31494 0.0
H962 H 0.46347 0.93334 0.11932 0.0
H963 H 0.4701 0.9496 0.21131 0.0
H964 H 0.45295 0.95074 0.13213 0.0
H965 H 0.431 0.87413 0.3752 0.0
H966 H 0.40831 0.87322 0.42391 0.0
H967 H 0.43446 0.89508 0.44339 0.0
C968 C 0.58955 0.48165 0.36511 0.0
C969 C 0.58822 0.49118 0.43952 0.0
C970 C 0.5713 0.467 0.32232 0.0
C971 C 0.5512 0.46187 0.35424 0.0
C972 C 0.54978 0.473 0.42428 0.0
C973 C 0.56835 0.48751 0.46646 0.0
C974 C 0.57358 0.45567 0.24716 0.0
C975 C 0.52866 0.46845 0.45863 0.0
C976 C 0.50716 0.42461 0.20894 0.0
C977 C 0.5033 0.40498 0.2398 0.0
C978 C 0.52147 0.44349 0.24974 0.0
C979 C 0.5322 0.44263 0.32239 0.0
C980 C 0.52686 0.4228 0.35789 0.0
C981 C 0.51243 0.40425 0.31638 0.0
C982 C 0.52625 0.46432 0.21145 0.0
C983 C 0.53773 0.42111 0.43591 0.0
H984 H 0.60484 0.48471 0.34265 0.0
H985 H 0.56713 0.49499 0.52329 0.0
H986 H 0.56794 0.43892 0.26381 0.0
H987 H 0.56373 0.45573 0.19424 0.0
H988 H 0.59023 0.46294 0.22544 0.0
H989 H 0.5302 0.48154 0.49903 0.0
H990 H 0.51736 0.46583 0.40711 0.0
H991 H 0.52182 0.45384 0.49712 0.0
H992 H 0.50002 0.42535 0.15028 0.0
H993 H 0.5092 0.38914 0.34175 0.0
H994 H 0.54107 0.47082 0.17441 0.0
H995 H 0.52863 0.47602 0.26079 0.0
H996 H 0.51338 0.46245 0.16879 0.0
H997 H 0.5546 0.42671 0.4217 0.0
H998 H 0.53037 0.40463 0.45974 0.0
H999 H 0.53729 0.43128 0.48654 0.0
C1000 C 0.06134 0.49321 0.48016 0.0
C1001 C 0.07664 0.48947 0.51721 0.0
C1002 C 0.05731 0.50873 0.51254 0.0
C1003 C 0.06906 0.52082 0.58247 0.0
C1004 C 0.08249 0.51525 0.62601 0.0
C1005 C 0.08598 0.49951 0.59313 0.0
C1006 C 0.042 0.51343 0.46707 0.0
C1007 C 0.09505 0.52746 0.70204 0.0
C1008 C 0.09367 0.57978 0.59292 0.0
C1009 C 0.08447 0.58211 0.66642 0.0
C1010 C 0.08725 0.55976 0.55969 0.0
C1011 C 0.071 0.54165 0.6003 0.0
C1012 C 0.05976 0.54408 0.66757 0.0
C1013 C 0.06673 0.56434 0.70042 0.0
C1014 C 0.09945 0.55795 0.48658 0.0
C1015 C 0.04163 0.52524 0.7098 0.0
H1016 H 0.05366 0.48521 0.4224 0.0
H1017 H 0.09735 0.49628 0.62361 0.0
H1018 H 0.034 0.51895 0.5111 0.0
H1019 H 0.05072 0.52611 0.42021 0.0
H1020 H 0.02982 0.49928 0.43305 0.0
H1021 H 0.10316 0.51983 0.73313 0.0
H1022 H 0.10721 0.54366 0.68273 0.0
H1023 H 0.08462 0.52897 0.74864 0.0
H1024 H 0.10699 0.59347 0.56471 0.0
H1025 H 0.05917 0.56598 0.75619 0.0
H1026 H 0.08848 0.5474 0.43758 0.0
H1027 H 0.10903 0.55092 0.50849 0.0
H1028 H 0.11027 0.57354 0.45754 0.0
H1029 H 0.03255 0.51228 0.66442 0.0
H1030 H 0.03072 0.52965 0.74044 0.0
H1031 H 0.04793 0.51914 0.75912 0.0
C1032 C 0.48092 0.19379 0.9902 0.0
C1033 C 0.46508 0.17668 0.03506 0.0
C1034 C 0.48319 0.21394 0.9967 0.0
C1035 C 0.46959 0.21699 0.05072 0.0
C1036 C 0.45424 0.19997 0.09919 0.0
C1037 C 0.452 0.17991 0.08997 0.0
C1038 C 0.49947 0.23168 0.94309 0.0
C1039 C 0.43981 0.20282 0.15897 0.0
C1040 C 0.48319 0.272 0.11751 0.0
C1041 C 0.46902 0.27513 0.06862 0.0
C1042 C 0.48392 0.25327 0.11114 0.0
C1043 C 0.47049 0.23763 0.05321 0.0
C1044 C 0.45692 0.24119 1.00071 0.0
C1045 C 0.45616 0.25984 0.00979 0.0
C1046 C 0.4983 0.24979 0.16907 0.0
C1047 C 0.44273 0.22501 0.93682 0.0
H1048 H 0.49095 0.19125 0.94724 0.0
H1049 H 0.43989 0.16669 0.12526 0.0
H1050 H 0.49138 0.23667 0.89713 0.0
H1051 H 0.50971 0.24564 0.98246 0.0
H1052 H 0.50964 0.22699 0.90814 0.0
H1053 H 0.42999 0.18843 0.19712 0.0
H1054 H 0.44922 0.21625 0.20202 0.0
H1055 H 0.42911 0.20664 0.12307 0.0
H1056 H 0.49302 0.28378 0.16353 0.0
H1057 H 0.44535 0.26238 0.97147 0.0
H1058 H 0.50832 0.24522 0.13261 0.0
H1059 H 0.48861 0.23659 0.21274 0.0
H1060 H 0.50872 0.26408 0.20669 0.0
H1061 H 0.45206 0.22029 0.89653 0.0
H1062 H 0.43454 0.23103 0.89602 0.0
H1063 H 0.4306 0.2106 0.96947 0.0
C1064 C 0.18726 0.45586 0.40906 0.0
C1065 C 0.17944 0.46651 0.36124 0.0
C1066 C 0.20742 0.45888 0.39393 0.0
C1067 C 0.21963 0.47232 0.3275 0.0
C1068 C 0.21204 0.48364 0.28064 0.0
C1069 C 0.19202 0.48082 0.29906 0.0
C1070 C 0.21527 0.447 0.44668 0.0
C1071 C 0.22445 0.49768 0.20807 0.0
C1072 C 0.27696 0.48634 0.31724 0.0
C1073 C 0.27536 0.46987 0.2671 0.0
C1074 C 0.25895 0.48771 0.33626 0.0
C1075 C 0.23921 0.47261 0.30202 0.0
C1076 C 0.23778 0.45657 0.2481 0.0
C1077 C 0.25587 0.45519 0.23238 0.0
C1078 C 0.26086 0.50466 0.39571 0.0
C1079 C 0.21705 0.44052 0.20875 0.0
H1080 H 0.17748 0.44502 0.45793 0.0
H1081 H 0.18578 0.48896 0.2622 0.0
H1082 H 0.2157 0.43458 0.40811 0.0
H1083 H 0.23162 0.45783 0.4689 0.0
H1084 H 0.205 0.43931 0.50207 0.0
H1085 H 0.21734 0.50698 0.18368 0.0
H1086 H 0.24101 0.50874 0.22702 0.0
H1087 H 0.22497 0.48779 0.1563 0.0
H1088 H 0.29213 0.49763 0.34402 0.0
H1089 H 0.25482 0.44267 0.19252 0.0
H1090 H 0.25217 0.49722 0.45456 0.0
H1091 H 0.25356 0.51343 0.36797 0.0
H1092 H 0.27758 0.5161 0.41179 0.0
H1093 H 0.20608 0.43012 0.25821 0.0
H1094 H 0.21912 0.43046 0.16179 0.0
H1095 H 0.20944 0.44859 0.17751 0.0
C1096 C 0.70837 0.21375 0.52537 0.0
C1097 C 0.70912 0.19585 0.49877 0.0
C1098 C 0.72349 0.23397 0.49729 0.0
C1099 C 0.73938 0.23609 0.44074 0.0
C1100 C 0.73943 0.21792 0.41036 0.0
C1101 C 0.72439 0.19805 0.44027 0.0
C1102 C 0.72309 0.25305 0.53116 0.0
C1103 C 0.75595 0.21949 0.34898 0.0
C1104 C 0.77655 0.28459 0.31601 0.0
C1105 C 0.79539 0.29072 0.35939 0.0
C1106 C 0.75745 0.26763 0.34543 0.0
C1107 C 0.75749 0.2571 0.42016 0.0
C1108 C 0.77624 0.26472 0.46796 0.0
C1109 C 0.79505 0.28132 0.43633 0.0
C1110 C 0.73774 0.25988 0.29292 0.0
C1111 C 0.77689 0.2542 0.54879 0.0
H1112 H 0.69645 0.21203 0.57026 0.0
H1113 H 0.72469 0.18416 0.4181 0.0
H1114 H 0.73638 0.26156 0.57584 0.0
H1115 H 0.72526 0.26422 0.47975 0.0
H1116 H 0.70808 0.24863 0.56447 0.0
H1117 H 0.75249 0.20377 0.32549 0.0
H1118 H 0.75701 0.22943 0.29441 0.0
H1119 H 0.77167 0.22716 0.37995 0.0
H1120 H 0.77697 0.29206 0.25662 0.0
H1121 H 0.80972 0.28647 0.4703 0.0
H1122 H 0.72375 0.25555 0.33308 0.0
H1123 H 0.73476 0.24546 0.25834 0.0
H1124 H 0.73929 0.27192 0.24641 0.0
H1125 H 0.76329 0.251 0.58955 0.0
H1126 H 0.79176 0.264 0.58435 0.0
H1127 H 0.77574 0.23881 0.53431 0.0
C1128 C 0.53202 0.80912 0.64176 0.0
C1129 C 0.52042 0.80974 0.57294 0.0
C1130 C 0.5297 0.78998 0.66998 0.0
C1131 C 0.51582 0.77115 0.62678 0.0
C1132 C 0.50343 0.77156 0.55916 0.0
C1133 C 0.50571 0.79096 0.5335 0.0
C1134 C 0.54282 0.79009 0.74358 0.0
C1135 C 0.48873 0.75177 0.51107 0.0
C1136 C 0.53426 0.73144 0.63789 0.0
C1137 C 0.52107 0.71771 0.70042 0.0
C1138 C 0.53186 0.74824 0.60999 0.0
C1139 C 0.5162 0.75162 0.6471 0.0
C1140 C 0.50242 0.73747 0.70868 0.0
C1141 C 0.50488 0.72045 0.7341 0.0
C1142 C 0.54657 0.76279 0.54287 0.0
C1143 C 0.48579 0.74087 0.75034 0.0
H1144 H 0.5431 0.8237 0.67312 0.0
H1145 H 0.49675 0.79156 0.48033 0.0
H1146 H 0.53277 0.77774 0.78974 0.0
H1147 H 0.55504 0.78642 0.72136 0.0
H1148 H 0.5509 0.80563 0.77606 0.0
H1149 H 0.47852 0.75437 0.46659 0.0
H1150 H 0.49819 0.74643 0.47487 0.0
H1151 H 0.47852 0.73881 0.55474 0.0
H1152 H 0.54651 0.72903 0.61071 0.0
H1153 H 0.49467 0.70974 0.78238 0.0
H1154 H 0.5573 0.77856 0.57032 0.0
H1155 H 0.53741 0.76498 0.4922 0.0
H1156 H 0.55638 0.75668 0.51461 0.0
H1157 H 0.49359 0.75536 0.78947 0.0
H1158 H 0.47508 0.72735 0.79105 0.0
H1159 H 0.47617 0.74331 0.70251 0.0
C1160 C 0.79081 0.51599 0.82418 0.0
C1161 C 0.80967 0.53206 0.78961 0.0
C1162 C 0.77122 0.51281 0.79615 0.0
C1163 C 0.77068 0.52571 0.73097 0.0
C1164 C 0.78969 0.54127 0.69328 0.0
C1165 C 0.80899 0.54443 0.72383 0.0
C1166 C 0.75123 0.49634 0.83861 0.0
C1167 C 0.7897 0.55505 0.62242 0.0
C1168 C 0.7204 0.51208 0.61304 0.0
C1169 C 0.71542 0.52658 0.64846 0.0
C1170 C 0.73808 0.51106 0.64106 0.0
C1171 C 0.75055 0.5245 0.70706 0.0
C1172 C 0.74483 0.53832 0.74587 0.0
C1173 C 0.72745 0.53937 0.71533 0.0
C1174 C 0.74399 0.49639 0.59757 0.0
C1175 C 0.75748 0.55256 0.8177 0.0
H1176 H 0.79141 0.5064 0.87496 0.0
H1177 H 0.82361 0.55658 0.696 0.0
H1178 H 0.744 0.50424 0.87376 0.0
H1179 H 0.7395 0.48591 0.79128 0.0
H1180 H 0.75424 0.48642 0.88315 0.0
H1181 H 0.80566 0.56484 0.59444 0.0
H1182 H 0.7786 0.54518 0.57225 0.0
H1183 H 0.7842 0.56577 0.6461 0.0
H1184 H 0.71098 0.50218 0.56141 0.0
H1185 H 0.72328 0.55029 0.74375 0.0
H1186 H 0.7467 0.48671 0.64424 0.0
H1187 H 0.759 0.50584 0.56263 0.0
H1188 H 0.73162 0.48565 0.55267 0.0
H1189 H 0.75998 0.54332 0.86715 0.0
H1190 H 0.74961 0.5607 0.8464 0.0
H1191 H 0.77329 0.56474 0.79476 0.0
C1192 C 0.2052 0.72201 0.81152 0.0
C1193 C 0.19519 0.70143 0.84353 0.0
C1194 C 0.224 0.73779 0.84702 0.0
C1195 C 0.23258 0.73286 0.91747 0.0
C1196 C 0.22337 0.71174 0.94608 0.0
C1197 C 0.20475 0.69612 0.908 0.0
C1198 C 0.23368 0.76007 0.81336 0.0
C1199 C 0.23203 0.70596 0.02125 0.0
C1200 C 0.28559 0.77799 0.98535 0.0
C1201 C 0.27914 0.78896 0.03868 0.0
C1202 C 0.27067 0.75878 0.94893 0.0
C1203 C 0.249 0.75039 0.96777 0.0
C1204 C 0.24267 0.76057 0.0271 0.0
C1205 C 0.25784 0.77991 0.06114 0.0
C1206 C 0.27793 0.74839 0.88564 0.0
C1207 C 0.21971 0.75181 0.05031 0.0
H1208 H 0.19784 0.72595 0.76087 0.0
H1209 H 0.19688 0.68015 0.93276 0.0
H1210 H 0.23088 0.76997 0.8585 0.0
H1211 H 0.25103 0.76719 0.80606 0.0
H1212 H 0.22682 0.76064 0.75178 0.0
H1213 H 0.22577 0.68864 0.02517 0.0
H1214 H 0.24955 0.71417 0.01939 0.0
H1215 H 0.22744 0.71104 0.07933 0.0
H1216 H 0.30211 0.78503 0.96796 0.0
H1217 H 0.25294 0.78828 0.10348 0.0
H1218 H 0.27411 0.75141 0.82146 0.0
H1219 H 0.2696 0.73102 0.89488 0.0
H1220 H 0.29526 0.75464 0.88931 0.0
H1221 H 0.21107 0.75343 0.9961 0.0
H1222 H 0.21778 0.76017 0.10486 0.0
H1223 H 0.21218 0.73474 0.06557 0.0
C1224 C 0.53929 0.14821 0.14926 0.0
C1225 C 0.52003 0.13076 0.17457 0.0
C1226 C 0.55809 0.15393 0.19327 0.0
C1227 C 0.55756 0.1418 0.2635 0.0
C1228 C 0.53794 0.12525 0.29307 0.0
C1229 C 0.51943 0.12001 0.24852 0.0
C1230 C 0.57864 0.17204 0.16121 0.0
C1231 C 0.53663 0.11198 0.36818 0.0
C1232 C 0.60103 0.12979 0.31073 0.0
C1233 C 0.60865 0.14013 0.38784 0.0
C1234 C 0.58545 0.13154 0.2662 0.0
C1235 C 0.57739 0.14409 0.29919 0.0
C1236 C 0.58642 0.15617 0.37272 0.0
C1237 C 0.60195 0.15399 0.41651 0.0
C1238 C 0.5764 0.11853 0.18749 0.0
C1239 C 0.57863 0.17016 0.40854 0.0
H1240 H 0.53992 0.1568 0.09279 0.0
H1241 H 0.5046 0.10676 0.26966 0.0
H1242 H 0.58888 0.18158 0.21399 0.0
H1243 H 0.58732 0.1657 0.12575 0.0
H1244 H 0.57596 0.18254 0.11867 0.0
H1245 H 0.52004 0.10093 0.38734 0.0
H1246 H 0.54431 0.10257 0.35291 0.0
H1247 H 0.54518 0.12221 0.42243 0.0
H1248 H 0.60643 0.11939 0.28707 0.0
H1249 H 0.6079 0.16223 0.47557 0.0
H1250 H 0.57576 0.12841 0.13597 0.0
H1251 H 0.55996 0.1057 0.19977 0.0
H1252 H 0.58578 0.11126 0.16585 0.0
H1253 H 0.57566 0.1788 0.35792 0.0
H1254 H 0.5901 0.18179 0.45391 0.0
H1255 H 0.56346 0.16026 0.44186 0.0
C1256 C 0.38093 0.55072 0.36919 0.0
C1257 C 0.37679 0.53119 0.40228 0.0
C1258 C 0.39531 0.56973 0.40894 0.0
C1259 C 0.40583 0.56906 0.48253 0.0
C1260 C 0.39994 0.54937 0.52079 0.0
C1261 C 0.38539 0.5307 0.48043 0.0
C1262 C 0.40053 0.59043 0.36814 0.0
C1263 C 0.41058 0.5479 0.59993 0.0
C1264 C 0.46385 0.60614 0.5183 0.0
C1265 C 0.46358 0.61651 0.59199 0.0
C1266 C 0.44506 0.59186 0.47781 0.0
C1267 C 0.42549 0.58805 0.51115 0.0
C1268 C 0.4252 0.60012 0.57999 0.0
C1269 C 0.44429 0.61416 0.62014 0.0
C1270 C 0.44615 0.57949 0.40382 0.0
C1271 C 0.40469 0.59711 0.61525 0.0
H1272 H 0.3741 0.55128 0.30946 0.0
H1273 H 0.38186 0.51567 0.5076 0.0
H1274 H 0.40376 0.60272 0.41594 0.0
H1275 H 0.41494 0.59607 0.32911 0.0
H1276 H 0.38748 0.58864 0.32673 0.0
H1277 H 0.4027 0.53161 0.62606 0.0
H1278 H 0.4273 0.55275 0.58603 0.0
H1279 H 0.41063 0.55874 0.6487 0.0
H1280 H 0.4787 0.60821 0.49474 0.0
H1281 H 0.44391 0.62237 0.67621 0.0
H1282 H 0.43653 0.57997 0.35089 0.0
H1283 H 0.43953 0.56268 0.42208 0.0
H1284 H 0.46261 0.58562 0.38135 0.0
H1285 H 0.39309 0.5941 0.56454 0.0
H1286 H 0.40723 0.61112 0.65192 0.0
H1287 H 0.39769 0.58322 0.6578 0.0
C1288 C 0.86137 0.39976 0.53809 0.0
C1289 C 0.85013 0.39099 0.46352 0.0
C1290 C 0.85903 0.41497 0.58259 0.0
C1291 C 0.84495 0.42148 0.55222 0.0
C1292 C 0.83219 0.41139 0.48124 0.0
C1293 C 0.83497 0.39627 0.4374 0.0
C1294 C 0.87284 0.4252 0.65853 0.0
C1295 C 0.81665 0.41756 0.44823 0.0
C1296 C 0.83914 0.45807 0.7044 0.0
C1297 C 0.8554 0.47781 0.67671 0.0
C1298 C 0.83427 0.43948 0.66067 0.0
C1299 C 0.84604 0.44075 0.58814 0.0
C1300 C 0.86123 0.46075 0.55622 0.0
C1301 C 0.86566 0.47902 0.6007 0.0
C1302 C 0.8176 0.41846 0.69543 0.0
C1303 C 0.87405 0.46283 0.47861 0.0
H1304 H 0.87282 0.3955 0.5598 0.0
H1305 H 0.82604 0.38944 0.38034 0.0
H1306 H 0.88457 0.44191 0.6439 0.0
H1307 H 0.86319 0.42524 0.71217 0.0
H1308 H 0.88153 0.41704 0.6783 0.0
H1309 H 0.80504 0.4055 0.40444 0.0
H1310 H 0.80795 0.41984 0.50049 0.0
H1311 H 0.82533 0.43278 0.41394 0.0
H1312 H 0.83096 0.45696 0.7626 0.0
H1313 H 0.87796 0.49422 0.57781 0.0
H1314 H 0.82538 0.41084 0.72882 0.0
H1315 H 0.80789 0.40768 0.6442 0.0
H1316 H 0.80701 0.42028 0.74047 0.0
H1317 H 0.88478 0.45652 0.49187 0.0
H1318 H 0.88377 0.47951 0.45769 0.0
H1319 H 0.86353 0.45345 0.42624 0.0
C1320 C 0.38541 0.85737 0.82573 0.0
C1321 C 0.37872 0.84751 0.90431 0.0
C1322 C 0.40096 0.85591 0.77964 0.0
C1323 C 0.40993 0.84415 0.81249 0.0
C1324 C 0.4019 0.83258 0.88789 0.0
C1325 C 0.38641 0.83445 0.93321 0.0
C1326 C 0.40896 0.8684 0.69911 0.0
C1327 C 0.41071 0.81944 0.9238 0.0
C1328 C 0.44742 0.8393 0.66119 0.0
C1329 C 0.46679 0.85699 0.68389 0.0
C1330 C 0.42882 0.83396 0.70594 0.0
C1331 C 0.42963 0.84671 0.7743 0.0
C1332 C 0.44933 0.86371 0.80076 0.0
C1333 C 0.46764 0.86856 0.75555 0.0
C1334 C 0.40816 0.81542 0.67709 0.0
C1335 C 0.45094 0.87767 0.87368 0.0
H1336 H 0.3793 0.86718 0.80192 0.0
H1337 H 0.38119 0.82655 0.99334 0.0
H1338 H 0.42527 0.88175 0.70887 0.0
H1339 H 0.40963 0.85838 0.64836 0.0
H1340 H 0.39887 0.87492 0.67778 0.0
H1341 H 0.40012 0.80824 0.97243 0.0
H1342 H 0.4132 0.81038 0.87364 0.0
H1343 H 0.4263 0.83001 0.95313 0.0
H1344 H 0.44659 0.83012 0.60641 0.0
H1345 H 0.48254 0.88205 0.77461 0.0
H1346 H 0.39887 0.8213 0.64291 0.0
H1347 H 0.39856 0.80606 0.73152 0.0
H1348 H 0.41068 0.80486 0.63439 0.0
H1349 H 0.44264 0.88646 0.85773 0.0
H1350 H 0.46759 0.8893 0.88987 0.0
H1351 H 0.44313 0.86796 0.93006 0.0
C1352 C 0.60318 0.46521 0.82492 0.0
C1353 C 0.61417 0.46545 0.75232 0.0
C1354 C 0.58937 0.44621 0.86528 0.0
C1355 C 0.58663 0.42697 0.83285 0.0
C1356 C 0.59936 0.42729 0.76526 0.0
C1357 C 0.61294 0.44657 0.72528 0.0
C1358 C 0.57629 0.44666 0.93801 0.0
C1359 C 0.59749 0.40718 0.73099 0.0
C1360 C 0.54982 0.38175 0.97353 0.0
C1361 C 0.53023 0.3769 0.93881 0.0
C1362 C 0.5688 0.39663 0.93482 0.0
C1363 C 0.568 0.40687 0.86056 0.0
C1364 C 0.54833 0.40022 0.82065 0.0
C1365 C 0.5297 0.38524 0.86011 0.0
C1366 C 0.58952 0.4027 0.97753 0.0
C1367 C 0.54671 0.41051 0.74073 0.0
H1368 H 0.60441 0.47976 0.84765 0.0
H1369 H 0.62163 0.4466 0.67006 0.0
H1370 H 0.55949 0.4394 0.91847 0.0
H1371 H 0.577 0.4373 0.99147 0.0
H1372 H 0.58167 0.46298 0.96019 0.0
H1373 H 0.61188 0.41037 0.6954 0.0
H1374 H 0.59483 0.39579 0.78214 0.0
H1375 H 0.58378 0.39961 0.68768 0.0
H1376 H 0.55038 0.37518 0.03388 0.0
H1377 H 0.5146 0.38114 0.83189 0.0
H1378 H 0.59434 0.41695 0.01669 0.0
H1379 H 0.60223 0.40655 0.93091 0.0
H1380 H 0.58811 0.38985 0.01915 0.0
H1381 H 0.55075 0.42702 0.75419 0.0
H1382 H 0.53056 0.40201 0.71327 0.0
H1383 H 0.55808 0.41112 0.69318 0.0
C1384 C 0.14304 0.53494 0.23213 0.0
C1385 C 0.12671 0.51487 0.20797 0.0
C1386 C 0.1475 0.55306 0.18556 0.0
C1387 C 0.1352 0.55105 0.11371 0.0
C1388 C 0.1196 0.53073 0.08617 0.0
C1389 C 0.11563 0.51292 0.13331 0.0
C1390 C 0.16456 0.57443 0.21587 0.0
C1391 C 0.10614 0.52787 0.00973 0.0
C1392 C 0.12218 0.59331 0.05355 0.0
C1393 C 0.13348 0.60106 0.97825 0.0
C1394 C 0.12356 0.57786 0.10073 0.0
C1395 C 0.13673 0.57005 0.07255 0.0
C1396 C 0.14939 0.57887 1.00012 0.0
C1397 C 0.14755 0.59424 0.95354 0.0
C1398 C 0.10983 0.56893 0.17784 0.0
C1399 C 0.16395 0.57124 0.96914 0.0
H1400 H 0.15186 0.53666 0.28923 0.0
H1401 H 0.10315 0.49751 0.11326 0.0
H1402 H 0.17443 0.58414 0.16261 0.0
H1403 H 0.15716 0.58298 0.24465 0.0
H1404 H 0.17496 0.57308 0.26344 0.0
H1405 H 0.09583 0.51096 0.99301 0.0
H1406 H 0.09595 0.53486 0.02189 0.0
H1407 H 0.11626 0.53624 0.95492 0.0
H1408 H 0.11147 0.59865 0.07408 0.0
H1409 H 0.15651 0.60022 0.89592 0.0
H1410 H 0.11942 0.5691 0.23216 0.0
H1411 H 0.0976 0.55222 0.16621 0.0
H1412 H 0.10175 0.57786 0.19503 0.0
H1413 H 0.17304 0.56977 0.022 0.0
H1414 H 0.17523 0.58202 0.92111 0.0
H1415 H 0.15444 0.55534 0.94071 0.0
loop_
_geom_bond_atom_site_label_1
_geom_bond_atom_site_label_2
_geom_bond_distance
_geom_bond_site_symmetry_2
_ccdc_geom_bond_type
Sc0 O3 2.025 . S
Sc0 O10 2.105 . S
Sc0 O13 2.105 . S
Sc0 O16 2.105 . S
Sc0 O19 2.105 1_554 S
Sc1 O3 2.025 1_556 S
Sc1 O11 2.105 . S
Sc1 O15 2.105 1_556 S
Sc1 O17 2.105 1_556 S
Sc1 O21 2.105 . S
Sc2 O3 2.025 . S
Sc2 O12 2.105 1_554 S
Sc2 O14 2.105 . S
Sc2 O18 2.105 . S
Sc2 O20 2.104 1_554 S
O3 Sc0 2.025 . S
O3 Sc1 2.025 1_554 S
O3 Sc2 2.025 . S
C4 O10 1.268 . S
C4 O20 1.268 1_554 S
C5 O11 1.268 . S
C5 O19 1.268 . S
C6 O12 1.268 . S
C6 O21 1.268 . S
C7 O13 1.268 . S
C7 O17 1.268 . S
C8 O14 1.268 . S
C8 O16 1.268 . S
C9 O15 1.268 . S
C9 O18 1.268 . S
O10 Sc0 2.105 . S
O10 C4 1.268 . S
O11 Sc1 2.105 . S
O11 C5 1.268 . S
O12 Sc2 2.105 1_556 S
O12 C6 1.268 . S
O13 Sc0 2.105 . S
O13 C7 1.268 . S
O14 Sc2 2.105 . S
O14 C8 1.268 . S
O15 Sc1 2.105 1_554 S
O15 C9 1.268 . S
O16 Sc0 2.105 . S
O16 C8 1.268 . S
O17 Sc1 2.105 1_554 S
O17 C7 1.268 . S
O18 Sc2 2.105 . S
O18 C9 1.268 . S
O19 Sc0 2.105 1_556 S
O19 C5 1.268 . S
O20 Sc2 2.104 1_556 S
O20 C4 1.268 1_556 S
O21 Sc1 2.105 . S
O21 C6 1.268 . S
Sc22 O25 2.025 . S
Sc22 O32 2.105 . S
Sc22 O35 2.105 . S
Sc22 O38 2.105 . S
Sc22 O41 2.105 . S
Sc23 O25 2.025 . S
Sc23 O33 2.105 . S
Sc23 O37 2.105 . S
Sc23 O39 2.105 . S
Sc23 O43 2.105 . S
Sc24 O25 2.025 . S
Sc24 O34 2.105 . S
Sc24 O36 2.105 . S
Sc24 O40 2.105 . S
Sc24 O42 2.105 . S
O25 Sc22 2.025 . S
O25 Sc23 2.025 . S
O25 Sc24 2.025 . S
C26 O32 1.268 . S
C26 O42 1.268 . S
C27 O33 1.268 . S
C27 O41 1.268 . S
C28 O34 1.268 . S
C28 O43 1.268 . S
C29 O35 1.268 . S
C29 O39 1.268 . S
C30 O36 1.268 . S
C30 O38 1.268 . S
C31 O37 1.268 . S
C31 O40 1.268 . S
O32 Sc22 2.105 . S
O32 C26 1.268 . S
O33 Sc23 2.105 . S
O33 C27 1.268 . S
O34 Sc24 2.105 . S
O34 C28 1.268 . S
O35 Sc22 2.105 . S
O35 C29 1.268 . S
O36 Sc24 2.105 . S
O36 C30 1.268 . S
O37 Sc23 2.105 . S
O37 C31 1.268 . S
O38 Sc22 2.105 . S
O38 C30 1.268 . S
O39 Sc23 2.105 . S
O39 C29 1.268 . S
O40 Sc24 2.105 . S
O40 C31 1.268 . S
O41 Sc22 2.105 . S
O41 C27 1.268 . S
O42 Sc24 2.105 . S
O42 C26 1.268 . S
O43 Sc23 2.105 . S
O43 C28 1.268 . S
Sc44 O47 2.025 . S
Sc44 O54 2.105 . S
Sc44 O57 2.105 . S
Sc44 O60 2.105 . S
Sc44 O63 2.105 . S
Sc45 O47 2.025 . S
Sc45 O55 2.105 . S
Sc45 O59 2.105 . S
Sc45 O61 2.105 . S
Sc45 O65 2.105 . S
Sc46 O47 2.025 . S
Sc46 O56 2.105 . S
Sc46 O58 2.105 . S
Sc46 O62 2.105 . S
Sc46 O64 2.105 . S
O47 Sc44 2.025 . S
O47 Sc45 2.025 . S
O47 Sc46 2.025 . S
C48 O54 1.268 . S
C48 O64 1.268 . S
C49 O55 1.268 . S
C49 O63 1.268 . S
C50 O56 1.268 . S
C50 O65 1.268 . S
C51 O57 1.268 . S
C51 O61 1.268 . S
C52 O58 1.268 . S
C52 O60 1.268 . S
C53 O59 1.268 . S
C53 O62 1.268 . S
O54 Sc44 2.105 . S
O54 C48 1.268 . S
O55 Sc45 2.105 . S
O55 C49 1.268 . S
O56 Sc46 2.105 . S
O56 C50 1.268 . S
O57 Sc44 2.105 . S
O57 C51 1.268 . S
O58 Sc46 2.105 . S
O58 C52 1.268 . S
O59 Sc45 2.105 . S
O59 C53 1.268 . S
O60 Sc44 2.105 . S
O60 C52 1.268 . S
O61 Sc45 2.105 . S
O61 C51 1.268 . S
O62 Sc46 2.105 . S
O62 C53 1.268 . S
O63 Sc44 2.105 . S
O63 C49 1.268 . S
O64 Sc46 2.105 . S
O64 C48 1.268 . S
O65 Sc45 2.105 . S
O65 C50 1.268 . S
Sc66 O69 2.025 . S
Sc66 O76 2.105 . S
Sc66 O79 2.105 . S
Sc66 O82 2.105 . S
Sc66 O85 2.105 . S
Sc67 O69 2.025 . S
Sc67 O77 2.105 . S
Sc67 O81 2.105 . S
Sc67 O83 2.105 . S
Sc67 O87 2.105 . S
Sc68 O69 2.025 . S
Sc68 O78 2.105 . S
Sc68 O80 2.105 . S
Sc68 O84 2.105 . S
Sc68 O86 2.105 . S
O69 Sc66 2.025 . S
O69 Sc67 2.025 . S
O69 Sc68 2.025 . S
C70 O76 1.268 . S
C70 O86 1.268 . S
C71 O77 1.268 . S
C71 O85 1.268 . S
C72 O78 1.268 . S
C72 O87 1.268 . S
C73 O79 1.268 . S
C73 O83 1.268 . S
C74 O80 1.268 . S
C74 O82 1.268 . S
C75 O81 1.268 . S
C75 O84 1.268 . S
O76 Sc66 2.105 . S
O76 C70 1.268 . S
O77 Sc67 2.105 . S
O77 C71 1.268 . S
O78 Sc68 2.105 . S
O78 C72 1.268 . S
O79 Sc66 2.105 . S
O79 C73 1.268 . S
O80 Sc68 2.105 . S
O80 C74 1.268 . S
O81 Sc67 2.105 . S
O81 C75 1.268 . S
O82 Sc66 2.105 . S
O82 C74 1.268 . S
O83 Sc67 2.105 . S
O83 C73 1.268 . S
O84 Sc68 2.105 . S
O84 C75 1.268 . S
O85 Sc66 2.105 . S
O85 C71 1.268 . S
O86 Sc68 2.105 . S
O86 C70 1.268 . S
O87 Sc67 2.105 . S
O87 C72 1.268 . S
Sc88 O91 2.025 . S
Sc88 O98 2.105 . S
Sc88 O101 2.105 . S
Sc88 O104 2.105 . S
Sc88 O107 2.105 . S
Sc89 O91 2.025 . S
Sc89 O99 2.105 . S
Sc89 O103 2.105 . S
Sc89 O105 2.105 . S
Sc89 O109 2.105 . S
Sc90 O91 2.025 . S
Sc90 O100 2.105 . S
Sc90 O102 2.105 . S
Sc90 O106 2.105 . S
Sc90 O108 2.105 . S
O91 Sc88 2.025 . S
O91 Sc89 2.025 . S
O91 Sc90 2.025 . S
C92 O98 1.268 . S
C92 O108 1.268 . S
C93 O99 1.268 . S
C93 O107 1.268 . S
C94 O100 1.268 . S
C94 O109 1.268 . S
C95 O101 1.268 . S
C95 O105 1.268 . S
C96 O102 1.268 . S
C96 O104 1.268 . S
C97 O103 1.268 . S
C97 O106 1.268 . S
O98 Sc88 2.105 . S
O98 C92 1.268 . S
O99 Sc89 2.105 . S
O99 C93 1.268 . S
O100 Sc90 2.105 . S
O100 C94 1.268 . S
O101 Sc88 2.105 . S
O101 C95 1.268 . S
O102 Sc90 2.105 . S
O102 C96 1.268 . S
O103 Sc89 2.105 . S
O103 C97 1.268 . S
O104 Sc88 2.105 . S
O104 C96 1.268 . S
O105 Sc89 2.105 . S
O105 C95 1.268 . S
O106 Sc90 2.105 . S
O106 C97 1.268 . S
O107 Sc88 2.105 . S
O107 C93 1.268 . S
O108 Sc90 2.105 . S
O108 C92 1.268 . S
O109 Sc89 2.105 . S
O109 C94 1.268 . S
Sc110 O113 2.025 . S
Sc110 O120 2.105 . S
Sc110 O123 2.105 . S
Sc110 O126 2.105 1_556 S
Sc110 O129 2.105 . S
Sc111 O113 2.025 . S
Sc111 O121 2.105 . S
Sc111 O125 2.105 . S
Sc111 O127 2.105 . S
Sc111 O131 2.105 . S
Sc112 O113 2.025 . S
Sc112 O122 2.105 . S
Sc112 O124 2.105 . S
Sc112 O128 2.105 . S
Sc112 O130 2.105 . S
O113 Sc110 2.025 . S
O113 Sc111 2.025 . S
O113 Sc112 2.025 . S
C114 O120 1.268 . S
C114 O130 1.268 . S
C115 O121 1.268 . S
C115 O129 1.268 . S
C116 O122 1.268 . S
C116 O131 1.268 . S
C117 O123 1.268 . S
C117 O127 1.268 . S
C118 O124 1.268 1_554 S
C118 O126 1.268 . S
C119 O125 1.268 . S
C119 O128 1.268 . S
O120 Sc110 2.105 . S
O120 C114 1.268 . S
O121 Sc111 2.105 . S
O121 C115 1.268 . S
O122 Sc112 2.105 . S
O122 C116 1.268 . S
O123 Sc110 2.105 . S
O123 C117 1.268 . S
O124 Sc112 2.105 . S
O124 C118 1.268 1_556 S
O125 Sc111 2.105 . S
O125 C119 1.268 . S
O126 Sc110 2.105 1_554 S
O126 C118 1.268 . S
O127 Sc111 2.105 . S
O127 C117 1.268 . S
O128 Sc112 2.105 . S
O128 C119 1.268 . S
O129 Sc110 2.105 . S
O129 C115 1.268 . S
O130 Sc112 2.105 . S
O130 C114 1.268 . S
O131 Sc111 2.105 . S
O131 C116 1.268 . S
Sc132 O135 2.025 . S
Sc132 O142 2.105 . S
Sc132 O145 2.105 . S
Sc132 O148 2.105 . S
Sc132 O151 2.105 . S
Sc133 O135 2.025 . S
Sc133 O143 2.105 . S
Sc133 O147 2.105 . S
Sc133 O149 2.105 . S
Sc133 O153 2.105 . S
Sc134 O135 2.025 . S
Sc134 O144 2.105 . S
Sc134 O146 2.105 . S
Sc134 O150 2.105 . S
Sc134 O152 2.105 . S
O135 Sc132 2.025 . S
O135 Sc133 2.025 . S
O135 Sc134 2.025 . S
C136 O142 1.268 . S
C136 O152 1.268 . S
C137 O143 1.268 . S
C137 O151 1.268 . S
C138 O144 1.268 . S
C138 O153 1.268 . S
C139 O145 1.268 1_554 S
C139 O149 1.268 1_554 S
C140 O146 1.268 . S
C140 O148 1.268 . S
C141 O147 1.268 . S
C141 O150 1.268 . S
O142 Sc132 2.105 . S
O142 C136 1.268 . S
O143 Sc133 2.105 . S
O143 C137 1.268 . S
O144 Sc134 2.105 . S
O144 C138 1.268 . S
O145 Sc132 2.105 . S
O145 C139 1.268 1_556 S
O146 Sc134 2.105 . S
O146 C140 1.268 . S
O147 Sc133 2.105 . S
O147 C141 1.268 . S
O148 Sc132 2.105 . S
O148 C140 1.268 . S
O149 Sc133 2.105 . S
O149 C139 1.268 1_556 S
O150 Sc134 2.105 . S
O150 C141 1.268 . S
O151 Sc132 2.105 . S
O151 C137 1.268 . S
O152 Sc134 2.105 . S
O152 C136 1.268 . S
O153 Sc133 2.105 . S
O153 C138 1.268 . S
Sc154 O157 2.025 . S
Sc154 O164 2.105 . S
Sc154 O167 2.105 1_556 S
Sc154 O170 2.105 1_556 S
Sc154 O173 2.105 . S
Sc155 O157 2.025 1_554 S
Sc155 O165 2.105 . S
Sc155 O169 2.105 . S
Sc155 O171 2.105 . S
Sc155 O175 2.105 1_554 S
Sc156 O157 2.025 . S
Sc156 O166 2.105 . S
Sc156 O168 2.105 . S
Sc156 O172 2.105 1_556 S
Sc156 O174 2.105 . S
O157 Sc154 2.025 . S
O157 Sc155 2.025 1_556 S
O157 Sc156 2.025 . S
C158 O164 1.268 . S
C158 O174 1.268 . S
C159 O165 1.268 1_556 S
C159 O173 1.268 . S
C160 O166 1.268 . S
C160 O175 1.268 . S
C161 O167 1.268 . S
C161 O171 1.268 . S
C162 O168 1.268 1_554 S
C162 O170 1.268 . S
C163 O169 1.268 . S
C163 O172 1.268 . S
O164 Sc154 2.105 . S
O164 C158 1.268 . S
O165 Sc155 2.105 . S
O165 C159 1.268 1_554 S
O166 Sc156 2.105 . S
O166 C160 1.268 . S
O167 Sc154 2.105 1_554 S
O167 C161 1.268 . S
O168 Sc156 2.105 . S
O168 C162 1.268 1_556 S
O169 Sc155 2.105 . S
O169 C163 1.268 . S
O170 Sc154 2.105 1_554 S
O170 C162 1.268 . S
O171 Sc155 2.105 . S
O171 C161 1.268 . S
O172 Sc156 2.105 1_554 S
O172 C163 1.268 . S
O173 Sc154 2.105 . S
O173 C159 1.268 . S
O174 Sc156 2.105 . S
O174 C158 1.268 . S
O175 Sc155 2.105 1_556 S
O175 C160 1.268 . S
Sc176 O179 2.025 . S
Sc176 O186 2.105 . S
Sc176 O189 2.105 . S
Sc176 O192 2.105 . S
Sc176 O195 2.105 . S
Sc177 O179 2.025 . S
Sc177 O187 2.105 . S
Sc177 O191 2.105 . S
Sc177 O193 2.105 . S
Sc177 O197 2.105 . S
Sc178 O179 2.025 . S
Sc178 O188 2.105 . S
Sc178 O190 2.105 . S
Sc178 O194 2.105 . S
Sc178 O196 2.105 1_554 S
O179 Sc176 2.025 . S
O179 Sc177 2.025 . S
O179 Sc178 2.025 . S
C180 O186 1.268 1_556 S
C180 O196 1.268 . S
C181 O187 1.268 . S
C181 O195 1.268 . S
C182 O188 1.268 . S
C182 O197 1.268 . S
C183 O189 1.268 . S
C183 O193 1.268 . S
C184 O190 1.268 . S
C184 O192 1.268 . S
C185 O191 1.268 . S
C185 O194 1.268 . S
O186 Sc176 2.105 . S
O186 C180 1.268 1_554 S
O187 Sc177 2.105 . S
O187 C181 1.268 . S
O188 Sc178 2.105 . S
O188 C182 1.268 . S
O189 Sc176 2.105 . S
O189 C183 1.268 . S
O190 Sc178 2.105 . S
O190 C184 1.268 . S
O191 Sc177 2.105 . S
O191 C185 1.268 . S
O192 Sc176 2.105 . S
O192 C184 1.268 . S
O193 Sc177 2.105 . S
O193 C183 1.268 . S
O194 Sc178 2.105 . S
O194 C185 1.268 . S
O195 Sc176 2.105 . S
O195 C181 1.268 . S
O196 Sc178 2.105 1_556 S
O196 C180 1.268 . S
O197 Sc177 2.105 . S
O197 C182 1.268 . S
Sc198 O201 2.025 . S
Sc198 O208 2.105 . S
Sc198 O211 2.105 . S
Sc198 O214 2.105 . S
Sc198 O217 2.105 . S
Sc199 O201 2.025 . S
Sc199 O209 2.105 . S
Sc199 O213 2.105 . S
Sc199 O215 2.105 . S
Sc199 O219 2.105 . S
Sc200 O201 2.025 . S
Sc200 O210 2.105 . S
Sc200 O212 2.105 . S
Sc200 O216 2.105 . S
Sc200 O218 2.105 . S
O201 Sc198 2.025 . S
O201 Sc199 2.025 . S
O201 Sc200 2.025 . S
C202 O208 1.268 . S
C202 O218 1.268 . S
C203 O209 1.268 . S
C203 O217 1.268 . S
C204 O210 1.268 . S
C204 O219 1.268 . S
C205 O211 1.268 . S
C205 O215 1.268 . S
C206 O212 1.268 . S
C206 O214 1.268 . S
C207 O213 1.268 . S
C207 O216 1.268 . S
O208 Sc198 2.105 . S
O208 C202 1.268 . S
O209 Sc199 2.105 . S
O209 C203 1.268 . S
O210 Sc200 2.105 . S
O210 C204 1.268 . S
O211 Sc198 2.105 . S
O211 C205 1.268 . S
O212 Sc200 2.105 . S
O212 C206 1.268 . S
O213 Sc199 2.105 . S
O213 C207 1.268 . S
O214 Sc198 2.105 . S
O214 C206 1.268 . S
O215 Sc199 2.105 . S
O215 C205 1.268 . S
O216 Sc200 2.105 . S
O216 C207 1.268 . S
O217 Sc198 2.105 . S
O217 C203 1.268 . S
O218 Sc200 2.105 . S
O218 C202 1.268 . S
O219 Sc199 2.105 . S
O219 C204 1.268 . S
Sc220 O223 2.025 . S
Sc220 O230 2.105 . S
Sc220 O233 2.105 . S
Sc220 O236 2.105 . S
Sc220 O239 2.105 . S
Sc221 O223 2.025 . S
Sc221 O231 2.105 . S
Sc221 O235 2.105 . S
Sc221 O237 2.105 . S
Sc221 O241 2.105 . S
Sc222 O223 2.025 . S
Sc222 O232 2.105 . S
Sc222 O234 2.105 . S
Sc222 O238 2.105 . S
Sc222 O240 2.105 . S
O223 Sc220 2.025 . S
O223 Sc221 2.025 . S
O223 Sc222 2.025 . S
C224 O230 1.268 . S
C224 O240 1.268 . S
C225 O231 1.268 . S
C225 O239 1.268 . S
C226 O232 1.268 . S
C226 O241 1.268 . S
C227 O233 1.268 . S
C227 O237 1.268 . S
C228 O234 1.268 . S
C228 O236 1.268 . S
C229 O235 1.268 . S
C229 O238 1.268 . S
O230 Sc220 2.105 . S
O230 C224 1.268 . S
O231 Sc221 2.105 . S
O231 C225 1.268 . S
O232 Sc222 2.105 . S
O232 C226 1.268 . S
O233 Sc220 2.105 . S
O233 C227 1.268 . S
O234 Sc222 2.105 . S
O234 C228 1.268 . S
O235 Sc221 2.105 . S
O235 C229 1.268 . S
O236 Sc220 2.105 . S
O236 C228 1.268 . S
O237 Sc221 2.105 . S
O237 C227 1.268 . S
O238 Sc222 2.105 . S
O238 C229 1.268 . S
O239 Sc220 2.105 . S
O239 C225 1.268 . S
O240 Sc222 2.105 . S
O240 C224 1.268 . S
O241 Sc221 2.105 . S
O241 C226 1.268 . S
Sc242 O245 2.025 . S
Sc242 O252 2.105 . S
Sc242 O255 2.105 . S
Sc242 O258 2.105 . S
Sc242 O261 2.105 . S
Sc243 O245 2.025 . S
Sc243 O253 2.105 . S
Sc243 O257 2.105 . S
Sc243 O259 2.105 . S
Sc243 O263 2.105 . S
Sc244 O245 2.025 . S
Sc244 O254 2.105 . S
Sc244 O256 2.105 . S
Sc244 O260 2.105 . S
Sc244 O262 2.105 . S
O245 Sc242 2.025 . S
O245 Sc243 2.025 . S
O245 Sc244 2.025 . S
C246 O252 1.268 . S
C246 O262 1.268 . S
C247 O253 1.268 . S
C247 O261 1.268 . S
C248 O254 1.268 . S
C248 O263 1.268 . S
C249 O255 1.268 . S
C249 O259 1.268 . S
C250 O256 1.268 . S
C250 O258 1.268 . S
C251 O257 1.268 . S
C251 O260 1.268 . S
O252 Sc242 2.105 . S
O252 C246 1.268 . S
O253 Sc243 2.105 . S
O253 C247 1.268 . S
O254 Sc244 2.105 . S
O254 C248 1.268 . S
O255 Sc242 2.105 . S
O255 C249 1.268 . S
O256 Sc244 2.105 . S
O256 C250 1.268 . S
O257 Sc243 2.105 . S
O257 C251 1.268 . S
O258 Sc242 2.105 . S
O258 C250 1.268 . S
O259 Sc243 2.105 . S
O259 C249 1.268 . S
O260 Sc244 2.105 . S
O260 C251 1.268 . S
O261 Sc242 2.105 . S
O261 C247 1.268 . S
O262 Sc244 2.105 . S
O262 C246 1.268 . S
O263 Sc243 2.105 . S
O263 C248 1.268 . S
C264 C265 1.391 . S
C264 C266 1.394 . S
C264 H280 0.931 . S
C265 C264 1.391 . S
C265 C269 1.376 . S
C266 C264 1.394 . S
C266 C267 1.369 . S
C266 C270 1.531 . S
C267 C266 1.369 . S
C267 C268 1.410 . S
C267 C275 1.503 . S
C268 C267 1.410 . S
C268 C269 1.392 . S
C268 C271 1.511 . S
C269 C265 1.376 . S
C269 C268 1.392 . S
C269 H281 0.929 . S
C270 C266 1.531 . S
C270 H282 0.960 . S
C270 H283 0.962 . S
C270 H284 0.960 . S
C271 C268 1.511 . S
C271 H285 0.961 . S
C271 H286 0.961 . S
C271 H287 0.961 . S
C272 C273 1.370 . S
C272 C274 1.363 . S
C272 H288 0.931 . S
C273 C272 1.370 . S
C273 C277 1.408 . S
C274 C272 1.363 . S
C274 C275 1.370 . S
C274 C278 1.524 . S
C275 C267 1.503 . S
C275 C274 1.370 . S
C275 C276 1.403 . S
C276 C275 1.403 . S
C276 C277 1.404 . S
C276 C279 1.539 . S
C277 C273 1.408 . S
C277 C276 1.404 . S
C277 H289 0.930 . S
C278 C274 1.524 . S
C278 H290 0.956 . S
C278 H291 0.961 . S
C278 H292 0.961 . S
C279 C276 1.539 . S
C279 H293 0.958 . S
C279 H294 0.961 . S
C279 H295 0.960 . S
H280 C264 0.931 . S
H281 C269 0.929 . S
H282 C270 0.960 . S
H283 C270 0.962 . S
H284 C270 0.960 . S
H285 C271 0.961 . S
H286 C271 0.961 . S
H287 C271 0.961 . S
H288 C272 0.931 . S
H289 C277 0.930 . S
H290 C278 0.956 . S
H291 C278 0.961 . S
H292 C278 0.961 . S
H293 C279 0.958 . S
H294 C279 0.961 . S
H295 C279 0.960 . S
C296 C297 1.391 . S
C296 C298 1.394 . S
C296 H312 0.931 . S
C297 C296 1.391 . S
C297 C301 1.376 . S
C298 C296 1.394 . S
C298 C299 1.369 . S
C298 C302 1.531 . S
C299 C298 1.369 . S
C299 C300 1.410 . S
C299 C307 1.503 . S
C300 C299 1.410 . S
C300 C301 1.392 . S
C300 C303 1.511 . S
C301 C297 1.376 . S
C301 C300 1.392 . S
C301 H313 0.929 . S
C302 C298 1.531 . S
C302 H314 0.960 . S
C302 H315 0.962 . S
C302 H316 0.960 . S
C303 C300 1.511 . S
C303 H317 0.961 . S
C303 H318 0.961 . S
C303 H319 0.961 . S
C304 C305 1.370 . S
C304 C306 1.363 . S
C304 H320 0.931 . S
C305 C304 1.370 . S
C305 C309 1.408 . S
C306 C304 1.363 . S
C306 C307 1.370 . S
C306 C310 1.524 . S
C307 C299 1.503 . S
C307 C306 1.370 . S
C307 C308 1.403 . S
C308 C307 1.403 . S
C308 C309 1.404 . S
C308 C311 1.539 . S
C309 C305 1.408 . S
C309 C308 1.404 . S
C309 H321 0.930 . S
C310 C306 1.524 . S
C310 H322 0.956 . S
C310 H323 0.961 . S
C310 H324 0.961 . S
C311 C308 1.539 . S
C311 H325 0.958 . S
C311 H326 0.961 . S
C311 H327 0.960 . S
H312 C296 0.931 . S
H313 C301 0.929 . S
H314 C302 0.960 . S
H315 C302 0.962 . S
H316 C302 0.960 . S
H317 C303 0.961 . S
H318 C303 0.961 . S
H319 C303 0.961 . S
H320 C304 0.931 . S
H321 C309 0.930 . S
H322 C310 0.956 . S
H323 C310 0.961 . S
H324 C310 0.961 . S
H325 C311 0.958 . S
H326 C311 0.961 . S
H327 C311 0.960 . S
C328 C329 1.391 . S
C328 C330 1.394 . S
C328 H344 0.931 . S
C329 C328 1.391 . S
C329 C333 1.376 . S
C330 C328 1.394 . S
C330 C331 1.369 . S
C330 C334 1.531 . S
C331 C330 1.369 . S
C331 C332 1.410 . S
C331 C339 1.503 . S
C332 C331 1.410 . S
C332 C333 1.392 . S
C332 C335 1.511 . S
C333 C329 1.376 . S
C333 C332 1.392 . S
C333 H345 0.929 . S
C334 C330 1.531 . S
C334 H346 0.960 . S
C334 H347 0.962 . S
C334 H348 0.960 . S
C335 C332 1.511 . S
C335 H349 0.961 . S
C335 H350 0.961 . S
C335 H351 0.961 . S
C336 C337 1.370 . S
C336 C338 1.363 1_554 S
C336 H352 0.931 . S
C337 C336 1.370 . S
C337 C341 1.408 . S
C338 C336 1.363 1_556 S
C338 C339 1.370 . S
C338 C342 1.524 . S
C339 C331 1.503 . S
C339 C338 1.370 . S
C339 C340 1.403 . S
C340 C339 1.403 . S
C340 C341 1.404 1_556 S
C340 C343 1.539 . S
C341 C337 1.408 . S
C341 C340 1.404 1_554 S
C341 H353 0.930 . S
C342 C338 1.524 . S
C342 H354 0.956 . S
C342 H355 0.961 . S
C342 H356 0.961 . S
C343 C340 1.539 . S
C343 H357 0.958 . S
C343 H358 0.961 . S
C343 H359 0.960 . S
H344 C328 0.931 . S
H345 C333 0.929 . S
H346 C334 0.960 . S
H347 C334 0.962 . S
H348 C334 0.960 . S
H349 C335 0.961 . S
H350 C335 0.961 . S
H351 C335 0.961 . S
H352 C336 0.931 . S
H353 C341 0.930 . S
H354 C342 0.956 . S
H355 C342 0.961 . S
H356 C342 0.961 . S
H357 C343 0.958 . S
H358 C343 0.961 . S
H359 C343 0.960 . S
C360 C361 1.391 . S
C360 C362 1.394 . S
C360 H376 0.931 . S
C361 C360 1.391 . S
C361 C365 1.376 . S
C362 C360 1.394 . S
C362 C363 1.369 . S
C362 C366 1.531 . S
C363 C362 1.369 . S
C363 C364 1.410 . S
C363 C371 1.503 1_554 S
C364 C363 1.410 . S
C364 C365 1.392 . S
C364 C367 1.511 . S
C365 C361 1.376 . S
C365 C364 1.392 . S
C365 H377 0.929 . S
C366 C362 1.531 . S
C366 H378 0.960 . S
C366 H379 0.962 . S
C366 H380 0.960 . S
C367 C364 1.511 . S
C367 H381 0.961 . S
C367 H382 0.973 . S
C367 H383 0.961 . S
C368 C369 1.370 . S
C368 C370 1.363 . S
C368 H384 0.931 . S
C369 C368 1.370 . S
C369 C373 1.408 . S
C370 C368 1.363 . S
C370 C371 1.370 . S
C370 C374 1.524 . S
C371 C363 1.503 1_556 S
C371 C370 1.370 . S
C371 C372 1.403 . S
C372 C371 1.403 . S
C372 C373 1.404 . S
C372 C375 1.539 . S
C373 C369 1.408 . S
C373 C372 1.404 . S
C373 H385 0.930 . S
C374 C370 1.524 . S
C374 H386 0.956 1_556 S
C374 H387 0.961 1_556 S
C374 H388 0.961 . S
C375 C372 1.539 . S
C375 H389 0.958 1_556 S
C375 H390 0.961 . S
C375 H391 0.960 1_556 S
H376 C360 0.931 . S
H377 C365 0.929 . S
H378 C366 0.960 . S
H379 C366 0.962 . S
H380 C366 0.960 . S
H381 C367 0.961 . S
H382 C367 0.973 . S
H383 C367 0.961 . S
H384 C368 0.931 . S
H385 C373 0.930 . S
H386 C374 0.956 1_554 S
H387 C374 0.961 1_554 S
H388 C374 0.961 . S
H389 C375 0.958 1_554 S
H390 C375 0.961 . S
H391 C375 0.960 1_554 S
C392 C393 1.391 1_554 S
C392 C394 1.394 . S
C392 H408 0.931 1_554 S
C393 C392 1.391 1_556 S
C393 C397 1.376 1_556 S
C394 C392 1.394 . S
C394 C395 1.369 . S
C394 C398 1.531 . S
C395 C394 1.369 . S
C395 C396 1.410 . S
C395 C403 1.503 . S
C396 C395 1.410 . S
C396 C397 1.392 . S
C396 C399 1.511 . S
C397 C393 1.376 1_554 S
C397 C396 1.392 . S
C397 H409 0.935 . S
C398 C394 1.531 . S
C398 H410 0.960 . S
C398 H411 0.962 . S
C398 H412 0.960 . S
C399 C396 1.511 . S
C399 H413 0.961 . S
C399 H414 0.961 . S
C399 H415 0.961 . S
C400 C401 1.370 . S
C400 C402 1.363 . S
C400 H416 0.931 . S
C401 C400 1.370 . S
C401 C405 1.408 . S
C402 C400 1.363 . S
C402 C403 1.370 . S
C402 C406 1.524 . S
C403 C395 1.503 . S
C403 C402 1.370 . S
C403 C404 1.403 . S
C404 C403 1.403 . S
C404 C405 1.404 . S
C404 C407 1.539 . S
C405 C401 1.408 . S
C405 C404 1.404 . S
C405 H417 0.930 . S
C406 C402 1.524 . S
C406 H418 0.956 . S
C406 H419 0.961 . S
C406 H420 0.961 . S
C407 C404 1.539 . S
C407 H421 0.958 . S
C407 H422 0.961 . S
C407 H423 0.960 . S
H408 C392 0.931 1_556 S
H409 C397 0.935 . S
H410 C398 0.960 . S
H411 C398 0.962 . S
H412 C398 0.960 . S
H413 C399 0.961 . S
H414 C399 0.961 . S
H415 C399 0.961 . S
H416 C400 0.931 . S
H417 C405 0.930 . S
H418 C406 0.956 . S
H419 C406 0.961 . S
H420 C406 0.961 . S
H421 C407 0.958 . S
H422 C407 0.961 . S
H423 C407 0.960 . S
C424 C425 1.391 . S
C424 C426 1.394 . S
C424 H440 0.931 . S
C425 C424 1.391 . S
C425 C429 1.376 . S
C426 C424 1.394 . S
C426 C427 1.369 . S
C426 C430 1.531 . S
C427 C426 1.369 . S
C427 C428 1.410 . S
C427 C435 1.503 . S
C428 C427 1.410 . S
C428 C429 1.392 . S
C428 C431 1.511 . S
C429 C425 1.376 . S
C429 C428 1.392 . S
C429 H441 0.929 . S
C430 C426 1.531 . S
C430 H442 0.960 . S
C430 H443 0.962 . S
C430 H444 0.960 . S
C431 C428 1.511 . S
C431 H445 0.961 . S
C431 H446 0.961 . S
C431 H447 0.961 . S
C432 C433 1.370 . S
C432 C434 1.363 . S
C432 H448 0.931 . S
C433 C432 1.370 . S
C433 C437 1.408 . S
C434 C432 1.363 . S
C434 C435 1.370 . S
C434 C438 1.524 . S
C435 C427 1.503 . S
C435 C434 1.370 . S
C435 C436 1.403 . S
C436 C435 1.403 . S
C436 C437 1.404 . S
C436 C439 1.539 . S
C437 C433 1.408 . S
C437 C436 1.404 . S
C437 H449 0.930 . S
C438 C434 1.524 . S
C438 H450 0.956 . S
C438 H451 0.961 . S
C438 H452 0.961 . S
C439 C436 1.539 . S
C439 H453 0.958 . S
C439 H454 0.961 . S
C439 H455 0.960 . S
H440 C424 0.931 . S
H441 C429 0.929 . S
H442 C430 0.960 . S
H443 C430 0.962 . S
H444 C430 0.960 . S
H445 C431 0.961 . S
H446 C431 0.961 . S
H447 C431 0.961 . S
H448 C432 0.931 . S
H449 C437 0.930 . S
H450 C438 0.956 . S
H451 C438 0.961 . S
H452 C438 0.961 . S
H453 C439 0.958 . S
H454 C439 0.961 . S
H455 C439 0.960 . S
C456 C457 1.391 . S
C456 C458 1.394 . S
C456 H472 0.931 . S
C457 C456 1.391 . S
C457 C461 1.376 . S
C458 C456 1.394 . S
C458 C459 1.369 . S
C458 C462 1.531 . S
C459 C458 1.369 . S
C459 C460 1.410 . S
C459 C467 1.503 . S
C460 C459 1.410 . S
C460 C461 1.392 . S
C460 C463 1.511 . S
C461 C457 1.376 . S
C461 C460 1.392 . S
C461 H473 0.929 . S
C462 C458 1.531 . S
C462 H474 0.960 . S
C462 H475 0.962 . S
C462 H476 0.960 . S
C463 C460 1.511 . S
C463 H477 0.961 . S
C463 H478 0.961 . S
C463 H479 0.961 . S
C464 C465 1.370 . S
C464 C466 1.363 . S
C464 H480 0.931 . S
C465 C464 1.370 . S
C465 C469 1.408 . S
C466 C464 1.363 . S
C466 C467 1.370 . S
C466 C470 1.524 . S
C467 C459 1.503 . S
C467 C466 1.370 . S
C467 C468 1.403 . S
C468 C467 1.403 . S
C468 C469 1.404 . S
C468 C471 1.539 . S
C469 C465 1.408 . S
C469 C468 1.404 . S
C469 H481 0.930 . S
C470 C466 1.524 . S
C470 H482 0.956 . S
C470 H483 0.961 . S
C470 H484 0.961 . S
C471 C468 1.539 . S
C471 H485 0.958 . S
C471 H486 0.961 . S
C471 H487 0.960 . S
H472 C456 0.931 . S
H473 C461 0.929 . S
H474 C462 0.960 . S
H475 C462 0.962 . S
H476 C462 0.960 . S
H477 C463 0.961 . S
H478 C463 0.961 . S
H479 C463 0.961 . S
H480 C464 0.931 . S
H481 C469 0.930 . S
H482 C470 0.956 . S
H483 C470 0.961 . S
H484 C470 0.961 . S
H485 C471 0.958 . S
H486 C471 0.961 . S
H487 C471 0.960 . S
C488 C489 1.391 . S
C488 C490 1.394 . S
C488 H504 0.931 . S
C489 C488 1.391 . S
C489 C493 1.376 . S
C490 C488 1.394 . S
C490 C491 1.369 . S
C490 C494 1.531 . S
C491 C490 1.369 . S
C491 C492 1.410 . S
C491 C499 1.503 . S
C492 C491 1.410 . S
C492 C493 1.392 . S
C492 C495 1.511 . S
C493 C489 1.376 . S
C493 C492 1.392 . S
C493 H505 0.929 . S
C494 C490 1.531 . S
C494 H506 0.960 . S
C494 H507 0.962 . S
C494 H508 0.960 . S
C495 C492 1.511 . S
C495 H509 0.961 . S
C495 H510 0.961 . S
C495 H511 0.961 . S
C496 C497 1.370 . S
C496 C498 1.363 . S
C496 H512 0.931 . S
C497 C496 1.370 . S
C497 C501 1.408 . S
C498 C496 1.363 . S
C498 C499 1.370 . S
C498 C502 1.524 . S
C499 C491 1.503 . S
C499 C498 1.370 . S
C499 C500 1.403 . S
C500 C499 1.403 . S
C500 C501 1.404 . S
C500 C503 1.539 . S
C501 C497 1.408 . S
C501 C500 1.404 . S
C501 H513 0.930 . S
C502 C498 1.524 . S
C502 H514 0.956 . S
C502 H515 0.961 . S
C502 H516 0.961 . S
C503 C500 1.539 . S
C503 H517 0.958 . S
C503 H518 0.961 . S
C503 H519 0.960 . S
H504 C488 0.931 . S
H505 C493 0.929 . S
H506 C494 0.960 . S
H507 C494 0.962 . S
H508 C494 0.960 . S
H509 C495 0.961 . S
H510 C495 0.961 . S
H511 C495 0.961 . S
H512 C496 0.931 . S
H513 C501 0.930 . S
H514 C502 0.956 . S
H515 C502 0.961 . S
H516 C502 0.961 . S
H517 C503 0.958 . S
H518 C503 0.961 . S
H519 C503 0.960 . S
C520 C521 1.391 . S
C520 C522 1.394 . S
C520 H536 0.931 . S
C521 C520 1.391 . S
C521 C525 1.376 . S
C522 C520 1.394 . S
C522 C523 1.369 . S
C522 C526 1.531 . S
C523 C522 1.369 . S
C523 C524 1.410 . S
C523 C531 1.503 . S
C524 C523 1.410 . S
C524 C525 1.392 . S
C524 C527 1.511 . S
C525 C521 1.376 . S
C525 C524 1.392 . S
C525 H537 0.929 . S
C526 C522 1.531 . S
C526 H538 0.960 . S
C526 H539 0.962 . S
C526 H540 0.960 . S
C527 C524 1.511 . S
C527 H541 0.961 . S
C527 H542 0.961 . S
C527 H543 0.961 . S
C528 C529 1.370 . S
C528 C530 1.363 . S
C528 H544 0.931 . S
C529 C528 1.370 . S
C529 C533 1.408 . S
C530 C528 1.363 . S
C530 C531 1.370 . S
C530 C534 1.524 . S
C531 C523 1.503 . S
C531 C530 1.370 . S
C531 C532 1.403 . S
C532 C531 1.403 . S
C532 C533 1.404 . S
C532 C535 1.539 . S
C533 C529 1.408 . S
C533 C532 1.404 . S
C533 H545 0.930 . S
C534 C530 1.524 . S
C534 H546 0.956 . S
C534 H547 0.961 . S
C534 H548 0.961 . S
C535 C532 1.539 . S
C535 H549 0.958 . S
C535 H550 0.961 . S
C535 H551 0.960 . S
H536 C520 0.931 . S
H537 C525 0.929 . S
H538 C526 0.960 . S
H539 C526 0.962 . S
H540 C526 0.960 . S
H541 C527 0.961 . S
H542 C527 0.961 . S
H543 C527 0.961 . S
H544 C528 0.931 . S
H545 C533 0.930 . S
H546 C534 0.956 . S
H547 C534 0.961 . S
H548 C534 0.961 . S
H549 C535 0.958 . S
H550 C535 0.961 . S
H551 C535 0.960 . S
C552 C553 1.391 . S
C552 C554 1.394 1_554 S
C552 H568 0.931 . S
C553 C552 1.391 . S
C553 C557 1.376 1_554 S
C554 C552 1.394 1_556 S
C554 C555 1.369 . S
C554 C558 1.531 . S
C555 C554 1.369 . S
C555 C556 1.410 . S
C555 C563 1.503 . S
C556 C555 1.410 . S
C556 C557 1.392 . S
C556 C559 1.511 . S
C557 C553 1.376 1_556 S
C557 C556 1.392 . S
C557 H569 0.929 1_556 S
C558 C554 1.531 . S
C558 H570 0.960 . S
C558 H571 0.962 . S
C558 H572 0.960 . S
C559 C556 1.511 . S
C559 H573 0.961 . S
C559 H574 0.961 . S
C559 H575 0.961 . S
C560 C561 1.370 . S
C560 C562 1.363 . S
C560 H576 0.931 . S
C561 C560 1.370 . S
C561 C565 1.408 . S
C562 C560 1.363 . S
C562 C563 1.370 . S
C562 C566 1.524 . S
C563 C555 1.503 . S
C563 C562 1.370 . S
C563 C564 1.403 . S
C564 C563 1.403 . S
C564 C565 1.404 . S
C564 C567 1.539 . S
C565 C561 1.408 . S
C565 C564 1.404 . S
C565 H577 0.930 . S
C566 C562 1.524 . S
C566 H578 0.956 . S
C566 H579 0.961 . S
C566 H580 0.961 . S
C567 C564 1.539 . S
C567 H581 0.958 . S
C567 H582 0.961 . S
C567 H583 0.960 . S
H568 C552 0.931 . S
H569 C557 0.929 1_554 S
H570 C558 0.960 . S
H571 C558 0.962 . S
H572 C558 0.960 . S
H573 C559 0.961 . S
H574 C559 0.961 . S
H575 C559 0.961 . S
H576 C560 0.931 . S
H577 C565 0.930 . S
H578 C566 0.956 . S
H579 C566 0.961 . S
H580 C566 0.961 . S
H581 C567 0.958 . S
H582 C567 0.961 . S
H583 C567 0.960 . S
C584 C585 1.391 . S
C584 C586 1.394 . S
C584 H600 0.931 . S
C585 C584 1.391 . S
C585 C589 1.376 . S
C586 C584 1.394 . S
C586 C587 1.369 . S
C586 C590 1.531 . S
C587 C586 1.369 . S
C587 C588 1.410 . S
C587 C595 1.503 1_556 S
C588 C587 1.410 . S
C588 C589 1.392 . S
C588 C591 1.511 . S
C589 C585 1.376 . S
C589 C588 1.392 . S
C589 H601 0.929 . S
C590 C586 1.531 . S
C590 H602 0.960 1_556 S
C590 H603 0.962 . S
C590 H604 0.960 . S
C591 C588 1.511 . S
C591 H605 0.961 . S
C591 H606 0.961 . S
C591 H607 0.961 . S
C592 C593 1.370 . S
C592 C594 1.363 . S
C592 H608 0.931 . S
C593 C592 1.370 . S
C593 C597 1.408 . S
C594 C592 1.363 . S
C594 C595 1.370 . S
C594 C598 1.524 . S
C595 C587 1.503 1_554 S
C595 C594 1.370 . S
C595 C596 1.403 . S
C596 C595 1.403 . S
C596 C597 1.404 . S
C596 C599 1.539 . S
C597 C593 1.408 . S
C597 C596 1.404 . S
C597 H609 0.930 . S
C598 C594 1.524 . S
C598 H610 0.956 1_554 S
C598 H611 0.961 1_554 S
C598 H612 0.961 . S
C599 C596 1.539 . S
C599 H613 0.958 . S
C599 H614 0.961 . S
C599 H615 0.960 . S
H600 C584 0.931 . S
H601 C589 0.929 . S
H602 C590 0.960 1_554 S
H603 C590 0.962 . S
H604 C590 0.960 . S
H605 C591 0.961 . S
H606 C591 0.961 . S
H607 C591 0.961 . S
H608 C592 0.931 . S
H609 C597 0.930 . S
H610 C598 0.956 1_556 S
H611 C598 0.961 1_556 S
H612 C598 0.961 . S
H613 C599 0.958 . S
H614 C599 0.961 . S
H615 C599 0.960 . S
C616 C617 1.391 . S
C616 C618 1.394 . S
C616 H632 0.931 . S
C617 C616 1.391 . S
C617 C621 1.376 . S
C618 C616 1.394 . S
C618 C619 1.369 . S
C618 C622 1.531 . S
C619 C618 1.369 . S
C619 C620 1.410 . S
C619 C627 1.503 . S
C620 C619 1.410 . S
C620 C621 1.392 . S
C620 C623 1.511 . S
C621 C617 1.376 . S
C621 C620 1.392 . S
C621 H633 0.929 . S
C622 C618 1.531 . S
C622 H634 0.960 . S
C622 H635 0.962 . S
C622 H636 0.960 . S
C623 C620 1.511 . S
C623 H637 0.961 . S
C623 H638 0.961 . S
C623 H639 0.961 . S
C624 C625 1.370 . S
C624 C626 1.363 1_556 S
C624 H640 0.931 . S
C625 C624 1.370 . S
C625 C629 1.408 . S
C626 C624 1.363 1_554 S
C626 C627 1.370 . S
C626 C630 1.524 . S
C627 C619 1.503 . S
C627 C626 1.370 . S
C627 C628 1.403 . S
C628 C627 1.403 . S
C628 C629 1.404 1_554 S
C628 C631 1.539 . S
C629 C625 1.408 . S
C629 C628 1.404 1_556 S
C629 H641 0.930 . S
C630 C626 1.524 . S
C630 H642 0.956 . S
C630 H643 0.961 . S
C630 H644 0.961 . S
C631 C628 1.539 . S
C631 H645 0.958 . S
C631 H646 0.961 . S
C631 H647 0.960 . S
H632 C616 0.931 . S
H633 C621 0.929 . S
H634 C622 0.960 . S
H635 C622 0.962 . S
H636 C622 0.960 . S
H637 C623 0.961 . S
H638 C623 0.961 . S
H639 C623 0.961 . S
H640 C624 0.931 . S
H641 C629 0.930 . S
H642 C630 0.956 . S
H643 C630 0.961 . S
H644 C630 0.961 . S
H645 C631 0.958 . S
H646 C631 0.961 . S
H647 C631 0.960 . S
C648 C649 1.391 1_554 S
C648 C650 1.394 . S
C648 H664 0.931 . S
C649 C648 1.391 1_556 S
C649 C653 1.376 . S
C650 C648 1.394 . S
C650 C651 1.369 . S
C650 C654 1.531 . S
C651 C650 1.369 . S
C651 C652 1.410 1_554 S
C651 C659 1.503 1_545 S
C652 C651 1.410 1_556 S
C652 C653 1.392 . S
C652 C655 1.511 . S
C653 C649 1.376 . S
C653 C652 1.392 . S
C653 H665 0.929 . S
C654 C650 1.531 . S
C654 H666 0.960 . S
C654 H667 0.962 . S
C654 H668 0.960 . S
C655 C652 1.511 . S
C655 H669 0.961 . S
C655 H670 0.961 1_545 S
C655 H671 0.961 . S
C656 C657 1.370 1_556 S
C656 C658 1.363 . S
C656 H672 0.931 . S
C657 C656 1.370 1_554 S
C657 C661 1.408 . S
C658 C656 1.363 . S
C658 C659 1.370 1_556 S
C658 C662 1.524 . S
C659 C651 1.503 1_565 S
C659 C658 1.370 1_554 S
C659 C660 1.403 . S
C660 C659 1.403 . S
C660 C661 1.404 . S
C660 C663 1.539 . S
C661 C657 1.408 . S
C661 C660 1.404 . S
C661 H673 0.930 . S
C662 C658 1.524 . S
C662 H674 0.956 . S
C662 H675 0.961 . S
C662 H676 0.961 . S
C663 C660 1.539 . S
C663 H677 0.958 . S
C663 H678 0.961 . S
C663 H679 0.960 1_565 S
H664 C648 0.931 . S
H665 C653 0.929 . S
H666 C654 0.960 . S
H667 C654 0.962 . S
H668 C654 0.960 . S
H669 C655 0.961 . S
H670 C655 0.961 1_565 S
H671 C655 0.961 . S
H672 C656 0.931 . S
H673 C661 0.930 . S
H674 C662 0.956 . S
H675 C662 0.961 . S
H676 C662 0.961 . S
H677 C663 0.958 . S
H678 C663 0.961 . S
H679 C663 0.960 1_545 S
C680 C681 1.391 . S
C680 C682 1.394 . S
C680 H696 0.931 . S
C681 C680 1.391 . S
C681 C685 1.376 . S
C682 C680 1.394 . S
C682 C683 1.369 . S
C682 C686 1.531 . S
C683 C682 1.369 . S
C683 C684 1.410 . S
C683 C691 1.503 . S
C684 C683 1.410 . S
C684 C685 1.392 . S
C684 C687 1.511 . S
C685 C681 1.376 . S
C685 C684 1.392 . S
C685 H697 0.929 . S
C686 C682 1.531 . S
C686 H698 0.960 . S
C686 H699 0.962 . S
C686 H700 0.960 . S
C687 C684 1.511 . S
C687 H701 0.961 . S
C687 H702 0.961 . S
C687 H703 0.961 . S
C688 C689 1.370 . S
C688 C690 1.363 . S
C688 H704 0.931 . S
C689 C688 1.370 . S
C689 C693 1.408 . S
C690 C688 1.363 . S
C690 C691 1.370 . S
C690 C694 1.524 . S
C691 C683 1.503 . S
C691 C690 1.370 . S
C691 C692 1.403 . S
C692 C691 1.403 . S
C692 C693 1.404 . S
C692 C695 1.539 . S
C693 C689 1.408 . S
C693 C692 1.404 . S
C693 H705 0.930 . S
C694 C690 1.524 . S
C694 H706 0.956 . S
C694 H707 0.961 . S
C694 H708 0.961 . S
C695 C692 1.539 . S
C695 H709 0.958 . S
C695 H710 0.961 . S
C695 H711 0.960 . S
H696 C680 0.931 . S
H697 C685 0.929 . S
H698 C686 0.960 . S
H699 C686 0.962 . S
H700 C686 0.960 . S
H701 C687 0.961 . S
H702 C687 0.961 . S
H703 C687 0.961 . S
H704 C688 0.931 . S
H705 C693 0.930 . S
H706 C694 0.956 . S
H707 C694 0.961 . S
H708 C694 0.961 . S
H709 C695 0.958 . S
H710 C695 0.961 . S
H711 C695 0.960 . S
C712 C713 1.391 . S
C712 C714 1.394 . S
C712 H728 0.931 . S
C713 C712 1.391 . S
C713 C717 1.376 . S
C714 C712 1.394 . S
C714 C715 1.369 . S
C714 C718 1.531 . S
C715 C714 1.369 . S
C715 C716 1.410 . S
C715 C723 1.503 1_455 S
C716 C715 1.410 . S
C716 C717 1.392 . S
C716 C719 1.511 . S
C717 C713 1.376 . S
C717 C716 1.392 . S
C717 H729 0.929 . S
C718 C714 1.531 . S
C718 H730 0.960 1_455 S
C718 H731 0.962 . S
C718 H732 0.960 . S
C719 C716 1.511 . S
C719 H733 0.961 . S
C719 H734 0.998 . S
C719 H735 0.961 . S
C720 C721 1.370 . S
C720 C722 1.363 . S
C720 H736 0.931 . S
C721 C720 1.370 . S
C721 C725 1.408 . S
C722 C720 1.363 . S
C722 C723 1.370 . S
C722 C726 1.524 . S
C723 C715 1.503 1_655 S
C723 C722 1.370 . S
C723 C724 1.403 . S
C724 C723 1.403 . S
C724 C725 1.404 . S
C724 C727 1.539 . S
C725 C721 1.408 . S
C725 C724 1.404 . S
C725 H737 0.930 . S
C726 C722 1.524 . S
C726 H738 0.956 . S
C726 H739 0.960 1_655 S
C726 H740 0.961 . S
C727 C724 1.539 . S
C727 H741 0.958 . S
C727 H742 0.961 . S
C727 H743 0.960 1_655 S
H728 C712 0.931 . S
H729 C717 0.929 . S
H730 C718 0.960 1_655 S
H731 C718 0.962 . S
H732 C718 0.960 . S
H733 C719 0.961 . S
H734 C719 0.998 . S
H735 C719 0.961 . S
H736 C720 0.931 . S
H737 C725 0.930 . S
H738 C726 0.956 . S
H739 C726 0.960 1_455 S
H740 C726 0.961 . S
H741 C727 0.958 . S
H742 C727 0.961 . S
H743 C727 0.960 1_455 S
C744 C745 1.391 . S
C744 C746 1.394 . S
C744 H760 0.931 . S
C745 C744 1.391 . S
C745 C749 1.376 . S
C746 C744 1.394 . S
C746 C747 1.369 . S
C746 C750 1.531 . S
C747 C746 1.369 . S
C747 C748 1.410 . S
C747 C755 1.503 1_565 S
C748 C747 1.410 . S
C748 C749 1.392 . S
C748 C751 1.511 . S
C749 C745 1.376 . S
C749 C748 1.392 . S
C749 H761 0.929 . S
C750 C746 1.531 . S
C750 H762 0.990 . S
C750 H763 0.962 . S
C750 H764 0.960 . S
C751 C748 1.511 . S
C751 H765 0.961 . S
C751 H766 0.961 1_565 S
C751 H767 0.961 . S
C752 C753 1.370 . S
C752 C754 1.363 . S
C752 H768 0.931 . S
C753 C752 1.370 . S
C753 C757 1.408 . S
C754 C752 1.363 . S
C754 C755 1.370 . S
C754 C758 1.524 . S
C755 C747 1.503 1_545 S
C755 C754 1.370 . S
C755 C756 1.403 . S
C756 C755 1.403 . S
C756 C757 1.404 . S
C756 C759 1.539 . S
C757 C753 1.408 . S
C757 C756 1.404 . S
C757 H769 0.930 . S
C758 C754 1.524 . S
C758 H770 0.956 . S
C758 H771 0.961 . S
C758 H772 0.961 . S
C759 C756 1.539 . S
C759 H773 0.958 . S
C759 H774 0.961 . S
C759 H775 0.960 1_545 S
H760 C744 0.931 . S
H761 C749 0.929 . S
H762 C750 0.990 . S
H763 C750 0.962 . S
H764 C750 0.960 . S
H765 C751 0.961 . S
H766 C751 0.961 1_545 S
H767 C751 0.961 . S
H768 C752 0.931 . S
H769 C757 0.930 . S
H770 C758 0.956 . S
H771 C758 0.961 . S
H772 C758 0.961 . S
H773 C759 0.958 . S
H774 C759 0.961 . S
H775 C759 0.960 1_565 S
C776 C777 1.391 . S
C776 C778 1.394 . S
C776 H792 0.931 . S
C777 C776 1.391 . S
C777 C781 1.376 . S
C778 C776 1.394 . S
C778 C779 1.369 . S
C778 C782 1.531 . S
C779 C778 1.369 . S
C779 C780 1.410 . S
C779 C787 1.503 . S
C780 C779 1.410 . S
C780 C781 1.392 . S
C780 C783 1.511 . S
C781 C777 1.376 . S
C781 C780 1.392 . S
C781 H793 0.929 . S
C782 C778 1.531 . S
C782 H794 0.960 . S
C782 H795 0.962 . S
C782 H796 0.960 . S
C783 C780 1.511 . S
C783 H797 0.961 . S
C783 H798 0.961 . S
C783 H799 0.961 . S
C784 C785 1.370 . S
C784 C786 1.363 . S
C784 H800 0.931 . S
C785 C784 1.370 . S
C785 C789 1.408 . S
C786 C784 1.363 . S
C786 C787 1.370 . S
C786 C790 1.524 . S
C787 C779 1.503 . S
C787 C786 1.370 . S
C787 C788 1.403 . S
C788 C787 1.403 . S
C788 C789 1.404 . S
C788 C791 1.539 . S
C789 C785 1.408 . S
C789 C788 1.404 . S
C789 H801 0.930 . S
C790 C786 1.524 . S
C790 H802 0.956 . S
C790 H803 0.961 . S
C790 H804 0.961 . S
C791 C788 1.539 . S
C791 H805 0.958 . S
C791 H806 0.961 . S
C791 H807 0.960 . S
H792 C776 0.931 . S
H793 C781 0.929 . S
H794 C782 0.960 . S
H795 C782 0.962 . S
H796 C782 0.960 . S
H797 C783 0.961 . S
H798 C783 0.961 . S
H799 C783 0.961 . S
H800 C784 0.931 . S
H801 C789 0.930 . S
H802 C790 0.956 . S
H803 C790 0.961 . S
H804 C790 0.961 . S
H805 C791 0.958 . S
H806 C791 0.961 . S
H807 C791 0.960 . S
C808 C809 1.391 . S
C808 C810 1.394 . S
C808 H824 0.931 . S
C809 C808 1.391 . S
C809 C813 1.376 . S
C810 C808 1.394 . S
C810 C811 1.369 . S
C810 C814 1.531 . S
C811 C810 1.369 . S
C811 C812 1.410 . S
C811 C819 1.503 1_455 S
C812 C811 1.410 . S
C812 C813 1.392 . S
C812 C815 1.511 . S
C813 C809 1.376 . S
C813 C812 1.392 . S
C813 H825 0.929 . S
C814 C810 1.531 . S
C814 H826 0.960 1_455 S
C814 H827 0.962 . S
C814 H828 0.960 . S
C815 C812 1.511 . S
C815 H829 0.961 . S
C815 H830 0.924 1_455 S
C815 H831 0.961 . S
C816 C817 1.370 . S
C816 C818 1.363 . S
C816 H832 0.931 . S
C817 C816 1.370 . S
C817 C821 1.408 . S
C818 C816 1.363 . S
C818 C819 1.370 . S
C818 C822 1.524 . S
C819 C811 1.503 1_655 S
C819 C818 1.370 . S
C819 C820 1.403 . S
C820 C819 1.403 . S
C820 C821 1.404 . S
C820 C823 1.539 1_556 S
C821 C817 1.408 . S
C821 C820 1.404 . S
C821 H833 0.930 . S
C822 C818 1.524 . S
C822 H834 0.956 . S
C822 H835 0.961 . S
C822 H836 0.961 . S
C823 C820 1.539 1_554 S
C823 H837 0.958 1_554 S
C823 H838 0.961 . S
C823 H839 0.960 1_655 S
H824 C808 0.931 . S
H825 C813 0.929 . S
H826 C814 0.960 1_655 S
H827 C814 0.962 . S
H828 C814 0.960 . S
H829 C815 0.961 . S
H830 C815 0.924 1_655 S
H831 C815 0.961 . S
H832 C816 0.931 . S
H833 C821 0.930 . S
H834 C822 0.956 . S
H835 C822 0.961 . S
H836 C822 0.961 . S
H837 C823 0.958 1_556 S
H838 C823 0.961 . S
H839 C823 0.960 1_455 S
C840 C841 1.391 . S
C840 C842 1.394 . S
C840 H856 0.931 . S
C841 C840 1.391 . S
C841 C845 1.376 . S
C842 C840 1.394 . S
C842 C843 1.369 . S
C842 C846 1.531 . S
C843 C842 1.369 . S
C843 C844 1.410 . S
C843 C851 1.503 . S
C844 C843 1.410 . S
C844 C845 1.392 . S
C844 C847 1.511 . S
C845 C841 1.376 . S
C845 C844 1.392 . S
C845 H857 0.929 . S
C846 C842 1.531 . S
C846 H858 0.960 . S
C846 H859 0.962 . S
C846 H860 0.960 . S
C847 C844 1.511 . S
C847 H861 0.961 . S
C847 H862 0.961 . S
C847 H863 0.961 . S
C848 C849 1.370 . S
C848 C850 1.363 . S
C848 H864 0.931 . S
C849 C848 1.370 . S
C849 C853 1.408 . S
C850 C848 1.363 . S
C850 C851 1.370 . S
C850 C854 1.524 . S
C851 C843 1.503 . S
C851 C850 1.370 . S
C851 C852 1.403 . S
C852 C851 1.403 . S
C852 C853 1.404 . S
C852 C855 1.539 . S
C853 C849 1.408 . S
C853 C852 1.404 . S
C853 H865 0.930 . S
C854 C850 1.524 . S
C854 H866 0.956 . S
C854 H867 0.961 . S
C854 H868 0.961 . S
C855 C852 1.539 . S
C855 H869 0.958 . S
C855 H870 0.961 . S
C855 H871 0.960 . S
H856 C840 0.931 . S
H857 C845 0.929 . S
H858 C846 0.960 . S
H859 C846 0.962 . S
H860 C846 0.960 . S
H861 C847 0.961 . S
H862 C847 0.961 . S
H863 C847 0.961 . S
H864 C848 0.931 . S
H865 C853 0.930 . S
H866 C854 0.956 . S
H867 C854 0.961 . S
H868 C854 0.961 . S
H869 C855 0.958 . S
H870 C855 0.961 . S
H871 C855 0.960 . S
C872 C873 1.391 1_556 S
C872 C874 1.394 . S
C872 H888 0.931 . S
C873 C872 1.391 1_554 S
C873 C877 1.376 . S
C874 C872 1.394 . S
C874 C875 1.369 . S
C874 C878 1.531 . S
C875 C874 1.369 . S
C875 C876 1.410 1_556 S
C875 C883 1.503 . S
C876 C875 1.410 1_554 S
C876 C877 1.392 . S
C876 C879 1.511 . S
C877 C873 1.376 . S
C877 C876 1.392 . S
C877 H889 0.929 . S
C878 C874 1.531 . S
C878 H890 0.960 . S
C878 H891 0.962 . S
C878 H892 0.960 . S
C879 C876 1.511 . S
C879 H893 0.961 . S
C879 H894 0.961 . S
C879 H895 0.961 . S
C880 C881 1.370 . S
C880 C882 1.363 . S
C880 H896 0.931 . S
C881 C880 1.370 . S
C881 C885 1.408 . S
C882 C880 1.363 . S
C882 C883 1.370 . S
C882 C886 1.524 . S
C883 C875 1.503 . S
C883 C882 1.370 . S
C883 C884 1.403 . S
C884 C883 1.403 . S
C884 C885 1.404 . S
C884 C887 1.539 . S
C885 C881 1.408 . S
C885 C884 1.404 . S
C885 H897 0.930 . S
C886 C882 1.524 . S
C886 H898 0.956 . S
C886 H899 0.961 1_556 S
C886 H900 0.961 . S
C887 C884 1.539 . S
C887 H901 0.958 . S
C887 H902 0.961 . S
C887 H903 0.960 . S
H888 C872 0.931 . S
H889 C877 0.929 . S
H890 C878 0.960 . S
H891 C878 0.962 . S
H892 C878 0.960 . S
H893 C879 0.961 . S
H894 C879 0.961 . S
H895 C879 0.961 . S
H896 C880 0.931 . S
H897 C885 0.930 . S
H898 C886 0.956 . S
H899 C886 0.961 1_554 S
H900 C886 0.961 . S
H901 C887 0.958 . S
H902 C887 0.961 . S
H903 C887 0.960 . S
C904 C905 1.391 . S
C904 C906 1.394 . S
C904 H920 0.931 . S
C905 C904 1.391 . S
C905 C909 1.376 1_556 S
C906 C904 1.394 . S
C906 C907 1.369 1_556 S
C906 C910 1.531 . S
C907 C906 1.369 1_554 S
C907 C908 1.410 . S
C907 C915 1.503 . S
C908 C907 1.410 . S
C908 C909 1.392 . S
C908 C911 1.511 . S
C909 C905 1.376 1_554 S
C909 C908 1.392 . S
C909 H921 0.929 . S
C910 C906 1.531 . S
C910 H922 0.960 . S
C910 H923 0.962 . S
C910 H924 0.960 . S
C911 C908 1.511 . S
C911 H925 0.961 . S
C911 H926 0.961 . S
C911 H927 0.961 . S
C912 C913 1.370 . S
C912 C914 1.363 . S
C912 H928 0.931 . S
C913 C912 1.370 . S
C913 C917 1.408 . S
C914 C912 1.363 . S
C914 C915 1.370 . S
C914 C918 1.524 . S
C915 C907 1.503 . S
C915 C914 1.370 . S
C915 C916 1.403 . S
C916 C915 1.403 . S
C916 C917 1.404 . S
C916 C919 1.539 . S
C917 C913 1.408 . S
C917 C916 1.404 . S
C917 H929 0.930 . S
C918 C914 1.524 . S
C918 H930 0.956 . S
C918 H931 0.961 . S
C918 H932 0.961 . S
C919 C916 1.539 . S
C919 H933 0.958 . S
C919 H934 0.961 . S
C919 H935 0.960 . S
H920 C904 0.931 . S
H921 C909 0.929 . S
H922 C910 0.960 . S
H923 C910 0.962 . S
H924 C910 0.960 . S
H925 C911 0.961 . S
H926 C911 0.961 . S
H927 C911 0.961 . S
H928 C912 0.931 . S
H929 C917 0.930 . S
H930 C918 0.956 . S
H931 C918 0.961 . S
H932 C918 0.961 . S
H933 C919 0.958 . S
H934 C919 0.961 . S
H935 C919 0.960 . S
C936 C937 1.391 . S
C936 C938 1.394 . S
C936 H952 0.931 . S
C937 C936 1.391 . S
C937 C941 1.376 . S
C938 C936 1.394 . S
C938 C939 1.369 . S
C938 C942 1.531 . S
C939 C938 1.369 . S
C939 C940 1.410 . S
C939 C947 1.503 . S
C940 C939 1.410 . S
C940 C941 1.392 . S
C940 C943 1.511 . S
C941 C937 1.376 . S
C941 C940 1.392 . S
C941 H953 0.929 . S
C942 C938 1.531 . S
C942 H954 0.960 . S
C942 H955 0.962 . S
C942 H956 0.960 . S
C943 C940 1.511 . S
C943 H957 0.961 . S
C943 H958 0.961 . S
C943 H959 0.961 . S
C944 C945 1.370 . S
C944 C946 1.363 . S
C944 H960 0.931 . S
C945 C944 1.370 . S
C945 C949 1.408 . S
C946 C944 1.363 . S
C946 C947 1.370 . S
C946 C950 1.524 . S
C947 C939 1.503 . S
C947 C946 1.370 . S
C947 C948 1.403 . S
C948 C947 1.403 . S
C948 C949 1.404 . S
C948 C951 1.539 . S
C949 C945 1.408 . S
C949 C948 1.404 . S
C949 H961 0.930 . S
C950 C946 1.524 . S
C950 H962 0.956 . S
C950 H963 0.961 . S
C950 H964 0.961 . S
C951 C948 1.539 . S
C951 H965 0.958 . S
C951 H966 0.961 . S
C951 H967 0.960 . S
H952 C936 0.931 . S
H953 C941 0.929 . S
H954 C942 0.960 . S
H955 C942 0.962 . S
H956 C942 0.960 . S
H957 C943 0.961 . S
H958 C943 0.961 . S
H959 C943 0.961 . S
H960 C944 0.931 . S
H961 C949 0.930 . S
H962 C950 0.956 . S
H963 C950 0.961 . S
H964 C950 0.961 . S
H965 C951 0.958 . S
H966 C951 0.961 . S
H967 C951 0.960 . S
C968 C969 1.391 . S
C968 C970 1.394 . S
C968 H984 0.931 . S
C969 C968 1.391 . S
C969 C973 1.376 . S
C970 C968 1.394 . S
C970 C971 1.369 . S
C970 C974 1.531 . S
C971 C970 1.369 . S
C971 C972 1.410 . S
C971 C979 1.503 . S
C972 C971 1.410 . S
C972 C973 1.392 . S
C972 C975 1.511 . S
C973 C969 1.376 . S
C973 C972 1.392 . S
C973 H985 0.929 . S
C974 C970 1.531 . S
C974 H986 0.960 . S
C974 H987 0.962 . S
C974 H988 0.960 . S
C975 C972 1.511 . S
C975 H989 0.961 . S
C975 H990 0.961 . S
C975 H991 0.961 . S
C976 C977 1.370 . S
C976 C978 1.363 . S
C976 H992 0.931 . S
C977 C976 1.370 . S
C977 C981 1.408 . S
C978 C976 1.363 . S
C978 C979 1.370 . S
C978 C982 1.524 . S
C979 C971 1.503 . S
C979 C978 1.370 . S
C979 C980 1.403 . S
C980 C979 1.403 . S
C980 C981 1.404 . S
C980 C983 1.539 . S
C981 C977 1.408 . S
C981 C980 1.404 . S
C981 H993 0.930 . S
C982 C978 1.524 . S
C982 H994 0.956 . S
C982 H995 0.961 . S
C982 H996 0.961 . S
C983 C980 1.539 . S
C983 H997 0.958 . S
C983 H998 0.961 . S
C983 H999 0.960 . S
H984 C968 0.931 . S
H985 C973 0.929 . S
H986 C974 0.960 . S
H987 C974 0.962 . S
H988 C974 0.960 . S
H989 C975 0.961 . S
H990 C975 0.961 . S
H991 C975 0.961 . S
H992 C976 0.931 . S
H993 C981 0.930 . S
H994 C982 0.956 . S
H995 C982 0.961 . S
H996 C982 0.961 . S
H997 C983 0.958 . S
H998 C983 0.961 . S
H999 C983 0.960 . S
C1000 C1001 1.391 . S
C1000 C1002 1.394 . S
C1000 H1016 0.931 . S
C1001 C1000 1.391 . S
C1001 C1005 1.376 . S
C1002 C1000 1.394 . S
C1002 C1003 1.369 . S
C1002 C1006 1.531 . S
C1003 C1002 1.369 . S
C1003 C1004 1.410 . S
C1003 C1011 1.503 . S
C1004 C1003 1.410 . S
C1004 C1005 1.392 . S
C1004 C1007 1.511 . S
C1005 C1001 1.376 . S
C1005 C1004 1.392 . S
C1005 H1017 0.929 . S
C1006 C1002 1.531 . S
C1006 H1018 0.960 . S
C1006 H1019 0.962 . S
C1006 H1020 0.960 . S
C1007 C1004 1.511 . S
C1007 H1021 0.961 . S
C1007 H1022 0.961 . S
C1007 H1023 0.961 . S
C1008 C1009 1.370 . S
C1008 C1010 1.363 . S
C1008 H1024 0.931 . S
C1009 C1008 1.370 . S
C1009 C1013 1.408 . S
C1010 C1008 1.363 . S
C1010 C1011 1.370 . S
C1010 C1014 1.524 . S
C1011 C1003 1.503 . S
C1011 C1010 1.370 . S
C1011 C1012 1.403 . S
C1012 C1011 1.403 . S
C1012 C1013 1.404 . S
C1012 C1015 1.539 . S
C1013 C1009 1.408 . S
C1013 C1012 1.404 . S
C1013 H1025 0.930 . S
C1014 C1010 1.524 . S
C1014 H1026 0.956 . S
C1014 H1027 0.961 . S
C1014 H1028 0.961 . S
C1015 C1012 1.539 . S
C1015 H1029 0.958 . S
C1015 H1030 0.961 . S
C1015 H1031 0.960 . S
H1016 C1000 0.931 . S
H1017 C1005 0.929 . S
H1018 C1006 0.960 . S
H1019 C1006 0.962 . S
H1020 C1006 0.960 . S
H1021 C1007 0.961 . S
H1022 C1007 0.961 . S
H1023 C1007 0.961 . S
H1024 C1008 0.931 . S
H1025 C1013 0.930 . S
H1026 C1014 0.956 . S
H1027 C1014 0.961 . S
H1028 C1014 0.961 . S
H1029 C1015 0.958 . S
H1030 C1015 0.961 . S
H1031 C1015 0.960 . S
C1032 C1033 1.391 . S
C1032 C1034 1.394 . S
C1032 H1048 0.931 . S
C1033 C1032 1.391 . S
C1033 C1037 1.376 . S
C1034 C1032 1.394 . S
C1034 C1035 1.369 . S
C1034 C1038 1.531 . S
C1035 C1034 1.369 . S
C1035 C1036 1.410 . S
C1035 C1043 1.503 . S
C1036 C1035 1.410 . S
C1036 C1037 1.392 . S
C1036 C1039 1.511 . S
C1037 C1033 1.376 . S
C1037 C1036 1.392 . S
C1037 H1049 0.929 . S
C1038 C1034 1.531 . S
C1038 H1050 0.960 1_554 S
C1038 H1051 0.962 . S
C1038 H1052 0.960 1_554 S
C1039 C1036 1.511 . S
C1039 H1053 0.961 . S
C1039 H1054 0.961 . S
C1039 H1055 0.961 . S
C1040 C1041 1.370 . S
C1040 C1042 1.363 . S
C1040 H1056 0.931 . S
C1041 C1040 1.370 . S
C1041 C1045 1.408 . S
C1042 C1040 1.363 . S
C1042 C1043 1.370 . S
C1042 C1046 1.524 . S
C1043 C1035 1.503 . S
C1043 C1042 1.370 . S
C1043 C1044 1.403 . S
C1044 C1043 1.403 . S
C1044 C1045 1.404 . S
C1044 C1047 1.539 1_554 S
C1045 C1041 1.408 . S
C1045 C1044 1.404 . S
C1045 H1057 0.930 1_554 S
C1046 C1042 1.524 . S
C1046 H1058 0.956 . S
C1046 H1059 0.961 . S
C1046 H1060 0.961 . S
C1047 C1044 1.539 1_556 S
C1047 H1061 0.958 . S
C1047 H1062 0.961 . S
C1047 H1063 0.960 . S
H1048 C1032 0.931 . S
H1049 C1037 0.929 . S
H1050 C1038 0.960 1_556 S
H1051 C1038 0.962 . S
H1052 C1038 0.960 1_556 S
H1053 C1039 0.961 . S
H1054 C1039 0.961 . S
H1055 C1039 0.961 . S
H1056 C1040 0.931 . S
H1057 C1045 0.930 1_556 S
H1058 C1046 0.956 . S
H1059 C1046 0.961 . S
H1060 C1046 0.961 . S
H1061 C1047 0.958 . S
H1062 C1047 0.961 . S
H1063 C1047 0.960 . S
C1064 C1065 1.391 . S
C1064 C1066 1.394 . S
C1064 H1080 0.931 . S
C1065 C1064 1.391 . S
C1065 C1069 1.376 . S
C1066 C1064 1.394 . S
C1066 C1067 1.369 . S
C1066 C1070 1.531 . S
C1067 C1066 1.369 . S
C1067 C1068 1.410 . S
C1067 C1075 1.503 . S
C1068 C1067 1.410 . S
C1068 C1069 1.392 . S
C1068 C1071 1.511 . S
C1069 C1065 1.376 . S
C1069 C1068 1.392 . S
C1069 H1081 0.929 . S
C1070 C1066 1.531 . S
C1070 H1082 0.960 . S
C1070 H1083 0.962 . S
C1070 H1084 0.960 . S
C1071 C1068 1.511 . S
C1071 H1085 0.961 . S
C1071 H1086 0.961 . S
C1071 H1087 0.961 . S
C1072 C1073 1.370 . S
C1072 C1074 1.363 . S
C1072 H1088 0.931 . S
C1073 C1072 1.370 . S
C1073 C1077 1.408 . S
C1074 C1072 1.363 . S
C1074 C1075 1.370 . S
C1074 C1078 1.524 . S
C1075 C1067 1.503 . S
C1075 C1074 1.370 . S
C1075 C1076 1.403 . S
C1076 C1075 1.403 . S
C1076 C1077 1.404 . S
C1076 C1079 1.539 . S
C1077 C1073 1.408 . S
C1077 C1076 1.404 . S
C1077 H1089 0.930 . S
C1078 C1074 1.524 . S
C1078 H1090 0.956 . S
C1078 H1091 0.961 . S
C1078 H1092 0.961 . S
C1079 C1076 1.539 . S
C1079 H1093 0.958 . S
C1079 H1094 0.961 . S
C1079 H1095 0.960 . S
H1080 C1064 0.931 . S
H1081 C1069 0.929 . S
H1082 C1070 0.960 . S
H1083 C1070 0.962 . S
H1084 C1070 0.960 . S
H1085 C1071 0.961 . S
H1086 C1071 0.961 . S
H1087 C1071 0.961 . S
H1088 C1072 0.931 . S
H1089 C1077 0.930 . S
H1090 C1078 0.956 . S
H1091 C1078 0.961 . S
H1092 C1078 0.961 . S
H1093 C1079 0.958 . S
H1094 C1079 0.961 . S
H1095 C1079 0.960 . S
C1096 C1097 1.391 . S
C1096 C1098 1.394 . S
C1096 H1112 0.931 . S
C1097 C1096 1.391 . S
C1097 C1101 1.376 . S
C1098 C1096 1.394 . S
C1098 C1099 1.369 . S
C1098 C1102 1.531 . S
C1099 C1098 1.369 . S
C1099 C1100 1.410 . S
C1099 C1107 1.503 . S
C1100 C1099 1.410 . S
C1100 C1101 1.392 . S
C1100 C1103 1.511 . S
C1101 C1097 1.376 . S
C1101 C1100 1.392 . S
C1101 H1113 0.929 . S
C1102 C1098 1.531 . S
C1102 H1114 0.960 . S
C1102 H1115 0.962 . S
C1102 H1116 0.960 . S
C1103 C1100 1.511 . S
C1103 H1117 0.961 . S
C1103 H1118 0.961 . S
C1103 H1119 0.961 . S
C1104 C1105 1.370 . S
C1104 C1106 1.363 . S
C1104 H1120 0.931 . S
C1105 C1104 1.370 . S
C1105 C1109 1.408 . S
C1106 C1104 1.363 . S
C1106 C1107 1.370 . S
C1106 C1110 1.524 . S
C1107 C1099 1.503 . S
C1107 C1106 1.370 . S
C1107 C1108 1.403 . S
C1108 C1107 1.403 . S
C1108 C1109 1.404 . S
C1108 C1111 1.539 . S
C1109 C1105 1.408 . S
C1109 C1108 1.404 . S
C1109 H1121 0.930 . S
C1110 C1106 1.524 . S
C1110 H1122 0.956 . S
C1110 H1123 0.961 . S
C1110 H1124 0.961 . S
C1111 C1108 1.539 . S
C1111 H1125 0.958 . S
C1111 H1126 0.961 . S
C1111 H1127 0.960 . S
H1112 C1096 0.931 . S
H1113 C1101 0.929 . S
H1114 C1102 0.960 . S
H1115 C1102 0.962 . S
H1116 C1102 0.960 . S
H1117 C1103 0.961 . S
H1118 C1103 0.961 . S
H1119 C1103 0.961 . S
H1120 C1104 0.931 . S
H1121 C1109 0.930 . S
H1122 C1110 0.956 . S
H1123 C1110 0.961 . S
H1124 C1110 0.961 . S
H1125 C1111 0.958 . S
H1126 C1111 0.961 . S
H1127 C1111 0.960 . S
C1128 C1129 1.391 . S
C1128 C1130 1.394 . S
C1128 H1144 0.931 . S
C1129 C1128 1.391 . S
C1129 C1133 1.376 . S
C1130 C1128 1.394 . S
C1130 C1131 1.369 . S
C1130 C1134 1.531 . S
C1131 C1130 1.369 . S
C1131 C1132 1.410 . S
C1131 C1139 1.503 . S
C1132 C1131 1.410 . S
C1132 C1133 1.392 . S
C1132 C1135 1.511 . S
C1133 C1129 1.376 . S
C1133 C1132 1.392 . S
C1133 H1145 0.929 . S
C1134 C1130 1.531 . S
C1134 H1146 0.960 . S
C1134 H1147 0.962 . S
C1134 H1148 0.960 . S
C1135 C1132 1.511 . S
C1135 H1149 0.961 . S
C1135 H1150 0.961 . S
C1135 H1151 0.961 . S
C1136 C1137 1.370 . S
C1136 C1138 1.363 . S
C1136 H1152 0.931 . S
C1137 C1136 1.370 . S
C1137 C1141 1.408 . S
C1138 C1136 1.363 . S
C1138 C1139 1.370 . S
C1138 C1142 1.524 . S
C1139 C1131 1.503 . S
C1139 C1138 1.370 . S
C1139 C1140 1.403 . S
C1140 C1139 1.403 . S
C1140 C1141 1.404 . S
C1140 C1143 1.539 . S
C1141 C1137 1.408 . S
C1141 C1140 1.404 . S
C1141 H1153 0.930 . S
C1142 C1138 1.524 . S
C1142 H1154 0.956 . S
C1142 H1155 0.961 . S
C1142 H1156 0.961 . S
C1143 C1140 1.539 . S
C1143 H1157 0.958 . S
C1143 H1158 0.961 . S
C1143 H1159 0.960 . S
H1144 C1128 0.931 . S
H1145 C1133 0.929 . S
H1146 C1134 0.960 . S
H1147 C1134 0.962 . S
H1148 C1134 0.960 . S
H1149 C1135 0.961 . S
H1150 C1135 0.961 . S
H1151 C1135 0.961 . S
H1152 C1136 0.931 . S
H1153 C1141 0.930 . S
H1154 C1142 0.956 . S
H1155 C1142 0.961 . S
H1156 C1142 0.961 . S
H1157 C1143 0.958 . S
H1158 C1143 0.961 . S
H1159 C1143 0.960 . S
C1160 C1161 1.391 . S
C1160 C1162 1.394 . S
C1160 H1176 0.931 . S
C1161 C1160 1.391 . S
C1161 C1165 1.376 . S
C1162 C1160 1.394 . S
C1162 C1163 1.369 . S
C1162 C1166 1.531 . S
C1163 C1162 1.369 . S
C1163 C1164 1.410 . S
C1163 C1171 1.503 . S
C1164 C1163 1.410 . S
C1164 C1165 1.392 . S
C1164 C1167 1.511 . S
C1165 C1161 1.376 . S
C1165 C1164 1.392 . S
C1165 H1177 0.929 . S
C1166 C1162 1.531 . S
C1166 H1178 0.960 . S
C1166 H1179 0.962 . S
C1166 H1180 0.960 . S
C1167 C1164 1.511 . S
C1167 H1181 0.961 . S
C1167 H1182 0.961 . S
C1167 H1183 0.961 . S
C1168 C1169 1.370 . S
C1168 C1170 1.363 . S
C1168 H1184 0.931 . S
C1169 C1168 1.370 . S
C1169 C1173 1.408 . S
C1170 C1168 1.363 . S
C1170 C1171 1.370 . S
C1170 C1174 1.524 . S
C1171 C1163 1.503 . S
C1171 C1170 1.370 . S
C1171 C1172 1.403 . S
C1172 C1171 1.403 . S
C1172 C1173 1.404 . S
C1172 C1175 1.539 . S
C1173 C1169 1.408 . S
C1173 C1172 1.404 . S
C1173 H1185 0.930 . S
C1174 C1170 1.524 . S
C1174 H1186 0.956 . S
C1174 H1187 0.961 . S
C1174 H1188 0.961 . S
C1175 C1172 1.539 . S
C1175 H1189 0.958 . S
C1175 H1190 0.961 . S
C1175 H1191 0.960 . S
H1176 C1160 0.931 . S
H1177 C1165 0.929 . S
H1178 C1166 0.960 . S
H1179 C1166 0.962 . S
H1180 C1166 0.960 . S
H1181 C1167 0.961 . S
H1182 C1167 0.961 . S
H1183 C1167 0.961 . S
H1184 C1168 0.931 . S
H1185 C1173 0.930 . S
H1186 C1174 0.956 . S
H1187 C1174 0.961 . S
H1188 C1174 0.961 . S
H1189 C1175 0.958 . S
H1190 C1175 0.961 . S
H1191 C1175 0.960 . S
C1192 C1193 1.391 . S
C1192 C1194 1.394 . S
C1192 H1208 0.931 . S
C1193 C1192 1.391 . S
C1193 C1197 1.376 . S
C1194 C1192 1.394 . S
C1194 C1195 1.369 . S
C1194 C1198 1.531 . S
C1195 C1194 1.369 . S
C1195 C1196 1.410 . S
C1195 C1203 1.503 . S
C1196 C1195 1.410 . S
C1196 C1197 1.392 . S
C1196 C1199 1.511 1_556 S
C1197 C1193 1.376 . S
C1197 C1196 1.392 . S
C1197 H1209 0.929 1_556 S
C1198 C1194 1.531 . S
C1198 H1210 0.960 . S
C1198 H1211 0.962 . S
C1198 H1212 0.960 . S
C1199 C1196 1.511 1_554 S
C1199 H1213 0.961 . S
C1199 H1214 0.961 . S
C1199 H1215 0.961 . S
C1200 C1201 1.370 . S
C1200 C1202 1.363 . S
C1200 H1216 0.931 . S
C1201 C1200 1.370 . S
C1201 C1205 1.408 . S
C1202 C1200 1.363 . S
C1202 C1203 1.370 . S
C1202 C1206 1.524 . S
C1203 C1195 1.503 . S
C1203 C1202 1.370 . S
C1203 C1204 1.403 . S
C1204 C1203 1.403 . S
C1204 C1205 1.404 . S
C1204 C1207 1.539 1_556 S
C1205 C1201 1.408 . S
C1205 C1204 1.404 . S
C1205 H1217 0.930 1_556 S
C1206 C1202 1.524 . S
C1206 H1218 0.956 . S
C1206 H1219 0.961 . S
C1206 H1220 0.961 . S
C1207 C1204 1.539 1_554 S
C1207 H1221 0.958 1_554 S
C1207 H1222 0.961 . S
C1207 H1223 0.960 . S
H1208 C1192 0.931 . S
H1209 C1197 0.929 1_554 S
H1210 C1198 0.960 . S
H1211 C1198 0.962 . S
H1212 C1198 0.960 . S
H1213 C1199 0.961 . S
H1214 C1199 0.961 . S
H1215 C1199 0.961 . S
H1216 C1200 0.931 . S
H1217 C1205 0.930 1_554 S
H1218 C1206 0.956 . S
H1219 C1206 0.961 . S
H1220 C1206 0.961 . S
H1221 C1207 0.958 1_556 S
H1222 C1207 0.961 . S
H1223 C1207 0.960 . S
C1224 C1225 1.391 . S
C1224 C1226 1.394 . S
C1224 H1240 0.931 . S
C1225 C1224 1.391 . S
C1225 C1229 1.376 . S
C1226 C1224 1.394 . S
C1226 C1227 1.369 . S
C1226 C1230 1.531 . S
C1227 C1226 1.369 . S
C1227 C1228 1.410 . S
C1227 C1235 1.503 . S
C1228 C1227 1.410 . S
C1228 C1229 1.392 . S
C1228 C1231 1.511 . S
C1229 C1225 1.376 . S
C1229 C1228 1.392 . S
C1229 H1241 0.929 . S
C1230 C1226 1.531 . S
C1230 H1242 0.960 . S
C1230 H1243 0.962 . S
C1230 H1244 0.960 . S
C1231 C1228 1.511 . S
C1231 H1245 0.961 . S
C1231 H1246 0.961 . S
C1231 H1247 0.961 . S
C1232 C1233 1.370 . S
C1232 C1234 1.363 . S
C1232 H1248 0.931 . S
C1233 C1232 1.370 . S
C1233 C1237 1.408 . S
C1234 C1232 1.363 . S
C1234 C1235 1.370 . S
C1234 C1238 1.524 . S
C1235 C1227 1.503 . S
C1235 C1234 1.370 . S
C1235 C1236 1.403 . S
C1236 C1235 1.403 . S
C1236 C1237 1.404 . S
C1236 C1239 1.539 . S
C1237 C1233 1.408 . S
C1237 C1236 1.404 . S
C1237 H1249 0.930 . S
C1238 C1234 1.524 . S
C1238 H1250 0.956 . S
C1238 H1251 0.961 . S
C1238 H1252 0.961 . S
C1239 C1236 1.539 . S
C1239 H1253 0.958 . S
C1239 H1254 0.961 . S
C1239 H1255 0.960 . S
H1240 C1224 0.931 . S
H1241 C1229 0.929 . S
H1242 C1230 0.960 . S
H1243 C1230 0.962 . S
H1244 C1230 0.960 . S
H1245 C1231 0.961 . S
H1246 C1231 0.961 . S
H1247 C1231 0.961 . S
H1248 C1232 0.931 . S
H1249 C1237 0.930 . S
H1250 C1238 0.956 . S
H1251 C1238 0.961 . S
H1252 C1238 0.961 . S
H1253 C1239 0.958 . S
H1254 C1239 0.961 . S
H1255 C1239 0.960 . S
C1256 C1257 1.391 . S
C1256 C1258 1.394 . S
C1256 H1272 0.931 . S
C1257 C1256 1.391 . S
C1257 C1261 1.376 . S
C1258 C1256 1.394 . S
C1258 C1259 1.369 . S
C1258 C1262 1.531 . S
C1259 C1258 1.369 . S
C1259 C1260 1.410 . S
C1259 C1267 1.503 . S
C1260 C1259 1.410 . S
C1260 C1261 1.392 . S
C1260 C1263 1.511 . S
C1261 C1257 1.376 . S
C1261 C1260 1.392 . S
C1261 H1273 0.929 . S
C1262 C1258 1.531 . S
C1262 H1274 0.960 . S
C1262 H1275 0.962 . S
C1262 H1276 0.960 . S
C1263 C1260 1.511 . S
C1263 H1277 0.961 . S
C1263 H1278 0.961 . S
C1263 H1279 0.961 . S
C1264 C1265 1.370 . S
C1264 C1266 1.363 . S
C1264 H1280 0.931 . S
C1265 C1264 1.370 . S
C1265 C1269 1.408 . S
C1266 C1264 1.363 . S
C1266 C1267 1.370 . S
C1266 C1270 1.524 . S
C1267 C1259 1.503 . S
C1267 C1266 1.370 . S
C1267 C1268 1.403 . S
C1268 C1267 1.403 . S
C1268 C1269 1.404 . S
C1268 C1271 1.539 . S
C1269 C1265 1.408 . S
C1269 C1268 1.404 . S
C1269 H1281 0.930 . S
C1270 C1266 1.524 . S
C1270 H1282 0.956 . S
C1270 H1283 0.961 . S
C1270 H1284 0.961 . S
C1271 C1268 1.539 . S
C1271 H1285 0.958 . S
C1271 H1286 0.961 . S
C1271 H1287 0.960 . S
H1272 C1256 0.931 . S
H1273 C1261 0.929 . S
H1274 C1262 0.960 . S
H1275 C1262 0.962 . S
H1276 C1262 0.960 . S
H1277 C1263 0.961 . S
H1278 C1263 0.961 . S
H1279 C1263 0.961 . S
H1280 C1264 0.931 . S
H1281 C1269 0.930 . S
H1282 C1270 0.956 . S
H1283 C1270 0.961 . S
H1284 C1270 0.961 . S
H1285 C1271 0.958 . S
H1286 C1271 0.961 . S
H1287 C1271 0.960 . S
C1288 C1289 1.391 . S
C1288 C1290 1.394 . S
C1288 H1304 0.931 . S
C1289 C1288 1.391 . S
C1289 C1293 1.376 . S
C1290 C1288 1.394 . S
C1290 C1291 1.369 . S
C1290 C1294 1.531 . S
C1291 C1290 1.369 . S
C1291 C1292 1.410 . S
C1291 C1299 1.503 . S
C1292 C1291 1.410 . S
C1292 C1293 1.392 . S
C1292 C1295 1.511 . S
C1293 C1289 1.376 . S
C1293 C1292 1.392 . S
C1293 H1305 0.929 . S
C1294 C1290 1.531 . S
C1294 H1306 0.960 . S
C1294 H1307 0.962 . S
C1294 H1308 0.960 . S
C1295 C1292 1.511 . S
C1295 H1309 0.961 . S
C1295 H1310 0.961 . S
C1295 H1311 0.961 . S
C1296 C1297 1.370 . S
C1296 C1298 1.363 . S
C1296 H1312 0.931 . S
C1297 C1296 1.370 . S
C1297 C1301 1.408 . S
C1298 C1296 1.363 . S
C1298 C1299 1.370 . S
C1298 C1302 1.524 . S
C1299 C1291 1.503 . S
C1299 C1298 1.370 . S
C1299 C1300 1.403 . S
C1300 C1299 1.403 . S
C1300 C1301 1.404 . S
C1300 C1303 1.539 . S
C1301 C1297 1.408 . S
C1301 C1300 1.404 . S
C1301 H1313 0.930 . S
C1302 C1298 1.524 . S
C1302 H1314 0.956 . S
C1302 H1315 0.961 . S
C1302 H1316 0.961 . S
C1303 C1300 1.539 . S
C1303 H1317 0.958 . S
C1303 H1318 0.961 . S
C1303 H1319 0.960 . S
H1304 C1288 0.931 . S
H1305 C1293 0.929 . S
H1306 C1294 0.960 . S
H1307 C1294 0.962 . S
H1308 C1294 0.960 . S
H1309 C1295 0.961 . S
H1310 C1295 0.961 . S
H1311 C1295 0.961 . S
H1312 C1296 0.931 . S
H1313 C1301 0.930 . S
H1314 C1302 0.956 . S
H1315 C1302 0.961 . S
H1316 C1302 0.961 . S
H1317 C1303 0.958 . S
H1318 C1303 0.961 . S
H1319 C1303 0.960 . S
C1320 C1321 1.391 . S
C1320 C1322 1.394 . S
C1320 H1336 0.931 . S
C1321 C1320 1.391 . S
C1321 C1325 1.376 . S
C1322 C1320 1.394 . S
C1322 C1323 1.369 . S
C1322 C1326 1.531 . S
C1323 C1322 1.369 . S
C1323 C1324 1.410 . S
C1323 C1331 1.503 . S
C1324 C1323 1.410 . S
C1324 C1325 1.392 . S
C1324 C1327 1.511 . S
C1325 C1321 1.376 . S
C1325 C1324 1.392 . S
C1325 H1337 0.929 . S
C1326 C1322 1.531 . S
C1326 H1338 0.960 . S
C1326 H1339 0.962 . S
C1326 H1340 0.960 . S
C1327 C1324 1.511 . S
C1327 H1341 0.961 . S
C1327 H1342 0.961 . S
C1327 H1343 0.961 . S
C1328 C1329 1.370 . S
C1328 C1330 1.363 . S
C1328 H1344 0.931 . S
C1329 C1328 1.370 . S
C1329 C1333 1.408 . S
C1330 C1328 1.363 . S
C1330 C1331 1.370 . S
C1330 C1334 1.524 . S
C1331 C1323 1.503 . S
C1331 C1330 1.370 . S
C1331 C1332 1.403 . S
C1332 C1331 1.403 . S
C1332 C1333 1.404 . S
C1332 C1335 1.539 . S
C1333 C1329 1.408 . S
C1333 C1332 1.404 . S
C1333 H1345 0.930 . S
C1334 C1330 1.524 . S
C1334 H1346 0.956 . S
C1334 H1347 0.961 . S
C1334 H1348 0.961 . S
C1335 C1332 1.539 . S
C1335 H1349 0.958 . S
C1335 H1350 0.961 . S
C1335 H1351 0.960 . S
H1336 C1320 0.931 . S
H1337 C1325 0.929 . S
H1338 C1326 0.960 . S
H1339 C1326 0.962 . S
H1340 C1326 0.960 . S
H1341 C1327 0.961 . S
H1342 C1327 0.961 . S
H1343 C1327 0.961 . S
H1344 C1328 0.931 . S
H1345 C1333 0.930 . S
H1346 C1334 0.956 . S
H1347 C1334 0.961 . S
H1348 C1334 0.961 . S
H1349 C1335 0.958 . S
H1350 C1335 0.961 . S
H1351 C1335 0.960 . S
C1352 C1353 1.391 . S
C1352 C1354 1.394 . S
C1352 H1368 0.931 . S
C1353 C1352 1.391 . S
C1353 C1357 1.376 . S
C1354 C1352 1.394 . S
C1354 C1355 1.369 . S
C1354 C1358 1.531 . S
C1355 C1354 1.369 . S
C1355 C1356 1.410 . S
C1355 C1363 1.503 . S
C1356 C1355 1.410 . S
C1356 C1357 1.392 . S
C1356 C1359 1.511 . S
C1357 C1353 1.376 . S
C1357 C1356 1.392 . S
C1357 H1369 0.929 . S
C1358 C1354 1.531 . S
C1358 H1370 0.960 . S
C1358 H1371 0.962 . S
C1358 H1372 0.960 . S
C1359 C1356 1.511 . S
C1359 H1373 0.961 . S
C1359 H1374 0.961 . S
C1359 H1375 0.961 . S
C1360 C1361 1.370 . S
C1360 C1362 1.363 . S
C1360 H1376 0.931 . S
C1361 C1360 1.370 . S
C1361 C1365 1.408 1_554 S
C1362 C1360 1.363 . S
C1362 C1363 1.370 1_554 S
C1362 C1366 1.524 . S
C1363 C1355 1.503 . S
C1363 C1362 1.370 1_556 S
C1363 C1364 1.403 . S
C1364 C1363 1.403 . S
C1364 C1365 1.404 . S
C1364 C1367 1.539 . S
C1365 C1361 1.408 1_556 S
C1365 C1364 1.404 . S
C1365 H1377 0.930 . S
C1366 C1362 1.524 . S
C1366 H1378 0.956 . S
C1366 H1379 0.961 . S
C1366 H1380 0.961 . S
C1367 C1364 1.539 . S
C1367 H1381 0.958 . S
C1367 H1382 0.961 . S
C1367 H1383 0.960 . S
H1368 C1352 0.931 . S
H1369 C1357 0.929 . S
H1370 C1358 0.960 . S
H1371 C1358 0.962 . S
H1372 C1358 0.960 . S
H1373 C1359 0.961 . S
H1374 C1359 0.961 . S
H1375 C1359 0.961 . S
H1376 C1360 0.931 . S
H1377 C1365 0.930 . S
H1378 C1366 0.956 . S
H1379 C1366 0.961 . S
H1380 C1366 0.961 . S
H1381 C1367 0.958 . S
H1382 C1367 0.961 . S
H1383 C1367 0.960 . S
C1384 C1385 1.391 . S
C1384 C1386 1.394 . S
C1384 H1400 0.931 . S
C1385 C1384 1.391 . S
C1385 C1389 1.376 . S
C1386 C1384 1.394 . S
C1386 C1387 1.369 . S
C1386 C1390 1.531 . S
C1387 C1386 1.369 . S
C1387 C1388 1.410 . S
C1387 C1395 1.503 . S
C1388 C1387 1.410 . S
C1388 C1389 1.392 . S
C1388 C1391 1.511 . S
C1389 C1385 1.376 . S
C1389 C1388 1.392 . S
C1389 H1401 0.929 . S
C1390 C1386 1.531 . S
C1390 H1402 0.960 . S
C1390 H1403 0.962 . S
C1390 H1404 0.960 . S
C1391 C1388 1.511 . S
C1391 H1405 0.961 . S
C1391 H1406 0.961 . S
C1391 H1407 0.961 . S
C1392 C1393 1.370 1_554 S
C1392 C1394 1.363 . S
C1392 H1408 0.931 . S
C1393 C1392 1.370 1_556 S
C1393 C1397 1.408 . S
C1394 C1392 1.363 . S
C1394 C1395 1.370 . S
C1394 C1398 1.524 . S
C1395 C1387 1.503 . S
C1395 C1394 1.370 . S
C1395 C1396 1.403 1_554 S
C1396 C1395 1.403 1_556 S
C1396 C1397 1.404 . S
C1396 C1399 1.539 . S
C1397 C1393 1.408 . S
C1397 C1396 1.404 . S
C1397 H1409 0.930 . S
C1398 C1394 1.524 . S
C1398 H1410 0.956 . S
C1398 H1411 0.961 . S
C1398 H1412 0.961 . S
C1399 C1396 1.539 . S
C1399 H1413 0.958 . S
C1399 H1414 0.961 . S
C1399 H1415 0.960 . S
H1400 C1384 0.931 . S
H1401 C1389 0.929 . S
H1402 C1390 0.960 . S
H1403 C1390 0.962 . S
H1404 C1390 0.960 . S
H1405 C1391 0.961 . S
H1406 C1391 0.961 . S
H1407 C1391 0.961 . S
H1408 C1392 0.931 . S
H1409 C1397 0.930 . S
H1410 C1398 0.956 . S
H1411 C1398 0.961 . S
H1412 C1398 0.961 . S
H1413 C1399 0.958 . S
H1414 C1399 0.961 . S
H1415 C1399 0.960 . S
C265 C6 1.635 . S
C273 C8 1.636 . S
C297 C28 1.613 1_556 S
C305 C30 1.629 . S
C329 C52 1.635 . S
C337 C50 1.629 . S
C361 C72 1.630 . S
C369 C74 1.635 . S
C393 C96 1.634 . S
C401 C94 1.628 . S
C425 C116 1.613 . S
C433 C118 1.629 . S
C457 C139 1.636 . S
C465 C136 1.636 . S
C489 C158 1.631 . S
C497 C161 1.628 . S
C521 C180 1.627 . S
C529 C183 1.626 . S
C553 C202 1.635 . S
C561 C205 1.629 . S
C585 C227 1.619 . S
C593 C224 1.630 . S
C617 C246 1.626 . S
C625 C249 1.624 . S
C649 C4 1.434 1_556 S
C657 C162 1.477 . S
C681 C184 1.445 . S
C689 C26 1.473 . S
C713 C206 1.435 . S
C721 C48 1.472 . S
C745 C70 1.433 . S
C753 C228 1.478 . S
C777 C92 1.425 . S
C785 C250 1.477 . S
C809 C114 1.427 . S
C817 C140 1.477 . S
C841 C5 1.096 . S
C849 C229 1.086 . S
C873 C27 1.046 . S
C881 C251 1.054 . S
C905 C141 1.110 . S
C913 C49 1.078 . S
C937 C71 1.031 . S
C945 C163 1.079 . S
C969 C93 1.033 . S
C977 C185 1.081 . S
C1001 C207 1.096 . S
C1009 C115 1.057 . S
C1033 C9 1.115 . S
C1041 C181 1.158 . S
C1065 C203 1.160 . S
C1073 C31 1.137 . S
C1097 C225 1.117 . S
C1105 C53 1.161 . S
C1129 C75 1.175 . S
C1137 C247 1.136 . S
C1161 C137 1.140 . S
C1169 C97 1.143 . S
C1193 C119 1.159 . S
C1201 C159 1.139 . S
C1225 C7 1.199 . S
C1233 C226 1.174 . S
C1257 C29 1.180 . S
C1265 C248 1.137 . S
C1289 C51 1.130 . S
C1297 C138 1.179 . S
C1321 C160 1.108 . S
C1329 C73 1.171 . S
C1353 C95 1.135 . S
C1361 C182 1.180 . S
C1385 C204 1.191 . S
C1393 C117 1.140 . S
