# Generated by pormake.
# Topology gsi, (4)-cn, num edge types: 1
# Building blocks:
#     Node 0, Type 0, BuildingBlock: NAHDIM_clean_sbu_0, # of connection points: 4
#     Node 1, Type 0, BuildingBlock: NAHDIM_clean_sbu_0, # of connection points: 4
#     Node 2, Type 0, BuildingBlock: NAHDIM_clean_sbu_0, # of connection points: 4
#     Node 3, Type 0, BuildingBlock: NAHDIM_clean_sbu_0, # of connection points: 4
#     Node 4, Type 0, BuildingBlock: NAHDIM_clean_sbu_0, # of connection points: 4
#     Node 5, Type 0, BuildingBlock: NAHDIM_clean_sbu_0, # of connection points: 4
#     Node 6, Type 0, BuildingBlock: NAHDIM_clean_sbu_0, # of connection points: 4
#     Node 7, Type 0, BuildingBlock: NAHDIM_clean_sbu_0, # of connection points: 4
#     Node 8, Type 0, BuildingBlock: NAHDIM_clean_sbu_0, # of connection points: 4
#     Node 9, Type 0, BuildingBlock: NAHDIM_clean_sbu_0, # of connection points: 4
#     Node 10, Type 0, BuildingBlock: NAHDIM_clean_sbu_0, # of connection points: 4
#     Node 11, Type 0, BuildingBlock: NAHDIM_clean_sbu_0, # of connection points: 4
#     Node 12, Type 0, BuildingBlock: NAHDIM_clean_sbu_0, # of connection points: 4
#     Node 13, Type 0, BuildingBlock: NAHDIM_clean_sbu_0, # of connection points: 4
#     Node 14, Type 0, BuildingBlock: NAHDIM_clean_sbu_0, # of connection points: 4
#     Node 15, Type 0, BuildingBlock: NAHDIM_clean_sbu_0, # of connection points: 4
#     Edge 16, Type (0, 0), BuildingBlock: MIFKUJ_clean_linker_0, # of connection points: 2
#     Edge 17, Type (0, 0), BuildingBlock: MIFKUJ_clean_linker_0, # of connection points: 2
#     Edge 18, Type (0, 0), BuildingBlock: MIFKUJ_clean_linker_0, # of connection points: 2
#     Edge 19, Type (0, 0), BuildingBlock: MIFKUJ_clean_linker_0, # of connection points: 2
#     Edge 20, Type (0, 0), BuildingBlock: MIFKUJ_clean_linker_0, # of connection points: 2
#     Edge 21, Type (0, 0), BuildingBlock: MIFKUJ_clean_linker_0, # of connection points: 2
#     Edge 22, Type (0, 0), BuildingBlock: MIFKUJ_clean_linker_0, # of connection points: 2
#     Edge 23, Type (0, 0), BuildingBlock: MIFKUJ_clean_linker_0, # of connection points: 2
#     Edge 24, Type (0, 0), BuildingBlock: MIFKUJ_clean_linker_0, # of connection points: 2
#     Edge 25, Type (0, 0), BuildingBlock: MIFKUJ_clean_linker_0, # of connection points: 2
#     Edge 26, Type (0, 0), BuildingBlock: MIFKUJ_clean_linker_0, # of connection points: 2
#     Edge 27, Type (0, 0), BuildingBlock: MIFKUJ_clean_linker_0, # of connection points: 2
#     Edge 28, Type (0, 0), BuildingBlock: MIFKUJ_clean_linker_0, # of connection points: 2
#     Edge 29, Type (0, 0), BuildingBlock: MIFKUJ_clean_linker_0, # of connection points: 2
#     Edge 30, Type (0, 0), BuildingBlock: MIFKUJ_clean_linker_0, # of connection points: 2
#     Edge 31, Type (0, 0), BuildingBlock: MIFKUJ_clean_linker_0, # of connection points: 2
#     Edge 32, Type (0, 0), BuildingBlock: MIFKUJ_clean_linker_0, # of connection points: 2
#     Edge 33, Type (0, 0), BuildingBlock: MIFKUJ_clean_linker_0, # of connection points: 2
#     Edge 34, Type (0, 0), BuildingBlock: MIFKUJ_clean_linker_0, # of connection points: 2
#     Edge 35, Type (0, 0), BuildingBlock: MIFKUJ_clean_linker_0, # of connection points: 2
#     Edge 36, Type (0, 0), BuildingBlock: MIFKUJ_clean_linker_0, # of connection points: 2
#     Edge 37, Type (0, 0), BuildingBlock: MIFKUJ_clean_linker_0, # of connection points: 2
#     Edge 38, Type (0, 0), BuildingBlock: MIFKUJ_clean_linker_0, # of connection points: 2
#     Edge 39, Type (0, 0), BuildingBlock: MIFKUJ_clean_linker_0, # of connection points: 2
#     Edge 40, Type (0, 0), BuildingBlock: MIFKUJ_clean_linker_0, # of connection points: 2
#     Edge 41, Type (0, 0), BuildingBlock: MIFKUJ_clean_linker_0, # of connection points: 2
#     Edge 42, Type (0, 0), BuildingBlock: MIFKUJ_clean_linker_0, # of connection points: 2
#     Edge 43, Type (0, 0), BuildingBlock: MIFKUJ_clean_linker_0, # of connection points: 2
#     Edge 44, Type (0, 0), BuildingBlock: MIFKUJ_clean_linker_0, # of connection points: 2
#     Edge 45, Type (0, 0), BuildingBlock: MIFKUJ_clean_linker_0, # of connection points: 2
#     Edge 46, Type (0, 0), BuildingBlock: MIFKUJ_clean_linker_0, # of connection points: 2
#     Edge 47, Type (0, 0), BuildingBlock: MIFKUJ_clean_linker_0, # of connection points: 2
# Relax obj value: 0.054
# Max RMSD: 0.059
# Mean RMSD: 0.054
data_MOF--net-gsi--node1-NAHDIM_clean_sbu_0--edge1-MIFKUJ_clean_linker_0
_symmetry_space_group_name_H-M    P1
_symmetry_Int_Tables_number       1
_symmetry_cell_setting            triclinic
loop_
_symmetry_equiv_pos_as_xyz
'x, y, z'
_cell_length_a     54.044755
_cell_length_b     55.279525
_cell_length_c     55.691906
_cell_angle_alpha  90.007014
_cell_angle_beta   89.995183
_cell_angle_gamma 95.174991
loop_
_atom_site_label
_atom_site_type_symbol
_atom_site_fract_x
_atom_site_fract_y
_atom_site_fract_z
_atom_type_partial_charge
C0 C 0.11125 0.1891 0.14616 0.0
O1 O 0.13252 0.20192 0.1501 0.0
O2 O 0.15886 0.14375 0.11743 0.0
Zn3 Zn 0.14267 0.14964 0.14947 0.0
O4 O 0.16681 0.17119 0.16933 0.0
C5 C 0.13716 0.09732 0.15906 0.0
O6 O 0.14136 0.09529 0.13595 0.0
O7 O 0.11082 0.16607 0.14493 0.0
C8 C 0.18984 0.1681 0.16958 0.0
O9 O 0.19796 0.15054 0.1567 0.0
C10 C 0.17072 0.16153 0.10673 0.0
O11 O 0.17101 0.18331 0.11622 0.0
O12 O 0.1362 0.11833 0.16812 0.0
C13 C 0.88925 0.31514 0.13708 0.0
O14 O 0.86732 0.30329 0.13381 0.0
O15 O 0.84215 0.35766 0.11354 0.0
Zn16 Zn 0.8587 0.35408 0.14608 0.0
O17 O 0.83555 0.33248 0.16702 0.0
C18 C 0.8575 0.40609 0.15781 0.0
O19 O 0.844 0.40702 0.1383 0.0
O20 O 0.89047 0.33766 0.14214 0.0
C21 C 0.81969 0.34112 0.1807 0.0
O22 O 0.81842 0.36472 0.18156 0.0
C23 C 0.81955 0.36234 0.11215 0.0
O24 O 0.80716 0.36559 0.13199 0.0
O25 O 0.86611 0.38621 0.16355 0.0
C26 C 0.14573 0.88607 0.30898 0.0
O27 O 0.14405 0.86463 0.29862 0.0
O28 O 0.12022 0.83765 0.35501 0.0
Zn29 Zn 0.15388 0.856 0.3491 0.0
O30 O 0.17461 0.83549 0.3286 0.0
C31 C 0.177 0.84289 0.39196 0.0
O32 O 0.16925 0.8215 0.38311 0.0
O33 O 0.1498 0.8874 0.33147 0.0
C34 C 0.1982 0.83849 0.32861 0.0
O35 O 0.20948 0.85552 0.34218 0.0
C36 C 0.11225 0.82035 0.34118 0.0
O37 O 0.12594 0.81484 0.32283 0.0
O38 O 0.17197 0.86182 0.38064 0.0
C39 C 0.85522 0.60044 0.32943 0.0
O40 O 0.87235 0.60457 0.34604 0.0
O41 O 0.87249 0.66143 0.35171 0.0
Zn42 Zn 0.83771 0.64579 0.34664 0.0
O43 O 0.81914 0.669 0.32733 0.0
C44 C 0.8285 0.63266 0.39747 0.0
O45 O 0.85189 0.62796 0.39804 0.0
O46 O 0.83858 0.61513 0.32712 0.0
C47 C 0.79554 0.66765 0.32789 0.0
O48 O 0.78346 0.65088 0.34119 0.0
C49 C 0.87671 0.67973 0.3654 0.0
O50 O 0.85816 0.68778 0.37736 0.0
O51 O 0.81936 0.63979 0.37797 0.0
C52 C 0.39094 0.81219 0.64089 0.0
O53 O 0.36985 0.79921 0.64524 0.0
O54 O 0.34207 0.85589 0.61228 0.0
Zn55 Zn 0.35911 0.85128 0.64416 0.0
O56 O 0.33593 0.82985 0.66506 0.0
C57 C 0.35775 0.9029 0.65497 0.0
O58 O 0.34581 0.90325 0.63445 0.0
O59 O 0.39109 0.83518 0.6394 0.0
C60 C 0.31763 0.83841 0.67535 0.0
O61 O 0.31379 0.86128 0.67183 0.0
C62 C 0.33142 0.83743 0.60165 0.0
O63 O 0.33234 0.8159 0.61141 0.0
O64 O 0.36583 0.88318 0.66198 0.0
C65 C 0.86082 0.90652 0.83399 0.0
O66 O 0.84069 0.90153 0.84696 0.0
O67 O 0.85587 0.86625 0.88527 0.0
Zn68 Zn 0.8714 0.86059 0.85294 0.0
O69 O 0.84657 0.83924 0.83367 0.0
C70 C 0.9153 0.84123 0.87496 0.0
O71 O 0.90866 0.85191 0.89471 0.0
O72 O 0.87765 0.89187 0.83437 0.0
C73 C 0.84882 0.8168 0.83029 0.0
O74 O 0.86775 0.80699 0.83987 0.0
C75 C 0.84875 0.84792 0.89813 0.0
O76 O 0.85288 0.82616 0.89051 0.0
O77 O 0.90285 0.84343 0.85584 0.0
C78 C 0.13284 0.59147 0.84577 0.0
O79 O 0.1348 0.58904 0.86914 0.0
O80 O 0.15443 0.63817 0.88821 0.0
Zn81 Zn 0.13905 0.64385 0.85581 0.0
O82 O 0.16289 0.66627 0.83652 0.0
C83 C 0.10191 0.67108 0.87851 0.0
O84 O 0.11696 0.67064 0.897 0.0
O85 O 0.13351 0.61266 0.83678 0.0
C86 C 0.16282 0.68925 0.83726 0.0
O87 O 0.14714 0.699 0.85155 0.0
C88 C 0.17717 0.63411 0.88971 0.0
O89 O 0.19019 0.63292 0.86989 0.0
O90 O 0.10706 0.66004 0.85935 0.0
C91 C 0.82693 0.13866 0.59548 0.0
O92 O 0.85113 0.14215 0.59271 0.0
O93 O 0.87238 0.16274 0.63884 0.0
Zn94 Zn 0.83795 0.14679 0.64657 0.0
O95 O 0.81974 0.17037 0.66602 0.0
C96 C 0.85264 0.09915 0.66134 0.0
O97 O 0.86576 0.10028 0.64144 0.0
O98 O 0.81778 0.13934 0.61647 0.0
C99 C 0.83024 0.18287 0.68294 0.0
O100 O 0.8536 0.1804 0.68799 0.0
C101 C 0.89082 0.16001 0.65248 0.0
O102 O 0.88763 0.14575 0.6713 0.0
O103 O 0.83966 0.11649 0.66656 0.0
C104 C 0.16558 0.3592 0.60197 0.0
O105 O 0.14171 0.35249 0.60009 0.0
O106 O 0.12399 0.33295 0.64683 0.0
Zn107 Zn 0.15647 0.35336 0.6535 0.0
O108 O 0.17801 0.33324 0.67349 0.0
C109 C 0.14321 0.38177 0.6938 0.0
O110 O 0.14003 0.36001 0.7034 0.0
O111 O 0.17532 0.36143 0.62273 0.0
C112 C 0.1943 0.34202 0.6883 0.0
O113 O 0.19819 0.36569 0.69078 0.0
C114 C 0.11683 0.31583 0.6612 0.0
O115 O 0.13046 0.31211 0.68015 0.0
O116 O 0.14999 0.38382 0.67196 0.0
C117 C 0.64435 0.10767 0.31993 0.0
O118 O 0.66531 0.12164 0.31889 0.0
O119 O 0.65155 0.13915 0.38386 0.0
Zn120 Zn 0.63354 0.14506 0.35271 0.0
O121 O 0.65565 0.16844 0.3326 0.0
C122 C 0.60302 0.18237 0.36619 0.0
O123 O 0.62513 0.19382 0.36957 0.0
O124 O 0.6272 0.11368 0.3338 0.0
C125 C 0.64746 0.18205 0.31662 0.0
O126 O 0.62341 0.18155 0.31296 0.0
C127 C 0.67509 0.13907 0.3836 0.0
O128 O 0.68692 0.14235 0.36309 0.0
O129 O 0.60148 0.1603 0.3594 0.0
C130 C 0.61427 0.68849 0.63527 0.0
O131 O 0.63619 0.70057 0.63266 0.0
O132 O 0.66219 0.64476 0.61403 0.0
Zn133 Zn 0.64515 0.65038 0.64578 0.0
O134 O 0.66787 0.67334 0.66582 0.0
C135 C 0.63703 0.59788 0.65637 0.0
O136 O 0.63863 0.59477 0.63305 0.0
O137 O 0.61315 0.66601 0.64048 0.0
C138 C 0.68345 0.66521 0.68015 0.0
O139 O 0.68468 0.64165 0.68182 0.0
C140 C 0.68248 0.63474 0.61361 0.0
O141 O 0.69159 0.62725 0.63387 0.0
O142 O 0.63856 0.61931 0.66485 0.0
C143 C 0.64379 0.38952 0.8106 0.0
O144 O 0.64049 0.36795 0.80057 0.0
O145 O 0.61824 0.34149 0.85418 0.0
Zn146 Zn 0.65235 0.35908 0.84995 0.0
O147 O 0.67196 0.33872 0.82826 0.0
C148 C 0.68479 0.34879 0.88925 0.0
O149 O 0.68781 0.32967 0.87594 0.0
O150 O 0.64904 0.39094 0.83286 0.0
C151 C 0.69476 0.34459 0.82376 0.0
O152 O 0.7059 0.36421 0.8337 0.0
C153 C 0.61562 0.32008 0.86273 0.0
O154 O 0.63541 0.30985 0.86975 0.0
O155 O 0.67008 0.36406 0.8821 0.0
C156 C 0.34544 0.10902 0.81103 0.0
O157 O 0.34308 0.13013 0.80088 0.0
O158 O 0.37523 0.15752 0.85647 0.0
Zn159 Zn 0.34155 0.1384 0.85281 0.0
O160 O 0.31873 0.15884 0.83455 0.0
C161 C 0.33101 0.14509 0.90304 0.0
O162 O 0.34839 0.16311 0.90045 0.0
O163 O 0.34541 0.10764 0.83385 0.0
C164 C 0.31423 0.17966 0.84221 0.0
O165 O 0.32418 0.18762 0.86256 0.0
C166 C 0.38217 0.17437 0.84172 0.0
O167 O 0.36767 0.17872 0.82361 0.0
O168 O 0.32565 0.13107 0.8853 0.0
C169 C 0.35162 0.40687 0.34337 0.0
O170 O 0.33167 0.40228 0.35665 0.0
O171 O 0.34049 0.36155 0.38957 0.0
Zn172 Zn 0.36004 0.35851 0.35867 0.0
O173 O 0.33956 0.33703 0.33562 0.0
C174 C 0.38901 0.31981 0.37029 0.0
O175 O 0.36649 0.30884 0.37222 0.0
O176 O 0.36732 0.39109 0.34217 0.0
C177 C 0.34934 0.32801 0.31732 0.0
O178 O 0.37325 0.3329 0.31341 0.0
C179 C 0.31691 0.35773 0.38926 0.0
O180 O 0.3057 0.3522 0.3688 0.0
O181 O 0.39149 0.34233 0.36516 0.0
C182 C 0.30317 0.63742 0.11748 0.0
O183 O 0.29096 0.64037 0.13751 0.0
O184 O 0.37901 0.66334 0.14174 0.0
Zn185 Zn 0.34538 0.64603 0.1491 0.0
O186 O 0.3264 0.66844 0.16926 0.0
C187 C 0.33404 0.60836 0.18419 0.0
O188 O 0.31455 0.62055 0.1875 0.0
O189 O 0.32677 0.63852 0.11807 0.0
C190 C 0.33673 0.67973 0.18702 0.0
O191 O 0.36 0.67669 0.19206 0.0
C192 C 0.38046 0.68542 0.13506 0.0
O193 O 0.3599 0.69614 0.13238 0.0
O194 O 0.34976 0.61545 0.1681 0.0
C195 C 0.69094 0.8472 0.10554 0.0
O196 O 0.68949 0.8271 0.11824 0.0
O197 O 0.62355 0.84201 0.13411 0.0
Zn198 Zn 0.65702 0.85975 0.14202 0.0
O199 O 0.67484 0.83987 0.16568 0.0
C200 C 0.63361 0.89492 0.17064 0.0
O201 O 0.61616 0.8769 0.17274 0.0
O202 O 0.67827 0.86438 0.11205 0.0
C203 C 0.66385 0.82935 0.18351 0.0
O204 O 0.64013 0.83164 0.18693 0.0
C205 C 0.62113 0.81901 0.13196 0.0
O206 O 0.64083 0.80689 0.13406 0.0
O207 O 0.65256 0.89204 0.15776 0.0
H208 H 0.17861 0.20019 0.2043 0.0
H209 H 0.20741 0.22723 0.2278 0.0
H210 H 0.26936 0.20045 0.19041 0.0
H211 H 0.2406 0.1727 0.16735 0.0
H212 H 0.27996 0.20492 0.23613 0.0
H213 H 0.24856 0.25657 0.17713 0.0
H214 H 0.21672 0.27489 0.15319 0.0
H215 H 0.18699 0.30436 0.21726 0.0
H216 H 0.21844 0.28592 0.24164 0.0
H217 H 0.36494 0.3021 0.27918 0.0
H218 H 0.33936 0.27515 0.25234 0.0
H219 H 0.27366 0.29057 0.29139 0.0
H220 H 0.299 0.3176 0.31819 0.0
H221 H 0.26749 0.29255 0.24224 0.0
H222 H 0.29907 0.23829 0.3009 0.0
H223 H 0.33264 0.2211 0.32346 0.0
H224 H 0.36423 0.19793 0.25752 0.0
H225 H 0.33098 0.21524 0.23453 0.0
C226 C 0.19836 0.20004 0.20106 0.0
C227 C 0.20733 0.18438 0.18389 0.0
C228 C 0.21482 0.2156 0.21444 0.0
C229 C 0.24056 0.21621 0.21058 0.0
C230 C 0.24958 0.20035 0.19366 0.0
C231 C 0.23312 0.18454 0.18046 0.0
C232 C 0.25795 0.23334 0.22433 0.0
C233 C 0.27744 0.22414 0.23714 0.0
C234 C 0.25462 0.25842 0.22585 0.0
C235 C 0.23574 0.26968 0.21123 0.0
C236 C 0.23513 0.26681 0.18614 0.0
C237 C 0.21716 0.27724 0.17248 0.0
C238 C 0.19981 0.29073 0.1837 0.0
C239 C 0.20043 0.29388 0.2086 0.0
C240 C 0.21834 0.28347 0.22234 0.0
C241 C 0.34504 0.2998 0.28202 0.0
C242 C 0.33399 0.31194 0.30085 0.0
C243 C 0.33048 0.28434 0.26672 0.0
C244 C 0.30466 0.28076 0.27001 0.0
C245 C 0.29357 0.29311 0.28857 0.0
C246 C 0.30809 0.30847 0.30391 0.0
C247 C 0.28909 0.26402 0.25427 0.0
C248 C 0.27001 0.27334 0.24106 0.0
C249 C 0.29302 0.23915 0.25215 0.0
C250 C 0.31267 0.22825 0.26599 0.0
C251 C 0.31325 0.22964 0.29121 0.0
C252 C 0.33221 0.21986 0.30407 0.0
C253 C 0.35059 0.20847 0.29193 0.0
C254 C 0.34999 0.20676 0.2669 0.0
C255 C 0.33107 0.21652 0.25395 0.0
H256 H 0.36527 0.20095 0.30192 0.0
H257 H 0.18591 0.29878 0.1731 0.0
H258 H 0.82505 0.29454 0.19462 0.0
H259 H 0.79576 0.2675 0.21777 0.0
H260 H 0.74486 0.32334 0.22048 0.0
H261 H 0.77468 0.35082 0.19846 0.0
H262 H 0.74472 0.30328 0.26135 0.0
H263 H 0.73722 0.27192 0.18153 0.0
H264 H 0.75154 0.25633 0.14294 0.0
H265 H 0.7801 0.19626 0.1793 0.0
H266 H 0.76624 0.21167 0.21817 0.0
H267 H 0.6376 0.22241 0.29136 0.0
H268 H 0.66701 0.24946 0.26808 0.0
H269 H 0.72592 0.20489 0.28574 0.0
H270 H 0.69682 0.17804 0.30944 0.0
H271 H 0.72098 0.21879 0.23444 0.0
H272 H 0.72691 0.25258 0.31486 0.0
H273 H 0.7094 0.2687 0.35184 0.0
H274 H 0.67945 0.32527 0.3112 0.0
H275 H 0.69648 0.30925 0.2739 0.0
C276 C 0.80761 0.30102 0.2002 0.0
C277 C 0.8021 0.32474 0.19471 0.0
C278 C 0.7908 0.28551 0.21329 0.0
C279 C 0.76782 0.29317 0.2205 0.0
C280 C 0.76242 0.31696 0.21514 0.0
C281 C 0.77946 0.33265 0.20251 0.0
C282 C 0.74956 0.27656 0.2339 0.0
C283 C 0.73932 0.28494 0.25521 0.0
C284 C 0.7426 0.25246 0.22614 0.0
C285 C 0.7509 0.24308 0.20279 0.0
C286 C 0.74671 0.25548 0.18132 0.0
C287 C 0.75472 0.24666 0.15939 0.0
C288 C 0.76678 0.22535 0.15868 0.0
C289 C 0.77079 0.21278 0.17989 0.0
C290 C 0.76284 0.22153 0.20187 0.0
C291 C 0.65681 0.21837 0.29024 0.0
C292 C 0.66496 0.19819 0.30226 0.0
C293 C 0.67355 0.23383 0.277 0.0
C294 C 0.69856 0.22911 0.27529 0.0
C295 C 0.70666 0.20875 0.28688 0.0
C296 C 0.69005 0.19354 0.30048 0.0
C297 C 0.7164 0.24564 0.26165 0.0
C298 C 0.72646 0.23719 0.24038 0.0
C299 C 0.72278 0.2698 0.26913 0.0
C300 C 0.71274 0.27956 0.29157 0.0
C301 C 0.7164 0.26832 0.31378 0.0
C302 C 0.7066 0.27747 0.3348 0.0
C303 C 0.69326 0.29796 0.33386 0.0
C304 C 0.68976 0.30938 0.3119 0.0
C305 C 0.69949 0.30029 0.29082 0.0
H306 H 0.68569 0.30501 0.35015 0.0
H307 H 0.77298 0.21855 0.14168 0.0
H308 H 0.28715 0.68586 0.1849 0.0
H309 H 0.26417 0.71307 0.20914 0.0
H310 H 0.33166 0.73829 0.24632 0.0
H311 H 0.35468 0.71065 0.22254 0.0
H312 H 0.29464 0.73102 0.27724 0.0
H313 H 0.30668 0.77259 0.20209 0.0
H314 H 0.30518 0.77719 0.15808 0.0
H315 H 0.22572 0.76342 0.15951 0.0
H316 H 0.22678 0.75841 0.20351 0.0
H317 H 0.24852 0.83603 0.32868 0.0
H318 H 0.27238 0.80931 0.30462 0.0
H319 H 0.20481 0.77839 0.27116 0.0
H320 H 0.18079 0.80508 0.29507 0.0
H321 H 0.24248 0.78931 0.23849 0.0
H322 H 0.23098 0.74734 0.3139 0.0
H323 H 0.23288 0.74349 0.35796 0.0
H324 H 0.31212 0.75922 0.35596 0.0
H325 H 0.31066 0.76347 0.31188 0.0
C326 C 0.29712 0.6972 0.19822 0.0
C327 C 0.32277 0.69617 0.20171 0.0
C328 C 0.28397 0.71283 0.212 0.0
C329 C 0.29626 0.72801 0.22931 0.0
C330 C 0.3218 0.72679 0.23304 0.0
C331 C 0.33494 0.71102 0.21938 0.0
C332 C 0.28243 0.74508 0.24357 0.0
C333 C 0.28353 0.744 0.26874 0.0
C334 C 0.26755 0.76174 0.23252 0.0
C335 C 0.26684 0.7649 0.20607 0.0
C336 C 0.2889 0.77037 0.193 0.0
C337 C 0.28813 0.77308 0.16806 0.0
C338 C 0.26537 0.77054 0.156 0.0
C339 C 0.24333 0.76536 0.16887 0.0
C340 C 0.24401 0.7626 0.19381 0.0
C341 C 0.23873 0.82359 0.31616 0.0
C342 C 0.21275 0.82263 0.31382 0.0
C343 C 0.25239 0.80828 0.3025 0.0
C344 C 0.24032 0.79175 0.28626 0.0
C345 C 0.21446 0.79101 0.28361 0.0
C346 C 0.20077 0.80621 0.29735 0.0
C347 C 0.25466 0.77515 0.27205 0.0
C348 C 0.25366 0.77635 0.24692 0.0
C349 C 0.26971 0.75872 0.28313 0.0
C350 C 0.27068 0.75594 0.30961 0.0
C351 C 0.2488 0.75015 0.32287 0.0
C352 C 0.2498 0.74786 0.34784 0.0
C353 C 0.2726 0.75114 0.35975 0.0
C354 C 0.29447 0.75668 0.34671 0.0
C355 C 0.29357 0.75901 0.32172 0.0
H356 H 0.27333 0.74934 0.37909 0.0
H357 H 0.26481 0.77264 0.13669 0.0
H358 H 0.81453 0.70188 0.29577 0.0
H359 H 0.79181 0.7299 0.27228 0.0
H360 H 0.72305 0.70052 0.3047 0.0
H361 H 0.74557 0.67204 0.32788 0.0
H362 H 0.71729 0.70587 0.25782 0.0
H363 H 0.75183 0.75599 0.3219 0.0
H364 H 0.78506 0.77426 0.3483 0.0
H365 H 0.8226 0.80808 0.28739 0.0
H366 H 0.78974 0.78974 0.26056 0.0
H367 H 0.64481 0.7998 0.21966 0.0
H368 H 0.66713 0.773 0.24513 0.0
H369 H 0.7357 0.79684 0.20916 0.0
H370 H 0.71358 0.82372 0.18363 0.0
H371 H 0.74096 0.79471 0.25852 0.0
H372 H 0.70648 0.7438 0.19457 0.0
H373 H 0.67299 0.72559 0.16842 0.0
H374 H 0.63493 0.6934 0.22984 0.0
H375 H 0.66803 0.71173 0.25641 0.0
C376 C 0.79457 0.70139 0.29795 0.0
C377 C 0.78186 0.68477 0.31375 0.0
C378 C 0.78162 0.71751 0.28458 0.0
C379 C 0.75576 0.71754 0.28697 0.0
C380 C 0.743 0.70085 0.3026 0.0
C381 C 0.75592 0.68462 0.31588 0.0
C382 C 0.74196 0.73473 0.2729 0.0
C383 C 0.72223 0.72533 0.25827 0.0
C384 C 0.74874 0.76008 0.27309 0.0
C385 C 0.76843 0.7713 0.2892 0.0
C386 C 0.76726 0.76718 0.31411 0.0
C387 C 0.78601 0.77758 0.32916 0.0
C388 C 0.80596 0.79227 0.31952 0.0
C389 C 0.80715 0.79667 0.29482 0.0
C390 C 0.78845 0.7863 0.27969 0.0
C391 C 0.66466 0.79943 0.21723 0.0
C392 C 0.67741 0.81381 0.19956 0.0
C393 C 0.67735 0.78406 0.23175 0.0
C394 C 0.70301 0.78281 0.22886 0.0
C395 C 0.71589 0.79754 0.21164 0.0
C396 C 0.7032 0.81282 0.19702 0.0
C397 C 0.71636 0.76581 0.24352 0.0
C398 C 0.736 0.77526 0.2582 0.0
C399 C 0.70945 0.74051 0.24346 0.0
C400 C 0.6896 0.72935 0.2275 0.0
C401 C 0.69086 0.73301 0.20252 0.0
C402 C 0.67197 0.72264 0.18762 0.0
C403 C 0.65181 0.70841 0.19747 0.0
C404 C 0.65054 0.70446 0.22224 0.0
C405 C 0.66937 0.71483 0.23723 0.0
H406 H 0.6372 0.70039 0.1859 0.0
H407 H 0.82048 0.80029 0.3312 0.0
H408 H 0.31822 0.78974 0.68388 0.0
H409 H 0.29173 0.76461 0.71145 0.0
H410 H 0.25379 0.82703 0.73128 0.0
H411 H 0.28025 0.85234 0.70382 0.0
H412 H 0.26666 0.80071 0.77049 0.0
H413 H 0.22596 0.78544 0.69466 0.0
H414 H 0.22331 0.77397 0.65189 0.0
H415 H 0.24589 0.70347 0.66891 0.0
H416 H 0.24902 0.71465 0.71177 0.0
H417 H 0.16419 0.73843 0.83105 0.0
H418 H 0.19076 0.76376 0.80376 0.0
H419 H 0.22578 0.7007 0.78041 0.0
H420 H 0.199 0.67515 0.80735 0.0
H421 H 0.21446 0.72753 0.74293 0.0
H422 H 0.25546 0.7424 0.81848 0.0
H423 H 0.25875 0.75363 0.86128 0.0
H424 H 0.23643 0.8244 0.84501 0.0
H425 H 0.23268 0.81349 0.80212 0.0
C426 C 0.3042 0.79812 0.69405 0.0
C427 C 0.3013 0.82304 0.69162 0.0
C428 C 0.28904 0.78372 0.70974 0.0
C429 C 0.27069 0.79394 0.72327 0.0
C430 C 0.26784 0.81881 0.72099 0.0
C431 C 0.28291 0.83321 0.70521 0.0
C432 C 0.25466 0.77873 0.74 0.0
C433 C 0.25497 0.78489 0.76445 0.0
C434 C 0.23993 0.75777 0.73215 0.0
C435 C 0.23796 0.75097 0.7064 0.0
C436 C 0.23056 0.76756 0.68926 0.0
C437 C 0.22893 0.7611 0.665 0.0
C438 C 0.23449 0.73803 0.65768 0.0
C439 C 0.24163 0.72135 0.67461 0.0
C440 C 0.24331 0.72773 0.69889 0.0
C441 C 0.17764 0.72995 0.82021 0.0
C442 C 0.17952 0.70477 0.82141 0.0
C443 C 0.19287 0.74448 0.80467 0.0
C444 C 0.21043 0.73415 0.79021 0.0
C445 C 0.21236 0.70904 0.7914 0.0
C446 C 0.19708 0.69448 0.80687 0.0
C447 C 0.22645 0.74946 0.77349 0.0
C448 C 0.22614 0.74333 0.74902 0.0
C449 C 0.24126 0.77039 0.78134 0.0
C450 C 0.24355 0.77704 0.80712 0.0
C451 C 0.25106 0.76029 0.82405 0.0
C452 C 0.25304 0.76661 0.84832 0.0
C453 C 0.24774 0.78969 0.85587 0.0
C454 C 0.2405 0.80652 0.83914 0.0
C455 C 0.23846 0.80029 0.81484 0.0
H456 H 0.24929 0.79455 0.87467 0.0
H457 H 0.23322 0.73306 0.63889 0.0
H458 H 0.72464 0.65483 0.7049 0.0
H459 H 0.75132 0.68202 0.73027 0.0
H460 H 0.70578 0.74043 0.71516 0.0
H461 H 0.67942 0.71343 0.68898 0.0
H462 H 0.75276 0.757 0.7144 0.0
H463 H 0.70143 0.70871 0.76927 0.0
H464 H 0.68155 0.67099 0.78706 0.0
H465 H 0.7532 0.64779 0.80408 0.0
H466 H 0.77354 0.68524 0.7861 0.0
H467 H 0.80644 0.83077 0.80953 0.0
H468 H 0.7768 0.80626 0.78434 0.0
H469 H 0.82055 0.74514 0.79167 0.0
H470 H 0.85001 0.76933 0.81721 0.0
H471 H 0.77195 0.73168 0.79732 0.0
H472 H 0.82278 0.78046 0.74052 0.0
H473 H 0.84155 0.81907 0.72358 0.0
H474 H 0.76896 0.84245 0.71141 0.0
H475 H 0.74976 0.80409 0.72857 0.0
C476 C 0.72029 0.67346 0.70695 0.0
C477 C 0.69982 0.68195 0.69509 0.0
C478 C 0.7355 0.68897 0.72156 0.0
C479 C 0.73026 0.71315 0.72504 0.0
C480 C 0.71011 0.72182 0.71283 0.0
C481 C 0.69505 0.70637 0.69792 0.0
C482 C 0.74588 0.72928 0.74142 0.0
C483 C 0.75664 0.75162 0.73266 0.0
C484 C 0.75118 0.72218 0.76517 0.0
C485 C 0.73901 0.6997 0.77616 0.0
C486 C 0.71295 0.6955 0.77667 0.0
C487 C 0.7016 0.67417 0.7868 0.0
C488 C 0.7161 0.65698 0.79665 0.0
C489 C 0.74199 0.66111 0.79643 0.0
C490 C 0.75344 0.6824 0.78629 0.0
C491 C 0.80975 0.8121 0.8058 0.0
C492 C 0.83063 0.80201 0.81531 0.0
C493 C 0.79284 0.79816 0.79132 0.0
C494 C 0.79664 0.77397 0.78589 0.0
C495 C 0.81729 0.76378 0.79562 0.0
C496 C 0.83413 0.77766 0.81017 0.0
C497 C 0.77913 0.75913 0.77016 0.0
C498 C 0.76795 0.73707 0.77909 0.0
C499 C 0.77328 0.7666 0.74668 0.0
C500 C 0.78484 0.7895 0.73603 0.0
C501 C 0.81083 0.79389 0.73436 0.0
C502 C 0.82154 0.81573 0.72471 0.0
C503 C 0.80646 0.83323 0.71649 0.0
C504 C 0.78062 0.82889 0.71781 0.0
C505 C 0.76981 0.8071 0.72748 0.0
H506 H 0.81478 0.85013 0.70903 0.0
H507 H 0.70728 0.64048 0.80448 0.0
H508 H 0.74506 0.34339 0.82097 0.0
H509 H 0.76805 0.31634 0.79651 0.0
H510 H 0.69912 0.28382 0.76681 0.0
H511 H 0.67601 0.31014 0.79199 0.0
H512 H 0.72693 0.24994 0.77712 0.0
H513 H 0.74061 0.32549 0.73483 0.0
H514 H 0.75304 0.36926 0.73007 0.0
H515 H 0.82729 0.35823 0.75222 0.0
H516 H 0.81521 0.31444 0.75743 0.0
H517 H 0.78076 0.18954 0.67992 0.0
H518 H 0.75783 0.21756 0.70335 0.0
H519 H 0.82509 0.24277 0.74085 0.0
H520 H 0.84821 0.21489 0.71747 0.0
H521 H 0.79822 0.28032 0.72596 0.0
H522 H 0.78336 0.20416 0.76802 0.0
H523 H 0.7702 0.16042 0.7716 0.0
H524 H 0.69684 0.173 0.74794 0.0
H525 H 0.70967 0.21679 0.7439 0.0
C526 C 0.73483 0.33055 0.80913 0.0
C527 C 0.70876 0.32891 0.80834 0.0
C528 C 0.748 0.31517 0.79506 0.0
C529 C 0.73536 0.29826 0.7795 0.0
C530 C 0.7093 0.29669 0.77866 0.0
C531 C 0.69611 0.31178 0.79302 0.0
C532 C 0.74922 0.28175 0.76457 0.0
C533 C 0.74226 0.25667 0.76566 0.0
C534 C 0.76959 0.2904 0.74996 0.0
C535 C 0.77694 0.31672 0.74673 0.0
C536 C 0.75954 0.33243 0.73885 0.0
C537 C 0.76653 0.35723 0.73604 0.0
C538 C 0.79092 0.36653 0.74089 0.0
C539 C 0.80839 0.35102 0.7485 0.0
C540 C 0.80149 0.32619 0.75135 0.0
C541 C 0.7907 0.20105 0.69314 0.0
C542 C 0.8163 0.19993 0.6969 0.0
C543 C 0.77755 0.217 0.70655 0.0
C544 C 0.78975 0.23208 0.72395 0.0
C545 C 0.81535 0.23126 0.7275 0.0
C546 C 0.82849 0.21524 0.71419 0.0
C547 C 0.77581 0.24868 0.73852 0.0
C548 C 0.7828 0.27371 0.73738 0.0
C549 C 0.75531 0.24003 0.75289 0.0
C550 C 0.74755 0.21372 0.75543 0.0
C551 C 0.76448 0.19757 0.76339 0.0
C552 C 0.75707 0.17278 0.76554 0.0
C553 C 0.73272 0.16393 0.75994 0.0
C554 C 0.71571 0.17987 0.75224 0.0
C555 C 0.72303 0.20469 0.75004 0.0
H556 H 0.72702 0.14473 0.76161 0.0
H557 H 0.7963 0.38574 0.73872 0.0
H558 H 0.19656 0.29323 0.68268 0.0
H559 H 0.21689 0.26568 0.70885 0.0
H560 H 0.24171 0.32573 0.75502 0.0
H561 H 0.22206 0.35357 0.72843 0.0
H562 H 0.2774 0.29698 0.74974 0.0
H563 H 0.19073 0.28514 0.76919 0.0
H564 H 0.14601 0.27669 0.76066 0.0
H565 H 0.15882 0.20642 0.73293 0.0
H566 H 0.20369 0.21459 0.74098 0.0
H567 H 0.30636 0.22702 0.85071 0.0
H568 H 0.2853 0.25426 0.82472 0.0
H569 H 0.26889 0.19601 0.77406 0.0
H570 H 0.28993 0.16854 0.79997 0.0
H571 H 0.22883 0.22366 0.78206 0.0
H572 H 0.31594 0.23623 0.76308 0.0
H573 H 0.36037 0.24496 0.77277 0.0
H574 H 0.34607 0.3146 0.80108 0.0
H575 H 0.30146 0.30611 0.79192 0.0
C576 C 0.20643 0.30061 0.69835 0.0
C577 C 0.20759 0.32557 0.70357 0.0
C578 C 0.21794 0.2848 0.71337 0.0
C579 C 0.23041 0.29355 0.73418 0.0
C580 C 0.23211 0.31856 0.73911 0.0
C581 C 0.22086 0.33444 0.72391 0.0
C582 C 0.2415 0.27658 0.75086 0.0
C583 C 0.26667 0.28115 0.75705 0.0
C584 C 0.22763 0.25564 0.76009 0.0
C585 C 0.20061 0.25057 0.75549 0.0
C586 C 0.18403 0.26794 0.76114 0.0
C587 C 0.15866 0.2632 0.7564 0.0
C588 C 0.14959 0.24106 0.7462 0.0
C589 C 0.16588 0.22358 0.7408 0.0
C590 C 0.19128 0.22824 0.74547 0.0
C591 C 0.29812 0.21991 0.83413 0.0
C592 C 0.29995 0.19565 0.82732 0.0
C593 C 0.28616 0.23554 0.81928 0.0
C594 C 0.27581 0.22719 0.79737 0.0
C595 C 0.27683 0.20278 0.79089 0.0
C596 C 0.28891 0.18715 0.80568 0.0
C597 C 0.26461 0.24415 0.78087 0.0
C598 C 0.23947 0.23955 0.77473 0.0
C599 C 0.27844 0.26514 0.77183 0.0
C600 C 0.30532 0.27043 0.77702 0.0
C601 C 0.32224 0.25333 0.77153 0.0
C602 C 0.34746 0.25825 0.77691 0.0
C603 C 0.35603 0.2803 0.78759 0.0
C604 C 0.3394 0.29751 0.79284 0.0
C605 C 0.31415 0.29267 0.78754 0.0
H606 H 0.37556 0.28406 0.79175 0.0
H607 H 0.12994 0.23743 0.74254 0.0
H608 H 0.1413 0.88906 0.26031 0.0
H609 H 0.13868 0.92539 0.23593 0.0
H610 H 0.1426 0.96961 0.29985 0.0
H611 H 0.14519 0.93318 0.32454 0.0
H612 H 0.10652 0.98231 0.2677 0.0
H613 H 0.19283 0.96851 0.26609 0.0
H614 H 0.22869 0.94452 0.26036 0.0
H615 H 0.20844 0.93253 0.18647 0.0
H616 H 0.17223 0.95617 0.19186 0.0
H617 H 0.13346 0.09569 0.20808 0.0
H618 H 0.13336 0.06008 0.23403 0.0
H619 H 0.13661 0.01408 0.17173 0.0
H620 H 0.13725 0.0497 0.14564 0.0
H621 H 0.16927 0.00272 0.20412 0.0
H622 H 0.08281 0.01596 0.20543 0.0
H623 H 0.04655 0.03945 0.21093 0.0
H624 H 0.06645 0.05208 0.28481 0.0
H625 H 0.10304 0.02893 0.27967 0.0
C626 C 0.14156 0.90647 0.26926 0.0
C627 C 0.14357 0.90821 0.2944 0.0
C628 C 0.14013 0.92725 0.25526 0.0
C629 C 0.1407 0.95022 0.26605 0.0
C630 C 0.14218 0.95204 0.29117 0.0
C631 C 0.14374 0.93122 0.30523 0.0
C632 C 0.14003 0.97229 0.25098 0.0
C633 C 0.12042 0.98701 0.25402 0.0
C634 C 0.15785 0.97806 0.23277 0.0
C635 C 0.17968 0.96392 0.22945 0.0
C636 C 0.1959 0.96059 0.24867 0.0
C637 C 0.21631 0.94709 0.24548 0.0
C638 C 0.2208 0.93696 0.22308 0.0
C639 C 0.20492 0.94037 0.20382 0.0
C640 C 0.18446 0.95383 0.20693 0.0
C641 C 0.13394 0.07798 0.19985 0.0
C642 C 0.13536 0.07556 0.17475 0.0
C643 C 0.13378 0.0576 0.21474 0.0
C644 C 0.13475 0.03433 0.20485 0.0
C645 C 0.13586 0.03184 0.17978 0.0
C646 C 0.13615 0.05222 0.16488 0.0
C647 C 0.1356 0.01272 0.22063 0.0
C648 C 0.15532 0.99808 0.21777 0.0
C649 C 0.11782 0.00701 0.23894 0.0
C650 C 0.09581 0.02091 0.24209 0.0
C651 C 0.07957 0.02391 0.2228 0.0
C652 C 0.05894 0.03714 0.22586 0.0
C653 C 0.05424 0.04731 0.24819 0.0
C654 C 0.07013 0.04422 0.26752 0.0
C655 C 0.09081 0.03103 0.26454 0.0
H656 H 0.03825 0.05754 0.25053 0.0
H657 H 0.23662 0.92651 0.22064 0.0
H658 H 0.83297 0.44715 0.15645 0.0
H659 H 0.83502 0.48021 0.18556 0.0
H660 H 0.89074 0.44611 0.22561 0.0
H661 H 0.88813 0.41245 0.19692 0.0
H662 H 0.85796 0.46034 0.2552 0.0
H663 H 0.90468 0.49871 0.19074 0.0
H664 H 0.9134 0.51184 0.14904 0.0
H665 H 0.85032 0.55381 0.15016 0.0
H666 H 0.84101 0.54068 0.19178 0.0
H667 H 0.88716 0.56463 0.32992 0.0
H668 H 0.88958 0.53168 0.30088 0.0
H669 H 0.82797 0.55668 0.26165 0.0
H670 H 0.82546 0.58967 0.29048 0.0
H671 H 0.86655 0.54735 0.2321 0.0
H672 H 0.81955 0.50705 0.29659 0.0
H673 H 0.81194 0.49404 0.33851 0.0
H674 H 0.87777 0.45599 0.33737 0.0
H675 H 0.88595 0.46904 0.29552 0.0
C676 C 0.84587 0.44678 0.17129 0.0
C677 C 0.86043 0.42717 0.17432 0.0
C678 C 0.84711 0.46579 0.18791 0.0
C679 C 0.86328 0.46588 0.20767 0.0
C680 C 0.87812 0.44648 0.21053 0.0
C681 C 0.87668 0.4273 0.19405 0.0
C682 C 0.86387 0.48566 0.22587 0.0
C683 C 0.8603 0.47936 0.25015 0.0
C684 C 0.86645 0.51053 0.21933 0.0
C685 C 0.87204 0.51854 0.19432 0.0
C686 C 0.89256 0.5106 0.18204 0.0
C687 C 0.89763 0.51807 0.15843 0.0
C688 C 0.88239 0.53361 0.14694 0.0
C689 C 0.86209 0.54176 0.15907 0.0
C690 C 0.85693 0.53433 0.18269 0.0
C691 C 0.87404 0.56305 0.31519 0.0
C692 C 0.8561 0.57978 0.31255 0.0
C693 C 0.87542 0.54417 0.29863 0.0
C694 C 0.85889 0.54167 0.27915 0.0
C695 C 0.84094 0.5583 0.27652 0.0
C696 C 0.83947 0.57709 0.2931 0.0
C697 C 0.86044 0.52196 0.26126 0.0
C698 C 0.86442 0.5283 0.23707 0.0
C699 C 0.85845 0.49716 0.26789 0.0
C700 C 0.8535 0.48924 0.29302 0.0
C701 C 0.83251 0.49607 0.30535 0.0
C702 C 0.82808 0.48866 0.32908 0.0
C703 C 0.8444 0.47426 0.34062 0.0
C704 C 0.86516 0.46718 0.32842 0.0
C705 C 0.8697 0.47456 0.30469 0.0
H706 H 0.84093 0.46853 0.35899 0.0
H707 H 0.88634 0.53936 0.12866 0.0
H708 H 0.29654 0.10808 0.9166 0.0
H709 H 0.26959 0.10665 0.95201 0.0
H710 H 0.30374 0.17655 0.97454 0.0
H711 H 0.33123 0.17766 0.93981 0.0
H712 H 0.29622 0.1494 0.01195 0.0
H713 H 0.24608 0.16862 0.94422 0.0
H714 H 0.22702 0.16212 0.90423 0.0
H715 H 0.18944 0.09466 0.92815 0.0
H716 H 0.20855 0.10063 0.96821 0.0
H717 H 0.20396 0.19424 0.08457 0.0
H718 H 0.23091 0.18728 0.05057 0.0
H719 H 0.19903 0.11307 0.04586 0.0
H720 H 0.17194 0.11982 0.08014 0.0
H721 H 0.20484 0.13764 0.00065 0.0
H722 H 0.25301 0.12212 0.07053 0.0
H723 H 0.27106 0.13159 0.11046 0.0
H724 H 0.31177 0.19551 0.08199 0.0
H725 H 0.29364 0.18664 0.04195 0.0
C726 C 0.29846 0.12302 0.92924 0.0
C727 C 0.31596 0.14304 0.92531 0.0
C728 C 0.28293 0.12226 0.94941 0.0
C729 C 0.28427 0.14171 0.96577 0.0
C730 C 0.30228 0.16132 0.96222 0.0
C731 C 0.318 0.16195 0.94228 0.0
C732 C 0.26663 0.14214 0.98628 0.0
C733 C 0.27625 0.14698 0.00939 0.0
C734 C 0.24052 0.13851 0.98315 0.0
C735 C 0.22897 0.13493 0.95911 0.0
C736 C 0.2339 0.15232 0.94089 0.0
C737 C 0.22306 0.14875 0.91823 0.0
C738 C 0.20709 0.12796 0.91363 0.0
C739 C 0.20186 0.11073 0.93172 0.0
C740 C 0.21267 0.1142 0.95441 0.0
C741 C 0.20251 0.17646 0.07626 0.0
C742 C 0.18585 0.15755 0.08514 0.0
C743 C 0.21801 0.1725 0.05687 0.0
C744 C 0.21714 0.1496 0.04589 0.0
C745 C 0.20002 0.13086 0.05417 0.0
C746 C 0.18461 0.13474 0.07376 0.0
C747 C 0.23451 0.14532 0.02605 0.0
C748 C 0.22483 0.13975 0.00315 0.0
C749 C 0.26056 0.14863 0.02929 0.0
C750 C 0.27181 0.1538 0.05327 0.0
C751 C 0.26568 0.13829 0.07281 0.0
C752 C 0.27594 0.14354 0.09546 0.0
C753 C 0.29252 0.16417 0.09877 0.0
C754 C 0.29892 0.17955 0.07941 0.0
C755 C 0.28867 0.1744 0.05672 0.0
H756 H 0.30043 0.16821 0.11633 0.0
H757 H 0.19871 0.12522 0.89607 0.0
H758 H 0.77642 0.3824 0.10253 0.0
H759 H 0.75426 0.38283 0.06441 0.0
H760 H 0.81132 0.34485 0.03062 0.0
H761 H 0.83412 0.3452 0.06866 0.0
H762 H 0.7975 0.37747 0.00111 0.0
H763 H 0.75405 0.31552 0.04886 0.0
H764 H 0.73225 0.29794 0.08457 0.0
H765 H 0.6763 0.34783 0.07686 0.0
H766 H 0.69797 0.36594 0.04127 0.0
H767 H 0.72571 0.32701 0.90297 0.0
H768 H 0.74896 0.33248 0.94048 0.0
H769 H 0.69901 0.38397 0.96468 0.0
H770 H 0.67572 0.37887 0.92685 0.0
H771 H 0.70855 0.34611 0.99874 0.0
H772 H 0.75283 0.40608 0.94842 0.0
H773 H 0.77497 0.42072 0.91177 0.0
H774 H 0.82987 0.37044 0.92344 0.0
H775 H 0.80784 0.35523 0.95999 0.0
C776 C 0.78433 0.37423 0.08697 0.0
C777 C 0.80694 0.36359 0.08865 0.0
C778 C 0.77156 0.37438 0.06518 0.0
C779 C 0.78079 0.36339 0.0447 0.0
C780 C 0.80374 0.35335 0.04617 0.0
C781 C 0.81675 0.35353 0.06793 0.0
C782 C 0.76633 0.36207 0.02192 0.0
C783 C 0.77813 0.37036 0.0006 0.0
C784 C 0.7409 0.35315 0.02119 0.0
C785 C 0.72778 0.34225 0.04255 0.0
C786 C 0.7372 0.32286 0.05488 0.0
C787 C 0.72485 0.31279 0.07508 0.0
C788 C 0.70295 0.32181 0.08301 0.0
C789 C 0.6933 0.34089 0.07071 0.0
C790 C 0.70559 0.35106 0.05052 0.0
C791 C 0.71965 0.33955 0.91622 0.0
C792 C 0.69885 0.35251 0.91196 0.0
C793 C 0.73303 0.34271 0.93761 0.0
C794 C 0.72576 0.3587 0.95526 0.0
C795 C 0.70491 0.37157 0.9512 0.0
C796 C 0.6917 0.3687 0.9296 0.0
C797 C 0.73976 0.36148 0.97813 0.0
C798 C 0.72787 0.35337 0.99939 0.0
C799 C 0.76519 0.37015 0.97872 0.0
C800 C 0.77855 0.37937 0.95683 0.0
C801 C 0.76951 0.398 0.94306 0.0
C802 C 0.78206 0.40643 0.92232 0.0
C803 C 0.80378 0.39648 0.91524 0.0
C804 C 0.81303 0.37812 0.92893 0.0
C805 C 0.80053 0.3696 0.94967 0.0
H806 H 0.81348 0.40303 0.89918 0.0
H807 H 0.69341 0.31398 0.09866 0.0
H808 H 0.3219 0.87946 0.57851 0.0
H809 H 0.2973 0.88334 0.54197 0.0
H810 H 0.28443 0.80533 0.5374 0.0
H811 H 0.30905 0.80128 0.57367 0.0
H812 H 0.29589 0.82543 0.49385 0.0
H813 H 0.24023 0.83899 0.55948 0.0
H814 H 0.22714 0.85939 0.59614 0.0
H815 H 0.2307 0.92745 0.55857 0.0
H816 H 0.24414 0.90749 0.52175 0.0
H817 H 0.19204 0.8056 0.4187 0.0
H818 H 0.21973 0.80798 0.45333 0.0
H819 H 0.22586 0.8862 0.44929 0.0
H820 H 0.19784 0.88401 0.41454 0.0
H821 H 0.22022 0.87003 0.4956 0.0
H822 H 0.2726 0.85631 0.42916 0.0
H823 H 0.28551 0.83628 0.39225 0.0
H824 H 0.28862 0.76934 0.43074 0.0
H825 H 0.27536 0.78888 0.46786 0.0
C826 C 0.31393 0.86313 0.56966 0.0
C827 C 0.31737 0.84005 0.57907 0.0
C828 C 0.2998 0.86539 0.54883 0.0
C829 C 0.28884 0.84462 0.53707 0.0
C830 C 0.29271 0.8216 0.54616 0.0
C831 C 0.30674 0.81932 0.56697 0.0
C832 C 0.27296 0.84671 0.51552 0.0
C833 C 0.27924 0.83501 0.49429 0.0
C834 C 0.25163 0.85983 0.51587 0.0
C835 C 0.24346 0.87181 0.53795 0.0
C836 C 0.23842 0.85835 0.55909 0.0
C837 C 0.2309 0.86982 0.57989 0.0
C838 C 0.22817 0.89471 0.57971 0.0
C839 C 0.23287 0.90817 0.5587 0.0
C840 C 0.24042 0.89679 0.53786 0.0
C841 C 0.19915 0.82335 0.42517 0.0
C842 C 0.1928 0.84462 0.41376 0.0
C843 C 0.21509 0.82467 0.44494 0.0
C844 C 0.22517 0.84726 0.45367 0.0
C845 C 0.21837 0.86858 0.44276 0.0
C846 C 0.20239 0.86729 0.4229 0.0
C847 C 0.24291 0.84837 0.47409 0.0
C848 C 0.23701 0.86066 0.49508 0.0
C849 C 0.26465 0.83587 0.4735 0.0
C850 C 0.27281 0.82404 0.45127 0.0
C851 C 0.27586 0.83727 0.42973 0.0
C852 C 0.28327 0.82601 0.40878 0.0
C853 C 0.28786 0.80155 0.40915 0.0
C854 C 0.28506 0.78829 0.43049 0.0
C855 C 0.27763 0.79946 0.45151 0.0
H856 H 0.29366 0.7929 0.39292 0.0
H857 H 0.22234 0.90356 0.59582 0.0
H858 H 0.72759 0.61695 0.60764 0.0
H859 H 0.75162 0.61504 0.57069 0.0
H860 H 0.69332 0.64565 0.53117 0.0
H861 H 0.66899 0.64754 0.56815 0.0
H862 H 0.71185 0.60758 0.50711 0.0
H863 H 0.74417 0.68106 0.5464 0.0
H864 H 0.76184 0.70586 0.58011 0.0
H865 H 0.82505 0.66408 0.58185 0.0
H866 H 0.80757 0.63879 0.54834 0.0
H867 H 0.78043 0.64351 0.40256 0.0
H868 H 0.75537 0.6419 0.43904 0.0
H869 H 0.8161 0.61579 0.47877 0.0
H870 H 0.84156 0.61779 0.44234 0.0
H871 H 0.79629 0.65082 0.50293 0.0
H872 H 0.76456 0.57773 0.4632 0.0
H873 H 0.74695 0.55274 0.4296 0.0
H874 H 0.68282 0.59328 0.42873 0.0
H875 H 0.70022 0.61875 0.46213 0.0
C876 C 0.71977 0.62319 0.5911 0.0
C877 C 0.6964 0.63253 0.59089 0.0
C878 C 0.7336 0.62216 0.57 0.0
C879 C 0.7244 0.63048 0.54824 0.0
C880 C 0.70079 0.63919 0.54779 0.0
C881 C 0.68695 0.64031 0.56895 0.0
C882 C 0.73967 0.63047 0.52607 0.0
C883 C 0.73018 0.61727 0.50606 0.0
C884 C 0.76384 0.64264 0.52493 0.0
C885 C 0.77444 0.65787 0.54502 0.0
C886 C 0.76174 0.67703 0.5541 0.0
C887 C 0.77174 0.6912 0.57314 0.0
C888 C 0.79452 0.6865 0.58316 0.0
C889 C 0.80739 0.66767 0.5741 0.0
C890 C 0.79745 0.65342 0.55507 0.0
C891 C 0.78847 0.63729 0.41901 0.0
C892 C 0.81303 0.63073 0.4195 0.0
C893 C 0.77404 0.63627 0.43986 0.0
C894 C 0.78372 0.62844 0.46162 0.0
C895 C 0.80822 0.62185 0.46218 0.0
C896 C 0.82273 0.62293 0.44132 0.0
C897 C 0.76852 0.62788 0.4839 0.0
C898 C 0.77799 0.64102 0.50395 0.0
C899 C 0.74436 0.61562 0.48507 0.0
C900 C 0.73381 0.60029 0.46503 0.0
C901 C 0.7468 0.58144 0.45573 0.0
C902 C 0.73683 0.56717 0.43674 0.0
C903 C 0.71381 0.57146 0.42699 0.0
C904 C 0.70067 0.58999 0.43627 0.0
C905 C 0.71056 0.60434 0.45525 0.0
H906 H 0.70613 0.56038 0.41229 0.0
H907 H 0.80224 0.6975 0.5979 0.0
H908 H 0.93751 0.33367 0.14411 0.0
H909 H 0.97476 0.31163 0.14375 0.0
H910 H 0.92999 0.24517 0.12712 0.0
H911 H 0.89263 0.26698 0.12774 0.0
H912 H 0.96247 0.23805 0.16216 0.0
H913 H 0.96629 0.27509 0.08426 0.0
H914 H 0.96641 0.3088 0.05526 0.0
H915 H 0.03176 0.34395 0.0885 0.0
H916 H 0.03184 0.31059 0.11792 0.0
H917 H 0.06412 0.16876 0.13619 0.0
H918 H 0.02613 0.18953 0.1328 0.0
H919 H 0.06801 0.25806 0.14763 0.0
H920 H 0.10603 0.23757 0.15056 0.0
H921 H 0.0363 0.26317 0.11215 0.0
H922 H 0.03167 0.22727 0.19089 0.0
H923 H 0.03159 0.19394 0.22033 0.0
H924 H 0.96782 0.15706 0.18592 0.0
H925 H 0.96772 0.19004 0.15608 0.0
C926 C 0.93558 0.31439 0.14025 0.0
C927 C 0.91206 0.30211 0.13593 0.0
C928 C 0.95693 0.30182 0.13996 0.0
C929 C 0.95522 0.27676 0.13519 0.0
C930 C 0.93178 0.26449 0.13083 0.0
C931 C 0.91043 0.27703 0.13112 0.0
C932 C 0.97779 0.26322 0.13538 0.0
C933 C 0.97847 0.24331 0.15095 0.0
C934 C 0.9989 0.27039 0.12115 0.0
C935 C 0.99893 0.29045 0.10343 0.0
C936 C 0.98058 0.2901 0.08551 0.0
C937 C 0.98063 0.30913 0.06897 0.0
C938 C 0.99904 0.32853 0.07007 0.0
C939 C 0.01749 0.32892 0.08768 0.0
C940 C 0.01751 0.30994 0.10428 0.0
C941 C 0.06524 0.18825 0.13869 0.0
C942 C 0.08812 0.20147 0.14373 0.0
C943 C 0.04349 0.2001 0.13684 0.0
C944 C 0.04413 0.22535 0.14024 0.0
C945 C 0.06701 0.23859 0.14493 0.0
C946 C 0.08875 0.2268 0.14668 0.0
C947 C 0.02104 0.23807 0.13903 0.0
C948 C 0.02026 0.25783 0.12328 0.0
C949 C 0.99986 0.23081 0.15315 0.0
C950 C 0.99986 0.211 0.1711 0.0
C951 C 0.01775 0.21196 0.1895 0.0
C952 C 0.01772 0.19315 0.20627 0.0
C953 C 0.99976 0.17336 0.20496 0.0
C954 C 0.98175 0.17238 0.1869 0.0
C955 C 0.98172 0.19113 0.17006 0.0
H956 H 0.99976 0.15882 0.21797 0.0
H957 H 0.99905 0.34325 0.05725 0.0
H958 H 0.89282 0.71786 0.39451 0.0
H959 H 0.93333 0.74146 0.39391 0.0
H960 H 0.95746 0.6958 0.33726 0.0
H961 H 0.91729 0.67177 0.33818 0.0
H962 H 0.99376 0.7054 0.36839 0.0
H963 H 0.93706 0.75256 0.32601 0.0
H964 H 0.89914 0.77375 0.321 0.0
H965 H 0.92096 0.82066 0.38022 0.0
H966 H 0.95888 0.79952 0.38578 0.0
H967 H 0.09187 0.78072 0.31664 0.0
H968 H 0.05241 0.75696 0.32431 0.0
H969 H 0.03839 0.8038 0.38377 0.0
H970 H 0.07795 0.82788 0.37614 0.0
H971 H 0.99739 0.79437 0.35484 0.0
H972 H 0.0562 0.74846 0.39472 0.0
H973 H 0.09432 0.72735 0.3983 0.0
H974 H 0.06863 0.67805 0.34218 0.0
H975 H 0.0305 0.6991 0.33802 0.0
C976 C 0.90681 0.71273 0.38204 0.0
C977 C 0.90175 0.69303 0.36627 0.0
C978 C 0.92993 0.72632 0.38164 0.0
C979 C 0.94832 0.72068 0.36525 0.0
C980 C 0.94357 0.70055 0.35003 0.0
C981 C 0.92055 0.68684 0.35054 0.0
C982 C 0.9723 0.73602 0.36346 0.0
C983 C 0.99453 0.72481 0.36522 0.0
C984 C 0.97337 0.76148 0.35987 0.0
C985 C 0.95066 0.77428 0.35648 0.0
C986 C 0.93368 0.76728 0.33807 0.0
C987 C 0.9122 0.77929 0.33512 0.0
C988 C 0.90761 0.79849 0.35033 0.0
C989 C 0.92453 0.80576 0.36848 0.0
C990 C 0.94602 0.79377 0.37153 0.0
C991 C 0.08045 0.78602 0.33137 0.0
C992 C 0.08812 0.80618 0.34582 0.0
C993 C 0.05792 0.77233 0.33579 0.0
C994 C 0.04261 0.77843 0.3548 0.0
C995 C 0.04999 0.79874 0.36907 0.0
C996 C 0.07262 0.81244 0.36471 0.0
C997 C 0.01877 0.76367 0.35946 0.0
C998 C 0.99659 0.77499 0.35824 0.0
C999 C 0.01773 0.7383 0.36336 0.0
C1000 C 0.04058 0.72549 0.36593 0.0
C1001 C 0.05876 0.73323 0.38302 0.0
C1002 C 0.08035 0.72126 0.38518 0.0
C1003 C 0.08391 0.7014 0.37045 0.0
C1004 C 0.06585 0.69345 0.35357 0.0
C1005 C 0.04423 0.70537 0.35132 0.0
H1006 H 0.10065 0.69216 0.37214 0.0
H1007 H 0.89097 0.80776 0.34801 0.0
H1008 H 0.56591 0.66931 0.63992 0.0
H1009 H 0.52843 0.691 0.63859 0.0
H1010 H 0.57323 0.75821 0.62511 0.0
H1011 H 0.61078 0.73674 0.62664 0.0
H1012 H 0.5393 0.76379 0.65952 0.0
H1013 H 0.53912 0.72976 0.58038 0.0
H1014 H 0.54055 0.69724 0.55024 0.0
H1015 H 0.47409 0.66038 0.57976 0.0
H1016 H 0.47244 0.69252 0.61031 0.0
H1017 H 0.43811 0.83313 0.63219 0.0
H1018 H 0.47638 0.81276 0.6291 0.0
H1019 H 0.43469 0.74356 0.64121 0.0
H1020 H 0.39641 0.76367 0.64394 0.0
H1021 H 0.46776 0.74003 0.6061 0.0
H1022 H 0.46884 0.77282 0.68613 0.0
H1023 H 0.46734 0.80493 0.71669 0.0
H1024 H 0.53209 0.84371 0.68586 0.0
H1025 H 0.53378 0.81196 0.6549 0.0
C1026 C 0.56779 0.68868 0.63652 0.0
C1027 C 0.59137 0.70127 0.63337 0.0
C1028 C 0.54633 0.70105 0.63568 0.0
C1029 C 0.548 0.72622 0.63156 0.0
C1030 C 0.57149 0.7388 0.62831 0.0
C1031 C 0.59294 0.72645 0.62911 0.0
C1032 C 0.52532 0.73957 0.63136 0.0
C1033 C 0.52382 0.75884 0.64756 0.0
C1034 C 0.50488 0.73277 0.61616 0.0
C1035 C 0.50579 0.71344 0.59778 0.0
C1036 C 0.52492 0.71462 0.58057 0.0
C1037 C 0.52575 0.69627 0.56339 0.0
C1038 C 0.50746 0.67672 0.56312 0.0
C1039 C 0.48826 0.67551 0.58001 0.0
C1040 C 0.48736 0.6938 0.59725 0.0
C1041 C 0.43708 0.81357 0.63413 0.0
C1042 C 0.4142 0.80006 0.63842 0.0
C1043 C 0.45899 0.80196 0.63244 0.0
C1044 C 0.45846 0.77664 0.63519 0.0
C1045 C 0.43558 0.7631 0.63904 0.0
C1046 C 0.4137 0.77467 0.64068 0.0
C1047 C 0.48171 0.76418 0.63433 0.0
C1048 C 0.48331 0.74506 0.61796 0.0
C1049 C 0.50222 0.77107 0.64942 0.0
C1050 C 0.50127 0.79015 0.66804 0.0
C1051 C 0.48264 0.78829 0.68575 0.0
C1052 C 0.48177 0.80641 0.70317 0.0
C1053 C 0.49956 0.82639 0.70318 0.0
C1054 C 0.5183 0.82825 0.68581 0.0
C1055 C 0.51923 0.81019 0.66833 0.0
H1056 H 0.49887 0.84039 0.71668 0.0
H1057 H 0.50814 0.66254 0.5498 0.0
H1058 H 0.82499 0.08955 0.70185 0.0
H1059 H 0.82848 0.05699 0.73088 0.0
H1060 H 0.88742 0.03028 0.68899 0.0
H1061 H 0.88362 0.06256 0.65947 0.0
H1062 H 0.85678 0.99348 0.70465 0.0
H1063 H 0.89983 0.06356 0.74055 0.0
H1064 H 0.90563 0.10597 0.75467 0.0
H1065 H 0.84492 0.09216 0.80398 0.0
H1066 H 0.83852 0.04974 0.7899 0.0
H1067 H 0.89504 0.91719 0.79836 0.0
H1068 H 0.89574 0.95027 0.76907 0.0
H1069 H 0.83148 0.97647 0.80281 0.0
H1070 H 0.8306 0.94349 0.83213 0.0
H1071 H 0.86765 0.01353 0.79109 0.0
H1072 H 0.82413 0.9434 0.7533 0.0
H1073 H 0.81947 0.90094 0.73916 0.0
H1074 H 0.88311 0.91505 0.69344 0.0
H1075 H 0.88836 0.95752 0.70756 0.0
C1076 C 0.83866 0.07672 0.69873 0.0
C1077 C 0.85413 0.07875 0.67839 0.0
C1078 C 0.84072 0.05817 0.71544 0.0
C1079 C 0.85854 0.04144 0.71238 0.0
C1080 C 0.87361 0.04304 0.69179 0.0
C1081 C 0.87144 0.06153 0.67495 0.0
C1082 C 0.86138 0.02234 0.73072 0.0
C1083 C 0.85956 0.99791 0.72349 0.0
C1084 C 0.86468 0.02805 0.75539 0.0
C1085 C 0.86856 0.05352 0.76402 0.0
C1086 C 0.8876 0.06961 0.75428 0.0
C1087 C 0.89102 0.09365 0.7623 0.0
C1088 C 0.87562 0.10177 0.78017 0.0
C1089 C 0.85682 0.08585 0.79012 0.0
C1090 C 0.8533 0.0618 0.78215 0.0
C1091 C 0.8812 0.93012 0.79969 0.0
C1092 C 0.86268 0.92763 0.81751 0.0
C1093 C 0.88156 0.94894 0.78287 0.0
C1094 C 0.86349 0.96565 0.78362 0.0
C1095 C 0.84555 0.96373 0.80189 0.0
C1096 C 0.84505 0.94483 0.81859 0.0
C1097 C 0.8628 0.98477 0.76501 0.0
C1098 C 0.86503 0.00918 0.77221 0.0
C1099 C 0.86007 0.97904 0.74032 0.0
C1100 C 0.8568 0.95356 0.73168 0.0
C1101 C 0.83725 0.9374 0.74037 0.0
C1102 C 0.83448 0.91334 0.73234 0.0
C1103 C 0.85103 0.90529 0.71547 0.0
C1104 C 0.87033 0.9213 0.70654 0.0
C1105 C 0.8732 0.94537 0.71454 0.0
H1106 H 0.84888 0.88666 0.70928 0.0
H1107 H 0.87829 0.12039 0.78635 0.0
H1108 H 0.13114 0.54358 0.85881 0.0
H1109 H 0.13129 0.50824 0.83245 0.0
H1110 H 0.13228 0.55503 0.77041 0.0
H1111 H 0.13167 0.59043 0.79662 0.0
H1112 H 0.10151 0.51524 0.76315 0.0
H1113 H 0.1853 0.53221 0.79024 0.0
H1114 H 0.21891 0.53995 0.81994 0.0
H1115 H 0.20038 0.46957 0.85103 0.0
H1116 H 0.1664 0.46153 0.82171 0.0
H1117 H 0.14379 0.4293 0.67932 0.0
H1118 H 0.1403 0.46509 0.70467 0.0
H1119 H 0.13304 0.41925 0.76739 0.0
H1120 H 0.13643 0.38348 0.74229 0.0
H1121 H 0.16718 0.45892 0.77358 0.0
H1122 H 0.08316 0.44239 0.74552 0.0
H1123 H 0.05033 0.43517 0.71495 0.0
H1124 H 0.07062 0.5055 0.68444 0.0
H1125 H 0.10384 0.51301 0.71464 0.0
C1126 C 0.13124 0.54636 0.83956 0.0
C1127 C 0.13154 0.56987 0.82985 0.0
C1128 C 0.13144 0.52613 0.8245 0.0
C1129 C 0.13219 0.529 0.79943 0.0
C1130 C 0.13177 0.55237 0.78969 0.0
C1131 C 0.13148 0.5726 0.80473 0.0
C1132 C 0.1339 0.50769 0.7834 0.0
C1133 C 0.11606 0.50311 0.76524 0.0
C1134 C 0.15268 0.49163 0.78631 0.0
C1135 C 0.17314 0.49637 0.80393 0.0
C1136 C 0.18826 0.51846 0.80353 0.0
C1137 C 0.2074 0.52289 0.82027 0.0
C1138 C 0.21173 0.50529 0.8374 0.0
C1139 C 0.19697 0.4832 0.83778 0.0
C1140 C 0.17778 0.47869 0.82109 0.0
C1141 C 0.14134 0.42683 0.69849 0.0
C1142 C 0.14035 0.40352 0.70877 0.0
C1143 C 0.13928 0.44729 0.71294 0.0
C1144 C 0.1363 0.4448 0.73791 0.0
C1145 C 0.13533 0.42157 0.74817 0.0
C1146 C 0.13718 0.40113 0.73376 0.0
C1147 C 0.13471 0.46641 0.75348 0.0
C1148 C 0.15264 0.47107 0.77151 0.0
C1149 C 0.11615 0.48261 0.75032 0.0
C1150 C 0.09616 0.47816 0.73218 0.0
C1151 C 0.08077 0.45623 0.73216 0.0
C1152 C 0.06206 0.4521 0.71493 0.0
C1153 C 0.05843 0.46984 0.69772 0.0
C1154 C 0.07348 0.49177 0.69776 0.0
C1155 C 0.09224 0.49598 0.71494 0.0
H1156 H 0.04393 0.46661 0.6844 0.0
H1157 H 0.22656 0.50876 0.85035 0.0
H1158 H 0.70167 0.88729 0.07694 0.0
H1159 H 0.72995 0.8911 0.04248 0.0
H1160 H 0.74569 0.81652 0.05163 0.0
H1161 H 0.71796 0.81272 0.08619 0.0
H1162 H 0.78735 0.84432 0.04407 0.0
H1163 H 0.70632 0.83416 0.00721 0.0
H1164 H 0.6635 0.8442 0.9994 0.0
H1165 H 0.69121 0.91497 0.97436 0.0
H1166 H 0.7342 0.90546 0.98232 0.0
H1167 H 0.83498 0.81304 0.93137 0.0
H1168 H 0.81001 0.81698 0.96743 0.0
H1169 H 0.80556 0.89294 0.9521 0.0
H1170 H 0.83057 0.88914 0.91578 0.0
H1171 H 0.76004 0.86933 0.96347 0.0
H1172 H 0.84171 0.87734 0.99701 0.0
H1173 H 0.88425 0.86615 0.00405 0.0
H1174 H 0.85506 0.7983 0.03487 0.0
H1175 H 0.81232 0.80893 0.02769 0.0
C1176 C 0.71112 0.8717 0.07156 0.0
C1177 C 0.70752 0.8497 0.08431 0.0
C1178 C 0.72723 0.87388 0.05182 0.0
C1179 C 0.73983 0.85403 0.04434 0.0
C1180 C 0.73625 0.8321 0.05709 0.0
C1181 C 0.72029 0.82995 0.07683 0.0
C1182 C 0.75689 0.8559 0.02334 0.0
C1183 C 0.78129 0.8496 0.02641 0.0
C1184 C 0.74926 0.86346 1.00042 0.0
C1185 C 0.72344 0.8692 0.99563 0.0
C1186 C 0.70326 0.85194 1.00023 0.0
C1187 C 0.67897 0.85752 0.99574 0.0
C1188 C 0.67464 0.88024 0.98646 0.0
C1189 C 0.6946 0.8974 0.98159 0.0
C1190 C 0.71893 0.89192 0.98608 0.0
C1191 C 0.82886 0.83065 0.93571 0.0
C1192 C 0.8348 0.85079 0.9207 0.0
C1193 C 0.81465 0.83289 0.9564 0.0
C1194 C 0.80608 0.8553 0.96256 0.0
C1195 C 0.81203 0.87549 0.94769 0.0
C1196 C 0.8264 0.8733 0.92701 0.0
C1197 C 0.79028 0.85728 0.98415 0.0
C1198 C 0.76615 0.86432 0.9812 0.0
C1199 C 0.7981 0.85027 0.00716 0.0
C1200 C 0.8238 0.84387 0.01164 0.0
C1201 C 0.84435 0.85995 0.00512 0.0
C1202 C 0.8685 0.85372 0.00917 0.0
C1203 C 0.87235 0.83151 0.01986 0.0
C1204 C 0.85205 0.8155 0.02658 0.0
C1205 C 0.82785 0.82163 0.02255 0.0
H1206 H 0.89107 0.82672 0.02297 0.0
H1207 H 0.65582 0.88452 0.98299 0.0
H1208 H 0.22557 0.62662 0.89899 0.0
H1209 H 0.24578 0.62477 0.93807 0.0
H1210 H 0.1763 0.63455 0.97331 0.0
H1211 H 0.15598 0.6368 0.93422 0.0
H1212 H 0.2132 0.66362 0.99244 0.0
H1213 H 0.20023 0.57918 0.97278 0.0
H1214 H 0.20225 0.54271 0.94761 0.0
H1215 H 0.28194 0.55325 0.94784 0.0
H1216 H 0.28039 0.58999 0.97274 0.0
H1217 H 0.25317 0.63722 0.10987 0.0
H1218 H 0.23109 0.63435 0.07156 0.0
H1219 H 0.30021 0.62802 0.03438 0.0
H1220 H 0.32249 0.63069 0.07269 0.0
H1221 H 0.26266 0.5963 0.01676 0.0
H1222 H 0.27534 0.68143 0.03533 0.0
H1223 H 0.27323 0.71788 0.06052 0.0
H1224 H 0.19365 0.70576 0.0623 0.0
H1225 H 0.19531 0.66902 0.03739 0.0
C1226 C 0.21451 0.62823 0.91504 0.0
C1227 C 0.18913 0.63184 0.91346 0.0
C1228 C 0.2261 0.62706 0.9374 0.0
C1229 C 0.21252 0.62928 0.95866 0.0
C1230 C 0.18715 0.63276 0.95715 0.0
C1231 C 0.17554 0.63397 0.93478 0.0
C1232 C 0.225 0.62881 0.98243 0.0
C1233 C 0.22366 0.64869 0.99791 0.0
C1234 C 0.23917 0.60962 0.98935 0.0
C1235 C 0.24018 0.58748 0.97445 0.0
C1236 C 0.21818 0.57383 0.96731 0.0
C1237 C 0.21924 0.55309 0.95312 0.0
C1238 C 0.24221 0.5457 0.94608 0.0
C1239 C 0.26417 0.55901 0.95328 0.0
C1240 C 0.26321 0.57978 0.96745 0.0
C1241 C 0.26371 0.63508 0.09358 0.0
C1242 C 0.28965 0.63433 0.09435 0.0
C1243 C 0.25104 0.63352 0.07167 0.0
C1244 C 0.26404 0.63127 0.05008 0.0
C1245 C 0.28982 0.6298 0.05083 0.0
C1246 C 0.30253 0.6314 0.07274 0.0
C1247 C 0.25081 0.63108 0.02669 0.0
C1248 C 0.25207 0.61113 0.01129 0.0
C1249 C 0.23653 0.65018 0.01983 0.0
C1250 C 0.23547 0.67233 0.03471 0.0
C1251 C 0.2574 0.68643 0.04125 0.0
C1252 C 0.25629 0.70716 0.05545 0.0
C1253 C 0.23332 0.71409 0.06306 0.0
C1254 C 0.21142 0.70035 0.05642 0.0
C1255 C 0.21244 0.67958 0.04225 0.0
H1256 H 0.2325 0.73015 0.07405 0.0
H1257 H 0.24299 0.52964 0.93509 0.0
H1258 H 0.65715 0.13328 0.42959 0.0
H1259 H 0.6812 0.13007 0.46656 0.0
H1260 H 0.74907 0.13561 0.42537 0.0
H1261 H 0.72526 0.13844 0.38844 0.0
H1262 H 0.75015 0.10135 0.45918 0.0
H1263 H 0.72999 0.1845 0.45573 0.0
H1264 H 0.70196 0.2172 0.4529 0.0
H1265 H 0.665 0.19182 0.51761 0.0
H1266 H 0.69263 0.15876 0.52064 0.0
H1267 H 0.84006 0.13774 0.54801 0.0
H1268 H 0.8125 0.13461 0.51315 0.0
H1269 H 0.74868 0.12908 0.56 0.0
H1270 H 0.77609 0.13251 0.59498 0.0
H1271 H 0.7433 0.16109 0.52478 0.0
H1272 H 0.76557 0.07947 0.52969 0.0
H1273 H 0.79394 0.04707 0.53251 0.0
H1274 H 0.82718 0.06958 0.46516 0.0
H1275 H 0.79923 0.10235 0.4621 0.0
C1276 C 0.67718 0.1337 0.4284 0.0
C1277 C 0.68927 0.13624 0.40606 0.0
C1278 C 0.69091 0.13195 0.44956 0.0
C1279 C 0.71698 0.13287 0.44877 0.0
C1280 C 0.729 0.13486 0.42643 0.0
C1281 C 0.71532 0.13657 0.40532 0.0
C1282 C 0.7319 0.13225 0.47114 0.0
C1283 C 0.74881 0.11454 0.47344 0.0
C1284 C 0.72974 0.14909 0.49002 0.0
C1285 C 0.71319 0.169 0.48826 0.0
C1286 C 0.71576 0.18578 0.46925 0.0
C1287 C 0.69997 0.2044 0.46762 0.0
C1288 C 0.68166 0.20655 0.48502 0.0
C1289 C 0.67916 0.19011 0.50412 0.0
C1290 C 0.69488 0.17144 0.50581 0.0
C1291 C 0.82017 0.13568 0.55094 0.0
C1292 C 0.8103 0.13538 0.57431 0.0
C1293 C 0.80442 0.13379 0.53096 0.0
C1294 C 0.7785 0.1314 0.53395 0.0
C1295 C 0.76861 0.1309 0.55726 0.0
C1296 C 0.78433 0.1328 0.57724 0.0
C1297 C 0.76175 0.13032 0.51273 0.0
C1298 C 0.7445 0.14775 0.51064 0.0
C1299 C 0.76363 0.11323 0.49403 0.0
C1300 C 0.78044 0.0935 0.49578 0.0
C1301 C 0.77906 0.07764 0.51557 0.0
C1302 C 0.79504 0.05918 0.5172 0.0
C1303 C 0.81239 0.05631 0.49905 0.0
C1304 C 0.81375 0.07184 0.47922 0.0
C1305 C 0.79782 0.09034 0.47752 0.0
H1306 H 0.82475 0.04201 0.50034 0.0
H1307 H 0.66945 0.22097 0.48373 0.0
H1308 H 0.15096 0.35517 0.55498 0.0
H1309 H 0.17737 0.35693 0.51931 0.0
H1310 H 0.24236 0.37102 0.56385 0.0
H1311 H 0.21605 0.36967 0.59963 0.0
H1312 H 0.24598 0.39863 0.52386 0.0
H1313 H 0.22621 0.31432 0.54226 0.0
H1314 H 0.19868 0.27735 0.55104 0.0
H1315 H 0.16333 0.28272 0.48244 0.0
H1316 H 0.19044 0.31993 0.47338 0.0
H1317 H 0.33364 0.36739 0.43516 0.0
H1318 H 0.30865 0.36946 0.47167 0.0
H1319 H 0.24171 0.35454 0.43002 0.0
H1320 H 0.26646 0.35207 0.39364 0.0
H1321 H 0.24014 0.32731 0.46939 0.0
H1322 H 0.26001 0.4119 0.45108 0.0
H1323 H 0.28781 0.44871 0.4424 0.0
H1324 H 0.3234 0.44262 0.5108 0.0
H1325 H 0.29601 0.40556 0.51975 0.0
C1326 C 0.17085 0.35883 0.55722 0.0
C1327 C 0.18138 0.36209 0.5802 0.0
C1328 C 0.18594 0.35974 0.53679 0.0
C1329 C 0.21189 0.36371 0.53893 0.0
C1330 C 0.2224 0.36785 0.56177 0.0
C1331 C 0.20731 0.36701 0.58222 0.0
C1332 C 0.22807 0.36281 0.51743 0.0
C1333 C 0.24493 0.38292 0.5121 0.0
C1334 C 0.22646 0.34246 0.50188 0.0
C1335 C 0.2102 0.32004 0.50724 0.0
C1336 C 0.21244 0.30772 0.52912 0.0
C1337 C 0.19693 0.28671 0.53414 0.0
C1338 C 0.17922 0.27773 0.51733 0.0
C1339 C 0.17703 0.28971 0.49545 0.0
C1340 C 0.19248 0.31075 0.49036 0.0
C1341 C 0.3136 0.36462 0.43378 0.0
C1342 C 0.30206 0.35956 0.41147 0.0
C1343 C 0.29933 0.36591 0.45465 0.0
C1344 C 0.27327 0.36235 0.45357 0.0
C1345 C 0.26177 0.35733 0.43131 0.0
C1346 C 0.27598 0.35598 0.4105 0.0
C1347 C 0.25787 0.36324 0.47561 0.0
C1348 C 0.2412 0.34305 0.48111 0.0
C1349 C 0.25971 0.38349 0.4913 0.0
C1350 C 0.27613 0.40581 0.48598 0.0
C1351 C 0.2739 0.4183 0.46419 0.0
C1352 C 0.28955 0.43923 0.45924 0.0
C1353 C 0.30741 0.44796 0.47601 0.0
C1354 C 0.30959 0.43581 0.49781 0.0
C1355 C 0.29399 0.41486 0.50284 0.0
H1356 H 0.31951 0.46417 0.47214 0.0
H1357 H 0.16724 0.26145 0.52125 0.0
H1358 H 0.07052 0.68055 0.84175 0.0
H1359 H 0.03856 0.70916 0.84179 0.0
H1360 H 0.05416 0.72578 0.91622 0.0
H1361 H 0.08602 0.69706 0.91643 0.0
H1362 H 0.00432 0.72162 0.90703 0.0
H1363 H 0.07798 0.76327 0.87327 0.0
H1364 H 0.11346 0.7686 0.84534 0.0
H1365 H 0.06331 0.76771 0.78549 0.0
H1366 H 0.02751 0.76195 0.81305 0.0
H1367 H 0.94463 0.83066 0.91301 0.0
H1368 H 0.97641 0.80184 0.91399 0.0
H1369 H 0.9636 0.7859 0.83896 0.0
H1370 H 0.93209 0.81488 0.83771 0.0
H1371 H 0.01239 0.78992 0.8489 0.0
H1372 H 0.93879 0.74767 0.88243 0.0
H1373 H 0.90322 0.74169 0.9102 0.0
H1374 H 0.95313 0.74346 0.97029 0.0
H1375 H 0.98901 0.7498 0.94288 0.0
C1376 C 0.067 0.69009 0.85821 0.0
C1377 C 0.08096 0.68663 0.87905 0.0
C1378 C 0.04879 0.70653 0.85817 0.0
C1379 C 0.04424 0.71987 0.87891 0.0
C1380 C 0.05743 0.71575 0.89999 0.0
C1381 C 0.07568 0.69935 0.90005 0.0
C1382 C 0.02628 0.73868 0.87843 0.0
C1383 C 0.00624 0.73673 0.89454 0.0
C1384 C 0.02857 0.75815 0.86182 0.0
C1385 C 0.05006 0.76194 0.84522 0.0
C1386 C 0.07452 0.76403 0.85414 0.0
C1387 C 0.09469 0.76715 0.83838 0.0
C1388 C 0.09064 0.76843 0.81365 0.0
C1389 C 0.06641 0.76668 0.80465 0.0
C1390 C 0.04617 0.7635 0.82033 0.0
C1391 C 0.94869 0.82116 0.89666 0.0
C1392 C 0.93572 0.82502 0.87531 0.0
C1393 C 0.96679 0.8046 0.89729 0.0
C1394 C 0.97215 0.79144 0.87663 0.0
C1395 C 0.95975 0.79579 0.85513 0.0
C1396 C 0.94169 0.81236 0.85448 0.0
C1397 C 0.99033 0.77283 0.87746 0.0
C1398 C 0.01046 0.77483 0.86142 0.0
C1399 C 0.98811 0.75339 0.89412 0.0
C1400 C 0.96657 0.74945 0.91062 0.0
C1401 C 0.94217 0.74697 0.90158 0.0
C1402 C 0.92196 0.74349 0.91725 0.0
C1403 C 0.92591 0.74227 0.942 0.0
C1404 C 0.9501 0.74445 0.95112 0.0
C1405 C 0.97038 0.74797 0.93553 0.0
H1406 H 0.91023 0.73957 0.9541 0.0
H1407 H 0.10628 0.77084 0.80148 0.0
H1408 H 0.08387 0.31758 0.62375 0.0
H1409 H 0.04593 0.29067 0.61681 0.0
H1410 H 0.05972 0.25139 0.68166 0.0
H1411 H 0.09758 0.27784 0.68856 0.0
H1412 H 0.04653 0.22078 0.64543 0.0
H1413 H 0.01691 0.29344 0.67979 0.0
H1414 H 0.0119 0.33732 0.68141 0.0
H1415 H 0.97677 0.33341 0.61219 0.0
H1416 H 0.98187 0.28953 0.61004 0.0
H1417 H 0.9324 0.16052 0.68027 0.0
H1418 H 0.97109 0.18636 0.67601 0.0
H1419 H 0.94295 0.21815 0.61195 0.0
H1420 H 0.90376 0.19257 0.61638 0.0
H1421 H 0.9637 0.25255 0.64086 0.0
H1422 H 0.98867 0.17878 0.6087 0.0
H1423 H 0.99335 0.13485 0.60724 0.0
H1424 H 0.03721 0.14054 0.67162 0.0
H1425 H 0.0325 0.18446 0.67366 0.0
C1426 C 0.07879 0.30321 0.63652 0.0
C1427 C 0.09373 0.29991 0.65674 0.0
C1428 C 0.05709 0.28789 0.63256 0.0
C1429 C 0.04992 0.26909 0.6488 0.0
C1430 C 0.06492 0.26571 0.66885 0.0
C1431 C 0.08653 0.28095 0.67282 0.0
C1432 C 0.02675 0.25289 0.64525 0.0
C1433 C 0.0284 0.2277 0.64456 0.0
C1434 C 0.00317 0.26196 0.6433 0.0
C1435 C 1.00004 0.28829 0.64463 0.0
C1436 C 0.00831 0.30199 0.66483 0.0
C1437 C 0.00541 0.32684 0.66586 0.0
C1438 C 0.9941 0.33816 0.64688 0.0
C1439 C 0.98558 0.32463 0.62686 0.0
C1440 C 0.98846 0.29977 0.62573 0.0
C1441 C 0.93445 0.17282 0.66512 0.0
C1442 C 0.91496 0.17445 0.64865 0.0
C1443 C 0.95669 0.18753 0.66264 0.0
C1444 C 0.96009 0.20401 0.64349 0.0
C1445 C 0.94077 0.20552 0.62684 0.0
C1446 C 0.91842 0.19083 0.62935 0.0
C1447 C 0.98341 0.22036 0.64169 0.0
C1448 C 0.98183 0.24558 0.64133 0.0
C1449 C 0.00708 0.21132 0.64263 0.0
C1450 C 0.0101 0.18491 0.6414 0.0
C1451 C 0.99918 0.17064 0.62264 0.0
C1452 C 0.00186 0.14574 0.62169 0.0
C1453 C 0.01553 0.1349 0.63935 0.0
C1454 C 0.02661 0.14896 0.65796 0.0
C1455 C 0.02398 0.17387 0.65899 0.0
H1456 H 0.01758 0.11562 0.63859 0.0
H1457 H 0.99187 0.35741 0.64771 0.0
H1458 H 0.60087 0.23125 0.3706 0.0
H1459 H 0.56406 0.25354 0.37284 0.0
H1460 H 0.51727 0.1861 0.36974 0.0
H1461 H 0.55422 0.16365 0.36662 0.0
H1462 H 0.4988 0.21773 0.34195 0.0
H1463 H 0.52722 0.21963 0.42311 0.0
H1464 H 0.55732 0.22645 0.45623 0.0
H1465 H 0.56815 0.30221 0.43833 0.0
H1466 H 0.53836 0.29579 0.40488 0.0
H1467 H 0.38927 0.27081 0.37626 0.0
H1468 H 0.42515 0.24698 0.37733 0.0
H1469 H 0.47423 0.31248 0.36971 0.0
H1470 H 0.43835 0.33658 0.36869 0.0
H1471 H 0.49034 0.28077 0.40413 0.0
H1472 H 0.46169 0.27735 0.32197 0.0
H1473 H 0.42997 0.2697 0.29038 0.0
H1474 H 0.41788 0.1951 0.31227 0.0
H1475 H 0.44932 0.20239 0.34423 0.0
C1476 C 0.58277 0.2211 0.37055 0.0
C1477 C 0.5805 0.19563 0.36857 0.0
C1478 C 0.56169 0.2339 0.37194 0.0
C1479 C 0.53781 0.22153 0.37189 0.0
C1480 C 0.53547 0.19608 0.36988 0.0
C1481 C 0.5566 0.18325 0.36818 0.0
C1482 C 0.51538 0.23528 0.37338 0.0
C1483 C 0.49681 0.23122 0.3558 0.0
C1484 C 0.51284 0.25322 0.39119 0.0
C1485 C 0.53071 0.25718 0.41135 0.0
C1486 C 0.53615 0.23771 0.42613 0.0
C1487 C 0.55314 0.24151 0.44498 0.0
C1488 C 0.56468 0.26474 0.44935 0.0
C1489 C 0.55921 0.28423 0.43491 0.0
C1490 C 0.54226 0.28052 0.41602 0.0
C1491 C 0.40768 0.28022 0.37495 0.0
C1492 C 0.41092 0.30563 0.37229 0.0
C1493 C 0.42817 0.26653 0.37548 0.0
C1494 C 0.45233 0.27793 0.37333 0.0
C1495 C 0.45572 0.30333 0.37135 0.0
C1496 C 0.4352 0.31706 0.37071 0.0
C1497 C 0.47403 0.26327 0.37267 0.0
C1498 C 0.49239 0.26718 0.39038 0.0
C1499 C 0.47623 0.24502 0.35516 0.0
C1500 C 0.4577 0.24048 0.33563 0.0
C1501 C 0.45217 0.25935 0.32014 0.0
C1502 C 0.43425 0.25507 0.30216 0.0
C1503 C 0.42188 0.23194 0.29935 0.0
C1504 C 0.42747 0.21301 0.31447 0.0
C1505 C 0.44536 0.2172 0.33251 0.0
H1506 H 0.40801 0.22868 0.28543 0.0
H1507 H 0.57783 0.26764 0.46395 0.0
H1508 H 0.63527 0.54959 0.64473 0.0
H1509 H 0.63446 0.51502 0.67219 0.0
H1510 H 0.63385 0.56363 0.73274 0.0
H1511 H 0.635 0.59832 0.70545 0.0
H1512 H 0.66714 0.53108 0.73911 0.0
H1513 H 0.58141 0.52838 0.71612 0.0
H1514 H 0.54624 0.52736 0.68782 0.0
H1515 H 0.56688 0.46032 0.65824 0.0
H1516 H 0.60238 0.4611 0.68616 0.0
H1517 H 0.64373 0.4368 0.8258 0.0
H1518 H 0.64058 0.47294 0.80094 0.0
H1519 H 0.63706 0.42828 0.73726 0.0
H1520 H 0.63947 0.39217 0.76195 0.0
H1521 H 0.60434 0.46008 0.73402 0.0
H1522 H 0.69106 0.46359 0.75507 0.0
H1523 H 0.72684 0.46451 0.78265 0.0
H1524 H 0.70501 0.52978 0.8151 0.0
H1525 H 0.66891 0.52907 0.7879 0.0
C1526 C 0.63478 0.55294 0.66388 0.0
C1527 C 0.63515 0.57674 0.67287 0.0
C1528 C 0.63424 0.53313 0.67957 0.0
C1529 C 0.63388 0.53671 0.70454 0.0
C1530 C 0.63411 0.56043 0.71355 0.0
C1531 C 0.63467 0.58024 0.69789 0.0
C1532 C 0.63399 0.51577 0.72127 0.0
C1533 C 0.65318 0.51571 0.73826 0.0
C1534 C 0.6161 0.49549 0.71983 0.0
C1535 C 0.59468 0.49492 0.7031 0.0
C1536 C 0.57856 0.51351 0.70346 0.0
C1537 C 0.55854 0.51296 0.68751 0.0
C1538 C 0.55436 0.49382 0.6712 0.0
C1539 C 0.57015 0.47515 0.67086 0.0
C1540 C 0.59021 0.47562 0.68677 0.0
C1541 C 0.64227 0.4347 0.80651 0.0
C1542 C 0.6419 0.4116 0.79587 0.0
C1543 C 0.64057 0.45539 0.79229 0.0
C1544 C 0.63887 0.4534 0.76716 0.0
C1545 C 0.63831 0.43031 0.75659 0.0
C1546 C 0.63976 0.40966 0.77076 0.0
C1547 C 0.63765 0.47524 0.75173 0.0
C1548 C 0.61823 0.47549 0.73498 0.0
C1549 C 0.65542 0.49564 0.75331 0.0
C1550 C 0.67714 0.49612 0.76963 0.0
C1551 C 0.69379 0.47803 0.76821 0.0
C1552 C 0.71414 0.47854 0.78375 0.0
C1553 C 0.71816 0.49715 0.80066 0.0
C1554 C 0.70186 0.51535 0.80202 0.0
C1555 C 0.68146 0.51491 0.78654 0.0
H1556 H 0.73392 0.49751 0.81268 0.0
H1557 H 0.53886 0.49342 0.65887 0.0
H1558 H 0.3389 0.10501 0.76262 0.0
H1559 H 0.34227 0.06933 0.73745 0.0
H1560 H 0.36076 0.02809 0.79961 0.0
H1561 H 0.35731 0.06385 0.82512 0.0
H1562 H 0.39158 0.02181 0.75931 0.0
H1563 H 0.30481 0.01825 0.77827 0.0
H1564 H 0.26382 0.03421 0.78192 0.0
H1565 H 0.26276 0.0473 0.70595 0.0
H1566 H 0.30393 0.03174 0.70189 0.0
H1567 H 0.37429 0.90618 0.70146 0.0
H1568 H 0.3738 0.94085 0.72861 0.0
H1569 H 0.34484 0.98319 0.67176 0.0
H1570 H 0.34473 0.94841 0.64466 0.0
H1571 H 0.31928 0.98802 0.7112 0.0
H1572 H 0.40605 0.9929 0.69182 0.0
H1573 H 0.44744 0.97789 0.6876 0.0
H1574 H 0.44914 0.96327 0.76328 0.0
H1575 H 0.40759 0.9779 0.7679 0.0
C1576 C 0.34371 0.08839 0.77101 0.0
C1577 C 0.34775 0.08726 0.79592 0.0
C1578 C 0.34556 0.06798 0.75657 0.0
C1579 C 0.35158 0.04603 0.76669 0.0
C1580 C 0.35606 0.04488 0.79147 0.0
C1581 C 0.35398 0.06528 0.80602 0.0
C1582 C 0.35296 0.02432 0.75124 0.0
C1583 C 0.37571 0.01413 0.74905 0.0
C1584 C 0.33237 0.01474 0.73745 0.0
C1585 C 0.30757 0.02404 0.73982 0.0
C1586 C 0.29593 0.02472 0.76237 0.0
C1587 C 0.27265 0.03366 0.76451 0.0
C1588 C 0.26072 0.04182 0.74419 0.0
C1589 C 0.27203 0.041 0.72167 0.0
C1590 C 0.29533 0.0321 0.71944 0.0
C1591 C 0.36807 0.92295 0.69464 0.0
C1592 C 0.35954 0.92451 0.67086 0.0
C1593 C 0.36787 0.94281 0.71019 0.0
C1594 C 0.35946 0.96474 0.70221 0.0
C1595 C 0.35137 0.96646 0.67836 0.0
C1596 C 0.3514 0.94657 0.66285 0.0
C1597 C 0.35805 0.98556 0.71895 0.0
C1598 C 0.33522 0.99559 0.72145 0.0
C1599 C 0.37861 0.99505 0.73289 0.0
C1600 C 0.4036 0.98625 0.73016 0.0
C1601 C 0.41516 0.98629 0.70753 0.0
C1602 C 0.43866 0.97789 0.70507 0.0
C1603 C 0.45088 0.96957 0.72515 0.0
C1604 C 0.43964 0.96969 0.74774 0.0
C1605 C 0.41612 0.97805 0.75029 0.0
H1606 H 0.46908 0.96308 0.7232 0.0
H1607 H 0.24269 0.04873 0.74588 0.0
H1608 H 0.42202 0.16439 0.86923 0.0
H1609 H 0.46135 0.18948 0.87423 0.0
H1610 H 0.43467 0.24408 0.82788 0.0
H1611 H 0.39587 0.21863 0.82201 0.0
H1612 H 0.47955 0.23872 0.81648 0.0
H1613 H 0.4386 0.24963 0.89158 0.0
H1614 H 0.41702 0.23679 0.9291 0.0
H1615 H 0.48081 0.20201 0.95224 0.0
H1616 H 0.50266 0.21437 0.91469 0.0
H1617 H 0.57179 0.33373 0.8448 0.0
H1618 H 0.53167 0.3095 0.84309 0.0
H1619 H 0.56324 0.25075 0.87961 0.0
H1620 H 0.60342 0.27487 0.88152 0.0
H1621 H 0.51625 0.25851 0.89653 0.0
H1622 H 0.5566 0.24841 0.82027 0.0
H1623 H 0.57758 0.26281 0.78292 0.0
H1624 H 0.51336 0.29834 0.76241 0.0
H1625 H 0.49213 0.28443 0.79981 0.0
C1626 C 0.42457 0.18176 0.86014 0.0
C1627 C 0.40588 0.18952 0.84521 0.0
C1628 C 0.447 0.19618 0.86313 0.0
C1629 C 0.45091 0.21891 0.85173 0.0
C1630 C 0.43218 0.22664 0.83686 0.0
C1631 C 0.40997 0.21207 0.83353 0.0
C1632 C 0.4747 0.23441 0.85472 0.0
C1633 C 0.48732 0.24331 0.83403 0.0
C1634 C 0.48523 0.24009 0.87758 0.0
C1635 C 0.47217 0.23273 0.90022 0.0
C1636 C 0.44796 0.23909 0.90459 0.0
C1637 C 0.43569 0.23193 0.92588 0.0
C1638 C 0.44751 0.21854 0.94302 0.0
C1639 C 0.47166 0.21235 0.93893 0.0
C1640 C 0.48401 0.21945 0.91767 0.0
C1641 C 0.57018 0.31574 0.85265 0.0
C1642 C 0.59087 0.30618 0.86316 0.0
C1643 C 0.54725 0.30188 0.85158 0.0
C1644 C 0.54457 0.27822 0.86097 0.0
C1645 C 0.56493 0.26895 0.87222 0.0
C1646 C 0.5879 0.28275 0.87321 0.0
C1647 C 0.52079 0.26283 0.85833 0.0
C1648 C 0.5083 0.25393 0.87904 0.0
C1649 C 0.51019 0.25737 0.83553 0.0
C1650 C 0.52287 0.26557 0.81294 0.0
C1651 C 0.54703 0.25944 0.80788 0.0
C1652 C 0.55895 0.26749 0.78668 0.0
C1653 C 0.54683 0.28153 0.77033 0.0
C1654 C 0.52274 0.28749 0.7751 0.0
C1655 C 0.51074 0.27951 0.79629 0.0
H1656 H 0.5561 0.28775 0.75393 0.0
H1657 H 0.43798 0.213 0.95948 0.0
H1658 H 0.37084 0.57734 0.18104 0.0
H1659 H 0.37801 0.54365 0.20802 0.0
H1660 H 0.31398 0.55858 0.24986 0.0
H1661 H 0.30671 0.5922 0.22313 0.0
H1662 H 0.3542 0.55196 0.27815 0.0
H1663 H 0.31071 0.51151 0.21159 0.0
H1664 H 0.304 0.50048 0.16903 0.0
H1665 H 0.37423 0.46987 0.16716 0.0
H1666 H 0.3815 0.48102 0.20966 0.0
H1667 H 0.32288 0.44494 0.34417 0.0
H1668 H 0.32494 0.4799 0.31735 0.0
H1669 H 0.38837 0.45428 0.28156 0.0
H1670 H 0.3863 0.41894 0.30832 0.0
H1671 H 0.35401 0.46689 0.24968 0.0
H1672 H 0.39583 0.5038 0.31731 0.0
H1673 H 0.40255 0.5146 0.35991 0.0
H1674 H 0.33625 0.55194 0.35993 0.0
H1675 H 0.32892 0.54107 0.3174 0.0
C1676 C 0.35823 0.57339 0.19594 0.0
C1677 C 0.33816 0.58744 0.1999 0.0
C1678 C 0.36234 0.55411 0.21131 0.0
C1679 C 0.34648 0.54857 0.23091 0.0
C1680 C 0.32649 0.56259 0.23489 0.0
C1681 C 0.3223 0.58174 0.2195 0.0
C1682 C 0.35062 0.52825 0.24743 0.0
C1683 C 0.35396 0.53332 0.27197 0.0
C1684 C 0.35113 0.50406 0.23924 0.0
C1685 C 0.34678 0.49736 0.21371 0.0
C1686 C 0.32482 0.50263 0.20204 0.0
C1687 C 0.3209 0.49631 0.17794 0.0
C1688 C 0.33872 0.48456 0.16538 0.0
C1689 C 0.36047 0.47903 0.17691 0.0
C1690 C 0.3645 0.48532 0.201 0.0
C1691 C 0.33745 0.4468 0.33078 0.0
C1692 C 0.35442 0.42911 0.3284 0.0
C1693 C 0.33866 0.4669 0.3155 0.0
C1694 C 0.35693 0.46983 0.29755 0.0
C1695 C 0.37415 0.4524 0.29531 0.0
C1696 C 0.37301 0.43228 0.31069 0.0
C1697 C 0.35711 0.49053 0.28051 0.0
C1698 C 0.35458 0.48555 0.25587 0.0
C1699 C 0.35741 0.51483 0.2886 0.0
C1700 C 0.36173 0.52145 0.31419 0.0
C1701 C 0.38257 0.51415 0.32644 0.0
C1702 C 0.38651 0.52031 0.35057 0.0
C1703 C 0.36981 0.5339 0.36263 0.0
C1704 C 0.34916 0.5414 0.35057 0.0
C1705 C 0.34513 0.53527 0.32644 0.0
H1706 H 0.3729 0.53866 0.38131 0.0
H1707 H 0.33564 0.47968 0.14672 0.0
H1708 H 0.60384 0.07386 0.31741 0.0
H1709 H 0.59862 0.03793 0.29141 0.0
H1710 H 0.67184 0.05591 0.26207 0.0
H1711 H 0.67711 0.09175 0.28766 0.0
H1712 H 0.63856 0.04385 0.2271 0.0
H1713 H 0.66117 0.01109 0.30364 0.0
H1714 H 0.65665 0.00332 0.34709 0.0
H1715 H 0.58391 0.96722 0.33547 0.0
H1716 H 0.58788 0.97507 0.29195 0.0
H1717 H 0.66804 0.93432 0.17327 0.0
H1718 H 0.66625 0.97072 0.19782 0.0
H1719 H 0.59375 0.94362 0.22368 0.0
H1720 H 0.59558 0.90691 0.19949 0.0
H1721 H 0.62226 0.96051 0.2599 0.0
H1722 H 0.60076 0.99048 0.183 0.0
H1723 H 0.60523 0.99804 0.13952 0.0
H1724 H 0.67524 0.03943 0.15155 0.0
H1725 H 0.67135 0.03184 0.19509 0.0
C1726 C 0.61882 0.07012 0.30544 0.0
C1727 C 0.6409 0.08566 0.30466 0.0
C1728 C 0.61584 0.04956 0.29064 0.0
C1729 C 0.6349 0.04417 0.27488 0.0
C1730 C 0.65686 0.05974 0.27403 0.0
C1731 C 0.65987 0.08019 0.28878 0.0
C1732 C 0.63221 0.02239 0.25915 0.0
C1733 C 0.6352 0.02561 0.23428 0.0
C1734 C 0.6271 0.99865 0.26845 0.0
C1735 C 0.62471 0.99391 0.29459 0.0
C1736 C 0.64413 0.00168 0.31038 0.0
C1737 C 0.64168 0.99723 0.33501 0.0
C1738 C 0.61998 0.98486 0.34405 0.0
C1739 C 0.60069 0.97685 0.32846 0.0
C1740 C 0.60304 0.98128 0.30381 0.0
C1741 C 0.65162 0.93616 0.18402 0.0
C1742 C 0.63194 0.91769 0.18438 0.0
C1743 C 0.65058 0.95705 0.198 0.0
C1744 C 0.62975 0.96005 0.21243 0.0
C1745 C 0.61 0.94173 0.21268 0.0
C1746 C 0.61105 0.92078 0.19877 0.0
C1747 C 0.62902 0.98193 0.22784 0.0
C1748 C 0.62537 0.97875 0.25266 0.0
C1749 C 0.63347 0.00573 0.21849 0.0
C1750 C 0.63585 0.01042 0.1923 0.0
C1751 C 0.61719 0.00104 0.17636 0.0
C1752 C 0.61961 0.00536 0.15171 0.0
C1753 C 0.64053 0.01916 0.14277 0.0
C1754 C 0.65905 0.02872 0.15849 0.0
C1755 C 0.65674 0.02444 0.18317 0.0
H1756 H 0.64237 0.02248 0.12368 0.0
H1757 H 0.61812 0.98142 0.36313 0.0
H1758 H 0.57654 0.83817 0.12565 0.0
H1759 H 0.5353 0.81615 0.123 0.0
H1760 H 0.56806 0.7481 0.12948 0.0
H1761 H 0.60933 0.76992 0.13158 0.0
H1762 H 0.53208 0.74432 0.0969 0.0
H1763 H 0.541 0.77425 0.17774 0.0
H1764 H 0.54935 0.80541 0.20911 0.0
H1765 H 0.48822 0.84295 0.18383 0.0
H1766 H 0.47973 0.81217 0.15208 0.0
H1767 H 0.4265 0.66844 0.13683 0.0
H1768 H 0.46689 0.69193 0.1331 0.0
H1769 H 0.43034 0.75726 0.12215 0.0
H1770 H 0.38988 0.73396 0.12594 0.0
H1771 H 0.46743 0.7635 0.15542 0.0
H1772 H 0.45742 0.73148 0.07564 0.0
H1773 H 0.44933 0.69951 0.04505 0.0
H1774 H 0.5127 0.66479 0.06938 0.0
H1775 H 0.52097 0.69639 0.10036 0.0
C1776 C 0.57498 0.81851 0.12634 0.0
C1777 C 0.59622 0.80581 0.12897 0.0
C1778 C 0.55138 0.80595 0.12492 0.0
C1779 C 0.54854 0.78047 0.12641 0.0
C1780 C 0.56977 0.76775 0.12833 0.0
C1781 C 0.59337 0.78028 0.1296 0.0
C1782 C 0.52345 0.76705 0.12662 0.0
C1783 C 0.51802 0.74835 0.10985 0.0
C1784 C 0.50493 0.7726 0.14322 0.0
C1785 C 0.5099 0.79105 0.16238 0.0
C1786 C 0.52946 0.78925 0.17876 0.0
C1787 C 0.5342 0.80683 0.19662 0.0
C1788 C 0.51937 0.82619 0.19842 0.0
C1789 C 0.49972 0.82797 0.18239 0.0
C1790 C 0.49493 0.81045 0.16447 0.0
C1791 C 0.42704 0.68778 0.13347 0.0
C1792 C 0.40496 0.69932 0.13168 0.0
C1793 C 0.45014 0.70116 0.13126 0.0
C1794 C 0.45161 0.72632 0.12718 0.0
C1795 C 0.42962 0.73786 0.12527 0.0
C1796 C 0.40651 0.72448 0.12736 0.0
C1797 C 0.4761 0.74072 0.12577 0.0
C1798 C 0.48143 0.75957 0.14237 0.0
C1799 C 0.49456 0.73519 0.10913 0.0
C1800 C 0.48968 0.71619 0.09047 0.0
C1801 C 0.46951 0.71692 0.0746 0.0
C1802 C 0.46491 0.69889 0.05716 0.0
C1803 C 0.48045 0.6801 0.05531 0.0
C1804 C 0.50066 0.67934 0.07085 0.0
C1805 C 0.50533 0.69732 0.08834 0.0
H1806 H 0.47687 0.66615 0.04179 0.0
H1807 H 0.52307 0.83978 0.21226 0.0
loop_
_geom_bond_atom_site_label_1
_geom_bond_atom_site_label_2
_geom_bond_distance
_geom_bond_site_symmetry_2
_ccdc_geom_bond_type
C0 O1 1.160 . S
C0 O7 1.185 . S
O1 C0 1.160 . S
O2 Zn3 1.899 . S
O2 C10 1.284 . S
Zn3 O2 1.899 . S
Zn3 O4 2.032 . S
Zn3 O7 2.086 . S
Zn3 O12 1.977 . S
O4 Zn3 2.032 . S
O4 C8 1.278 . S
C5 O6 1.203 . S
C5 O12 1.267 . S
O6 C5 1.203 . S
O7 C0 1.185 . S
O7 Zn3 2.086 . S
C8 O4 1.278 . S
C8 O9 1.211 . S
O9 C8 1.211 . S
C10 O2 1.284 . S
C10 O11 1.273 . S
O11 C10 1.273 . S
O12 Zn3 1.977 . S
O12 C5 1.267 . S
C13 O14 1.160 . S
C13 O20 1.185 . S
O14 C13 1.160 . S
O15 Zn16 1.899 . S
O15 C23 1.284 . S
Zn16 O15 1.899 . S
Zn16 O17 2.032 . S
Zn16 O20 2.086 . S
Zn16 O25 1.977 . S
O17 Zn16 2.032 . S
O17 C21 1.278 . S
C18 O19 1.203 . S
C18 O25 1.267 . S
O19 C18 1.203 . S
O20 C13 1.185 . S
O20 Zn16 2.086 . S
C21 O17 1.278 . S
C21 O22 1.211 . S
O22 C21 1.211 . S
C23 O15 1.284 . S
C23 O24 1.273 . S
O24 C23 1.273 . S
O25 Zn16 1.977 . S
O25 C18 1.267 . S
C26 O27 1.160 . S
C26 O33 1.185 . S
O27 C26 1.160 . S
O28 Zn29 1.899 . S
O28 C36 1.284 . S
Zn29 O28 1.899 . S
Zn29 O30 2.032 . S
Zn29 O33 2.086 . S
Zn29 O38 1.977 . S
O30 Zn29 2.032 . S
O30 C34 1.278 . S
C31 O32 1.203 . S
C31 O38 1.267 . S
O32 C31 1.203 . S
O33 C26 1.185 . S
O33 Zn29 2.086 . S
C34 O30 1.278 . S
C34 O35 1.211 . S
O35 C34 1.211 . S
C36 O28 1.284 . S
C36 O37 1.273 . S
O37 C36 1.273 . S
O38 Zn29 1.977 . S
O38 C31 1.267 . S
C39 O40 1.160 . S
C39 O46 1.185 . S
O40 C39 1.160 . S
O41 Zn42 1.899 . S
O41 C49 1.284 . S
Zn42 O41 1.899 . S
Zn42 O43 2.032 . S
Zn42 O46 2.086 . S
Zn42 O51 1.977 . S
O43 Zn42 2.032 . S
O43 C47 1.278 . S
C44 O45 1.203 . S
C44 O51 1.267 . S
O45 C44 1.203 . S
O46 C39 1.185 . S
O46 Zn42 2.086 . S
C47 O43 1.278 . S
C47 O48 1.211 . S
O48 C47 1.211 . S
C49 O41 1.284 . S
C49 O50 1.273 . S
O50 C49 1.273 . S
O51 Zn42 1.977 . S
O51 C44 1.267 . S
C52 O53 1.160 . S
C52 O59 1.185 . S
O53 C52 1.160 . S
O54 Zn55 1.899 . S
O54 C62 1.284 . S
Zn55 O54 1.899 . S
Zn55 O56 2.032 . S
Zn55 O59 2.086 . S
Zn55 O64 1.977 . S
O56 Zn55 2.032 . S
O56 C60 1.278 . S
C57 O58 1.203 . S
C57 O64 1.267 . S
O58 C57 1.203 . S
O59 C52 1.185 . S
O59 Zn55 2.086 . S
C60 O56 1.278 . S
C60 O61 1.211 . S
O61 C60 1.211 . S
C62 O54 1.284 . S
C62 O63 1.273 . S
O63 C62 1.273 . S
O64 Zn55 1.977 . S
O64 C57 1.267 . S
C65 O66 1.160 . S
C65 O72 1.185 . S
O66 C65 1.160 . S
O67 Zn68 1.899 . S
O67 C75 1.284 . S
Zn68 O67 1.899 . S
Zn68 O69 2.032 . S
Zn68 O72 2.086 . S
Zn68 O77 1.977 . S
O69 Zn68 2.032 . S
O69 C73 1.278 . S
C70 O71 1.203 . S
C70 O77 1.267 . S
O71 C70 1.203 . S
O72 C65 1.185 . S
O72 Zn68 2.086 . S
C73 O69 1.278 . S
C73 O74 1.211 . S
O74 C73 1.211 . S
C75 O67 1.284 . S
C75 O76 1.273 . S
O76 C75 1.273 . S
O77 Zn68 1.977 . S
O77 C70 1.267 . S
C78 O79 1.160 . S
C78 O85 1.185 . S
O79 C78 1.160 . S
O80 Zn81 1.899 . S
O80 C88 1.284 . S
Zn81 O80 1.899 . S
Zn81 O82 2.032 . S
Zn81 O85 2.086 . S
Zn81 O90 1.977 . S
O82 Zn81 2.032 . S
O82 C86 1.278 . S
C83 O84 1.203 . S
C83 O90 1.267 . S
O84 C83 1.203 . S
O85 C78 1.185 . S
O85 Zn81 2.086 . S
C86 O82 1.278 . S
C86 O87 1.211 . S
O87 C86 1.211 . S
C88 O80 1.284 . S
C88 O89 1.273 . S
O89 C88 1.273 . S
O90 Zn81 1.977 . S
O90 C83 1.267 . S
C91 O92 1.160 . S
C91 O98 1.185 . S
O92 C91 1.160 . S
O93 Zn94 1.899 . S
O93 C101 1.284 . S
Zn94 O93 1.899 . S
Zn94 O95 2.032 . S
Zn94 O98 2.086 . S
Zn94 O103 1.977 . S
O95 Zn94 2.032 . S
O95 C99 1.278 . S
C96 O97 1.203 . S
C96 O103 1.267 . S
O97 C96 1.203 . S
O98 C91 1.185 . S
O98 Zn94 2.086 . S
C99 O95 1.278 . S
C99 O100 1.211 . S
O100 C99 1.211 . S
C101 O93 1.284 . S
C101 O102 1.273 . S
O102 C101 1.273 . S
O103 Zn94 1.977 . S
O103 C96 1.267 . S
C104 O105 1.160 . S
C104 O111 1.185 . S
O105 C104 1.160 . S
O106 Zn107 1.899 . S
O106 C114 1.284 . S
Zn107 O106 1.899 . S
Zn107 O108 2.032 . S
Zn107 O111 2.086 . S
Zn107 O116 1.977 . S
O108 Zn107 2.032 . S
O108 C112 1.278 . S
C109 O110 1.203 . S
C109 O116 1.267 . S
O110 C109 1.203 . S
O111 C104 1.185 . S
O111 Zn107 2.086 . S
C112 O108 1.278 . S
C112 O113 1.211 . S
O113 C112 1.211 . S
C114 O106 1.284 . S
C114 O115 1.273 . S
O115 C114 1.273 . S
O116 Zn107 1.977 . S
O116 C109 1.267 . S
C117 O118 1.160 . S
C117 O124 1.185 . S
O118 C117 1.160 . S
O119 Zn120 1.899 . S
O119 C127 1.284 . S
Zn120 O119 1.899 . S
Zn120 O121 2.032 . S
Zn120 O124 2.086 . S
Zn120 O129 1.977 . S
O121 Zn120 2.032 . S
O121 C125 1.278 . S
C122 O123 1.203 . S
C122 O129 1.267 . S
O123 C122 1.203 . S
O124 C117 1.185 . S
O124 Zn120 2.086 . S
C125 O121 1.278 . S
C125 O126 1.211 . S
O126 C125 1.211 . S
C127 O119 1.284 . S
C127 O128 1.273 . S
O128 C127 1.273 . S
O129 Zn120 1.977 . S
O129 C122 1.267 . S
C130 O131 1.160 . S
C130 O137 1.185 . S
O131 C130 1.160 . S
O132 Zn133 1.899 . S
O132 C140 1.284 . S
Zn133 O132 1.899 . S
Zn133 O134 2.032 . S
Zn133 O137 2.086 . S
Zn133 O142 1.977 . S
O134 Zn133 2.032 . S
O134 C138 1.278 . S
C135 O136 1.203 . S
C135 O142 1.267 . S
O136 C135 1.203 . S
O137 C130 1.185 . S
O137 Zn133 2.086 . S
C138 O134 1.278 . S
C138 O139 1.211 . S
O139 C138 1.211 . S
C140 O132 1.284 . S
C140 O141 1.273 . S
O141 C140 1.273 . S
O142 Zn133 1.977 . S
O142 C135 1.267 . S
C143 O144 1.160 . S
C143 O150 1.185 . S
O144 C143 1.160 . S
O145 Zn146 1.899 . S
O145 C153 1.284 . S
Zn146 O145 1.899 . S
Zn146 O147 2.032 . S
Zn146 O150 2.086 . S
Zn146 O155 1.977 . S
O147 Zn146 2.032 . S
O147 C151 1.278 . S
C148 O149 1.203 . S
C148 O155 1.267 . S
O149 C148 1.203 . S
O150 C143 1.185 . S
O150 Zn146 2.086 . S
C151 O147 1.278 . S
C151 O152 1.211 . S
O152 C151 1.211 . S
C153 O145 1.284 . S
C153 O154 1.273 . S
O154 C153 1.273 . S
O155 Zn146 1.977 . S
O155 C148 1.267 . S
C156 O157 1.160 . S
C156 O163 1.185 . S
O157 C156 1.160 . S
O158 Zn159 1.899 . S
O158 C166 1.284 . S
Zn159 O158 1.899 . S
Zn159 O160 2.032 . S
Zn159 O163 2.086 . S
Zn159 O168 1.977 . S
O160 Zn159 2.032 . S
O160 C164 1.278 . S
C161 O162 1.203 . S
C161 O168 1.267 . S
O162 C161 1.203 . S
O163 C156 1.185 . S
O163 Zn159 2.086 . S
C164 O160 1.278 . S
C164 O165 1.211 . S
O165 C164 1.211 . S
C166 O158 1.284 . S
C166 O167 1.273 . S
O167 C166 1.273 . S
O168 Zn159 1.977 . S
O168 C161 1.267 . S
C169 O170 1.160 . S
C169 O176 1.185 . S
O170 C169 1.160 . S
O171 Zn172 1.899 . S
O171 C179 1.284 . S
Zn172 O171 1.899 . S
Zn172 O173 2.032 . S
Zn172 O176 2.086 . S
Zn172 O181 1.977 . S
O173 Zn172 2.032 . S
O173 C177 1.278 . S
C174 O175 1.203 . S
C174 O181 1.267 . S
O175 C174 1.203 . S
O176 C169 1.185 . S
O176 Zn172 2.086 . S
C177 O173 1.278 . S
C177 O178 1.211 . S
O178 C177 1.211 . S
C179 O171 1.284 . S
C179 O180 1.273 . S
O180 C179 1.273 . S
O181 Zn172 1.977 . S
O181 C174 1.267 . S
C182 O183 1.160 . S
C182 O189 1.185 . S
O183 C182 1.160 . S
O184 Zn185 1.899 . S
O184 C192 1.284 . S
Zn185 O184 1.899 . S
Zn185 O186 2.032 . S
Zn185 O189 2.086 . S
Zn185 O194 1.977 . S
O186 Zn185 2.032 . S
O186 C190 1.278 . S
C187 O188 1.203 . S
C187 O194 1.267 . S
O188 C187 1.203 . S
O189 C182 1.185 . S
O189 Zn185 2.086 . S
C190 O186 1.278 . S
C190 O191 1.211 . S
O191 C190 1.211 . S
C192 O184 1.284 . S
C192 O193 1.273 . S
O193 C192 1.273 . S
O194 Zn185 1.977 . S
O194 C187 1.267 . S
C195 O196 1.160 . S
C195 O202 1.185 . S
O196 C195 1.160 . S
O197 Zn198 1.899 . S
O197 C205 1.284 . S
Zn198 O197 1.899 . S
Zn198 O199 2.032 . S
Zn198 O202 2.086 . S
Zn198 O207 1.977 . S
O199 Zn198 2.032 . S
O199 C203 1.278 . S
C200 O201 1.203 . S
C200 O207 1.267 . S
O201 C200 1.203 . S
O202 C195 1.185 . S
O202 Zn198 2.086 . S
C203 O199 1.278 . S
C203 O204 1.211 . S
O204 C203 1.211 . S
C205 O197 1.284 . S
C205 O206 1.273 . S
O206 C205 1.273 . S
O207 Zn198 1.977 . S
O207 C200 1.267 . S
H208 C226 0.951 . S
H209 C228 0.951 . S
H210 C230 0.950 . S
H211 C231 0.950 . S
H212 C233 0.950 . S
H213 C236 0.950 . S
H214 C237 0.950 . S
H215 C239 0.950 . S
H216 C240 0.950 . S
H217 C241 0.951 . S
H218 C243 0.951 . S
H219 C245 0.950 . S
H220 C246 0.950 . S
H221 C248 0.950 . S
H222 C251 0.950 . S
H223 C252 0.950 . S
H224 C254 0.950 . S
H225 C255 0.950 . S
C226 H208 0.951 . S
C226 C227 1.366 . S
C226 C228 1.388 . S
C227 C226 1.366 . S
C227 C231 1.385 . S
C228 H209 0.951 . S
C228 C226 1.388 . S
C228 C229 1.366 . S
C229 C228 1.366 . S
C229 C230 1.414 . S
C229 C232 1.499 . S
C230 H210 0.950 . S
C230 C229 1.414 . S
C230 C231 1.374 . S
C231 H211 0.950 . S
C231 C227 1.385 . S
C231 C230 1.374 . S
C232 C229 1.499 . S
C232 C233 1.373 . S
C232 C234 1.389 . S
C233 H212 0.950 . S
C233 C232 1.373 . S
C233 C249 1.377 . S
C234 C232 1.389 . S
C234 C235 1.524 . S
C234 C248 1.377 . S
C235 C234 1.524 . S
C235 C236 1.397 . S
C235 C240 1.363 . S
C236 H213 0.950 . S
C236 C235 1.397 . S
C236 C237 1.334 . S
C237 H214 0.950 . S
C237 C236 1.334 . S
C237 C238 1.287 . S
C238 C237 1.287 . S
C238 C239 1.524 . S
C238 H257 0.913 . S
C239 H215 0.950 . S
C239 C238 1.524 . S
C239 C240 1.415 . S
C240 H216 0.950 . S
C240 C235 1.363 . S
C240 C239 1.415 . S
C241 H217 0.951 . S
C241 C242 1.366 . S
C241 C243 1.388 . S
C242 C241 1.366 . S
C242 C246 1.385 . S
C243 H218 0.951 . S
C243 C241 1.388 . S
C243 C244 1.366 . S
C244 C243 1.366 . S
C244 C245 1.414 . S
C244 C247 1.499 . S
C245 H219 0.950 . S
C245 C244 1.414 . S
C245 C246 1.374 . S
C246 H220 0.950 . S
C246 C242 1.385 . S
C246 C245 1.374 . S
C247 C244 1.499 . S
C247 C248 1.373 . S
C247 C249 1.389 . S
C248 H221 0.950 . S
C248 C234 1.377 . S
C248 C247 1.373 . S
C249 C233 1.377 . S
C249 C247 1.389 . S
C249 C250 1.524 . S
C250 C249 1.524 . S
C250 C251 1.397 . S
C250 C255 1.363 . S
C251 H222 0.950 . S
C251 C250 1.397 . S
C251 C252 1.334 . S
C252 H223 0.950 . S
C252 C251 1.334 . S
C252 C253 1.287 . S
C253 C252 1.287 . S
C253 C254 1.524 . S
C253 H256 0.999 . S
C254 H224 0.950 . S
C254 C253 1.524 . S
C254 C255 1.415 . S
C255 H225 0.950 . S
C255 C250 1.363 . S
C255 C254 1.415 . S
H256 C253 0.999 . S
H257 C238 0.913 . S
H258 C276 0.951 . S
H259 C278 0.951 . S
H260 C280 0.950 . S
H261 C281 0.950 . S
H262 C283 0.950 . S
H263 C286 0.950 . S
H264 C287 0.950 . S
H265 C289 0.950 . S
H266 C290 0.950 . S
H267 C291 0.951 . S
H268 C293 0.951 . S
H269 C295 0.950 . S
H270 C296 0.950 . S
H271 C298 0.950 . S
H272 C301 0.950 . S
H273 C302 0.950 . S
H274 C304 0.950 . S
H275 C305 0.950 . S
C276 H258 0.951 . S
C276 C277 1.366 . S
C276 C278 1.388 . S
C277 C276 1.366 . S
C277 C281 1.385 . S
C278 H259 0.951 . S
C278 C276 1.388 . S
C278 C279 1.366 . S
C279 C278 1.366 . S
C279 C280 1.414 . S
C279 C282 1.499 . S
C280 H260 0.950 . S
C280 C279 1.414 . S
C280 C281 1.374 . S
C281 H261 0.950 . S
C281 C277 1.385 . S
C281 C280 1.374 . S
C282 C279 1.499 . S
C282 C283 1.373 . S
C282 C284 1.389 . S
C283 H262 0.950 . S
C283 C282 1.373 . S
C283 C299 1.377 . S
C284 C282 1.389 . S
C284 C285 1.524 . S
C284 C298 1.377 . S
C285 C284 1.524 . S
C285 C286 1.397 . S
C285 C290 1.363 . S
C286 H263 0.950 . S
C286 C285 1.397 . S
C286 C287 1.334 . S
C287 H264 0.950 . S
C287 C286 1.334 . S
C287 C288 1.287 . S
C288 C287 1.287 . S
C288 C289 1.524 . S
C288 H307 0.913 . S
C289 H265 0.950 . S
C289 C288 1.524 . S
C289 C290 1.415 . S
C290 H266 0.950 . S
C290 C285 1.363 . S
C290 C289 1.415 . S
C291 H267 0.951 . S
C291 C292 1.366 . S
C291 C293 1.388 . S
C292 C291 1.366 . S
C292 C296 1.385 . S
C293 H268 0.951 . S
C293 C291 1.388 . S
C293 C294 1.366 . S
C294 C293 1.366 . S
C294 C295 1.414 . S
C294 C297 1.499 . S
C295 H269 0.950 . S
C295 C294 1.414 . S
C295 C296 1.374 . S
C296 H270 0.950 . S
C296 C292 1.385 . S
C296 C295 1.374 . S
C297 C294 1.499 . S
C297 C298 1.373 . S
C297 C299 1.389 . S
C298 H271 0.950 . S
C298 C284 1.377 . S
C298 C297 1.373 . S
C299 C283 1.377 . S
C299 C297 1.389 . S
C299 C300 1.524 . S
C300 C299 1.524 . S
C300 C301 1.397 . S
C300 C305 1.363 . S
C301 H272 0.950 . S
C301 C300 1.397 . S
C301 C302 1.334 . S
C302 H273 0.950 . S
C302 C301 1.334 . S
C302 C303 1.287 . S
C303 C302 1.287 . S
C303 C304 1.524 . S
C303 H306 0.999 . S
C304 H274 0.950 . S
C304 C303 1.524 . S
C304 C305 1.415 . S
C305 H275 0.950 . S
C305 C300 1.363 . S
C305 C304 1.415 . S
H306 C303 0.999 . S
H307 C288 0.913 . S
H308 C326 0.951 . S
H309 C328 0.951 . S
H310 C330 0.950 . S
H311 C331 0.950 . S
H312 C333 0.950 . S
H313 C336 0.950 . S
H314 C337 0.950 . S
H315 C339 0.950 . S
H316 C340 0.950 . S
H317 C341 0.951 . S
H318 C343 0.951 . S
H319 C345 0.950 . S
H320 C346 0.950 . S
H321 C348 0.950 . S
H322 C351 0.950 . S
H323 C352 0.950 . S
H324 C354 0.950 . S
H325 C355 0.950 . S
C326 H308 0.951 . S
C326 C327 1.366 . S
C326 C328 1.388 . S
C327 C326 1.366 . S
C327 C331 1.385 . S
C328 H309 0.951 . S
C328 C326 1.388 . S
C328 C329 1.366 . S
C329 C328 1.366 . S
C329 C330 1.414 . S
C329 C332 1.499 . S
C330 H310 0.950 . S
C330 C329 1.414 . S
C330 C331 1.374 . S
C331 H311 0.950 . S
C331 C327 1.385 . S
C331 C330 1.374 . S
C332 C329 1.499 . S
C332 C333 1.373 . S
C332 C334 1.389 . S
C333 H312 0.950 . S
C333 C332 1.373 . S
C333 C349 1.377 . S
C334 C332 1.389 . S
C334 C335 1.524 . S
C334 C348 1.377 . S
C335 C334 1.524 . S
C335 C336 1.397 . S
C335 C340 1.363 . S
C336 H313 0.950 . S
C336 C335 1.397 . S
C336 C337 1.334 . S
C337 H314 0.950 . S
C337 C336 1.334 . S
C337 C338 1.287 . S
C338 C337 1.287 . S
C338 C339 1.524 . S
C338 H357 0.913 . S
C339 H315 0.950 . S
C339 C338 1.524 . S
C339 C340 1.415 . S
C340 H316 0.950 . S
C340 C335 1.363 . S
C340 C339 1.415 . S
C341 H317 0.951 . S
C341 C342 1.366 . S
C341 C343 1.388 . S
C342 C341 1.366 . S
C342 C346 1.385 . S
C343 H318 0.951 . S
C343 C341 1.388 . S
C343 C344 1.366 . S
C344 C343 1.366 . S
C344 C345 1.414 . S
C344 C347 1.499 . S
C345 H319 0.950 . S
C345 C344 1.414 . S
C345 C346 1.374 . S
C346 H320 0.950 . S
C346 C342 1.385 . S
C346 C345 1.374 . S
C347 C344 1.499 . S
C347 C348 1.373 . S
C347 C349 1.389 . S
C348 H321 0.950 . S
C348 C334 1.377 . S
C348 C347 1.373 . S
C349 C333 1.377 . S
C349 C347 1.389 . S
C349 C350 1.524 . S
C350 C349 1.524 . S
C350 C351 1.397 . S
C350 C355 1.363 . S
C351 H322 0.950 . S
C351 C350 1.397 . S
C351 C352 1.334 . S
C352 H323 0.950 . S
C352 C351 1.334 . S
C352 C353 1.287 . S
C353 C352 1.287 . S
C353 C354 1.524 . S
C353 H356 0.999 . S
C354 H324 0.950 . S
C354 C353 1.524 . S
C354 C355 1.415 . S
C355 H325 0.950 . S
C355 C350 1.363 . S
C355 C354 1.415 . S
H356 C353 0.999 . S
H357 C338 0.913 . S
H358 C376 0.951 . S
H359 C378 0.951 . S
H360 C380 0.950 . S
H361 C381 0.950 . S
H362 C383 0.950 . S
H363 C386 0.950 . S
H364 C387 0.950 . S
H365 C389 0.950 . S
H366 C390 0.950 . S
H367 C391 0.951 . S
H368 C393 0.951 . S
H369 C395 0.950 . S
H370 C396 0.950 . S
H371 C398 0.950 . S
H372 C401 0.950 . S
H373 C402 0.950 . S
H374 C404 0.950 . S
H375 C405 0.950 . S
C376 H358 0.951 . S
C376 C377 1.366 . S
C376 C378 1.388 . S
C377 C376 1.366 . S
C377 C381 1.385 . S
C378 H359 0.951 . S
C378 C376 1.388 . S
C378 C379 1.366 . S
C379 C378 1.366 . S
C379 C380 1.414 . S
C379 C382 1.499 . S
C380 H360 0.950 . S
C380 C379 1.414 . S
C380 C381 1.374 . S
C381 H361 0.950 . S
C381 C377 1.385 . S
C381 C380 1.374 . S
C382 C379 1.499 . S
C382 C383 1.373 . S
C382 C384 1.389 . S
C383 H362 0.950 . S
C383 C382 1.373 . S
C383 C399 1.377 . S
C384 C382 1.389 . S
C384 C385 1.524 . S
C384 C398 1.377 . S
C385 C384 1.524 . S
C385 C386 1.397 . S
C385 C390 1.363 . S
C386 H363 0.950 . S
C386 C385 1.397 . S
C386 C387 1.334 . S
C387 H364 0.950 . S
C387 C386 1.334 . S
C387 C388 1.287 . S
C388 C387 1.287 . S
C388 C389 1.524 . S
C388 H407 0.913 . S
C389 H365 0.950 . S
C389 C388 1.524 . S
C389 C390 1.415 . S
C390 H366 0.950 . S
C390 C385 1.363 . S
C390 C389 1.415 . S
C391 H367 0.951 . S
C391 C392 1.366 . S
C391 C393 1.388 . S
C392 C391 1.366 . S
C392 C396 1.385 . S
C393 H368 0.951 . S
C393 C391 1.388 . S
C393 C394 1.366 . S
C394 C393 1.366 . S
C394 C395 1.414 . S
C394 C397 1.499 . S
C395 H369 0.950 . S
C395 C394 1.414 . S
C395 C396 1.374 . S
C396 H370 0.950 . S
C396 C392 1.385 . S
C396 C395 1.374 . S
C397 C394 1.499 . S
C397 C398 1.373 . S
C397 C399 1.389 . S
C398 H371 0.950 . S
C398 C384 1.377 . S
C398 C397 1.373 . S
C399 C383 1.377 . S
C399 C397 1.389 . S
C399 C400 1.524 . S
C400 C399 1.524 . S
C400 C401 1.397 . S
C400 C405 1.363 . S
C401 H372 0.950 . S
C401 C400 1.397 . S
C401 C402 1.334 . S
C402 H373 0.950 . S
C402 C401 1.334 . S
C402 C403 1.287 . S
C403 C402 1.287 . S
C403 C404 1.524 . S
C403 H406 0.999 . S
C404 H374 0.950 . S
C404 C403 1.524 . S
C404 C405 1.415 . S
C405 H375 0.950 . S
C405 C400 1.363 . S
C405 C404 1.415 . S
H406 C403 0.999 . S
H407 C388 0.913 . S
H408 C426 0.951 . S
H409 C428 0.951 . S
H410 C430 0.950 . S
H411 C431 0.950 . S
H412 C433 0.950 . S
H413 C436 0.950 . S
H414 C437 0.950 . S
H415 C439 0.950 . S
H416 C440 0.950 . S
H417 C441 0.951 . S
H418 C443 0.951 . S
H419 C445 0.950 . S
H420 C446 0.950 . S
H421 C448 0.950 . S
H422 C451 0.950 . S
H423 C452 0.950 . S
H424 C454 0.950 . S
H425 C455 0.950 . S
C426 H408 0.951 . S
C426 C427 1.366 . S
C426 C428 1.388 . S
C427 C426 1.366 . S
C427 C431 1.385 . S
C428 H409 0.951 . S
C428 C426 1.388 . S
C428 C429 1.366 . S
C429 C428 1.366 . S
C429 C430 1.414 . S
C429 C432 1.499 . S
C430 H410 0.950 . S
C430 C429 1.414 . S
C430 C431 1.374 . S
C431 H411 0.950 . S
C431 C427 1.385 . S
C431 C430 1.374 . S
C432 C429 1.499 . S
C432 C433 1.373 . S
C432 C434 1.389 . S
C433 H412 0.950 . S
C433 C432 1.373 . S
C433 C449 1.377 . S
C434 C432 1.389 . S
C434 C435 1.524 . S
C434 C448 1.377 . S
C435 C434 1.524 . S
C435 C436 1.397 . S
C435 C440 1.363 . S
C436 H413 0.950 . S
C436 C435 1.397 . S
C436 C437 1.334 . S
C437 H414 0.950 . S
C437 C436 1.334 . S
C437 C438 1.287 . S
C438 C437 1.287 . S
C438 C439 1.524 . S
C438 H457 0.913 . S
C439 H415 0.950 . S
C439 C438 1.524 . S
C439 C440 1.415 . S
C440 H416 0.950 . S
C440 C435 1.363 . S
C440 C439 1.415 . S
C441 H417 0.951 . S
C441 C442 1.366 . S
C441 C443 1.388 . S
C442 C441 1.366 . S
C442 C446 1.385 . S
C443 H418 0.951 . S
C443 C441 1.388 . S
C443 C444 1.366 . S
C444 C443 1.366 . S
C444 C445 1.414 . S
C444 C447 1.499 . S
C445 H419 0.950 . S
C445 C444 1.414 . S
C445 C446 1.374 . S
C446 H420 0.950 . S
C446 C442 1.385 . S
C446 C445 1.374 . S
C447 C444 1.499 . S
C447 C448 1.373 . S
C447 C449 1.389 . S
C448 H421 0.950 . S
C448 C434 1.377 . S
C448 C447 1.373 . S
C449 C433 1.377 . S
C449 C447 1.389 . S
C449 C450 1.524 . S
C450 C449 1.524 . S
C450 C451 1.397 . S
C450 C455 1.363 . S
C451 H422 0.950 . S
C451 C450 1.397 . S
C451 C452 1.334 . S
C452 H423 0.950 . S
C452 C451 1.334 . S
C452 C453 1.287 . S
C453 C452 1.287 . S
C453 C454 1.524 . S
C453 H456 0.999 . S
C454 H424 0.950 . S
C454 C453 1.524 . S
C454 C455 1.415 . S
C455 H425 0.950 . S
C455 C450 1.363 . S
C455 C454 1.415 . S
H456 C453 0.999 . S
H457 C438 0.913 . S
H458 C476 0.951 . S
H459 C478 0.951 . S
H460 C480 0.950 . S
H461 C481 0.950 . S
H462 C483 0.950 . S
H463 C486 0.950 . S
H464 C487 0.950 . S
H465 C489 0.950 . S
H466 C490 0.950 . S
H467 C491 0.951 . S
H468 C493 0.951 . S
H469 C495 0.950 . S
H470 C496 0.950 . S
H471 C498 0.950 . S
H472 C501 0.950 . S
H473 C502 0.950 . S
H474 C504 0.950 . S
H475 C505 0.950 . S
C476 H458 0.951 . S
C476 C477 1.366 . S
C476 C478 1.388 . S
C477 C476 1.366 . S
C477 C481 1.385 . S
C478 H459 0.951 . S
C478 C476 1.388 . S
C478 C479 1.366 . S
C479 C478 1.366 . S
C479 C480 1.414 . S
C479 C482 1.499 . S
C480 H460 0.950 . S
C480 C479 1.414 . S
C480 C481 1.374 . S
C481 H461 0.950 . S
C481 C477 1.385 . S
C481 C480 1.374 . S
C482 C479 1.499 . S
C482 C483 1.373 . S
C482 C484 1.389 . S
C483 H462 0.950 . S
C483 C482 1.373 . S
C483 C499 1.377 . S
C484 C482 1.389 . S
C484 C485 1.524 . S
C484 C498 1.377 . S
C485 C484 1.524 . S
C485 C486 1.397 . S
C485 C490 1.363 . S
C486 H463 0.950 . S
C486 C485 1.397 . S
C486 C487 1.334 . S
C487 H464 0.950 . S
C487 C486 1.334 . S
C487 C488 1.287 . S
C488 C487 1.287 . S
C488 C489 1.524 . S
C488 H507 0.913 . S
C489 H465 0.950 . S
C489 C488 1.524 . S
C489 C490 1.415 . S
C490 H466 0.950 . S
C490 C485 1.363 . S
C490 C489 1.415 . S
C491 H467 0.951 . S
C491 C492 1.366 . S
C491 C493 1.388 . S
C492 C491 1.366 . S
C492 C496 1.385 . S
C493 H468 0.951 . S
C493 C491 1.388 . S
C493 C494 1.366 . S
C494 C493 1.366 . S
C494 C495 1.414 . S
C494 C497 1.499 . S
C495 H469 0.950 . S
C495 C494 1.414 . S
C495 C496 1.374 . S
C496 H470 0.950 . S
C496 C492 1.385 . S
C496 C495 1.374 . S
C497 C494 1.499 . S
C497 C498 1.373 . S
C497 C499 1.389 . S
C498 H471 0.950 . S
C498 C484 1.377 . S
C498 C497 1.373 . S
C499 C483 1.377 . S
C499 C497 1.389 . S
C499 C500 1.524 . S
C500 C499 1.524 . S
C500 C501 1.397 . S
C500 C505 1.363 . S
C501 H472 0.950 . S
C501 C500 1.397 . S
C501 C502 1.334 . S
C502 H473 0.950 . S
C502 C501 1.334 . S
C502 C503 1.287 . S
C503 C502 1.287 . S
C503 C504 1.524 . S
C503 H506 0.999 . S
C504 H474 0.950 . S
C504 C503 1.524 . S
C504 C505 1.415 . S
C505 H475 0.950 . S
C505 C500 1.363 . S
C505 C504 1.415 . S
H506 C503 0.999 . S
H507 C488 0.913 . S
H508 C526 0.951 . S
H509 C528 0.951 . S
H510 C530 0.950 . S
H511 C531 0.950 . S
H512 C533 0.950 . S
H513 C536 0.950 . S
H514 C537 0.950 . S
H515 C539 0.950 . S
H516 C540 0.950 . S
H517 C541 0.951 . S
H518 C543 0.951 . S
H519 C545 0.950 . S
H520 C546 0.950 . S
H521 C548 0.950 . S
H522 C551 0.950 . S
H523 C552 0.950 . S
H524 C554 0.950 . S
H525 C555 0.950 . S
C526 H508 0.951 . S
C526 C527 1.366 . S
C526 C528 1.388 . S
C527 C526 1.366 . S
C527 C531 1.385 . S
C528 H509 0.951 . S
C528 C526 1.388 . S
C528 C529 1.366 . S
C529 C528 1.366 . S
C529 C530 1.414 . S
C529 C532 1.499 . S
C530 H510 0.950 . S
C530 C529 1.414 . S
C530 C531 1.374 . S
C531 H511 0.950 . S
C531 C527 1.385 . S
C531 C530 1.374 . S
C532 C529 1.499 . S
C532 C533 1.373 . S
C532 C534 1.389 . S
C533 H512 0.950 . S
C533 C532 1.373 . S
C533 C549 1.377 . S
C534 C532 1.389 . S
C534 C535 1.524 . S
C534 C548 1.377 . S
C535 C534 1.524 . S
C535 C536 1.397 . S
C535 C540 1.363 . S
C536 H513 0.950 . S
C536 C535 1.397 . S
C536 C537 1.334 . S
C537 H514 0.950 . S
C537 C536 1.334 . S
C537 C538 1.287 . S
C538 C537 1.287 . S
C538 C539 1.524 . S
C538 H557 0.913 . S
C539 H515 0.950 . S
C539 C538 1.524 . S
C539 C540 1.415 . S
C540 H516 0.950 . S
C540 C535 1.363 . S
C540 C539 1.415 . S
C541 H517 0.951 . S
C541 C542 1.366 . S
C541 C543 1.388 . S
C542 C541 1.366 . S
C542 C546 1.385 . S
C543 H518 0.951 . S
C543 C541 1.388 . S
C543 C544 1.366 . S
C544 C543 1.366 . S
C544 C545 1.414 . S
C544 C547 1.499 . S
C545 H519 0.950 . S
C545 C544 1.414 . S
C545 C546 1.374 . S
C546 H520 0.950 . S
C546 C542 1.385 . S
C546 C545 1.374 . S
C547 C544 1.499 . S
C547 C548 1.373 . S
C547 C549 1.389 . S
C548 H521 0.950 . S
C548 C534 1.377 . S
C548 C547 1.373 . S
C549 C533 1.377 . S
C549 C547 1.389 . S
C549 C550 1.524 . S
C550 C549 1.524 . S
C550 C551 1.397 . S
C550 C555 1.363 . S
C551 H522 0.950 . S
C551 C550 1.397 . S
C551 C552 1.334 . S
C552 H523 0.950 . S
C552 C551 1.334 . S
C552 C553 1.287 . S
C553 C552 1.287 . S
C553 C554 1.524 . S
C553 H556 0.999 . S
C554 H524 0.950 . S
C554 C553 1.524 . S
C554 C555 1.415 . S
C555 H525 0.950 . S
C555 C550 1.363 . S
C555 C554 1.415 . S
H556 C553 0.999 . S
H557 C538 0.913 . S
H558 C576 0.951 . S
H559 C578 0.951 . S
H560 C580 0.950 . S
H561 C581 0.950 . S
H562 C583 0.950 . S
H563 C586 0.950 . S
H564 C587 0.950 . S
H565 C589 0.950 . S
H566 C590 0.950 . S
H567 C591 0.951 . S
H568 C593 0.951 . S
H569 C595 0.950 . S
H570 C596 0.950 . S
H571 C598 0.950 . S
H572 C601 0.950 . S
H573 C602 0.950 . S
H574 C604 0.950 . S
H575 C605 0.950 . S
C576 H558 0.951 . S
C576 C577 1.366 . S
C576 C578 1.388 . S
C577 C576 1.366 . S
C577 C581 1.385 . S
C578 H559 0.951 . S
C578 C576 1.388 . S
C578 C579 1.366 . S
C579 C578 1.366 . S
C579 C580 1.414 . S
C579 C582 1.499 . S
C580 H560 0.950 . S
C580 C579 1.414 . S
C580 C581 1.374 . S
C581 H561 0.950 . S
C581 C577 1.385 . S
C581 C580 1.374 . S
C582 C579 1.499 . S
C582 C583 1.373 . S
C582 C584 1.389 . S
C583 H562 0.950 . S
C583 C582 1.373 . S
C583 C599 1.377 . S
C584 C582 1.389 . S
C584 C585 1.524 . S
C584 C598 1.377 . S
C585 C584 1.524 . S
C585 C586 1.397 . S
C585 C590 1.363 . S
C586 H563 0.950 . S
C586 C585 1.397 . S
C586 C587 1.334 . S
C587 H564 0.950 . S
C587 C586 1.334 . S
C587 C588 1.287 . S
C588 C587 1.287 . S
C588 C589 1.524 . S
C588 H607 0.913 . S
C589 H565 0.950 . S
C589 C588 1.524 . S
C589 C590 1.415 . S
C590 H566 0.950 . S
C590 C585 1.363 . S
C590 C589 1.415 . S
C591 H567 0.951 . S
C591 C592 1.366 . S
C591 C593 1.388 . S
C592 C591 1.366 . S
C592 C596 1.385 . S
C593 H568 0.951 . S
C593 C591 1.388 . S
C593 C594 1.366 . S
C594 C593 1.366 . S
C594 C595 1.414 . S
C594 C597 1.499 . S
C595 H569 0.950 . S
C595 C594 1.414 . S
C595 C596 1.374 . S
C596 H570 0.950 . S
C596 C592 1.385 . S
C596 C595 1.374 . S
C597 C594 1.499 . S
C597 C598 1.373 . S
C597 C599 1.389 . S
C598 H571 0.950 . S
C598 C584 1.377 . S
C598 C597 1.373 . S
C599 C583 1.377 . S
C599 C597 1.389 . S
C599 C600 1.524 . S
C600 C599 1.524 . S
C600 C601 1.397 . S
C600 C605 1.363 . S
C601 H572 0.950 . S
C601 C600 1.397 . S
C601 C602 1.334 . S
C602 H573 0.950 . S
C602 C601 1.334 . S
C602 C603 1.287 . S
C603 C602 1.287 . S
C603 C604 1.524 . S
C603 H606 0.999 . S
C604 H574 0.950 . S
C604 C603 1.524 . S
C604 C605 1.415 . S
C605 H575 0.950 . S
C605 C600 1.363 . S
C605 C604 1.415 . S
H606 C603 0.999 . S
H607 C588 0.913 . S
H608 C626 0.951 . S
H609 C628 0.951 . S
H610 C630 0.950 . S
H611 C631 0.950 . S
H612 C633 0.951 . S
H613 C636 0.950 . S
H614 C637 0.950 . S
H615 C639 0.950 . S
H616 C640 0.950 . S
H617 C641 0.951 . S
H618 C643 0.951 . S
H619 C645 0.950 . S
H620 C646 0.950 . S
H621 C648 0.950 . S
H622 C651 0.950 . S
H623 C652 0.950 . S
H624 C654 0.950 . S
H625 C655 0.950 . S
C626 H608 0.951 . S
C626 C627 1.366 . S
C626 C628 1.388 . S
C627 C626 1.366 . S
C627 C631 1.385 . S
C628 H609 0.951 . S
C628 C626 1.388 . S
C628 C629 1.366 . S
C629 C628 1.366 . S
C629 C630 1.414 . S
C629 C632 1.499 . S
C630 H610 0.950 . S
C630 C629 1.414 . S
C630 C631 1.374 . S
C631 H611 0.950 . S
C631 C627 1.385 . S
C631 C630 1.374 . S
C632 C629 1.499 . S
C632 C633 1.377 . S
C632 C634 1.389 . S
C633 H612 0.951 . S
C633 C632 1.377 . S
C633 C649 1.372 1_565 S
C634 C632 1.389 . S
C634 C635 1.524 . S
C634 C648 1.377 1_565 S
C635 C634 1.524 . S
C635 C636 1.397 . S
C635 C640 1.363 . S
C636 H613 0.950 . S
C636 C635 1.397 . S
C636 C637 1.334 . S
C637 H614 0.950 . S
C637 C636 1.334 . S
C637 C638 1.287 . S
C638 C637 1.287 . S
C638 C639 1.524 . S
C638 H657 0.913 . S
C639 H615 0.950 . S
C639 C638 1.524 . S
C639 C640 1.415 . S
C640 H616 0.950 . S
C640 C635 1.363 . S
C640 C639 1.415 . S
C641 H617 0.951 . S
C641 C642 1.366 . S
C641 C643 1.388 . S
C642 C641 1.366 . S
C642 C646 1.385 . S
C643 H618 0.951 . S
C643 C641 1.388 . S
C643 C644 1.366 . S
C644 C643 1.366 . S
C644 C645 1.414 . S
C644 C647 1.499 . S
C645 H619 0.950 . S
C645 C644 1.414 . S
C645 C646 1.374 . S
C646 H620 0.950 . S
C646 C642 1.385 . S
C646 C645 1.374 . S
C647 C644 1.499 . S
C647 C648 1.373 . S
C647 C649 1.389 . S
C648 H621 0.950 . S
C648 C634 1.377 1_545 S
C648 C647 1.373 . S
C649 C633 1.372 1_545 S
C649 C647 1.389 . S
C649 C650 1.524 . S
C650 C649 1.524 . S
C650 C651 1.397 . S
C650 C655 1.363 . S
C651 H622 0.950 . S
C651 C650 1.397 . S
C651 C652 1.334 . S
C652 H623 0.950 . S
C652 C651 1.334 . S
C652 C653 1.287 . S
C653 C652 1.287 . S
C653 C654 1.524 . S
C653 H656 0.999 . S
C654 H624 0.950 . S
C654 C653 1.524 . S
C654 C655 1.415 . S
C655 H625 0.950 . S
C655 C650 1.363 . S
C655 C654 1.415 . S
H656 C653 0.999 . S
H657 C638 0.913 . S
H658 C676 0.951 . S
H659 C678 0.951 . S
H660 C680 0.950 . S
H661 C681 0.950 . S
H662 C683 0.950 . S
H663 C686 0.950 . S
H664 C687 0.950 . S
H665 C689 0.950 . S
H666 C690 0.950 . S
H667 C691 0.951 . S
H668 C693 0.951 . S
H669 C695 0.950 . S
H670 C696 0.950 . S
H671 C698 0.950 . S
H672 C701 0.950 . S
H673 C702 0.950 . S
H674 C704 0.950 . S
H675 C705 0.950 . S
C676 H658 0.951 . S
C676 C677 1.366 . S
C676 C678 1.388 . S
C677 C676 1.366 . S
C677 C681 1.385 . S
C678 H659 0.951 . S
C678 C676 1.388 . S
C678 C679 1.366 . S
C679 C678 1.366 . S
C679 C680 1.414 . S
C679 C682 1.499 . S
C680 H660 0.950 . S
C680 C679 1.414 . S
C680 C681 1.374 . S
C681 H661 0.950 . S
C681 C677 1.385 . S
C681 C680 1.374 . S
C682 C679 1.499 . S
C682 C683 1.373 . S
C682 C684 1.389 . S
C683 H662 0.950 . S
C683 C682 1.373 . S
C683 C699 1.377 . S
C684 C682 1.389 . S
C684 C685 1.524 . S
C684 C698 1.377 . S
C685 C684 1.524 . S
C685 C686 1.397 . S
C685 C690 1.363 . S
C686 H663 0.950 . S
C686 C685 1.397 . S
C686 C687 1.334 . S
C687 H664 0.950 . S
C687 C686 1.334 . S
C687 C688 1.287 . S
C688 C687 1.287 . S
C688 C689 1.524 . S
C688 H707 0.913 . S
C689 H665 0.950 . S
C689 C688 1.524 . S
C689 C690 1.415 . S
C690 H666 0.950 . S
C690 C685 1.363 . S
C690 C689 1.415 . S
C691 H667 0.951 . S
C691 C692 1.366 . S
C691 C693 1.388 . S
C692 C691 1.366 . S
C692 C696 1.385 . S
C693 H668 0.951 . S
C693 C691 1.388 . S
C693 C694 1.366 . S
C694 C693 1.366 . S
C694 C695 1.414 . S
C694 C697 1.499 . S
C695 H669 0.950 . S
C695 C694 1.414 . S
C695 C696 1.374 . S
C696 H670 0.950 . S
C696 C692 1.385 . S
C696 C695 1.374 . S
C697 C694 1.499 . S
C697 C698 1.373 . S
C697 C699 1.389 . S
C698 H671 0.950 . S
C698 C684 1.377 . S
C698 C697 1.373 . S
C699 C683 1.377 . S
C699 C697 1.389 . S
C699 C700 1.524 . S
C700 C699 1.524 . S
C700 C701 1.397 . S
C700 C705 1.363 . S
C701 H672 0.950 . S
C701 C700 1.397 . S
C701 C702 1.334 . S
C702 H673 0.950 . S
C702 C701 1.334 . S
C702 C703 1.287 . S
C703 C702 1.287 . S
C703 C704 1.524 . S
C703 H706 0.999 . S
C704 H674 0.950 . S
C704 C703 1.524 . S
C704 C705 1.415 . S
C705 H675 0.950 . S
C705 C700 1.363 . S
C705 C704 1.415 . S
H706 C703 0.999 . S
H707 C688 0.913 . S
H708 C726 0.951 . S
H709 C728 0.951 . S
H710 C730 0.950 . S
H711 C731 0.950 . S
H712 C733 0.950 . S
H713 C736 0.950 . S
H714 C737 0.950 . S
H715 C739 0.950 . S
H716 C740 0.950 . S
H717 C741 0.951 . S
H718 C743 0.951 . S
H719 C745 0.950 . S
H720 C746 0.950 . S
H721 C748 0.950 . S
H722 C751 0.950 . S
H723 C752 0.950 . S
H724 C754 0.950 . S
H725 C755 0.950 . S
C726 H708 0.951 . S
C726 C727 1.366 . S
C726 C728 1.388 . S
C727 C726 1.366 . S
C727 C731 1.385 . S
C728 H709 0.951 . S
C728 C726 1.388 . S
C728 C729 1.366 . S
C729 C728 1.366 . S
C729 C730 1.414 . S
C729 C732 1.499 . S
C730 H710 0.950 . S
C730 C729 1.414 . S
C730 C731 1.374 . S
C731 H711 0.950 . S
C731 C727 1.385 . S
C731 C730 1.374 . S
C732 C729 1.499 . S
C732 C733 1.373 . S
C732 C734 1.389 . S
C733 H712 0.950 . S
C733 C732 1.373 . S
C733 C749 1.377 1_556 S
C734 C732 1.389 . S
C734 C735 1.524 . S
C734 C748 1.377 1_556 S
C735 C734 1.524 . S
C735 C736 1.397 . S
C735 C740 1.363 . S
C736 H713 0.950 . S
C736 C735 1.397 . S
C736 C737 1.334 . S
C737 H714 0.950 . S
C737 C736 1.334 . S
C737 C738 1.287 . S
C738 C737 1.287 . S
C738 C739 1.524 . S
C738 H757 0.913 . S
C739 H715 0.950 . S
C739 C738 1.524 . S
C739 C740 1.415 . S
C740 H716 0.950 . S
C740 C735 1.363 . S
C740 C739 1.415 . S
C741 H717 0.951 . S
C741 C742 1.366 . S
C741 C743 1.388 . S
C742 C741 1.366 . S
C742 C746 1.385 . S
C743 H718 0.951 . S
C743 C741 1.388 . S
C743 C744 1.366 . S
C744 C743 1.366 . S
C744 C745 1.414 . S
C744 C747 1.499 . S
C745 H719 0.950 . S
C745 C744 1.414 . S
C745 C746 1.374 . S
C746 H720 0.950 . S
C746 C742 1.385 . S
C746 C745 1.374 . S
C747 C744 1.499 . S
C747 C748 1.373 . S
C747 C749 1.389 . S
C748 H721 0.950 . S
C748 C734 1.377 1_554 S
C748 C747 1.373 . S
C749 C733 1.377 1_554 S
C749 C747 1.389 . S
C749 C750 1.524 . S
C750 C749 1.524 . S
C750 C751 1.397 . S
C750 C755 1.363 . S
C751 H722 0.950 . S
C751 C750 1.397 . S
C751 C752 1.334 . S
C752 H723 0.950 . S
C752 C751 1.334 . S
C752 C753 1.287 . S
C753 C752 1.287 . S
C753 C754 1.524 . S
C753 H756 0.999 . S
C754 H724 0.950 . S
C754 C753 1.524 . S
C754 C755 1.415 . S
C755 H725 0.950 . S
C755 C750 1.363 . S
C755 C754 1.415 . S
H756 C753 0.999 . S
H757 C738 0.913 . S
H758 C776 0.951 . S
H759 C778 0.951 . S
H760 C780 0.950 . S
H761 C781 0.950 . S
H762 C783 0.952 . S
H763 C786 0.950 . S
H764 C787 0.950 . S
H765 C789 0.950 . S
H766 C790 0.950 . S
H767 C791 0.951 . S
H768 C793 0.951 . S
H769 C795 0.950 . S
H770 C796 0.950 . S
H771 C798 0.950 . S
H772 C801 0.950 . S
H773 C802 0.950 . S
H774 C804 0.950 . S
H775 C805 0.950 . S
C776 H758 0.951 . S
C776 C777 1.366 . S
C776 C778 1.388 . S
C777 C776 1.366 . S
C777 C781 1.385 . S
C778 H759 0.951 . S
C778 C776 1.388 . S
C778 C779 1.366 . S
C779 C778 1.366 . S
C779 C780 1.414 . S
C779 C782 1.499 . S
C780 H760 0.950 . S
C780 C779 1.414 . S
C780 C781 1.374 . S
C781 H761 0.950 . S
C781 C777 1.385 . S
C781 C780 1.374 . S
C782 C779 1.499 . S
C782 C783 1.373 . S
C782 C784 1.389 . S
C783 H762 0.952 . S
C783 C782 1.373 . S
C783 C799 1.377 1_554 S
C784 C782 1.389 . S
C784 C785 1.524 . S
C784 C798 1.377 . S
C785 C784 1.524 . S
C785 C786 1.397 . S
C785 C790 1.363 . S
C786 H763 0.950 . S
C786 C785 1.397 . S
C786 C787 1.334 . S
C787 H764 0.950 . S
C787 C786 1.334 . S
C787 C788 1.287 . S
C788 C787 1.287 . S
C788 C789 1.524 . S
C788 H807 0.913 . S
C789 H765 0.950 . S
C789 C788 1.524 . S
C789 C790 1.415 . S
C790 H766 0.950 . S
C790 C785 1.363 . S
C790 C789 1.415 . S
C791 H767 0.951 . S
C791 C792 1.366 . S
C791 C793 1.388 . S
C792 C791 1.366 . S
C792 C796 1.385 . S
C793 H768 0.951 . S
C793 C791 1.388 . S
C793 C794 1.366 . S
C794 C793 1.366 . S
C794 C795 1.414 . S
C794 C797 1.499 . S
C795 H769 0.950 . S
C795 C794 1.414 . S
C795 C796 1.374 . S
C796 H770 0.950 . S
C796 C792 1.385 . S
C796 C795 1.374 . S
C797 C794 1.499 . S
C797 C798 1.373 1_556 S
C797 C799 1.389 . S
C798 H771 0.950 . S
C798 C784 1.377 . S
C798 C797 1.373 1_554 S
C799 C783 1.377 1_556 S
C799 C797 1.389 . S
C799 C800 1.524 . S
C800 C799 1.524 . S
C800 C801 1.397 . S
C800 C805 1.363 . S
C801 H772 0.950 . S
C801 C800 1.397 . S
C801 C802 1.334 . S
C802 H773 0.950 . S
C802 C801 1.334 . S
C802 C803 1.287 . S
C803 C802 1.287 . S
C803 C804 1.524 . S
C803 H806 0.999 . S
C804 H774 0.950 . S
C804 C803 1.524 . S
C804 C805 1.415 . S
C805 H775 0.950 . S
C805 C800 1.363 . S
C805 C804 1.415 . S
H806 C803 0.999 . S
H807 C788 0.913 . S
H808 C826 0.951 . S
H809 C828 0.951 . S
H810 C830 0.950 . S
H811 C831 0.950 . S
H812 C833 0.950 . S
H813 C836 0.950 . S
H814 C837 0.950 . S
H815 C839 0.950 . S
H816 C840 0.950 . S
H817 C841 0.951 . S
H818 C843 0.951 . S
H819 C845 0.950 . S
H820 C846 0.950 . S
H821 C848 0.950 . S
H822 C851 0.950 . S
H823 C852 0.950 . S
H824 C854 0.950 . S
H825 C855 0.950 . S
C826 H808 0.951 . S
C826 C827 1.366 . S
C826 C828 1.388 . S
C827 C826 1.366 . S
C827 C831 1.385 . S
C828 H809 0.951 . S
C828 C826 1.388 . S
C828 C829 1.366 . S
C829 C828 1.366 . S
C829 C830 1.414 . S
C829 C832 1.499 . S
C830 H810 0.950 . S
C830 C829 1.414 . S
C830 C831 1.374 . S
C831 H811 0.950 . S
C831 C827 1.385 . S
C831 C830 1.374 . S
C832 C829 1.499 . S
C832 C833 1.373 . S
C832 C834 1.389 . S
C833 H812 0.950 . S
C833 C832 1.373 . S
C833 C849 1.377 . S
C834 C832 1.389 . S
C834 C835 1.524 . S
C834 C848 1.377 . S
C835 C834 1.524 . S
C835 C836 1.397 . S
C835 C840 1.363 . S
C836 H813 0.950 . S
C836 C835 1.397 . S
C836 C837 1.334 . S
C837 H814 0.950 . S
C837 C836 1.334 . S
C837 C838 1.287 . S
C838 C837 1.287 . S
C838 C839 1.524 . S
C838 H857 0.913 . S
C839 H815 0.950 . S
C839 C838 1.524 . S
C839 C840 1.415 . S
C840 H816 0.950 . S
C840 C835 1.363 . S
C840 C839 1.415 . S
C841 H817 0.951 . S
C841 C842 1.366 . S
C841 C843 1.388 . S
C842 C841 1.366 . S
C842 C846 1.385 . S
C843 H818 0.951 . S
C843 C841 1.388 . S
C843 C844 1.366 . S
C844 C843 1.366 . S
C844 C845 1.414 . S
C844 C847 1.499 . S
C845 H819 0.950 . S
C845 C844 1.414 . S
C845 C846 1.374 . S
C846 H820 0.950 . S
C846 C842 1.385 . S
C846 C845 1.374 . S
C847 C844 1.499 . S
C847 C848 1.373 . S
C847 C849 1.389 . S
C848 H821 0.950 . S
C848 C834 1.377 . S
C848 C847 1.373 . S
C849 C833 1.377 . S
C849 C847 1.389 . S
C849 C850 1.524 . S
C850 C849 1.524 . S
C850 C851 1.397 . S
C850 C855 1.363 . S
C851 H822 0.950 . S
C851 C850 1.397 . S
C851 C852 1.334 . S
C852 H823 0.950 . S
C852 C851 1.334 . S
C852 C853 1.287 . S
C853 C852 1.287 . S
C853 C854 1.524 . S
C853 H856 0.999 . S
C854 H824 0.950 . S
C854 C853 1.524 . S
C854 C855 1.415 . S
C855 H825 0.950 . S
C855 C850 1.363 . S
C855 C854 1.415 . S
H856 C853 0.999 . S
H857 C838 0.913 . S
H858 C876 0.951 . S
H859 C878 0.951 . S
H860 C880 0.950 . S
H861 C881 0.950 . S
H862 C883 0.950 . S
H863 C886 0.950 . S
H864 C887 0.950 . S
H865 C889 0.950 . S
H866 C890 0.950 . S
H867 C891 0.951 . S
H868 C893 0.951 . S
H869 C895 0.950 . S
H870 C896 0.950 . S
H871 C898 0.950 . S
H872 C901 0.950 . S
H873 C902 0.950 . S
H874 C904 0.950 . S
H875 C905 0.950 . S
C876 H858 0.951 . S
C876 C877 1.366 . S
C876 C878 1.388 . S
C877 C876 1.366 . S
C877 C881 1.385 . S
C878 H859 0.951 . S
C878 C876 1.388 . S
C878 C879 1.366 . S
C879 C878 1.366 . S
C879 C880 1.414 . S
C879 C882 1.499 . S
C880 H860 0.950 . S
C880 C879 1.414 . S
C880 C881 1.374 . S
C881 H861 0.950 . S
C881 C877 1.385 . S
C881 C880 1.374 . S
C882 C879 1.499 . S
C882 C883 1.373 . S
C882 C884 1.389 . S
C883 H862 0.950 . S
C883 C882 1.373 . S
C883 C899 1.377 . S
C884 C882 1.389 . S
C884 C885 1.524 . S
C884 C898 1.377 . S
C885 C884 1.524 . S
C885 C886 1.397 . S
C885 C890 1.363 . S
C886 H863 0.950 . S
C886 C885 1.397 . S
C886 C887 1.334 . S
C887 H864 0.950 . S
C887 C886 1.334 . S
C887 C888 1.287 . S
C888 C887 1.287 . S
C888 C889 1.524 . S
C888 H907 0.913 . S
C889 H865 0.950 . S
C889 C888 1.524 . S
C889 C890 1.415 . S
C890 H866 0.950 . S
C890 C885 1.363 . S
C890 C889 1.415 . S
C891 H867 0.951 . S
C891 C892 1.366 . S
C891 C893 1.388 . S
C892 C891 1.366 . S
C892 C896 1.385 . S
C893 H868 0.951 . S
C893 C891 1.388 . S
C893 C894 1.366 . S
C894 C893 1.366 . S
C894 C895 1.414 . S
C894 C897 1.499 . S
C895 H869 0.950 . S
C895 C894 1.414 . S
C895 C896 1.374 . S
C896 H870 0.950 . S
C896 C892 1.385 . S
C896 C895 1.374 . S
C897 C894 1.499 . S
C897 C898 1.373 . S
C897 C899 1.389 . S
C898 H871 0.950 . S
C898 C884 1.377 . S
C898 C897 1.373 . S
C899 C883 1.377 . S
C899 C897 1.389 . S
C899 C900 1.524 . S
C900 C899 1.524 . S
C900 C901 1.397 . S
C900 C905 1.363 . S
C901 H872 0.950 . S
C901 C900 1.397 . S
C901 C902 1.334 . S
C902 H873 0.950 . S
C902 C901 1.334 . S
C902 C903 1.287 . S
C903 C902 1.287 . S
C903 C904 1.524 . S
C903 H906 0.999 . S
C904 H874 0.950 . S
C904 C903 1.524 . S
C904 C905 1.415 . S
C905 H875 0.950 . S
C905 C900 1.363 . S
C905 C904 1.415 . S
H906 C903 0.999 . S
H907 C888 0.913 . S
H908 C926 0.951 . S
H909 C928 0.951 . S
H910 C930 0.950 . S
H911 C931 0.950 . S
H912 C933 0.950 . S
H913 C936 0.950 . S
H914 C937 0.950 . S
H915 C939 0.950 . S
H916 C940 0.950 . S
H917 C941 0.951 . S
H918 C943 0.951 . S
H919 C945 0.950 . S
H920 C946 0.950 . S
H921 C948 0.950 . S
H922 C951 0.950 . S
H923 C952 0.950 . S
H924 C954 0.950 . S
H925 C955 0.950 . S
C926 H908 0.951 . S
C926 C927 1.366 . S
C926 C928 1.388 . S
C927 C926 1.366 . S
C927 C931 1.385 . S
C928 H909 0.951 . S
C928 C926 1.388 . S
C928 C929 1.366 . S
C929 C928 1.366 . S
C929 C930 1.414 . S
C929 C932 1.499 . S
C930 H910 0.950 . S
C930 C929 1.414 . S
C930 C931 1.374 . S
C931 H911 0.950 . S
C931 C927 1.385 . S
C931 C930 1.374 . S
C932 C929 1.499 . S
C932 C933 1.373 . S
C932 C934 1.389 1_655 S
C933 H912 0.950 . S
C933 C932 1.373 . S
C933 C949 1.377 . S
C934 C932 1.389 1_455 S
C934 C935 1.524 . S
C934 C948 1.377 . S
C935 C934 1.524 . S
C935 C936 1.397 1_455 S
C935 C940 1.363 . S
C936 H913 0.950 . S
C936 C935 1.397 1_655 S
C936 C937 1.334 . S
C937 H914 0.950 . S
C937 C936 1.334 . S
C937 C938 1.287 1_655 S
C938 C937 1.287 1_455 S
C938 C939 1.524 . S
C938 H957 0.913 . S
C939 H915 0.950 . S
C939 C938 1.524 . S
C939 C940 1.415 . S
C940 H916 0.950 . S
C940 C935 1.363 . S
C940 C939 1.415 . S
C941 H917 0.951 . S
C941 C942 1.366 . S
C941 C943 1.388 . S
C942 C941 1.366 . S
C942 C946 1.385 . S
C943 H918 0.951 . S
C943 C941 1.388 . S
C943 C944 1.366 . S
C944 C943 1.366 . S
C944 C945 1.414 . S
C944 C947 1.499 . S
C945 H919 0.950 . S
C945 C944 1.414 . S
C945 C946 1.374 . S
C946 H920 0.950 . S
C946 C942 1.385 . S
C946 C945 1.374 . S
C947 C944 1.499 . S
C947 C948 1.373 . S
C947 C949 1.389 1_455 S
C948 H921 0.950 . S
C948 C934 1.377 . S
C948 C947 1.373 . S
C949 C933 1.377 . S
C949 C947 1.389 1_655 S
C949 C950 1.524 . S
C950 C949 1.524 . S
C950 C951 1.397 1_655 S
C950 C955 1.363 . S
C951 H922 0.950 . S
C951 C950 1.397 1_455 S
C951 C952 1.334 . S
C952 H923 0.950 . S
C952 C951 1.334 . S
C952 C953 1.287 1_455 S
C953 C952 1.287 1_655 S
C953 C954 1.524 . S
C953 H956 0.999 . S
C954 H924 0.950 . S
C954 C953 1.524 . S
C954 C955 1.415 . S
C955 H925 0.950 . S
C955 C950 1.363 . S
C955 C954 1.415 . S
H956 C953 0.999 . S
H957 C938 0.913 . S
H958 C976 0.951 . S
H959 C978 0.951 . S
H960 C980 0.950 . S
H961 C981 0.950 . S
H962 C983 0.950 . S
H963 C986 0.950 . S
H964 C987 0.950 . S
H965 C989 0.950 . S
H966 C990 0.950 . S
H967 C991 0.951 . S
H968 C993 0.951 . S
H969 C995 0.950 . S
H970 C996 0.950 . S
H971 C998 0.950 . S
H972 C1001 0.950 . S
H973 C1002 0.950 . S
H974 C1004 0.950 . S
H975 C1005 0.950 . S
C976 H958 0.951 . S
C976 C977 1.366 . S
C976 C978 1.388 . S
C977 C976 1.366 . S
C977 C981 1.385 . S
C978 H959 0.951 . S
C978 C976 1.388 . S
C978 C979 1.366 . S
C979 C978 1.366 . S
C979 C980 1.414 . S
C979 C982 1.499 . S
C980 H960 0.950 . S
C980 C979 1.414 . S
C980 C981 1.374 . S
C981 H961 0.950 . S
C981 C977 1.385 . S
C981 C980 1.374 . S
C982 C979 1.499 . S
C982 C983 1.373 . S
C982 C984 1.389 . S
C983 H962 0.950 . S
C983 C982 1.373 . S
C983 C999 1.377 1_655 S
C984 C982 1.389 . S
C984 C985 1.524 . S
C984 C998 1.377 1_655 S
C985 C984 1.524 . S
C985 C986 1.397 . S
C985 C990 1.363 . S
C986 H963 0.950 . S
C986 C985 1.397 . S
C986 C987 1.334 . S
C987 H964 0.950 . S
C987 C986 1.334 . S
C987 C988 1.287 . S
C988 C987 1.287 . S
C988 C989 1.524 . S
C988 H1007 0.913 . S
C989 H965 0.950 . S
C989 C988 1.524 . S
C989 C990 1.415 . S
C990 H966 0.950 . S
C990 C985 1.363 . S
C990 C989 1.415 . S
C991 H967 0.951 . S
C991 C992 1.366 . S
C991 C993 1.388 . S
C992 C991 1.366 . S
C992 C996 1.385 . S
C993 H968 0.951 . S
C993 C991 1.388 . S
C993 C994 1.366 . S
C994 C993 1.366 . S
C994 C995 1.414 . S
C994 C997 1.499 . S
C995 H969 0.950 . S
C995 C994 1.414 . S
C995 C996 1.374 . S
C996 H970 0.950 . S
C996 C992 1.385 . S
C996 C995 1.374 . S
C997 C994 1.499 . S
C997 C998 1.373 . S
C997 C999 1.389 . S
C998 H971 0.950 . S
C998 C984 1.377 1_455 S
C998 C997 1.373 . S
C999 C983 1.377 1_455 S
C999 C997 1.389 . S
C999 C1000 1.524 . S
C1000 C999 1.524 . S
C1000 C1001 1.397 . S
C1000 C1005 1.363 . S
C1001 H972 0.950 . S
C1001 C1000 1.397 . S
C1001 C1002 1.334 . S
C1002 H973 0.950 . S
C1002 C1001 1.334 . S
C1002 C1003 1.287 . S
C1003 C1002 1.287 . S
C1003 C1004 1.524 . S
C1003 H1006 0.999 . S
C1004 H974 0.950 . S
C1004 C1003 1.524 . S
C1004 C1005 1.415 . S
C1005 H975 0.950 . S
C1005 C1000 1.363 . S
C1005 C1004 1.415 . S
H1006 C1003 0.999 . S
H1007 C988 0.913 . S
H1008 C1026 0.951 . S
H1009 C1028 0.951 . S
H1010 C1030 0.950 . S
H1011 C1031 0.950 . S
H1012 C1033 0.950 . S
H1013 C1036 0.950 . S
H1014 C1037 0.950 . S
H1015 C1039 0.950 . S
H1016 C1040 0.950 . S
H1017 C1041 0.951 . S
H1018 C1043 0.951 . S
H1019 C1045 0.950 . S
H1020 C1046 0.950 . S
H1021 C1048 0.950 . S
H1022 C1051 0.950 . S
H1023 C1052 0.950 . S
H1024 C1054 0.950 . S
H1025 C1055 0.950 . S
C1026 H1008 0.951 . S
C1026 C1027 1.366 . S
C1026 C1028 1.388 . S
C1027 C1026 1.366 . S
C1027 C1031 1.385 . S
C1028 H1009 0.951 . S
C1028 C1026 1.388 . S
C1028 C1029 1.366 . S
C1029 C1028 1.366 . S
C1029 C1030 1.414 . S
C1029 C1032 1.499 . S
C1030 H1010 0.950 . S
C1030 C1029 1.414 . S
C1030 C1031 1.374 . S
C1031 H1011 0.950 . S
C1031 C1027 1.385 . S
C1031 C1030 1.374 . S
C1032 C1029 1.499 . S
C1032 C1033 1.373 . S
C1032 C1034 1.389 . S
C1033 H1012 0.950 . S
C1033 C1032 1.373 . S
C1033 C1049 1.377 . S
C1034 C1032 1.389 . S
C1034 C1035 1.524 . S
C1034 C1048 1.377 . S
C1035 C1034 1.524 . S
C1035 C1036 1.397 . S
C1035 C1040 1.363 . S
C1036 H1013 0.950 . S
C1036 C1035 1.397 . S
C1036 C1037 1.334 . S
C1037 H1014 0.950 . S
C1037 C1036 1.334 . S
C1037 C1038 1.287 . S
C1038 C1037 1.287 . S
C1038 C1039 1.524 . S
C1038 H1057 0.913 . S
C1039 H1015 0.950 . S
C1039 C1038 1.524 . S
C1039 C1040 1.415 . S
C1040 H1016 0.950 . S
C1040 C1035 1.363 . S
C1040 C1039 1.415 . S
C1041 H1017 0.951 . S
C1041 C1042 1.366 . S
C1041 C1043 1.388 . S
C1042 C1041 1.366 . S
C1042 C1046 1.385 . S
C1043 H1018 0.951 . S
C1043 C1041 1.388 . S
C1043 C1044 1.366 . S
C1044 C1043 1.366 . S
C1044 C1045 1.414 . S
C1044 C1047 1.499 . S
C1045 H1019 0.950 . S
C1045 C1044 1.414 . S
C1045 C1046 1.374 . S
C1046 H1020 0.950 . S
C1046 C1042 1.385 . S
C1046 C1045 1.374 . S
C1047 C1044 1.499 . S
C1047 C1048 1.373 . S
C1047 C1049 1.389 . S
C1048 H1021 0.950 . S
C1048 C1034 1.377 . S
C1048 C1047 1.373 . S
C1049 C1033 1.377 . S
C1049 C1047 1.389 . S
C1049 C1050 1.524 . S
C1050 C1049 1.524 . S
C1050 C1051 1.397 . S
C1050 C1055 1.363 . S
C1051 H1022 0.950 . S
C1051 C1050 1.397 . S
C1051 C1052 1.334 . S
C1052 H1023 0.950 . S
C1052 C1051 1.334 . S
C1052 C1053 1.287 . S
C1053 C1052 1.287 . S
C1053 C1054 1.524 . S
C1053 H1056 0.999 . S
C1054 H1024 0.950 . S
C1054 C1053 1.524 . S
C1054 C1055 1.415 . S
C1055 H1025 0.950 . S
C1055 C1050 1.363 . S
C1055 C1054 1.415 . S
H1056 C1053 0.999 . S
H1057 C1038 0.913 . S
H1058 C1076 0.951 . S
H1059 C1078 0.951 . S
H1060 C1080 0.950 . S
H1061 C1081 0.950 . S
H1062 C1083 0.950 . S
H1063 C1086 0.950 . S
H1064 C1087 0.950 . S
H1065 C1089 0.950 . S
H1066 C1090 0.950 . S
H1067 C1091 0.951 . S
H1068 C1093 0.951 . S
H1069 C1095 0.950 . S
H1070 C1096 0.950 . S
H1071 C1098 0.950 . S
H1072 C1101 0.950 . S
H1073 C1102 0.950 . S
H1074 C1104 0.950 . S
H1075 C1105 0.950 . S
C1076 H1058 0.951 . S
C1076 C1077 1.366 . S
C1076 C1078 1.388 . S
C1077 C1076 1.366 . S
C1077 C1081 1.385 . S
C1078 H1059 0.951 . S
C1078 C1076 1.388 . S
C1078 C1079 1.366 . S
C1079 C1078 1.366 . S
C1079 C1080 1.414 . S
C1079 C1082 1.499 . S
C1080 H1060 0.950 . S
C1080 C1079 1.414 . S
C1080 C1081 1.374 . S
C1081 H1061 0.950 . S
C1081 C1077 1.385 . S
C1081 C1080 1.374 . S
C1082 C1079 1.499 . S
C1082 C1083 1.373 . S
C1082 C1084 1.389 . S
C1083 H1062 0.950 . S
C1083 C1082 1.373 . S
C1083 C1099 1.377 1_545 S
C1084 C1082 1.389 . S
C1084 C1085 1.524 . S
C1084 C1098 1.377 . S
C1085 C1084 1.524 . S
C1085 C1086 1.397 . S
C1085 C1090 1.363 . S
C1086 H1063 0.950 . S
C1086 C1085 1.397 . S
C1086 C1087 1.334 . S
C1087 H1064 0.950 . S
C1087 C1086 1.334 . S
C1087 C1088 1.287 . S
C1088 C1087 1.287 . S
C1088 C1089 1.524 . S
C1088 H1107 0.913 . S
C1089 H1065 0.950 . S
C1089 C1088 1.524 . S
C1089 C1090 1.415 . S
C1090 H1066 0.950 . S
C1090 C1085 1.363 . S
C1090 C1089 1.415 . S
C1091 H1067 0.951 . S
C1091 C1092 1.366 . S
C1091 C1093 1.388 . S
C1092 C1091 1.366 . S
C1092 C1096 1.385 . S
C1093 H1068 0.951 . S
C1093 C1091 1.388 . S
C1093 C1094 1.366 . S
C1094 C1093 1.366 . S
C1094 C1095 1.414 . S
C1094 C1097 1.499 . S
C1095 H1069 0.950 . S
C1095 C1094 1.414 . S
C1095 C1096 1.374 . S
C1096 H1070 0.950 . S
C1096 C1092 1.385 . S
C1096 C1095 1.374 . S
C1097 C1094 1.499 . S
C1097 C1098 1.373 1_565 S
C1097 C1099 1.389 . S
C1098 H1071 0.950 . S
C1098 C1084 1.377 . S
C1098 C1097 1.373 1_545 S
C1099 C1083 1.377 1_565 S
C1099 C1097 1.389 . S
C1099 C1100 1.524 . S
C1100 C1099 1.524 . S
C1100 C1101 1.397 . S
C1100 C1105 1.363 . S
C1101 H1072 0.950 . S
C1101 C1100 1.397 . S
C1101 C1102 1.334 . S
C1102 H1073 0.950 . S
C1102 C1101 1.334 . S
C1102 C1103 1.287 . S
C1103 C1102 1.287 . S
C1103 C1104 1.524 . S
C1103 H1106 0.999 . S
C1104 H1074 0.950 . S
C1104 C1103 1.524 . S
C1104 C1105 1.415 . S
C1105 H1075 0.950 . S
C1105 C1100 1.363 . S
C1105 C1104 1.415 . S
H1106 C1103 0.999 . S
H1107 C1088 0.913 . S
H1108 C1126 0.951 . S
H1109 C1128 0.951 . S
H1110 C1130 0.950 . S
H1111 C1131 0.950 . S
H1112 C1133 0.950 . S
H1113 C1136 0.950 . S
H1114 C1137 0.950 . S
H1115 C1139 0.950 . S
H1116 C1140 0.950 . S
H1117 C1141 0.951 . S
H1118 C1143 0.951 . S
H1119 C1145 0.950 . S
H1120 C1146 0.950 . S
H1121 C1148 0.950 . S
H1122 C1151 0.950 . S
H1123 C1152 0.950 . S
H1124 C1154 0.950 . S
H1125 C1155 0.950 . S
C1126 H1108 0.951 . S
C1126 C1127 1.366 . S
C1126 C1128 1.388 . S
C1127 C1126 1.366 . S
C1127 C1131 1.385 . S
C1128 H1109 0.951 . S
C1128 C1126 1.388 . S
C1128 C1129 1.366 . S
C1129 C1128 1.366 . S
C1129 C1130 1.414 . S
C1129 C1132 1.499 . S
C1130 H1110 0.950 . S
C1130 C1129 1.414 . S
C1130 C1131 1.374 . S
C1131 H1111 0.950 . S
C1131 C1127 1.385 . S
C1131 C1130 1.374 . S
C1132 C1129 1.499 . S
C1132 C1133 1.373 . S
C1132 C1134 1.389 . S
C1133 H1112 0.950 . S
C1133 C1132 1.373 . S
C1133 C1149 1.377 . S
C1134 C1132 1.389 . S
C1134 C1135 1.524 . S
C1134 C1148 1.377 . S
C1135 C1134 1.524 . S
C1135 C1136 1.397 . S
C1135 C1140 1.363 . S
C1136 H1113 0.950 . S
C1136 C1135 1.397 . S
C1136 C1137 1.334 . S
C1137 H1114 0.950 . S
C1137 C1136 1.334 . S
C1137 C1138 1.287 . S
C1138 C1137 1.287 . S
C1138 C1139 1.524 . S
C1138 H1157 0.913 . S
C1139 H1115 0.950 . S
C1139 C1138 1.524 . S
C1139 C1140 1.415 . S
C1140 H1116 0.950 . S
C1140 C1135 1.363 . S
C1140 C1139 1.415 . S
C1141 H1117 0.951 . S
C1141 C1142 1.366 . S
C1141 C1143 1.388 . S
C1142 C1141 1.366 . S
C1142 C1146 1.385 . S
C1143 H1118 0.951 . S
C1143 C1141 1.388 . S
C1143 C1144 1.366 . S
C1144 C1143 1.366 . S
C1144 C1145 1.414 . S
C1144 C1147 1.499 . S
C1145 H1119 0.950 . S
C1145 C1144 1.414 . S
C1145 C1146 1.374 . S
C1146 H1120 0.950 . S
C1146 C1142 1.385 . S
C1146 C1145 1.374 . S
C1147 C1144 1.499 . S
C1147 C1148 1.373 . S
C1147 C1149 1.389 . S
C1148 H1121 0.950 . S
C1148 C1134 1.377 . S
C1148 C1147 1.373 . S
C1149 C1133 1.377 . S
C1149 C1147 1.389 . S
C1149 C1150 1.524 . S
C1150 C1149 1.524 . S
C1150 C1151 1.397 . S
C1150 C1155 1.363 . S
C1151 H1122 0.950 . S
C1151 C1150 1.397 . S
C1151 C1152 1.334 . S
C1152 H1123 0.950 . S
C1152 C1151 1.334 . S
C1152 C1153 1.287 . S
C1153 C1152 1.287 . S
C1153 C1154 1.524 . S
C1153 H1156 0.999 . S
C1154 H1124 0.950 . S
C1154 C1153 1.524 . S
C1154 C1155 1.415 . S
C1155 H1125 0.950 . S
C1155 C1150 1.363 . S
C1155 C1154 1.415 . S
H1156 C1153 0.999 . S
H1157 C1138 0.913 . S
H1158 C1176 0.951 . S
H1159 C1178 0.951 . S
H1160 C1180 0.950 . S
H1161 C1181 0.950 . S
H1162 C1183 0.950 . S
H1163 C1186 0.944 1_554 S
H1164 C1187 0.950 1_554 S
H1165 C1189 0.950 . S
H1166 C1190 0.950 . S
H1167 C1191 0.951 . S
H1168 C1193 0.951 . S
H1169 C1195 0.950 . S
H1170 C1196 0.950 . S
H1171 C1198 0.950 . S
H1172 C1201 0.950 . S
H1173 C1202 0.950 1_556 S
H1174 C1204 0.950 . S
H1175 C1205 0.950 . S
C1176 H1158 0.951 . S
C1176 C1177 1.366 . S
C1176 C1178 1.388 . S
C1177 C1176 1.366 . S
C1177 C1181 1.385 . S
C1178 H1159 0.951 . S
C1178 C1176 1.388 . S
C1178 C1179 1.366 . S
C1179 C1178 1.366 . S
C1179 C1180 1.414 . S
C1179 C1182 1.499 . S
C1180 H1160 0.950 . S
C1180 C1179 1.414 . S
C1180 C1181 1.374 . S
C1181 H1161 0.950 . S
C1181 C1177 1.385 . S
C1181 C1180 1.374 . S
C1182 C1179 1.499 . S
C1182 C1183 1.373 . S
C1182 C1184 1.389 1_554 S
C1183 H1162 0.950 . S
C1183 C1182 1.373 . S
C1183 C1199 1.377 . S
C1184 C1182 1.389 1_556 S
C1184 C1185 1.524 . S
C1184 C1198 1.377 . S
C1185 C1184 1.524 . S
C1185 C1186 1.401 . S
C1185 C1190 1.363 . S
C1186 H1163 0.944 1_556 S
C1186 C1185 1.401 . S
C1186 C1187 1.336 . S
C1187 H1164 0.950 1_556 S
C1187 C1186 1.336 . S
C1187 C1188 1.287 . S
C1188 C1187 1.287 . S
C1188 C1189 1.524 . S
C1188 H1207 0.913 . S
C1189 H1165 0.950 . S
C1189 C1188 1.524 . S
C1189 C1190 1.415 . S
C1190 H1166 0.950 . S
C1190 C1185 1.363 . S
C1190 C1189 1.415 . S
C1191 H1167 0.951 . S
C1191 C1192 1.366 . S
C1191 C1193 1.388 . S
C1192 C1191 1.366 . S
C1192 C1196 1.385 . S
C1193 H1168 0.951 . S
C1193 C1191 1.388 . S
C1193 C1194 1.366 . S
C1194 C1193 1.366 . S
C1194 C1195 1.414 . S
C1194 C1197 1.499 . S
C1195 H1169 0.950 . S
C1195 C1194 1.414 . S
C1195 C1196 1.374 . S
C1196 H1170 0.950 . S
C1196 C1192 1.385 . S
C1196 C1195 1.374 . S
C1197 C1194 1.499 . S
C1197 C1198 1.373 . S
C1197 C1199 1.389 1_556 S
C1198 H1171 0.950 . S
C1198 C1184 1.377 . S
C1198 C1197 1.373 . S
C1199 C1183 1.377 . S
C1199 C1197 1.389 1_554 S
C1199 C1200 1.524 . S
C1200 C1199 1.524 . S
C1200 C1201 1.397 1_554 S
C1200 C1205 1.363 . S
C1201 H1172 0.950 . S
C1201 C1200 1.397 1_556 S
C1201 C1202 1.334 1_556 S
C1202 H1173 0.950 1_554 S
C1202 C1201 1.334 1_554 S
C1202 C1203 1.287 . S
C1203 C1202 1.287 . S
C1203 C1204 1.524 . S
C1203 H1206 0.999 . S
C1204 H1174 0.950 . S
C1204 C1203 1.524 . S
C1204 C1205 1.415 . S
C1205 H1175 0.950 . S
C1205 C1200 1.363 . S
C1205 C1204 1.415 . S
H1206 C1203 0.999 . S
H1207 C1188 0.913 . S
H1208 C1226 0.951 . S
H1209 C1228 0.951 . S
H1210 C1230 0.950 . S
H1211 C1231 0.950 . S
H1212 C1233 0.950 . S
H1213 C1236 0.950 . S
H1214 C1237 0.950 . S
H1215 C1239 0.950 . S
H1216 C1240 0.950 . S
H1217 C1241 0.951 . S
H1218 C1243 0.951 . S
H1219 C1245 0.950 . S
H1220 C1246 0.950 . S
H1221 C1248 0.950 . S
H1222 C1251 0.950 . S
H1223 C1252 0.950 . S
H1224 C1254 0.950 . S
H1225 C1255 0.950 . S
C1226 H1208 0.951 . S
C1226 C1227 1.366 . S
C1226 C1228 1.388 . S
C1227 C1226 1.366 . S
C1227 C1231 1.385 . S
C1228 H1209 0.951 . S
C1228 C1226 1.388 . S
C1228 C1229 1.366 . S
C1229 C1228 1.366 . S
C1229 C1230 1.414 . S
C1229 C1232 1.499 . S
C1230 H1210 0.950 . S
C1230 C1229 1.414 . S
C1230 C1231 1.374 . S
C1231 H1211 0.950 . S
C1231 C1227 1.385 . S
C1231 C1230 1.374 . S
C1232 C1229 1.499 . S
C1232 C1233 1.373 . S
C1232 C1234 1.389 . S
C1233 H1212 0.950 . S
C1233 C1232 1.373 . S
C1233 C1249 1.377 1_556 S
C1234 C1232 1.389 . S
C1234 C1235 1.524 . S
C1234 C1248 1.377 1_556 S
C1235 C1234 1.524 . S
C1235 C1236 1.397 . S
C1235 C1240 1.363 . S
C1236 H1213 0.950 . S
C1236 C1235 1.397 . S
C1236 C1237 1.334 . S
C1237 H1214 0.950 . S
C1237 C1236 1.334 . S
C1237 C1238 1.287 . S
C1238 C1237 1.287 . S
C1238 C1239 1.524 . S
C1238 H1257 0.913 . S
C1239 H1215 0.950 . S
C1239 C1238 1.524 . S
C1239 C1240 1.415 . S
C1240 H1216 0.950 . S
C1240 C1235 1.363 . S
C1240 C1239 1.415 . S
C1241 H1217 0.951 . S
C1241 C1242 1.366 . S
C1241 C1243 1.388 . S
C1242 C1241 1.366 . S
C1242 C1246 1.385 . S
C1243 H1218 0.951 . S
C1243 C1241 1.388 . S
C1243 C1244 1.366 . S
C1244 C1243 1.366 . S
C1244 C1245 1.414 . S
C1244 C1247 1.499 . S
C1245 H1219 0.950 . S
C1245 C1244 1.414 . S
C1245 C1246 1.374 . S
C1246 H1220 0.950 . S
C1246 C1242 1.385 . S
C1246 C1245 1.374 . S
C1247 C1244 1.499 . S
C1247 C1248 1.373 . S
C1247 C1249 1.389 . S
C1248 H1221 0.950 . S
C1248 C1234 1.377 1_554 S
C1248 C1247 1.373 . S
C1249 C1233 1.377 1_554 S
C1249 C1247 1.389 . S
C1249 C1250 1.524 . S
C1250 C1249 1.524 . S
C1250 C1251 1.397 . S
C1250 C1255 1.363 . S
C1251 H1222 0.950 . S
C1251 C1250 1.397 . S
C1251 C1252 1.334 . S
C1252 H1223 0.950 . S
C1252 C1251 1.334 . S
C1252 C1253 1.287 . S
C1253 C1252 1.287 . S
C1253 C1254 1.524 . S
C1253 H1256 0.999 . S
C1254 H1224 0.950 . S
C1254 C1253 1.524 . S
C1254 C1255 1.415 . S
C1255 H1225 0.950 . S
C1255 C1250 1.363 . S
C1255 C1254 1.415 . S
H1256 C1253 0.999 . S
H1257 C1238 0.913 . S
H1258 C1276 0.951 . S
H1259 C1278 0.951 . S
H1260 C1280 0.950 . S
H1261 C1281 0.950 . S
H1262 C1283 0.950 . S
H1263 C1286 0.950 . S
H1264 C1287 0.950 . S
H1265 C1289 0.950 . S
H1266 C1290 0.950 . S
H1267 C1291 0.951 . S
H1268 C1293 0.951 . S
H1269 C1295 0.950 . S
H1270 C1296 0.950 . S
H1271 C1298 0.950 . S
H1272 C1301 0.950 . S
H1273 C1302 0.950 . S
H1274 C1304 0.950 . S
H1275 C1305 0.950 . S
C1276 H1258 0.951 . S
C1276 C1277 1.366 . S
C1276 C1278 1.388 . S
C1277 C1276 1.366 . S
C1277 C1281 1.385 . S
C1278 H1259 0.951 . S
C1278 C1276 1.388 . S
C1278 C1279 1.366 . S
C1279 C1278 1.366 . S
C1279 C1280 1.414 . S
C1279 C1282 1.499 . S
C1280 H1260 0.950 . S
C1280 C1279 1.414 . S
C1280 C1281 1.374 . S
C1281 H1261 0.950 . S
C1281 C1277 1.385 . S
C1281 C1280 1.374 . S
C1282 C1279 1.499 . S
C1282 C1283 1.373 . S
C1282 C1284 1.389 . S
C1283 H1262 0.950 . S
C1283 C1282 1.373 . S
C1283 C1299 1.377 . S
C1284 C1282 1.389 . S
C1284 C1285 1.524 . S
C1284 C1298 1.377 . S
C1285 C1284 1.524 . S
C1285 C1286 1.397 . S
C1285 C1290 1.363 . S
C1286 H1263 0.950 . S
C1286 C1285 1.397 . S
C1286 C1287 1.334 . S
C1287 H1264 0.950 . S
C1287 C1286 1.334 . S
C1287 C1288 1.287 . S
C1288 C1287 1.287 . S
C1288 C1289 1.524 . S
C1288 H1307 0.913 . S
C1289 H1265 0.950 . S
C1289 C1288 1.524 . S
C1289 C1290 1.415 . S
C1290 H1266 0.950 . S
C1290 C1285 1.363 . S
C1290 C1289 1.415 . S
C1291 H1267 0.951 . S
C1291 C1292 1.366 . S
C1291 C1293 1.388 . S
C1292 C1291 1.366 . S
C1292 C1296 1.385 . S
C1293 H1268 0.951 . S
C1293 C1291 1.388 . S
C1293 C1294 1.366 . S
C1294 C1293 1.366 . S
C1294 C1295 1.414 . S
C1294 C1297 1.499 . S
C1295 H1269 0.950 . S
C1295 C1294 1.414 . S
C1295 C1296 1.374 . S
C1296 H1270 0.950 . S
C1296 C1292 1.385 . S
C1296 C1295 1.374 . S
C1297 C1294 1.499 . S
C1297 C1298 1.373 . S
C1297 C1299 1.389 . S
C1298 H1271 0.950 . S
C1298 C1284 1.377 . S
C1298 C1297 1.373 . S
C1299 C1283 1.377 . S
C1299 C1297 1.389 . S
C1299 C1300 1.524 . S
C1300 C1299 1.524 . S
C1300 C1301 1.397 . S
C1300 C1305 1.363 . S
C1301 H1272 0.950 . S
C1301 C1300 1.397 . S
C1301 C1302 1.334 . S
C1302 H1273 0.950 . S
C1302 C1301 1.334 . S
C1302 C1303 1.287 . S
C1303 C1302 1.287 . S
C1303 C1304 1.524 . S
C1303 H1306 0.999 . S
C1304 H1274 0.950 . S
C1304 C1303 1.524 . S
C1304 C1305 1.415 . S
C1305 H1275 0.950 . S
C1305 C1300 1.363 . S
C1305 C1304 1.415 . S
H1306 C1303 0.999 . S
H1307 C1288 0.913 . S
H1308 C1326 0.951 . S
H1309 C1328 0.951 . S
H1310 C1330 0.950 . S
H1311 C1331 0.950 . S
H1312 C1333 0.950 . S
H1313 C1336 0.950 . S
H1314 C1337 0.950 . S
H1315 C1339 0.950 . S
H1316 C1340 0.950 . S
H1317 C1341 0.951 . S
H1318 C1343 0.951 . S
H1319 C1345 0.950 . S
H1320 C1346 0.950 . S
H1321 C1348 0.950 . S
H1322 C1351 0.950 . S
H1323 C1352 0.950 . S
H1324 C1354 0.950 . S
H1325 C1355 0.950 . S
C1326 H1308 0.951 . S
C1326 C1327 1.366 . S
C1326 C1328 1.388 . S
C1327 C1326 1.366 . S
C1327 C1331 1.385 . S
C1328 H1309 0.951 . S
C1328 C1326 1.388 . S
C1328 C1329 1.366 . S
C1329 C1328 1.366 . S
C1329 C1330 1.414 . S
C1329 C1332 1.499 . S
C1330 H1310 0.950 . S
C1330 C1329 1.414 . S
C1330 C1331 1.374 . S
C1331 H1311 0.950 . S
C1331 C1327 1.385 . S
C1331 C1330 1.374 . S
C1332 C1329 1.499 . S
C1332 C1333 1.373 . S
C1332 C1334 1.389 . S
C1333 H1312 0.950 . S
C1333 C1332 1.373 . S
C1333 C1349 1.377 . S
C1334 C1332 1.389 . S
C1334 C1335 1.524 . S
C1334 C1348 1.377 . S
C1335 C1334 1.524 . S
C1335 C1336 1.397 . S
C1335 C1340 1.363 . S
C1336 H1313 0.950 . S
C1336 C1335 1.397 . S
C1336 C1337 1.334 . S
C1337 H1314 0.950 . S
C1337 C1336 1.334 . S
C1337 C1338 1.287 . S
C1338 C1337 1.287 . S
C1338 C1339 1.524 . S
C1338 H1357 0.913 . S
C1339 H1315 0.950 . S
C1339 C1338 1.524 . S
C1339 C1340 1.415 . S
C1340 H1316 0.950 . S
C1340 C1335 1.363 . S
C1340 C1339 1.415 . S
C1341 H1317 0.951 . S
C1341 C1342 1.366 . S
C1341 C1343 1.388 . S
C1342 C1341 1.366 . S
C1342 C1346 1.385 . S
C1343 H1318 0.951 . S
C1343 C1341 1.388 . S
C1343 C1344 1.366 . S
C1344 C1343 1.366 . S
C1344 C1345 1.414 . S
C1344 C1347 1.499 . S
C1345 H1319 0.950 . S
C1345 C1344 1.414 . S
C1345 C1346 1.374 . S
C1346 H1320 0.950 . S
C1346 C1342 1.385 . S
C1346 C1345 1.374 . S
C1347 C1344 1.499 . S
C1347 C1348 1.373 . S
C1347 C1349 1.389 . S
C1348 H1321 0.950 . S
C1348 C1334 1.377 . S
C1348 C1347 1.373 . S
C1349 C1333 1.377 . S
C1349 C1347 1.389 . S
C1349 C1350 1.524 . S
C1350 C1349 1.524 . S
C1350 C1351 1.397 . S
C1350 C1355 1.363 . S
C1351 H1322 0.950 . S
C1351 C1350 1.397 . S
C1351 C1352 1.334 . S
C1352 H1323 0.950 . S
C1352 C1351 1.334 . S
C1352 C1353 1.287 . S
C1353 C1352 1.287 . S
C1353 C1354 1.524 . S
C1353 H1356 0.999 . S
C1354 H1324 0.950 . S
C1354 C1353 1.524 . S
C1354 C1355 1.415 . S
C1355 H1325 0.950 . S
C1355 C1350 1.363 . S
C1355 C1354 1.415 . S
H1356 C1353 0.999 . S
H1357 C1338 0.913 . S
H1358 C1376 0.951 . S
H1359 C1378 0.951 . S
H1360 C1380 0.950 . S
H1361 C1381 0.950 . S
H1362 C1383 0.950 . S
H1363 C1386 0.950 . S
H1364 C1387 0.950 . S
H1365 C1389 0.950 . S
H1366 C1390 0.950 . S
H1367 C1391 0.951 . S
H1368 C1393 0.951 . S
H1369 C1395 0.950 . S
H1370 C1396 0.950 . S
H1371 C1398 0.950 . S
H1372 C1401 0.950 . S
H1373 C1402 0.950 . S
H1374 C1404 0.950 . S
H1375 C1405 0.950 . S
C1376 H1358 0.951 . S
C1376 C1377 1.366 . S
C1376 C1378 1.388 . S
C1377 C1376 1.366 . S
C1377 C1381 1.385 . S
C1378 H1359 0.951 . S
C1378 C1376 1.388 . S
C1378 C1379 1.366 . S
C1379 C1378 1.366 . S
C1379 C1380 1.414 . S
C1379 C1382 1.499 . S
C1380 H1360 0.950 . S
C1380 C1379 1.414 . S
C1380 C1381 1.374 . S
C1381 H1361 0.950 . S
C1381 C1377 1.385 . S
C1381 C1380 1.374 . S
C1382 C1379 1.499 . S
C1382 C1383 1.373 . S
C1382 C1384 1.389 . S
C1383 H1362 0.950 . S
C1383 C1382 1.373 . S
C1383 C1399 1.377 1_455 S
C1384 C1382 1.389 . S
C1384 C1385 1.524 . S
C1384 C1398 1.377 1_455 S
C1385 C1384 1.524 . S
C1385 C1386 1.397 . S
C1385 C1390 1.363 . S
C1386 H1363 0.950 . S
C1386 C1385 1.397 . S
C1386 C1387 1.334 . S
C1387 H1364 0.950 . S
C1387 C1386 1.334 . S
C1387 C1388 1.287 . S
C1388 C1387 1.287 . S
C1388 C1389 1.524 . S
C1388 H1407 0.913 . S
C1389 H1365 0.950 . S
C1389 C1388 1.524 . S
C1389 C1390 1.415 . S
C1390 H1366 0.950 . S
C1390 C1385 1.363 . S
C1390 C1389 1.415 . S
C1391 H1367 0.951 . S
C1391 C1392 1.366 . S
C1391 C1393 1.388 . S
C1392 C1391 1.366 . S
C1392 C1396 1.385 . S
C1393 H1368 0.951 . S
C1393 C1391 1.388 . S
C1393 C1394 1.366 . S
C1394 C1393 1.366 . S
C1394 C1395 1.414 . S
C1394 C1397 1.499 . S
C1395 H1369 0.950 . S
C1395 C1394 1.414 . S
C1395 C1396 1.374 . S
C1396 H1370 0.950 . S
C1396 C1392 1.385 . S
C1396 C1395 1.374 . S
C1397 C1394 1.499 . S
C1397 C1398 1.373 . S
C1397 C1399 1.389 . S
C1398 H1371 0.950 . S
C1398 C1384 1.377 1_655 S
C1398 C1397 1.373 . S
C1399 C1383 1.377 1_655 S
C1399 C1397 1.389 . S
C1399 C1400 1.524 . S
C1400 C1399 1.524 . S
C1400 C1401 1.397 . S
C1400 C1405 1.363 . S
C1401 H1372 0.950 . S
C1401 C1400 1.397 . S
C1401 C1402 1.334 . S
C1402 H1373 0.950 . S
C1402 C1401 1.334 . S
C1402 C1403 1.287 . S
C1403 C1402 1.287 . S
C1403 C1404 1.524 . S
C1403 H1406 0.999 . S
C1404 H1374 0.950 . S
C1404 C1403 1.524 . S
C1404 C1405 1.415 . S
C1405 H1375 0.950 . S
C1405 C1400 1.363 . S
C1405 C1404 1.415 . S
H1406 C1403 0.999 . S
H1407 C1388 0.913 . S
H1408 C1426 0.951 . S
H1409 C1428 0.951 . S
H1410 C1430 0.950 . S
H1411 C1431 0.950 . S
H1412 C1433 0.950 . S
H1413 C1436 0.950 . S
H1414 C1437 0.950 . S
H1415 C1439 0.950 . S
H1416 C1440 0.950 . S
H1417 C1441 0.951 . S
H1418 C1443 0.951 . S
H1419 C1445 0.950 . S
H1420 C1446 0.950 . S
H1421 C1448 0.950 . S
H1422 C1451 0.950 . S
H1423 C1452 0.950 . S
H1424 C1454 0.950 . S
H1425 C1455 0.950 . S
C1426 H1408 0.951 . S
C1426 C1427 1.366 . S
C1426 C1428 1.388 . S
C1427 C1426 1.366 . S
C1427 C1431 1.385 . S
C1428 H1409 0.951 . S
C1428 C1426 1.388 . S
C1428 C1429 1.366 . S
C1429 C1428 1.366 . S
C1429 C1430 1.414 . S
C1429 C1432 1.499 . S
C1430 H1410 0.950 . S
C1430 C1429 1.414 . S
C1430 C1431 1.374 . S
C1431 H1411 0.950 . S
C1431 C1427 1.385 . S
C1431 C1430 1.374 . S
C1432 C1429 1.499 . S
C1432 C1433 1.373 . S
C1432 C1434 1.389 . S
C1433 H1412 0.950 . S
C1433 C1432 1.373 . S
C1433 C1449 1.377 1_455 S
C1434 C1432 1.389 . S
C1434 C1435 1.524 . S
C1434 C1448 1.377 1_455 S
C1435 C1434 1.524 . S
C1435 C1436 1.397 . S
C1435 C1440 1.363 1_455 S
C1436 H1413 0.950 . S
C1436 C1435 1.397 . S
C1436 C1437 1.334 . S
C1437 H1414 0.950 . S
C1437 C1436 1.334 . S
C1437 C1438 1.287 . S
C1438 C1437 1.287 . S
C1438 C1439 1.524 1_455 S
C1438 H1457 0.913 . S
C1439 H1415 0.950 . S
C1439 C1438 1.524 1_655 S
C1439 C1440 1.415 . S
C1440 H1416 0.950 . S
C1440 C1435 1.363 1_655 S
C1440 C1439 1.415 . S
C1441 H1417 0.951 . S
C1441 C1442 1.366 . S
C1441 C1443 1.388 . S
C1442 C1441 1.366 . S
C1442 C1446 1.385 . S
C1443 H1418 0.951 . S
C1443 C1441 1.388 . S
C1443 C1444 1.366 . S
C1444 C1443 1.366 . S
C1444 C1445 1.414 . S
C1444 C1447 1.499 . S
C1445 H1419 0.950 . S
C1445 C1444 1.414 . S
C1445 C1446 1.374 . S
C1446 H1420 0.950 . S
C1446 C1442 1.385 . S
C1446 C1445 1.374 . S
C1447 C1444 1.499 . S
C1447 C1448 1.373 . S
C1447 C1449 1.389 . S
C1448 H1421 0.950 . S
C1448 C1434 1.377 1_655 S
C1448 C1447 1.373 . S
C1449 C1433 1.377 1_655 S
C1449 C1447 1.389 . S
C1449 C1450 1.524 . S
C1450 C1449 1.524 . S
C1450 C1451 1.397 . S
C1450 C1455 1.363 1_655 S
C1451 H1422 0.950 . S
C1451 C1450 1.397 . S
C1451 C1452 1.334 . S
C1452 H1423 0.950 . S
C1452 C1451 1.334 . S
C1452 C1453 1.287 . S
C1453 C1452 1.287 . S
C1453 C1454 1.524 1_655 S
C1453 H1456 0.999 . S
C1454 H1424 0.950 . S
C1454 C1453 1.524 1_455 S
C1454 C1455 1.415 . S
C1455 H1425 0.950 . S
C1455 C1450 1.363 1_455 S
C1455 C1454 1.415 . S
H1456 C1453 0.999 . S
H1457 C1438 0.913 . S
H1458 C1476 0.951 . S
H1459 C1478 0.951 . S
H1460 C1480 0.950 . S
H1461 C1481 0.950 . S
H1462 C1483 0.950 . S
H1463 C1486 0.950 . S
H1464 C1487 0.950 . S
H1465 C1489 0.950 . S
H1466 C1490 0.950 . S
H1467 C1491 0.951 . S
H1468 C1493 0.951 . S
H1469 C1495 0.950 . S
H1470 C1496 0.950 . S
H1471 C1498 0.950 . S
H1472 C1501 0.950 . S
H1473 C1502 0.950 . S
H1474 C1504 0.950 . S
H1475 C1505 0.950 . S
C1476 H1458 0.951 . S
C1476 C1477 1.366 . S
C1476 C1478 1.388 . S
C1477 C1476 1.366 . S
C1477 C1481 1.385 . S
C1478 H1459 0.951 . S
C1478 C1476 1.388 . S
C1478 C1479 1.366 . S
C1479 C1478 1.366 . S
C1479 C1480 1.414 . S
C1479 C1482 1.499 . S
C1480 H1460 0.950 . S
C1480 C1479 1.414 . S
C1480 C1481 1.374 . S
C1481 H1461 0.950 . S
C1481 C1477 1.385 . S
C1481 C1480 1.374 . S
C1482 C1479 1.499 . S
C1482 C1483 1.373 . S
C1482 C1484 1.389 . S
C1483 H1462 0.950 . S
C1483 C1482 1.373 . S
C1483 C1499 1.377 . S
C1484 C1482 1.389 . S
C1484 C1485 1.524 . S
C1484 C1498 1.377 . S
C1485 C1484 1.524 . S
C1485 C1486 1.397 . S
C1485 C1490 1.363 . S
C1486 H1463 0.950 . S
C1486 C1485 1.397 . S
C1486 C1487 1.334 . S
C1487 H1464 0.950 . S
C1487 C1486 1.334 . S
C1487 C1488 1.287 . S
C1488 C1487 1.287 . S
C1488 C1489 1.524 . S
C1488 H1507 0.913 . S
C1489 H1465 0.950 . S
C1489 C1488 1.524 . S
C1489 C1490 1.415 . S
C1490 H1466 0.950 . S
C1490 C1485 1.363 . S
C1490 C1489 1.415 . S
C1491 H1467 0.951 . S
C1491 C1492 1.366 . S
C1491 C1493 1.388 . S
C1492 C1491 1.366 . S
C1492 C1496 1.385 . S
C1493 H1468 0.951 . S
C1493 C1491 1.388 . S
C1493 C1494 1.366 . S
C1494 C1493 1.366 . S
C1494 C1495 1.414 . S
C1494 C1497 1.499 . S
C1495 H1469 0.950 . S
C1495 C1494 1.414 . S
C1495 C1496 1.374 . S
C1496 H1470 0.950 . S
C1496 C1492 1.385 . S
C1496 C1495 1.374 . S
C1497 C1494 1.499 . S
C1497 C1498 1.373 . S
C1497 C1499 1.389 . S
C1498 H1471 0.950 . S
C1498 C1484 1.377 . S
C1498 C1497 1.373 . S
C1499 C1483 1.377 . S
C1499 C1497 1.389 . S
C1499 C1500 1.524 . S
C1500 C1499 1.524 . S
C1500 C1501 1.397 . S
C1500 C1505 1.363 . S
C1501 H1472 0.950 . S
C1501 C1500 1.397 . S
C1501 C1502 1.334 . S
C1502 H1473 0.950 . S
C1502 C1501 1.334 . S
C1502 C1503 1.287 . S
C1503 C1502 1.287 . S
C1503 C1504 1.524 . S
C1503 H1506 0.999 . S
C1504 H1474 0.950 . S
C1504 C1503 1.524 . S
C1504 C1505 1.415 . S
C1505 H1475 0.950 . S
C1505 C1500 1.363 . S
C1505 C1504 1.415 . S
H1506 C1503 0.999 . S
H1507 C1488 0.913 . S
H1508 C1526 0.951 . S
H1509 C1528 0.951 . S
H1510 C1530 0.950 . S
H1511 C1531 0.950 . S
H1512 C1533 0.950 . S
H1513 C1536 0.950 . S
H1514 C1537 0.950 . S
H1515 C1539 0.950 . S
H1516 C1540 0.950 . S
H1517 C1541 0.951 . S
H1518 C1543 0.951 . S
H1519 C1545 0.950 . S
H1520 C1546 0.950 . S
H1521 C1548 0.950 . S
H1522 C1551 0.950 . S
H1523 C1552 0.950 . S
H1524 C1554 0.950 . S
H1525 C1555 0.950 . S
C1526 H1508 0.951 . S
C1526 C1527 1.366 . S
C1526 C1528 1.388 . S
C1527 C1526 1.366 . S
C1527 C1531 1.385 . S
C1528 H1509 0.951 . S
C1528 C1526 1.388 . S
C1528 C1529 1.366 . S
C1529 C1528 1.366 . S
C1529 C1530 1.414 . S
C1529 C1532 1.499 . S
C1530 H1510 0.950 . S
C1530 C1529 1.414 . S
C1530 C1531 1.374 . S
C1531 H1511 0.950 . S
C1531 C1527 1.385 . S
C1531 C1530 1.374 . S
C1532 C1529 1.499 . S
C1532 C1533 1.373 . S
C1532 C1534 1.389 . S
C1533 H1512 0.950 . S
C1533 C1532 1.373 . S
C1533 C1549 1.377 . S
C1534 C1532 1.389 . S
C1534 C1535 1.524 . S
C1534 C1548 1.377 . S
C1535 C1534 1.524 . S
C1535 C1536 1.397 . S
C1535 C1540 1.363 . S
C1536 H1513 0.950 . S
C1536 C1535 1.397 . S
C1536 C1537 1.334 . S
C1537 H1514 0.950 . S
C1537 C1536 1.334 . S
C1537 C1538 1.287 . S
C1538 C1537 1.287 . S
C1538 C1539 1.524 . S
C1538 H1557 0.913 . S
C1539 H1515 0.950 . S
C1539 C1538 1.524 . S
C1539 C1540 1.415 . S
C1540 H1516 0.950 . S
C1540 C1535 1.363 . S
C1540 C1539 1.415 . S
C1541 H1517 0.951 . S
C1541 C1542 1.366 . S
C1541 C1543 1.388 . S
C1542 C1541 1.366 . S
C1542 C1546 1.385 . S
C1543 H1518 0.951 . S
C1543 C1541 1.388 . S
C1543 C1544 1.366 . S
C1544 C1543 1.366 . S
C1544 C1545 1.414 . S
C1544 C1547 1.499 . S
C1545 H1519 0.950 . S
C1545 C1544 1.414 . S
C1545 C1546 1.374 . S
C1546 H1520 0.950 . S
C1546 C1542 1.385 . S
C1546 C1545 1.374 . S
C1547 C1544 1.499 . S
C1547 C1548 1.373 . S
C1547 C1549 1.389 . S
C1548 H1521 0.950 . S
C1548 C1534 1.377 . S
C1548 C1547 1.373 . S
C1549 C1533 1.377 . S
C1549 C1547 1.389 . S
C1549 C1550 1.524 . S
C1550 C1549 1.524 . S
C1550 C1551 1.397 . S
C1550 C1555 1.363 . S
C1551 H1522 0.950 . S
C1551 C1550 1.397 . S
C1551 C1552 1.334 . S
C1552 H1523 0.950 . S
C1552 C1551 1.334 . S
C1552 C1553 1.287 . S
C1553 C1552 1.287 . S
C1553 C1554 1.524 . S
C1553 H1556 0.999 . S
C1554 H1524 0.950 . S
C1554 C1553 1.524 . S
C1554 C1555 1.415 . S
C1555 H1525 0.950 . S
C1555 C1550 1.363 . S
C1555 C1554 1.415 . S
H1556 C1553 0.999 . S
H1557 C1538 0.913 . S
H1558 C1576 0.951 . S
H1559 C1578 0.951 . S
H1560 C1580 0.950 . S
H1561 C1581 0.950 . S
H1562 C1583 0.950 . S
H1563 C1586 0.950 . S
H1564 C1587 0.950 . S
H1565 C1589 0.950 . S
H1566 C1590 0.950 . S
H1567 C1591 0.951 . S
H1568 C1593 0.951 . S
H1569 C1595 0.950 . S
H1570 C1596 0.950 . S
H1571 C1598 0.950 . S
H1572 C1601 0.950 . S
H1573 C1602 0.950 . S
H1574 C1604 0.950 . S
H1575 C1605 0.950 . S
C1576 H1558 0.951 . S
C1576 C1577 1.366 . S
C1576 C1578 1.388 . S
C1577 C1576 1.366 . S
C1577 C1581 1.385 . S
C1578 H1559 0.951 . S
C1578 C1576 1.388 . S
C1578 C1579 1.366 . S
C1579 C1578 1.366 . S
C1579 C1580 1.414 . S
C1579 C1582 1.499 . S
C1580 H1560 0.950 . S
C1580 C1579 1.414 . S
C1580 C1581 1.374 . S
C1581 H1561 0.950 . S
C1581 C1577 1.385 . S
C1581 C1580 1.374 . S
C1582 C1579 1.499 . S
C1582 C1583 1.373 . S
C1582 C1584 1.389 . S
C1583 H1562 0.950 . S
C1583 C1582 1.373 . S
C1583 C1599 1.377 1_545 S
C1584 C1582 1.389 . S
C1584 C1585 1.524 . S
C1584 C1598 1.377 1_545 S
C1585 C1584 1.524 . S
C1585 C1586 1.397 . S
C1585 C1590 1.363 . S
C1586 H1563 0.950 . S
C1586 C1585 1.397 . S
C1586 C1587 1.334 . S
C1587 H1564 0.950 . S
C1587 C1586 1.334 . S
C1587 C1588 1.287 . S
C1588 C1587 1.287 . S
C1588 C1589 1.524 . S
C1588 H1607 0.913 . S
C1589 H1565 0.950 . S
C1589 C1588 1.524 . S
C1589 C1590 1.415 . S
C1590 H1566 0.950 . S
C1590 C1585 1.363 . S
C1590 C1589 1.415 . S
C1591 H1567 0.951 . S
C1591 C1592 1.366 . S
C1591 C1593 1.388 . S
C1592 C1591 1.366 . S
C1592 C1596 1.385 . S
C1593 H1568 0.951 . S
C1593 C1591 1.388 . S
C1593 C1594 1.366 . S
C1594 C1593 1.366 . S
C1594 C1595 1.414 . S
C1594 C1597 1.499 . S
C1595 H1569 0.950 . S
C1595 C1594 1.414 . S
C1595 C1596 1.374 . S
C1596 H1570 0.950 . S
C1596 C1592 1.385 . S
C1596 C1595 1.374 . S
C1597 C1594 1.499 . S
C1597 C1598 1.373 . S
C1597 C1599 1.389 . S
C1598 H1571 0.950 . S
C1598 C1584 1.377 1_565 S
C1598 C1597 1.373 . S
C1599 C1583 1.377 1_565 S
C1599 C1597 1.389 . S
C1599 C1600 1.524 . S
C1600 C1599 1.524 . S
C1600 C1601 1.397 . S
C1600 C1605 1.363 . S
C1601 H1572 0.950 . S
C1601 C1600 1.397 . S
C1601 C1602 1.334 . S
C1602 H1573 0.950 . S
C1602 C1601 1.334 . S
C1602 C1603 1.287 . S
C1603 C1602 1.287 . S
C1603 C1604 1.524 . S
C1603 H1606 0.999 . S
C1604 H1574 0.950 . S
C1604 C1603 1.524 . S
C1604 C1605 1.415 . S
C1605 H1575 0.950 . S
C1605 C1600 1.363 . S
C1605 C1604 1.415 . S
H1606 C1603 0.999 . S
H1607 C1588 0.913 . S
H1608 C1626 0.951 . S
H1609 C1628 0.951 . S
H1610 C1630 0.950 . S
H1611 C1631 0.950 . S
H1612 C1633 0.950 . S
H1613 C1636 0.950 . S
H1614 C1637 0.950 . S
H1615 C1639 0.950 . S
H1616 C1640 0.950 . S
H1617 C1641 0.951 . S
H1618 C1643 0.951 . S
H1619 C1645 0.950 . S
H1620 C1646 0.950 . S
H1621 C1648 0.950 . S
H1622 C1651 0.950 . S
H1623 C1652 0.950 . S
H1624 C1654 0.950 . S
H1625 C1655 0.950 . S
C1626 H1608 0.951 . S
C1626 C1627 1.366 . S
C1626 C1628 1.388 . S
C1627 C1626 1.366 . S
C1627 C1631 1.385 . S
C1628 H1609 0.951 . S
C1628 C1626 1.388 . S
C1628 C1629 1.366 . S
C1629 C1628 1.366 . S
C1629 C1630 1.414 . S
C1629 C1632 1.499 . S
C1630 H1610 0.950 . S
C1630 C1629 1.414 . S
C1630 C1631 1.374 . S
C1631 H1611 0.950 . S
C1631 C1627 1.385 . S
C1631 C1630 1.374 . S
C1632 C1629 1.499 . S
C1632 C1633 1.373 . S
C1632 C1634 1.389 . S
C1633 H1612 0.950 . S
C1633 C1632 1.373 . S
C1633 C1649 1.377 . S
C1634 C1632 1.389 . S
C1634 C1635 1.524 . S
C1634 C1648 1.377 . S
C1635 C1634 1.524 . S
C1635 C1636 1.397 . S
C1635 C1640 1.363 . S
C1636 H1613 0.950 . S
C1636 C1635 1.397 . S
C1636 C1637 1.334 . S
C1637 H1614 0.950 . S
C1637 C1636 1.334 . S
C1637 C1638 1.287 . S
C1638 C1637 1.287 . S
C1638 C1639 1.524 . S
C1638 H1657 0.913 . S
C1639 H1615 0.950 . S
C1639 C1638 1.524 . S
C1639 C1640 1.415 . S
C1640 H1616 0.950 . S
C1640 C1635 1.363 . S
C1640 C1639 1.415 . S
C1641 H1617 0.951 . S
C1641 C1642 1.366 . S
C1641 C1643 1.388 . S
C1642 C1641 1.366 . S
C1642 C1646 1.385 . S
C1643 H1618 0.951 . S
C1643 C1641 1.388 . S
C1643 C1644 1.366 . S
C1644 C1643 1.366 . S
C1644 C1645 1.414 . S
C1644 C1647 1.499 . S
C1645 H1619 0.950 . S
C1645 C1644 1.414 . S
C1645 C1646 1.374 . S
C1646 H1620 0.950 . S
C1646 C1642 1.385 . S
C1646 C1645 1.374 . S
C1647 C1644 1.499 . S
C1647 C1648 1.373 . S
C1647 C1649 1.389 . S
C1648 H1621 0.950 . S
C1648 C1634 1.377 . S
C1648 C1647 1.373 . S
C1649 C1633 1.377 . S
C1649 C1647 1.389 . S
C1649 C1650 1.524 . S
C1650 C1649 1.524 . S
C1650 C1651 1.397 . S
C1650 C1655 1.363 . S
C1651 H1622 0.950 . S
C1651 C1650 1.397 . S
C1651 C1652 1.334 . S
C1652 H1623 0.950 . S
C1652 C1651 1.334 . S
C1652 C1653 1.287 . S
C1653 C1652 1.287 . S
C1653 C1654 1.524 . S
C1653 H1656 0.999 . S
C1654 H1624 0.950 . S
C1654 C1653 1.524 . S
C1654 C1655 1.415 . S
C1655 H1625 0.950 . S
C1655 C1650 1.363 . S
C1655 C1654 1.415 . S
H1656 C1653 0.999 . S
H1657 C1638 0.913 . S
H1658 C1676 0.951 . S
H1659 C1678 0.951 . S
H1660 C1680 0.950 . S
H1661 C1681 0.950 . S
H1662 C1683 0.950 . S
H1663 C1686 0.950 . S
H1664 C1687 0.950 . S
H1665 C1689 0.950 . S
H1666 C1690 0.950 . S
H1667 C1691 0.951 . S
H1668 C1693 0.951 . S
H1669 C1695 0.950 . S
H1670 C1696 0.950 . S
H1671 C1698 0.950 . S
H1672 C1701 0.950 . S
H1673 C1702 0.950 . S
H1674 C1704 0.950 . S
H1675 C1705 0.950 . S
C1676 H1658 0.951 . S
C1676 C1677 1.366 . S
C1676 C1678 1.388 . S
C1677 C1676 1.366 . S
C1677 C1681 1.385 . S
C1678 H1659 0.951 . S
C1678 C1676 1.388 . S
C1678 C1679 1.366 . S
C1679 C1678 1.366 . S
C1679 C1680 1.414 . S
C1679 C1682 1.499 . S
C1680 H1660 0.950 . S
C1680 C1679 1.414 . S
C1680 C1681 1.374 . S
C1681 H1661 0.950 . S
C1681 C1677 1.385 . S
C1681 C1680 1.374 . S
C1682 C1679 1.499 . S
C1682 C1683 1.373 . S
C1682 C1684 1.389 . S
C1683 H1662 0.950 . S
C1683 C1682 1.373 . S
C1683 C1699 1.377 . S
C1684 C1682 1.389 . S
C1684 C1685 1.524 . S
C1684 C1698 1.377 . S
C1685 C1684 1.524 . S
C1685 C1686 1.397 . S
C1685 C1690 1.363 . S
C1686 H1663 0.950 . S
C1686 C1685 1.397 . S
C1686 C1687 1.334 . S
C1687 H1664 0.950 . S
C1687 C1686 1.334 . S
C1687 C1688 1.287 . S
C1688 C1687 1.287 . S
C1688 C1689 1.524 . S
C1688 H1707 0.913 . S
C1689 H1665 0.950 . S
C1689 C1688 1.524 . S
C1689 C1690 1.415 . S
C1690 H1666 0.950 . S
C1690 C1685 1.363 . S
C1690 C1689 1.415 . S
C1691 H1667 0.951 . S
C1691 C1692 1.366 . S
C1691 C1693 1.388 . S
C1692 C1691 1.366 . S
C1692 C1696 1.385 . S
C1693 H1668 0.951 . S
C1693 C1691 1.388 . S
C1693 C1694 1.366 . S
C1694 C1693 1.366 . S
C1694 C1695 1.414 . S
C1694 C1697 1.499 . S
C1695 H1669 0.950 . S
C1695 C1694 1.414 . S
C1695 C1696 1.374 . S
C1696 H1670 0.950 . S
C1696 C1692 1.385 . S
C1696 C1695 1.374 . S
C1697 C1694 1.499 . S
C1697 C1698 1.373 . S
C1697 C1699 1.389 . S
C1698 H1671 0.950 . S
C1698 C1684 1.377 . S
C1698 C1697 1.373 . S
C1699 C1683 1.377 . S
C1699 C1697 1.389 . S
C1699 C1700 1.524 . S
C1700 C1699 1.524 . S
C1700 C1701 1.397 . S
C1700 C1705 1.363 . S
C1701 H1672 0.950 . S
C1701 C1700 1.397 . S
C1701 C1702 1.334 . S
C1702 H1673 0.950 . S
C1702 C1701 1.334 . S
C1702 C1703 1.287 . S
C1703 C1702 1.287 . S
C1703 C1704 1.524 . S
C1703 H1706 0.999 . S
C1704 H1674 0.950 . S
C1704 C1703 1.524 . S
C1704 C1705 1.415 . S
C1705 H1675 0.950 . S
C1705 C1700 1.363 . S
C1705 C1704 1.415 . S
H1706 C1703 0.999 . S
H1707 C1688 0.913 . S
H1708 C1726 0.951 . S
H1709 C1728 0.951 . S
H1710 C1730 0.950 . S
H1711 C1731 0.950 . S
H1712 C1733 0.950 . S
H1713 C1736 0.959 . S
H1714 C1737 0.950 . S
H1715 C1739 0.950 . S
H1716 C1740 0.950 . S
H1717 C1741 0.951 . S
H1718 C1743 0.951 . S
H1719 C1745 0.950 . S
H1720 C1746 0.950 . S
H1721 C1748 0.950 . S
H1722 C1751 0.950 . S
H1723 C1752 0.950 . S
H1724 C1754 0.950 . S
H1725 C1755 0.950 . S
C1726 H1708 0.951 . S
C1726 C1727 1.366 . S
C1726 C1728 1.388 . S
C1727 C1726 1.366 . S
C1727 C1731 1.385 . S
C1728 H1709 0.951 . S
C1728 C1726 1.388 . S
C1728 C1729 1.366 . S
C1729 C1728 1.366 . S
C1729 C1730 1.414 . S
C1729 C1732 1.499 . S
C1730 H1710 0.950 . S
C1730 C1729 1.414 . S
C1730 C1731 1.374 . S
C1731 H1711 0.950 . S
C1731 C1727 1.385 . S
C1731 C1730 1.374 . S
C1732 C1729 1.499 . S
C1732 C1733 1.373 . S
C1732 C1734 1.389 1_545 S
C1733 H1712 0.950 . S
C1733 C1732 1.373 . S
C1733 C1749 1.377 1_545 S
C1734 C1732 1.389 1_565 S
C1734 C1735 1.524 . S
C1734 C1748 1.377 . S
C1735 C1734 1.524 . S
C1735 C1736 1.397 . S
C1735 C1740 1.363 . S
C1736 H1713 0.959 . S
C1736 C1735 1.397 . S
C1736 C1737 1.334 . S
C1737 H1714 0.950 . S
C1737 C1736 1.334 . S
C1737 C1738 1.287 . S
C1738 C1737 1.287 . S
C1738 C1739 1.524 . S
C1738 H1757 0.913 . S
C1739 H1715 0.950 . S
C1739 C1738 1.524 . S
C1739 C1740 1.415 . S
C1740 H1716 0.950 . S
C1740 C1735 1.363 . S
C1740 C1739 1.415 . S
C1741 H1717 0.951 . S
C1741 C1742 1.366 . S
C1741 C1743 1.388 . S
C1742 C1741 1.366 . S
C1742 C1746 1.385 . S
C1743 H1718 0.951 . S
C1743 C1741 1.388 . S
C1743 C1744 1.366 . S
C1744 C1743 1.366 . S
C1744 C1745 1.414 . S
C1744 C1747 1.499 . S
C1745 H1719 0.950 . S
C1745 C1744 1.414 . S
C1745 C1746 1.374 . S
C1746 H1720 0.950 . S
C1746 C1742 1.385 . S
C1746 C1745 1.374 . S
C1747 C1744 1.499 . S
C1747 C1748 1.373 . S
C1747 C1749 1.389 . S
C1748 H1721 0.950 . S
C1748 C1734 1.377 . S
C1748 C1747 1.373 . S
C1749 C1733 1.377 1_565 S
C1749 C1747 1.389 . S
C1749 C1750 1.524 . S
C1750 C1749 1.524 . S
C1750 C1751 1.397 . S
C1750 C1755 1.363 1_565 S
C1751 H1722 0.950 . S
C1751 C1750 1.397 . S
C1751 C1752 1.334 . S
C1752 H1723 0.950 . S
C1752 C1751 1.334 . S
C1752 C1753 1.287 1_565 S
C1753 C1752 1.287 1_545 S
C1753 C1754 1.524 . S
C1753 H1756 0.999 . S
C1754 H1724 0.950 . S
C1754 C1753 1.524 . S
C1754 C1755 1.415 . S
C1755 H1725 0.950 . S
C1755 C1750 1.363 1_545 S
C1755 C1754 1.415 . S
H1756 C1753 0.999 . S
H1757 C1738 0.913 . S
H1758 C1776 0.951 . S
H1759 C1778 0.951 . S
H1760 C1780 0.950 . S
H1761 C1781 0.950 . S
H1762 C1783 0.950 . S
H1763 C1786 0.950 . S
H1764 C1787 0.950 . S
H1765 C1789 0.950 . S
H1766 C1790 0.950 . S
H1767 C1791 0.951 . S
H1768 C1793 0.951 . S
H1769 C1795 0.950 . S
H1770 C1796 0.950 . S
H1771 C1798 0.950 . S
H1772 C1801 0.950 . S
H1773 C1802 0.950 . S
H1774 C1804 0.950 . S
H1775 C1805 0.950 . S
C1776 H1758 0.951 . S
C1776 C1777 1.366 . S
C1776 C1778 1.388 . S
C1777 C1776 1.366 . S
C1777 C1781 1.385 . S
C1778 H1759 0.951 . S
C1778 C1776 1.388 . S
C1778 C1779 1.366 . S
C1779 C1778 1.366 . S
C1779 C1780 1.414 . S
C1779 C1782 1.499 . S
C1780 H1760 0.950 . S
C1780 C1779 1.414 . S
C1780 C1781 1.374 . S
C1781 H1761 0.950 . S
C1781 C1777 1.385 . S
C1781 C1780 1.374 . S
C1782 C1779 1.499 . S
C1782 C1783 1.373 . S
C1782 C1784 1.389 . S
C1783 H1762 0.950 . S
C1783 C1782 1.373 . S
C1783 C1799 1.377 . S
C1784 C1782 1.389 . S
C1784 C1785 1.524 . S
C1784 C1798 1.377 . S
C1785 C1784 1.524 . S
C1785 C1786 1.397 . S
C1785 C1790 1.363 . S
C1786 H1763 0.950 . S
C1786 C1785 1.397 . S
C1786 C1787 1.334 . S
C1787 H1764 0.950 . S
C1787 C1786 1.334 . S
C1787 C1788 1.287 . S
C1788 C1787 1.287 . S
C1788 C1789 1.524 . S
C1788 H1807 0.913 . S
C1789 H1765 0.950 . S
C1789 C1788 1.524 . S
C1789 C1790 1.415 . S
C1790 H1766 0.950 . S
C1790 C1785 1.363 . S
C1790 C1789 1.415 . S
C1791 H1767 0.951 . S
C1791 C1792 1.366 . S
C1791 C1793 1.388 . S
C1792 C1791 1.366 . S
C1792 C1796 1.385 . S
C1793 H1768 0.951 . S
C1793 C1791 1.388 . S
C1793 C1794 1.366 . S
C1794 C1793 1.366 . S
C1794 C1795 1.414 . S
C1794 C1797 1.499 . S
C1795 H1769 0.950 . S
C1795 C1794 1.414 . S
C1795 C1796 1.374 . S
C1796 H1770 0.950 . S
C1796 C1792 1.385 . S
C1796 C1795 1.374 . S
C1797 C1794 1.499 . S
C1797 C1798 1.373 . S
C1797 C1799 1.389 . S
C1798 H1771 0.950 . S
C1798 C1784 1.377 . S
C1798 C1797 1.373 . S
C1799 C1783 1.377 . S
C1799 C1797 1.389 . S
C1799 C1800 1.524 . S
C1800 C1799 1.524 . S
C1800 C1801 1.397 . S
C1800 C1805 1.363 . S
C1801 H1772 0.950 . S
C1801 C1800 1.397 . S
C1801 C1802 1.334 . S
C1802 H1773 0.950 . S
C1802 C1801 1.334 . S
C1802 C1803 1.287 . S
C1803 C1802 1.287 . S
C1803 C1804 1.524 . S
C1803 H1806 0.999 . S
C1804 H1774 0.950 . S
C1804 C1803 1.524 . S
C1804 C1805 1.415 . S
C1805 H1775 0.950 . S
C1805 C1800 1.363 . S
C1805 C1804 1.415 . S
H1806 C1803 0.999 . S
H1807 C1788 0.913 . S
C227 C8 0.887 . S
C242 C177 0.890 . S
C277 C21 0.887 . S
C292 C125 0.890 . S
C327 C190 0.927 . S
C342 C34 0.929 . S
C377 C47 0.929 . S
C392 C203 0.927 . S
C427 C60 0.887 . S
C442 C86 0.889 . S
C477 C138 0.888 . S
C492 C73 0.889 . S
C527 C151 0.928 . S
C542 C99 0.928 . S
C577 C112 0.928 . S
C592 C164 0.928 . S
C627 C26 1.560 . S
C642 C5 1.564 . S
C677 C18 1.565 . S
C692 C39 1.560 . S
C727 C161 1.591 . S
C742 C10 1.574 . S
C777 C23 1.574 . S
C792 C148 1.591 . S
C827 C62 1.574 . S
C842 C31 1.592 . S
C877 C140 1.574 . S
C892 C44 1.591 . S
C927 C13 1.560 . S
C942 C0 1.560 . S
C977 C49 1.503 . S
C992 C36 1.503 . S
C1027 C130 1.560 . S
C1042 C52 1.560 . S
C1077 C96 1.631 . S
C1092 C65 1.642 . S
C1127 C78 1.642 . S
C1142 C109 1.631 . S
C1177 C195 1.559 . S
C1192 C75 1.528 . S
C1227 C88 1.528 . S
C1242 C182 1.558 . S
C1277 C127 1.528 . S
C1292 C91 1.558 . S
C1327 C104 1.558 . S
C1342 C179 1.528 . S
C1377 C83 1.618 . S
C1392 C70 1.619 . S
C1427 C114 1.429 . S
C1442 C101 1.429 . S
C1477 C122 1.619 . S
C1492 C174 1.618 . S
C1527 C135 1.565 . S
C1542 C143 1.560 . S
C1577 C156 1.560 . S
C1592 C57 1.564 . S
C1627 C166 1.502 . S
C1642 C153 1.503 . S
C1677 C187 1.630 . S
C1692 C169 1.642 . S
C1727 C117 1.642 . S
C1742 C200 1.630 . S
C1777 C205 1.430 . S
C1792 C192 1.429 . S
