# Generated by pormake.
# Topology whh, (6)-cn, num edge types: 1
# Building blocks:
#     Node 0, Type 0, BuildingBlock: MIFKUJ_clean_sbu_0, # of connection points: 6
#     Node 1, Type 0, BuildingBlock: MIFKUJ_clean_sbu_0, # of connection points: 6
#     Node 2, Type 0, BuildingBlock: MIFKUJ_clean_sbu_0, # of connection points: 6
#     Node 3, Type 0, BuildingBlock: MIFKUJ_clean_sbu_0, # of connection points: 6
#     Node 4, Type 0, BuildingBlock: MIFKUJ_clean_sbu_0, # of connection points: 6
#     Node 5, Type 0, BuildingBlock: MIFKUJ_clean_sbu_0, # of connection points: 6
#     Node 6, Type 0, BuildingBlock: MIFKUJ_clean_sbu_0, # of connection points: 6
#     Node 7, Type 0, BuildingBlock: MIFKUJ_clean_sbu_0, # of connection points: 6
#     Node 8, Type 0, BuildingBlock: MIFKUJ_clean_sbu_0, # of connection points: 6
#     Node 9, Type 0, BuildingBlock: MIFKUJ_clean_sbu_0, # of connection points: 6
#     Node 10, Type 0, BuildingBlock: MIFKUJ_clean_sbu_0, # of connection points: 6
#     Node 11, Type 0, BuildingBlock: MIFKUJ_clean_sbu_0, # of connection points: 6
#     Node 12, Type 0, BuildingBlock: MIFKUJ_clean_sbu_0, # of connection points: 6
#     Node 13, Type 0, BuildingBlock: MIFKUJ_clean_sbu_0, # of connection points: 6
#     Node 14, Type 0, BuildingBlock: MIFKUJ_clean_sbu_0, # of connection points: 6
#     Node 15, Type 0, BuildingBlock: MIFKUJ_clean_sbu_0, # of connection points: 6
#     Edge 16, Type (0, 0), BuildingBlock: AJUNOK_clean_linker_0, # of connection points: 2
#     Edge 17, Type (0, 0), BuildingBlock: AJUNOK_clean_linker_0, # of connection points: 2
#     Edge 18, Type (0, 0), BuildingBlock: AJUNOK_clean_linker_0, # of connection points: 2
#     Edge 19, Type (0, 0), BuildingBlock: AJUNOK_clean_linker_0, # of connection points: 2
#     Edge 20, Type (0, 0), BuildingBlock: AJUNOK_clean_linker_0, # of connection points: 2
#     Edge 21, Type (0, 0), BuildingBlock: AJUNOK_clean_linker_0, # of connection points: 2
#     Edge 22, Type (0, 0), BuildingBlock: AJUNOK_clean_linker_0, # of connection points: 2
#     Edge 23, Type (0, 0), BuildingBlock: AJUNOK_clean_linker_0, # of connection points: 2
#     Edge 24, Type (0, 0), BuildingBlock: AJUNOK_clean_linker_0, # of connection points: 2
#     Edge 25, Type (0, 0), BuildingBlock: AJUNOK_clean_linker_0, # of connection points: 2
#     Edge 26, Type (0, 0), BuildingBlock: AJUNOK_clean_linker_0, # of connection points: 2
#     Edge 27, Type (0, 0), BuildingBlock: AJUNOK_clean_linker_0, # of connection points: 2
#     Edge 28, Type (0, 0), BuildingBlock: AJUNOK_clean_linker_0, # of connection points: 2
#     Edge 29, Type (0, 0), BuildingBlock: AJUNOK_clean_linker_0, # of connection points: 2
#     Edge 30, Type (0, 0), BuildingBlock: AJUNOK_clean_linker_0, # of connection points: 2
#     Edge 31, Type (0, 0), BuildingBlock: AJUNOK_clean_linker_0, # of connection points: 2
#     Edge 32, Type (0, 0), BuildingBlock: AJUNOK_clean_linker_0, # of connection points: 2
#     Edge 33, Type (0, 0), BuildingBlock: AJUNOK_clean_linker_0, # of connection points: 2
#     Edge 34, Type (0, 0), BuildingBlock: AJUNOK_clean_linker_0, # of connection points: 2
#     Edge 35, Type (0, 0), BuildingBlock: AJUNOK_clean_linker_0, # of connection points: 2
#     Edge 36, Type (0, 0), BuildingBlock: AJUNOK_clean_linker_0, # of connection points: 2
#     Edge 37, Type (0, 0), BuildingBlock: AJUNOK_clean_linker_0, # of connection points: 2
#     Edge 38, Type (0, 0), BuildingBlock: AJUNOK_clean_linker_0, # of connection points: 2
#     Edge 39, Type (0, 0), BuildingBlock: AJUNOK_clean_linker_0, # of connection points: 2
#     Edge 40, Type (0, 0), BuildingBlock: AJUNOK_clean_linker_0, # of connection points: 2
#     Edge 41, Type (0, 0), BuildingBlock: AJUNOK_clean_linker_0, # of connection points: 2
#     Edge 42, Type (0, 0), BuildingBlock: AJUNOK_clean_linker_0, # of connection points: 2
#     Edge 43, Type (0, 0), BuildingBlock: AJUNOK_clean_linker_0, # of connection points: 2
#     Edge 44, Type (0, 0), BuildingBlock: AJUNOK_clean_linker_0, # of connection points: 2
#     Edge 45, Type (0, 0), BuildingBlock: AJUNOK_clean_linker_0, # of connection points: 2
#     Edge 46, Type (0, 0), BuildingBlock: AJUNOK_clean_linker_0, # of connection points: 2
#     Edge 47, Type (0, 0), BuildingBlock: AJUNOK_clean_linker_0, # of connection points: 2
#     Edge 48, Type (0, 0), BuildingBlock: AJUNOK_clean_linker_0, # of connection points: 2
#     Edge 49, Type (0, 0), BuildingBlock: AJUNOK_clean_linker_0, # of connection points: 2
#     Edge 50, Type (0, 0), BuildingBlock: AJUNOK_clean_linker_0, # of connection points: 2
#     Edge 51, Type (0, 0), BuildingBlock: AJUNOK_clean_linker_0, # of connection points: 2
#     Edge 52, Type (0, 0), BuildingBlock: AJUNOK_clean_linker_0, # of connection points: 2
#     Edge 53, Type (0, 0), BuildingBlock: AJUNOK_clean_linker_0, # of connection points: 2
#     Edge 54, Type (0, 0), BuildingBlock: AJUNOK_clean_linker_0, # of connection points: 2
#     Edge 55, Type (0, 0), BuildingBlock: AJUNOK_clean_linker_0, # of connection points: 2
#     Edge 56, Type (0, 0), BuildingBlock: AJUNOK_clean_linker_0, # of connection points: 2
#     Edge 57, Type (0, 0), BuildingBlock: AJUNOK_clean_linker_0, # of connection points: 2
#     Edge 58, Type (0, 0), BuildingBlock: AJUNOK_clean_linker_0, # of connection points: 2
#     Edge 59, Type (0, 0), BuildingBlock: AJUNOK_clean_linker_0, # of connection points: 2
#     Edge 60, Type (0, 0), BuildingBlock: AJUNOK_clean_linker_0, # of connection points: 2
#     Edge 61, Type (0, 0), BuildingBlock: AJUNOK_clean_linker_0, # of connection points: 2
#     Edge 62, Type (0, 0), BuildingBlock: AJUNOK_clean_linker_0, # of connection points: 2
#     Edge 63, Type (0, 0), BuildingBlock: AJUNOK_clean_linker_0, # of connection points: 2
# Relax obj value: 0.511
# Max RMSD: 0.323
# Mean RMSD: 0.297
data_MOF--net-whh--node1-MIFKUJ_clean_sbu_0--edge1-AJUNOK_clean_linker_0
_symmetry_space_group_name_H-M    P1
_symmetry_Int_Tables_number       1
_symmetry_cell_setting            triclinic
loop_
_symmetry_equiv_pos_as_xyz
'x, y, z'
_cell_length_a     28.849379
_cell_length_b     28.347327
_cell_length_c     30.322826
_cell_angle_alpha  92.414761
_cell_angle_beta   85.174469
_cell_angle_gamma 89.98535
loop_
_atom_site_label
_atom_site_type_symbol
_atom_site_fract_x
_atom_site_fract_y
_atom_site_fract_z
_atom_type_partial_charge
Zn0 Zn 0.08643 0.66056 0.09555 0.0
Zn1 Zn 0.99238 0.62474 0.12752 0.0
C2 C 0.03032 0.73243 0.04815 0.0
O3 O 0.03534 0.71073 0.00888 0.0
C4 C 0.05565 0.53757 0.13615 0.0
O5 O 0.04201 0.51405 0.10139 0.0
O6 O 0.15526 0.67633 0.08265 0.0
O7 O 0.07495 0.66824 0.16413 0.0
O8 O 0.00062 0.68422 0.16223 0.0
C9 C 0.16797 0.71892 0.08954 0.0
O10 O 0.13601 0.75105 0.10142 0.0
O11 O 0.04882 0.71553 0.08047 0.0
C12 C 0.91607 0.56187 0.1263 0.0
O13 O 0.94919 0.53413 0.10773 0.0
O14 O 0.92689 0.60258 0.1411 0.0
O15 O 0.99682 0.632 0.06302 0.0
O16 O 0.06592 0.60123 0.05767 0.0
O17 O 0.03832 0.57791 0.148 0.0
C18 C 0.03802 0.68935 0.18109 0.0
C19 C 0.02527 0.60255 0.04391 0.0
Zn20 Zn 0.85427 0.07461 0.12017 0.0
Zn21 Zn 0.87863 0.97597 0.13112 0.0
C22 C 0.78251 0.03897 0.05887 0.0
O23 O 0.78575 0.07771 0.03651 0.0
C24 C 0.96807 0.99051 0.16844 0.0
O25 O 0.98489 0.96492 0.1336 0.0
O26 O 0.84001 0.14286 0.11178 0.0
O27 O 0.83874 0.06065 0.18402 0.0
O28 O 0.81737 0.98833 0.16493 0.0
C29 C 0.79881 0.15918 0.11719 0.0
O30 O 0.76448 0.13055 0.12865 0.0
O31 O 0.80768 0.03396 0.09059 0.0
C32 C 0.8969 0.88496 0.08786 0.0
O33 O 0.87871 0.90365 0.05435 0.0
O34 O 0.89421 0.90727 0.12525 0.0
O35 O 0.8893 0.99745 0.06957 0.0
O36 O 0.92035 0.06156 0.09482 0.0
O37 O 0.92543 1.00242 0.17131 0.0
C38 C 0.81316 0.02459 0.19116 0.0
C39 C 0.92206 0.0268 0.0671 0.0
Zn40 Zn 0.43929 0.84432 0.09537 0.0
Zn41 Zn 0.53908 0.87609 0.10832 0.0
C42 C 0.46864 0.76998 0.02826 0.0
O43 O 0.4277 0.77568 0.01326 0.0
C44 C 0.50378 0.96524 0.16539 0.0
O45 O 0.50437 0.99433 0.1328 0.0
O46 O 0.37214 0.82253 0.09023 0.0
O47 O 0.45485 0.83083 0.15793 0.0
O48 O 0.52819 0.81247 0.13748 0.0
C49 C 0.36092 0.77991 0.09777 0.0
O50 O 0.39307 0.75109 0.10919 0.0
O51 O 0.48129 0.7982 0.05852 0.0
C52 C 0.61231 0.93308 0.08155 0.0
O53 O 0.57468 0.95748 0.07669 0.0
O54 O 0.60773 0.8924 0.09777 0.0
O55 O 0.51645 0.88839 0.04806 0.0
O56 O 0.44738 0.91193 0.07365 0.0
O57 O 0.51496 0.92206 0.15782 0.0
C58 C 0.49149 0.80722 0.16358 0.0
C59 C 0.48348 0.91777 0.04745 0.0
Zn60 Zn 0.63875 0.53201 0.06185 0.0
Zn61 Zn 0.70388 0.44208 0.12383 0.0
C62 C 0.62097 0.4556 0.99637 0.0
O63 O 0.63376 0.42121 0.96757 0.0
C64 C 0.74623 0.43873 0.20435 0.0
O65 O 0.71461 0.40575 0.21043 0.0
O66 O 0.60558 0.58745 0.03784 0.0
O67 O 0.60127 0.50859 0.11736 0.0
O68 O 0.63893 0.4538 0.15177 0.0
C69 C 0.56188 0.59286 0.04549 0.0
O70 O 0.53809 0.56097 0.06772 0.0
O71 O 0.65146 0.47858 0.01583 0.0
C72 C 0.75743 0.35917 0.10523 0.0
O73 O 0.79022 0.39106 0.10761 0.0
O74 O 0.71525 0.37287 0.10889 0.0
O75 O 0.71503 0.48168 0.07259 0.0
O76 O 0.70041 0.55677 0.07788 0.0
O77 O 0.74767 0.46151 0.16915 0.0
C78 C 0.60309 0.47936 0.14823 0.0
C79 C 0.72872 0.52326 0.08097 0.0
Zn80 Zn 0.09217 0.84963 0.41308 0.0
Zn81 Zn 0.98592 0.88689 0.39857 0.0
C82 C 0.0655 0.76646 0.46059 0.0
O83 O 0.10578 0.77151 0.47741 0.0
C84 C 0.03753 0.95079 0.33252 0.0
O85 O 0.0771 0.92914 0.33637 0.0
O86 O 0.15897 0.82541 0.41945 0.0
O87 O 0.07844 0.83511 0.34883 0.0
O88 O 0.00181 0.82717 0.36132 0.0
C89 C 0.19017 0.82231 0.38706 0.0
O90 O 0.18139 0.83994 0.34925 0.0
O91 O 0.04921 0.80114 0.44157 0.0
C92 C 0.91072 0.94012 0.42974 0.0
O93 O 0.94688 0.96819 0.42926 0.0
O94 O 0.91676 0.89763 0.41478 0.0
O95 O 0.01103 0.89207 0.45805 0.0
O96 O 0.07987 0.91863 0.43967 0.0
O97 O 0.00156 0.93991 0.35705 0.0
C98 C 0.03991 0.81765 0.33796 0.0
C99 C 0.04078 0.92416 0.46215 0.0
Zn100 Zn 0.66484 0.08221 0.42891 0.0
Zn101 Zn 0.61523 0.97823 0.40411 0.0
C102 C 0.7377 0.03868 0.47777 0.0
O103 O 0.73706 0.07774 0.50274 0.0
C104 C 0.56284 0.97998 0.33448 0.0
O105 O 0.5868 0.94044 0.33015 0.0
O106 O 0.69221 0.14781 0.43658 0.0
O107 O 0.66788 0.06547 0.3637 0.0
O108 O 0.67361 0.98683 0.36494 0.0
C109 C 0.73519 0.15445 0.42541 0.0
O110 O 0.76084 0.11819 0.40996 0.0
O111 O 0.70875 0.03382 0.44877 0.0
C112 C 0.55131 0.90629 0.42345 0.0
O113 O 0.52477 0.94356 0.42138 0.0
O114 O 0.59508 0.91063 0.41481 0.0
O115 O 0.621 1.00723 0.46369 0.0
O116 O 0.59962 0.07941 0.45871 0.0
O117 O 0.56735 1.00768 0.36796 0.0
C118 C 0.68277 0.02584 0.34646 0.0
C119 C 0.59103 0.03901 0.47349 0.0
Zn120 Zn 0.43765 0.64918 0.38967 0.0
Zn121 Zn 0.54282 0.61557 0.3664 0.0
C122 C 0.46637 0.72404 0.44897 0.0
O123 O 0.42614 0.71651 0.47114 0.0
C124 C 0.49907 0.54147 0.30547 0.0
O125 O 0.45707 0.5596 0.3118 0.0
O126 O 0.37114 0.67767 0.40022 0.0
O127 O 0.45559 0.65534 0.32377 0.0
O128 O 0.5292 0.67351 0.33056 0.0
C129 C 0.36673 0.71923 0.3862 0.0
O130 O 0.40383 0.73966 0.36757 0.0
O131 O 0.47962 0.6966 0.41632 0.0
C132 C 0.61747 0.56704 0.39202 0.0
O133 O 0.5811 0.53979 0.3995 0.0
O134 O 0.61175 0.60659 0.37449 0.0
O135 O 0.51502 0.60944 0.42962 0.0
O136 O 0.44529 0.58454 0.41825 0.0
O137 O 0.53194 0.5591 0.3261 0.0
C138 C 0.49237 0.6773 0.31022 0.0
C139 C 0.48189 0.58123 0.43876 0.0
Zn140 Zn 0.87217 0.42277 0.39696 0.0
Zn141 Zn 0.98416 0.50162 0.34427 0.0
C142 C 0.7957 0.48793 0.42684 0.0
O143 O 0.80835 0.48124 0.46672 0.0
C144 C 0.07847 0.48546 0.3038 0.0
O145 O 0.09239 0.51919 0.33047 0.0
O146 O 0.84932 0.3552 0.40386 0.0
O147 O 0.91326 0.43125 0.33921 0.0
O148 O 0.93254 0.49443 0.3026 0.0
C149 C 0.80857 0.34629 0.42095 0.0
O150 O 0.78061 0.3816 0.43406 0.0
O151 O 0.81765 0.46706 0.3936 0.0
C152 C 0.0232 0.5777 0.3933 0.0
O153 O 0.04477 0.54169 0.40819 0.0
O154 O 0.99637 0.57011 0.36254 0.0
O155 O 0.95383 0.47194 0.39655 0.0
O156 O 0.91097 0.4413 0.44946 0.0
O157 O 0.03954 0.46601 0.31395 0.0
C158 C 0.90427 0.46039 0.31017 0.0
C159 C 0.94763 0.46341 0.43688 0.0
Zn160 Zn 0.02171 0.42625 0.8587 0.0
Zn161 Zn 0.90838 0.36808 0.9045 0.0
C162 C 0.98617 0.5097 0.82044 0.0
O163 O 0.97327 0.52457 0.86122 0.0
C164 C 0.94441 0.29281 0.95548 0.0
O165 O 0.90555 0.29613 0.98133 0.0
O166 O 0.08424 0.43724 0.88031 0.0
O167 O 0.97266 0.43052 0.90473 0.0
O168 O 0.91113 0.42734 0.94815 0.0
C169 C 0.09594 0.47928 0.89042 0.0
O170 O 0.06664 0.51395 0.88638 0.0
O171 O 0.0082 0.47103 0.8131 0.0
C172 C 0.83689 0.29634 0.89707 0.0
O173 O 0.87337 0.2696 0.88518 0.0
O174 O 0.84296 0.34 0.90675 0.0
O175 O 0.93479 0.36952 0.83786 0.0
O176 O 0.01198 0.36266 0.83133 0.0
O177 O 0.9515 0.32099 0.92443 0.0
C178 C 0.95018 0.4465 0.93926 0.0
C179 C 0.97202 0.34705 0.82278 0.0
Zn180 Zn 0.09697 0.04667 0.87578 0.0
Zn181 Zn 0.13813 0.94753 0.87477 0.0
C182 C 0.0028 0.02834 0.84412 0.0
O183 O 0.98513 0.0536 0.87872 0.0
C184 C 0.21067 0.98798 0.93128 0.0
O185 O 0.20057 0.95553 0.96021 0.0
O186 O 0.07812 0.11491 0.89036 0.0
O187 O 0.10516 0.01914 0.9352 0.0
O188 O 0.07961 0.95052 0.91468 0.0
C189 C 0.04982 0.11982 0.92483 0.0
O190 O 0.03736 0.08224 0.9462 0.0
O191 O 0.04577 0.01736 0.84152 0.0
C192 C 0.20016 0.8657 0.87231 0.0
O193 O 0.23423 0.89645 0.86992 0.0
O194 O 0.15845 0.88014 0.8731 0.0
O195 O 0.13291 0.96804 0.81343 0.0
O196 O 0.1529 0.04094 0.83141 0.0
O197 O 0.18893 0.98887 0.89669 0.0
C198 C 0.08041 0.98344 0.94397 0.0
C199 C 0.15639 1.00496 0.80462 0.0
Zn200 Zn 0.46698 0.12714 0.88398 0.0
Zn201 Zn 0.57008 0.15765 0.89439 0.0
C202 C 0.5164 0.05306 0.82016 0.0
O203 O 0.55787 0.06929 0.82714 0.0
C204 C 0.53783 0.24146 0.94987 0.0
O205 O 0.57942 0.24318 0.96445 0.0
O206 O 0.39769 0.12018 0.89753 0.0
O207 O 0.49055 0.11836 0.94404 0.0
O208 O 0.55905 0.09164 0.92005 0.0
C209 C 0.38866 0.08038 0.91428 0.0
O210 O 0.42332 0.05169 0.91944 0.0
O211 O 0.48058 0.07154 0.84132 0.0
C212 C 0.64956 0.21992 0.88785 0.0
O213 O 0.61857 0.24692 0.8718 0.0
O214 O 0.63721 0.17906 0.90037 0.0
O215 O 0.55677 0.16834 0.83045 0.0
O216 O 0.48249 0.18536 0.84806 0.0
O217 O 0.52679 0.20604 0.92607 0.0
C218 C 0.52225 0.08784 0.94587 0.0
C219 C 0.51965 0.18996 0.82259 0.0
Zn220 Zn 0.2952 0.58171 0.86418 0.0
Zn221 Zn 0.3736 0.48582 0.92731 0.0
C222 C 0.24518 0.57567 0.79074 0.0
O223 O 0.27909 0.60535 0.78084 0.0
C224 C 0.42516 0.49286 0.00092 0.0
O225 O 0.39808 0.45769 0.01323 0.0
O226 O 0.28386 0.65126 0.87679 0.0
O227 O 0.30669 0.54741 0.91718 0.0
O228 O 0.30632 0.48212 0.95063 0.0
C229 C 0.24197 0.66543 0.87766 0.0
O230 O 0.20912 0.63414 0.87275 0.0
O231 O 0.2441 0.55593 0.82776 0.0
C232 C 0.44216 0.41411 0.91558 0.0
O233 O 0.4678 0.45111 0.90583 0.0
O234 O 0.39836 0.41926 0.92222 0.0
O235 O 0.38567 0.51782 0.86717 0.0
O236 O 0.35451 0.57122 0.82666 0.0
O237 O 0.41301 0.51804 0.97016 0.0
C238 C 0.28349 0.51482 0.93548 0.0
C239 C 0.38675 0.54188 0.83228 0.0
Zn240 Zn 0.02136 0.13697 0.61685 0.0
Zn241 Zn 0.91917 0.177 0.59889 0.0
C242 C 0.95331 0.07534 0.67541 0.0
O243 O 0.91506 0.09454 0.66367 0.0
C244 C 0.93582 0.25904 0.5455 0.0
O245 O 0.89849 0.24511 0.5267 0.0
O246 O 0.08868 0.11538 0.60618 0.0
O247 O 0.00329 0.13522 0.55442 0.0
O248 O 0.93352 0.1099 0.56971 0.0
C249 C 0.08978 0.07147 0.5949 0.0
O250 O 0.05045 0.04826 0.59675 0.0
O251 O 0.99274 0.08833 0.65829 0.0
C252 C 0.83698 0.23478 0.61155 0.0
O253 O 0.86738 0.26223 0.62973 0.0
O254 O 0.85021 0.19385 0.59635 0.0
O255 O 0.93376 0.19015 0.6632 0.0
O256 O 0.01044 0.1986 0.6524 0.0
O257 O 0.95524 0.2304 0.56945 0.0
C258 C 0.97305 0.10413 0.54822 0.0
C259 C 0.97184 0.20761 0.67513 0.0
Zn260 Zn 0.37883 0.03963 0.61079 0.0
Zn261 Zn 0.3361 0.93877 0.59119 0.0
C262 C 0.45798 0.9876 0.65522 0.0
O263 O 0.48157 0.9719 0.61881 0.0
C264 C 0.26219 0.97279 0.53994 0.0
O265 O 0.26493 0.93116 0.51912 0.0
O266 O 0.40252 0.10578 0.60068 0.0
O267 O 0.37886 0.01147 0.54943 0.0
O268 O 0.40123 0.94039 0.5596 0.0
C269 C 0.44605 0.10559 0.58934 0.0
O270 O 0.46873 0.06555 0.58945 0.0
O271 O 0.42101 0.01163 0.65345 0.0
C272 C 0.26393 0.87219 0.60386 0.0
O273 O 0.24458 0.91153 0.62084 0.0
O274 O 0.30617 0.87356 0.58779 0.0
O275 O 0.33098 0.9611 0.6556 0.0
O276 O 0.31661 0.03611 0.64431 0.0
O277 O 0.29235 0.98405 0.56645 0.0
C278 C 0.40759 0.97851 0.53953 0.0
C279 C 0.30852 0.99927 0.66642 0.0
Zn280 Zn 0.46201 0.37924 0.62475 0.0
Zn281 Zn 0.56499 0.35954 0.60278 0.0
C282 C 0.48406 0.47227 0.6723 0.0
O283 O 0.48853 0.49476 0.63524 0.0
C284 C 0.54223 0.27805 0.54437 0.0
O285 O 0.5845 0.28092 0.52489 0.0
O286 O 0.39198 0.38615 0.6237 0.0
O287 O 0.48567 0.39564 0.56168 0.0
O288 O 0.5526 0.42445 0.57779 0.0
C289 C 0.38164 0.42432 0.60602 0.0
O290 O 0.41496 0.45284 0.5921 0.0
O291 O 0.47636 0.42818 0.6712 0.0
C292 C 0.64561 0.29916 0.60283 0.0
O293 O 0.61289 0.26889 0.61463 0.0
O294 O 0.63395 0.34105 0.59431 0.0
O295 O 0.54683 0.34845 0.66783 0.0
O296 O 0.47915 0.31819 0.65322 0.0
O297 O 0.52765 0.30993 0.57266 0.0
C298 C 0.51708 0.42656 0.55565 0.0
C299 C 0.51396 0.31928 0.67665 0.0
Zn300 Zn 0.01626 0.53688 0.63153 0.0
Zn301 Zn 0.14558 0.5944 0.59381 0.0
C302 C 0.93978 0.59956 0.66341 0.0
O303 O 0.90944 0.63376 0.66136 0.0
C304 C 0.21092 0.51773 0.57726 0.0
O305 O 0.19843 0.52098 0.53682 0.0
O306 O 0.99963 0.4683 0.61729 0.0
O307 O 0.06434 0.55314 0.58595 0.0
O308 O 0.11632 0.57239 0.53517 0.0
C309 C 0.96722 0.4577 0.59265 0.0
O310 O 0.94166 0.49183 0.57942 0.0
O311 O 0.96372 0.58458 0.6286 0.0
C312 C 0.15812 0.69593 0.60086 0.0
O313 O 0.11425 0.69428 0.61627 0.0
O314 O 0.17866 0.65748 0.58793 0.0
O315 O 0.09344 0.59771 0.64529 0.0
O316 O 0.05433 0.5466 0.68582 0.0
O317 O 0.19268 0.54564 0.60775 0.0
C318 C 0.07718 0.55365 0.54564 0.0
C319 C 0.09024 0.57273 0.67935 0.0
C320 C 0.81146 0.50044 0.0837 0.0
C321 C 0.77477 0.53163 0.09752 0.0
C322 C 0.85657 0.50916 0.09544 0.0
C323 C 0.86684 0.54964 0.12128 0.0
H324 H 0.8057 0.47004 0.06203 0.0
H325 H 0.88389 0.48495 0.08235 0.0
S326 S 0.78147 0.639 0.17083 0.0
N327 N 0.75038 0.60204 0.14193 0.0
N328 N 0.83539 0.61876 0.16408 0.0
C329 C 0.82988 0.57984 0.13733 0.0
C330 C 0.78383 0.57087 0.12527 0.0
C331 C 0.96377 0.78218 0.02864 0.0
C332 C 0.99766 0.77252 0.05773 0.0
C333 C 0.93025 0.81761 0.03931 0.0
C334 C 0.92922 0.8444 0.07959 0.0
H335 H 0.96269 0.76191 0.99765 0.0
H336 H 0.9051 0.82417 0.01568 0.0
S337 S 0.01223 0.83481 0.16617 0.0
N338 N 0.02961 0.79436 0.12766 0.0
N339 N 0.96607 0.85955 0.14818 0.0
C340 C 0.96303 0.83507 0.10896 0.0
C341 C 0.99746 0.7996 0.09786 0.0
C342 C 0.65935 0.99858 0.04884 0.0
C343 C 0.65806 0.95496 0.06972 0.0
C344 C 0.70071 0.02396 0.04197 0.0
C345 C 0.74245 1.00679 0.05583 0.0
H346 H 0.62778 0.01442 0.0391 0.0
H347 H 0.69924 0.05853 0.02824 0.0
S348 S 0.75992 0.89048 0.10419 0.0
N349 N 0.70352 0.89286 0.09865 0.0
N350 N 0.78155 0.94042 0.08539 0.0
C351 C 0.7425 0.96148 0.07335 0.0
C352 C 0.70026 0.93558 0.08041 0.0
C353 C 0.54135 0.72176 0.02404 0.0
C354 C 0.49285 0.72398 0.02213 0.0
C355 C 0.56393 0.67864 0.02879 0.0
C356 C 0.53856 0.63646 0.03332 0.0
H357 H 0.56171 0.75388 0.02372 0.0
H358 H 0.60112 0.67887 0.03158 0.0
S359 S 0.41107 0.62312 0.02816 0.0
N360 N 0.42061 0.67992 0.02193 0.0
N361 N 0.46248 0.59952 0.03342 0.0
C362 C 0.49026 0.63806 0.02979 0.0
C363 C 0.46754 0.68166 0.02346 0.0
C364 C 0.86348 1.00198 0.47329 0.0
C365 C 0.86483 0.9595 0.44732 0.0
C366 C 0.82159 0.02524 0.48647 0.0
C367 C 0.77921 1.00752 0.47342 0.0
H368 H 0.89528 0.01866 0.4822 0.0
H369 H 0.82298 0.05896 0.5045 0.0
S370 S 0.76277 0.89504 0.40927 0.0
N371 N 0.81958 0.8984 0.41241 0.0
N372 N 0.74043 0.94259 0.43645 0.0
C373 C 0.77958 0.9636 0.44967 0.0
C374 C 0.82246 0.9395 0.43673 0.0
C375 C 0.55703 0.81896 0.432 0.0
C376 C 0.52995 0.86043 0.43512 0.0
C377 C 0.53661 0.77482 0.4395 0.0
C378 C 0.48863 0.77072 0.45137 0.0
H379 H 0.59395 0.82029 0.42208 0.0
H380 H 0.55823 0.74348 0.43443 0.0
S381 S 0.40237 0.86829 0.46561 0.0
N382 N 0.45235 0.89429 0.45189 0.0
N383 N 0.41475 0.81164 0.46725 0.0
C384 C 0.46152 0.81197 0.45672 0.0
C385 C 0.48198 0.85677 0.44819 0.0
C386 C 0.70488 0.56405 0.37966 0.0
C387 C 0.66351 0.55044 0.40367 0.0
C388 C 0.74799 0.54426 0.38769 0.0
C389 C 0.75123 0.51163 0.42105 0.0
H390 H 0.70373 0.58861 0.35336 0.0
H391 H 0.77892 0.55422 0.36747 0.0
S392 S 0.65377 0.46447 0.4933 0.0
N393 N 0.62898 0.50166 0.46195 0.0
N394 N 0.70996 0.46662 0.47808 0.0
C395 C 0.7105 0.49884 0.44605 0.0
C396 C 0.66664 0.51773 0.43712 0.0
C397 C 0.07602 0.67878 0.45801 0.0
C398 C 0.04869 0.71804 0.44963 0.0
C399 C 0.06706 0.63374 0.43999 0.0
C400 C 0.03032 0.62581 0.41285 0.0
H401 H 0.10597 0.683 0.47709 0.0
H402 H 0.09007 0.60514 0.44653 0.0
S403 S 0.94384 0.71493 0.3862 0.0
N404 N 0.97976 0.7447 0.41649 0.0
N405 N 0.96337 0.66005 0.38224 0.0
C406 C 0.00103 0.66406 0.40621 0.0
C407 C 0.00996 0.71005 0.42483 0.0
C408 C 0.17801 0.45472 0.89496 0.0
C409 C 0.14292 0.48904 0.90412 0.0
C410 C 0.22336 0.46329 0.90589 0.0
C411 C 0.23516 0.50643 0.92632 0.0
H412 H 0.17072 0.42127 0.8784 0.0
H413 H 0.24962 0.43632 0.89744 0.0
S414 S 0.15537 0.60532 0.96303 0.0
N415 N 0.12248 0.56653 0.93817 0.0
N416 N 0.20819 0.58209 0.95914 0.0
C417 C 0.20047 0.54056 0.93695 0.0
C418 C 0.15415 0.53198 0.92574 0.0
C419 C 0.01517 0.2484 0.92463 0.0
C420 C 0.97503 0.25091 0.95466 0.0
C421 C 0.04024 0.20633 0.91625 0.0
C422 C 0.02648 0.16527 0.93792 0.0
H423 H 0.02633 0.27864 0.90583 0.0
H424 H 0.06971 0.20573 0.89159 0.0
S425 S 0.9267 0.15416 0.023 0.0
N426 N 0.92469 0.20946 0.00838 0.0
N427 N 0.97223 0.13057 0.99361 0.0
C428 C 0.98814 0.16798 0.97017 0.0
C429 C 0.96236 0.2108 0.97836 0.0
C430 C 0.28979 1.00233 0.95637 0.0
C431 C 0.25244 0.0179 0.93386 0.0
C432 C 0.3331 0.02462 0.9516 0.0
C433 C 0.34059 0.06357 0.9245 0.0
H434 H 0.28649 0.97103 0.97566 0.0
H435 H 0.36147 0.00991 0.96794 0.0
S436 S 0.25182 0.12253 0.86415 0.0
N437 N 0.22399 0.07815 0.88789 0.0
N438 N 0.30557 0.11989 0.87882 0.0
C439 C 0.30256 0.0818 0.90465 0.0
C440 C 0.25845 0.05893 0.90933 0.0
C441 C 0.53299 0.32922 0.94925 0.0
C442 C 0.51037 0.28531 0.9479 0.0
C443 C 0.51068 0.37042 0.93822 0.0
C444 C 0.4646 0.36956 0.92623 0.0
H445 H 0.56899 0.33164 0.95679 0.0
H446 H 0.52994 0.40316 0.93884 0.0
S447 S 0.38882 0.26411 0.92066 0.0
N448 N 0.4385 0.24371 0.93565 0.0
N449 N 0.3963 0.32147 0.9157 0.0
C450 C 0.44087 0.32626 0.92654 0.0
C451 C 0.46379 0.28411 0.93725 0.0
C452 C 0.17594 0.07079 0.57403 0.0
C453 C 0.13331 0.04664 0.57761 0.0
C454 C 0.2174 0.04723 0.55884 0.0
C455 C 0.21766 0.99891 0.54593 0.0
H456 H 0.17756 0.10784 0.58401 0.0
H457 H 0.24977 0.06666 0.55854 0.0
S458 S 0.11559 0.91928 0.54862 0.0
N459 N 0.09421 0.97116 0.56675 0.0
N460 N 0.17176 0.92781 0.53721 0.0
C461 C 0.17515 0.97472 0.54782 0.0
C462 C 0.13311 0.99833 0.56402 0.0
C463 C 0.46937 0.23146 0.55532 0.0
C464 C 0.51807 0.23227 0.54679 0.0
C465 C 0.44616 0.19021 0.56834 0.0
C466 C 0.47091 0.14847 0.57406 0.0
H467 H 0.44922 0.26347 0.55349 0.0
H468 H 0.40868 0.19146 0.57498 0.0
S469 S 0.59933 0.13273 0.55702 0.0
N470 N 0.5903 0.18786 0.54455 0.0
N471 N 0.54728 0.11079 0.57018 0.0
C472 C 0.51969 0.14865 0.56471 0.0
C473 C 0.54311 0.1904 0.55067 0.0
C474 C 0.28186 0.47178 0.54973 0.0
C475 C 0.25027 0.48663 0.58552 0.0
C476 C 0.32309 0.44833 0.55668 0.0
C477 C 0.33365 0.43761 0.59947 0.0
H478 H 0.27614 0.48066 0.51621 0.0
H479 H 0.34793 0.44035 0.5285 0.0
S480 S 0.26102 0.46417 0.70401 0.0
N481 N 0.23108 0.48584 0.6653 0.0
N482 N 0.30861 0.44062 0.6779 0.0
C483 C 0.30131 0.4494 0.63533 0.0
C484 C 0.25955 0.47421 0.62846 0.0
C485 C 0.99249 0.37268 0.58484 0.0
C486 C 0.9596 0.40769 0.57775 0.0
C487 C 0.98579 0.32515 0.57202 0.0
C488 C 0.94597 0.31044 0.55133 0.0
H489 H 0.02355 0.38186 0.60098 0.0
H490 H 0.01154 0.29952 0.57952 0.0
S491 S 0.84929 0.38818 0.52469 0.0
N492 N 0.8857 0.42423 0.54823 0.0
N493 N 0.87347 0.33537 0.52355 0.0
C494 C 0.91342 0.34534 0.5428 0.0
C495 C 0.92009 0.39373 0.5562 0.0
C496 C 0.07984 0.73244 0.24079 0.0
C497 C 0.03812 0.72104 0.2218 0.0
C498 C 0.08033 0.76388 0.27803 0.0
C499 C 0.03909 0.78512 0.29796 0.0
H500 H 0.11251 0.71728 0.22661 0.0
H501 H 0.11331 0.77132 0.29143 0.0
S502 S 0.92053 0.768 0.26073 0.0
N503 N 0.95429 0.73406 0.22612 0.0
N504 N 0.95546 0.79304 0.29505 0.0
C505 C 0.99719 0.77402 0.27925 0.0
C506 C 0.99662 0.74206 0.24157 0.0
C507 C 0.74842 0.06057 0.30096 0.0
C508 C 0.71395 0.02579 0.3058 0.0
C509 C 0.78032 0.05998 0.26366 0.0
C510 C 0.77836 0.02494 0.22966 0.0
H511 H 0.75147 0.08782 0.32664 0.0
H512 H 0.80701 0.08688 0.26182 0.0
S513 S 0.68995 0.92995 0.22421 0.0
N514 N 0.67691 0.95786 0.27254 0.0
N515 N 0.73602 0.95714 0.20151 0.0
C516 C 0.74269 0.99101 0.23342 0.0
C517 C 0.71065 0.99134 0.27176 0.0
C518 C 0.5329 0.75891 0.21675 0.0
C519 C 0.49108 0.77343 0.20039 0.0
C520 C 0.53307 0.72788 0.25194 0.0
C521 C 0.49149 0.70913 0.27187 0.0
H522 H 0.56587 0.77221 0.20275 0.0
H523 H 0.56621 0.71851 0.26354 0.0
S524 S 0.37243 0.73415 0.24 0.0
N525 N 0.40685 0.76579 0.20664 0.0
N526 N 0.40717 0.70667 0.27112 0.0
C527 C 0.44946 0.72262 0.2551 0.0
C528 C 0.44926 0.7549 0.21993 0.0
C529 C 0.81036 0.48666 0.23392 0.0
C530 C 0.78317 0.44545 0.23503 0.0
C531 C 0.84852 0.49187 0.25941 0.0
C532 C 0.8612 0.45592 0.28676 0.0
H533 H 0.80258 0.51486 0.21267 0.0
H534 H 0.86876 0.52398 0.25685 0.0
S535 S 0.80146 0.3407 0.301 0.0
N536 N 0.77111 0.3683 0.26615 0.0
N537 N 0.84337 0.37744 0.31299 0.0
C538 C 0.83374 0.41484 0.28868 0.0
C539 C 0.79458 0.4098 0.26313 0.0
C540 C 0.93118 0.26766 0.72868 0.0
C541 C 0.97093 0.24003 0.71518 0.0
C542 C 0.93101 0.3012 0.76432 0.0
C543 C 0.9705 0.30817 0.78812 0.0
H544 H 0.90036 0.26444 0.71078 0.0
H545 H 0.90016 0.32268 0.77238 0.0
S546 S 0.0804 0.23863 0.77115 0.0
N547 N 0.04875 0.21807 0.73178 0.0
N548 N 0.04835 0.27996 0.79895 0.0
C549 C 0.00942 0.2786 0.77659 0.0
C550 C 0.00968 0.24492 0.74011 0.0
C551 C 0.24837 0.0427 0.71681 0.0
C552 C 0.2706 0.99983 0.70253 0.0
C553 C 0.21113 0.04407 0.74959 0.0
C554 C 0.19409 1.00251 0.7686 0.0
H555 H 0.25981 0.07563 0.70269 0.0
H556 H 0.19541 0.07789 0.75992 0.0
S557 S 0.24071 0.88116 0.74414 0.0
N558 N 0.27381 0.91486 0.71159 0.0
N559 N 0.2027 0.91728 0.77164 0.0
C560 C 0.21586 0.95935 0.75467 0.0
C561 C 0.25446 0.95806 0.72212 0.0
C562 C 0.47713 0.23537 0.76859 0.0
C563 C 0.51956 0.22193 0.78449 0.0
C564 C 0.4757 0.26631 0.7336 0.0
C565 C 0.51653 0.28624 0.71358 0.0
H566 H 0.44455 0.22166 0.78313 0.0
H567 H 0.44213 0.27522 0.72262 0.0
S568 S 0.63684 0.26271 0.7424 0.0
N569 N 0.60372 0.23042 0.77634 0.0
N570 N 0.60086 0.28999 0.71235 0.0
C571 C 0.55921 0.27335 0.72927 0.0
C572 C 0.56077 0.24087 0.76414 0.0
C573 C 0.16379 0.60609 0.70446 0.0
C574 C 0.12972 0.57069 0.70756 0.0
C575 C 0.20113 0.60656 0.73095 0.0
C576 C 0.20605 0.57179 0.76204 0.0
H577 H 0.16141 0.63429 0.68174 0.0
H578 H 0.22585 0.63519 0.72747 0.0
S579 S 0.12931 0.46818 0.7797 0.0
N580 N 0.10509 0.49777 0.74184 0.0
N581 N 0.17538 0.49894 0.79222 0.0
C582 C 0.17282 0.53551 0.76499 0.0
C583 C 0.13467 0.53488 0.73764 0.0
C584 C 0.23062 0.78019 0.08445 0.0
C585 C 0.21797 0.73241 0.08809 0.0
C586 C 0.27683 0.79501 0.08679 0.0
C587 C 0.31246 0.7628 0.09353 0.0
H588 H 0.20446 0.80665 0.08012 0.0
H589 H 0.28442 0.83224 0.08411 0.0
S590 S 0.29789 0.63334 0.10474 0.0
N591 N 0.24513 0.65268 0.09784 0.0
N592 N 0.33165 0.68035 0.10316 0.0
C593 C 0.30038 0.71471 0.09667 0.0
C594 C 0.25333 0.69955 0.09366 0.0
C595 C 0.74345 0.22627 0.11148 0.0
C596 C 0.78957 0.20998 0.11135 0.0
C597 C 0.73347 0.27429 0.10793 0.0
C598 C 0.76917 0.30809 0.1042 0.0
H599 H 0.71463 0.20185 0.11486 0.0
H600 H 0.69732 0.28502 0.10911 0.0
S601 S 0.89607 0.28372 0.10054 0.0
N602 N 0.87147 0.23153 0.10602 0.0
N603 N 0.85281 0.32148 0.09885 0.0
C604 C 0.81556 0.29213 0.10278 0.0
C605 C 0.82572 0.24321 0.10649 0.0
C606 C 0.31622 0.78328 0.36152 0.0
C607 C 0.32111 0.74479 0.38879 0.0
C608 C 0.27419 0.80832 0.36193 0.0
C609 C 0.23508 0.79682 0.39028 0.0
H610 H 0.34499 0.79389 0.33883 0.0
H611 H 0.27237 0.83698 0.33962 0.0
S612 S 0.22905 0.69965 0.469 0.0
N613 N 0.28276 0.69658 0.44535 0.0
N614 N 0.20401 0.74426 0.44677 0.0
C615 C 0.23951 0.75899 0.41844 0.0
C616 C 0.28232 0.73282 0.41748 0.0
C617 C 0.74384 0.28841 0.43454 0.0
C618 C 0.79159 0.29692 0.4244 0.0
C619 C 0.72615 0.24236 0.43585 0.0
C620 C 0.75542 0.20275 0.4271 0.0
H621 H 0.71956 0.31755 0.4407 0.0
H622 H 0.689 0.23793 0.44291 0.0
S623 S 0.88397 0.20553 0.40387 0.0
N624 N 0.8684 0.26166 0.40892 0.0
N625 N 0.83533 0.1752 0.41141 0.0
C626 C 0.80355 0.21069 0.4186 0.0
C627 C 0.82155 0.25768 0.41722 0.0
C628 C 0.70625 0.2869 0.88894 0.0
C629 C 0.69746 0.2382 0.89232 0.0
C630 C 0.75107 0.30551 0.89167 0.0
C631 C 0.78926 0.27613 0.89717 0.0
H632 H 0.67824 0.31111 0.88406 0.0
H633 H 0.75594 0.34312 0.88838 0.0
S634 S 0.78504 0.14643 0.91016 0.0
N635 N 0.73078 0.16121 0.90346 0.0
N636 N 0.81504 0.19599 0.90788 0.0
C637 C 0.78097 0.22745 0.90134 0.0
C638 C 0.73514 0.20855 0.89916 0.0
C639 C 0.26635 0.74997 0.87341 0.0
C640 C 0.23066 0.71644 0.87932 0.0
C641 C 0.2562 0.79813 0.87132 0.0
C642 C 0.20996 0.81464 0.87515 0.0
H643 H 0.30247 0.73894 0.86944 0.0
H644 H 0.28489 0.82246 0.86618 0.0
S645 S 0.10375 0.74146 0.89424 0.0
N646 N 0.14722 0.70336 0.89124 0.0
N647 N 0.12809 0.79356 0.88731 0.0
C648 C 0.17393 0.78152 0.88216 0.0
C649 C 0.18429 0.73254 0.88428 0.0
C650 C 0.75336 0.22079 0.59691 0.0
C651 C 0.78885 0.25237 0.60738 0.0
C652 C 0.70741 0.23646 0.59469 0.0
C653 C 0.69518 0.28448 0.60188 0.0
H654 H 0.76083 0.18348 0.59132 0.0
H655 H 0.68116 0.21059 0.58749 0.0
S656 S 0.77501 0.382 0.62894 0.0
N657 N 0.80839 0.33445 0.62425 0.0
N658 N 0.72247 0.36361 0.619 0.0
C659 C 0.73047 0.31664 0.61109 0.0
C660 C 0.77711 0.30066 0.61415 0.0
C661 C 0.25657 0.78527 0.58477 0.0
C662 C 0.2363 0.82776 0.60283 0.0
C663 C 0.23105 0.74303 0.58398 0.0
C664 C 0.18402 0.7415 0.60083 0.0
H665 H 0.29258 0.78445 0.57133 0.0
H666 H 0.24855 0.71127 0.57022 0.0
S667 S 0.11429 0.84309 0.65167 0.0
N668 N 0.16605 0.86547 0.63818 0.0
N669 N 0.11824 0.78671 0.63599 0.0
C670 C 0.16322 0.78387 0.61863 0.0
C671 C 0.18926 0.82675 0.61979 0.0
C672 C 0.01504 0.48655 0.97608 0.0
C673 C 0.96826 0.48644 0.966 0.0
C674 C 0.03386 0.5246 0.99998 0.0
C675 C 0.00658 0.56427 0.01473 0.0
H676 H 0.03712 0.45644 0.96605 0.0
H677 H 0.06973 0.52239 0.00773 0.0
S678 S 0.88146 0.5809 0.99636 0.0
N679 N 0.89495 0.5287 0.97258 0.0
N680 N 0.92954 0.60065 0.0165 0.0
C681 C 0.9595 0.56445 0.00441 0.0
C682 C 0.94045 0.52538 0.9806 0.0
C683 C 0.99926 0.96899 0.97368 0.0
C684 C 0.04312 0.98822 0.98002 0.0
C685 C 0.96042 0.98207 0.00209 0.0
C686 C 0.96404 0.01479 0.03786 0.0
H687 H 0.99427 0.9457 0.94522 0.0
H688 H 0.92704 0.96732 0.99518 0.0
S689 S 0.07242 0.07056 0.0718 0.0
N690 N 0.08917 0.03782 0.02695 0.0
N691 N 0.0157 0.06289 0.08038 0.0
C692 C 0.00813 0.03243 0.04592 0.0
C693 C 0.04786 0.01869 0.01719 0.0
C694 C 0.54021 1.00448 0.96585 0.0
C695 C 0.51273 0.04551 0.97333 0.0
C696 C 0.52958 0.96326 0.98898 0.0
C697 C 0.49103 0.96101 0.02086 0.0
H698 H 0.56991 1.00388 0.94149 0.0
H699 H 0.55219 0.93288 0.98195 0.0
S700 S 0.40841 0.05908 0.05393 0.0
N701 N 0.44549 0.08144 0.016 0.0
N702 N 0.42558 1.00414 0.05879 0.0
C703 C 0.46324 1.00177 0.02869 0.0
C704 C 0.47418 0.04388 0.00532 0.0
C705 C 0.55503 0.50253 0.97544 0.0
C706 C 0.57214 0.46956 0.00308 0.0
C707 C 0.50757 0.51306 0.97782 0.0
C708 C 0.47544 0.49009 0.00734 0.0
H709 H 0.57834 0.51939 0.95103 0.0
H710 H 0.4959 0.53753 0.95457 0.0
S711 S 0.50486 0.40376 0.08951 0.0
N712 N 0.55534 0.41649 0.06291 0.0
N713 N 0.4655 0.43563 0.06746 0.0
C714 C 0.49289 0.45871 0.03679 0.0
C715 C 0.54144 0.44836 0.03446 0.0
C716 C 0.02782 0.05618 0.49436 0.0
C717 C 0.98851 0.05794 0.52564 0.0
C718 C 0.04586 0.01304 0.47509 0.0
C719 C 0.02555 0.96959 0.4864 0.0
H720 H 0.0449 0.08858 0.4846 0.0
H721 H 0.07531 0.01387 0.45051 0.0
S722 S 0.92496 0.95396 0.56967 0.0
N723 N 0.93196 0.01171 0.56891 0.0
N724 N 0.96554 0.93112 0.53334 0.0
C725 C 0.98709 0.97081 0.51865 0.0
C726 C 0.96861 0.0147 0.53795 0.0
C727 C 0.49306 0.96472 0.52363 0.0
C728 C 0.45315 0.99086 0.51692 0.0
C729 C 0.53744 0.98185 0.511 0.0
C730 C 0.54357 0.0246 0.48919 0.0
H731 H 0.49019 0.93168 0.54031 0.0
H732 H 0.56727 0.96099 0.51792 0.0
S733 S 0.44998 0.10305 0.45795 0.0
N734 N 0.42231 0.05972 0.48354 0.0
N735 N 0.50587 0.09087 0.45832 0.0
C736 C 0.50393 0.04987 0.48007 0.0
C737 C 0.4587 0.03285 0.49364 0.0
C738 C 0.47452 0.46282 0.49565 0.0
C739 C 0.50904 0.46653 0.5261 0.0
C740 C 0.46462 0.50031 0.46865 0.0
C741 C 0.48884 0.54334 0.47077 0.0
H742 H 0.45495 0.43043 0.49238 0.0
H743 H 0.43857 0.49508 0.44523 0.0
S744 S 0.5791 0.5735 0.54798 0.0
N745 N 0.56492 0.51852 0.55876 0.0
N746 N 0.54697 0.58838 0.50818 0.0
C747 C 0.52259 0.54795 0.50189 0.0
C748 C 0.53256 0.50984 0.52939 0.0
C749 C 0.05541 0.48774 0.49548 0.0
C750 C 0.04654 0.53338 0.51403 0.0
C751 C 0.02182 0.46381 0.4723 0.0
C752 C 0.97845 0.48477 0.46776 0.0
H753 H 0.08801 0.47017 0.49968 0.0
H754 H 0.03002 0.42913 0.45727 0.0
S755 S 0.93859 0.60333 0.51069 0.0
N756 N 0.99146 0.59822 0.52715 0.0
N757 N 0.92855 0.55347 0.48292 0.0
C758 C 0.96915 0.53015 0.48642 0.0
C759 C 0.0032 0.55441 0.5099 0.0
C760 C 0.07128 0.45619 0.22613 0.0
C761 C 0.09329 0.48667 0.25582 0.0
C762 C 0.06496 0.46965 0.18313 0.0
C763 C 0.08092 0.51363 0.16882 0.0
H764 H 0.05361 0.42478 0.2378 0.0
H765 H 0.0424 0.44849 0.16347 0.0
S766 S 0.15679 0.5965 0.22672 0.0
N767 N 0.1435 0.5554 0.26265 0.0
N768 N 0.131 0.58059 0.18187 0.0
C769 C 0.11061 0.53964 0.19483 0.0
C770 C 0.11727 0.52597 0.23847 0.0
C771 C 0.05275 0.95808 0.2509 0.0
C772 C 0.02962 0.97461 0.29129 0.0
C773 C 0.03514 0.96743 0.21039 0.0
C774 C 0.99385 0.9937 0.2089 0.0
H775 H 0.08201 0.93407 0.25061 0.0
H776 H 0.05192 0.95061 0.18049 0.0
S777 S 0.92739 0.05481 0.30507 0.0
N778 N 0.96868 0.02559 0.327 0.0
N779 N 0.93585 0.04386 0.25108 0.0
C780 C 0.97399 0.01538 0.24877 0.0
C781 C 0.99179 1.0056 0.28993 0.0
C782 C 0.49946 0.95882 0.28823 0.0
C783 C 0.53402 0.99125 0.29875 0.0
C784 C 0.48476 0.95489 0.24542 0.0
C785 C 0.50437 0.98314 0.21172 0.0
H786 H 0.48719 0.93311 0.31195 0.0
H787 H 0.46141 0.92638 0.23753 0.0
S788 S 0.59241 0.07695 0.22414 0.0
N789 N 0.58413 0.05516 0.27386 0.0
N790 N 0.55654 0.04802 0.19305 0.0
C791 C 0.53529 0.01914 0.22313 0.0
C792 C 0.55025 0.02307 0.26687 0.0
C793 C 0.55235 0.48195 0.26678 0.0
C794 C 0.51323 0.51131 0.26575 0.0
C795 C 0.57851 0.46714 0.22774 0.0
C796 C 0.56687 0.4817 0.18619 0.0
H797 H 0.5653 0.47394 0.29816 0.0
H798 H 0.61051 0.44796 0.2308 0.0
S799 S 0.46028 0.54752 0.1651 0.0
N800 N 0.45862 0.54636 0.21963 0.0
N801 N 0.50765 0.51801 0.14604 0.0
C802 C 0.52426 0.50552 0.18446 0.0
C803 C 0.49738 0.52042 0.22437 0.0
C804 C 0.94818 0.52921 0.70705 0.0
C805 C 0.94678 0.57851 0.70559 0.0
C806 C 0.96054 0.50745 0.74471 0.0
C807 C 0.97102 0.53434 0.78255 0.0
H808 H 0.94031 0.50732 0.67857 0.0
H809 H 0.96204 0.46922 0.74407 0.0
S810 S 0.96955 0.66482 0.79624 0.0
N811 N 0.95492 0.65391 0.74526 0.0
N812 N 0.97723 0.61276 0.81716 0.0
C813 C 0.9676 0.58373 0.78235 0.0
C814 C 0.9555 0.60595 0.74356 0.0
C815 C 0.99 0.01815 0.7216 0.0
C816 C 0.95344 0.04987 0.71698 0.0
C817 C 0.00228 1.00646 0.7635 0.0
C818 C 0.97887 0.02668 0.80243 0.0
H819 H 0.01185 1.00544 0.6927 0.0
H820 H 0.03305 0.98489 0.76514 0.0
S821 S 0.87371 0.10313 0.80789 0.0
N822 N 0.88863 0.09452 0.75438 0.0
N823 N 0.91159 0.07277 0.83332 0.0
C824 C 0.9384 0.05348 0.79813 0.0
C825 C 0.92573 0.06511 0.75527 0.0
C826 C 0.45005 0.98574 0.73694 0.0
C827 C 0.47916 0.98914 0.69775 0.0
C828 C 0.46474 1.00166 0.7777 0.0
C829 C 0.50879 0.02244 0.78064 0.0
H830 H 0.41444 0.97391 0.73564 0.0
H831 H 0.43989 1.00124 0.80655 0.0
S832 S 0.60051 0.03282 0.68813 0.0
N833 N 0.55602 1.00881 0.66474 0.0
N834 N 0.58365 0.0396 0.74145 0.0
C835 C 0.54 0.02146 0.74231 0.0
C836 C 0.52509 1.00468 0.70072 0.0
C837 C 0.44791 0.48914 0.79364 0.0
C838 C 0.42284 0.53178 0.79534 0.0
C839 C 0.47268 0.47256 0.75443 0.0
C840 C 0.47322 0.49794 0.71543 0.0
H841 H 0.44535 0.46639 0.82153 0.0
H842 H 0.48828 0.43772 0.75374 0.0
S843 S 0.42322 0.61724 0.7057 0.0
N844 N 0.40781 0.6035 0.75723 0.0
N845 N 0.45403 0.57193 0.68331 0.0
C846 C 0.45335 0.54333 0.71823 0.0
C847 C 0.42805 0.56029 0.75824 0.0
loop_
_geom_bond_atom_site_label_1
_geom_bond_atom_site_label_2
_geom_bond_distance
_geom_bond_site_symmetry_2
_ccdc_geom_bond_type
Zn0 O6 1.969 . S
Zn0 O7 1.965 . S
Zn0 O11 2.024 . S
Zn0 O16 1.969 . S
Zn1 O8 1.976 . S
Zn1 O14 1.947 1_455 S
Zn1 O15 1.968 . S
Zn1 O17 2.038 . S
C2 O3 1.229 . S
C2 O11 1.058 . S
O3 C2 1.229 . S
C4 O5 1.229 1_455 S
C4 O17 1.058 . S
O5 C4 1.229 1_655 S
O6 Zn0 1.969 . S
O6 C9 1.267 . S
O7 Zn0 1.965 . S
O7 C18 1.260 . S
O8 Zn1 1.976 . S
O8 C18 1.258 . S
C9 O6 1.267 . S
C9 O10 1.228 . S
O10 C9 1.228 . S
O11 Zn0 2.024 . S
O11 C2 1.058 . S
C12 O13 1.228 . S
C12 O14 1.267 . S
O13 C12 1.228 . S
O14 Zn1 1.947 1_655 S
O14 C12 1.267 . S
O15 Zn1 1.968 . S
O15 C19 1.260 . S
O16 Zn0 1.969 . S
O16 C19 1.258 . S
O17 Zn1 2.038 . S
O17 C4 1.058 . S
C18 O7 1.260 . S
C18 O8 1.258 . S
C19 O15 1.260 . S
C19 O16 1.258 . S
Zn20 O26 1.969 . S
Zn20 O27 1.965 . S
Zn20 O31 2.024 . S
Zn20 O36 1.969 . S
Zn21 O28 1.969 1_565 S
Zn21 O34 1.969 . S
Zn21 O35 1.965 1_565 S
Zn21 O37 2.024 1_565 S
C22 O23 1.229 . S
C22 O31 1.058 . S
O23 C22 1.229 . S
C24 O25 1.229 1_545 S
C24 O37 1.058 . S
O25 C24 1.229 1_565 S
O26 Zn20 1.969 . S
O26 C29 1.267 . S
O27 Zn20 1.965 . S
O27 C38 1.260 . S
O28 Zn21 1.969 1_545 S
O28 C38 1.258 . S
C29 O26 1.267 . S
C29 O30 1.228 . S
O30 C29 1.228 . S
O31 Zn20 2.024 . S
O31 C22 1.058 . S
C32 O33 1.228 . S
C32 O34 1.267 . S
O33 C32 1.228 . S
O34 Zn21 1.969 . S
O34 C32 1.267 . S
O35 Zn21 1.965 1_545 S
O35 C39 1.260 . S
O36 Zn20 1.969 . S
O36 C39 1.258 . S
O37 Zn21 2.024 1_545 S
O37 C24 1.058 . S
C38 O27 1.260 . S
C38 O28 1.258 . S
C39 O35 1.260 . S
C39 O36 1.258 . S
Zn40 O46 1.969 . S
Zn40 O47 1.965 . S
Zn40 O51 2.024 . S
Zn40 O56 1.969 . S
Zn41 O48 1.969 . S
Zn41 O54 1.969 . S
Zn41 O55 1.965 . S
Zn41 O57 2.024 . S
C42 O43 1.229 . S
C42 O51 1.058 . S
O43 C42 1.229 . S
C44 O45 1.229 . S
C44 O57 1.058 . S
O45 C44 1.229 . S
O46 Zn40 1.969 . S
O46 C49 1.267 . S
O47 Zn40 1.965 . S
O47 C58 1.260 . S
O48 Zn41 1.969 . S
O48 C58 1.258 . S
C49 O46 1.267 . S
C49 O50 1.228 . S
O50 C49 1.228 . S
O51 Zn40 2.024 . S
O51 C42 1.058 . S
C52 O53 1.228 . S
C52 O54 1.267 . S
O53 C52 1.228 . S
O54 Zn41 1.969 . S
O54 C52 1.267 . S
O55 Zn41 1.965 . S
O55 C59 1.260 . S
O56 Zn40 1.969 . S
O56 C59 1.258 . S
O57 Zn41 2.024 . S
O57 C44 1.058 . S
C58 O47 1.260 . S
C58 O48 1.258 . S
C59 O55 1.260 . S
C59 O56 1.258 . S
Zn60 O66 1.969 . S
Zn60 O67 1.965 . S
Zn60 O71 2.024 . S
Zn60 O76 1.969 . S
Zn61 O68 1.969 . S
Zn61 O74 1.969 . S
Zn61 O75 1.965 . S
Zn61 O77 2.024 . S
C62 O63 1.229 . S
C62 O71 1.058 . S
O63 C62 1.229 . S
C64 O65 1.229 . S
C64 O77 1.058 . S
O65 C64 1.229 . S
O66 Zn60 1.969 . S
O66 C69 1.267 . S
O67 Zn60 1.965 . S
O67 C78 1.260 . S
O68 Zn61 1.969 . S
O68 C78 1.258 . S
C69 O66 1.267 . S
C69 O70 1.228 . S
O70 C69 1.228 . S
O71 Zn60 2.024 . S
O71 C62 1.058 . S
C72 O73 1.228 . S
C72 O74 1.267 . S
O73 C72 1.228 . S
O74 Zn61 1.969 . S
O74 C72 1.267 . S
O75 Zn61 1.965 . S
O75 C79 1.260 . S
O76 Zn60 1.969 . S
O76 C79 1.258 . S
O77 Zn61 2.024 . S
O77 C64 1.058 . S
C78 O67 1.260 . S
C78 O68 1.258 . S
C79 O75 1.260 . S
C79 O76 1.258 . S
Zn80 O86 1.969 . S
Zn80 O87 1.965 . S
Zn80 O91 2.024 . S
Zn80 O96 1.969 . S
Zn81 O88 1.969 . S
Zn81 O94 1.969 1_455 S
Zn81 O95 1.965 . S
Zn81 O97 2.024 . S
C82 O83 1.229 . S
C82 O91 1.058 . S
O83 C82 1.229 . S
C84 O85 1.229 . S
C84 O97 1.058 . S
O85 C84 1.229 . S
O86 Zn80 1.969 . S
O86 C89 1.267 . S
O87 Zn80 1.965 . S
O87 C98 1.260 . S
O88 Zn81 1.969 . S
O88 C98 1.258 . S
C89 O86 1.267 . S
C89 O90 1.228 . S
O90 C89 1.228 . S
O91 Zn80 2.024 . S
O91 C82 1.058 . S
C92 O93 1.228 . S
C92 O94 1.267 . S
O93 C92 1.228 . S
O94 Zn81 1.969 1_655 S
O94 C92 1.267 . S
O95 Zn81 1.965 . S
O95 C99 1.260 . S
O96 Zn80 1.969 . S
O96 C99 1.258 . S
O97 Zn81 2.024 . S
O97 C84 1.058 . S
C98 O87 1.260 . S
C98 O88 1.258 . S
C99 O95 1.260 . S
C99 O96 1.258 . S
Zn100 O106 1.969 . S
Zn100 O107 1.965 . S
Zn100 O111 2.024 . S
Zn100 O116 1.969 . S
Zn101 O108 1.965 1_565 S
Zn101 O114 1.982 . S
Zn101 O115 1.963 1_565 S
Zn101 O117 2.016 1_565 S
C102 O103 1.229 . S
C102 O111 1.058 . S
O103 C102 1.229 . S
C104 O105 1.229 1_545 S
C104 O117 1.058 . S
O105 C104 1.229 1_565 S
O106 Zn100 1.969 . S
O106 C109 1.267 . S
O107 Zn100 1.965 . S
O107 C118 1.260 . S
O108 Zn101 1.965 1_545 S
O108 C118 1.258 . S
C109 O106 1.267 . S
C109 O110 1.228 . S
O110 C109 1.228 . S
O111 Zn100 2.024 . S
O111 C102 1.058 . S
C112 O113 1.228 . S
C112 O114 1.267 . S
O113 C112 1.228 . S
O114 Zn101 1.982 . S
O114 C112 1.267 . S
O115 Zn101 1.963 1_545 S
O115 C119 1.260 . S
O116 Zn100 1.969 . S
O116 C119 1.258 . S
O117 Zn101 2.016 1_545 S
O117 C104 1.058 . S
C118 O107 1.260 . S
C118 O108 1.258 . S
C119 O115 1.260 . S
C119 O116 1.258 . S
Zn120 O126 1.969 . S
Zn120 O127 1.965 . S
Zn120 O131 2.024 . S
Zn120 O136 1.969 . S
Zn121 O128 1.969 . S
Zn121 O134 1.969 . S
Zn121 O135 1.965 . S
Zn121 O137 2.024 . S
C122 O123 1.229 . S
C122 O131 1.058 . S
O123 C122 1.229 . S
C124 O125 1.229 . S
C124 O137 1.058 . S
O125 C124 1.229 . S
O126 Zn120 1.969 . S
O126 C129 1.267 . S
O127 Zn120 1.965 . S
O127 C138 1.260 . S
O128 Zn121 1.969 . S
O128 C138 1.258 . S
C129 O126 1.267 . S
C129 O130 1.228 . S
O130 C129 1.228 . S
O131 Zn120 2.024 . S
O131 C122 1.058 . S
C132 O133 1.228 . S
C132 O134 1.267 . S
O133 C132 1.228 . S
O134 Zn121 1.969 . S
O134 C132 1.267 . S
O135 Zn121 1.965 . S
O135 C139 1.260 . S
O136 Zn120 1.969 . S
O136 C139 1.258 . S
O137 Zn121 2.024 . S
O137 C124 1.058 . S
C138 O127 1.260 . S
C138 O128 1.258 . S
C139 O135 1.260 . S
C139 O136 1.258 . S
Zn140 O146 1.969 . S
Zn140 O147 1.965 . S
Zn140 O151 2.024 . S
Zn140 O156 1.969 . S
Zn141 O148 1.969 . S
Zn141 O154 1.969 . S
Zn141 O155 1.965 . S
Zn141 O157 2.024 1_655 S
C142 O143 1.229 . S
C142 O151 1.058 . S
O143 C142 1.229 . S
C144 O145 1.229 . S
C144 O157 1.058 . S
O145 C144 1.229 . S
O146 Zn140 1.969 . S
O146 C149 1.267 . S
O147 Zn140 1.965 . S
O147 C158 1.260 . S
O148 Zn141 1.969 . S
O148 C158 1.258 . S
C149 O146 1.267 . S
C149 O150 1.228 . S
O150 C149 1.228 . S
O151 Zn140 2.024 . S
O151 C142 1.058 . S
C152 O153 1.228 1_655 S
C152 O154 1.267 . S
O153 C152 1.228 1_455 S
O154 Zn141 1.969 . S
O154 C152 1.267 . S
O155 Zn141 1.965 . S
O155 C159 1.260 . S
O156 Zn140 1.969 . S
O156 C159 1.258 . S
O157 Zn141 2.024 1_455 S
O157 C144 1.058 . S
C158 O147 1.260 . S
C158 O148 1.258 . S
C159 O155 1.260 . S
C159 O156 1.258 . S
Zn160 O166 1.947 1_655 S
Zn160 O167 1.968 . S
Zn160 O171 2.038 . S
Zn160 O176 1.976 . S
Zn161 O168 1.969 . S
Zn161 O174 1.969 . S
Zn161 O175 1.965 . S
Zn161 O177 2.024 . S
C162 O163 1.229 1_655 S
C162 O171 1.058 . S
O163 C162 1.229 1_455 S
C164 O165 1.229 . S
C164 O177 1.058 . S
O165 C164 1.229 . S
O166 Zn160 1.947 1_455 S
O166 C169 1.267 . S
O167 Zn160 1.968 . S
O167 C178 1.260 . S
O168 Zn161 1.969 . S
O168 C178 1.258 . S
C169 O166 1.267 . S
C169 O170 1.228 . S
O170 C169 1.228 . S
O171 Zn160 2.038 . S
O171 C162 1.058 . S
C172 O173 1.228 . S
C172 O174 1.267 . S
O173 C172 1.228 . S
O174 Zn161 1.969 . S
O174 C172 1.267 . S
O175 Zn161 1.965 . S
O175 C179 1.260 . S
O176 Zn160 1.976 . S
O176 C179 1.258 . S
O177 Zn161 2.024 . S
O177 C164 1.058 . S
C178 O167 1.260 . S
C178 O168 1.258 . S
C179 O175 1.260 . S
C179 O176 1.258 . S
Zn180 O186 1.969 . S
Zn180 O187 1.965 1_545 S
Zn180 O191 2.024 1_545 S
Zn180 O196 1.969 1_545 S
Zn181 O188 1.969 . S
Zn181 O194 1.969 . S
Zn181 O195 1.965 . S
Zn181 O197 2.024 . S
C182 O183 1.229 1_565 S
C182 O191 1.058 . S
O183 C182 1.229 1_545 S
C184 O185 1.229 . S
C184 O197 1.058 . S
O185 C184 1.229 . S
O186 Zn180 1.969 . S
O186 C189 1.267 . S
O187 Zn180 1.965 1_565 S
O187 C198 1.260 . S
O188 Zn181 1.969 . S
O188 C198 1.258 . S
C189 O186 1.267 . S
C189 O190 1.228 . S
O190 C189 1.228 . S
O191 Zn180 2.024 1_565 S
O191 C182 1.058 . S
C192 O193 1.228 . S
C192 O194 1.267 . S
O193 C192 1.228 . S
O194 Zn181 1.969 . S
O194 C192 1.267 . S
O195 Zn181 1.965 . S
O195 C199 1.260 . S
O196 Zn180 1.969 1_565 S
O196 C199 1.258 . S
O197 Zn181 2.024 . S
O197 C184 1.058 . S
C198 O187 1.260 . S
C198 O188 1.258 . S
C199 O195 1.260 . S
C199 O196 1.258 . S
Zn200 O206 1.969 . S
Zn200 O207 1.965 . S
Zn200 O211 2.024 . S
Zn200 O216 1.969 . S
Zn201 O208 1.969 . S
Zn201 O214 1.969 . S
Zn201 O215 1.965 . S
Zn201 O217 2.024 . S
C202 O203 1.229 . S
C202 O211 1.058 . S
O203 C202 1.229 . S
C204 O205 1.229 . S
C204 O217 1.058 . S
O205 C204 1.229 . S
O206 Zn200 1.969 . S
O206 C209 1.267 . S
O207 Zn200 1.965 . S
O207 C218 1.260 . S
O208 Zn201 1.969 . S
O208 C218 1.258 . S
C209 O206 1.267 . S
C209 O210 1.228 . S
O210 C209 1.228 . S
O211 Zn200 2.024 . S
O211 C202 1.058 . S
C212 O213 1.228 . S
C212 O214 1.267 . S
O213 C212 1.228 . S
O214 Zn201 1.969 . S
O214 C212 1.267 . S
O215 Zn201 1.965 . S
O215 C219 1.260 . S
O216 Zn200 1.969 . S
O216 C219 1.258 . S
O217 Zn201 2.024 . S
O217 C204 1.058 . S
C218 O207 1.260 . S
C218 O208 1.258 . S
C219 O215 1.260 . S
C219 O216 1.258 . S
Zn220 O226 1.969 . S
Zn220 O227 1.965 . S
Zn220 O231 2.024 . S
Zn220 O236 1.969 . S
Zn221 O228 1.969 . S
Zn221 O234 1.969 . S
Zn221 O235 1.965 . S
Zn221 O237 2.024 . S
C222 O223 1.229 . S
C222 O231 1.058 . S
O223 C222 1.229 . S
C224 O225 1.229 . S
C224 O237 1.058 . S
O225 C224 1.229 . S
O226 Zn220 1.969 . S
O226 C229 1.267 . S
O227 Zn220 1.965 . S
O227 C238 1.260 . S
O228 Zn221 1.969 . S
O228 C238 1.258 . S
C229 O226 1.267 . S
C229 O230 1.228 . S
O230 C229 1.228 . S
O231 Zn220 2.024 . S
O231 C222 1.058 . S
C232 O233 1.228 . S
C232 O234 1.267 . S
O233 C232 1.228 . S
O234 Zn221 1.969 . S
O234 C232 1.267 . S
O235 Zn221 1.965 . S
O235 C239 1.260 . S
O236 Zn220 1.969 . S
O236 C239 1.258 . S
O237 Zn221 2.024 . S
O237 C224 1.058 . S
C238 O227 1.260 . S
C238 O228 1.258 . S
C239 O235 1.260 . S
C239 O236 1.258 . S
Zn240 O246 1.969 1_655 S
Zn240 O247 1.965 . S
Zn240 O251 2.024 . S
Zn240 O256 1.969 . S
Zn241 O248 1.969 . S
Zn241 O254 1.969 . S
Zn241 O255 1.965 . S
Zn241 O257 2.024 . S
C242 O243 1.229 . S
C242 O251 1.058 . S
O243 C242 1.229 . S
C244 O245 1.229 . S
C244 O257 1.058 . S
O245 C244 1.229 . S
O246 Zn240 1.969 1_455 S
O246 C249 1.267 . S
O247 Zn240 1.965 . S
O247 C258 1.260 . S
O248 Zn241 1.969 . S
O248 C258 1.258 . S
C249 O246 1.267 . S
C249 O250 1.228 . S
O250 C249 1.228 . S
O251 Zn240 2.024 . S
O251 C242 1.058 . S
C252 O253 1.228 . S
C252 O254 1.267 . S
O253 C252 1.228 . S
O254 Zn241 1.969 . S
O254 C252 1.267 . S
O255 Zn241 1.965 . S
O255 C259 1.260 . S
O256 Zn240 1.969 . S
O256 C259 1.258 . S
O257 Zn241 2.024 . S
O257 C244 1.058 . S
C258 O247 1.260 . S
C258 O248 1.258 . S
C259 O255 1.260 . S
C259 O256 1.258 . S
Zn260 O266 1.982 . S
Zn260 O267 1.963 1_545 S
Zn260 O271 2.016 1_545 S
Zn260 O276 1.965 1_545 S
Zn261 O268 1.969 . S
Zn261 O274 1.969 . S
Zn261 O275 1.965 . S
Zn261 O277 2.024 . S
C262 O263 1.229 1_565 S
C262 O271 1.058 . S
O263 C262 1.229 1_545 S
C264 O265 1.229 . S
C264 O277 1.058 . S
O265 C264 1.229 . S
O266 Zn260 1.982 . S
O266 C269 1.267 . S
O267 Zn260 1.963 1_565 S
O267 C278 1.260 . S
O268 Zn261 1.969 . S
O268 C278 1.258 . S
C269 O266 1.267 . S
C269 O270 1.228 . S
O270 C269 1.228 . S
O271 Zn260 2.016 1_565 S
O271 C262 1.058 . S
C272 O273 1.228 . S
C272 O274 1.267 . S
O273 C272 1.228 . S
O274 Zn261 1.969 . S
O274 C272 1.267 . S
O275 Zn261 1.965 . S
O275 C279 1.260 . S
O276 Zn260 1.965 1_565 S
O276 C279 1.258 . S
O277 Zn261 2.024 . S
O277 C264 1.058 . S
C278 O267 1.260 . S
C278 O268 1.258 . S
C279 O275 1.260 . S
C279 O276 1.258 . S
Zn280 O286 1.969 . S
Zn280 O287 1.965 . S
Zn280 O291 2.024 . S
Zn280 O296 1.969 . S
Zn281 O288 1.969 . S
Zn281 O294 1.969 . S
Zn281 O295 1.965 . S
Zn281 O297 2.024 . S
C282 O283 1.229 . S
C282 O291 1.058 . S
O283 C282 1.229 . S
C284 O285 1.229 . S
C284 O297 1.058 . S
O285 C284 1.229 . S
O286 Zn280 1.969 . S
O286 C289 1.267 . S
O287 Zn280 1.965 . S
O287 C298 1.260 . S
O288 Zn281 1.969 . S
O288 C298 1.258 . S
C289 O286 1.267 . S
C289 O290 1.228 . S
O290 C289 1.228 . S
O291 Zn280 2.024 . S
O291 C282 1.058 . S
C292 O293 1.228 . S
C292 O294 1.267 . S
O293 C292 1.228 . S
O294 Zn281 1.969 . S
O294 C292 1.267 . S
O295 Zn281 1.965 . S
O295 C299 1.260 . S
O296 Zn280 1.969 . S
O296 C299 1.258 . S
O297 Zn281 2.024 . S
O297 C284 1.058 . S
C298 O287 1.260 . S
C298 O288 1.258 . S
C299 O295 1.260 . S
C299 O296 1.258 . S
Zn300 O306 1.969 . S
Zn300 O307 1.965 . S
Zn300 O311 2.024 1_455 S
Zn300 O316 1.969 . S
Zn301 O308 1.969 . S
Zn301 O314 1.969 . S
Zn301 O315 1.965 . S
Zn301 O317 2.024 . S
C302 O303 1.229 . S
C302 O311 1.058 . S
O303 C302 1.229 . S
C304 O305 1.229 . S
C304 O317 1.058 . S
O305 C304 1.229 . S
O306 Zn300 1.969 . S
O306 C309 1.267 . S
O307 Zn300 1.965 . S
O307 C318 1.260 . S
O308 Zn301 1.969 . S
O308 C318 1.258 . S
C309 O306 1.267 . S
C309 O310 1.228 1_455 S
O310 C309 1.228 1_655 S
O311 Zn300 2.024 1_655 S
O311 C302 1.058 . S
C312 O313 1.228 . S
C312 O314 1.267 . S
O313 C312 1.228 . S
O314 Zn301 1.969 . S
O314 C312 1.267 . S
O315 Zn301 1.965 . S
O315 C319 1.260 . S
O316 Zn300 1.969 . S
O316 C319 1.258 . S
O317 Zn301 2.024 . S
O317 C304 1.058 . S
C318 O307 1.260 . S
C318 O308 1.258 . S
C319 O315 1.260 . S
C319 O316 1.258 . S
C320 C321 1.369 . S
C320 C322 1.419 . S
C320 H324 0.930 . S
C321 C320 1.369 . S
C321 C330 1.429 . S
C322 C320 1.419 . S
C322 C323 1.363 . S
C322 H325 0.929 . S
C323 C322 1.363 . S
C323 C329 1.428 . S
H324 C320 0.930 . S
H325 C322 0.929 . S
S326 N327 1.613 . S
S326 N328 1.610 . S
N327 S326 1.613 . S
N327 C330 1.350 . S
N328 S326 1.610 . S
N328 C329 1.351 . S
C329 C323 1.428 . S
C329 N328 1.351 . S
C329 C330 1.434 . S
C330 C321 1.429 . S
C330 N327 1.350 . S
C330 C329 1.434 . S
C331 C332 1.385 . S
C331 C333 1.408 1_455 S
C331 H335 0.925 1_455 S
C332 C331 1.385 . S
C332 C341 1.429 . S
C333 C331 1.408 1_655 S
C333 C334 1.363 . S
C333 H336 0.929 . S
C334 C333 1.363 . S
C334 C340 1.428 1_655 S
H335 C331 0.925 1_655 S
H336 C333 0.929 . S
S337 N338 1.613 . S
S337 N339 1.610 . S
N338 S337 1.613 . S
N338 C341 1.350 . S
N339 S337 1.610 . S
N339 C340 1.351 . S
C340 C334 1.428 1_455 S
C340 N339 1.351 . S
C340 C341 1.434 . S
C341 C332 1.429 . S
C341 N338 1.350 . S
C341 C340 1.434 . S
C342 C343 1.369 . S
C342 C344 1.419 1_565 S
C342 H346 0.930 . S
C343 C342 1.369 . S
C343 C352 1.429 . S
C344 C342 1.419 1_545 S
C344 C345 1.363 . S
C344 H347 0.929 . S
C345 C344 1.363 . S
C345 C351 1.428 1_545 S
H346 C342 0.930 . S
H347 C344 0.929 . S
S348 N349 1.613 . S
S348 N350 1.622 . S
N349 S348 1.613 . S
N349 C352 1.350 . S
N350 S348 1.622 . S
N350 C351 1.351 . S
C351 C345 1.428 1_565 S
C351 N350 1.351 . S
C351 C352 1.434 . S
C352 C343 1.429 . S
C352 N349 1.350 . S
C352 C351 1.434 . S
C353 C354 1.369 . S
C353 C355 1.419 . S
C353 H357 0.930 . S
C354 C353 1.369 . S
C354 C363 1.429 . S
C355 C353 1.419 . S
C355 C356 1.363 . S
C355 H358 0.929 . S
C356 C355 1.363 . S
C356 C362 1.428 . S
H357 C353 0.930 . S
H358 C355 0.929 . S
S359 N360 1.613 . S
S359 N361 1.610 1_556 S
N360 S359 1.613 . S
N360 C363 1.350 1_556 S
N361 S359 1.610 1_554 S
N361 C362 1.351 . S
C362 C356 1.428 . S
C362 N361 1.351 . S
C362 C363 1.434 . S
C363 C354 1.429 . S
C363 N360 1.350 1_554 S
C363 C362 1.434 . S
C364 C365 1.369 . S
C364 C366 1.419 1_565 S
C364 H368 0.930 . S
C365 C364 1.369 . S
C365 C374 1.429 . S
C366 C364 1.419 1_545 S
C366 C367 1.363 . S
C366 H369 0.929 . S
C367 C366 1.363 . S
C367 C373 1.428 . S
H368 C364 0.930 . S
H369 C366 0.929 . S
S370 N371 1.613 . S
S370 N372 1.610 1_565 S
N371 S370 1.613 . S
N371 C374 1.350 . S
N372 S370 1.610 1_545 S
N372 C373 1.351 . S
C373 C367 1.428 . S
C373 N372 1.351 . S
C373 C374 1.434 1_545 S
C374 C365 1.429 . S
C374 N371 1.350 . S
C374 C373 1.434 1_565 S
C375 C376 1.369 . S
C375 C377 1.419 . S
C375 H379 0.930 . S
C376 C375 1.369 . S
C376 C385 1.429 . S
C377 C375 1.419 . S
C377 C378 1.363 . S
C377 H380 0.929 . S
C378 C377 1.363 . S
C378 C384 1.428 . S
H379 C375 0.930 . S
H380 C377 0.929 . S
S381 N382 1.613 . S
S381 N383 1.610 . S
N382 S381 1.613 . S
N382 C385 1.350 . S
N383 S381 1.610 . S
N383 C384 1.351 . S
C384 C378 1.428 . S
C384 N383 1.351 . S
C384 C385 1.434 . S
C385 C376 1.429 . S
C385 N382 1.350 . S
C385 C384 1.434 . S
C386 C387 1.369 . S
C386 C388 1.419 . S
C386 H390 0.930 . S
C387 C386 1.369 . S
C387 C396 1.429 . S
C388 C386 1.419 . S
C388 C389 1.363 . S
C388 H391 0.929 . S
C389 C388 1.363 . S
C389 C395 1.428 . S
H390 C386 0.930 . S
H391 C388 0.929 . S
S392 N393 1.613 . S
S392 N394 1.610 . S
N393 S392 1.613 . S
N393 C396 1.350 . S
N394 S392 1.610 . S
N394 C395 1.351 . S
C395 C389 1.428 . S
C395 N394 1.351 . S
C395 C396 1.434 . S
C396 C387 1.429 . S
C396 N393 1.350 . S
C396 C395 1.434 . S
C397 C398 1.369 . S
C397 C399 1.419 . S
C397 H401 0.930 . S
C398 C397 1.369 . S
C398 C407 1.429 . S
C399 C397 1.419 . S
C399 C400 1.363 1_455 S
C399 H402 0.928 1_455 S
C400 C399 1.363 1_655 S
C400 C406 1.428 . S
H401 C397 0.930 . S
H402 C399 0.928 1_655 S
S403 N404 1.613 1_655 S
S403 N405 1.610 . S
N404 S403 1.613 1_455 S
N404 C407 1.350 . S
N405 S403 1.610 . S
N405 C406 1.351 . S
C406 C400 1.428 . S
C406 N405 1.351 . S
C406 C407 1.434 1_655 S
C407 C398 1.429 . S
C407 N404 1.350 . S
C407 C406 1.434 1_455 S
C408 C409 1.369 . S
C408 C410 1.419 . S
C408 H412 0.930 . S
C409 C408 1.369 . S
C409 C418 1.429 . S
C410 C408 1.419 . S
C410 C411 1.363 . S
C410 H413 0.929 . S
C411 C410 1.363 . S
C411 C417 1.428 . S
H412 C408 0.930 . S
H413 C410 0.929 . S
S414 N415 1.613 . S
S414 N416 1.610 . S
N415 S414 1.613 . S
N415 C418 1.350 . S
N416 S414 1.610 . S
N416 C417 1.351 . S
C417 C411 1.428 . S
C417 N416 1.351 . S
C417 C418 1.434 . S
C418 C409 1.429 . S
C418 N415 1.350 . S
C418 C417 1.434 . S
C419 C420 1.369 1_455 S
C419 C421 1.419 . S
C419 H423 0.930 . S
C420 C419 1.369 1_655 S
C420 C429 1.429 . S
C421 C419 1.419 . S
C421 C422 1.363 . S
C421 H424 0.929 . S
C422 C421 1.363 . S
C422 C428 1.428 1_455 S
H423 C419 0.930 . S
H424 C421 0.929 . S
S425 N426 1.613 . S
S425 N427 1.610 . S
N426 S425 1.613 . S
N426 C429 1.350 . S
N427 S425 1.610 . S
N427 C428 1.351 . S
C428 C422 1.428 1_655 S
C428 N427 1.351 . S
C428 C429 1.434 . S
C429 C420 1.429 . S
C429 N426 1.350 . S
C429 C428 1.434 . S
C430 C431 1.365 1_545 S
C430 C432 1.424 . S
C430 H434 0.929 1_545 S
C431 C430 1.365 1_565 S
C431 C440 1.429 . S
C432 C430 1.424 . S
C432 C433 1.363 . S
C432 H435 0.929 . S
C433 C432 1.363 . S
C433 C439 1.428 . S
H434 C430 0.929 1_565 S
H435 C432 0.929 . S
S436 N437 1.613 . S
S436 N438 1.610 1_565 S
N437 S436 1.613 . S
N437 C440 1.350 . S
N438 S436 1.610 1_545 S
N438 C439 1.351 . S
C439 C433 1.428 . S
C439 N438 1.351 . S
C439 C440 1.434 1_545 S
C440 C431 1.429 . S
C440 N437 1.350 . S
C440 C439 1.434 1_565 S
C441 C442 1.369 . S
C441 C443 1.419 . S
C441 H445 0.930 . S
C442 C441 1.369 . S
C442 C451 1.429 . S
C443 C441 1.419 . S
C443 C444 1.363 . S
C443 H446 0.929 . S
C444 C443 1.363 . S
C444 C450 1.428 . S
H445 C441 0.930 . S
H446 C443 0.929 . S
S447 N448 1.613 . S
S447 N449 1.610 . S
N448 S447 1.613 . S
N448 C451 1.350 . S
N449 S447 1.610 . S
N449 C450 1.351 . S
C450 C444 1.428 . S
C450 N449 1.351 . S
C450 C451 1.434 . S
C451 C442 1.429 . S
C451 N448 1.350 . S
C451 C450 1.434 . S
C452 C453 1.369 . S
C452 C454 1.419 . S
C452 H456 0.930 . S
C453 C452 1.369 . S
C453 C462 1.429 1_545 S
C454 C452 1.419 . S
C454 C455 1.363 1_545 S
C454 H457 0.929 . S
C455 C454 1.363 1_565 S
C455 C461 1.428 . S
H456 C452 0.930 . S
H457 C454 0.929 . S
S458 N459 1.613 . S
S458 N460 1.610 . S
N459 S458 1.613 . S
N459 C462 1.350 . S
N460 S458 1.610 . S
N460 C461 1.351 . S
C461 C455 1.428 . S
C461 N460 1.351 . S
C461 C462 1.434 . S
C462 C453 1.429 1_565 S
C462 N459 1.350 . S
C462 C461 1.434 . S
C463 C464 1.369 . S
C463 C465 1.419 . S
C463 H467 0.930 . S
C464 C463 1.369 . S
C464 C473 1.429 . S
C465 C463 1.419 . S
C465 C466 1.363 . S
C465 H468 0.929 . S
C466 C465 1.363 . S
C466 C472 1.428 . S
H467 C463 0.930 . S
H468 C465 0.929 . S
S469 N470 1.613 . S
S469 N471 1.610 . S
N470 S469 1.613 . S
N470 C473 1.350 . S
N471 S469 1.610 . S
N471 C472 1.351 . S
C472 C466 1.428 . S
C472 N471 1.351 . S
C472 C473 1.434 . S
C473 C464 1.429 . S
C473 N470 1.350 . S
C473 C472 1.434 . S
C474 C475 1.369 . S
C474 C476 1.419 . S
C474 H478 0.930 . S
C475 C474 1.369 . S
C475 C484 1.429 . S
C476 C474 1.419 . S
C476 C477 1.363 . S
C476 H479 0.929 . S
C477 C476 1.363 . S
C477 C483 1.428 . S
H478 C474 0.930 . S
H479 C476 0.929 . S
S480 N481 1.613 . S
S480 N482 1.610 . S
N481 S480 1.613 . S
N481 C484 1.350 . S
N482 S480 1.610 . S
N482 C483 1.351 . S
C483 C477 1.428 . S
C483 N482 1.351 . S
C483 C484 1.434 . S
C484 C475 1.429 . S
C484 N481 1.350 . S
C484 C483 1.434 . S
C485 C486 1.369 . S
C485 C487 1.419 . S
C485 H489 0.930 . S
C486 C485 1.369 . S
C486 C495 1.429 1_455 S
C487 C485 1.419 . S
C487 C488 1.363 1_455 S
C487 H490 0.929 . S
C488 C487 1.363 1_655 S
C488 C494 1.428 . S
H489 C485 0.930 . S
H490 C487 0.929 . S
S491 N492 1.613 . S
S491 N493 1.610 . S
N492 S491 1.613 . S
N492 C495 1.350 . S
N493 S491 1.610 . S
N493 C494 1.351 . S
C494 C488 1.428 . S
C494 N493 1.351 . S
C494 C495 1.434 . S
C495 C486 1.429 1_655 S
C495 N492 1.350 . S
C495 C494 1.434 . S
C496 C497 1.369 . S
C496 C498 1.419 . S
C496 H500 0.930 . S
C497 C496 1.369 . S
C497 C506 1.429 . S
C498 C496 1.419 . S
C498 C499 1.363 . S
C498 H501 0.929 . S
C499 C498 1.363 . S
C499 C505 1.428 . S
H500 C496 0.930 . S
H501 C498 0.929 . S
S502 N503 1.613 . S
S502 N504 1.610 . S
N503 S502 1.613 . S
N503 C506 1.350 1_655 S
N504 S502 1.610 . S
N504 C505 1.351 1_655 S
C505 C499 1.428 . S
C505 N504 1.351 1_455 S
C505 C506 1.434 . S
C506 C497 1.429 . S
C506 N503 1.350 1_455 S
C506 C505 1.434 . S
C507 C508 1.369 . S
C507 C509 1.419 . S
C507 H511 0.930 . S
C508 C507 1.369 . S
C508 C517 1.429 . S
C509 C507 1.419 . S
C509 C510 1.363 . S
C509 H512 0.929 . S
C510 C509 1.363 . S
C510 C516 1.428 . S
H511 C507 0.930 . S
H512 C509 0.929 . S
S513 N514 1.613 . S
S513 N515 1.610 . S
N514 S513 1.613 . S
N514 C517 1.350 . S
N515 S513 1.610 . S
N515 C516 1.351 . S
C516 C510 1.428 . S
C516 N515 1.351 . S
C516 C517 1.434 . S
C517 C508 1.429 . S
C517 N514 1.350 . S
C517 C516 1.434 . S
C518 C519 1.369 . S
C518 C520 1.419 . S
C518 H522 0.930 . S
C519 C518 1.369 . S
C519 C528 1.429 . S
C520 C518 1.419 . S
C520 C521 1.363 . S
C520 H523 0.929 . S
C521 C520 1.363 . S
C521 C527 1.428 . S
H522 C518 0.930 . S
H523 C520 0.929 . S
S524 N525 1.613 . S
S524 N526 1.610 . S
N525 S524 1.613 . S
N525 C528 1.350 . S
N526 S524 1.610 . S
N526 C527 1.351 . S
C527 C521 1.428 . S
C527 N526 1.351 . S
C527 C528 1.434 . S
C528 C519 1.429 . S
C528 N525 1.350 . S
C528 C527 1.434 . S
C529 C530 1.369 . S
C529 C531 1.419 . S
C529 H533 0.930 . S
C530 C529 1.369 . S
C530 C539 1.429 . S
C531 C529 1.419 . S
C531 C532 1.363 . S
C531 H534 0.929 . S
C532 C531 1.363 . S
C532 C538 1.428 . S
H533 C529 0.930 . S
H534 C531 0.929 . S
S535 N536 1.613 . S
S535 N537 1.610 . S
N536 S535 1.613 . S
N536 C539 1.350 . S
N537 S535 1.610 . S
N537 C538 1.351 . S
C538 C532 1.428 . S
C538 N537 1.351 . S
C538 C539 1.434 . S
C539 C530 1.429 . S
C539 N536 1.350 . S
C539 C538 1.434 . S
C540 C541 1.369 . S
C540 C542 1.419 . S
C540 H544 0.930 . S
C541 C540 1.369 . S
C541 C550 1.429 . S
C542 C540 1.419 . S
C542 C543 1.363 . S
C542 H545 0.929 . S
C543 C542 1.363 . S
C543 C549 1.428 . S
H544 C540 0.930 . S
H545 C542 0.929 . S
S546 N547 1.613 . S
S546 N548 1.610 . S
N547 S546 1.613 . S
N547 C550 1.350 1_455 S
N548 S546 1.610 . S
N548 C549 1.351 1_455 S
C549 C543 1.428 . S
C549 N548 1.351 1_655 S
C549 C550 1.434 . S
C550 C541 1.429 . S
C550 N547 1.350 1_655 S
C550 C549 1.434 . S
C551 C552 1.369 . S
C551 C553 1.419 . S
C551 H555 0.930 1_565 S
C552 C551 1.369 . S
C552 C561 1.429 . S
C553 C551 1.419 . S
C553 C554 1.363 . S
C553 H556 0.929 1_565 S
C554 C553 1.363 . S
C554 C560 1.428 . S
H555 C551 0.930 1_545 S
H556 C553 0.929 1_545 S
S557 N558 1.613 . S
S557 N559 1.610 . S
N558 S557 1.613 . S
N558 C561 1.350 . S
N559 S557 1.610 . S
N559 C560 1.351 . S
C560 C554 1.428 . S
C560 N559 1.351 . S
C560 C561 1.434 . S
C561 C552 1.429 . S
C561 N558 1.350 . S
C561 C560 1.434 . S
C562 C563 1.369 . S
C562 C564 1.419 . S
C562 H566 0.930 . S
C563 C562 1.369 . S
C563 C572 1.429 . S
C564 C562 1.419 . S
C564 C565 1.363 . S
C564 H567 0.929 . S
C565 C564 1.363 . S
C565 C571 1.428 . S
H566 C562 0.930 . S
H567 C564 0.929 . S
S568 N569 1.613 . S
S568 N570 1.610 . S
N569 S568 1.613 . S
N569 C572 1.350 . S
N570 S568 1.610 . S
N570 C571 1.351 . S
C571 C565 1.428 . S
C571 N570 1.351 . S
C571 C572 1.434 . S
C572 C563 1.429 . S
C572 N569 1.350 . S
C572 C571 1.434 . S
C573 C574 1.369 . S
C573 C575 1.419 . S
C573 H577 0.930 . S
C574 C573 1.369 . S
C574 C583 1.429 . S
C575 C573 1.419 . S
C575 C576 1.363 . S
C575 H578 0.929 . S
C576 C575 1.363 . S
C576 C582 1.428 . S
H577 C573 0.930 . S
H578 C575 0.929 . S
S579 N580 1.613 . S
S579 N581 1.610 . S
N580 S579 1.613 . S
N580 C583 1.350 . S
N581 S579 1.610 . S
N581 C582 1.351 . S
C582 C576 1.428 . S
C582 N581 1.351 . S
C582 C583 1.434 . S
C583 C574 1.429 . S
C583 N580 1.350 . S
C583 C582 1.434 . S
C584 C585 1.369 . S
C584 C586 1.419 . S
C584 H588 0.930 . S
C585 C584 1.369 . S
C585 C594 1.429 . S
C586 C584 1.419 . S
C586 C587 1.363 . S
C586 H589 0.929 . S
C587 C586 1.363 . S
C587 C593 1.428 . S
H588 C584 0.930 . S
H589 C586 0.929 . S
S590 N591 1.613 . S
S590 N592 1.610 . S
N591 S590 1.613 . S
N591 C594 1.350 . S
N592 S590 1.610 . S
N592 C593 1.351 . S
C593 C587 1.428 . S
C593 N592 1.351 . S
C593 C594 1.434 . S
C594 C585 1.429 . S
C594 N591 1.350 . S
C594 C593 1.434 . S
C595 C596 1.369 . S
C595 C597 1.419 . S
C595 H599 0.930 . S
C596 C595 1.369 . S
C596 C605 1.429 . S
C597 C595 1.419 . S
C597 C598 1.363 . S
C597 H600 0.929 . S
C598 C597 1.363 . S
C598 C604 1.428 . S
H599 C595 0.930 . S
H600 C597 0.929 . S
S601 N602 1.613 . S
S601 N603 1.610 . S
N602 S601 1.613 . S
N602 C605 1.350 . S
N603 S601 1.610 . S
N603 C604 1.351 . S
C604 C598 1.428 . S
C604 N603 1.351 . S
C604 C605 1.434 . S
C605 C596 1.429 . S
C605 N602 1.350 . S
C605 C604 1.434 . S
C606 C607 1.369 . S
C606 C608 1.419 . S
C606 H610 0.930 . S
C607 C606 1.369 . S
C607 C616 1.429 . S
C608 C606 1.419 . S
C608 C609 1.363 . S
C608 H611 0.929 . S
C609 C608 1.363 . S
C609 C615 1.428 . S
H610 C606 0.930 . S
H611 C608 0.929 . S
S612 N613 1.613 . S
S612 N614 1.610 . S
N613 S612 1.613 . S
N613 C616 1.350 . S
N614 S612 1.610 . S
N614 C615 1.351 . S
C615 C609 1.428 . S
C615 N614 1.351 . S
C615 C616 1.434 . S
C616 C607 1.429 . S
C616 N613 1.350 . S
C616 C615 1.434 . S
C617 C618 1.369 . S
C617 C619 1.419 . S
C617 H621 0.930 . S
C618 C617 1.369 . S
C618 C627 1.429 . S
C619 C617 1.419 . S
C619 C620 1.363 . S
C619 H622 0.929 . S
C620 C619 1.363 . S
C620 C626 1.428 . S
H621 C617 0.930 . S
H622 C619 0.929 . S
S623 N624 1.613 . S
S623 N625 1.610 . S
N624 S623 1.613 . S
N624 C627 1.350 . S
N625 S623 1.610 . S
N625 C626 1.351 . S
C626 C620 1.428 . S
C626 N625 1.351 . S
C626 C627 1.434 . S
C627 C618 1.429 . S
C627 N624 1.350 . S
C627 C626 1.434 . S
C628 C629 1.369 . S
C628 C630 1.419 . S
C628 H632 0.930 . S
C629 C628 1.369 . S
C629 C638 1.429 . S
C630 C628 1.419 . S
C630 C631 1.363 . S
C630 H633 0.929 . S
C631 C630 1.363 . S
C631 C637 1.428 . S
H632 C628 0.930 . S
H633 C630 0.929 . S
S634 N635 1.613 . S
S634 N636 1.610 . S
N635 S634 1.613 . S
N635 C638 1.350 . S
N636 S634 1.610 . S
N636 C637 1.351 . S
C637 C631 1.428 . S
C637 N636 1.351 . S
C637 C638 1.434 . S
C638 C629 1.429 . S
C638 N635 1.350 . S
C638 C637 1.434 . S
C639 C640 1.369 . S
C639 C641 1.419 . S
C639 H643 0.930 . S
C640 C639 1.369 . S
C640 C649 1.429 . S
C641 C639 1.419 . S
C641 C642 1.363 . S
C641 H644 0.929 . S
C642 C641 1.363 . S
C642 C648 1.428 . S
H643 C639 0.930 . S
H644 C641 0.929 . S
S645 N646 1.613 . S
S645 N647 1.610 . S
N646 S645 1.613 . S
N646 C649 1.350 . S
N647 S645 1.610 . S
N647 C648 1.351 . S
C648 C642 1.428 . S
C648 N647 1.351 . S
C648 C649 1.434 . S
C649 C640 1.429 . S
C649 N646 1.350 . S
C649 C648 1.434 . S
C650 C651 1.369 . S
C650 C652 1.419 . S
C650 H654 0.930 . S
C651 C650 1.369 . S
C651 C660 1.429 . S
C652 C650 1.419 . S
C652 C653 1.363 . S
C652 H655 0.929 . S
C653 C652 1.363 . S
C653 C659 1.428 . S
H654 C650 0.930 . S
H655 C652 0.929 . S
S656 N657 1.613 . S
S656 N658 1.610 . S
N657 S656 1.613 . S
N657 C660 1.350 . S
N658 S656 1.610 . S
N658 C659 1.351 . S
C659 C653 1.428 . S
C659 N658 1.351 . S
C659 C660 1.434 . S
C660 C651 1.429 . S
C660 N657 1.350 . S
C660 C659 1.434 . S
C661 C662 1.369 . S
C661 C663 1.419 . S
C661 H665 0.930 . S
C662 C661 1.369 . S
C662 C671 1.429 . S
C663 C661 1.419 . S
C663 C664 1.363 . S
C663 H666 0.929 . S
C664 C663 1.363 . S
C664 C670 1.428 . S
H665 C661 0.930 . S
H666 C663 0.929 . S
S667 N668 1.613 . S
S667 N669 1.610 . S
N668 S667 1.613 . S
N668 C671 1.350 . S
N669 S667 1.610 . S
N669 C670 1.351 . S
C670 C664 1.428 . S
C670 N669 1.351 . S
C670 C671 1.434 . S
C671 C662 1.429 . S
C671 N668 1.350 . S
C671 C670 1.434 . S
C672 C673 1.369 1_554 S
C672 C674 1.419 . S
C672 H676 0.930 . S
C673 C672 1.369 1_556 S
C673 C682 1.429 1_655 S
C674 C672 1.419 . S
C674 C675 1.363 1_655 S
C674 H677 0.929 . S
C675 C674 1.363 1_455 S
C675 C681 1.428 1_554 S
H676 C672 0.930 . S
H677 C674 0.929 . S
S678 N679 1.613 . S
S678 N680 1.610 . S
N679 S678 1.613 . S
N679 C682 1.350 . S
N680 S678 1.610 . S
N680 C681 1.351 . S
C681 C675 1.428 1_556 S
C681 N680 1.351 . S
C681 C682 1.434 . S
C682 C673 1.429 1_455 S
C682 N679 1.350 . S
C682 C681 1.434 . S
C683 C684 1.369 1_545 S
C683 C685 1.419 1_455 S
C683 H687 0.930 . S
C684 C683 1.369 1_565 S
C684 C693 1.429 1_556 S
C685 C683 1.419 1_655 S
C685 C686 1.363 1_556 S
C685 H688 0.929 . S
C686 C685 1.363 1_554 S
C686 C692 1.428 1_545 S
H687 C683 0.930 . S
H688 C685 0.929 . S
S689 N690 1.613 . S
S689 N691 1.615 . S
N690 S689 1.613 . S
N690 C693 1.350 . S
N691 S689 1.615 . S
N691 C692 1.350 1_455 S
C692 C686 1.428 1_565 S
C692 N691 1.350 1_655 S
C692 C693 1.434 1_655 S
C693 C684 1.429 1_554 S
C693 N690 1.350 . S
C693 C692 1.434 1_455 S
C694 C695 1.369 . S
C694 C696 1.419 1_545 S
C694 H698 0.930 . S
C695 C694 1.369 . S
C695 C704 1.429 1_556 S
C696 C694 1.419 1_565 S
C696 C697 1.363 1_556 S
C696 H699 0.929 . S
C697 C696 1.363 1_554 S
C697 C703 1.428 . S
H698 C694 0.930 . S
H699 C696 0.929 . S
S700 N701 1.613 . S
S700 N702 1.610 1_545 S
N701 S700 1.613 . S
N701 C704 1.350 . S
N702 S700 1.610 1_565 S
N702 C703 1.351 . S
C703 C697 1.428 . S
C703 N702 1.351 . S
C703 C704 1.434 1_565 S
C704 C695 1.429 1_554 S
C704 N701 1.350 . S
C704 C703 1.434 1_545 S
C705 C706 1.369 1_556 S
C705 C707 1.419 . S
C705 H709 0.930 . S
C706 C705 1.369 1_554 S
C706 C715 1.429 . S
C707 C705 1.419 . S
C707 C708 1.363 . S
C707 H710 0.929 . S
C708 C707 1.363 . S
C708 C714 1.428 1_556 S
H709 C705 0.930 . S
H710 C707 0.929 . S
S711 N712 1.613 . S
S711 N713 1.610 . S
N712 S711 1.613 . S
N712 C715 1.350 . S
N713 S711 1.610 . S
N713 C714 1.351 . S
C714 C708 1.428 1_554 S
C714 N713 1.351 . S
C714 C715 1.434 . S
C715 C706 1.429 . S
C715 N712 1.350 . S
C715 C714 1.434 . S
C716 C717 1.369 1_455 S
C716 C718 1.428 . S
C716 H720 0.930 . S
C717 C716 1.369 1_655 S
C717 C726 1.429 1_545 S
C718 C716 1.428 . S
C718 C719 1.352 1_545 S
C718 H721 0.930 . S
C719 C718 1.352 1_565 S
C719 C725 1.428 1_455 S
H720 C716 0.930 . S
H721 C718 0.930 . S
S722 N723 1.613 . S
S722 N724 1.610 . S
N723 S722 1.613 . S
N723 C726 1.350 . S
N724 S722 1.610 . S
N724 C725 1.351 . S
C725 C719 1.428 1_655 S
C725 N724 1.351 . S
C725 C726 1.434 . S
C726 C717 1.429 1_565 S
C726 N723 1.350 . S
C726 C725 1.434 . S
C727 C728 1.369 . S
C727 C729 1.419 1_565 S
C727 H731 0.930 . S
C728 C727 1.369 . S
C728 C737 1.429 . S
C729 C727 1.419 1_545 S
C729 C730 1.363 . S
C729 H732 0.929 . S
C730 C729 1.363 . S
C730 C736 1.428 . S
H731 C727 0.930 . S
H732 C729 0.929 . S
S733 N734 1.613 1_545 S
S733 N735 1.610 . S
N734 S733 1.613 1_565 S
N734 C737 1.350 . S
N735 S733 1.610 . S
N735 C736 1.351 . S
C736 C730 1.428 . S
C736 N735 1.351 . S
C736 C737 1.434 1_545 S
C737 C728 1.429 . S
C737 N734 1.350 . S
C737 C736 1.434 1_565 S
C738 C739 1.369 . S
C738 C740 1.419 . S
C738 H742 0.930 . S
C739 C738 1.369 . S
C739 C748 1.429 . S
C740 C738 1.419 . S
C740 C741 1.363 . S
C740 H743 0.929 . S
C741 C740 1.363 . S
C741 C747 1.428 . S
H742 C738 0.930 . S
H743 C740 0.929 . S
S744 N745 1.613 . S
S744 N746 1.610 . S
N745 S744 1.613 . S
N745 C748 1.350 . S
N746 S744 1.610 . S
N746 C747 1.351 . S
C747 C741 1.428 . S
C747 N746 1.351 . S
C747 C748 1.434 . S
C748 C739 1.429 . S
C748 N745 1.350 . S
C748 C747 1.434 . S
C749 C750 1.369 . S
C749 C751 1.419 . S
C749 H753 0.930 . S
C750 C749 1.369 . S
C750 C759 1.429 1_455 S
C751 C749 1.419 . S
C751 C752 1.363 1_455 S
C751 H754 0.929 . S
C752 C751 1.363 1_655 S
C752 C758 1.428 . S
H753 C749 0.930 . S
H754 C751 0.929 . S
S755 N756 1.613 . S
S755 N757 1.610 . S
N756 S755 1.613 . S
N756 C759 1.350 . S
N757 S755 1.610 . S
N757 C758 1.351 . S
C758 C752 1.428 . S
C758 N757 1.351 . S
C758 C759 1.434 . S
C759 C750 1.429 1_655 S
C759 N756 1.350 . S
C759 C758 1.434 . S
C760 C761 1.369 . S
C760 C762 1.419 . S
C760 H764 0.930 1_455 S
C761 C760 1.369 . S
C761 C770 1.429 . S
C762 C760 1.419 . S
C762 C763 1.363 . S
C762 H765 0.929 1_455 S
C763 C762 1.363 . S
C763 C769 1.428 . S
H764 C760 0.930 1_655 S
H765 C762 0.929 1_655 S
S766 N767 1.613 . S
S766 N768 1.610 . S
N767 S766 1.613 . S
N767 C770 1.350 . S
N768 S766 1.610 . S
N768 C769 1.351 . S
C769 C763 1.428 . S
C769 N768 1.351 . S
C769 C770 1.434 . S
C770 C761 1.429 . S
C770 N767 1.350 . S
C770 C769 1.434 . S
C771 C772 1.369 . S
C771 C773 1.419 . S
C771 H775 0.930 . S
C772 C771 1.369 . S
C772 C781 1.411 1_455 S
C773 C771 1.419 . S
C773 C774 1.363 . S
C773 H776 0.929 . S
C774 C773 1.363 . S
C774 C780 1.428 1_455 S
H775 C771 0.930 . S
H776 C773 0.929 . S
S777 N778 1.613 . S
S777 N779 1.610 1_565 S
N778 S777 1.613 . S
N778 C781 1.362 1_565 S
N779 S777 1.610 1_545 S
N779 C780 1.351 . S
C780 C774 1.428 1_655 S
C780 N779 1.351 . S
C780 C781 1.440 . S
C781 C772 1.411 1_655 S
C781 N778 1.362 1_545 S
C781 C780 1.440 . S
C782 C783 1.369 1_565 S
C782 C784 1.419 . S
C782 H786 0.930 . S
C783 C782 1.369 1_545 S
C783 C792 1.429 . S
C784 C782 1.419 . S
C784 C785 1.363 1_565 S
C784 H787 0.929 . S
C785 C784 1.363 1_545 S
C785 C791 1.428 . S
H786 C782 0.930 . S
H787 C784 0.929 . S
S788 N789 1.613 . S
S788 N790 1.610 . S
N789 S788 1.613 . S
N789 C792 1.350 . S
N790 S788 1.610 . S
N790 C791 1.351 . S
C791 C785 1.428 . S
C791 N790 1.351 . S
C791 C792 1.434 . S
C792 C783 1.429 . S
C792 N789 1.350 . S
C792 C791 1.434 . S
C793 C794 1.369 . S
C793 C795 1.419 . S
C793 H797 0.930 . S
C794 C793 1.369 . S
C794 C803 1.429 . S
C795 C793 1.419 . S
C795 C796 1.363 . S
C795 H798 0.929 . S
C796 C795 1.363 . S
C796 C802 1.428 . S
H797 C793 0.930 . S
H798 C795 0.929 . S
S799 N800 1.613 . S
S799 N801 1.610 . S
N800 S799 1.613 . S
N800 C803 1.350 . S
N801 S799 1.610 . S
N801 C802 1.351 . S
C802 C796 1.428 . S
C802 N801 1.351 . S
C802 C803 1.434 . S
C803 C794 1.429 . S
C803 N800 1.350 . S
C803 C802 1.434 . S
C804 C805 1.369 . S
C804 C806 1.419 . S
C804 H808 0.930 . S
C805 C804 1.369 . S
C805 C814 1.429 . S
C806 C804 1.419 . S
C806 C807 1.363 . S
C806 H809 0.929 . S
C807 C806 1.363 . S
C807 C813 1.428 . S
H808 C804 0.930 . S
H809 C806 0.929 . S
S810 N811 1.613 . S
S810 N812 1.610 . S
N811 S810 1.613 . S
N811 C814 1.350 1_455 S
N812 S810 1.610 . S
N812 C813 1.351 1_455 S
C813 C807 1.428 . S
C813 N812 1.351 1_655 S
C813 C814 1.434 . S
C814 C805 1.429 . S
C814 N811 1.350 1_655 S
C814 C813 1.434 . S
C815 C816 1.369 . S
C815 C817 1.419 1_655 S
C815 H819 0.930 1_655 S
C816 C815 1.369 . S
C816 C825 1.429 . S
C817 C815 1.419 1_455 S
C817 C818 1.363 1_455 S
C817 H820 0.929 . S
C818 C817 1.363 1_655 S
C818 C824 1.428 . S
H819 C815 0.930 1_455 S
H820 C817 0.929 . S
S821 N822 1.613 . S
S821 N823 1.610 . S
N822 S821 1.613 . S
N822 C825 1.350 . S
N823 S821 1.610 . S
N823 C824 1.351 . S
C824 C818 1.428 . S
C824 N823 1.351 . S
C824 C825 1.434 . S
C825 C816 1.429 . S
C825 N822 1.350 . S
C825 C824 1.434 . S
C826 C827 1.369 . S
C826 C828 1.419 1_565 S
C826 H830 0.930 1_565 S
C827 C826 1.369 . S
C827 C836 1.429 . S
C828 C826 1.419 1_545 S
C828 C829 1.363 1_545 S
C828 H831 0.929 . S
C829 C828 1.363 1_565 S
C829 C835 1.428 . S
H830 C826 0.930 1_545 S
H831 C828 0.929 . S
S832 N833 1.613 . S
S832 N834 1.610 . S
N833 S832 1.613 . S
N833 C836 1.350 . S
N834 S832 1.610 . S
N834 C835 1.351 . S
C835 C829 1.428 . S
C835 N834 1.351 . S
C835 C836 1.434 . S
C836 C827 1.429 . S
C836 N833 1.350 . S
C836 C835 1.434 . S
C837 C838 1.369 . S
C837 C839 1.419 . S
C837 H841 0.930 . S
C838 C837 1.369 . S
C838 C847 1.429 . S
C839 C837 1.419 . S
C839 C840 1.363 . S
C839 H842 0.929 . S
C840 C839 1.363 . S
C840 C846 1.428 . S
H841 C837 0.930 . S
H842 C839 0.929 . S
S843 N844 1.613 . S
S843 N845 1.610 . S
N844 S843 1.613 . S
N844 C847 1.350 . S
N845 S843 1.610 . S
N845 C846 1.351 . S
C846 C840 1.428 . S
C846 N845 1.351 . S
C846 C847 1.434 . S
C847 C838 1.429 . S
C847 N844 1.350 . S
C847 C846 1.434 . S
C321 C79 2.047 . S
C323 C12 2.098 . S
C332 C2 1.779 . S
C334 C32 1.829 . S
C343 C52 1.818 . S
C345 C22 1.798 . S
C354 C42 2.088 . S
C356 C69 2.073 . S
C365 C92 1.956 . S
C367 C102 1.919 . S
C376 C112 2.008 . S
C378 C122 1.966 . S
C387 C132 2.276 . S
C389 C142 2.197 . S
C398 C82 1.921 . S
C400 C152 1.998 . S
C409 C169 2.092 . S
C411 C238 2.054 . S
C420 C164 1.782 . S
C422 C189 1.825 . S
C431 C184 1.797 . S
C433 C209 1.815 . S
C442 C204 2.083 . S
C444 C232 2.082 . S
C453 C249 1.953 . S
C455 C264 1.919 . S
C464 C284 1.967 . S
C466 C269 2.009 . S
C475 C304 2.192 . S
C477 C289 2.283 . S
C486 C309 1.993 . S
C488 C244 1.921 . S
C497 C18 2.107 . S
C499 C98 2.102 . S
C508 C118 1.988 . S
C510 C38 1.988 . S
C519 C58 2.417 . S
C521 C138 2.418 . S
C530 C64 1.433 . S
C532 C158 1.496 . S
C541 C259 2.102 . S
C543 C179 2.107 . S
C552 C279 1.988 . S
C554 C199 1.988 . S
C563 C219 2.417 . S
C565 C299 2.418 . S
C574 C319 1.496 . S
C576 C222 1.433 . S
C585 C9 1.226 . S
C587 C49 1.218 . S
C596 C29 0.996 . S
C598 C72 0.988 . S
C607 C129 1.336 . S
C609 C89 1.324 . S
C618 C149 1.258 . S
C620 C109 1.258 . S
C629 C212 1.231 . S
C631 C172 1.213 . S
C640 C229 0.990 . S
C642 C192 0.990 . S
C651 C252 1.325 . S
C653 C292 1.332 . S
C662 C272 1.254 . S
C664 C312 1.261 . S
C673 C178 1.704 . S
C675 C19 1.710 . S
C684 C198 1.499 . S
C686 C39 1.495 . S
C695 C218 1.977 . S
C697 C59 1.972 . S
C706 C62 1.114 . S
C708 C224 1.100 . S
C717 C258 1.634 . S
C719 C99 1.629 . S
C728 C278 1.522 . S
C730 C119 1.520 . S
C739 C298 1.724 . S
C741 C139 1.718 . S
C750 C318 1.566 . S
C752 C159 1.565 . S
C761 C144 0.956 . S
C763 C4 1.111 . S
C772 C84 0.991 1_545 S
C774 C24 0.987 1_455 S
C783 C104 1.020 . S
C785 C44 1.038 1_545 S
C794 C124 1.044 . S
C796 C78 1.313 . S
C805 C302 0.952 . S
C807 C162 1.108 . S
C816 C242 1.010 1_565 S
C818 C182 0.999 1_655 S
C827 C262 1.022 . S
C829 C202 1.042 1_565 S
C838 C239 1.306 . S
C840 C282 1.035 . S
