# Generated by pormake.
# Topology bmn, (3)-cn, num edge types: 1
# Building blocks:
#     Node 0, Type 0, BuildingBlock: WUSLED_clean_sbu_0, # of connection points: 3
#     Node 1, Type 0, BuildingBlock: WUSLED_clean_sbu_0, # of connection points: 3
#     Node 2, Type 0, BuildingBlock: WUSLED_clean_sbu_0, # of connection points: 3
#     Node 3, Type 0, BuildingBlock: WUSLED_clean_sbu_0, # of connection points: 3
#     Node 4, Type 0, BuildingBlock: WUSLED_clean_sbu_0, # of connection points: 3
#     Node 5, Type 0, BuildingBlock: WUSLED_clean_sbu_0, # of connection points: 3
#     Node 6, Type 0, BuildingBlock: WUSLED_clean_sbu_0, # of connection points: 3
#     Node 7, Type 0, BuildingBlock: WUSLED_clean_sbu_0, # of connection points: 3
#     Node 8, Type 0, BuildingBlock: WUSLED_clean_sbu_0, # of connection points: 3
#     Node 9, Type 0, BuildingBlock: WUSLED_clean_sbu_0, # of connection points: 3
#     Node 10, Type 0, BuildingBlock: WUSLED_clean_sbu_0, # of connection points: 3
#     Node 11, Type 0, BuildingBlock: WUSLED_clean_sbu_0, # of connection points: 3
#     Node 12, Type 0, BuildingBlock: WUSLED_clean_sbu_0, # of connection points: 3
#     Node 13, Type 0, BuildingBlock: WUSLED_clean_sbu_0, # of connection points: 3
#     Node 14, Type 0, BuildingBlock: WUSLED_clean_sbu_0, # of connection points: 3
#     Node 15, Type 0, BuildingBlock: WUSLED_clean_sbu_0, # of connection points: 3
#     Node 16, Type 0, BuildingBlock: WUSLED_clean_sbu_0, # of connection points: 3
#     Node 17, Type 0, BuildingBlock: WUSLED_clean_sbu_0, # of connection points: 3
#     Node 18, Type 0, BuildingBlock: WUSLED_clean_sbu_0, # of connection points: 3
#     Node 19, Type 0, BuildingBlock: WUSLED_clean_sbu_0, # of connection points: 3
#     Node 20, Type 0, BuildingBlock: WUSLED_clean_sbu_0, # of connection points: 3
#     Node 21, Type 0, BuildingBlock: WUSLED_clean_sbu_0, # of connection points: 3
#     Node 22, Type 0, BuildingBlock: WUSLED_clean_sbu_0, # of connection points: 3
#     Node 23, Type 0, BuildingBlock: WUSLED_clean_sbu_0, # of connection points: 3
#     Edge 24, Type (0, 0), BuildingBlock: OJICUG_clean_linker_0, # of connection points: 2
#     Edge 25, Type (0, 0), BuildingBlock: OJICUG_clean_linker_0, # of connection points: 2
#     Edge 26, Type (0, 0), BuildingBlock: OJICUG_clean_linker_0, # of connection points: 2
#     Edge 27, Type (0, 0), BuildingBlock: OJICUG_clean_linker_0, # of connection points: 2
#     Edge 28, Type (0, 0), BuildingBlock: OJICUG_clean_linker_0, # of connection points: 2
#     Edge 29, Type (0, 0), BuildingBlock: OJICUG_clean_linker_0, # of connection points: 2
#     Edge 30, Type (0, 0), BuildingBlock: OJICUG_clean_linker_0, # of connection points: 2
#     Edge 31, Type (0, 0), BuildingBlock: OJICUG_clean_linker_0, # of connection points: 2
#     Edge 32, Type (0, 0), BuildingBlock: OJICUG_clean_linker_0, # of connection points: 2
#     Edge 33, Type (0, 0), BuildingBlock: OJICUG_clean_linker_0, # of connection points: 2
#     Edge 34, Type (0, 0), BuildingBlock: OJICUG_clean_linker_0, # of connection points: 2
#     Edge 35, Type (0, 0), BuildingBlock: OJICUG_clean_linker_0, # of connection points: 2
#     Edge 36, Type (0, 0), BuildingBlock: OJICUG_clean_linker_0, # of connection points: 2
#     Edge 37, Type (0, 0), BuildingBlock: OJICUG_clean_linker_0, # of connection points: 2
#     Edge 38, Type (0, 0), BuildingBlock: OJICUG_clean_linker_0, # of connection points: 2
#     Edge 39, Type (0, 0), BuildingBlock: OJICUG_clean_linker_0, # of connection points: 2
#     Edge 40, Type (0, 0), BuildingBlock: OJICUG_clean_linker_0, # of connection points: 2
#     Edge 41, Type (0, 0), BuildingBlock: OJICUG_clean_linker_0, # of connection points: 2
#     Edge 42, Type (0, 0), BuildingBlock: OJICUG_clean_linker_0, # of connection points: 2
#     Edge 43, Type (0, 0), BuildingBlock: OJICUG_clean_linker_0, # of connection points: 2
#     Edge 44, Type (0, 0), BuildingBlock: OJICUG_clean_linker_0, # of connection points: 2
#     Edge 45, Type (0, 0), BuildingBlock: OJICUG_clean_linker_0, # of connection points: 2
#     Edge 46, Type (0, 0), BuildingBlock: OJICUG_clean_linker_0, # of connection points: 2
#     Edge 47, Type (0, 0), BuildingBlock: OJICUG_clean_linker_0, # of connection points: 2
#     Edge 48, Type (0, 0), BuildingBlock: OJICUG_clean_linker_0, # of connection points: 2
#     Edge 49, Type (0, 0), BuildingBlock: OJICUG_clean_linker_0, # of connection points: 2
#     Edge 50, Type (0, 0), BuildingBlock: OJICUG_clean_linker_0, # of connection points: 2
#     Edge 51, Type (0, 0), BuildingBlock: OJICUG_clean_linker_0, # of connection points: 2
#     Edge 52, Type (0, 0), BuildingBlock: OJICUG_clean_linker_0, # of connection points: 2
#     Edge 53, Type (0, 0), BuildingBlock: OJICUG_clean_linker_0, # of connection points: 2
#     Edge 54, Type (0, 0), BuildingBlock: OJICUG_clean_linker_0, # of connection points: 2
#     Edge 55, Type (0, 0), BuildingBlock: OJICUG_clean_linker_0, # of connection points: 2
#     Edge 56, Type (0, 0), BuildingBlock: OJICUG_clean_linker_0, # of connection points: 2
#     Edge 57, Type (0, 0), BuildingBlock: OJICUG_clean_linker_0, # of connection points: 2
#     Edge 58, Type (0, 0), BuildingBlock: OJICUG_clean_linker_0, # of connection points: 2
#     Edge 59, Type (0, 0), BuildingBlock: OJICUG_clean_linker_0, # of connection points: 2
# Relax obj value: 0.186
# Max RMSD: 0.301
# Mean RMSD: 0.113
data_MOF--net-bmn--node1-WUSLED_clean_sbu_0--edge1-OJICUG_clean_linker_0
_symmetry_space_group_name_H-M    P1
_symmetry_Int_Tables_number       1
_symmetry_cell_setting            triclinic
loop_
_symmetry_equiv_pos_as_xyz
'x, y, z'
_cell_length_a     63.695739
_cell_length_b     63.927606
_cell_length_c     64.173021
_cell_angle_alpha  67.875532
_cell_angle_beta   68.953039
_cell_angle_gamma 69.116755
loop_
_atom_site_label
_atom_site_type_symbol
_atom_site_fract_x
_atom_site_fract_y
_atom_site_fract_z
_atom_type_partial_charge
C0 C 0.1162 0.22911 0.54612 0.0
C1 C 0.1126 0.22626 0.52712 0.0
C2 C 0.13432 0.18545 0.53684 0.0
C3 C 0.12156 0.20458 0.52253 0.0
C4 C 0.13651 0.1881 0.55671 0.0
C5 C 0.12758 0.20979 0.56125 0.0
U6 U 0.09244 0.29481 0.52509 0.0
O7 O 0.07429 0.32181 0.54379 0.0
O8 O 0.10948 0.32111 0.52044 0.0
C9 C 0.09159 0.33192 0.53416 0.0
C10 C 0.11095 0.25254 0.54846 0.0
C11 C 0.08587 0.35761 0.52602 0.0
C12 C 0.07968 0.39363 0.53452 0.0
C13 C 0.08088 0.36979 0.54208 0.0
C14 C 0.08716 0.39379 0.4947 0.0
C15 C 0.08341 0.40584 0.51066 0.0
C16 C 0.08848 0.36985 0.50231 0.0
C17 C 0.06511 0.31597 0.47291 0.0
C18 C 0.05322 0.35551 0.44871 0.0
C19 C 0.04505 0.3235 0.44407 0.0
C20 C 0.05559 0.30796 0.46171 0.0
C21 C 0.04381 0.34745 0.43726 0.0
C22 C 0.06376 0.33985 0.46649 0.0
C23 C 0.0765 0.29876 0.49095 0.0
O24 O 0.12316 0.26609 0.53117 0.0
O25 O 0.08883 0.26323 0.55476 0.0
O26 O 0.0638 0.29646 0.51257 0.0
O27 O 0.09816 0.29818 0.48818 0.0
H28 H 0.10393 0.24109 0.51518 0.0
H29 H 0.11972 0.20323 0.50698 0.0
H30 H 0.14592 0.17362 0.56828 0.0
H31 H 0.13052 0.21171 0.57598 0.0
H32 H 0.07705 0.40216 0.54731 0.0
H33 H 0.07908 0.36059 0.56043 0.0
H34 H 0.08971 0.4027 0.47625 0.0
H35 H 0.09251 0.36075 0.48958 0.0
H36 H 0.05237 0.37389 0.44398 0.0
H37 H 0.03836 0.31664 0.43538 0.0
H38 H 0.05654 0.28954 0.46646 0.0
H39 H 0.07092 0.34632 0.47511 0.0
C40 C 0.12622 0.85185 0.8758 0.0
C41 C 0.15027 0.84354 0.87305 0.0
C42 C 0.15125 0.87852 0.87908 0.0
C43 C 0.16269 0.85671 0.87468 0.0
C44 C 0.12692 0.88645 0.88269 0.0
C45 C 0.11448 0.87322 0.88098 0.0
U46 U 0.07189 0.83799 0.87596 0.0
O47 O 0.0474 0.87261 0.87374 0.0
O48 O 0.04479 0.84533 0.90721 0.0
C49 C 0.03476 0.86595 0.89516 0.0
C50 C 0.11428 0.83878 0.87127 0.0
C51 C 0.01016 0.86957 0.89681 0.0
C52 C 0.96933 0.88775 0.90976 0.0
C53 C 0.99251 0.88279 0.9101 0.0
C54 C 0.98135 0.86519 0.88368 0.0
C55 C 0.96025 0.88164 0.8946 0.0
C56 C 1.00429 0.86003 0.88442 0.0
C57 C 0.08235 0.79369 0.84484 0.0
C58 C 0.08872 0.77172 0.81849 0.0
C59 C 0.12167 0.77605 0.82553 0.0
C60 C 0.10649 0.78897 0.84094 0.0
C61 C 0.11296 0.76778 0.81368 0.0
C62 C 0.07355 0.78463 0.83393 0.0
C63 C 0.06638 0.80986 0.8584 0.0
O64 O 0.10303 0.85065 0.85506 0.0
O65 O 0.10284 0.82521 0.88956 0.0
O66 O 0.06576 0.83195 0.84739 0.0
O67 O 0.06731 0.80395 0.88008 0.0
H68 H 0.15959 0.82707 0.86905 0.0
H69 H 0.18133 0.84993 0.87225 0.0
H70 H 0.11765 0.9032 0.88604 0.0
H71 H 0.09587 0.87992 0.88307 0.0
H72 H 0.95879 0.89783 0.9219 0.0
H73 H 0.99659 0.88967 0.92087 0.0
H74 H 0.98163 0.85588 0.8726 0.0
H75 H 0.01783 0.8487 0.87453 0.0
H76 H 0.08141 0.76588 0.80946 0.0
H77 H 0.14024 0.77309 0.82241 0.0
H78 H 0.11355 0.79593 0.8492 0.0
H79 H 0.05494 0.78828 0.83665 0.0
C80 C 0.86987 0.72952 0.97727 0.0
C81 C 0.85745 0.71315 0.98257 0.0
C82 C 0.89159 0.68909 0.96183 0.0
C83 C 0.8682 0.6931 0.97495 0.0
C84 C 0.90399 0.70553 0.95672 0.0
C85 C 0.8932 0.72558 0.96439 0.0
U86 U 0.81467 0.76993 1.00285 0.0
O87 O 0.8006 0.80783 0.99077 0.0
O88 O 0.80793 0.79201 0.02508 0.0
C89 C 0.80135 0.81143 1.00931 0.0
C90 C 0.85821 0.7512 0.9842 0.0
C91 C 0.81153 0.83061 1.00439 0.0
C92 C 0.84371 0.84885 0.98537 0.0
C93 C 0.83523 0.82902 0.99351 0.0
C94 C 0.80512 0.87159 1.00014 0.0
C95 C 0.82854 0.87061 0.98775 0.0
C96 C 0.79673 0.85174 1.00839 0.0
C97 C 0.75722 0.75474 0.02135 0.0
C98 C 0.72089 0.7849 0.02534 0.0
C99 C 0.72043 0.74491 0.03299 0.0
C100 C 0.74472 0.73813 0.02805 0.0
C101 C 0.70824 0.76849 0.03111 0.0
C102 C 0.74516 0.77806 0.02055 0.0
C103 C 0.78272 0.74813 1.01333 0.0
O104 O 0.84385 0.76668 0.97187 0.0
O105 O 0.84957 0.7485 1.00673 0.0
O106 O 0.79404 0.74525 0.02818 0.0
O107 O 0.79119 0.76033 0.99212 0.0
H108 H 0.83932 0.71604 0.99231 0.0
H109 H 0.85802 0.68102 0.97891 0.0
H110 H 0.92207 0.70286 0.94688 0.0
H111 H 0.90301 0.7381 0.96008 0.0
H112 H 0.86193 0.84735 0.97632 0.0
H113 H 0.84692 0.81274 0.9904 0.0
H114 H 0.79286 0.88799 1.00215 0.0
H115 H 0.77837 0.85322 0.01681 0.0
H116 H 0.71215 0.8032 0.02352 0.0
H117 H 0.71123 0.73174 0.03786 0.0
H118 H 0.75377 0.72004 0.02883 0.0
H119 H 0.75459 0.79113 1.01537 0.0
C120 C 0.57415 0.53514 0.15223 0.0
C121 C 0.59851 0.53037 0.146 0.0
C122 C 0.59632 0.55483 0.16835 0.0
C123 C 0.60947 0.5402 0.15388 0.0
C124 C 0.57192 0.55912 0.17508 0.0
C125 C 0.5609 0.54941 0.16696 0.0
U126 U 0.57966 0.4912 0.12372 0.0
O127 O 0.55665 0.47014 0.12838 0.0
O128 O 0.56747 0.49467 0.09429 0.0
C129 C 0.55428 0.48015 0.10702 0.0
C130 C 0.56283 0.52531 0.1431 0.0
C131 C 0.53033 0.48848 0.10478 0.0
C132 C 0.4911 0.51346 0.11242 0.0
C133 C 0.51383 0.50576 0.11487 0.0
C134 C 0.50131 0.48678 0.08964 0.0
C135 C 0.48456 0.50398 0.09983 0.0
C136 C 0.52397 0.47911 0.09211 0.0
C137 C 0.64009 0.44952 0.11056 0.0
C138 C 0.65217 0.42571 0.08434 0.0
C139 C 0.67806 0.42197 0.10622 0.0
C140 C 0.66134 0.43887 0.11649 0.0
C141 C 0.67383 0.41541 0.08977 0.0
C142 C 0.6354 0.44262 0.09471 0.0
C143 C 0.62356 0.46844 0.12033 0.0
O144 O 0.57008 0.52866 0.12043 0.0
O145 O 0.56123 0.50382 0.15479 0.0
O146 O 0.60667 0.46245 0.13858 0.0
O147 O 0.61654 0.48807 0.10503 0.0
H148 H 0.60905 0.51916 0.13484 0.0
H149 H 0.6283 0.53626 0.14874 0.0
H150 H 0.56138 0.57036 0.18619 0.0
H151 H 0.54209 0.55318 0.17202 0.0
H152 H 0.47857 0.52655 0.12069 0.0
H153 H 0.51852 0.5132 0.12469 0.0
H154 H 0.49697 0.47937 0.07954 0.0
H155 H 0.53658 0.46586 0.08408 0.0
H156 H 0.6483 0.42088 0.07192 0.0
H157 H 0.69466 0.41467 0.11053 0.0
H158 H 0.66523 0.44404 0.12867 0.0
H159 H 0.61897 0.45062 0.09004 0.0
C160 C 0.22156 0.76805 0.57476 0.0
C161 C 0.2146 0.78222 0.58948 0.0
C162 C 0.22612 0.81432 0.55639 0.0
C163 C 0.21677 0.80513 0.58039 0.0
C164 C 0.23372 0.79976 0.54181 0.0
C165 C 0.23139 0.77682 0.55093 0.0
U166 U 0.20328 0.72006 0.62729 0.0
O167 O 0.17788 0.70038 0.63562 0.0
O168 O 0.21434 0.68166 0.6351 0.0
C169 C 0.19372 0.68034 0.6365 0.0
C170 C 0.21735 0.74468 0.58423 0.0
C171 C 0.19332 0.66702 0.62236 0.0
C172 C 0.19016 0.66564 0.5863 0.0
C173 C 0.19278 0.67777 0.59897 0.0
C174 C 0.1896 0.63155 0.61996 0.0
C175 C 0.18814 0.64249 0.59675 0.0
C176 C 0.1921 0.64375 0.63265 0.0
C177 C 0.18774 0.7335 0.68613 0.0
C178 C 0.15509 0.73207 0.72066 0.0
C179 C 0.19109 0.73617 0.72154 0.0
C180 C 0.20093 0.73528 0.69851 0.0
C181 C 0.16773 0.73555 0.73258 0.0
C182 C 0.165 0.73102 0.69767 0.0
C183 C 0.19676 0.73775 0.66065 0.0
O184 O 0.23178 0.72851 0.59614 0.0
O185 O 0.19546 0.74456 0.59463 0.0
O186 O 0.18137 0.7434 0.64894 0.0
O187 O 0.21659 0.72368 0.65285 0.0
H188 H 0.20693 0.77573 0.60795 0.0
H189 H 0.2104 0.81585 0.59213 0.0
H190 H 0.24134 0.80612 0.52332 0.0
H191 H 0.23691 0.76606 0.53935 0.0
H192 H 0.18886 0.67473 0.56858 0.0
H193 H 0.19372 0.69576 0.59073 0.0
H194 H 0.18853 0.61363 0.62843 0.0
H195 H 0.19259 0.63516 0.65066 0.0
H196 H 0.13703 0.73167 0.7285 0.0
H197 H 0.20148 0.73835 0.73037 0.0
H198 H 0.2185 0.73719 0.68998 0.0
H199 H 0.1544 0.72955 0.68859 0.0
C200 C 0.44567 0.86878 1.0139 0.0
C201 C 0.42618 0.86106 0.01794 0.0
C202 C 0.41171 0.89624 0.98914 0.0
C203 C 0.40931 0.87468 1.00567 0.0
C204 C 0.43108 0.90411 0.98557 0.0
C205 C 0.44794 0.89046 0.9978 0.0
U206 U 0.50773 0.8542 1.0164 0.0
O207 O 0.5228 0.86931 0.97921 0.0
O208 O 0.51256 0.88972 1.00381 0.0
C209 C 0.52209 0.88882 0.98219 0.0
C210 C 0.46447 0.85344 0.02505 0.0
C211 C 0.54289 0.89773 0.96986 0.0
C212 C 0.56012 0.92845 0.94046 0.0
C213 C 0.54068 0.91963 0.95327 0.0
C214 C 0.58432 0.89363 0.96103 0.0
C215 C 0.58224 0.91555 0.94407 0.0
C216 C 0.56477 0.88476 0.97381 0.0
C217 C 0.56153 0.81448 0.03924 0.0
C218 C 0.5976 0.8237 0.03299 0.0
C219 C 0.59648 0.78335 0.04419 0.0
C220 C 0.57293 0.79065 0.04473 0.0
C221 C 0.60915 0.79977 0.03814 0.0
C222 C 0.57395 0.83102 0.03348 0.0
C223 C 0.53686 0.82128 0.03937 0.0
O224 O 0.471 0.86273 0.03606 0.0
O225 O 0.48205 0.84183 1.01184 0.0
O226 O 0.53287 0.81981 0.02133 0.0
O227 O 0.52358 0.84007 0.04588 0.0
H228 H 0.42425 0.84428 0.03022 0.0
H229 H 0.3945 0.86823 1.00894 0.0
H230 H 0.43367 0.92043 0.97272 0.0
H231 H 0.46307 0.89655 0.99424 0.0
H232 H 0.55787 0.94513 0.92728 0.0
H233 H 0.5239 0.92981 0.94994 0.0
H234 H 0.60103 0.88332 0.96442 0.0
H235 H 0.56674 0.86775 0.98654 0.0
H236 H 0.60695 0.83676 0.02808 0.0
H237 H 0.60478 0.7648 0.04857 0.0
H238 H 0.5636 0.77764 0.04932 0.0
H239 H 0.56545 0.84952 0.02918 0.0
C240 C 0.90034 0.32369 0.94144 0.0
C241 C 0.8907 0.34144 0.95254 0.0
C242 C 0.92416 0.35767 0.93054 0.0
C243 C 0.9025 0.35826 0.94715 0.0
C244 C 0.93396 0.33953 0.91981 0.0
C245 C 0.9221 0.3227 0.9252 0.0
U246 U 0.84509 0.30452 0.97206 0.0
O247 O 0.82358 0.29349 0.95995 0.0
O248 O 0.83794 0.26996 0.98958 0.0
C249 C 0.82663 0.27254 0.97482 0.0
C250 C 0.88712 0.307 0.94613 0.0
C251 C 0.83353 0.25304 0.9649 0.0
C252 C 0.86301 0.2244 0.94615 0.0
C253 C 0.85698 0.24314 0.95526 0.0
C254 C 0.82222 0.2256 0.95595 0.0
C255 C 0.84567 0.21544 0.94639 0.0
C256 C 0.81624 0.24421 0.96512 0.0
C257 C 0.79819 0.34219 1.01078 0.0
C258 C 0.75592 0.35424 0.01942 0.0
C259 C 0.77537 0.35577 0.04486 0.0
C260 C 0.79689 0.34705 0.03082 0.0
C261 C 0.75465 0.35992 0.03907 0.0
C262 C 0.77751 0.34537 1.00542 0.0
C263 C 0.82127 0.33564 0.99501 0.0
O264 O 0.88296 0.29346 0.96767 0.0
O265 O 0.86871 0.31605 0.93782 0.0
O266 O 0.82192 0.33921 0.97325 0.0
O267 O 0.83537 0.31583 1.00349 0.0
H268 H 0.87388 0.34245 0.96515 0.0
H269 H 0.89461 0.37179 0.95595 0.0
H270 H 0.95049 0.33873 0.90676 0.0
H271 H 0.92971 0.30917 0.9164 0.0
H272 H 0.8812 0.21707 0.93874 0.0
H273 H 0.87056 0.24987 0.95483 0.0
H274 H 0.80847 0.2189 0.95673 0.0
H275 H 0.79806 0.25164 0.97251 0.0
H276 H 0.74025 0.35702 1.01466 0.0
H277 H 0.77505 0.36024 0.05968 0.0
H278 H 0.81262 0.34482 0.03521 0.0
H279 H 0.77801 0.34162 0.99011 0.0
C280 C 0.96209 0.49958 0.22039 0.0
C281 C 0.94462 0.49232 0.24013 0.0
C282 C 0.91503 0.52388 0.2231 0.0
C283 C 0.92123 0.50432 0.24144 0.0
C284 C 0.9326 0.53061 0.2031 0.0
C285 C 0.95593 0.51856 0.20178 0.0
U286 U 0.00895 0.46013 0.25137 0.0
O287 O 0.04297 0.43683 0.23953 0.0
O288 O 0.04102 0.46597 0.25097 0.0
C289 C 0.05453 0.44891 0.24184 0.0
C290 C 0.98678 0.48874 0.21978 0.0
C291 C 0.07449 0.45484 0.22246 0.0
C292 C 0.09249 0.47012 0.18131 0.0
C293 C 0.07379 0.46256 0.19905 0.0
C294 C 0.11261 0.46202 0.21027 0.0
C295 C 0.11178 0.47036 0.18691 0.0
C296 C 0.09418 0.45423 0.22785 0.0
C297 C 0.99329 0.42989 0.31562 0.0
C298 C 0.02454 0.4081 0.33471 0.0
C299 C 0.98439 0.4138 0.35768 0.0
C300 C 0.97697 0.42638 0.33732 0.0
C301 C 0.00828 0.40463 0.3566 0.0
C302 C 0.0171 0.42064 0.31441 0.0
C303 C 0.98566 0.44425 0.29438 0.0
O304 O 0.99472 0.49585 0.23152 0.0
O305 O 0.99365 0.46597 0.22323 0.0
O306 O 0.99149 0.43365 0.27832 0.0
O307 O 0.98964 0.46504 0.28594 0.0
H308 H 0.94914 0.47778 0.25477 0.0
H309 H 0.90811 0.49884 0.25712 0.0
H310 H 0.92833 0.5454 0.18856 0.0
H311 H 0.96921 0.52441 0.18645 0.0
H312 H 0.09148 0.47666 0.16338 0.0
H313 H 0.05863 0.46331 0.19457 0.0
H314 H 0.12735 0.46202 0.21495 0.0
H315 H 0.09499 0.44838 0.24581 0.0
H316 H 0.04302 0.40095 0.33322 0.0
H317 H 0.97146 0.41161 0.37428 0.0
H318 H 0.95853 0.43361 0.33853 0.0
H319 H 0.02994 0.42331 0.29776 0.0
C320 C 0.5251 0.11807 0.35293 0.0
C321 C 0.50965 0.10527 0.37007 0.0
C322 C 0.51641 0.11446 0.40031 0.0
C323 C 0.50535 0.10345 0.39355 0.0
C324 C 0.53224 0.1269 0.38303 0.0
C325 C 0.53653 0.12869 0.35954 0.0
U326 U 0.50962 0.10889 0.30584 0.0
O327 O 0.50355 0.13428 0.27291 0.0
O328 O 0.53142 0.10182 0.27241 0.0
C329 C 0.52002 0.12136 0.26015 0.0
C330 C 0.52834 0.12147 0.32814 0.0
C331 C 0.51466 0.12041 0.24011 0.0
C332 C 0.52587 0.12658 0.19831 0.0
C333 C 0.53134 0.12348 0.21864 0.0
C334 C 0.48716 0.12229 0.22081 0.0
C335 C 0.50352 0.1266 0.19899 0.0
C336 C 0.49266 0.11928 0.24122 0.0
C337 C 0.46315 0.07188 0.332 0.0
C338 C 0.42509 0.07327 0.33028 0.0
C339 C 0.44756 0.0378 0.35195 0.0
C340 C 0.46556 0.04842 0.34533 0.0
C341 C 0.42676 0.05044 0.34534 0.0
C342 C 0.44313 0.08399 0.32373 0.0
C343 C 0.47934 0.08405 0.33124 0.0
O344 O 0.538 0.10249 0.32119 0.0
O345 O 0.51015 0.13489 0.32019 0.0
O346 O 0.47361 0.10703 0.32445 0.0
O347 O 0.50177 0.07464 0.32454 0.0
H348 H 0.50055 0.09708 0.36521 0.0
H349 H 0.49284 0.09401 0.40633 0.0
H350 H 0.54127 0.13532 0.38766 0.0
H351 H 0.54849 0.13866 0.3465 0.0
H352 H 0.53884 0.13023 0.18191 0.0
H353 H 0.54835 0.12459 0.21742 0.0
H354 H 0.46991 0.12183 0.22207 0.0
H355 H 0.47953 0.1169 0.25769 0.0
H356 H 0.40918 0.08341 0.32502 0.0
H357 H 0.44934 0.02011 0.3634 0.0
H358 H 0.48074 0.03875 0.35205 0.0
H359 H 0.44075 0.10214 0.31349 0.0
C360 C 0.5163 0.16344 0.5887 0.0
C361 C 0.5012 0.17766 0.60307 0.0
C362 C 0.53407 0.18007 0.61226 0.0
C363 C 0.51 0.18601 0.61457 0.0
C364 C 0.54919 0.16631 0.59737 0.0
C365 C 0.54037 0.15811 0.58569 0.0
U366 U 0.47334 0.13204 0.59436 0.0
O367 O 0.45317 0.13619 0.57091 0.0
O368 O 0.47794 0.10269 0.58175 0.0
C369 C 0.46383 0.11523 0.56821 0.0
C370 C 0.50714 0.15283 0.57808 0.0
C371 C 0.47304 0.1143 0.54398 0.0
C372 C 0.49865 0.12485 0.50526 0.0
C373 C 0.49048 0.12543 0.52845 0.0
C374 C 0.47222 0.10177 0.51304 0.0
C375 C 0.48954 0.11308 0.49725 0.0
C376 C 0.46405 0.10239 0.53618 0.0
C377 C 0.42998 0.11782 0.65418 0.0
C378 C 0.39887 0.10001 0.66242 0.0
C379 C 0.40689 0.10563 0.69384 0.0
C380 C 0.42484 0.11561 0.6779 0.0
C381 C 0.39366 0.09768 0.68634 0.0
C382 C 0.41691 0.10999 0.64646 0.0
C383 C 0.4493 0.12793 0.63795 0.0
O384 O 0.51052 0.13004 0.58646 0.0
O385 O 0.48609 0.16365 0.57518 0.0
O386 O 0.44405 0.14629 0.62063 0.0
O387 O 0.46883 0.11282 0.63154 0.0
H388 H 0.48253 0.18198 0.60582 0.0
H389 H 0.49785 0.19692 0.62551 0.0
H390 H 0.56779 0.16118 0.59535 0.0
H391 H 0.55231 0.14707 0.57479 0.0
H392 H 0.51218 0.13351 0.49363 0.0
H393 H 0.49766 0.13464 0.53425 0.0
H394 H 0.4646 0.09283 0.50739 0.0
H395 H 0.45053 0.09376 0.54796 0.0
H396 H 0.38891 0.09426 0.65602 0.0
H397 H 0.40369 0.10373 0.71214 0.0
H398 H 0.43487 0.12144 0.68415 0.0
H399 H 0.42071 0.11154 0.62815 0.0
C400 C 0.58404 0.21519 0.69982 0.0
C401 C 0.59986 0.20179 0.68494 0.0
C402 C 0.56898 0.20649 0.6683 0.0
C403 C 0.59238 0.19752 0.66921 0.0
C404 C 0.55351 0.22063 0.68266 0.0
C405 C 0.561 0.22491 0.69826 0.0
U406 U 0.6279 0.20946 0.73163 0.0
O407 O 0.62694 0.23335 0.74958 0.0
O408 O 0.62474 0.19737 0.76918 0.0
C409 C 0.62359 0.21792 0.77015 0.0
C410 C 0.59057 0.21802 0.71816 0.0
C411 C 0.60464 0.22614 0.78887 0.0
C412 C 0.56492 0.22962 0.8131 0.0
C413 C 0.58209 0.22393 0.79371 0.0
C414 C 0.5924 0.2407 0.8224 0.0
C415 C 0.56999 0.23776 0.82785 0.0
C416 C 0.60958 0.23488 0.8031 0.0
C417 C 0.69189 0.18411 0.71574 0.0
C418 C 0.713 0.18524 0.74 0.0
C419 C 0.73032 0.15795 0.71685 0.0
C420 C 0.71058 0.16642 0.70825 0.0
C421 C 0.7316 0.16707 0.7331 0.0
C422 C 0.69336 0.1936 0.73148 0.0
C423 C 0.66984 0.19096 0.70942 0.0
O424 O 0.59822 0.19853 0.73329 0.0
O425 O 0.60256 0.23348 0.71156 0.0
O426 O 0.66002 0.21355 0.70381 0.0
O427 O 0.65512 0.17851 0.72392 0.0
H428 H 0.61775 0.19413 0.68596 0.0
H429 H 0.60466 0.18647 0.65845 0.0
H430 H 0.53549 0.22809 0.6821 0.0
H431 H 0.54859 0.23536 0.70958 0.0
H432 H 0.54773 0.22748 0.81668 0.0
H433 H 0.57794 0.21729 0.78283 0.0
H434 H 0.59692 0.24672 0.83352 0.0
H435 H 0.62692 0.23661 0.79965 0.0
H436 H 0.71313 0.19236 0.75282 0.0
H437 H 0.7444 0.14405 0.71108 0.0
H438 H 0.70963 0.15872 0.6963 0.0
H439 H 0.67894 0.20697 0.73784 0.0
C440 C 0.47233 0.26044 0.95603 0.0
C441 C 0.47369 0.2791 0.93561 0.0
C442 C 0.50362 0.25317 0.91376 0.0
C443 C 0.48921 0.27553 0.91466 0.0
C444 C 0.50213 0.23445 0.93432 0.0
C445 C 0.48666 0.23808 0.95532 0.0
U446 U 0.45012 0.24418 0.02275 0.0
O447 O 0.45863 0.20566 0.03388 0.0
O448 O 0.48301 0.22372 0.03209 0.0
C449 C 0.47739 0.20379 0.03929 0.0
C450 C 0.45613 0.26485 0.97786 0.0
C451 C 0.47854 0.19009 0.06332 0.0
C452 C 0.49248 0.15377 0.0911 0.0
C453 C 0.49031 0.16635 0.06844 0.0
C454 C 0.47076 0.18852 0.10374 0.0
C455 C 0.48301 0.16479 0.109 0.0
C456 C 0.46844 0.20096 0.08121 0.0
C457 C 0.39915 0.28745 0.05126 0.0
C458 C 0.36299 0.31065 0.07016 0.0
C459 C 0.38727 0.32934 0.03391 0.0
C460 C 0.40299 0.30765 0.03313 0.0
C461 C 0.36738 0.33119 0.05277 0.0
C462 C 0.37879 0.289 0.06943 0.0
C463 C 0.41687 0.26502 0.05239 0.0
O464 O 0.46513 0.269 0.99095 0.0
O465 O 0.44225 0.25084 0.98979 0.0
O466 O 0.43854 0.2663 0.04592 0.0
O467 O 0.41395 0.25033 0.04447 0.0
H468 H 0.46276 0.29648 0.93588 0.0
H469 H 0.48975 0.29024 0.89911 0.0
H470 H 0.5132 0.21709 0.93424 0.0
H471 H 0.48595 0.22349 0.971 0.0
H472 H 0.50173 0.13547 0.09453 0.0
H473 H 0.4981 0.15764 0.05486 0.0
H474 H 0.46358 0.1978 0.11683 0.0
H475 H 0.4592 0.21929 0.07762 0.0
H476 H 0.34765 0.31139 0.0847 0.0
H477 H 0.39136 0.34477 0.02034 0.0
H478 H 0.41857 0.30678 0.01885 0.0
H479 H 0.37547 0.27354 0.08347 0.0
C480 C 0.34262 0.54418 0.09237 0.0
C481 C 0.3595 0.52829 0.08068 0.0
C482 C 0.38976 0.53343 0.09172 0.0
C483 C 0.38288 0.52303 0.08027 0.0
C484 C 0.37283 0.54994 0.10277 0.0
C485 C 0.34944 0.55521 0.10311 0.0
U486 U 0.295 0.52297 0.09094 0.0
O487 O 0.26246 0.52012 0.1179 0.0
O488 O 0.26127 0.54113 0.08199 0.0
C489 C 0.24939 0.53272 0.10336 0.0
C490 C 0.31777 0.54723 0.09571 0.0
C491 C 0.22974 0.52393 0.10641 0.0
C492 C 0.18778 0.53172 0.11544 0.0
C493 C 0.20782 0.53977 0.10687 0.0
C494 C 0.21147 0.4918 0.12131 0.0
C495 C 0.18934 0.50764 0.12374 0.0
C496 C 0.23158 0.4999 0.11275 0.0
C497 C 0.31815 0.46697 0.06972 0.0
C498 C 0.30763 0.43037 0.08171 0.0
C499 C 0.3362 0.44082 0.04524 0.0
C500 C 0.33326 0.46185 0.04916 0.0
C501 C 0.3241 0.42442 0.06189 0.0
C502 C 0.30468 0.45148 0.08563 0.0
C503 C 0.31957 0.48664 0.07538 0.0
O504 O 0.31106 0.55254 0.07679 0.0
O505 O 0.30922 0.53077 0.11287 0.0
O506 O 0.3133 0.48578 0.09752 0.0
O507 O 0.31327 0.50768 0.06159 0.0
H508 H 0.3545 0.51943 0.07246 0.0
H509 H 0.39551 0.51051 0.07133 0.0
H510 H 0.37747 0.55806 0.11197 0.0
H511 H 0.33657 0.5673 0.11248 0.0
H512 H 0.17097 0.54431 0.11686 0.0
H513 H 0.20606 0.55837 0.10206 0.0
H514 H 0.21318 0.47314 0.12765 0.0
H515 H 0.24839 0.48737 0.11254 0.0
H516 H 0.29778 0.41825 0.0947 0.0
H517 H 0.34919 0.43677 0.02992 0.0
H518 H 0.34389 0.47351 0.03672 0.0
H519 H 0.29277 0.45511 0.10158 0.0
C520 C 0.68187 0.60119 0.20976 0.0
C521 C 0.67241 0.61646 0.19109 0.0
C522 C 0.64853 0.59062 0.19864 0.0
C523 C 0.65592 0.61118 0.18553 0.0
C524 C 0.65714 0.57606 0.21809 0.0
C525 C 0.67374 0.58128 0.22354 0.0
U526 U 0.7196 0.63952 0.20334 0.0
O527 O 0.73926 0.63674 0.22693 0.0
O528 O 0.75746 0.6335 0.19156 0.0
C529 C 0.7594 0.63228 0.21171 0.0
C530 C 0.7016 0.60463 0.21375 0.0
C531 C 0.7782 0.61301 0.22026 0.0
C532 C 0.80584 0.57532 0.2194 0.0
C533 C 0.78499 0.59148 0.21548 0.0
C534 C 0.81237 0.60132 0.2345 0.0
C535 C 0.82019 0.5805 0.22812 0.0
C536 C 0.7916 0.61744 0.23054 0.0
C537 C 0.70939 0.70326 0.17214 0.0
C538 C 0.73852 0.72173 0.16818 0.0
C539 C 0.71317 0.73986 0.14222 0.0
C540 C 0.70201 0.7217 0.1537 0.0
C541 C 0.73199 0.73972 0.14894 0.0
C542 C 0.72741 0.70363 0.17959 0.0
C543 C 0.70064 0.68223 0.18152 0.0
O544 O 0.71826 0.60992 0.19492 0.0
O545 O 0.69645 0.61702 0.2281 0.0
O546 O 0.69505 0.67386 0.20437 0.0
O547 O 0.71322 0.66604 0.17092 0.0
H548 H 0.67837 0.63202 0.18032 0.0
H549 H 0.64938 0.62289 0.17063 0.0
H550 H 0.65194 0.56002 0.2284 0.0
H551 H 0.68089 0.56928 0.23799 0.0
H552 H 0.81139 0.55948 0.21425 0.0
H553 H 0.77485 0.58769 0.20757 0.0
H554 H 0.8228 0.60559 0.2417 0.0
H555 H 0.78662 0.63393 0.2344 0.0
H556 H 0.75271 0.72127 0.17402 0.0
H557 H 0.70785 0.75335 0.12735 0.0
H558 H 0.68832 0.72155 0.14754 0.0
H559 H 0.73351 0.68943 0.19367 0.0
C560 C 0.14784 0.58214 0.52209 0.0
C561 C 0.15138 0.60467 0.51247 0.0
C562 C 0.16425 0.59969 0.5459 0.0
C563 C 0.15958 0.61335 0.52424 0.0
C564 C 0.16096 0.57698 0.55528 0.0
C565 C 0.15284 0.56829 0.54344 0.0
U566 U 0.11926 0.59298 0.47508 0.0
O567 O 0.12439 0.5715 0.4528 0.0
O568 O 0.0901 0.58144 0.47636 0.0
C569 C 0.10306 0.56898 0.46178 0.0
C570 C 0.13808 0.57337 0.51041 0.0
C571 C 0.10073 0.54498 0.46895 0.0
C572 C 0.09444 0.50898 0.49878 0.0
C573 C 0.09763 0.53135 0.49231 0.0
C574 C 0.09796 0.51339 0.45857 0.0
C575 C 0.09448 0.49978 0.48198 0.0
C576 C 0.10099 0.5358 0.45215 0.0
C577 C 0.10629 0.65438 0.43381 0.0
C578 C 0.0901 0.66331 0.40153 0.0
C579 C 0.09294 0.69467 0.41205 0.0
C580 C 0.1028 0.67829 0.42994 0.0
C581 C 0.08639 0.68741 0.39764 0.0
C582 C 0.09992 0.64694 0.41949 0.0
C583 C 0.11592 0.6375 0.45323 0.0
O584 O 0.11554 0.58175 0.51283 0.0
O585 O 0.14988 0.57303 0.48895 0.0
O586 O 0.13439 0.62088 0.44778 0.0
O587 O 0.10047 0.62983 0.47221 0.0
H588 H 0.14745 0.61567 0.49605 0.0
H589 H 0.16162 0.63101 0.51669 0.0
H590 H 0.16462 0.56594 0.5718 0.0
H591 H 0.15019 0.55086 0.55111 0.0
H592 H 0.09214 0.49878 0.5169 0.0
H593 H 0.09753 0.53805 0.50555 0.0
H594 H 0.09792 0.50688 0.44526 0.0
H595 H 0.10331 0.54609 0.43405 0.0
H596 H 0.08549 0.6571 0.39063 0.0
H597 H 0.08998 0.71305 0.40986 0.0
H598 H 0.10747 0.68432 0.44096 0.0
H599 H 0.10244 0.6285 0.42231 0.0
C600 C 0.79843 0.94003 0.86515 0.0
C601 C 0.81711 0.94821 0.84804 0.0
C602 C 0.84292 0.92375 0.87316 0.0
C603 C 0.83918 0.9402 0.85205 0.0
C604 C 0.82407 0.91575 0.8903 0.0
C605 C 0.80198 0.92385 0.8863 0.0
U606 U 0.7604 0.97053 0.82309 0.0
O607 O 0.7339 0.95954 0.81831 0.0
O608 O 0.7241 0.99189 0.82798 0.0
C609 C 0.71683 0.97634 0.82548 0.0
C610 C 0.7755 0.9475 0.86061 0.0
C611 C 0.69749 0.96849 0.84454 0.0
C612 C 0.68358 0.94125 0.88141 0.0
C613 C 0.70192 0.94945 0.8639 0.0
C614 C 0.65609 0.97162 0.8609 0.0
C615 C 0.66048 0.95212 0.88 0.0
C616 C 0.67448 0.97969 0.84327 0.0
C617 C 0.78972 0.99675 0.75909 0.0
C618 C 0.77025 1.0113 0.72817 0.0
C619 C 0.81161 1.00751 0.71868 0.0
C620 C 0.8107 0.99938 0.74239 0.0
C621 C 0.79149 1.01315 0.71124 0.0
C622 C 0.76939 1.0031 0.75192 0.0
C623 C 0.78989 0.98544 0.78363 0.0
O624 O 0.76619 0.97017 0.85503 0.0
O625 O 0.77379 0.93724 0.84722 0.0
O626 O 0.78742 0.96405 0.79176 0.0
O627 O 0.77755 0.99813 0.79813 0.0
H628 H 0.81466 0.96059 0.83151 0.0
H629 H 0.8534 0.94657 0.83849 0.0
H630 H 0.82635 0.90341 0.90689 0.0
H631 H 0.78771 0.91736 0.89966 0.0
H632 H 0.68746 0.92638 0.89605 0.0
H633 H 0.7196 0.94073 0.8653 0.0
H634 H 0.63848 0.98023 0.85925 0.0
H635 H 0.67076 0.99444 0.82848 0.0
H636 H 0.75437 0.01581 0.72306 0.0
H637 H 0.82831 1.00838 0.7062 0.0
H638 H 0.82659 0.99438 0.74766 0.0
H639 H 0.75303 1.0011 0.76465 0.0
C640 C 0.21907 0.96142 0.5065 0.0
C641 C 0.23101 0.94791 0.49082 0.0
C642 C 0.2228 0.91302 0.52167 0.0
C643 C 0.23272 0.92392 0.49832 0.0
C644 C 0.21081 0.92667 0.53726 0.0
C645 C 0.20893 0.95066 0.52971 0.0
U646 U 0.2457 1.0122 0.46789 0.0
O647 O 0.22987 0.0493 0.45289 0.0
O648 O 0.2511 0.03929 0.47724 0.0
C649 C 0.23767 0.05634 0.46482 0.0
C650 C 0.21829 0.98635 0.49936 0.0
C651 C 0.221 0.07394 0.47639 0.0
C652 C 0.18363 0.08853 0.50142 0.0
C653 C 0.19879 0.07145 0.49036 0.0
C654 C 0.21284 0.11049 0.48462 0.0
C655 C 0.19064 0.1081 0.49882 0.0
C656 C 0.22783 0.09358 0.47353 0.0
C657 C 0.30292 1.00362 0.42287 0.0
C658 C 0.32639 0.03106 0.41007 0.0
C659 C 0.33811 1.00074 0.39116 0.0
C660 C 0.31847 0.99267 0.40586 0.0
C661 C 0.34247 0.01963 0.39361 0.0
C662 C 0.30668 0.02325 0.42445 0.0
C663 C 0.28361 0.99392 0.43993 0.0
O664 O 0.2346 0.99078 0.5038 0.0
O665 O 0.21503 0.99858 0.47855 0.0
O666 O 0.26342 1.00309 0.43476 0.0
O667 O 0.282 0.99155 0.46166 0.0
H668 H 0.23927 0.95585 0.47289 0.0
H669 H 0.24224 0.91381 0.48598 0.0
H670 H 0.20277 0.91879 0.55529 0.0
H671 H 0.19979 0.96079 0.54207 0.0
H672 H 0.16665 0.08622 0.51232 0.0
H673 H 0.19328 0.05631 0.4928 0.0
H674 H 0.21859 0.12556 0.48195 0.0
H675 H 0.24489 0.0958 0.46274 0.0
H676 H 0.32937 0.04574 0.41215 0.0
H677 H 0.35038 0.99163 0.37862 0.0
H678 H 0.31579 0.97752 0.40438 0.0
H679 H 0.29476 0.03207 0.43735 0.0
C680 C 0.24201 0.94831 0.88308 0.0
C681 C 0.23733 0.95307 0.86176 0.0
C682 C 0.20842 0.93038 0.88117 0.0
C683 C 0.22069 0.94416 0.86081 0.0
C684 C 0.21256 0.92649 0.9026 0.0
C685 C 0.22926 0.93535 0.90351 0.0
U686 U 0.28815 0.98301 0.85571 0.0
O687 O 0.30068 0.9996 0.87186 0.0
O688 O 0.32473 0.97158 0.8565 0.0
C689 C 0.32167 0.98545 0.86869 0.0
C690 C 0.26103 0.95548 0.8841 0.0
C691 C 0.33119 0.97411 0.88911 0.0
C692 C 0.33502 0.94291 0.92481 0.0
C693 C 0.32412 0.95488 0.90663 0.0
C694 C 0.3596 0.96975 0.90843 0.0
C695 C 0.35313 0.95001 0.92572 0.0
C696 C 0.34873 0.98166 0.89029 0.0
C697 C 0.29729 0.02286 0.79448 0.0
C698 C 0.32516 0.04604 0.78096 0.0
C699 C 0.31179 0.04035 0.75305 0.0
C700 C 0.2976 0.02694 0.77133 0.0
C701 C 0.32582 0.04995 0.75767 0.0
C702 C 0.31112 0.03254 0.79917 0.0
C703 C 0.2838 1.00731 0.81357 0.0
O704 O 0.28153 0.94822 0.87061 0.0
O705 O 0.25641 0.97737 0.88364 0.0
O706 O 0.27172 0.01481 0.832 0.0
O707 O 0.29531 0.98522 0.81885 0.0
H708 H 0.24697 0.96317 0.84581 0.0
H709 H 0.21768 0.94772 0.84408 0.0
H710 H 0.20361 0.91577 0.91854 0.0
H711 H 0.23269 0.93151 0.92011 0.0
H712 H 0.32946 0.92794 0.93798 0.0
H713 H 0.31057 0.94884 0.90595 0.0
H714 H 0.37368 0.9755 0.90841 0.0
H715 H 0.35447 0.9964 0.8768 0.0
H716 H 0.33604 0.05284 0.78509 0.0
H717 H 0.31182 0.04317 0.7353 0.0
H718 H 0.28716 0.01946 0.7674 0.0
H719 H 0.31139 0.02928 0.81692 0.0
C720 C 0.99206 0.46875 0.87997 0.0
C721 C 1.00219 0.44866 0.87237 0.0
C722 C 0.97067 0.43142 0.89991 0.0
C723 C 0.99162 0.43015 0.88223 0.0
C724 C 0.96084 0.45147 0.90785 0.0
C725 C 0.97145 0.47001 0.89794 0.0
U726 U 0.99486 0.53066 0.87116 0.0
O727 O 0.95792 0.54798 0.88361 0.0
O728 O 0.98098 0.53346 0.90693 0.0
C729 C 0.96032 0.54597 0.90384 0.0
C730 C 1.00257 0.48863 0.86801 0.0
C731 C 0.95085 0.5674 0.91129 0.0
C732 C 0.91855 0.59227 0.93247 0.0
C733 C 0.92774 0.57245 0.92451 0.0
C734 C 0.95544 0.60251 0.91376 0.0
C735 C 0.93231 0.60748 0.92734 0.0
C736 C 0.96465 0.58259 0.90587 0.0
C737 C 0.02062 0.58345 0.83683 0.0
C738 C 1.00011 0.6235 0.83704 0.0
C739 C 0.04141 0.6138 0.81833 0.0
C740 C 0.04132 0.59038 0.82459 0.0
C741 C 0.02072 0.63068 0.82419 0.0
C742 C 1.00005 0.60009 0.84328 0.0
C743 C 0.02049 0.55917 0.84145 0.0
O744 O 0.01259 0.49314 0.87997 0.0
O745 O 0.98984 0.50746 0.85638 0.0
O746 O 1.00283 0.55663 0.83743 0.0
O747 O 0.0255 0.54438 0.86085 0.0
H748 H 0.01803 0.44749 0.8584 0.0
H749 H 0.9995 0.41517 0.87544 0.0
H750 H 0.94487 0.4529 0.92163 0.0
H751 H 0.96341 0.48546 0.904 0.0
H752 H 0.90058 0.59576 0.94255 0.0
H753 H 0.91682 0.56095 0.92881 0.0
H754 H 0.96658 0.61373 0.90965 0.0
H755 H 0.98261 0.5789 0.89579 0.0
H756 H 0.98397 0.63601 0.84215 0.0
H757 H 0.05751 0.6188 0.80829 0.0
H758 H 0.05733 0.57775 0.81938 0.0
H759 H 0.98386 0.59507 0.8527 0.0
C760 C 0.96541 0.88265 0.79227 0.0
C761 C 0.97146 0.86285 0.81034 0.0
C762 C 0.9559 0.88639 0.83729 0.0
C763 C 0.96659 0.86466 0.83264 0.0
C764 C 0.95037 0.90635 0.81897 0.0
C765 C 0.95505 0.90447 0.79658 0.0
U766 U 0.98448 0.84151 0.75673 0.0
O767 O 0.96716 0.8361 0.7359 0.0
O768 O 1.00116 0.84433 0.71946 0.0
C769 C 0.98307 0.84158 0.71639 0.0
C770 C 0.96822 0.87975 0.76973 0.0
C771 C 0.97418 0.8589 0.69663 0.0
C772 C 0.94447 0.89179 0.68128 0.0
C773 C 0.95374 0.87679 0.70005 0.0
C774 C 0.97657 0.87191 0.6553 0.0
C775 C 0.95556 0.88928 0.65871 0.0
C776 C 0.9857 0.85683 0.67409 0.0
C777 C 0.00813 0.77742 0.78817 0.0
C778 C 0.00928 0.74496 0.77655 0.0
C779 C 0.02186 0.73759 0.81069 0.0
C780 C 0.01725 0.76162 0.80683 0.0
C781 C 0.01731 0.729 0.79596 0.0
C782 C 1.00472 0.769 0.77269 0.0
C783 C 1.0 0.80238 0.78659 0.0
O784 O 0.98988 0.87321 0.75787 0.0
O785 O 0.95486 0.86762 0.7707 0.0
O786 O 0.97787 0.81163 0.78707 0.0
O787 O 0.0135 0.81567 0.77091 0.0
H788 H 0.97933 0.84582 0.80733 0.0
H789 H 0.97099 0.84884 0.84617 0.0
H790 H 0.94145 0.92324 0.82206 0.0
H791 H 0.94998 0.91987 0.78286 0.0
H792 H 0.9282 0.90481 0.68461 0.0
H793 H 0.94461 0.87881 0.71732 0.0
H794 H 0.98587 0.8698 0.6381 0.0
H795 H 1.00159 0.84324 0.67109 0.0
H796 H 1.00596 0.73887 0.76469 0.0
H797 H 0.02786 0.7258 0.82588 0.0
H798 H 0.01991 0.76788 0.81898 0.0
H799 H 0.99772 0.78101 0.75815 0.0
C800 C 0.86717 0.87429 0.10805 0.0
C801 C 0.85333 0.88575 0.12514 0.0
C802 C 0.88753 0.8807 0.13701 0.0
C803 C 0.86339 0.88903 0.13942 0.0
C804 C 0.90149 0.86999 0.11931 0.0
C805 C 0.89144 0.86689 0.1049 0.0
U806 U 0.85839 0.87101 0.05283 0.0
O807 O 0.8938 0.87052 0.03049 0.0
O808 O 0.86594 0.90275 0.02507 0.0
C809 C 0.8875 0.89169 0.01691 0.0
C810 C 0.85578 0.86811 0.09555 0.0
C811 C 0.89459 0.89336 0.99196 0.0
C812 C 0.91409 0.9109 0.95201 0.0
C813 C 0.9052 0.91087 0.97542 0.0
C814 C 0.90114 0.87636 0.96145 0.0
C815 C 0.91285 0.89314 0.94491 0.0
C816 C 0.89201 0.87654 0.98466 0.0
C817 C 0.81726 0.83541 0.06112 0.0
C818 C 0.80784 0.79825 0.07308 0.0
C819 C 0.78281 0.82789 0.09238 0.0
C820 C 0.79732 0.84277 0.07802 0.0
C821 C 0.78807 0.80535 0.09023 0.0
C822 C 0.82221 0.81313 0.05868 0.0
C823 C 0.83347 0.85022 0.04619 0.0
O824 O 0.86855 0.85152 0.08549 0.0
O825 O 0.84259 0.88542 0.08299 0.0
O826 O 0.85524 0.84059 0.04706 0.0
O827 O 0.82642 0.87232 0.0459 0.0
H828 H 0.83459 0.89145 0.12801 0.0
H829 H 0.85215 0.89717 0.15302 0.0
H830 H 0.92016 0.86366 0.11685 0.0
H831 H 0.90262 0.85807 0.0918 0.0
H832 H 0.92263 0.92434 0.93972 0.0
H833 H 0.90714 0.92415 0.98071 0.0
H834 H 0.89875 0.86304 0.95668 0.0
H835 H 0.88339 0.86316 0.99707 0.0
H836 H 0.81221 0.78114 0.07074 0.0
H837 H 0.76781 0.8338 0.10555 0.0
H838 H 0.79307 0.85985 0.08037 0.0
H839 H 0.83739 0.80712 0.04569 0.0
C840 C 0.93628 0.8822 0.24548 0.0
C841 C 0.95202 0.87062 0.229 0.0
C842 C 0.92242 0.88283 0.20801 0.0
C843 C 0.94517 0.871 0.21039 0.0
C844 C 0.90676 0.89429 0.22471 0.0
C845 C 0.91365 0.89401 0.24318 0.0
U846 U 0.97047 0.8543 0.29218 0.0
O847 O 0.98613 0.87088 0.30532 0.0
O848 O 0.95853 0.8536 0.32897 0.0
C849 C 0.97206 0.86634 0.32632 0.0
C850 C 0.94287 0.88226 0.26523 0.0
C851 C 0.96079 0.88581 0.33675 0.0
C852 C 0.92776 0.91788 0.34575 0.0
C853 C 0.93917 0.90094 0.33373 0.0
C854 C 0.95991 0.90525 0.36313 0.0
C855 C 0.93782 0.91989 0.36096 0.0
C856 C 0.97125 0.88835 0.35117 0.0
C857 C 0.01193 0.79473 0.30062 0.0
C858 C 0.03355 0.78204 0.32954 0.0
C859 C 0.03099 0.75367 0.31457 0.0
C860 C 0.01757 0.77157 0.30022 0.0
C861 C 0.039 0.7587 0.32951 0.0
C862 C 0.02007 0.79985 0.31531 0.0
C863 C 0.99621 0.81327 0.28709 0.0
O864 O 0.93592 0.86735 0.28527 0.0
O865 O 0.9643 0.88335 0.2611 0.0
O866 O 1.00292 0.83266 0.27528 0.0
O867 O 0.97413 0.81701 0.29856 0.0
H868 H 0.96958 0.86133 0.23049 0.0
H869 H 0.95777 0.86218 0.19777 0.0
H870 H 0.88898 0.90317 0.22377 0.0
H871 H 0.90122 0.90294 0.25581 0.0
H872 H 0.91071 0.92877 0.34381 0.0
H873 H 0.93085 0.89922 0.32262 0.0
H874 H 0.96833 0.90663 0.37436 0.0
H875 H 0.98798 0.87687 0.35361 0.0
H876 H 0.0391 0.78646 0.34109 0.0
H877 H 0.03503 0.73589 0.31405 0.0
H878 H 0.01128 0.76729 0.28912 0.0
H879 H 0.01559 0.8176 0.31613 0.0
C880 C 0.85866 1.00811 0.4513 0.0
C881 C 0.84961 1.00837 0.43424 0.0
C882 C 0.88589 0.98201 0.41934 0.0
C883 C 0.86313 0.99546 0.41833 0.0
C884 C 0.89509 0.98246 0.43606 0.0
C885 C 0.88156 0.99529 0.45194 0.0
U886 U 0.847 1.01242 0.51142 0.0
O887 O 0.86417 0.9759 0.52656 0.0
O888 O 0.88319 1.00295 0.51332 0.0
C889 C 0.88348 0.98083 0.5239 0.0
C890 C 0.84363 0.01935 0.46967 0.0
C891 C 0.89375 0.96973 0.54382 0.0
C892 C 0.92651 0.94347 0.55917 0.0
C893 C 0.91653 0.95554 0.54045 0.0
C894 C 0.89121 0.96023 0.5849 0.0
C895 C 0.91389 0.94543 0.58166 0.0
C896 C 0.88114 0.97222 0.5661 0.0
C897 C 0.8118 0.03343 0.56563 0.0
C898 C 0.82636 0.0276 0.59813 0.0
C899 C 0.785 0.03492 0.60346 0.0
C900 C 0.78908 0.03649 0.58009 0.0
C901 C 0.8036 0.03028 0.6128 0.0
C902 C 0.83044 0.02912 0.57474 0.0
C903 C 0.81557 0.03403 0.54142 0.0
O904 O 0.85269 0.03215 0.47427 0.0
O905 O 0.83323 1.00544 0.48849 0.0
O906 O 0.81415 0.01516 0.53888 0.0
O907 O 0.83295 0.04236 0.52585 0.0
H908 H 0.83187 0.01798 0.43366 0.0
H909 H 0.85544 0.9953 0.40586 0.0
H910 H 0.91265 0.9726 0.4371 0.0
H911 H 0.8888 0.99472 0.46512 0.0
H912 H 0.94411 0.93247 0.55608 0.0
H913 H 0.9265 0.95348 0.52334 0.0
H914 H 0.88104 0.96195 0.60207 0.0
H915 H 0.86345 0.983 0.56899 0.0
H916 H 0.84109 0.02372 0.60487 0.0
H917 H 0.76726 0.03731 0.61424 0.0
H918 H 0.77448 0.03986 0.57335 0.0
H919 H 0.84814 0.02662 0.56389 0.0
C920 C 0.8637 0.09359 0.90894 0.0
C921 C 0.8611 0.11518 0.89178 0.0
C922 C 0.86366 0.13388 0.91725 0.0
C923 C 0.86115 0.13514 0.89587 0.0
C924 C 0.86721 0.11198 0.93401 0.0
C925 C 0.86717 0.09202 0.92988 0.0
U926 U 0.84473 0.06879 0.87581 0.0
O927 O 0.85774 0.03498 0.86799 0.0
O928 O 0.82182 0.04536 0.88855 0.0
C929 C 0.83832 0.02876 0.88048 0.0
C930 C 0.8604 0.07335 0.90606 0.0
C931 C 0.84083 1.00527 0.89704 0.0
C932 C 0.84679 0.97805 0.93428 0.0
C933 C 0.8457 1.00038 0.91834 0.0
C934 C 0.83835 0.96549 0.9076 0.0
C935 C 0.84314 0.96037 0.92901 0.0
C936 C 0.8373 0.98766 0.89176 0.0
C937 C 0.82301 0.11144 0.82244 0.0
C938 C 0.79489 0.10782 0.80736 0.0
C939 C 0.81607 0.13755 0.78528 0.0
C940 C 0.8279 0.12987 0.8025 0.0
C941 C 0.79896 0.12702 0.78777 0.0
C942 C 0.80685 0.10006 0.82449 0.0
C943 C 0.83359 0.10554 0.84157 0.0
O944 O 0.83854 0.07414 0.90959 0.0
O945 O 0.87416 0.06684 0.88744 0.0
O946 O 0.8545 0.0912 0.83987 0.0
O947 O 0.81968 0.10096 0.86266 0.0
H948 H 0.85827 0.11671 0.87553 0.0
H949 H 0.85868 0.15167 0.88249 0.0
H950 H 0.86891 0.11043 0.95076 0.0
H951 H 0.869 0.07551 0.94339 0.0
H952 H 0.85047 0.9746 0.95065 0.0
H953 H 0.8484 0.01388 0.9227 0.0
H954 H 0.83479 0.95246 0.90333 0.0
H955 H 0.83332 0.99117 0.87551 0.0
H956 H 0.7817 0.09942 0.81003 0.0
H957 H 0.81998 0.15208 0.77024 0.0
H958 H 0.84042 0.13878 0.80055 0.0
H959 H 0.80287 0.08572 0.83974 0.0
C960 C 0.03599 0.39421 0.38079 0.0
C961 C 0.01634 0.39124 0.37813 0.0
H962 H 0.06007 0.38275 0.40149 0.0
C963 C 1.0049 0.37484 0.39585 0.0
H964 H 0.04499 0.40696 0.36762 0.0
C965 C 0.01339 0.36117 0.41539 0.0
C966 C 0.0335 0.36359 0.41767 0.0
H967 H 0.9898 0.37203 0.39431 0.0
H968 H 1.00436 0.34847 0.42858 0.0
C969 C 0.04447 0.38055 0.40035 0.0
C970 C 0.13838 0.7306 0.77178 0.0
C971 C 0.15578 0.74131 0.75511 0.0
H972 H 0.11142 0.73025 0.80363 0.0
C973 C 0.16021 0.75936 0.75906 0.0
H974 H 0.13472 0.71644 0.76946 0.0
C975 C 0.14696 0.76718 0.7786 0.0
C976 C 0.12886 0.75722 0.79471 0.0
H977 H 0.17312 0.76837 0.74642 0.0
H978 H 0.15014 0.78189 0.7804 0.0
C979 C 0.12503 0.73849 0.79136 0.0
C980 C 0.67259 0.76642 0.02455 0.0
C981 C 0.68268 0.77617 0.0337 0.0
H982 H 0.6417 0.76643 0.0185 0.0
C983 C 0.6683 0.79384 0.0444 0.0
H984 H 0.68317 0.75319 1.01569 0.0
C985 C 0.64445 0.80161 0.0458 0.0
C986 C 0.63445 0.79178 0.03666 0.0
H987 H 0.67543 0.80157 0.05184 0.0
H988 H 0.63378 0.8151 0.0543 0.0
C989 C 0.6488 0.77409 0.02606 0.0
C990 C 0.72699 0.36626 0.07686 0.0
C991 C 0.73216 0.37189 0.05248 0.0
H992 H 0.70421 0.37524 0.10784 0.0
C993 C 0.71665 0.3905 0.04079 0.0
H994 H 0.7384 0.35177 0.0864 0.0
C995 C 0.6971 0.40398 0.05305 0.0
C996 C 0.69262 0.39913 0.07728 0.0
H997 H 0.72026 0.39546 0.02199 0.0
H998 H 0.6862 0.41894 0.04335 0.0
C999 C 0.70744 0.37971 0.08912 0.0
C1000 C 0.37123 0.03383 0.35621 0.0
C1001 C 0.36461 0.0263 0.38067 0.0
H1002 H 0.39622 0.04777 0.3256 0.0
C1003 C 0.37897 0.02581 0.39315 0.0
H1004 H 0.36032 0.03437 0.34628 0.0
C1005 C 0.39944 0.033 0.38148 0.0
C1006 C 0.40588 0.04115 0.35704 0.0
H1007 H 0.37423 0.01999 0.41203 0.0
H1008 H 0.40991 0.03285 0.39164 0.0
C1009 C 0.39162 0.0415 0.34445 0.0
C1010 C 0.36062 0.0951 0.72265 0.0
C1011 C 0.37497 0.0865 0.70359 0.0
H1012 H 0.33367 0.09055 0.75442 0.0
C1013 C 0.37197 0.06655 0.70175 0.0
H1014 H 0.3621 0.1107 0.72437 0.0
C1015 C 0.35554 0.05508 0.71894 0.0
C1016 C 0.3418 0.06325 0.73839 0.0
H1017 H 0.38289 0.05928 0.68746 0.0
H1018 H 0.35422 0.03931 0.71743 0.0
C1019 C 0.34428 0.08359 0.73986 0.0
C1020 C 0.76011 0.13245 0.75175 0.0
C1021 C 0.7513 0.1568 0.74419 0.0
H1022 H 0.78236 0.1039 0.77106 0.0
C1023 C 0.76003 0.17121 0.7492 0.0
H1024 H 0.75369 0.12082 0.74832 0.0
C1025 C 0.77615 0.16152 0.76255 0.0
C1026 C 0.78411 0.13715 0.77114 0.0
H1027 H 0.75388 0.19005 0.74335 0.0
H1028 H 0.78154 0.17322 0.76699 0.0
C1029 C 0.77633 0.12274 0.76506 0.0
C1030 C 0.34807 0.37345 0.03606 0.0
C1031 C 0.35274 0.35454 0.05548 0.0
H1032 H 0.33471 0.41038 0.02289 0.0
C1033 C 0.34519 0.35858 0.07742 0.0
H1034 H 0.35328 0.37088 0.01898 0.0
C1035 C 0.3345 0.38112 0.07966 0.0
C1036 C 0.33112 0.40024 0.06003 0.0
H1037 H 0.34877 0.34454 0.09272 0.0
H1038 H 0.33027 0.38369 0.09659 0.0
C1039 C 0.33738 0.39606 0.0383 0.0
C1040 C 0.74898 0.79658 0.11167 0.0
C1041 C 0.77342 0.78898 0.10605 0.0
H1042 H 0.71664 0.78703 0.12972 0.0
C1043 C 0.78396 0.76534 0.11533 0.0
H1044 H 0.74034 0.81467 0.1047 0.0
C1045 C 0.77046 0.74959 0.1295 0.0
C1046 C 0.74603 0.75703 0.13482 0.0
H1047 H 0.80273 0.75896 0.11161 0.0
H1048 H 0.77924 0.73141 0.13586 0.0
C1049 C 0.73542 0.78074 0.12583 0.0
C1050 C 0.0827 0.72545 0.36586 0.0
C1051 C 0.0752 0.70498 0.37909 0.0
H1052 H 0.07743 0.75823 0.33963 0.0
C1053 C 0.05642 0.70182 0.37498 0.0
H1054 H 0.09738 0.72826 0.36822 0.0
C1055 C 0.04507 0.71897 0.35847 0.0
C1056 C 0.05217 0.7397 0.34574 0.0
H1057 H 0.04997 0.68644 0.38506 0.0
H1058 H 0.03021 0.71632 0.35627 0.0
C1059 C 0.0713 0.74262 0.34942 0.0
C1060 C 0.78398 0.01418 0.65478 0.0
C1061 C 0.79936 0.02732 0.63795 0.0
H1062 H 0.76965 0.9992 0.69096 0.0
C1063 C 0.81113 0.03694 0.64539 0.0
H1064 H 0.77487 1.00628 0.64964 0.0
C1065 C 0.808 0.03304 0.66914 0.0
C1066 C 0.79312 0.01931 0.68601 0.0
H1067 H 0.82282 0.04745 0.63282 0.0
H1068 H 0.81738 0.04065 0.67429 0.0
C1069 C 0.78093 1.01019 0.67851 0.0
C1070 C 0.03764 0.68666 0.81046 0.0
C1071 C 0.01911 0.70371 0.80194 0.0
H1072 H 0.05263 0.65022 0.82433 0.0
C1073 C 1.00146 0.69648 0.80034 0.0
H1074 H 0.05157 0.69167 0.81177 0.0
C1075 C 1.0021 0.67282 0.80745 0.0
C1076 C 0.02041 0.65578 0.81631 0.0
H1077 H 0.98678 0.70916 0.79415 0.0
H1078 H 0.98822 0.66787 0.80596 0.0
C1079 C 0.03832 0.66293 0.81751 0.0
C1080 C 0.07373 0.46872 0.50884 0.0
C1081 C 0.09097 0.47607 0.48883 0.0
H1082 H 0.05727 0.44119 0.531 0.0
C1083 C 0.10494 0.46054 0.47548 0.0
H1084 H 0.06243 0.48042 0.51927 0.0
C1085 C 0.10209 0.438 0.48225 0.0
C1086 C 0.08509 0.43047 0.50248 0.0
H1087 H 0.11854 0.46559 0.46011 0.0
H1088 H 0.11376 0.42626 0.47199 0.0
C1089 C 0.07077 0.44623 0.51553 0.0
C1090 C 0.87947 0.93051 0.87213 0.0
C1091 C 0.86635 0.91526 0.87744 0.0
H1092 H 0.90704 0.93833 0.87228 0.0
C1093 C 0.87532 0.89204 0.88777 0.0
H1094 H 0.87267 0.94903 0.86458 0.0
C1095 C 0.89712 0.88409 0.8924 0.0
C1096 C 0.91394 0.89815 0.88745 0.0
H1097 H 0.86543 0.87951 0.89226 0.0
H1098 H 0.90006 0.86538 0.90023 0.0
C1099 C 0.90095 0.92288 0.87732 0.0
C1100 C 0.91746 0.66954 0.93056 0.0
C1101 C 0.90277 0.66802 0.95322 0.0
H1102 H 0.93805 0.65179 0.90452 0.0
C1103 C 0.8984 0.6463 0.96743 0.0
H1104 H 0.92096 0.68606 0.91903 0.0
C1105 C 0.90815 0.62669 0.9591 0.0
C1106 C 0.92254 0.62828 0.93633 0.0
H1107 H 0.88752 0.64439 0.98511 0.0
H1108 H 0.90454 0.61021 0.9706 0.0
C1109 C 0.92725 0.6499 0.92222 0.0
C1110 C 0.61529 0.57359 0.2069 0.0
C1111 C 0.63361 0.5833 0.19084 0.0
H1112 H 0.58894 0.55712 0.21233 0.0
C1113 C 0.63866 0.58464 0.16725 0.0
H1114 H 0.61094 0.57243 0.22517 0.0
C1115 C 0.62619 0.57585 0.15997 0.0
C1116 C 0.60827 0.56563 0.17606 0.0
H1117 H 0.65282 0.59177 0.15449 0.0
H1118 H 0.63076 0.57681 0.14172 0.0
C1119 C 0.60263 0.56498 0.19955 0.0
C1120 C 0.1674 0.6163 0.5954 0.0
C1121 C 0.18328 0.6303 0.5839 0.0
H1122 H 0.14885 0.59591 0.59246 0.0
C1123 C 0.1936 0.63334 0.5599 0.0
H1124 H 0.15878 0.6139 0.61376 0.0
C1125 C 0.18776 0.6231 0.54764 0.0
C1126 C 0.17155 0.60949 0.55909 0.0
H1127 H 0.20618 0.64368 0.55055 0.0
H1128 H 0.19595 0.62585 0.52916 0.0
C1129 C 0.16165 0.606 0.58316 0.0
C1130 C 0.62026 0.95758 0.90685 0.0
C1131 C 0.64109 0.94259 0.89785 0.0
H1132 H 0.58567 0.96077 0.92908 0.0
C1133 C 0.64296 0.91847 0.90535 0.0
H1134 H 0.61845 0.97621 0.90167 0.0
C1135 C 0.62412 0.9096 0.92086 0.0
C1136 C 0.60301 0.92465 0.92936 0.0
H1137 H 0.65873 0.90651 0.89854 0.0
H1138 H 0.62585 0.89104 0.92548 0.0
C1139 C 0.60148 0.94871 0.92251 0.0
C1140 C 0.96026 0.37104 0.92012 0.0
C1141 C 0.93603 0.37638 0.92383 0.0
H1142 H 0.99012 0.3841 0.91023 0.0
C1143 C 0.92322 0.39988 0.92053 0.0
H1144 H 0.97058 0.35309 0.92284 0.0
C1145 C 0.93439 0.41764 0.91328 0.0
C1146 C 0.95867 0.41236 0.90916 0.0
H1147 H 0.90458 0.40464 0.9229 0.0
H1148 H 0.92405 0.43559 0.9102 0.0
C1149 C 0.97144 0.38881 0.9129 0.0
C1150 C 0.872 0.52742 0.23392 0.0
C1151 C 0.89054 0.53804 0.22519 0.0
H1152 H 0.8351 0.53249 0.24184 0.0
C1153 C 0.8856 0.56252 0.21838 0.0
H1154 H 0.87529 0.50858 0.23926 0.0
C1155 C 0.86276 0.57612 0.21987 0.0
C1156 C 0.8442 0.56561 0.2282 0.0
H1157 H 0.89946 0.57123 0.2119 0.0
H1158 H 0.85971 0.59495 0.21391 0.0
C1159 C 0.84904 0.54109 0.23528 0.0
C1160 C 0.50103 0.09284 0.46646 0.0
C1161 C 0.49759 0.11306 0.47243 0.0
H1162 H 0.51008 0.07726 0.4391 0.0
C1163 C 0.50121 0.13349 0.45449 0.0
H1164 H 0.49875 0.0767 0.47985 0.0
C1165 C 0.5077 0.13381 0.43114 0.0
C1166 C 0.51073 0.11371 0.42515 0.0
H1167 H 0.49839 0.14947 0.45846 0.0
H1168 H 0.50966 0.15004 0.41777 0.0
C1169 C 0.50753 0.09315 0.4431 0.0
C1170 C 0.56428 0.1938 0.61698 0.0
C1171 C 0.54314 0.18724 0.62625 0.0
H1172 H 0.589 0.2052 0.6229 0.0
C1173 C 0.53076 0.18709 0.64937 0.0
H1174 H 0.57417 0.19433 0.59917 0.0
C1175 C 0.53914 0.19347 0.6628 0.0
C1176 C 0.56022 0.20005 0.65357 0.0
H1177 H 0.51474 0.18158 0.65734 0.0
H1178 H 0.5293 0.1928 0.68065 0.0
C1179 C 0.57278 0.20006 0.63053 0.0
C1180 C 0.54949 0.26189 0.85599 0.0
C1181 C 0.55235 0.24222 0.84939 0.0
H1182 H 0.532 0.28069 0.8815 0.0
C1183 C 0.53882 0.22635 0.86397 0.0
H1184 H 0.55955 0.27451 0.84505 0.0
C1185 C 0.523 0.2299 0.88482 0.0
C1186 C 0.52025 0.24949 0.89149 0.0
H1187 H 0.5408 0.21088 0.85951 0.0
H1188 H 0.51283 0.21736 0.89568 0.0
C1189 C 0.53357 0.26552 0.87676 0.0
C1190 C 0.47003 0.15727 0.15263 0.0
C1191 C 0.48701 0.15223 0.13267 0.0
H1192 H 0.4619 0.15343 0.189 0.0
C1193 C 0.50852 0.13643 0.13535 0.0
H1194 H 0.45307 0.16893 0.15139 0.0
C1195 C 0.51337 0.12698 0.15714 0.0
C1196 C 0.49696 0.13329 0.17679 0.0
H1197 H 0.5221 0.13214 0.12045 0.0
H1198 H 0.53032 0.1153 0.15839 0.0
C1199 C 0.47498 0.14804 0.17437 0.0
C1200 C 0.42529 0.54255 0.0913 0.0
C1201 C 0.41424 0.52614 0.09323 0.0
H1202 H 0.45622 0.54852 0.09156 0.0
C1203 C 0.42652 0.50246 0.09733 0.0
H1204 H 0.41641 0.56096 0.08792 0.0
C1205 C 0.44926 0.49534 0.09945 0.0
C1206 C 0.46033 0.51172 0.09754 0.0
H1207 H 0.41838 0.48928 0.09942 0.0
H1208 H 0.45803 0.4769 0.10302 0.0
C1209 C 0.44809 0.53542 0.09343 0.0
C1210 C 0.22078 0.87664 0.51687 0.0
C1211 C 0.22495 0.8875 0.52985 0.0
H1212 H 0.21746 0.84522 0.51519 0.0
C1213 C 0.23072 0.87391 0.551 0.0
H1214 H 0.21611 0.88672 0.5006 0.0
C1215 C 0.23181 0.85006 0.55924 0.0
C1216 C 0.22692 0.83927 0.54664 0.0
H1217 H 0.23444 0.88173 0.56117 0.0
H1218 H 0.2364 0.84011 0.57556 0.0
C1219 C 0.22166 0.85281 0.52521 0.0
C1220 C 0.1859 0.89518 0.86182 0.0
C1221 C 0.16496 0.89308 0.87905 0.0
H1222 H 0.21595 0.90848 0.84905 0.0
C1223 C 0.15768 0.90448 0.89633 0.0
H1224 H 0.19182 0.8869 0.84806 0.0
C1225 C 0.17149 0.91706 0.89681 0.0
C1226 C 0.19272 0.91866 0.87986 0.0
H1227 H 0.14164 0.90315 0.90985 0.0
H1228 H 0.16564 0.92538 0.91052 0.0
C1229 C 0.19959 0.90781 0.86221 0.0
C1230 C 0.83052 0.93397 0.96922 0.0
C1231 C 0.84327 0.93679 0.9458 0.0
H1232 H 0.81636 0.9105 1.00127 0.0
C1233 C 0.85403 0.917 0.93769 0.0
H1234 H 0.82213 0.9489 0.97605 0.0
C1235 C 0.85019 0.8953 0.9517 0.0
C1236 C 0.83605 0.89263 0.97463 0.0
H1237 H 0.86464 0.91857 0.92009 0.0
H1238 H 0.85743 0.88092 0.94407 0.0
C1239 C 0.82701 0.91203 0.98355 0.0
C1240 C 0.15172 0.13564 0.51029 0.0
C1241 C 0.17518 0.12613 0.5108 0.0
H1242 H 0.12021 0.16182 0.51832 0.0
C1243 C 0.18435 0.13498 0.52168 0.0
H1244 H 0.14421 0.12919 0.50197 0.0
C1245 C 0.17073 0.15357 0.53092 0.0
C1246 C 0.14756 0.16383 0.52955 0.0
H1247 H 0.20228 0.12782 0.5226 0.0
H1248 H 0.17874 0.16054 0.53826 0.0
C1249 C 0.13806 0.1544 0.51948 0.0
C1250 C 0.83846 0.19511 0.92393 0.0
C1251 C 0.85179 0.19532 0.93715 0.0
H1252 H 0.83167 0.17564 0.90743 0.0
C1253 C 0.87018 0.17571 0.94243 0.0
H1254 H 0.82437 0.21006 0.91931 0.0
C1255 C 0.87454 0.15598 0.93541 0.0
C1256 C 0.86068 0.1555 0.92285 0.0
H1257 H 0.8807 0.17528 0.95269 0.0
H1258 H 0.88856 0.14097 0.94009 0.0
C1259 C 0.84284 0.17546 0.91687 0.0
C1260 C 0.14473 0.47165 0.15051 0.0
C1261 C 0.13028 0.48101 0.16901 0.0
H1262 H 0.17515 0.47268 0.12151 0.0
C1263 C 0.13447 0.49994 0.17148 0.0
H1264 H 0.14181 0.45695 0.1484 0.0
C1265 C 0.15311 0.50903 0.15613 0.0
C1266 C 0.16819 0.49924 0.13808 0.0
H1267 H 0.12352 0.50741 0.18564 0.0
H1268 H 0.15626 0.52318 0.15899 0.0
C1269 C 0.16376 0.48055 0.13526 0.0
C1270 C 0.37273 0.91166 0.94979 0.0
C1271 C 0.36622 0.9362 0.94375 0.0
H1272 H 0.39234 0.87986 0.96863 0.0
C1273 C 0.37353 0.94742 0.954 0.0
H1274 H 0.36769 0.90247 0.94197 0.0
C1275 C 0.38771 0.93444 0.96928 0.0
C1276 C 0.39488 0.90994 0.97469 0.0
H1277 H 0.3685 0.96628 0.95002 0.0
H1278 H 0.39325 0.94361 0.97669 0.0
C1279 C 0.38689 0.89868 0.96508 0.0
C1280 C 0.94107 0.86304 0.88517 0.0
C1281 C 0.94882 0.88776 0.86147 0.0
H1282 H 0.92554 0.84965 0.92828 0.0
C1283 C 0.94609 0.91422 0.86714 0.0
H1284 H 0.94282 0.84705 0.88183 0.0
C1285 C 0.93258 0.91666 0.89769 0.0
C1286 C 0.92422 0.89164 0.92067 0.0
H1287 H 0.95315 0.92779 0.84992 0.0
H1288 H 0.94017 0.91892 0.88084 0.0
C1289 C 0.92959 0.86493 0.91454 0.0
C1290 C 0.92206 0.86271 0.18116 0.0
C1291 C 0.91476 0.88284 0.18861 0.0
H1292 H 0.91916 0.84626 0.15912 0.0
C1293 C 0.89937 0.90272 0.17795 0.0
H1294 H 0.93362 0.84696 0.18916 0.0
C1295 C 0.89091 0.90222 0.16086 0.0
C1296 C 0.89781 0.88192 0.15384 0.0
H1297 H 0.89374 0.91871 0.18287 0.0
H1298 H 0.8789 0.91773 0.15318 0.0
C1299 C 0.91374 0.86228 0.16394 0.0
C1300 C 0.91184 0.95884 0.36637 0.0
C1301 C 0.92487 0.93624 0.37552 0.0
H1302 H 0.88961 0.99122 0.37287 0.0
C1303 C 0.92508 0.92899 0.39904 0.0
H1304 H 0.91147 0.96502 0.34827 0.0
C1305 C 0.9126 0.94391 0.41307 0.0
C1306 C 0.89957 0.96652 0.40399 0.0
H1307 H 0.9345 0.91152 0.4068 0.0
H1308 H 0.91277 0.93749 0.43124 0.0
C1309 C 0.89932 0.97384 0.38046 0.0
C1310 C 0.9332 0.92769 0.63682 0.0
C1311 C 0.94482 0.90395 0.63901 0.0
H1312 H 0.91432 0.95947 0.61694 0.0
C1313 C 0.94576 0.89406 0.62237 0.0
H1314 H 0.93232 0.93594 0.64918 0.0
C1315 C 0.93567 0.90756 0.6039 0.0
C1316 C 0.9242 0.93127 0.60163 0.0
H1317 H 0.95401 0.87573 0.62379 0.0
H1318 H 0.93657 0.89932 0.59151 0.0
C1319 C 0.92291 0.94118 0.61837 0.0
loop_
_geom_bond_atom_site_label_1
_geom_bond_atom_site_label_2
_geom_bond_distance
_geom_bond_site_symmetry_2
_ccdc_geom_bond_type
C0 C1 1.264 . S
C0 C5 1.479 . S
C0 C10 1.465 . S
C1 C0 1.264 . S
C1 C3 1.339 . S
C1 H28 0.931 . S
C2 C3 1.395 . S
C2 C4 1.320 . S
C3 C1 1.339 . S
C3 C2 1.395 . S
C3 H29 0.929 . S
C4 C2 1.320 . S
C4 C5 1.405 . S
C4 H30 0.930 . S
C5 C0 1.479 . S
C5 C4 1.405 . S
C5 H31 0.931 . S
U6 O7 2.454 . S
U6 O8 2.458 . S
U6 C9 2.984 . S
U6 C10 2.847 . S
U6 C23 2.882 . S
U6 O24 2.441 . S
U6 O25 2.420 . S
U6 O26 2.455 . S
U6 O27 2.449 . S
O7 U6 2.454 . S
O7 C9 1.353 . S
O8 U6 2.458 . S
O8 C9 1.286 . S
C9 U6 2.984 . S
C9 O7 1.353 . S
C9 O8 1.286 . S
C9 C11 1.363 . S
C10 C0 1.465 . S
C10 U6 2.847 . S
C10 O24 1.249 . S
C10 O25 1.202 . S
C11 C9 1.363 . S
C11 C13 1.408 . S
C11 C16 1.342 . S
C12 C13 1.310 . S
C12 C15 1.461 . S
C12 H32 0.932 . S
C13 C11 1.408 . S
C13 C12 1.310 . S
C13 H33 0.930 . S
C14 C15 1.474 . S
C14 C16 1.285 . S
C14 H34 0.929 . S
C15 C12 1.461 . S
C15 C14 1.474 . S
C16 C11 1.342 . S
C16 C14 1.285 . S
C16 H35 0.930 . S
C17 C20 1.424 . S
C17 C22 1.245 . S
C17 C23 1.428 1_655 S
C18 C21 1.260 . S
C18 C22 1.477 . S
C18 H36 0.932 . S
C19 C20 1.384 . S
C19 C21 1.479 . S
C19 H37 0.929 . S
C20 C17 1.424 . S
C20 C19 1.384 . S
C20 H38 0.928 1_655 S
C21 C18 1.260 . S
C21 C19 1.479 . S
C22 C17 1.245 . S
C22 C18 1.477 . S
C22 H39 0.932 . S
C23 U6 2.882 . S
C23 C17 1.428 1_455 S
C23 O26 1.301 . S
C23 O27 1.282 . S
O24 U6 2.441 . S
O24 C10 1.249 . S
O25 U6 2.420 . S
O25 C10 1.202 . S
O26 U6 2.455 . S
O26 C23 1.301 . S
O27 U6 2.449 . S
O27 C23 1.282 . S
H28 C1 0.931 . S
H29 C3 0.929 . S
H30 C4 0.930 . S
H31 C5 0.931 . S
H32 C12 0.932 . S
H33 C13 0.930 . S
H34 C14 0.929 . S
H35 C16 0.930 . S
H36 C18 0.932 . S
H37 C19 0.929 . S
H38 C20 0.928 1_455 S
H39 C22 0.932 . S
C40 C41 1.264 . S
C40 C45 1.479 . S
C40 C50 1.465 . S
C41 C40 1.264 . S
C41 C43 1.339 . S
C41 H68 0.931 . S
C42 C43 1.395 . S
C42 C44 1.320 . S
C43 C41 1.339 . S
C43 C42 1.395 . S
C43 H69 0.929 . S
C44 C42 1.320 . S
C44 C45 1.405 . S
C44 H70 0.930 . S
C45 C40 1.479 . S
C45 C44 1.405 . S
C45 H71 0.931 . S
U46 O47 2.454 . S
U46 O48 2.458 . S
U46 C49 2.984 1_455 S
U46 C50 2.847 . S
U46 C63 2.882 . S
U46 O64 2.441 . S
U46 O65 2.420 . S
U46 O66 2.455 . S
U46 O67 2.449 . S
O47 U46 2.454 . S
O47 C49 1.353 1_455 S
O48 U46 2.458 . S
O48 C49 1.286 1_455 S
C49 U46 2.984 1_655 S
C49 O47 1.353 1_655 S
C49 O48 1.286 1_655 S
C49 C51 1.363 . S
C50 C40 1.465 . S
C50 U46 2.847 . S
C50 O64 1.249 . S
C50 O65 1.202 . S
C51 C49 1.363 . S
C51 C53 1.408 . S
C51 C56 1.342 . S
C52 C53 1.310 . S
C52 C55 1.461 . S
C52 H72 0.932 . S
C53 C51 1.408 . S
C53 C52 1.310 . S
C53 H73 0.930 . S
C54 C55 1.474 . S
C54 C56 1.285 . S
C54 H74 0.929 . S
C55 C52 1.461 . S
C55 C54 1.474 . S
C56 C51 1.342 . S
C56 C54 1.285 . S
C56 H75 0.930 . S
C57 C60 1.424 . S
C57 C62 1.245 . S
C57 C63 1.428 . S
C58 C61 1.260 . S
C58 C62 1.477 . S
C58 H76 0.932 . S
C59 C60 1.384 . S
C59 C61 1.479 . S
C59 H77 0.929 . S
C60 C57 1.424 . S
C60 C59 1.384 . S
C60 H78 0.928 . S
C61 C58 1.260 . S
C61 C59 1.479 . S
C62 C57 1.245 . S
C62 C58 1.477 . S
C62 H79 0.932 . S
C63 U46 2.882 . S
C63 C57 1.428 . S
C63 O66 1.301 . S
C63 O67 1.282 . S
O64 U46 2.441 . S
O64 C50 1.249 . S
O65 U46 2.420 . S
O65 C50 1.202 . S
O66 U46 2.455 . S
O66 C63 1.301 . S
O67 U46 2.449 . S
O67 C63 1.282 . S
H68 C41 0.931 . S
H69 C43 0.929 . S
H70 C44 0.930 . S
H71 C45 0.931 . S
H72 C52 0.932 . S
H73 C53 0.930 . S
H74 C54 0.929 . S
H75 C56 0.930 . S
H76 C58 0.932 . S
H77 C59 0.929 . S
H78 C60 0.928 . S
H79 C62 0.932 . S
C80 C81 1.270 1_556 S
C80 C85 1.487 . S
C80 C90 1.449 1_556 S
C81 C80 1.270 1_554 S
C81 C83 1.343 . S
C81 H108 0.931 . S
C82 C83 1.391 1_556 S
C82 C84 1.320 . S
C83 C81 1.343 . S
C83 C82 1.391 1_554 S
C83 H109 0.928 . S
C84 C82 1.320 . S
C84 C85 1.405 . S
C84 H110 0.930 . S
C85 C80 1.487 . S
C85 C84 1.405 . S
C85 H111 0.931 . S
U86 O87 2.454 1_554 S
U86 O88 2.458 . S
U86 C89 2.984 1_554 S
U86 C90 2.847 . S
U86 C103 2.882 . S
U86 O104 2.441 1_554 S
U86 O105 2.420 . S
U86 O106 2.455 . S
U86 O107 2.449 . S
O87 U86 2.454 1_556 S
O87 C89 1.353 . S
O88 U86 2.458 . S
O88 C89 1.286 1_554 S
C89 U86 2.984 1_556 S
C89 O87 1.353 . S
C89 O88 1.286 1_556 S
C89 C91 1.363 . S
C90 C80 1.449 1_554 S
C90 U86 2.847 . S
C90 O104 1.249 1_554 S
C90 O105 1.202 . S
C91 C89 1.363 . S
C91 C93 1.408 . S
C91 C96 1.342 . S
C92 C93 1.310 . S
C92 C95 1.461 . S
C92 H112 0.932 . S
C93 C91 1.408 . S
C93 C92 1.310 . S
C93 H113 0.930 . S
C94 C95 1.474 . S
C94 C96 1.285 . S
C94 H114 0.929 . S
C95 C92 1.461 . S
C95 C94 1.474 . S
C96 C91 1.342 . S
C96 C94 1.285 . S
C96 H115 0.930 . S
C97 C100 1.424 . S
C97 C102 1.245 . S
C97 C103 1.428 . S
C98 C101 1.260 . S
C98 C102 1.477 . S
C98 H116 0.932 . S
C99 C100 1.384 . S
C99 C101 1.479 . S
C99 H117 0.929 . S
C100 C97 1.424 . S
C100 C99 1.384 . S
C100 H118 0.928 . S
C101 C98 1.260 . S
C101 C99 1.479 . S
C102 C97 1.245 . S
C102 C98 1.477 . S
C102 H119 0.932 . S
C103 U86 2.882 . S
C103 C97 1.428 . S
C103 O106 1.301 . S
C103 O107 1.282 . S
O104 U86 2.441 1_556 S
O104 C90 1.249 1_556 S
O105 U86 2.420 . S
O105 C90 1.202 . S
O106 U86 2.455 . S
O106 C103 1.301 . S
O107 U86 2.449 . S
O107 C103 1.282 . S
H108 C81 0.931 . S
H109 C83 0.928 . S
H110 C84 0.930 . S
H111 C85 0.931 . S
H112 C92 0.932 . S
H113 C93 0.930 . S
H114 C94 0.929 . S
H115 C96 0.930 . S
H116 C98 0.932 . S
H117 C99 0.929 . S
H118 C100 0.928 . S
H119 C102 0.932 . S
C120 C121 1.264 . S
C120 C125 1.479 . S
C120 C130 1.465 . S
C121 C120 1.264 . S
C121 C123 1.339 . S
C121 H148 0.931 . S
C122 C123 1.395 . S
C122 C124 1.320 . S
C123 C121 1.339 . S
C123 C122 1.395 . S
C123 H149 0.929 . S
C124 C122 1.320 . S
C124 C125 1.405 . S
C124 H150 0.930 . S
C125 C120 1.479 . S
C125 C124 1.405 . S
C125 H151 0.931 . S
U126 O127 2.454 . S
U126 O128 2.458 . S
U126 C129 2.984 . S
U126 C130 2.847 . S
U126 C143 2.882 . S
U126 O144 2.441 . S
U126 O145 2.420 . S
U126 O146 2.455 . S
U126 O147 2.449 . S
O127 U126 2.454 . S
O127 C129 1.353 . S
O128 U126 2.458 . S
O128 C129 1.286 . S
C129 U126 2.984 . S
C129 O127 1.353 . S
C129 O128 1.286 . S
C129 C131 1.363 . S
C130 C120 1.465 . S
C130 U126 2.847 . S
C130 O144 1.249 . S
C130 O145 1.202 . S
C131 C129 1.363 . S
C131 C133 1.408 . S
C131 C136 1.342 . S
C132 C133 1.310 . S
C132 C135 1.461 . S
C132 H152 0.932 . S
C133 C131 1.408 . S
C133 C132 1.310 . S
C133 H153 0.930 . S
C134 C135 1.474 . S
C134 C136 1.285 . S
C134 H154 0.929 . S
C135 C132 1.461 . S
C135 C134 1.474 . S
C136 C131 1.342 . S
C136 C134 1.285 . S
C136 H155 0.930 . S
C137 C140 1.424 . S
C137 C142 1.245 . S
C137 C143 1.428 . S
C138 C141 1.260 . S
C138 C142 1.477 . S
C138 H156 0.932 . S
C139 C140 1.384 . S
C139 C141 1.479 . S
C139 H157 0.929 . S
C140 C137 1.424 . S
C140 C139 1.384 . S
C140 H158 0.928 . S
C141 C138 1.260 . S
C141 C139 1.479 . S
C142 C137 1.245 . S
C142 C138 1.477 . S
C142 H159 0.932 . S
C143 U126 2.882 . S
C143 C137 1.428 . S
C143 O146 1.301 . S
C143 O147 1.282 . S
O144 U126 2.441 . S
O144 C130 1.249 . S
O145 U126 2.420 . S
O145 C130 1.202 . S
O146 U126 2.455 . S
O146 C143 1.301 . S
O147 U126 2.449 . S
O147 C143 1.282 . S
H148 C121 0.931 . S
H149 C123 0.929 . S
H150 C124 0.930 . S
H151 C125 0.931 . S
H152 C132 0.932 . S
H153 C133 0.930 . S
H154 C134 0.929 . S
H155 C136 0.930 . S
H156 C138 0.932 . S
H157 C139 0.929 . S
H158 C140 0.928 . S
H159 C142 0.932 . S
C160 C161 1.264 . S
C160 C165 1.479 . S
C160 C170 1.465 . S
C161 C160 1.264 . S
C161 C163 1.339 . S
C161 H188 0.931 . S
C162 C163 1.395 . S
C162 C164 1.320 . S
C163 C161 1.339 . S
C163 C162 1.395 . S
C163 H189 0.929 . S
C164 C162 1.320 . S
C164 C165 1.405 . S
C164 H190 0.930 . S
C165 C160 1.479 . S
C165 C164 1.405 . S
C165 H191 0.931 . S
U166 O167 2.454 . S
U166 O168 2.458 . S
U166 C169 2.984 . S
U166 C170 2.847 . S
U166 C183 2.882 . S
U166 O184 2.441 . S
U166 O185 2.420 . S
U166 O186 2.455 . S
U166 O187 2.449 . S
O167 U166 2.454 . S
O167 C169 1.353 . S
O168 U166 2.458 . S
O168 C169 1.286 . S
C169 U166 2.984 . S
C169 O167 1.353 . S
C169 O168 1.286 . S
C169 C171 1.363 . S
C170 C160 1.465 . S
C170 U166 2.847 . S
C170 O184 1.249 . S
C170 O185 1.202 . S
C171 C169 1.363 . S
C171 C173 1.408 . S
C171 C176 1.342 . S
C172 C173 1.310 . S
C172 C175 1.461 . S
C172 H192 0.932 . S
C173 C171 1.408 . S
C173 C172 1.310 . S
C173 H193 0.930 . S
C174 C175 1.474 . S
C174 C176 1.285 . S
C174 H194 0.929 . S
C175 C172 1.461 . S
C175 C174 1.474 . S
C176 C171 1.342 . S
C176 C174 1.285 . S
C176 H195 0.930 . S
C177 C180 1.424 . S
C177 C182 1.245 . S
C177 C183 1.428 . S
C178 C181 1.260 . S
C178 C182 1.477 . S
C178 H196 0.932 . S
C179 C180 1.384 . S
C179 C181 1.479 . S
C179 H197 0.929 . S
C180 C177 1.424 . S
C180 C179 1.384 . S
C180 H198 0.928 . S
C181 C178 1.260 . S
C181 C179 1.479 . S
C182 C177 1.245 . S
C182 C178 1.477 . S
C182 H199 0.932 . S
C183 U166 2.882 . S
C183 C177 1.428 . S
C183 O186 1.301 . S
C183 O187 1.282 . S
O184 U166 2.441 . S
O184 C170 1.249 . S
O185 U166 2.420 . S
O185 C170 1.202 . S
O186 U166 2.455 . S
O186 C183 1.301 . S
O187 U166 2.449 . S
O187 C183 1.282 . S
H188 C161 0.931 . S
H189 C163 0.929 . S
H190 C164 0.930 . S
H191 C165 0.931 . S
H192 C172 0.932 . S
H193 C173 0.930 . S
H194 C174 0.929 . S
H195 C176 0.930 . S
H196 C178 0.932 . S
H197 C179 0.929 . S
H198 C180 0.928 . S
H199 C182 0.932 . S
C200 C201 1.264 1_556 S
C200 C205 1.479 . S
C200 C210 1.465 . S
C201 C200 1.264 1_554 S
C201 C203 1.339 . S
C201 H228 0.931 . S
C202 C203 1.395 1_556 S
C202 C204 1.320 . S
C203 C201 1.339 . S
C203 C202 1.395 1_554 S
C203 H229 0.929 . S
C204 C202 1.320 . S
C204 C205 1.405 . S
C204 H230 0.930 . S
C205 C200 1.479 . S
C205 C204 1.405 . S
C205 H231 0.931 . S
U206 O207 2.454 . S
U206 O208 2.458 . S
U206 C209 2.984 . S
U206 C210 2.847 . S
U206 C223 2.882 1_556 S
U206 O224 2.441 . S
U206 O225 2.420 . S
U206 O226 2.455 1_556 S
U206 O227 2.449 1_556 S
O207 U206 2.454 . S
O207 C209 1.353 . S
O208 U206 2.458 . S
O208 C209 1.286 . S
C209 U206 2.984 . S
C209 O207 1.353 . S
C209 O208 1.286 . S
C209 C211 1.363 . S
C210 C200 1.465 . S
C210 U206 2.847 . S
C210 O224 1.249 . S
C210 O225 1.202 . S
C211 C209 1.363 . S
C211 C213 1.408 . S
C211 C216 1.342 . S
C212 C213 1.310 . S
C212 C215 1.461 . S
C212 H232 0.932 . S
C213 C211 1.408 . S
C213 C212 1.310 . S
C213 H233 0.930 . S
C214 C215 1.474 . S
C214 C216 1.285 . S
C214 H234 0.929 . S
C215 C212 1.461 . S
C215 C214 1.474 . S
C216 C211 1.342 . S
C216 C214 1.285 . S
C216 H235 0.930 . S
C217 C220 1.424 . S
C217 C222 1.245 . S
C217 C223 1.428 . S
C218 C221 1.260 . S
C218 C222 1.477 . S
C218 H236 0.932 . S
C219 C220 1.384 . S
C219 C221 1.479 . S
C219 H237 0.929 . S
C220 C217 1.424 . S
C220 C219 1.384 . S
C220 H238 0.928 . S
C221 C218 1.260 . S
C221 C219 1.479 . S
C222 C217 1.245 . S
C222 C218 1.477 . S
C222 H239 0.932 . S
C223 U206 2.882 1_554 S
C223 C217 1.428 . S
C223 O226 1.301 . S
C223 O227 1.282 . S
O224 U206 2.441 . S
O224 C210 1.249 . S
O225 U206 2.420 . S
O225 C210 1.202 . S
O226 U206 2.455 1_554 S
O226 C223 1.301 . S
O227 U206 2.449 1_554 S
O227 C223 1.282 . S
H228 C201 0.931 . S
H229 C203 0.929 . S
H230 C204 0.930 . S
H231 C205 0.931 . S
H232 C212 0.932 . S
H233 C213 0.930 . S
H234 C214 0.929 . S
H235 C216 0.930 . S
H236 C218 0.932 . S
H237 C219 0.929 . S
H238 C220 0.928 . S
H239 C222 0.932 . S
C240 C241 1.264 . S
C240 C245 1.479 . S
C240 C250 1.465 . S
C241 C240 1.264 . S
C241 C243 1.339 . S
C241 H268 0.931 . S
C242 C243 1.395 . S
C242 C244 1.320 . S
C243 C241 1.339 . S
C243 C242 1.395 . S
C243 H269 0.929 . S
C244 C242 1.320 . S
C244 C245 1.405 . S
C244 H270 0.930 . S
C245 C240 1.479 . S
C245 C244 1.405 . S
C245 H271 0.931 . S
U246 O247 2.454 . S
U246 O248 2.458 . S
U246 C249 2.984 . S
U246 C250 2.847 . S
U246 C263 2.882 . S
U246 O264 2.441 . S
U246 O265 2.420 . S
U246 O266 2.455 . S
U246 O267 2.449 . S
O247 U246 2.454 . S
O247 C249 1.353 . S
O248 U246 2.458 . S
O248 C249 1.286 . S
C249 U246 2.984 . S
C249 O247 1.353 . S
C249 O248 1.286 . S
C249 C251 1.363 . S
C250 C240 1.465 . S
C250 U246 2.847 . S
C250 O264 1.249 . S
C250 O265 1.202 . S
C251 C249 1.363 . S
C251 C253 1.408 . S
C251 C256 1.342 . S
C252 C253 1.310 . S
C252 C255 1.461 . S
C252 H272 0.932 . S
C253 C251 1.408 . S
C253 C252 1.310 . S
C253 H273 0.930 . S
C254 C255 1.474 . S
C254 C256 1.285 . S
C254 H274 0.929 . S
C255 C252 1.461 . S
C255 C254 1.474 . S
C256 C251 1.342 . S
C256 C254 1.285 . S
C256 H275 0.930 . S
C257 C260 1.424 . S
C257 C262 1.245 . S
C257 C263 1.428 1_554 S
C258 C261 1.260 . S
C258 C262 1.477 . S
C258 H276 0.932 . S
C259 C260 1.384 . S
C259 C261 1.479 . S
C259 H277 0.929 . S
C260 C257 1.424 . S
C260 C259 1.384 . S
C260 H278 0.928 . S
C261 C258 1.260 . S
C261 C259 1.479 . S
C262 C257 1.245 . S
C262 C258 1.477 . S
C262 H279 0.932 . S
C263 U246 2.882 . S
C263 C257 1.428 1_556 S
C263 O266 1.301 . S
C263 O267 1.282 . S
O264 U246 2.441 . S
O264 C250 1.249 . S
O265 U246 2.420 . S
O265 C250 1.202 . S
O266 U246 2.455 . S
O266 C263 1.301 . S
O267 U246 2.449 . S
O267 C263 1.282 . S
H268 C241 0.931 . S
H269 C243 0.929 . S
H270 C244 0.930 . S
H271 C245 0.931 . S
H272 C252 0.932 . S
H273 C253 0.930 . S
H274 C254 0.929 . S
H275 C256 0.930 . S
H276 C258 0.932 . S
H277 C259 0.929 . S
H278 C260 0.928 . S
H279 C262 0.932 . S
C280 C281 1.264 . S
C280 C285 1.479 . S
C280 C290 1.465 . S
C281 C280 1.264 . S
C281 C283 1.339 . S
C281 H308 0.931 . S
C282 C283 1.395 . S
C282 C284 1.320 . S
C283 C281 1.339 . S
C283 C282 1.395 . S
C283 H309 0.929 . S
C284 C282 1.320 . S
C284 C285 1.405 . S
C284 H310 0.930 . S
C285 C280 1.479 . S
C285 C284 1.405 . S
C285 H311 0.931 . S
U286 O287 2.476 . S
U286 O288 2.509 . S
U286 C289 3.025 . S
U286 C290 2.799 1_455 S
U286 C303 2.893 . S
U286 O304 2.405 1_455 S
U286 O305 2.368 1_455 S
U286 O306 2.486 . S
U286 O307 2.436 1_455 S
O287 U286 2.476 . S
O287 C289 1.353 . S
O288 U286 2.509 . S
O288 C289 1.286 . S
C289 U286 3.025 . S
C289 O287 1.353 . S
C289 O288 1.286 . S
C289 C291 1.363 . S
C290 C280 1.465 . S
C290 U286 2.799 1_655 S
C290 O304 1.249 . S
C290 O305 1.202 . S
C291 C289 1.363 . S
C291 C293 1.408 . S
C291 C296 1.342 . S
C292 C293 1.310 . S
C292 C295 1.461 . S
C292 H312 0.932 . S
C293 C291 1.408 . S
C293 C292 1.310 . S
C293 H313 0.930 . S
C294 C295 1.474 . S
C294 C296 1.285 . S
C294 H314 0.929 . S
C295 C292 1.461 . S
C295 C294 1.474 . S
C296 C291 1.342 . S
C296 C294 1.285 . S
C296 H315 0.930 . S
C297 C300 1.424 1_455 S
C297 C302 1.245 . S
C297 C303 1.428 . S
C298 C301 1.260 . S
C298 C302 1.477 . S
C298 H316 0.932 . S
C299 C300 1.384 . S
C299 C301 1.479 1_655 S
C299 H317 0.929 . S
C300 C297 1.424 1_655 S
C300 C299 1.384 . S
C300 H318 0.928 . S
C301 C298 1.260 . S
C301 C299 1.479 1_455 S
C302 C297 1.245 . S
C302 C298 1.477 . S
C302 H319 0.932 . S
C303 U286 2.893 . S
C303 C297 1.428 . S
C303 O306 1.301 . S
C303 O307 1.282 1_455 S
O304 U286 2.405 1_655 S
O304 C290 1.249 . S
O305 U286 2.368 1_655 S
O305 C290 1.202 . S
O306 U286 2.486 . S
O306 C303 1.301 . S
O307 U286 2.436 1_655 S
O307 C303 1.282 1_655 S
H308 C281 0.931 . S
H309 C283 0.929 . S
H310 C284 0.930 . S
H311 C285 0.931 . S
H312 C292 0.932 . S
H313 C293 0.930 . S
H314 C294 0.929 . S
H315 C296 0.930 . S
H316 C298 0.932 . S
H317 C299 0.929 . S
H318 C300 0.928 . S
H319 C302 0.932 . S
C320 C321 1.264 . S
C320 C325 1.479 . S
C320 C330 1.465 . S
C321 C320 1.264 . S
C321 C323 1.339 . S
C321 H348 0.931 . S
C322 C323 1.395 . S
C322 C324 1.320 . S
C323 C321 1.339 . S
C323 C322 1.395 . S
C323 H349 0.929 . S
C324 C322 1.320 . S
C324 C325 1.405 . S
C324 H350 0.930 . S
C325 C320 1.479 . S
C325 C324 1.405 . S
C325 H351 0.931 . S
U326 O327 2.454 . S
U326 O328 2.458 . S
U326 C329 2.984 . S
U326 C330 2.847 . S
U326 C343 2.882 . S
U326 O344 2.441 . S
U326 O345 2.420 . S
U326 O346 2.455 . S
U326 O347 2.449 . S
O327 U326 2.454 . S
O327 C329 1.353 . S
O328 U326 2.458 . S
O328 C329 1.286 . S
C329 U326 2.984 . S
C329 O327 1.353 . S
C329 O328 1.286 . S
C329 C331 1.363 . S
C330 C320 1.465 . S
C330 U326 2.847 . S
C330 O344 1.249 . S
C330 O345 1.202 . S
C331 C329 1.363 . S
C331 C333 1.408 . S
C331 C336 1.342 . S
C332 C333 1.310 . S
C332 C335 1.461 . S
C332 H352 0.932 . S
C333 C331 1.408 . S
C333 C332 1.310 . S
C333 H353 0.930 . S
C334 C335 1.474 . S
C334 C336 1.285 . S
C334 H354 0.929 . S
C335 C332 1.461 . S
C335 C334 1.474 . S
C336 C331 1.342 . S
C336 C334 1.285 . S
C336 H355 0.930 . S
C337 C340 1.424 . S
C337 C342 1.245 . S
C337 C343 1.428 . S
C338 C341 1.260 . S
C338 C342 1.477 1_565 S
C338 H356 0.932 . S
C339 C340 1.384 1_565 S
C339 C341 1.479 . S
C339 H357 0.929 . S
C340 C337 1.424 . S
C340 C339 1.384 1_545 S
C340 H358 0.928 . S
C341 C338 1.260 . S
C341 C339 1.479 . S
C342 C337 1.245 . S
C342 C338 1.477 1_545 S
C342 H359 0.932 . S
C343 U326 2.882 . S
C343 C337 1.428 . S
C343 O346 1.301 . S
C343 O347 1.282 . S
O344 U326 2.441 . S
O344 C330 1.249 . S
O345 U326 2.420 . S
O345 C330 1.202 . S
O346 U326 2.455 . S
O346 C343 1.301 . S
O347 U326 2.449 . S
O347 C343 1.282 . S
H348 C321 0.931 . S
H349 C323 0.929 . S
H350 C324 0.930 . S
H351 C325 0.931 . S
H352 C332 0.932 . S
H353 C333 0.930 . S
H354 C334 0.929 . S
H355 C336 0.930 . S
H356 C338 0.932 . S
H357 C339 0.929 . S
H358 C340 0.928 . S
H359 C342 0.932 . S
C360 C361 1.264 . S
C360 C365 1.479 . S
C360 C370 1.465 . S
C361 C360 1.264 . S
C361 C363 1.339 . S
C361 H388 0.931 . S
C362 C363 1.395 . S
C362 C364 1.320 . S
C363 C361 1.339 . S
C363 C362 1.395 . S
C363 H389 0.929 . S
C364 C362 1.320 . S
C364 C365 1.405 . S
C364 H390 0.930 . S
C365 C360 1.479 . S
C365 C364 1.405 . S
C365 H391 0.931 . S
U366 O367 2.454 . S
U366 O368 2.458 . S
U366 C369 2.984 . S
U366 C370 2.847 . S
U366 C383 2.882 . S
U366 O384 2.441 . S
U366 O385 2.420 . S
U366 O386 2.455 . S
U366 O387 2.449 . S
O367 U366 2.454 . S
O367 C369 1.353 . S
O368 U366 2.458 . S
O368 C369 1.286 . S
C369 U366 2.984 . S
C369 O367 1.353 . S
C369 O368 1.286 . S
C369 C371 1.363 . S
C370 C360 1.465 . S
C370 U366 2.847 . S
C370 O384 1.249 . S
C370 O385 1.202 . S
C371 C369 1.363 . S
C371 C373 1.408 . S
C371 C376 1.342 . S
C372 C373 1.310 . S
C372 C375 1.461 . S
C372 H392 0.932 . S
C373 C371 1.408 . S
C373 C372 1.310 . S
C373 H393 0.930 . S
C374 C375 1.474 . S
C374 C376 1.285 . S
C374 H394 0.929 . S
C375 C372 1.461 . S
C375 C374 1.474 . S
C376 C371 1.342 . S
C376 C374 1.285 . S
C376 H395 0.930 . S
C377 C380 1.424 . S
C377 C382 1.245 . S
C377 C383 1.428 . S
C378 C381 1.260 . S
C378 C382 1.477 . S
C378 H396 0.932 . S
C379 C380 1.384 . S
C379 C381 1.479 . S
C379 H397 0.929 . S
C380 C377 1.424 . S
C380 C379 1.384 . S
C380 H398 0.928 . S
C381 C378 1.260 . S
C381 C379 1.479 . S
C382 C377 1.245 . S
C382 C378 1.477 . S
C382 H399 0.932 . S
C383 U366 2.882 . S
C383 C377 1.428 . S
C383 O386 1.301 . S
C383 O387 1.282 . S
O384 U366 2.441 . S
O384 C370 1.249 . S
O385 U366 2.420 . S
O385 C370 1.202 . S
O386 U366 2.455 . S
O386 C383 1.301 . S
O387 U366 2.449 . S
O387 C383 1.282 . S
H388 C361 0.931 . S
H389 C363 0.929 . S
H390 C364 0.930 . S
H391 C365 0.931 . S
H392 C372 0.932 . S
H393 C373 0.930 . S
H394 C374 0.929 . S
H395 C376 0.930 . S
H396 C378 0.932 . S
H397 C379 0.929 . S
H398 C380 0.928 . S
H399 C382 0.932 . S
C400 C401 1.264 . S
C400 C405 1.479 . S
C400 C410 1.465 . S
C401 C400 1.264 . S
C401 C403 1.339 . S
C401 H428 0.931 . S
C402 C403 1.395 . S
C402 C404 1.320 . S
C403 C401 1.339 . S
C403 C402 1.395 . S
C403 H429 0.929 . S
C404 C402 1.320 . S
C404 C405 1.405 . S
C404 H430 0.930 . S
C405 C400 1.479 . S
C405 C404 1.405 . S
C405 H431 0.931 . S
U406 O407 2.454 . S
U406 O408 2.458 . S
U406 C409 2.984 . S
U406 C410 2.847 . S
U406 C423 2.882 . S
U406 O424 2.441 . S
U406 O425 2.420 . S
U406 O426 2.455 . S
U406 O427 2.449 . S
O407 U406 2.454 . S
O407 C409 1.353 . S
O408 U406 2.458 . S
O408 C409 1.286 . S
C409 U406 2.984 . S
C409 O407 1.353 . S
C409 O408 1.286 . S
C409 C411 1.363 . S
C410 C400 1.465 . S
C410 U406 2.847 . S
C410 O424 1.249 . S
C410 O425 1.202 . S
C411 C409 1.363 . S
C411 C413 1.408 . S
C411 C416 1.342 . S
C412 C413 1.310 . S
C412 C415 1.461 . S
C412 H432 0.932 . S
C413 C411 1.408 . S
C413 C412 1.310 . S
C413 H433 0.930 . S
C414 C415 1.474 . S
C414 C416 1.285 . S
C414 H434 0.929 . S
C415 C412 1.461 . S
C415 C414 1.474 . S
C416 C411 1.342 . S
C416 C414 1.285 . S
C416 H435 0.930 . S
C417 C420 1.424 . S
C417 C422 1.245 . S
C417 C423 1.428 . S
C418 C421 1.260 . S
C418 C422 1.477 . S
C418 H436 0.932 . S
C419 C420 1.384 . S
C419 C421 1.479 . S
C419 H437 0.929 . S
C420 C417 1.424 . S
C420 C419 1.384 . S
C420 H438 0.928 . S
C421 C418 1.260 . S
C421 C419 1.479 . S
C422 C417 1.245 . S
C422 C418 1.477 . S
C422 H439 0.932 . S
C423 U406 2.882 . S
C423 C417 1.428 . S
C423 O426 1.301 . S
C423 O427 1.282 . S
O424 U406 2.441 . S
O424 C410 1.249 . S
O425 U406 2.420 . S
O425 C410 1.202 . S
O426 U406 2.455 . S
O426 C423 1.301 . S
O427 U406 2.449 . S
O427 C423 1.282 . S
H428 C401 0.931 . S
H429 C403 0.929 . S
H430 C404 0.930 . S
H431 C405 0.931 . S
H432 C412 0.932 . S
H433 C413 0.930 . S
H434 C414 0.929 . S
H435 C416 0.930 . S
H436 C418 0.932 . S
H437 C419 0.929 . S
H438 C420 0.928 . S
H439 C422 0.932 . S
C440 C441 1.264 . S
C440 C445 1.479 . S
C440 C450 1.465 . S
C441 C440 1.264 . S
C441 C443 1.339 . S
C441 H468 0.931 . S
C442 C443 1.395 . S
C442 C444 1.320 . S
C443 C441 1.339 . S
C443 C442 1.395 . S
C443 H469 0.929 . S
C444 C442 1.320 . S
C444 C445 1.405 . S
C444 H470 0.930 . S
C445 C440 1.479 . S
C445 C444 1.405 . S
C445 H471 0.931 . S
U446 O447 2.454 . S
U446 O448 2.458 . S
U446 C449 2.984 . S
U446 C450 2.847 1_554 S
U446 C463 2.882 . S
U446 O464 2.441 1_554 S
U446 O465 2.420 1_554 S
U446 O466 2.455 . S
U446 O467 2.449 1_554 S
O447 U446 2.454 . S
O447 C449 1.353 . S
O448 U446 2.458 . S
O448 C449 1.286 . S
C449 U446 2.984 . S
C449 O447 1.353 . S
C449 O448 1.286 . S
C449 C451 1.363 . S
C450 C440 1.465 . S
C450 U446 2.847 1_556 S
C450 O464 1.249 . S
C450 O465 1.202 . S
C451 C449 1.363 . S
C451 C453 1.408 . S
C451 C456 1.342 . S
C452 C453 1.310 . S
C452 C455 1.461 . S
C452 H472 0.932 . S
C453 C451 1.408 . S
C453 C452 1.310 . S
C453 H473 0.930 . S
C454 C455 1.474 . S
C454 C456 1.285 . S
C454 H474 0.929 . S
C455 C452 1.461 . S
C455 C454 1.474 . S
C456 C451 1.342 . S
C456 C454 1.285 . S
C456 H475 0.930 . S
C457 C460 1.424 1_554 S
C457 C462 1.245 . S
C457 C463 1.428 . S
C458 C461 1.260 . S
C458 C462 1.477 . S
C458 H476 0.932 . S
C459 C460 1.384 . S
C459 C461 1.479 1_556 S
C459 H477 0.929 . S
C460 C457 1.424 1_556 S
C460 C459 1.384 . S
C460 H478 0.928 . S
C461 C458 1.260 . S
C461 C459 1.479 1_554 S
C462 C457 1.245 . S
C462 C458 1.477 . S
C462 H479 0.932 . S
C463 U446 2.882 . S
C463 C457 1.428 . S
C463 O466 1.301 . S
C463 O467 1.282 1_554 S
O464 U446 2.441 1_556 S
O464 C450 1.249 . S
O465 U446 2.420 1_556 S
O465 C450 1.202 . S
O466 U446 2.455 . S
O466 C463 1.301 . S
O467 U446 2.449 1_556 S
O467 C463 1.282 1_556 S
H468 C441 0.931 . S
H469 C443 0.929 . S
H470 C444 0.930 . S
H471 C445 0.931 . S
H472 C452 0.932 . S
H473 C453 0.930 . S
H474 C454 0.929 . S
H475 C456 0.930 . S
H476 C458 0.932 . S
H477 C459 0.929 . S
H478 C460 0.928 . S
H479 C462 0.932 . S
C480 C481 1.264 . S
C480 C485 1.479 . S
C480 C490 1.465 . S
C481 C480 1.264 . S
C481 C483 1.339 . S
C481 H508 0.931 . S
C482 C483 1.395 . S
C482 C484 1.320 . S
C483 C481 1.339 . S
C483 C482 1.395 . S
C483 H509 0.929 . S
C484 C482 1.320 . S
C484 C485 1.405 . S
C484 H510 0.930 . S
C485 C480 1.479 . S
C485 C484 1.405 . S
C485 H511 0.931 . S
U486 O487 2.454 . S
U486 O488 2.458 . S
U486 C489 2.984 . S
U486 C490 2.847 . S
U486 C503 2.882 . S
U486 O504 2.441 . S
U486 O505 2.420 . S
U486 O506 2.455 . S
U486 O507 2.449 . S
O487 U486 2.454 . S
O487 C489 1.353 . S
O488 U486 2.458 . S
O488 C489 1.286 . S
C489 U486 2.984 . S
C489 O487 1.353 . S
C489 O488 1.286 . S
C489 C491 1.363 . S
C490 C480 1.465 . S
C490 U486 2.847 . S
C490 O504 1.249 . S
C490 O505 1.202 . S
C491 C489 1.363 . S
C491 C493 1.408 . S
C491 C496 1.342 . S
C492 C493 1.310 . S
C492 C495 1.461 . S
C492 H512 0.932 . S
C493 C491 1.408 . S
C493 C492 1.310 . S
C493 H513 0.930 . S
C494 C495 1.474 . S
C494 C496 1.285 . S
C494 H514 0.929 . S
C495 C492 1.461 . S
C495 C494 1.474 . S
C496 C491 1.342 . S
C496 C494 1.285 . S
C496 H515 0.930 . S
C497 C500 1.424 1_554 S
C497 C502 1.245 . S
C497 C503 1.428 . S
C498 C501 1.260 . S
C498 C502 1.477 1_556 S
C498 H516 0.932 . S
C499 C500 1.384 . S
C499 C501 1.479 . S
C499 H517 0.929 . S
C500 C497 1.424 1_556 S
C500 C499 1.384 . S
C500 H518 0.928 . S
C501 C498 1.260 . S
C501 C499 1.479 . S
C502 C497 1.245 . S
C502 C498 1.477 1_554 S
C502 H519 0.932 . S
C503 U486 2.882 . S
C503 C497 1.428 . S
C503 O506 1.301 . S
C503 O507 1.282 . S
O504 U486 2.441 . S
O504 C490 1.249 . S
O505 U486 2.420 . S
O505 C490 1.202 . S
O506 U486 2.455 . S
O506 C503 1.301 . S
O507 U486 2.449 . S
O507 C503 1.282 . S
H508 C481 0.931 . S
H509 C483 0.929 . S
H510 C484 0.930 . S
H511 C485 0.931 . S
H512 C492 0.932 . S
H513 C493 0.930 . S
H514 C494 0.929 . S
H515 C496 0.930 . S
H516 C498 0.932 . S
H517 C499 0.929 . S
H518 C500 0.928 . S
H519 C502 0.932 . S
C520 C521 1.264 . S
C520 C525 1.479 . S
C520 C530 1.465 . S
C521 C520 1.264 . S
C521 C523 1.339 . S
C521 H548 0.931 . S
C522 C523 1.395 . S
C522 C524 1.320 . S
C523 C521 1.339 . S
C523 C522 1.395 . S
C523 H549 0.929 . S
C524 C522 1.320 . S
C524 C525 1.405 . S
C524 H550 0.930 . S
C525 C520 1.479 . S
C525 C524 1.405 . S
C525 H551 0.931 . S
U526 O527 2.454 . S
U526 O528 2.458 . S
U526 C529 2.984 . S
U526 C530 2.847 . S
U526 C543 2.882 . S
U526 O544 2.441 . S
U526 O545 2.420 . S
U526 O546 2.455 . S
U526 O547 2.449 . S
O527 U526 2.454 . S
O527 C529 1.353 . S
O528 U526 2.458 . S
O528 C529 1.286 . S
C529 U526 2.984 . S
C529 O527 1.353 . S
C529 O528 1.286 . S
C529 C531 1.363 . S
C530 C520 1.465 . S
C530 U526 2.847 . S
C530 O544 1.249 . S
C530 O545 1.202 . S
C531 C529 1.363 . S
C531 C533 1.408 . S
C531 C536 1.342 . S
C532 C533 1.310 . S
C532 C535 1.461 . S
C532 H552 0.932 . S
C533 C531 1.408 . S
C533 C532 1.310 . S
C533 H553 0.930 . S
C534 C535 1.474 . S
C534 C536 1.285 . S
C534 H554 0.929 . S
C535 C532 1.461 . S
C535 C534 1.474 . S
C536 C531 1.342 . S
C536 C534 1.285 . S
C536 H555 0.930 . S
C537 C540 1.424 . S
C537 C542 1.245 . S
C537 C543 1.428 . S
C538 C541 1.260 . S
C538 C542 1.477 . S
C538 H556 0.932 . S
C539 C540 1.384 . S
C539 C541 1.479 . S
C539 H557 0.929 . S
C540 C537 1.424 . S
C540 C539 1.384 . S
C540 H558 0.928 . S
C541 C538 1.260 . S
C541 C539 1.479 . S
C542 C537 1.245 . S
C542 C538 1.477 . S
C542 H559 0.932 . S
C543 U526 2.882 . S
C543 C537 1.428 . S
C543 O546 1.301 . S
C543 O547 1.282 . S
O544 U526 2.441 . S
O544 C530 1.249 . S
O545 U526 2.420 . S
O545 C530 1.202 . S
O546 U526 2.455 . S
O546 C543 1.301 . S
O547 U526 2.449 . S
O547 C543 1.282 . S
H548 C521 0.931 . S
H549 C523 0.929 . S
H550 C524 0.930 . S
H551 C525 0.931 . S
H552 C532 0.932 . S
H553 C533 0.930 . S
H554 C534 0.929 . S
H555 C536 0.930 . S
H556 C538 0.932 . S
H557 C539 0.929 . S
H558 C540 0.928 . S
H559 C542 0.932 . S
C560 C561 1.264 . S
C560 C565 1.479 . S
C560 C570 1.465 . S
C561 C560 1.264 . S
C561 C563 1.339 . S
C561 H588 0.931 . S
C562 C563 1.395 . S
C562 C564 1.320 . S
C563 C561 1.339 . S
C563 C562 1.395 . S
C563 H589 0.929 . S
C564 C562 1.320 . S
C564 C565 1.405 . S
C564 H590 0.930 . S
C565 C560 1.479 . S
C565 C564 1.405 . S
C565 H591 0.931 . S
U566 O567 2.454 . S
U566 O568 2.458 . S
U566 C569 2.984 . S
U566 C570 2.847 . S
U566 C583 2.882 . S
U566 O584 2.441 . S
U566 O585 2.420 . S
U566 O586 2.455 . S
U566 O587 2.449 . S
O567 U566 2.454 . S
O567 C569 1.353 . S
O568 U566 2.458 . S
O568 C569 1.286 . S
C569 U566 2.984 . S
C569 O567 1.353 . S
C569 O568 1.286 . S
C569 C571 1.363 . S
C570 C560 1.465 . S
C570 U566 2.847 . S
C570 O584 1.249 . S
C570 O585 1.202 . S
C571 C569 1.363 . S
C571 C573 1.408 . S
C571 C576 1.342 . S
C572 C573 1.310 . S
C572 C575 1.461 . S
C572 H592 0.932 . S
C573 C571 1.408 . S
C573 C572 1.310 . S
C573 H593 0.930 . S
C574 C575 1.474 . S
C574 C576 1.285 . S
C574 H594 0.929 . S
C575 C572 1.461 . S
C575 C574 1.474 . S
C576 C571 1.342 . S
C576 C574 1.285 . S
C576 H595 0.930 . S
C577 C580 1.424 . S
C577 C582 1.245 . S
C577 C583 1.428 . S
C578 C581 1.260 . S
C578 C582 1.477 . S
C578 H596 0.932 . S
C579 C580 1.384 . S
C579 C581 1.479 . S
C579 H597 0.929 . S
C580 C577 1.424 . S
C580 C579 1.384 . S
C580 H598 0.928 . S
C581 C578 1.260 . S
C581 C579 1.479 . S
C582 C577 1.245 . S
C582 C578 1.477 . S
C582 H599 0.932 . S
C583 U566 2.882 . S
C583 C577 1.428 . S
C583 O586 1.301 . S
C583 O587 1.282 . S
O584 U566 2.441 . S
O584 C570 1.249 . S
O585 U566 2.420 . S
O585 C570 1.202 . S
O586 U566 2.455 . S
O586 C583 1.301 . S
O587 U566 2.449 . S
O587 C583 1.282 . S
H588 C561 0.931 . S
H589 C563 0.929 . S
H590 C564 0.930 . S
H591 C565 0.931 . S
H592 C572 0.932 . S
H593 C573 0.930 . S
H594 C574 0.929 . S
H595 C576 0.930 . S
H596 C578 0.932 . S
H597 C579 0.929 . S
H598 C580 0.928 . S
H599 C582 0.932 . S
C600 C601 1.264 . S
C600 C605 1.479 . S
C600 C610 1.465 . S
C601 C600 1.264 . S
C601 C603 1.339 . S
C601 H628 0.931 . S
C602 C603 1.395 . S
C602 C604 1.320 . S
C603 C601 1.339 . S
C603 C602 1.395 . S
C603 H629 0.929 . S
C604 C602 1.320 . S
C604 C605 1.405 . S
C604 H630 0.930 . S
C605 C600 1.479 . S
C605 C604 1.405 . S
C605 H631 0.931 . S
U606 O607 2.454 . S
U606 O608 2.458 . S
U606 C609 2.984 . S
U606 C610 2.847 . S
U606 C623 2.882 1_565 S
U606 O624 2.441 . S
U606 O625 2.420 . S
U606 O626 2.456 1_565 S
U606 O627 2.449 . S
O607 U606 2.454 . S
O607 C609 1.353 . S
O608 U606 2.458 . S
O608 C609 1.286 . S
C609 U606 2.984 . S
C609 O607 1.353 . S
C609 O608 1.286 . S
C609 C611 1.363 . S
C610 C600 1.465 . S
C610 U606 2.847 . S
C610 O624 1.249 . S
C610 O625 1.202 . S
C611 C609 1.363 . S
C611 C613 1.408 . S
C611 C616 1.342 . S
C612 C613 1.310 . S
C612 C615 1.461 . S
C612 H632 0.932 . S
C613 C611 1.408 . S
C613 C612 1.310 . S
C613 H633 0.930 . S
C614 C615 1.474 . S
C614 C616 1.285 . S
C614 H634 0.929 . S
C615 C612 1.461 . S
C615 C614 1.474 . S
C616 C611 1.342 . S
C616 C614 1.285 . S
C616 H635 0.936 . S
C617 C620 1.424 . S
C617 C622 1.245 . S
C617 C623 1.428 . S
C618 C621 1.260 . S
C618 C622 1.477 . S
C618 H636 0.932 . S
C619 C620 1.384 . S
C619 C621 1.479 . S
C619 H637 0.929 . S
C620 C617 1.424 . S
C620 C619 1.384 . S
C620 H638 0.928 . S
C621 C618 1.260 . S
C621 C619 1.479 . S
C622 C617 1.245 . S
C622 C618 1.477 . S
C622 H639 0.932 . S
C623 U606 2.882 1_545 S
C623 C617 1.428 . S
C623 O626 1.304 . S
C623 O627 1.282 1_545 S
O624 U606 2.441 . S
O624 C610 1.249 . S
O625 U606 2.420 . S
O625 C610 1.202 . S
O626 U606 2.456 1_545 S
O626 C623 1.304 . S
O627 U606 2.449 . S
O627 C623 1.282 1_565 S
H628 C601 0.931 . S
H629 C603 0.929 . S
H630 C604 0.930 . S
H631 C605 0.931 . S
H632 C612 0.932 . S
H633 C613 0.930 . S
H634 C614 0.929 . S
H635 C616 0.936 . S
H636 C618 0.932 . S
H637 C619 0.929 . S
H638 C620 0.928 . S
H639 C622 0.932 . S
C640 C641 1.264 . S
C640 C645 1.479 . S
C640 C650 1.465 . S
C641 C640 1.264 . S
C641 C643 1.339 . S
C641 H668 0.931 . S
C642 C643 1.395 . S
C642 C644 1.320 . S
C643 C641 1.339 . S
C643 C642 1.395 . S
C643 H669 0.929 . S
C644 C642 1.320 . S
C644 C645 1.405 . S
C644 H670 0.930 . S
C645 C640 1.479 . S
C645 C644 1.405 . S
C645 H671 0.931 . S
U646 O647 2.454 . S
U646 O648 2.458 . S
U646 C649 2.984 . S
U646 C650 2.847 1_545 S
U646 C663 2.882 . S
U646 O664 2.441 1_545 S
U646 O665 2.420 1_545 S
U646 O666 2.455 . S
U646 O667 2.449 1_545 S
O647 U646 2.454 . S
O647 C649 1.353 . S
O648 U646 2.458 . S
O648 C649 1.286 . S
C649 U646 2.984 . S
C649 O647 1.353 . S
C649 O648 1.286 . S
C649 C651 1.363 . S
C650 C640 1.465 . S
C650 U646 2.847 1_565 S
C650 O664 1.249 . S
C650 O665 1.202 . S
C651 C649 1.363 . S
C651 C653 1.408 . S
C651 C656 1.342 . S
C652 C653 1.310 . S
C652 C655 1.461 . S
C652 H672 0.932 . S
C653 C651 1.408 . S
C653 C652 1.310 . S
C653 H673 0.930 . S
C654 C655 1.474 . S
C654 C656 1.285 . S
C654 H674 0.929 . S
C655 C652 1.461 . S
C655 C654 1.474 . S
C656 C651 1.342 . S
C656 C654 1.285 . S
C656 H675 0.930 . S
C657 C660 1.424 1_545 S
C657 C662 1.245 . S
C657 C663 1.428 . S
C658 C661 1.260 . S
C658 C662 1.477 . S
C658 H676 0.932 . S
C659 C660 1.384 . S
C659 C661 1.479 1_565 S
C659 H677 0.929 . S
C660 C657 1.424 1_565 S
C660 C659 1.384 . S
C660 H678 0.928 . S
C661 C658 1.260 . S
C661 C659 1.479 1_545 S
C662 C657 1.245 . S
C662 C658 1.477 . S
C662 H679 0.932 . S
C663 U646 2.882 . S
C663 C657 1.428 . S
C663 O666 1.301 . S
C663 O667 1.282 1_545 S
O664 U646 2.441 1_565 S
O664 C650 1.249 . S
O665 U646 2.420 1_565 S
O665 C650 1.202 . S
O666 U646 2.455 . S
O666 C663 1.301 . S
O667 U646 2.449 1_565 S
O667 C663 1.282 1_565 S
H668 C641 0.931 . S
H669 C643 0.929 . S
H670 C644 0.930 . S
H671 C645 0.931 . S
H672 C652 0.932 . S
H673 C653 0.930 . S
H674 C654 0.929 . S
H675 C656 0.930 . S
H676 C658 0.932 . S
H677 C659 0.929 . S
H678 C660 0.928 . S
H679 C662 0.932 . S
C680 C681 1.264 . S
C680 C685 1.479 . S
C680 C690 1.465 . S
C681 C680 1.264 . S
C681 C683 1.339 . S
C681 H708 0.931 . S
C682 C683 1.395 . S
C682 C684 1.320 . S
C683 C681 1.339 . S
C683 C682 1.395 . S
C683 H709 0.929 . S
C684 C682 1.320 . S
C684 C685 1.405 . S
C684 H710 0.930 . S
C685 C680 1.479 . S
C685 C684 1.405 . S
C685 H711 0.931 . S
U686 O687 2.454 . S
U686 O688 2.458 . S
U686 C689 2.984 . S
U686 C690 2.847 . S
U686 C703 2.882 1_565 S
U686 O704 2.441 . S
U686 O705 2.420 . S
U686 O706 2.455 1_565 S
U686 O707 2.449 1_565 S
O687 U686 2.454 . S
O687 C689 1.353 . S
O688 U686 2.458 . S
O688 C689 1.286 . S
C689 U686 2.984 . S
C689 O687 1.353 . S
C689 O688 1.286 . S
C689 C691 1.363 . S
C690 C680 1.465 . S
C690 U686 2.847 . S
C690 O704 1.249 . S
C690 O705 1.202 . S
C691 C689 1.363 . S
C691 C693 1.408 . S
C691 C696 1.342 . S
C692 C693 1.310 . S
C692 C695 1.461 . S
C692 H712 0.932 . S
C693 C691 1.408 . S
C693 C692 1.310 . S
C693 H713 0.930 . S
C694 C695 1.474 . S
C694 C696 1.285 . S
C694 H714 0.929 . S
C695 C692 1.461 . S
C695 C694 1.474 . S
C696 C691 1.342 . S
C696 C694 1.285 . S
C696 H715 0.930 . S
C697 C700 1.424 . S
C697 C702 1.245 . S
C697 C703 1.428 . S
C698 C701 1.260 . S
C698 C702 1.477 . S
C698 H716 0.932 . S
C699 C700 1.384 . S
C699 C701 1.479 . S
C699 H717 0.929 . S
C700 C697 1.424 . S
C700 C699 1.384 . S
C700 H718 0.928 . S
C701 C698 1.260 . S
C701 C699 1.479 . S
C702 C697 1.245 . S
C702 C698 1.477 . S
C702 H719 0.932 . S
C703 U686 2.882 1_545 S
C703 C697 1.428 . S
C703 O706 1.301 . S
C703 O707 1.282 . S
O704 U686 2.441 . S
O704 C690 1.249 . S
O705 U686 2.420 . S
O705 C690 1.202 . S
O706 U686 2.455 1_545 S
O706 C703 1.301 . S
O707 U686 2.449 1_545 S
O707 C703 1.282 . S
H708 C681 0.931 . S
H709 C683 0.929 . S
H710 C684 0.930 . S
H711 C685 0.931 . S
H712 C692 0.932 . S
H713 C693 0.930 . S
H714 C694 0.929 . S
H715 C696 0.930 . S
H716 C698 0.932 . S
H717 C699 0.929 . S
H718 C700 0.928 . S
H719 C702 0.932 . S
C720 C721 1.258 1_655 S
C720 C725 1.479 . S
C720 C730 1.465 . S
C721 C720 1.258 1_455 S
C721 C723 1.330 . S
C721 H748 0.949 . S
C722 C723 1.395 1_655 S
C722 C724 1.320 . S
C723 C721 1.330 . S
C723 C722 1.395 1_455 S
C723 H749 0.929 . S
C724 C722 1.320 . S
C724 C725 1.405 . S
C724 H750 0.930 . S
C725 C720 1.479 . S
C725 C724 1.405 . S
C725 H751 0.931 . S
U726 O727 2.454 . S
U726 O728 2.458 . S
U726 C729 2.984 . S
U726 C730 2.847 . S
U726 C743 2.882 1_655 S
U726 O744 2.441 . S
U726 O745 2.420 . S
U726 O746 2.455 1_655 S
U726 O747 2.449 1_655 S
O727 U726 2.454 . S
O727 C729 1.353 . S
O728 U726 2.458 . S
O728 C729 1.286 . S
C729 U726 2.984 . S
C729 O727 1.353 . S
C729 O728 1.286 . S
C729 C731 1.363 . S
C730 C720 1.465 . S
C730 U726 2.847 . S
C730 O744 1.249 . S
C730 O745 1.202 . S
C731 C729 1.363 . S
C731 C733 1.408 . S
C731 C736 1.342 . S
C732 C733 1.310 . S
C732 C735 1.461 . S
C732 H752 0.932 . S
C733 C731 1.408 . S
C733 C732 1.310 . S
C733 H753 0.930 . S
C734 C735 1.474 . S
C734 C736 1.285 . S
C734 H754 0.929 . S
C735 C732 1.461 . S
C735 C734 1.474 . S
C736 C731 1.342 . S
C736 C734 1.285 . S
C736 H755 0.930 . S
C737 C740 1.424 . S
C737 C742 1.245 . S
C737 C743 1.428 . S
C738 C741 1.260 . S
C738 C742 1.477 . S
C738 H756 0.932 . S
C739 C740 1.384 . S
C739 C741 1.479 . S
C739 H757 0.929 . S
C740 C737 1.424 . S
C740 C739 1.384 . S
C740 H758 0.928 . S
C741 C738 1.260 . S
C741 C739 1.479 . S
C742 C737 1.245 . S
C742 C738 1.477 . S
C742 H759 0.932 . S
C743 U726 2.882 1_455 S
C743 C737 1.428 . S
C743 O746 1.301 . S
C743 O747 1.282 . S
O744 U726 2.441 . S
O744 C730 1.249 . S
O745 U726 2.420 . S
O745 C730 1.202 . S
O746 U726 2.455 1_455 S
O746 C743 1.301 . S
O747 U726 2.449 1_455 S
O747 C743 1.282 . S
H748 C721 0.949 . S
H749 C723 0.929 . S
H750 C724 0.930 . S
H751 C725 0.931 . S
H752 C732 0.932 . S
H753 C733 0.930 . S
H754 C734 0.929 . S
H755 C736 0.930 . S
H756 C738 0.932 . S
H757 C739 0.929 . S
H758 C740 0.928 . S
H759 C742 0.932 . S
C760 C761 1.264 . S
C760 C765 1.479 . S
C760 C770 1.465 . S
C761 C760 1.264 . S
C761 C763 1.339 . S
C761 H788 0.931 . S
C762 C763 1.395 . S
C762 C764 1.320 . S
C763 C761 1.339 . S
C763 C762 1.395 . S
C763 H789 0.929 . S
C764 C762 1.320 . S
C764 C765 1.405 . S
C764 H790 0.930 . S
C765 C760 1.479 . S
C765 C764 1.405 . S
C765 H791 0.931 . S
U766 O767 2.454 . S
U766 O768 2.458 . S
U766 C769 2.984 . S
U766 C770 2.847 . S
U766 C783 2.882 1_655 S
U766 O784 2.441 . S
U766 O785 2.420 . S
U766 O786 2.458 1_655 S
U766 O787 2.449 . S
O767 U766 2.454 . S
O767 C769 1.353 . S
O768 U766 2.458 . S
O768 C769 1.286 . S
C769 U766 2.984 . S
C769 O767 1.353 . S
C769 O768 1.286 . S
C769 C771 1.363 . S
C770 C760 1.465 . S
C770 U766 2.847 . S
C770 O784 1.249 . S
C770 O785 1.202 . S
C771 C769 1.363 . S
C771 C773 1.408 . S
C771 C776 1.342 . S
C772 C773 1.310 . S
C772 C775 1.461 . S
C772 H792 0.932 . S
C773 C771 1.408 . S
C773 C772 1.310 . S
C773 H793 0.930 . S
C774 C775 1.474 . S
C774 C776 1.285 . S
C774 H794 0.929 . S
C775 C772 1.461 . S
C775 C774 1.474 . S
C776 C771 1.342 . S
C776 C774 1.285 . S
C776 H795 0.930 . S
C777 C780 1.424 . S
C777 C782 1.245 . S
C777 C783 1.428 . S
C778 C781 1.260 . S
C778 C782 1.477 . S
C778 H796 0.932 . S
C779 C780 1.384 . S
C779 C781 1.479 . S
C779 H797 0.929 . S
C780 C777 1.424 . S
C780 C779 1.384 . S
C780 H798 0.928 . S
C781 C778 1.260 . S
C781 C779 1.479 . S
C782 C777 1.245 . S
C782 C778 1.477 . S
C782 H799 0.932 . S
C783 U766 2.882 1_455 S
C783 C777 1.428 . S
C783 O786 1.311 . S
C783 O787 1.282 1_455 S
O784 U766 2.441 . S
O784 C770 1.249 . S
O785 U766 2.420 . S
O785 C770 1.202 . S
O786 U766 2.458 1_455 S
O786 C783 1.311 . S
O787 U766 2.449 . S
O787 C783 1.282 1_655 S
H788 C761 0.931 . S
H789 C763 0.929 . S
H790 C764 0.930 . S
H791 C765 0.931 . S
H792 C772 0.932 . S
H793 C773 0.930 . S
H794 C774 0.929 . S
H795 C776 0.930 . S
H796 C778 0.932 . S
H797 C779 0.929 . S
H798 C780 0.928 . S
H799 C782 0.932 . S
C800 C801 1.264 . S
C800 C805 1.479 . S
C800 C810 1.465 . S
C801 C800 1.264 . S
C801 C803 1.339 . S
C801 H828 0.931 . S
C802 C803 1.395 . S
C802 C804 1.320 . S
C803 C801 1.339 . S
C803 C802 1.395 . S
C803 H829 0.929 . S
C804 C802 1.320 . S
C804 C805 1.405 . S
C804 H830 0.930 . S
C805 C800 1.479 . S
C805 C804 1.405 . S
C805 H831 0.931 . S
U806 O807 2.454 . S
U806 O808 2.458 . S
U806 C809 2.984 1_554 S
U806 C810 2.847 . S
U806 C823 2.882 . S
U806 O824 2.441 . S
U806 O825 2.420 . S
U806 O826 2.455 . S
U806 O827 2.449 . S
O807 U806 2.454 . S
O807 C809 1.353 1_554 S
O808 U806 2.458 . S
O808 C809 1.286 1_554 S
C809 U806 2.984 1_556 S
C809 O807 1.353 1_556 S
C809 O808 1.286 1_556 S
C809 C811 1.363 . S
C810 C800 1.465 . S
C810 U806 2.847 . S
C810 O824 1.249 . S
C810 O825 1.202 . S
C811 C809 1.363 . S
C811 C813 1.408 . S
C811 C816 1.342 . S
C812 C813 1.310 . S
C812 C815 1.461 . S
C812 H832 0.932 . S
C813 C811 1.408 . S
C813 C812 1.310 . S
C813 H833 0.930 . S
C814 C815 1.474 . S
C814 C816 1.285 . S
C814 H834 0.929 . S
C815 C812 1.461 . S
C815 C814 1.474 . S
C816 C811 1.342 . S
C816 C814 1.285 . S
C816 H835 0.930 . S
C817 C820 1.424 . S
C817 C822 1.245 . S
C817 C823 1.428 . S
C818 C821 1.260 . S
C818 C822 1.477 . S
C818 H836 0.932 . S
C819 C820 1.384 . S
C819 C821 1.479 . S
C819 H837 0.929 . S
C820 C817 1.424 . S
C820 C819 1.384 . S
C820 H838 0.928 . S
C821 C818 1.260 . S
C821 C819 1.479 . S
C822 C817 1.245 . S
C822 C818 1.477 . S
C822 H839 0.932 . S
C823 U806 2.882 . S
C823 C817 1.428 . S
C823 O826 1.301 . S
C823 O827 1.282 . S
O824 U806 2.441 . S
O824 C810 1.249 . S
O825 U806 2.420 . S
O825 C810 1.202 . S
O826 U806 2.455 . S
O826 C823 1.301 . S
O827 U806 2.449 . S
O827 C823 1.282 . S
H828 C801 0.931 . S
H829 C803 0.929 . S
H830 C804 0.930 . S
H831 C805 0.931 . S
H832 C812 0.932 . S
H833 C813 0.930 . S
H834 C814 0.929 . S
H835 C816 0.930 . S
H836 C818 0.932 . S
H837 C819 0.929 . S
H838 C820 0.928 . S
H839 C822 0.932 . S
C840 C841 1.264 . S
C840 C845 1.479 . S
C840 C850 1.465 . S
C841 C840 1.264 . S
C841 C843 1.339 . S
C841 H868 0.931 . S
C842 C843 1.395 . S
C842 C844 1.320 . S
C843 C841 1.339 . S
C843 C842 1.395 . S
C843 H869 0.929 . S
C844 C842 1.320 . S
C844 C845 1.405 . S
C844 H870 0.930 . S
C845 C840 1.479 . S
C845 C844 1.405 . S
C845 H871 0.931 . S
U846 O847 2.454 . S
U846 O848 2.458 . S
U846 C849 2.984 . S
U846 C850 2.847 . S
U846 C863 2.882 1_655 S
U846 O864 2.441 . S
U846 O865 2.420 . S
U846 O866 2.455 1_655 S
U846 O867 2.449 1_655 S
O847 U846 2.454 . S
O847 C849 1.353 . S
O848 U846 2.458 . S
O848 C849 1.286 . S
C849 U846 2.984 . S
C849 O847 1.353 . S
C849 O848 1.286 . S
C849 C851 1.363 . S
C850 C840 1.465 . S
C850 U846 2.847 . S
C850 O864 1.249 . S
C850 O865 1.202 . S
C851 C849 1.363 . S
C851 C853 1.408 . S
C851 C856 1.342 . S
C852 C853 1.310 . S
C852 C855 1.461 . S
C852 H872 0.932 . S
C853 C851 1.408 . S
C853 C852 1.310 . S
C853 H873 0.930 . S
C854 C855 1.474 . S
C854 C856 1.285 . S
C854 H874 0.929 . S
C855 C852 1.461 . S
C855 C854 1.474 . S
C856 C851 1.342 . S
C856 C854 1.285 . S
C856 H875 0.930 . S
C857 C860 1.424 . S
C857 C862 1.245 . S
C857 C863 1.428 . S
C858 C861 1.260 . S
C858 C862 1.477 . S
C858 H876 0.932 . S
C859 C860 1.384 . S
C859 C861 1.479 . S
C859 H877 0.929 . S
C860 C857 1.424 . S
C860 C859 1.384 . S
C860 H878 0.928 . S
C861 C858 1.260 . S
C861 C859 1.479 . S
C862 C857 1.245 . S
C862 C858 1.477 . S
C862 H879 0.932 . S
C863 U846 2.882 1_455 S
C863 C857 1.428 . S
C863 O866 1.301 . S
C863 O867 1.282 . S
O864 U846 2.441 . S
O864 C850 1.249 . S
O865 U846 2.420 . S
O865 C850 1.202 . S
O866 U846 2.455 1_455 S
O866 C863 1.301 . S
O867 U846 2.449 1_455 S
O867 C863 1.282 . S
H868 C841 0.931 . S
H869 C843 0.929 . S
H870 C844 0.930 . S
H871 C845 0.931 . S
H872 C852 0.932 . S
H873 C853 0.930 . S
H874 C854 0.929 . S
H875 C856 0.930 . S
H876 C858 0.932 . S
H877 C859 0.929 . S
H878 C860 0.928 . S
H879 C862 0.932 . S
C880 C881 1.264 1_565 S
C880 C885 1.479 . S
C880 C890 1.465 . S
C881 C880 1.264 1_545 S
C881 C883 1.339 . S
C881 H908 0.931 . S
C882 C883 1.395 1_565 S
C882 C884 1.320 . S
C883 C881 1.339 . S
C883 C882 1.395 1_545 S
C883 H909 0.929 . S
C884 C882 1.320 . S
C884 C885 1.405 . S
C884 H910 0.930 . S
C885 C880 1.479 . S
C885 C884 1.405 . S
C885 H911 0.931 . S
U886 O887 2.454 . S
U886 O888 2.458 . S
U886 C889 2.984 . S
U886 C890 2.847 . S
U886 C903 2.882 1_565 S
U886 O904 2.441 . S
U886 O905 2.420 . S
U886 O906 2.455 1_565 S
U886 O907 2.449 1_565 S
O887 U886 2.454 . S
O887 C889 1.353 . S
O888 U886 2.458 . S
O888 C889 1.286 . S
C889 U886 2.984 . S
C889 O887 1.353 . S
C889 O888 1.286 . S
C889 C891 1.363 . S
C890 C880 1.465 . S
C890 U886 2.847 . S
C890 O904 1.249 . S
C890 O905 1.202 . S
C891 C889 1.363 . S
C891 C893 1.408 . S
C891 C896 1.342 . S
C892 C893 1.310 . S
C892 C895 1.461 . S
C892 H912 0.932 . S
C893 C891 1.408 . S
C893 C892 1.310 . S
C893 H913 0.930 . S
C894 C895 1.474 . S
C894 C896 1.285 . S
C894 H914 0.929 . S
C895 C892 1.461 . S
C895 C894 1.474 . S
C896 C891 1.342 . S
C896 C894 1.285 . S
C896 H915 0.930 . S
C897 C900 1.424 . S
C897 C902 1.245 . S
C897 C903 1.428 . S
C898 C901 1.260 . S
C898 C902 1.477 . S
C898 H916 0.932 . S
C899 C900 1.384 . S
C899 C901 1.479 . S
C899 H917 0.929 . S
C900 C897 1.424 . S
C900 C899 1.384 . S
C900 H918 0.928 . S
C901 C898 1.260 . S
C901 C899 1.479 . S
C902 C897 1.245 . S
C902 C898 1.477 . S
C902 H919 0.932 . S
C903 U886 2.882 1_545 S
C903 C897 1.428 . S
C903 O906 1.301 . S
C903 O907 1.282 . S
O904 U886 2.441 . S
O904 C890 1.249 . S
O905 U886 2.420 . S
O905 C890 1.202 . S
O906 U886 2.455 1_545 S
O906 C903 1.301 . S
O907 U886 2.449 1_545 S
O907 C903 1.282 . S
H908 C881 0.931 . S
H909 C883 0.929 . S
H910 C884 0.930 . S
H911 C885 0.931 . S
H912 C892 0.932 . S
H913 C893 0.930 . S
H914 C894 0.929 . S
H915 C896 0.930 . S
H916 C898 0.932 . S
H917 C899 0.929 . S
H918 C900 0.928 . S
H919 C902 0.932 . S
C920 C921 1.264 . S
C920 C925 1.479 . S
C920 C930 1.465 . S
C921 C920 1.264 . S
C921 C923 1.339 . S
C921 H948 0.931 . S
C922 C923 1.395 . S
C922 C924 1.320 . S
C923 C921 1.339 . S
C923 C922 1.395 . S
C923 H949 0.929 . S
C924 C922 1.320 . S
C924 C925 1.405 . S
C924 H950 0.930 . S
C925 C920 1.479 . S
C925 C924 1.405 . S
C925 H951 0.931 . S
U926 O927 2.454 . S
U926 O928 2.458 . S
U926 C929 2.984 . S
U926 C930 2.847 . S
U926 C943 2.882 . S
U926 O944 2.441 . S
U926 O945 2.420 . S
U926 O946 2.455 . S
U926 O947 2.449 . S
O927 U926 2.454 . S
O927 C929 1.353 . S
O928 U926 2.458 . S
O928 C929 1.286 . S
C929 U926 2.984 . S
C929 O927 1.353 . S
C929 O928 1.286 . S
C929 C931 1.363 1_545 S
C930 C920 1.465 . S
C930 U926 2.847 . S
C930 O944 1.249 . S
C930 O945 1.202 . S
C931 C929 1.363 1_565 S
C931 C933 1.408 . S
C931 C936 1.342 . S
C932 C933 1.310 . S
C932 C935 1.461 . S
C932 H952 0.932 . S
C933 C931 1.408 . S
C933 C932 1.310 . S
C933 H953 0.930 . S
C934 C935 1.474 . S
C934 C936 1.285 . S
C934 H954 0.929 . S
C935 C932 1.461 . S
C935 C934 1.474 . S
C936 C931 1.342 . S
C936 C934 1.285 . S
C936 H955 0.930 . S
C937 C940 1.424 . S
C937 C942 1.245 . S
C937 C943 1.428 . S
C938 C941 1.260 . S
C938 C942 1.477 . S
C938 H956 0.932 . S
C939 C940 1.384 . S
C939 C941 1.479 . S
C939 H957 0.929 . S
C940 C937 1.424 . S
C940 C939 1.384 . S
C940 H958 0.928 . S
C941 C938 1.260 . S
C941 C939 1.479 . S
C942 C937 1.245 . S
C942 C938 1.477 . S
C942 H959 0.932 . S
C943 U926 2.882 . S
C943 C937 1.428 . S
C943 O946 1.301 . S
C943 O947 1.282 . S
O944 U926 2.441 . S
O944 C930 1.249 . S
O945 U926 2.420 . S
O945 C930 1.202 . S
O946 U926 2.455 . S
O946 C943 1.301 . S
O947 U926 2.449 . S
O947 C943 1.282 . S
H948 C921 0.931 . S
H949 C923 0.929 . S
H950 C924 0.930 . S
H951 C925 0.931 . S
H952 C932 0.932 . S
H953 C933 0.930 . S
H954 C934 0.929 . S
H955 C936 0.930 . S
H956 C938 0.932 . S
H957 C939 0.929 . S
H958 C940 0.928 . S
H959 C942 0.932 . S
C960 C961 1.387 1_655 S
C960 H964 0.961 . S
C960 C969 1.390 . S
C961 C960 1.387 1_455 S
C961 C963 1.375 1_455 S
H962 C969 0.950 . S
C963 C961 1.375 1_655 S
C963 C965 1.399 . S
C963 H967 0.956 1_655 S
H964 C960 0.961 . S
C965 C963 1.399 . S
C965 C966 1.387 . S
C965 H968 0.950 . S
C966 C965 1.387 . S
C966 C969 1.387 . S
H967 C963 0.956 1_455 S
H968 C965 0.950 . S
C969 C960 1.390 . S
C969 H962 0.950 . S
C969 C966 1.387 . S
C970 C971 1.387 . S
C970 H974 0.950 . S
C970 C979 1.390 . S
C971 C970 1.387 . S
C971 C973 1.387 . S
H972 C979 0.950 . S
C973 C971 1.387 . S
C973 C975 1.390 . S
C973 H977 0.950 . S
H974 C970 0.950 . S
C975 C973 1.390 . S
C975 C976 1.387 . S
C975 H978 0.950 . S
C976 C975 1.387 . S
C976 C979 1.387 . S
H977 C973 0.950 . S
H978 C975 0.950 . S
C979 C970 1.390 . S
C979 H972 0.950 . S
C979 C976 1.387 . S
C980 C981 1.387 . S
C980 H984 0.950 . S
C980 C989 1.390 . S
C981 C980 1.387 . S
C981 C983 1.387 . S
H982 C989 0.950 . S
C983 C981 1.387 . S
C983 C985 1.390 . S
C983 H987 0.950 . S
H984 C980 0.950 . S
C985 C983 1.390 . S
C985 C986 1.387 . S
C985 H988 0.950 . S
C986 C985 1.387 . S
C986 C989 1.387 . S
H987 C983 0.950 . S
H988 C985 0.950 . S
C989 C980 1.390 . S
C989 H982 0.950 . S
C989 C986 1.387 . S
C990 C991 1.387 . S
C990 H994 0.950 . S
C990 C999 1.390 . S
C991 C990 1.387 . S
C991 C993 1.387 . S
H992 C999 0.950 . S
C993 C991 1.387 . S
C993 C995 1.390 . S
C993 H997 0.950 . S
H994 C990 0.950 . S
C995 C993 1.390 . S
C995 C996 1.387 . S
C995 H998 0.950 . S
C996 C995 1.387 . S
C996 C999 1.387 . S
H997 C993 0.950 . S
H998 C995 0.950 . S
C999 C990 1.390 . S
C999 H992 0.950 . S
C999 C996 1.387 . S
C1000 C1001 1.387 1_565 S
C1000 H1004 0.957 1_565 S
C1000 C1009 1.390 . S
C1001 C1000 1.387 1_545 S
C1001 C1003 1.387 1_545 S
H1002 C1009 0.950 . S
C1003 C1001 1.387 1_565 S
C1003 C1005 1.390 . S
C1003 H1007 0.950 1_565 S
H1004 C1000 0.957 1_545 S
C1005 C1003 1.390 . S
C1005 C1006 1.387 . S
C1005 H1008 0.950 . S
C1006 C1005 1.387 . S
C1006 C1009 1.387 . S
H1007 C1003 0.950 1_545 S
H1008 C1005 0.950 . S
C1009 C1000 1.390 . S
C1009 H1002 0.950 . S
C1009 C1006 1.387 . S
C1010 C1011 1.387 . S
C1010 H1014 0.950 . S
C1010 C1019 1.390 . S
C1011 C1010 1.387 . S
C1011 C1013 1.387 . S
H1012 C1019 0.950 . S
C1013 C1011 1.387 . S
C1013 C1015 1.390 . S
C1013 H1017 0.950 . S
H1014 C1010 0.950 . S
C1015 C1013 1.390 . S
C1015 C1016 1.387 . S
C1015 H1018 0.950 . S
C1016 C1015 1.387 . S
C1016 C1019 1.387 . S
H1017 C1013 0.950 . S
H1018 C1015 0.950 . S
C1019 C1010 1.390 . S
C1019 H1012 0.950 . S
C1019 C1016 1.387 . S
C1020 C1021 1.387 . S
C1020 H1024 0.950 . S
C1020 C1029 1.390 . S
C1021 C1020 1.387 . S
C1021 C1023 1.387 . S
H1022 C1029 0.950 . S
C1023 C1021 1.387 . S
C1023 C1025 1.390 . S
C1023 H1027 0.950 . S
H1024 C1020 0.950 . S
C1025 C1023 1.390 . S
C1025 C1026 1.387 . S
C1025 H1028 0.950 . S
C1026 C1025 1.387 . S
C1026 C1029 1.387 . S
H1027 C1023 0.950 . S
H1028 C1025 0.950 . S
C1029 C1020 1.390 . S
C1029 H1022 0.950 . S
C1029 C1026 1.387 . S
C1030 C1031 1.391 . S
C1030 H1034 0.950 . S
C1030 C1039 1.390 . S
C1031 C1030 1.391 . S
C1031 C1033 1.385 1_556 S
H1032 C1039 0.950 . S
C1033 C1031 1.385 1_554 S
C1033 C1035 1.390 1_554 S
C1033 H1037 0.950 . S
H1034 C1030 0.950 . S
C1035 C1033 1.390 1_556 S
C1035 C1036 1.387 . S
C1035 H1038 0.950 1_556 S
C1036 C1035 1.387 . S
C1036 C1039 1.387 . S
H1037 C1033 0.950 . S
H1038 C1035 0.950 1_554 S
C1039 C1030 1.390 . S
C1039 H1032 0.950 . S
C1039 C1036 1.387 . S
C1040 C1041 1.387 . S
C1040 H1044 0.950 . S
C1040 C1049 1.390 . S
C1041 C1040 1.387 . S
C1041 C1043 1.387 . S
H1042 C1049 0.950 . S
C1043 C1041 1.387 . S
C1043 C1045 1.390 . S
C1043 H1047 0.950 . S
H1044 C1040 0.950 . S
C1045 C1043 1.390 . S
C1045 C1046 1.387 . S
C1045 H1048 0.950 . S
C1046 C1045 1.387 . S
C1046 C1049 1.387 . S
H1047 C1043 0.950 . S
H1048 C1045 0.950 . S
C1049 C1040 1.390 . S
C1049 H1042 0.950 . S
C1049 C1046 1.387 . S
C1050 C1051 1.387 . S
C1050 H1054 0.950 . S
C1050 C1059 1.390 . S
C1051 C1050 1.387 . S
C1051 C1053 1.387 . S
H1052 C1059 0.950 . S
C1053 C1051 1.387 . S
C1053 C1055 1.390 . S
C1053 H1057 0.950 . S
H1054 C1050 0.950 . S
C1055 C1053 1.390 . S
C1055 C1056 1.387 . S
C1055 H1058 0.950 . S
C1056 C1055 1.387 . S
C1056 C1059 1.387 . S
H1057 C1053 0.950 . S
H1058 C1055 0.950 . S
C1059 C1050 1.390 . S
C1059 H1052 0.950 . S
C1059 C1056 1.387 . S
C1060 C1061 1.387 . S
C1060 H1064 0.950 . S
C1060 C1069 1.390 . S
C1061 C1060 1.387 . S
C1061 C1063 1.387 . S
H1062 C1069 0.950 . S
C1063 C1061 1.387 . S
C1063 C1065 1.390 . S
C1063 H1067 0.950 . S
H1064 C1060 0.950 . S
C1065 C1063 1.390 . S
C1065 C1066 1.387 . S
C1065 H1068 0.950 . S
C1066 C1065 1.387 . S
C1066 C1069 1.387 . S
H1067 C1063 0.950 . S
H1068 C1065 0.950 . S
C1069 C1060 1.390 . S
C1069 H1062 0.950 . S
C1069 C1066 1.387 . S
C1070 C1071 1.387 . S
C1070 H1074 0.950 . S
C1070 C1079 1.390 . S
C1071 C1070 1.387 . S
C1071 C1073 1.387 . S
H1072 C1079 0.950 . S
C1073 C1071 1.387 . S
C1073 C1075 1.390 . S
C1073 H1077 0.950 . S
H1074 C1070 0.950 . S
C1075 C1073 1.390 . S
C1075 C1076 1.387 . S
C1075 H1078 0.950 . S
C1076 C1075 1.387 . S
C1076 C1079 1.387 . S
H1077 C1073 0.950 . S
H1078 C1075 0.950 . S
C1079 C1070 1.390 . S
C1079 H1072 0.950 . S
C1079 C1076 1.387 . S
C1080 C1081 1.387 . S
C1080 H1084 0.950 . S
C1080 C1089 1.390 . S
C1081 C1080 1.387 . S
C1081 C1083 1.387 . S
H1082 C1089 0.950 . S
C1083 C1081 1.387 . S
C1083 C1085 1.390 . S
C1083 H1087 0.950 . S
H1084 C1080 0.950 . S
C1085 C1083 1.390 . S
C1085 C1086 1.387 . S
C1085 H1088 0.950 . S
C1086 C1085 1.387 . S
C1086 C1089 1.387 . S
H1087 C1083 0.950 . S
H1088 C1085 0.950 . S
C1089 C1080 1.390 . S
C1089 H1082 0.950 . S
C1089 C1086 1.387 . S
C1090 C1091 1.387 . S
C1090 H1094 0.950 . S
C1090 C1099 1.390 . S
C1091 C1090 1.387 . S
C1091 C1093 1.387 . S
H1092 C1099 0.950 . S
C1093 C1091 1.387 . S
C1093 C1095 1.390 . S
C1093 H1097 0.950 . S
H1094 C1090 0.950 . S
C1095 C1093 1.390 . S
C1095 C1096 1.387 . S
C1095 H1098 0.950 . S
C1096 C1095 1.387 . S
C1096 C1099 1.387 . S
H1097 C1093 0.950 . S
H1098 C1095 0.950 . S
C1099 C1090 1.390 . S
C1099 H1092 0.950 . S
C1099 C1096 1.387 . S
C1100 C1101 1.387 . S
C1100 H1104 0.950 . S
C1100 C1109 1.390 . S
C1101 C1100 1.387 . S
C1101 C1103 1.387 . S
H1102 C1109 0.950 . S
C1103 C1101 1.387 . S
C1103 C1105 1.390 . S
C1103 H1107 0.960 . S
H1104 C1100 0.950 . S
C1105 C1103 1.390 . S
C1105 C1106 1.387 . S
C1105 H1108 0.950 . S
C1106 C1105 1.387 . S
C1106 C1109 1.387 . S
H1107 C1103 0.960 . S
H1108 C1105 0.950 . S
C1109 C1100 1.390 . S
C1109 H1102 0.950 . S
C1109 C1106 1.387 . S
C1110 C1111 1.387 . S
C1110 H1114 0.950 . S
C1110 C1119 1.390 . S
C1111 C1110 1.387 . S
C1111 C1113 1.387 . S
H1112 C1119 0.950 . S
C1113 C1111 1.387 . S
C1113 C1115 1.390 . S
C1113 H1117 0.950 . S
H1114 C1110 0.950 . S
C1115 C1113 1.390 . S
C1115 C1116 1.387 . S
C1115 H1118 0.950 . S
C1116 C1115 1.387 . S
C1116 C1119 1.387 . S
H1117 C1113 0.950 . S
H1118 C1115 0.950 . S
C1119 C1110 1.390 . S
C1119 H1112 0.950 . S
C1119 C1116 1.387 . S
C1120 C1121 1.387 . S
C1120 H1124 0.950 . S
C1120 C1129 1.390 . S
C1121 C1120 1.387 . S
C1121 C1123 1.387 . S
H1122 C1129 0.950 . S
C1123 C1121 1.387 . S
C1123 C1125 1.390 . S
C1123 H1127 0.950 . S
H1124 C1120 0.950 . S
C1125 C1123 1.390 . S
C1125 C1126 1.387 . S
C1125 H1128 0.950 . S
C1126 C1125 1.387 . S
C1126 C1129 1.387 . S
H1127 C1123 0.950 . S
H1128 C1125 0.950 . S
C1129 C1120 1.390 . S
C1129 H1122 0.950 . S
C1129 C1126 1.387 . S
C1130 C1131 1.387 . S
C1130 H1134 0.950 . S
C1130 C1139 1.390 . S
C1131 C1130 1.387 . S
C1131 C1133 1.387 . S
H1132 C1139 0.950 . S
C1133 C1131 1.387 . S
C1133 C1135 1.390 . S
C1133 H1137 0.950 . S
H1134 C1130 0.950 . S
C1135 C1133 1.390 . S
C1135 C1136 1.387 . S
C1135 H1138 0.950 . S
C1136 C1135 1.387 . S
C1136 C1139 1.387 . S
H1137 C1133 0.950 . S
H1138 C1135 0.950 . S
C1139 C1130 1.390 . S
C1139 H1132 0.950 . S
C1139 C1136 1.387 . S
C1140 C1141 1.387 . S
C1140 H1144 0.950 . S
C1140 C1149 1.390 . S
C1141 C1140 1.387 . S
C1141 C1143 1.387 . S
H1142 C1149 0.950 1_455 S
C1143 C1141 1.387 . S
C1143 C1145 1.390 . S
C1143 H1147 0.950 . S
H1144 C1140 0.950 . S
C1145 C1143 1.390 . S
C1145 C1146 1.387 . S
C1145 H1148 0.950 . S
C1146 C1145 1.387 . S
C1146 C1149 1.387 . S
H1147 C1143 0.950 . S
H1148 C1145 0.950 . S
C1149 C1140 1.390 . S
C1149 H1142 0.950 1_655 S
C1149 C1146 1.387 . S
C1150 C1151 1.387 . S
C1150 H1154 0.950 . S
C1150 C1159 1.390 . S
C1151 C1150 1.387 . S
C1151 C1153 1.387 . S
H1152 C1159 0.950 . S
C1153 C1151 1.387 . S
C1153 C1155 1.390 . S
C1153 H1157 0.950 . S
H1154 C1150 0.950 . S
C1155 C1153 1.390 . S
C1155 C1156 1.387 . S
C1155 H1158 0.950 . S
C1156 C1155 1.387 . S
C1156 C1159 1.387 . S
H1157 C1153 0.950 . S
H1158 C1155 0.950 . S
C1159 C1150 1.390 . S
C1159 H1152 0.950 . S
C1159 C1156 1.387 . S
C1160 C1161 1.387 . S
C1160 H1164 0.950 . S
C1160 C1169 1.390 . S
C1161 C1160 1.387 . S
C1161 C1163 1.387 . S
H1162 C1169 0.950 . S
C1163 C1161 1.387 . S
C1163 C1165 1.390 . S
C1163 H1167 0.950 . S
H1164 C1160 0.950 . S
C1165 C1163 1.390 . S
C1165 C1166 1.387 . S
C1165 H1168 0.950 . S
C1166 C1165 1.387 . S
C1166 C1169 1.387 . S
H1167 C1163 0.950 . S
H1168 C1165 0.950 . S
C1169 C1160 1.390 . S
C1169 H1162 0.950 . S
C1169 C1166 1.387 . S
C1170 C1171 1.387 . S
C1170 H1174 0.950 . S
C1170 C1179 1.390 . S
C1171 C1170 1.387 . S
C1171 C1173 1.387 . S
H1172 C1179 0.950 . S
C1173 C1171 1.387 . S
C1173 C1175 1.390 . S
C1173 H1177 0.950 . S
H1174 C1170 0.950 . S
C1175 C1173 1.390 . S
C1175 C1176 1.387 . S
C1175 H1178 0.950 . S
C1176 C1175 1.387 . S
C1176 C1179 1.387 . S
H1177 C1173 0.950 . S
H1178 C1175 0.950 . S
C1179 C1170 1.390 . S
C1179 H1172 0.950 . S
C1179 C1176 1.387 . S
C1180 C1181 1.387 . S
C1180 H1184 0.950 . S
C1180 C1189 1.390 . S
C1181 C1180 1.387 . S
C1181 C1183 1.387 . S
H1182 C1189 0.950 . S
C1183 C1181 1.387 . S
C1183 C1185 1.390 . S
C1183 H1187 0.950 . S
H1184 C1180 0.950 . S
C1185 C1183 1.390 . S
C1185 C1186 1.387 . S
C1185 H1188 0.950 . S
C1186 C1185 1.387 . S
C1186 C1189 1.387 . S
H1187 C1183 0.950 . S
H1188 C1185 0.950 . S
C1189 C1180 1.390 . S
C1189 H1182 0.950 . S
C1189 C1186 1.387 . S
C1190 C1191 1.387 . S
C1190 H1194 0.950 . S
C1190 C1199 1.390 . S
C1191 C1190 1.387 . S
C1191 C1193 1.387 . S
H1192 C1199 0.950 . S
C1193 C1191 1.387 . S
C1193 C1195 1.390 . S
C1193 H1197 0.950 . S
H1194 C1190 0.950 . S
C1195 C1193 1.390 . S
C1195 C1196 1.387 . S
C1195 H1198 0.950 . S
C1196 C1195 1.387 . S
C1196 C1199 1.387 . S
H1197 C1193 0.950 . S
H1198 C1195 0.950 . S
C1199 C1190 1.390 . S
C1199 H1192 0.950 . S
C1199 C1196 1.387 . S
C1200 C1201 1.387 . S
C1200 H1204 0.950 . S
C1200 C1209 1.390 . S
C1201 C1200 1.387 . S
C1201 C1203 1.387 . S
H1202 C1209 0.950 . S
C1203 C1201 1.387 . S
C1203 C1205 1.390 . S
C1203 H1207 0.950 . S
H1204 C1200 0.950 . S
C1205 C1203 1.390 . S
C1205 C1206 1.387 . S
C1205 H1208 0.950 . S
C1206 C1205 1.387 . S
C1206 C1209 1.387 . S
H1207 C1203 0.950 . S
H1208 C1205 0.950 . S
C1209 C1200 1.390 . S
C1209 H1202 0.950 . S
C1209 C1206 1.387 . S
C1210 C1211 1.387 . S
C1210 H1214 0.950 . S
C1210 C1219 1.390 . S
C1211 C1210 1.387 . S
C1211 C1213 1.387 . S
H1212 C1219 0.950 . S
C1213 C1211 1.387 . S
C1213 C1215 1.390 . S
C1213 H1217 0.950 . S
H1214 C1210 0.950 . S
C1215 C1213 1.390 . S
C1215 C1216 1.387 . S
C1215 H1218 0.950 . S
C1216 C1215 1.387 . S
C1216 C1219 1.387 . S
H1217 C1213 0.950 . S
H1218 C1215 0.950 . S
C1219 C1210 1.390 . S
C1219 H1212 0.950 . S
C1219 C1216 1.387 . S
C1220 C1221 1.387 . S
C1220 H1224 0.950 . S
C1220 C1229 1.390 . S
C1221 C1220 1.387 . S
C1221 C1223 1.387 . S
H1222 C1229 0.950 . S
C1223 C1221 1.387 . S
C1223 C1225 1.390 . S
C1223 H1227 0.950 . S
H1224 C1220 0.950 . S
C1225 C1223 1.390 . S
C1225 C1226 1.387 . S
C1225 H1228 0.950 . S
C1226 C1225 1.387 . S
C1226 C1229 1.387 . S
H1227 C1223 0.950 . S
H1228 C1225 0.950 . S
C1229 C1220 1.390 . S
C1229 H1222 0.950 . S
C1229 C1226 1.387 . S
C1230 C1231 1.387 . S
C1230 H1234 0.950 . S
C1230 C1239 1.390 . S
C1231 C1230 1.387 . S
C1231 C1233 1.387 . S
H1232 C1239 0.950 . S
C1233 C1231 1.387 . S
C1233 C1235 1.390 . S
C1233 H1237 0.950 . S
H1234 C1230 0.950 . S
C1235 C1233 1.390 . S
C1235 C1236 1.387 . S
C1235 H1238 0.950 . S
C1236 C1235 1.387 . S
C1236 C1239 1.387 . S
H1237 C1233 0.950 . S
H1238 C1235 0.950 . S
C1239 C1230 1.390 . S
C1239 H1232 0.950 . S
C1239 C1236 1.387 . S
C1240 C1241 1.387 . S
C1240 H1244 0.950 . S
C1240 C1249 1.390 . S
C1241 C1240 1.387 . S
C1241 C1243 1.387 . S
H1242 C1249 0.950 . S
C1243 C1241 1.387 . S
C1243 C1245 1.390 . S
C1243 H1247 0.950 . S
H1244 C1240 0.950 . S
C1245 C1243 1.390 . S
C1245 C1246 1.387 . S
C1245 H1248 0.950 . S
C1246 C1245 1.387 . S
C1246 C1249 1.387 . S
H1247 C1243 0.950 . S
H1248 C1245 0.950 . S
C1249 C1240 1.390 . S
C1249 H1242 0.950 . S
C1249 C1246 1.387 . S
C1250 C1251 1.387 . S
C1250 H1254 0.950 . S
C1250 C1259 1.390 . S
C1251 C1250 1.387 . S
C1251 C1253 1.387 . S
H1252 C1259 0.950 . S
C1253 C1251 1.387 . S
C1253 C1255 1.390 . S
C1253 H1257 0.950 . S
H1254 C1250 0.950 . S
C1255 C1253 1.390 . S
C1255 C1256 1.387 . S
C1255 H1258 0.950 . S
C1256 C1255 1.387 . S
C1256 C1259 1.387 . S
H1257 C1253 0.950 . S
H1258 C1255 0.950 . S
C1259 C1250 1.390 . S
C1259 H1252 0.950 . S
C1259 C1256 1.387 . S
C1260 C1261 1.387 . S
C1260 H1264 0.950 . S
C1260 C1269 1.390 . S
C1261 C1260 1.387 . S
C1261 C1263 1.387 . S
H1262 C1269 0.950 . S
C1263 C1261 1.387 . S
C1263 C1265 1.390 . S
C1263 H1267 0.950 . S
H1264 C1260 0.950 . S
C1265 C1263 1.390 . S
C1265 C1266 1.387 . S
C1265 H1268 0.950 . S
C1266 C1265 1.387 . S
C1266 C1269 1.387 . S
H1267 C1263 0.950 . S
H1268 C1265 0.950 . S
C1269 C1260 1.390 . S
C1269 H1262 0.950 . S
C1269 C1266 1.387 . S
C1270 C1271 1.387 . S
C1270 H1274 0.950 . S
C1270 C1279 1.390 . S
C1271 C1270 1.387 . S
C1271 C1273 1.387 . S
H1272 C1279 0.950 . S
C1273 C1271 1.387 . S
C1273 C1275 1.390 . S
C1273 H1277 0.950 . S
H1274 C1270 0.950 . S
C1275 C1273 1.390 . S
C1275 C1276 1.387 . S
C1275 H1278 0.950 . S
C1276 C1275 1.387 . S
C1276 C1279 1.387 . S
H1277 C1273 0.950 . S
H1278 C1275 0.950 . S
C1279 C1270 1.390 . S
C1279 H1272 0.950 . S
C1279 C1276 1.387 . S
C1280 C1281 1.387 . S
C1280 H1284 0.950 . S
C1280 C1289 1.390 . S
C1281 C1280 1.387 . S
C1281 C1283 1.387 . S
H1282 C1289 0.950 . S
C1283 C1281 1.387 . S
C1283 C1285 1.390 . S
C1283 H1287 0.950 . S
H1284 C1280 0.950 . S
C1285 C1283 1.390 . S
C1285 C1286 1.387 . S
C1285 H1288 0.950 . S
C1286 C1285 1.387 . S
C1286 C1289 1.387 . S
H1287 C1283 0.950 . S
H1288 C1285 0.950 . S
C1289 C1280 1.390 . S
C1289 H1282 0.950 . S
C1289 C1286 1.387 . S
C1290 C1291 1.387 . S
C1290 H1294 0.950 . S
C1290 C1299 1.390 . S
C1291 C1290 1.387 . S
C1291 C1293 1.387 . S
H1292 C1299 0.950 . S
C1293 C1291 1.387 . S
C1293 C1295 1.390 . S
C1293 H1297 0.950 . S
H1294 C1290 0.950 . S
C1295 C1293 1.390 . S
C1295 C1296 1.387 . S
C1295 H1298 0.950 . S
C1296 C1295 1.387 . S
C1296 C1299 1.387 . S
H1297 C1293 0.950 . S
H1298 C1295 0.950 . S
C1299 C1290 1.390 . S
C1299 H1292 0.950 . S
C1299 C1296 1.387 . S
C1300 C1301 1.387 . S
C1300 H1304 0.950 . S
C1300 C1309 1.390 . S
C1301 C1300 1.387 . S
C1301 C1303 1.387 . S
H1302 C1309 0.950 1_545 S
C1303 C1301 1.387 . S
C1303 C1305 1.390 . S
C1303 H1307 0.950 . S
H1304 C1300 0.950 . S
C1305 C1303 1.390 . S
C1305 C1306 1.387 . S
C1305 H1308 0.950 . S
C1306 C1305 1.387 . S
C1306 C1309 1.387 . S
H1307 C1303 0.950 . S
H1308 C1305 0.950 . S
C1309 C1300 1.390 . S
C1309 H1302 0.950 1_565 S
C1309 C1306 1.387 . S
C1310 C1311 1.387 . S
C1310 H1314 0.950 . S
C1310 C1319 1.390 . S
C1311 C1310 1.387 . S
C1311 C1313 1.387 . S
H1312 C1319 0.950 . S
C1313 C1311 1.387 . S
C1313 C1315 1.390 . S
C1313 H1317 0.950 . S
H1314 C1310 0.950 . S
C1315 C1313 1.390 . S
C1315 C1316 1.387 . S
C1315 H1318 0.950 . S
C1316 C1315 1.387 . S
C1316 C1319 1.387 . S
H1317 C1313 0.950 . S
H1318 C1315 0.950 . S
C1319 C1310 1.390 . S
C1319 H1312 0.950 . S
C1319 C1316 1.387 . S
C961 C301 1.547 . S
C966 C21 1.473 . S
C971 C181 1.736 . S
C976 C61 1.905 . S
C981 C101 2.637 . S
C986 C221 2.184 . S
C991 C261 1.849 . S
C996 C141 1.936 . S
C1001 C661 1.508 . S
C1006 C341 1.211 . S
C1011 C381 1.996 . S
C1016 C701 2.011 . S
C1021 C421 1.882 . S
C1026 C941 1.898 . S
C1031 C461 1.497 1_556 S
C1036 C501 1.220 . S
C1041 C821 1.952 . S
C1046 C541 1.934 . S
C1051 C581 1.962 . S
C1056 C861 1.977 . S
C1061 C901 2.132 . S
C1066 C621 2.526 . S
C1071 C781 2.467 . S
C1076 C741 2.076 . S
C1081 C575 2.624 . S
C1086 C15 2.409 . S
C1091 C602 2.586 . S
C1096 C55 2.697 . S
C1101 C82 1.491 . S
C1106 C735 1.509 . S
C1111 C522 1.773 . S
C1116 C122 1.833 . S
C1121 C175 1.803 . S
C1126 C562 1.886 . S
C1131 C615 1.438 . S
C1136 C215 1.512 . S
C1141 C242 2.046 . S
C1146 C722 1.894 . S
C1151 C282 2.271 . S
C1156 C535 2.124 . S
C1161 C375 2.646 . S
C1166 C322 2.309 . S
C1171 C362 1.863 . S
C1176 C402 1.794 . S
C1181 C415 2.071 . S
C1186 C442 2.226 . S
C1191 C455 2.667 . S
C1196 C335 2.486 . S
C1201 C482 2.202 . S
C1206 C135 2.535 . S
C1211 C642 2.174 . S
C1216 C162 1.902 . S
C1221 C42 2.313 . S
C1226 C682 2.305 . S
C1231 C935 2.705 . S
C1236 C95 2.723 . S
C1241 C655 2.633 . S
C1246 C2 2.583 . S
C1251 C255 2.338 . S
C1256 C922 2.324 . S
C1261 C295 2.709 . S
C1266 C495 2.535 . S
C1271 C695 2.220 . S
C1276 C202 1.988 . S
C1281 C762 2.595 . S
C1286 C815 2.702 . S
C1291 C842 2.326 . S
C1296 C802 2.331 . S
C1301 C855 2.156 . S
C1306 C882 1.936 . S
C1311 C775 1.421 . S
C1316 C895 1.488 . S
