# Generated by pormake.
# Topology wlf, (5)-cn, num edge types: 1
# Building blocks:
#     Node 0, Type 0, BuildingBlock: BEQFEK_clean_sbu_0, # of connection points: 5
#     Node 1, Type 0, BuildingBlock: BEQFEK_clean_sbu_0, # of connection points: 5
#     Node 2, Type 0, BuildingBlock: BEQFEK_clean_sbu_0, # of connection points: 5
#     Node 3, Type 0, BuildingBlock: BEQFEK_clean_sbu_0, # of connection points: 5
#     Node 4, Type 0, BuildingBlock: BEQFEK_clean_sbu_0, # of connection points: 5
#     Node 5, Type 0, BuildingBlock: BEQFEK_clean_sbu_0, # of connection points: 5
#     Node 6, Type 0, BuildingBlock: BEQFEK_clean_sbu_0, # of connection points: 5
#     Node 7, Type 0, BuildingBlock: BEQFEK_clean_sbu_0, # of connection points: 5
#     Node 8, Type 0, BuildingBlock: BEQFEK_clean_sbu_0, # of connection points: 5
#     Node 9, Type 0, BuildingBlock: BEQFEK_clean_sbu_0, # of connection points: 5
#     Node 10, Type 0, BuildingBlock: BEQFEK_clean_sbu_0, # of connection points: 5
#     Node 11, Type 0, BuildingBlock: BEQFEK_clean_sbu_0, # of connection points: 5
#     Node 12, Type 0, BuildingBlock: BEQFEK_clean_sbu_0, # of connection points: 5
#     Node 13, Type 0, BuildingBlock: BEQFEK_clean_sbu_0, # of connection points: 5
#     Node 14, Type 0, BuildingBlock: BEQFEK_clean_sbu_0, # of connection points: 5
#     Node 15, Type 0, BuildingBlock: BEQFEK_clean_sbu_0, # of connection points: 5
#     Node 16, Type 0, BuildingBlock: BEQFEK_clean_sbu_0, # of connection points: 5
#     Node 17, Type 0, BuildingBlock: BEQFEK_clean_sbu_0, # of connection points: 5
#     Node 18, Type 0, BuildingBlock: BEQFEK_clean_sbu_0, # of connection points: 5
#     Node 19, Type 0, BuildingBlock: BEQFEK_clean_sbu_0, # of connection points: 5
#     Node 20, Type 0, BuildingBlock: BEQFEK_clean_sbu_0, # of connection points: 5
#     Node 21, Type 0, BuildingBlock: BEQFEK_clean_sbu_0, # of connection points: 5
#     Node 22, Type 0, BuildingBlock: BEQFEK_clean_sbu_0, # of connection points: 5
#     Node 23, Type 0, BuildingBlock: BEQFEK_clean_sbu_0, # of connection points: 5
#     Node 24, Type 0, BuildingBlock: BEQFEK_clean_sbu_0, # of connection points: 5
#     Node 25, Type 0, BuildingBlock: BEQFEK_clean_sbu_0, # of connection points: 5
#     Node 26, Type 0, BuildingBlock: BEQFEK_clean_sbu_0, # of connection points: 5
#     Node 27, Type 0, BuildingBlock: BEQFEK_clean_sbu_0, # of connection points: 5
#     Node 28, Type 0, BuildingBlock: BEQFEK_clean_sbu_0, # of connection points: 5
#     Node 29, Type 0, BuildingBlock: BEQFEK_clean_sbu_0, # of connection points: 5
#     Node 30, Type 0, BuildingBlock: BEQFEK_clean_sbu_0, # of connection points: 5
#     Node 31, Type 0, BuildingBlock: BEQFEK_clean_sbu_0, # of connection points: 5
#     Node 32, Type 0, BuildingBlock: BEQFEK_clean_sbu_0, # of connection points: 5
#     Node 33, Type 0, BuildingBlock: BEQFEK_clean_sbu_0, # of connection points: 5
#     Node 34, Type 0, BuildingBlock: BEQFEK_clean_sbu_0, # of connection points: 5
#     Node 35, Type 0, BuildingBlock: BEQFEK_clean_sbu_0, # of connection points: 5
#     Edge 36, Type (0, 0), BuildingBlock: ZUJKAS_clean_linker_0, # of connection points: 2
#     Edge 37, Type (0, 0), BuildingBlock: ZUJKAS_clean_linker_0, # of connection points: 2
#     Edge 38, Type (0, 0), BuildingBlock: ZUJKAS_clean_linker_0, # of connection points: 2
#     Edge 39, Type (0, 0), BuildingBlock: ZUJKAS_clean_linker_0, # of connection points: 2
#     Edge 40, Type (0, 0), BuildingBlock: ZUJKAS_clean_linker_0, # of connection points: 2
#     Edge 41, Type (0, 0), BuildingBlock: ZUJKAS_clean_linker_0, # of connection points: 2
#     Edge 42, Type (0, 0), BuildingBlock: ZUJKAS_clean_linker_0, # of connection points: 2
#     Edge 43, Type (0, 0), BuildingBlock: ZUJKAS_clean_linker_0, # of connection points: 2
#     Edge 44, Type (0, 0), BuildingBlock: ZUJKAS_clean_linker_0, # of connection points: 2
#     Edge 45, Type (0, 0), BuildingBlock: ZUJKAS_clean_linker_0, # of connection points: 2
#     Edge 46, Type (0, 0), BuildingBlock: ZUJKAS_clean_linker_0, # of connection points: 2
#     Edge 47, Type (0, 0), BuildingBlock: ZUJKAS_clean_linker_0, # of connection points: 2
#     Edge 48, Type (0, 0), BuildingBlock: ZUJKAS_clean_linker_0, # of connection points: 2
#     Edge 49, Type (0, 0), BuildingBlock: ZUJKAS_clean_linker_0, # of connection points: 2
#     Edge 50, Type (0, 0), BuildingBlock: ZUJKAS_clean_linker_0, # of connection points: 2
#     Edge 51, Type (0, 0), BuildingBlock: ZUJKAS_clean_linker_0, # of connection points: 2
#     Edge 52, Type (0, 0), BuildingBlock: ZUJKAS_clean_linker_0, # of connection points: 2
#     Edge 53, Type (0, 0), BuildingBlock: ZUJKAS_clean_linker_0, # of connection points: 2
#     Edge 54, Type (0, 0), BuildingBlock: ZUJKAS_clean_linker_0, # of connection points: 2
#     Edge 55, Type (0, 0), BuildingBlock: ZUJKAS_clean_linker_0, # of connection points: 2
#     Edge 56, Type (0, 0), BuildingBlock: ZUJKAS_clean_linker_0, # of connection points: 2
#     Edge 57, Type (0, 0), BuildingBlock: ZUJKAS_clean_linker_0, # of connection points: 2
#     Edge 58, Type (0, 0), BuildingBlock: ZUJKAS_clean_linker_0, # of connection points: 2
#     Edge 59, Type (0, 0), BuildingBlock: ZUJKAS_clean_linker_0, # of connection points: 2
#     Edge 60, Type (0, 0), BuildingBlock: ZUJKAS_clean_linker_0, # of connection points: 2
#     Edge 61, Type (0, 0), BuildingBlock: ZUJKAS_clean_linker_0, # of connection points: 2
#     Edge 62, Type (0, 0), BuildingBlock: ZUJKAS_clean_linker_0, # of connection points: 2
#     Edge 63, Type (0, 0), BuildingBlock: ZUJKAS_clean_linker_0, # of connection points: 2
#     Edge 64, Type (0, 0), BuildingBlock: ZUJKAS_clean_linker_0, # of connection points: 2
#     Edge 65, Type (0, 0), BuildingBlock: ZUJKAS_clean_linker_0, # of connection points: 2
#     Edge 66, Type (0, 0), BuildingBlock: ZUJKAS_clean_linker_0, # of connection points: 2
#     Edge 67, Type (0, 0), BuildingBlock: ZUJKAS_clean_linker_0, # of connection points: 2
#     Edge 68, Type (0, 0), BuildingBlock: ZUJKAS_clean_linker_0, # of connection points: 2
#     Edge 69, Type (0, 0), BuildingBlock: ZUJKAS_clean_linker_0, # of connection points: 2
#     Edge 70, Type (0, 0), BuildingBlock: ZUJKAS_clean_linker_0, # of connection points: 2
#     Edge 71, Type (0, 0), BuildingBlock: ZUJKAS_clean_linker_0, # of connection points: 2
#     Edge 72, Type (0, 0), BuildingBlock: ZUJKAS_clean_linker_0, # of connection points: 2
#     Edge 73, Type (0, 0), BuildingBlock: ZUJKAS_clean_linker_0, # of connection points: 2
#     Edge 74, Type (0, 0), BuildingBlock: ZUJKAS_clean_linker_0, # of connection points: 2
#     Edge 75, Type (0, 0), BuildingBlock: ZUJKAS_clean_linker_0, # of connection points: 2
#     Edge 76, Type (0, 0), BuildingBlock: ZUJKAS_clean_linker_0, # of connection points: 2
#     Edge 77, Type (0, 0), BuildingBlock: ZUJKAS_clean_linker_0, # of connection points: 2
#     Edge 78, Type (0, 0), BuildingBlock: ZUJKAS_clean_linker_0, # of connection points: 2
#     Edge 79, Type (0, 0), BuildingBlock: ZUJKAS_clean_linker_0, # of connection points: 2
#     Edge 80, Type (0, 0), BuildingBlock: ZUJKAS_clean_linker_0, # of connection points: 2
#     Edge 81, Type (0, 0), BuildingBlock: ZUJKAS_clean_linker_0, # of connection points: 2
#     Edge 82, Type (0, 0), BuildingBlock: ZUJKAS_clean_linker_0, # of connection points: 2
#     Edge 83, Type (0, 0), BuildingBlock: ZUJKAS_clean_linker_0, # of connection points: 2
#     Edge 84, Type (0, 0), BuildingBlock: ZUJKAS_clean_linker_0, # of connection points: 2
#     Edge 85, Type (0, 0), BuildingBlock: ZUJKAS_clean_linker_0, # of connection points: 2
#     Edge 86, Type (0, 0), BuildingBlock: ZUJKAS_clean_linker_0, # of connection points: 2
#     Edge 87, Type (0, 0), BuildingBlock: ZUJKAS_clean_linker_0, # of connection points: 2
#     Edge 88, Type (0, 0), BuildingBlock: ZUJKAS_clean_linker_0, # of connection points: 2
#     Edge 89, Type (0, 0), BuildingBlock: ZUJKAS_clean_linker_0, # of connection points: 2
#     Edge 90, Type (0, 0), BuildingBlock: ZUJKAS_clean_linker_0, # of connection points: 2
#     Edge 91, Type (0, 0), BuildingBlock: ZUJKAS_clean_linker_0, # of connection points: 2
#     Edge 92, Type (0, 0), BuildingBlock: ZUJKAS_clean_linker_0, # of connection points: 2
#     Edge 93, Type (0, 0), BuildingBlock: ZUJKAS_clean_linker_0, # of connection points: 2
#     Edge 94, Type (0, 0), BuildingBlock: ZUJKAS_clean_linker_0, # of connection points: 2
#     Edge 95, Type (0, 0), BuildingBlock: ZUJKAS_clean_linker_0, # of connection points: 2
#     Edge 96, Type (0, 0), BuildingBlock: ZUJKAS_clean_linker_0, # of connection points: 2
#     Edge 97, Type (0, 0), BuildingBlock: ZUJKAS_clean_linker_0, # of connection points: 2
#     Edge 98, Type (0, 0), BuildingBlock: ZUJKAS_clean_linker_0, # of connection points: 2
#     Edge 99, Type (0, 0), BuildingBlock: ZUJKAS_clean_linker_0, # of connection points: 2
#     Edge 100, Type (0, 0), BuildingBlock: ZUJKAS_clean_linker_0, # of connection points: 2
#     Edge 101, Type (0, 0), BuildingBlock: ZUJKAS_clean_linker_0, # of connection points: 2
#     Edge 102, Type (0, 0), BuildingBlock: ZUJKAS_clean_linker_0, # of connection points: 2
#     Edge 103, Type (0, 0), BuildingBlock: ZUJKAS_clean_linker_0, # of connection points: 2
#     Edge 104, Type (0, 0), BuildingBlock: ZUJKAS_clean_linker_0, # of connection points: 2
#     Edge 105, Type (0, 0), BuildingBlock: ZUJKAS_clean_linker_0, # of connection points: 2
#     Edge 106, Type (0, 0), BuildingBlock: ZUJKAS_clean_linker_0, # of connection points: 2
#     Edge 107, Type (0, 0), BuildingBlock: ZUJKAS_clean_linker_0, # of connection points: 2
#     Edge 108, Type (0, 0), BuildingBlock: ZUJKAS_clean_linker_0, # of connection points: 2
#     Edge 109, Type (0, 0), BuildingBlock: ZUJKAS_clean_linker_0, # of connection points: 2
#     Edge 110, Type (0, 0), BuildingBlock: ZUJKAS_clean_linker_0, # of connection points: 2
#     Edge 111, Type (0, 0), BuildingBlock: ZUJKAS_clean_linker_0, # of connection points: 2
#     Edge 112, Type (0, 0), BuildingBlock: ZUJKAS_clean_linker_0, # of connection points: 2
#     Edge 113, Type (0, 0), BuildingBlock: ZUJKAS_clean_linker_0, # of connection points: 2
#     Edge 114, Type (0, 0), BuildingBlock: ZUJKAS_clean_linker_0, # of connection points: 2
#     Edge 115, Type (0, 0), BuildingBlock: ZUJKAS_clean_linker_0, # of connection points: 2
#     Edge 116, Type (0, 0), BuildingBlock: ZUJKAS_clean_linker_0, # of connection points: 2
#     Edge 117, Type (0, 0), BuildingBlock: ZUJKAS_clean_linker_0, # of connection points: 2
#     Edge 118, Type (0, 0), BuildingBlock: ZUJKAS_clean_linker_0, # of connection points: 2
#     Edge 119, Type (0, 0), BuildingBlock: ZUJKAS_clean_linker_0, # of connection points: 2
#     Edge 120, Type (0, 0), BuildingBlock: ZUJKAS_clean_linker_0, # of connection points: 2
#     Edge 121, Type (0, 0), BuildingBlock: ZUJKAS_clean_linker_0, # of connection points: 2
#     Edge 122, Type (0, 0), BuildingBlock: ZUJKAS_clean_linker_0, # of connection points: 2
#     Edge 123, Type (0, 0), BuildingBlock: ZUJKAS_clean_linker_0, # of connection points: 2
#     Edge 124, Type (0, 0), BuildingBlock: ZUJKAS_clean_linker_0, # of connection points: 2
#     Edge 125, Type (0, 0), BuildingBlock: ZUJKAS_clean_linker_0, # of connection points: 2
# Relax obj value: 0.493
# Max RMSD: 0.266
# Mean RMSD: 0.266
data_MOF--net-wlf--node1-BEQFEK_clean_sbu_0--edge1-ZUJKAS_clean_linker_0
_symmetry_space_group_name_H-M    P1
_symmetry_Int_Tables_number       1
_symmetry_cell_setting            triclinic
loop_
_symmetry_equiv_pos_as_xyz
'x, y, z'
_cell_length_a     140.2556
_cell_length_b     140.27495
_cell_length_c     34.87608
_cell_angle_alpha  89.990428
_cell_angle_beta   90.021235
_cell_angle_gamma 119.97083
loop_
_atom_site_label
_atom_site_type_symbol
_atom_site_fract_x
_atom_site_fract_y
_atom_site_fract_z
_atom_type_partial_charge
Co0 Co 0.27824 0.16253 0.32809 0.0
Co1 Co 0.26216 0.17173 0.3405 0.0
C2 C 0.28644 0.18629 0.34957 0.0
O3 O 0.28748 0.17802 0.34161 0.0
O4 O 0.27694 0.18543 0.35062 0.0
C5 C 0.29846 0.16239 0.3204 0.0
O6 O 0.30151 0.16903 0.35011 0.0
C7 C 0.25086 0.18438 0.3244 0.0
C8 C 0.2343 0.17325 0.34774 0.0
C9 C 0.24039 0.18311 0.32824 0.0
N10 N 0.25084 0.17564 0.3406 0.0
N11 N 0.24094 0.1691 0.35488 0.0
C12 C 0.26047 0.19315 0.30286 0.0
H13 H 0.26625 0.19025 0.29476 0.0
H14 H 0.25766 0.19556 0.27674 0.0
H15 H 0.26492 0.20049 0.32148 0.0
C16 C 0.26723 0.15623 0.25392 0.0
N17 N 0.26861 0.16101 0.28837 0.0
N18 N 0.26194 0.16502 0.2918 0.0
C19 C 0.25608 0.16289 0.25885 0.0
C20 C 0.25938 0.15737 0.23365 0.0
C21 C 0.27288 0.15006 0.2417 0.0
H22 H 0.27299 0.14496 0.26582 0.0
H23 H 0.28151 0.15604 0.23369 0.0
H24 H 0.2687 0.14458 0.21693 0.0
O25 O 0.26995 0.15393 0.37257 0.0
O26 O 0.25868 0.16052 0.3832 0.0
H27 H 0.24163 0.16342 0.27499 0.0
H28 H 0.24335 0.16294 0.22372 0.0
C29 C 0.2477 0.16628 0.25127 0.0
H30 H 0.25185 0.17538 0.25004 0.0
H31 H 0.23862 0.16163 0.36846 0.0
O32 O 0.28856 0.15793 0.30887 0.0
C33 C 0.26231 0.15404 0.39193 0.0
Co34 Co 0.84287 0.11596 0.32249 0.0
Co35 Co 0.83228 0.09069 0.33906 0.0
C36 C 0.81924 0.10219 0.3479 0.0
O37 O 0.8278 0.11113 0.33878 0.0
O38 O 0.8194 0.09317 0.34885 0.0
C39 C 0.84531 0.13727 0.31453 0.0
O40 O 0.83954 0.13461 0.34636 0.0
C41 C 0.81869 0.06692 0.32156 0.0
C42 C 0.82746 0.06007 0.3537 0.0
C43 C 0.81873 0.05717 0.32877 0.0
N44 N 0.82712 0.07516 0.34077 0.0
N45 N 0.83226 0.07097 0.36017 0.0
C46 C 0.81058 0.0684 0.2981 0.0
H47 H 0.81014 0.07567 0.30807 0.0
H48 H 0.81322 0.0698 0.2677 0.0
H49 H 0.80229 0.06096 0.29979 0.0
C50 C 0.84776 0.1096 0.24878 0.0
N51 N 0.84298 0.10687 0.28347 0.0
N52 N 0.83916 0.09633 0.28992 0.0
C53 C 0.84179 0.0921 0.2594 0.0
C54 C 0.84715 0.10037 0.23228 0.0
C55 C 0.85354 0.12106 0.23295 0.0
H56 H 0.86016 0.12657 0.25297 0.0
H57 H 0.84758 0.12404 0.23049 0.0
H58 H 0.85718 0.12148 0.20433 0.0
O59 O 0.85183 0.116 0.36589 0.0
O60 O 0.84357 0.09817 0.38116 0.0
H61 H 0.84197 0.07836 0.28556 0.0
H62 H 0.84547 0.08015 0.23507 0.0
C63 C 0.84013 0.08073 0.25738 0.0
H64 H 0.83145 0.07486 0.24995 0.0
H65 H 0.8392 0.07559 0.37717 0.0
O66 O 0.84847 0.13086 0.30148 0.0
C67 C 0.85092 0.1082 0.38714 0.0
Co68 Co 0.88764 0.72749 0.31715 0.0
Co69 Co 0.91254 0.74367 0.33489 0.0
C70 C 0.90278 0.71923 0.34207 0.0
O71 O 0.89355 0.71808 0.33224 0.0
O72 O 0.9113 0.72878 0.34442 0.0
C73 C 0.86708 0.70776 0.30842 0.0
O74 O 0.87024 0.70472 0.33927 0.0
C75 C 0.93635 0.75477 0.31964 0.0
C76 C 0.94229 0.77084 0.34797 0.0
C77 C 0.94575 0.76493 0.32578 0.0
N78 N 0.92779 0.75476 0.33724 0.0
N79 N 0.93144 0.76435 0.35447 0.0
C80 C 0.93518 0.74561 0.29448 0.0
H81 H 0.92649 0.7404 0.28526 0.0
H82 H 0.94059 0.74893 0.26896 0.0
H83 H 0.93763 0.7404 0.31088 0.0
C84 C 0.8934 0.73912 0.24414 0.0
N85 N 0.89632 0.73728 0.27882 0.0
N86 N 0.90674 0.74445 0.28543 0.0
C87 C 0.91071 0.7513 0.25482 0.0
C88 C 0.90237 0.74803 0.22768 0.0
C89 C 0.88198 0.73284 0.22808 0.0
H90 H 0.87615 0.7334 0.24817 0.0
H91 H 0.87958 0.72405 0.22525 0.0
H92 H 0.88133 0.736 0.1996 0.0
O93 O 0.88675 0.7356 0.36139 0.0
O94 O 0.90434 0.7467 0.37668 0.0
H95 H 0.92401 0.76585 0.2796 0.0
H96 H 0.9226 0.76659 0.22818 0.0
C97 C 0.92198 0.76116 0.25237 0.0
H98 H 0.92806 0.75841 0.24787 0.0
H99 H 0.92645 0.76658 0.36966 0.0
O100 O 0.87293 0.71752 0.29604 0.0
C101 C 0.89408 0.74298 0.38279 0.0
Co102 Co 0.16502 0.27696 0.17768 0.0
Co103 Co 0.17328 0.26002 0.1659 0.0
C104 C 0.18826 0.28433 0.15443 0.0
O105 O 0.18053 0.28602 0.1643 0.0
O106 O 0.18678 0.2746 0.15242 0.0
C107 C 0.16523 0.29738 0.18444 0.0
O108 O 0.17234 0.30046 0.15612 0.0
C109 C 0.18618 0.24895 0.18373 0.0
C110 C 0.17543 0.23239 0.15965 0.0
C111 C 0.18518 0.2386 0.17961 0.0
N112 N 0.17734 0.24875 0.1675 0.0
N113 N 0.17101 0.23883 0.15301 0.0
C114 C 0.19563 0.25898 0.20119 0.0
H115 H 0.19615 0.26656 0.18955 0.0
H116 H 0.19445 0.25894 0.23262 0.0
H117 H 0.20348 0.2591 0.19576 0.0
C118 C 0.15872 0.2664 0.25254 0.0
N119 N 0.16338 0.26746 0.21801 0.0
N120 N 0.16695 0.26043 0.21477 0.0
C121 C 0.16463 0.25461 0.24789 0.0
C122 C 0.15948 0.25836 0.27308 0.0
C123 C 0.1529 0.27243 0.26439 0.0
H124 H 0.14769 0.27241 0.24044 0.0
H125 H 0.15909 0.28109 0.27117 0.0
H126 H 0.14756 0.26862 0.28974 0.0
O127 O 0.15639 0.26851 0.13321 0.0
O128 O 0.16185 0.25625 0.124 0.0
H129 H 0.16408 0.23963 0.23168 0.0
H130 H 0.16389 0.2415 0.28301 0.0
C131 C 0.16732 0.24572 0.25534 0.0
H132 H 0.17637 0.24937 0.25621 0.0
H133 H 0.16357 0.2364 0.13898 0.0
O134 O 0.16047 0.28743 0.19562 0.0
C135 C 0.15587 0.26043 0.1147 0.0
Co136 Co 0.72824 0.89006 0.17445 0.0
Co137 Co 0.74493 0.91491 0.15866 0.0
C138 C 0.72098 0.90601 0.14758 0.0
O139 O 0.71976 0.89673 0.15662 0.0
O140 O 0.73052 0.91454 0.14727 0.0
C141 C 0.71072 0.87731 0.21938 0.0
O142 O 0.71284 0.88739 0.22637 0.0
C143 C 0.75652 0.93869 0.17347 0.0
C144 C 0.77294 0.94416 0.14872 0.0
C145 C 0.76691 0.94791 0.16881 0.0
N146 N 0.75648 0.92999 0.15706 0.0
N147 N 0.76629 0.93335 0.14194 0.0
C148 C 0.74709 0.93782 0.19631 0.0
H149 H 0.74157 0.92919 0.20552 0.0
H150 H 0.75011 0.94327 0.22183 0.0
H151 H 0.74227 0.9404 0.17816 0.0
C152 C 0.73982 0.89511 0.24795 0.0
N153 N 0.7381 0.89831 0.21353 0.0
N154 N 0.74509 0.90886 0.20849 0.0
C155 C 0.75149 0.91269 0.24031 0.0
C156 C 0.74819 0.90409 0.26634 0.0
C157 C 0.73419 0.88345 0.26198 0.0
H158 H 0.73229 0.8777 0.23764 0.0
H159 H 0.72643 0.88158 0.27664 0.0
H160 H 0.73941 0.88217 0.28293 0.0
O161 O 0.73625 0.88864 0.13103 0.0
O162 O 0.74771 0.9063 0.11729 0.0
H163 H 0.76624 0.92663 0.21961 0.0
H164 H 0.7658 0.92485 0.27112 0.0
C165 C 0.76087 0.92416 0.24528 0.0
H166 H 0.75761 0.92986 0.24841 0.0
H167 H 0.76855 0.92818 0.12804 0.0
O168 O 0.71682 0.87588 0.19582 0.0
C169 C 0.74382 0.89603 0.11029 0.0
Co170 Co 0.11456 0.83792 0.18411 0.0
Co171 Co 0.08962 0.82919 0.16603 0.0
C172 C 0.0995 0.81446 0.16104 0.0
O173 O 0.10872 0.82252 0.17091 0.0
O174 O 0.09106 0.81559 0.15758 0.0
C175 C 0.13518 0.83892 0.19339 0.0
O176 O 0.13198 0.83256 0.16292 0.0
C177 C 0.06582 0.81671 0.18366 0.0
C178 C 0.05949 0.82555 0.14915 0.0
C179 C 0.05624 0.817 0.17521 0.0
N180 N 0.07425 0.8248 0.16398 0.0
N181 N 0.07038 0.83 0.14325 0.0
C182 C 0.06694 0.80867 0.20876 0.0
H183 H 0.0743 0.80815 0.20072 0.0
H184 H 0.06795 0.81144 0.23901 0.0
H185 H 0.05949 0.8004 0.20665 0.0
C186 C 0.10893 0.84465 0.2555 0.0
N187 N 0.10589 0.83938 0.22172 0.0
N188 N 0.0955 0.83622 0.2148 0.0
C189 C 0.09168 0.83971 0.24418 0.0
C190 C 0.1001 0.84514 0.27079 0.0
C191 C 0.12021 0.84933 0.27241 0.0
H192 H 0.12248 0.84282 0.27365 0.0
H193 H 0.12068 0.85257 0.30179 0.0
H194 H 0.12623 0.85606 0.25374 0.0
O195 O 0.1153 0.84652 0.13869 0.0
O196 O 0.09771 0.8402 0.12357 0.0
H197 H 0.07862 0.8408 0.21636 0.0
H198 H 0.08045 0.84467 0.26654 0.0
C199 C 0.08065 0.83893 0.24509 0.0
H200 H 0.07431 0.83043 0.25296 0.0
H201 H 0.0752 0.83669 0.12549 0.0
O202 O 0.12934 0.84291 0.20525 0.0
C203 C 0.10799 0.84658 0.11716 0.0
Co204 Co 0.72524 0.83839 0.6737 0.0
Co205 Co 0.74359 0.83226 0.65838 0.0
C206 C 0.71951 0.81566 0.64994 0.0
O207 O 0.71703 0.82284 0.65985 0.0
O208 O 0.72951 0.81795 0.64738 0.0
C209 C 0.70409 0.83637 0.68484 0.0
O210 O 0.70102 0.82898 0.65746 0.0
C211 C 0.75576 0.82076 0.67571 0.0
C212 C 0.77194 0.83151 0.64902 0.0
C213 C 0.76616 0.82198 0.67055 0.0
N214 N 0.75547 0.82915 0.65809 0.0
N215 N 0.76514 0.8355 0.64193 0.0
C216 C 0.74653 0.81241 0.6998 0.0
H217 H 0.74106 0.81559 0.70896 0.0
H218 H 0.74978 0.81026 0.72539 0.0
H219 H 0.74159 0.80485 0.6826 0.0
C220 C 0.73645 0.84527 0.74782 0.0
N221 N 0.73529 0.84067 0.71305 0.0
N222 N 0.74326 0.83846 0.70734 0.0
C223 C 0.74994 0.84188 0.73846 0.0
C224 C 0.74572 0.84616 0.7652 0.0
C225 C 0.72924 0.84947 0.76285 0.0
H226 H 0.72909 0.85536 0.74197 0.0
H227 H 0.72072 0.84248 0.76605 0.0
H228 H 0.73213 0.85366 0.79093 0.0
O229 O 0.73301 0.84753 0.62863 0.0
O230 O 0.74604 0.84328 0.61672 0.0
H231 H 0.76526 0.84466 0.71535 0.0
H232 H 0.76534 0.84643 0.76686 0.0
C233 C 0.76037 0.84151 0.74202 0.0
H234 H 0.75834 0.83286 0.74605 0.0
H235 H 0.76719 0.8427 0.62681 0.0
O236 O 0.71421 0.84195 0.69376 0.0
C237 C 0.74115 0.84868 0.60876 0.0
Co238 Co 0.1614 0.88691 0.67879 0.0
Co239 Co 0.16992 0.91192 0.66412 0.0
C240 C 0.18465 0.90222 0.6542 0.0
O241 O 0.17669 0.89295 0.66401 0.0
O242 O 0.18349 0.91067 0.65227 0.0
C243 C 0.16086 0.8665 0.68368 0.0
O244 O 0.16724 0.87025 0.65334 0.0
C245 C 0.18244 0.93559 0.68361 0.0
C246 C 0.17315 0.94202 0.65235 0.0
C247 C 0.18198 0.94516 0.67702 0.0
N248 N 0.17418 0.92724 0.66422 0.0
N249 N 0.1687 0.93117 0.64544 0.0
C250 C 0.19084 0.93443 0.70652 0.0
H251 H 0.19133 0.92716 0.69696 0.0
H252 H 0.18844 0.93323 0.73718 0.0
H253 H 0.19904 0.94194 0.70388 0.0
C254 C 0.15534 0.89181 0.75282 0.0
N255 N 0.16022 0.89515 0.71849 0.0
N256 N 0.16336 0.9056 0.71324 0.0
C257 C 0.16026 0.90917 0.74444 0.0
C258 C 0.15514 0.90052 0.77042 0.0
C259 C 0.15065 0.88034 0.76791 0.0
H260 H 0.15715 0.87803 0.76787 0.0
H261 H 0.14744 0.87951 0.79752 0.0
H262 H 0.1439 0.87455 0.74879 0.0
O263 O 0.15243 0.8865 0.63518 0.0
O264 O 0.15855 0.90417 0.62231 0.0
H265 H 0.15908 0.92261 0.72031 0.0
H266 H 0.15567 0.92023 0.77082 0.0
C267 C 0.16119 0.92023 0.74799 0.0
H268 H 0.16977 0.92642 0.75546 0.0
H269 H 0.16182 0.92642 0.62831 0.0
O270 O 0.15667 0.87197 0.69735 0.0
C271 C 0.15214 0.89395 0.61518 0.0
Co272 Co 0.11583 0.27396 0.68573 0.0
Co273 Co 0.0908 0.25798 0.66843 0.0
C274 C 0.10079 0.28199 0.6553 0.0
O275 O 0.10992 0.28288 0.66474 0.0
O276 O 0.092 0.27266 0.6562 0.0
C277 C 0.12857 0.29163 0.72991 0.0
O278 O 0.11857 0.29009 0.73365 0.0
C279 C 0.06694 0.24672 0.68416 0.0
C280 C 0.06093 0.23097 0.65353 0.0
C281 C 0.05752 0.23665 0.67713 0.0
N282 N 0.07551 0.24686 0.66616 0.0
N283 N 0.07183 0.23744 0.64766 0.0
C284 C 0.06776 0.25626 0.70629 0.0
H285 H 0.07481 0.26409 0.69618 0.0
H286 H 0.06911 0.25534 0.73707 0.0
H287 H 0.06006 0.2566 0.70347 0.0
C288 C 0.10992 0.2624 0.75915 0.0
N289 N 0.10698 0.26446 0.72477 0.0
N290 N 0.09648 0.25748 0.71848 0.0
C291 C 0.09246 0.25063 0.74914 0.0
C292 C 0.10084 0.25372 0.77598 0.0
C293 C 0.12149 0.26783 0.77399 0.0
H294 H 0.12729 0.2692 0.75023 0.0
H295 H 0.12361 0.27589 0.78681 0.0
H296 H 0.1225 0.26281 0.79647 0.0
O297 O 0.1171 0.26523 0.64403 0.0
O298 O 0.09934 0.25494 0.6279 0.0
H299 H 0.07917 0.2362 0.72361 0.0
H300 H 0.08081 0.23505 0.7746 0.0
C301 C 0.08126 0.24066 0.75132 0.0
H302 H 0.0751 0.24321 0.75726 0.0
H303 H 0.07679 0.23535 0.63161 0.0
O304 O 0.13001 0.28508 0.70864 0.0
C305 C 0.10953 0.25807 0.62263 0.0
Co306 Co 0.83998 0.72706 0.82115 0.0
Co307 Co 0.8311 0.74334 0.83598 0.0
C308 C 0.81648 0.71877 0.84341 0.0
O309 O 0.82456 0.71759 0.834 0.0
O310 O 0.81756 0.72835 0.84599 0.0
C311 C 0.84076 0.70725 0.81291 0.0
O312 O 0.83388 0.70395 0.84194 0.0
C313 C 0.8185 0.75451 0.8167 0.0
C314 C 0.82759 0.77003 0.84916 0.0
C315 C 0.81887 0.76447 0.82392 0.0
N316 N 0.82671 0.75434 0.83629 0.0
N317 N 0.83206 0.76363 0.85576 0.0
C318 C 0.81024 0.74509 0.79302 0.0
H319 H 0.8098 0.7373 0.80194 0.0
H320 H 0.81273 0.74651 0.76246 0.0
H321 H 0.802 0.74431 0.79563 0.0
C322 C 0.84667 0.73876 0.74838 0.0
N323 N 0.84149 0.73689 0.78226 0.0
N324 N 0.83812 0.74403 0.78754 0.0
C325 C 0.84134 0.75089 0.75688 0.0
C326 C 0.84683 0.74771 0.7312 0.0
C327 C 0.85146 0.7321 0.73295 0.0
H328 H 0.84497 0.7233 0.73212 0.0
H329 H 0.85483 0.73469 0.70362 0.0
H330 H 0.85811 0.73293 0.75234 0.0
O331 O 0.84835 0.73514 0.86663 0.0
O332 O 0.84215 0.74668 0.8787 0.0
H333 H 0.84206 0.76524 0.78147 0.0
H334 H 0.84567 0.76654 0.73111 0.0
C335 C 0.84015 0.76087 0.75359 0.0
H336 H 0.83155 0.75832 0.74582 0.0
H337 H 0.83886 0.76568 0.8732 0.0
O338 O 0.84509 0.71717 0.80174 0.0
C339 C 0.8484 0.74274 0.88684 0.0
Co340 Co 0.27236 0.11314 0.82172 0.0
Co341 Co 0.25657 0.08817 0.83902 0.0
C342 C 0.2805 0.09788 0.84983 0.0
O343 O 0.28124 0.10698 0.84087 0.0
O344 O 0.27119 0.08905 0.84954 0.0
C345 C 0.28928 0.12538 0.77446 0.0
O346 O 0.28681 0.11516 0.76805 0.0
C347 C 0.24515 0.06429 0.82603 0.0
C348 C 0.22892 0.05883 0.85246 0.0
C349 C 0.23484 0.05505 0.83187 0.0
N350 N 0.24524 0.07304 0.84223 0.0
N351 N 0.23555 0.06969 0.85838 0.0
C352 C 0.25442 0.06511 0.8023 0.0
H353 H 0.25985 0.07372 0.79268 0.0
H354 H 0.25121 0.05958 0.77703 0.0
H355 H 0.25937 0.0626 0.81995 0.0
C356 C 0.26025 0.10739 0.74945 0.0
N357 N 0.26249 0.10442 0.78343 0.0
N358 N 0.25586 0.09382 0.78907 0.0
C359 C 0.24919 0.0897 0.75799 0.0
C360 C 0.25191 0.09819 0.73192 0.0
C361 C 0.26535 0.119 0.73521 0.0
H362 H 0.26737 0.12476 0.75958 0.0
H363 H 0.273 0.1211 0.71929 0.0
H364 H 0.25975 0.12002 0.71531 0.0
O365 O 0.26408 0.1146 0.86422 0.0
O366 O 0.25386 0.09685 0.88021 0.0
H367 H 0.23479 0.07569 0.78027 0.0
H368 H 0.23477 0.07716 0.7287 0.0
C369 C 0.23995 0.07812 0.7541 0.0
H370 H 0.24338 0.07256 0.75086 0.0
H371 H 0.23335 0.07489 0.87232 0.0
O372 O 0.28359 0.12718 0.79876 0.0
C373 C 0.25703 0.10703 0.88583 0.0
Co374 Co 0.88966 0.16237 0.82954 0.0
Co375 Co 0.91464 0.17047 0.84216 0.0
C376 C 0.90606 0.18556 0.85631 0.0
O377 O 0.89671 0.17747 0.84815 0.0
O378 O 0.91463 0.18459 0.85495 0.0
C379 C 0.87734 0.16783 0.7855 0.0
O380 O 0.88757 0.17537 0.77819 0.0
C381 C 0.93851 0.18221 0.82737 0.0
C382 C 0.94321 0.17023 0.84781 0.0
C383 C 0.9474 0.18042 0.83021 0.0
N384 N 0.92956 0.17348 0.84238 0.0
N385 N 0.93247 0.16641 0.85494 0.0
C386 C 0.93816 0.19149 0.80756 0.0
H387 H 0.9296 0.189 0.799 0.0
H388 H 0.94355 0.19416 0.78188 0.0
H389 H 0.94112 0.19857 0.82756 0.0
C390 C 0.894 0.15592 0.75512 0.0
N391 N 0.89757 0.16072 0.78945 0.0
N392 N 0.90822 0.16456 0.79251 0.0
C393 C 0.91179 0.16244 0.75914 0.0
C394 C 0.90287 0.15704 0.73424 0.0
C395 C 0.88212 0.14937 0.74377 0.0
H396 H 0.87685 0.14577 0.76943 0.0
H397 H 0.87969 0.15482 0.72884 0.0
H398 H 0.88072 0.14263 0.72382 0.0
O399 O 0.88831 0.15269 0.8717 0.0
O400 O 0.9061 0.15889 0.88329 0.0
H401 H 0.92647 0.16218 0.77393 0.0
H402 H 0.92431 0.16241 0.72284 0.0
C403 C 0.92346 0.16553 0.75111 0.0
H404 H 0.92866 0.17461 0.75125 0.0
H405 H 0.92704 0.15882 0.86726 0.0
O406 O 0.87556 0.16017 0.80905 0.0
C407 C 0.89589 0.15246 0.8911 0.0
Co408 Co 0.94321 0.49768 0.66485 0.0
Co409 Co 0.92431 0.50308 0.67881 0.0
C410 C 0.94783 0.51995 0.69214 0.0
O411 O 0.95054 0.51288 0.68313 0.0
O412 O 0.93782 0.51763 0.69163 0.0
C413 C 0.96147 0.50391 0.62157 0.0
O414 O 0.95881 0.51149 0.61464 0.0
C415 C 0.91176 0.51412 0.6622 0.0
C416 C 0.89537 0.50275 0.68621 0.0
C417 C 0.90123 0.5126 0.66642 0.0
N418 N 0.91207 0.5056 0.67871 0.0
N419 N 0.90226 0.49887 0.69329 0.0
C420 C 0.92115 0.5229 0.63983 0.0
H421 H 0.9268 0.51997 0.6303 0.0
H422 H 0.9181 0.52538 0.61453 0.0
H423 H 0.92585 0.5302 0.65845 0.0
C424 C 0.93215 0.49042 0.59017 0.0
N425 N 0.93326 0.4952 0.6246 0.0
N426 N 0.92527 0.49745 0.62943 0.0
C427 C 0.9188 0.49409 0.59776 0.0
C428 C 0.92309 0.4897 0.57178 0.0
C429 C 0.93887 0.48548 0.5766 0.0
H430 H 0.94108 0.48193 0.60107 0.0
H431 H 0.9465 0.49197 0.56291 0.0
H432 H 0.93432 0.47891 0.55504 0.0
O433 O 0.93536 0.48777 0.7081 0.0
O434 O 0.92216 0.49186 0.71965 0.0
H435 H 0.90316 0.49095 0.61875 0.0
H436 H 0.90382 0.49001 0.56712 0.0
C437 C 0.90843 0.49454 0.5931 0.0
H438 H 0.9105 0.50324 0.59052 0.0
H439 H 0.90021 0.49152 0.70732 0.0
O440 O 0.95552 0.49612 0.64452 0.0
C441 C 0.92707 0.48646 0.72753 0.0
Co442 Co 0.50881 0.44827 0.6557 0.0
Co443 Co 0.49999 0.42337 0.67333 0.0
C444 C 0.48515 0.43324 0.67515 0.0
O445 O 0.49328 0.44249 0.66608 0.0
O446 O 0.4863 0.42483 0.67935 0.0
C447 C 0.51058 0.46925 0.64812 0.0
O448 O 0.50436 0.46616 0.67891 0.0
C449 C 0.48768 0.39979 0.65355 0.0
C450 C 0.49498 0.39279 0.69266 0.0
C451 C 0.48729 0.39 0.66356 0.0
N452 N 0.49534 0.40796 0.67534 0.0
N453 N 0.49963 0.4037 0.69876 0.0
C454 C 0.48046 0.40127 0.6254 0.0
H455 H 0.4805 0.40907 0.63078 0.0
H456 H 0.48351 0.40157 0.59588 0.0
H457 H 0.47192 0.39422 0.62708 0.0
C458 C 0.5158 0.44276 0.58438 0.0
N459 N 0.5107 0.43976 0.6185 0.0
N460 N 0.50756 0.42937 0.62534 0.0
C461 C 0.51099 0.42556 0.5957 0.0
C462 C 0.51614 0.43391 0.5687 0.0
C463 C 0.52068 0.4541 0.56786 0.0
H464 H 0.52689 0.4601 0.58806 0.0
H465 H 0.51409 0.45621 0.5642 0.0
H466 H 0.52467 0.45479 0.53973 0.0
O467 O 0.5166 0.44885 0.7032 0.0
O468 O 0.51043 0.43126 0.71752 0.0
H469 H 0.51075 0.41176 0.6234 0.0
H470 H 0.51674 0.41477 0.57583 0.0
C471 C 0.51015 0.41452 0.59418 0.0
H472 H 0.50212 0.40848 0.58152 0.0
H473 H 0.5058 0.40825 0.71871 0.0
O474 O 0.5141 0.46312 0.63515 0.0
C475 C 0.51648 0.44152 0.72512 0.0
Co476 Co 0.55579 0.06013 0.66219 0.0
Co477 Co 0.58018 0.07891 0.67411 0.0
C478 C 0.57365 0.05556 0.6887 0.0
O479 O 0.56391 0.05299 0.67971 0.0
O480 O 0.58138 0.06555 0.6884 0.0
C481 C 0.54382 0.04182 0.61957 0.0
O482 O 0.55409 0.04479 0.61157 0.0
C483 C 0.60383 0.09182 0.6578 0.0
C484 C 0.60811 0.10843 0.67769 0.0
C485 C 0.61252 0.10261 0.66018 0.0
N486 N 0.5948 0.09135 0.67307 0.0
N487 N 0.59744 0.10129 0.68524 0.0
C488 C 0.60372 0.08228 0.63814 0.0
H489 H 0.59522 0.0761 0.6295 0.0
H490 H 0.60913 0.08507 0.6125 0.0
H491 H 0.60679 0.07829 0.65828 0.0
C492 C 0.55901 0.07067 0.58731 0.0
N493 N 0.56295 0.06986 0.62154 0.0
N494 N 0.57336 0.07754 0.62462 0.0
C495 C 0.57641 0.0834 0.59149 0.0
C496 C 0.56741 0.07909 0.56663 0.0
C497 C 0.5471 0.06435 0.5762 0.0
H498 H 0.5418 0.06234 0.60193 0.0
H499 H 0.54536 0.05661 0.5617 0.0
H500 H 0.54501 0.06916 0.55604 0.0
O501 O 0.55388 0.06811 0.70488 0.0
O502 O 0.57124 0.08132 0.71494 0.0
H503 H 0.58989 0.09919 0.60657 0.0
H504 H 0.58814 0.09668 0.55543 0.0
C505 C 0.58765 0.09291 0.58381 0.0
H506 H 0.5937 0.09003 0.58448 0.0
H507 H 0.59188 0.10326 0.69777 0.0
O508 O 0.54191 0.04765 0.6429 0.0
C509 C 0.56098 0.07652 0.72344 0.0
Co510 Co 0.83089 0.60993 0.51665 0.0
Co511 Co 0.83921 0.5934 0.49805 0.0
C512 C 0.85406 0.61796 0.49094 0.0
O513 O 0.84617 0.61927 0.50178 0.0
O514 O 0.8528 0.60833 0.48769 0.0
C515 C 0.8304 0.62983 0.52736 0.0
O516 O 0.83708 0.6332 0.49775 0.0
C517 C 0.85142 0.58187 0.51625 0.0
C518 C 0.84247 0.56665 0.48214 0.0
C519 C 0.85096 0.57191 0.50841 0.0
N520 N 0.84345 0.58232 0.49611 0.0
N521 N 0.83819 0.57322 0.47558 0.0
C522 C 0.85952 0.59104 0.54121 0.0
H523 H 0.86031 0.59898 0.53224 0.0
H524 H 0.85661 0.58951 0.57132 0.0
H525 H 0.86768 0.59159 0.54 0.0
C526 C 0.82476 0.59804 0.58898 0.0
N527 N 0.82971 0.60002 0.55464 0.0
N528 N 0.83261 0.59261 0.54744 0.0
C529 C 0.82921 0.5854 0.57715 0.0
C530 C 0.82419 0.58869 0.60432 0.0
C531 C 0.82035 0.60484 0.60624 0.0
H532 H 0.82692 0.61361 0.6065 0.0
H533 H 0.81741 0.60229 0.63604 0.0
H534 H 0.81344 0.60407 0.58839 0.0
O535 O 0.82188 0.60186 0.47216 0.0
O536 O 0.8279 0.59036 0.45674 0.0
H537 H 0.8277 0.57112 0.54892 0.0
H538 H 0.82361 0.56903 0.59886 0.0
C539 C 0.82958 0.57493 0.5778 0.0
H540 H 0.83793 0.57673 0.58619 0.0
H541 H 0.83154 0.5714 0.45762 0.0
O542 O 0.8261 0.61987 0.53804 0.0
C543 C 0.82156 0.59433 0.4508 0.0
Co544 Co 0.39567 0.22257 0.51508 0.0
Co545 Co 0.41263 0.24732 0.49799 0.0
C546 C 0.38854 0.23859 0.48877 0.0
O547 O 0.38714 0.22927 0.49822 0.0
O548 O 0.39818 0.24695 0.4874 0.0
C549 C 0.37864 0.21038 0.56217 0.0
O550 O 0.38145 0.22063 0.56979 0.0
C551 C 0.42461 0.27098 0.51576 0.0
C552 C 0.43933 0.27724 0.47897 0.0
C553 C 0.4343 0.28049 0.50604 0.0
N554 N 0.42403 0.26249 0.49576 0.0
N555 N 0.43285 0.26631 0.47375 0.0
C556 C 0.41566 0.27007 0.54158 0.0
H557 H 0.40816 0.26189 0.53883 0.0
H558 H 0.4184 0.27119 0.57184 0.0
H559 H 0.41373 0.27665 0.53461 0.0
C560 C 0.40806 0.22757 0.58689 0.0
N561 N 0.40592 0.23085 0.55331 0.0
N562 N 0.41315 0.2413 0.54744 0.0
C563 C 0.42019 0.24496 0.5777 0.0
C564 C 0.41701 0.23638 0.60373 0.0
C565 C 0.40227 0.21593 0.60121 0.0
H566 H 0.39996 0.21011 0.57686 0.0
H567 H 0.39472 0.21432 0.6168 0.0
H568 H 0.4075 0.21444 0.62138 0.0
O569 O 0.40338 0.22099 0.4707 0.0
O570 O 0.41511 0.23858 0.45653 0.0
H571 H 0.43444 0.25841 0.55182 0.0
H572 H 0.43622 0.25595 0.60158 0.0
C573 C 0.43037 0.25599 0.5802 0.0
H574 H 0.42813 0.26218 0.5893 0.0
H575 H 0.43447 0.26144 0.45521 0.0
O576 O 0.38417 0.20854 0.53734 0.0
C577 C 0.41098 0.22827 0.44968 0.0
Co578 Co 0.78083 0.17523 0.51489 0.0
Co579 Co 0.75589 0.16692 0.49852 0.0
C580 C 0.76511 0.15208 0.48738 0.0
O581 O 0.77433 0.16012 0.49702 0.0
O582 O 0.75656 0.15308 0.48656 0.0
C583 C 0.79312 0.17035 0.56127 0.0
O584 O 0.78289 0.1627 0.56808 0.0
C585 C 0.73197 0.15491 0.51435 0.0
C586 C 0.72649 0.16524 0.48468 0.0
C587 C 0.72277 0.15599 0.50768 0.0
N588 N 0.74072 0.16325 0.49672 0.0
N589 N 0.73734 0.16933 0.4788 0.0
C590 C 0.73237 0.14584 0.53564 0.0
H591 H 0.73928 0.14483 0.52539 0.0
H592 H 0.73366 0.14784 0.56661 0.0
H593 H 0.72451 0.13797 0.53215 0.0
C594 C 0.77572 0.18229 0.58702 0.0
N595 N 0.77246 0.17691 0.55341 0.0
N596 N 0.76189 0.17327 0.54823 0.0
C597 C 0.7581 0.17623 0.57925 0.0
C598 C 0.76677 0.18194 0.60474 0.0
C599 C 0.78738 0.18824 0.60112 0.0
H600 H 0.79314 0.19192 0.5767 0.0
H601 H 0.78915 0.18234 0.6162 0.0
H602 H 0.78882 0.19486 0.62168 0.0
O603 O 0.78223 0.18464 0.47127 0.0
O604 O 0.76453 0.1784 0.45758 0.0
H605 H 0.74433 0.17696 0.5561 0.0
H606 H 0.74634 0.17959 0.6071 0.0
C607 C 0.74677 0.17461 0.58315 0.0
H608 H 0.74088 0.16583 0.58897 0.0
H609 H 0.74249 0.17641 0.46313 0.0
O610 O 0.79491 0.17788 0.53713 0.0
C611 C 0.7748 0.1848 0.45064 0.0
Co612 Co 0.39337 0.17392 0.01417 0.0
Co613 Co 0.40887 0.16423 0.99786 0.0
C614 C 0.38419 0.15034 0.99091 0.0
O615 O 0.38338 0.15863 1.00047 0.0
O616 O 0.39361 0.15105 0.98841 0.0
C617 C 0.37402 0.17549 0.02438 0.0
O618 O 0.37044 0.16887 0.9946 0.0
C619 C 0.41921 0.15089 0.0166 0.0
C620 C 0.43385 0.15825 0.97912 0.0
C621 C 0.42844 0.15018 0.00666 0.0
N622 N 0.41926 0.15908 0.99619 0.0
N623 N 0.42803 0.16341 0.97379 0.0
C624 C 0.4101 0.14348 0.04313 0.0
H625 H 0.40269 0.14421 0.03824 0.0
H626 H 0.41274 0.14578 0.07327 0.0
H627 H 0.40808 0.13482 0.03905 0.0
C628 C 0.40497 0.1796 0.08746 0.0
N629 N 0.40305 0.17479 0.05285 0.0
N630 N 0.41002 0.17124 0.04666 0.0
C631 C 0.41689 0.17411 0.07724 0.0
C632 C 0.41374 0.17932 0.10417 0.0
C633 C 0.39887 0.18495 0.10334 0.0
H634 H 0.39967 0.19146 0.08333 0.0
H635 H 0.39001 0.17871 0.10584 0.0
H636 H 0.402 0.18867 0.13194 0.0
O637 O 0.40158 0.18232 0.96867 0.0
O638 O 0.41244 0.1754 0.95547 0.0
H639 H 0.43057 0.17378 0.05098 0.0
H640 H 0.43294 0.17878 0.09993 0.0
C641 C 0.42678 0.17273 0.07967 0.0
H642 H 0.42426 0.16437 0.09037 0.0
H643 H 0.43006 0.16993 0.95492 0.0
O644 O 0.38395 0.17943 0.03499 0.0
C645 C 0.4089 0.18201 0.9479 0.0
Co646 Co 0.83024 0.22096 0.01882 0.0
Co647 Co 0.83905 0.24587 1.00027 0.0
C648 C 0.85356 0.23577 0.99357 0.0
O649 O 0.8455 0.22662 0.00396 0.0
O650 O 0.85253 0.24429 0.99058 0.0
C651 C 0.82922 0.20032 0.0282 0.0
O652 O 0.83519 0.20327 0.9968 0.0
C653 C 0.85172 0.26963 0.01794 0.0
C654 C 0.84276 0.27607 0.98471 0.0
C655 C 0.85139 0.27922 0.01037 0.0
N656 N 0.84356 0.26126 0.99826 0.0
N657 N 0.8383 0.26521 0.97822 0.0
C658 C 0.85986 0.26844 0.04227 0.0
H659 H 0.86056 0.26127 0.0329 0.0
H660 H 0.85707 0.26704 0.07251 0.0
H661 H 0.86806 0.27601 0.04085 0.0
C662 C 0.82456 0.22702 0.09168 0.0
N663 N 0.82927 0.22982 0.0569 0.0
N664 N 0.83237 0.24017 0.04963 0.0
C665 C 0.82929 0.24417 0.07963 0.0
C666 C 0.82443 0.23599 0.10736 0.0
C667 C 0.8195 0.21568 0.10831 0.0
H668 H 0.81307 0.20976 0.08852 0.0
H669 H 0.82592 0.21332 0.11124 0.0
H670 H 0.81574 0.21513 0.1368 0.0
O671 O 0.82135 0.22016 0.97403 0.0
O672 O 0.82775 0.23773 0.95863 0.0
H673 H 0.82813 0.25722 0.05201 0.0
H674 H 0.82435 0.25538 0.10224 0.0
C675 C 0.83006 0.2552 0.08064 0.0
H676 H 0.83855 0.26155 0.0885 0.0
H677 H 0.83152 0.26044 0.96071 0.0
O678 O 0.82541 0.20627 0.04052 0.0
C679 C 0.82127 0.22746 0.9525 0.0
Co680 Co 0.78288 0.60906 0.01488 0.0
Co681 Co 0.75798 0.59279 0.9976 0.0
C682 C 0.76761 0.6172 0.99014 0.0
O683 O 0.77686 0.61839 0.99991 0.0
O684 O 0.75911 0.60763 0.98786 0.0
C685 C 0.80339 0.62887 0.02355 0.0
O686 O 0.80014 0.63193 0.99294 0.0
C687 C 0.73415 0.58128 0.01325 0.0
C688 C 0.72849 0.5654 0.98389 0.0
C689 C 0.72487 0.57103 0.00685 0.0
N690 N 0.74278 0.58158 0.99513 0.0
N691 N 0.7393 0.57211 0.97725 0.0
C692 C 0.73516 0.59027 0.03901 0.0
H693 H 0.74387 0.5957 0.04765 0.0
H694 H 0.72994 0.58676 0.06487 0.0
H695 H 0.73236 0.59531 0.02334 0.0
C696 C 0.7773 0.5974 0.08777 0.0
N697 N 0.77428 0.59923 0.05327 0.0
N698 N 0.76383 0.59209 0.04704 0.0
C699 C 0.75991 0.5853 0.07785 0.0
C700 C 0.76836 0.58851 0.1045 0.0
C701 C 0.78866 0.60396 0.10407 0.0
H702 H 0.79459 0.60327 0.08486 0.0
H703 H 0.79094 0.61275 0.10552 0.0
H704 H 0.78927 0.60117 0.13325 0.0
O705 O 0.78378 0.60096 0.97075 0.0
O706 O 0.76618 0.58972 0.956 0.0
H707 H 0.74639 0.57084 0.05346 0.0
H708 H 0.74813 0.56999 0.10459 0.0
C709 C 0.74863 0.57548 0.08081 0.0
H710 H 0.74263 0.57827 0.08638 0.0
H711 H 0.74438 0.57009 0.96158 0.0
O712 O 0.79761 0.61908 0.03576 0.0
C713 C 0.77644 0.59349 0.94968 0.0
Co714 Co 0.50738 0.06041 0.15678 0.0
Co715 Co 0.49646 0.07488 0.1719 0.0
C716 C 0.48359 0.05027 0.18003 0.0
O717 O 0.49223 0.04994 0.17161 0.0
O718 O 0.4837 0.05943 0.18107 0.0
C719 C 0.51008 0.04165 0.1478 0.0
O720 O 0.50339 0.03785 0.17732 0.0
C721 C 0.48264 0.08471 0.15272 0.0
C722 C 0.49016 0.09968 0.18861 0.0
C723 C 0.48198 0.09405 0.16159 0.0
N724 N 0.49092 0.08495 0.17317 0.0
N725 N 0.49532 0.0939 0.19469 0.0
C726 C 0.47517 0.07541 0.12696 0.0
H727 H 0.47549 0.06788 0.13405 0.0
H728 H 0.47779 0.07759 0.09675 0.0
H729 H 0.46659 0.07378 0.12949 0.0
C730 C 0.51233 0.07148 0.08267 0.0
N731 N 0.50757 0.06956 0.11739 0.0
N732 N 0.50364 0.07622 0.12321 0.0
C733 C 0.5062 0.08293 0.09226 0.0
C734 C 0.5116 0.07996 0.06549 0.0
C735 C 0.5181 0.06575 0.06723 0.0
H736 H 0.52484 0.06706 0.08706 0.0
H737 H 0.51219 0.05678 0.06558 0.0
H738 H 0.52162 0.06878 0.03833 0.0
O739 O 0.51596 0.06933 0.20081 0.0
O740 O 0.50754 0.07882 0.21487 0.0
H741 H 0.50524 0.09636 0.11779 0.0
H742 H 0.5103 0.09876 0.06895 0.0
C743 C 0.50437 0.09253 0.08927 0.0
H744 H 0.49596 0.08968 0.07832 0.0
H745 H 0.50195 0.09614 0.21323 0.0
O746 O 0.51353 0.05146 0.1367 0.0
C747 C 0.51489 0.07619 0.22167 0.0
Co748 Co 0.94242 0.44656 0.15937 0.0
Co749 Co 0.9259 0.42175 0.17723 0.0
C750 C 0.94993 0.43057 0.18399 0.0
O751 O 0.95108 0.43983 0.17504 0.0
O752 O 0.94038 0.42208 0.18586 0.0
C753 C 0.95817 0.45781 0.10777 0.0
O754 O 0.95476 0.44736 0.10137 0.0
C755 C 0.91409 0.39789 0.16401 0.0
C756 C 0.89791 0.39262 0.19043 0.0
C757 C 0.90371 0.38874 0.16968 0.0
N758 N 0.91433 0.40669 0.18046 0.0
N759 N 0.90467 0.40345 0.19661 0.0
C760 C 0.92328 0.3986 0.14009 0.0
H761 H 0.92873 0.40718 0.1302 0.0
H762 H 0.92 0.39303 0.11495 0.0
H763 H 0.92824 0.39608 0.15769 0.0
C764 C 0.92924 0.44127 0.08919 0.0
N765 N 0.93168 0.43816 0.12253 0.0
N766 N 0.92502 0.42755 0.12785 0.0
C767 C 0.91822 0.42356 0.09702 0.0
C768 C 0.92081 0.43216 0.0716 0.0
C769 C 0.93436 0.4529 0.0752 0.0
H770 H 0.93723 0.45872 0.09966 0.0
H771 H 0.94143 0.4547 0.05633 0.0
H772 H 0.92841 0.45414 0.05803 0.0
O773 O 0.93523 0.44835 0.20472 0.0
O774 O 0.92378 0.43071 0.21911 0.0
H775 H 0.90387 0.40937 0.11866 0.0
H776 H 0.90392 0.41104 0.06719 0.0
C777 C 0.90908 0.41195 0.09259 0.0
H778 H 0.91261 0.40648 0.08906 0.0
H779 H 0.90257 0.40871 0.21071 0.0
O780 O 0.95371 0.46034 0.13471 0.0
C781 C 0.92784 0.441 0.22618 0.0
Co782 Co 0.55725 0.49869 0.16959 0.0
Co783 Co 0.58205 0.50531 0.17833 0.0
C784 C 0.57423 0.52077 0.20058 0.0
O785 O 0.56449 0.51327 0.1934 0.0
O786 O 0.58239 0.51936 0.19442 0.0
C787 C 0.54353 0.50483 0.13556 0.0
O788 O 0.55324 0.51371 0.13211 0.0
C789 C 0.60554 0.51672 0.15657 0.0
C790 C 0.61137 0.50642 0.18433 0.0
C791 C 0.61482 0.51564 0.16135 0.0
N792 N 0.59704 0.50844 0.1754 0.0
N793 N 0.60061 0.50235 0.19202 0.0
C794 C 0.60481 0.52571 0.13602 0.0
H795 H 0.59763 0.52629 0.14605 0.0
H796 H 0.60375 0.52391 0.10487 0.0
H797 H 0.61247 0.53372 0.14034 0.0
C798 C 0.56082 0.49313 0.09169 0.0
N799 N 0.56477 0.49768 0.12625 0.0
N800 N 0.57505 0.49995 0.1295 0.0
C801 C 0.57785 0.49665 0.09699 0.0
C802 C 0.56898 0.49243 0.07183 0.0
C803 C 0.54903 0.48822 0.0797 0.0
H804 H 0.54354 0.48343 0.10372 0.0
H805 H 0.54738 0.49493 0.07202 0.0
H806 H 0.54708 0.48273 0.05447 0.0
O807 O 0.55608 0.48805 0.20856 0.0
O808 O 0.57379 0.49349 0.2185 0.0
H809 H 0.59039 0.49347 0.11774 0.0
H810 H 0.5878 0.49128 0.06671 0.0
C811 C 0.58836 0.49653 0.0914 0.0
H812 H 0.59512 0.50501 0.0858 0.0
H813 H 0.59568 0.49537 0.20846 0.0
O814 O 0.54283 0.49648 0.15259 0.0
C815 C 0.56357 0.48723 0.22646 0.0
Co816 Co 0.6096 0.82824 0.98875 0.0
Co817 Co 0.59354 0.83731 0.00411 0.0
C818 C 0.61802 0.85192 0.01059 0.0
O819 O 0.61908 0.8437 0.00204 0.0
O820 O 0.6085 0.85099 0.01257 0.0
C821 C 0.62937 0.82733 0.97891 0.0
O822 O 0.63292 0.83421 0.00798 0.0
C823 C 0.58223 0.84985 0.9876 0.0
C824 C 0.56612 0.83952 0.01538 0.0
C825 C 0.57194 0.84889 0.9931 0.0
N826 N 0.58238 0.84143 0.00557 0.0
N827 N 0.57277 0.83537 0.0225 0.0
C828 C 0.59141 0.85795 0.96277 0.0
H829 H 0.59685 0.85467 0.95422 0.0
H830 H 0.58811 0.8599 0.93685 0.0
H831 H 0.59639 0.86567 0.97915 0.0
C832 C 0.59812 0.82214 0.91523 0.0
N833 N 0.59975 0.82685 0.94996 0.0
N834 N 0.59274 0.83037 0.9554 0.0
C835 C 0.58621 0.82773 0.92395 0.0
C836 C 0.58954 0.82256 0.89749 0.0
C837 C 0.60438 0.81688 0.90001 0.0
H838 H 0.60387 0.81067 0.92083 0.0
H839 H 0.61316 0.82326 0.89665 0.0
H840 H 0.60114 0.81282 0.87194 0.0
O841 O 0.60162 0.81977 0.03417 0.0
O842 O 0.59049 0.82637 0.04714 0.0
H843 H 0.5718 0.82738 0.94616 0.0
H844 H 0.57146 0.82507 0.89495 0.0
C845 C 0.57677 0.82976 0.91953 0.0
H846 H 0.57999 0.83865 0.91438 0.0
H847 H 0.57061 0.82818 0.03784 0.0
O848 O 0.61941 0.82315 0.96841 0.0
C849 C 0.59425 0.81995 0.05495 0.0
Co850 Co 0.17215 0.7797 0.99202 0.0
Co851 Co 0.16456 0.75476 0.00434 0.0
C852 C 0.14918 0.76297 0.0196 0.0
O853 O 0.15707 0.77244 0.01133 0.0
O854 O 0.15039 0.75456 0.01792 0.0
C855 C 0.16632 0.79199 0.94911 0.0
O856 O 0.15839 0.7818 0.94382 0.0
C857 C 0.15299 0.7309 0.98922 0.0
C858 C 0.16518 0.72635 0.00855 0.0
C859 C 0.15491 0.72208 0.99147 0.0
N860 N 0.16172 0.73988 0.00407 0.0
N861 N 0.16892 0.73706 0.01596 0.0
C862 C 0.14358 0.73115 0.97001 0.0
H863 H 0.14597 0.73968 0.96153 0.0
H864 H 0.14084 0.72575 0.94435 0.0
H865 H 0.13658 0.72814 0.99037 0.0
C866 C 0.17858 0.77551 0.91726 0.0
N867 N 0.17382 0.77187 0.95162 0.0
N868 N 0.17025 0.76126 0.95467 0.0
C869 C 0.1725 0.7578 0.92131 0.0
C870 C 0.17771 0.76674 0.89639 0.0
C871 C 0.18496 0.78742 0.90607 0.0
H872 H 0.18864 0.79265 0.93174 0.0
H873 H 0.17938 0.78978 0.89177 0.0
H874 H 0.19166 0.78894 0.8857 0.0
O875 O 0.18203 0.78115 0.03382 0.0
O876 O 0.17621 0.76342 0.04505 0.0
H877 H 0.17347 0.7435 0.93585 0.0
H878 H 0.17274 0.74542 0.88482 0.0
C879 C 0.16976 0.74623 0.91341 0.0
H880 H 0.16072 0.74076 0.91442 0.0
H881 H 0.17654 0.74254 0.02801 0.0
O882 O 0.17428 0.79378 0.97116 0.0
C883 C 0.1825 0.77364 0.05292 0.0
Co884 Co 0.22493 0.39354 0.99045 0.0
Co885 Co 0.24932 0.41211 0.00398 0.0
C886 C 0.24192 0.38805 0.01509 0.0
O887 O 0.23226 0.38537 0.00459 0.0
O888 O 0.24949 0.3981 0.01733 0.0
C889 C 0.20537 0.37275 0.98692 0.0
O890 O 0.20982 0.37052 0.01622 0.0
C891 C 0.27258 0.42419 0.98093 0.0
C892 C 0.27906 0.43969 0.01354 0.0
C893 C 0.28209 0.43426 0.98722 0.0
N894 N 0.26436 0.4238 0.00211 0.0
N895 N 0.26831 0.43309 0.0216 0.0
C896 C 0.27136 0.41482 0.95673 0.0
H897 H 0.26409 0.40699 0.96572 0.0
H898 H 0.27013 0.41629 0.92638 0.0
H899 H 0.27888 0.41411 0.95857 0.0
C900 C 0.2285 0.40428 0.91609 0.0
N901 N 0.23234 0.40322 0.95015 0.0
N902 N 0.24246 0.41137 0.95517 0.0
C903 C 0.24526 0.41809 0.9242 0.0
C904 C 0.2365 0.41373 0.8985 0.0
C905 C 0.21714 0.39658 0.90148 0.0
H906 H 0.21562 0.38803 0.90231 0.0
H907 H 0.21598 0.39857 0.87166 0.0
H908 H 0.21103 0.39704 0.92043 0.0
O909 O 0.2239 0.40179 0.03436 0.0
O910 O 0.24113 0.41507 0.04564 0.0
H911 H 0.25763 0.43325 0.94918 0.0
H912 H 0.25459 0.43431 0.89935 0.0
C913 C 0.25554 0.42904 0.92099 0.0
H914 H 0.26242 0.42781 0.91195 0.0
H915 H 0.26365 0.43494 0.04029 0.0
O916 O 0.21014 0.38243 0.97317 0.0
C917 C 0.23085 0.41013 0.05352 0.0
Co918 Co 0.50032 0.94527 0.84717 0.0
Co919 Co 0.50672 0.92725 0.8289 0.0
C920 C 0.523 0.95161 0.82208 0.0
O921 O 0.51585 0.95393 0.83377 0.0
O922 O 0.52073 0.94167 0.81768 0.0
C923 C 0.50136 0.96593 0.85842 0.0
O924 O 0.50837 0.96909 0.82978 0.0
C925 C 0.51834 0.91523 0.84803 0.0
C926 C 0.50929 0.90002 0.81394 0.0
C927 C 0.51784 0.90524 0.84011 0.0
N928 N 0.5104 0.91574 0.82793 0.0
N929 N 0.50506 0.90663 0.80751 0.0
C930 C 0.52648 0.92438 0.87296 0.0
H931 H 0.52702 0.93228 0.86506 0.0
H932 H 0.52378 0.92264 0.90328 0.0
H933 H 0.53472 0.92513 0.87059 0.0
C934 C 0.4936 0.93354 0.9202 0.0
N935 N 0.49829 0.93506 0.88546 0.0
N936 N 0.50039 0.92709 0.8782 0.0
C937 C 0.49666 0.91996 0.90808 0.0
C938 C 0.49243 0.92396 0.93582 0.0
C939 C 0.48943 0.94063 0.93659 0.0
H940 H 0.48324 0.94065 0.91682 0.0
H941 H 0.49636 0.9492 0.93917 0.0
H942 H 0.4856 0.93773 0.96518 0.0
O943 O 0.49127 0.93761 0.80164 0.0
O944 O 0.49559 0.92472 0.78768 0.0
H945 H 0.49412 0.90523 0.88026 0.0
H946 H 0.4903 0.90352 0.93049 0.0
C947 C 0.49632 0.90913 0.90897 0.0
H948 H 0.50456 0.91048 0.91683 0.0
H949 H 0.49845 0.90489 0.78942 0.0
O950 O 0.49633 0.95586 0.86826 0.0
C951 C 0.49013 0.92962 0.78084 0.0
Co952 Co 0.06032 0.55441 0.84268 0.0
Co953 Co 0.07747 0.57897 0.82424 0.0
C954 C 0.05287 0.5699 0.81757 0.0
O955 O 0.05107 0.56059 0.82929 0.0
O956 O 0.06267 0.57789 0.81317 0.0
C957 C 0.04056 0.53386 0.85058 0.0
O958 O 0.03751 0.53713 0.81999 0.0
C959 C 0.08892 0.60258 0.84341 0.0
C960 C 0.10408 0.60912 0.80881 0.0
C961 C 0.09876 0.61219 0.83543 0.0
N962 N 0.08857 0.59426 0.82294 0.0
N963 N 0.09764 0.59826 0.80218 0.0
C964 C 0.07972 0.60132 0.86867 0.0
H965 H 0.07186 0.59399 0.86026 0.0
H966 H 0.08146 0.60016 0.89878 0.0
H967 H 0.07891 0.60878 0.86718 0.0
C968 C 0.07192 0.55984 0.91585 0.0
N969 N 0.07032 0.56284 0.88095 0.0
N970 N 0.07802 0.57303 0.87374 0.0
C971 C 0.08507 0.57668 0.90391 0.0
C972 C 0.08127 0.56847 0.9317 0.0
C973 C 0.06503 0.54857 0.93251 0.0
H974 H 0.06536 0.54243 0.91334 0.0
H975 H 0.05636 0.54667 0.93431 0.0
H976 H 0.06787 0.54785 0.96151 0.0
O977 O 0.06811 0.55337 0.79725 0.0
O978 O 0.08043 0.5707 0.78282 0.0
H979 H 0.09949 0.58943 0.8762 0.0
H980 H 0.10148 0.58704 0.9259 0.0
C981 C 0.09568 0.58738 0.90506 0.0
H982 H 0.09405 0.594 0.91418 0.0
H983 H 0.09951 0.59354 0.78383 0.0
O984 O 0.05028 0.53971 0.86325 0.0
C985 C 0.07589 0.56037 0.77618 0.0
Co986 Co 0.44864 0.50485 0.83716 0.0
Co987 Co 0.42411 0.49782 0.81917 0.0
C988 C 0.43221 0.48208 0.80817 0.0
O989 O 0.44162 0.48978 0.81814 0.0
O990 O 0.42397 0.48357 0.80729 0.0
C991 C 0.46118 0.49929 0.88126 0.0
O992 O 0.45116 0.49099 0.8862 0.0
C993 C 0.40027 0.48654 0.83241 0.0
C994 C 0.39563 0.49804 0.80672 0.0
C995 C 0.39139 0.48824 0.82697 0.0
N996 N 0.40926 0.49495 0.81632 0.0
N997 N 0.4064 0.50173 0.80061 0.0
C998 C 0.40057 0.47773 0.85569 0.0
H999 H 0.4091 0.48044 0.86521 0.0
H1000 H 0.39508 0.4756 0.88103 0.0
H1001 H 0.39768 0.47025 0.83776 0.0
C1002 C 0.44334 0.51106 0.91082 0.0
N1003 N 0.44028 0.50646 0.87588 0.0
N1004 N 0.42992 0.50356 0.86957 0.0
C1005 C 0.4261 0.50633 0.90089 0.0
C1006 C 0.43445 0.51098 0.92808 0.0
C1007 C 0.45486 0.51646 0.92613 0.0
H1008 H 0.46085 0.5206 0.90264 0.0
H1009 H 0.45634 0.51012 0.93922 0.0
H1010 H 0.45621 0.52264 0.94853 0.0
O1011 O 0.4507 0.51482 0.79448 0.0
O1012 O 0.43327 0.50931 0.77912 0.0
H1013 H 0.41303 0.50834 0.87802 0.0
H1014 H 0.41436 0.50957 0.92967 0.0
C1015 C 0.41492 0.50512 0.90424 0.0
H1016 H 0.4087 0.49629 0.90715 0.0
H1017 H 0.41188 0.50905 0.78682 0.0
O1018 O 0.46261 0.50719 0.85957 0.0
C1019 C 0.44363 0.51546 0.77333 0.0
Co1020 Co 0.06064 0.50532 0.33936 0.0
Co1021 Co 0.07711 0.49682 0.32366 0.0
C1022 C 0.05307 0.48178 0.31534 0.0
O1023 O 0.05195 0.48995 0.32365 0.0
O1024 O 0.0626 0.48275 0.31437 0.0
C1025 C 0.04366 0.50108 0.38646 0.0
O1026 O 0.04594 0.49326 0.39398 0.0
C1027 C 0.08887 0.48473 0.33862 0.0
C1028 C 0.10511 0.49558 0.31248 0.0
C1029 C 0.09926 0.48595 0.33342 0.0
N1030 N 0.08866 0.49326 0.32172 0.0
N1031 N 0.09836 0.49964 0.30576 0.0
C1032 C 0.07961 0.47629 0.36237 0.0
H1033 H 0.07409 0.4794 0.37162 0.0
H1034 H 0.08283 0.47407 0.38789 0.0
H1035 H 0.07475 0.46877 0.34487 0.0
C1036 C 0.07324 0.513 0.41066 0.0
N1037 N 0.07095 0.50741 0.37746 0.0
N1038 N 0.07771 0.50354 0.37276 0.0
C1039 C 0.08442 0.50644 0.40384 0.0
C1040 C 0.08173 0.5125 0.42868 0.0
C1041 C 0.06765 0.5191 0.42442 0.0
H1042 H 0.06544 0.52261 0.39978 0.0
H1043 H 0.06006 0.51334 0.44017 0.0
H1044 H 0.07295 0.52586 0.44434 0.0
O1045 O 0.06831 0.51431 0.29463 0.0
O1046 O 0.07967 0.50793 0.28141 0.0
H1047 H 0.09892 0.50677 0.38292 0.0
H1048 H 0.09872 0.50842 0.43432 0.0
C1049 C 0.09364 0.50411 0.40883 0.0
H1050 H 0.09021 0.49514 0.41249 0.0
H1051 H 0.10049 0.50696 0.29136 0.0
O1052 O 0.04942 0.50832 0.36153 0.0
C1053 C 0.07579 0.51429 0.27388 0.0
Co1054 Co 0.49803 0.55553 0.33871 0.0
Co1055 Co 0.50477 0.57997 0.31973 0.0
C1056 C 0.52113 0.5725 0.31401 0.0
O1057 O 0.51354 0.56304 0.32393 0.0
O1058 O 0.51928 0.58047 0.31069 0.0
C1059 C 0.50324 0.54486 0.39098 0.0
O1060 O 0.50983 0.5554 0.39766 0.0
C1061 C 0.51571 0.60375 0.33295 0.0
C1062 C 0.50432 0.60831 0.30593 0.0
C1063 C 0.51396 0.61257 0.32715 0.0
N1064 N 0.50748 0.59476 0.31616 0.0
N1065 N 0.50077 0.59757 0.29962 0.0
C1066 C 0.52435 0.60347 0.35736 0.0
H1067 H 0.5216 0.59494 0.36698 0.0
H1068 H 0.52625 0.60891 0.3827 0.0
H1069 H 0.53198 0.60641 0.34024 0.0
C1070 C 0.48924 0.56023 0.40789 0.0
N1071 N 0.49494 0.56355 0.37489 0.0
N1072 N 0.49833 0.57405 0.36922 0.0
C1073 C 0.49508 0.57778 0.39959 0.0
C1074 C 0.48925 0.56911 0.42489 0.0
C1075 C 0.48345 0.54862 0.4224 0.0
H1076 H 0.48088 0.54273 0.39818 0.0
H1077 H 0.48908 0.54741 0.44147 0.0
H1078 H 0.47607 0.54685 0.43942 0.0
O1079 O 0.48894 0.55315 0.29289 0.0
O1080 O 0.49385 0.57053 0.27851 0.0
H1081 H 0.49405 0.59144 0.37708 0.0
H1082 H 0.49228 0.5898 0.42847 0.0
C1083 C 0.49684 0.58916 0.4035 0.0
H1084 H 0.50573 0.59504 0.40748 0.0
H1085 H 0.49356 0.59208 0.28523 0.0
O1086 O 0.49627 0.54206 0.36382 0.0
C1087 C 0.48823 0.56017 0.27155 0.0
Co1088 Co 0.44741 0.93967 0.34364 0.0
Co1089 Co 0.4225 0.92293 0.3284 0.0
C1090 C 0.43123 0.94686 0.31842 0.0
O1091 O 0.44057 0.94817 0.32714 0.0
O1092 O 0.42277 0.93728 0.3177 0.0
C1093 C 0.4598 0.95675 0.39024 0.0
O1094 O 0.4496 0.95418 0.39759 0.0
C1095 C 0.39869 0.91137 0.34278 0.0
C1096 C 0.39322 0.89493 0.31822 0.0
C1097 C 0.38945 0.90101 0.33783 0.0
N1098 N 0.40743 0.91135 0.32692 0.0
N1099 N 0.40408 0.90152 0.31198 0.0
C1100 C 0.39953 0.92085 0.36521 0.0
H1101 H 0.40812 0.92628 0.37508 0.0
H1102 H 0.39391 0.91789 0.39029 0.0
H1103 H 0.39717 0.92574 0.34653 0.0
C1104 C 0.44268 0.92753 0.41585 0.0
N1105 N 0.43931 0.92949 0.38217 0.0
N1106 N 0.42869 0.92271 0.37786 0.0
C1107 C 0.42492 0.91635 0.40978 0.0
C1108 C 0.43371 0.91927 0.43472 0.0
C1109 C 0.45438 0.93317 0.42939 0.0
H1110 H 0.46007 0.93539 0.40469 0.0
H1111 H 0.45619 0.94075 0.44524 0.0
H1112 H 0.45586 0.92786 0.44922 0.0
O1113 O 0.44881 0.93192 0.29942 0.0
O1114 O 0.43111 0.92033 0.28644 0.0
H1115 H 0.41057 0.90174 0.39064 0.0
H1116 H 0.41257 0.90254 0.44207 0.0
C1117 C 0.41333 0.90733 0.41576 0.0
H1118 H 0.40791 0.91093 0.4185 0.0
H1119 H 0.40926 0.89923 0.29842 0.0
O1120 O 0.46152 0.95111 0.36553 0.0
C1121 C 0.44137 0.92433 0.27888 0.0
Co1122 Co 0.17453 0.39287 0.48447 0.0
Co1123 Co 0.16529 0.40872 0.50171 0.0
C1124 C 0.15103 0.3841 0.50811 0.0
O1125 O 0.15918 0.3831 0.49815 0.0
O1126 O 0.15195 0.3936 0.51115 0.0
C1127 C 0.17579 0.37337 0.47431 0.0
O1128 O 0.16902 0.36982 0.50366 0.0
C1129 C 0.15235 0.41956 0.48348 0.0
C1130 C 0.16118 0.435 0.5165 0.0
C1131 C 0.15255 0.42942 0.49097 0.0
N1132 N 0.16059 0.41948 0.50313 0.0
N1133 N 0.16578 0.42871 0.523 0.0
C1134 C 0.14425 0.41015 0.45936 0.0
H1135 H 0.14376 0.40236 0.46853 0.0
H1136 H 0.14694 0.4116 0.429 0.0
H1137 H 0.13598 0.40935 0.46121 0.0
C1138 C 0.18068 0.40479 0.41209 0.0
N1139 N 0.17564 0.40272 0.44631 0.0
N1140 N 0.17223 0.40978 0.45278 0.0
C1141 C 0.17532 0.41681 0.4226 0.0
C1142 C 0.18069 0.41378 0.39593 0.0
C1143 C 0.18571 0.39844 0.39574 0.0
H1144 H 0.17935 0.38961 0.39412 0.0
H1145 H 0.18912 0.40134 0.36662 0.0
H1146 H 0.19238 0.39927 0.41498 0.0
O1147 O 0.18311 0.40101 0.52954 0.0
O1148 O 0.1764 0.41199 0.54414 0.0
H1149 H 0.17595 0.43092 0.44899 0.0
H1150 H 0.17969 0.43268 0.3987 0.0
C1151 C 0.17411 0.42681 0.42064 0.0
H1152 H 0.16553 0.42432 0.41275 0.0
H1153 H 0.17258 0.43081 0.54048 0.0
O1154 O 0.17985 0.38331 0.46366 0.0
C1155 C 0.18297 0.40834 0.55077 0.0
Co1156 Co 0.6094 0.77861 0.49023 0.0
Co1157 Co 0.5909 0.75426 0.50585 0.0
C1158 C 0.61471 0.76168 0.51947 0.0
O1159 O 0.61716 0.77122 0.50848 0.0
O1160 O 0.60473 0.75392 0.52069 0.0
C1161 C 0.62765 0.79113 0.4476 0.0
O1162 O 0.62536 0.78101 0.44054 0.0
C1163 C 0.57844 0.73077 0.48586 0.0
C1164 C 0.56271 0.72505 0.51635 0.0
C1165 C 0.56811 0.72156 0.49168 0.0
N1166 N 0.57899 0.73929 0.50558 0.0
N1167 N 0.56958 0.73579 0.52393 0.0
C1168 C 0.58783 0.73143 0.46326 0.0
H1169 H 0.59577 0.73834 0.47335 0.0
H1170 H 0.5869 0.73291 0.43264 0.0
H1171 H 0.58796 0.72361 0.46554 0.0
C1172 C 0.59824 0.77436 0.41585 0.0
N1173 N 0.59957 0.77083 0.45025 0.0
N1174 N 0.5916 0.76065 0.456 0.0
C1175 C 0.5848 0.75748 0.42514 0.0
C1176 C 0.58897 0.766 0.39854 0.0
C1177 C 0.60486 0.78596 0.40164 0.0
H1178 H 0.60685 0.79182 0.42569 0.0
H1179 H 0.61262 0.78717 0.38885 0.0
H1180 H 0.60037 0.7878 0.37929 0.0
O1181 O 0.60131 0.78044 0.53331 0.0
O1182 O 0.58826 0.76316 0.54574 0.0
H1183 H 0.56961 0.74528 0.45038 0.0
H1184 H 0.56873 0.74753 0.3997 0.0
C1185 C 0.57398 0.74703 0.42253 0.0
H1186 H 0.5754 0.74014 0.4156 0.0
H1187 H 0.56778 0.74076 0.54121 0.0
O1188 O 0.62139 0.79266 0.47008 0.0
C1189 C 0.59305 0.77349 0.55292 0.0
Co1190 Co 0.22073 0.82641 0.4855 0.0
Co1191 Co 0.24603 0.83659 0.5011 0.0
C1192 C 0.23498 0.85008 0.5096 0.0
O1193 O 0.22592 0.84163 0.50073 0.0
O1194 O 0.24387 0.84967 0.51082 0.0
C1195 C 0.19965 0.82455 0.47786 0.0
O1196 O 0.20268 0.83073 0.50877 0.0
C1197 C 0.26983 0.84992 0.48323 0.0
C1198 C 0.27652 0.84098 0.51527 0.0
C1199 C 0.27953 0.84977 0.49051 0.0
N1200 N 0.26152 0.8415 0.50228 0.0
N1201 N 0.26562 0.83626 0.52156 0.0
C1202 C 0.26849 0.85815 0.45997 0.0
H1203 H 0.26116 0.85854 0.46946 0.0
H1204 H 0.26731 0.85567 0.42939 0.0
H1205 H 0.27593 0.86642 0.46238 0.0
C1206 C 0.22664 0.82112 0.41168 0.0
N1207 N 0.22955 0.82591 0.44631 0.0
N1208 N 0.2401 0.82963 0.45223 0.0
C1209 C 0.24415 0.82694 0.42134 0.0
C1210 C 0.23575 0.82162 0.39461 0.0
C1211 C 0.21514 0.81553 0.39626 0.0
H1212 H 0.21232 0.82163 0.39389 0.0
H1213 H 0.21454 0.8118 0.36767 0.0
H1214 H 0.20959 0.809 0.4165 0.0
O1215 O 0.22066 0.8176 0.52939 0.0
O1216 O 0.23853 0.82549 0.54373 0.0
H1217 H 0.25803 0.82675 0.44633 0.0
H1218 H 0.25599 0.82328 0.39582 0.0
C1219 C 0.25552 0.8286 0.41844 0.0
H1220 H 0.26134 0.83729 0.41097 0.0
H1221 H 0.26094 0.82933 0.53851 0.0
O1222 O 0.20577 0.82097 0.46522 0.0
C1223 C 0.22846 0.81837 0.55032 0.0
H1224 H 0.37862 0.18842 0.08808 0.0
H1225 H 0.36578 0.18634 0.13913 0.0
H1226 H 0.33878 0.16183 0.0723 0.0
H1227 H 0.35154 0.16371 0.02124 0.0
H1228 H 0.34593 0.18765 0.14134 0.0
H1229 H 0.3388 0.14571 0.17242 0.0
H1230 H 0.35008 0.15546 0.14308 0.0
H1231 H 0.33641 0.14806 0.1236 0.0
C1232 C 0.36993 0.18271 0.08393 0.0
C1233 C 0.36612 0.17608 0.05089 0.0
C1234 C 0.36262 0.18154 0.11314 0.0
C1235 C 0.35141 0.17374 0.10977 0.0
C1236 C 0.34745 0.16773 0.07566 0.0
H1237 H 0.29496 0.14958 0.25713 0.0
H1238 H 0.30841 0.15219 0.20783 0.0
C1239 C 0.35475 0.16889 0.04639 0.0
C1240 C 0.34399 0.17144 0.14282 0.0
H1241 H 0.32813 0.15147 0.20748 0.0
C1242 C 0.34205 0.17977 0.15594 0.0
C1243 C 0.33903 0.16116 0.16181 0.0
C1244 C 0.34123 0.15209 0.14982 0.0
C1245 C 0.33503 0.17798 0.1871 0.0
C1246 C 0.33002 0.16766 0.20598 0.0
C1247 C 0.33203 0.15937 0.19299 0.0
C1248 C 0.32227 0.16519 0.23814 0.0
C1249 C 0.33277 0.18702 0.19884 0.0
C1250 C 0.32573 0.17127 0.2723 0.0
C1251 C 0.31806 0.16981 0.30056 0.0
C1252 C 0.30682 0.16224 0.29504 0.0
C1253 C 0.30354 0.15558 0.26205 0.0
C1254 C 0.31121 0.15705 0.23384 0.0
H1255 H 0.33525 0.19341 0.17623 0.0
H1256 H 0.32391 0.18364 0.20528 0.0
H1257 H 0.33753 0.19107 0.22516 0.0
H1258 H 0.3343 0.17741 0.27648 0.0
H1259 H 0.32087 0.17503 0.32573 0.0
H1260 H 0.83465 0.14895 0.32383 0.0
H1261 H 0.83218 0.16014 0.27534 0.0
H1262 H 0.85401 0.15599 0.19901 0.0
H1263 H 0.85668 0.14495 0.24742 0.0
H1264 H 0.85648 0.17755 0.19889 0.0
H1265 H 0.81305 0.14425 0.18005 0.0
H1266 H 0.81691 0.14927 0.22822 0.0
H1267 H 0.82309 0.14219 0.20549 0.0
C1268 C 0.83913 0.15062 0.29709 0.0
C1269 C 0.84572 0.14591 0.28921 0.0
C1270 C 0.83763 0.15693 0.26932 0.0
C1271 C 0.84269 0.15861 0.23335 0.0
C1272 C 0.84994 0.15466 0.2265 0.0
H1273 H 0.84057 0.1893 0.01944 0.0
H1274 H 0.84335 0.17833 0.06798 0.0
C1275 C 0.85145 0.14835 0.2542 0.0
C1276 C 0.83993 0.1639 0.20201 0.0
H1277 H 0.81881 0.16053 0.14419 0.0
C1278 C 0.84827 0.17384 0.18683 0.0
C1279 C 0.8292 0.15896 0.18633 0.0
C1280 C 0.82005 0.14803 0.20055 0.0
C1281 C 0.8461 0.17913 0.15676 0.0
C1282 C 0.83537 0.17419 0.14107 0.0
C1283 C 0.82703 0.16424 0.15624 0.0
C1284 C 0.83257 0.17947 0.10979 0.0
C1285 C 0.85525 0.19008 0.14264 0.0
C1286 C 0.82508 0.18314 0.11648 0.0
C1287 C 0.82338 0.18931 0.08871 0.0
C1288 C 0.82917 0.1919 0.0538 0.0
C1289 C 0.83605 0.18751 0.04612 0.0
C1290 C 0.83773 0.18133 0.07393 0.0
H1291 H 0.86219 0.19389 0.16334 0.0
H1292 H 0.85847 0.18885 0.11515 0.0
H1293 H 0.85218 0.19589 0.13743 0.0
H1294 H 0.82092 0.18167 0.14386 0.0
H1295 H 0.81793 0.19246 0.09536 0.0
H1296 H 0.8139 0.65125 0.01638 0.0
H1297 H 0.82519 0.66479 0.06483 0.0
H1298 H 0.82354 0.63889 0.1362 0.0
H1299 H 0.81217 0.62527 0.08808 0.0
H1300 H 0.81649 0.65213 0.17238 0.0
H1301 H 0.85701 0.67745 0.10168 0.0
H1302 H 0.84545 0.67564 0.07379 0.0
H1303 H 0.84696 0.66394 0.08468 0.0
C1304 C 0.81617 0.64845 0.0419 0.0
C1305 C 0.81205 0.63718 0.04856 0.0
C1306 C 0.82265 0.65621 0.06954 0.0
C1307 C 0.82519 0.65282 0.10401 0.0
C1308 C 0.82163 0.64165 0.10976 0.0
H1309 H 0.85652 0.68538 0.31583 0.0
H1310 H 0.84525 0.67182 0.26743 0.0
C1311 C 0.81515 0.63389 0.0822 0.0
C1312 C 0.83061 0.66076 0.13554 0.0
H1313 H 0.854 0.68444 0.1597 0.0
C1314 C 0.82473 0.65916 0.16977 0.0
C1315 C 0.8413 0.66994 0.1318 0.0
C1316 C 0.84811 0.67183 0.09615 0.0
C1317 C 0.8292 0.66662 0.20028 0.0
C1318 C 0.83988 0.67581 0.19653 0.0
C1319 C 0.84577 0.6774 0.16232 0.0
C1320 C 0.8453 0.68377 0.22803 0.0
C1321 C 0.82238 0.66473 0.23592 0.0
C1322 C 0.84889 0.69494 0.22213 0.0
C1323 C 0.85536 0.70272 0.24966 0.0
C1324 C 0.85842 0.69944 0.28342 0.0
C1325 C 0.85427 0.68817 0.29021 0.0
C1326 C 0.84781 0.68039 0.2626 0.0
H1327 H 0.81348 0.65912 0.23036 0.0
H1328 H 0.82502 0.6609 0.25827 0.0
H1329 H 0.82354 0.67262 0.24743 0.0
H1330 H 0.84701 0.69768 0.19561 0.0
H1331 H 0.85837 0.71133 0.24366 0.0
H1332 H 0.1641 0.35091 0.47782 0.0
H1333 H 0.16282 0.33806 0.428 0.0
H1334 H 0.18763 0.36506 0.36193 0.0
H1335 H 0.18909 0.37795 0.4117 0.0
H1336 H 0.15647 0.33972 0.35211 0.0
H1337 H 0.19697 0.34156 0.35535 0.0
H1338 H 0.19189 0.34601 0.3951 0.0
H1339 H 0.19769 0.35471 0.35386 0.0
C1340 C 0.1695 0.35409 0.4532 0.0
C1341 C 0.17663 0.36547 0.44856 0.0
C1342 C 0.16872 0.34674 0.4247 0.0
C1343 C 0.17513 0.35063 0.39138 0.0
C1344 C 0.1827 0.36189 0.38766 0.0
H1345 H 0.17778 0.31978 0.17921 0.0
H1346 H 0.17937 0.33322 0.22712 0.0
C1347 C 0.18349 0.36925 0.41609 0.0
C1348 C 0.17314 0.34308 0.35896 0.0
H1349 H 0.18535 0.33245 0.3023 0.0
C1350 C 0.16276 0.33807 0.34129 0.0
C1351 C 0.18141 0.34108 0.34477 0.0
C1352 C 0.19259 0.34604 0.36338 0.0
C1353 C 0.16044 0.33115 0.30946 0.0
C1354 C 0.16867 0.32906 0.29545 0.0
C1355 C 0.17908 0.33413 0.313 0.0
C1356 C 0.16656 0.32123 0.26384 0.0
C1357 C 0.14927 0.32628 0.29077 0.0
C1358 C 0.15861 0.31009 0.26815 0.0
C1359 C 0.15762 0.3024 0.24075 0.0
C1360 C 0.16468 0.30571 0.20879 0.0
C1361 C 0.17222 0.31696 0.20348 0.0
C1362 C 0.17318 0.32465 0.23091 0.0
H1363 H 0.14521 0.33116 0.29733 0.0
H1364 H 0.14988 0.3258 0.25916 0.0
H1365 H 0.14392 0.31782 0.30187 0.0
H1366 H 0.15353 0.30725 0.29363 0.0
H1367 H 0.1517 0.29381 0.24564 0.0
H1368 H 0.64236 0.79005 0.39986 0.0
H1369 H 0.65676 0.80488 0.3622 0.0
H1370 H 0.64783 0.82775 0.40956 0.0
H1371 H 0.63335 0.8129 0.44779 0.0
H1372 H 0.65324 0.8178 0.30726 0.0
H1373 H 0.6817 0.84296 0.42421 0.0
H1374 H 0.67113 0.82878 0.43087 0.0
H1375 H 0.66757 0.83942 0.43014 0.0
C1376 C 0.64349 0.79824 0.40258 0.0
C1377 C 0.63672 0.80032 0.4268 0.0
C1378 C 0.65172 0.80669 0.381 0.0
C1379 C 0.65337 0.81737 0.3834 0.0
C1380 C 0.64675 0.81955 0.40785 0.0
H1381 H 0.69629 0.8782 0.26899 0.0
H1382 H 0.68225 0.86329 0.30741 0.0
C1383 C 0.63848 0.81108 0.42953 0.0
C1384 C 0.66176 0.82608 0.35894 0.0
H1385 H 0.68596 0.85043 0.36155 0.0
C1386 C 0.66042 0.82493 0.31903 0.0
C1387 C 0.67108 0.83531 0.37461 0.0
C1388 C 0.67306 0.8367 0.41729 0.0
C1389 C 0.66812 0.83291 0.2942 0.0
C1390 C 0.67744 0.84214 0.30986 0.0
C1391 C 0.67879 0.84329 0.34978 0.0
C1392 C 0.68573 0.85094 0.28539 0.0
C1393 C 0.66612 0.83153 0.25152 0.0
C1394 C 0.69231 0.84887 0.26028 0.0
C1395 C 0.70036 0.8574 0.23812 0.0
C1396 C 0.70195 0.86808 0.24104 0.0
C1397 C 0.69528 0.87006 0.26609 0.0
C1398 C 0.68726 0.86157 0.28812 0.0
H1399 H 0.65748 0.82525 0.24465 0.0
H1400 H 0.66799 0.83946 0.23804 0.0
H1401 H 0.67162 0.82886 0.23853 0.0
H1402 H 0.69133 0.84072 0.2583 0.0
H1403 H 0.70544 0.85566 0.21924 0.0
H1404 H 0.14359 0.85107 0.25864 0.0
H1405 H 0.155 0.8489 0.30682 0.0
H1406 H 0.15741 0.82525 0.23453 0.0
H1407 H 0.14606 0.8274 0.18604 0.0
H1408 H 0.14836 0.82859 0.3423 0.0
H1409 H 0.18909 0.84482 0.27204 0.0
H1410 H 0.17884 0.84805 0.25523 0.0
H1411 H 0.17767 0.83501 0.24378 0.0
C1412 C 0.14674 0.84559 0.25258 0.0
C1413 C 0.14384 0.83934 0.21864 0.0
C1414 C 0.15324 0.84434 0.28019 0.0
C1415 C 0.15704 0.83693 0.27418 0.0
C1416 C 0.15468 0.83113 0.23946 0.0
H1417 H 0.19124 0.81238 0.41268 0.0
H1418 H 0.17971 0.81446 0.36475 0.0
C1419 C 0.14817 0.83237 0.2118 0.0
C1420 C 0.16256 0.83447 0.30561 0.0
H1421 H 0.18622 0.83468 0.32961 0.0
C1422 C 0.15667 0.82998 0.33968 0.0
C1423 C 0.17335 0.83623 0.30187 0.0
C1424 C 0.18016 0.84138 0.26641 0.0
C1425 C 0.16124 0.82703 0.37003 0.0
C1426 C 0.17202 0.82878 0.3663 0.0
C1427 C 0.17791 0.83328 0.33223 0.0
C1428 C 0.17754 0.82631 0.39768 0.0
C1429 C 0.15442 0.82188 0.40549 0.0
C1430 C 0.17986 0.83205 0.43251 0.0
C1431 C 0.18642 0.83085 0.46005 0.0
C1432 C 0.19087 0.82399 0.45294 0.0
C1433 C 0.188 0.81778 0.41893 0.0
C1434 C 0.18143 0.81897 0.39147 0.0
H1435 H 0.14549 0.8184 0.39979 0.0
H1436 H 0.15577 0.81524 0.41677 0.0
H1437 H 0.15687 0.82826 0.42806 0.0
H1438 H 0.17707 0.83788 0.43761 0.0
H1439 H 0.18851 0.83579 0.48586 0.0
H1440 H 0.70766 0.85025 0.74495 0.0
H1441 H 0.6945 0.84818 0.79463 0.0
H1442 H 0.66861 0.82083 0.73304 0.0
H1443 H 0.68177 0.82266 0.68352 0.0
H1444 H 0.67467 0.84827 0.79389 0.0
H1445 H 0.66863 0.80751 0.83775 0.0
H1446 H 0.6796 0.81667 0.80616 0.0
H1447 H 0.66582 0.80852 0.78812 0.0
C1448 C 0.69914 0.84387 0.74169 0.0
C1449 C 0.6958 0.8365 0.7106 0.0
C1450 C 0.69164 0.8427 0.77012 0.0
C1451 C 0.68067 0.83417 0.76795 0.0
C1452 C 0.67712 0.82729 0.73566 0.0
H1453 H 0.62474 0.81353 0.91775 0.0
H1454 H 0.63754 0.81479 0.8678 0.0
C1455 C 0.68463 0.82842 0.70722 0.0
C1456 C 0.6731 0.83228 0.80024 0.0
H1457 H 0.65769 0.81361 0.86925 0.0
C1458 C 0.67097 0.8407 0.81042 0.0
C1459 C 0.66835 0.82241 0.82181 0.0
C1460 C 0.67077 0.81329 0.81323 0.0
C1461 C 0.66406 0.83947 0.84135 0.0
C1462 C 0.65932 0.82961 0.8629 0.0
C1463 C 0.6614 0.82116 0.85266 0.0
C1464 C 0.65193 0.82787 0.89557 0.0
C1465 C 0.66172 0.84863 0.85034 0.0
C1466 C 0.65591 0.83446 0.92847 0.0
C1467 C 0.64863 0.83375 0.95713 0.0
C1468 C 0.63726 0.82645 0.9532 0.0
C1469 C 0.63343 0.81932 0.92144 0.0
C1470 C 0.64072 0.82002 0.89287 0.0
H1471 H 0.66411 0.8546 0.82635 0.0
H1472 H 0.65285 0.84527 0.85665 0.0
H1473 H 0.66648 0.85314 0.87611 0.0
H1474 H 0.66458 0.84043 0.93127 0.0
H1475 H 0.65185 0.83933 0.98129 0.0
H1476 H 0.14896 0.79128 0.91271 0.0
H1477 H 0.14921 0.80448 0.86676 0.0
H1478 H 0.18403 0.82561 0.88551 0.0
H1479 H 0.18385 0.81237 0.93214 0.0
H1480 H 0.17138 0.83662 0.88138 0.0
H1481 H 0.16309 0.80825 0.75919 0.0
H1482 H 0.15347 0.80212 0.79792 0.0
H1483 H 0.16773 0.80634 0.80535 0.0
C1484 C 0.15667 0.79877 0.90734 0.0
C1485 C 0.16642 0.80076 0.92566 0.0
C1486 C 0.1568 0.80627 0.88096 0.0
C1487 C 0.16668 0.81584 0.87216 0.0
C1488 C 0.17635 0.81818 0.89177 0.0
H1489 H 0.17317 0.85652 0.67376 0.0
H1490 H 0.17507 0.84421 0.71881 0.0
C1491 C 0.17623 0.81066 0.91844 0.0
C1492 C 0.16678 0.82323 0.84189 0.0
H1493 H 0.16042 0.82356 0.74765 0.0
C1494 C 0.16911 0.83384 0.85204 0.0
C1495 C 0.16398 0.8196 0.80356 0.0
C1496 C 0.16203 0.80849 0.79068 0.0
C1497 C 0.16822 0.84078 0.82508 0.0
C1498 C 0.16473 0.83686 0.78734 0.0
C1499 C 0.1629 0.82644 0.7768 0.0
C1500 C 0.16286 0.84347 0.75852 0.0
C1501 C 0.17102 0.85221 0.83724 0.0
C1502 C 0.155 0.84667 0.76517 0.0
C1503 C 0.15388 0.85368 0.73955 0.0
C1504 C 0.16056 0.85753 0.7067 0.0
C1505 C 0.16791 0.85371 0.69884 0.0
C1506 C 0.16905 0.84673 0.72461 0.0
H1507 H 0.17641 0.85497 0.863 0.0
H1508 H 0.17521 0.85824 0.81379 0.0
H1509 H 0.16332 0.85222 0.84452 0.0
H1510 H 0.14993 0.84396 0.79069 0.0
H1511 H 0.14806 0.85638 0.74619 0.0
H1512 H 0.12851 0.30863 0.76613 0.0
H1513 H 0.14215 0.32165 0.81074 0.0
H1514 H 0.16227 0.30675 0.793 0.0
H1515 H 0.14858 0.29362 0.74767 0.0
H1516 H 0.1488 0.31549 0.87898 0.0
H1517 H 0.18366 0.34039 0.77971 0.0
H1518 H 0.16973 0.33179 0.76287 0.0
H1519 H 0.17773 0.32569 0.77777 0.0
C1520 C 0.13588 0.30816 0.77136 0.0
C1521 C 0.13748 0.3001 0.75351 0.0
C1522 C 0.14365 0.3156 0.79691 0.0
C1523 C 0.15318 0.31513 0.80509 0.0
C1524 C 0.15499 0.30728 0.78666 0.0
H1525 H 0.19608 0.35059 0.99852 0.0
H1526 H 0.18309 0.33589 0.95632 0.0
C1527 C 0.14719 0.29981 0.76083 0.0
C1528 C 0.1609 0.32269 0.83411 0.0
H1529 H 0.18632 0.3453 0.84502 0.0
C1530 C 0.15705 0.32197 0.87174 0.0
C1531 C 0.17159 0.33113 0.82426 0.0
C1532 C 0.17596 0.33241 0.78394 0.0
C1533 C 0.16354 0.32965 0.89975 0.0
C1534 C 0.17418 0.33815 0.88981 0.0
C1535 C 0.17813 0.33874 0.8524 0.0
C1536 C 0.18123 0.34684 0.91729 0.0
C1537 C 0.15882 0.32885 0.93928 0.0
C1538 C 0.18434 0.35781 0.90946 0.0
C1539 C 0.19175 0.36622 0.93339 0.0
C1540 C 0.19622 0.36378 0.96547 0.0
C1541 C 0.19273 0.35273 0.97414 0.0
C1542 C 0.18532 0.34431 0.95009 0.0
H1543 H 0.14976 0.32323 0.93991 0.0
H1544 H 0.16263 0.32563 0.95955 0.0
H1545 H 0.16067 0.33709 0.94961 0.0
H1546 H 0.18121 0.35989 0.8843 0.0
H1547 H 0.19424 0.37465 0.92598 0.0
H1548 H 0.84239 0.65228 0.52303 0.0
H1549 H 0.84402 0.66538 0.57242 0.0
H1550 H 0.81897 0.63884 0.63939 0.0
H1551 H 0.81733 0.62565 0.59041 0.0
H1552 H 0.82874 0.67028 0.60746 0.0
H1553 H 0.846 0.65269 0.71084 0.0
H1554 H 0.84468 0.64953 0.66028 0.0
H1555 H 0.83285 0.64295 0.69106 0.0
C1556 C 0.83708 0.64924 0.54792 0.0
C1557 C 0.82985 0.6379 0.55309 0.0
C1558 C 0.83805 0.65673 0.57615 0.0
C1559 C 0.83182 0.65302 0.6099 0.0
C1560 C 0.82404 0.64182 0.61392 0.0
H1561 H 0.82872 0.68481 0.81776 0.0
H1562 H 0.8272 0.67161 0.76896 0.0
C1563 C 0.82307 0.63431 0.58579 0.0
C1564 C 0.8338 0.66079 0.64155 0.0
H1565 H 0.84266 0.6666 0.73433 0.0
C1566 C 0.83181 0.66951 0.63517 0.0
C1567 C 0.83784 0.65975 0.67757 0.0
C1568 C 0.84057 0.65079 0.6854 0.0
C1569 C 0.83357 0.67713 0.6642 0.0
C1570 C 0.83761 0.67609 0.70022 0.0
C1571 C 0.83959 0.66737 0.70661 0.0
C1572 C 0.8396 0.68388 0.73179 0.0
C1573 C 0.83086 0.6861 0.65637 0.0
C1574 C 0.84747 0.69506 0.7278 0.0
C1575 C 0.84838 0.70262 0.75562 0.0
C1576 C 0.84145 0.69911 0.78792 0.0
C1577 C 0.83415 0.68779 0.79316 0.0
C1578 C 0.83323 0.68024 0.76526 0.0
H1579 H 0.82549 0.68425 0.63079 0.0
H1580 H 0.8267 0.68732 0.68141 0.0
H1581 H 0.8386 0.69395 0.65098 0.0
H1582 H 0.85263 0.69797 0.70253 0.0
H1583 H 0.85418 0.71126 0.75096 0.0
H1584 H 0.29734 0.14762 0.78102 0.0
H1585 H 0.31239 0.16227 0.74376 0.0
H1586 H 0.31634 0.13794 0.68127 0.0
H1587 H 0.30141 0.12334 0.71785 0.0
H1588 H 0.33465 0.16608 0.73813 0.0
H1589 H 0.31357 0.15719 0.5969 0.0
H1590 H 0.30618 0.15223 0.64156 0.0
H1591 H 0.31289 0.14546 0.62032 0.0
C1592 C 0.30139 0.14541 0.7592 0.0
C1593 C 0.29819 0.13434 0.75231 0.0
C1594 C 0.30996 0.15377 0.73802 0.0
C1595 C 0.31531 0.15112 0.70951 0.0
C1596 C 0.31215 0.1401 0.7027 0.0
H1597 H 0.37031 0.18812 0.55478 0.0
H1598 H 0.35508 0.17346 0.59142 0.0
C1599 C 0.30365 0.13179 0.72383 0.0
C1600 C 0.32453 0.15985 0.68767 0.0
H1601 H 0.33285 0.16967 0.59708 0.0
C1602 C 0.33425 0.16695 0.70735 0.0
C1603 C 0.32396 0.16082 0.6475 0.0
C1604 C 0.31356 0.15359 0.62527 0.0
C1605 C 0.34353 0.17493 0.68772 0.0
C1606 C 0.34296 0.17591 0.64755 0.0
C1607 C 0.33324 0.16881 0.62786 0.0
C1608 C 0.3522 0.18463 0.62574 0.0
C1609 C 0.35393 0.18214 0.70995 0.0
C1610 C 0.35543 0.19566 0.63273 0.0
C1611 C 0.36404 0.20397 0.61198 0.0
C1612 C 0.36954 0.20141 0.58369 0.0
C1613 C 0.36624 0.19033 0.57647 0.0
C1614 C 0.35757 0.18197 0.5973 0.0
H1615 H 0.35393 0.17852 0.73829 0.0
H1616 H 0.36131 0.18351 0.69364 0.0
H1617 H 0.35462 0.19027 0.71501 0.0
H1618 H 0.35124 0.19783 0.65409 0.0
H1619 H 0.36634 0.21242 0.61815 0.0
H1620 H 0.79125 0.15506 0.61293 0.0
H1621 H 0.80575 0.15506 0.65128 0.0
H1622 H 0.82976 0.18545 0.59817 0.0
H1623 H 0.81518 0.18562 0.55967 0.0
H1624 H 0.82476 0.1551 0.62525 0.0
H1625 H 0.83455 0.19173 0.71461 0.0
H1626 H 0.8221 0.18463 0.68652 0.0
H1627 H 0.83495 0.19378 0.66362 0.0
C1628 C 0.7996 0.16178 0.60934 0.0
C1629 C 0.80208 0.17038 0.58337 0.0
C1630 C 0.80787 0.16174 0.63128 0.0
C1631 C 0.81876 0.17031 0.62781 0.0
C1632 C 0.82134 0.17886 0.6016 0.0
H1633 H 0.87917 0.18344 0.73538 0.0
H1634 H 0.86463 0.18366 0.69794 0.0
C1635 C 0.81304 0.17891 0.57952 0.0
C1636 C 0.82736 0.17011 0.65152 0.0
H1637 H 0.84562 0.18358 0.72364 0.0
C1638 C 0.82933 0.16131 0.64681 0.0
C1639 C 0.83321 0.17821 0.67966 0.0
C1640 C 0.83107 0.18759 0.68678 0.0
C1641 C 0.83718 0.16048 0.66921 0.0
C1642 C 0.84302 0.16857 0.69738 0.0
C1643 C 0.84105 0.17737 0.70208 0.0
C1644 C 0.85162 0.16836 0.72106 0.0
C1645 C 0.83933 0.15111 0.66198 0.0
C1646 C 0.84905 0.15972 0.74687 0.0
C1647 C 0.85737 0.15954 0.76838 0.0
C1648 C 0.86834 0.16802 0.76439 0.0
C1649 C 0.8708 0.17675 0.73903 0.0
C1650 C 0.86252 0.17692 0.71763 0.0
H1651 H 0.83591 0.14703 0.63402 0.0
H1652 H 0.84829 0.15406 0.66244 0.0
H1653 H 0.83538 0.14487 0.68495 0.0
H1654 H 0.84063 0.15313 0.75029 0.0
H1655 H 0.85524 0.15273 0.78779 0.0
H1656 H 0.03014 0.48647 0.43969 0.0
H1657 H 0.01644 0.48762 0.47921 0.0
H1658 H 0.02416 0.51827 0.42488 0.0
H1659 H 0.03794 0.51717 0.38468 0.0
H1660 H 0.02035 0.50484 0.53067 0.0
H1661 H 0.99021 0.49907 0.41647 0.0
H1662 H 1.00088 0.49562 0.4096 0.0
H1663 H 0.00418 0.50973 0.40801 0.0
C1664 C 0.02891 0.49344 0.43588 0.0
C1665 C 0.03511 0.50173 0.40899 0.0
C1666 C 0.02109 0.49408 0.45857 0.0
C1667 C 0.01926 0.50297 0.45471 0.0
C1668 C 0.02537 0.51126 0.42782 0.0
H1669 H 0.97526 0.51953 0.57132 0.0
H1670 H 0.98964 0.51945 0.53241 0.0
C1671 C 0.03324 0.51064 0.405 0.0
C1672 C 0.01112 0.5036 0.47972 0.0
H1673 H 0.98637 0.5027 0.47904 0.0
C1674 C 0.01292 0.50437 0.51947 0.0
C1675 C 1.00145 0.50296 0.46483 0.0
C1676 C 0.99897 0.50171 0.42243 0.0
C1677 C 0.0053 0.50461 0.54485 0.0
C1678 C 0.9956 0.50391 0.52998 0.0
C1679 C 0.99384 0.50321 0.49022 0.0
C1680 C 0.98722 0.50405 0.55511 0.0
C1681 C 0.00774 0.50579 0.58727 0.0
C1682 C 0.98114 0.4954 0.58081 0.0
C1683 C 0.97287 0.4954 0.60321 0.0
C1684 C 0.97058 0.50404 0.6 0.0
C1685 C 0.97681 0.51274 0.57449 0.0
C1686 C 0.98503 0.51272 0.55218 0.0
H1687 H 0.01654 0.50862 0.59323 0.0
H1688 H 0.0056 0.51169 0.60039 0.0
H1689 H 0.00268 0.49769 0.60139 0.0
H1690 H 0.98264 0.48856 0.58299 0.0
H1691 H 0.96816 0.48856 0.62243 0.0
H1692 H 0.50227 0.48287 0.66273 0.0
H1693 H 0.50148 0.49596 0.61836 0.0
H1694 H 0.51989 0.48905 0.53479 0.0
H1695 H 0.5211 0.47631 0.57932 0.0
H1696 H 0.52639 0.51042 0.53644 0.0
H1697 H 0.48087 0.48611 0.52735 0.0
H1698 H 0.48578 0.49032 0.57535 0.0
H1699 H 0.48891 0.48097 0.55051 0.0
C1700 C 0.5063 0.48426 0.63514 0.0
C1701 C 0.51159 0.47841 0.62431 0.0
C1702 C 0.50573 0.49165 0.60967 0.0
C1703 C 0.51031 0.49319 0.57285 0.0
C1704 C 0.51616 0.48786 0.56288 0.0
H1705 H 0.4939 0.52254 0.38031 0.0
H1706 H 0.49566 0.50948 0.42267 0.0
C1707 C 0.51684 0.48057 0.58841 0.0
C1708 C 0.5089 0.50019 0.54437 0.0
H1709 H 0.48951 0.50377 0.4977 0.0
C1710 C 0.51833 0.50894 0.52784 0.0
C1711 C 0.49835 0.49806 0.53247 0.0
C1712 C 0.4879 0.48829 0.54702 0.0
C1713 C 0.51752 0.51582 0.50051 0.0
C1714 C 0.507 0.51408 0.49029 0.0
C1715 C 0.49756 0.50514 0.50593 0.0
C1716 C 0.5057 0.52177 0.46483 0.0
C1717 C 0.52795 0.52483 0.48262 0.0
C1718 C 0.51051 0.53287 0.47508 0.0
C1719 C 0.50961 0.54029 0.45101 0.0
C1720 C 0.50371 0.53672 0.41642 0.0
C1721 C 0.49854 0.52551 0.40671 0.0
C1722 C 0.49954 0.51807 0.43081 0.0
H1723 H 0.53469 0.52285 0.48383 0.0
H1724 H 0.52662 0.52623 0.45223 0.0
H1725 H 0.5307 0.5326 0.49871 0.0
H1726 H 0.515 0.53583 0.50177 0.0
H1727 H 0.51353 0.54884 0.45966 0.0
H1728 H 0.54575 0.02775 0.57106 0.0
H1729 H 0.53133 0.0131 0.53289 0.0
H1730 H 0.50725 0.01993 0.5829 0.0
H1731 H 0.52173 0.03482 0.62107 0.0
H1732 H 0.51178 0.9942 0.55622 0.0
H1733 H 0.50386 0.02225 0.46616 0.0
H1734 H 0.51593 0.02713 0.49602 0.0
H1735 H 0.50289 0.02365 0.51701 0.0
C1736 C 0.53738 0.02615 0.57409 0.0
C1737 C 0.53487 0.03249 0.59884 0.0
C1738 C 0.52917 0.01775 0.5523 0.0
C1739 C 0.5183 0.01557 0.55475 0.0
C1740 C 0.51566 0.02165 0.58024 0.0
H1741 H 0.45819 0.97031 0.44199 0.0
H1742 H 0.47275 0.98438 0.48133 0.0
C1743 C 0.5239 0.03009 0.60214 0.0
C1744 C 0.50982 0.00702 0.53002 0.0
H1745 H 0.49227 0.00313 0.45631 0.0
C1746 C 0.50751 0.99612 0.53431 0.0
C1747 C 0.50438 0.00964 0.50136 0.0
C1748 C 0.50692 0.02131 0.49449 0.0
C1749 C 0.49967 0.98769 0.51108 0.0
C1750 C 0.49419 0.99031 0.48258 0.0
C1751 C 0.49655 0.00121 0.47819 0.0
C1752 C 0.48557 0.98177 0.45822 0.0
C1753 C 0.49713 0.97602 0.51778 0.0
C1754 C 0.48803 0.97575 0.43187 0.0
C1755 C 0.4797 0.96765 0.4092 0.0
C1756 C 0.46883 0.96552 0.41265 0.0
C1757 C 0.46647 0.97171 0.43872 0.0
C1758 C 0.47477 0.97977 0.46122 0.0
H1759 H 0.50041 0.9751 0.54569 0.0
H1760 H 0.48811 0.97024 0.51707 0.0
H1761 H 0.50094 0.9736 0.49465 0.0
H1762 H 0.49639 0.97734 0.42881 0.0
H1763 H 0.48174 0.96301 0.3893 0.0
H1764 H 0.51417 0.98834 0.85475 0.0
H1765 H 0.51612 0.00159 0.90416 0.0
H1766 H 0.49022 0.97548 0.96995 0.0
H1767 H 0.48818 0.96217 0.92088 0.0
H1768 H 0.50044 0.00671 0.93913 0.0
H1769 H 0.51769 0.98888 0.04157 0.0
H1770 H 0.51662 0.98606 0.99075 0.0
H1771 H 0.50465 0.97922 0.02076 0.0
C1772 C 0.50874 0.98544 0.87938 0.0
C1773 C 0.50113 0.97417 0.88418 0.0
C1774 C 0.5099 0.99301 0.90761 0.0
C1775 C 0.5035 0.98943 0.94099 0.0
C1776 C 0.4954 0.97833 0.94469 0.0
H1777 H 0.49917 0.01918 0.15087 0.0
H1778 H 0.49854 0.00669 0.10081 0.0
C1779 C 0.49421 0.97076 0.91652 0.0
C1780 C 0.50558 0.99721 0.97269 0.0
H1781 H 0.51424 0.00266 0.06572 0.0
C1782 C 0.50351 0.00589 0.96676 0.0
C1783 C 0.50962 0.99607 0.00857 0.0
C1784 C 0.51237 0.98712 0.01588 0.0
C1785 C 0.50508 0.01333 0.99626 0.0
C1786 C 0.50906 0.01216 0.03225 0.0
C1787 C 0.51122 0.00353 0.03804 0.0
C1788 C 0.51063 0.01961 0.06462 0.0
C1789 C 0.50214 0.02216 0.98899 0.0
C1790 C 0.51805 0.03093 0.06165 0.0
C1791 C 0.51843 0.03809 0.09015 0.0
C1792 C 0.51143 0.03402 0.1222 0.0
C1793 C 0.50464 0.02259 0.1265 0.0
C1794 C 0.50424 0.01543 0.09787 0.0
H1795 H 0.4968 0.02032 0.96334 0.0
H1796 H 0.49784 0.02314 0.01412 0.0
H1797 H 0.50978 0.03012 0.984 0.0
H1798 H 0.52325 0.03427 0.03661 0.0
H1799 H 0.52385 0.04685 0.08625 0.0
H1800 H 0.96395 0.45427 0.03758 0.0
H1801 H 0.9782 0.46754 0.9954 0.0
H1802 H 0.98559 0.49341 0.07712 0.0
H1803 H 0.97099 0.48009 0.11957 0.0
H1804 H 0.9851 0.49964 0.00248 0.0
H1805 H 0.01085 0.48008 0.01301 0.0
H1806 H 0.99707 0.4705 0.99814 0.0
H1807 H 0.99948 0.47667 0.04501 0.0
C1808 C 0.96861 0.46278 0.04675 0.0
C1809 C 0.96649 0.46614 0.08213 0.0
C1810 C 0.97678 0.47034 0.02263 0.0
C1811 C 0.98314 0.48137 0.03366 0.0
C1812 C 0.98083 0.48488 0.06839 0.0
H1813 H 0.04394 0.52643 0.91868 0.0
H1814 H 0.03 0.51384 0.96338 0.0
C1815 C 0.97252 0.47729 0.09253 0.0
C1816 C 0.99213 0.48914 0.00845 0.0
H1817 H 0.01496 0.49272 0.9611 0.0
C1818 C 0.9917 0.49822 0.99368 0.0
C1819 C 1.00081 0.48733 0.99754 0.0
C1820 C 0.00216 0.47818 0.01459 0.0
C1821 C 0.99956 0.50536 0.96724 0.0
C1822 C 0.00786 0.50315 0.95457 0.0
C1823 C 0.00846 0.49426 0.97028 0.0
C1824 C 0.01624 0.51018 0.92609 0.0
C1825 C 0.99899 0.51528 0.95364 0.0
C1826 C 0.01316 0.51195 0.88965 0.0
C1827 C 0.02113 0.51927 0.8641 0.0
C1828 C 0.03231 0.5248 0.87446 0.0
C1829 C 0.0354 0.52242 0.90997 0.0
C1830 C 0.02743 0.51522 0.9356 0.0
H1831 H 0.99429 0.51748 0.97392 0.0
H1832 H 0.00735 0.52253 0.95007 0.0
H1833 H 0.99473 0.5134 0.92551 0.0
H1834 H 0.00458 0.50785 0.88129 0.0
H1835 H 0.01849 0.52085 0.8368 0.0
H1836 H 0.54232 0.52172 0.10251 0.0
H1837 H 0.52781 0.52057 0.06105 0.0
H1838 H 0.50887 0.48553 0.07992 0.0
H1839 H 0.52352 0.48656 0.12117 0.0
H1840 H 0.51187 0.49163 0.0027 0.0
H1841 H 0.49726 0.51577 0.08458 0.0
H1842 H 0.51191 0.52282 0.07815 0.0
H1843 H 0.50531 0.51041 0.10622 0.0
C1844 C 0.535 0.51378 0.09836 0.0
C1845 C 0.53406 0.50422 0.11502 0.0
C1846 C 0.52668 0.51316 0.07485 0.0
C1847 C 0.51723 0.50299 0.06782 0.0
C1848 C 0.5161 0.49346 0.08527 0.0
H1849 H 0.46118 0.48252 0.91997 0.0
H1850 H 0.4753 0.48352 0.96328 0.0
C1851 C 0.52443 0.49407 0.10891 0.0
C1852 C 0.50903 0.50225 0.03971 0.0
H1853 H 0.49177 0.51211 0.019 0.0
C1854 C 0.50739 0.49602 0.00637 0.0
C1855 C 0.50331 0.50809 0.04454 0.0
C1856 C 0.50444 0.51457 0.08047 0.0
C1857 C 0.50029 0.49561 0.97733 0.0
C1858 C 0.49463 0.50149 0.98208 0.0
C1859 C 0.49624 0.50771 0.01542 0.0
C1860 C 0.48654 0.50084 0.95369 0.0
C1861 C 0.49903 0.48904 0.94152 0.0
C1862 C 0.48822 0.5103 0.93407 0.0
C1863 C 0.48015 0.50977 0.90919 0.0
C1864 C 0.47026 0.4998 0.90412 0.0
C1865 C 0.46872 0.49033 0.92333 0.0
C1866 C 0.47679 0.49085 0.94793 0.0
H1867 H 0.50589 0.48729 0.93817 0.0
H1868 H 0.49122 0.48105 0.94318 0.0
H1869 H 0.49867 0.49346 0.91562 0.0
H1870 H 0.4957 0.5181 0.93845 0.0
H1871 H 0.48151 0.51721 0.89495 0.0
H1872 H 0.21953 0.17581 0.30335 0.0
H1873 H 0.21155 0.18651 0.27816 0.0
H1874 H 0.24266 0.21638 0.29279 0.0
H1875 H 0.2507 0.20571 0.31849 0.0
H1876 H 0.20957 0.20303 0.31406 0.0
H1877 H 0.23454 0.21859 0.18114 0.0
H1878 H 0.23385 0.20739 0.20883 0.0
H1879 H 0.24228 0.22133 0.22482 0.0
C1880 C 0.22471 0.18466 0.30112 0.0
C1881 C 0.23584 0.18986 0.31224 0.0
C1882 C 0.22013 0.19077 0.28664 0.0
C1883 C 0.22653 0.20223 0.28295 0.0
C1884 C 0.23762 0.2075 0.29443 0.0
H1885 H 0.19681 0.24367 0.2475 0.0
H1886 H 0.20768 0.23582 0.27238 0.0
C1887 C 0.24223 0.20138 0.30896 0.0
C1888 C 0.22142 0.20859 0.2682 0.0
H1889 H 0.22218 0.22502 0.19442 0.0
C1890 C 0.21236 0.20788 0.288 0.0
C1891 C 0.22499 0.21483 0.23397 0.0
C1892 C 0.23438 0.21555 0.21067 0.0
C1893 C 0.20675 0.21316 0.27445 0.0
C1894 C 0.21039 0.2195 0.24044 0.0
C1895 C 0.21946 0.22024 0.22066 0.0
C1896 C 0.20454 0.22497 0.22407 0.0
C1897 C 0.19676 0.21163 0.29606 0.0
C1898 C 0.19943 0.22175 0.18807 0.0
C1899 C 0.19335 0.22637 0.17345 0.0
C1900 C 0.19237 0.23442 0.19427 0.0
C1901 C 0.19766 0.23777 0.23004 0.0
C1902 C 0.20374 0.23314 0.24467 0.0
H1903 H 0.19356 0.20455 0.31615 0.0
H1904 H 0.19901 0.21915 0.31308 0.0
H1905 H 0.19006 0.21032 0.27597 0.0
H1906 H 0.19993 0.21545 0.17166 0.0
H1907 H 0.18933 0.22356 0.1459 0.0
H1908 H 0.78757 0.96143 0.19565 0.0
H1909 H 0.79515 0.97994 0.22226 0.0
H1910 H 0.76414 0.97862 0.20303 0.0
H1911 H 0.7565 0.96007 0.17643 0.0
H1912 H 0.79789 0.99865 0.18939 0.0
H1913 H 0.77004 0.98785 0.31491 0.0
H1914 H 0.77102 0.9776 0.28662 0.0
H1915 H 0.76306 0.98358 0.26963 0.0
C1916 C 0.78235 0.96506 0.1972 0.0
C1917 C 0.77135 0.95916 0.18472 0.0
C1918 C 0.78669 0.97564 0.21245 0.0
C1919 C 0.78016 0.98061 0.2154 0.0
C1920 C 0.76924 0.97485 0.20214 0.0
H1921 H 0.8095 0.05144 0.25644 0.0
H1922 H 0.79927 0.03303 0.22889 0.0
C1923 C 0.76487 0.96422 0.18702 0.0
C1924 C 0.78494 0.99191 0.2315 0.0
H1925 H 0.78223 0.00683 0.30385 0.0
C1926 C 0.79445 1.00044 0.21437 0.0
C1927 C 0.78053 0.99423 0.26437 0.0
C1928 C 0.77066 0.98533 0.28524 0.0
C1929 C 0.79968 0.01119 0.22921 0.0
C1930 C 0.79514 0.01356 0.26164 0.0
C1931 C 0.78563 0.00504 0.27876 0.0
C1932 C 0.80048 0.0247 0.27933 0.0
C1933 C 0.81022 0.01982 0.21071 0.0
C1934 C 0.80419 0.02615 0.31741 0.0
C1935 C 0.80982 0.03668 0.33361 0.0
C1936 C 0.81179 0.04599 0.31222 0.0
C1937 C 0.80786 0.04449 0.27431 0.0
C1938 C 0.80217 0.03394 0.25817 0.0
H1939 H 0.81404 0.01607 0.19283 0.0
H1940 H 0.8084 0.02508 0.19182 0.0
H1941 H 0.81628 0.02516 0.23266 0.0
H1942 H 0.80297 0.01915 0.33435 0.0
H1943 H 0.81278 0.03754 0.36281 0.0
H1944 H 0.95963 0.78583 0.30199 0.0
H1945 H 0.97823 0.79347 0.27621 0.0
H1946 H 0.97618 0.76192 0.28923 0.0
H1947 H 0.95749 0.75419 0.3147 0.0
H1948 H 0.99641 0.7956 0.30894 0.0
H1949 H 0.98665 0.7693 0.17964 0.0
H1950 H 0.97616 0.76984 0.20788 0.0
H1951 H 0.98206 0.7617 0.22365 0.0
C1952 C 0.96311 0.78049 0.29916 0.0
C1953 C 0.95699 0.76934 0.30969 0.0
C1954 C 0.97375 0.78487 0.28439 0.0
C1955 C 0.97856 0.77824 0.28005 0.0
C1956 C 0.97254 0.76713 0.29118 0.0
H1957 H 0.04973 0.80774 0.24735 0.0
H1958 H 0.03107 0.7975 0.27259 0.0
C1959 C 0.96183 0.76271 0.3057 0.0
C1960 C 0.99001 0.78313 0.26508 0.0
H1961 H 0.00556 0.78111 0.19352 0.0
C1962 C 0.99841 0.79242 0.28371 0.0
C1963 C 0.99261 0.77907 0.23189 0.0
C1964 C 0.98389 0.76949 0.20934 0.0
C1965 C 0.00929 0.79777 0.27008 0.0
C1966 C 0.01195 0.79357 0.23742 0.0
C1967 C 0.00356 0.78427 0.21879 0.0
C1968 C 0.02328 0.79899 0.22115 0.0
C1969 C 0.01775 0.80811 0.29015 0.0
C1970 C 0.02514 0.80287 0.18324 0.0
C1971 C 0.03582 0.80848 0.16829 0.0
C1972 C 0.0449 0.81027 0.19078 0.0
C1973 C 0.04299 0.80622 0.22859 0.0
C1974 C 0.03229 0.80054 0.24344 0.0
H1975 H 0.01383 0.81184 0.3076 0.0
H1976 H 0.02269 0.80605 0.30975 0.0
H1977 H 0.02341 0.81433 0.26923 0.0
H1978 H 0.01833 0.80178 0.16542 0.0
H1979 H 0.03698 0.81152 0.13912 0.0
H1980 H 0.81338 0.7784 0.85889 0.0
H1981 H 0.80333 0.78691 0.83206 0.0
H1982 H 0.79902 0.76944 0.72596 0.0
H1983 H 0.80949 0.76131 0.75193 0.0
H1984 H 0.80593 0.79082 0.71349 0.0
H1985 H 0.77074 0.77421 0.81415 0.0
H1986 H 0.78377 0.78112 0.83829 0.0
H1987 H 0.78 0.76881 0.81128 0.0
C1988 C 0.81019 0.77627 0.82997 0.0
C1989 C 0.81201 0.7689 0.80803 0.0
C1990 C 0.80435 0.78108 0.81477 0.0
C1991 C 0.80016 0.77862 0.77727 0.0
C1992 C 0.80201 0.77133 0.75519 0.0
H1993 H 0.75575 0.79947 0.68067 0.0
H1994 H 0.76372 0.78867 0.70555 0.0
C1995 C 0.80788 0.76653 0.77035 0.0
C1996 C 0.79445 0.78418 0.76038 0.0
H1997 H 0.77332 0.78932 0.77491 0.0
C1998 C 0.79875 0.79041 0.72678 0.0
C1999 C 0.78497 0.78355 0.77733 0.0
C2000 C 0.77952 0.77647 0.81202 0.0
C2001 C 0.79404 0.79625 0.71034 0.0
C2002 C 0.78491 0.79608 0.7284 0.0
C2003 C 0.7804 0.78958 0.76133 0.0
C2004 C 0.78002 0.80267 0.71381 0.0
C2005 C 0.79885 0.80248 0.67352 0.0
C2006 C 0.78647 0.81416 0.71066 0.0
C2007 C 0.78192 0.82036 0.69664 0.0
C2008 C 0.77076 0.81524 0.68607 0.0
C2009 C 0.76428 0.80373 0.68953 0.0
C2010 C 0.76885 0.79752 0.70344 0.0
H2011 H 0.80344 0.79917 0.65765 0.0
H2012 H 0.79233 0.80212 0.6545 0.0
H2013 H 0.80471 0.81123 0.6803 0.0
H2014 H 0.79503 0.81836 0.71925 0.0
H2015 H 0.78712 0.8292 0.69447 0.0
H2016 H 0.19166 0.9512 0.74861 0.0
H2017 H 0.20203 0.96972 0.77519 0.0
H2018 H 0.19726 0.98311 0.67038 0.0
H2019 H 0.18731 0.96461 0.64282 0.0
H2020 H 0.21831 0.99555 0.69834 0.0
H2021 H 0.18764 0.98683 0.81324 0.0
H2022 H 0.19328 0.97782 0.81348 0.0
H2023 H 0.185 0.97756 0.77366 0.0
C2024 C 0.19308 0.95807 0.73066 0.0
C2025 C 0.18883 0.9564 0.69318 0.0
C2026 C 0.19885 0.96867 0.74626 0.0
C2027 C 0.20031 0.97781 0.72499 0.0
C2028 C 0.19623 0.97619 0.68737 0.0
H2029 H 0.21397 0.04139 0.80724 0.0
H2030 H 0.2062 0.02277 0.78148 0.0
C2031 C 0.19051 0.9656 0.67171 0.0
C2032 C 0.20582 0.98902 0.74209 0.0
H2033 H 0.20384 0.00426 0.81482 0.0
C2034 C 0.21517 0.99746 0.72387 0.0
C2035 C 0.20163 0.99154 0.77512 0.0
C2036 C 0.19128 0.983 0.79486 0.0
C2037 C 0.22043 0.00833 0.73772 0.0
C2038 C 0.21635 0.0108 0.77115 0.0
C2039 C 0.20702 0.00235 0.7894 0.0
C2040 C 0.22127 0.02217 0.78666 0.0
C2041 C 0.23009 0.01713 0.71573 0.0
C2042 C 0.2323 0.02801 0.79866 0.0
C2043 C 0.23679 0.03871 0.8133 0.0
C2044 C 0.23031 0.04374 0.81638 0.0
C2045 C 0.21921 0.03777 0.80511 0.0
C2046 C 0.21475 0.02713 0.79033 0.0
H2047 H 0.23044 0.01446 0.68601 0.0
H2048 H 0.22971 0.02484 0.71437 0.0
H2049 H 0.23783 0.01896 0.73048 0.0
H2050 H 0.23741 0.02425 0.79717 0.0
H2051 H 0.24525 0.04292 0.82294 0.0
H2052 H 0.96044 0.20303 0.82587 0.0
H2053 H 0.97908 0.21355 0.79972 0.0
H2054 H 0.97886 0.18333 0.77499 0.0
H2055 H 0.96023 0.17277 0.80077 0.0
H2056 H 0.99786 0.19865 0.81112 0.0
H2057 H 0.9885 0.21742 0.68692 0.0
H2058 H 0.98406 0.21972 0.73257 0.0
H2059 H 0.97791 0.206 0.71358 0.0
C2060 C 0.96424 0.19861 0.8141 0.0
C2061 C 0.95872 0.18704 0.8146 0.0
C2062 C 0.97494 0.20464 0.79929 0.0
C2063 C 0.9803 0.19922 0.78473 0.0
C2064 C 0.97487 0.18769 0.78584 0.0
H2065 H 0.03817 0.22277 0.64164 0.0
H2066 H 0.01955 0.21418 0.66843 0.0
C2067 C 0.96422 0.18167 0.80065 0.0
C2068 C 0.99168 0.2055 0.76926 0.0
H2069 H 0.00729 0.22328 0.69828 0.0
C2070 C 0.99993 0.20406 0.78651 0.0
C2071 C 0.99434 0.21245 0.73687 0.0
C2072 C 0.98574 0.21395 0.71611 0.0
C2073 C 0.01074 0.20937 0.7723 0.0
C2074 C 0.01346 0.21648 0.74033 0.0
C2075 C 0.00522 0.21791 0.723 0.0
C2076 C 0.02471 0.22218 0.72365 0.0
C2077 C 0.0191 0.20708 0.79103 0.0
C2078 C 0.03379 0.22966 0.74557 0.0
C2079 C 0.04444 0.23454 0.73038 0.0
C2080 C 0.04621 0.23217 0.69272 0.0
C2081 C 0.03708 0.22482 0.67066 0.0
C2082 C 0.02643 0.21993 0.68587 0.0
H2083 H 0.0151 0.19947 0.80869 0.0
H2084 H 0.02438 0.20622 0.76921 0.0
H2085 H 0.02446 0.21405 0.81015 0.0
H2086 H 0.03266 0.2316 0.77467 0.0
H2087 H 0.05127 0.23984 0.74872 0.0
H2088 H 0.91139 0.53518 0.6606 0.0
H2089 H 0.90362 0.54611 0.63527 0.0
H2090 H 0.87281 0.5164 0.61415 0.0
H2091 H 0.88055 0.50542 0.63931 0.0
H2092 H 0.89525 0.54603 0.56384 0.0
H2093 H 0.86308 0.53478 0.67469 0.0
H2094 H 0.87422 0.53194 0.68001 0.0
H2095 H 0.86238 0.52304 0.65144 0.0
C2096 C 0.90302 0.53095 0.65005 0.0
C2097 C 0.89665 0.5194 0.65138 0.0
C2098 C 0.89855 0.53723 0.63588 0.0
C2099 C 0.88759 0.5321 0.62317 0.0
C2100 C 0.88122 0.52057 0.62448 0.0
H2101 H 0.85668 0.55813 0.47361 0.0
H2102 H 0.86612 0.54911 0.50161 0.0
C2103 C 0.88567 0.5143 0.63874 0.0
C2104 C 0.88288 0.53877 0.60784 0.0
H2105 H 0.86164 0.54387 0.61907 0.0
C2106 C 0.88794 0.54562 0.57606 0.0
C2107 C 0.87345 0.53838 0.62414 0.0
C2108 C 0.86802 0.53173 0.65969 0.0
C2109 C 0.88364 0.55182 0.55951 0.0
C2110 C 0.87391 0.55102 0.57471 0.0
C2111 C 0.86903 0.54441 0.60714 0.0
C2112 C 0.86855 0.55685 0.55721 0.0
C2113 C 0.88966 0.55928 0.52617 0.0
C2114 C 0.8665 0.564 0.57932 0.0
C2115 C 0.861 0.56909 0.56346 0.0
C2116 C 0.85745 0.56716 0.52506 0.0
C2117 C 0.85945 0.55993 0.5031 0.0
C2118 C 0.86492 0.55483 0.51899 0.0
H2119 H 0.89844 0.56147 0.5255 0.0
H2120 H 0.88579 0.55496 0.49899 0.0
H2121 H 0.88925 0.56698 0.52737 0.0
H2122 H 0.86906 0.56556 0.60906 0.0
H2123 H 0.85921 0.5742 0.58183 0.0
H2124 H 0.48239 0.38442 0.58771 0.0
H2125 H 0.47227 0.36592 0.56019 0.0
H2126 H 0.46776 0.35185 0.67319 0.0
H2127 H 0.47775 0.37037 0.70101 0.0
H2128 H 0.47849 0.34906 0.5702 0.0
H2129 H 0.43633 0.3358 0.62348 0.0
H2130 H 0.44689 0.35011 0.62015 0.0
H2131 H 0.44717 0.34173 0.65857 0.0
C2132 C 0.47897 0.37742 0.60684 0.0
C2133 C 0.48063 0.37886 0.64667 0.0
C2134 C 0.4733 0.36684 0.591 0.0
C2135 C 0.46912 0.35752 0.61468 0.0
C2136 C 0.47074 0.35893 0.65445 0.0
H2137 H 0.43518 0.2869 0.58083 0.0
H2138 H 0.4434 0.30565 0.60579 0.0
C2139 C 0.47649 0.3695 0.67027 0.0
C2140 C 0.4636 0.34632 0.59767 0.0
H2141 H 0.43907 0.32221 0.59353 0.0
C2142 C 0.46985 0.3432 0.57504 0.0
C2143 C 0.45236 0.33868 0.60432 0.0
C2144 C 0.44523 0.34172 0.62771 0.0
C2145 C 0.46524 0.33255 0.55956 0.0
C2146 C 0.45396 0.3249 0.56598 0.0
C2147 C 0.4477 0.32806 0.58849 0.0
C2148 C 0.44857 0.3135 0.55031 0.0
C2149 C 0.47261 0.32951 0.53759 0.0
C2150 C 0.44854 0.31162 0.51072 0.0
C2151 C 0.44381 0.30089 0.4964 0.0
C2152 C 0.43878 0.29181 0.52126 0.0
C2153 C 0.43864 0.29368 0.56078 0.0
C2154 C 0.44345 0.30442 0.57513 0.0
H2155 H 0.48143 0.33506 0.54463 0.0
H2156 H 0.4705 0.3209 0.54371 0.0
H2157 H 0.47155 0.33025 0.5064 0.0
H2158 H 0.4522 0.31847 0.49086 0.0
H2159 H 0.44405 0.29967 0.46581 0.0
H2160 H 0.70361 0.15116 0.47205 0.0
H2161 H 0.68493 0.14145 0.4985 0.0
H2162 H 0.69759 0.13645 0.60465 0.0
H2163 H 0.71626 0.14645 0.57897 0.0
H2164 H 0.67236 0.1199 0.52803 0.0
H2165 H 0.68038 0.15157 0.63849 0.0
H2166 H 0.68963 0.15404 0.59894 0.0
H2167 H 0.68965 0.14623 0.63978 0.0
C2168 C 0.7024 0.14794 0.50097 0.0
C2169 C 0.71142 0.1494 0.52308 0.0
C2170 C 0.69172 0.14237 0.516 0.0
C2171 C 0.68987 0.13829 0.55364 0.0
C2172 C 0.69883 0.13961 0.57564 0.0
H2173 H 0.62589 0.09341 0.65659 0.0
H2174 H 0.64451 0.10168 0.6302 0.0
C2175 C 0.70951 0.14517 0.56061 0.0
C2176 C 0.67859 0.13286 0.57007 0.0
H2177 H 0.66303 0.13524 0.64074 0.0
C2178 C 0.67031 0.12324 0.5527 0.0
C2179 C 0.6759 0.13731 0.60197 0.0
C2180 C 0.68432 0.14791 0.62075 0.0
C2181 C 0.65944 0.11789 0.56657 0.0
C2182 C 0.65681 0.12222 0.59895 0.0
C2183 C 0.66508 0.13188 0.61613 0.0
C2184 C 0.64546 0.11707 0.61469 0.0
C2185 C 0.65081 0.1078 0.54589 0.0
C2186 C 0.63989 0.12305 0.61563 0.0
C2187 C 0.62923 0.11832 0.6305 0.0
C2188 C 0.62388 0.10748 0.64471 0.0
C2189 C 0.62957 0.10159 0.64453 0.0
C2190 C 0.64025 0.10634 0.62962 0.0
H2191 H 0.65354 0.10707 0.51669 0.0
H2192 H 0.64912 0.10035 0.56239 0.0
H2193 H 0.64299 0.10795 0.54344 0.0
H2194 H 0.64378 0.13137 0.60453 0.0
H2195 H 0.62511 0.12311 0.63043 0.0
H2196 H 0.43798 0.14047 0.96686 0.0
H2197 H 0.44545 0.12924 0.99194 0.0
H2198 H 0.43584 0.13268 0.10627 0.0
H2199 H 0.42825 0.14377 0.08125 0.0
H2200 H 0.46191 0.13499 0.04083 0.0
H2201 H 0.42452 0.10016 0.10417 0.0
H2202 H 0.42392 0.10997 0.07224 0.0
H2203 H 0.42715 0.11323 0.1222 0.0
C2204 C 0.43731 0.13868 0.99727 0.0
C2205 C 0.43226 0.14278 0.02191 0.0
C2206 C 0.44159 0.13226 0.01159 0.0
C2207 C 0.44101 0.12988 0.05094 0.0
C2208 C 0.43604 0.13404 0.07565 0.0
H2209 H 0.47291 0.10463 0.19878 0.0
H2210 H 0.46246 0.11269 0.17108 0.0
C2211 C 0.43166 0.14038 0.06126 0.0
C2212 C 0.44627 0.1237 0.06633 0.0
H2213 H 0.44172 0.10173 0.12204 0.0
C2214 C 0.45745 0.12765 0.05824 0.0
C2215 C 0.44047 0.11411 0.08913 0.0
C2216 C 0.42833 0.10905 0.09715 0.0
C2217 C 0.46302 0.12246 0.07293 0.0
C2218 C 0.45727 0.11301 0.09623 0.0
C2219 C 0.4461 0.10899 0.10421 0.0
C2220 C 0.46287 0.10739 0.1132 0.0
C2221 C 0.4751 0.12724 0.06421 0.0
C2222 C 0.46639 0.10159 0.08992 0.0
C2223 C 0.47231 0.09692 0.1057 0.0
C2224 C 0.47478 0.09796 0.14509 0.0
C2225 C 0.47107 0.10364 0.16839 0.0
C2226 C 0.46509 0.10822 0.15264 0.0
H2227 H 0.47875 0.13554 0.05101 0.0
H2228 H 0.47972 0.12782 0.09078 0.0
H2229 H 0.47616 0.12173 0.04398 0.0
H2230 H 0.46477 0.10087 0.05938 0.0
H2231 H 0.47532 0.09291 0.08671 0.0
H2232 H 0.86026 0.28516 0.08311 0.0
H2233 H 0.87033 0.30362 0.11024 0.0
H2234 H 0.86669 0.3172 0.00398 0.0
H2235 H 0.85707 0.29875 0.9759 0.0
H2236 H 0.88735 0.32962 0.03422 0.0
H2237 H 0.85573 0.32073 0.14551 0.0
H2238 H 0.86134 0.3117 0.14716 0.0
H2239 H 0.85345 0.31149 0.10615 0.0
C2240 C 0.86188 0.29205 0.06499 0.0
C2241 C 0.85805 0.29044 0.02693 0.0
C2242 C 0.86746 0.30263 0.08089 0.0
C2243 C 0.86914 0.3118 0.05937 0.0
C2244 C 0.86548 0.31025 0.0212 0.0
H2245 H 0.88287 0.37538 0.14407 0.0
H2246 H 0.87499 0.35685 0.1173 0.0
C2247 C 0.85995 0.29969 0.00523 0.0
C2248 C 0.87451 0.323 0.07671 0.0
H2249 H 0.87206 0.33805 0.14912 0.0
C2250 C 0.88402 0.33147 0.05937 0.0
C2251 C 0.87007 0.32545 0.10922 0.0
C2252 C 0.85953 0.3169 0.12793 0.0
C2253 C 0.88923 0.34229 0.07369 0.0
C2254 C 0.88494 0.34468 0.10675 0.0
C2255 C 0.87542 0.33621 0.12401 0.0
C2256 C 0.8899 0.35598 0.123 0.0
C2257 C 0.89909 0.35112 0.05258 0.0
C2258 C 0.90088 0.36164 0.13571 0.0
C2259 C 0.90543 0.37228 0.1509 0.0
C2260 C 0.89906 0.37745 0.15387 0.0
C2261 C 0.88801 0.37165 0.14201 0.0
C2262 C 0.88349 0.36106 0.12666 0.0
H2263 H 0.89956 0.34859 0.02276 0.0
H2264 H 0.89888 0.35892 0.05157 0.0
H2265 H 0.90671 0.35272 0.06775 0.0
H2266 H 0.9059 0.35778 0.1343 0.0
H2267 H 0.91385 0.37635 0.16097 0.0
H2268 H 0.62117 0.52639 0.09164 0.0
H2269 H 0.63978 0.53707 0.06612 0.0
H2270 H 0.6527 0.53018 0.16801 0.0
H2271 H 0.6341 0.51991 0.19465 0.0
H2272 H 0.66531 0.55179 0.14483 0.0
H2273 H 0.65698 0.52338 0.02251 0.0
H2274 H 0.64795 0.52898 0.02468 0.0
H2275 H 0.64757 0.51999 0.06217 0.0
C2276 C 0.62795 0.52739 0.10923 0.0
C2277 C 0.62612 0.52247 0.14566 0.0
C2278 C 0.63861 0.53334 0.09419 0.0
C2279 C 0.64764 0.53433 0.11492 0.0
C2280 C 0.64587 0.52953 0.15146 0.0
H2281 H 0.7114 0.54983 0.02832 0.0
H2282 H 0.69285 0.54154 0.05497 0.0
C2283 C 0.63522 0.52362 0.16657 0.0
C2284 C 0.65892 0.54015 0.09835 0.0
H2285 H 0.67436 0.53966 0.02341 0.0
C2286 C 0.6673 0.54916 0.11825 0.0
C2287 C 0.66154 0.53662 0.06391 0.0
C2288 C 0.65307 0.52665 0.04221 0.0
C2289 C 0.67819 0.55473 0.10464 0.0
C2290 C 0.68076 0.55133 0.06981 0.0
C2291 C 0.67238 0.54233 0.04993 0.0
C2292 C 0.69216 0.55661 0.0543 0.0
C2293 C 0.68692 0.564 0.12828 0.0
C2294 C 0.69794 0.56784 0.04467 0.0
C2295 C 0.70861 0.57263 0.02951 0.0
C2296 C 0.71366 0.56625 0.02353 0.0
C2297 C 0.70777 0.55498 0.03267 0.0
C2298 C 0.69716 0.55023 0.04795 0.0
H2299 H 0.6842 0.56376 0.15836 0.0
H2300 H 0.69467 0.56367 0.12855 0.0
H2301 H 0.68871 0.57198 0.11559 0.0
H2302 H 0.69415 0.57287 0.04826 0.0
H2303 H 0.71276 0.58123 0.02161 0.0
H2304 H 0.55097 0.84132 0.96899 0.0
H2305 H 0.54288 0.85178 0.94243 0.0
H2306 H 0.57405 0.88177 0.95425 0.0
H2307 H 0.58222 0.8713 0.98058 0.0
H2308 H 0.54032 0.86765 0.9746 0.0
H2309 H 0.56623 0.88424 0.84447 0.0
H2310 H 0.56604 0.87344 0.87311 0.0
H2311 H 0.57393 0.88754 0.88833 0.0
C2312 C 0.55614 0.85014 0.96573 0.0
C2313 C 0.5673 0.85544 0.97625 0.0
C2314 C 0.5515 0.85612 0.9505 0.0
C2315 C 0.55788 0.86756 0.94565 0.0
C2316 C 0.56902 0.87292 0.95663 0.0
H2317 H 0.52711 0.90802 0.91224 0.0
H2318 H 0.53755 0.8998 0.93743 0.0
C2319 C 0.5737 0.86691 0.97164 0.0
C2320 C 0.55269 0.87381 0.93041 0.0
H2321 H 0.55405 0.89093 0.85813 0.0
C2322 C 0.54333 0.87274 0.94914 0.0
C2323 C 0.55653 0.88037 0.89691 0.0
C2324 C 0.56617 0.88141 0.87427 0.0
C2325 C 0.53771 0.87799 0.93535 0.0
C2326 C 0.5417 0.88476 0.90238 0.0
C2327 C 0.55105 0.88584 0.88361 0.0
C2328 C 0.53604 0.89045 0.88616 0.0
C2329 C 0.52734 0.87594 0.95562 0.0
C2330 C 0.53205 0.88831 0.84838 0.0
C2331 C 0.52631 0.89326 0.83346 0.0
C2332 C 0.52451 0.90057 0.85583 0.0
C2333 C 0.52863 0.90279 0.89355 0.0
C2334 C 0.53443 0.89788 0.90838 0.0
H2335 H 0.52379 0.86833 0.97327 0.0
H2336 H 0.5293 0.88294 0.97508 0.0
H2337 H 0.52101 0.8752 0.93483 0.0
H2338 H 0.53318 0.88262 0.83063 0.0
H2339 H 0.52323 0.89133 0.80436 0.0
H2340 H 0.11185 0.63175 0.79992 0.0
H2341 H 0.12046 0.65026 0.82755 0.0
H2342 H 0.10468 0.63658 0.93577 0.0
H2343 H 0.09646 0.61808 0.90893 0.0
H2344 H 0.11154 0.66206 0.86072 0.0
H2345 H 0.13699 0.65476 0.96558 0.0
H2346 H 0.12986 0.64542 0.92658 0.0
H2347 H 0.12249 0.6452 0.96908 0.0
C2348 C 0.11018 0.63268 0.82958 0.0
C2349 C 0.10328 0.62341 0.85192 0.0
C2350 C 0.11508 0.64327 0.8453 0.0
C2351 C 0.11329 0.64481 0.88384 0.0
C2352 C 0.10627 0.63559 0.90608 0.0
H2353 H 0.13231 0.70881 0.98862 0.0
H2354 H 0.12182 0.69017 0.96247 0.0
C2355 C 0.10139 0.625 0.8904 0.0
C2356 C 0.11897 0.65605 0.90081 0.0
H2357 H 0.13739 0.67178 0.97008 0.0
C2358 C 0.11717 0.66419 0.88468 0.0
C2359 C 0.12644 0.65885 0.93177 0.0
C2360 C 0.12917 0.65064 0.9491 0.0
C2361 C 0.12261 0.67505 0.89872 0.0
C2362 C 0.12991 0.6778 0.93015 0.0
C2363 C 0.13172 0.66965 0.94622 0.0
C2364 C 0.13617 0.68918 0.94576 0.0
C2365 C 0.12071 0.68354 0.87907 0.0
C2366 C 0.14771 0.69475 0.946 0.0
C2367 C 0.15372 0.7054 0.96089 0.0
C2368 C 0.14832 0.71076 0.97578 0.0
C2369 C 0.13674 0.7051 0.97614 0.0
C2370 C 0.13072 0.69441 0.96131 0.0
H2371 H 0.11707 0.6808 0.85008 0.0
H2372 H 0.11493 0.68498 0.89645 0.0
H2373 H 0.12853 0.69149 0.87627 0.0
H2374 H 0.1521 0.69087 0.93438 0.0
H2375 H 0.16262 0.70949 0.96032 0.0
H2376 H 0.37835 0.46577 0.83542 0.0
H2377 H 0.35962 0.45565 0.86114 0.0
H2378 H 0.35986 0.48622 0.878 0.0
H2379 H 0.37856 0.49637 0.85243 0.0
H2380 H 0.3515 0.45676 0.93194 0.0
H2381 H 0.33164 0.46824 0.81778 0.0
H2382 H 0.34541 0.47042 0.81317 0.0
H2383 H 0.34297 0.47997 0.83997 0.0
C2384 C 0.37449 0.47035 0.84507 0.0
C2385 C 0.38002 0.48189 0.84234 0.0
C2386 C 0.36373 0.46454 0.85948 0.0
C2387 C 0.35827 0.47016 0.87105 0.0
C2388 C 0.3638 0.48168 0.86849 0.0
H2389 H 0.3018 0.44799 0.02084 0.0
H2390 H 0.32018 0.45609 0.99257 0.0
C2391 C 0.37452 0.48748 0.85399 0.0
C2392 C 0.34687 0.46403 0.88646 0.0
H2393 H 0.32102 0.46021 0.87431 0.0
C2394 C 0.34481 0.45745 0.91919 0.0
C2395 C 0.3381 0.46478 0.86948 0.0
C2396 C 0.33959 0.47114 0.83294 0.0
C2397 C 0.3343 0.45187 0.93605 0.0
C2398 C 0.32567 0.45307 0.92016 0.0
C2399 C 0.32766 0.45939 0.88678 0.0
C2400 C 0.31452 0.44792 0.93778 0.0
C2401 C 0.33254 0.44465 0.97046 0.0
C2402 C 0.30517 0.44089 0.91611 0.0
C2403 C 0.29464 0.43635 0.93207 0.0
C2404 C 0.29323 0.43871 0.97016 0.0
C2405 C 0.3026 0.44588 0.99161 0.0
C2406 C 0.31313 0.45044 0.97559 0.0
H2407 H 0.3388 0.44201 0.97191 0.0
H2408 H 0.33327 0.44935 0.99696 0.0
H2409 H 0.32423 0.4372 0.96994 0.0
H2410 H 0.30602 0.43897 0.88665 0.0
H2411 H 0.28763 0.43129 0.91405 0.0
H2412 H 0.08911 0.46344 0.34286 0.0
H2413 H 0.09712 0.45284 0.36935 0.0
H2414 H 0.12806 0.48282 0.38552 0.0
H2415 H 0.12012 0.49343 0.35894 0.0
H2416 H 0.13091 0.46696 0.35319 0.0
H2417 H 0.10382 0.45 0.48053 0.0
H2418 H 0.09654 0.44698 0.43579 0.0
H2419 H 0.10439 0.461 0.45194 0.0
C2420 C 0.09754 0.4678 0.35276 0.0
C2421 C 0.1039 0.47931 0.34955 0.0
C2422 C 0.10213 0.46172 0.36784 0.0
C2423 C 0.11314 0.46704 0.38019 0.0
C2424 C 0.11953 0.47852 0.37642 0.0
H2425 H 0.14674 0.44315 0.52562 0.0
H2426 H 0.13686 0.45176 0.49792 0.0
C2427 C 0.11498 0.48458 0.36118 0.0
C2428 C 0.11817 0.46071 0.39608 0.0
H2429 H 0.11608 0.44333 0.4685 0.0
C2430 C 0.12765 0.46178 0.37838 0.0
C2431 C 0.11401 0.45405 0.42923 0.0
C2432 C 0.10419 0.45299 0.45076 0.0
C2433 C 0.13309 0.45642 0.39286 0.0
C2434 C 0.12879 0.44956 0.42551 0.0
C2435 C 0.11931 0.44849 0.44325 0.0
C2436 C 0.1343 0.44383 0.44265 0.0
C2437 C 0.14359 0.45844 0.37371 0.0
C2438 C 0.136 0.43636 0.42109 0.0
C2439 C 0.14174 0.43149 0.43677 0.0
C2440 C 0.14571 0.43382 0.47466 0.0
C2441 C 0.14377 0.44113 0.49642 0.0
C2442 C 0.13808 0.44604 0.48066 0.0
H2443 H 0.14728 0.46603 0.35594 0.0
H2444 H 0.14976 0.45918 0.39523 0.0
H2445 H 0.14176 0.45141 0.35457 0.0
H2446 H 0.13304 0.43441 0.39186 0.0
H2447 H 0.14337 0.42624 0.4186 0.0
H2448 H 0.53632 0.62578 0.33767 0.0
H2449 H 0.54602 0.64423 0.36578 0.0
H2450 H 0.51515 0.64353 0.38009 0.0
H2451 H 0.50541 0.6251 0.35205 0.0
H2452 H 0.53094 0.66292 0.34989 0.0
H2453 H 0.54724 0.65243 0.4783 0.0
H2454 H 0.55089 0.64871 0.43368 0.0
H2455 H 0.5367 0.64208 0.44813 0.0
C2456 C 0.53158 0.62946 0.34746 0.0
C2457 C 0.52006 0.62386 0.34345 0.0
C2458 C 0.53714 0.64003 0.36345 0.0
C2459 C 0.5313 0.64519 0.37584 0.0
C2460 C 0.51983 0.6397 0.37101 0.0
H2461 H 0.55351 0.70206 0.52482 0.0
H2462 H 0.54475 0.68364 0.49632 0.0
C2463 C 0.51428 0.62917 0.35492 0.0
C2464 C 0.5371 0.6564 0.39304 0.0
H2465 H 0.55362 0.67139 0.46764 0.0
C2466 C 0.5359 0.66477 0.37564 0.0
C2467 C 0.54345 0.65878 0.42694 0.0
C2468 C 0.54459 0.65002 0.44813 0.0
C2469 C 0.54093 0.67545 0.391 0.0
C2470 C 0.54753 0.67792 0.4243 0.0
C2471 C 0.54865 0.66953 0.4419 0.0
C2472 C 0.55311 0.68908 0.44179 0.0
C2473 C 0.53889 0.68393 0.3719 0.0
C2474 C 0.56082 0.69826 0.42083 0.0
C2475 C 0.56579 0.7088 0.43697 0.0
C2476 C 0.5633 0.71037 0.47472 0.0
C2477 C 0.55565 0.70114 0.49577 0.0
C2478 C 0.55067 0.6906 0.47956 0.0
H2479 H 0.53142 0.68004 0.35352 0.0
H2480 H 0.53792 0.6892 0.39349 0.0
H2481 H 0.54602 0.68929 0.35339 0.0
H2482 H 0.56294 0.69729 0.39179 0.0
H2483 H 0.57131 0.71571 0.41934 0.0
H2484 H 0.29904 0.85566 0.52545 0.0
H2485 H 0.31753 0.86574 0.49815 0.0
H2486 H 0.30404 0.86952 0.39192 0.0
H2487 H 0.28551 0.85904 0.41843 0.0
H2488 H 0.31842 0.86239 0.38005 0.0
H2489 H 0.33738 0.89825 0.47781 0.0
H2490 H 0.33127 0.88539 0.50303 0.0
H2491 H 0.32269 0.88903 0.47551 0.0
C2492 C 0.30001 0.85876 0.49642 0.0
C2493 C 0.29077 0.85678 0.47456 0.0
C2494 C 0.31062 0.86461 0.48095 0.0
C2495 C 0.31223 0.86863 0.44324 0.0
C2496 C 0.30303 0.86666 0.42129 0.0
H2497 H 0.37754 0.91173 0.3444 0.0
H2498 H 0.35875 0.90423 0.36863 0.0
C2499 C 0.29241 0.86078 0.43674 0.0
C2500 C 0.32344 0.8742 0.42594 0.0
H2501 H 0.34978 0.89527 0.43925 0.0
C2502 C 0.32525 0.86964 0.39282 0.0
C2503 C 0.33234 0.88376 0.44223 0.0
C2504 C 0.33082 0.88947 0.47637 0.0
C2505 C 0.33576 0.87414 0.3763 0.0
C2506 C 0.34478 0.88333 0.39378 0.0
C2507 C 0.34291 0.88813 0.42613 0.0
C2508 C 0.35623 0.88794 0.37937 0.0
C2509 C 0.33709 0.86902 0.3401 0.0
C2510 C 0.36114 0.88133 0.37778 0.0
C2511 C 0.37189 0.88562 0.36419 0.0
C2512 C 0.37806 0.89667 0.35246 0.0
C2513 C 0.37316 0.90329 0.35421 0.0
C2514 C 0.36237 0.89898 0.36774 0.0
H2515 H 0.32917 0.86438 0.32437 0.0
H2516 H 0.34327 0.87537 0.32067 0.0
H2517 H 0.33992 0.86315 0.34767 0.0
H2518 H 0.35666 0.87286 0.38733 0.0
H2519 H 0.37543 0.88031 0.36334 0.0
H2520 H 0.25693 0.10146 0.96054 0.0
H2521 H 0.25324 0.10965 0.0164 0.0
H2522 H 0.24376 0.12805 0.94156 0.0
H2523 H 0.24839 0.12054 0.88585 0.0
H2524 H 0.2561 0.14113 0.98948 0.0
H2525 H 0.22767 0.10511 0.07479 0.0
H2526 H 0.23975 0.10422 0.06574 0.0
H2527 H 0.23118 0.10373 0.02619 0.0
C2528 C 0.25383 0.10708 0.95619 0.0
C2529 C 0.25288 0.11035 0.91908 0.0
C2530 C 0.25162 0.1117 0.98815 0.0
C2531 C 0.24798 0.11936 0.98356 0.0
C2532 C 0.24654 0.12219 0.94615 0.0
H2533 H 0.23859 0.14377 0.20539 0.0
H2534 H 0.23387 0.13544 0.14116 0.0
C2535 C 0.24913 0.11786 0.91429 0.0
C2536 C 0.24694 0.12533 0.01735 0.0
H2537 H 0.2389 0.12202 0.11114 0.0
C2538 C 0.2521 0.13687 0.01574 0.0
C2539 C 0.24149 0.11992 0.05162 0.0
C2540 C 0.2346 0.10756 0.05444 0.0
C2541 C 0.25255 0.14313 0.04782 0.0
C2542 C 0.24826 0.13778 0.08329 0.0
C2543 C 0.24244 0.12621 0.08431 0.0
C2544 C 0.25065 0.14397 0.12011 0.0
C2545 C 0.25769 0.15542 0.04312 0.0
C2546 C 0.26158 0.15172 0.12955 0.0
C2547 C 0.26419 0.15668 0.16557 0.0
C2548 C 0.25601 0.15378 0.19355 0.0
C2549 C 0.24502 0.14629 0.18405 0.0
C2550 C 0.24235 0.14144 0.14753 0.0
H2551 H 0.25607 0.15748 0.01397 0.0
H2552 H 0.25453 0.159 0.06456 0.0
H2553 H 0.26675 0.15934 0.04635 0.0
H2554 H 0.26822 0.15357 0.10973 0.0
H2555 H 0.27274 0.16238 0.17231 0.0
H2556 H 0.90901 0.15109 0.94736 0.0
H2557 H 0.90294 0.13905 0.00395 0.0
H2558 H 0.86926 0.12451 0.96598 0.0
H2559 H 0.87518 0.13627 0.90969 0.0
H2560 H 0.88912 0.13885 0.05977 0.0
H2561 H 0.87075 0.09742 0.99551 0.0
H2562 H 0.87988 0.10974 0.96913 0.0
H2563 H 0.86548 0.10541 0.97359 0.0
C2564 C 0.90033 0.1452 0.95078 0.0
C2565 C 0.89259 0.14469 0.92396 0.0
C2566 C 0.89688 0.13832 0.98311 0.0
C2567 C 0.88566 0.13072 0.98888 0.0
C2568 C 0.87798 0.13007 0.96172 0.0
H2569 H 0.83876 0.09823 0.16103 0.0
H2570 H 0.84938 0.10405 0.10125 0.0
C2571 C 0.8814 0.13693 0.92964 0.0
C2572 C 0.8817 0.12424 0.02491 0.0
H2573 H 0.86404 0.0984 0.0587 0.0
C2574 C 0.88386 0.12997 0.05972 0.0
C2575 C 0.87481 0.11265 0.02481 0.0
C2576 C 0.87269 0.10594 0.98876 0.0
C2577 C 0.87875 0.12454 0.09394 0.0
C2578 C 0.87141 0.11304 0.09343 0.0
C2579 C 0.86966 0.10722 0.05901 0.0
C2580 C 0.86467 0.10723 0.1275 0.0
C2581 C 0.88071 0.13127 0.12992 0.0
C2582 C 0.86962 0.10654 0.1616 0.0
C2583 C 0.86353 0.10312 0.19564 0.0
C2584 C 0.85242 0.10028 0.19584 0.0
C2585 C 0.84727 0.10016 0.16123 0.0
C2586 C 0.85334 0.10355 0.12722 0.0
H2587 H 0.88526 0.14025 0.12407 0.0
H2588 H 0.87277 0.12911 0.14393 0.0
H2589 H 0.88562 0.12943 0.15045 0.0
H2590 H 0.87834 0.10927 0.16234 0.0
H2591 H 0.86769 0.10348 0.22225 0.0
H2592 H 0.86295 0.73638 0.91012 0.0
H2593 H 0.87455 0.74212 0.96691 0.0
H2594 H 0.86272 0.76419 0.99731 0.0
H2595 H 0.85083 0.75832 0.94032 0.0
H2596 H 0.89133 0.76266 0.99105 0.0
H2597 H 0.85611 0.74505 0.09327 0.0
H2598 H 0.85432 0.74189 0.04274 0.0
H2599 H 0.85659 0.75496 0.05954 0.0
C2600 C 0.86278 0.74248 0.9287 0.0
C2601 C 0.85583 0.7468 0.92072 0.0
C2602 C 0.86948 0.74579 0.96117 0.0
C2603 C 0.86943 0.75349 0.98663 0.0
C2604 C 0.86276 0.75809 0.97837 0.0
H2605 H 0.89759 0.76433 0.21752 0.0
H2606 H 0.89145 0.76867 0.1574 0.0
C2607 C 0.856 0.75476 0.94571 0.0
C2608 C 0.87609 0.75624 0.0223 0.0
H2609 H 0.87379 0.75238 0.11926 0.0
C2610 C 0.88752 0.76056 0.01917 0.0
C2611 C 0.87113 0.75351 0.05898 0.0
C2612 C 0.85886 0.74852 0.06408 0.0
C2613 C 0.89404 0.76188 0.05156 0.0
C2614 C 0.88899 0.75868 0.08797 0.0
C2615 C 0.87766 0.75487 0.09133 0.0
C2616 C 0.89494 0.75806 0.12232 0.0
C2617 C 0.90625 0.76654 0.04639 0.0
C2618 C 0.89928 0.75093 0.12238 0.0
C2619 C 0.90284 0.74853 0.1566 0.0
C2620 C 0.90216 0.75323 0.19121 0.0
C2621 C 0.89846 0.76086 0.1909 0.0
C2622 C 0.89486 0.76325 0.15668 0.0
H2623 H 0.90932 0.77186 0.02055 0.0
H2624 H 0.91091 0.7714 0.07182 0.0
H2625 H 0.90794 0.75967 0.0425 0.0
H2626 H 0.89916 0.74661 0.09652 0.0
H2627 H 0.90535 0.74237 0.15649 0.0
H2628 H 0.12176 0.24794 0.62246 0.0
H2629 H 0.12938 0.24349 0.5665 0.0
H2630 H 0.11347 0.25591 0.49199 0.0
H2631 H 0.10509 0.25942 0.54782 0.0
H2632 H 0.11345 0.24 0.458 0.0
H2633 H 0.15577 0.26588 0.51435 0.0
H2634 H 0.14753 0.25427 0.54435 0.0
H2635 H 0.14395 0.26487 0.53831 0.0
C2636 C 0.11973 0.24948 0.59398 0.0
C2637 C 0.11288 0.25402 0.58922 0.0
C2638 C 0.12421 0.24709 0.56203 0.0
C2639 C 0.12238 0.24974 0.52487 0.0
C2640 C 0.1151 0.25383 0.52022 0.0
H2641 H 0.16506 0.27192 0.33403 0.0
H2642 H 0.15602 0.26798 0.39621 0.0
C2643 C 0.1103 0.25584 0.55209 0.0
C2644 C 0.12836 0.24879 0.49093 0.0
H2645 H 0.15405 0.25698 0.45567 0.0
C2646 C 0.12234 0.24372 0.45752 0.0
C2647 C 0.13999 0.25368 0.49006 0.0
C2648 C 0.14719 0.26007 0.52353 0.0
C2649 C 0.12758 0.24386 0.42298 0.0
C2650 C 0.1392 0.24868 0.42221 0.0
C2651 C 0.14516 0.25322 0.45617 0.0
C2652 C 0.14549 0.25051 0.38579 0.0
C2653 C 0.12062 0.23945 0.38728 0.0
C2654 C 0.14299 0.24197 0.35941 0.0
C2655 C 0.148 0.24432 0.32313 0.0
C2656 C 0.15581 0.25518 0.31325 0.0
C2657 C 0.159 0.26349 0.34087 0.0
C2658 C 0.15383 0.26122 0.37652 0.0
H2659 H 0.11237 0.23861 0.391 0.0
H2660 H 0.12468 0.24491 0.36234 0.0
H2661 H 0.11939 0.23117 0.38068 0.0
H2662 H 0.1369 0.23357 0.36626 0.0
H2663 H 0.14537 0.23776 0.30226 0.0
H2664 H 0.75761 0.85308 0.5565 0.0
H2665 H 0.76311 0.86555 0.50119 0.0
H2666 H 0.7384 0.87402 0.53042 0.0
H2667 H 0.73296 0.86179 0.58558 0.0
H2668 H 0.75033 0.86443 0.43948 0.0
H2669 H 0.76515 0.90417 0.51382 0.0
H2670 H 0.76309 0.89195 0.53837 0.0
H2671 H 0.75162 0.89403 0.5293 0.0
C2672 C 0.75342 0.85768 0.55137 0.0
C2673 C 0.74485 0.85642 0.57566 0.0
C2674 C 0.75658 0.86481 0.51975 0.0
C2675 C 0.75132 0.8709 0.51205 0.0
C2676 C 0.74279 0.86966 0.53628 0.0
H2677 H 0.73842 0.90329 0.33369 0.0
H2678 H 0.74165 0.89683 0.39496 0.0
C2679 C 0.73962 0.86255 0.56773 0.0
C2680 C 0.75411 0.87798 0.47732 0.0
H2681 H 0.76009 0.90359 0.44734 0.0
C2682 C 0.7527 0.87305 0.44115 0.0
C2683 C 0.7572 0.88924 0.4795 0.0
C2684 C 0.75947 0.89519 0.51736 0.0
C2685 C 0.75364 0.87889 0.40726 0.0
C2686 C 0.75624 0.89002 0.40954 0.0
C2687 C 0.7581 0.89508 0.44561 0.0
C2688 C 0.75586 0.89607 0.37511 0.0
C2689 C 0.75121 0.87292 0.36936 0.0
C2690 C 0.76313 0.89833 0.34422 0.0
C2691 C 0.76135 0.90216 0.3093 0.0
C2692 C 0.75233 0.90381 0.305 0.0
C2693 C 0.74557 0.90231 0.33671 0.0
C2694 C 0.74736 0.89854 0.37157 0.0
H2695 H 0.74759 0.8639 0.37308 0.0
H2696 H 0.74544 0.87444 0.35212 0.0
H2697 H 0.75897 0.87605 0.35283 0.0
H2698 H 0.7698 0.89657 0.34646 0.0
H2699 H 0.76651 0.90304 0.28491 0.0
H2700 H 0.11159 0.86716 0.28175 0.0
H2701 H 0.11723 0.87654 0.34382 0.0
H2702 H 0.0957 0.84597 0.40133 0.0
H2703 H 0.09013 0.83655 0.33903 0.0
H2704 H 0.10709 0.87867 0.41501 0.0
H2705 H 0.12783 0.85382 0.4287 0.0
H2706 H 0.12209 0.85512 0.38404 0.0
H2707 H 0.11322 0.8461 0.42087 0.0
C2708 C 0.10772 0.86257 0.30763 0.0
C2709 C 0.10045 0.85117 0.30591 0.0
C2710 C 0.11097 0.86792 0.34303 0.0
C2711 C 0.10702 0.86191 0.37713 0.0
C2712 C 0.09891 0.85072 0.37527 0.0
H2713 H 0.13384 0.87396 0.60552 0.0
H2714 H 0.12203 0.86702 0.54932 0.0
C2715 C 0.09566 0.84536 0.33978 0.0
C2716 C 0.11266 0.86689 0.41382 0.0
H2717 H 0.12999 0.86564 0.47972 0.0
C2718 C 0.11205 0.8758 0.42939 0.0
C2719 C 0.11929 0.86325 0.43205 0.0
C2720 C 0.12077 0.85412 0.41552 0.0
C2721 C 0.11771 0.88101 0.46333 0.0
C2722 C 0.12427 0.8773 0.48164 0.0
C2723 C 0.12491 0.86843 0.46581 0.0
C2724 C 0.13051 0.88227 0.51753 0.0
C2725 C 0.1165 0.8903 0.47965 0.0
C2726 C 0.1391 0.89327 0.5188 0.0
C2727 C 0.1459 0.89733 0.55126 0.0
C2728 C 0.14429 0.89038 0.58263 0.0
C2729 C 0.1354 0.87952 0.58171 0.0
C2730 C 0.1286 0.87553 0.54961 0.0
H2731 H 0.10917 0.89036 0.46781 0.0
H2732 H 0.11581 0.88972 0.51138 0.0
H2733 H 0.1239 0.89825 0.47223 0.0
H2734 H 0.14086 0.89858 0.49411 0.0
H2735 H 0.15269 0.90572 0.55107 0.0
H2736 H 0.73814 0.87503 0.09062 0.0
H2737 H 0.74318 0.86872 0.03339 0.0
H2738 H 0.76344 0.90229 0.99582 0.0
H2739 H 0.75824 0.90876 0.05329 0.0
H2740 H 0.74966 0.88911 0.93971 0.0
H2741 H 0.77083 0.86862 0.00294 0.0
H2742 H 0.75764 0.86383 0.0247 0.0
H2743 H 0.76818 0.87805 0.02989 0.0
C2744 C 0.74378 0.88114 0.07055 0.0
C2745 C 0.74776 0.89243 0.07669 0.0
C2746 C 0.74675 0.87749 0.03789 0.0
C2747 C 0.75387 0.88502 0.01058 0.0
C2748 C 0.75802 0.89633 0.01671 0.0
H2749 H 0.76346 0.86647 0.7775 0.0
H2750 H 0.76796 0.8771 0.83752 0.0
C2751 C 0.75504 0.90001 0.04958 0.0
C2752 C 0.75608 0.88088 0.97428 0.0
H2753 H 0.76301 0.86234 0.9396 0.0
C2754 C 0.75284 0.88347 0.93954 0.0
C2755 C 0.76023 0.87351 0.97402 0.0
C2756 C 0.76452 0.87094 0.00989 0.0
C2757 C 0.75295 0.87835 0.90503 0.0
C2758 C 0.75651 0.87052 0.90522 0.0
C2759 C 0.76025 0.86832 0.93956 0.0
C2760 C 0.75529 0.86378 0.87083 0.0
C2761 C 0.74865 0.88086 0.86899 0.0
C2762 C 0.74704 0.85266 0.87021 0.0
C2763 C 0.74451 0.84662 0.83615 0.0
C2764 C 0.75029 0.85156 0.80235 0.0
C2765 C 0.75903 0.86247 0.80347 0.0
C2766 C 0.76153 0.86855 0.83756 0.0
H2767 H 0.74486 0.88603 0.87474 0.0
H2768 H 0.75554 0.88532 0.8485 0.0
H2769 H 0.74243 0.87311 0.85498 0.0
H2770 H 0.74212 0.84883 0.89553 0.0
H2771 H 0.73762 0.83827 0.83566 0.0
H2772 H 0.13325 0.89043 0.78405 0.0
H2773 H 0.12432 0.88411 0.84655 0.0
H2774 H 0.15593 0.90197 0.90224 0.0
H2775 H 0.16487 0.90822 0.83948 0.0
H2776 H 0.14477 0.87932 0.91525 0.0
H2777 H 0.11703 0.89613 0.94289 0.0
H2778 H 0.11575 0.89034 0.89593 0.0
H2779 H 0.12838 0.90241 0.90949 0.0
C2780 C 0.1382 0.89342 0.80983 0.0
C2781 C 0.1497 0.89991 0.80726 0.0
C2782 C 0.1331 0.8898 0.84552 0.0
C2783 C 0.13944 0.89262 0.87914 0.0
C2784 C 0.15087 0.89977 0.87668 0.0
H2785 H 0.12827 0.86447 0.1063 0.0
H2786 H 0.1353 0.87607 0.04961 0.0
C2787 C 0.15597 0.90341 0.84095 0.0
C2788 C 0.13446 0.88665 0.91544 0.0
H2789 H 0.11442 0.88103 0.98199 0.0
C2790 C 0.13822 0.8798 0.93006 0.0
C2791 C 0.12576 0.8871 0.93425 0.0
C2792 C 0.12153 0.89445 0.92008 0.0
C2793 C 0.13347 0.8733 0.96272 0.0
C2794 C 0.12487 0.87384 0.98195 0.0
C2795 C 0.12103 0.88064 0.96726 0.0
C2796 C 0.12004 0.86757 0.01787 0.0
C2797 C 0.13755 0.8657 0.97578 0.0
C2798 C 0.10894 0.85924 0.01964 0.0
C2799 C 0.10481 0.8526 0.05241 0.0
C2800 C 0.11176 0.85417 0.08379 0.0
C2801 C 0.12272 0.86288 0.08244 0.0
C2802 C 0.12678 0.86953 0.05 0.0
H2803 H 0.14184 0.86397 0.95237 0.0
H2804 H 0.14349 0.86964 0.99963 0.0
H2805 H 0.13066 0.85776 0.98629 0.0
H2806 H 0.10358 0.85764 0.99519 0.0
H2807 H 0.09632 0.846 0.05262 0.0
H2808 H 0.10423 0.2365 0.78759 0.0
H2809 H 0.11041 0.23222 0.84785 0.0
H2810 H 0.10527 0.25634 0.90657 0.0
H2811 H 0.0991 0.26054 0.84655 0.0
H2812 H 0.12899 0.24822 0.88372 0.0
H2813 H 0.09421 0.23176 0.98568 0.0
H2814 H 0.0923 0.23176 0.93443 0.0
H2815 H 0.09616 0.24399 0.96214 0.0
C2816 C 0.10392 0.24045 0.81386 0.0
C2817 C 0.10096 0.24864 0.81288 0.0
C2818 C 0.10755 0.2381 0.84813 0.0
C2819 C 0.1082 0.24387 0.88191 0.0
C2820 C 0.10458 0.25158 0.88124 0.0
H2821 H 0.14187 0.26727 0.08948 0.0
H2822 H 0.12994 0.26108 0.0336 0.0
C2823 C 0.10102 0.25396 0.84698 0.0
C2824 C 0.11416 0.24316 0.91612 0.0
H2825 H 0.11243 0.24059 0.01361 0.0
C2826 C 0.12531 0.24629 0.91205 0.0
C2827 C 0.10937 0.24068 0.95306 0.0
C2828 C 0.09732 0.23675 0.95909 0.0
C2829 C 0.13198 0.24775 0.94413 0.0
C2830 C 0.12732 0.24582 0.98127 0.0
C2831 C 0.11602 0.2421 0.98515 0.0
C2832 C 0.13424 0.24889 0.01644 0.0
C2833 C 0.14411 0.25203 0.93812 0.0
C2834 C 0.14057 0.24399 0.02589 0.0
C2835 C 0.14753 0.24757 0.05806 0.0
C2836 C 0.14823 0.2561 0.08139 0.0
C2837 C 0.14163 0.26074 0.07222 0.0
C2838 C 0.13474 0.25717 0.04025 0.0
H2839 H 0.14673 0.25492 0.90827 0.0
H2840 H 0.14909 0.25894 0.95804 0.0
H2841 H 0.14597 0.24536 0.94414 0.0
H2842 H 0.14018 0.23745 0.00826 0.0
H2843 H 0.15243 0.24377 0.06439 0.0
H2844 H 0.90549 0.75326 0.44857 0.0
H2845 H 0.89812 0.75747 0.50607 0.0
H2846 H 0.86704 0.74603 0.44873 0.0
H2847 H 0.87418 0.7416 0.39193 0.0
H2848 H 0.88806 0.77052 0.52114 0.0
H2849 H 0.85887 0.72599 0.54256 0.0
H2850 H 0.87027 0.731 0.50956 0.0
H2851 H 0.85784 0.73093 0.49616 0.0
C2852 C 0.89713 0.75177 0.44813 0.0
C2853 C 0.89036 0.74691 0.41594 0.0
C2854 C 0.89294 0.75418 0.48096 0.0
C2855 C 0.88195 0.75184 0.48193 0.0
C2856 C 0.87544 0.74766 0.44894 0.0
H2857 H 0.83727 0.74701 0.66275 0.0
H2858 H 0.84616 0.75027 0.59965 0.0
C2859 C 0.87956 0.74515 0.41646 0.0
C2860 C 0.87699 0.75303 0.51792 0.0
H2861 H 0.8565 0.73827 0.58236 0.0
C2862 C 0.88117 0.76349 0.53462 0.0
C2863 C 0.86802 0.74383 0.53553 0.0
C2864 C 0.86354 0.73229 0.5203 0.0
C2865 C 0.87647 0.76499 0.56815 0.0
C2866 C 0.86744 0.75578 0.58546 0.0
C2867 C 0.8633 0.74535 0.56871 0.0
C2868 C 0.86258 0.75645 0.62247 0.0
C2869 C 0.88112 0.7764 0.58455 0.0
C2870 C 0.8689 0.75924 0.65612 0.0
C2871 C 0.86383 0.75742 0.69198 0.0
C2872 C 0.85237 0.75278 0.69472 0.0
C2873 C 0.84614 0.75077 0.66119 0.0
C2874 C 0.85121 0.75256 0.62525 0.0
H2875 H 0.88579 0.78283 0.56267 0.0
H2876 H 0.87448 0.77768 0.59629 0.0
H2877 H 0.88685 0.77748 0.60828 0.0
H2878 H 0.87762 0.76202 0.6548 0.0
H2879 H 0.86874 0.75883 0.71759 0.0
H2880 H 0.26723 0.13834 0.41389 0.0
H2881 H 0.26047 0.12621 0.46912 0.0
H2882 H 0.24019 0.14001 0.50116 0.0
H2883 H 0.24706 0.15242 0.44554 0.0
H2884 H 0.25253 0.139 0.56133 0.0
H2885 H 0.2311 0.09866 0.48853 0.0
H2886 H 0.24484 0.10703 0.47078 0.0
H2887 H 0.23487 0.1114 0.46398 0.0
C2888 C 0.26126 0.13879 0.43235 0.0
C2889 C 0.2577 0.1464 0.42513 0.0
C2890 C 0.25731 0.13173 0.46383 0.0
C2891 C 0.24964 0.132 0.48888 0.0
C2892 C 0.24602 0.13956 0.48191 0.0
H2893 H 0.23445 0.10101 0.71743 0.0
H2894 H 0.23102 0.10771 0.6567 0.0
C2895 C 0.24996 0.14666 0.45016 0.0
C2896 C 0.2462 0.12497 0.52379 0.0
H2897 H 0.23703 0.09858 0.55373 0.0
C2898 C 0.24888 0.13013 0.55979 0.0
C2899 C 0.24146 0.11339 0.52174 0.0
C2900 C 0.2378 0.10729 0.48416 0.0
C2901 C 0.24764 0.12413 0.5935 0.0
C2902 C 0.24344 0.11262 0.5912 0.0
C2903 C 0.24025 0.10738 0.55544 0.0
C2904 C 0.24349 0.10623 0.62506 0.0
C2905 C 0.25149 0.13023 0.63107 0.0
C2906 C 0.25112 0.10254 0.62666 0.0
C2907 C 0.25299 0.09864 0.6611 0.0
C2908 C 0.24715 0.09822 0.69427 0.0
C2909 C 0.23885 0.10102 0.69191 0.0
C2910 C 0.237 0.10497 0.65743 0.0
H2911 H 0.25601 0.1393 0.62707 0.0
H2912 H 0.24426 0.12803 0.64966 0.0
H2913 H 0.25694 0.12786 0.64633 0.0
H2914 H 0.25623 0.10347 0.60206 0.0
H2915 H 0.25961 0.09678 0.6626 0.0
H2916 H 0.89445 0.1626 0.67472 0.0
H2917 H 0.88894 0.15356 0.61265 0.0
H2918 H 0.9047 0.13465 0.63941 0.0
H2919 H 0.90954 0.14323 0.70332 0.0
H2920 H 0.89784 0.15169 0.55184 0.0
H2921 H 0.87467 0.11009 0.61729 0.0
H2922 H 0.88087 0.12245 0.64576 0.0
H2923 H 0.8892 0.11715 0.6264 0.0
C2924 C 0.89686 0.15661 0.66717 0.0
C2925 C 0.90231 0.15353 0.69386 0.0
C2926 C 0.89372 0.15144 0.63159 0.0
C2927 C 0.8961 0.14316 0.62151 0.0
C2928 C 0.90242 0.14073 0.64692 0.0
H2929 H 0.87324 0.11948 0.38646 0.0
H2930 H 0.8856 0.12672 0.44184 0.0
C2931 C 0.90539 0.14579 0.68311 0.0
C2932 C 0.89135 0.13686 0.58533 0.0
H2933 H 0.87356 0.11117 0.55053 0.0
C2934 C 0.89259 0.14281 0.55151 0.0
C2935 C 0.88439 0.12527 0.58488 0.0
C2936 C 0.8821 0.11835 0.62054 0.0
C2937 C 0.88664 0.13767 0.5181 0.0
C2938 C 0.8797 0.12607 0.51755 0.0
C2939 C 0.87889 0.12004 0.55079 0.0
C2940 C 0.87251 0.12017 0.48407 0.0
C2941 C 0.88734 0.14489 0.48481 0.0
C2942 C 0.86111 0.11325 0.48926 0.0
C2943 C 0.8541 0.10868 0.45766 0.0
C2944 C 0.85836 0.11112 0.42033 0.0
C2945 C 0.86978 0.11756 0.41509 0.0
C2946 C 0.87682 0.12182 0.44671 0.0
H2947 H 0.89037 0.15352 0.49397 0.0
H2948 H 0.89323 0.14502 0.46327 0.0
H2949 H 0.87921 0.14179 0.47088 0.0
H2950 H 0.85754 0.11177 0.5177 0.0
H2951 H 0.8453 0.10379 0.4623 0.0
H2952 H 0.90499 0.46982 0.55622 0.0
H2953 H 0.90119 0.45948 0.4957 0.0
H2954 H 0.92873 0.48747 0.44281 0.0
H2955 H 0.93255 0.49772 0.50312 0.0
H2956 H 0.90834 0.47484 0.39462 0.0
H2957 H 0.92414 0.44961 0.46384 0.0
H2958 H 0.91337 0.45074 0.48775 0.0
H2959 H 0.92681 0.46262 0.48357 0.0
C2960 C 0.90995 0.47385 0.53118 0.0
C2961 C 0.91895 0.48458 0.5339 0.0
C2962 C 0.90785 0.46793 0.49684 0.0
C2963 C 0.91475 0.47269 0.46491 0.0
C2964 C 0.9233 0.48366 0.46705 0.0
H2965 H 0.93454 0.4621 0.24826 0.0
H2966 H 0.92929 0.46836 0.3052 0.0
C2967 C 0.92544 0.48953 0.50135 0.0
C2968 C 0.91386 0.46607 0.4305 0.0
H2969 H 0.92065 0.44727 0.39783 0.0
C2970 C 0.91086 0.46868 0.39536 0.0
C2971 C 0.91712 0.45802 0.43158 0.0
C2972 C 0.92061 0.45506 0.46857 0.0
C2973 C 0.91134 0.46368 0.36104 0.0
C2974 C 0.91522 0.45609 0.36178 0.0
C2975 C 0.9177 0.45309 0.39722 0.0
C2976 C 0.91781 0.45203 0.32604 0.0
C2977 C 0.90782 0.46668 0.32426 0.0
C2978 C 0.91333 0.44072 0.31905 0.0
C2979 C 0.91641 0.43705 0.28638 0.0
C2980 C 0.92412 0.44466 0.26029 0.0
C2981 C 0.92854 0.45597 0.26748 0.0
C2982 C 0.92547 0.4596 0.29997 0.0
H2983 H 0.90162 0.46925 0.32979 0.0
H2984 H 0.91507 0.47373 0.3107 0.0
H2985 H 0.90428 0.4597 0.30373 0.0
H2986 H 0.90749 0.43472 0.33899 0.0
H2987 H 0.91286 0.42829 0.28185 0.0
H2988 H 0.53708 0.43824 0.55725 0.0
H2989 H 0.54733 0.44427 0.49657 0.0
H2990 H 0.51747 0.43719 0.43752 0.0
H2991 H 0.50726 0.43107 0.49801 0.0
H2992 H 0.53208 0.43261 0.39326 0.0
H2993 H 0.55299 0.47451 0.45801 0.0
H2994 H 0.55427 0.46409 0.48368 0.0
H2995 H 0.54104 0.4631 0.47949 0.0
C2996 C 0.53267 0.43754 0.53094 0.0
C2997 C 0.52139 0.43406 0.53192 0.0
C2998 C 0.53853 0.44111 0.49644 0.0
C2999 C 0.53319 0.44136 0.46266 0.0
C3000 C 0.52175 0.43706 0.4632 0.0
H3001 H 0.54278 0.47102 0.24459 0.0
H3002 H 0.53683 0.45903 0.30046 0.0
C3003 C 0.51591 0.43349 0.49764 0.0
C3004 C 0.53957 0.44725 0.42798 0.0
H3005 H 0.55685 0.4731 0.39365 0.0
C3006 C 0.53761 0.44144 0.3934 0.0
C3007 C 0.54677 0.45879 0.4282 0.0
C3008 C 0.54887 0.46555 0.46418 0.0
C3009 C 0.54249 0.4469 0.35889 0.0
C3010 C 0.54933 0.45849 0.35886 0.0
C3011 C 0.55164 0.46422 0.39371 0.0
C3012 C 0.55324 0.46497 0.32279 0.0
C3013 C 0.54016 0.44021 0.3227 0.0
C3014 C 0.56448 0.47242 0.31673 0.0
C3015 C 0.56795 0.4794 0.28466 0.0
C3016 C 0.56021 0.47915 0.25837 0.0
C3017 C 0.54899 0.47148 0.26417 0.0
C3018 C 0.54556 0.46451 0.29601 0.0
H3019 H 0.53808 0.43162 0.32915 0.0
H3020 H 0.53299 0.43985 0.30786 0.0
H3021 H 0.54731 0.44394 0.30288 0.0
H3022 H 0.57055 0.473 0.33724 0.0
H3023 H 0.57664 0.48522 0.28118 0.0
H3024 H 0.55955 0.06556 0.50561 0.0
H3025 H 0.55391 0.06921 0.44402 0.0
H3026 H 0.56726 0.10331 0.47547 0.0
H3027 H 0.57227 0.0994 0.53881 0.0
H3028 H 0.54801 0.09626 0.4471 0.0
H3029 H 0.56893 0.0825 0.34735 0.0
H3030 H 0.56112 0.07151 0.38014 0.0
H3031 H 0.57229 0.08439 0.39771 0.0
C3032 C 0.56148 0.07389 0.4991 0.0
C3033 C 0.5664 0.08221 0.52684 0.0
C3034 C 0.55835 0.07601 0.46363 0.0
C3035 C 0.56034 0.0866 0.45445 0.0
C3036 C 0.5657 0.09508 0.48163 0.0
H3037 H 0.53717 0.08701 0.22171 0.0
H3038 H 0.54943 0.09249 0.27736 0.0
C3039 C 0.56869 0.0929 0.51762 0.0
C3040 C 0.55581 0.08838 0.41813 0.0
H3041 H 0.55166 0.08069 0.32411 0.0
C3042 C 0.54901 0.09307 0.41998 0.0
C3043 C 0.55729 0.08454 0.3823 0.0
C3044 C 0.56542 0.08058 0.37676 0.0
C3045 C 0.54312 0.09337 0.38775 0.0
C3046 C 0.54363 0.08837 0.35306 0.0
C3047 C 0.55099 0.08433 0.35067 0.0
C3048 C 0.53633 0.08674 0.31947 0.0
C3049 C 0.53647 0.09909 0.39147 0.0
C3050 C 0.52486 0.08195 0.32415 0.0
C3051 C 0.51791 0.07922 0.29224 0.0
C3052 C 0.52224 0.08084 0.25506 0.0
C3053 C 0.53367 0.08575 0.2502 0.0
C3054 C 0.54065 0.08882 0.28204 0.0
H3055 H 0.54036 0.106 0.41226 0.0
H3056 H 0.53559 0.10237 0.36355 0.0
H3057 H 0.52817 0.09317 0.40263 0.0
H3058 H 0.5212 0.07984 0.35239 0.0
H3059 H 0.50909 0.07523 0.2966 0.0
H3060 H 0.80223 0.57827 0.61642 0.0
H3061 H 0.79315 0.57494 0.67896 0.0
H3062 H 0.82399 0.58427 0.73509 0.0
H3063 H 0.8331 0.58769 0.67232 0.0
H3064 H 0.79145 0.5631 0.7512 0.0
H3065 H 0.81624 0.60876 0.76075 0.0
H3066 H 0.81467 0.60142 0.71661 0.0
H3067 H 0.82393 0.60183 0.75305 0.0
C3068 C 0.80693 0.57912 0.64213 0.0
C3069 C 0.81832 0.5832 0.63986 0.0
C3070 C 0.80176 0.57727 0.67779 0.0
C3071 C 0.80794 0.57952 0.71159 0.0
C3072 C 0.81911 0.58256 0.70926 0.0
H3073 H 0.79669 0.59578 0.9391 0.0
H3074 H 0.8036 0.59083 0.88303 0.0
C3075 C 0.82429 0.58442 0.67351 0.0
C3076 C 0.80315 0.58045 0.74834 0.0
H3077 H 0.80464 0.59947 0.81263 0.0
C3078 C 0.79435 0.57103 0.76487 0.0
C3079 C 0.80684 0.59083 0.76564 0.0
C3080 C 0.81587 0.60132 0.74806 0.0
C3081 C 0.78931 0.57171 0.79887 0.0
C3082 C 0.79306 0.58211 0.81621 0.0
C3083 C 0.80182 0.5915 0.79945 0.0
C3084 C 0.7882 0.58361 0.85196 0.0
C3085 C 0.78015 0.56131 0.81624 0.0
C3086 C 0.77714 0.58103 0.85352 0.0
C3087 C 0.77311 0.58383 0.88588 0.0
C3088 C 0.78012 0.58939 0.9169 0.0
C3089 C 0.79107 0.59161 0.9156 0.0
C3090 C 0.79505 0.58875 0.88357 0.0
H3091 H 0.78016 0.55388 0.80528 0.0
H3092 H 0.78083 0.56148 0.84798 0.0
H3093 H 0.77213 0.56059 0.8087 0.0
H3094 H 0.77176 0.57727 0.82916 0.0
H3095 H 0.76465 0.58203 0.88595 0.0
H3096 H 0.4031 0.197 0.92445 0.0
H3097 H 0.40902 0.20846 0.86726 0.0
H3098 H 0.43023 0.1956 0.83688 0.0
H3099 H 0.42418 0.18385 0.89415 0.0
H3100 H 0.42963 0.22475 0.84245 0.0
H3101 H 0.41123 0.18938 0.74104 0.0
H3102 H 0.40814 0.18775 0.79162 0.0
H3103 H 0.42103 0.18957 0.77466 0.0
C3104 C 0.40904 0.19657 0.90578 0.0
C3105 C 0.41307 0.18938 0.91386 0.0
C3106 C 0.41245 0.20319 0.87306 0.0
C3107 C 0.41996 0.20281 0.84748 0.0
C3108 C 0.42427 0.1959 0.85587 0.0
H3109 H 0.43271 0.23078 0.61576 0.0
H3110 H 0.43631 0.22433 0.67668 0.0
C3111 C 0.42084 0.18922 0.88872 0.0
C3112 C 0.42287 0.20942 0.8116 0.0
H3113 H 0.41939 0.20706 0.71445 0.0
C3114 C 0.42752 0.2209 0.8144 0.0
C3115 C 0.42013 0.20441 0.77498 0.0
C3116 C 0.41478 0.1921 0.77015 0.0
C3117 C 0.42921 0.22744 0.78173 0.0
C3118 C 0.42605 0.22236 0.74532 0.0
C3119 C 0.42186 0.21096 0.74235 0.0
C3120 C 0.42591 0.22842 0.71049 0.0
C3121 C 0.43425 0.2397 0.78656 0.0
C3122 C 0.41916 0.23319 0.70941 0.0
C3123 C 0.41718 0.23692 0.67476 0.0
C3124 C 0.42194 0.23598 0.64065 0.0
C3125 C 0.42922 0.23185 0.64198 0.0
C3126 C 0.43117 0.22808 0.67665 0.0
H3127 H 0.43945 0.24266 0.81273 0.0
H3128 H 0.43933 0.24422 0.76133 0.0
H3129 H 0.42758 0.24172 0.78966 0.0
H3130 H 0.41478 0.2333 0.73482 0.0
H3131 H 0.41129 0.23977 0.67411 0.0
H3132 H 0.80449 0.20668 0.93815 0.0
H3133 H 0.79291 0.1999 0.88132 0.0
H3134 H 0.80896 0.23264 0.83383 0.0
H3135 H 0.82064 0.23962 0.89127 0.0
H3136 H 0.78484 0.21971 0.82317 0.0
H3137 H 0.80633 0.19733 0.77857 0.0
H3138 H 0.80114 0.19446 0.82677 0.0
H3139 H 0.81186 0.20808 0.81428 0.0
C3140 C 0.80556 0.21251 0.91584 0.0
C3141 C 0.81363 0.2237 0.91914 0.0
C3142 C 0.79891 0.20859 0.88331 0.0
C3143 C 0.8002 0.21572 0.85309 0.0
C3144 C 0.80788 0.22699 0.85681 0.0
H3145 H 0.77386 0.20333 0.62188 0.0
H3146 H 0.78044 0.21191 0.68484 0.0
C3147 C 0.81455 0.23096 0.8896 0.0
C3148 C 0.79393 0.21117 0.81696 0.0
H3149 H 0.79015 0.19327 0.74447 0.0
C3150 C 0.78602 0.21397 0.80578 0.0
C3151 C 0.79551 0.20371 0.79429 0.0
C3152 C 0.80424 0.20078 0.80379 0.0
C3153 C 0.77942 0.20925 0.77302 0.0
C3154 C 0.78088 0.20162 0.75082 0.0
C3155 C 0.78891 0.19898 0.76182 0.0
C3156 C 0.77456 0.19651 0.71515 0.0
C3157 C 0.7708 0.21225 0.7629 0.0
C3158 C 0.76874 0.18499 0.71136 0.0
C3159 C 0.76498 0.1801 0.67542 0.0
C3160 C 0.76698 0.18666 0.64276 0.0
C3161 C 0.772 0.19812 0.64693 0.0
C3162 C 0.77579 0.20302 0.68288 0.0
H3163 H 0.76873 0.21582 0.7878 0.0
H3164 H 0.77399 0.21849 0.73965 0.0
H3165 H 0.76317 0.20495 0.75242 0.0
H3166 H 0.76775 0.1798 0.73579 0.0
H3167 H 0.76134 0.17127 0.67267 0.0
H3168 H 0.40707 0.17047 0.17462 0.0
H3169 H 0.41128 0.18066 0.23522 0.0
H3170 H 0.43514 0.21017 0.17715 0.0
H3171 H 0.43084 0.19994 0.11639 0.0
H3172 H 0.4309 0.19484 0.27991 0.0
H3173 H 0.41106 0.2169 0.21503 0.0
H3174 H 0.40998 0.20466 0.19383 0.0
H3175 H 0.42251 0.21761 0.18932 0.0
C3176 C 0.41354 0.17901 0.17525 0.0
C3177 C 0.41877 0.18442 0.14122 0.0
C3178 C 0.41589 0.18485 0.20974 0.0
C3179 C 0.4234 0.19621 0.21056 0.0
C3180 C 0.42924 0.20144 0.17705 0.0
H3181 H 0.42535 0.24079 0.39236 0.0
H3182 H 0.43049 0.23417 0.33521 0.0
C3183 C 0.42689 0.19558 0.14253 0.0
C3184 C 0.42409 0.20267 0.24523 0.0
H3185 H 0.41634 0.22062 0.27948 0.0
C3186 C 0.42785 0.20058 0.27977 0.0
C3187 C 0.42009 0.21016 0.24498 0.0
C3188 C 0.4156 0.21245 0.20896 0.0
C3189 C 0.42752 0.20562 0.31422 0.0
C3190 C 0.4231 0.21276 0.31425 0.0
C3191 C 0.41975 0.21518 0.27943 0.0
C3192 C 0.42086 0.21694 0.35036 0.0
C3193 C 0.43183 0.20317 0.35033 0.0
C3194 C 0.4137 0.20948 0.37775 0.0
C3195 C 0.41074 0.21321 0.41023 0.0
C3196 C 0.41478 0.22453 0.41608 0.0
C3197 C 0.42209 0.23203 0.38887 0.0
C3198 C 0.42505 0.22826 0.35619 0.0
H3199 H 0.43813 0.20083 0.34374 0.0
H3200 H 0.43548 0.21036 0.36999 0.0
H3201 H 0.42493 0.19614 0.36542 0.0
H3202 H 0.41013 0.2007 0.37347 0.0
H3203 H 0.40508 0.20716 0.43042 0.0
H3204 H 0.83269 0.23813 0.17878 0.0
H3205 H 0.82205 0.23233 0.23849 0.0
H3206 H 0.79303 0.22673 0.17687 0.0
H3207 H 0.80372 0.23252 0.11702 0.0
H3208 H 0.80739 0.23805 0.28027 0.0
H3209 H 0.7862 0.19594 0.21697 0.0
H3210 H 0.79865 0.20704 0.19667 0.0
H3211 H 0.78576 0.20663 0.18993 0.0
C3212 C 0.82416 0.2361 0.17842 0.0
C3213 C 0.81902 0.2359 0.14369 0.0
C3214 C 0.81807 0.23273 0.21239 0.0
C3215 C 0.80672 0.22897 0.21198 0.0
C3216 C 0.80176 0.22953 0.17772 0.0
H3217 H 0.76201 0.18609 0.39303 0.0
H3218 H 0.76838 0.19783 0.33577 0.0
C3219 C 0.80787 0.23294 0.14371 0.0
C3220 C 0.80001 0.22328 0.24625 0.0
H3221 H 0.78228 0.19761 0.28101 0.0
C3222 C 0.80177 0.22924 0.28036 0.0
C3223 C 0.79268 0.21177 0.24627 0.0
C3224 C 0.79071 0.2049 0.21066 0.0
C3225 C 0.79661 0.22394 0.31475 0.0
C3226 C 0.7897 0.21236 0.31516 0.0
C3227 C 0.78756 0.20648 0.28067 0.0
C3228 C 0.78561 0.20603 0.35146 0.0
C3229 C 0.79873 0.23079 0.35041 0.0
C3230 C 0.79316 0.20671 0.37921 0.0
C3231 C 0.78958 0.20002 0.41172 0.0
C3232 C 0.77833 0.19241 0.41725 0.0
C3233 C 0.77072 0.19187 0.38977 0.0
C3234 C 0.77434 0.19858 0.35704 0.0
H3235 H 0.80078 0.23933 0.34317 0.0
H3236 H 0.79149 0.22713 0.36984 0.0
H3237 H 0.80586 0.23129 0.36602 0.0
H3238 H 0.80191 0.21217 0.37514 0.0
H3239 H 0.79569 0.20069 0.43216 0.0
H3240 H 0.8216 0.58289 0.38659 0.0
H3241 H 0.80977 0.57855 0.32971 0.0
H3242 H 0.792 0.59249 0.38464 0.0
H3243 H 0.8038 0.59701 0.44085 0.0
H3244 H 0.78623 0.56639 0.31744 0.0
H3245 H 0.80434 0.61096 0.28688 0.0
H3246 H 0.8104 0.60577 0.32061 0.0
H3247 H 0.79875 0.60709 0.33431 0.0
C3248 C 0.8151 0.58492 0.38665 0.0
C3249 C 0.81378 0.59047 0.41799 0.0
C3250 C 0.80834 0.58242 0.35419 0.0
C3251 C 0.80016 0.5854 0.35271 0.0
C3252 C 0.79842 0.59034 0.38485 0.0
H3253 H 0.76062 0.59091 0.1729 0.0
H3254 H 0.76642 0.58795 0.23612 0.0
C3255 C 0.80519 0.59291 0.41699 0.0
C3256 C 0.79386 0.58406 0.31695 0.0
H3257 H 0.78894 0.59876 0.24972 0.0
C3258 C 0.78682 0.57345 0.30252 0.0
C3259 C 0.79467 0.59329 0.29748 0.0
C3260 C 0.80252 0.60493 0.31033 0.0
C3261 C 0.78041 0.57184 0.26947 0.0
C3262 C 0.78116 0.58109 0.25034 0.0
C3263 C 0.78823 0.59167 0.26478 0.0
C3264 C 0.77532 0.58022 0.21385 0.0
C3265 C 0.7728 0.56029 0.25556 0.0
C3266 C 0.77802 0.57647 0.18054 0.0
C3267 C 0.77466 0.57811 0.14459 0.0
C3268 C 0.76855 0.58351 0.14146 0.0
C3269 C 0.76513 0.58652 0.17482 0.0
C3270 C 0.76851 0.5849 0.21082 0.0
H3271 H 0.77089 0.55414 0.27865 0.0
H3272 H 0.76498 0.55943 0.24454 0.0
H3273 H 0.77683 0.55838 0.23177 0.0
H3274 H 0.78346 0.57307 0.18201 0.0
H3275 H 0.77759 0.57597 0.11906 0.0
H3276 H 0.53973 0.06965 0.74378 0.0
H3277 H 0.5331 0.07504 0.79946 0.0
H3278 H 0.56651 0.09772 0.83339 0.0
H3279 H 0.57332 0.09227 0.77745 0.0
H3280 H 0.55381 0.08388 0.8919 0.0
H3281 H 0.5315 0.10256 0.82342 0.0
H3282 H 0.52753 0.08925 0.80399 0.0
H3283 H 0.54144 0.10035 0.79793 0.0
C3284 C 0.54572 0.07589 0.76273 0.0
C3285 C 0.55709 0.08051 0.75606 0.0
C3286 C 0.54188 0.07904 0.79446 0.0
C3287 C 0.54928 0.08694 0.82027 0.0
C3288 C 0.56065 0.09169 0.8136 0.0
H3289 H 0.53168 0.09783 0.05218 0.0
H3290 H 0.54187 0.10223 0.99134 0.0
C3291 C 0.56452 0.08857 0.78162 0.0
C3292 C 0.54505 0.08937 0.85584 0.0
H3293 H 0.52611 0.09603 0.88831 0.0
C3294 C 0.54795 0.08678 0.89125 0.0
C3295 C 0.53737 0.09312 0.85493 0.0
C3296 C 0.53436 0.09659 0.81803 0.0
C3297 C 0.54287 0.08718 0.92546 0.0
C3298 C 0.53483 0.09047 0.92433 0.0
C3299 C 0.53228 0.09352 0.88914 0.0
C3300 C 0.52824 0.08966 0.95877 0.0
C3301 C 0.54568 0.08344 0.96223 0.0
C3302 C 0.51704 0.08163 0.95999 0.0
C3303 C 0.51121 0.07923 0.9945 0.0
C3304 C 0.51647 0.0849 0.02813 0.0
C3305 C 0.52742 0.09351 0.02633 0.0
C3306 C 0.53327 0.09592 0.99177 0.0
H3307 H 0.5506 0.07935 0.95703 0.0
H3308 H 0.55056 0.09068 0.98096 0.0
H3309 H 0.53808 0.07763 0.97795 0.0
H3310 H 0.51301 0.07669 0.9349 0.0
H3311 H 0.50284 0.07239 0.99553 0.0
H3312 H 0.9102 0.48162 0.77837 0.0
H3313 H 0.90491 0.46948 0.83447 0.0
H3314 H 0.9303 0.46174 0.80791 0.0
H3315 H 0.93552 0.47364 0.75176 0.0
H3316 H 0.91047 0.44326 0.82946 0.0
H3317 H 0.92303 0.47762 0.93333 0.0
H3318 H 0.91307 0.47619 0.89802 0.0
H3319 H 0.92678 0.47996 0.88332 0.0
C3320 C 0.91462 0.47729 0.78434 0.0
C3321 C 0.92336 0.47871 0.76061 0.0
C3322 C 0.91162 0.47039 0.81655 0.0
C3323 C 0.91732 0.46482 0.82574 0.0
C3324 C 0.9258 0.46597 0.80148 0.0
H3325 H 0.92865 0.43036 0.00305 0.0
H3326 H 0.92532 0.43644 0.94125 0.0
C3327 C 0.9288 0.47283 0.76937 0.0
C3328 C 0.9148 0.45806 0.86116 0.0
H3329 H 0.91641 0.45995 0.95885 0.0
C3330 C 0.91166 0.44688 0.85778 0.0
C3331 C 0.91633 0.46277 0.89814 0.0
C3332 C 0.92007 0.47481 0.90367 0.0
C3333 C 0.91023 0.44036 0.8903 0.0
C3334 C 0.91215 0.44518 0.92718 0.0
C3335 C 0.91488 0.45624 0.9306 0.0
C3336 C 0.91245 0.43932 0.96237 0.0
C3337 C 0.90676 0.4284 0.88481 0.0
C3338 C 0.9062 0.43868 0.99478 0.0
C3339 C 0.90808 0.43514 0.03009 0.0
C3340 C 0.91626 0.43221 0.03349 0.0
C3341 C 0.92207 0.43225 1.00073 0.0
C3342 C 0.92018 0.43576 0.96545 0.0
H3343 H 0.90214 0.42514 0.85759 0.0
H3344 H 0.91421 0.42755 0.88338 0.0
H3345 H 0.90156 0.42329 0.90897 0.0
H3346 H 0.90028 0.44149 0.99322 0.0
H3347 H 0.90374 0.43547 0.05528 0.0
H3348 H 0.56566 0.47184 0.05892 0.0
H3349 H 0.55908 0.46123 0.99897 0.0
H3350 H 0.56155 0.48968 0.94214 0.0
H3351 H 0.568 0.5002 0.00195 0.0
H3352 H 0.5394 0.45784 0.96182 0.0
H3353 H 0.57527 0.47769 0.86414 0.0
H3354 H 0.5766 0.47886 0.91572 0.0
H3355 H 0.57256 0.48727 0.88923 0.0
C3356 C 0.56514 0.47589 0.03317 0.0
C3357 C 0.56753 0.48686 0.03455 0.0
C3358 C 0.56132 0.46982 0.99911 0.0
C3359 C 0.55995 0.4747 0.96594 0.0
C3360 C 0.56276 0.48581 0.96709 0.0
H3361 H 0.52945 0.46261 0.7499 0.0
H3362 H 0.54022 0.469 0.80843 0.0
C3363 C 0.56646 0.49182 0.00117 0.0
C3364 C 0.55449 0.468 0.93132 0.0
H3365 H 0.55757 0.46711 0.83452 0.0
C3366 C 0.54341 0.45968 0.93404 0.0
C3367 C 0.55974 0.47045 0.89518 0.0
C3368 C 0.57173 0.47898 0.89081 0.0
C3369 C 0.53724 0.45424 0.90123 0.0
C3370 C 0.54238 0.45703 0.86478 0.0
C3371 C 0.55361 0.46497 0.8624 0.0
C3372 C 0.53601 0.45278 0.82854 0.0
C3373 C 0.52514 0.44606 0.90564 0.0
C3374 C 0.5301 0.44147 0.81989 0.0
C3375 C 0.5238 0.43771 0.78619 0.0
C3376 C 0.52337 0.44522 0.76043 0.0
C3377 C 0.52952 0.45654 0.76894 0.0
C3378 C 0.53574 0.46025 0.80248 0.0
H3379 H 0.52202 0.44646 0.93454 0.0
H3380 H 0.52024 0.44751 0.88378 0.0
H3381 H 0.52374 0.43762 0.90146 0.0
H3382 H 0.53034 0.43555 0.8392 0.0
H3383 H 0.51923 0.42896 0.78046 0.0
H3384 H 0.57716 0.76152 0.6069 0.0
H3385 H 0.57204 0.76861 0.6628 0.0
H3386 H 0.5955 0.80181 0.62909 0.0
H3387 H 0.60055 0.79489 0.57329 0.0
H3388 H 0.58577 0.78076 0.72144 0.0
H3389 H 0.56873 0.80459 0.65307 0.0
H3390 H 0.57064 0.7945 0.62724 0.0
H3391 H 0.58203 0.80822 0.63434 0.0
C3392 C 0.58111 0.77034 0.61108 0.0
C3393 C 0.58928 0.77762 0.5855 0.0
C3394 C 0.57817 0.77438 0.64305 0.0
C3395 C 0.58324 0.78576 0.64982 0.0
C3396 C 0.59126 0.79302 0.62402 0.0
H3397 H 0.59832 0.83149 0.82878 0.0
H3398 H 0.59434 0.82171 0.76738 0.0
C3399 C 0.59421 0.78901 0.59221 0.0
C3400 C 0.58096 0.7901 0.68545 0.0
H3401 H 0.57501 0.8095 0.71843 0.0
C3402 C 0.58318 0.78687 0.72087 0.0
C3403 C 0.5776 0.79809 0.68468 0.0
C3404 C 0.57451 0.80147 0.64779 0.0
C3405 C 0.58277 0.79185 0.75528 0.0
C3406 C 0.57987 0.80018 0.75432 0.0
C3407 C 0.57722 0.80312 0.7191 0.0
C3408 C 0.58065 0.80663 0.78914 0.0
C3409 C 0.58604 0.78861 0.79217 0.0
C3410 C 0.57392 0.80157 0.82119 0.0
C3411 C 0.57614 0.8072 0.85617 0.0
C3412 C 0.58506 0.81796 0.85935 0.0
C3413 C 0.59127 0.82327 0.82665 0.0
C3414 C 0.58904 0.81767 0.79172 0.0
H3415 H 0.58981 0.78339 0.78705 0.0
H3416 H 0.59197 0.79603 0.80845 0.0
H3417 H 0.57863 0.7839 0.81031 0.0
H3418 H 0.56735 0.79308 0.8197 0.0
H3419 H 0.5714 0.80291 0.88129 0.0
H3420 H 0.21736 0.79606 0.55063 0.0
H3421 H 0.20984 0.78392 0.60643 0.0
H3422 H 0.22426 0.81227 0.68104 0.0
H3423 H 0.23249 0.8243 0.62531 0.0
H3424 H 0.22471 0.79637 0.71567 0.0
H3425 H 0.1827 0.77938 0.65569 0.0
H3426 H 0.19137 0.77643 0.62626 0.0
H3427 H 0.19458 0.79047 0.63295 0.0
C3428 C 0.21911 0.79963 0.57911 0.0
C3429 C 0.22548 0.81107 0.5839 0.0
C3430 C 0.21469 0.79271 0.61094 0.0
C3431 C 0.2161 0.79717 0.64801 0.0
C3432 C 0.22295 0.8086 0.65282 0.0
H3433 H 0.17245 0.77519 0.8361 0.0
H3434 H 0.18187 0.78084 0.77469 0.0
C3435 C 0.22768 0.81548 0.62104 0.0
C3436 C 0.21001 0.7901 0.6815 0.0
H3437 H 0.1842 0.77202 0.71438 0.0
C3438 C 0.21585 0.79102 0.71536 0.0
C3439 C 0.19841 0.78316 0.68133 0.0
C3440 C 0.19139 0.78237 0.64727 0.0
C3441 C 0.21043 0.78559 0.74929 0.0
C3442 C 0.19884 0.77859 0.74899 0.0
C3443 C 0.19307 0.77729 0.71464 0.0
C3444 C 0.19234 0.77381 0.78478 0.0
C3445 C 0.21713 0.78798 0.78553 0.0
C3446 C 0.19468 0.76752 0.81062 0.0
C3447 C 0.18939 0.76447 0.84641 0.0
C3448 C 0.18152 0.76743 0.85634 0.0
C3449 C 0.17854 0.77286 0.82919 0.0
C3450 C 0.18393 0.77608 0.794 0.0
H3451 H 0.22538 0.79545 0.7827 0.0
H3452 H 0.21284 0.78916 0.81024 0.0
H3453 H 0.2184 0.78094 0.79195 0.0
H3454 H 0.20086 0.76532 0.80376 0.0
H3455 H 0.19189 0.76034 0.86697 0.0
H3456 H 0.24534 0.41421 0.82878 0.0
H3457 H 0.23885 0.41714 0.76677 0.0
H3458 H 0.21716 0.42575 0.82565 0.0
H3459 H 0.22364 0.42282 0.8874 0.0
H3460 H 0.21617 0.40374 0.74991 0.0
H3461 H 0.229 0.44797 0.73579 0.0
H3462 H 0.23596 0.44313 0.76708 0.0
H3463 H 0.22307 0.44185 0.78127 0.0
C3464 C 0.23954 0.41718 0.8283 0.0
C3465 C 0.23505 0.41842 0.86256 0.0
C3466 C 0.23579 0.41879 0.79299 0.0
C3467 C 0.22758 0.42175 0.79157 0.0
C3468 C 0.22365 0.42369 0.82598 0.0
H3469 H 0.18115 0.41796 0.61716 0.0
H3470 H 0.1925 0.42211 0.67527 0.0
C3471 C 0.22735 0.42202 0.86122 0.0
C3472 C 0.22189 0.42106 0.75489 0.0
H3473 H 0.2152 0.4356 0.69241 0.0
C3474 C 0.21607 0.41073 0.7371 0.0
C3475 C 0.22157 0.43014 0.73872 0.0
C3476 C 0.2278 0.44143 0.75646 0.0
C3477 C 0.20983 0.40919 0.70389 0.0
C3478 C 0.20962 0.41829 0.68725 0.0
C3479 C 0.2154 0.42864 0.70509 0.0
C3480 C 0.20354 0.41712 0.65103 0.0
C3481 C 0.20325 0.39772 0.68755 0.0
C3482 C 0.20624 0.41336 0.61779 0.0
C3483 C 0.19973 0.41088 0.58496 0.0
C3484 C 0.19048 0.41228 0.58433 0.0
C3485 C 0.1882 0.41675 0.6168 0.0
C3486 C 0.19467 0.41913 0.64998 0.0
H3487 H 0.20177 0.39133 0.70932 0.0
H3488 H 0.19518 0.39616 0.6764 0.0
H3489 H 0.2079 0.39678 0.66353 0.0
H3490 H 0.21321 0.41203 0.61759 0.0
H3491 H 0.20185 0.40764 0.56023 0.0
H3492 H 0.42859 0.91058 0.2205 0.0
H3493 H 0.43501 0.90549 0.16258 0.0
H3494 H 0.4685 0.92446 0.20241 0.0
H3495 H 0.46225 0.92943 0.26001 0.0
H3496 H 0.44902 0.91981 0.10815 0.0
H3497 H 0.46735 0.89628 0.16911 0.0
H3498 H 0.45802 0.8991 0.19595 0.0
H3499 H 0.47241 0.90928 0.19273 0.0
C3500 C 0.4373 0.91351 0.21717 0.0
C3501 C 0.44489 0.92043 0.24498 0.0
C3502 C 0.44096 0.91061 0.18405 0.0
C3503 C 0.45223 0.91443 0.17843 0.0
C3504 C 0.45975 0.92116 0.20647 0.0
H3505 H 0.50004 0.93021 0.00794 0.0
H3506 H 0.48899 0.9253 0.06674 0.0
C3507 C 0.45614 0.92409 0.23934 0.0
C3508 C 0.45637 0.91234 0.14198 0.0
H3509 H 0.47424 0.90457 0.10685 0.0
C3510 C 0.45432 0.91622 0.10766 0.0
C3511 C 0.4633 0.90767 0.14135 0.0
C3512 C 0.4653 0.90274 0.17674 0.0
C3513 C 0.45957 0.91625 0.0733 0.0
C3514 C 0.46695 0.91213 0.07316 0.0
C3515 C 0.46859 0.90774 0.10704 0.0
C3516 C 0.47384 0.9134 0.03914 0.0
C3517 C 0.45769 0.9213 0.03791 0.0
C3518 C 0.4691 0.90796 0.00453 0.0
C3519 C 0.47544 0.91069 0.97103 0.0
C3520 C 0.4866 0.91885 0.97186 0.0
C3521 C 0.49149 0.92375 0.00691 0.0
C3522 C 0.48517 0.921 0.04036 0.0
H3523 H 0.45303 0.9256 0.04429 0.0
H3524 H 0.46567 0.92726 0.02457 0.0
H3525 H 0.45294 0.91473 0.01661 0.0
H3526 H 0.46038 0.90202 0.00306 0.0
H3527 H 0.47149 0.90697 0.94409 0.0
H3528 H 0.08989 0.51542 0.21656 0.0
H3529 H 0.09561 0.52732 0.1596 0.0
H3530 H 0.0764 0.54175 0.19769 0.0
H3531 H 0.07076 0.53011 0.25435 0.0
H3532 H 0.08187 0.52775 0.10337 0.0
H3533 H 0.10542 0.56889 0.16988 0.0
H3534 H 0.10211 0.55639 0.19532 0.0
H3535 H 0.0921 0.56081 0.19132 0.0
C3536 C 0.087 0.52123 0.21302 0.0
C3537 C 0.07985 0.52178 0.24013 0.0
C3538 C 0.09028 0.52802 0.18047 0.0
C3539 C 0.0866 0.53558 0.1747 0.0
C3540 C 0.07958 0.53621 0.20192 0.0
H3541 H 0.0752 0.57087 0.00291 0.0
H3542 H 0.07908 0.56419 0.06256 0.0
C3543 C 0.07627 0.52943 0.23424 0.0
C3544 C 0.08927 0.54221 0.13893 0.0
H3545 H 0.09839 0.56835 0.10617 0.0
C3546 C 0.08571 0.53665 0.10381 0.0
C3547 C 0.09426 0.55383 0.13956 0.0
C3548 C 0.09879 0.56033 0.17603 0.0
C3549 C 0.08638 0.5423 0.06973 0.0
C3550 C 0.09092 0.55387 0.07067 0.0
C3551 C 0.09492 0.55949 0.10548 0.0
C3552 C 0.09053 0.56001 0.03656 0.0
C3553 C 0.08162 0.53576 0.0334 0.0
C3554 C 0.09612 0.56043 0.00262 0.0
C3555 C 0.09397 0.56435 0.96862 0.0
C3556 C 0.08628 0.56797 0.96828 0.0
C3557 C 0.08134 0.56833 0.00279 0.0
C3558 C 0.0835 0.56444 0.03674 0.0
H3559 H 0.07671 0.52677 0.03898 0.0
H3560 H 0.07627 0.53838 0.01872 0.0
H3561 H 0.08841 0.53726 0.01357 0.0
H3562 H 0.10166 0.55715 0.00195 0.0
H3563 H 0.09769 0.56379 0.94211 0.0
H3564 H 0.43542 0.53042 0.94479 0.0
H3565 H 0.4416 0.54042 0.006 0.0
H3566 H 0.44131 0.5123 0.05729 0.0
H3567 H 0.43516 0.50237 0.99635 0.0
H3568 H 0.43408 0.52429 0.10749 0.0
H3569 H 0.47428 0.55081 0.03509 0.0
H3570 H 0.46222 0.54988 0.01325 0.0
H3571 H 0.46385 0.53799 0.01461 0.0
C3572 C 0.43624 0.52626 0.96968 0.0
C3573 C 0.43468 0.51561 0.96629 0.0
C3574 C 0.43989 0.532 0.00441 0.0
C3575 C 0.44204 0.52714 0.03601 0.0
C3576 C 0.43967 0.51619 0.03332 0.0
H3577 H 0.47495 0.53882 0.2492 0.0
H3578 H 0.463 0.53199 0.19331 0.0
C3579 C 0.4361 0.5105 0.99865 0.0
C3580 C 0.44792 0.5337 0.07037 0.0
H3581 H 0.47347 0.55318 0.10122 0.0
C3582 C 0.44264 0.53073 0.10611 0.0
C3583 C 0.45911 0.54208 0.06848 0.0
C3584 C 0.46528 0.54539 0.03092 0.0
C3585 C 0.44832 0.53573 0.14013 0.0
C3586 C 0.45965 0.54374 0.13843 0.0
C3587 C 0.46479 0.54705 0.10252 0.0
C3588 C 0.46655 0.54805 0.17351 0.0
C3589 C 0.44215 0.5323 0.17764 0.0
C3590 C 0.47278 0.55942 0.18061 0.0
C3591 C 0.47976 0.56341 0.21261 0.0
C3592 C 0.4807 0.5561 0.23791 0.0
C3593 C 0.47443 0.54472 0.23056 0.0
C3594 C 0.46748 0.54077 0.1987 0.0
H3595 H 0.43322 0.52916 0.17333 0.0
H3596 H 0.44307 0.52556 0.19044 0.0
H3597 H 0.4454 0.53926 0.19829 0.0
H3598 H 0.47228 0.56521 0.16131 0.0
H3599 H 0.48447 0.57221 0.2173 0.0
H3600 H 0.06932 0.53901 0.75891 0.0
H3601 H 0.07369 0.5318 0.70229 0.0
H3602 H 0.09447 0.5648 0.66036 0.0
H3603 H 0.09021 0.57219 0.71759 0.0
H3604 H 0.06875 0.53515 0.62788 0.0
H3605 H 0.11349 0.55017 0.64408 0.0
H3606 H 0.10497 0.54971 0.6837 0.0
H3607 H 0.10938 0.56039 0.64833 0.0
C3608 C 0.07492 0.5448 0.73796 0.0
C3609 C 0.07936 0.55621 0.74283 0.0
C3610 C 0.07743 0.54063 0.70557 0.0
C3611 C 0.08447 0.54774 0.6772 0.0
C3612 C 0.08916 0.55916 0.68221 0.0
H3613 H 0.09611 0.53392 0.44494 0.0
H3614 H 0.09837 0.54273 0.50772 0.0
C3615 C 0.08667 0.56337 0.71484 0.0
C3616 C 0.08603 0.54302 0.64117 0.0
H3617 H 0.10504 0.54076 0.58638 0.0
C3618 C 0.07669 0.53636 0.61891 0.0
C3619 C 0.0964 0.54467 0.62934 0.0
C3620 C 0.10665 0.55155 0.65266 0.0
C3621 C 0.0774 0.53131 0.5852 0.0
C3622 C 0.08772 0.53274 0.57372 0.0
C3623 C 0.09713 0.53956 0.59554 0.0
C3624 C 0.08875 0.52742 0.53837 0.0
C3625 C 0.0671 0.5246 0.56173 0.0
C3626 C 0.08316 0.51589 0.53525 0.0
C3627 C 0.08191 0.51088 0.49949 0.0
C3628 C 0.08632 0.51733 0.46651 0.0
C3629 C 0.09281 0.5288 0.4702 0.0
C3630 C 0.09403 0.53383 0.50596 0.0
H3631 H 0.06047 0.52637 0.56963 0.0
H3632 H 0.06885 0.52624 0.53062 0.0
H3633 H 0.064 0.51572 0.5668 0.0
H3634 H 0.0791 0.5108 0.56002 0.0
H3635 H 0.07674 0.50203 0.49714 0.0
H3636 H 0.43185 0.51673 0.7122 0.0
H3637 H 0.4392 0.52854 0.65532 0.0
H3638 H 0.4718 0.54378 0.70396 0.0
H3639 H 0.46464 0.532 0.76025 0.0
H3640 H 0.45202 0.55208 0.6442 0.0
H3641 H 0.47483 0.53084 0.60201 0.0
H3642 H 0.46413 0.52539 0.63787 0.0
H3643 H 0.47774 0.53626 0.64989 0.0
C3644 C 0.44057 0.52267 0.71092 0.0
C3645 C 0.44767 0.52328 0.74057 0.0
C3646 C 0.44475 0.52942 0.67844 0.0
C3647 C 0.45608 0.53689 0.67513 0.0
C3648 C 0.46307 0.53792 0.70556 0.0
H3649 H 0.50012 0.57533 0.49241 0.0
H3650 H 0.49186 0.56935 0.55613 0.0
C3651 C 0.45893 0.53116 0.73779 0.0
C3652 C 0.46079 0.54318 0.63915 0.0
H3653 H 0.47876 0.54683 0.56705 0.0
C3654 C 0.45784 0.55093 0.62721 0.0
C3655 C 0.46834 0.54162 0.61693 0.0
C3656 C 0.47139 0.53301 0.62704 0.0
C3657 C 0.46247 0.55735 0.59406 0.0
C3658 C 0.47015 0.55589 0.57226 0.0
C3659 C 0.473 0.54807 0.58411 0.0
C3660 C 0.47504 0.56191 0.53595 0.0
C3661 C 0.45927 0.56576 0.58298 0.0
C3662 C 0.46836 0.56014 0.5037 0.0
C3663 C 0.47309 0.56366 0.4674 0.0
C3664 C 0.48456 0.56895 0.46289 0.0
C3665 C 0.49127 0.57146 0.49542 0.0
C3666 C 0.48654 0.56796 0.53171 0.0
H3667 H 0.45565 0.56791 0.60753 0.0
H3668 H 0.46649 0.57339 0.57202 0.0
H3669 H 0.45302 0.56233 0.55981 0.0
H3670 H 0.45948 0.5553 0.50607 0.0
H3671 H 0.46778 0.56142 0.44249 0.0
H3672 H 0.48712 0.915 0.7228 0.0
H3673 H 0.47518 0.91061 0.66626 0.0
H3674 H 0.4636 0.93195 0.70801 0.0
H3675 H 0.47552 0.93649 0.76389 0.0
H3676 H 0.45188 0.90185 0.65762 0.0
H3677 H 0.47593 0.94445 0.6016 0.0
H3678 H 0.48099 0.93933 0.63933 0.0
H3679 H 0.47124 0.94374 0.64994 0.0
C3680 C 0.48199 0.91872 0.72001 0.0
C3681 C 0.48242 0.92622 0.74772 0.0
C3682 C 0.47516 0.91618 0.68773 0.0
C3683 C 0.46865 0.92111 0.68258 0.0
C3684 C 0.46872 0.92823 0.71095 0.0
H3685 H 0.42975 0.92654 0.50121 0.0
H3686 H 0.43655 0.92519 0.56461 0.0
C3687 C 0.47555 0.9308 0.74299 0.0
C3688 C 0.46207 0.91922 0.64705 0.0
H3689 H 0.45892 0.93275 0.57103 0.0
C3690 C 0.45344 0.90858 0.63854 0.0
C3691 C 0.46413 0.928 0.62208 0.0
C3692 C 0.47364 0.9395 0.6284 0.0
C3693 C 0.44663 0.90657 0.60627 0.0
C3694 C 0.44859 0.91541 0.58179 0.0
C3695 C 0.45731 0.926 0.59012 0.0
C3696 C 0.44206 0.91398 0.54644 0.0
C3697 C 0.43728 0.89506 0.59903 0.0
C3698 C 0.44244 0.90775 0.51555 0.0
C3699 C 0.43844 0.90844 0.47946 0.0
C3700 C 0.43402 0.91537 0.47376 0.0
C3701 C 0.43288 0.92094 0.50522 0.0
C3702 C 0.43687 0.92025 0.54129 0.0
H3703 H 0.43512 0.88988 0.62521 0.0
H3704 H 0.42985 0.8952 0.5888 0.0
H3705 H 0.43976 0.89115 0.57647 0.0
H3706 H 0.4466 0.90304 0.51853 0.0
H3707 H 0.43967 0.90432 0.45529 0.0
H3708 H 0.24218 0.42262 0.11631 0.0
H3709 H 0.23431 0.4266 0.17299 0.0
H3710 H 0.20227 0.41023 0.11984 0.0
H3711 H 0.20993 0.40604 0.06398 0.0
H3712 H 0.22171 0.43734 0.18532 0.0
H3713 H 0.19767 0.39276 0.21864 0.0
H3714 H 0.20873 0.39835 0.18416 0.0
H3715 H 0.19531 0.396 0.17106 0.0
C3716 C 0.23349 0.41998 0.11661 0.0
C3717 C 0.22665 0.41384 0.08595 0.0
C3718 C 0.22901 0.42227 0.14896 0.0
C3719 C 0.21766 0.4185 0.15094 0.0
C3720 C 0.211 0.41299 0.11932 0.0
H3721 H 0.17109 0.41124 0.32646 0.0
H3722 H 0.18044 0.41459 0.2643 0.0
C3723 C 0.21541 0.41061 0.08737 0.0
C3724 C 0.21255 0.41963 0.18668 0.0
H3725 H 0.19325 0.40441 0.25418 0.0
C3726 C 0.21552 0.43016 0.20052 0.0
C3727 C 0.20452 0.41024 0.20661 0.0
C3728 C 0.20143 0.3987 0.19464 0.0
C3729 C 0.21044 0.43152 0.23327 0.0
C3730 C 0.20225 0.42212 0.25259 0.0
C3731 C 0.19939 0.41162 0.23891 0.0
C3732 C 0.19687 0.42277 0.28836 0.0
C3733 C 0.21373 0.44298 0.24663 0.0
C3734 C 0.20301 0.42665 0.3223 0.0
C3735 C 0.19766 0.42478 0.35768 0.0
C3736 C 0.18612 0.41904 0.35956 0.0
C3737 C 0.18 0.41591 0.3255 0.0
C3738 C 0.18534 0.41774 0.29011 0.0
H3739 H 0.21807 0.4492 0.22381 0.0
H3740 H 0.20641 0.44345 0.25599 0.0
H3741 H 0.21936 0.44512 0.27154 0.0
H3742 H 0.21188 0.43033 0.32178 0.0
H3743 H 0.20251 0.42701 0.38375 0.0
H3744 H 0.59965 0.80453 0.0762 0.0
H3745 H 0.59406 0.79309 0.1333 0.0
H3746 H 0.57418 0.80702 0.1689 0.0
H3747 H 0.57989 0.81875 0.11146 0.0
H3748 H 0.58751 0.80685 0.22659 0.0
H3749 H 0.5654 0.76567 0.16001 0.0
H3750 H 0.57879 0.7739 0.13938 0.0
H3751 H 0.56861 0.77806 0.13402 0.0
C3752 C 0.594 0.80514 0.09584 0.0
C3753 C 0.59023 0.8126 0.08907 0.0
C3754 C 0.59072 0.79848 0.12843 0.0
C3755 C 0.58351 0.799 0.15506 0.0
C3756 C 0.57966 0.80639 0.14849 0.0
H3757 H 0.57177 0.76953 0.38675 0.0
H3758 H 0.56782 0.77632 0.32709 0.0
C3759 C 0.58293 0.81309 0.11567 0.0
C3760 C 0.58079 0.79241 0.19096 0.0
H3761 H 0.57253 0.76647 0.22396 0.0
C3762 C 0.58398 0.79799 0.22616 0.0
C3763 C 0.57618 0.78083 0.19042 0.0
C3764 C 0.57194 0.77426 0.15393 0.0
C3765 C 0.58338 0.79242 0.26041 0.0
C3766 C 0.57934 0.78094 0.25947 0.0
C3767 C 0.57564 0.77527 0.22461 0.0
C3768 C 0.58009 0.775 0.29355 0.0
C3769 C 0.58768 0.79895 0.29699 0.0
C3770 C 0.58789 0.77152 0.29389 0.0
C3771 C 0.59009 0.76762 0.32771 0.0
C3772 C 0.5844 0.76697 0.36155 0.0
C3773 C 0.57607 0.76975 0.36069 0.0
C3774 C 0.57392 0.77373 0.32683 0.0
H3775 H 0.5919 0.80797 0.29184 0.0
H3776 H 0.58072 0.79674 0.31693 0.0
H3777 H 0.59353 0.79695 0.31134 0.0
H3778 H 0.59277 0.77246 0.26859 0.0
H3779 H 0.59671 0.76574 0.32803 0.0
H3780 H 0.19839 0.79447 0.07192 0.0
H3781 H 0.21033 0.80045 0.12784 0.0
H3782 H 0.19657 0.76675 0.16441 0.0
H3783 H 0.18437 0.76061 0.10824 0.0
H3784 H 0.19663 0.78033 0.22126 0.0
H3785 H 0.23788 0.79944 0.15499 0.0
H3786 H 0.22957 0.80451 0.1342 0.0
H3787 H 0.22551 0.79019 0.12903 0.0
C3788 C 0.19795 0.78826 0.09149 0.0
C3789 C 0.19036 0.77703 0.08553 0.0
C3790 C 0.20489 0.79172 0.12335 0.0
C3791 C 0.20451 0.78405 0.15 0.0
C3792 C 0.19709 0.7728 0.14396 0.0
H3793 H 0.23247 0.80108 0.38268 0.0
H3794 H 0.22644 0.79074 0.32218 0.0
C3795 C 0.19012 0.76931 0.11186 0.0
C3796 C 0.21111 0.788 0.18581 0.0
H3797 H 0.23703 0.80569 0.21899 0.0
C3798 C 0.2055 0.78565 0.22091 0.0
C3799 C 0.22269 0.79499 0.18532 0.0
C3800 C 0.22927 0.79734 0.14886 0.0
C3801 C 0.21103 0.79065 0.25514 0.0
C3802 C 0.22252 0.79805 0.25433 0.0
C3803 C 0.22823 0.80002 0.21954 0.0
C3804 C 0.22844 0.8046 0.28863 0.0
C3805 C 0.20441 0.78848 0.29151 0.0
C3806 C 0.23219 0.81594 0.28923 0.0
C3807 C 0.23572 0.82184 0.32356 0.0
C3808 C 0.23568 0.81651 0.35762 0.0
C3809 C 0.23277 0.80538 0.35649 0.0
C3810 C 0.22921 0.79946 0.32213 0.0
H3811 H 0.19541 0.78399 0.28596 0.0
H3812 H 0.20629 0.78342 0.31121 0.0
H3813 H 0.20663 0.79632 0.30633 0.0
H3814 H 0.23163 0.82005 0.26373 0.0
H3815 H 0.2377 0.83036 0.32408 0.0
H3816 H 0.38658 0.25407 0.44492 0.0
H3817 H 0.3693 0.25265 0.42179 0.0
H3818 H 0.35079 0.22248 0.48554 0.0
H3819 H 0.36765 0.22404 0.5094 0.0
H3820 H 0.3548 0.23782 0.37693 0.0
H3821 H 0.33204 0.23527 0.5072 0.0
H3822 H 0.34665 0.24022 0.50846 0.0
H3823 H 0.33683 0.2257 0.51325 0.0
C3824 C 0.3788 0.24734 0.45482 0.0
C3825 C 0.37852 0.23915 0.47882 0.0
C3826 C 0.36892 0.24651 0.44152 0.0
C3827 C 0.35865 0.23756 0.45244 0.0
C3828 C 0.35849 0.22967 0.47758 0.0
H3829 H 0.30735 0.19114 0.3349 0.0
H3830 H 0.32433 0.20679 0.35599 0.0
C3831 C 0.36823 0.2305 0.49081 0.0
C3832 C 0.34811 0.23534 0.43411 0.0
H3833 H 0.32064 0.22249 0.45446 0.0
C3834 C 0.34737 0.23482 0.39393 0.0
C3835 C 0.33835 0.23179 0.45574 0.0
C3836 C 0.33857 0.23343 0.49853 0.0
C3837 C 0.3371 0.22957 0.37534 0.0
C3838 C 0.32733 0.22433 0.3975 0.0
C3839 C 0.32808 0.22614 0.43726 0.0
C3840 C 0.31673 0.21548 0.38121 0.0
C3841 C 0.33689 0.22927 0.33211 0.0
C3842 C 0.30657 0.21485 0.38899 0.0
C3843 C 0.29661 0.2056 0.37745 0.0
C3844 C 0.29668 0.1968 0.35837 0.0
C3845 C 0.3069 0.19768 0.34972 0.0
C3846 C 0.31672 0.2068 0.36128 0.0
H3847 H 0.34355 0.23715 0.32025 0.0
H3848 H 0.33844 0.22266 0.32202 0.0
H3849 H 0.32888 0.22775 0.32051 0.0
H3850 H 0.30633 0.22138 0.40474 0.0
H3851 H 0.2889 0.20517 0.38466 0.0
H3852 H 0.77995 0.14609 0.50769 0.0
H3853 H 0.78224 0.13139 0.48185 0.0
H3854 H 0.75215 0.11943 0.41725 0.0
H3855 H 0.75001 0.1347 0.44231 0.0
H3856 H 0.77142 0.10963 0.48131 0.0
H3857 H 0.77358 0.12494 0.33221 0.0
H3858 H 0.77313 0.13253 0.37315 0.0
H3859 H 0.76092 0.12025 0.35795 0.0
C3860 C 0.77372 0.14033 0.48819 0.0
C3861 C 0.76491 0.14175 0.47641 0.0
C3862 C 0.77502 0.13182 0.47358 0.0
C3863 C 0.76752 0.12438 0.44687 0.0
C3864 C 0.75821 0.12522 0.43708 0.0
H3865 H 0.79893 0.08554 0.37369 0.0
H3866 H 0.78311 0.08744 0.39372 0.0
C3867 C 0.75693 0.13388 0.4517 0.0
C3868 C 0.77035 0.11661 0.42764 0.0
H3869 H 0.78053 0.11321 0.34295 0.0
C3870 C 0.77317 0.11018 0.45085 0.0
C3871 C 0.7726 0.11727 0.38782 0.0
C3872 C 0.76998 0.12414 0.3612 0.0
C3873 C 0.77922 0.10544 0.4363 0.0
C3874 C 0.7822 0.10684 0.39707 0.0
C3875 C 0.77831 0.11221 0.37307 0.0
C3876 C 0.79108 0.10494 0.38212 0.0
C3877 C 0.78321 0.09988 0.4638 0.0
C3878 C 0.80065 0.11399 0.36768 0.0
C3879 C 0.80954 0.1129 0.35587 0.0
C3880 C 0.80921 0.10272 0.35832 0.0
C3881 C 0.7995 0.09352 0.37172 0.0
C3882 C 0.79048 0.09461 0.3834 0.0
H3883 H 0.78142 0.10083 0.49415 0.0
H3884 H 0.77908 0.09096 0.45722 0.0
H3885 H 0.79222 0.10332 0.46072 0.0
H3886 H 0.80139 0.12205 0.36638 0.0
H3887 H 0.81678 0.12019 0.3454 0.0
H3888 H 0.87143 0.61996 0.44684 0.0
H3889 H 0.88704 0.63719 0.42251 0.0
H3890 H 0.87524 0.65575 0.48535 0.0
H3891 H 0.86022 0.63892 0.51056 0.0
H3892 H 0.88632 0.65118 0.37677 0.0
H3893 H 0.90677 0.67505 0.50498 0.0
H3894 H 0.89725 0.66043 0.50758 0.0
H3895 H 0.89242 0.67017 0.51135 0.0
C3896 C 0.87241 0.62775 0.45631 0.0
C3897 C 0.86452 0.62803 0.48046 0.0
C3898 C 0.88131 0.6376 0.44232 0.0
C3899 C 0.88251 0.64786 0.45257 0.0
C3900 C 0.87484 0.64806 0.47787 0.0
H3901 H 0.8867 0.69817 0.32935 0.0
H3902 H 0.88548 0.6814 0.35241 0.0
C3903 C 0.86607 0.63833 0.49189 0.0
C3904 C 0.89064 0.65832 0.43333 0.0
H3905 H 0.9051 0.68594 0.45108 0.0
C3906 C 0.89073 0.65874 0.39309 0.0
C3907 C 0.89683 0.66826 0.45405 0.0
C3908 C 0.8984 0.66839 0.49687 0.0
C3909 C 0.89562 0.66885 0.37353 0.0
C3910 C 0.90014 0.67879 0.39475 0.0
C3911 C 0.90132 0.67837 0.4346 0.0
C3912 C 0.90181 0.68924 0.37733 0.0
C3913 C 0.89541 0.66872 0.33029 0.0
C3914 C 0.91133 0.69947 0.38429 0.0
C3915 C 0.91198 0.70931 0.37161 0.0
C3916 C 0.90307 0.70906 0.35211 0.0
C3917 C 0.89374 0.69877 0.34433 0.0
C3918 C 0.89308 0.68906 0.35707 0.0
H3919 H 0.89666 0.662 0.31918 0.0
H3920 H 0.88722 0.66705 0.32016 0.0
H3921 H 0.90185 0.67665 0.31799 0.0
H3922 H 0.91814 0.69986 0.40028 0.0
H3923 H 0.91927 0.71709 0.3782 0.0
H3924 H 0.19772 0.30452 0.18679 0.0
H3925 H 0.21241 0.32169 0.16011 0.0
H3926 H 0.21694 0.30368 0.06863 0.0
H3927 H 0.20222 0.28629 0.09573 0.0
H3928 H 0.2363 0.32955 0.13114 0.0
H3929 H 0.20471 0.3242 0.02282 0.0
H3930 H 0.20087 0.31698 0.06804 0.0
H3931 H 0.20721 0.31298 0.0317 0.0
C3932 C 0.20207 0.30416 0.16165 0.0
C3933 C 0.1988 0.29407 0.14321 0.0
C3934 C 0.21048 0.31399 0.14651 0.0
C3935 C 0.21571 0.31396 0.11233 0.0
C3936 C 0.21301 0.30385 0.09514 0.0
H3937 H 0.24191 0.37245 0.96971 0.0
H3938 H 0.23865 0.3544 0.99066 0.0
C3939 C 0.20464 0.29393 0.11068 0.0
C3940 C 0.22267 0.32457 0.09242 0.0
H3941 H 0.22078 0.34126 0.02544 0.0
C3942 C 0.23304 0.33207 0.10747 0.0
C3943 C 0.21838 0.32784 0.06167 0.0
C3944 C 0.20717 0.32015 0.04498 0.0
C3945 C 0.23914 0.34288 0.09312 0.0
C3946 C 0.23456 0.34636 0.06378 0.0
C3947 C 0.22437 0.33865 0.04778 0.0
C3948 C 0.23953 0.35807 0.05132 0.0
C3949 C 0.25036 0.35045 0.10979 0.0
C3950 C 0.24169 0.36639 0.07825 0.0
C3951 C 0.24387 0.37682 0.06616 0.0
C3952 C 0.24375 0.37903 0.027 0.0
C3953 C 0.24229 0.37099 1.00004 0.0
C3954 C 0.24032 0.36065 0.01206 0.0
H3955 H 0.25433 0.34574 0.11974 0.0
H3956 H 0.25585 0.35671 0.08864 0.0
H3957 H 0.24947 0.35475 0.13507 0.0
H3958 H 0.24081 0.36458 0.10864 0.0
H3959 H 0.24463 0.38278 0.08745 0.0
H3960 H 0.70006 0.8906 0.1645 0.0
H3961 H 0.68318 0.88877 0.1397 0.0
H3962 H 0.70143 0.92018 0.08286 0.0
H3963 H 0.71877 0.92187 0.10674 0.0
H3964 H 0.67226 0.89945 0.14461 0.0
H3965 H 0.68559 0.90092 0.99307 0.0
H3966 H 0.69366 0.90051 0.03254 0.0
H3967 H 0.6934 0.91293 0.0222 0.0
C3968 C 0.70059 0.89721 0.14687 0.0
C3969 C 0.71085 0.90629 0.13692 0.0
C3970 C 0.69084 0.89617 0.13288 0.0
C3971 C 0.69095 0.90421 0.10868 0.0
C3972 C 0.70111 0.91371 0.10068 0.0
H3973 H 0.62043 0.87139 0.04061 0.0
H3974 H 0.63776 0.88775 0.06042 0.0
C3975 C 0.71102 0.91474 0.11463 0.0
C3976 C 0.68036 0.90178 0.0902 0.0
H3977 H 0.66686 0.89321 0.00459 0.0
C3978 C 0.67107 0.89831 0.11386 0.0
C3979 C 0.67881 0.90041 0.05002 0.0
C3980 C 0.68834 0.90382 0.02282 0.0
C3981 C 0.66031 0.89231 0.09915 0.0
C3982 C 0.65877 0.89011 0.05931 0.0
C3983 C 0.66804 0.8948 0.03516 0.0
C3984 C 0.64817 0.88114 0.04338 0.0
C3985 C 0.65078 0.88749 0.12691 0.0
C3986 C 0.64825 0.87223 0.02547 0.0
C3987 C 0.6385 0.86308 0.01362 0.0
C3988 C 0.62826 0.86244 0.01961 0.0
C3989 C 0.62815 0.87156 0.03593 0.0
C3990 C 0.63805 0.88088 0.04756 0.0
H3991 H 0.65355 0.88877 0.15728 0.0
H3992 H 0.64573 0.89147 0.12256 0.0
H3993 H 0.64546 0.87852 0.12191 0.0
H3994 H 0.65588 0.87215 0.02177 0.0
H3995 H 0.63902 0.85635 1.00061 0.0
H3996 H 0.08296 0.79566 0.12601 0.0
H3997 H 0.08393 0.7793 0.10622 0.0
H3998 H 0.11648 0.79354 0.15506 0.0
H3999 H 0.11542 0.80937 0.17585 0.0
H4000 H 0.09691 0.77799 0.05663 0.0
H4001 H 0.1052 0.76314 0.1903 0.0
H4002 H 0.10005 0.77264 0.19039 0.0
H4003 H 0.11468 0.77761 0.18875 0.0
C4004 C 0.09018 0.79513 0.13331 0.0
C4005 C 0.09911 0.80388 0.15237 0.0
C4006 C 0.09074 0.78579 0.12197 0.0
C4007 C 0.10019 0.78501 0.12986 0.0
C4008 C 0.10893 0.79365 0.14975 0.0
H4009 H 0.14273 0.77764 0.00219 0.0
H4010 H 0.12724 0.77871 0.02669 0.0
C4011 C 0.10836 0.80285 0.16115 0.0
C4012 C 0.10182 0.7761 0.11345 0.0
H4013 H 0.11586 0.76262 0.13338 0.0
C4014 C 0.10071 0.77432 0.07368 0.0
C4015 C 0.10637 0.77082 0.13541 0.0
C4016 C 0.10649 0.77107 0.17864 0.0
C4017 C 0.10534 0.76872 0.05498 0.0
C4018 C 0.11162 0.76519 0.07639 0.0
C4019 C 0.1114 0.76562 0.11658 0.0
C4020 C 0.12011 0.7633 0.05783 0.0
C4021 C 0.10398 0.7672 0.01214 0.0
C4022 C 0.12154 0.75433 0.06751 0.0
C4023 C 0.13069 0.75376 0.0537 0.0
C4024 C 0.1386 0.76225 0.03059 0.0
C4025 C 0.13687 0.77095 0.02005 0.0
C4026 C 0.12785 0.77151 0.03366 0.0
H4027 H 0.0956 0.76534 0.00344 0.0
H4028 H 0.10994 0.77497 0.99767 0.0
H4029 H 0.10532 0.76046 0.00198 0.0
H4030 H 0.11577 0.74796 0.08656 0.0
H4031 H 0.13182 0.74698 0.06245 0.0
H4032 H 0.71301 0.80737 0.57841 0.0
H4033 H 0.69449 0.79271 0.56068 0.0
H4034 H 0.68644 0.78517 0.6803 0.0
H4035 H 0.70479 0.80014 0.69795 0.0
H4036 H 0.68027 0.77051 0.57194 0.0
H4037 H 0.66533 0.79533 0.64836 0.0
H4038 H 0.67974 0.80034 0.63996 0.0
H4039 H 0.67267 0.79075 0.67817 0.0
C4040 C 0.70742 0.80227 0.60076 0.0
C4041 C 0.71032 0.80476 0.63948 0.0
C4042 C 0.69681 0.79395 0.59067 0.0
C4043 C 0.68896 0.78801 0.61919 0.0
C4044 C 0.69225 0.7898 0.65782 0.0
H4045 H 0.61722 0.75381 0.5883 0.0
H4046 H 0.63486 0.75724 0.61554 0.0
C4047 C 0.70278 0.79824 0.66789 0.0
C4048 C 0.67714 0.78099 0.60863 0.0
H4049 H 0.65205 0.77922 0.6182 0.0
C4050 C 0.67408 0.77233 0.5824 0.0
C4051 C 0.66903 0.7834 0.62206 0.0
C4052 C 0.67184 0.79301 0.64839 0.0
C4053 C 0.66319 0.76617 0.56877 0.0
C4054 C 0.65518 0.76877 0.58154 0.0
C4055 C 0.65815 0.77713 0.60883 0.0
C4056 C 0.64415 0.76411 0.56333 0.0
C4057 C 0.6604 0.75707 0.54027 0.0
C4058 C 0.64344 0.76649 0.52472 0.0
C4059 C 0.63345 0.7646 0.50938 0.0
C4060 C 0.62392 0.7602 0.53217 0.0
C4061 C 0.62439 0.75698 0.56993 0.0
C4062 C 0.63448 0.75903 0.58554 0.0
H4063 H 0.66612 0.75378 0.54275 0.0
H4064 H 0.65183 0.75021 0.54427 0.0
H4065 H 0.66114 0.76036 0.51081 0.0
H4066 H 0.65079 0.77063 0.50723 0.0
H4067 H 0.63333 0.76731 0.48036 0.0
H4068 H 0.19091 0.88756 0.67469 0.0
H4069 H 0.20596 0.88572 0.64978 0.0
H4070 H 0.21749 0.91571 0.58502 0.0
H4071 H 0.2019 0.91743 0.60931 0.0
H4072 H 0.21639 0.90036 0.54026 0.0
H4073 H 0.23774 0.89853 0.66889 0.0
H4074 H 0.2234 0.8891 0.6761 0.0
H4075 H 0.22818 0.90361 0.67067 0.0
C4076 C 0.19672 0.89393 0.65569 0.0
C4077 C 0.19512 0.90261 0.64377 0.0
C4078 C 0.20549 0.89294 0.64182 0.0
C4079 C 0.21308 0.90068 0.61606 0.0
C4080 C 0.21182 0.90968 0.60522 0.0
H4081 H 0.2512 0.86937 0.54308 0.0
H4082 H 0.24942 0.88518 0.56409 0.0
C4083 C 0.20294 0.91068 0.61919 0.0
C4084 C 0.22118 0.89829 0.59704 0.0
H4085 H 0.2362 0.88577 0.61621 0.0
C4086 C 0.22102 0.89751 0.55687 0.0
C4087 C 0.22761 0.8949 0.61817 0.0
C4088 C 0.22933 0.89673 0.66081 0.0
C4089 C 0.22594 0.89222 0.53791 0.0
C4090 C 0.23081 0.88725 0.55973 0.0
C4091 C 0.23218 0.88925 0.59936 0.0
C4092 C 0.23273 0.87853 0.5433 0.0
C4093 C 0.22539 0.89159 0.49473 0.0
C4094 C 0.22399 0.86953 0.52475 0.0
C4095 C 0.22501 0.86062 0.51272 0.0
C4096 C 0.23473 0.86028 0.51943 0.0
C4097 C 0.24362 0.86937 0.53735 0.0
C4098 C 0.24259 0.8784 0.54939 0.0
H4099 H 0.22618 0.89927 0.48244 0.0
H4100 H 0.23196 0.89029 0.48249 0.0
H4101 H 0.21726 0.8847 0.4858 0.0
H4102 H 0.21616 0.86917 0.5208 0.0
H4103 H 0.21796 0.85382 0.49897 0.0
H4104 H 0.14566 0.36326 0.48942 0.0
H4105 H 0.1305 0.34621 0.51282 0.0
H4106 H 0.11733 0.36413 0.57185 0.0
H4107 H 0.133 0.38158 0.54923 0.0
H4108 H 0.11804 0.35013 0.61873 0.0
H4109 H 0.09916 0.32669 0.48796 0.0
H4110 H 0.11364 0.33186 0.48402 0.0
H4111 H 0.10849 0.34137 0.48666 0.0
C4112 C 0.13948 0.36366 0.50686 0.0
C4113 C 0.14064 0.37385 0.5177 0.0
C4114 C 0.13066 0.35381 0.51982 0.0
C4115 C 0.12256 0.35377 0.54351 0.0
C4116 C 0.1234 0.36391 0.55325 0.0
H4117 H 0.08456 0.28438 0.61819 0.0
H4118 H 0.08613 0.30169 0.59462 0.0
C4119 C 0.13234 0.37388 0.54025 0.0
C4120 C 0.1143 0.34322 0.56179 0.0
H4121 H 0.10005 0.31565 0.54267 0.0
C4122 C 0.1138 0.34263 0.602 0.0
C4123 C 0.10837 0.33336 0.5404 0.0
C4124 C 0.10735 0.33341 0.49737 0.0
C4125 C 0.10875 0.33245 0.62107 0.0
C4126 C 0.1044 0.3226 0.59943 0.0
C4127 C 0.10366 0.32317 0.55944 0.0
C4128 C 0.10258 0.31211 0.61684 0.0
C4129 C 0.10864 0.33239 0.66431 0.0
C4130 C 0.11127 0.31217 0.63689 0.0
C4131 C 0.11041 0.30242 0.6502 0.0
C4132 C 0.10086 0.29222 0.64345 0.0
C4133 C 0.09201 0.29209 0.62398 0.0
C4134 C 0.0929 0.30198 0.6105 0.0
H4135 H 0.10755 0.3392 0.67548 0.0
H4136 H 0.10197 0.32448 0.67592 0.0
H4137 H 0.11667 0.33374 0.67509 0.0
H4138 H 0.11897 0.31977 0.64113 0.0
H4139 H 0.11742 0.30292 0.66511 0.0
H4140 H 0.8107 0.6979 0.82381 0.0
H4141 H 0.79563 0.68095 0.8481 0.0
H4142 H 0.78308 0.69913 0.90916 0.0
H4143 H 0.79871 0.7165 0.88575 0.0
H4144 H 0.78377 0.68519 0.95546 0.0
H4145 H 0.76425 0.66139 0.82612 0.0
H4146 H 0.77868 0.66645 0.82092 0.0
H4147 H 0.77365 0.67605 0.82399 0.0
C4148 C 0.80466 0.69838 0.84186 0.0
C4149 C 0.80601 0.70862 0.85308 0.0
C4150 C 0.79588 0.68858 0.85535 0.0
C4151 C 0.78799 0.68864 0.87991 0.0
C4152 C 0.78899 0.69883 0.88992 0.0
H4153 H 0.75123 0.61928 0.9529 0.0
H4154 H 0.75237 0.63649 0.93059 0.0
C4155 C 0.7979 0.70876 0.87643 0.0
C4156 C 0.77984 0.67812 0.89874 0.0
H4157 H 0.76568 0.65051 0.88049 0.0
C4158 C 0.77952 0.67764 0.93897 0.0
C4159 C 0.77384 0.6682 0.87775 0.0
C4160 C 0.77253 0.66811 0.83481 0.0
C4161 C 0.77459 0.6675 0.95838 0.0
C4162 C 0.77025 0.6576 0.93704 0.0
C4163 C 0.76931 0.65806 0.89708 0.0
C4164 C 0.76855 0.64715 0.9546 0.0
C4165 C 0.77455 0.66758 0.00163 0.0
C4166 C 0.77718 0.64735 0.97556 0.0
C4167 C 0.77651 0.63765 0.98842 0.0
C4168 C 0.76727 0.62734 0.98009 0.0
C4169 C 0.75844 0.62707 0.95993 0.0
C4170 C 0.7591 0.6369 0.94711 0.0
H4171 H 0.77318 0.67425 0.01247 0.0
H4172 H 0.76808 0.65962 0.0136 0.0
H4173 H 0.7827 0.66928 0.01237 0.0
H4174 H 0.78473 0.65503 0.98067 0.0
H4175 H 0.78349 0.63826 0.00393 0.0
H4176 H 0.28339 0.08173 0.88543 0.0
H4177 H 0.3009 0.0837 0.90868 0.0
H4178 H 0.3183 0.11672 0.86331 0.0
H4179 H 0.30126 0.11472 0.83924 0.0
H4180 H 0.32975 0.10653 0.85118 0.0
H4181 H 0.31615 0.10103 0.00374 0.0
H4182 H 0.3085 0.08978 0.97131 0.0
H4183 H 0.30809 0.1023 0.96597 0.0
C4184 C 0.29099 0.08933 0.88004 0.0
C4185 C 0.29086 0.09811 0.861 0.0
C4186 C 0.30098 0.09049 0.89359 0.0
C4187 C 0.31094 0.10045 0.8884 0.0
C4188 C 0.31079 0.10895 0.86782 0.0
H4189 H 0.36334 0.14597 0.00428 0.0
H4190 H 0.34628 0.13075 0.98109 0.0
C4191 C 0.30094 0.1078 0.85426 0.0
C4192 C 0.32159 0.10271 0.90588 0.0
H4193 H 0.33496 0.10919 0.99205 0.0
C4194 C 0.3309 0.10688 0.88202 0.0
C4195 C 0.32307 0.10308 0.94612 0.0
C4196 C 0.31347 0.09887 0.97346 0.0
C4197 C 0.34164 0.1125 0.89709 0.0
C4198 C 0.34312 0.11365 0.93734 0.0
C4199 C 0.33382 0.10838 0.96121 0.0
C4200 C 0.35375 0.12208 0.9548 0.0
C4201 C 0.3512 0.11806 0.86965 0.0
C4202 C 0.36377 0.12225 0.94882 0.0
C4203 C 0.37376 0.1312 0.96173 0.0
C4204 C 0.37383 0.14005 0.98107 0.0
C4205 C 0.3637 0.13944 0.98895 0.0
C4206 C 0.35384 0.13063 0.97591 0.0
H4207 H 0.34847 0.11762 0.83947 0.0
H4208 H 0.35654 0.12685 0.87743 0.0
H4209 H 0.35622 0.11398 0.87124 0.0
H4210 H 0.36391 0.11563 0.93342 0.0
H4211 H 0.3814 0.13136 0.95549 0.0
H4212 H 0.87274 0.2526 0.96114 0.0
H4213 H 0.88898 0.25153 0.94044 0.0
H4214 H 0.8738 0.21814 0.98216 0.0
H4215 H 0.8581 0.21928 0.00402 0.0
H4216 H 0.89511 0.22858 0.99768 0.0
H4217 H 0.88919 0.23585 0.84456 0.0
H4218 H 0.89207 0.24663 0.87832 0.0
H4219 H 0.8792 0.23392 0.88068 0.0
C4220 C 0.87298 0.2451 0.96627 0.0
C4221 C 0.864 0.23598 0.98371 0.0
C4222 C 0.88223 0.24446 0.95417 0.0
C4223 C 0.88257 0.23466 0.95904 0.0
C4224 C 0.87381 0.2258 0.97797 0.0
H4225 H 0.89028 0.19079 0.84265 0.0
H4226 H 0.88889 0.20615 0.86658 0.0
C4227 C 0.86472 0.22646 0.99024 0.0
C4228 C 0.89144 0.23295 0.94273 0.0
H4229 H 0.89987 0.22781 0.85724 0.0
C4230 C 0.8964 0.22865 0.96699 0.0
C4231 C 0.89325 0.23318 0.90271 0.0
C4232 C 0.88814 0.23759 0.87487 0.0
C4233 C 0.90187 0.22335 0.95224 0.0
C4234 C 0.90278 0.22267 0.91202 0.0
C4235 C 0.89908 0.22824 0.88805 0.0
C4236 C 0.90484 0.21419 0.89428 0.0
C4237 C 0.90561 0.21756 0.97972 0.0
C4238 C 0.91445 0.21358 0.90088 0.0
C4239 C 0.91523 0.20452 0.88741 0.0
C4240 C 0.90642 0.19599 0.86709 0.0
C4241 C 0.89717 0.19705 0.85876 0.0
C4242 C 0.89639 0.20595 0.87222 0.0
H4243 H 0.9032 0.21792 0.0098 0.0
H4244 H 0.90205 0.20878 0.97151 0.0
H4245 H 0.9147 0.22148 0.97861 0.0
H4246 H 0.9212 0.21995 0.91711 0.0
H4247 H 0.9225 0.204 0.894 0.0
H4248 H 0.0331 0.56004 0.85301 0.0
H4249 H 0.01575 0.55761 0.82834 0.0
H4250 H 0.03289 0.57876 0.73267 0.0
H4251 H 0.05045 0.5813 0.75762 0.0
H4252 H 0.00755 0.57251 0.80262 0.0
H4253 H 0.01158 0.54715 0.6875 0.0
H4254 H 0.01985 0.55088 0.73043 0.0
H4255 H 0.02271 0.56102 0.69414 0.0
C4256 C 0.03324 0.56444 0.82727 0.0
C4257 C 0.04312 0.57081 0.8071 0.0
C4258 C 0.02331 0.56306 0.81325 0.0
C4259 C 0.023 0.5679 0.77848 0.0
C4260 C 0.03295 0.57491 0.75952 0.0
H4261 H 0.96221 0.53631 0.64602 0.0
H4262 H 0.98053 0.5511 0.66468 0.0
C4263 C 0.04298 0.57641 0.77388 0.0
C4264 C 0.01214 0.56435 0.76039 0.0
H4265 H 0.99464 0.54632 0.6936 0.0
C4266 C 0.00476 0.56696 0.77826 0.0
C4267 C 0.00851 0.55708 0.72871 0.0
C4268 C 0.016 0.55377 0.70901 0.0
C4269 C 0.99375 0.56224 0.76597 0.0
C4270 C 0.98995 0.55447 0.7357 0.0
C4271 C 0.9975 0.55229 0.71673 0.0
C4272 C 0.97806 0.54761 0.72549 0.0
C4273 C 0.98631 0.56554 0.7859 0.0
C4274 C 0.97034 0.54101 0.75348 0.0
C4275 C 0.95978 0.53272 0.74281 0.0
C4276 C 0.95679 0.53082 0.704 0.0
C4277 C 0.96423 0.53784 0.67622 0.0
C4278 C 0.97474 0.54621 0.68687 0.0
H4279 H 0.99105 0.57412 0.79679 0.0
H4280 H 0.97972 0.56488 0.7665 0.0
H4281 H 0.98241 0.56007 0.81094 0.0
H4282 H 0.97273 0.54164 0.78329 0.0
H4283 H 0.95432 0.52716 0.76458 0.0
H4284 H 0.41682 0.46524 0.76207 0.0
H4285 H 0.41791 0.44923 0.7383 0.0
H4286 H 0.44733 0.45956 0.80543 0.0
H4287 H 0.44609 0.47498 0.82969 0.0
H4288 H 0.43307 0.44948 0.69491 0.0
H4289 H 0.43348 0.42774 0.82414 0.0
H4290 H 0.42877 0.43761 0.82532 0.0
H4291 H 0.44315 0.44195 0.83243 0.0
C4292 C 0.4233 0.46384 0.77253 0.0
C4293 C 0.4314 0.47143 0.7976 0.0
C4294 C 0.42394 0.45472 0.75889 0.0
C4295 C 0.43259 0.453 0.77061 0.0
C4296 C 0.44035 0.46037 0.79681 0.0
H4297 H 0.48029 0.44932 0.66037 0.0
H4298 H 0.46419 0.4502 0.67863 0.0
C4299 C 0.43972 0.46936 0.8103 0.0
C4300 C 0.43471 0.44464 0.75212 0.0
H4301 H 0.44708 0.42962 0.77351 0.0
C4302 C 0.43577 0.44482 0.71206 0.0
C4303 C 0.43784 0.4381 0.77386 0.0
C4304 C 0.4356 0.43626 0.81628 0.0
C4305 C 0.44122 0.43994 0.69398 0.0
C4306 C 0.44613 0.43515 0.71665 0.0
C4307 C 0.44371 0.43362 0.75599 0.0
C4308 C 0.45528 0.43367 0.70174 0.0
C4309 C 0.44213 0.44048 0.65085 0.0
C4310 C 0.45594 0.42415 0.7094 0.0
C4311 C 0.46544 0.42368 0.69955 0.0
C4312 C 0.47446 0.43278 0.68221 0.0
C4313 C 0.47357 0.44212 0.67369 0.0
C4314 C 0.46421 0.44259 0.68364 0.0
H4315 H 0.43439 0.43931 0.63782 0.0
H4316 H 0.44882 0.44875 0.64215 0.0
H4317 H 0.44388 0.43415 0.63916 0.0
H4318 H 0.44923 0.41719 0.72382 0.0
H4319 H 0.46586 0.41639 0.70663 0.0
H4320 H 0.56657 0.03635 0.65167 0.0
H4321 H 0.56412 0.01925 0.67901 0.0
H4322 H 0.58142 0.0367 0.781 0.0
H4323 H 0.58394 0.05398 0.75336 0.0
H4324 H 0.5778 0.01115 0.71618 0.0
H4325 H 0.54853 0.01543 0.81302 0.0
H4326 H 0.554 0.02371 0.77044 0.0
H4327 H 0.56255 0.02654 0.81198 0.0
C4328 C 0.57023 0.03662 0.67932 0.0
C4329 C 0.57543 0.04646 0.70047 0.0
C4330 C 0.56882 0.02684 0.69492 0.0
C4331 C 0.57246 0.02667 0.7322 0.0
C4332 C 0.57851 0.03666 0.75219 0.0
H4333 H 0.53748 0.96738 0.86969 0.0
H4334 H 0.55243 0.98557 0.85103 0.0
C4335 C 0.58003 0.04654 0.73632 0.0
C4336 C 0.56828 0.01587 0.7516 0.0
H4337 H 0.54819 0.99868 0.81349 0.0
C4338 C 0.57148 0.00845 0.73804 0.0
C4339 C 0.55998 0.01235 0.77989 0.0
C4340 C 0.55596 0.01985 0.79469 0.0
C4341 C 0.56642 0.99753 0.75154 0.0
C4342 C 0.55773 0.99386 0.7785 0.0
C4343 C 0.55487 0.00144 0.793 0.0
C4344 C 0.55083 0.98209 0.79013 0.0
C4345 C 0.57042 0.99006 0.73656 0.0
C4346 C 0.54527 0.97383 0.7624 0.0
C4347 C 0.53692 0.9633 0.77325 0.0
C4348 C 0.53387 0.96094 0.8119 0.0
C4349 C 0.53984 0.96896 0.83977 0.0
C4350 C 0.54832 0.97938 0.82905 0.0
H4351 H 0.57927 0.99483 0.72863 0.0
H4352 H 0.56928 0.98372 0.758 0.0
H4353 H 0.56573 0.98586 0.7103 0.0
H4354 H 0.54676 0.97572 0.73216 0.0
H4355 H 0.5322 0.95735 0.7512 0.0
H4356 H 0.48051 0.02972 0.17019 0.0
H4357 H 0.46523 0.01235 0.19071 0.0
H4358 H 0.44817 0.02883 0.23134 0.0
H4359 H 0.46389 0.04665 0.21163 0.0
H4360 H 0.44744 0.01491 0.28378 0.0
H4361 H 0.4356 0.9921 0.14828 0.0
H4362 H 0.45016 0.99798 0.15363 0.0
H4363 H 0.44434 0.00688 0.14954 0.0
C4364 C 0.47351 0.02975 0.18312 0.0
C4365 C 0.47351 0.03967 0.1894 0.0
C4366 C 0.46464 0.0197 0.1944 0.0
C4367 C 0.45536 0.01916 0.21175 0.0
C4368 C 0.45517 0.029 0.21754 0.0
H4369 H 0.41627 0.94903 0.27246 0.0
H4370 H 0.41808 0.96643 0.24878 0.0
C4371 C 0.46415 0.03918 0.20625 0.0
C4372 C 0.44661 0.00838 0.22713 0.0
H4373 H 0.43392 0.98098 0.20591 0.0
C4374 C 0.4442 0.00751 0.26648 0.0
C4375 C 0.44196 0.99866 0.20467 0.0
C4376 C 0.44306 0.999 0.1616 0.0
C4377 C 0.43843 0.99718 0.28453 0.0
C4378 C 0.43532 0.9875 0.26294 0.0
C4379 C 0.43654 0.98835 0.2229 0.0
C4380 C 0.43279 0.97691 0.28158 0.0
C4381 C 0.43618 0.99682 0.32694 0.0
C4382 C 0.44032 0.97696 0.30816 0.0
C4383 C 0.43928 0.96715 0.32163 0.0
C4384 C 0.43077 0.95692 0.30854 0.0
C4385 C 0.42288 0.95677 0.28323 0.0
C4386 C 0.42394 0.96671 0.26961 0.0
H4387 H 0.43426 0.00335 0.33488 0.0
H4388 H 0.42923 0.98872 0.33589 0.0
H4389 H 0.44367 0.99846 0.34312 0.0
H4390 H 0.44742 0.98461 0.31704 0.0
H4391 H 0.4455 0.96761 0.34122 0.0
H4392 H 0.03229 0.47643 0.33424 0.0
H4393 H 0.01521 0.46093 0.31308 0.0
H4394 H 0.03299 0.44736 0.25563 0.0
H4395 H 0.05053 0.4634 0.27605 0.0
H4396 H 0.01827 0.44701 0.20914 0.0
H4397 H 0.99634 0.43 0.34374 0.0
H4398 H 1.00141 0.44449 0.34551 0.0
H4399 H 0.011 0.43944 0.34291 0.0
C4400 C 0.03268 0.47011 0.31759 0.0
C4401 C 0.04285 0.47125 0.30661 0.0
C4402 C 0.0228 0.46109 0.30593 0.0
C4403 C 0.02269 0.45276 0.28345 0.0
C4404 C 0.03283 0.45361 0.27338 0.0
H4405 H 0.95241 0.41467 0.22313 0.0
H4406 H 0.96991 0.41604 0.24338 0.0
C4407 C 0.04285 0.46276 0.28511 0.0
C4408 C 0.01199 0.44414 0.26696 0.0
H4409 H 0.98467 0.43024 0.28987 0.0
C4410 C 0.01096 0.44303 0.22693 0.0
C4411 C 0.00238 0.43851 0.28976 0.0
C4412 C 0.0029 0.43808 0.33287 0.0
C4413 C 1.00056 0.4377 0.20923 0.0
C4414 C 0.99095 0.43374 0.23206 0.0
C4415 C 0.99198 0.43356 0.27207 0.0
C4416 C 0.98026 0.43174 0.21567 0.0
C4417 C 1.00003 0.43684 0.1661 0.0
C4418 C 0.98019 0.44001 0.19331 0.0
C4419 C 0.97033 0.43922 0.18171 0.0
C4420 C 0.96014 0.43021 0.19267 0.0
C4421 C 0.96011 0.42169 0.21409 0.0
C4422 C 0.97011 0.42249 0.22572 0.0
H4423 H 0.00656 0.43527 0.15508 0.0
H4424 H 0.99191 0.43016 0.15597 0.0
H4425 H 1.00158 0.44477 0.15369 0.0
H4426 H 0.9878 0.44742 0.18617 0.0
H4427 H 0.97074 0.44594 0.16511 0.0
H4428 H 0.53054 0.5625 0.3513 0.0
H4429 H 0.54603 0.56062 0.33057 0.0
H4430 H 0.55175 0.58274 0.23625 0.0
H4431 H 0.53595 0.5846 0.2571 0.0
H4432 H 0.54946 0.56325 0.21274 0.0
H4433 H 0.57902 0.57825 0.33219 0.0
H4434 H 0.56547 0.5692 0.35025 0.0
H4435 H 0.56843 0.58193 0.32736 0.0
C4436 C 0.53528 0.56725 0.32679 0.0
C4437 C 0.53203 0.5737 0.30581 0.0
C4438 C 0.54423 0.56623 0.3151 0.0
C4439 C 0.55021 0.57165 0.28212 0.0
C4440 C 0.54734 0.57858 0.26205 0.0
H4441 H 0.58555 0.54145 0.16953 0.0
H4442 H 0.58301 0.5571 0.18675 0.0
C4443 C 0.53837 0.57969 0.27406 0.0
C4444 C 0.55821 0.56862 0.26628 0.0
H4445 H 0.57793 0.5627 0.2956 0.0
C4446 C 0.55598 0.56349 0.23021 0.0
C4447 C 0.56673 0.56893 0.28898 0.0
C4448 C 0.57011 0.57499 0.32667 0.0
C4449 C 0.56125 0.55773 0.21803 0.0
C4450 C 0.56903 0.55717 0.24241 0.0
C4451 C 0.57193 0.56308 0.27699 0.0
C4452 C 0.5726 0.54896 0.2357 0.0
C4453 C 0.55778 0.55146 0.18067 0.0
C4454 C 0.56802 0.53946 0.25848 0.0
C4455 C 0.56943 0.5306 0.24866 0.0
C4456 C 0.57562 0.53113 0.2163 0.0
C4457 C 0.58092 0.54095 0.19506 0.0
C4458 C 0.57938 0.54982 0.20465 0.0
H4459 H 0.5511 0.55218 0.16621 0.0
H4460 H 0.56494 0.55468 0.161 0.0
H4461 H 0.55489 0.54262 0.18577 0.0
H4462 H 0.56273 0.5386 0.28244 0.0
H4463 H 0.56513 0.52305 0.26511 0.0
loop_
_geom_bond_atom_site_label_1
_geom_bond_atom_site_label_2
_geom_bond_distance
_geom_bond_site_symmetry_2
_ccdc_geom_bond_type
Co0 O3 1.970 . S
Co0 N17 1.989 . S
Co0 O25 1.967 . S
Co0 O32 1.920 . S
Co1 O4 1.966 . S
Co1 N10 2.022 . S
Co1 N18 1.993 . S
Co1 O26 1.941 . S
C2 O3 1.258 . S
C2 O4 1.263 . S
O3 Co0 1.970 . S
O3 C2 1.258 . S
O4 Co1 1.966 . S
O4 C2 1.263 . S
C5 O6 1.235 . S
C5 O32 1.289 . S
O6 C5 1.235 . S
C7 C9 1.400 . S
C7 N10 1.351 . S
C7 C12 1.501 . S
C8 C9 1.387 . S
C8 N11 1.341 . S
C9 C7 1.400 . S
C9 C8 1.387 . S
N10 Co1 2.022 . S
N10 C7 1.351 . S
N10 N11 1.365 . S
N11 C8 1.341 . S
N11 N10 1.365 . S
N11 H31 0.862 . S
C12 C7 1.501 . S
C12 H13 0.961 . S
C12 H14 0.961 . S
C12 H15 0.960 . S
H13 C12 0.961 . S
H14 C12 0.961 . S
H15 C12 0.960 . S
C16 N17 1.342 . S
C16 C20 1.401 . S
C16 C21 1.499 . S
N17 Co0 1.989 . S
N17 C16 1.342 . S
N17 N18 1.388 . S
N18 Co1 1.993 . S
N18 N17 1.388 . S
N18 C19 1.346 . S
C19 N18 1.346 . S
C19 C20 1.396 . S
C19 C29 1.510 . S
C20 C16 1.401 . S
C20 C19 1.396 . S
C21 C16 1.499 . S
C21 H22 0.959 . S
C21 H23 0.960 . S
C21 H24 0.961 . S
H22 C21 0.959 . S
H23 C21 0.960 . S
H24 C21 0.961 . S
O25 Co0 1.967 . S
O25 C33 1.258 . S
O26 Co1 1.941 . S
O26 C33 1.266 . S
H27 C29 0.959 . S
H28 C29 0.961 . S
C29 C19 1.510 . S
C29 H27 0.959 . S
C29 H28 0.961 . S
C29 H30 0.960 . S
H30 C29 0.960 . S
H31 N11 0.862 . S
O32 Co0 1.920 . S
O32 C5 1.289 . S
C33 O25 1.258 . S
C33 O26 1.266 . S
Co34 O37 1.970 . S
Co34 N51 1.989 . S
Co34 O59 1.967 . S
Co34 O66 1.920 . S
Co35 O38 1.966 . S
Co35 N44 2.022 . S
Co35 N52 1.993 . S
Co35 O60 1.941 . S
C36 O37 1.258 . S
C36 O38 1.263 . S
O37 Co34 1.970 . S
O37 C36 1.258 . S
O38 Co35 1.966 . S
O38 C36 1.263 . S
C39 O40 1.235 . S
C39 O66 1.289 . S
O40 C39 1.235 . S
C41 C43 1.400 . S
C41 N44 1.351 . S
C41 C46 1.501 . S
C42 C43 1.387 . S
C42 N45 1.341 . S
C43 C41 1.400 . S
C43 C42 1.387 . S
N44 Co35 2.022 . S
N44 C41 1.351 . S
N44 N45 1.365 . S
N45 C42 1.341 . S
N45 N44 1.365 . S
N45 H65 0.862 . S
C46 C41 1.501 . S
C46 H47 0.961 . S
C46 H48 0.961 . S
C46 H49 0.960 . S
H47 C46 0.961 . S
H48 C46 0.961 . S
H49 C46 0.960 . S
C50 N51 1.342 . S
C50 C54 1.401 . S
C50 C55 1.499 . S
N51 Co34 1.989 . S
N51 C50 1.342 . S
N51 N52 1.388 . S
N52 Co35 1.993 . S
N52 N51 1.388 . S
N52 C53 1.346 . S
C53 N52 1.346 . S
C53 C54 1.396 . S
C53 C63 1.510 . S
C54 C50 1.401 . S
C54 C53 1.396 . S
C55 C50 1.499 . S
C55 H56 0.959 . S
C55 H57 0.960 . S
C55 H58 0.961 . S
H56 C55 0.959 . S
H57 C55 0.960 . S
H58 C55 0.961 . S
O59 Co34 1.967 . S
O59 C67 1.258 . S
O60 Co35 1.941 . S
O60 C67 1.266 . S
H61 C63 0.959 . S
H62 C63 0.961 . S
C63 C53 1.510 . S
C63 H61 0.959 . S
C63 H62 0.961 . S
C63 H64 0.960 . S
H64 C63 0.960 . S
H65 N45 0.862 . S
O66 Co34 1.920 . S
O66 C39 1.289 . S
C67 O59 1.258 . S
C67 O60 1.266 . S
Co68 O71 1.970 . S
Co68 N85 1.989 . S
Co68 O93 1.967 . S
Co68 O100 1.920 . S
Co69 O72 1.966 . S
Co69 N78 2.022 . S
Co69 N86 1.993 . S
Co69 O94 1.941 . S
C70 O71 1.258 . S
C70 O72 1.263 . S
O71 Co68 1.970 . S
O71 C70 1.258 . S
O72 Co69 1.966 . S
O72 C70 1.263 . S
C73 O74 1.235 . S
C73 O100 1.289 . S
O74 C73 1.235 . S
C75 C77 1.400 . S
C75 N78 1.351 . S
C75 C80 1.501 . S
C76 C77 1.387 . S
C76 N79 1.341 . S
C77 C75 1.400 . S
C77 C76 1.387 . S
N78 Co69 2.022 . S
N78 C75 1.351 . S
N78 N79 1.365 . S
N79 C76 1.341 . S
N79 N78 1.365 . S
N79 H99 0.862 . S
C80 C75 1.501 . S
C80 H81 0.961 . S
C80 H82 0.961 . S
C80 H83 0.960 . S
H81 C80 0.961 . S
H82 C80 0.961 . S
H83 C80 0.960 . S
C84 N85 1.342 . S
C84 C88 1.401 . S
C84 C89 1.499 . S
N85 Co68 1.989 . S
N85 C84 1.342 . S
N85 N86 1.388 . S
N86 Co69 1.993 . S
N86 N85 1.388 . S
N86 C87 1.346 . S
C87 N86 1.346 . S
C87 C88 1.396 . S
C87 C97 1.510 . S
C88 C84 1.401 . S
C88 C87 1.396 . S
C89 C84 1.499 . S
C89 H90 0.959 . S
C89 H91 0.960 . S
C89 H92 0.961 . S
H90 C89 0.959 . S
H91 C89 0.960 . S
H92 C89 0.961 . S
O93 Co68 1.967 . S
O93 C101 1.258 . S
O94 Co69 1.941 . S
O94 C101 1.266 . S
H95 C97 0.959 . S
H96 C97 0.961 . S
C97 C87 1.510 . S
C97 H95 0.959 . S
C97 H96 0.961 . S
C97 H98 0.960 . S
H98 C97 0.960 . S
H99 N79 0.862 . S
O100 Co68 1.920 . S
O100 C73 1.289 . S
C101 O93 1.258 . S
C101 O94 1.266 . S
Co102 O105 1.970 . S
Co102 N119 1.989 . S
Co102 O127 1.967 . S
Co102 O134 1.920 . S
Co103 O106 1.966 . S
Co103 N112 2.022 . S
Co103 N120 1.993 . S
Co103 O128 1.941 . S
C104 O105 1.258 . S
C104 O106 1.263 . S
O105 Co102 1.970 . S
O105 C104 1.258 . S
O106 Co103 1.966 . S
O106 C104 1.263 . S
C107 O108 1.235 . S
C107 O134 1.289 . S
O108 C107 1.235 . S
C109 C111 1.400 . S
C109 N112 1.351 . S
C109 C114 1.501 . S
C110 C111 1.387 . S
C110 N113 1.341 . S
C111 C109 1.400 . S
C111 C110 1.387 . S
N112 Co103 2.022 . S
N112 C109 1.351 . S
N112 N113 1.365 . S
N113 C110 1.341 . S
N113 N112 1.365 . S
N113 H133 0.862 . S
C114 C109 1.501 . S
C114 H115 0.961 . S
C114 H116 0.961 . S
C114 H117 0.960 . S
H115 C114 0.961 . S
H116 C114 0.961 . S
H117 C114 0.960 . S
C118 N119 1.342 . S
C118 C122 1.401 . S
C118 C123 1.499 . S
N119 Co102 1.989 . S
N119 C118 1.342 . S
N119 N120 1.388 . S
N120 Co103 1.993 . S
N120 N119 1.388 . S
N120 C121 1.346 . S
C121 N120 1.346 . S
C121 C122 1.396 . S
C121 C131 1.510 . S
C122 C118 1.401 . S
C122 C121 1.396 . S
C123 C118 1.499 . S
C123 H124 0.959 . S
C123 H125 0.960 . S
C123 H126 0.961 . S
H124 C123 0.959 . S
H125 C123 0.960 . S
H126 C123 0.961 . S
O127 Co102 1.967 . S
O127 C135 1.258 . S
O128 Co103 1.941 . S
O128 C135 1.266 . S
H129 C131 0.959 . S
H130 C131 0.961 . S
C131 C121 1.510 . S
C131 H129 0.959 . S
C131 H130 0.961 . S
C131 H132 0.960 . S
H132 C131 0.960 . S
H133 N113 0.862 . S
O134 Co102 1.920 . S
O134 C107 1.289 . S
C135 O127 1.258 . S
C135 O128 1.266 . S
Co136 O139 1.970 . S
Co136 N153 1.989 . S
Co136 O161 1.967 . S
Co136 O168 1.920 . S
Co137 O140 1.966 . S
Co137 N146 2.022 . S
Co137 N154 1.993 . S
Co137 O162 1.941 . S
C138 O139 1.258 . S
C138 O140 1.263 . S
O139 Co136 1.970 . S
O139 C138 1.258 . S
O140 Co137 1.966 . S
O140 C138 1.263 . S
C141 O142 1.235 . S
C141 O168 1.289 . S
O142 C141 1.235 . S
C143 C145 1.400 . S
C143 N146 1.351 . S
C143 C148 1.501 . S
C144 C145 1.387 . S
C144 N147 1.341 . S
C145 C143 1.400 . S
C145 C144 1.387 . S
N146 Co137 2.022 . S
N146 C143 1.351 . S
N146 N147 1.365 . S
N147 C144 1.341 . S
N147 N146 1.365 . S
N147 H167 0.862 . S
C148 C143 1.501 . S
C148 H149 0.961 . S
C148 H150 0.961 . S
C148 H151 0.960 . S
H149 C148 0.961 . S
H150 C148 0.961 . S
H151 C148 0.960 . S
C152 N153 1.342 . S
C152 C156 1.401 . S
C152 C157 1.499 . S
N153 Co136 1.989 . S
N153 C152 1.342 . S
N153 N154 1.388 . S
N154 Co137 1.993 . S
N154 N153 1.388 . S
N154 C155 1.346 . S
C155 N154 1.346 . S
C155 C156 1.396 . S
C155 C165 1.510 . S
C156 C152 1.401 . S
C156 C155 1.396 . S
C157 C152 1.499 . S
C157 H158 0.959 . S
C157 H159 0.960 . S
C157 H160 0.961 . S
H158 C157 0.959 . S
H159 C157 0.960 . S
H160 C157 0.961 . S
O161 Co136 1.967 . S
O161 C169 1.258 . S
O162 Co137 1.941 . S
O162 C169 1.266 . S
H163 C165 0.959 . S
H164 C165 0.961 . S
C165 C155 1.510 . S
C165 H163 0.959 . S
C165 H164 0.961 . S
C165 H166 0.960 . S
H166 C165 0.960 . S
H167 N147 0.862 . S
O168 Co136 1.920 . S
O168 C141 1.289 . S
C169 O161 1.258 . S
C169 O162 1.266 . S
Co170 O173 1.970 . S
Co170 N187 1.989 . S
Co170 O195 1.967 . S
Co170 O202 1.920 . S
Co171 O174 1.966 . S
Co171 N180 2.022 . S
Co171 N188 1.993 . S
Co171 O196 1.941 . S
C172 O173 1.258 . S
C172 O174 1.263 . S
O173 Co170 1.970 . S
O173 C172 1.258 . S
O174 Co171 1.966 . S
O174 C172 1.263 . S
C175 O176 1.235 . S
C175 O202 1.289 . S
O176 C175 1.235 . S
C177 C179 1.400 . S
C177 N180 1.351 . S
C177 C182 1.501 . S
C178 C179 1.387 . S
C178 N181 1.341 . S
C179 C177 1.400 . S
C179 C178 1.387 . S
N180 Co171 2.022 . S
N180 C177 1.351 . S
N180 N181 1.365 . S
N181 C178 1.341 . S
N181 N180 1.365 . S
N181 H201 0.862 . S
C182 C177 1.501 . S
C182 H183 0.961 . S
C182 H184 0.961 . S
C182 H185 0.960 . S
H183 C182 0.961 . S
H184 C182 0.961 . S
H185 C182 0.960 . S
C186 N187 1.342 . S
C186 C190 1.401 . S
C186 C191 1.499 . S
N187 Co170 1.989 . S
N187 C186 1.342 . S
N187 N188 1.388 . S
N188 Co171 1.993 . S
N188 N187 1.388 . S
N188 C189 1.346 . S
C189 N188 1.346 . S
C189 C190 1.396 . S
C189 C199 1.510 . S
C190 C186 1.401 . S
C190 C189 1.396 . S
C191 C186 1.499 . S
C191 H192 0.959 . S
C191 H193 0.960 . S
C191 H194 0.961 . S
H192 C191 0.959 . S
H193 C191 0.960 . S
H194 C191 0.961 . S
O195 Co170 1.967 . S
O195 C203 1.258 . S
O196 Co171 1.941 . S
O196 C203 1.266 . S
H197 C199 0.959 . S
H198 C199 0.961 . S
C199 C189 1.510 . S
C199 H197 0.959 . S
C199 H198 0.961 . S
C199 H200 0.960 . S
H200 C199 0.960 . S
H201 N181 0.862 . S
O202 Co170 1.920 . S
O202 C175 1.289 . S
C203 O195 1.258 . S
C203 O196 1.266 . S
Co204 O207 1.970 . S
Co204 N221 1.989 . S
Co204 O229 1.967 . S
Co204 O236 1.920 . S
Co205 O208 1.966 . S
Co205 N214 2.022 . S
Co205 N222 1.993 . S
Co205 O230 1.941 . S
C206 O207 1.258 . S
C206 O208 1.263 . S
O207 Co204 1.970 . S
O207 C206 1.258 . S
O208 Co205 1.966 . S
O208 C206 1.263 . S
C209 O210 1.235 . S
C209 O236 1.289 . S
O210 C209 1.235 . S
C211 C213 1.400 . S
C211 N214 1.351 . S
C211 C216 1.501 . S
C212 C213 1.387 . S
C212 N215 1.341 . S
C213 C211 1.400 . S
C213 C212 1.387 . S
N214 Co205 2.022 . S
N214 C211 1.351 . S
N214 N215 1.365 . S
N215 C212 1.341 . S
N215 N214 1.365 . S
N215 H235 0.862 . S
C216 C211 1.501 . S
C216 H217 0.961 . S
C216 H218 0.961 . S
C216 H219 0.960 . S
H217 C216 0.961 . S
H218 C216 0.961 . S
H219 C216 0.960 . S
C220 N221 1.342 . S
C220 C224 1.401 . S
C220 C225 1.499 . S
N221 Co204 1.989 . S
N221 C220 1.342 . S
N221 N222 1.388 . S
N222 Co205 1.993 . S
N222 N221 1.388 . S
N222 C223 1.346 . S
C223 N222 1.346 . S
C223 C224 1.396 . S
C223 C233 1.510 . S
C224 C220 1.401 . S
C224 C223 1.396 . S
C225 C220 1.499 . S
C225 H226 0.959 . S
C225 H227 0.960 . S
C225 H228 0.961 . S
H226 C225 0.959 . S
H227 C225 0.960 . S
H228 C225 0.961 . S
O229 Co204 1.967 . S
O229 C237 1.258 . S
O230 Co205 1.941 . S
O230 C237 1.266 . S
H231 C233 0.959 . S
H232 C233 0.961 . S
C233 C223 1.510 . S
C233 H231 0.959 . S
C233 H232 0.961 . S
C233 H234 0.960 . S
H234 C233 0.960 . S
H235 N215 0.862 . S
O236 Co204 1.920 . S
O236 C209 1.289 . S
C237 O229 1.258 . S
C237 O230 1.266 . S
Co238 O241 1.970 . S
Co238 N255 1.989 . S
Co238 O263 1.967 . S
Co238 O270 1.920 . S
Co239 O242 1.966 . S
Co239 N248 2.022 . S
Co239 N256 1.993 . S
Co239 O264 1.941 . S
C240 O241 1.258 . S
C240 O242 1.263 . S
O241 Co238 1.970 . S
O241 C240 1.258 . S
O242 Co239 1.966 . S
O242 C240 1.263 . S
C243 O244 1.235 . S
C243 O270 1.289 . S
O244 C243 1.235 . S
C245 C247 1.400 . S
C245 N248 1.351 . S
C245 C250 1.501 . S
C246 C247 1.387 . S
C246 N249 1.341 . S
C247 C245 1.400 . S
C247 C246 1.387 . S
N248 Co239 2.022 . S
N248 C245 1.351 . S
N248 N249 1.365 . S
N249 C246 1.341 . S
N249 N248 1.365 . S
N249 H269 0.862 . S
C250 C245 1.501 . S
C250 H251 0.961 . S
C250 H252 0.961 . S
C250 H253 0.960 . S
H251 C250 0.961 . S
H252 C250 0.961 . S
H253 C250 0.960 . S
C254 N255 1.342 . S
C254 C258 1.401 . S
C254 C259 1.499 . S
N255 Co238 1.989 . S
N255 C254 1.342 . S
N255 N256 1.388 . S
N256 Co239 1.993 . S
N256 N255 1.388 . S
N256 C257 1.346 . S
C257 N256 1.346 . S
C257 C258 1.396 . S
C257 C267 1.510 . S
C258 C254 1.401 . S
C258 C257 1.396 . S
C259 C254 1.499 . S
C259 H260 0.959 . S
C259 H261 0.960 . S
C259 H262 0.961 . S
H260 C259 0.959 . S
H261 C259 0.960 . S
H262 C259 0.961 . S
O263 Co238 1.967 . S
O263 C271 1.258 . S
O264 Co239 1.941 . S
O264 C271 1.266 . S
H265 C267 0.959 . S
H266 C267 0.961 . S
C267 C257 1.510 . S
C267 H265 0.959 . S
C267 H266 0.961 . S
C267 H268 0.960 . S
H268 C267 0.960 . S
H269 N249 0.862 . S
O270 Co238 1.920 . S
O270 C243 1.289 . S
C271 O263 1.258 . S
C271 O264 1.266 . S
Co272 O275 1.970 . S
Co272 N289 1.989 . S
Co272 O297 1.967 . S
Co272 O304 1.920 . S
Co273 O276 1.966 . S
Co273 N282 2.022 . S
Co273 N290 1.993 . S
Co273 O298 1.941 . S
C274 O275 1.258 . S
C274 O276 1.263 . S
O275 Co272 1.970 . S
O275 C274 1.258 . S
O276 Co273 1.966 . S
O276 C274 1.263 . S
C277 O278 1.235 . S
C277 O304 1.289 . S
O278 C277 1.235 . S
C279 C281 1.400 . S
C279 N282 1.351 . S
C279 C284 1.501 . S
C280 C281 1.387 . S
C280 N283 1.341 . S
C281 C279 1.400 . S
C281 C280 1.387 . S
N282 Co273 2.022 . S
N282 C279 1.351 . S
N282 N283 1.365 . S
N283 C280 1.341 . S
N283 N282 1.365 . S
N283 H303 0.862 . S
C284 C279 1.501 . S
C284 H285 0.961 . S
C284 H286 0.961 . S
C284 H287 0.960 . S
H285 C284 0.961 . S
H286 C284 0.961 . S
H287 C284 0.960 . S
C288 N289 1.342 . S
C288 C292 1.401 . S
C288 C293 1.499 . S
N289 Co272 1.989 . S
N289 C288 1.342 . S
N289 N290 1.388 . S
N290 Co273 1.993 . S
N290 N289 1.388 . S
N290 C291 1.346 . S
C291 N290 1.346 . S
C291 C292 1.396 . S
C291 C301 1.510 . S
C292 C288 1.401 . S
C292 C291 1.396 . S
C293 C288 1.499 . S
C293 H294 0.959 . S
C293 H295 0.960 . S
C293 H296 0.961 . S
H294 C293 0.959 . S
H295 C293 0.960 . S
H296 C293 0.961 . S
O297 Co272 1.967 . S
O297 C305 1.258 . S
O298 Co273 1.941 . S
O298 C305 1.266 . S
H299 C301 0.959 . S
H300 C301 0.961 . S
C301 C291 1.510 . S
C301 H299 0.959 . S
C301 H300 0.961 . S
C301 H302 0.960 . S
H302 C301 0.960 . S
H303 N283 0.862 . S
O304 Co272 1.920 . S
O304 C277 1.289 . S
C305 O297 1.258 . S
C305 O298 1.266 . S
Co306 O309 1.970 . S
Co306 N323 1.989 . S
Co306 O331 1.967 . S
Co306 O338 1.920 . S
Co307 O310 1.966 . S
Co307 N316 2.022 . S
Co307 N324 1.993 . S
Co307 O332 1.941 . S
C308 O309 1.258 . S
C308 O310 1.263 . S
O309 Co306 1.970 . S
O309 C308 1.258 . S
O310 Co307 1.966 . S
O310 C308 1.263 . S
C311 O312 1.235 . S
C311 O338 1.289 . S
O312 C311 1.235 . S
C313 C315 1.400 . S
C313 N316 1.351 . S
C313 C318 1.501 . S
C314 C315 1.387 . S
C314 N317 1.341 . S
C315 C313 1.400 . S
C315 C314 1.387 . S
N316 Co307 2.022 . S
N316 C313 1.351 . S
N316 N317 1.365 . S
N317 C314 1.341 . S
N317 N316 1.365 . S
N317 H337 0.862 . S
C318 C313 1.501 . S
C318 H319 0.961 . S
C318 H320 0.961 . S
C318 H321 0.960 . S
H319 C318 0.961 . S
H320 C318 0.961 . S
H321 C318 0.960 . S
C322 N323 1.342 . S
C322 C326 1.401 . S
C322 C327 1.499 . S
N323 Co306 1.989 . S
N323 C322 1.342 . S
N323 N324 1.388 . S
N324 Co307 1.993 . S
N324 N323 1.388 . S
N324 C325 1.346 . S
C325 N324 1.346 . S
C325 C326 1.396 . S
C325 C335 1.510 . S
C326 C322 1.401 . S
C326 C325 1.396 . S
C327 C322 1.499 . S
C327 H328 0.959 . S
C327 H329 0.960 . S
C327 H330 0.961 . S
H328 C327 0.959 . S
H329 C327 0.960 . S
H330 C327 0.961 . S
O331 Co306 1.967 . S
O331 C339 1.258 . S
O332 Co307 1.941 . S
O332 C339 1.266 . S
H333 C335 0.959 . S
H334 C335 0.961 . S
C335 C325 1.510 . S
C335 H333 0.959 . S
C335 H334 0.961 . S
C335 H336 0.960 . S
H336 C335 0.960 . S
H337 N317 0.862 . S
O338 Co306 1.920 . S
O338 C311 1.289 . S
C339 O331 1.258 . S
C339 O332 1.266 . S
Co340 O343 1.970 . S
Co340 N357 1.989 . S
Co340 O365 1.967 . S
Co340 O372 1.920 . S
Co341 O344 1.966 . S
Co341 N350 2.022 . S
Co341 N358 1.993 . S
Co341 O366 1.941 . S
C342 O343 1.258 . S
C342 O344 1.263 . S
O343 Co340 1.970 . S
O343 C342 1.258 . S
O344 Co341 1.966 . S
O344 C342 1.263 . S
C345 O346 1.235 . S
C345 O372 1.289 . S
O346 C345 1.235 . S
C347 C349 1.400 . S
C347 N350 1.351 . S
C347 C352 1.501 . S
C348 C349 1.387 . S
C348 N351 1.341 . S
C349 C347 1.400 . S
C349 C348 1.387 . S
N350 Co341 2.022 . S
N350 C347 1.351 . S
N350 N351 1.365 . S
N351 C348 1.341 . S
N351 N350 1.365 . S
N351 H371 0.862 . S
C352 C347 1.501 . S
C352 H353 0.961 . S
C352 H354 0.961 . S
C352 H355 0.960 . S
H353 C352 0.961 . S
H354 C352 0.961 . S
H355 C352 0.960 . S
C356 N357 1.342 . S
C356 C360 1.401 . S
C356 C361 1.499 . S
N357 Co340 1.989 . S
N357 C356 1.342 . S
N357 N358 1.388 . S
N358 Co341 1.993 . S
N358 N357 1.388 . S
N358 C359 1.346 . S
C359 N358 1.346 . S
C359 C360 1.396 . S
C359 C369 1.510 . S
C360 C356 1.401 . S
C360 C359 1.396 . S
C361 C356 1.499 . S
C361 H362 0.959 . S
C361 H363 0.960 . S
C361 H364 0.961 . S
H362 C361 0.959 . S
H363 C361 0.960 . S
H364 C361 0.961 . S
O365 Co340 1.967 . S
O365 C373 1.258 . S
O366 Co341 1.941 . S
O366 C373 1.266 . S
H367 C369 0.959 . S
H368 C369 0.961 . S
C369 C359 1.510 . S
C369 H367 0.959 . S
C369 H368 0.961 . S
C369 H370 0.960 . S
H370 C369 0.960 . S
H371 N351 0.862 . S
O372 Co340 1.920 . S
O372 C345 1.289 . S
C373 O365 1.258 . S
C373 O366 1.266 . S
Co374 O377 1.970 . S
Co374 N391 1.989 . S
Co374 O399 1.967 . S
Co374 O406 1.920 . S
Co375 O378 1.966 . S
Co375 N384 2.022 . S
Co375 N392 1.993 . S
Co375 O400 1.941 . S
C376 O377 1.258 . S
C376 O378 1.263 . S
O377 Co374 1.970 . S
O377 C376 1.258 . S
O378 Co375 1.966 . S
O378 C376 1.263 . S
C379 O380 1.235 . S
C379 O406 1.289 . S
O380 C379 1.235 . S
C381 C383 1.400 . S
C381 N384 1.351 . S
C381 C386 1.501 . S
C382 C383 1.387 . S
C382 N385 1.341 . S
C383 C381 1.400 . S
C383 C382 1.387 . S
N384 Co375 2.022 . S
N384 C381 1.351 . S
N384 N385 1.365 . S
N385 C382 1.341 . S
N385 N384 1.365 . S
N385 H405 0.862 . S
C386 C381 1.501 . S
C386 H387 0.961 . S
C386 H388 0.961 . S
C386 H389 0.960 . S
H387 C386 0.961 . S
H388 C386 0.961 . S
H389 C386 0.960 . S
C390 N391 1.342 . S
C390 C394 1.401 . S
C390 C395 1.499 . S
N391 Co374 1.989 . S
N391 C390 1.342 . S
N391 N392 1.388 . S
N392 Co375 1.993 . S
N392 N391 1.388 . S
N392 C393 1.346 . S
C393 N392 1.346 . S
C393 C394 1.396 . S
C393 C403 1.510 . S
C394 C390 1.401 . S
C394 C393 1.396 . S
C395 C390 1.499 . S
C395 H396 0.959 . S
C395 H397 0.960 . S
C395 H398 0.961 . S
H396 C395 0.959 . S
H397 C395 0.960 . S
H398 C395 0.961 . S
O399 Co374 1.967 . S
O399 C407 1.258 . S
O400 Co375 1.941 . S
O400 C407 1.266 . S
H401 C403 0.959 . S
H402 C403 0.961 . S
C403 C393 1.510 . S
C403 H401 0.959 . S
C403 H402 0.961 . S
C403 H404 0.960 . S
H404 C403 0.960 . S
H405 N385 0.862 . S
O406 Co374 1.920 . S
O406 C379 1.289 . S
C407 O399 1.258 . S
C407 O400 1.266 . S
Co408 O411 1.970 . S
Co408 N425 1.989 . S
Co408 O433 1.967 . S
Co408 O440 1.920 . S
Co409 O412 1.966 . S
Co409 N418 2.022 . S
Co409 N426 1.993 . S
Co409 O434 1.941 . S
C410 O411 1.258 . S
C410 O412 1.263 . S
O411 Co408 1.970 . S
O411 C410 1.258 . S
O412 Co409 1.966 . S
O412 C410 1.263 . S
C413 O414 1.235 . S
C413 O440 1.289 . S
O414 C413 1.235 . S
C415 C417 1.400 . S
C415 N418 1.351 . S
C415 C420 1.501 . S
C416 C417 1.387 . S
C416 N419 1.341 . S
C417 C415 1.400 . S
C417 C416 1.387 . S
N418 Co409 2.022 . S
N418 C415 1.351 . S
N418 N419 1.365 . S
N419 C416 1.341 . S
N419 N418 1.365 . S
N419 H439 0.862 . S
C420 C415 1.501 . S
C420 H421 0.961 . S
C420 H422 0.961 . S
C420 H423 0.960 . S
H421 C420 0.961 . S
H422 C420 0.961 . S
H423 C420 0.960 . S
C424 N425 1.342 . S
C424 C428 1.401 . S
C424 C429 1.499 . S
N425 Co408 1.989 . S
N425 C424 1.342 . S
N425 N426 1.388 . S
N426 Co409 1.993 . S
N426 N425 1.388 . S
N426 C427 1.346 . S
C427 N426 1.346 . S
C427 C428 1.396 . S
C427 C437 1.510 . S
C428 C424 1.401 . S
C428 C427 1.396 . S
C429 C424 1.499 . S
C429 H430 0.959 . S
C429 H431 0.960 . S
C429 H432 0.961 . S
H430 C429 0.959 . S
H431 C429 0.960 . S
H432 C429 0.961 . S
O433 Co408 1.967 . S
O433 C441 1.258 . S
O434 Co409 1.941 . S
O434 C441 1.266 . S
H435 C437 0.959 . S
H436 C437 0.961 . S
C437 C427 1.510 . S
C437 H435 0.959 . S
C437 H436 0.961 . S
C437 H438 0.960 . S
H438 C437 0.960 . S
H439 N419 0.862 . S
O440 Co408 1.920 . S
O440 C413 1.289 . S
C441 O433 1.258 . S
C441 O434 1.266 . S
Co442 O445 1.970 . S
Co442 N459 1.989 . S
Co442 O467 1.967 . S
Co442 O474 1.920 . S
Co443 O446 1.966 . S
Co443 N452 2.022 . S
Co443 N460 1.993 . S
Co443 O468 1.941 . S
C444 O445 1.258 . S
C444 O446 1.263 . S
O445 Co442 1.970 . S
O445 C444 1.258 . S
O446 Co443 1.966 . S
O446 C444 1.263 . S
C447 O448 1.235 . S
C447 O474 1.289 . S
O448 C447 1.235 . S
C449 C451 1.400 . S
C449 N452 1.351 . S
C449 C454 1.501 . S
C450 C451 1.387 . S
C450 N453 1.341 . S
C451 C449 1.400 . S
C451 C450 1.387 . S
N452 Co443 2.022 . S
N452 C449 1.351 . S
N452 N453 1.365 . S
N453 C450 1.341 . S
N453 N452 1.365 . S
N453 H473 0.862 . S
C454 C449 1.501 . S
C454 H455 0.961 . S
C454 H456 0.961 . S
C454 H457 0.960 . S
H455 C454 0.961 . S
H456 C454 0.961 . S
H457 C454 0.960 . S
C458 N459 1.342 . S
C458 C462 1.401 . S
C458 C463 1.499 . S
N459 Co442 1.989 . S
N459 C458 1.342 . S
N459 N460 1.388 . S
N460 Co443 1.993 . S
N460 N459 1.388 . S
N460 C461 1.346 . S
C461 N460 1.346 . S
C461 C462 1.396 . S
C461 C471 1.510 . S
C462 C458 1.401 . S
C462 C461 1.396 . S
C463 C458 1.499 . S
C463 H464 0.959 . S
C463 H465 0.960 . S
C463 H466 0.961 . S
H464 C463 0.959 . S
H465 C463 0.960 . S
H466 C463 0.961 . S
O467 Co442 1.967 . S
O467 C475 1.258 . S
O468 Co443 1.941 . S
O468 C475 1.266 . S
H469 C471 0.959 . S
H470 C471 0.961 . S
C471 C461 1.510 . S
C471 H469 0.959 . S
C471 H470 0.961 . S
C471 H472 0.960 . S
H472 C471 0.960 . S
H473 N453 0.862 . S
O474 Co442 1.920 . S
O474 C447 1.289 . S
C475 O467 1.258 . S
C475 O468 1.266 . S
Co476 O479 1.970 . S
Co476 N493 1.989 . S
Co476 O501 1.967 . S
Co476 O508 1.920 . S
Co477 O480 1.966 . S
Co477 N486 2.022 . S
Co477 N494 1.993 . S
Co477 O502 1.941 . S
C478 O479 1.258 . S
C478 O480 1.263 . S
O479 Co476 1.970 . S
O479 C478 1.258 . S
O480 Co477 1.966 . S
O480 C478 1.263 . S
C481 O482 1.235 . S
C481 O508 1.289 . S
O482 C481 1.235 . S
C483 C485 1.400 . S
C483 N486 1.351 . S
C483 C488 1.501 . S
C484 C485 1.387 . S
C484 N487 1.341 . S
C485 C483 1.400 . S
C485 C484 1.387 . S
N486 Co477 2.022 . S
N486 C483 1.351 . S
N486 N487 1.365 . S
N487 C484 1.341 . S
N487 N486 1.365 . S
N487 H507 0.862 . S
C488 C483 1.501 . S
C488 H489 0.961 . S
C488 H490 0.961 . S
C488 H491 0.960 . S
H489 C488 0.961 . S
H490 C488 0.961 . S
H491 C488 0.960 . S
C492 N493 1.342 . S
C492 C496 1.401 . S
C492 C497 1.499 . S
N493 Co476 1.989 . S
N493 C492 1.342 . S
N493 N494 1.388 . S
N494 Co477 1.993 . S
N494 N493 1.388 . S
N494 C495 1.346 . S
C495 N494 1.346 . S
C495 C496 1.396 . S
C495 C505 1.510 . S
C496 C492 1.401 . S
C496 C495 1.396 . S
C497 C492 1.499 . S
C497 H498 0.959 . S
C497 H499 0.960 . S
C497 H500 0.961 . S
H498 C497 0.959 . S
H499 C497 0.960 . S
H500 C497 0.961 . S
O501 Co476 1.967 . S
O501 C509 1.258 . S
O502 Co477 1.941 . S
O502 C509 1.266 . S
H503 C505 0.959 . S
H504 C505 0.961 . S
C505 C495 1.510 . S
C505 H503 0.959 . S
C505 H504 0.961 . S
C505 H506 0.960 . S
H506 C505 0.960 . S
H507 N487 0.862 . S
O508 Co476 1.920 . S
O508 C481 1.289 . S
C509 O501 1.258 . S
C509 O502 1.266 . S
Co510 O513 1.970 . S
Co510 N527 1.989 . S
Co510 O535 1.967 . S
Co510 O542 1.920 . S
Co511 O514 1.966 . S
Co511 N520 2.022 . S
Co511 N528 1.993 . S
Co511 O536 1.941 . S
C512 O513 1.258 . S
C512 O514 1.263 . S
O513 Co510 1.970 . S
O513 C512 1.258 . S
O514 Co511 1.966 . S
O514 C512 1.263 . S
C515 O516 1.235 . S
C515 O542 1.289 . S
O516 C515 1.235 . S
C517 C519 1.400 . S
C517 N520 1.351 . S
C517 C522 1.501 . S
C518 C519 1.387 . S
C518 N521 1.341 . S
C519 C517 1.400 . S
C519 C518 1.387 . S
N520 Co511 2.022 . S
N520 C517 1.351 . S
N520 N521 1.365 . S
N521 C518 1.341 . S
N521 N520 1.365 . S
N521 H541 0.862 . S
C522 C517 1.501 . S
C522 H523 0.961 . S
C522 H524 0.961 . S
C522 H525 0.960 . S
H523 C522 0.961 . S
H524 C522 0.961 . S
H525 C522 0.960 . S
C526 N527 1.342 . S
C526 C530 1.401 . S
C526 C531 1.499 . S
N527 Co510 1.989 . S
N527 C526 1.342 . S
N527 N528 1.388 . S
N528 Co511 1.993 . S
N528 N527 1.388 . S
N528 C529 1.346 . S
C529 N528 1.346 . S
C529 C530 1.396 . S
C529 C539 1.510 . S
C530 C526 1.401 . S
C530 C529 1.396 . S
C531 C526 1.499 . S
C531 H532 0.959 . S
C531 H533 0.960 . S
C531 H534 0.961 . S
H532 C531 0.959 . S
H533 C531 0.960 . S
H534 C531 0.961 . S
O535 Co510 1.967 . S
O535 C543 1.258 . S
O536 Co511 1.941 . S
O536 C543 1.266 . S
H537 C539 0.959 . S
H538 C539 0.961 . S
C539 C529 1.510 . S
C539 H537 0.959 . S
C539 H538 0.961 . S
C539 H540 0.960 . S
H540 C539 0.960 . S
H541 N521 0.862 . S
O542 Co510 1.920 . S
O542 C515 1.289 . S
C543 O535 1.258 . S
C543 O536 1.266 . S
Co544 O547 1.970 . S
Co544 N561 1.989 . S
Co544 O569 1.967 . S
Co544 O576 1.920 . S
Co545 O548 1.966 . S
Co545 N554 2.022 . S
Co545 N562 1.993 . S
Co545 O570 1.941 . S
C546 O547 1.258 . S
C546 O548 1.263 . S
O547 Co544 1.970 . S
O547 C546 1.258 . S
O548 Co545 1.966 . S
O548 C546 1.263 . S
C549 O550 1.235 . S
C549 O576 1.289 . S
O550 C549 1.235 . S
C551 C553 1.400 . S
C551 N554 1.351 . S
C551 C556 1.501 . S
C552 C553 1.387 . S
C552 N555 1.341 . S
C553 C551 1.400 . S
C553 C552 1.387 . S
N554 Co545 2.022 . S
N554 C551 1.351 . S
N554 N555 1.365 . S
N555 C552 1.341 . S
N555 N554 1.365 . S
N555 H575 0.862 . S
C556 C551 1.501 . S
C556 H557 0.961 . S
C556 H558 0.961 . S
C556 H559 0.960 . S
H557 C556 0.961 . S
H558 C556 0.961 . S
H559 C556 0.960 . S
C560 N561 1.342 . S
C560 C564 1.401 . S
C560 C565 1.499 . S
N561 Co544 1.989 . S
N561 C560 1.342 . S
N561 N562 1.388 . S
N562 Co545 1.993 . S
N562 N561 1.388 . S
N562 C563 1.346 . S
C563 N562 1.346 . S
C563 C564 1.396 . S
C563 C573 1.510 . S
C564 C560 1.401 . S
C564 C563 1.396 . S
C565 C560 1.499 . S
C565 H566 0.959 . S
C565 H567 0.960 . S
C565 H568 0.961 . S
H566 C565 0.959 . S
H567 C565 0.960 . S
H568 C565 0.961 . S
O569 Co544 1.967 . S
O569 C577 1.258 . S
O570 Co545 1.941 . S
O570 C577 1.266 . S
H571 C573 0.959 . S
H572 C573 0.961 . S
C573 C563 1.510 . S
C573 H571 0.959 . S
C573 H572 0.961 . S
C573 H574 0.960 . S
H574 C573 0.960 . S
H575 N555 0.862 . S
O576 Co544 1.920 . S
O576 C549 1.289 . S
C577 O569 1.258 . S
C577 O570 1.266 . S
Co578 O581 1.970 . S
Co578 N595 1.989 . S
Co578 O603 1.967 . S
Co578 O610 1.920 . S
Co579 O582 1.966 . S
Co579 N588 2.022 . S
Co579 N596 1.993 . S
Co579 O604 1.941 . S
C580 O581 1.258 . S
C580 O582 1.263 . S
O581 Co578 1.970 . S
O581 C580 1.258 . S
O582 Co579 1.966 . S
O582 C580 1.263 . S
C583 O584 1.235 . S
C583 O610 1.289 . S
O584 C583 1.235 . S
C585 C587 1.400 . S
C585 N588 1.351 . S
C585 C590 1.501 . S
C586 C587 1.387 . S
C586 N589 1.341 . S
C587 C585 1.400 . S
C587 C586 1.387 . S
N588 Co579 2.022 . S
N588 C585 1.351 . S
N588 N589 1.365 . S
N589 C586 1.341 . S
N589 N588 1.365 . S
N589 H609 0.862 . S
C590 C585 1.501 . S
C590 H591 0.961 . S
C590 H592 0.961 . S
C590 H593 0.960 . S
H591 C590 0.961 . S
H592 C590 0.961 . S
H593 C590 0.960 . S
C594 N595 1.342 . S
C594 C598 1.401 . S
C594 C599 1.499 . S
N595 Co578 1.989 . S
N595 C594 1.342 . S
N595 N596 1.388 . S
N596 Co579 1.993 . S
N596 N595 1.388 . S
N596 C597 1.346 . S
C597 N596 1.346 . S
C597 C598 1.396 . S
C597 C607 1.510 . S
C598 C594 1.401 . S
C598 C597 1.396 . S
C599 C594 1.499 . S
C599 H600 0.959 . S
C599 H601 0.960 . S
C599 H602 0.961 . S
H600 C599 0.959 . S
H601 C599 0.960 . S
H602 C599 0.961 . S
O603 Co578 1.967 . S
O603 C611 1.258 . S
O604 Co579 1.941 . S
O604 C611 1.266 . S
H605 C607 0.959 . S
H606 C607 0.961 . S
C607 C597 1.510 . S
C607 H605 0.959 . S
C607 H606 0.961 . S
C607 H608 0.960 . S
H608 C607 0.960 . S
H609 N589 0.862 . S
O610 Co578 1.920 . S
O610 C583 1.289 . S
C611 O603 1.258 . S
C611 O604 1.266 . S
Co612 O615 1.970 . S
Co612 N629 1.989 . S
Co612 O637 1.967 . S
Co612 O644 1.920 . S
Co613 O616 1.966 . S
Co613 N622 2.022 . S
Co613 N630 1.993 . S
Co613 O638 1.941 . S
C614 O615 1.258 . S
C614 O616 1.263 . S
O615 Co612 1.970 . S
O615 C614 1.258 . S
O616 Co613 1.966 . S
O616 C614 1.263 . S
C617 O618 1.235 . S
C617 O644 1.289 . S
O618 C617 1.235 . S
C619 C621 1.400 . S
C619 N622 1.351 . S
C619 C624 1.501 . S
C620 C621 1.387 . S
C620 N623 1.341 . S
C621 C619 1.400 . S
C621 C620 1.387 . S
N622 Co613 2.022 . S
N622 C619 1.351 . S
N622 N623 1.365 . S
N623 C620 1.341 . S
N623 N622 1.365 . S
N623 H643 0.862 . S
C624 C619 1.501 . S
C624 H625 0.961 . S
C624 H626 0.961 . S
C624 H627 0.960 . S
H625 C624 0.961 . S
H626 C624 0.961 . S
H627 C624 0.960 . S
C628 N629 1.342 . S
C628 C632 1.401 . S
C628 C633 1.499 . S
N629 Co612 1.989 . S
N629 C628 1.342 . S
N629 N630 1.388 . S
N630 Co613 1.993 . S
N630 N629 1.388 . S
N630 C631 1.346 . S
C631 N630 1.346 . S
C631 C632 1.396 . S
C631 C641 1.510 . S
C632 C628 1.401 . S
C632 C631 1.396 . S
C633 C628 1.499 . S
C633 H634 0.959 . S
C633 H635 0.960 . S
C633 H636 0.961 . S
H634 C633 0.959 . S
H635 C633 0.960 . S
H636 C633 0.961 . S
O637 Co612 1.967 . S
O637 C645 1.258 . S
O638 Co613 1.941 . S
O638 C645 1.266 . S
H639 C641 0.959 . S
H640 C641 0.961 . S
C641 C631 1.510 . S
C641 H639 0.959 . S
C641 H640 0.961 . S
C641 H642 0.960 . S
H642 C641 0.960 . S
H643 N623 0.862 . S
O644 Co612 1.920 . S
O644 C617 1.289 . S
C645 O637 1.258 . S
C645 O638 1.266 . S
Co646 O649 1.970 . S
Co646 N663 1.989 . S
Co646 O671 1.967 . S
Co646 O678 1.920 . S
Co647 O650 1.966 . S
Co647 N656 2.022 . S
Co647 N664 1.993 . S
Co647 O672 1.941 . S
C648 O649 1.258 . S
C648 O650 1.263 . S
O649 Co646 1.970 . S
O649 C648 1.258 . S
O650 Co647 1.966 . S
O650 C648 1.263 . S
C651 O652 1.235 . S
C651 O678 1.289 . S
O652 C651 1.235 . S
C653 C655 1.400 . S
C653 N656 1.351 . S
C653 C658 1.501 . S
C654 C655 1.387 . S
C654 N657 1.341 . S
C655 C653 1.400 . S
C655 C654 1.387 . S
N656 Co647 2.022 . S
N656 C653 1.351 . S
N656 N657 1.365 . S
N657 C654 1.341 . S
N657 N656 1.365 . S
N657 H677 0.862 . S
C658 C653 1.501 . S
C658 H659 0.961 . S
C658 H660 0.961 . S
C658 H661 0.960 . S
H659 C658 0.961 . S
H660 C658 0.961 . S
H661 C658 0.960 . S
C662 N663 1.342 . S
C662 C666 1.401 . S
C662 C667 1.499 . S
N663 Co646 1.989 . S
N663 C662 1.342 . S
N663 N664 1.388 . S
N664 Co647 1.993 . S
N664 N663 1.388 . S
N664 C665 1.346 . S
C665 N664 1.346 . S
C665 C666 1.396 . S
C665 C675 1.510 . S
C666 C662 1.401 . S
C666 C665 1.396 . S
C667 C662 1.499 . S
C667 H668 0.959 . S
C667 H669 0.960 . S
C667 H670 0.961 . S
H668 C667 0.959 . S
H669 C667 0.960 . S
H670 C667 0.961 . S
O671 Co646 1.967 . S
O671 C679 1.258 . S
O672 Co647 1.941 . S
O672 C679 1.266 . S
H673 C675 0.959 . S
H674 C675 0.961 . S
C675 C665 1.510 . S
C675 H673 0.959 . S
C675 H674 0.961 . S
C675 H676 0.960 . S
H676 C675 0.960 . S
H677 N657 0.862 . S
O678 Co646 1.920 . S
O678 C651 1.289 . S
C679 O671 1.258 . S
C679 O672 1.266 . S
Co680 O683 1.970 . S
Co680 N697 1.989 . S
Co680 O705 1.967 . S
Co680 O712 1.920 . S
Co681 O684 1.966 . S
Co681 N690 2.022 . S
Co681 N698 1.993 . S
Co681 O706 1.941 . S
C682 O683 1.258 . S
C682 O684 1.263 . S
O683 Co680 1.970 . S
O683 C682 1.258 . S
O684 Co681 1.966 . S
O684 C682 1.263 . S
C685 O686 1.235 . S
C685 O712 1.289 . S
O686 C685 1.235 . S
C687 C689 1.400 . S
C687 N690 1.351 . S
C687 C692 1.501 . S
C688 C689 1.387 . S
C688 N691 1.341 . S
C689 C687 1.400 . S
C689 C688 1.387 . S
N690 Co681 2.022 . S
N690 C687 1.351 . S
N690 N691 1.365 . S
N691 C688 1.341 . S
N691 N690 1.365 . S
N691 H711 0.862 . S
C692 C687 1.501 . S
C692 H693 0.961 . S
C692 H694 0.961 . S
C692 H695 0.960 . S
H693 C692 0.961 . S
H694 C692 0.961 . S
H695 C692 0.960 . S
C696 N697 1.342 . S
C696 C700 1.401 . S
C696 C701 1.499 . S
N697 Co680 1.989 . S
N697 C696 1.342 . S
N697 N698 1.388 . S
N698 Co681 1.993 . S
N698 N697 1.388 . S
N698 C699 1.346 . S
C699 N698 1.346 . S
C699 C700 1.396 . S
C699 C709 1.510 . S
C700 C696 1.401 . S
C700 C699 1.396 . S
C701 C696 1.499 . S
C701 H702 0.959 . S
C701 H703 0.960 . S
C701 H704 0.961 . S
H702 C701 0.959 . S
H703 C701 0.960 . S
H704 C701 0.961 . S
O705 Co680 1.967 . S
O705 C713 1.258 . S
O706 Co681 1.941 . S
O706 C713 1.266 . S
H707 C709 0.959 . S
H708 C709 0.961 . S
C709 C699 1.510 . S
C709 H707 0.959 . S
C709 H708 0.961 . S
C709 H710 0.960 . S
H710 C709 0.960 . S
H711 N691 0.862 . S
O712 Co680 1.920 . S
O712 C685 1.289 . S
C713 O705 1.258 . S
C713 O706 1.266 . S
Co714 O717 1.970 . S
Co714 N731 1.989 . S
Co714 O739 1.967 . S
Co714 O746 1.920 . S
Co715 O718 1.966 . S
Co715 N724 2.022 . S
Co715 N732 1.993 . S
Co715 O740 1.941 . S
C716 O717 1.258 . S
C716 O718 1.263 . S
O717 Co714 1.970 . S
O717 C716 1.258 . S
O718 Co715 1.966 . S
O718 C716 1.263 . S
C719 O720 1.235 . S
C719 O746 1.289 . S
O720 C719 1.235 . S
C721 C723 1.400 . S
C721 N724 1.351 . S
C721 C726 1.501 . S
C722 C723 1.387 . S
C722 N725 1.341 . S
C723 C721 1.400 . S
C723 C722 1.387 . S
N724 Co715 2.022 . S
N724 C721 1.351 . S
N724 N725 1.365 . S
N725 C722 1.341 . S
N725 N724 1.365 . S
N725 H745 0.862 . S
C726 C721 1.501 . S
C726 H727 0.961 . S
C726 H728 0.961 . S
C726 H729 0.960 . S
H727 C726 0.961 . S
H728 C726 0.961 . S
H729 C726 0.960 . S
C730 N731 1.342 . S
C730 C734 1.401 1_554 S
C730 C735 1.499 1_554 S
N731 Co714 1.989 . S
N731 C730 1.342 . S
N731 N732 1.388 . S
N732 Co715 1.993 . S
N732 N731 1.388 . S
N732 C733 1.346 . S
C733 N732 1.346 . S
C733 C734 1.396 1_554 S
C733 C743 1.510 . S
C734 C730 1.401 1_556 S
C734 C733 1.396 1_556 S
C735 C730 1.499 1_556 S
C735 H736 0.959 1_556 S
C735 H737 0.960 . S
C735 H738 0.961 . S
H736 C735 0.959 1_554 S
H737 C735 0.960 . S
H738 C735 0.961 . S
O739 Co714 1.967 . S
O739 C747 1.258 . S
O740 Co715 1.941 . S
O740 C747 1.266 . S
H741 C743 0.959 . S
H742 C743 0.961 1_556 S
C743 C733 1.510 . S
C743 H741 0.959 . S
C743 H742 0.961 1_554 S
C743 H744 0.960 . S
H744 C743 0.960 . S
H745 N725 0.862 . S
O746 Co714 1.920 . S
O746 C719 1.289 . S
C747 O739 1.258 . S
C747 O740 1.266 . S
Co748 O751 1.970 . S
Co748 N765 1.989 . S
Co748 O773 1.967 . S
Co748 O780 1.920 . S
Co749 O752 1.966 . S
Co749 N758 2.022 . S
Co749 N766 1.993 . S
Co749 O774 1.941 . S
C750 O751 1.258 . S
C750 O752 1.263 . S
O751 Co748 1.970 . S
O751 C750 1.258 . S
O752 Co749 1.966 . S
O752 C750 1.263 . S
C753 O754 1.235 . S
C753 O780 1.289 . S
O754 C753 1.235 . S
C755 C757 1.400 . S
C755 N758 1.351 . S
C755 C760 1.501 . S
C756 C757 1.387 . S
C756 N759 1.341 . S
C757 C755 1.400 . S
C757 C756 1.387 . S
N758 Co749 2.022 . S
N758 C755 1.351 . S
N758 N759 1.365 . S
N759 C756 1.341 . S
N759 N758 1.365 . S
N759 H779 0.862 . S
C760 C755 1.501 . S
C760 H761 0.961 . S
C760 H762 0.961 . S
C760 H763 0.960 . S
H761 C760 0.961 . S
H762 C760 0.961 . S
H763 C760 0.960 . S
C764 N765 1.342 . S
C764 C768 1.401 1_554 S
C764 C769 1.499 1_554 S
N765 Co748 1.989 . S
N765 C764 1.342 . S
N765 N766 1.388 . S
N766 Co749 1.993 . S
N766 N765 1.388 . S
N766 C767 1.346 . S
C767 N766 1.346 . S
C767 C768 1.396 1_554 S
C767 C777 1.510 . S
C768 C764 1.401 1_556 S
C768 C767 1.396 1_556 S
C769 C764 1.499 1_556 S
C769 H770 0.959 1_556 S
C769 H771 0.960 . S
C769 H772 0.961 . S
H770 C769 0.959 1_554 S
H771 C769 0.960 . S
H772 C769 0.961 . S
O773 Co748 1.967 . S
O773 C781 1.258 . S
O774 Co749 1.941 . S
O774 C781 1.266 . S
H775 C777 0.959 . S
H776 C777 0.961 1_556 S
C777 C767 1.510 . S
C777 H775 0.959 . S
C777 H776 0.961 1_554 S
C777 H778 0.960 . S
H778 C777 0.960 . S
H779 N759 0.862 . S
O780 Co748 1.920 . S
O780 C753 1.289 . S
C781 O773 1.258 . S
C781 O774 1.266 . S
Co782 O785 1.970 . S
Co782 N799 1.989 . S
Co782 O807 1.967 . S
Co782 O814 1.920 . S
Co783 O786 1.966 . S
Co783 N792 2.022 . S
Co783 N800 1.993 . S
Co783 O808 1.941 . S
C784 O785 1.258 . S
C784 O786 1.263 . S
O785 Co782 1.970 . S
O785 C784 1.258 . S
O786 Co783 1.966 . S
O786 C784 1.263 . S
C787 O788 1.235 . S
C787 O814 1.289 . S
O788 C787 1.235 . S
C789 C791 1.400 . S
C789 N792 1.351 . S
C789 C794 1.501 . S
C790 C791 1.387 . S
C790 N793 1.341 . S
C791 C789 1.400 . S
C791 C790 1.387 . S
N792 Co783 2.022 . S
N792 C789 1.351 . S
N792 N793 1.365 . S
N793 C790 1.341 . S
N793 N792 1.365 . S
N793 H813 0.862 . S
C794 C789 1.501 . S
C794 H795 0.961 . S
C794 H796 0.961 . S
C794 H797 0.960 . S
H795 C794 0.961 . S
H796 C794 0.961 . S
H797 C794 0.960 . S
C798 N799 1.342 . S
C798 C802 1.401 1_554 S
C798 C803 1.499 1_554 S
N799 Co782 1.989 . S
N799 C798 1.342 . S
N799 N800 1.388 . S
N800 Co783 1.993 . S
N800 N799 1.388 . S
N800 C801 1.346 . S
C801 N800 1.346 . S
C801 C802 1.396 1_554 S
C801 C811 1.510 . S
C802 C798 1.401 1_556 S
C802 C801 1.396 1_556 S
C803 C798 1.499 1_556 S
C803 H804 0.959 1_556 S
C803 H805 0.960 . S
C803 H806 0.961 . S
H804 C803 0.959 1_554 S
H805 C803 0.960 . S
H806 C803 0.961 . S
O807 Co782 1.967 . S
O807 C815 1.258 . S
O808 Co783 1.941 . S
O808 C815 1.266 . S
H809 C811 0.959 . S
H810 C811 0.961 1_556 S
C811 C801 1.510 . S
C811 H809 0.959 . S
C811 H810 0.961 1_554 S
C811 H812 0.960 . S
H812 C811 0.960 . S
H813 N793 0.862 . S
O814 Co782 1.920 . S
O814 C787 1.289 . S
C815 O807 1.258 . S
C815 O808 1.266 . S
Co816 O819 1.970 . S
Co816 N833 1.989 . S
Co816 O841 1.967 . S
Co816 O848 1.920 . S
Co817 O820 1.966 . S
Co817 N826 2.022 . S
Co817 N834 1.993 . S
Co817 O842 1.941 . S
C818 O819 1.258 . S
C818 O820 1.263 . S
O819 Co816 1.970 . S
O819 C818 1.258 . S
O820 Co817 1.966 . S
O820 C818 1.263 . S
C821 O822 1.235 . S
C821 O848 1.289 . S
O822 C821 1.235 . S
C823 C825 1.400 . S
C823 N826 1.351 . S
C823 C828 1.501 . S
C824 C825 1.387 . S
C824 N827 1.341 . S
C825 C823 1.400 . S
C825 C824 1.387 . S
N826 Co817 2.022 . S
N826 C823 1.351 . S
N826 N827 1.365 . S
N827 C824 1.341 . S
N827 N826 1.365 . S
N827 H847 0.862 . S
C828 C823 1.501 . S
C828 H829 0.961 . S
C828 H830 0.961 . S
C828 H831 0.960 . S
H829 C828 0.961 . S
H830 C828 0.961 . S
H831 C828 0.960 . S
C832 N833 1.342 . S
C832 C836 1.401 . S
C832 C837 1.499 . S
N833 Co816 1.989 . S
N833 C832 1.342 . S
N833 N834 1.388 . S
N834 Co817 1.993 . S
N834 N833 1.388 . S
N834 C835 1.346 . S
C835 N834 1.346 . S
C835 C836 1.396 . S
C835 C845 1.510 . S
C836 C832 1.401 . S
C836 C835 1.396 . S
C837 C832 1.499 . S
C837 H838 0.959 . S
C837 H839 0.960 . S
C837 H840 0.961 . S
H838 C837 0.959 . S
H839 C837 0.960 . S
H840 C837 0.961 . S
O841 Co816 1.967 . S
O841 C849 1.258 . S
O842 Co817 1.941 . S
O842 C849 1.266 . S
H843 C845 0.959 . S
H844 C845 0.961 . S
C845 C835 1.510 . S
C845 H843 0.959 . S
C845 H844 0.961 . S
C845 H846 0.960 . S
H846 C845 0.960 . S
H847 N827 0.862 . S
O848 Co816 1.920 . S
O848 C821 1.289 . S
C849 O841 1.258 . S
C849 O842 1.266 . S
Co850 O853 1.970 . S
Co850 N867 1.989 . S
Co850 O875 1.967 . S
Co850 O882 1.920 . S
Co851 O854 1.966 . S
Co851 N860 2.022 . S
Co851 N868 1.993 . S
Co851 O876 1.941 . S
C852 O853 1.258 . S
C852 O854 1.263 . S
O853 Co850 1.970 . S
O853 C852 1.258 . S
O854 Co851 1.966 . S
O854 C852 1.263 . S
C855 O856 1.235 . S
C855 O882 1.289 . S
O856 C855 1.235 . S
C857 C859 1.400 . S
C857 N860 1.351 . S
C857 C862 1.501 . S
C858 C859 1.387 . S
C858 N861 1.341 . S
C859 C857 1.400 . S
C859 C858 1.387 . S
N860 Co851 2.022 . S
N860 C857 1.351 . S
N860 N861 1.365 . S
N861 C858 1.341 . S
N861 N860 1.365 . S
N861 H881 0.862 . S
C862 C857 1.501 . S
C862 H863 0.961 . S
C862 H864 0.961 . S
C862 H865 0.960 . S
H863 C862 0.961 . S
H864 C862 0.961 . S
H865 C862 0.960 . S
C866 N867 1.342 . S
C866 C870 1.401 . S
C866 C871 1.499 . S
N867 Co850 1.989 . S
N867 C866 1.342 . S
N867 N868 1.388 . S
N868 Co851 1.993 . S
N868 N867 1.388 . S
N868 C869 1.346 . S
C869 N868 1.346 . S
C869 C870 1.396 . S
C869 C879 1.510 . S
C870 C866 1.401 . S
C870 C869 1.396 . S
C871 C866 1.499 . S
C871 H872 0.959 . S
C871 H873 0.960 . S
C871 H874 0.961 . S
H872 C871 0.959 . S
H873 C871 0.960 . S
H874 C871 0.961 . S
O875 Co850 1.967 . S
O875 C883 1.258 . S
O876 Co851 1.941 . S
O876 C883 1.266 . S
H877 C879 0.959 . S
H878 C879 0.961 . S
C879 C869 1.510 . S
C879 H877 0.959 . S
C879 H878 0.961 . S
C879 H880 0.960 . S
H880 C879 0.960 . S
H881 N861 0.862 . S
O882 Co850 1.920 . S
O882 C855 1.289 . S
C883 O875 1.258 . S
C883 O876 1.266 . S
Co884 O887 1.970 . S
Co884 N901 1.989 . S
Co884 O909 1.967 . S
Co884 O916 1.920 . S
Co885 O888 1.966 . S
Co885 N894 2.022 . S
Co885 N902 1.993 . S
Co885 O910 1.941 . S
C886 O887 1.258 . S
C886 O888 1.263 . S
O887 Co884 1.970 . S
O887 C886 1.258 . S
O888 Co885 1.966 . S
O888 C886 1.263 . S
C889 O890 1.235 . S
C889 O916 1.289 . S
O890 C889 1.235 . S
C891 C893 1.400 . S
C891 N894 1.351 . S
C891 C896 1.501 . S
C892 C893 1.387 . S
C892 N895 1.341 . S
C893 C891 1.400 . S
C893 C892 1.387 . S
N894 Co885 2.022 . S
N894 C891 1.351 . S
N894 N895 1.365 . S
N895 C892 1.341 . S
N895 N894 1.365 . S
N895 H915 0.862 . S
C896 C891 1.501 . S
C896 H897 0.961 . S
C896 H898 0.961 . S
C896 H899 0.960 . S
H897 C896 0.961 . S
H898 C896 0.961 . S
H899 C896 0.960 . S
C900 N901 1.342 . S
C900 C904 1.401 . S
C900 C905 1.499 . S
N901 Co884 1.989 . S
N901 C900 1.342 . S
N901 N902 1.388 . S
N902 Co885 1.993 . S
N902 N901 1.388 . S
N902 C903 1.346 . S
C903 N902 1.346 . S
C903 C904 1.396 . S
C903 C913 1.510 . S
C904 C900 1.401 . S
C904 C903 1.396 . S
C905 C900 1.499 . S
C905 H906 0.959 . S
C905 H907 0.960 . S
C905 H908 0.961 . S
H906 C905 0.959 . S
H907 C905 0.960 . S
H908 C905 0.961 . S
O909 Co884 1.967 . S
O909 C917 1.258 . S
O910 Co885 1.941 . S
O910 C917 1.266 . S
H911 C913 0.959 . S
H912 C913 0.961 . S
C913 C903 1.510 . S
C913 H911 0.959 . S
C913 H912 0.961 . S
C913 H914 0.960 . S
H914 C913 0.960 . S
H915 N895 0.862 . S
O916 Co884 1.920 . S
O916 C889 1.289 . S
C917 O909 1.258 . S
C917 O910 1.266 . S
Co918 O921 1.970 . S
Co918 N935 1.989 . S
Co918 O943 1.967 . S
Co918 O950 1.920 . S
Co919 O922 1.966 . S
Co919 N928 2.022 . S
Co919 N936 1.993 . S
Co919 O944 1.941 . S
C920 O921 1.258 . S
C920 O922 1.263 . S
O921 Co918 1.970 . S
O921 C920 1.258 . S
O922 Co919 1.966 . S
O922 C920 1.263 . S
C923 O924 1.235 . S
C923 O950 1.289 . S
O924 C923 1.235 . S
C925 C927 1.400 . S
C925 N928 1.351 . S
C925 C930 1.501 . S
C926 C927 1.387 . S
C926 N929 1.341 . S
C927 C925 1.400 . S
C927 C926 1.387 . S
N928 Co919 2.022 . S
N928 C925 1.351 . S
N928 N929 1.365 . S
N929 C926 1.341 . S
N929 N928 1.365 . S
N929 H949 0.862 . S
C930 C925 1.501 . S
C930 H931 0.961 . S
C930 H932 0.961 . S
C930 H933 0.960 . S
H931 C930 0.961 . S
H932 C930 0.961 . S
H933 C930 0.960 . S
C934 N935 1.342 . S
C934 C938 1.401 1_556 S
C934 C939 1.499 1_556 S
N935 Co918 1.989 . S
N935 C934 1.342 . S
N935 N936 1.388 . S
N936 Co919 1.993 . S
N936 N935 1.388 . S
N936 C937 1.346 . S
C937 N936 1.346 . S
C937 C938 1.396 1_556 S
C937 C947 1.510 . S
C938 C934 1.401 1_554 S
C938 C937 1.396 1_554 S
C939 C934 1.499 1_554 S
C939 H940 0.959 1_554 S
C939 H941 0.960 . S
C939 H942 0.961 . S
H940 C939 0.959 1_556 S
H941 C939 0.960 . S
H942 C939 0.961 . S
O943 Co918 1.967 . S
O943 C951 1.258 . S
O944 Co919 1.941 . S
O944 C951 1.266 . S
H945 C947 0.959 . S
H946 C947 0.961 1_554 S
C947 C937 1.510 . S
C947 H945 0.959 . S
C947 H946 0.961 1_556 S
C947 H948 0.960 . S
H948 C947 0.960 . S
H949 N929 0.862 . S
O950 Co918 1.920 . S
O950 C923 1.289 . S
C951 O943 1.258 . S
C951 O944 1.266 . S
Co952 O955 1.970 . S
Co952 N969 1.989 . S
Co952 O977 1.967 . S
Co952 O984 1.920 . S
Co953 O956 1.966 . S
Co953 N962 2.022 . S
Co953 N970 1.993 . S
Co953 O978 1.941 . S
C954 O955 1.258 . S
C954 O956 1.263 . S
O955 Co952 1.970 . S
O955 C954 1.258 . S
O956 Co953 1.966 . S
O956 C954 1.263 . S
C957 O958 1.235 . S
C957 O984 1.289 . S
O958 C957 1.235 . S
C959 C961 1.400 . S
C959 N962 1.351 . S
C959 C964 1.501 . S
C960 C961 1.387 . S
C960 N963 1.341 . S
C961 C959 1.400 . S
C961 C960 1.387 . S
N962 Co953 2.022 . S
N962 C959 1.351 . S
N962 N963 1.365 . S
N963 C960 1.341 . S
N963 N962 1.365 . S
N963 H983 0.862 . S
C964 C959 1.501 . S
C964 H965 0.961 . S
C964 H966 0.961 . S
C964 H967 0.960 . S
H965 C964 0.961 . S
H966 C964 0.961 . S
H967 C964 0.960 . S
C968 N969 1.342 . S
C968 C972 1.401 1_556 S
C968 C973 1.499 1_556 S
N969 Co952 1.989 . S
N969 C968 1.342 . S
N969 N970 1.388 . S
N970 Co953 1.993 . S
N970 N969 1.388 . S
N970 C971 1.346 . S
C971 N970 1.346 . S
C971 C972 1.396 1_556 S
C971 C981 1.510 . S
C972 C968 1.401 1_554 S
C972 C971 1.396 1_554 S
C973 C968 1.499 1_554 S
C973 H974 0.959 1_554 S
C973 H975 0.960 . S
C973 H976 0.961 . S
H974 C973 0.959 1_556 S
H975 C973 0.960 . S
H976 C973 0.961 . S
O977 Co952 1.967 . S
O977 C985 1.258 . S
O978 Co953 1.941 . S
O978 C985 1.266 . S
H979 C981 0.959 . S
H980 C981 0.961 1_554 S
C981 C971 1.510 . S
C981 H979 0.959 . S
C981 H980 0.961 1_556 S
C981 H982 0.960 . S
H982 C981 0.960 . S
H983 N963 0.862 . S
O984 Co952 1.920 . S
O984 C957 1.289 . S
C985 O977 1.258 . S
C985 O978 1.266 . S
Co986 O989 1.970 . S
Co986 N1003 1.989 . S
Co986 O1011 1.967 . S
Co986 O1018 1.920 . S
Co987 O990 1.966 . S
Co987 N996 2.022 . S
Co987 N1004 1.993 . S
Co987 O1012 1.941 . S
C988 O989 1.258 . S
C988 O990 1.263 . S
O989 Co986 1.970 . S
O989 C988 1.258 . S
O990 Co987 1.966 . S
O990 C988 1.263 . S
C991 O992 1.235 . S
C991 O1018 1.289 . S
O992 C991 1.235 . S
C993 C995 1.400 . S
C993 N996 1.351 . S
C993 C998 1.501 . S
C994 C995 1.387 . S
C994 N997 1.341 . S
C995 C993 1.400 . S
C995 C994 1.387 . S
N996 Co987 2.022 . S
N996 C993 1.351 . S
N996 N997 1.365 . S
N997 C994 1.341 . S
N997 N996 1.365 . S
N997 H1017 0.862 . S
C998 C993 1.501 . S
C998 H999 0.961 . S
C998 H1000 0.961 . S
C998 H1001 0.960 . S
H999 C998 0.961 . S
H1000 C998 0.961 . S
H1001 C998 0.960 . S
C1002 N1003 1.342 . S
C1002 C1006 1.401 1_556 S
C1002 C1007 1.499 1_556 S
N1003 Co986 1.989 . S
N1003 C1002 1.342 . S
N1003 N1004 1.388 . S
N1004 Co987 1.993 . S
N1004 N1003 1.388 . S
N1004 C1005 1.346 . S
C1005 N1004 1.346 . S
C1005 C1006 1.396 1_556 S
C1005 C1015 1.510 . S
C1006 C1002 1.401 1_554 S
C1006 C1005 1.396 1_554 S
C1007 C1002 1.499 1_554 S
C1007 H1008 0.959 1_554 S
C1007 H1009 0.960 . S
C1007 H1010 0.961 . S
H1008 C1007 0.959 1_556 S
H1009 C1007 0.960 . S
H1010 C1007 0.961 . S
O1011 Co986 1.967 . S
O1011 C1019 1.258 . S
O1012 Co987 1.941 . S
O1012 C1019 1.266 . S
H1013 C1015 0.959 . S
H1014 C1015 0.961 1_554 S
C1015 C1005 1.510 . S
C1015 H1013 0.959 . S
C1015 H1014 0.961 1_556 S
C1015 H1016 0.960 . S
H1016 C1015 0.960 . S
H1017 N997 0.862 . S
O1018 Co986 1.920 . S
O1018 C991 1.289 . S
C1019 O1011 1.258 . S
C1019 O1012 1.266 . S
Co1020 O1023 1.970 . S
Co1020 N1037 1.989 . S
Co1020 O1045 1.967 . S
Co1020 O1052 1.920 . S
Co1021 O1024 1.966 . S
Co1021 N1030 2.022 . S
Co1021 N1038 1.993 . S
Co1021 O1046 1.941 . S
C1022 O1023 1.258 . S
C1022 O1024 1.263 . S
O1023 Co1020 1.970 . S
O1023 C1022 1.258 . S
O1024 Co1021 1.966 . S
O1024 C1022 1.263 . S
C1025 O1026 1.235 . S
C1025 O1052 1.289 . S
O1026 C1025 1.235 . S
C1027 C1029 1.400 . S
C1027 N1030 1.351 . S
C1027 C1032 1.501 . S
C1028 C1029 1.387 . S
C1028 N1031 1.341 . S
C1029 C1027 1.400 . S
C1029 C1028 1.387 . S
N1030 Co1021 2.022 . S
N1030 C1027 1.351 . S
N1030 N1031 1.365 . S
N1031 C1028 1.341 . S
N1031 N1030 1.365 . S
N1031 H1051 0.862 . S
C1032 C1027 1.501 . S
C1032 H1033 0.961 . S
C1032 H1034 0.961 . S
C1032 H1035 0.960 . S
H1033 C1032 0.961 . S
H1034 C1032 0.961 . S
H1035 C1032 0.960 . S
C1036 N1037 1.342 . S
C1036 C1040 1.401 . S
C1036 C1041 1.499 . S
N1037 Co1020 1.989 . S
N1037 C1036 1.342 . S
N1037 N1038 1.388 . S
N1038 Co1021 1.993 . S
N1038 N1037 1.388 . S
N1038 C1039 1.346 . S
C1039 N1038 1.346 . S
C1039 C1040 1.396 . S
C1039 C1049 1.510 . S
C1040 C1036 1.401 . S
C1040 C1039 1.396 . S
C1041 C1036 1.499 . S
C1041 H1042 0.959 . S
C1041 H1043 0.960 . S
C1041 H1044 0.961 . S
H1042 C1041 0.959 . S
H1043 C1041 0.960 . S
H1044 C1041 0.961 . S
O1045 Co1020 1.967 . S
O1045 C1053 1.258 . S
O1046 Co1021 1.941 . S
O1046 C1053 1.266 . S
H1047 C1049 0.959 . S
H1048 C1049 0.961 . S
C1049 C1039 1.510 . S
C1049 H1047 0.959 . S
C1049 H1048 0.961 . S
C1049 H1050 0.960 . S
H1050 C1049 0.960 . S
H1051 N1031 0.862 . S
O1052 Co1020 1.920 . S
O1052 C1025 1.289 . S
C1053 O1045 1.258 . S
C1053 O1046 1.266 . S
Co1054 O1057 1.970 . S
Co1054 N1071 1.989 . S
Co1054 O1079 1.967 . S
Co1054 O1086 1.920 . S
Co1055 O1058 1.966 . S
Co1055 N1064 2.022 . S
Co1055 N1072 1.993 . S
Co1055 O1080 1.941 . S
C1056 O1057 1.258 . S
C1056 O1058 1.263 . S
O1057 Co1054 1.970 . S
O1057 C1056 1.258 . S
O1058 Co1055 1.966 . S
O1058 C1056 1.263 . S
C1059 O1060 1.235 . S
C1059 O1086 1.289 . S
O1060 C1059 1.235 . S
C1061 C1063 1.400 . S
C1061 N1064 1.351 . S
C1061 C1066 1.501 . S
C1062 C1063 1.387 . S
C1062 N1065 1.341 . S
C1063 C1061 1.400 . S
C1063 C1062 1.387 . S
N1064 Co1055 2.022 . S
N1064 C1061 1.351 . S
N1064 N1065 1.365 . S
N1065 C1062 1.341 . S
N1065 N1064 1.365 . S
N1065 H1085 0.862 . S
C1066 C1061 1.501 . S
C1066 H1067 0.961 . S
C1066 H1068 0.961 . S
C1066 H1069 0.960 . S
H1067 C1066 0.961 . S
H1068 C1066 0.961 . S
H1069 C1066 0.960 . S
C1070 N1071 1.342 . S
C1070 C1074 1.401 . S
C1070 C1075 1.499 . S
N1071 Co1054 1.989 . S
N1071 C1070 1.342 . S
N1071 N1072 1.388 . S
N1072 Co1055 1.993 . S
N1072 N1071 1.388 . S
N1072 C1073 1.346 . S
C1073 N1072 1.346 . S
C1073 C1074 1.396 . S
C1073 C1083 1.510 . S
C1074 C1070 1.401 . S
C1074 C1073 1.396 . S
C1075 C1070 1.499 . S
C1075 H1076 0.959 . S
C1075 H1077 0.960 . S
C1075 H1078 0.961 . S
H1076 C1075 0.959 . S
H1077 C1075 0.960 . S
H1078 C1075 0.961 . S
O1079 Co1054 1.967 . S
O1079 C1087 1.258 . S
O1080 Co1055 1.941 . S
O1080 C1087 1.266 . S
H1081 C1083 0.959 . S
H1082 C1083 0.961 . S
C1083 C1073 1.510 . S
C1083 H1081 0.959 . S
C1083 H1082 0.961 . S
C1083 H1084 0.960 . S
H1084 C1083 0.960 . S
H1085 N1065 0.862 . S
O1086 Co1054 1.920 . S
O1086 C1059 1.289 . S
C1087 O1079 1.258 . S
C1087 O1080 1.266 . S
Co1088 O1091 1.970 . S
Co1088 N1105 1.989 . S
Co1088 O1113 1.967 . S
Co1088 O1120 1.920 . S
Co1089 O1092 1.966 . S
Co1089 N1098 2.022 . S
Co1089 N1106 1.993 . S
Co1089 O1114 1.941 . S
C1090 O1091 1.258 . S
C1090 O1092 1.263 . S
O1091 Co1088 1.970 . S
O1091 C1090 1.258 . S
O1092 Co1089 1.966 . S
O1092 C1090 1.263 . S
C1093 O1094 1.235 . S
C1093 O1120 1.289 . S
O1094 C1093 1.235 . S
C1095 C1097 1.400 . S
C1095 N1098 1.351 . S
C1095 C1100 1.501 . S
C1096 C1097 1.387 . S
C1096 N1099 1.341 . S
C1097 C1095 1.400 . S
C1097 C1096 1.387 . S
N1098 Co1089 2.022 . S
N1098 C1095 1.351 . S
N1098 N1099 1.365 . S
N1099 C1096 1.341 . S
N1099 N1098 1.365 . S
N1099 H1119 0.862 . S
C1100 C1095 1.501 . S
C1100 H1101 0.961 . S
C1100 H1102 0.961 . S
C1100 H1103 0.960 . S
H1101 C1100 0.961 . S
H1102 C1100 0.961 . S
H1103 C1100 0.960 . S
C1104 N1105 1.342 . S
C1104 C1108 1.401 . S
C1104 C1109 1.499 . S
N1105 Co1088 1.989 . S
N1105 C1104 1.342 . S
N1105 N1106 1.388 . S
N1106 Co1089 1.993 . S
N1106 N1105 1.388 . S
N1106 C1107 1.346 . S
C1107 N1106 1.346 . S
C1107 C1108 1.396 . S
C1107 C1117 1.510 . S
C1108 C1104 1.401 . S
C1108 C1107 1.396 . S
C1109 C1104 1.499 . S
C1109 H1110 0.959 . S
C1109 H1111 0.960 . S
C1109 H1112 0.961 . S
H1110 C1109 0.959 . S
H1111 C1109 0.960 . S
H1112 C1109 0.961 . S
O1113 Co1088 1.967 . S
O1113 C1121 1.258 . S
O1114 Co1089 1.941 . S
O1114 C1121 1.266 . S
H1115 C1117 0.959 . S
H1116 C1117 0.961 . S
C1117 C1107 1.510 . S
C1117 H1115 0.959 . S
C1117 H1116 0.961 . S
C1117 H1118 0.960 . S
H1118 C1117 0.960 . S
H1119 N1099 0.862 . S
O1120 Co1088 1.920 . S
O1120 C1093 1.289 . S
C1121 O1113 1.258 . S
C1121 O1114 1.266 . S
Co1122 O1125 1.970 . S
Co1122 N1139 1.989 . S
Co1122 O1147 1.967 . S
Co1122 O1154 1.920 . S
Co1123 O1126 1.966 . S
Co1123 N1132 2.022 . S
Co1123 N1140 1.993 . S
Co1123 O1148 1.941 . S
C1124 O1125 1.258 . S
C1124 O1126 1.263 . S
O1125 Co1122 1.970 . S
O1125 C1124 1.258 . S
O1126 Co1123 1.966 . S
O1126 C1124 1.263 . S
C1127 O1128 1.235 . S
C1127 O1154 1.289 . S
O1128 C1127 1.235 . S
C1129 C1131 1.400 . S
C1129 N1132 1.351 . S
C1129 C1134 1.501 . S
C1130 C1131 1.387 . S
C1130 N1133 1.341 . S
C1131 C1129 1.400 . S
C1131 C1130 1.387 . S
N1132 Co1123 2.022 . S
N1132 C1129 1.351 . S
N1132 N1133 1.365 . S
N1133 C1130 1.341 . S
N1133 N1132 1.365 . S
N1133 H1153 0.862 . S
C1134 C1129 1.501 . S
C1134 H1135 0.961 . S
C1134 H1136 0.961 . S
C1134 H1137 0.960 . S
H1135 C1134 0.961 . S
H1136 C1134 0.961 . S
H1137 C1134 0.960 . S
C1138 N1139 1.342 . S
C1138 C1142 1.401 . S
C1138 C1143 1.499 . S
N1139 Co1122 1.989 . S
N1139 C1138 1.342 . S
N1139 N1140 1.388 . S
N1140 Co1123 1.993 . S
N1140 N1139 1.388 . S
N1140 C1141 1.346 . S
C1141 N1140 1.346 . S
C1141 C1142 1.396 . S
C1141 C1151 1.510 . S
C1142 C1138 1.401 . S
C1142 C1141 1.396 . S
C1143 C1138 1.499 . S
C1143 H1144 0.959 . S
C1143 H1145 0.960 . S
C1143 H1146 0.961 . S
H1144 C1143 0.959 . S
H1145 C1143 0.960 . S
H1146 C1143 0.961 . S
O1147 Co1122 1.967 . S
O1147 C1155 1.258 . S
O1148 Co1123 1.941 . S
O1148 C1155 1.266 . S
H1149 C1151 0.959 . S
H1150 C1151 0.961 . S
C1151 C1141 1.510 . S
C1151 H1149 0.959 . S
C1151 H1150 0.961 . S
C1151 H1152 0.960 . S
H1152 C1151 0.960 . S
H1153 N1133 0.862 . S
O1154 Co1122 1.920 . S
O1154 C1127 1.289 . S
C1155 O1147 1.258 . S
C1155 O1148 1.266 . S
Co1156 O1159 1.970 . S
Co1156 N1173 1.989 . S
Co1156 O1181 1.967 . S
Co1156 O1188 1.920 . S
Co1157 O1160 1.966 . S
Co1157 N1166 2.022 . S
Co1157 N1174 1.993 . S
Co1157 O1182 1.941 . S
C1158 O1159 1.258 . S
C1158 O1160 1.263 . S
O1159 Co1156 1.970 . S
O1159 C1158 1.258 . S
O1160 Co1157 1.966 . S
O1160 C1158 1.263 . S
C1161 O1162 1.235 . S
C1161 O1188 1.289 . S
O1162 C1161 1.235 . S
C1163 C1165 1.400 . S
C1163 N1166 1.351 . S
C1163 C1168 1.501 . S
C1164 C1165 1.387 . S
C1164 N1167 1.341 . S
C1165 C1163 1.400 . S
C1165 C1164 1.387 . S
N1166 Co1157 2.022 . S
N1166 C1163 1.351 . S
N1166 N1167 1.365 . S
N1167 C1164 1.341 . S
N1167 N1166 1.365 . S
N1167 H1187 0.862 . S
C1168 C1163 1.501 . S
C1168 H1169 0.961 . S
C1168 H1170 0.961 . S
C1168 H1171 0.960 . S
H1169 C1168 0.961 . S
H1170 C1168 0.961 . S
H1171 C1168 0.960 . S
C1172 N1173 1.342 . S
C1172 C1176 1.401 . S
C1172 C1177 1.499 . S
N1173 Co1156 1.989 . S
N1173 C1172 1.342 . S
N1173 N1174 1.388 . S
N1174 Co1157 1.993 . S
N1174 N1173 1.388 . S
N1174 C1175 1.346 . S
C1175 N1174 1.346 . S
C1175 C1176 1.396 . S
C1175 C1185 1.510 . S
C1176 C1172 1.401 . S
C1176 C1175 1.396 . S
C1177 C1172 1.499 . S
C1177 H1178 0.959 . S
C1177 H1179 0.960 . S
C1177 H1180 0.961 . S
H1178 C1177 0.959 . S
H1179 C1177 0.960 . S
H1180 C1177 0.961 . S
O1181 Co1156 1.967 . S
O1181 C1189 1.258 . S
O1182 Co1157 1.941 . S
O1182 C1189 1.266 . S
H1183 C1185 0.959 . S
H1184 C1185 0.961 . S
C1185 C1175 1.510 . S
C1185 H1183 0.959 . S
C1185 H1184 0.961 . S
C1185 H1186 0.960 . S
H1186 C1185 0.960 . S
H1187 N1167 0.862 . S
O1188 Co1156 1.920 . S
O1188 C1161 1.289 . S
C1189 O1181 1.258 . S
C1189 O1182 1.266 . S
Co1190 O1193 1.970 . S
Co1190 N1207 1.989 . S
Co1190 O1215 1.967 . S
Co1190 O1222 1.920 . S
Co1191 O1194 1.966 . S
Co1191 N1200 2.022 . S
Co1191 N1208 1.993 . S
Co1191 O1216 1.941 . S
C1192 O1193 1.258 . S
C1192 O1194 1.263 . S
O1193 Co1190 1.970 . S
O1193 C1192 1.258 . S
O1194 Co1191 1.966 . S
O1194 C1192 1.263 . S
C1195 O1196 1.235 . S
C1195 O1222 1.289 . S
O1196 C1195 1.235 . S
C1197 C1199 1.400 . S
C1197 N1200 1.351 . S
C1197 C1202 1.501 . S
C1198 C1199 1.387 . S
C1198 N1201 1.341 . S
C1199 C1197 1.400 . S
C1199 C1198 1.387 . S
N1200 Co1191 2.022 . S
N1200 C1197 1.351 . S
N1200 N1201 1.365 . S
N1201 C1198 1.341 . S
N1201 N1200 1.365 . S
N1201 H1221 0.862 . S
C1202 C1197 1.501 . S
C1202 H1203 0.961 . S
C1202 H1204 0.961 . S
C1202 H1205 0.960 . S
H1203 C1202 0.961 . S
H1204 C1202 0.961 . S
H1205 C1202 0.960 . S
C1206 N1207 1.342 . S
C1206 C1210 1.401 . S
C1206 C1211 1.499 . S
N1207 Co1190 1.989 . S
N1207 C1206 1.342 . S
N1207 N1208 1.388 . S
N1208 Co1191 1.993 . S
N1208 N1207 1.388 . S
N1208 C1209 1.346 . S
C1209 N1208 1.346 . S
C1209 C1210 1.396 . S
C1209 C1219 1.510 . S
C1210 C1206 1.401 . S
C1210 C1209 1.396 . S
C1211 C1206 1.499 . S
C1211 H1212 0.959 . S
C1211 H1213 0.960 . S
C1211 H1214 0.961 . S
H1212 C1211 0.959 . S
H1213 C1211 0.960 . S
H1214 C1211 0.961 . S
O1215 Co1190 1.967 . S
O1215 C1223 1.258 . S
O1216 Co1191 1.941 . S
O1216 C1223 1.266 . S
H1217 C1219 0.959 . S
H1218 C1219 0.961 . S
C1219 C1209 1.510 . S
C1219 H1217 0.959 . S
C1219 H1218 0.961 . S
C1219 H1220 0.960 . S
H1220 C1219 0.960 . S
H1221 N1201 0.862 . S
O1222 Co1190 1.920 . S
O1222 C1195 1.289 . S
C1223 O1215 1.258 . S
C1223 O1216 1.266 . S
H1224 C1232 0.929 . S
H1225 C1234 0.930 . S
H1226 C1236 0.930 . S
H1227 C1239 0.929 . S
H1228 C1242 0.930 . S
H1229 C1244 0.960 . S
H1230 C1244 0.960 . S
H1231 C1244 0.960 . S
C1232 H1224 0.929 . S
C1232 C1233 1.377 . S
C1232 C1234 1.384 . S
C1233 C1232 1.377 . S
C1233 C1239 1.390 . S
C1234 H1225 0.930 . S
C1234 C1232 1.384 . S
C1234 C1235 1.372 . S
C1235 C1234 1.372 . S
C1235 C1236 1.400 . S
C1235 C1240 1.490 . S
C1236 H1226 0.930 . S
C1236 C1235 1.400 . S
C1236 C1239 1.386 . S
H1237 C1253 0.930 . S
H1238 C1254 0.931 . S
C1239 H1227 0.929 . S
C1239 C1233 1.390 . S
C1239 C1236 1.386 . S
C1240 C1235 1.490 . S
C1240 C1242 1.395 . S
C1240 C1243 1.403 . S
H1241 C1247 0.930 . S
C1242 H1228 0.930 . S
C1242 C1240 1.395 . S
C1242 C1245 1.403 . S
C1243 C1240 1.403 . S
C1243 C1244 1.524 . S
C1243 C1247 1.400 . S
C1244 H1229 0.960 . S
C1244 H1230 0.960 . S
C1244 H1231 0.960 . S
C1244 C1243 1.524 . S
C1245 C1242 1.403 . S
C1245 C1246 1.392 . S
C1245 C1249 1.495 . S
C1246 C1245 1.392 . S
C1246 C1247 1.385 . S
C1246 C1248 1.478 . S
C1247 H1241 0.930 . S
C1247 C1243 1.400 . S
C1247 C1246 1.385 . S
C1248 C1246 1.478 . S
C1248 C1250 1.381 . S
C1248 C1254 1.383 . S
C1249 C1245 1.495 . S
C1249 H1255 0.959 . S
C1249 H1256 0.961 . S
C1249 H1257 0.960 . S
C1250 C1248 1.381 . S
C1250 C1251 1.394 . S
C1250 H1258 0.930 . S
C1251 C1250 1.394 . S
C1251 C1252 1.383 . S
C1251 H1259 0.929 . S
C1252 C1251 1.383 . S
C1252 C1253 1.377 . S
C1253 H1237 0.930 . S
C1253 C1252 1.377 . S
C1253 C1254 1.379 . S
C1254 H1238 0.931 . S
C1254 C1248 1.383 . S
C1254 C1253 1.379 . S
H1255 C1249 0.959 . S
H1256 C1249 0.961 . S
H1257 C1249 0.960 . S
H1258 C1250 0.930 . S
H1259 C1251 0.929 . S
H1260 C1268 0.929 . S
H1261 C1270 0.930 . S
H1262 C1272 0.930 . S
H1263 C1275 0.929 . S
H1264 C1278 0.930 . S
H1265 C1280 0.960 . S
H1266 C1280 0.960 . S
H1267 C1280 0.960 . S
C1268 H1260 0.929 . S
C1268 C1269 1.377 . S
C1268 C1270 1.384 . S
C1269 C1268 1.377 . S
C1269 C1275 1.390 . S
C1270 H1261 0.930 . S
C1270 C1268 1.384 . S
C1270 C1271 1.372 . S
C1271 C1270 1.372 . S
C1271 C1272 1.400 . S
C1271 C1276 1.490 . S
C1272 H1262 0.930 . S
C1272 C1271 1.400 . S
C1272 C1275 1.386 . S
H1273 C1289 0.930 . S
H1274 C1290 0.931 . S
C1275 H1263 0.929 . S
C1275 C1269 1.390 . S
C1275 C1272 1.386 . S
C1276 C1271 1.490 . S
C1276 C1278 1.395 . S
C1276 C1279 1.403 . S
H1277 C1283 0.930 . S
C1278 H1264 0.930 . S
C1278 C1276 1.395 . S
C1278 C1281 1.403 . S
C1279 C1276 1.403 . S
C1279 C1280 1.524 . S
C1279 C1283 1.400 . S
C1280 H1265 0.960 . S
C1280 H1266 0.960 . S
C1280 H1267 0.960 . S
C1280 C1279 1.524 . S
C1281 C1278 1.403 . S
C1281 C1282 1.392 . S
C1281 C1285 1.495 . S
C1282 C1281 1.392 . S
C1282 C1283 1.385 . S
C1282 C1284 1.478 . S
C1283 H1277 0.930 . S
C1283 C1279 1.400 . S
C1283 C1282 1.385 . S
C1284 C1282 1.478 . S
C1284 C1286 1.381 . S
C1284 C1290 1.383 . S
C1285 C1281 1.495 . S
C1285 H1291 0.959 . S
C1285 H1292 0.961 . S
C1285 H1293 0.960 . S
C1286 C1284 1.381 . S
C1286 C1287 1.394 . S
C1286 H1294 0.930 . S
C1287 C1286 1.394 . S
C1287 C1288 1.383 . S
C1287 H1295 0.929 . S
C1288 C1287 1.383 . S
C1288 C1289 1.377 . S
C1289 H1273 0.930 . S
C1289 C1288 1.377 . S
C1289 C1290 1.379 . S
C1290 H1274 0.931 . S
C1290 C1284 1.383 . S
C1290 C1289 1.379 . S
H1291 C1285 0.959 . S
H1292 C1285 0.961 . S
H1293 C1285 0.960 . S
H1294 C1286 0.930 . S
H1295 C1287 0.929 . S
H1296 C1304 0.929 . S
H1297 C1306 0.930 . S
H1298 C1308 0.930 . S
H1299 C1311 0.929 . S
H1300 C1314 0.930 . S
H1301 C1316 0.960 . S
H1302 C1316 0.960 . S
H1303 C1316 0.960 . S
C1304 H1296 0.929 . S
C1304 C1305 1.377 . S
C1304 C1306 1.384 . S
C1305 C1304 1.377 . S
C1305 C1311 1.390 . S
C1306 H1297 0.930 . S
C1306 C1304 1.384 . S
C1306 C1307 1.372 . S
C1307 C1306 1.372 . S
C1307 C1308 1.400 . S
C1307 C1312 1.490 . S
C1308 H1298 0.930 . S
C1308 C1307 1.400 . S
C1308 C1311 1.386 . S
H1309 C1325 0.930 . S
H1310 C1326 0.931 . S
C1311 H1299 0.929 . S
C1311 C1305 1.390 . S
C1311 C1308 1.386 . S
C1312 C1307 1.490 . S
C1312 C1314 1.395 . S
C1312 C1315 1.403 . S
H1313 C1319 0.930 . S
C1314 H1300 0.930 . S
C1314 C1312 1.395 . S
C1314 C1317 1.403 . S
C1315 C1312 1.403 . S
C1315 C1316 1.524 . S
C1315 C1319 1.400 . S
C1316 H1301 0.960 . S
C1316 H1302 0.960 . S
C1316 H1303 0.960 . S
C1316 C1315 1.524 . S
C1317 C1314 1.403 . S
C1317 C1318 1.392 . S
C1317 C1321 1.495 . S
C1318 C1317 1.392 . S
C1318 C1319 1.385 . S
C1318 C1320 1.478 . S
C1319 H1313 0.930 . S
C1319 C1315 1.400 . S
C1319 C1318 1.385 . S
C1320 C1318 1.478 . S
C1320 C1322 1.381 . S
C1320 C1326 1.383 . S
C1321 C1317 1.495 . S
C1321 H1327 0.959 . S
C1321 H1328 0.961 . S
C1321 H1329 0.960 . S
C1322 C1320 1.381 . S
C1322 C1323 1.394 . S
C1322 H1330 0.930 . S
C1323 C1322 1.394 . S
C1323 C1324 1.383 . S
C1323 H1331 0.929 . S
C1324 C1323 1.383 . S
C1324 C1325 1.377 . S
C1325 H1309 0.930 . S
C1325 C1324 1.377 . S
C1325 C1326 1.379 . S
C1326 H1310 0.931 . S
C1326 C1320 1.383 . S
C1326 C1325 1.379 . S
H1327 C1321 0.959 . S
H1328 C1321 0.961 . S
H1329 C1321 0.960 . S
H1330 C1322 0.930 . S
H1331 C1323 0.929 . S
H1332 C1340 0.929 . S
H1333 C1342 0.930 . S
H1334 C1344 0.930 . S
H1335 C1347 0.929 . S
H1336 C1350 0.930 . S
H1337 C1352 0.960 . S
H1338 C1352 0.960 . S
H1339 C1352 0.960 . S
C1340 H1332 0.929 . S
C1340 C1341 1.377 . S
C1340 C1342 1.384 . S
C1341 C1340 1.377 . S
C1341 C1347 1.390 . S
C1342 H1333 0.930 . S
C1342 C1340 1.384 . S
C1342 C1343 1.372 . S
C1343 C1342 1.372 . S
C1343 C1344 1.400 . S
C1343 C1348 1.490 . S
C1344 H1334 0.930 . S
C1344 C1343 1.400 . S
C1344 C1347 1.386 . S
H1345 C1361 0.930 . S
H1346 C1362 0.931 . S
C1347 H1335 0.929 . S
C1347 C1341 1.390 . S
C1347 C1344 1.386 . S
C1348 C1343 1.490 . S
C1348 C1350 1.395 . S
C1348 C1351 1.403 . S
H1349 C1355 0.930 . S
C1350 H1336 0.930 . S
C1350 C1348 1.395 . S
C1350 C1353 1.403 . S
C1351 C1348 1.403 . S
C1351 C1352 1.524 . S
C1351 C1355 1.400 . S
C1352 H1337 0.960 . S
C1352 H1338 0.960 . S
C1352 H1339 0.960 . S
C1352 C1351 1.524 . S
C1353 C1350 1.403 . S
C1353 C1354 1.392 . S
C1353 C1357 1.495 . S
C1354 C1353 1.392 . S
C1354 C1355 1.385 . S
C1354 C1356 1.478 . S
C1355 H1349 0.930 . S
C1355 C1351 1.400 . S
C1355 C1354 1.385 . S
C1356 C1354 1.478 . S
C1356 C1358 1.381 . S
C1356 C1362 1.383 . S
C1357 C1353 1.495 . S
C1357 H1363 0.959 . S
C1357 H1364 0.961 . S
C1357 H1365 0.960 . S
C1358 C1356 1.381 . S
C1358 C1359 1.394 . S
C1358 H1366 0.930 . S
C1359 C1358 1.394 . S
C1359 C1360 1.383 . S
C1359 H1367 0.929 . S
C1360 C1359 1.383 . S
C1360 C1361 1.377 . S
C1361 H1345 0.930 . S
C1361 C1360 1.377 . S
C1361 C1362 1.379 . S
C1362 H1346 0.931 . S
C1362 C1356 1.383 . S
C1362 C1361 1.379 . S
H1363 C1357 0.959 . S
H1364 C1357 0.961 . S
H1365 C1357 0.960 . S
H1366 C1358 0.930 . S
H1367 C1359 0.929 . S
H1368 C1376 0.929 . S
H1369 C1378 0.930 . S
H1370 C1380 0.930 . S
H1371 C1383 0.929 . S
H1372 C1386 0.930 . S
H1373 C1388 0.960 . S
H1374 C1388 0.960 . S
H1375 C1388 0.960 . S
C1376 H1368 0.929 . S
C1376 C1377 1.377 . S
C1376 C1378 1.384 . S
C1377 C1376 1.377 . S
C1377 C1383 1.390 . S
C1378 H1369 0.930 . S
C1378 C1376 1.384 . S
C1378 C1379 1.372 . S
C1379 C1378 1.372 . S
C1379 C1380 1.400 . S
C1379 C1384 1.490 . S
C1380 H1370 0.930 . S
C1380 C1379 1.400 . S
C1380 C1383 1.386 . S
H1381 C1397 0.930 . S
H1382 C1398 0.931 . S
C1383 H1371 0.929 . S
C1383 C1377 1.390 . S
C1383 C1380 1.386 . S
C1384 C1379 1.490 . S
C1384 C1386 1.395 . S
C1384 C1387 1.403 . S
H1385 C1391 0.930 . S
C1386 H1372 0.930 . S
C1386 C1384 1.395 . S
C1386 C1389 1.403 . S
C1387 C1384 1.403 . S
C1387 C1388 1.524 . S
C1387 C1391 1.400 . S
C1388 H1373 0.960 . S
C1388 H1374 0.960 . S
C1388 H1375 0.960 . S
C1388 C1387 1.524 . S
C1389 C1386 1.403 . S
C1389 C1390 1.392 . S
C1389 C1393 1.495 . S
C1390 C1389 1.392 . S
C1390 C1391 1.385 . S
C1390 C1392 1.478 . S
C1391 H1385 0.930 . S
C1391 C1387 1.400 . S
C1391 C1390 1.385 . S
C1392 C1390 1.478 . S
C1392 C1394 1.381 . S
C1392 C1398 1.383 . S
C1393 C1389 1.495 . S
C1393 H1399 0.959 . S
C1393 H1400 0.961 . S
C1393 H1401 0.960 . S
C1394 C1392 1.381 . S
C1394 C1395 1.394 . S
C1394 H1402 0.930 . S
C1395 C1394 1.394 . S
C1395 C1396 1.383 . S
C1395 H1403 0.929 . S
C1396 C1395 1.383 . S
C1396 C1397 1.377 . S
C1397 H1381 0.930 . S
C1397 C1396 1.377 . S
C1397 C1398 1.379 . S
C1398 H1382 0.931 . S
C1398 C1392 1.383 . S
C1398 C1397 1.379 . S
H1399 C1393 0.959 . S
H1400 C1393 0.961 . S
H1401 C1393 0.960 . S
H1402 C1394 0.930 . S
H1403 C1395 0.929 . S
H1404 C1412 0.929 . S
H1405 C1414 0.930 . S
H1406 C1416 0.930 . S
H1407 C1419 0.929 . S
H1408 C1422 0.930 . S
H1409 C1424 0.960 . S
H1410 C1424 0.960 . S
H1411 C1424 0.960 . S
C1412 H1404 0.929 . S
C1412 C1413 1.377 . S
C1412 C1414 1.384 . S
C1413 C1412 1.377 . S
C1413 C1419 1.390 . S
C1414 H1405 0.930 . S
C1414 C1412 1.384 . S
C1414 C1415 1.372 . S
C1415 C1414 1.372 . S
C1415 C1416 1.400 . S
C1415 C1420 1.490 . S
C1416 H1406 0.930 . S
C1416 C1415 1.400 . S
C1416 C1419 1.386 . S
H1417 C1433 0.930 . S
H1418 C1434 0.931 . S
C1419 H1407 0.929 . S
C1419 C1413 1.390 . S
C1419 C1416 1.386 . S
C1420 C1415 1.490 . S
C1420 C1422 1.395 . S
C1420 C1423 1.403 . S
H1421 C1427 0.930 . S
C1422 H1408 0.930 . S
C1422 C1420 1.395 . S
C1422 C1425 1.403 . S
C1423 C1420 1.403 . S
C1423 C1424 1.524 . S
C1423 C1427 1.400 . S
C1424 H1409 0.960 . S
C1424 H1410 0.960 . S
C1424 H1411 0.960 . S
C1424 C1423 1.524 . S
C1425 C1422 1.403 . S
C1425 C1426 1.392 . S
C1425 C1429 1.495 . S
C1426 C1425 1.392 . S
C1426 C1427 1.385 . S
C1426 C1428 1.478 . S
C1427 H1421 0.930 . S
C1427 C1423 1.400 . S
C1427 C1426 1.385 . S
C1428 C1426 1.478 . S
C1428 C1430 1.381 . S
C1428 C1434 1.383 . S
C1429 C1425 1.495 . S
C1429 H1435 0.959 . S
C1429 H1436 0.961 . S
C1429 H1437 0.960 . S
C1430 C1428 1.381 . S
C1430 C1431 1.394 . S
C1430 H1438 0.930 . S
C1431 C1430 1.394 . S
C1431 C1432 1.383 . S
C1431 H1439 0.929 . S
C1432 C1431 1.383 . S
C1432 C1433 1.377 . S
C1433 H1417 0.930 . S
C1433 C1432 1.377 . S
C1433 C1434 1.379 . S
C1434 H1418 0.931 . S
C1434 C1428 1.383 . S
C1434 C1433 1.379 . S
H1435 C1429 0.959 . S
H1436 C1429 0.961 . S
H1437 C1429 0.960 . S
H1438 C1430 0.930 . S
H1439 C1431 0.929 . S
H1440 C1448 0.929 . S
H1441 C1450 0.930 . S
H1442 C1452 0.930 . S
H1443 C1455 0.929 . S
H1444 C1458 0.930 . S
H1445 C1460 0.960 . S
H1446 C1460 0.960 . S
H1447 C1460 0.960 . S
C1448 H1440 0.929 . S
C1448 C1449 1.377 . S
C1448 C1450 1.384 . S
C1449 C1448 1.377 . S
C1449 C1455 1.390 . S
C1450 H1441 0.930 . S
C1450 C1448 1.384 . S
C1450 C1451 1.372 . S
C1451 C1450 1.372 . S
C1451 C1452 1.400 . S
C1451 C1456 1.490 . S
C1452 H1442 0.930 . S
C1452 C1451 1.400 . S
C1452 C1455 1.386 . S
H1453 C1469 0.930 . S
H1454 C1470 0.931 . S
C1455 H1443 0.929 . S
C1455 C1449 1.390 . S
C1455 C1452 1.386 . S
C1456 C1451 1.490 . S
C1456 C1458 1.395 . S
C1456 C1459 1.403 . S
H1457 C1463 0.930 . S
C1458 H1444 0.930 . S
C1458 C1456 1.395 . S
C1458 C1461 1.403 . S
C1459 C1456 1.403 . S
C1459 C1460 1.524 . S
C1459 C1463 1.400 . S
C1460 H1445 0.960 . S
C1460 H1446 0.960 . S
C1460 H1447 0.960 . S
C1460 C1459 1.524 . S
C1461 C1458 1.403 . S
C1461 C1462 1.392 . S
C1461 C1465 1.495 . S
C1462 C1461 1.392 . S
C1462 C1463 1.385 . S
C1462 C1464 1.478 . S
C1463 H1457 0.930 . S
C1463 C1459 1.400 . S
C1463 C1462 1.385 . S
C1464 C1462 1.478 . S
C1464 C1466 1.381 . S
C1464 C1470 1.383 . S
C1465 C1461 1.495 . S
C1465 H1471 0.959 . S
C1465 H1472 0.961 . S
C1465 H1473 0.960 . S
C1466 C1464 1.381 . S
C1466 C1467 1.394 . S
C1466 H1474 0.930 . S
C1467 C1466 1.394 . S
C1467 C1468 1.383 . S
C1467 H1475 0.929 . S
C1468 C1467 1.383 . S
C1468 C1469 1.377 . S
C1469 H1453 0.930 . S
C1469 C1468 1.377 . S
C1469 C1470 1.379 . S
C1470 H1454 0.931 . S
C1470 C1464 1.383 . S
C1470 C1469 1.379 . S
H1471 C1465 0.959 . S
H1472 C1465 0.961 . S
H1473 C1465 0.960 . S
H1474 C1466 0.930 . S
H1475 C1467 0.929 . S
H1476 C1484 0.929 . S
H1477 C1486 0.930 . S
H1478 C1488 0.930 . S
H1479 C1491 0.929 . S
H1480 C1494 0.930 . S
H1481 C1496 0.960 . S
H1482 C1496 0.960 . S
H1483 C1496 0.960 . S
C1484 H1476 0.929 . S
C1484 C1485 1.377 . S
C1484 C1486 1.384 . S
C1485 C1484 1.377 . S
C1485 C1491 1.390 . S
C1486 H1477 0.930 . S
C1486 C1484 1.384 . S
C1486 C1487 1.372 . S
C1487 C1486 1.372 . S
C1487 C1488 1.400 . S
C1487 C1492 1.490 . S
C1488 H1478 0.930 . S
C1488 C1487 1.400 . S
C1488 C1491 1.386 . S
H1489 C1505 0.930 . S
H1490 C1506 0.931 . S
C1491 H1479 0.929 . S
C1491 C1485 1.390 . S
C1491 C1488 1.386 . S
C1492 C1487 1.490 . S
C1492 C1494 1.395 . S
C1492 C1495 1.403 . S
H1493 C1499 0.930 . S
C1494 H1480 0.930 . S
C1494 C1492 1.395 . S
C1494 C1497 1.403 . S
C1495 C1492 1.403 . S
C1495 C1496 1.524 . S
C1495 C1499 1.400 . S
C1496 H1481 0.960 . S
C1496 H1482 0.960 . S
C1496 H1483 0.960 . S
C1496 C1495 1.524 . S
C1497 C1494 1.403 . S
C1497 C1498 1.392 . S
C1497 C1501 1.495 . S
C1498 C1497 1.392 . S
C1498 C1499 1.385 . S
C1498 C1500 1.478 . S
C1499 H1493 0.930 . S
C1499 C1495 1.400 . S
C1499 C1498 1.385 . S
C1500 C1498 1.478 . S
C1500 C1502 1.381 . S
C1500 C1506 1.383 . S
C1501 C1497 1.495 . S
C1501 H1507 0.959 . S
C1501 H1508 0.961 . S
C1501 H1509 0.960 . S
C1502 C1500 1.381 . S
C1502 C1503 1.394 . S
C1502 H1510 0.930 . S
C1503 C1502 1.394 . S
C1503 C1504 1.383 . S
C1503 H1511 0.929 . S
C1504 C1503 1.383 . S
C1504 C1505 1.377 . S
C1505 H1489 0.930 . S
C1505 C1504 1.377 . S
C1505 C1506 1.379 . S
C1506 H1490 0.931 . S
C1506 C1500 1.383 . S
C1506 C1505 1.379 . S
H1507 C1501 0.959 . S
H1508 C1501 0.961 . S
H1509 C1501 0.960 . S
H1510 C1502 0.930 . S
H1511 C1503 0.929 . S
H1512 C1520 0.929 . S
H1513 C1522 0.930 . S
H1514 C1524 0.930 . S
H1515 C1527 0.929 . S
H1516 C1530 0.930 . S
H1517 C1532 0.960 . S
H1518 C1532 0.960 . S
H1519 C1532 0.960 . S
C1520 H1512 0.929 . S
C1520 C1521 1.377 . S
C1520 C1522 1.384 . S
C1521 C1520 1.377 . S
C1521 C1527 1.390 . S
C1522 H1513 0.930 . S
C1522 C1520 1.384 . S
C1522 C1523 1.372 . S
C1523 C1522 1.372 . S
C1523 C1524 1.400 . S
C1523 C1528 1.490 . S
C1524 H1514 0.930 . S
C1524 C1523 1.400 . S
C1524 C1527 1.386 . S
H1525 C1541 0.930 . S
H1526 C1542 0.931 . S
C1527 H1515 0.929 . S
C1527 C1521 1.390 . S
C1527 C1524 1.386 . S
C1528 C1523 1.490 . S
C1528 C1530 1.395 . S
C1528 C1531 1.403 . S
H1529 C1535 0.930 . S
C1530 H1516 0.930 . S
C1530 C1528 1.395 . S
C1530 C1533 1.403 . S
C1531 C1528 1.403 . S
C1531 C1532 1.524 . S
C1531 C1535 1.400 . S
C1532 H1517 0.960 . S
C1532 H1518 0.960 . S
C1532 H1519 0.960 . S
C1532 C1531 1.524 . S
C1533 C1530 1.403 . S
C1533 C1534 1.392 . S
C1533 C1537 1.495 . S
C1534 C1533 1.392 . S
C1534 C1535 1.385 . S
C1534 C1536 1.478 . S
C1535 H1529 0.930 . S
C1535 C1531 1.400 . S
C1535 C1534 1.385 . S
C1536 C1534 1.478 . S
C1536 C1538 1.381 . S
C1536 C1542 1.383 . S
C1537 C1533 1.495 . S
C1537 H1543 0.959 . S
C1537 H1544 0.961 . S
C1537 H1545 0.960 . S
C1538 C1536 1.381 . S
C1538 C1539 1.394 . S
C1538 H1546 0.930 . S
C1539 C1538 1.394 . S
C1539 C1540 1.383 . S
C1539 H1547 0.929 . S
C1540 C1539 1.383 . S
C1540 C1541 1.377 . S
C1541 H1525 0.930 . S
C1541 C1540 1.377 . S
C1541 C1542 1.379 . S
C1542 H1526 0.931 . S
C1542 C1536 1.383 . S
C1542 C1541 1.379 . S
H1543 C1537 0.959 . S
H1544 C1537 0.961 . S
H1545 C1537 0.960 . S
H1546 C1538 0.930 . S
H1547 C1539 0.929 . S
H1548 C1556 0.929 . S
H1549 C1558 0.930 . S
H1550 C1560 0.930 . S
H1551 C1563 0.929 . S
H1552 C1566 0.930 . S
H1553 C1568 0.960 . S
H1554 C1568 0.960 . S
H1555 C1568 0.960 . S
C1556 H1548 0.929 . S
C1556 C1557 1.377 . S
C1556 C1558 1.384 . S
C1557 C1556 1.377 . S
C1557 C1563 1.390 . S
C1558 H1549 0.930 . S
C1558 C1556 1.384 . S
C1558 C1559 1.372 . S
C1559 C1558 1.372 . S
C1559 C1560 1.400 . S
C1559 C1564 1.490 . S
C1560 H1550 0.930 . S
C1560 C1559 1.400 . S
C1560 C1563 1.386 . S
H1561 C1577 0.930 . S
H1562 C1578 0.931 . S
C1563 H1551 0.929 . S
C1563 C1557 1.390 . S
C1563 C1560 1.386 . S
C1564 C1559 1.490 . S
C1564 C1566 1.395 . S
C1564 C1567 1.403 . S
H1565 C1571 0.930 . S
C1566 H1552 0.930 . S
C1566 C1564 1.395 . S
C1566 C1569 1.403 . S
C1567 C1564 1.403 . S
C1567 C1568 1.524 . S
C1567 C1571 1.400 . S
C1568 H1553 0.960 . S
C1568 H1554 0.960 . S
C1568 H1555 0.960 . S
C1568 C1567 1.524 . S
C1569 C1566 1.403 . S
C1569 C1570 1.392 . S
C1569 C1573 1.495 . S
C1570 C1569 1.392 . S
C1570 C1571 1.385 . S
C1570 C1572 1.478 . S
C1571 H1565 0.930 . S
C1571 C1567 1.400 . S
C1571 C1570 1.385 . S
C1572 C1570 1.478 . S
C1572 C1574 1.381 . S
C1572 C1578 1.383 . S
C1573 C1569 1.495 . S
C1573 H1579 0.959 . S
C1573 H1580 0.961 . S
C1573 H1581 0.960 . S
C1574 C1572 1.381 . S
C1574 C1575 1.394 . S
C1574 H1582 0.930 . S
C1575 C1574 1.394 . S
C1575 C1576 1.383 . S
C1575 H1583 0.929 . S
C1576 C1575 1.383 . S
C1576 C1577 1.377 . S
C1577 H1561 0.930 . S
C1577 C1576 1.377 . S
C1577 C1578 1.379 . S
C1578 H1562 0.931 . S
C1578 C1572 1.383 . S
C1578 C1577 1.379 . S
H1579 C1573 0.959 . S
H1580 C1573 0.961 . S
H1581 C1573 0.960 . S
H1582 C1574 0.930 . S
H1583 C1575 0.929 . S
H1584 C1592 0.929 . S
H1585 C1594 0.930 . S
H1586 C1596 0.930 . S
H1587 C1599 0.929 . S
H1588 C1602 0.930 . S
H1589 C1604 0.960 . S
H1590 C1604 0.960 . S
H1591 C1604 0.960 . S
C1592 H1584 0.929 . S
C1592 C1593 1.377 . S
C1592 C1594 1.384 . S
C1593 C1592 1.377 . S
C1593 C1599 1.390 . S
C1594 H1585 0.930 . S
C1594 C1592 1.384 . S
C1594 C1595 1.372 . S
C1595 C1594 1.372 . S
C1595 C1596 1.400 . S
C1595 C1600 1.490 . S
C1596 H1586 0.930 . S
C1596 C1595 1.400 . S
C1596 C1599 1.386 . S
H1597 C1613 0.930 . S
H1598 C1614 0.931 . S
C1599 H1587 0.929 . S
C1599 C1593 1.390 . S
C1599 C1596 1.386 . S
C1600 C1595 1.490 . S
C1600 C1602 1.395 . S
C1600 C1603 1.403 . S
H1601 C1607 0.930 . S
C1602 H1588 0.930 . S
C1602 C1600 1.395 . S
C1602 C1605 1.403 . S
C1603 C1600 1.403 . S
C1603 C1604 1.524 . S
C1603 C1607 1.400 . S
C1604 H1589 0.960 . S
C1604 H1590 0.960 . S
C1604 H1591 0.960 . S
C1604 C1603 1.524 . S
C1605 C1602 1.403 . S
C1605 C1606 1.392 . S
C1605 C1609 1.495 . S
C1606 C1605 1.392 . S
C1606 C1607 1.385 . S
C1606 C1608 1.478 . S
C1607 H1601 0.930 . S
C1607 C1603 1.400 . S
C1607 C1606 1.385 . S
C1608 C1606 1.478 . S
C1608 C1610 1.381 . S
C1608 C1614 1.383 . S
C1609 C1605 1.495 . S
C1609 H1615 0.959 . S
C1609 H1616 0.961 . S
C1609 H1617 0.960 . S
C1610 C1608 1.381 . S
C1610 C1611 1.394 . S
C1610 H1618 0.930 . S
C1611 C1610 1.394 . S
C1611 C1612 1.383 . S
C1611 H1619 0.929 . S
C1612 C1611 1.383 . S
C1612 C1613 1.377 . S
C1613 H1597 0.930 . S
C1613 C1612 1.377 . S
C1613 C1614 1.379 . S
C1614 H1598 0.931 . S
C1614 C1608 1.383 . S
C1614 C1613 1.379 . S
H1615 C1609 0.959 . S
H1616 C1609 0.961 . S
H1617 C1609 0.960 . S
H1618 C1610 0.930 . S
H1619 C1611 0.929 . S
H1620 C1628 0.929 . S
H1621 C1630 0.930 . S
H1622 C1632 0.930 . S
H1623 C1635 0.929 . S
H1624 C1638 0.930 . S
H1625 C1640 0.960 . S
H1626 C1640 0.960 . S
H1627 C1640 0.960 . S
C1628 H1620 0.929 . S
C1628 C1629 1.377 . S
C1628 C1630 1.384 . S
C1629 C1628 1.377 . S
C1629 C1635 1.390 . S
C1630 H1621 0.930 . S
C1630 C1628 1.384 . S
C1630 C1631 1.372 . S
C1631 C1630 1.372 . S
C1631 C1632 1.400 . S
C1631 C1636 1.490 . S
C1632 H1622 0.930 . S
C1632 C1631 1.400 . S
C1632 C1635 1.386 . S
H1633 C1649 0.930 . S
H1634 C1650 0.931 . S
C1635 H1623 0.929 . S
C1635 C1629 1.390 . S
C1635 C1632 1.386 . S
C1636 C1631 1.490 . S
C1636 C1638 1.395 . S
C1636 C1639 1.403 . S
H1637 C1643 0.930 . S
C1638 H1624 0.930 . S
C1638 C1636 1.395 . S
C1638 C1641 1.403 . S
C1639 C1636 1.403 . S
C1639 C1640 1.524 . S
C1639 C1643 1.400 . S
C1640 H1625 0.960 . S
C1640 H1626 0.960 . S
C1640 H1627 0.960 . S
C1640 C1639 1.524 . S
C1641 C1638 1.403 . S
C1641 C1642 1.392 . S
C1641 C1645 1.495 . S
C1642 C1641 1.392 . S
C1642 C1643 1.385 . S
C1642 C1644 1.478 . S
C1643 H1637 0.930 . S
C1643 C1639 1.400 . S
C1643 C1642 1.385 . S
C1644 C1642 1.478 . S
C1644 C1646 1.381 . S
C1644 C1650 1.383 . S
C1645 C1641 1.495 . S
C1645 H1651 0.959 . S
C1645 H1652 0.961 . S
C1645 H1653 0.960 . S
C1646 C1644 1.381 . S
C1646 C1647 1.394 . S
C1646 H1654 0.930 . S
C1647 C1646 1.394 . S
C1647 C1648 1.383 . S
C1647 H1655 0.929 . S
C1648 C1647 1.383 . S
C1648 C1649 1.377 . S
C1649 H1633 0.930 . S
C1649 C1648 1.377 . S
C1649 C1650 1.379 . S
C1650 H1634 0.931 . S
C1650 C1644 1.383 . S
C1650 C1649 1.379 . S
H1651 C1645 0.959 . S
H1652 C1645 0.961 . S
H1653 C1645 0.960 . S
H1654 C1646 0.930 . S
H1655 C1647 0.929 . S
H1656 C1664 0.929 . S
H1657 C1666 0.930 . S
H1658 C1668 0.930 . S
H1659 C1671 0.929 . S
H1660 C1674 0.930 . S
H1661 C1676 0.944 1_655 S
H1662 C1676 0.982 . S
H1663 C1676 0.965 . S
C1664 H1656 0.929 . S
C1664 C1665 1.377 . S
C1664 C1666 1.384 . S
C1665 C1664 1.377 . S
C1665 C1671 1.390 . S
C1666 H1657 0.930 . S
C1666 C1664 1.384 . S
C1666 C1667 1.372 . S
C1667 C1666 1.372 . S
C1667 C1668 1.400 . S
C1667 C1672 1.490 . S
C1668 H1658 0.930 . S
C1668 C1667 1.400 . S
C1668 C1671 1.386 . S
H1669 C1685 0.930 . S
H1670 C1686 0.931 . S
C1671 H1659 0.929 . S
C1671 C1665 1.390 . S
C1671 C1668 1.386 . S
C1672 C1667 1.490 . S
C1672 C1674 1.395 . S
C1672 C1675 1.444 . S
H1673 C1679 0.930 . S
C1674 H1660 0.930 . S
C1674 C1672 1.395 . S
C1674 C1677 1.443 . S
C1675 C1672 1.444 . S
C1675 C1676 1.545 . S
C1675 C1679 1.328 1_455 S
C1676 H1661 0.944 1_455 S
C1676 H1662 0.982 . S
C1676 H1663 0.965 . S
C1676 C1675 1.545 . S
C1677 C1674 1.443 . S
C1677 C1678 1.371 1_455 S
C1677 C1681 1.509 . S
C1678 C1677 1.371 1_655 S
C1678 C1679 1.385 . S
C1678 C1680 1.478 . S
C1679 H1673 0.930 . S
C1679 C1675 1.328 1_655 S
C1679 C1678 1.385 . S
C1680 C1678 1.478 . S
C1680 C1682 1.381 . S
C1680 C1686 1.383 . S
C1681 C1677 1.509 . S
C1681 H1687 1.014 . S
C1681 H1688 0.891 1_455 S
C1681 H1689 0.952 1_455 S
C1682 C1680 1.381 . S
C1682 C1683 1.394 . S
C1682 H1690 0.930 . S
C1683 C1682 1.394 . S
C1683 C1684 1.383 . S
C1683 H1691 0.929 . S
C1684 C1683 1.383 . S
C1684 C1685 1.377 . S
C1685 H1669 0.930 . S
C1685 C1684 1.377 . S
C1685 C1686 1.379 . S
C1686 H1670 0.931 . S
C1686 C1680 1.383 . S
C1686 C1685 1.379 . S
H1687 C1681 1.014 . S
H1688 C1681 0.891 1_655 S
H1689 C1681 0.952 1_655 S
H1690 C1682 0.930 . S
H1691 C1683 0.929 . S
H1692 C1700 0.929 . S
H1693 C1702 0.930 . S
H1694 C1704 0.930 . S
H1695 C1707 0.929 . S
H1696 C1710 0.930 . S
H1697 C1712 0.960 . S
H1698 C1712 0.960 . S
H1699 C1712 0.960 . S
C1700 H1692 0.929 . S
C1700 C1701 1.377 . S
C1700 C1702 1.384 . S
C1701 C1700 1.377 . S
C1701 C1707 1.390 . S
C1702 H1693 0.930 . S
C1702 C1700 1.384 . S
C1702 C1703 1.372 . S
C1703 C1702 1.372 . S
C1703 C1704 1.400 . S
C1703 C1708 1.490 . S
C1704 H1694 0.930 . S
C1704 C1703 1.400 . S
C1704 C1707 1.386 . S
H1705 C1721 0.930 . S
H1706 C1722 0.931 . S
C1707 H1695 0.929 . S
C1707 C1701 1.390 . S
C1707 C1704 1.386 . S
C1708 C1703 1.490 . S
C1708 C1710 1.395 . S
C1708 C1711 1.403 . S
H1709 C1715 0.930 . S
C1710 H1696 0.930 . S
C1710 C1708 1.395 . S
C1710 C1713 1.403 . S
C1711 C1708 1.403 . S
C1711 C1712 1.524 . S
C1711 C1715 1.400 . S
C1712 H1697 0.960 . S
C1712 H1698 0.960 . S
C1712 H1699 0.960 . S
C1712 C1711 1.524 . S
C1713 C1710 1.403 . S
C1713 C1714 1.392 . S
C1713 C1717 1.495 . S
C1714 C1713 1.392 . S
C1714 C1715 1.385 . S
C1714 C1716 1.478 . S
C1715 H1709 0.930 . S
C1715 C1711 1.400 . S
C1715 C1714 1.385 . S
C1716 C1714 1.478 . S
C1716 C1718 1.381 . S
C1716 C1722 1.383 . S
C1717 C1713 1.495 . S
C1717 H1723 0.959 . S
C1717 H1724 0.961 . S
C1717 H1725 0.960 . S
C1718 C1716 1.381 . S
C1718 C1719 1.394 . S
C1718 H1726 0.930 . S
C1719 C1718 1.394 . S
C1719 C1720 1.383 . S
C1719 H1727 0.929 . S
C1720 C1719 1.383 . S
C1720 C1721 1.377 . S
C1721 H1705 0.930 . S
C1721 C1720 1.377 . S
C1721 C1722 1.379 . S
C1722 H1706 0.931 . S
C1722 C1716 1.383 . S
C1722 C1721 1.379 . S
H1723 C1717 0.959 . S
H1724 C1717 0.961 . S
H1725 C1717 0.960 . S
H1726 C1718 0.930 . S
H1727 C1719 0.929 . S
H1728 C1736 0.929 . S
H1729 C1738 0.930 . S
H1730 C1740 0.930 . S
H1731 C1743 0.929 . S
H1732 C1746 0.930 . S
H1733 C1748 0.960 . S
H1734 C1748 0.960 . S
H1735 C1748 0.960 . S
C1736 H1728 0.929 . S
C1736 C1737 1.377 . S
C1736 C1738 1.384 . S
C1737 C1736 1.377 . S
C1737 C1743 1.390 . S
C1738 H1729 0.930 . S
C1738 C1736 1.384 . S
C1738 C1739 1.372 . S
C1739 C1738 1.372 . S
C1739 C1740 1.400 . S
C1739 C1744 1.490 . S
C1740 H1730 0.930 . S
C1740 C1739 1.400 . S
C1740 C1743 1.386 . S
H1741 C1757 0.930 . S
H1742 C1758 0.931 . S
C1743 H1731 0.929 . S
C1743 C1737 1.390 . S
C1743 C1740 1.386 . S
C1744 C1739 1.490 . S
C1744 C1746 1.395 . S
C1744 C1747 1.403 . S
H1745 C1751 0.930 . S
C1746 H1732 0.930 . S
C1746 C1744 1.395 . S
C1746 C1749 1.403 1_545 S
C1747 C1744 1.403 . S
C1747 C1748 1.524 . S
C1747 C1751 1.400 1_545 S
C1748 H1733 0.960 . S
C1748 H1734 0.960 . S
C1748 H1735 0.960 . S
C1748 C1747 1.524 . S
C1749 C1746 1.403 1_565 S
C1749 C1750 1.392 . S
C1749 C1753 1.495 . S
C1750 C1749 1.392 . S
C1750 C1751 1.385 . S
C1750 C1752 1.478 . S
C1751 H1745 0.930 . S
C1751 C1747 1.400 1_565 S
C1751 C1750 1.385 . S
C1752 C1750 1.478 . S
C1752 C1754 1.381 . S
C1752 C1758 1.383 . S
C1753 C1749 1.495 . S
C1753 H1759 0.959 . S
C1753 H1760 0.961 . S
C1753 H1761 0.960 . S
C1754 C1752 1.381 . S
C1754 C1755 1.394 . S
C1754 H1762 0.930 . S
C1755 C1754 1.394 . S
C1755 C1756 1.383 . S
C1755 H1763 0.929 . S
C1756 C1755 1.383 . S
C1756 C1757 1.377 . S
C1757 H1741 0.930 . S
C1757 C1756 1.377 . S
C1757 C1758 1.379 . S
C1758 H1742 0.931 . S
C1758 C1752 1.383 . S
C1758 C1757 1.379 . S
H1759 C1753 0.959 . S
H1760 C1753 0.961 . S
H1761 C1753 0.960 . S
H1762 C1754 0.930 . S
H1763 C1755 0.929 . S
H1764 C1772 0.929 . S
H1765 C1774 0.930 . S
H1766 C1776 0.930 1_554 S
H1767 C1779 0.929 . S
H1768 C1782 0.930 . S
H1769 C1784 0.960 . S
H1770 C1784 0.960 . S
H1771 C1784 0.960 . S
C1772 H1764 0.929 . S
C1772 C1773 1.377 . S
C1772 C1774 1.384 . S
C1773 C1772 1.377 . S
C1773 C1779 1.390 . S
C1774 H1765 0.930 . S
C1774 C1772 1.384 . S
C1774 C1775 1.372 . S
C1775 C1774 1.372 . S
C1775 C1776 1.400 . S
C1775 C1780 1.490 . S
C1776 H1766 0.930 1_556 S
C1776 C1775 1.400 . S
C1776 C1779 1.386 . S
H1777 C1793 0.930 . S
H1778 C1794 0.931 . S
C1779 H1767 0.929 . S
C1779 C1773 1.390 . S
C1779 C1776 1.386 . S
C1780 C1775 1.490 . S
C1780 C1782 1.395 . S
C1780 C1783 1.403 1_556 S
H1781 C1787 0.930 . S
C1782 H1768 0.930 . S
C1782 C1780 1.395 . S
C1782 C1785 1.403 1_565 S
C1783 C1780 1.403 1_554 S
C1783 C1784 1.524 . S
C1783 C1787 1.400 1_565 S
C1784 H1769 0.960 . S
C1784 H1770 0.960 . S
C1784 H1771 0.960 . S
C1784 C1783 1.524 . S
C1785 C1782 1.403 1_545 S
C1785 C1786 1.392 1_556 S
C1785 C1789 1.495 . S
C1786 C1785 1.392 1_554 S
C1786 C1787 1.385 . S
C1786 C1788 1.478 . S
C1787 H1781 0.930 . S
C1787 C1783 1.400 1_545 S
C1787 C1786 1.385 . S
C1788 C1786 1.478 . S
C1788 C1790 1.381 . S
C1788 C1794 1.383 . S
C1789 C1785 1.495 . S
C1789 H1795 0.959 . S
C1789 H1796 0.961 . S
C1789 H1797 0.960 . S
C1790 C1788 1.381 . S
C1790 C1791 1.394 . S
C1790 H1798 0.930 1_554 S
C1791 C1790 1.394 . S
C1791 C1792 1.383 . S
C1791 H1799 0.929 . S
C1792 C1791 1.383 . S
C1792 C1793 1.377 . S
C1793 H1777 0.930 . S
C1793 C1792 1.377 . S
C1793 C1794 1.379 . S
C1794 H1778 0.931 . S
C1794 C1788 1.383 . S
C1794 C1793 1.379 . S
H1795 C1789 0.959 . S
H1796 C1789 0.961 . S
H1797 C1789 0.960 . S
H1798 C1790 0.930 1_556 S
H1799 C1791 0.929 . S
H1800 C1808 0.929 . S
H1801 C1810 0.930 1_556 S
H1802 C1812 0.930 . S
H1803 C1815 0.929 . S
H1804 C1818 0.930 . S
H1805 C1820 0.960 1_455 S
H1806 C1820 0.960 . S
H1807 C1820 0.960 . S
C1808 H1800 0.929 . S
C1808 C1809 1.377 . S
C1808 C1810 1.384 . S
C1809 C1808 1.377 . S
C1809 C1815 1.390 . S
C1810 H1801 0.930 1_554 S
C1810 C1808 1.384 . S
C1810 C1811 1.372 . S
C1811 C1810 1.372 . S
C1811 C1812 1.400 . S
C1811 C1816 1.490 . S
C1812 H1802 0.930 . S
C1812 C1811 1.400 . S
C1812 C1815 1.386 . S
H1813 C1829 0.930 . S
H1814 C1830 0.931 1_554 S
C1815 H1803 0.929 . S
C1815 C1809 1.390 . S
C1815 C1812 1.386 . S
C1816 C1811 1.490 . S
C1816 C1818 1.395 1_554 S
C1816 C1819 1.403 . S
H1817 C1823 0.930 . S
C1818 H1804 0.930 . S
C1818 C1816 1.395 1_556 S
C1818 C1821 1.356 1_655 S
C1819 C1816 1.403 . S
C1819 C1820 1.524 . S
C1819 C1823 1.400 1_654 S
C1820 H1805 0.960 1_655 S
C1820 H1806 0.960 . S
C1820 H1807 0.960 . S
C1820 C1819 1.524 . S
C1821 C1818 1.356 1_455 S
C1821 C1822 1.475 . S
C1821 C1825 1.463 . S
C1822 C1821 1.475 . S
C1822 C1823 1.385 . S
C1822 C1824 1.478 . S
C1823 H1817 0.930 . S
C1823 C1819 1.400 1_456 S
C1823 C1822 1.385 . S
C1824 C1822 1.478 . S
C1824 C1826 1.381 . S
C1824 C1830 1.383 . S
C1825 C1821 1.463 . S
C1825 H1831 0.959 1_455 S
C1825 H1832 0.961 . S
C1825 H1833 0.960 . S
C1826 C1824 1.381 . S
C1826 C1827 1.394 . S
C1826 H1834 0.930 . S
C1827 C1826 1.394 . S
C1827 C1828 1.383 . S
C1827 H1835 0.929 . S
C1828 C1827 1.383 . S
C1828 C1829 1.377 . S
C1829 H1813 0.930 . S
C1829 C1828 1.377 . S
C1829 C1830 1.379 . S
C1830 H1814 0.931 1_556 S
C1830 C1824 1.383 . S
C1830 C1829 1.379 . S
H1831 C1825 0.959 1_655 S
H1832 C1825 0.961 . S
H1833 C1825 0.960 . S
H1834 C1826 0.930 . S
H1835 C1827 0.929 . S
H1836 C1844 0.929 . S
H1837 C1846 0.930 . S
H1838 C1848 0.930 . S
H1839 C1851 0.929 . S
H1840 C1854 0.930 . S
H1841 C1856 0.960 . S
H1842 C1856 0.960 . S
H1843 C1856 0.960 . S
C1844 H1836 0.929 . S
C1844 C1845 1.377 . S
C1844 C1846 1.384 . S
C1845 C1844 1.377 . S
C1845 C1851 1.390 . S
C1846 H1837 0.930 . S
C1846 C1844 1.384 . S
C1846 C1847 1.372 . S
C1847 C1846 1.372 . S
C1847 C1848 1.400 . S
C1847 C1852 1.490 . S
C1848 H1838 0.930 . S
C1848 C1847 1.400 . S
C1848 C1851 1.386 . S
H1849 C1865 0.930 . S
H1850 C1866 0.931 . S
C1851 H1839 0.929 . S
C1851 C1845 1.390 . S
C1851 C1848 1.386 . S
C1852 C1847 1.490 . S
C1852 C1854 1.395 1_554 S
C1852 C1855 1.403 . S
H1853 C1859 0.930 . S
C1854 H1840 0.930 . S
C1854 C1852 1.395 1_556 S
C1854 C1857 1.403 . S
C1855 C1852 1.403 . S
C1855 C1856 1.524 . S
C1855 C1859 1.400 . S
C1856 H1841 0.960 . S
C1856 H1842 0.960 . S
C1856 H1843 0.960 . S
C1856 C1855 1.524 . S
C1857 C1854 1.403 . S
C1857 C1858 1.392 . S
C1857 C1861 1.495 . S
C1858 C1857 1.392 . S
C1858 C1859 1.385 1_556 S
C1858 C1860 1.478 . S
C1859 H1853 0.930 . S
C1859 C1855 1.400 . S
C1859 C1858 1.385 1_554 S
C1860 C1858 1.478 . S
C1860 C1862 1.381 . S
C1860 C1866 1.383 . S
C1861 C1857 1.495 . S
C1861 H1867 0.959 . S
C1861 H1868 0.961 . S
C1861 H1869 0.960 . S
C1862 C1860 1.381 . S
C1862 C1863 1.394 . S
C1862 H1870 0.930 . S
C1863 C1862 1.394 . S
C1863 C1864 1.383 . S
C1863 H1871 0.929 . S
C1864 C1863 1.383 . S
C1864 C1865 1.377 . S
C1865 H1849 0.930 . S
C1865 C1864 1.377 . S
C1865 C1866 1.379 . S
C1866 H1850 0.931 . S
C1866 C1860 1.383 . S
C1866 C1865 1.379 . S
H1867 C1861 0.959 . S
H1868 C1861 0.961 . S
H1869 C1861 0.960 . S
H1870 C1862 0.930 . S
H1871 C1863 0.929 . S
H1872 C1880 0.929 . S
H1873 C1882 0.930 . S
H1874 C1884 0.930 . S
H1875 C1887 0.929 . S
H1876 C1890 0.930 . S
H1877 C1892 0.960 . S
H1878 C1892 0.960 . S
H1879 C1892 0.960 . S
C1880 H1872 0.929 . S
C1880 C1881 1.377 . S
C1880 C1882 1.384 . S
C1881 C1880 1.377 . S
C1881 C1887 1.390 . S
C1882 H1873 0.930 . S
C1882 C1880 1.384 . S
C1882 C1883 1.372 . S
C1883 C1882 1.372 . S
C1883 C1884 1.400 . S
C1883 C1888 1.490 . S
C1884 H1874 0.930 . S
C1884 C1883 1.400 . S
C1884 C1887 1.386 . S
H1885 C1901 0.930 . S
H1886 C1902 0.931 . S
C1887 H1875 0.929 . S
C1887 C1881 1.390 . S
C1887 C1884 1.386 . S
C1888 C1883 1.490 . S
C1888 C1890 1.395 . S
C1888 C1891 1.403 . S
H1889 C1895 0.930 . S
C1890 H1876 0.930 . S
C1890 C1888 1.395 . S
C1890 C1893 1.403 . S
C1891 C1888 1.403 . S
C1891 C1892 1.524 . S
C1891 C1895 1.400 . S
C1892 H1877 0.960 . S
C1892 H1878 0.960 . S
C1892 H1879 0.960 . S
C1892 C1891 1.524 . S
C1893 C1890 1.403 . S
C1893 C1894 1.392 . S
C1893 C1897 1.495 . S
C1894 C1893 1.392 . S
C1894 C1895 1.385 . S
C1894 C1896 1.478 . S
C1895 H1889 0.930 . S
C1895 C1891 1.400 . S
C1895 C1894 1.385 . S
C1896 C1894 1.478 . S
C1896 C1898 1.381 . S
C1896 C1902 1.383 . S
C1897 C1893 1.495 . S
C1897 H1903 0.959 . S
C1897 H1904 0.961 . S
C1897 H1905 0.960 . S
C1898 C1896 1.381 . S
C1898 C1899 1.394 . S
C1898 H1906 0.930 . S
C1899 C1898 1.394 . S
C1899 C1900 1.383 . S
C1899 H1907 0.929 . S
C1900 C1899 1.383 . S
C1900 C1901 1.377 . S
C1901 H1885 0.930 . S
C1901 C1900 1.377 . S
C1901 C1902 1.379 . S
C1902 H1886 0.931 . S
C1902 C1896 1.383 . S
C1902 C1901 1.379 . S
H1903 C1897 0.959 . S
H1904 C1897 0.961 . S
H1905 C1897 0.960 . S
H1906 C1898 0.930 . S
H1907 C1899 0.929 . S
H1908 C1916 0.929 . S
H1909 C1918 0.930 . S
H1910 C1920 0.930 . S
H1911 C1923 0.929 . S
H1912 C1926 0.930 . S
H1913 C1928 0.960 . S
H1914 C1928 0.960 . S
H1915 C1928 0.960 . S
C1916 H1908 0.929 . S
C1916 C1917 1.377 . S
C1916 C1918 1.384 . S
C1917 C1916 1.377 . S
C1917 C1923 1.390 . S
C1918 H1909 0.930 . S
C1918 C1916 1.384 . S
C1918 C1919 1.372 . S
C1919 C1918 1.372 . S
C1919 C1920 1.400 . S
C1919 C1924 1.490 . S
C1920 H1910 0.930 . S
C1920 C1919 1.400 . S
C1920 C1923 1.386 . S
H1921 C1937 0.930 . S
H1922 C1938 0.931 . S
C1923 H1911 0.929 . S
C1923 C1917 1.390 . S
C1923 C1920 1.386 . S
C1924 C1919 1.490 . S
C1924 C1926 1.395 . S
C1924 C1927 1.403 . S
H1925 C1931 0.930 . S
C1926 H1912 0.930 . S
C1926 C1924 1.395 . S
C1926 C1929 1.403 1_565 S
C1927 C1924 1.403 . S
C1927 C1928 1.524 . S
C1927 C1931 1.400 1_565 S
C1928 H1913 0.960 . S
C1928 H1914 0.960 . S
C1928 H1915 0.960 . S
C1928 C1927 1.524 . S
C1929 C1926 1.403 1_545 S
C1929 C1930 1.392 . S
C1929 C1933 1.495 . S
C1930 C1929 1.392 . S
C1930 C1931 1.385 . S
C1930 C1932 1.478 . S
C1931 H1925 0.930 . S
C1931 C1927 1.400 1_545 S
C1931 C1930 1.385 . S
C1932 C1930 1.478 . S
C1932 C1934 1.381 . S
C1932 C1938 1.383 . S
C1933 C1929 1.495 . S
C1933 H1939 0.959 . S
C1933 H1940 0.961 . S
C1933 H1941 0.960 . S
C1934 C1932 1.381 . S
C1934 C1935 1.394 . S
C1934 H1942 0.930 . S
C1935 C1934 1.394 . S
C1935 C1936 1.383 . S
C1935 H1943 0.929 . S
C1936 C1935 1.383 . S
C1936 C1937 1.377 . S
C1937 H1921 0.930 . S
C1937 C1936 1.377 . S
C1937 C1938 1.379 . S
C1938 H1922 0.931 . S
C1938 C1932 1.383 . S
C1938 C1937 1.379 . S
H1939 C1933 0.959 . S
H1940 C1933 0.961 . S
H1941 C1933 0.960 . S
H1942 C1934 0.930 . S
H1943 C1935 0.929 . S
H1944 C1952 0.929 . S
H1945 C1954 0.930 . S
H1946 C1956 0.930 . S
H1947 C1959 0.929 . S
H1948 C1962 0.930 . S
H1949 C1964 0.960 . S
H1950 C1964 0.960 . S
H1951 C1964 0.960 . S
C1952 H1944 0.929 . S
C1952 C1953 1.377 . S
C1952 C1954 1.384 . S
C1953 C1952 1.377 . S
C1953 C1959 1.390 . S
C1954 H1945 0.930 . S
C1954 C1952 1.384 . S
C1954 C1955 1.372 . S
C1955 C1954 1.372 . S
C1955 C1956 1.400 . S
C1955 C1960 1.490 . S
C1956 H1946 0.930 . S
C1956 C1955 1.400 . S
C1956 C1959 1.386 . S
H1957 C1973 0.930 . S
H1958 C1974 0.931 . S
C1959 H1947 0.929 . S
C1959 C1953 1.390 . S
C1959 C1956 1.386 . S
C1960 C1955 1.490 . S
C1960 C1962 1.395 . S
C1960 C1963 1.403 . S
H1961 C1967 0.930 . S
C1962 H1948 0.930 . S
C1962 C1960 1.395 . S
C1962 C1965 1.403 1_655 S
C1963 C1960 1.403 . S
C1963 C1964 1.524 . S
C1963 C1967 1.400 1_655 S
C1964 H1949 0.960 . S
C1964 H1950 0.960 . S
C1964 H1951 0.960 . S
C1964 C1963 1.524 . S
C1965 C1962 1.403 1_455 S
C1965 C1966 1.392 . S
C1965 C1969 1.495 . S
C1966 C1965 1.392 . S
C1966 C1967 1.385 . S
C1966 C1968 1.478 . S
C1967 H1961 0.930 . S
C1967 C1963 1.400 1_455 S
C1967 C1966 1.385 . S
C1968 C1966 1.478 . S
C1968 C1970 1.381 . S
C1968 C1974 1.383 . S
C1969 C1965 1.495 . S
C1969 H1975 0.959 . S
C1969 H1976 0.961 . S
C1969 H1977 0.960 . S
C1970 C1968 1.381 . S
C1970 C1971 1.394 . S
C1970 H1978 0.930 . S
C1971 C1970 1.394 . S
C1971 C1972 1.383 . S
C1971 H1979 0.929 . S
C1972 C1971 1.383 . S
C1972 C1973 1.377 . S
C1973 H1957 0.930 . S
C1973 C1972 1.377 . S
C1973 C1974 1.379 . S
C1974 H1958 0.931 . S
C1974 C1968 1.383 . S
C1974 C1973 1.379 . S
H1975 C1969 0.959 . S
H1976 C1969 0.961 . S
H1977 C1969 0.960 . S
H1978 C1970 0.930 . S
H1979 C1971 0.929 . S
H1980 C1988 0.929 . S
H1981 C1990 0.930 . S
H1982 C1992 0.930 . S
H1983 C1995 0.929 . S
H1984 C1998 0.930 . S
H1985 C2000 0.960 . S
H1986 C2000 0.960 . S
H1987 C2000 0.960 . S
C1988 H1980 0.929 . S
C1988 C1989 1.377 . S
C1988 C1990 1.384 . S
C1989 C1988 1.377 . S
C1989 C1995 1.390 . S
C1990 H1981 0.930 . S
C1990 C1988 1.384 . S
C1990 C1991 1.372 . S
C1991 C1990 1.372 . S
C1991 C1992 1.400 . S
C1991 C1996 1.490 . S
C1992 H1982 0.930 . S
C1992 C1991 1.400 . S
C1992 C1995 1.386 . S
H1993 C2009 0.930 . S
H1994 C2010 0.931 . S
C1995 H1983 0.929 . S
C1995 C1989 1.390 . S
C1995 C1992 1.386 . S
C1996 C1991 1.490 . S
C1996 C1998 1.395 . S
C1996 C1999 1.403 . S
H1997 C2003 0.930 . S
C1998 H1984 0.930 . S
C1998 C1996 1.395 . S
C1998 C2001 1.403 . S
C1999 C1996 1.403 . S
C1999 C2000 1.524 . S
C1999 C2003 1.400 . S
C2000 H1985 0.960 . S
C2000 H1986 0.960 . S
C2000 H1987 0.960 . S
C2000 C1999 1.524 . S
C2001 C1998 1.403 . S
C2001 C2002 1.392 . S
C2001 C2005 1.495 . S
C2002 C2001 1.392 . S
C2002 C2003 1.385 . S
C2002 C2004 1.478 . S
C2003 H1997 0.930 . S
C2003 C1999 1.400 . S
C2003 C2002 1.385 . S
C2004 C2002 1.478 . S
C2004 C2006 1.381 . S
C2004 C2010 1.383 . S
C2005 C2001 1.495 . S
C2005 H2011 0.959 . S
C2005 H2012 0.961 . S
C2005 H2013 0.960 . S
C2006 C2004 1.381 . S
C2006 C2007 1.394 . S
C2006 H2014 0.930 . S
C2007 C2006 1.394 . S
C2007 C2008 1.383 . S
C2007 H2015 0.929 . S
C2008 C2007 1.383 . S
C2008 C2009 1.377 . S
C2009 H1993 0.930 . S
C2009 C2008 1.377 . S
C2009 C2010 1.379 . S
C2010 H1994 0.931 . S
C2010 C2004 1.383 . S
C2010 C2009 1.379 . S
H2011 C2005 0.959 . S
H2012 C2005 0.961 . S
H2013 C2005 0.960 . S
H2014 C2006 0.930 . S
H2015 C2007 0.929 . S
H2016 C2024 0.929 . S
H2017 C2026 0.930 . S
H2018 C2028 0.930 . S
H2019 C2031 0.929 . S
H2020 C2034 0.930 . S
H2021 C2036 0.960 . S
H2022 C2036 0.960 . S
H2023 C2036 0.960 . S
C2024 H2016 0.929 . S
C2024 C2025 1.377 . S
C2024 C2026 1.384 . S
C2025 C2024 1.377 . S
C2025 C2031 1.390 . S
C2026 H2017 0.930 . S
C2026 C2024 1.384 . S
C2026 C2027 1.372 . S
C2027 C2026 1.372 . S
C2027 C2028 1.400 . S
C2027 C2032 1.490 . S
C2028 H2018 0.930 . S
C2028 C2027 1.400 . S
C2028 C2031 1.386 . S
H2029 C2045 0.930 . S
H2030 C2046 0.931 . S
C2031 H2019 0.929 . S
C2031 C2025 1.390 . S
C2031 C2028 1.386 . S
C2032 C2027 1.490 . S
C2032 C2034 1.395 . S
C2032 C2035 1.403 . S
H2033 C2039 0.930 . S
C2034 H2020 0.930 . S
C2034 C2032 1.395 . S
C2034 C2037 1.403 1_565 S
C2035 C2032 1.403 . S
C2035 C2036 1.524 . S
C2035 C2039 1.400 1_565 S
C2036 H2021 0.960 . S
C2036 H2022 0.960 . S
C2036 H2023 0.960 . S
C2036 C2035 1.524 . S
C2037 C2034 1.403 1_545 S
C2037 C2038 1.392 . S
C2037 C2041 1.495 . S
C2038 C2037 1.392 . S
C2038 C2039 1.385 . S
C2038 C2040 1.478 . S
C2039 H2033 0.930 . S
C2039 C2035 1.400 1_545 S
C2039 C2038 1.385 . S
C2040 C2038 1.478 . S
C2040 C2042 1.381 . S
C2040 C2046 1.383 . S
C2041 C2037 1.495 . S
C2041 H2047 0.959 . S
C2041 H2048 0.961 . S
C2041 H2049 0.960 . S
C2042 C2040 1.381 . S
C2042 C2043 1.394 . S
C2042 H2050 0.930 . S
C2043 C2042 1.394 . S
C2043 C2044 1.383 . S
C2043 H2051 0.929 . S
C2044 C2043 1.383 . S
C2044 C2045 1.377 . S
C2045 H2029 0.930 . S
C2045 C2044 1.377 . S
C2045 C2046 1.379 . S
C2046 H2030 0.931 . S
C2046 C2040 1.383 . S
C2046 C2045 1.379 . S
H2047 C2041 0.959 . S
H2048 C2041 0.961 . S
H2049 C2041 0.960 . S
H2050 C2042 0.930 . S
H2051 C2043 0.929 . S
H2052 C2060 0.929 . S
H2053 C2062 0.930 . S
H2054 C2064 0.930 . S
H2055 C2067 0.929 . S
H2056 C2070 0.930 . S
H2057 C2072 0.960 . S
H2058 C2072 0.960 . S
H2059 C2072 0.960 . S
C2060 H2052 0.929 . S
C2060 C2061 1.377 . S
C2060 C2062 1.384 . S
C2061 C2060 1.377 . S
C2061 C2067 1.390 . S
C2062 H2053 0.930 . S
C2062 C2060 1.384 . S
C2062 C2063 1.372 . S
C2063 C2062 1.372 . S
C2063 C2064 1.400 . S
C2063 C2068 1.490 . S
C2064 H2054 0.930 . S
C2064 C2063 1.400 . S
C2064 C2067 1.386 . S
H2065 C2081 0.930 . S
H2066 C2082 0.931 . S
C2067 H2055 0.929 . S
C2067 C2061 1.390 . S
C2067 C2064 1.386 . S
C2068 C2063 1.490 . S
C2068 C2070 1.395 . S
C2068 C2071 1.403 . S
H2069 C2075 0.930 . S
C2070 H2056 0.930 . S
C2070 C2068 1.395 . S
C2070 C2073 1.403 1_655 S
C2071 C2068 1.403 . S
C2071 C2072 1.524 . S
C2071 C2075 1.400 1_655 S
C2072 H2057 0.960 . S
C2072 H2058 0.960 . S
C2072 H2059 0.960 . S
C2072 C2071 1.524 . S
C2073 C2070 1.403 1_455 S
C2073 C2074 1.392 . S
C2073 C2077 1.495 . S
C2074 C2073 1.392 . S
C2074 C2075 1.385 . S
C2074 C2076 1.478 . S
C2075 H2069 0.930 . S
C2075 C2071 1.400 1_455 S
C2075 C2074 1.385 . S
C2076 C2074 1.478 . S
C2076 C2078 1.381 . S
C2076 C2082 1.383 . S
C2077 C2073 1.495 . S
C2077 H2083 0.959 . S
C2077 H2084 0.961 . S
C2077 H2085 0.960 . S
C2078 C2076 1.381 . S
C2078 C2079 1.394 . S
C2078 H2086 0.930 . S
C2079 C2078 1.394 . S
C2079 C2080 1.383 . S
C2079 H2087 0.929 . S
C2080 C2079 1.383 . S
C2080 C2081 1.377 . S
C2081 H2065 0.930 . S
C2081 C2080 1.377 . S
C2081 C2082 1.379 . S
C2082 H2066 0.931 . S
C2082 C2076 1.383 . S
C2082 C2081 1.379 . S
H2083 C2077 0.959 . S
H2084 C2077 0.961 . S
H2085 C2077 0.960 . S
H2086 C2078 0.930 . S
H2087 C2079 0.929 . S
H2088 C2096 0.929 . S
H2089 C2098 0.930 . S
H2090 C2100 0.930 . S
H2091 C2103 0.929 . S
H2092 C2106 0.930 . S
H2093 C2108 0.960 . S
H2094 C2108 0.960 . S
H2095 C2108 0.960 . S
C2096 H2088 0.929 . S
C2096 C2097 1.377 . S
C2096 C2098 1.384 . S
C2097 C2096 1.377 . S
C2097 C2103 1.390 . S
C2098 H2089 0.930 . S
C2098 C2096 1.384 . S
C2098 C2099 1.372 . S
C2099 C2098 1.372 . S
C2099 C2100 1.400 . S
C2099 C2104 1.490 . S
C2100 H2090 0.930 . S
C2100 C2099 1.400 . S
C2100 C2103 1.386 . S
H2101 C2117 0.930 . S
H2102 C2118 0.931 . S
C2103 H2091 0.929 . S
C2103 C2097 1.390 . S
C2103 C2100 1.386 . S
C2104 C2099 1.490 . S
C2104 C2106 1.395 . S
C2104 C2107 1.403 . S
H2105 C2111 0.930 . S
C2106 H2092 0.930 . S
C2106 C2104 1.395 . S
C2106 C2109 1.403 . S
C2107 C2104 1.403 . S
C2107 C2108 1.524 . S
C2107 C2111 1.400 . S
C2108 H2093 0.960 . S
C2108 H2094 0.960 . S
C2108 H2095 0.960 . S
C2108 C2107 1.524 . S
C2109 C2106 1.403 . S
C2109 C2110 1.392 . S
C2109 C2113 1.495 . S
C2110 C2109 1.392 . S
C2110 C2111 1.385 . S
C2110 C2112 1.478 . S
C2111 H2105 0.930 . S
C2111 C2107 1.400 . S
C2111 C2110 1.385 . S
C2112 C2110 1.478 . S
C2112 C2114 1.381 . S
C2112 C2118 1.383 . S
C2113 C2109 1.495 . S
C2113 H2119 0.959 . S
C2113 H2120 0.961 . S
C2113 H2121 0.960 . S
C2114 C2112 1.381 . S
C2114 C2115 1.394 . S
C2114 H2122 0.930 . S
C2115 C2114 1.394 . S
C2115 C2116 1.383 . S
C2115 H2123 0.929 . S
C2116 C2115 1.383 . S
C2116 C2117 1.377 . S
C2117 H2101 0.930 . S
C2117 C2116 1.377 . S
C2117 C2118 1.379 . S
C2118 H2102 0.931 . S
C2118 C2112 1.383 . S
C2118 C2117 1.379 . S
H2119 C2113 0.959 . S
H2120 C2113 0.961 . S
H2121 C2113 0.960 . S
H2122 C2114 0.930 . S
H2123 C2115 0.929 . S
H2124 C2132 0.929 . S
H2125 C2134 0.930 . S
H2126 C2136 0.930 . S
H2127 C2139 0.929 . S
H2128 C2142 0.930 . S
H2129 C2144 0.960 . S
H2130 C2144 0.960 . S
H2131 C2144 0.960 . S
C2132 H2124 0.929 . S
C2132 C2133 1.377 . S
C2132 C2134 1.384 . S
C2133 C2132 1.377 . S
C2133 C2139 1.390 . S
C2134 H2125 0.930 . S
C2134 C2132 1.384 . S
C2134 C2135 1.372 . S
C2135 C2134 1.372 . S
C2135 C2136 1.400 . S
C2135 C2140 1.490 . S
C2136 H2126 0.930 . S
C2136 C2135 1.400 . S
C2136 C2139 1.386 . S
H2137 C2153 0.930 . S
H2138 C2154 0.931 . S
C2139 H2127 0.929 . S
C2139 C2133 1.390 . S
C2139 C2136 1.386 . S
C2140 C2135 1.490 . S
C2140 C2142 1.395 . S
C2140 C2143 1.403 . S
H2141 C2147 0.930 . S
C2142 H2128 0.930 . S
C2142 C2140 1.395 . S
C2142 C2145 1.403 . S
C2143 C2140 1.403 . S
C2143 C2144 1.524 . S
C2143 C2147 1.400 . S
C2144 H2129 0.960 . S
C2144 H2130 0.960 . S
C2144 H2131 0.960 . S
C2144 C2143 1.524 . S
C2145 C2142 1.403 . S
C2145 C2146 1.392 . S
C2145 C2149 1.495 . S
C2146 C2145 1.392 . S
C2146 C2147 1.385 . S
C2146 C2148 1.478 . S
C2147 H2141 0.930 . S
C2147 C2143 1.400 . S
C2147 C2146 1.385 . S
C2148 C2146 1.478 . S
C2148 C2150 1.381 . S
C2148 C2154 1.383 . S
C2149 C2145 1.495 . S
C2149 H2155 0.959 . S
C2149 H2156 0.961 . S
C2149 H2157 0.960 . S
C2150 C2148 1.381 . S
C2150 C2151 1.394 . S
C2150 H2158 0.930 . S
C2151 C2150 1.394 . S
C2151 C2152 1.383 . S
C2151 H2159 0.929 . S
C2152 C2151 1.383 . S
C2152 C2153 1.377 . S
C2153 H2137 0.930 . S
C2153 C2152 1.377 . S
C2153 C2154 1.379 . S
C2154 H2138 0.931 . S
C2154 C2148 1.383 . S
C2154 C2153 1.379 . S
H2155 C2149 0.959 . S
H2156 C2149 0.961 . S
H2157 C2149 0.960 . S
H2158 C2150 0.930 . S
H2159 C2151 0.929 . S
H2160 C2168 0.929 . S
H2161 C2170 0.930 . S
H2162 C2172 0.930 . S
H2163 C2175 0.929 . S
H2164 C2178 0.930 . S
H2165 C2180 0.960 . S
H2166 C2180 0.960 . S
H2167 C2180 0.960 . S
C2168 H2160 0.929 . S
C2168 C2169 1.377 . S
C2168 C2170 1.384 . S
C2169 C2168 1.377 . S
C2169 C2175 1.390 . S
C2170 H2161 0.930 . S
C2170 C2168 1.384 . S
C2170 C2171 1.372 . S
C2171 C2170 1.372 . S
C2171 C2172 1.400 . S
C2171 C2176 1.490 . S
C2172 H2162 0.930 . S
C2172 C2171 1.400 . S
C2172 C2175 1.386 . S
H2173 C2189 0.930 . S
H2174 C2190 0.931 . S
C2175 H2163 0.929 . S
C2175 C2169 1.390 . S
C2175 C2172 1.386 . S
C2176 C2171 1.490 . S
C2176 C2178 1.395 . S
C2176 C2179 1.403 . S
H2177 C2183 0.930 . S
C2178 H2164 0.930 . S
C2178 C2176 1.395 . S
C2178 C2181 1.403 . S
C2179 C2176 1.403 . S
C2179 C2180 1.524 . S
C2179 C2183 1.400 . S
C2180 H2165 0.960 . S
C2180 H2166 0.960 . S
C2180 H2167 0.960 . S
C2180 C2179 1.524 . S
C2181 C2178 1.403 . S
C2181 C2182 1.392 . S
C2181 C2185 1.495 . S
C2182 C2181 1.392 . S
C2182 C2183 1.385 . S
C2182 C2184 1.478 . S
C2183 H2177 0.930 . S
C2183 C2179 1.400 . S
C2183 C2182 1.385 . S
C2184 C2182 1.478 . S
C2184 C2186 1.381 . S
C2184 C2190 1.383 . S
C2185 C2181 1.495 . S
C2185 H2191 0.959 . S
C2185 H2192 0.961 . S
C2185 H2193 0.960 . S
C2186 C2184 1.381 . S
C2186 C2187 1.394 . S
C2186 H2194 0.930 . S
C2187 C2186 1.394 . S
C2187 C2188 1.383 . S
C2187 H2195 0.929 . S
C2188 C2187 1.383 . S
C2188 C2189 1.377 . S
C2189 H2173 0.930 . S
C2189 C2188 1.377 . S
C2189 C2190 1.379 . S
C2190 H2174 0.931 . S
C2190 C2184 1.383 . S
C2190 C2189 1.379 . S
H2191 C2185 0.959 . S
H2192 C2185 0.961 . S
H2193 C2185 0.960 . S
H2194 C2186 0.930 . S
H2195 C2187 0.929 . S
H2196 C2204 0.929 . S
H2197 C2206 0.930 . S
H2198 C2208 0.930 . S
H2199 C2211 0.929 . S
H2200 C2214 0.930 . S
H2201 C2216 0.960 . S
H2202 C2216 0.960 . S
H2203 C2216 0.960 . S
C2204 H2196 0.929 . S
C2204 C2205 1.377 . S
C2204 C2206 1.384 . S
C2205 C2204 1.377 . S
C2205 C2211 1.390 . S
C2206 H2197 0.930 . S
C2206 C2204 1.384 . S
C2206 C2207 1.372 . S
C2207 C2206 1.372 . S
C2207 C2208 1.400 . S
C2207 C2212 1.490 . S
C2208 H2198 0.930 . S
C2208 C2207 1.400 . S
C2208 C2211 1.386 . S
H2209 C2225 0.930 . S
H2210 C2226 0.931 . S
C2211 H2199 0.929 . S
C2211 C2205 1.390 . S
C2211 C2208 1.386 . S
C2212 C2207 1.490 . S
C2212 C2214 1.395 . S
C2212 C2215 1.403 . S
H2213 C2219 0.930 . S
C2214 H2200 0.930 . S
C2214 C2212 1.395 . S
C2214 C2217 1.403 . S
C2215 C2212 1.403 . S
C2215 C2216 1.524 . S
C2215 C2219 1.400 . S
C2216 H2201 0.960 . S
C2216 H2202 0.960 . S
C2216 H2203 0.960 . S
C2216 C2215 1.524 . S
C2217 C2214 1.403 . S
C2217 C2218 1.392 . S
C2217 C2221 1.495 . S
C2218 C2217 1.392 . S
C2218 C2219 1.385 . S
C2218 C2220 1.478 . S
C2219 H2213 0.930 . S
C2219 C2215 1.400 . S
C2219 C2218 1.385 . S
C2220 C2218 1.478 . S
C2220 C2222 1.381 . S
C2220 C2226 1.383 . S
C2221 C2217 1.495 . S
C2221 H2227 0.959 . S
C2221 H2228 0.961 . S
C2221 H2229 0.960 . S
C2222 C2220 1.381 . S
C2222 C2223 1.394 . S
C2222 H2230 0.930 . S
C2223 C2222 1.394 . S
C2223 C2224 1.383 . S
C2223 H2231 0.929 . S
C2224 C2223 1.383 . S
C2224 C2225 1.377 . S
C2225 H2209 0.930 . S
C2225 C2224 1.377 . S
C2225 C2226 1.379 . S
C2226 H2210 0.931 . S
C2226 C2220 1.383 . S
C2226 C2225 1.379 . S
H2227 C2221 0.959 . S
H2228 C2221 0.961 . S
H2229 C2221 0.960 . S
H2230 C2222 0.930 . S
H2231 C2223 0.929 . S
H2232 C2240 0.929 . S
H2233 C2242 0.930 . S
H2234 C2244 0.930 . S
H2235 C2247 0.929 . S
H2236 C2250 0.930 . S
H2237 C2252 0.960 . S
H2238 C2252 0.960 . S
H2239 C2252 0.960 . S
C2240 H2232 0.929 . S
C2240 C2241 1.377 . S
C2240 C2242 1.384 . S
C2241 C2240 1.377 . S
C2241 C2247 1.390 . S
C2242 H2233 0.930 . S
C2242 C2240 1.384 . S
C2242 C2243 1.372 . S
C2243 C2242 1.372 . S
C2243 C2244 1.400 . S
C2243 C2248 1.490 . S
C2244 H2234 0.930 . S
C2244 C2243 1.400 . S
C2244 C2247 1.386 . S
H2245 C2261 0.930 . S
H2246 C2262 0.931 . S
C2247 H2235 0.929 . S
C2247 C2241 1.390 . S
C2247 C2244 1.386 . S
C2248 C2243 1.490 . S
C2248 C2250 1.395 . S
C2248 C2251 1.403 . S
H2249 C2255 0.930 . S
C2250 H2236 0.930 . S
C2250 C2248 1.395 . S
C2250 C2253 1.403 . S
C2251 C2248 1.403 . S
C2251 C2252 1.524 . S
C2251 C2255 1.400 . S
C2252 H2237 0.960 . S
C2252 H2238 0.960 . S
C2252 H2239 0.960 . S
C2252 C2251 1.524 . S
C2253 C2250 1.403 . S
C2253 C2254 1.392 . S
C2253 C2257 1.495 . S
C2254 C2253 1.392 . S
C2254 C2255 1.385 . S
C2254 C2256 1.478 . S
C2255 H2249 0.930 . S
C2255 C2251 1.400 . S
C2255 C2254 1.385 . S
C2256 C2254 1.478 . S
C2256 C2258 1.381 . S
C2256 C2262 1.383 . S
C2257 C2253 1.495 . S
C2257 H2263 0.959 . S
C2257 H2264 0.961 . S
C2257 H2265 0.960 . S
C2258 C2256 1.381 . S
C2258 C2259 1.394 . S
C2258 H2266 0.930 . S
C2259 C2258 1.394 . S
C2259 C2260 1.383 . S
C2259 H2267 0.929 . S
C2260 C2259 1.383 . S
C2260 C2261 1.377 . S
C2261 H2245 0.930 . S
C2261 C2260 1.377 . S
C2261 C2262 1.379 . S
C2262 H2246 0.931 . S
C2262 C2256 1.383 . S
C2262 C2261 1.379 . S
H2263 C2257 0.959 . S
H2264 C2257 0.961 . S
H2265 C2257 0.960 . S
H2266 C2258 0.930 . S
H2267 C2259 0.929 . S
H2268 C2276 0.929 . S
H2269 C2278 0.930 . S
H2270 C2280 0.930 . S
H2271 C2283 0.929 . S
H2272 C2286 0.930 . S
H2273 C2288 0.960 . S
H2274 C2288 0.960 . S
H2275 C2288 0.960 . S
C2276 H2268 0.929 . S
C2276 C2277 1.377 . S
C2276 C2278 1.384 . S
C2277 C2276 1.377 . S
C2277 C2283 1.390 . S
C2278 H2269 0.930 . S
C2278 C2276 1.384 . S
C2278 C2279 1.372 . S
C2279 C2278 1.372 . S
C2279 C2280 1.400 . S
C2279 C2284 1.490 . S
C2280 H2270 0.930 . S
C2280 C2279 1.400 . S
C2280 C2283 1.386 . S
H2281 C2297 0.930 . S
H2282 C2298 0.931 . S
C2283 H2271 0.929 . S
C2283 C2277 1.390 . S
C2283 C2280 1.386 . S
C2284 C2279 1.490 . S
C2284 C2286 1.395 . S
C2284 C2287 1.403 . S
H2285 C2291 0.930 . S
C2286 H2272 0.930 . S
C2286 C2284 1.395 . S
C2286 C2289 1.403 . S
C2287 C2284 1.403 . S
C2287 C2288 1.524 . S
C2287 C2291 1.400 . S
C2288 H2273 0.960 . S
C2288 H2274 0.960 . S
C2288 H2275 0.960 . S
C2288 C2287 1.524 . S
C2289 C2286 1.403 . S
C2289 C2290 1.392 . S
C2289 C2293 1.495 . S
C2290 C2289 1.392 . S
C2290 C2291 1.385 . S
C2290 C2292 1.478 . S
C2291 H2285 0.930 . S
C2291 C2287 1.400 . S
C2291 C2290 1.385 . S
C2292 C2290 1.478 . S
C2292 C2294 1.381 . S
C2292 C2298 1.383 . S
C2293 C2289 1.495 . S
C2293 H2299 0.959 . S
C2293 H2300 0.961 . S
C2293 H2301 0.960 . S
C2294 C2292 1.381 . S
C2294 C2295 1.394 . S
C2294 H2302 0.930 . S
C2295 C2294 1.394 . S
C2295 C2296 1.383 . S
C2295 H2303 0.929 . S
C2296 C2295 1.383 . S
C2296 C2297 1.377 . S
C2297 H2281 0.930 . S
C2297 C2296 1.377 . S
C2297 C2298 1.379 . S
C2298 H2282 0.931 . S
C2298 C2292 1.383 . S
C2298 C2297 1.379 . S
H2299 C2293 0.959 . S
H2300 C2293 0.961 . S
H2301 C2293 0.960 . S
H2302 C2294 0.930 . S
H2303 C2295 0.929 . S
H2304 C2312 0.929 . S
H2305 C2314 0.930 . S
H2306 C2316 0.930 . S
H2307 C2319 0.929 . S
H2308 C2322 0.930 . S
H2309 C2324 0.960 . S
H2310 C2324 0.960 . S
H2311 C2324 0.960 . S
C2312 H2304 0.929 . S
C2312 C2313 1.377 . S
C2312 C2314 1.384 . S
C2313 C2312 1.377 . S
C2313 C2319 1.390 . S
C2314 H2305 0.930 . S
C2314 C2312 1.384 . S
C2314 C2315 1.372 . S
C2315 C2314 1.372 . S
C2315 C2316 1.400 . S
C2315 C2320 1.490 . S
C2316 H2306 0.930 . S
C2316 C2315 1.400 . S
C2316 C2319 1.386 . S
H2317 C2333 0.930 . S
H2318 C2334 0.931 . S
C2319 H2307 0.929 . S
C2319 C2313 1.390 . S
C2319 C2316 1.386 . S
C2320 C2315 1.490 . S
C2320 C2322 1.395 . S
C2320 C2323 1.403 . S
H2321 C2327 0.930 . S
C2322 H2308 0.930 . S
C2322 C2320 1.395 . S
C2322 C2325 1.403 . S
C2323 C2320 1.403 . S
C2323 C2324 1.524 . S
C2323 C2327 1.400 . S
C2324 H2309 0.960 . S
C2324 H2310 0.960 . S
C2324 H2311 0.960 . S
C2324 C2323 1.524 . S
C2325 C2322 1.403 . S
C2325 C2326 1.392 . S
C2325 C2329 1.495 . S
C2326 C2325 1.392 . S
C2326 C2327 1.385 . S
C2326 C2328 1.478 . S
C2327 H2321 0.930 . S
C2327 C2323 1.400 . S
C2327 C2326 1.385 . S
C2328 C2326 1.478 . S
C2328 C2330 1.381 . S
C2328 C2334 1.383 . S
C2329 C2325 1.495 . S
C2329 H2335 0.959 . S
C2329 H2336 0.961 . S
C2329 H2337 0.960 . S
C2330 C2328 1.381 . S
C2330 C2331 1.394 . S
C2330 H2338 0.930 . S
C2331 C2330 1.394 . S
C2331 C2332 1.383 . S
C2331 H2339 0.929 . S
C2332 C2331 1.383 . S
C2332 C2333 1.377 . S
C2333 H2317 0.930 . S
C2333 C2332 1.377 . S
C2333 C2334 1.379 . S
C2334 H2318 0.931 . S
C2334 C2328 1.383 . S
C2334 C2333 1.379 . S
H2335 C2329 0.959 . S
H2336 C2329 0.961 . S
H2337 C2329 0.960 . S
H2338 C2330 0.930 . S
H2339 C2331 0.929 . S
H2340 C2348 0.929 . S
H2341 C2350 0.930 . S
H2342 C2352 0.930 . S
H2343 C2355 0.929 . S
H2344 C2358 0.930 . S
H2345 C2360 0.960 1_554 S
H2346 C2360 0.960 . S
H2347 C2360 0.960 . S
C2348 H2340 0.929 . S
C2348 C2349 1.377 . S
C2348 C2350 1.384 . S
C2349 C2348 1.377 . S
C2349 C2355 1.390 . S
C2350 H2341 0.930 . S
C2350 C2348 1.384 . S
C2350 C2351 1.372 . S
C2351 C2350 1.372 . S
C2351 C2352 1.400 . S
C2351 C2356 1.490 . S
C2352 H2342 0.930 . S
C2352 C2351 1.400 . S
C2352 C2355 1.386 . S
H2353 C2369 0.930 . S
H2354 C2370 0.931 . S
C2355 H2343 0.929 . S
C2355 C2349 1.390 . S
C2355 C2352 1.386 . S
C2356 C2351 1.490 . S
C2356 C2358 1.395 . S
C2356 C2359 1.403 . S
H2357 C2363 0.930 . S
C2358 H2344 0.930 . S
C2358 C2356 1.395 . S
C2358 C2361 1.403 . S
C2359 C2356 1.403 . S
C2359 C2360 1.524 . S
C2359 C2363 1.400 . S
C2360 H2345 0.960 1_556 S
C2360 H2346 0.960 . S
C2360 H2347 0.960 . S
C2360 C2359 1.524 . S
C2361 C2358 1.403 . S
C2361 C2362 1.392 . S
C2361 C2365 1.495 . S
C2362 C2361 1.392 . S
C2362 C2363 1.385 . S
C2362 C2364 1.478 . S
C2363 H2357 0.930 . S
C2363 C2359 1.400 . S
C2363 C2362 1.385 . S
C2364 C2362 1.478 . S
C2364 C2366 1.381 . S
C2364 C2370 1.383 . S
C2365 C2361 1.495 . S
C2365 H2371 0.959 . S
C2365 H2372 0.961 . S
C2365 H2373 0.960 . S
C2366 C2364 1.381 . S
C2366 C2367 1.394 . S
C2366 H2374 0.930 . S
C2367 C2366 1.394 . S
C2367 C2368 1.383 . S
C2367 H2375 0.929 . S
C2368 C2367 1.383 . S
C2368 C2369 1.377 . S
C2369 H2353 0.930 . S
C2369 C2368 1.377 . S
C2369 C2370 1.379 . S
C2370 H2354 0.931 . S
C2370 C2364 1.383 . S
C2370 C2369 1.379 . S
H2371 C2365 0.959 . S
H2372 C2365 0.961 . S
H2373 C2365 0.960 . S
H2374 C2366 0.930 . S
H2375 C2367 0.929 . S
H2376 C2384 0.929 . S
H2377 C2386 0.930 . S
H2378 C2388 0.930 . S
H2379 C2391 0.929 . S
H2380 C2394 0.930 . S
H2381 C2396 0.960 . S
H2382 C2396 0.960 . S
H2383 C2396 0.960 . S
C2384 H2376 0.929 . S
C2384 C2385 1.377 . S
C2384 C2386 1.384 . S
C2385 C2384 1.377 . S
C2385 C2391 1.390 . S
C2386 H2377 0.930 . S
C2386 C2384 1.384 . S
C2386 C2387 1.372 . S
C2387 C2386 1.372 . S
C2387 C2388 1.400 . S
C2387 C2392 1.490 . S
C2388 H2378 0.930 . S
C2388 C2387 1.400 . S
C2388 C2391 1.386 . S
H2389 C2405 0.930 . S
H2390 C2406 0.931 . S
C2391 H2379 0.929 . S
C2391 C2385 1.390 . S
C2391 C2388 1.386 . S
C2392 C2387 1.490 . S
C2392 C2394 1.395 . S
C2392 C2395 1.403 . S
H2393 C2399 0.930 . S
C2394 H2380 0.930 . S
C2394 C2392 1.395 . S
C2394 C2397 1.403 . S
C2395 C2392 1.403 . S
C2395 C2396 1.524 . S
C2395 C2399 1.400 . S
C2396 H2381 0.960 . S
C2396 H2382 0.960 . S
C2396 H2383 0.960 . S
C2396 C2395 1.524 . S
C2397 C2394 1.403 . S
C2397 C2398 1.392 . S
C2397 C2401 1.495 . S
C2398 C2397 1.392 . S
C2398 C2399 1.385 . S
C2398 C2400 1.478 . S
C2399 H2393 0.930 . S
C2399 C2395 1.400 . S
C2399 C2398 1.385 . S
C2400 C2398 1.478 . S
C2400 C2402 1.381 . S
C2400 C2406 1.383 . S
C2401 C2397 1.495 . S
C2401 H2407 0.959 . S
C2401 H2408 0.961 . S
C2401 H2409 0.960 . S
C2402 C2400 1.381 . S
C2402 C2403 1.394 . S
C2402 H2410 0.930 . S
C2403 C2402 1.394 . S
C2403 C2404 1.383 . S
C2403 H2411 0.929 . S
C2404 C2403 1.383 . S
C2404 C2405 1.377 . S
C2405 H2389 0.930 . S
C2405 C2404 1.377 . S
C2405 C2406 1.379 . S
C2406 H2390 0.931 . S
C2406 C2400 1.383 . S
C2406 C2405 1.379 . S
H2407 C2401 0.959 . S
H2408 C2401 0.961 . S
H2409 C2401 0.960 . S
H2410 C2402 0.930 . S
H2411 C2403 0.929 . S
H2412 C2420 0.929 . S
H2413 C2422 0.930 . S
H2414 C2424 0.930 . S
H2415 C2427 0.929 . S
H2416 C2430 0.930 . S
H2417 C2432 0.960 . S
H2418 C2432 0.960 . S
H2419 C2432 0.960 . S
C2420 H2412 0.929 . S
C2420 C2421 1.377 . S
C2420 C2422 1.384 . S
C2421 C2420 1.377 . S
C2421 C2427 1.390 . S
C2422 H2413 0.930 . S
C2422 C2420 1.384 . S
C2422 C2423 1.372 . S
C2423 C2422 1.372 . S
C2423 C2424 1.400 . S
C2423 C2428 1.490 . S
C2424 H2414 0.930 . S
C2424 C2423 1.400 . S
C2424 C2427 1.386 . S
H2425 C2441 0.930 . S
H2426 C2442 0.931 . S
C2427 H2415 0.929 . S
C2427 C2421 1.390 . S
C2427 C2424 1.386 . S
C2428 C2423 1.490 . S
C2428 C2430 1.395 . S
C2428 C2431 1.403 . S
H2429 C2435 0.930 . S
C2430 H2416 0.930 . S
C2430 C2428 1.395 . S
C2430 C2433 1.403 . S
C2431 C2428 1.403 . S
C2431 C2432 1.524 . S
C2431 C2435 1.400 . S
C2432 H2417 0.960 . S
C2432 H2418 0.960 . S
C2432 H2419 0.960 . S
C2432 C2431 1.524 . S
C2433 C2430 1.403 . S
C2433 C2434 1.392 . S
C2433 C2437 1.495 . S
C2434 C2433 1.392 . S
C2434 C2435 1.385 . S
C2434 C2436 1.478 . S
C2435 H2429 0.930 . S
C2435 C2431 1.400 . S
C2435 C2434 1.385 . S
C2436 C2434 1.478 . S
C2436 C2438 1.381 . S
C2436 C2442 1.383 . S
C2437 C2433 1.495 . S
C2437 H2443 0.959 . S
C2437 H2444 0.961 . S
C2437 H2445 0.960 . S
C2438 C2436 1.381 . S
C2438 C2439 1.394 . S
C2438 H2446 0.930 . S
C2439 C2438 1.394 . S
C2439 C2440 1.383 . S
C2439 H2447 0.929 . S
C2440 C2439 1.383 . S
C2440 C2441 1.377 . S
C2441 H2425 0.930 . S
C2441 C2440 1.377 . S
C2441 C2442 1.379 . S
C2442 H2426 0.931 . S
C2442 C2436 1.383 . S
C2442 C2441 1.379 . S
H2443 C2437 0.959 . S
H2444 C2437 0.961 . S
H2445 C2437 0.960 . S
H2446 C2438 0.930 . S
H2447 C2439 0.929 . S
H2448 C2456 0.929 . S
H2449 C2458 0.930 . S
H2450 C2460 0.930 . S
H2451 C2463 0.929 . S
H2452 C2466 0.930 . S
H2453 C2468 0.960 . S
H2454 C2468 0.960 . S
H2455 C2468 0.960 . S
C2456 H2448 0.929 . S
C2456 C2457 1.377 . S
C2456 C2458 1.384 . S
C2457 C2456 1.377 . S
C2457 C2463 1.390 . S
C2458 H2449 0.930 . S
C2458 C2456 1.384 . S
C2458 C2459 1.372 . S
C2459 C2458 1.372 . S
C2459 C2460 1.400 . S
C2459 C2464 1.490 . S
C2460 H2450 0.930 . S
C2460 C2459 1.400 . S
C2460 C2463 1.386 . S
H2461 C2477 0.930 . S
H2462 C2478 0.931 . S
C2463 H2451 0.929 . S
C2463 C2457 1.390 . S
C2463 C2460 1.386 . S
C2464 C2459 1.490 . S
C2464 C2466 1.395 . S
C2464 C2467 1.403 . S
H2465 C2471 0.930 . S
C2466 H2452 0.930 . S
C2466 C2464 1.395 . S
C2466 C2469 1.403 . S
C2467 C2464 1.403 . S
C2467 C2468 1.524 . S
C2467 C2471 1.400 . S
C2468 H2453 0.960 . S
C2468 H2454 0.960 . S
C2468 H2455 0.960 . S
C2468 C2467 1.524 . S
C2469 C2466 1.403 . S
C2469 C2470 1.392 . S
C2469 C2473 1.495 . S
C2470 C2469 1.392 . S
C2470 C2471 1.385 . S
C2470 C2472 1.478 . S
C2471 H2465 0.930 . S
C2471 C2467 1.400 . S
C2471 C2470 1.385 . S
C2472 C2470 1.478 . S
C2472 C2474 1.381 . S
C2472 C2478 1.383 . S
C2473 C2469 1.495 . S
C2473 H2479 0.959 . S
C2473 H2480 0.961 . S
C2473 H2481 0.960 . S
C2474 C2472 1.381 . S
C2474 C2475 1.394 . S
C2474 H2482 0.930 . S
C2475 C2474 1.394 . S
C2475 C2476 1.383 . S
C2475 H2483 0.929 . S
C2476 C2475 1.383 . S
C2476 C2477 1.377 . S
C2477 H2461 0.930 . S
C2477 C2476 1.377 . S
C2477 C2478 1.379 . S
C2478 H2462 0.931 . S
C2478 C2472 1.383 . S
C2478 C2477 1.379 . S
H2479 C2473 0.959 . S
H2480 C2473 0.961 . S
H2481 C2473 0.960 . S
H2482 C2474 0.930 . S
H2483 C2475 0.929 . S
H2484 C2492 0.929 . S
H2485 C2494 0.930 . S
H2486 C2496 0.930 . S
H2487 C2499 0.929 . S
H2488 C2502 0.930 . S
H2489 C2504 0.960 . S
H2490 C2504 0.960 . S
H2491 C2504 0.960 . S
C2492 H2484 0.929 . S
C2492 C2493 1.377 . S
C2492 C2494 1.384 . S
C2493 C2492 1.377 . S
C2493 C2499 1.390 . S
C2494 H2485 0.930 . S
C2494 C2492 1.384 . S
C2494 C2495 1.372 . S
C2495 C2494 1.372 . S
C2495 C2496 1.400 . S
C2495 C2500 1.490 . S
C2496 H2486 0.930 . S
C2496 C2495 1.400 . S
C2496 C2499 1.386 . S
H2497 C2513 0.930 . S
H2498 C2514 0.931 . S
C2499 H2487 0.929 . S
C2499 C2493 1.390 . S
C2499 C2496 1.386 . S
C2500 C2495 1.490 . S
C2500 C2502 1.395 . S
C2500 C2503 1.403 . S
H2501 C2507 0.930 . S
C2502 H2488 0.930 . S
C2502 C2500 1.395 . S
C2502 C2505 1.403 . S
C2503 C2500 1.403 . S
C2503 C2504 1.524 . S
C2503 C2507 1.400 . S
C2504 H2489 0.960 . S
C2504 H2490 0.960 . S
C2504 H2491 0.960 . S
C2504 C2503 1.524 . S
C2505 C2502 1.403 . S
C2505 C2506 1.392 . S
C2505 C2509 1.495 . S
C2506 C2505 1.392 . S
C2506 C2507 1.385 . S
C2506 C2508 1.478 . S
C2507 H2501 0.930 . S
C2507 C2503 1.400 . S
C2507 C2506 1.385 . S
C2508 C2506 1.478 . S
C2508 C2510 1.381 . S
C2508 C2514 1.383 . S
C2509 C2505 1.495 . S
C2509 H2515 0.959 . S
C2509 H2516 0.961 . S
C2509 H2517 0.960 . S
C2510 C2508 1.381 . S
C2510 C2511 1.394 . S
C2510 H2518 0.930 . S
C2511 C2510 1.394 . S
C2511 C2512 1.383 . S
C2511 H2519 0.929 . S
C2512 C2511 1.383 . S
C2512 C2513 1.377 . S
C2513 H2497 0.930 . S
C2513 C2512 1.377 . S
C2513 C2514 1.379 . S
C2514 H2498 0.931 . S
C2514 C2508 1.383 . S
C2514 C2513 1.379 . S
H2515 C2509 0.959 . S
H2516 C2509 0.961 . S
H2517 C2509 0.960 . S
H2518 C2510 0.930 . S
H2519 C2511 0.929 . S
H2520 C2528 0.929 . S
H2521 C2530 0.930 . S
H2522 C2532 0.930 . S
H2523 C2535 0.929 . S
H2524 C2538 0.930 . S
H2525 C2540 0.960 . S
H2526 C2540 0.960 . S
H2527 C2540 0.960 . S
C2528 H2520 0.929 . S
C2528 C2529 1.377 . S
C2528 C2530 1.384 . S
C2529 C2528 1.377 . S
C2529 C2535 1.390 . S
C2530 H2521 0.930 . S
C2530 C2528 1.384 . S
C2530 C2531 1.372 . S
C2531 C2530 1.372 . S
C2531 C2532 1.400 . S
C2531 C2536 1.490 . S
C2532 H2522 0.930 . S
C2532 C2531 1.400 . S
C2532 C2535 1.386 . S
H2533 C2549 0.930 . S
H2534 C2550 0.931 . S
C2535 H2523 0.929 . S
C2535 C2529 1.390 . S
C2535 C2532 1.386 . S
C2536 C2531 1.490 . S
C2536 C2538 1.395 . S
C2536 C2539 1.403 . S
H2537 C2543 0.930 . S
C2538 H2524 0.930 . S
C2538 C2536 1.395 . S
C2538 C2541 1.403 . S
C2539 C2536 1.403 . S
C2539 C2540 1.524 . S
C2539 C2543 1.400 1_556 S
C2540 H2525 0.960 . S
C2540 H2526 0.960 . S
C2540 H2527 0.960 . S
C2540 C2539 1.524 . S
C2541 C2538 1.403 . S
C2541 C2542 1.392 1_556 S
C2541 C2545 1.495 1_556 S
C2542 C2541 1.392 1_554 S
C2542 C2543 1.385 . S
C2542 C2544 1.478 . S
C2543 H2537 0.930 . S
C2543 C2539 1.400 1_554 S
C2543 C2542 1.385 . S
C2544 C2542 1.478 . S
C2544 C2546 1.381 . S
C2544 C2550 1.383 . S
C2545 C2541 1.495 1_554 S
C2545 H2551 0.959 1_554 S
C2545 H2552 0.961 . S
C2545 H2553 0.960 . S
C2546 C2544 1.381 . S
C2546 C2547 1.394 . S
C2546 H2554 0.930 . S
C2547 C2546 1.394 . S
C2547 C2548 1.383 . S
C2547 H2555 0.929 . S
C2548 C2547 1.383 . S
C2548 C2549 1.377 . S
C2549 H2533 0.930 . S
C2549 C2548 1.377 . S
C2549 C2550 1.379 . S
C2550 H2534 0.931 . S
C2550 C2544 1.383 . S
C2550 C2549 1.379 . S
H2551 C2545 0.959 1_556 S
H2552 C2545 0.961 . S
H2553 C2545 0.960 . S
H2554 C2546 0.930 . S
H2555 C2547 0.929 . S
H2556 C2564 0.929 . S
H2557 C2566 0.930 . S
H2558 C2568 0.930 . S
H2559 C2571 0.929 . S
H2560 C2574 0.930 . S
H2561 C2576 0.960 . S
H2562 C2576 0.960 . S
H2563 C2576 0.960 . S
C2564 H2556 0.929 . S
C2564 C2565 1.377 . S
C2564 C2566 1.384 . S
C2565 C2564 1.377 . S
C2565 C2571 1.390 . S
C2566 H2557 0.930 . S
C2566 C2564 1.384 . S
C2566 C2567 1.372 . S
C2567 C2566 1.372 . S
C2567 C2568 1.400 . S
C2567 C2572 1.490 . S
C2568 H2558 0.930 . S
C2568 C2567 1.400 . S
C2568 C2571 1.386 . S
H2569 C2585 0.930 . S
H2570 C2586 0.931 . S
C2571 H2559 0.929 . S
C2571 C2565 1.390 . S
C2571 C2568 1.386 . S
C2572 C2567 1.490 . S
C2572 C2574 1.395 . S
C2572 C2575 1.403 . S
H2573 C2579 0.930 . S
C2574 H2560 0.930 . S
C2574 C2572 1.395 . S
C2574 C2577 1.403 1_556 S
C2575 C2572 1.403 . S
C2575 C2576 1.524 . S
C2575 C2579 1.400 . S
C2576 H2561 0.960 . S
C2576 H2562 0.960 . S
C2576 H2563 0.960 . S
C2576 C2575 1.524 . S
C2577 C2574 1.403 1_554 S
C2577 C2578 1.392 . S
C2577 C2581 1.495 . S
C2578 C2577 1.392 . S
C2578 C2579 1.385 1_554 S
C2578 C2580 1.478 . S
C2579 H2573 0.930 . S
C2579 C2575 1.400 . S
C2579 C2578 1.385 1_556 S
C2580 C2578 1.478 . S
C2580 C2582 1.381 . S
C2580 C2586 1.383 . S
C2581 C2577 1.495 . S
C2581 H2587 0.959 . S
C2581 H2588 0.961 . S
C2581 H2589 0.960 . S
C2582 C2580 1.381 . S
C2582 C2583 1.394 . S
C2582 H2590 0.930 . S
C2583 C2582 1.394 . S
C2583 C2584 1.383 . S
C2583 H2591 0.929 . S
C2584 C2583 1.383 . S
C2584 C2585 1.377 . S
C2585 H2569 0.930 . S
C2585 C2584 1.377 . S
C2585 C2586 1.379 . S
C2586 H2570 0.931 . S
C2586 C2580 1.383 . S
C2586 C2585 1.379 . S
H2587 C2581 0.959 . S
H2588 C2581 0.961 . S
H2589 C2581 0.960 . S
H2590 C2582 0.930 . S
H2591 C2583 0.929 . S
H2592 C2600 0.929 . S
H2593 C2602 0.930 . S
H2594 C2604 0.930 . S
H2595 C2607 0.929 . S
H2596 C2610 0.930 . S
H2597 C2612 0.960 . S
H2598 C2612 0.960 . S
H2599 C2612 0.960 . S
C2600 H2592 0.929 . S
C2600 C2601 1.377 . S
C2600 C2602 1.384 . S
C2601 C2600 1.377 . S
C2601 C2607 1.390 . S
C2602 H2593 0.930 . S
C2602 C2600 1.384 . S
C2602 C2603 1.372 . S
C2603 C2602 1.372 . S
C2603 C2604 1.400 . S
C2603 C2608 1.490 . S
C2604 H2594 0.930 . S
C2604 C2603 1.400 . S
C2604 C2607 1.386 . S
H2605 C2621 0.930 . S
H2606 C2622 0.931 . S
C2607 H2595 0.929 . S
C2607 C2601 1.390 . S
C2607 C2604 1.386 . S
C2608 C2603 1.490 . S
C2608 C2610 1.395 . S
C2608 C2611 1.403 . S
H2609 C2615 0.930 . S
C2610 H2596 0.930 . S
C2610 C2608 1.395 . S
C2610 C2613 1.403 . S
C2611 C2608 1.403 . S
C2611 C2612 1.524 . S
C2611 C2615 1.400 1_556 S
C2612 H2597 0.960 . S
C2612 H2598 0.960 . S
C2612 H2599 0.960 . S
C2612 C2611 1.524 . S
C2613 C2610 1.403 . S
C2613 C2614 1.392 1_556 S
C2613 C2617 1.495 1_556 S
C2614 C2613 1.392 1_554 S
C2614 C2615 1.385 . S
C2614 C2616 1.478 . S
C2615 H2609 0.930 . S
C2615 C2611 1.400 1_554 S
C2615 C2614 1.385 . S
C2616 C2614 1.478 . S
C2616 C2618 1.381 . S
C2616 C2622 1.383 . S
C2617 C2613 1.495 1_554 S
C2617 H2623 0.960 1_554 S
C2617 H2624 0.960 . S
C2617 H2625 0.959 . S
C2618 C2616 1.381 . S
C2618 C2619 1.394 . S
C2618 H2626 0.930 . S
C2619 C2618 1.394 . S
C2619 C2620 1.383 . S
C2619 H2627 0.929 . S
C2620 C2619 1.383 . S
C2620 C2621 1.377 . S
C2621 H2605 0.930 . S
C2621 C2620 1.377 . S
C2621 C2622 1.379 . S
C2622 H2606 0.931 . S
C2622 C2616 1.383 . S
C2622 C2621 1.379 . S
H2623 C2617 0.960 1_556 S
H2624 C2617 0.960 . S
H2625 C2617 0.959 . S
H2626 C2618 0.930 . S
H2627 C2619 0.929 . S
H2628 C2636 0.929 . S
H2629 C2638 0.930 . S
H2630 C2640 0.930 . S
H2631 C2643 0.929 . S
H2632 C2646 0.930 . S
H2633 C2648 0.960 . S
H2634 C2648 0.960 . S
H2635 C2648 0.960 . S
C2636 H2628 0.929 . S
C2636 C2637 1.377 . S
C2636 C2638 1.384 . S
C2637 C2636 1.377 . S
C2637 C2643 1.390 . S
C2638 H2629 0.930 . S
C2638 C2636 1.384 . S
C2638 C2639 1.372 . S
C2639 C2638 1.372 . S
C2639 C2640 1.400 . S
C2639 C2644 1.490 . S
C2640 H2630 0.930 . S
C2640 C2639 1.400 . S
C2640 C2643 1.386 . S
H2641 C2657 0.930 . S
H2642 C2658 0.931 . S
C2643 H2631 0.929 . S
C2643 C2637 1.390 . S
C2643 C2640 1.386 . S
C2644 C2639 1.490 . S
C2644 C2646 1.395 . S
C2644 C2647 1.403 . S
H2645 C2651 0.930 . S
C2646 H2632 0.930 . S
C2646 C2644 1.395 . S
C2646 C2649 1.403 . S
C2647 C2644 1.403 . S
C2647 C2648 1.524 . S
C2647 C2651 1.400 . S
C2648 H2633 0.960 . S
C2648 H2634 0.960 . S
C2648 H2635 0.960 . S
C2648 C2647 1.524 . S
C2649 C2646 1.403 . S
C2649 C2650 1.392 . S
C2649 C2653 1.495 . S
C2650 C2649 1.392 . S
C2650 C2651 1.385 . S
C2650 C2652 1.478 . S
C2651 H2645 0.930 . S
C2651 C2647 1.400 . S
C2651 C2650 1.385 . S
C2652 C2650 1.478 . S
C2652 C2654 1.381 . S
C2652 C2658 1.383 . S
C2653 C2649 1.495 . S
C2653 H2659 0.959 . S
C2653 H2660 0.961 . S
C2653 H2661 0.960 . S
C2654 C2652 1.381 . S
C2654 C2655 1.394 . S
C2654 H2662 0.930 . S
C2655 C2654 1.394 . S
C2655 C2656 1.383 . S
C2655 H2663 0.929 . S
C2656 C2655 1.383 . S
C2656 C2657 1.377 . S
C2657 H2641 0.930 . S
C2657 C2656 1.377 . S
C2657 C2658 1.379 . S
C2658 H2642 0.931 . S
C2658 C2652 1.383 . S
C2658 C2657 1.379 . S
H2659 C2653 0.959 . S
H2660 C2653 0.961 . S
H2661 C2653 0.960 . S
H2662 C2654 0.930 . S
H2663 C2655 0.929 . S
H2664 C2672 0.929 . S
H2665 C2674 0.930 . S
H2666 C2676 0.930 . S
H2667 C2679 0.929 . S
H2668 C2682 0.930 . S
H2669 C2684 0.960 . S
H2670 C2684 0.960 . S
H2671 C2684 0.960 . S
C2672 H2664 0.929 . S
C2672 C2673 1.377 . S
C2672 C2674 1.384 . S
C2673 C2672 1.377 . S
C2673 C2679 1.390 . S
C2674 H2665 0.930 . S
C2674 C2672 1.384 . S
C2674 C2675 1.372 . S
C2675 C2674 1.372 . S
C2675 C2676 1.400 . S
C2675 C2680 1.490 . S
C2676 H2666 0.930 . S
C2676 C2675 1.400 . S
C2676 C2679 1.386 . S
H2677 C2693 0.930 . S
H2678 C2694 0.931 . S
C2679 H2667 0.929 . S
C2679 C2673 1.390 . S
C2679 C2676 1.386 . S
C2680 C2675 1.490 . S
C2680 C2682 1.395 . S
C2680 C2683 1.403 . S
H2681 C2687 0.930 . S
C2682 H2668 0.930 . S
C2682 C2680 1.395 . S
C2682 C2685 1.403 . S
C2683 C2680 1.403 . S
C2683 C2684 1.524 . S
C2683 C2687 1.400 . S
C2684 H2669 0.960 . S
C2684 H2670 0.960 . S
C2684 H2671 0.960 . S
C2684 C2683 1.524 . S
C2685 C2682 1.403 . S
C2685 C2686 1.392 . S
C2685 C2689 1.495 . S
C2686 C2685 1.392 . S
C2686 C2687 1.385 . S
C2686 C2688 1.478 . S
C2687 H2681 0.930 . S
C2687 C2683 1.400 . S
C2687 C2686 1.385 . S
C2688 C2686 1.478 . S
C2688 C2690 1.381 . S
C2688 C2694 1.383 . S
C2689 C2685 1.495 . S
C2689 H2695 0.959 . S
C2689 H2696 0.961 . S
C2689 H2697 0.960 . S
C2690 C2688 1.381 . S
C2690 C2691 1.394 . S
C2690 H2698 0.930 . S
C2691 C2690 1.394 . S
C2691 C2692 1.383 . S
C2691 H2699 0.929 . S
C2692 C2691 1.383 . S
C2692 C2693 1.377 . S
C2693 H2677 0.930 . S
C2693 C2692 1.377 . S
C2693 C2694 1.379 . S
C2694 H2678 0.931 . S
C2694 C2688 1.383 . S
C2694 C2693 1.379 . S
H2695 C2689 0.959 . S
H2696 C2689 0.961 . S
H2697 C2689 0.960 . S
H2698 C2690 0.930 . S
H2699 C2691 0.929 . S
H2700 C2708 0.929 . S
H2701 C2710 0.930 . S
H2702 C2712 0.930 . S
H2703 C2715 0.929 . S
H2704 C2718 0.930 . S
H2705 C2720 0.960 . S
H2706 C2720 0.960 . S
H2707 C2720 0.960 . S
C2708 H2700 0.929 . S
C2708 C2709 1.377 . S
C2708 C2710 1.384 . S
C2709 C2708 1.377 . S
C2709 C2715 1.390 . S
C2710 H2701 0.930 . S
C2710 C2708 1.384 . S
C2710 C2711 1.372 . S
C2711 C2710 1.372 . S
C2711 C2712 1.400 . S
C2711 C2716 1.490 . S
C2712 H2702 0.930 . S
C2712 C2711 1.400 . S
C2712 C2715 1.386 . S
H2713 C2729 0.930 . S
H2714 C2730 0.931 . S
C2715 H2703 0.929 . S
C2715 C2709 1.390 . S
C2715 C2712 1.386 . S
C2716 C2711 1.490 . S
C2716 C2718 1.395 . S
C2716 C2719 1.403 . S
H2717 C2723 0.930 . S
C2718 H2704 0.930 . S
C2718 C2716 1.395 . S
C2718 C2721 1.403 . S
C2719 C2716 1.403 . S
C2719 C2720 1.524 . S
C2719 C2723 1.400 . S
C2720 H2705 0.960 . S
C2720 H2706 0.960 . S
C2720 H2707 0.960 . S
C2720 C2719 1.524 . S
C2721 C2718 1.403 . S
C2721 C2722 1.392 . S
C2721 C2725 1.495 . S
C2722 C2721 1.392 . S
C2722 C2723 1.385 . S
C2722 C2724 1.478 . S
C2723 H2717 0.930 . S
C2723 C2719 1.400 . S
C2723 C2722 1.385 . S
C2724 C2722 1.478 . S
C2724 C2726 1.381 . S
C2724 C2730 1.383 . S
C2725 C2721 1.495 . S
C2725 H2731 0.959 . S
C2725 H2732 0.961 . S
C2725 H2733 0.960 . S
C2726 C2724 1.381 . S
C2726 C2727 1.394 . S
C2726 H2734 0.930 . S
C2727 C2726 1.394 . S
C2727 C2728 1.383 . S
C2727 H2735 0.929 . S
C2728 C2727 1.383 . S
C2728 C2729 1.377 . S
C2729 H2713 0.930 . S
C2729 C2728 1.377 . S
C2729 C2730 1.379 . S
C2730 H2714 0.931 . S
C2730 C2724 1.383 . S
C2730 C2729 1.379 . S
H2731 C2725 0.959 . S
H2732 C2725 0.961 . S
H2733 C2725 0.960 . S
H2734 C2726 0.930 . S
H2735 C2727 0.929 . S
H2736 C2744 0.929 . S
H2737 C2746 0.930 . S
H2738 C2748 0.930 . S
H2739 C2751 0.929 . S
H2740 C2754 0.930 . S
H2741 C2756 0.960 . S
H2742 C2756 0.960 . S
H2743 C2756 0.960 . S
C2744 H2736 0.929 . S
C2744 C2745 1.377 . S
C2744 C2746 1.384 . S
C2745 C2744 1.377 . S
C2745 C2751 1.390 . S
C2746 H2737 0.930 . S
C2746 C2744 1.384 . S
C2746 C2747 1.372 . S
C2747 C2746 1.372 . S
C2747 C2748 1.400 . S
C2747 C2752 1.490 . S
C2748 H2738 0.930 . S
C2748 C2747 1.400 . S
C2748 C2751 1.386 . S
H2749 C2765 0.930 . S
H2750 C2766 0.931 . S
C2751 H2739 0.929 . S
C2751 C2745 1.390 . S
C2751 C2748 1.386 . S
C2752 C2747 1.490 . S
C2752 C2754 1.395 . S
C2752 C2755 1.403 . S
H2753 C2759 0.928 1_556 S
C2754 H2740 0.930 . S
C2754 C2752 1.395 . S
C2754 C2757 1.403 1_554 S
C2755 C2752 1.403 . S
C2755 C2756 1.524 . S
C2755 C2759 1.400 . S
C2756 H2741 0.960 . S
C2756 H2742 0.960 . S
C2756 H2743 0.960 . S
C2756 C2755 1.524 . S
C2757 C2754 1.403 1_556 S
C2757 C2758 1.392 . S
C2757 C2761 1.495 . S
C2758 C2757 1.392 . S
C2758 C2759 1.385 1_556 S
C2758 C2760 1.478 . S
C2759 H2753 0.928 1_554 S
C2759 C2755 1.400 . S
C2759 C2758 1.385 1_554 S
C2760 C2758 1.478 . S
C2760 C2762 1.381 . S
C2760 C2766 1.383 . S
C2761 C2757 1.495 . S
C2761 H2767 0.959 . S
C2761 H2768 0.961 . S
C2761 H2769 0.960 . S
C2762 C2760 1.381 . S
C2762 C2763 1.394 . S
C2762 H2770 0.930 . S
C2763 C2762 1.394 . S
C2763 C2764 1.383 . S
C2763 H2771 0.929 . S
C2764 C2763 1.383 . S
C2764 C2765 1.377 . S
C2765 H2749 0.930 . S
C2765 C2764 1.377 . S
C2765 C2766 1.379 . S
C2766 H2750 0.931 . S
C2766 C2760 1.383 . S
C2766 C2765 1.379 . S
H2767 C2761 0.959 . S
H2768 C2761 0.961 . S
H2769 C2761 0.960 . S
H2770 C2762 0.930 . S
H2771 C2763 0.929 . S
H2772 C2780 0.929 . S
H2773 C2782 0.930 . S
H2774 C2784 0.930 . S
H2775 C2787 0.929 . S
H2776 C2790 0.930 . S
H2777 C2792 0.960 1_554 S
H2778 C2792 0.960 . S
H2779 C2792 0.960 . S
C2780 H2772 0.929 . S
C2780 C2781 1.377 . S
C2780 C2782 1.384 . S
C2781 C2780 1.377 . S
C2781 C2787 1.390 . S
C2782 H2773 0.930 . S
C2782 C2780 1.384 . S
C2782 C2783 1.372 . S
C2783 C2782 1.372 . S
C2783 C2784 1.400 . S
C2783 C2788 1.490 . S
C2784 H2774 0.930 . S
C2784 C2783 1.400 . S
C2784 C2787 1.386 . S
H2785 C2801 0.930 . S
H2786 C2802 0.931 . S
C2787 H2775 0.929 . S
C2787 C2781 1.390 . S
C2787 C2784 1.386 . S
C2788 C2783 1.490 . S
C2788 C2790 1.395 . S
C2788 C2791 1.403 . S
H2789 C2795 0.930 . S
C2790 H2776 0.930 . S
C2790 C2788 1.395 . S
C2790 C2793 1.403 1_556 S
C2791 C2788 1.403 . S
C2791 C2792 1.524 . S
C2791 C2795 1.400 1_556 S
C2792 H2777 0.960 1_556 S
C2792 H2778 0.960 . S
C2792 H2779 0.960 . S
C2792 C2791 1.524 . S
C2793 C2790 1.403 1_554 S
C2793 C2794 1.392 . S
C2793 C2797 1.495 . S
C2794 C2793 1.392 . S
C2794 C2795 1.385 . S
C2794 C2796 1.478 . S
C2795 H2789 0.930 . S
C2795 C2791 1.400 1_554 S
C2795 C2794 1.385 . S
C2796 C2794 1.478 . S
C2796 C2798 1.381 . S
C2796 C2802 1.383 . S
C2797 C2793 1.495 . S
C2797 H2803 0.959 . S
C2797 H2804 0.961 . S
C2797 H2805 0.960 . S
C2798 C2796 1.381 . S
C2798 C2799 1.394 . S
C2798 H2806 0.930 . S
C2799 C2798 1.394 . S
C2799 C2800 1.383 . S
C2799 H2807 0.929 . S
C2800 C2799 1.383 . S
C2800 C2801 1.377 . S
C2801 H2785 0.930 . S
C2801 C2800 1.377 . S
C2801 C2802 1.379 . S
C2802 H2786 0.931 . S
C2802 C2796 1.383 . S
C2802 C2801 1.379 . S
H2803 C2797 0.959 . S
H2804 C2797 0.961 . S
H2805 C2797 0.960 . S
H2806 C2798 0.930 . S
H2807 C2799 0.929 . S
H2808 C2816 0.929 . S
H2809 C2818 0.930 . S
H2810 C2820 0.930 . S
H2811 C2823 0.929 . S
H2812 C2826 0.930 . S
H2813 C2828 0.960 . S
H2814 C2828 0.960 . S
H2815 C2828 0.960 . S
C2816 H2808 0.929 . S
C2816 C2817 1.377 . S
C2816 C2818 1.384 . S
C2817 C2816 1.377 . S
C2817 C2823 1.390 . S
C2818 H2809 0.930 . S
C2818 C2816 1.384 . S
C2818 C2819 1.372 . S
C2819 C2818 1.372 . S
C2819 C2820 1.400 . S
C2819 C2824 1.490 . S
C2820 H2810 0.930 . S
C2820 C2819 1.400 . S
C2820 C2823 1.386 . S
H2821 C2837 0.930 . S
H2822 C2838 0.931 . S
C2823 H2811 0.929 . S
C2823 C2817 1.390 . S
C2823 C2820 1.386 . S
C2824 C2819 1.490 . S
C2824 C2826 1.395 . S
C2824 C2827 1.403 1_556 S
H2825 C2831 0.930 . S
C2826 H2812 0.930 . S
C2826 C2824 1.395 . S
C2826 C2829 1.403 1_556 S
C2827 C2824 1.403 1_554 S
C2827 C2828 1.524 . S
C2827 C2831 1.400 . S
C2828 H2813 0.960 . S
C2828 H2814 0.960 . S
C2828 H2815 0.960 . S
C2828 C2827 1.524 . S
C2829 C2826 1.403 1_554 S
C2829 C2830 1.392 . S
C2829 C2833 1.495 . S
C2830 C2829 1.392 . S
C2830 C2831 1.385 . S
C2830 C2832 1.478 . S
C2831 H2825 0.930 . S
C2831 C2827 1.400 . S
C2831 C2830 1.385 . S
C2832 C2830 1.478 . S
C2832 C2834 1.381 . S
C2832 C2838 1.383 . S
C2833 C2829 1.495 . S
C2833 H2839 0.959 1_554 S
C2833 H2840 0.961 . S
C2833 H2841 0.960 . S
C2834 C2832 1.381 . S
C2834 C2835 1.394 . S
C2834 H2842 0.930 . S
C2835 C2834 1.394 . S
C2835 C2836 1.383 . S
C2835 H2843 0.929 . S
C2836 C2835 1.383 . S
C2836 C2837 1.377 . S
C2837 H2821 0.930 . S
C2837 C2836 1.377 . S
C2837 C2838 1.379 . S
C2838 H2822 0.931 . S
C2838 C2832 1.383 . S
C2838 C2837 1.379 . S
H2839 C2833 0.959 1_556 S
H2840 C2833 0.961 . S
H2841 C2833 0.960 . S
H2842 C2834 0.930 . S
H2843 C2835 0.929 . S
H2844 C2852 0.929 . S
H2845 C2854 0.930 . S
H2846 C2856 0.930 . S
H2847 C2859 0.929 . S
H2848 C2862 0.930 . S
H2849 C2864 0.960 . S
H2850 C2864 0.960 . S
H2851 C2864 0.960 . S
C2852 H2844 0.929 . S
C2852 C2853 1.377 . S
C2852 C2854 1.384 . S
C2853 C2852 1.377 . S
C2853 C2859 1.390 . S
C2854 H2845 0.930 . S
C2854 C2852 1.384 . S
C2854 C2855 1.372 . S
C2855 C2854 1.372 . S
C2855 C2856 1.400 . S
C2855 C2860 1.490 . S
C2856 H2846 0.930 . S
C2856 C2855 1.400 . S
C2856 C2859 1.386 . S
H2857 C2873 0.930 . S
H2858 C2874 0.931 . S
C2859 H2847 0.929 . S
C2859 C2853 1.390 . S
C2859 C2856 1.386 . S
C2860 C2855 1.490 . S
C2860 C2862 1.395 . S
C2860 C2863 1.403 . S
H2861 C2867 0.930 . S
C2862 H2848 0.930 . S
C2862 C2860 1.395 . S
C2862 C2865 1.403 . S
C2863 C2860 1.403 . S
C2863 C2864 1.524 . S
C2863 C2867 1.400 . S
C2864 H2849 0.960 . S
C2864 H2850 0.960 . S
C2864 H2851 0.960 . S
C2864 C2863 1.524 . S
C2865 C2862 1.403 . S
C2865 C2866 1.392 . S
C2865 C2869 1.495 . S
C2866 C2865 1.392 . S
C2866 C2867 1.385 . S
C2866 C2868 1.478 . S
C2867 H2861 0.930 . S
C2867 C2863 1.400 . S
C2867 C2866 1.385 . S
C2868 C2866 1.478 . S
C2868 C2870 1.381 . S
C2868 C2874 1.383 . S
C2869 C2865 1.495 . S
C2869 H2875 0.959 . S
C2869 H2876 0.961 . S
C2869 H2877 0.960 . S
C2870 C2868 1.381 . S
C2870 C2871 1.394 . S
C2870 H2878 0.930 . S
C2871 C2870 1.394 . S
C2871 C2872 1.383 . S
C2871 H2879 0.929 . S
C2872 C2871 1.383 . S
C2872 C2873 1.377 . S
C2873 H2857 0.930 . S
C2873 C2872 1.377 . S
C2873 C2874 1.379 . S
C2874 H2858 0.931 . S
C2874 C2868 1.383 . S
C2874 C2873 1.379 . S
H2875 C2869 0.959 . S
H2876 C2869 0.961 . S
H2877 C2869 0.960 . S
H2878 C2870 0.930 . S
H2879 C2871 0.929 . S
H2880 C2888 0.929 . S
H2881 C2890 0.930 . S
H2882 C2892 0.930 . S
H2883 C2895 0.929 . S
H2884 C2898 0.930 . S
H2885 C2900 0.960 . S
H2886 C2900 0.960 . S
H2887 C2900 0.960 . S
C2888 H2880 0.929 . S
C2888 C2889 1.377 . S
C2888 C2890 1.384 . S
C2889 C2888 1.377 . S
C2889 C2895 1.390 . S
C2890 H2881 0.930 . S
C2890 C2888 1.384 . S
C2890 C2891 1.372 . S
C2891 C2890 1.372 . S
C2891 C2892 1.400 . S
C2891 C2896 1.490 . S
C2892 H2882 0.930 . S
C2892 C2891 1.400 . S
C2892 C2895 1.386 . S
H2893 C2909 0.930 . S
H2894 C2910 0.931 . S
C2895 H2883 0.929 . S
C2895 C2889 1.390 . S
C2895 C2892 1.386 . S
C2896 C2891 1.490 . S
C2896 C2898 1.395 . S
C2896 C2899 1.403 . S
H2897 C2903 0.930 . S
C2898 H2884 0.930 . S
C2898 C2896 1.395 . S
C2898 C2901 1.403 . S
C2899 C2896 1.403 . S
C2899 C2900 1.524 . S
C2899 C2903 1.400 . S
C2900 H2885 0.960 . S
C2900 H2886 0.960 . S
C2900 H2887 0.960 . S
C2900 C2899 1.524 . S
C2901 C2898 1.403 . S
C2901 C2902 1.392 . S
C2901 C2905 1.495 . S
C2902 C2901 1.392 . S
C2902 C2903 1.385 . S
C2902 C2904 1.478 . S
C2903 H2897 0.930 . S
C2903 C2899 1.400 . S
C2903 C2902 1.385 . S
C2904 C2902 1.478 . S
C2904 C2906 1.381 . S
C2904 C2910 1.383 . S
C2905 C2901 1.495 . S
C2905 H2911 0.959 . S
C2905 H2912 0.961 . S
C2905 H2913 0.960 . S
C2906 C2904 1.381 . S
C2906 C2907 1.394 . S
C2906 H2914 0.930 . S
C2907 C2906 1.394 . S
C2907 C2908 1.383 . S
C2907 H2915 0.929 . S
C2908 C2907 1.383 . S
C2908 C2909 1.377 . S
C2909 H2893 0.930 . S
C2909 C2908 1.377 . S
C2909 C2910 1.379 . S
C2910 H2894 0.931 . S
C2910 C2904 1.383 . S
C2910 C2909 1.379 . S
H2911 C2905 0.959 . S
H2912 C2905 0.961 . S
H2913 C2905 0.960 . S
H2914 C2906 0.930 . S
H2915 C2907 0.929 . S
H2916 C2924 0.929 . S
H2917 C2926 0.930 . S
H2918 C2928 0.930 . S
H2919 C2931 0.929 . S
H2920 C2934 0.930 . S
H2921 C2936 0.960 . S
H2922 C2936 0.960 . S
H2923 C2936 0.960 . S
C2924 H2916 0.929 . S
C2924 C2925 1.377 . S
C2924 C2926 1.384 . S
C2925 C2924 1.377 . S
C2925 C2931 1.390 . S
C2926 H2917 0.930 . S
C2926 C2924 1.384 . S
C2926 C2927 1.372 . S
C2927 C2926 1.372 . S
C2927 C2928 1.400 . S
C2927 C2932 1.490 . S
C2928 H2918 0.930 . S
C2928 C2927 1.400 . S
C2928 C2931 1.386 . S
H2929 C2945 0.930 . S
H2930 C2946 0.931 . S
C2931 H2919 0.929 . S
C2931 C2925 1.390 . S
C2931 C2928 1.386 . S
C2932 C2927 1.490 . S
C2932 C2934 1.395 . S
C2932 C2935 1.403 . S
H2933 C2939 0.930 . S
C2934 H2920 0.930 . S
C2934 C2932 1.395 . S
C2934 C2937 1.403 . S
C2935 C2932 1.403 . S
C2935 C2936 1.524 . S
C2935 C2939 1.400 . S
C2936 H2921 0.960 . S
C2936 H2922 0.960 . S
C2936 H2923 0.960 . S
C2936 C2935 1.524 . S
C2937 C2934 1.403 . S
C2937 C2938 1.392 . S
C2937 C2941 1.495 . S
C2938 C2937 1.392 . S
C2938 C2939 1.385 . S
C2938 C2940 1.478 . S
C2939 H2933 0.930 . S
C2939 C2935 1.400 . S
C2939 C2938 1.385 . S
C2940 C2938 1.478 . S
C2940 C2942 1.381 . S
C2940 C2946 1.383 . S
C2941 C2937 1.495 . S
C2941 H2947 0.959 . S
C2941 H2948 0.961 . S
C2941 H2949 0.960 . S
C2942 C2940 1.381 . S
C2942 C2943 1.394 . S
C2942 H2950 0.930 . S
C2943 C2942 1.394 . S
C2943 C2944 1.383 . S
C2943 H2951 0.929 . S
C2944 C2943 1.383 . S
C2944 C2945 1.377 . S
C2945 H2929 0.930 . S
C2945 C2944 1.377 . S
C2945 C2946 1.379 . S
C2946 H2930 0.931 . S
C2946 C2940 1.383 . S
C2946 C2945 1.379 . S
H2947 C2941 0.959 . S
H2948 C2941 0.961 . S
H2949 C2941 0.960 . S
H2950 C2942 0.930 . S
H2951 C2943 0.929 . S
H2952 C2960 0.929 . S
H2953 C2962 0.930 . S
H2954 C2964 0.930 . S
H2955 C2967 0.929 . S
H2956 C2970 0.930 . S
H2957 C2972 0.960 . S
H2958 C2972 0.960 . S
H2959 C2972 0.960 . S
C2960 H2952 0.929 . S
C2960 C2961 1.377 . S
C2960 C2962 1.384 . S
C2961 C2960 1.377 . S
C2961 C2967 1.390 . S
C2962 H2953 0.930 . S
C2962 C2960 1.384 . S
C2962 C2963 1.372 . S
C2963 C2962 1.372 . S
C2963 C2964 1.400 . S
C2963 C2968 1.490 . S
C2964 H2954 0.930 . S
C2964 C2963 1.400 . S
C2964 C2967 1.386 . S
H2965 C2981 0.930 . S
H2966 C2982 0.931 . S
C2967 H2955 0.929 . S
C2967 C2961 1.390 . S
C2967 C2964 1.386 . S
C2968 C2963 1.490 . S
C2968 C2970 1.395 . S
C2968 C2971 1.403 . S
H2969 C2975 0.930 . S
C2970 H2956 0.930 . S
C2970 C2968 1.395 . S
C2970 C2973 1.403 . S
C2971 C2968 1.403 . S
C2971 C2972 1.524 . S
C2971 C2975 1.400 . S
C2972 H2957 0.960 . S
C2972 H2958 0.960 . S
C2972 H2959 0.960 . S
C2972 C2971 1.524 . S
C2973 C2970 1.403 . S
C2973 C2974 1.392 . S
C2973 C2977 1.495 . S
C2974 C2973 1.392 . S
C2974 C2975 1.385 . S
C2974 C2976 1.478 . S
C2975 H2969 0.930 . S
C2975 C2971 1.400 . S
C2975 C2974 1.385 . S
C2976 C2974 1.478 . S
C2976 C2978 1.381 . S
C2976 C2982 1.383 . S
C2977 C2973 1.495 . S
C2977 H2983 0.959 . S
C2977 H2984 0.961 . S
C2977 H2985 0.960 . S
C2978 C2976 1.381 . S
C2978 C2979 1.394 . S
C2978 H2986 0.930 . S
C2979 C2978 1.394 . S
C2979 C2980 1.383 . S
C2979 H2987 0.929 . S
C2980 C2979 1.383 . S
C2980 C2981 1.377 . S
C2981 H2965 0.930 . S
C2981 C2980 1.377 . S
C2981 C2982 1.379 . S
C2982 H2966 0.931 . S
C2982 C2976 1.383 . S
C2982 C2981 1.379 . S
H2983 C2977 0.959 . S
H2984 C2977 0.961 . S
H2985 C2977 0.960 . S
H2986 C2978 0.930 . S
H2987 C2979 0.929 . S
H2988 C2996 0.929 . S
H2989 C2998 0.930 . S
H2990 C3000 0.930 . S
H2991 C3003 0.929 . S
H2992 C3006 0.930 . S
H2993 C3008 0.960 . S
H2994 C3008 0.960 . S
H2995 C3008 0.960 . S
C2996 H2988 0.929 . S
C2996 C2997 1.377 . S
C2996 C2998 1.384 . S
C2997 C2996 1.377 . S
C2997 C3003 1.390 . S
C2998 H2989 0.930 . S
C2998 C2996 1.384 . S
C2998 C2999 1.372 . S
C2999 C2998 1.372 . S
C2999 C3000 1.400 . S
C2999 C3004 1.490 . S
C3000 H2990 0.930 . S
C3000 C2999 1.400 . S
C3000 C3003 1.386 . S
H3001 C3017 0.930 . S
H3002 C3018 0.931 . S
C3003 H2991 0.929 . S
C3003 C2997 1.390 . S
C3003 C3000 1.386 . S
C3004 C2999 1.490 . S
C3004 C3006 1.395 . S
C3004 C3007 1.403 . S
H3005 C3011 0.930 . S
C3006 H2992 0.930 . S
C3006 C3004 1.395 . S
C3006 C3009 1.403 . S
C3007 C3004 1.403 . S
C3007 C3008 1.524 . S
C3007 C3011 1.400 . S
C3008 H2993 0.960 . S
C3008 H2994 0.960 . S
C3008 H2995 0.960 . S
C3008 C3007 1.524 . S
C3009 C3006 1.403 . S
C3009 C3010 1.392 . S
C3009 C3013 1.495 . S
C3010 C3009 1.392 . S
C3010 C3011 1.385 . S
C3010 C3012 1.478 . S
C3011 H3005 0.930 . S
C3011 C3007 1.400 . S
C3011 C3010 1.385 . S
C3012 C3010 1.478 . S
C3012 C3014 1.381 . S
C3012 C3018 1.383 . S
C3013 C3009 1.495 . S
C3013 H3019 0.959 . S
C3013 H3020 0.961 . S
C3013 H3021 0.960 . S
C3014 C3012 1.381 . S
C3014 C3015 1.394 . S
C3014 H3022 0.930 . S
C3015 C3014 1.394 . S
C3015 C3016 1.383 . S
C3015 H3023 0.929 . S
C3016 C3015 1.383 . S
C3016 C3017 1.377 . S
C3017 H3001 0.930 . S
C3017 C3016 1.377 . S
C3017 C3018 1.379 . S
C3018 H3002 0.931 . S
C3018 C3012 1.383 . S
C3018 C3017 1.379 . S
H3019 C3013 0.959 . S
H3020 C3013 0.961 . S
H3021 C3013 0.960 . S
H3022 C3014 0.930 . S
H3023 C3015 0.929 . S
H3024 C3032 0.929 . S
H3025 C3034 0.930 . S
H3026 C3036 0.930 . S
H3027 C3039 0.929 . S
H3028 C3042 0.930 . S
H3029 C3044 0.960 . S
H3030 C3044 0.960 . S
H3031 C3044 0.960 . S
C3032 H3024 0.929 . S
C3032 C3033 1.377 . S
C3032 C3034 1.384 . S
C3033 C3032 1.377 . S
C3033 C3039 1.390 . S
C3034 H3025 0.930 . S
C3034 C3032 1.384 . S
C3034 C3035 1.372 . S
C3035 C3034 1.372 . S
C3035 C3036 1.400 . S
C3035 C3040 1.490 . S
C3036 H3026 0.930 . S
C3036 C3035 1.400 . S
C3036 C3039 1.386 . S
H3037 C3053 0.930 . S
H3038 C3054 0.931 . S
C3039 H3027 0.929 . S
C3039 C3033 1.390 . S
C3039 C3036 1.386 . S
C3040 C3035 1.490 . S
C3040 C3042 1.395 . S
C3040 C3043 1.403 . S
H3041 C3047 0.930 . S
C3042 H3028 0.930 . S
C3042 C3040 1.395 . S
C3042 C3045 1.403 . S
C3043 C3040 1.403 . S
C3043 C3044 1.524 . S
C3043 C3047 1.400 . S
C3044 H3029 0.960 . S
C3044 H3030 0.960 . S
C3044 H3031 0.960 . S
C3044 C3043 1.524 . S
C3045 C3042 1.403 . S
C3045 C3046 1.392 . S
C3045 C3049 1.495 . S
C3046 C3045 1.392 . S
C3046 C3047 1.385 . S
C3046 C3048 1.478 . S
C3047 H3041 0.930 . S
C3047 C3043 1.400 . S
C3047 C3046 1.385 . S
C3048 C3046 1.478 . S
C3048 C3050 1.381 . S
C3048 C3054 1.383 . S
C3049 C3045 1.495 . S
C3049 H3055 0.959 . S
C3049 H3056 0.961 . S
C3049 H3057 0.960 . S
C3050 C3048 1.381 . S
C3050 C3051 1.394 . S
C3050 H3058 0.930 . S
C3051 C3050 1.394 . S
C3051 C3052 1.383 . S
C3051 H3059 0.929 . S
C3052 C3051 1.383 . S
C3052 C3053 1.377 . S
C3053 H3037 0.930 . S
C3053 C3052 1.377 . S
C3053 C3054 1.379 . S
C3054 H3038 0.931 . S
C3054 C3048 1.383 . S
C3054 C3053 1.379 . S
H3055 C3049 0.959 . S
H3056 C3049 0.961 . S
H3057 C3049 0.960 . S
H3058 C3050 0.930 . S
H3059 C3051 0.929 . S
H3060 C3068 0.929 . S
H3061 C3070 0.930 . S
H3062 C3072 0.930 . S
H3063 C3075 0.929 . S
H3064 C3078 0.930 . S
H3065 C3080 0.960 . S
H3066 C3080 0.960 . S
H3067 C3080 0.960 . S
C3068 H3060 0.929 . S
C3068 C3069 1.377 . S
C3068 C3070 1.384 . S
C3069 C3068 1.377 . S
C3069 C3075 1.390 . S
C3070 H3061 0.930 . S
C3070 C3068 1.384 . S
C3070 C3071 1.372 . S
C3071 C3070 1.372 . S
C3071 C3072 1.400 . S
C3071 C3076 1.490 . S
C3072 H3062 0.930 . S
C3072 C3071 1.400 . S
C3072 C3075 1.386 . S
H3073 C3089 0.930 1_554 S
H3074 C3090 0.931 . S
C3075 H3063 0.929 . S
C3075 C3069 1.390 . S
C3075 C3072 1.386 . S
C3076 C3071 1.490 . S
C3076 C3078 1.395 . S
C3076 C3079 1.403 . S
H3077 C3083 0.930 . S
C3078 H3064 0.930 . S
C3078 C3076 1.395 . S
C3078 C3081 1.403 . S
C3079 C3076 1.403 . S
C3079 C3080 1.524 . S
C3079 C3083 1.400 . S
C3080 H3065 0.960 . S
C3080 H3066 0.960 . S
C3080 H3067 0.960 . S
C3080 C3079 1.524 . S
C3081 C3078 1.403 . S
C3081 C3082 1.392 . S
C3081 C3085 1.495 . S
C3082 C3081 1.392 . S
C3082 C3083 1.385 . S
C3082 C3084 1.478 . S
C3083 H3077 0.930 . S
C3083 C3079 1.400 . S
C3083 C3082 1.385 . S
C3084 C3082 1.478 . S
C3084 C3086 1.381 . S
C3084 C3090 1.383 . S
C3085 C3081 1.495 . S
C3085 H3091 0.959 . S
C3085 H3092 0.961 . S
C3085 H3093 0.960 . S
C3086 C3084 1.381 . S
C3086 C3087 1.394 . S
C3086 H3094 0.930 . S
C3087 C3086 1.394 . S
C3087 C3088 1.383 . S
C3087 H3095 0.929 . S
C3088 C3087 1.383 . S
C3088 C3089 1.377 . S
C3089 H3073 0.930 1_556 S
C3089 C3088 1.377 . S
C3089 C3090 1.379 . S
C3090 H3074 0.931 . S
C3090 C3084 1.383 . S
C3090 C3089 1.379 . S
H3091 C3085 0.959 . S
H3092 C3085 0.961 . S
H3093 C3085 0.960 . S
H3094 C3086 0.930 . S
H3095 C3087 0.929 . S
H3096 C3104 0.929 1_554 S
H3097 C3106 0.930 . S
H3098 C3108 0.930 . S
H3099 C3111 0.929 . S
H3100 C3114 0.930 . S
H3101 C3116 0.960 . S
H3102 C3116 0.960 . S
H3103 C3116 0.960 . S
C3104 H3096 0.929 1_556 S
C3104 C3105 1.377 . S
C3104 C3106 1.384 . S
C3105 C3104 1.377 . S
C3105 C3111 1.390 . S
C3106 H3097 0.930 . S
C3106 C3104 1.384 . S
C3106 C3107 1.372 . S
C3107 C3106 1.372 . S
C3107 C3108 1.400 . S
C3107 C3112 1.490 . S
C3108 H3098 0.930 . S
C3108 C3107 1.400 . S
C3108 C3111 1.386 . S
H3109 C3125 0.930 . S
H3110 C3126 0.931 . S
C3111 H3099 0.929 . S
C3111 C3105 1.390 . S
C3111 C3108 1.386 . S
C3112 C3107 1.490 . S
C3112 C3114 1.395 . S
C3112 C3115 1.403 . S
H3113 C3119 0.930 . S
C3114 H3100 0.930 . S
C3114 C3112 1.395 . S
C3114 C3117 1.403 . S
C3115 C3112 1.403 . S
C3115 C3116 1.524 . S
C3115 C3119 1.400 . S
C3116 H3101 0.960 . S
C3116 H3102 0.960 . S
C3116 H3103 0.960 . S
C3116 C3115 1.524 . S
C3117 C3114 1.403 . S
C3117 C3118 1.392 . S
C3117 C3121 1.495 . S
C3118 C3117 1.392 . S
C3118 C3119 1.385 . S
C3118 C3120 1.478 . S
C3119 H3113 0.930 . S
C3119 C3115 1.400 . S
C3119 C3118 1.385 . S
C3120 C3118 1.478 . S
C3120 C3122 1.381 . S
C3120 C3126 1.383 . S
C3121 C3117 1.495 . S
C3121 H3127 0.959 . S
C3121 H3128 0.961 . S
C3121 H3129 0.960 . S
C3122 C3120 1.381 . S
C3122 C3123 1.394 . S
C3122 H3130 0.930 . S
C3123 C3122 1.394 . S
C3123 C3124 1.383 . S
C3123 H3131 0.929 . S
C3124 C3123 1.383 . S
C3124 C3125 1.377 . S
C3125 H3109 0.930 . S
C3125 C3124 1.377 . S
C3125 C3126 1.379 . S
C3126 H3110 0.931 . S
C3126 C3120 1.383 . S
C3126 C3125 1.379 . S
H3127 C3121 0.959 . S
H3128 C3121 0.961 . S
H3129 C3121 0.960 . S
H3130 C3122 0.930 . S
H3131 C3123 0.929 . S
H3132 C3140 0.929 1_554 S
H3133 C3142 0.930 . S
H3134 C3144 0.930 . S
H3135 C3147 0.929 . S
H3136 C3150 0.930 . S
H3137 C3152 0.960 . S
H3138 C3152 0.960 . S
H3139 C3152 0.960 . S
C3140 H3132 0.929 1_556 S
C3140 C3141 1.377 . S
C3140 C3142 1.384 . S
C3141 C3140 1.377 . S
C3141 C3147 1.390 . S
C3142 H3133 0.930 . S
C3142 C3140 1.384 . S
C3142 C3143 1.372 . S
C3143 C3142 1.372 . S
C3143 C3144 1.400 . S
C3143 C3148 1.490 . S
C3144 H3134 0.930 . S
C3144 C3143 1.400 . S
C3144 C3147 1.386 . S
H3145 C3161 0.930 . S
H3146 C3162 0.931 . S
C3147 H3135 0.929 . S
C3147 C3141 1.390 . S
C3147 C3144 1.386 . S
C3148 C3143 1.490 . S
C3148 C3150 1.395 . S
C3148 C3151 1.403 . S
H3149 C3155 0.930 . S
C3150 H3136 0.930 . S
C3150 C3148 1.395 . S
C3150 C3153 1.403 . S
C3151 C3148 1.403 . S
C3151 C3152 1.524 . S
C3151 C3155 1.400 . S
C3152 H3137 0.960 . S
C3152 H3138 0.960 . S
C3152 H3139 0.960 . S
C3152 C3151 1.524 . S
C3153 C3150 1.403 . S
C3153 C3154 1.392 . S
C3153 C3157 1.495 . S
C3154 C3153 1.392 . S
C3154 C3155 1.385 . S
C3154 C3156 1.478 . S
C3155 H3149 0.930 . S
C3155 C3151 1.400 . S
C3155 C3154 1.385 . S
C3156 C3154 1.478 . S
C3156 C3158 1.381 . S
C3156 C3162 1.383 . S
C3157 C3153 1.495 . S
C3157 H3163 0.959 . S
C3157 H3164 0.961 . S
C3157 H3165 0.960 . S
C3158 C3156 1.381 . S
C3158 C3159 1.394 . S
C3158 H3166 0.930 . S
C3159 C3158 1.394 . S
C3159 C3160 1.383 . S
C3159 H3167 0.929 . S
C3160 C3159 1.383 . S
C3160 C3161 1.377 . S
C3161 H3145 0.930 . S
C3161 C3160 1.377 . S
C3161 C3162 1.379 . S
C3162 H3146 0.931 . S
C3162 C3156 1.383 . S
C3162 C3161 1.379 . S
H3163 C3157 0.959 . S
H3164 C3157 0.961 . S
H3165 C3157 0.960 . S
H3166 C3158 0.930 . S
H3167 C3159 0.929 . S
H3168 C3176 0.929 . S
H3169 C3178 0.930 . S
H3170 C3180 0.930 . S
H3171 C3183 0.929 . S
H3172 C3186 0.930 . S
H3173 C3188 0.960 . S
H3174 C3188 0.960 . S
H3175 C3188 0.960 . S
C3176 H3168 0.929 . S
C3176 C3177 1.377 . S
C3176 C3178 1.384 . S
C3177 C3176 1.377 . S
C3177 C3183 1.390 . S
C3178 H3169 0.930 . S
C3178 C3176 1.384 . S
C3178 C3179 1.372 . S
C3179 C3178 1.372 . S
C3179 C3180 1.400 . S
C3179 C3184 1.490 . S
C3180 H3170 0.930 . S
C3180 C3179 1.400 . S
C3180 C3183 1.386 . S
H3181 C3197 0.930 . S
H3182 C3198 0.931 . S
C3183 H3171 0.929 . S
C3183 C3177 1.390 . S
C3183 C3180 1.386 . S
C3184 C3179 1.490 . S
C3184 C3186 1.395 . S
C3184 C3187 1.403 . S
H3185 C3191 0.930 . S
C3186 H3172 0.930 . S
C3186 C3184 1.395 . S
C3186 C3189 1.403 . S
C3187 C3184 1.403 . S
C3187 C3188 1.524 . S
C3187 C3191 1.400 . S
C3188 H3173 0.960 . S
C3188 H3174 0.960 . S
C3188 H3175 0.960 . S
C3188 C3187 1.524 . S
C3189 C3186 1.403 . S
C3189 C3190 1.392 . S
C3189 C3193 1.495 . S
C3190 C3189 1.392 . S
C3190 C3191 1.385 . S
C3190 C3192 1.478 . S
C3191 H3185 0.930 . S
C3191 C3187 1.400 . S
C3191 C3190 1.385 . S
C3192 C3190 1.478 . S
C3192 C3194 1.381 . S
C3192 C3198 1.383 . S
C3193 C3189 1.495 . S
C3193 H3199 0.959 . S
C3193 H3200 0.961 . S
C3193 H3201 0.960 . S
C3194 C3192 1.381 . S
C3194 C3195 1.394 . S
C3194 H3202 0.930 . S
C3195 C3194 1.394 . S
C3195 C3196 1.383 . S
C3195 H3203 0.929 . S
C3196 C3195 1.383 . S
C3196 C3197 1.377 . S
C3197 H3181 0.930 . S
C3197 C3196 1.377 . S
C3197 C3198 1.379 . S
C3198 H3182 0.931 . S
C3198 C3192 1.383 . S
C3198 C3197 1.379 . S
H3199 C3193 0.959 . S
H3200 C3193 0.961 . S
H3201 C3193 0.960 . S
H3202 C3194 0.930 . S
H3203 C3195 0.929 . S
H3204 C3212 0.929 . S
H3205 C3214 0.930 . S
H3206 C3216 0.930 . S
H3207 C3219 0.929 . S
H3208 C3222 0.930 . S
H3209 C3224 0.960 . S
H3210 C3224 0.960 . S
H3211 C3224 0.960 . S
C3212 H3204 0.929 . S
C3212 C3213 1.377 . S
C3212 C3214 1.384 . S
C3213 C3212 1.377 . S
C3213 C3219 1.390 . S
C3214 H3205 0.930 . S
C3214 C3212 1.384 . S
C3214 C3215 1.372 . S
C3215 C3214 1.372 . S
C3215 C3216 1.400 . S
C3215 C3220 1.490 . S
C3216 H3206 0.930 . S
C3216 C3215 1.400 . S
C3216 C3219 1.386 . S
H3217 C3233 0.930 . S
H3218 C3234 0.931 . S
C3219 H3207 0.929 . S
C3219 C3213 1.390 . S
C3219 C3216 1.386 . S
C3220 C3215 1.490 . S
C3220 C3222 1.395 . S
C3220 C3223 1.403 . S
H3221 C3227 0.930 . S
C3222 H3208 0.930 . S
C3222 C3220 1.395 . S
C3222 C3225 1.403 . S
C3223 C3220 1.403 . S
C3223 C3224 1.524 . S
C3223 C3227 1.400 . S
C3224 H3209 0.960 . S
C3224 H3210 0.960 . S
C3224 H3211 0.960 . S
C3224 C3223 1.524 . S
C3225 C3222 1.403 . S
C3225 C3226 1.392 . S
C3225 C3229 1.495 . S
C3226 C3225 1.392 . S
C3226 C3227 1.385 . S
C3226 C3228 1.478 . S
C3227 H3221 0.930 . S
C3227 C3223 1.400 . S
C3227 C3226 1.385 . S
C3228 C3226 1.478 . S
C3228 C3230 1.381 . S
C3228 C3234 1.383 . S
C3229 C3225 1.495 . S
C3229 H3235 0.959 . S
C3229 H3236 0.961 . S
C3229 H3237 0.960 . S
C3230 C3228 1.381 . S
C3230 C3231 1.394 . S
C3230 H3238 0.930 . S
C3231 C3230 1.394 . S
C3231 C3232 1.383 . S
C3231 H3239 0.929 . S
C3232 C3231 1.383 . S
C3232 C3233 1.377 . S
C3233 H3217 0.930 . S
C3233 C3232 1.377 . S
C3233 C3234 1.379 . S
C3234 H3218 0.931 . S
C3234 C3228 1.383 . S
C3234 C3233 1.379 . S
H3235 C3229 0.959 . S
H3236 C3229 0.961 . S
H3237 C3229 0.960 . S
H3238 C3230 0.930 . S
H3239 C3231 0.929 . S
H3240 C3248 0.929 . S
H3241 C3250 0.930 . S
H3242 C3252 0.930 . S
H3243 C3255 0.929 . S
H3244 C3258 0.930 . S
H3245 C3260 0.960 . S
H3246 C3260 0.960 . S
H3247 C3260 0.960 . S
C3248 H3240 0.929 . S
C3248 C3249 1.377 . S
C3248 C3250 1.384 . S
C3249 C3248 1.377 . S
C3249 C3255 1.390 . S
C3250 H3241 0.930 . S
C3250 C3248 1.384 . S
C3250 C3251 1.372 . S
C3251 C3250 1.372 . S
C3251 C3252 1.400 . S
C3251 C3256 1.490 . S
C3252 H3242 0.930 . S
C3252 C3251 1.400 . S
C3252 C3255 1.386 . S
H3253 C3269 0.930 . S
H3254 C3270 0.931 . S
C3255 H3243 0.929 . S
C3255 C3249 1.390 . S
C3255 C3252 1.386 . S
C3256 C3251 1.490 . S
C3256 C3258 1.395 . S
C3256 C3259 1.403 . S
H3257 C3263 0.930 . S
C3258 H3244 0.930 . S
C3258 C3256 1.395 . S
C3258 C3261 1.403 . S
C3259 C3256 1.403 . S
C3259 C3260 1.524 . S
C3259 C3263 1.400 . S
C3260 H3245 0.960 . S
C3260 H3246 0.960 . S
C3260 H3247 0.960 . S
C3260 C3259 1.524 . S
C3261 C3258 1.403 . S
C3261 C3262 1.392 . S
C3261 C3265 1.495 . S
C3262 C3261 1.392 . S
C3262 C3263 1.385 . S
C3262 C3264 1.478 . S
C3263 H3257 0.930 . S
C3263 C3259 1.400 . S
C3263 C3262 1.385 . S
C3264 C3262 1.478 . S
C3264 C3266 1.381 . S
C3264 C3270 1.383 . S
C3265 C3261 1.495 . S
C3265 H3271 0.959 . S
C3265 H3272 0.961 . S
C3265 H3273 0.960 . S
C3266 C3264 1.381 . S
C3266 C3267 1.394 . S
C3266 H3274 0.930 . S
C3267 C3266 1.394 . S
C3267 C3268 1.383 . S
C3267 H3275 0.929 . S
C3268 C3267 1.383 . S
C3268 C3269 1.377 . S
C3269 H3253 0.930 . S
C3269 C3268 1.377 . S
C3269 C3270 1.379 . S
C3270 H3254 0.931 . S
C3270 C3264 1.383 . S
C3270 C3269 1.379 . S
H3271 C3265 0.959 . S
H3272 C3265 0.961 . S
H3273 C3265 0.960 . S
H3274 C3266 0.930 . S
H3275 C3267 0.929 . S
H3276 C3284 0.929 . S
H3277 C3286 0.930 . S
H3278 C3288 0.930 . S
H3279 C3291 0.929 . S
H3280 C3294 0.930 . S
H3281 C3296 0.960 . S
H3282 C3296 0.960 . S
H3283 C3296 0.960 . S
C3284 H3276 0.929 . S
C3284 C3285 1.377 . S
C3284 C3286 1.384 . S
C3285 C3284 1.377 . S
C3285 C3291 1.390 . S
C3286 H3277 0.930 . S
C3286 C3284 1.384 . S
C3286 C3287 1.372 . S
C3287 C3286 1.372 . S
C3287 C3288 1.400 . S
C3287 C3292 1.490 . S
C3288 H3278 0.930 . S
C3288 C3287 1.400 . S
C3288 C3291 1.386 . S
H3289 C3305 0.930 . S
H3290 C3306 0.931 . S
C3291 H3279 0.929 . S
C3291 C3285 1.390 . S
C3291 C3288 1.386 . S
C3292 C3287 1.490 . S
C3292 C3294 1.395 . S
C3292 C3295 1.403 . S
H3293 C3299 0.930 . S
C3294 H3280 0.930 . S
C3294 C3292 1.395 . S
C3294 C3297 1.403 . S
C3295 C3292 1.403 . S
C3295 C3296 1.524 . S
C3295 C3299 1.400 . S
C3296 H3281 0.960 . S
C3296 H3282 0.960 . S
C3296 H3283 0.960 . S
C3296 C3295 1.524 . S
C3297 C3294 1.403 . S
C3297 C3298 1.392 . S
C3297 C3301 1.495 . S
C3298 C3297 1.392 . S
C3298 C3299 1.385 . S
C3298 C3300 1.478 . S
C3299 H3293 0.930 . S
C3299 C3295 1.400 . S
C3299 C3298 1.385 . S
C3300 C3298 1.478 . S
C3300 C3302 1.381 . S
C3300 C3306 1.383 . S
C3301 C3297 1.495 . S
C3301 H3307 0.959 . S
C3301 H3308 0.961 . S
C3301 H3309 0.960 . S
C3302 C3300 1.381 . S
C3302 C3303 1.394 . S
C3302 H3310 0.930 . S
C3303 C3302 1.394 . S
C3303 C3304 1.383 . S
C3303 H3311 0.929 . S
C3304 C3303 1.383 . S
C3304 C3305 1.377 . S
C3305 H3289 0.930 . S
C3305 C3304 1.377 . S
C3305 C3306 1.379 . S
C3306 H3290 0.931 . S
C3306 C3300 1.383 . S
C3306 C3305 1.379 . S
H3307 C3301 0.959 . S
H3308 C3301 0.961 . S
H3309 C3301 0.960 . S
H3310 C3302 0.930 . S
H3311 C3303 0.929 . S
H3312 C3320 0.929 . S
H3313 C3322 0.930 . S
H3314 C3324 0.930 . S
H3315 C3327 0.929 . S
H3316 C3330 0.930 . S
H3317 C3332 0.960 . S
H3318 C3332 0.960 . S
H3319 C3332 0.960 . S
C3320 H3312 0.929 . S
C3320 C3321 1.377 . S
C3320 C3322 1.384 . S
C3321 C3320 1.377 . S
C3321 C3327 1.390 . S
C3322 H3313 0.930 . S
C3322 C3320 1.384 . S
C3322 C3323 1.372 . S
C3323 C3322 1.372 . S
C3323 C3324 1.400 . S
C3323 C3328 1.490 . S
C3324 H3314 0.930 . S
C3324 C3323 1.400 . S
C3324 C3327 1.386 . S
H3325 C3341 0.930 . S
H3326 C3342 0.931 . S
C3327 H3315 0.929 . S
C3327 C3321 1.390 . S
C3327 C3324 1.386 . S
C3328 C3323 1.490 . S
C3328 C3330 1.395 . S
C3328 C3331 1.403 . S
H3329 C3335 0.930 . S
C3330 H3316 0.930 . S
C3330 C3328 1.395 . S
C3330 C3333 1.403 . S
C3331 C3328 1.403 . S
C3331 C3332 1.524 . S
C3331 C3335 1.400 . S
C3332 H3317 0.960 . S
C3332 H3318 0.960 . S
C3332 H3319 0.960 . S
C3332 C3331 1.524 . S
C3333 C3330 1.403 . S
C3333 C3334 1.392 . S
C3333 C3337 1.495 . S
C3334 C3333 1.392 . S
C3334 C3335 1.385 . S
C3334 C3336 1.478 . S
C3335 H3329 0.930 . S
C3335 C3331 1.400 . S
C3335 C3334 1.385 . S
C3336 C3334 1.478 . S
C3336 C3338 1.381 . S
C3336 C3342 1.383 . S
C3337 C3333 1.495 . S
C3337 H3343 0.959 . S
C3337 H3344 0.961 . S
C3337 H3345 0.960 . S
C3338 C3336 1.381 . S
C3338 C3339 1.394 . S
C3338 H3346 0.930 . S
C3339 C3338 1.394 . S
C3339 C3340 1.383 . S
C3339 H3347 0.929 . S
C3340 C3339 1.383 . S
C3340 C3341 1.377 . S
C3341 H3325 0.930 . S
C3341 C3340 1.377 . S
C3341 C3342 1.379 . S
C3342 H3326 0.931 . S
C3342 C3336 1.383 . S
C3342 C3341 1.379 . S
H3343 C3337 0.959 . S
H3344 C3337 0.961 . S
H3345 C3337 0.960 . S
H3346 C3338 0.930 . S
H3347 C3339 0.929 . S
H3348 C3356 0.929 . S
H3349 C3358 0.930 . S
H3350 C3360 0.930 . S
H3351 C3363 0.929 . S
H3352 C3366 0.930 . S
H3353 C3368 0.960 . S
H3354 C3368 0.960 . S
H3355 C3368 0.960 . S
C3356 H3348 0.929 . S
C3356 C3357 1.377 . S
C3356 C3358 1.384 . S
C3357 C3356 1.377 . S
C3357 C3363 1.390 . S
C3358 H3349 0.930 . S
C3358 C3356 1.384 . S
C3358 C3359 1.372 . S
C3359 C3358 1.372 . S
C3359 C3360 1.400 . S
C3359 C3364 1.490 . S
C3360 H3350 0.930 . S
C3360 C3359 1.400 . S
C3360 C3363 1.386 . S
H3361 C3377 0.930 . S
H3362 C3378 0.931 . S
C3363 H3351 0.929 . S
C3363 C3357 1.390 . S
C3363 C3360 1.386 . S
C3364 C3359 1.490 . S
C3364 C3366 1.395 . S
C3364 C3367 1.403 . S
H3365 C3371 0.930 . S
C3366 H3352 0.930 . S
C3366 C3364 1.395 . S
C3366 C3369 1.403 . S
C3367 C3364 1.403 . S
C3367 C3368 1.524 . S
C3367 C3371 1.400 . S
C3368 H3353 0.960 . S
C3368 H3354 0.960 . S
C3368 H3355 0.960 . S
C3368 C3367 1.524 . S
C3369 C3366 1.403 . S
C3369 C3370 1.392 . S
C3369 C3373 1.495 . S
C3370 C3369 1.392 . S
C3370 C3371 1.385 . S
C3370 C3372 1.478 . S
C3371 H3365 0.930 . S
C3371 C3367 1.400 . S
C3371 C3370 1.385 . S
C3372 C3370 1.478 . S
C3372 C3374 1.381 . S
C3372 C3378 1.383 . S
C3373 C3369 1.495 . S
C3373 H3379 0.959 . S
C3373 H3380 0.961 . S
C3373 H3381 0.960 . S
C3374 C3372 1.381 . S
C3374 C3375 1.394 . S
C3374 H3382 0.930 . S
C3375 C3374 1.394 . S
C3375 C3376 1.383 . S
C3375 H3383 0.929 . S
C3376 C3375 1.383 . S
C3376 C3377 1.377 . S
C3377 H3361 0.930 . S
C3377 C3376 1.377 . S
C3377 C3378 1.379 . S
C3378 H3362 0.931 . S
C3378 C3372 1.383 . S
C3378 C3377 1.379 . S
H3379 C3373 0.959 . S
H3380 C3373 0.961 . S
H3381 C3373 0.960 . S
H3382 C3374 0.930 . S
H3383 C3375 0.929 . S
H3384 C3392 0.929 . S
H3385 C3394 0.930 . S
H3386 C3396 0.930 . S
H3387 C3399 0.929 . S
H3388 C3402 0.930 . S
H3389 C3404 0.960 . S
H3390 C3404 0.960 . S
H3391 C3404 0.960 . S
C3392 H3384 0.929 . S
C3392 C3393 1.377 . S
C3392 C3394 1.384 . S
C3393 C3392 1.377 . S
C3393 C3399 1.390 . S
C3394 H3385 0.930 . S
C3394 C3392 1.384 . S
C3394 C3395 1.372 . S
C3395 C3394 1.372 . S
C3395 C3396 1.400 . S
C3395 C3400 1.490 . S
C3396 H3386 0.930 . S
C3396 C3395 1.400 . S
C3396 C3399 1.386 . S
H3397 C3413 0.930 . S
H3398 C3414 0.931 . S
C3399 H3387 0.929 . S
C3399 C3393 1.390 . S
C3399 C3396 1.386 . S
C3400 C3395 1.490 . S
C3400 C3402 1.395 . S
C3400 C3403 1.403 . S
H3401 C3407 0.930 . S
C3402 H3388 0.930 . S
C3402 C3400 1.395 . S
C3402 C3405 1.403 . S
C3403 C3400 1.403 . S
C3403 C3404 1.524 . S
C3403 C3407 1.400 . S
C3404 H3389 0.960 . S
C3404 H3390 0.960 . S
C3404 H3391 0.960 . S
C3404 C3403 1.524 . S
C3405 C3402 1.403 . S
C3405 C3406 1.392 . S
C3405 C3409 1.495 . S
C3406 C3405 1.392 . S
C3406 C3407 1.385 . S
C3406 C3408 1.478 . S
C3407 H3401 0.930 . S
C3407 C3403 1.400 . S
C3407 C3406 1.385 . S
C3408 C3406 1.478 . S
C3408 C3410 1.381 . S
C3408 C3414 1.383 . S
C3409 C3405 1.495 . S
C3409 H3415 0.959 . S
C3409 H3416 0.961 . S
C3409 H3417 0.960 . S
C3410 C3408 1.381 . S
C3410 C3411 1.394 . S
C3410 H3418 0.930 . S
C3411 C3410 1.394 . S
C3411 C3412 1.383 . S
C3411 H3419 0.929 . S
C3412 C3411 1.383 . S
C3412 C3413 1.377 . S
C3413 H3397 0.930 . S
C3413 C3412 1.377 . S
C3413 C3414 1.379 . S
C3414 H3398 0.931 . S
C3414 C3408 1.383 . S
C3414 C3413 1.379 . S
H3415 C3409 0.959 . S
H3416 C3409 0.961 . S
H3417 C3409 0.960 . S
H3418 C3410 0.930 . S
H3419 C3411 0.929 . S
H3420 C3428 0.929 . S
H3421 C3430 0.930 . S
H3422 C3432 0.930 . S
H3423 C3435 0.929 . S
H3424 C3438 0.930 . S
H3425 C3440 0.960 . S
H3426 C3440 0.960 . S
H3427 C3440 0.960 . S
C3428 H3420 0.929 . S
C3428 C3429 1.377 . S
C3428 C3430 1.384 . S
C3429 C3428 1.377 . S
C3429 C3435 1.390 . S
C3430 H3421 0.930 . S
C3430 C3428 1.384 . S
C3430 C3431 1.372 . S
C3431 C3430 1.372 . S
C3431 C3432 1.400 . S
C3431 C3436 1.490 . S
C3432 H3422 0.930 . S
C3432 C3431 1.400 . S
C3432 C3435 1.386 . S
H3433 C3449 0.930 . S
H3434 C3450 0.931 . S
C3435 H3423 0.929 . S
C3435 C3429 1.390 . S
C3435 C3432 1.386 . S
C3436 C3431 1.490 . S
C3436 C3438 1.395 . S
C3436 C3439 1.403 . S
H3437 C3443 0.930 . S
C3438 H3424 0.930 . S
C3438 C3436 1.395 . S
C3438 C3441 1.403 . S
C3439 C3436 1.403 . S
C3439 C3440 1.524 . S
C3439 C3443 1.400 . S
C3440 H3425 0.960 . S
C3440 H3426 0.960 . S
C3440 H3427 0.960 . S
C3440 C3439 1.524 . S
C3441 C3438 1.403 . S
C3441 C3442 1.392 . S
C3441 C3445 1.495 . S
C3442 C3441 1.392 . S
C3442 C3443 1.385 . S
C3442 C3444 1.478 . S
C3443 H3437 0.930 . S
C3443 C3439 1.400 . S
C3443 C3442 1.385 . S
C3444 C3442 1.478 . S
C3444 C3446 1.381 . S
C3444 C3450 1.383 . S
C3445 C3441 1.495 . S
C3445 H3451 0.959 . S
C3445 H3452 0.961 . S
C3445 H3453 0.960 . S
C3446 C3444 1.381 . S
C3446 C3447 1.394 . S
C3446 H3454 0.930 . S
C3447 C3446 1.394 . S
C3447 C3448 1.383 . S
C3447 H3455 0.929 . S
C3448 C3447 1.383 . S
C3448 C3449 1.377 . S
C3449 H3433 0.930 . S
C3449 C3448 1.377 . S
C3449 C3450 1.379 . S
C3450 H3434 0.931 . S
C3450 C3444 1.383 . S
C3450 C3449 1.379 . S
H3451 C3445 0.959 . S
H3452 C3445 0.961 . S
H3453 C3445 0.960 . S
H3454 C3446 0.930 . S
H3455 C3447 0.929 . S
H3456 C3464 0.929 . S
H3457 C3466 0.930 . S
H3458 C3468 0.930 . S
H3459 C3471 0.929 . S
H3460 C3474 0.930 . S
H3461 C3476 0.960 . S
H3462 C3476 0.960 . S
H3463 C3476 0.960 . S
C3464 H3456 0.929 . S
C3464 C3465 1.377 . S
C3464 C3466 1.384 . S
C3465 C3464 1.377 . S
C3465 C3471 1.390 . S
C3466 H3457 0.930 . S
C3466 C3464 1.384 . S
C3466 C3467 1.372 . S
C3467 C3466 1.372 . S
C3467 C3468 1.400 . S
C3467 C3472 1.490 . S
C3468 H3458 0.930 . S
C3468 C3467 1.400 . S
C3468 C3471 1.386 . S
H3469 C3485 0.930 . S
H3470 C3486 0.931 . S
C3471 H3459 0.929 . S
C3471 C3465 1.390 . S
C3471 C3468 1.386 . S
C3472 C3467 1.490 . S
C3472 C3474 1.395 . S
C3472 C3475 1.403 . S
H3473 C3479 0.930 . S
C3474 H3460 0.930 . S
C3474 C3472 1.395 . S
C3474 C3477 1.403 . S
C3475 C3472 1.403 . S
C3475 C3476 1.524 . S
C3475 C3479 1.400 . S
C3476 H3461 0.960 . S
C3476 H3462 0.960 . S
C3476 H3463 0.960 . S
C3476 C3475 1.524 . S
C3477 C3474 1.403 . S
C3477 C3478 1.392 . S
C3477 C3481 1.495 . S
C3478 C3477 1.392 . S
C3478 C3479 1.385 . S
C3478 C3480 1.478 . S
C3479 H3473 0.930 . S
C3479 C3475 1.400 . S
C3479 C3478 1.385 . S
C3480 C3478 1.478 . S
C3480 C3482 1.381 . S
C3480 C3486 1.383 . S
C3481 C3477 1.495 . S
C3481 H3487 0.959 . S
C3481 H3488 0.961 . S
C3481 H3489 0.960 . S
C3482 C3480 1.381 . S
C3482 C3483 1.394 . S
C3482 H3490 0.930 . S
C3483 C3482 1.394 . S
C3483 C3484 1.383 . S
C3483 H3491 0.929 . S
C3484 C3483 1.383 . S
C3484 C3485 1.377 . S
C3485 H3469 0.930 . S
C3485 C3484 1.377 . S
C3485 C3486 1.379 . S
C3486 H3470 0.931 . S
C3486 C3480 1.383 . S
C3486 C3485 1.379 . S
H3487 C3481 0.959 . S
H3488 C3481 0.961 . S
H3489 C3481 0.960 . S
H3490 C3482 0.930 . S
H3491 C3483 0.929 . S
H3492 C3500 0.929 . S
H3493 C3502 0.930 . S
H3494 C3504 0.930 . S
H3495 C3507 0.929 . S
H3496 C3510 0.930 . S
H3497 C3512 0.960 . S
H3498 C3512 0.960 . S
H3499 C3512 0.960 . S
C3500 H3492 0.929 . S
C3500 C3501 1.377 . S
C3500 C3502 1.384 . S
C3501 C3500 1.377 . S
C3501 C3507 1.390 . S
C3502 H3493 0.930 . S
C3502 C3500 1.384 . S
C3502 C3503 1.372 . S
C3503 C3502 1.372 . S
C3503 C3504 1.400 . S
C3503 C3508 1.490 . S
C3504 H3494 0.930 . S
C3504 C3503 1.400 . S
C3504 C3507 1.386 . S
H3505 C3521 0.930 . S
H3506 C3522 0.931 . S
C3507 H3495 0.929 . S
C3507 C3501 1.390 . S
C3507 C3504 1.386 . S
C3508 C3503 1.490 . S
C3508 C3510 1.395 . S
C3508 C3511 1.403 . S
H3509 C3515 0.930 . S
C3510 H3496 0.930 . S
C3510 C3508 1.395 . S
C3510 C3513 1.403 . S
C3511 C3508 1.403 . S
C3511 C3512 1.524 . S
C3511 C3515 1.400 . S
C3512 H3497 0.960 . S
C3512 H3498 0.960 . S
C3512 H3499 0.960 . S
C3512 C3511 1.524 . S
C3513 C3510 1.403 . S
C3513 C3514 1.392 . S
C3513 C3517 1.495 . S
C3514 C3513 1.392 . S
C3514 C3515 1.385 . S
C3514 C3516 1.478 . S
C3515 H3509 0.930 . S
C3515 C3511 1.400 . S
C3515 C3514 1.385 . S
C3516 C3514 1.478 . S
C3516 C3518 1.381 . S
C3516 C3522 1.383 . S
C3517 C3513 1.495 . S
C3517 H3523 0.959 . S
C3517 H3524 0.961 . S
C3517 H3525 0.960 . S
C3518 C3516 1.381 . S
C3518 C3519 1.394 . S
C3518 H3526 0.930 . S
C3519 C3518 1.394 . S
C3519 C3520 1.383 . S
C3519 H3527 0.929 . S
C3520 C3519 1.383 . S
C3520 C3521 1.377 . S
C3521 H3505 0.930 . S
C3521 C3520 1.377 . S
C3521 C3522 1.379 . S
C3522 H3506 0.931 . S
C3522 C3516 1.383 . S
C3522 C3521 1.379 . S
H3523 C3517 0.959 . S
H3524 C3517 0.961 . S
H3525 C3517 0.960 . S
H3526 C3518 0.930 . S
H3527 C3519 0.929 . S
H3528 C3536 0.929 . S
H3529 C3538 0.930 . S
H3530 C3540 0.930 . S
H3531 C3543 0.929 . S
H3532 C3546 0.930 . S
H3533 C3548 0.960 . S
H3534 C3548 0.960 . S
H3535 C3548 0.960 . S
C3536 H3528 0.929 . S
C3536 C3537 1.377 . S
C3536 C3538 1.384 . S
C3537 C3536 1.377 . S
C3537 C3543 1.390 . S
C3538 H3529 0.930 . S
C3538 C3536 1.384 . S
C3538 C3539 1.372 . S
C3539 C3538 1.372 . S
C3539 C3540 1.400 . S
C3539 C3544 1.490 . S
C3540 H3530 0.930 . S
C3540 C3539 1.400 . S
C3540 C3543 1.386 . S
H3541 C3557 0.930 . S
H3542 C3558 0.931 . S
C3543 H3531 0.929 . S
C3543 C3537 1.390 . S
C3543 C3540 1.386 . S
C3544 C3539 1.490 . S
C3544 C3546 1.395 . S
C3544 C3547 1.403 . S
H3545 C3551 0.930 . S
C3546 H3532 0.930 . S
C3546 C3544 1.395 . S
C3546 C3549 1.403 . S
C3547 C3544 1.403 . S
C3547 C3548 1.524 . S
C3547 C3551 1.400 . S
C3548 H3533 0.960 . S
C3548 H3534 0.960 . S
C3548 H3535 0.960 . S
C3548 C3547 1.524 . S
C3549 C3546 1.403 . S
C3549 C3550 1.392 . S
C3549 C3553 1.495 . S
C3550 C3549 1.392 . S
C3550 C3551 1.385 . S
C3550 C3552 1.478 . S
C3551 H3545 0.930 . S
C3551 C3547 1.400 . S
C3551 C3550 1.385 . S
C3552 C3550 1.478 . S
C3552 C3554 1.381 . S
C3552 C3558 1.383 . S
C3553 C3549 1.495 . S
C3553 H3559 0.959 . S
C3553 H3560 0.961 . S
C3553 H3561 0.960 . S
C3554 C3552 1.381 . S
C3554 C3555 1.394 . S
C3554 H3562 0.930 . S
C3555 C3554 1.394 . S
C3555 C3556 1.383 . S
C3555 H3563 0.929 . S
C3556 C3555 1.383 . S
C3556 C3557 1.377 . S
C3557 H3541 0.930 . S
C3557 C3556 1.377 . S
C3557 C3558 1.379 . S
C3558 H3542 0.931 . S
C3558 C3552 1.383 . S
C3558 C3557 1.379 . S
H3559 C3553 0.959 . S
H3560 C3553 0.961 . S
H3561 C3553 0.960 . S
H3562 C3554 0.930 . S
H3563 C3555 0.929 . S
H3564 C3572 0.929 . S
H3565 C3574 0.930 . S
H3566 C3576 0.930 . S
H3567 C3579 0.929 . S
H3568 C3582 0.930 . S
H3569 C3584 0.960 . S
H3570 C3584 0.960 . S
H3571 C3584 0.960 . S
C3572 H3564 0.929 . S
C3572 C3573 1.377 . S
C3572 C3574 1.384 . S
C3573 C3572 1.377 . S
C3573 C3579 1.390 . S
C3574 H3565 0.930 . S
C3574 C3572 1.384 . S
C3574 C3575 1.372 . S
C3575 C3574 1.372 . S
C3575 C3576 1.400 . S
C3575 C3580 1.490 . S
C3576 H3566 0.930 . S
C3576 C3575 1.400 . S
C3576 C3579 1.386 . S
H3577 C3593 0.930 . S
H3578 C3594 0.931 . S
C3579 H3567 0.929 . S
C3579 C3573 1.390 . S
C3579 C3576 1.386 . S
C3580 C3575 1.490 . S
C3580 C3582 1.395 . S
C3580 C3583 1.403 . S
H3581 C3587 0.930 . S
C3582 H3568 0.930 . S
C3582 C3580 1.395 . S
C3582 C3585 1.403 . S
C3583 C3580 1.403 . S
C3583 C3584 1.524 . S
C3583 C3587 1.400 . S
C3584 H3569 0.960 . S
C3584 H3570 0.960 . S
C3584 H3571 0.960 . S
C3584 C3583 1.524 . S
C3585 C3582 1.403 . S
C3585 C3586 1.392 . S
C3585 C3589 1.495 . S
C3586 C3585 1.392 . S
C3586 C3587 1.385 . S
C3586 C3588 1.478 . S
C3587 H3581 0.930 . S
C3587 C3583 1.400 . S
C3587 C3586 1.385 . S
C3588 C3586 1.478 . S
C3588 C3590 1.381 . S
C3588 C3594 1.383 . S
C3589 C3585 1.495 . S
C3589 H3595 0.959 . S
C3589 H3596 0.961 . S
C3589 H3597 0.960 . S
C3590 C3588 1.381 . S
C3590 C3591 1.394 . S
C3590 H3598 0.930 . S
C3591 C3590 1.394 . S
C3591 C3592 1.383 . S
C3591 H3599 0.929 . S
C3592 C3591 1.383 . S
C3592 C3593 1.377 . S
C3593 H3577 0.930 . S
C3593 C3592 1.377 . S
C3593 C3594 1.379 . S
C3594 H3578 0.931 . S
C3594 C3588 1.383 . S
C3594 C3593 1.379 . S
H3595 C3589 0.959 . S
H3596 C3589 0.961 . S
H3597 C3589 0.960 . S
H3598 C3590 0.930 . S
H3599 C3591 0.929 . S
H3600 C3608 0.929 . S
H3601 C3610 0.930 . S
H3602 C3612 0.930 . S
H3603 C3615 0.929 . S
H3604 C3618 0.930 . S
H3605 C3620 0.960 . S
H3606 C3620 0.960 . S
H3607 C3620 0.960 . S
C3608 H3600 0.929 . S
C3608 C3609 1.377 . S
C3608 C3610 1.384 . S
C3609 C3608 1.377 . S
C3609 C3615 1.390 . S
C3610 H3601 0.930 . S
C3610 C3608 1.384 . S
C3610 C3611 1.372 . S
C3611 C3610 1.372 . S
C3611 C3612 1.400 . S
C3611 C3616 1.490 . S
C3612 H3602 0.930 . S
C3612 C3611 1.400 . S
C3612 C3615 1.386 . S
H3613 C3629 0.930 . S
H3614 C3630 0.931 . S
C3615 H3603 0.929 . S
C3615 C3609 1.390 . S
C3615 C3612 1.386 . S
C3616 C3611 1.490 . S
C3616 C3618 1.395 . S
C3616 C3619 1.403 . S
H3617 C3623 0.930 . S
C3618 H3604 0.930 . S
C3618 C3616 1.395 . S
C3618 C3621 1.403 . S
C3619 C3616 1.403 . S
C3619 C3620 1.524 . S
C3619 C3623 1.400 . S
C3620 H3605 0.960 . S
C3620 H3606 0.960 . S
C3620 H3607 0.960 . S
C3620 C3619 1.524 . S
C3621 C3618 1.403 . S
C3621 C3622 1.392 . S
C3621 C3625 1.495 . S
C3622 C3621 1.392 . S
C3622 C3623 1.385 . S
C3622 C3624 1.478 . S
C3623 H3617 0.930 . S
C3623 C3619 1.400 . S
C3623 C3622 1.385 . S
C3624 C3622 1.478 . S
C3624 C3626 1.381 . S
C3624 C3630 1.383 . S
C3625 C3621 1.495 . S
C3625 H3631 0.959 . S
C3625 H3632 0.961 . S
C3625 H3633 0.960 . S
C3626 C3624 1.381 . S
C3626 C3627 1.394 . S
C3626 H3634 0.930 . S
C3627 C3626 1.394 . S
C3627 C3628 1.383 . S
C3627 H3635 0.929 . S
C3628 C3627 1.383 . S
C3628 C3629 1.377 . S
C3629 H3613 0.930 . S
C3629 C3628 1.377 . S
C3629 C3630 1.379 . S
C3630 H3614 0.931 . S
C3630 C3624 1.383 . S
C3630 C3629 1.379 . S
H3631 C3625 0.959 . S
H3632 C3625 0.961 . S
H3633 C3625 0.960 . S
H3634 C3626 0.930 . S
H3635 C3627 0.929 . S
H3636 C3644 0.929 . S
H3637 C3646 0.930 . S
H3638 C3648 0.930 . S
H3639 C3651 0.929 . S
H3640 C3654 0.930 . S
H3641 C3656 0.960 . S
H3642 C3656 0.960 . S
H3643 C3656 0.960 . S
C3644 H3636 0.929 . S
C3644 C3645 1.377 . S
C3644 C3646 1.384 . S
C3645 C3644 1.377 . S
C3645 C3651 1.390 . S
C3646 H3637 0.930 . S
C3646 C3644 1.384 . S
C3646 C3647 1.372 . S
C3647 C3646 1.372 . S
C3647 C3648 1.400 . S
C3647 C3652 1.490 . S
C3648 H3638 0.930 . S
C3648 C3647 1.400 . S
C3648 C3651 1.386 . S
H3649 C3665 0.930 . S
H3650 C3666 0.931 . S
C3651 H3639 0.929 . S
C3651 C3645 1.390 . S
C3651 C3648 1.386 . S
C3652 C3647 1.490 . S
C3652 C3654 1.395 . S
C3652 C3655 1.403 . S
H3653 C3659 0.930 . S
C3654 H3640 0.930 . S
C3654 C3652 1.395 . S
C3654 C3657 1.403 . S
C3655 C3652 1.403 . S
C3655 C3656 1.524 . S
C3655 C3659 1.400 . S
C3656 H3641 0.960 . S
C3656 H3642 0.960 . S
C3656 H3643 0.960 . S
C3656 C3655 1.524 . S
C3657 C3654 1.403 . S
C3657 C3658 1.392 . S
C3657 C3661 1.495 . S
C3658 C3657 1.392 . S
C3658 C3659 1.385 . S
C3658 C3660 1.478 . S
C3659 H3653 0.930 . S
C3659 C3655 1.400 . S
C3659 C3658 1.385 . S
C3660 C3658 1.478 . S
C3660 C3662 1.381 . S
C3660 C3666 1.383 . S
C3661 C3657 1.495 . S
C3661 H3667 0.959 . S
C3661 H3668 0.961 . S
C3661 H3669 0.960 . S
C3662 C3660 1.381 . S
C3662 C3663 1.394 . S
C3662 H3670 0.930 . S
C3663 C3662 1.394 . S
C3663 C3664 1.383 . S
C3663 H3671 0.929 . S
C3664 C3663 1.383 . S
C3664 C3665 1.377 . S
C3665 H3649 0.930 . S
C3665 C3664 1.377 . S
C3665 C3666 1.379 . S
C3666 H3650 0.931 . S
C3666 C3660 1.383 . S
C3666 C3665 1.379 . S
H3667 C3661 0.959 . S
H3668 C3661 0.961 . S
H3669 C3661 0.960 . S
H3670 C3662 0.930 . S
H3671 C3663 0.929 . S
H3672 C3680 0.929 . S
H3673 C3682 0.930 . S
H3674 C3684 0.930 . S
H3675 C3687 0.929 . S
H3676 C3690 0.930 . S
H3677 C3692 0.960 . S
H3678 C3692 0.960 . S
H3679 C3692 0.960 . S
C3680 H3672 0.929 . S
C3680 C3681 1.377 . S
C3680 C3682 1.384 . S
C3681 C3680 1.377 . S
C3681 C3687 1.390 . S
C3682 H3673 0.930 . S
C3682 C3680 1.384 . S
C3682 C3683 1.372 . S
C3683 C3682 1.372 . S
C3683 C3684 1.400 . S
C3683 C3688 1.490 . S
C3684 H3674 0.930 . S
C3684 C3683 1.400 . S
C3684 C3687 1.386 . S
H3685 C3701 0.930 . S
H3686 C3702 0.931 . S
C3687 H3675 0.929 . S
C3687 C3681 1.390 . S
C3687 C3684 1.386 . S
C3688 C3683 1.490 . S
C3688 C3690 1.395 . S
C3688 C3691 1.403 . S
H3689 C3695 0.930 . S
C3690 H3676 0.930 . S
C3690 C3688 1.395 . S
C3690 C3693 1.403 . S
C3691 C3688 1.403 . S
C3691 C3692 1.524 . S
C3691 C3695 1.400 . S
C3692 H3677 0.960 . S
C3692 H3678 0.960 . S
C3692 H3679 0.960 . S
C3692 C3691 1.524 . S
C3693 C3690 1.403 . S
C3693 C3694 1.392 . S
C3693 C3697 1.495 . S
C3694 C3693 1.392 . S
C3694 C3695 1.385 . S
C3694 C3696 1.478 . S
C3695 H3689 0.930 . S
C3695 C3691 1.400 . S
C3695 C3694 1.385 . S
C3696 C3694 1.478 . S
C3696 C3698 1.381 . S
C3696 C3702 1.383 . S
C3697 C3693 1.495 . S
C3697 H3703 0.959 . S
C3697 H3704 0.961 . S
C3697 H3705 0.960 . S
C3698 C3696 1.381 . S
C3698 C3699 1.394 . S
C3698 H3706 0.930 . S
C3699 C3698 1.394 . S
C3699 C3700 1.383 . S
C3699 H3707 0.929 . S
C3700 C3699 1.383 . S
C3700 C3701 1.377 . S
C3701 H3685 0.930 . S
C3701 C3700 1.377 . S
C3701 C3702 1.379 . S
C3702 H3686 0.931 . S
C3702 C3696 1.383 . S
C3702 C3701 1.379 . S
H3703 C3697 0.959 . S
H3704 C3697 0.961 . S
H3705 C3697 0.960 . S
H3706 C3698 0.930 . S
H3707 C3699 0.929 . S
H3708 C3716 0.929 . S
H3709 C3718 0.930 . S
H3710 C3720 0.930 . S
H3711 C3723 0.929 1_556 S
H3712 C3726 0.930 . S
H3713 C3728 0.960 . S
H3714 C3728 0.960 . S
H3715 C3728 0.960 . S
C3716 H3708 0.929 . S
C3716 C3717 1.377 . S
C3716 C3718 1.384 . S
C3717 C3716 1.377 . S
C3717 C3723 1.390 . S
C3718 H3709 0.930 . S
C3718 C3716 1.384 . S
C3718 C3719 1.372 . S
C3719 C3718 1.372 . S
C3719 C3720 1.400 . S
C3719 C3724 1.490 . S
C3720 H3710 0.930 . S
C3720 C3719 1.400 . S
C3720 C3723 1.386 . S
H3721 C3737 0.930 . S
H3722 C3738 0.931 . S
C3723 H3711 0.929 1_554 S
C3723 C3717 1.390 . S
C3723 C3720 1.386 . S
C3724 C3719 1.490 . S
C3724 C3726 1.395 . S
C3724 C3727 1.403 . S
H3725 C3731 0.930 . S
C3726 H3712 0.930 . S
C3726 C3724 1.395 . S
C3726 C3729 1.403 . S
C3727 C3724 1.403 . S
C3727 C3728 1.524 . S
C3727 C3731 1.400 . S
C3728 H3713 0.960 . S
C3728 H3714 0.960 . S
C3728 H3715 0.960 . S
C3728 C3727 1.524 . S
C3729 C3726 1.403 . S
C3729 C3730 1.392 . S
C3729 C3733 1.495 . S
C3730 C3729 1.392 . S
C3730 C3731 1.385 . S
C3730 C3732 1.478 . S
C3731 H3725 0.930 . S
C3731 C3727 1.400 . S
C3731 C3730 1.385 . S
C3732 C3730 1.478 . S
C3732 C3734 1.381 . S
C3732 C3738 1.383 . S
C3733 C3729 1.495 . S
C3733 H3739 0.959 . S
C3733 H3740 0.961 . S
C3733 H3741 0.960 . S
C3734 C3732 1.381 . S
C3734 C3735 1.394 . S
C3734 H3742 0.930 . S
C3735 C3734 1.394 . S
C3735 C3736 1.383 . S
C3735 H3743 0.929 . S
C3736 C3735 1.383 . S
C3736 C3737 1.377 . S
C3737 H3721 0.930 . S
C3737 C3736 1.377 . S
C3737 C3738 1.379 . S
C3738 H3722 0.931 . S
C3738 C3732 1.383 . S
C3738 C3737 1.379 . S
H3739 C3733 0.959 . S
H3740 C3733 0.961 . S
H3741 C3733 0.960 . S
H3742 C3734 0.930 . S
H3743 C3735 0.929 . S
H3744 C3752 0.929 1_556 S
H3745 C3754 0.930 . S
H3746 C3756 0.930 . S
H3747 C3759 0.929 . S
H3748 C3762 0.930 . S
H3749 C3764 0.960 . S
H3750 C3764 0.960 . S
H3751 C3764 0.960 . S
C3752 H3744 0.929 1_554 S
C3752 C3753 1.377 . S
C3752 C3754 1.384 . S
C3753 C3752 1.377 . S
C3753 C3759 1.390 . S
C3754 H3745 0.930 . S
C3754 C3752 1.384 . S
C3754 C3755 1.372 . S
C3755 C3754 1.372 . S
C3755 C3756 1.400 . S
C3755 C3760 1.490 . S
C3756 H3746 0.930 . S
C3756 C3755 1.400 . S
C3756 C3759 1.386 . S
H3757 C3773 0.930 . S
H3758 C3774 0.931 . S
C3759 H3747 0.929 . S
C3759 C3753 1.390 . S
C3759 C3756 1.386 . S
C3760 C3755 1.490 . S
C3760 C3762 1.395 . S
C3760 C3763 1.403 . S
H3761 C3767 0.930 . S
C3762 H3748 0.930 . S
C3762 C3760 1.395 . S
C3762 C3765 1.403 . S
C3763 C3760 1.403 . S
C3763 C3764 1.524 . S
C3763 C3767 1.400 . S
C3764 H3749 0.960 . S
C3764 H3750 0.960 . S
C3764 H3751 0.960 . S
C3764 C3763 1.524 . S
C3765 C3762 1.403 . S
C3765 C3766 1.392 . S
C3765 C3769 1.495 . S
C3766 C3765 1.392 . S
C3766 C3767 1.385 . S
C3766 C3768 1.478 . S
C3767 H3761 0.930 . S
C3767 C3763 1.400 . S
C3767 C3766 1.385 . S
C3768 C3766 1.478 . S
C3768 C3770 1.381 . S
C3768 C3774 1.383 . S
C3769 C3765 1.495 . S
C3769 H3775 0.959 . S
C3769 H3776 0.961 . S
C3769 H3777 0.960 . S
C3770 C3768 1.381 . S
C3770 C3771 1.394 . S
C3770 H3778 0.930 . S
C3771 C3770 1.394 . S
C3771 C3772 1.383 . S
C3771 H3779 0.929 . S
C3772 C3771 1.383 . S
C3772 C3773 1.377 . S
C3773 H3757 0.930 . S
C3773 C3772 1.377 . S
C3773 C3774 1.379 . S
C3774 H3758 0.931 . S
C3774 C3768 1.383 . S
C3774 C3773 1.379 . S
H3775 C3769 0.959 . S
H3776 C3769 0.961 . S
H3777 C3769 0.960 . S
H3778 C3770 0.930 . S
H3779 C3771 0.929 . S
H3780 C3788 0.929 1_556 S
H3781 C3790 0.930 . S
H3782 C3792 0.930 . S
H3783 C3795 0.929 . S
H3784 C3798 0.930 . S
H3785 C3800 0.960 . S
H3786 C3800 0.960 . S
H3787 C3800 0.960 . S
C3788 H3780 0.929 1_554 S
C3788 C3789 1.377 . S
C3788 C3790 1.384 . S
C3789 C3788 1.377 . S
C3789 C3795 1.390 . S
C3790 H3781 0.930 . S
C3790 C3788 1.384 . S
C3790 C3791 1.372 . S
C3791 C3790 1.372 . S
C3791 C3792 1.400 . S
C3791 C3796 1.490 . S
C3792 H3782 0.930 . S
C3792 C3791 1.400 . S
C3792 C3795 1.386 . S
H3793 C3809 0.930 . S
H3794 C3810 0.931 . S
C3795 H3783 0.929 . S
C3795 C3789 1.390 . S
C3795 C3792 1.386 . S
C3796 C3791 1.490 . S
C3796 C3798 1.395 . S
C3796 C3799 1.403 . S
H3797 C3803 0.930 . S
C3798 H3784 0.930 . S
C3798 C3796 1.395 . S
C3798 C3801 1.403 . S
C3799 C3796 1.403 . S
C3799 C3800 1.524 . S
C3799 C3803 1.400 . S
C3800 H3785 0.960 . S
C3800 H3786 0.960 . S
C3800 H3787 0.960 . S
C3800 C3799 1.524 . S
C3801 C3798 1.403 . S
C3801 C3802 1.392 . S
C3801 C3805 1.495 . S
C3802 C3801 1.392 . S
C3802 C3803 1.385 . S
C3802 C3804 1.478 . S
C3803 H3797 0.930 . S
C3803 C3799 1.400 . S
C3803 C3802 1.385 . S
C3804 C3802 1.478 . S
C3804 C3806 1.381 . S
C3804 C3810 1.383 . S
C3805 C3801 1.495 . S
C3805 H3811 0.959 . S
C3805 H3812 0.961 . S
C3805 H3813 0.960 . S
C3806 C3804 1.381 . S
C3806 C3807 1.394 . S
C3806 H3814 0.930 . S
C3807 C3806 1.394 . S
C3807 C3808 1.383 . S
C3807 H3815 0.929 . S
C3808 C3807 1.383 . S
C3808 C3809 1.377 . S
C3809 H3793 0.930 . S
C3809 C3808 1.377 . S
C3809 C3810 1.379 . S
C3810 H3794 0.931 . S
C3810 C3804 1.383 . S
C3810 C3809 1.379 . S
H3811 C3805 0.959 . S
H3812 C3805 0.961 . S
H3813 C3805 0.960 . S
H3814 C3806 0.930 . S
H3815 C3807 0.929 . S
H3816 C3824 0.929 . S
H3817 C3826 0.930 . S
H3818 C3828 0.930 . S
H3819 C3831 0.929 . S
H3820 C3834 0.930 . S
H3821 C3836 0.960 . S
H3822 C3836 0.960 . S
H3823 C3836 0.960 . S
C3824 H3816 0.929 . S
C3824 C3825 1.377 . S
C3824 C3826 1.384 . S
C3825 C3824 1.377 . S
C3825 C3831 1.390 . S
C3826 H3817 0.930 . S
C3826 C3824 1.384 . S
C3826 C3827 1.372 . S
C3827 C3826 1.372 . S
C3827 C3828 1.400 . S
C3827 C3832 1.490 . S
C3828 H3818 0.930 . S
C3828 C3827 1.400 . S
C3828 C3831 1.386 . S
H3829 C3845 0.930 . S
H3830 C3846 0.931 . S
C3831 H3819 0.929 . S
C3831 C3825 1.390 . S
C3831 C3828 1.386 . S
C3832 C3827 1.490 . S
C3832 C3834 1.395 . S
C3832 C3835 1.403 . S
H3833 C3839 0.930 . S
C3834 H3820 0.930 . S
C3834 C3832 1.395 . S
C3834 C3837 1.403 . S
C3835 C3832 1.403 . S
C3835 C3836 1.524 . S
C3835 C3839 1.400 . S
C3836 H3821 0.960 . S
C3836 H3822 0.960 . S
C3836 H3823 0.960 . S
C3836 C3835 1.524 . S
C3837 C3834 1.403 . S
C3837 C3838 1.392 . S
C3837 C3841 1.495 . S
C3838 C3837 1.392 . S
C3838 C3839 1.385 . S
C3838 C3840 1.478 . S
C3839 H3833 0.930 . S
C3839 C3835 1.400 . S
C3839 C3838 1.385 . S
C3840 C3838 1.478 . S
C3840 C3842 1.381 . S
C3840 C3846 1.383 . S
C3841 C3837 1.495 . S
C3841 H3847 0.959 . S
C3841 H3848 0.961 . S
C3841 H3849 0.960 . S
C3842 C3840 1.381 . S
C3842 C3843 1.394 . S
C3842 H3850 0.930 . S
C3843 C3842 1.394 . S
C3843 C3844 1.383 . S
C3843 H3851 0.929 . S
C3844 C3843 1.383 . S
C3844 C3845 1.377 . S
C3845 H3829 0.930 . S
C3845 C3844 1.377 . S
C3845 C3846 1.379 . S
C3846 H3830 0.931 . S
C3846 C3840 1.383 . S
C3846 C3845 1.379 . S
H3847 C3841 0.959 . S
H3848 C3841 0.961 . S
H3849 C3841 0.960 . S
H3850 C3842 0.930 . S
H3851 C3843 0.929 . S
H3852 C3860 0.929 . S
H3853 C3862 0.930 . S
H3854 C3864 0.930 . S
H3855 C3867 0.929 . S
H3856 C3870 0.930 . S
H3857 C3872 0.960 . S
H3858 C3872 0.960 . S
H3859 C3872 0.960 . S
C3860 H3852 0.929 . S
C3860 C3861 1.377 . S
C3860 C3862 1.384 . S
C3861 C3860 1.377 . S
C3861 C3867 1.390 . S
C3862 H3853 0.930 . S
C3862 C3860 1.384 . S
C3862 C3863 1.372 . S
C3863 C3862 1.372 . S
C3863 C3864 1.400 . S
C3863 C3868 1.490 . S
C3864 H3854 0.930 . S
C3864 C3863 1.400 . S
C3864 C3867 1.386 . S
H3865 C3881 0.930 . S
H3866 C3882 0.931 . S
C3867 H3855 0.929 . S
C3867 C3861 1.390 . S
C3867 C3864 1.386 . S
C3868 C3863 1.490 . S
C3868 C3870 1.395 . S
C3868 C3871 1.403 . S
H3869 C3875 0.930 . S
C3870 H3856 0.930 . S
C3870 C3868 1.395 . S
C3870 C3873 1.403 . S
C3871 C3868 1.403 . S
C3871 C3872 1.524 . S
C3871 C3875 1.400 . S
C3872 H3857 0.960 . S
C3872 H3858 0.960 . S
C3872 H3859 0.960 . S
C3872 C3871 1.524 . S
C3873 C3870 1.403 . S
C3873 C3874 1.392 . S
C3873 C3877 1.495 . S
C3874 C3873 1.392 . S
C3874 C3875 1.385 . S
C3874 C3876 1.478 . S
C3875 H3869 0.930 . S
C3875 C3871 1.400 . S
C3875 C3874 1.385 . S
C3876 C3874 1.478 . S
C3876 C3878 1.381 . S
C3876 C3882 1.383 . S
C3877 C3873 1.495 . S
C3877 H3883 0.959 . S
C3877 H3884 0.961 . S
C3877 H3885 0.960 . S
C3878 C3876 1.381 . S
C3878 C3879 1.394 . S
C3878 H3886 0.930 . S
C3879 C3878 1.394 . S
C3879 C3880 1.383 . S
C3879 H3887 0.929 . S
C3880 C3879 1.383 . S
C3880 C3881 1.377 . S
C3881 H3865 0.930 . S
C3881 C3880 1.377 . S
C3881 C3882 1.379 . S
C3882 H3866 0.931 . S
C3882 C3876 1.383 . S
C3882 C3881 1.379 . S
H3883 C3877 0.959 . S
H3884 C3877 0.961 . S
H3885 C3877 0.960 . S
H3886 C3878 0.930 . S
H3887 C3879 0.929 . S
H3888 C3896 0.929 . S
H3889 C3898 0.930 . S
H3890 C3900 0.930 . S
H3891 C3903 0.929 . S
H3892 C3906 0.930 . S
H3893 C3908 0.960 . S
H3894 C3908 0.960 . S
H3895 C3908 0.960 . S
C3896 H3888 0.929 . S
C3896 C3897 1.377 . S
C3896 C3898 1.384 . S
C3897 C3896 1.377 . S
C3897 C3903 1.390 . S
C3898 H3889 0.930 . S
C3898 C3896 1.384 . S
C3898 C3899 1.372 . S
C3899 C3898 1.372 . S
C3899 C3900 1.400 . S
C3899 C3904 1.490 . S
C3900 H3890 0.930 . S
C3900 C3899 1.400 . S
C3900 C3903 1.386 . S
H3901 C3917 0.930 . S
H3902 C3918 0.931 . S
C3903 H3891 0.929 . S
C3903 C3897 1.390 . S
C3903 C3900 1.386 . S
C3904 C3899 1.490 . S
C3904 C3906 1.395 . S
C3904 C3907 1.403 . S
H3905 C3911 0.930 . S
C3906 H3892 0.930 . S
C3906 C3904 1.395 . S
C3906 C3909 1.403 . S
C3907 C3904 1.403 . S
C3907 C3908 1.524 . S
C3907 C3911 1.400 . S
C3908 H3893 0.960 . S
C3908 H3894 0.960 . S
C3908 H3895 0.960 . S
C3908 C3907 1.524 . S
C3909 C3906 1.403 . S
C3909 C3910 1.392 . S
C3909 C3913 1.495 . S
C3910 C3909 1.392 . S
C3910 C3911 1.385 . S
C3910 C3912 1.478 . S
C3911 H3905 0.930 . S
C3911 C3907 1.400 . S
C3911 C3910 1.385 . S
C3912 C3910 1.478 . S
C3912 C3914 1.381 . S
C3912 C3918 1.383 . S
C3913 C3909 1.495 . S
C3913 H3919 0.959 . S
C3913 H3920 0.961 . S
C3913 H3921 0.960 . S
C3914 C3912 1.381 . S
C3914 C3915 1.394 . S
C3914 H3922 0.930 . S
C3915 C3914 1.394 . S
C3915 C3916 1.383 . S
C3915 H3923 0.929 . S
C3916 C3915 1.383 . S
C3916 C3917 1.377 . S
C3917 H3901 0.930 . S
C3917 C3916 1.377 . S
C3917 C3918 1.379 . S
C3918 H3902 0.931 . S
C3918 C3912 1.383 . S
C3918 C3917 1.379 . S
H3919 C3913 0.959 . S
H3920 C3913 0.961 . S
H3921 C3913 0.960 . S
H3922 C3914 0.930 . S
H3923 C3915 0.929 . S
H3924 C3932 0.929 . S
H3925 C3934 0.930 . S
H3926 C3936 0.930 . S
H3927 C3939 0.929 . S
H3928 C3942 0.930 . S
H3929 C3944 0.960 . S
H3930 C3944 0.960 . S
H3931 C3944 0.960 . S
C3932 H3924 0.929 . S
C3932 C3933 1.377 . S
C3932 C3934 1.384 . S
C3933 C3932 1.377 . S
C3933 C3939 1.390 . S
C3934 H3925 0.930 . S
C3934 C3932 1.384 . S
C3934 C3935 1.372 . S
C3935 C3934 1.372 . S
C3935 C3936 1.400 . S
C3935 C3940 1.490 . S
C3936 H3926 0.930 . S
C3936 C3935 1.400 . S
C3936 C3939 1.386 . S
H3937 C3953 0.930 . S
H3938 C3954 0.931 1_556 S
C3939 H3927 0.929 . S
C3939 C3933 1.390 . S
C3939 C3936 1.386 . S
C3940 C3935 1.490 . S
C3940 C3942 1.395 . S
C3940 C3943 1.403 . S
H3941 C3947 0.930 . S
C3942 H3928 0.930 . S
C3942 C3940 1.395 . S
C3942 C3945 1.403 . S
C3943 C3940 1.403 . S
C3943 C3944 1.524 . S
C3943 C3947 1.400 . S
C3944 H3929 0.960 . S
C3944 H3930 0.960 . S
C3944 H3931 0.960 . S
C3944 C3943 1.524 . S
C3945 C3942 1.403 . S
C3945 C3946 1.392 . S
C3945 C3949 1.495 . S
C3946 C3945 1.392 . S
C3946 C3947 1.385 . S
C3946 C3948 1.478 . S
C3947 H3941 0.930 . S
C3947 C3943 1.400 . S
C3947 C3946 1.385 . S
C3948 C3946 1.478 . S
C3948 C3950 1.381 . S
C3948 C3954 1.383 . S
C3949 C3945 1.495 . S
C3949 H3955 0.959 . S
C3949 H3956 0.961 . S
C3949 H3957 0.960 . S
C3950 C3948 1.381 . S
C3950 C3951 1.394 . S
C3950 H3958 0.930 . S
C3951 C3950 1.394 . S
C3951 C3952 1.383 1_554 S
C3951 H3959 0.929 . S
C3952 C3951 1.383 1_556 S
C3952 C3953 1.377 . S
C3953 H3937 0.930 . S
C3953 C3952 1.377 . S
C3953 C3954 1.379 1_556 S
C3954 H3938 0.931 1_554 S
C3954 C3948 1.383 . S
C3954 C3953 1.379 1_554 S
H3955 C3949 0.959 . S
H3956 C3949 0.961 . S
H3957 C3949 0.960 . S
H3958 C3950 0.930 . S
H3959 C3951 0.929 . S
H3960 C3968 0.929 . S
H3961 C3970 0.930 . S
H3962 C3972 0.930 . S
H3963 C3975 0.929 . S
H3964 C3978 0.930 . S
H3965 C3980 0.960 . S
H3966 C3980 0.960 . S
H3967 C3980 0.960 . S
C3968 H3960 0.929 . S
C3968 C3969 1.377 . S
C3968 C3970 1.384 . S
C3969 C3968 1.377 . S
C3969 C3975 1.390 . S
C3970 H3961 0.930 . S
C3970 C3968 1.384 . S
C3970 C3971 1.372 . S
C3971 C3970 1.372 . S
C3971 C3972 1.400 . S
C3971 C3976 1.490 . S
C3972 H3962 0.930 . S
C3972 C3971 1.400 . S
C3972 C3975 1.386 . S
H3973 C3989 0.930 . S
H3974 C3990 0.931 . S
C3975 H3963 0.929 . S
C3975 C3969 1.390 . S
C3975 C3972 1.386 . S
C3976 C3971 1.490 . S
C3976 C3978 1.395 . S
C3976 C3979 1.403 . S
H3977 C3983 0.930 . S
C3978 H3964 0.930 . S
C3978 C3976 1.395 . S
C3978 C3981 1.403 . S
C3979 C3976 1.403 . S
C3979 C3980 1.524 . S
C3979 C3983 1.400 . S
C3980 H3965 0.960 . S
C3980 H3966 0.960 . S
C3980 H3967 0.960 . S
C3980 C3979 1.524 . S
C3981 C3978 1.403 . S
C3981 C3982 1.392 . S
C3981 C3985 1.495 . S
C3982 C3981 1.392 . S
C3982 C3983 1.385 . S
C3982 C3984 1.478 . S
C3983 H3977 0.930 . S
C3983 C3979 1.400 . S
C3983 C3982 1.385 . S
C3984 C3982 1.478 . S
C3984 C3986 1.381 . S
C3984 C3990 1.383 . S
C3985 C3981 1.495 . S
C3985 H3991 0.959 . S
C3985 H3992 0.961 . S
C3985 H3993 0.960 . S
C3986 C3984 1.381 . S
C3986 C3987 1.394 . S
C3986 H3994 0.930 . S
C3987 C3986 1.394 . S
C3987 C3988 1.383 1_554 S
C3987 H3995 0.929 . S
C3988 C3987 1.383 1_556 S
C3988 C3989 1.377 . S
C3989 H3973 0.930 . S
C3989 C3988 1.377 . S
C3989 C3990 1.379 1_556 S
C3990 H3974 0.931 . S
C3990 C3984 1.383 . S
C3990 C3989 1.379 1_554 S
H3991 C3985 0.959 . S
H3992 C3985 0.961 . S
H3993 C3985 0.960 . S
H3994 C3986 0.930 . S
H3995 C3987 0.929 . S
H3996 C4004 0.929 . S
H3997 C4006 0.930 . S
H3998 C4008 0.930 . S
H3999 C4011 0.929 . S
H4000 C4014 0.930 . S
H4001 C4016 0.960 . S
H4002 C4016 0.960 . S
H4003 C4016 0.960 . S
C4004 H3996 0.929 . S
C4004 C4005 1.377 . S
C4004 C4006 1.384 . S
C4005 C4004 1.377 . S
C4005 C4011 1.390 . S
C4006 H3997 0.930 . S
C4006 C4004 1.384 . S
C4006 C4007 1.372 . S
C4007 C4006 1.372 . S
C4007 C4008 1.400 . S
C4007 C4012 1.490 . S
C4008 H3998 0.930 . S
C4008 C4007 1.400 . S
C4008 C4011 1.386 . S
H4009 C4025 0.930 . S
H4010 C4026 0.931 . S
C4011 H3999 0.929 . S
C4011 C4005 1.390 . S
C4011 C4008 1.386 . S
C4012 C4007 1.490 . S
C4012 C4014 1.395 . S
C4012 C4015 1.403 . S
H4013 C4019 0.930 . S
C4014 H4000 0.930 . S
C4014 C4012 1.395 . S
C4014 C4017 1.403 . S
C4015 C4012 1.403 . S
C4015 C4016 1.524 . S
C4015 C4019 1.400 . S
C4016 H4001 0.960 . S
C4016 H4002 0.960 . S
C4016 H4003 0.960 . S
C4016 C4015 1.524 . S
C4017 C4014 1.403 . S
C4017 C4018 1.392 . S
C4017 C4021 1.495 . S
C4018 C4017 1.392 . S
C4018 C4019 1.385 . S
C4018 C4020 1.478 . S
C4019 H4013 0.930 . S
C4019 C4015 1.400 . S
C4019 C4018 1.385 . S
C4020 C4018 1.478 . S
C4020 C4022 1.381 . S
C4020 C4026 1.383 . S
C4021 C4017 1.495 . S
C4021 H4027 0.959 . S
C4021 H4028 0.961 . S
C4021 H4029 0.960 . S
C4022 C4020 1.381 . S
C4022 C4023 1.394 . S
C4022 H4030 0.930 . S
C4023 C4022 1.394 . S
C4023 C4024 1.383 1_554 S
C4023 H4031 0.929 . S
C4024 C4023 1.383 1_556 S
C4024 C4025 1.377 . S
C4025 H4009 0.930 . S
C4025 C4024 1.377 . S
C4025 C4026 1.379 1_556 S
C4026 H4010 0.931 . S
C4026 C4020 1.383 . S
C4026 C4025 1.379 1_554 S
H4027 C4021 0.959 . S
H4028 C4021 0.961 . S
H4029 C4021 0.960 . S
H4030 C4022 0.930 . S
H4031 C4023 0.929 . S
H4032 C4040 0.929 . S
H4033 C4042 0.930 . S
H4034 C4044 0.930 . S
H4035 C4047 0.929 . S
H4036 C4050 0.930 . S
H4037 C4052 0.960 . S
H4038 C4052 0.960 . S
H4039 C4052 0.960 . S
C4040 H4032 0.929 . S
C4040 C4041 1.377 . S
C4040 C4042 1.384 . S
C4041 C4040 1.377 . S
C4041 C4047 1.390 . S
C4042 H4033 0.930 . S
C4042 C4040 1.384 . S
C4042 C4043 1.372 . S
C4043 C4042 1.372 . S
C4043 C4044 1.400 . S
C4043 C4048 1.490 . S
C4044 H4034 0.930 . S
C4044 C4043 1.400 . S
C4044 C4047 1.386 . S
H4045 C4061 0.930 . S
H4046 C4062 0.931 . S
C4047 H4035 0.929 . S
C4047 C4041 1.390 . S
C4047 C4044 1.386 . S
C4048 C4043 1.490 . S
C4048 C4050 1.395 . S
C4048 C4051 1.403 . S
H4049 C4055 0.930 . S
C4050 H4036 0.930 . S
C4050 C4048 1.395 . S
C4050 C4053 1.403 . S
C4051 C4048 1.403 . S
C4051 C4052 1.524 . S
C4051 C4055 1.400 . S
C4052 H4037 0.960 . S
C4052 H4038 0.960 . S
C4052 H4039 0.960 . S
C4052 C4051 1.524 . S
C4053 C4050 1.403 . S
C4053 C4054 1.392 . S
C4053 C4057 1.495 . S
C4054 C4053 1.392 . S
C4054 C4055 1.385 . S
C4054 C4056 1.478 . S
C4055 H4049 0.930 . S
C4055 C4051 1.400 . S
C4055 C4054 1.385 . S
C4056 C4054 1.478 . S
C4056 C4058 1.381 . S
C4056 C4062 1.383 . S
C4057 C4053 1.495 . S
C4057 H4063 0.959 . S
C4057 H4064 0.961 . S
C4057 H4065 0.960 . S
C4058 C4056 1.381 . S
C4058 C4059 1.394 . S
C4058 H4066 0.930 . S
C4059 C4058 1.394 . S
C4059 C4060 1.383 . S
C4059 H4067 0.929 . S
C4060 C4059 1.383 . S
C4060 C4061 1.377 . S
C4061 H4045 0.930 . S
C4061 C4060 1.377 . S
C4061 C4062 1.379 . S
C4062 H4046 0.931 . S
C4062 C4056 1.383 . S
C4062 C4061 1.379 . S
H4063 C4057 0.959 . S
H4064 C4057 0.961 . S
H4065 C4057 0.960 . S
H4066 C4058 0.930 . S
H4067 C4059 0.929 . S
H4068 C4076 0.929 . S
H4069 C4078 0.930 . S
H4070 C4080 0.930 . S
H4071 C4083 0.929 . S
H4072 C4086 0.930 . S
H4073 C4088 0.960 . S
H4074 C4088 0.960 . S
H4075 C4088 0.960 . S
C4076 H4068 0.929 . S
C4076 C4077 1.377 . S
C4076 C4078 1.384 . S
C4077 C4076 1.377 . S
C4077 C4083 1.390 . S
C4078 H4069 0.930 . S
C4078 C4076 1.384 . S
C4078 C4079 1.372 . S
C4079 C4078 1.372 . S
C4079 C4080 1.400 . S
C4079 C4084 1.490 . S
C4080 H4070 0.930 . S
C4080 C4079 1.400 . S
C4080 C4083 1.386 . S
H4081 C4097 0.930 . S
H4082 C4098 0.931 . S
C4083 H4071 0.929 . S
C4083 C4077 1.390 . S
C4083 C4080 1.386 . S
C4084 C4079 1.490 . S
C4084 C4086 1.395 . S
C4084 C4087 1.403 . S
H4085 C4091 0.930 . S
C4086 H4072 0.930 . S
C4086 C4084 1.395 . S
C4086 C4089 1.403 . S
C4087 C4084 1.403 . S
C4087 C4088 1.524 . S
C4087 C4091 1.400 . S
C4088 H4073 0.960 . S
C4088 H4074 0.960 . S
C4088 H4075 0.960 . S
C4088 C4087 1.524 . S
C4089 C4086 1.403 . S
C4089 C4090 1.392 . S
C4089 C4093 1.495 . S
C4090 C4089 1.392 . S
C4090 C4091 1.385 . S
C4090 C4092 1.478 . S
C4091 H4085 0.930 . S
C4091 C4087 1.400 . S
C4091 C4090 1.385 . S
C4092 C4090 1.478 . S
C4092 C4094 1.381 . S
C4092 C4098 1.383 . S
C4093 C4089 1.495 . S
C4093 H4099 0.959 . S
C4093 H4100 0.961 . S
C4093 H4101 0.960 . S
C4094 C4092 1.381 . S
C4094 C4095 1.394 . S
C4094 H4102 0.930 . S
C4095 C4094 1.394 . S
C4095 C4096 1.383 . S
C4095 H4103 0.929 . S
C4096 C4095 1.383 . S
C4096 C4097 1.377 . S
C4097 H4081 0.930 . S
C4097 C4096 1.377 . S
C4097 C4098 1.379 . S
C4098 H4082 0.931 . S
C4098 C4092 1.383 . S
C4098 C4097 1.379 . S
H4099 C4093 0.959 . S
H4100 C4093 0.961 . S
H4101 C4093 0.960 . S
H4102 C4094 0.930 . S
H4103 C4095 0.929 . S
H4104 C4112 0.929 . S
H4105 C4114 0.930 . S
H4106 C4116 0.930 . S
H4107 C4119 0.929 . S
H4108 C4122 0.930 . S
H4109 C4124 0.960 . S
H4110 C4124 0.960 . S
H4111 C4124 0.960 . S
C4112 H4104 0.929 . S
C4112 C4113 1.377 . S
C4112 C4114 1.384 . S
C4113 C4112 1.377 . S
C4113 C4119 1.390 . S
C4114 H4105 0.930 . S
C4114 C4112 1.384 . S
C4114 C4115 1.372 . S
C4115 C4114 1.372 . S
C4115 C4116 1.400 . S
C4115 C4120 1.490 . S
C4116 H4106 0.930 . S
C4116 C4115 1.400 . S
C4116 C4119 1.386 . S
H4117 C4133 0.930 . S
H4118 C4134 0.931 . S
C4119 H4107 0.929 . S
C4119 C4113 1.390 . S
C4119 C4116 1.386 . S
C4120 C4115 1.490 . S
C4120 C4122 1.395 . S
C4120 C4123 1.403 . S
H4121 C4127 0.930 . S
C4122 H4108 0.930 . S
C4122 C4120 1.395 . S
C4122 C4125 1.403 . S
C4123 C4120 1.403 . S
C4123 C4124 1.524 . S
C4123 C4127 1.400 . S
C4124 H4109 0.960 . S
C4124 H4110 0.960 . S
C4124 H4111 0.960 . S
C4124 C4123 1.524 . S
C4125 C4122 1.403 . S
C4125 C4126 1.392 . S
C4125 C4129 1.495 . S
C4126 C4125 1.392 . S
C4126 C4127 1.385 . S
C4126 C4128 1.478 . S
C4127 H4121 0.930 . S
C4127 C4123 1.400 . S
C4127 C4126 1.385 . S
C4128 C4126 1.478 . S
C4128 C4130 1.381 . S
C4128 C4134 1.383 . S
C4129 C4125 1.495 . S
C4129 H4135 0.959 . S
C4129 H4136 0.961 . S
C4129 H4137 0.960 . S
C4130 C4128 1.381 . S
C4130 C4131 1.394 . S
C4130 H4138 0.930 . S
C4131 C4130 1.394 . S
C4131 C4132 1.383 . S
C4131 H4139 0.929 . S
C4132 C4131 1.383 . S
C4132 C4133 1.377 . S
C4133 H4117 0.930 . S
C4133 C4132 1.377 . S
C4133 C4134 1.379 . S
C4134 H4118 0.931 . S
C4134 C4128 1.383 . S
C4134 C4133 1.379 . S
H4135 C4129 0.959 . S
H4136 C4129 0.961 . S
H4137 C4129 0.960 . S
H4138 C4130 0.930 . S
H4139 C4131 0.929 . S
H4140 C4148 0.929 . S
H4141 C4150 0.930 . S
H4142 C4152 0.930 . S
H4143 C4155 0.929 . S
H4144 C4158 0.930 . S
H4145 C4160 0.960 . S
H4146 C4160 0.960 . S
H4147 C4160 0.960 . S
C4148 H4140 0.929 . S
C4148 C4149 1.377 . S
C4148 C4150 1.384 . S
C4149 C4148 1.377 . S
C4149 C4155 1.390 . S
C4150 H4141 0.930 . S
C4150 C4148 1.384 . S
C4150 C4151 1.372 . S
C4151 C4150 1.372 . S
C4151 C4152 1.400 . S
C4151 C4156 1.490 . S
C4152 H4142 0.930 . S
C4152 C4151 1.400 . S
C4152 C4155 1.386 . S
H4153 C4169 0.930 . S
H4154 C4170 0.931 . S
C4155 H4143 0.929 . S
C4155 C4149 1.390 . S
C4155 C4152 1.386 . S
C4156 C4151 1.490 . S
C4156 C4158 1.395 . S
C4156 C4159 1.403 . S
H4157 C4163 0.930 . S
C4158 H4144 0.930 . S
C4158 C4156 1.395 . S
C4158 C4161 1.403 . S
C4159 C4156 1.403 . S
C4159 C4160 1.524 . S
C4159 C4163 1.400 . S
C4160 H4145 0.960 . S
C4160 H4146 0.960 . S
C4160 H4147 0.960 . S
C4160 C4159 1.524 . S
C4161 C4158 1.403 . S
C4161 C4162 1.392 . S
C4161 C4165 1.495 1_556 S
C4162 C4161 1.392 . S
C4162 C4163 1.385 . S
C4162 C4164 1.478 . S
C4163 H4157 0.930 . S
C4163 C4159 1.400 . S
C4163 C4162 1.385 . S
C4164 C4162 1.478 . S
C4164 C4166 1.381 . S
C4164 C4170 1.383 . S
C4165 C4161 1.495 1_554 S
C4165 H4171 0.959 . S
C4165 H4172 0.961 . S
C4165 H4173 0.960 . S
C4166 C4164 1.381 . S
C4166 C4167 1.394 1_556 S
C4166 H4174 0.930 . S
C4167 C4166 1.394 1_554 S
C4167 C4168 1.383 . S
C4167 H4175 0.929 . S
C4168 C4167 1.383 . S
C4168 C4169 1.377 1_554 S
C4169 H4153 0.930 . S
C4169 C4168 1.377 1_556 S
C4169 C4170 1.379 . S
C4170 H4154 0.931 . S
C4170 C4164 1.383 . S
C4170 C4169 1.379 . S
H4171 C4165 0.959 . S
H4172 C4165 0.961 . S
H4173 C4165 0.960 . S
H4174 C4166 0.930 . S
H4175 C4167 0.929 . S
H4176 C4184 0.929 . S
H4177 C4186 0.930 . S
H4178 C4188 0.930 . S
H4179 C4191 0.929 . S
H4180 C4194 0.930 . S
H4181 C4196 0.960 . S
H4182 C4196 0.960 . S
H4183 C4196 0.960 . S
C4184 H4176 0.929 . S
C4184 C4185 1.377 . S
C4184 C4186 1.384 . S
C4185 C4184 1.377 . S
C4185 C4191 1.390 . S
C4186 H4177 0.930 . S
C4186 C4184 1.384 . S
C4186 C4187 1.372 . S
C4187 C4186 1.372 . S
C4187 C4188 1.400 . S
C4187 C4192 1.490 . S
C4188 H4178 0.930 . S
C4188 C4187 1.400 . S
C4188 C4191 1.386 . S
H4189 C4205 0.930 . S
H4190 C4206 0.931 . S
C4191 H4179 0.929 . S
C4191 C4185 1.390 . S
C4191 C4188 1.386 . S
C4192 C4187 1.490 . S
C4192 C4194 1.395 . S
C4192 C4195 1.403 . S
H4193 C4199 0.930 . S
C4194 H4180 0.930 . S
C4194 C4192 1.395 . S
C4194 C4197 1.403 . S
C4195 C4192 1.403 . S
C4195 C4196 1.524 . S
C4195 C4199 1.400 . S
C4196 H4181 0.960 . S
C4196 H4182 0.960 . S
C4196 H4183 0.960 . S
C4196 C4195 1.524 . S
C4197 C4194 1.403 . S
C4197 C4198 1.392 . S
C4197 C4201 1.495 . S
C4198 C4197 1.392 . S
C4198 C4199 1.385 . S
C4198 C4200 1.478 . S
C4199 H4193 0.930 . S
C4199 C4195 1.400 . S
C4199 C4198 1.385 . S
C4200 C4198 1.478 . S
C4200 C4202 1.381 . S
C4200 C4206 1.383 . S
C4201 C4197 1.495 . S
C4201 H4207 0.959 . S
C4201 H4208 0.961 . S
C4201 H4209 0.960 . S
C4202 C4200 1.381 . S
C4202 C4203 1.394 . S
C4202 H4210 0.930 . S
C4203 C4202 1.394 . S
C4203 C4204 1.383 1_556 S
C4203 H4211 0.929 . S
C4204 C4203 1.383 1_554 S
C4204 C4205 1.377 . S
C4205 H4189 0.930 . S
C4205 C4204 1.377 . S
C4205 C4206 1.379 1_554 S
C4206 H4190 0.931 . S
C4206 C4200 1.383 . S
C4206 C4205 1.379 1_556 S
H4207 C4201 0.959 . S
H4208 C4201 0.961 . S
H4209 C4201 0.960 . S
H4210 C4202 0.930 . S
H4211 C4203 0.929 . S
H4212 C4220 0.929 . S
H4213 C4222 0.930 . S
H4214 C4224 0.930 . S
H4215 C4227 0.929 . S
H4216 C4230 0.930 . S
H4217 C4232 0.960 . S
H4218 C4232 0.960 . S
H4219 C4232 0.960 . S
C4220 H4212 0.929 . S
C4220 C4221 1.377 1_556 S
C4220 C4222 1.384 . S
C4221 C4220 1.377 1_554 S
C4221 C4227 1.390 . S
C4222 H4213 0.930 . S
C4222 C4220 1.384 . S
C4222 C4223 1.372 . S
C4223 C4222 1.372 . S
C4223 C4224 1.400 . S
C4223 C4228 1.490 . S
C4224 H4214 0.930 . S
C4224 C4223 1.400 . S
C4224 C4227 1.386 1_556 S
H4225 C4241 0.930 . S
H4226 C4242 0.931 . S
C4227 H4215 0.929 . S
C4227 C4221 1.390 . S
C4227 C4224 1.386 1_554 S
C4228 C4223 1.490 . S
C4228 C4230 1.395 . S
C4228 C4231 1.403 . S
H4229 C4235 0.930 . S
C4230 H4216 0.930 . S
C4230 C4228 1.395 . S
C4230 C4233 1.403 . S
C4231 C4228 1.403 . S
C4231 C4232 1.524 . S
C4231 C4235 1.400 . S
C4232 H4217 0.960 . S
C4232 H4218 0.960 . S
C4232 H4219 0.960 . S
C4232 C4231 1.524 . S
C4233 C4230 1.403 . S
C4233 C4234 1.392 . S
C4233 C4237 1.495 . S
C4234 C4233 1.392 . S
C4234 C4235 1.385 . S
C4234 C4236 1.478 . S
C4235 H4229 0.930 . S
C4235 C4231 1.400 . S
C4235 C4234 1.385 . S
C4236 C4234 1.478 . S
C4236 C4238 1.381 . S
C4236 C4242 1.383 . S
C4237 C4233 1.495 . S
C4237 H4243 0.959 . S
C4237 H4244 0.961 . S
C4237 H4245 0.960 . S
C4238 C4236 1.381 . S
C4238 C4239 1.394 . S
C4238 H4246 0.930 . S
C4239 C4238 1.394 . S
C4239 C4240 1.383 . S
C4239 H4247 0.929 . S
C4240 C4239 1.383 . S
C4240 C4241 1.377 . S
C4241 H4225 0.930 . S
C4241 C4240 1.377 . S
C4241 C4242 1.379 . S
C4242 H4226 0.931 . S
C4242 C4236 1.383 . S
C4242 C4241 1.379 . S
H4243 C4237 0.959 . S
H4244 C4237 0.961 . S
H4245 C4237 0.960 . S
H4246 C4238 0.930 . S
H4247 C4239 0.929 . S
H4248 C4256 0.929 . S
H4249 C4258 0.930 . S
H4250 C4260 0.930 . S
H4251 C4263 0.929 . S
H4252 C4266 0.930 . S
H4253 C4268 0.960 . S
H4254 C4268 0.960 . S
H4255 C4268 0.960 . S
C4256 H4248 0.929 . S
C4256 C4257 1.377 . S
C4256 C4258 1.384 . S
C4257 C4256 1.377 . S
C4257 C4263 1.390 . S
C4258 H4249 0.930 . S
C4258 C4256 1.384 . S
C4258 C4259 1.372 . S
C4259 C4258 1.372 . S
C4259 C4260 1.400 . S
C4259 C4264 1.490 . S
C4260 H4250 0.930 . S
C4260 C4259 1.400 . S
C4260 C4263 1.386 . S
H4261 C4277 0.930 . S
H4262 C4278 0.931 . S
C4263 H4251 0.929 . S
C4263 C4257 1.390 . S
C4263 C4260 1.386 . S
C4264 C4259 1.490 . S
C4264 C4266 1.395 . S
C4264 C4267 1.403 . S
H4265 C4271 0.930 . S
C4266 H4252 0.930 . S
C4266 C4264 1.395 . S
C4266 C4269 1.403 1_455 S
C4267 C4264 1.403 . S
C4267 C4268 1.524 . S
C4267 C4271 1.400 1_455 S
C4268 H4253 0.960 . S
C4268 H4254 0.960 . S
C4268 H4255 0.960 . S
C4268 C4267 1.524 . S
C4269 C4266 1.403 1_655 S
C4269 C4270 1.392 . S
C4269 C4273 1.495 . S
C4270 C4269 1.392 . S
C4270 C4271 1.385 . S
C4270 C4272 1.478 . S
C4271 H4265 0.930 . S
C4271 C4267 1.400 1_655 S
C4271 C4270 1.385 . S
C4272 C4270 1.478 . S
C4272 C4274 1.381 . S
C4272 C4278 1.383 . S
C4273 C4269 1.495 . S
C4273 H4279 0.959 . S
C4273 H4280 0.961 . S
C4273 H4281 0.960 . S
C4274 C4272 1.381 . S
C4274 C4275 1.394 . S
C4274 H4282 0.930 . S
C4275 C4274 1.394 . S
C4275 C4276 1.383 . S
C4275 H4283 0.929 . S
C4276 C4275 1.383 . S
C4276 C4277 1.377 . S
C4277 H4261 0.930 . S
C4277 C4276 1.377 . S
C4277 C4278 1.379 . S
C4278 H4262 0.931 . S
C4278 C4272 1.383 . S
C4278 C4277 1.379 . S
H4279 C4273 0.959 . S
H4280 C4273 0.961 . S
H4281 C4273 0.960 . S
H4282 C4274 0.930 . S
H4283 C4275 0.929 . S
H4284 C4292 0.929 . S
H4285 C4294 0.930 . S
H4286 C4296 0.930 . S
H4287 C4299 0.929 . S
H4288 C4302 0.930 . S
H4289 C4304 0.960 . S
H4290 C4304 0.960 . S
H4291 C4304 0.960 . S
C4292 H4284 0.929 . S
C4292 C4293 1.377 . S
C4292 C4294 1.384 . S
C4293 C4292 1.377 . S
C4293 C4299 1.390 . S
C4294 H4285 0.930 . S
C4294 C4292 1.384 . S
C4294 C4295 1.372 . S
C4295 C4294 1.372 . S
C4295 C4296 1.400 . S
C4295 C4300 1.490 . S
C4296 H4286 0.930 . S
C4296 C4295 1.400 . S
C4296 C4299 1.386 . S
H4297 C4313 0.930 . S
H4298 C4314 0.931 . S
C4299 H4287 0.929 . S
C4299 C4293 1.390 . S
C4299 C4296 1.386 . S
C4300 C4295 1.490 . S
C4300 C4302 1.395 . S
C4300 C4303 1.403 . S
H4301 C4307 0.930 . S
C4302 H4288 0.930 . S
C4302 C4300 1.395 . S
C4302 C4305 1.403 . S
C4303 C4300 1.403 . S
C4303 C4304 1.524 . S
C4303 C4307 1.400 . S
C4304 H4289 0.960 . S
C4304 H4290 0.960 . S
C4304 H4291 0.960 . S
C4304 C4303 1.524 . S
C4305 C4302 1.403 . S
C4305 C4306 1.392 . S
C4305 C4309 1.495 . S
C4306 C4305 1.392 . S
C4306 C4307 1.385 . S
C4306 C4308 1.478 . S
C4307 H4301 0.930 . S
C4307 C4303 1.400 . S
C4307 C4306 1.385 . S
C4308 C4306 1.478 . S
C4308 C4310 1.381 . S
C4308 C4314 1.383 . S
C4309 C4305 1.495 . S
C4309 H4315 0.959 . S
C4309 H4316 0.961 . S
C4309 H4317 0.960 . S
C4310 C4308 1.381 . S
C4310 C4311 1.394 . S
C4310 H4318 0.930 . S
C4311 C4310 1.394 . S
C4311 C4312 1.383 . S
C4311 H4319 0.929 . S
C4312 C4311 1.383 . S
C4312 C4313 1.377 . S
C4313 H4297 0.930 . S
C4313 C4312 1.377 . S
C4313 C4314 1.379 . S
C4314 H4298 0.931 . S
C4314 C4308 1.383 . S
C4314 C4313 1.379 . S
H4315 C4309 0.959 . S
H4316 C4309 0.961 . S
H4317 C4309 0.960 . S
H4318 C4310 0.930 . S
H4319 C4311 0.929 . S
H4320 C4328 0.929 . S
H4321 C4330 0.930 . S
H4322 C4332 0.930 . S
H4323 C4335 0.929 . S
H4324 C4338 0.940 1_545 S
H4325 C4340 0.960 . S
H4326 C4340 0.960 . S
H4327 C4340 0.960 . S
C4328 H4320 0.929 . S
C4328 C4329 1.377 . S
C4328 C4330 1.384 . S
C4329 C4328 1.377 . S
C4329 C4335 1.390 . S
C4330 H4321 0.930 . S
C4330 C4328 1.384 . S
C4330 C4331 1.372 . S
C4331 C4330 1.372 . S
C4331 C4332 1.400 . S
C4331 C4336 1.490 . S
C4332 H4322 0.930 . S
C4332 C4331 1.400 . S
C4332 C4335 1.386 . S
H4333 C4349 0.930 . S
H4334 C4350 0.931 . S
C4335 H4323 0.929 . S
C4335 C4329 1.390 . S
C4335 C4332 1.386 . S
C4336 C4331 1.490 . S
C4336 C4338 1.393 1_545 S
C4336 C4339 1.403 . S
H4337 C4343 0.930 . S
C4338 H4324 0.940 1_565 S
C4338 C4336 1.393 1_565 S
C4338 C4341 1.405 . S
C4339 C4336 1.403 . S
C4339 C4340 1.524 . S
C4339 C4343 1.400 1_545 S
C4340 H4325 0.960 . S
C4340 H4326 0.960 . S
C4340 H4327 0.960 . S
C4340 C4339 1.524 . S
C4341 C4338 1.405 . S
C4341 C4342 1.392 . S
C4341 C4345 1.495 . S
C4342 C4341 1.392 . S
C4342 C4343 1.385 . S
C4342 C4344 1.478 . S
C4343 H4337 0.930 . S
C4343 C4339 1.400 1_565 S
C4343 C4342 1.385 . S
C4344 C4342 1.478 . S
C4344 C4346 1.381 . S
C4344 C4350 1.383 . S
C4345 C4341 1.495 . S
C4345 H4351 0.959 . S
C4345 H4352 0.961 . S
C4345 H4353 0.960 . S
C4346 C4344 1.381 . S
C4346 C4347 1.394 . S
C4346 H4354 0.930 . S
C4347 C4346 1.394 . S
C4347 C4348 1.383 . S
C4347 H4355 0.929 . S
C4348 C4347 1.383 . S
C4348 C4349 1.377 . S
C4349 H4333 0.930 . S
C4349 C4348 1.377 . S
C4349 C4350 1.379 . S
C4350 H4334 0.931 . S
C4350 C4344 1.383 . S
C4350 C4349 1.379 . S
H4351 C4345 0.959 . S
H4352 C4345 0.961 . S
H4353 C4345 0.960 . S
H4354 C4346 0.930 . S
H4355 C4347 0.929 . S
H4356 C4364 0.929 . S
H4357 C4366 0.930 . S
H4358 C4368 0.930 . S
H4359 C4371 0.929 . S
H4360 C4374 0.930 . S
H4361 C4376 0.960 . S
H4362 C4376 0.943 . S
H4363 C4376 0.960 1_545 S
C4364 H4356 0.929 . S
C4364 C4365 1.377 . S
C4364 C4366 1.384 . S
C4365 C4364 1.377 . S
C4365 C4371 1.390 . S
C4366 H4357 0.930 . S
C4366 C4364 1.384 . S
C4366 C4367 1.372 . S
C4367 C4366 1.372 . S
C4367 C4368 1.400 . S
C4367 C4372 1.490 . S
C4368 H4358 0.930 . S
C4368 C4367 1.400 . S
C4368 C4371 1.386 . S
H4369 C4385 0.930 . S
H4370 C4386 0.931 . S
C4371 H4359 0.929 . S
C4371 C4365 1.390 . S
C4371 C4368 1.386 . S
C4372 C4367 1.490 . S
C4372 C4374 1.395 . S
C4372 C4375 1.358 1_545 S
H4373 C4379 0.930 . S
C4374 H4360 0.930 . S
C4374 C4372 1.395 . S
C4374 C4377 1.403 . S
C4375 C4372 1.358 1_565 S
C4375 C4376 1.523 . S
C4375 C4379 1.452 . S
C4376 H4361 0.960 . S
C4376 H4362 0.943 . S
C4376 H4363 0.960 1_565 S
C4376 C4375 1.523 . S
C4377 C4374 1.403 . S
C4377 C4378 1.392 1_545 S
C4377 C4381 1.495 . S
C4378 C4377 1.392 1_565 S
C4378 C4379 1.385 . S
C4378 C4380 1.478 . S
C4379 H4373 0.930 . S
C4379 C4375 1.452 . S
C4379 C4378 1.385 . S
C4380 C4378 1.478 . S
C4380 C4382 1.381 . S
C4380 C4386 1.383 . S
C4381 C4377 1.495 . S
C4381 H4387 0.959 . S
C4381 H4388 0.961 . S
C4381 H4389 0.960 1_545 S
C4382 C4380 1.381 . S
C4382 C4383 1.394 . S
C4382 H4390 0.930 . S
C4383 C4382 1.394 . S
C4383 C4384 1.383 . S
C4383 H4391 0.929 . S
C4384 C4383 1.383 . S
C4384 C4385 1.377 . S
C4385 H4369 0.930 . S
C4385 C4384 1.377 . S
C4385 C4386 1.379 . S
C4386 H4370 0.931 . S
C4386 C4380 1.383 . S
C4386 C4385 1.379 . S
H4387 C4381 0.959 . S
H4388 C4381 0.961 . S
H4389 C4381 0.960 1_565 S
H4390 C4382 0.930 . S
H4391 C4383 0.929 . S
H4392 C4400 0.929 . S
H4393 C4402 0.930 . S
H4394 C4404 0.930 . S
H4395 C4407 0.929 . S
H4396 C4410 0.930 . S
H4397 C4412 0.960 . S
H4398 C4412 0.959 . S
H4399 C4412 0.962 1_455 S
C4400 H4392 0.929 . S
C4400 C4401 1.377 . S
C4400 C4402 1.384 . S
C4401 C4400 1.377 . S
C4401 C4407 1.390 . S
C4402 H4393 0.930 . S
C4402 C4400 1.384 . S
C4402 C4403 1.372 . S
C4403 C4402 1.372 . S
C4403 C4404 1.400 . S
C4403 C4408 1.490 . S
C4404 H4394 0.930 . S
C4404 C4403 1.400 . S
C4404 C4407 1.386 . S
H4405 C4421 0.930 . S
H4406 C4422 0.931 . S
C4407 H4395 0.929 . S
C4407 C4401 1.390 . S
C4407 C4404 1.386 . S
C4408 C4403 1.490 . S
C4408 C4410 1.395 . S
C4408 C4411 1.313 1_455 S
H4409 C4415 0.930 . S
C4410 H4396 0.930 . S
C4410 C4408 1.395 . S
C4410 C4413 1.403 . S
C4411 C4408 1.313 1_655 S
C4411 C4412 1.549 . S
C4411 C4415 1.477 . S
C4412 H4397 0.960 . S
C4412 H4398 0.959 . S
C4412 H4399 0.962 1_655 S
C4412 C4411 1.549 . S
C4413 C4410 1.403 . S
C4413 C4414 1.392 1_455 S
C4413 C4417 1.495 . S
C4414 C4413 1.392 1_655 S
C4414 C4415 1.385 . S
C4414 C4416 1.478 . S
C4415 H4409 0.930 . S
C4415 C4411 1.477 . S
C4415 C4414 1.385 . S
C4416 C4414 1.478 . S
C4416 C4418 1.381 . S
C4416 C4422 1.383 . S
C4417 C4413 1.495 . S
C4417 H4423 0.959 . S
C4417 H4424 0.961 . S
C4417 H4425 1.056 . S
C4418 C4416 1.381 . S
C4418 C4419 1.394 . S
C4418 H4426 0.930 . S
C4419 C4418 1.394 . S
C4419 C4420 1.383 . S
C4419 H4427 0.929 . S
C4420 C4419 1.383 . S
C4420 C4421 1.377 . S
C4421 H4405 0.930 . S
C4421 C4420 1.377 . S
C4421 C4422 1.379 . S
C4422 H4406 0.931 . S
C4422 C4416 1.383 . S
C4422 C4421 1.379 . S
H4423 C4417 0.959 . S
H4424 C4417 0.961 . S
H4425 C4417 1.056 . S
H4426 C4418 0.930 . S
H4427 C4419 0.929 . S
H4428 C4436 0.929 . S
H4429 C4438 0.930 . S
H4430 C4440 0.930 . S
H4431 C4443 0.929 . S
H4432 C4446 0.930 . S
H4433 C4448 0.960 . S
H4434 C4448 0.960 . S
H4435 C4448 0.960 . S
C4436 H4428 0.929 . S
C4436 C4437 1.377 . S
C4436 C4438 1.384 . S
C4437 C4436 1.377 . S
C4437 C4443 1.390 . S
C4438 H4429 0.930 . S
C4438 C4436 1.384 . S
C4438 C4439 1.372 . S
C4439 C4438 1.372 . S
C4439 C4440 1.400 . S
C4439 C4444 1.490 . S
C4440 H4430 0.930 . S
C4440 C4439 1.400 . S
C4440 C4443 1.386 . S
H4441 C4457 0.930 . S
H4442 C4458 0.931 . S
C4443 H4431 0.929 . S
C4443 C4437 1.390 . S
C4443 C4440 1.386 . S
C4444 C4439 1.490 . S
C4444 C4446 1.395 . S
C4444 C4447 1.403 . S
H4445 C4451 0.930 . S
C4446 H4432 0.930 . S
C4446 C4444 1.395 . S
C4446 C4449 1.403 . S
C4447 C4444 1.403 . S
C4447 C4448 1.524 . S
C4447 C4451 1.400 . S
C4448 H4433 0.960 . S
C4448 H4434 0.960 . S
C4448 H4435 0.960 . S
C4448 C4447 1.524 . S
C4449 C4446 1.403 . S
C4449 C4450 1.392 . S
C4449 C4453 1.495 . S
C4450 C4449 1.392 . S
C4450 C4451 1.385 . S
C4450 C4452 1.478 . S
C4451 H4445 0.930 . S
C4451 C4447 1.400 . S
C4451 C4450 1.385 . S
C4452 C4450 1.478 . S
C4452 C4454 1.381 . S
C4452 C4458 1.383 . S
C4453 C4449 1.495 . S
C4453 H4459 0.959 . S
C4453 H4460 0.961 . S
C4453 H4461 0.960 . S
C4454 C4452 1.381 . S
C4454 C4455 1.394 . S
C4454 H4462 0.930 . S
C4455 C4454 1.394 . S
C4455 C4456 1.383 . S
C4455 H4463 0.929 . S
C4456 C4455 1.383 . S
C4456 C4457 1.377 . S
C4457 H4441 0.930 . S
C4457 C4456 1.377 . S
C4457 C4458 1.379 . S
C4458 H4442 0.931 . S
C4458 C4452 1.383 . S
C4458 C4457 1.379 . S
H4459 C4453 0.959 . S
H4460 C4453 0.961 . S
H4461 C4453 0.960 . S
H4462 C4454 0.930 . S
H4463 C4455 0.929 . S
C1233 C617 0.586 . S
C1252 C5 0.598 . S
C1269 C39 0.608 . S
C1288 C651 0.543 . S
C1305 C685 0.594 . S
C1324 C73 0.657 . S
C1341 C1127 0.612 . S
C1360 C107 0.697 . S
C1377 C1161 0.585 . S
C1396 C141 0.555 . S
C1413 C175 0.619 . S
C1432 C1195 0.691 . S
C1449 C209 0.591 . S
C1468 C821 0.525 . S
C1485 C855 0.589 . S
C1504 C243 0.531 . S
C1521 C277 0.605 . S
C1540 C889 0.690 . S
C1557 C515 0.588 . S
C1576 C311 0.536 . S
C1593 C345 0.621 . S
C1612 C549 0.680 . S
C1629 C583 0.607 . S
C1648 C379 0.693 . S
C1665 C1025 0.586 . S
C1684 C413 0.555 . S
C1701 C447 0.607 . S
C1720 C1059 0.542 . S
C1737 C481 0.613 . S
C1756 C1093 0.697 . S
C1773 C923 0.586 . S
C1792 C719 0.548 . S
C1809 C753 0.589 . S
C1828 C957 0.531 . S
C1845 C787 0.593 . S
C1864 C991 0.652 . S
C1881 C9 1.317 . S
C1900 C111 1.288 . S
C1917 C145 1.314 . S
C1936 C43 1.301 . S
C1953 C77 1.318 . S
C1972 C179 1.288 . S
C1989 C315 1.310 . S
C2008 C213 1.293 . S
C2025 C247 1.315 . S
C2044 C349 1.335 . S
C2061 C383 1.319 . S
C2080 C281 1.320 . S
C2097 C417 1.314 . S
C2116 C519 1.323 . S
C2133 C451 1.318 . S
C2152 C553 1.287 . S
C2169 C587 1.309 . S
C2188 C485 1.332 . S
C2205 C621 1.317 . S
C2224 C723 1.292 . S
C2241 C655 1.314 . S
C2260 C757 1.335 . S
C2277 C791 1.313 . S
C2296 C689 1.334 . S
C2313 C825 1.313 . S
C2332 C927 1.301 . S
C2349 C961 1.311 . S
C2368 C859 1.318 . S
C2385 C995 1.311 . S
C2404 C893 1.333 . S
C2421 C1029 1.318 . S
C2440 C1131 1.298 . S
C2457 C1063 1.319 . S
C2476 C1165 1.315 . S
C2493 C1199 1.312 . S
C2512 C1097 1.289 . S
C2529 C373 1.331 . S
C2548 C20 1.271 . S
C2565 C407 1.337 . S
C2584 C54 1.265 . S
C2601 C339 1.333 . S
C2620 C88 1.320 . S
C2637 C305 1.336 . S
C2656 C122 1.280 . S
C2673 C237 1.337 . S
C2692 C156 1.283 . S
C2709 C190 1.283 . S
C2728 C271 1.331 . S
C2745 C169 1.333 . S
C2764 C224 1.254 . S
C2781 C258 1.289 . S
C2800 C203 1.314 . S
C2817 C292 1.297 . S
C2836 C135 1.323 . S
C2853 C101 1.329 . S
C2872 C326 1.286 . S
C2889 C33 1.337 . S
C2908 C360 1.259 . S
C2925 C394 1.284 . S
C2944 C67 1.326 . S
C2961 C428 1.285 . S
C2980 C781 1.349 . S
C2997 C462 1.284 . S
C3016 C815 1.348 . S
C3033 C496 1.284 . S
C3052 C747 1.325 . S
C3069 C530 1.282 . S
C3088 C713 1.342 1_556 S
C3105 C645 1.331 1_556 S
C3124 C564 1.320 . S
C3141 C679 1.334 1_556 S
C3160 C598 1.312 . S
C3177 C632 1.282 . S
C3196 C577 1.336 . S
C3213 C666 1.288 . S
C3232 C611 1.348 . S
C3249 C543 1.330 . S
C3268 C700 1.285 . S
C3285 C509 1.333 . S
C3304 C734 1.258 . S
C3321 C441 1.333 . S
C3340 C768 1.314 . S
C3357 C802 1.296 . S
C3376 C475 1.316 . S
C3393 C1189 1.336 . S
C3412 C836 1.253 . S
C3429 C1223 1.336 . S
C3448 C870 1.300 . S
C3465 C904 1.296 . S
C3484 C1155 1.326 . S
C3501 C1121 1.337 . S
C3520 C938 1.256 . S
C3537 C1053 1.335 . S
C3556 C972 1.252 . S
C3573 C1006 1.283 . S
C3592 C1087 1.346 . S
C3609 C985 1.338 . S
C3628 C1040 1.269 . S
C3645 C1019 1.331 . S
C3664 C1074 1.319 . S
C3681 C951 1.331 . S
C3700 C1108 1.320 . S
C3717 C917 1.329 1_554 S
C3736 C1142 1.306 . S
C3753 C849 1.337 1_554 S
C3772 C1176 1.264 . S
C3789 C883 1.337 1_554 S
C3808 C1210 1.261 . S
C3825 C546 1.888 . S
C3844 C2 1.877 . S
C3861 C580 1.882 . S
C3880 C36 1.873 . S
C3897 C512 1.887 . S
C3916 C70 1.880 . S
C3933 C104 1.880 . S
C3952 C886 1.901 . S
C3969 C138 1.879 . S
C3988 C818 1.891 . S
C4005 C172 1.884 . S
C4024 C852 1.896 . S
C4041 C206 1.880 . S
C4060 C1158 1.891 . S
C4077 C240 1.880 . S
C4096 C1192 1.877 . S
C4113 C1124 1.879 . S
C4132 C274 1.887 . S
C4149 C308 1.880 . S
C4168 C682 1.877 . S
C4185 C342 1.888 . S
C4204 C614 1.882 . S
C4221 C648 1.887 . S
C4240 C376 1.896 . S
C4257 C954 1.882 . S
C4276 C410 1.902 . S
C4293 C988 1.888 . S
C4312 C444 1.875 . S
C4329 C478 1.879 . S
C4348 C920 1.897 . S
C4365 C716 1.881 . S
C4384 C1090 1.871 . S
C4401 C1022 1.880 . S
C4420 C750 1.880 . S
C4437 C1056 1.881 . S
C4456 C784 1.868 . S
