# Generated by pormake.
# Topology bcs, (6)-cn, num edge types: 1
# Building blocks:
#     Node 0, Type 0, BuildingBlock: BETDEL_clean_sbu_0, # of connection points: 6
#     Node 1, Type 0, BuildingBlock: BETDEL_clean_sbu_0, # of connection points: 6
#     Node 2, Type 0, BuildingBlock: BETDEL_clean_sbu_0, # of connection points: 6
#     Node 3, Type 0, BuildingBlock: BETDEL_clean_sbu_0, # of connection points: 6
#     Node 4, Type 0, BuildingBlock: BETDEL_clean_sbu_0, # of connection points: 6
#     Node 5, Type 0, BuildingBlock: BETDEL_clean_sbu_0, # of connection points: 6
#     Node 6, Type 0, BuildingBlock: BETDEL_clean_sbu_0, # of connection points: 6
#     Node 7, Type 0, BuildingBlock: BETDEL_clean_sbu_0, # of connection points: 6
#     Node 8, Type 0, BuildingBlock: BETDEL_clean_sbu_0, # of connection points: 6
#     Node 9, Type 0, BuildingBlock: BETDEL_clean_sbu_0, # of connection points: 6
#     Node 10, Type 0, BuildingBlock: BETDEL_clean_sbu_0, # of connection points: 6
#     Node 11, Type 0, BuildingBlock: BETDEL_clean_sbu_0, # of connection points: 6
#     Node 12, Type 0, BuildingBlock: BETDEL_clean_sbu_0, # of connection points: 6
#     Node 13, Type 0, BuildingBlock: BETDEL_clean_sbu_0, # of connection points: 6
#     Node 14, Type 0, BuildingBlock: BETDEL_clean_sbu_0, # of connection points: 6
#     Node 15, Type 0, BuildingBlock: BETDEL_clean_sbu_0, # of connection points: 6
#     Edge 16, Type (0, 0), BuildingBlock: CIFDUS_clean_linker_0, # of connection points: 2
#     Edge 17, Type (0, 0), BuildingBlock: CIFDUS_clean_linker_0, # of connection points: 2
#     Edge 18, Type (0, 0), BuildingBlock: CIFDUS_clean_linker_0, # of connection points: 2
#     Edge 19, Type (0, 0), BuildingBlock: CIFDUS_clean_linker_0, # of connection points: 2
#     Edge 20, Type (0, 0), BuildingBlock: CIFDUS_clean_linker_0, # of connection points: 2
#     Edge 21, Type (0, 0), BuildingBlock: CIFDUS_clean_linker_0, # of connection points: 2
#     Edge 22, Type (0, 0), BuildingBlock: CIFDUS_clean_linker_0, # of connection points: 2
#     Edge 23, Type (0, 0), BuildingBlock: CIFDUS_clean_linker_0, # of connection points: 2
#     Edge 24, Type (0, 0), BuildingBlock: CIFDUS_clean_linker_0, # of connection points: 2
#     Edge 25, Type (0, 0), BuildingBlock: CIFDUS_clean_linker_0, # of connection points: 2
#     Edge 26, Type (0, 0), BuildingBlock: CIFDUS_clean_linker_0, # of connection points: 2
#     Edge 27, Type (0, 0), BuildingBlock: CIFDUS_clean_linker_0, # of connection points: 2
#     Edge 28, Type (0, 0), BuildingBlock: CIFDUS_clean_linker_0, # of connection points: 2
#     Edge 29, Type (0, 0), BuildingBlock: CIFDUS_clean_linker_0, # of connection points: 2
#     Edge 30, Type (0, 0), BuildingBlock: CIFDUS_clean_linker_0, # of connection points: 2
#     Edge 31, Type (0, 0), BuildingBlock: CIFDUS_clean_linker_0, # of connection points: 2
#     Edge 32, Type (0, 0), BuildingBlock: CIFDUS_clean_linker_0, # of connection points: 2
#     Edge 33, Type (0, 0), BuildingBlock: CIFDUS_clean_linker_0, # of connection points: 2
#     Edge 34, Type (0, 0), BuildingBlock: CIFDUS_clean_linker_0, # of connection points: 2
#     Edge 35, Type (0, 0), BuildingBlock: CIFDUS_clean_linker_0, # of connection points: 2
#     Edge 36, Type (0, 0), BuildingBlock: CIFDUS_clean_linker_0, # of connection points: 2
#     Edge 37, Type (0, 0), BuildingBlock: CIFDUS_clean_linker_0, # of connection points: 2
#     Edge 38, Type (0, 0), BuildingBlock: CIFDUS_clean_linker_0, # of connection points: 2
#     Edge 39, Type (0, 0), BuildingBlock: CIFDUS_clean_linker_0, # of connection points: 2
#     Edge 40, Type (0, 0), BuildingBlock: CIFDUS_clean_linker_0, # of connection points: 2
#     Edge 41, Type (0, 0), BuildingBlock: CIFDUS_clean_linker_0, # of connection points: 2
#     Edge 42, Type (0, 0), BuildingBlock: CIFDUS_clean_linker_0, # of connection points: 2
#     Edge 43, Type (0, 0), BuildingBlock: CIFDUS_clean_linker_0, # of connection points: 2
#     Edge 44, Type (0, 0), BuildingBlock: CIFDUS_clean_linker_0, # of connection points: 2
#     Edge 45, Type (0, 0), BuildingBlock: CIFDUS_clean_linker_0, # of connection points: 2
#     Edge 46, Type (0, 0), BuildingBlock: CIFDUS_clean_linker_0, # of connection points: 2
#     Edge 47, Type (0, 0), BuildingBlock: CIFDUS_clean_linker_0, # of connection points: 2
#     Edge 48, Type (0, 0), BuildingBlock: CIFDUS_clean_linker_0, # of connection points: 2
#     Edge 49, Type (0, 0), BuildingBlock: CIFDUS_clean_linker_0, # of connection points: 2
#     Edge 50, Type (0, 0), BuildingBlock: CIFDUS_clean_linker_0, # of connection points: 2
#     Edge 51, Type (0, 0), BuildingBlock: CIFDUS_clean_linker_0, # of connection points: 2
#     Edge 52, Type (0, 0), BuildingBlock: CIFDUS_clean_linker_0, # of connection points: 2
#     Edge 53, Type (0, 0), BuildingBlock: CIFDUS_clean_linker_0, # of connection points: 2
#     Edge 54, Type (0, 0), BuildingBlock: CIFDUS_clean_linker_0, # of connection points: 2
#     Edge 55, Type (0, 0), BuildingBlock: CIFDUS_clean_linker_0, # of connection points: 2
#     Edge 56, Type (0, 0), BuildingBlock: CIFDUS_clean_linker_0, # of connection points: 2
#     Edge 57, Type (0, 0), BuildingBlock: CIFDUS_clean_linker_0, # of connection points: 2
#     Edge 58, Type (0, 0), BuildingBlock: CIFDUS_clean_linker_0, # of connection points: 2
#     Edge 59, Type (0, 0), BuildingBlock: CIFDUS_clean_linker_0, # of connection points: 2
#     Edge 60, Type (0, 0), BuildingBlock: CIFDUS_clean_linker_0, # of connection points: 2
#     Edge 61, Type (0, 0), BuildingBlock: CIFDUS_clean_linker_0, # of connection points: 2
#     Edge 62, Type (0, 0), BuildingBlock: CIFDUS_clean_linker_0, # of connection points: 2
#     Edge 63, Type (0, 0), BuildingBlock: CIFDUS_clean_linker_0, # of connection points: 2
# Relax obj value: 0.148
# Max RMSD: 0.238
# Mean RMSD: 0.193
data_MOF--net-bcs--node1-BETDEL_clean_sbu_0--edge1-CIFDUS_clean_linker_0
_symmetry_space_group_name_H-M    P1
_symmetry_Int_Tables_number       1
_symmetry_cell_setting            triclinic
loop_
_symmetry_equiv_pos_as_xyz
'x, y, z'
_cell_length_a     31.939299
_cell_length_b     33.258036
_cell_length_c     30.236856
_cell_angle_alpha  91.115998
_cell_angle_beta   93.910855
_cell_angle_gamma 105.68129
loop_
_atom_site_label
_atom_site_type_symbol
_atom_site_fract_x
_atom_site_fract_y
_atom_site_fract_z
_atom_type_partial_charge
Dy0 Dy 0.04674 0.97297 0.9477 0.0
C1 C 0.98224 0.07775 0.06196 0.0
C2 C 0.09132 0.9275 0.90381 0.0
Dy3 Dy 0.02606 0.03654 0.01194 0.0
O4 O 0.06415 0.91322 0.93342 0.0
O5 O 0.09268 0.96617 0.89672 0.0
O6 O 0.9821 0.92721 0.95873 0.0
O7 O 0.0158 0.96979 0.00969 0.0
C8 C 0.98088 0.94246 -0.00156 0.0
C9 C 0.09058 0.06953 0.96046 0.0
O10 O 0.06477 0.00623 0.05773 0.0
O11 O 0.10185 0.98911 0.0008 0.0
O12 O 0.02445 0.08695 0.06189 0.0
O13 O 0.96422 0.04579 0.03537 0.0
O14 O 0.08777 0.08491 -0.00039 0.0
O15 O 0.05671 0.04054 0.94964 0.0
O16 O 1.00172 0.99429 0.90006 0.0
O17 O 0.97495 0.02826 0.95519 0.0
C18 C 0.09726 0.99302 0.04367 0.0
C19 C 0.97358 0.0139 0.91362 0.0
Dy20 Dy 0.26399 0.72518 0.2809 0.0
C21 C 0.18201 0.82215 0.17142 0.0
C22 C 0.31352 0.68409 0.32852 0.0
Dy23 Dy 0.22668 0.77944 0.22276 0.0
O24 O 0.27154 0.67639 0.32857 0.0
O25 O 0.32857 0.71566 0.30425 0.0
O26 O 0.20699 0.67019 0.26225 0.0
O27 O 0.22868 0.71471 0.21506 0.0
C28 C 0.19943 0.68246 0.223 0.0
C29 C 0.29416 0.82058 0.27826 0.0
O30 O 0.17373 0.75131 0.26673 0.0
O31 O 0.22096 0.74601 0.32567 0.0
O32 O 0.19476 0.83108 0.2129 0.0
O33 O 0.19245 0.78902 0.15823 0.0
O34 O 0.28698 0.83208 0.23844 0.0
O35 O 0.26369 0.78994 0.28771 0.0
O36 O 0.31663 0.74767 0.23461 0.0
O37 O 0.2749 0.76769 0.17835 0.0
C38 C 0.1815 0.74598 0.3094 0.0
C39 C 0.31132 0.75972 0.19377 0.0
Dy40 Dy 0.48042 0.00234 0.53956 0.0
C41 C 0.57459 0.98389 0.38985 0.0
C42 C 0.43764 0.02465 0.60675 0.0
Dy43 Dy 0.53532 0.00147 0.46169 0.0
O44 O 0.41952 0.99876 0.57392 0.0
O45 O 0.4794 0.03745 0.60343 0.0
O46 O 0.44486 0.93505 0.52404 0.0
O47 O 0.46745 0.97504 0.47276 0.0
C48 C 0.44959 0.93784 0.48175 0.0
C49 C 0.56486 0.0683 0.51643 0.0
O50 O 0.49239 0.03817 0.43146 0.0
O51 O 0.46394 0.05209 0.49683 0.0
O52 O 0.59458 0.00639 0.42444 0.0
O53 O 0.53318 0.97016 0.39487 0.0
O54 O 0.56995 0.06874 0.4742 0.0
O55 O 0.54825 0.03136 0.5278 0.0
O56 O 0.52308 0.96534 0.57005 0.0
O57 O 0.55254 0.95216 0.50479 0.0
C58 C 0.46955 0.05819 0.45407 0.0
C59 C 0.54666 0.94589 0.54756 0.0
Dy60 Dy 0.2953 0.25112 0.72935 0.0
C61 C 0.17667 0.34858 0.75396 0.0
C62 C 0.34029 0.19558 0.70852 0.0
Dy63 Dy 0.23828 0.3093 0.73525 0.0
O64 O 0.35737 0.23199 0.72793 0.0
O65 O 0.29871 0.18978 0.69951 0.0
O66 O 0.32187 0.26736 0.79881 0.0
O67 O 0.30521 0.31349 0.76057 0.0
C68 C 0.31856 0.30538 0.79873 0.0
C69 C 0.21607 0.25216 0.66794 0.0
O70 O 0.28924 0.34941 0.69654 0.0
O71 O 0.31552 0.29435 0.67367 0.0
O72 O 0.16934 0.30981 0.74137 0.0
O73 O 0.21845 0.36677 0.75664 0.0
O74 O 0.21348 0.29022 0.66449 0.0
O75 O 0.22893 0.24695 0.70692 0.0
O76 O 0.24557 0.21418 0.77124 0.0
O77 O 0.22527 0.2717 0.79637 0.0
C78 C 0.3138 0.3337 0.67133 0.0
C79 C 0.22561 0.23212 0.79929 0.0
Dy80 Dy 0.05647 0.97038 0.52324 0.0
C81 C 0.92685 0.05838 0.4696 0.0
C82 C 0.11484 0.92821 0.55423 0.0
Dy83 Dy 0.98683 0.01912 0.50335 0.0
O84 O 0.09162 0.92066 0.5166 0.0
O85 O 0.10652 0.95942 0.57528 0.0
O86 O 0.04227 0.94383 0.45348 0.0
O87 O 0.99246 0.95712 0.48838 0.0
C88 C 1.00217 0.94567 0.45164 0.0
C89 C 0.04433 0.04696 0.57391 0.0
O90 O 0.94729 0.9671 0.54075 0.0
O91 O 1.00571 0.94544 0.57274 0.0
O92 O 0.95236 0.06989 0.5055 0.0
O93 O 0.93411 0.02518 0.45181 0.0
O94 O 1.00422 0.04904 0.57155 0.0
O95 O 0.05176 0.03289 0.5374 0.0
O96 O 0.0952 0.02349 0.4853 0.0
O97 O 0.03521 0.04168 0.4519 0.0
C98 C 0.96377 0.94526 0.57004 0.0
C99 C 0.07737 0.04316 0.4545 0.0
Dy100 Dy 0.27447 0.74789 0.77426 0.0
C101 C 0.35082 0.70099 0.62305 0.0
C102 C 0.2422 0.78494 0.84005 0.0
Dy103 Dy 0.31896 0.73762 0.69006 0.0
O104 O 0.22828 0.74568 0.82764 0.0
O105 O 0.27506 0.80317 0.81796 0.0
O106 O 0.23094 0.68292 0.76386 0.0
O107 O 0.25191 0.71854 0.70855 0.0
C108 C 0.23193 0.68302 0.72103 0.0
C109 C 0.3614 0.80146 0.74543 0.0
O110 O 0.27272 0.77227 0.66083 0.0
O111 O 0.25878 0.79599 0.72941 0.0
O112 O 0.36043 0.74103 0.63169 0.0
O113 O 0.32301 0.68154 0.65004 0.0
O114 O 0.36309 0.8033 0.70269 0.0
O115 O 0.34075 0.76558 0.7555 0.0
O116 O 0.31816 0.71248 0.80456 0.0
O117 O 0.33609 0.69032 0.73677 0.0
C118 C 0.25718 0.79762 0.68556 0.0
C119 C 0.33509 0.6878 0.78069 0.0
Dy120 Dy 0.53144 0.95792 0.99157 0.0
C121 C 0.42841 0.06081 0.07095 0.0
C122 C 0.57291 0.91233 0.94114 0.0
Dy123 Dy 0.47023 0.01356 0.02235 0.0
O124 O 0.53764 0.92278 0.92851 0.0
O125 O 0.58506 0.92611 0.98187 0.0
O126 O 0.57612 0.98055 0.05301 0.0
O127 O 0.53987 0.01885 0.02436 0.0
C128 C 0.56444 0.01488 0.05728 0.0
C129 C 0.4378 0.95572 0.95695 0.0
O130 O 0.51009 0.05678 0.97559 0.0
O131 O 0.53581 0.00617 0.94023 0.0
O132 O 0.41563 0.04463 0.03114 0.0
O133 O 0.46432 0.05151 0.08379 0.0
O134 O 0.42607 0.99015 0.95995 0.0
O135 O 0.46221 0.95285 0.99023 0.0
O136 O 0.4915 0.91428 0.03658 0.0
O137 O 0.46604 0.96422 0.07401 0.0
C138 C 0.52947 0.04399 0.94256 0.0
C139 C 0.47333 0.92666 0.07059 0.0
Dy140 Dy 0.28472 0.23934 0.28524 0.0
C141 C 0.17702 0.28833 0.15132 0.0
C142 C 0.33258 0.20606 0.34639 0.0
Dy143 Dy 0.21882 0.24663 0.20843 0.0
O144 O 0.34717 0.22553 0.31146 0.0
O145 O 0.29217 0.20612 0.34884 0.0
O146 O 0.32567 0.30492 0.27447 0.0
O147 O 0.28886 0.26803 0.22115 0.0
C148 C 0.31242 0.30406 0.23259 0.0
C149 C 0.18961 0.18085 0.25893 0.0
O150 O 0.25988 0.21375 0.17125 0.0
O151 O 0.28879 0.18937 0.23441 0.0
O152 O 0.207 0.30542 0.18231 0.0
O153 O 0.17047 0.24785 0.15028 0.0
O154 O 0.17598 0.18216 0.21748 0.0
O155 O 0.21398 0.21635 0.27187 0.0
O156 O 0.24997 0.2792 0.3225 0.0
O157 O 0.20477 0.28852 0.26217 0.0
C158 C 0.28229 0.18944 0.19042 0.0
C159 C 0.21945 0.29588 0.30457 0.0
Dy160 Dy 0.56505 0.47525 0.02905 0.0
C161 C 0.43031 0.54168 0.9432 0.0
C162 C 0.62333 0.44651 0.08162 0.0
Dy163 Dy 0.48988 0.51233 0.99304 0.0
O164 O 0.61194 0.43586 0.04007 0.0
O165 O 0.60399 0.47408 0.09404 0.0
O166 O 0.55355 0.433 0.9681 0.0
O167 O 0.50148 0.45129 0.9932 0.0
C168 C 0.51298 0.433 0.96149 0.0
C169 C 0.54263 0.55542 0.06034 0.0
O170 O 0.45283 0.46452 0.03808 0.0
O171 O 0.51451 0.4574 0.07921 0.0
O172 O 0.43621 0.54427 0.98618 0.0
O173 O 0.45596 0.52149 0.92731 0.0
O174 O 0.50291 0.55728 0.05186 0.0
O175 O 0.55335 0.53622 0.02896 0.0
O176 O 0.60224 0.52375 0.98473 0.0
O177 O 0.541 0.53186 0.94329 0.0
C178 C 0.47169 0.45227 0.07403 0.0
C179 C 0.58393 0.53745 0.94926 0.0
Dy180 Dy 0.72501 0.23834 0.3067 0.0
C181 C 0.81844 0.18311 0.17326 0.0
C182 C 0.68692 0.27972 0.36379 0.0
Dy183 Dy 0.77774 0.21873 0.23257 0.0
O184 O 0.66649 0.25358 0.332 0.0
O185 O 0.72833 0.28213 0.36567 0.0
O186 O 0.68019 0.17336 0.29805 0.0
O187 O 0.70885 0.20496 0.24299 0.0
C188 C 0.68566 0.17095 0.25592 0.0
C189 C 0.81712 0.2854 0.28519 0.0
O190 O 0.74208 0.25599 0.19323 0.0
O191 O 0.72328 0.28739 0.25519 0.0
O192 O 0.8373 0.21453 0.2002 0.0
O193 O 0.7768 0.17138 0.17795 0.0
O194 O 0.82233 0.28393 0.24304 0.0
O195 O 0.7937 0.25116 0.29685 0.0
O196 O 0.76002 0.19806 0.34486 0.0
O197 O 0.78056 0.16942 0.28177 0.0
C198 C 0.7268 0.285 0.21158 0.0
C199 C 0.7764 0.17021 0.32513 0.0
Dy200 Dy 0.03583 0.4781 0.4707 0.0
C201 C 0.93604 0.57647 0.56408 0.0
C202 C 0.07705 0.43111 0.42066 0.0
Dy203 Dy 0.97716 0.53142 0.51182 0.0
O204 O 0.04028 0.4394 0.40896 0.0
O205 O 0.09114 0.44867 0.45959 0.0
O206 O 0.08313 0.49702 0.53075 0.0
O207 O 0.04658 0.53727 0.50852 0.0
C208 C 0.07282 0.53144 0.53896 0.0
C209 C 0.94138 0.47965 0.44253 0.0
O210 O 0.01534 0.57734 0.4674 0.0
O211 O 0.03745 0.52976 0.42263 0.0
O212 O 0.97252 0.56746 0.57523 0.0
O213 O 0.92236 0.56112 0.52419 0.0
O214 O 0.93088 0.51399 0.45079 0.0
O215 O 0.9666 0.47291 0.4735 0.0
O216 O 0.99883 0.43228 0.51656 0.0
O217 O 0.97471 0.4797 0.55919 0.0
C218 C 0.031 0.56715 0.43053 0.0
C219 C 0.98171 0.44245 0.55254 0.0
Dy220 Dy 0.78978 0.74148 0.22932 0.0
C221 C 0.71996 0.87998 0.25781 0.0
C222 C 0.83996 0.68872 0.21715 0.0
Dy223 Dy 0.74726 0.81271 0.23384 0.0
O224 O 0.85418 0.72859 0.22536 0.0
O225 O 0.79741 0.67706 0.21425 0.0
O226 O 0.8153 0.75878 0.29973 0.0
O227 O 0.81026 0.80559 0.25566 0.0
C228 C 0.81948 0.79818 0.29503 0.0
C229 C 0.71211 0.75558 0.16944 0.0
O230 O 0.79829 0.83818 0.18734 0.0
O231 O 0.80602 0.77355 0.16557 0.0
O232 O 0.75795 0.87489 0.26967 0.0
O233 O 0.6969 0.84817 0.23336 0.0
O234 O 0.71375 0.79489 0.16619 0.0
O235 O 0.72602 0.74871 0.20771 0.0
O236 O 0.73578 0.71096 0.26993 0.0
O237 O 0.72068 0.77286 0.29141 0.0
C238 C 0.81247 0.8141 0.15998 0.0
C239 C 0.71669 0.73221 0.29573 0.0
Dy240 Dy 0.79997 0.20712 0.75855 0.0
C241 C 0.69159 0.31541 0.71974 0.0
C242 C 0.84156 0.15589 0.80023 0.0
Dy243 Dy 0.74119 0.2653 0.7487 0.0
O244 O 0.83984 0.16059 0.75758 0.0
O245 O 0.82229 0.18024 0.81966 0.0
O246 O 0.79278 0.19247 0.68531 0.0
O247 O 0.74183 0.2064 0.71731 0.0
C248 C 0.75481 0.19994 0.68017 0.0
C249 C 0.78688 0.27179 0.82731 0.0
O250 O 0.69229 0.21347 0.77609 0.0
O251 O 0.73911 0.1715 0.78914 0.0
O252 O 0.72734 0.32788 0.74527 0.0
O253 O 0.6832 0.27578 0.70965 0.0
O254 O 0.7478 0.27662 0.82215 0.0
O255 O 0.80001 0.26632 0.78996 0.0
O256 O 0.84888 0.26331 0.7375 0.0
O257 O 0.79638 0.29377 0.70729 0.0
C258 C 0.70082 0.17953 0.79158 0.0
C259 C 0.83724 0.29167 0.7131 0.0
Dy260 Dy 0.78613 0.73845 0.79258 0.0
C261 C 0.683 0.79657 0.65618 0.0
C262 C 0.82307 0.69388 0.85111 0.0
Dy263 Dy 0.72579 0.75582 0.71511 0.0
O264 O 0.79617 0.67818 0.81711 0.0
O265 O 0.82952 0.73426 0.85372 0.0
O266 O 0.83223 0.80251 0.79097 0.0
O267 O 0.79626 0.77446 0.73279 0.0
C268 C 0.82191 0.80795 0.74953 0.0
C269 C 0.69307 0.68596 0.75934 0.0
O270 O 0.76152 0.71876 0.67549 0.0
O271 O 0.80079 0.70006 0.73577 0.0
O272 O 0.66519 0.77209 0.68664 0.0
O273 O 0.72405 0.79767 0.65689 0.0
O274 O 0.68253 0.68965 0.71744 0.0
O275 O 0.71668 0.72052 0.77523 0.0
O276 O 0.74397 0.76898 0.83074 0.0
O277 O 0.72053 0.80114 0.77023 0.0
C278 C 0.78926 0.69839 0.69246 0.0
C279 C 0.72412 0.7962 0.81376 0.0
Dy280 Dy 0.56266 0.51008 0.52335 0.0
C281 C 0.46637 0.53643 0.36731 0.0
C282 C 0.59557 0.4802 0.5968 0.0
Dy283 Dy 0.50559 0.50819 0.43792 0.0
O284 O 0.61412 0.51575 0.5799 0.0
O285 O 0.55945 0.46191 0.57386 0.0
O286 O 0.60422 0.57424 0.50702 0.0
O287 O 0.57436 0.52939 0.4567 0.0
C288 C 0.59612 0.56661 0.46438 0.0
C289 C 0.47213 0.44958 0.49387 0.0
O290 O 0.54263 0.46542 0.41331 0.0
O291 O 0.57571 0.45772 0.48255 0.0
O292 O 0.44869 0.50366 0.38913 0.0
O293 O 0.50664 0.55206 0.38257 0.0
O294 O 0.46548 0.44384 0.45098 0.0
O295 O 0.49314 0.4869 0.50407 0.0
O296 O 0.52003 0.54628 0.54937 0.0
O297 O 0.49088 0.55932 0.48049 0.0
C298 C 0.56614 0.447 0.43971 0.0
C299 C 0.49642 0.56548 0.52434 0.0
Dy300 Dy 0.97803 0.50179 0.05367 0.0
C301 C 0.03681 0.46335 0.88489 0.0
C302 C 0.95774 0.52927 0.13278 0.0
Dy303 Dy 1.01353 0.4821 0.96614 0.0
O304 O 0.94264 0.4915 0.11598 0.0
O305 O 0.98507 0.55144 0.10692 0.0
O306 O 0.91083 0.46627 0.02922 0.0
O307 O 0.96429 0.44711 0.00806 0.0
C308 C 0.92341 0.4409 0.00349 0.0
C309 C 0.06683 0.54342 0.01761 0.0
O310 O 0.96029 0.51044 0.94202 0.0
O311 O 0.95416 0.54466 0.00793 0.0
O312 O 0.04698 0.5003 0.90394 0.0
O313 O 1.01255 0.43658 0.9098 0.0
O314 O 0.08094 0.51901 0.99218 0.0
O315 O 0.02611 0.53605 0.01172 0.0
O316 O 0.02818 0.46882 0.07711 0.0
O317 O 0.03647 0.43763 0.00982 0.0
C318 C 0.94566 0.53786 0.96445 0.0
C319 C 0.04338 0.44233 0.0536 0.0
H320 H 0.18742 0.1493 0.79613 0.0
H321 H 0.21494 0.25986 0.88198 0.0
H322 H 0.17895 0.21815 0.94146 0.0
H323 H 0.1377 0.15058 0.96786 0.0
H324 H 0.10317 0.04202 0.87869 0.0
H325 H 0.14466 0.08231 0.82178 0.0
C326 C 0.18572 0.16414 0.828 0.0
C327 C 0.2038 0.20737 0.83497 0.0
C328 C 0.16408 0.14025 0.86139 0.0
C329 C 0.20093 0.22655 0.87599 0.0
C330 C 0.18058 0.20273 0.90996 0.0
C331 C 0.13976 0.13569 0.93615 0.0
C332 C 0.11826 0.09319 0.92766 0.0
C333 C 0.16184 0.15959 0.90291 0.0
C334 C 0.1203 0.07442 0.88621 0.0
C335 C 0.14365 0.09755 0.85356 0.0
H336 H 0.12809 0.92873 0.02119 0.0
H337 H 0.11333 0.00415 0.13383 0.0
H338 H 0.13833 0.95692 0.1841 0.0
H339 H 0.16034 0.8921 0.19534 0.0
H340 H 0.16892 0.81475 0.08184 0.0
H341 H 0.14905 0.86467 0.03209 0.0
C342 C 0.13118 0.93549 0.0567 0.0
C343 C 0.11953 0.97014 0.07393 0.0
C344 C 0.14328 0.90732 0.08503 0.0
C345 C 0.12265 0.97783 0.11998 0.0
C346 C 0.13647 0.95067 0.1486 0.0
C347 C 0.15752 0.88615 0.15971 0.0
C348 C 0.1658 0.84994 0.14205 0.0
C349 C 0.14596 0.91487 0.13143 0.0
C350 C 0.16226 0.84236 0.09599 0.0
C351 C 0.15131 0.87099 0.06761 0.0
H352 H 0.4453 0.94628 0.39343 0.0
H353 H 0.39608 0.86047 0.49493 0.0
H354 H 0.34523 0.8142 0.43942 0.0
H355 H 0.31017 0.80216 0.36344 0.0
H356 H 0.35892 0.88941 0.26294 0.0
H357 H 0.41521 0.93108 0.3167 0.0
C358 C 0.42405 0.91706 0.40328 0.0
C359 C 0.42403 0.90684 0.44809 0.0
C360 C 0.39462 0.89123 0.37151 0.0
C361 C 0.39636 0.86899 0.46053 0.0
C362 C 0.36724 0.84268 0.4289 0.0
C363 C 0.33336 0.83016 0.35337 0.0
C364 C 0.33012 0.8433 0.30973 0.0
C365 C 0.36527 0.85414 0.38454 0.0
C366 C 0.36056 0.87916 0.29665 0.0
C367 C 0.3927 0.90292 0.32729 0.0
H368 H 0.30712 0.1161 0.67641 0.0
H369 H 0.42793 0.20755 0.71874 0.0
H370 H 0.46914 0.15907 0.69736 0.0
H371 H 0.47083 0.09382 0.65946 0.0
H372 H 0.35018 0.00338 0.61449 0.0
H373 H 0.30869 0.04774 0.64537 0.0
C374 C 0.34245 0.12519 0.6812 0.0
C375 C 0.36464 0.16536 0.69835 0.0
C376 C 0.36583 0.09727 0.6687 0.0
C377 C 0.4103 0.1768 0.70508 0.0
C378 C 0.43383 0.14911 0.69299 0.0
C379 C 0.43547 0.0834 0.65744 0.0
C380 C 0.41345 0.04572 0.63455 0.0
C381 C 0.41196 0.10965 0.67387 0.0
C382 C 0.3677 0.03244 0.63195 0.0
C383 C 0.34401 0.05792 0.64923 0.0
H384 H 0.15942 0.93445 0.63545 0.0
H385 H 0.13488 0.8645 0.51045 0.0
H386 H 0.1788 0.81928 0.53845 0.0
H387 H 0.22157 0.79719 0.60004 0.0
H388 H 0.24401 0.86648 0.72561 0.0
H389 H 0.20414 0.91404 0.6959 0.0
C390 C 0.16401 0.90951 0.61428 0.0
C391 C 0.14386 0.90285 0.571 0.0
C392 C 0.18897 0.88323 0.63079 0.0
C393 C 0.15 0.8703 0.54398 0.0
C394 C 0.17512 0.84435 0.55997 0.0
C395 C 0.21812 0.82296 0.62069 0.0
C396 C 0.23568 0.82796 0.66507 0.0
C397 C 0.19442 0.85017 0.60354 0.0
C398 C 0.23058 0.86149 0.69142 0.0
C399 C 0.20775 0.88887 0.67448 0.0
H400 H 0.38287 0.79506 0.8313 0.0
H401 H 0.37598 0.88534 0.73275 0.0
H402 H 0.39731 0.94191 0.79026 0.0
H403 H 0.41673 0.96497 0.86957 0.0
H404 H 0.42793 0.87352 0.96565 0.0
H405 H 0.40579 0.81789 0.90823 0.0
C406 C 0.38631 0.82719 0.82242 0.0
C407 C 0.37789 0.83629 0.7782 0.0
C408 C 0.39897 0.85914 0.85529 0.0
C409 C 0.38268 0.87788 0.76676 0.0
C410 C 0.39455 0.91006 0.79961 0.0
C411 C 0.414 0.93278 0.87768 0.0
C412 C 0.42337 0.92305 0.9216 0.0
C413 C 0.40246 0.90099 0.84412 0.0
C414 C 0.42069 0.88154 0.93196 0.0
C415 C 0.4081 0.84976 0.89921 0.0
H416 H 0.35758 0.09016 0.04611 0.0
H417 H 0.44637 0.08472 0.15838 0.0
H418 H 0.4084 0.12185 0.2052 0.0
H419 H 0.35029 0.15669 0.21473 0.0
H420 H 0.26341 0.16567 0.10205 0.0
H421 H 0.29987 0.1266 0.05546 0.0
C422 C 0.36862 0.09714 0.08082 0.0
C423 C 0.40495 0.08444 0.09856 0.0
C424 C 0.34676 0.11919 0.10772 0.0
C425 C 0.41872 0.09402 0.14365 0.0
C426 C 0.39688 0.11527 0.17057 0.0
C427 C 0.33901 0.14989 0.18005 0.0
C428 C 0.30365 0.16406 0.16226 0.0
C429 C 0.36084 0.12805 0.15307 0.0
C430 C 0.29028 0.15527 0.11693 0.0
C431 C 0.31125 0.13287 0.09015 0.0
H432 H 0.05873 0.04828 0.36654 0.0
H433 H 0.15872 0.09597 0.47203 0.0
H434 H 0.20293 0.14273 0.42078 0.0
H435 H 0.21105 0.17238 0.34649 0.0
H436 H 0.11397 0.11977 0.23974 0.0
H437 H 0.0706 0.07269 0.29075 0.0
C438 C 0.09031 0.06883 0.37814 0.0
C439 C 0.10537 0.06911 0.42296 0.0
C440 C 0.11592 0.09477 0.34826 0.0
C441 C 0.14657 0.09528 0.4376 0.0
C442 C 0.17172 0.12208 0.40836 0.0
C443 C 0.18086 0.15014 0.33428 0.0
C444 C 0.16585 0.14974 0.28938 0.0
C445 C 0.15653 0.12239 0.36368 0.0
C446 C 0.12636 0.12082 0.27411 0.0
C447 C 0.10143 0.09392 0.30331 0.0
H448 H 0.90541 0.19983 0.17139 0.0
H449 H 0.78449 0.11591 0.11611 0.0
H450 H 0.82504 0.07543 0.07664 0.0
H451 H 0.89487 0.06311 0.05989 0.0
H452 H 0.01554 0.1465 0.11659 0.0
H453 H 0.97496 0.18802 0.15414 0.0
C454 C 0.88796 0.17288 0.15038 0.0
C455 C 0.84219 0.16077 0.14639 0.0
C456 C 0.91138 0.14955 0.12861 0.0
C457 C 0.81982 0.12575 0.11939 0.0
C458 C 0.84294 0.10258 0.09707 0.0
C459 C 0.9122 0.09032 0.08059 0.0
C460 C 0.95796 0.10181 0.08578 0.0
C461 C 0.8887 0.11397 0.10185 0.0
C462 C 0.98023 0.13711 0.11241 0.0
C463 C 0.9571 0.16086 0.13369 0.0
H464 H 0.07266 0.64695 0.45309 0.0
H465 H 0.02642 0.56107 0.34045 0.0
H466 H 0.06126 0.61524 0.29062 0.0
H467 H 0.11374 0.68258 0.28122 0.0
H468 H 0.17071 0.76298 0.39556 0.0
H469 H 0.12164 0.71619 0.443 0.0
C470 C 0.06957 0.64049 0.41752 0.0
C471 C 0.0474 0.60041 0.40011 0.0
C472 C 0.09149 0.67091 0.38969 0.0
C473 C 0.04385 0.59183 0.35424 0.0
C474 C 0.0636 0.62272 0.32592 0.0
C475 C 0.11423 0.69046 0.31629 0.0
C476 C 0.14508 0.72606 0.33518 0.0
C477 C 0.08869 0.66184 0.3435 0.0
C478 C 0.14664 0.73577 0.38065 0.0
C479 C 0.11903 0.70885 0.40765 0.0
H480 H 0.61802 0.91975 0.52718 0.0
H481 H 0.52001 0.90391 0.62162 0.0
H482 H 0.55168 0.85479 0.66159 0.0
H483 H 0.60823 0.81718 0.67121 0.0
H484 H 0.70966 0.83654 0.58064 0.0
H485 H 0.67576 0.88288 0.53776 0.0
C486 C 0.60349 0.9054 0.55639 0.0
C487 C 0.56651 0.91564 0.5712 0.0
C488 C 0.62254 0.87762 0.58 0.0
C489 C 0.54851 0.89695 0.60946 0.0
C490 C 0.56657 0.86867 0.63236 0.0
C491 C 0.62268 0.83125 0.64184 0.0
C492 C 0.66121 0.82303 0.62889 0.0
C493 C 0.60368 0.85887 0.61811 0.0
C494 C 0.67992 0.84214 0.5912 0.0
C495 C 0.66056 0.86874 0.56671 0.0
H496 H 0.4291 0.43312 0.94458 0.0
H497 H 0.53058 0.38474 0.89587 0.0
H498 H 0.47891 0.34334 0.83797 0.0
H499 H 0.40406 0.31673 0.80578 0.0
H500 H 0.30191 0.36392 0.85392 0.0
H501 H 0.35501 0.41096 0.90771 0.0
C502 C 0.43988 0.41377 0.92099 0.0
C503 C 0.48316 0.41126 0.92453 0.0
C504 C 0.41005 0.39006 0.88812 0.0
C505 C 0.49718 0.38664 0.89375 0.0
C506 C 0.46775 0.36305 0.86079 0.0
C507 C 0.39371 0.3377 0.8279 0.0
C508 C 0.34968 0.33703 0.82694 0.0
C509 C 0.42403 0.36388 0.8584 0.0
C510 C 0.33599 0.36429 0.85478 0.0
C511 C 0.36617 0.39083 0.88539 0.0
H512 H 0.89106 0.8582 0.28152 0.0
H513 H 0.80228 0.80707 0.3801 0.0
H514 H 0.8492 0.855 0.43721 0.0
H515 H 0.91931 0.90449 0.45982 0.0
H516 H 1.01385 0.94639 0.3637 0.0
H517 H 0.96079 0.90926 0.30401 0.0
C518 C 0.88188 0.85838 0.31543 0.0
C519 C 0.84382 0.82995 0.32733 0.0
C520 C 0.91015 0.88389 0.34809 0.0
C521 C 0.83182 0.82918 0.37099 0.0
C522 C 0.85853 0.85632 0.40335 0.0
C523 C 0.92788 0.90592 0.42564 0.0
C524 C 0.96989 0.92762 0.41553 0.0
C525 C 0.89836 0.88279 0.39245 0.0
C526 C 0.98142 0.92929 0.37163 0.0
C527 C 0.95126 0.90822 0.33778 0.0
H528 H 0.46936 0.63339 0.49686 0.0
H529 H 0.46178 0.54687 0.60259 0.0
H530 H 0.41325 0.57902 0.6398 0.0
H531 H 0.37353 0.63176 0.64341 0.0
H532 H 0.38657 0.7246 0.54421 0.0
H533 H 0.43202 0.69005 0.50308 0.0
C534 C 0.45715 0.62187 0.52812 0.0
C535 C 0.46924 0.58785 0.54696 0.0
C536 C 0.43001 0.64145 0.55032 0.0
C537 C 0.45339 0.57326 0.58758 0.0
C538 C 0.42538 0.59145 0.60883 0.0
C539 C 0.38595 0.64417 0.6125 0.0
C540 C 0.37621 0.68005 0.59626 0.0
C541 C 0.41348 0.62545 0.59055 0.0
C542 C 0.39343 0.69665 0.55695 0.0
C543 C 0.41947 0.67699 0.53363 0.0
H544 H 0.57626 0.02826 0.87673 0.0
H545 H 0.53203 0.12714 0.93625 0.0
H546 H 0.57855 0.17791 0.89031 0.0
H547 H 0.63792 0.19474 0.83964 0.0
H548 H 0.68657 0.09563 0.7879 0.0
H549 H 0.63212 0.04409 0.82499 0.0
C550 C 0.57625 0.06082 0.87962 0.0
C551 C 0.55111 0.07398 0.91039 0.0
C552 C 0.60432 0.08977 0.85492 0.0
C553 C 0.55129 0.11624 0.91301 0.0
C554 C 0.57805 0.14527 0.88697 0.0
C555 C 0.63609 0.16176 0.83619 0.0
C556 C 0.66612 0.14874 0.81151 0.0
C557 C 0.60568 0.13251 0.85884 0.0
C558 C 0.66397 0.10618 0.80728 0.0
C559 C 0.63283 0.07679 0.82829 0.0
H560 H 0.05442 0.36699 0.02763 0.0
H561 H 0.09207 0.46291 0.13218 0.0
H562 H 0.13799 0.42437 0.17023 0.0
H563 H 0.16754 0.36374 0.17398 0.0
H564 H 0.12643 0.26477 0.07317 0.0
H565 H 0.08189 0.30421 0.0332 0.0
C566 C 0.07273 0.37942 0.05873 0.0
C567 C 0.06993 0.41786 0.07699 0.0
C568 C 0.09852 0.35664 0.08093 0.0
C569 C 0.09343 0.43333 0.11755 0.0
C570 C 0.11986 0.4114 0.13924 0.0
C571 C 0.14903 0.3509 0.14308 0.0
C572 C 0.15061 0.3117 0.12614 0.0
C573 C 0.12271 0.37312 0.1212 0.0
C574 C 0.12585 0.29503 0.08662 0.0
C575 C 0.1004 0.31755 0.06388 0.0
H576 H 0.56449 0.54559 0.86121 0.0
H577 H 0.66635 0.58861 0.96617 0.0
H578 H 0.70966 0.63746 0.91634 0.0
H579 H 0.71637 0.67132 0.84432 0.0
H580 H 0.61724 0.62503 0.73763 0.0
H581 H 0.57506 0.57421 0.78659 0.0
C582 C 0.59635 0.56541 0.87303 0.0
C583 C 0.61201 0.56364 0.9175 0.0
C584 C 0.62144 0.59302 0.84391 0.0
C585 C 0.65357 0.58919 0.93214 0.0
C586 C 0.67827 0.61732 0.90369 0.0
C587 C 0.68591 0.64962 0.83156 0.0
C588 C 0.66993 0.65206 0.78738 0.0
C589 C 0.66226 0.61996 0.85971 0.0
C590 C 0.63031 0.6238 0.77142 0.0
C591 C 0.60611 0.59482 0.7995 0.0
H592 H 0.70006 0.35403 0.23464 0.0
H593 H 0.72071 0.28264 0.12123 0.0
H594 H 0.69388 0.32812 0.07144 0.0
H595 H 0.66064 0.38568 0.05945 0.0
H596 H 0.63927 0.45761 0.17163 0.0
H597 H 0.6707 0.41495 0.22224 0.0
C598 C 0.69888 0.34854 0.19905 0.0
C599 C 0.7122 0.31462 0.18196 0.0
C600 C 0.68331 0.37502 0.1702 0.0
C601 C 0.71066 0.3083 0.13561 0.0
C602 C 0.69525 0.33434 0.10692 0.0
C603 C 0.6634 0.39237 0.09495 0.0
C604 C 0.64759 0.42466 0.11178 0.0
C605 C 0.68102 0.36746 0.12378 0.0
C606 C 0.65132 0.43295 0.15785 0.0
C607 C 0.66907 0.40841 0.18681 0.0
H608 H 0.92937 0.39676 0.4433 0.0
H609 H 0.90648 0.4949 0.36212 0.0
H610 H 0.86855 0.44312 0.30363 0.0
H611 H 0.83889 0.3692 0.27755 0.0
H612 H 0.85496 0.27176 0.36366 0.0
H613 H 0.89877 0.32383 0.41844 0.0
C614 C 0.91637 0.40673 0.4126 0.0
C615 C 0.92062 0.44923 0.40658 0.0
C616 C 0.8933 0.37688 0.38027 0.0
C617 C 0.90329 0.46208 0.36715 0.0
C618 C 0.88169 0.43258 0.33386 0.0
C619 C 0.85237 0.35969 0.30824 0.0
C620 C 0.84421 0.31714 0.31684 0.0
C621 C 0.87604 0.38982 0.34031 0.0
C622 C 0.86097 0.30461 0.35673 0.0
C623 C 0.88599 0.33425 0.38793 0.0
H624 H 0.63372 0.6516 0.46853 0.0
H625 H 0.6008 0.54239 0.37994 0.0
H626 H 0.63288 0.5844 0.3198 0.0
H627 H 0.6727 0.65103 0.29258 0.0
H628 H 0.7047 0.76204 0.37793 0.0
H629 H 0.67007 0.72084 0.43878 0.0
C630 C 0.63367 0.63723 0.43602 0.0
C631 C 0.61532 0.5939 0.42886 0.0
C632 C 0.6518 0.66187 0.40094 0.0
C633 C 0.61486 0.57564 0.38644 0.0
C634 C 0.63318 0.59962 0.35191 0.0
C635 C 0.67188 0.6663 0.32443 0.0
C636 C 0.69143 0.70933 0.33095 0.0
C637 C 0.65204 0.64258 0.35886 0.0
C638 C 0.6896 0.72888 0.37213 0.0
C639 C 0.67012 0.70528 0.40697 0.0
H640 H 0.76805 0.31077 0.899 0.0
H641 H 0.87393 0.27837 0.83913 0.0
H642 H 0.92668 0.32606 0.89194 0.0
H643 H 0.94255 0.38374 0.94855 0.0
H644 H 0.83569 0.41904 0.00332 0.0
H645 H 0.78342 0.36359 0.95899 0.0
C646 C 0.80261 0.3135 0.8981 0.0
C647 C 0.81727 0.29176 0.86502 0.0
C648 C 0.83257 0.34211 0.92709 0.0
C649 C 0.86205 0.2952 0.8643 0.0
C650 C 0.89217 0.32266 0.89419 0.0
C651 C 0.90782 0.37898 0.95084 0.0
C652 C 0.89286 0.40562 0.97849 0.0
C653 C 0.87784 0.34749 0.92455 0.0
C654 C 0.84789 0.3991 0.98176 0.0
C655 C 0.81797 0.36736 0.95657 0.0
H656 H 0.86396 0.89278 0.15815 0.0
H657 H 0.81775 0.77766 0.07964 0.0
H658 H 0.86295 0.8086 0.02013 0.0
H659 H 0.91899 0.86751 0.99242 0.0
H660 H 0.97056 0.97902 0.07589 0.0
H661 H 0.91955 0.95084 0.13106 0.0
C662 C 0.86342 0.87467 0.12777 0.0
C663 C 0.83759 0.8332 0.12307 0.0
C664 C 0.89047 0.89212 0.09456 0.0
C665 C 0.83763 0.80971 0.08394 0.0
C666 C 0.86339 0.82738 0.04995 0.0
C667 C 0.91855 0.88568 0.02247 0.0
C668 C 0.94785 0.92554 0.0298 0.0
C669 C 0.89043 0.86841 0.05515 0.0
C670 C 0.94771 0.94858 0.06918 0.0
C671 C 0.91878 0.93237 0.10092 0.0
H672 H 0.89363 0.11002 0.76983 0.0
H673 H 0.82517 0.13079 0.88268 0.0
H674 H 0.8531 0.08058 0.92432 0.0
H675 H 0.9025 0.03721 0.93178 0.0
H676 H 0.97833 0.02102 0.82342 0.0
H677 H 0.94047 0.06127 0.77607 0.0
C678 C 0.8848 0.10322 0.80343 0.0
C679 C 0.85809 0.12442 0.82355 0.0
C680 C 0.90186 0.07485 0.82772 0.0
C681 C 0.84637 0.11533 0.86688 0.0
C682 C 0.86204 0.08643 0.89061 0.0
C683 C 0.91039 0.04192 0.89757 0.0
C684 C 0.94366 0.02694 0.88134 0.0
C685 C 0.89059 0.0669 0.87176 0.0
C686 C 0.95282 0.03239 0.8367 0.0
C687 C 0.93163 0.05588 0.80985 0.0
H688 H 0.66734 0.18191 0.67677 0.0
H689 H 0.77453 0.18407 0.59654 0.0
H690 H 0.72318 0.148 0.53522 0.0
H691 H 0.64893 0.10797 0.50885 0.0
H692 H 0.5432 0.09966 0.59242 0.0
H693 H 0.59283 0.14616 0.64855 0.0
C694 C 0.67941 0.17513 0.64558 0.0
C695 C 0.72447 0.1851 0.64102 0.0
C696 C 0.65001 0.15283 0.61158 0.0
C697 C 0.73985 0.17628 0.60062 0.0
C698 C 0.71059 0.15558 0.56577 0.0
C699 C 0.63678 0.11704 0.53907 0.0
C700 C 0.59287 0.10031 0.5472 0.0
C701 C 0.66577 0.14248 0.57151 0.0
C702 C 0.57716 0.1117 0.58628 0.0
C703 C 0.60545 0.13836 0.6181 0.0
H704 H 0.66122 0.00152 0.38272 0.0
H705 H 0.53673 0.93825 0.31512 0.0
H706 H 0.57309 0.9063 0.2614 0.0
H707 H 0.63849 0.88705 0.24253 0.0
H708 H 0.76225 0.94549 0.31417 0.0
H709 H 0.72824 0.98959 0.35697 0.0
C710 C 0.64221 0.98135 0.35569 0.0
C711 C 0.59652 0.97134 0.35316 0.0
C712 C 0.66319 0.96207 0.32604 0.0
C713 C 0.57202 0.94571 0.31789 0.0
C714 C 0.59275 0.92745 0.2873 0.0
C715 C 0.65813 0.91008 0.26688 0.0
C716 C 0.70241 0.91262 0.27605 0.0
C717 C 0.63807 0.93391 0.29238 0.0
C718 C 0.72786 0.94279 0.30713 0.0
C719 C 0.70841 0.96779 0.33169 0.0
H720 H 0.81795 0.18329 0.40826 0.0
H721 H 0.77695 0.09164 0.30001 0.0
H722 H 0.81767 0.0474 0.3363 0.0
H723 H 0.87081 0.03776 0.39539 0.0
H724 H 0.9138 0.13031 0.50259 0.0
H725 H 0.8669 0.17102 0.47034 0.0
C726 C 0.81718 0.15321 0.3932 0.0
C727 C 0.7945 0.1408 0.35151 0.0
C728 C 0.84181 0.12836 0.41372 0.0
C729 C 0.79434 0.10199 0.33203 0.0
C730 C 0.81779 0.07673 0.35266 0.0
C731 C 0.86959 0.06666 0.41182 0.0
C732 C 0.89601 0.08115 0.45111 0.0
C733 C 0.84268 0.09011 0.39289 0.0
C734 C 0.89395 0.11856 0.47216 0.0
C735 C 0.86709 0.14189 0.45375 0.0
H736 H 0.65195 0.1777 0.17398 0.0
H737 H 0.66606 0.0875 0.27023 0.0
H738 H 0.62961 0.03015 0.21662 0.0
H739 H 0.59565 0.00641 0.14109 0.0
H740 H 0.576 0.09775 0.04833 0.0
H741 H 0.61246 0.15427 0.10195 0.0
C742 C 0.64686 0.14542 0.18313 0.0
C743 C 0.66179 0.13641 0.22541 0.0
C744 C 0.62497 0.11309 0.15282 0.0
C745 C 0.65462 0.09477 0.23759 0.0
C746 C 0.63398 0.06217 0.20699 0.0
C747 C 0.59935 0.03875 0.13291 0.0
C748 C 0.58384 0.04821 0.09092 0.0
C749 C 0.61932 0.07102 0.16435 0.0
C750 C 0.58789 0.08995 0.08057 0.0
C751 C 0.60879 0.12221 0.11109 0.0
H752 H 0.65697 0.83023 0.79135 0.0
H753 H 0.73981 0.81225 0.90366 0.0
H754 H 0.70109 0.84662 0.95289 0.0
H755 H 0.64268 0.88143 0.96443 0.0
H756 H 0.55766 0.89547 0.85223 0.0
H757 H 0.59788 0.8631 0.80299 0.0
C758 C 0.66689 0.83411 0.82655 0.0
C759 C 0.70174 0.8189 0.84354 0.0
C760 C 0.64372 0.85307 0.85492 0.0
C761 C 0.71335 0.82368 0.88947 0.0
C762 C 0.6911 0.84333 0.91773 0.0
C763 C 0.63293 0.87729 0.92922 0.0
C764 C 0.5971 0.89099 0.91214 0.0
C765 C 0.65605 0.85802 0.90093 0.0
C766 C 0.58492 0.8852 0.8664 0.0
C767 C 0.60805 0.86675 0.83811 0.0
H768 H 0.97407 0.93494 0.65902 0.0
H769 H 0.8842 0.89441 0.54372 0.0
H770 H 0.83167 0.84911 0.58894 0.0
H771 H 0.81174 0.81997 0.66118 0.0
H772 H 0.89882 0.8645 0.77777 0.0
H773 H 0.95156 0.90947 0.73257 0.0
C774 C 0.94305 0.91597 0.64396 0.0
C775 C 0.93314 0.91752 0.59812 0.0
C776 C 0.91233 0.89098 0.67048 0.0
C777 C 0.89252 0.89354 0.57897 0.0
C778 C 0.86247 0.86769 0.6048 0.0
C779 C 0.84197 0.83994 0.67675 0.0
C780 C 0.85129 0.83875 0.72275 0.0
C781 C 0.87198 0.86614 0.6506 0.0
C782 C 0.89074 0.8648 0.74242 0.0
C783 C 0.92108 0.8904 0.71654 0.0
H784 H 0.2421 0.86469 0.8287 0.0
H785 H 0.18089 0.75501 0.8985 0.0
H786 H 0.12796 0.78978 0.92454 0.0
H787 H 0.09694 0.85004 0.92362 0.0
H788 H 0.15568 0.95748 0.84918 0.0
H789 H 0.21131 0.92445 0.82765 0.0
C790 C 0.21771 0.84873 0.85038 0.0
C791 C 0.21556 0.80768 0.86232 0.0
C792 C 0.18639 0.86809 0.86328 0.0
C793 C 0.18328 0.78687 0.88946 0.0
C794 C 0.15286 0.80656 0.9039 0.0
C795 C 0.12174 0.866 0.90239 0.0
C796 C 0.12215 0.9059 0.88763 0.0
C797 C 0.15357 0.84683 0.8902 0.0
C798 C 0.15457 0.92653 0.86052 0.0
C799 C 0.18654 0.90784 0.84853 0.0
H800 H 0.94402 0.4518 0.6279 0.0
H801 H 0.98244 0.36007 0.54888 0.0
H802 H 0.94584 0.30502 0.59659 0.0
H803 H 0.89501 0.28206 0.65517 0.0
H804 H 0.85196 0.37402 0.72837 0.0
H805 H 0.89875 0.43013 0.68888 0.0
C806 C 0.94488 0.41988 0.62121 0.0
C807 C 0.96526 0.40998 0.58443 0.0
C808 C 0.92277 0.38842 0.64775 0.0
C809 C 0.96654 0.36849 0.57676 0.0
C810 C 0.94555 0.33697 0.60395 0.0
C811 C 0.89684 0.31452 0.66287 0.0
C812 C 0.87049 0.32441 0.69421 0.0
C813 C 0.92242 0.34641 0.63871 0.0
C814 C 0.87218 0.36619 0.70402 0.0
C815 C 0.89873 0.3981 0.68147 0.0
H816 H 0.40239 0.0888 0.47817 0.0
H817 H 0.49252 0.09568 0.37668 0.0
H818 H 0.46034 0.14423 0.33649 0.0
H819 H 0.40502 0.18307 0.32837 0.0
H820 H 0.31142 0.17299 0.42656 0.0
H821 H 0.34663 0.12794 0.46992 0.0
C822 C 0.41514 0.1011 0.44739 0.0
C823 C 0.44989 0.08843 0.43056 0.0
C824 C 0.39586 0.12862 0.42382 0.0
C825 C 0.46569 0.10453 0.39038 0.0
C826 C 0.44736 0.13248 0.36735 0.0
C827 C 0.39266 0.17141 0.35955 0.0
C828 C 0.35593 0.18168 0.37447 0.0
C829 C 0.41227 0.14453 0.38355 0.0
C830 C 0.33983 0.16575 0.41453 0.0
C831 C 0.35988 0.13986 0.43923 0.0
H832 H 0.56313 0.63668 0.04558 0.0
H833 H 0.59484 0.54514 0.13075 0.0
H834 H 0.6539 0.59955 0.17018 0.0
H835 H 0.69482 0.67306 0.18062 0.0
H836 H 0.66333 0.76478 0.09495 0.0
H837 H 0.60613 0.71002 0.0542 0.0
C838 C 0.58282 0.62906 0.07318 0.0
C839 C 0.57487 0.58778 0.08629 0.0
C840 C 0.61682 0.66015 0.09475 0.0
C841 C 0.60071 0.5772 0.12093 0.0
C842 C 0.63436 0.6081 0.14312 0.0
C843 C 0.67568 0.68094 0.15274 0.0
C844 C 0.68269 0.72262 0.14083 0.0
C845 C 0.64263 0.64963 0.13022 0.0
C846 C 0.65818 0.7327 0.10457 0.0
C847 C 0.62538 0.70157 0.08157 0.0
H848 H 0.20035 0.17056 0.68453 0.0
H849 H 0.16924 0.25589 0.5901 0.0
H850 H 0.11224 0.19857 0.55269 0.0
H851 H 0.06787 0.12574 0.55088 0.0
H852 H 0.09767 0.04068 0.64582 0.0
H853 H 0.15852 0.09695 0.68032 0.0
C854 C 0.18149 0.17648 0.65536 0.0
C855 C 0.18842 0.21724 0.64016 0.0
C856 C 0.1481 0.14387 0.63517 0.0
C857 C 0.16419 0.22465 0.60228 0.0
C858 C 0.13145 0.19207 0.58124 0.0
C859 C 0.08759 0.11993 0.57947 0.0
C860 C 0.07827 0.08013 0.59705 0.0
C861 C 0.12239 0.15196 0.59826 0.0
C862 C 0.10418 0.07177 0.63294 0.0
C863 C 0.13896 0.10366 0.65216 0.0
H864 H 0.61335 0.3 0.3374 0.0
H865 H 0.71822 0.32608 0.44045 0.0
H866 H 0.68899 0.37946 0.47422 0.0
H867 H 0.63527 0.42058 0.47223 0.0
H868 H 0.53416 0.39793 0.3652 0.0
H869 H 0.56052 0.34152 0.3348 0.0
C870 C 0.62944 0.31699 0.36762 0.0
C871 C 0.6675 0.3089 0.38686 0.0
C872 C 0.61344 0.34856 0.38567 0.0
C873 C 0.68865 0.33166 0.42538 0.0
C874 C 0.67206 0.36224 0.44449 0.0
C875 C 0.61893 0.40321 0.44232 0.0
C876 C 0.58279 0.41343 0.42098 0.0
C877 C 0.63478 0.37131 0.42457 0.0
C878 C 0.56222 0.3909 0.38205 0.0
C879 C 0.57714 0.3585 0.36478 0.0
H880 H 0.43111 0.84635 0.05175 0.0
H881 H 0.47339 0.93806 0.15983 0.0
H882 H 0.43416 0.88775 0.21112 0.0
H883 H 0.37913 0.82226 0.22194 0.0
H884 H 0.32589 0.73668 0.1107 0.0
H885 H 0.37922 0.77904 0.06367 0.0
C886 C 0.43242 0.85485 0.08676 0.0
C887 C 0.45476 0.89549 0.10238 0.0
C888 C 0.40797 0.8267 0.11518 0.0
C889 C 0.45594 0.90682 0.14742 0.0
C890 C 0.43368 0.87813 0.17658 0.0
C891 C 0.38046 0.81231 0.18779 0.0
C892 C 0.34965 0.77643 0.16955 0.0
C893 C 0.40842 0.83855 0.16045 0.0
C894 C 0.35013 0.76401 0.12513 0.0
C895 C 0.38014 0.78844 0.09833 0.0
H896 H 0.93455 0.61417 0.98677 0.0
H897 H 0.89674 0.51432 0.88645 0.0
H898 H 0.85365 0.55284 0.84413 0.0
H899 H 0.82826 0.61554 0.83426 0.0
H900 H 0.86946 0.71791 0.9312 0.0
H901 H 0.90941 0.67782 0.97635 0.0
C902 C 0.91665 0.6008 0.95578 0.0
C903 C 0.91887 0.5614 0.93981 0.0
C904 C 0.89258 0.62361 0.931 0.0
C905 C 0.89585 0.54467 0.89936 0.0
C906 C 0.87108 0.56663 0.87516 0.0
C907 C 0.84575 0.62896 0.86544 0.0
C908 C 0.8458 0.66949 0.87956 0.0
C909 C 0.86945 0.6062 0.89048 0.0
C910 C 0.86896 0.68671 0.91973 0.0
C911 C 0.89181 0.66381 0.94548 0.0
H912 H 0.38707 0.40377 0.06618 0.0
H913 H 0.49668 0.45272 0.16167 0.0
H914 H 0.45567 0.4148 0.22027 0.0
H915 H 0.39027 0.36398 0.24383 0.0
H916 H 0.28333 0.30983 0.14708 0.0
H917 H 0.32102 0.35362 0.09012 0.0
C918 C 0.40172 0.40646 0.09992 0.0
C919 C 0.4449 0.43103 0.10946 0.0
C920 C 0.3783 0.38351 0.13342 0.0
C921 C 0.4636 0.4338 0.1533 0.0
C922 C 0.44014 0.41215 0.18693 0.0
C923 C 0.37498 0.36228 0.21045 0.0
C924 C 0.33381 0.33404 0.19988 0.0
C925 C 0.39769 0.38639 0.17731 0.0
C926 C 0.31477 0.33166 0.15623 0.0
C927 C 0.33646 0.35652 0.12351 0.0
H928 H 0.42976 0.55509 0.85434 0.0
H929 H 0.3747 0.58252 0.97393 0.0
H930 H 0.33994 0.62954 0.93411 0.0
H931 H 0.32843 0.66586 0.86666 0.0
H932 H 0.38346 0.63939 0.74656 0.0
H933 H 0.41498 0.58925 0.78518 0.0
C934 C 0.40959 0.5709 0.87143 0.0
C935 C 0.40478 0.56532 0.91703 0.0
C936 C 0.39015 0.59853 0.84839 0.0
C937 C 0.37885 0.58623 0.93884 0.0
C938 C 0.35913 0.61331 0.91614 0.0
C939 C 0.34733 0.64921 0.84881 0.0
C940 C 0.35387 0.65685 0.80382 0.0
C941 C 0.3652 0.62029 0.87114 0.0
C942 C 0.37804 0.63443 0.78125 0.0
C943 C 0.39606 0.60564 0.80331 0.0
H944 H 0.11816 0.52171 0.61463 0.0
H945 H 0.08514 0.6151 0.53277 0.0
H946 H 0.13359 0.67062 0.58093 0.0
H947 H 0.18661 0.69248 0.64545 0.0
H948 H 0.2145 0.59968 0.73148 0.0
H949 H 0.16706 0.54376 0.68248 0.0
C950 C 0.12148 0.55426 0.60767 0.0
C951 C 0.09859 0.56452 0.5703 0.0
C952 C 0.1487 0.58593 0.63594 0.0
C953 C 0.10251 0.60663 0.56156 0.0
C954 C 0.13034 0.63833 0.58888 0.0
C955 C 0.18234 0.65995 0.65317 0.0
C956 C 0.20415 0.64978 0.69131 0.0
C957 C 0.1539 0.62832 0.62589 0.0
C958 C 0.19795 0.60783 0.70191 0.0
C959 C 0.17089 0.57602 0.67405 0.0
H960 H 0.34904 0.31035 0.59938 0.0
H961 H 0.34274 0.41877 0.67668 0.0
H962 H 0.39386 0.46405 0.63025 0.0
H963 H 0.44027 0.47272 0.56771 0.0
H964 H 0.44252 0.36512 0.4871 0.0
H965 H 0.39349 0.31928 0.5353 0.0
C966 C 0.35881 0.3439 0.60601 0.0
C967 C 0.34222 0.36121 0.64141 0.0
C968 C 0.38777 0.36972 0.57892 0.0
C969 C 0.35481 0.40473 0.64939 0.0
C970 C 0.38426 0.43061 0.62308 0.0
C971 C 0.43033 0.43919 0.56108 0.0
C972 C 0.44515 0.42202 0.52445 0.0
C973 C 0.40105 0.41341 0.5879 0.0
C974 C 0.43151 0.37875 0.51542 0.0
C975 C 0.40345 0.35267 0.5428 0.0
H976 H 0.20223 0.68514 0.13374 0.0
H977 H 0.12823 0.62009 0.23746 0.0
H978 H 0.07919 0.57206 0.18235 0.0
H979 H 0.06074 0.54597 0.10539 0.0
H980 H 0.13592 0.60796 0.00149 0.0
H981 H 0.18247 0.65939 0.05601 0.0
C982 C 0.17508 0.66067 0.14406 0.0
C983 C 0.16855 0.65597 0.18931 0.0
C984 C 0.1479 0.63248 0.11234 0.0
C985 C 0.13368 0.62407 0.20265 0.0
C986 C 0.1058 0.5966 0.17126 0.0
C987 C 0.08646 0.57145 0.09471 0.0
C988 C 0.09439 0.57426 0.04983 0.0
C989 C 0.11299 0.6002 0.12614 0.0
C990 C 0.12932 0.6058 0.03617 0.0
C991 C 0.15571 0.6351 0.06721 0.0
H992 H 0.71662 0.39973 0.71652 0.0
H993 H 0.60822 0.29111 0.68456 0.0
H994 H 0.56611 0.33485 0.64973 0.0
H995 H 0.56318 0.40201 0.62176 0.0
H996 H 0.67368 0.51011 0.646 0.0
H997 H 0.71187 0.46879 0.69157 0.0
C998 C 0.68356 0.38591 0.7024 0.0
C999 C 0.6654 0.34246 0.70268 0.0
C1000 C 0.66016 0.41108 0.68116 0.0
C1001 C 0.62277 0.32455 0.68427 0.0
C1002 C 0.59874 0.34949 0.66447 0.0
C1003 C 0.59537 0.41676 0.63761 0.0
C1004 C 0.61588 0.45881 0.63048 0.0
C1005 C 0.61755 0.39253 0.66177 0.0
C1006 C 0.65745 0.47765 0.65112 0.0
C1007 C 0.67929 0.454 0.67685 0.0
H1008 H 0.81861 0.60357 0.20916 0.0
H1009 H 0.92708 0.71443 0.21332 0.0
H1010 H 0.97625 0.67252 0.19706 0.0
H1011 H 0.98622 0.60626 0.17076 0.0
H1012 H 0.87842 0.49502 0.16433 0.0
H1013 H 0.83168 0.53465 0.19422 0.0
C1014 C 0.85307 0.61829 0.20691 0.0
C1015 C 0.86909 0.66193 0.2113 0.0
C1016 C 0.88136 0.59394 0.19752 0.0
C1017 C 0.9139 0.68083 0.20928 0.0
C1018 C 0.94213 0.65693 0.20016 0.0
C1019 C 0.95287 0.59051 0.17725 0.0
C1020 C 0.93542 0.54822 0.16471 0.0
C1021 C 0.92595 0.6137 0.19278 0.0
C1022 C 0.89242 0.52778 0.17364 0.0
C1023 C 0.86552 0.55053 0.19012 0.0
H1024 H 0.86324 0.60381 0.54254 0.0
H1025 H 0.95672 0.60046 0.65128 0.0
H1026 H 0.9193 0.63628 0.70019 0.0
H1027 H 0.86032 0.66894 0.71259 0.0
H1028 H 0.76788 0.67523 0.60383 0.0
H1029 H 0.80433 0.63813 0.55487 0.0
C1030 C 0.87544 0.61097 0.57694 0.0
C1031 C 0.91293 0.59926 0.59308 0.0
C1032 C 0.8538 0.63216 0.60506 0.0
C1033 C 0.92816 0.60902 0.63778 0.0
C1034 C 0.90666 0.62952 0.66588 0.0
C1035 C 0.84783 0.66212 0.67823 0.0
C1036 C 0.81091 0.67492 0.6623 0.0
C1037 C 0.86943 0.64125 0.64998 0.0
C1038 C 0.79597 0.66592 0.61735 0.0
C1039 C 0.81692 0.64463 0.58921 0.0
H1040 H 0.38215 0.53008 0.3768 0.0
H1041 H 0.4947 0.60284 0.31543 0.0
H1042 H 0.45741 0.65702 0.29968 0.0
H1043 H 0.39495 0.68552 0.30874 0.0
H1044 H 0.28469 0.61411 0.37459 0.0
H1045 H 0.31996 0.55797 0.38524 0.0
C1046 C 0.39809 0.55727 0.35891 0.0
C1047 C 0.44078 0.56247 0.34672 0.0
C1048 C 0.37761 0.58908 0.35251 0.0
C1049 C 0.4615 0.59813 0.32443 0.0
C1050 C 0.44052 0.6293 0.31616 0.0
C1051 C 0.37899 0.65789 0.32596 0.0
C1052 C 0.33761 0.6539 0.34131 0.0
C1053 C 0.39912 0.62561 0.33129 0.0
C1054 C 0.31685 0.61788 0.36302 0.0
C1055 C 0.3367 0.58564 0.36859 0.0
H1056 H 0.18222 0.43033 0.77371 0.0
H1057 H 0.09376 0.30633 0.76629 0.0
H1058 H 0.03881 0.33235 0.80036 0.0
H1059 H 0.02002 0.38824 0.84169 0.0
H1060 H 0.10716 0.51272 0.84827 0.0
H1061 H 0.15779 0.48902 0.80405 0.0
C1062 C 0.15065 0.40929 0.77901 0.0
C1063 C 0.14231 0.36648 0.76849 0.0
C1064 C 0.11894 0.42449 0.79846 0.0
C1065 C 0.10109 0.33945 0.77468 0.0
C1066 C 0.0696 0.35423 0.79417 0.0
C1067 C 0.04956 0.41032 0.83241 0.0
C1068 C 0.06034 0.45182 0.84873 0.0
C1069 C 0.07873 0.3964 0.80755 0.0
C1070 C 0.09838 0.48041 0.83621 0.0
C1071 C 0.12755 0.46684 0.81128 0.0
H1072 H 0.14821 0.32443 0.28163 0.0
H1073 H 0.24299 0.32663 0.39103 0.0
H1074 H 0.2082 0.36864 0.43609 0.0
H1075 H 0.15008 0.40488 0.44483 0.0
H1076 H 0.05456 0.40014 0.33557 0.0
H1077 H 0.09028 0.35931 0.29046 0.0
C1078 C 0.16156 0.33406 0.3153 0.0
C1079 C 0.19865 0.32214 0.33254 0.0
C1080 C 0.14101 0.35793 0.34129 0.0
C1081 C 0.21475 0.33507 0.37653 0.0
C1082 C 0.19475 0.35921 0.40242 0.0
C1083 C 0.13709 0.39492 0.41113 0.0
C1084 C 0.09949 0.40585 0.39373 0.0
C1085 C 0.15776 0.37084 0.38525 0.0
C1086 C 0.08323 0.39237 0.34999 0.0
C1087 C 0.10375 0.36895 0.32409 0.0
loop_
_geom_bond_atom_site_label_1
_geom_bond_atom_site_label_2
_geom_bond_distance
_geom_bond_site_symmetry_2
_ccdc_geom_bond_type
Dy0 O4 2.398 1_655 S
Dy0 O5 2.491 1_655 S
Dy0 O6 2.403 . S
Dy0 O7 2.664 1_556 S
Dy0 O11 2.326 1_656 S
Dy0 O15 2.310 1_665 S
Dy0 O16 2.351 . S
C1 O12 1.185 . S
C1 O13 1.355 . S
C2 O4 1.185 . S
C2 O5 1.355 . S
Dy3 O7 2.310 1_445 S
Dy3 O10 2.351 . S
Dy3 O12 2.398 1_455 S
Dy3 O13 2.491 1_455 S
Dy3 O14 2.403 . S
Dy3 O15 2.664 1_554 S
Dy3 O17 2.326 1_454 S
O4 Dy0 2.398 1_455 S
O4 C2 1.185 . S
O5 Dy0 2.491 1_455 S
O5 C2 1.355 . S
O6 Dy0 2.403 . S
O6 C8 1.254 1_556 S
O7 Dy0 2.664 1_554 S
O7 Dy3 2.310 1_665 S
O7 C8 1.268 . S
C8 O6 1.254 1_554 S
C8 O7 1.268 . S
C9 O14 1.254 1_556 S
C9 O15 1.268 . S
O10 Dy3 2.351 . S
O10 C18 1.249 1_545 S
O11 Dy0 2.326 1_454 S
O11 C18 1.267 . S
O12 C1 1.185 . S
O12 Dy3 2.398 1_655 S
O13 C1 1.355 . S
O13 Dy3 2.491 1_655 S
O14 Dy3 2.403 . S
O14 C9 1.254 1_554 S
O15 Dy0 2.310 1_445 S
O15 Dy3 2.664 1_556 S
O15 C9 1.268 . S
O16 Dy0 2.351 . S
O16 C19 1.249 1_565 S
O17 Dy3 2.326 1_656 S
O17 C19 1.267 . S
C18 O10 1.249 1_565 S
C18 O11 1.267 . S
C19 O16 1.249 1_545 S
C19 O17 1.267 . S
Dy20 O24 2.398 . S
Dy20 O25 2.491 . S
Dy20 O26 2.403 . S
Dy20 O27 2.664 . S
Dy20 O31 2.326 . S
Dy20 O35 2.310 . S
Dy20 O36 2.351 . S
C21 O32 1.185 . S
C21 O33 1.355 . S
C22 O24 1.185 . S
C22 O25 1.355 . S
Dy23 O27 2.310 . S
Dy23 O30 2.351 . S
Dy23 O32 2.398 . S
Dy23 O33 2.491 . S
Dy23 O34 2.403 . S
Dy23 O35 2.664 . S
Dy23 O37 2.326 . S
O24 Dy20 2.398 . S
O24 C22 1.185 . S
O25 Dy20 2.491 . S
O25 C22 1.355 . S
O26 Dy20 2.403 . S
O26 C28 1.254 . S
O27 Dy20 2.664 . S
O27 Dy23 2.310 . S
O27 C28 1.268 . S
C28 O26 1.254 . S
C28 O27 1.268 . S
C29 O34 1.254 . S
C29 O35 1.268 . S
O30 Dy23 2.351 . S
O30 C38 1.249 . S
O31 Dy20 2.326 . S
O31 C38 1.267 . S
O32 C21 1.185 . S
O32 Dy23 2.398 . S
O33 C21 1.355 . S
O33 Dy23 2.491 . S
O34 Dy23 2.403 . S
O34 C29 1.254 . S
O35 Dy20 2.310 . S
O35 Dy23 2.664 . S
O35 C29 1.268 . S
O36 Dy20 2.351 . S
O36 C39 1.249 . S
O37 Dy23 2.326 . S
O37 C39 1.267 . S
C38 O30 1.249 . S
C38 O31 1.267 . S
C39 O36 1.249 . S
C39 O37 1.267 . S
Dy40 O44 2.398 1_565 S
Dy40 O45 2.491 1_565 S
Dy40 O46 2.403 . S
Dy40 O47 2.664 . S
Dy40 O51 2.326 1_565 S
Dy40 O55 2.310 1_565 S
Dy40 O56 2.351 . S
C41 O52 1.185 . S
C41 O53 1.355 . S
C42 O44 1.185 . S
C42 O45 1.355 . S
Dy43 O47 2.310 1_545 S
Dy43 O50 2.351 . S
Dy43 O52 2.398 1_545 S
Dy43 O53 2.491 1_545 S
Dy43 O54 2.403 . S
Dy43 O55 2.664 . S
Dy43 O57 2.326 1_545 S
O44 Dy40 2.398 1_545 S
O44 C42 1.185 . S
O45 Dy40 2.491 1_545 S
O45 C42 1.355 . S
O46 Dy40 2.403 . S
O46 C48 1.254 . S
O47 Dy40 2.664 . S
O47 Dy43 2.310 1_565 S
O47 C48 1.268 . S
C48 O46 1.254 . S
C48 O47 1.268 . S
C49 O54 1.254 . S
C49 O55 1.268 . S
O50 Dy43 2.351 . S
O50 C58 1.249 . S
O51 Dy40 2.326 1_545 S
O51 C58 1.267 . S
O52 C41 1.185 . S
O52 Dy43 2.398 1_565 S
O53 C41 1.355 . S
O53 Dy43 2.491 1_565 S
O54 Dy43 2.403 . S
O54 C49 1.254 . S
O55 Dy40 2.310 1_545 S
O55 Dy43 2.664 . S
O55 C49 1.268 . S
O56 Dy40 2.351 . S
O56 C59 1.249 . S
O57 Dy43 2.326 1_565 S
O57 C59 1.267 . S
C58 O50 1.249 . S
C58 O51 1.267 . S
C59 O56 1.249 . S
C59 O57 1.267 . S
Dy60 O64 2.398 . S
Dy60 O65 2.491 . S
Dy60 O66 2.403 . S
Dy60 O67 2.664 . S
Dy60 O71 2.326 . S
Dy60 O75 2.310 . S
Dy60 O76 2.351 . S
C61 O72 1.185 . S
C61 O73 1.355 . S
C62 O64 1.185 . S
C62 O65 1.355 . S
Dy63 O67 2.310 . S
Dy63 O70 2.351 . S
Dy63 O72 2.398 . S
Dy63 O73 2.491 . S
Dy63 O74 2.403 . S
Dy63 O75 2.664 . S
Dy63 O77 2.326 . S
O64 Dy60 2.398 . S
O64 C62 1.185 . S
O65 Dy60 2.491 . S
O65 C62 1.355 . S
O66 Dy60 2.403 . S
O66 C68 1.254 . S
O67 Dy60 2.664 . S
O67 Dy63 2.310 . S
O67 C68 1.268 . S
C68 O66 1.254 . S
C68 O67 1.268 . S
C69 O74 1.254 . S
C69 O75 1.268 . S
O70 Dy63 2.351 . S
O70 C78 1.249 . S
O71 Dy60 2.326 . S
O71 C78 1.267 . S
O72 C61 1.185 . S
O72 Dy63 2.398 . S
O73 C61 1.355 . S
O73 Dy63 2.491 . S
O74 Dy63 2.403 . S
O74 C69 1.254 . S
O75 Dy60 2.310 . S
O75 Dy63 2.664 . S
O75 C69 1.268 . S
O76 Dy60 2.351 . S
O76 C79 1.249 . S
O77 Dy63 2.326 . S
O77 C79 1.267 . S
C78 O70 1.249 . S
C78 O71 1.267 . S
C79 O76 1.249 . S
C79 O77 1.267 . S
Dy80 O84 2.398 . S
Dy80 O85 2.491 . S
Dy80 O86 2.403 1_455 S
Dy80 O87 2.664 1_455 S
Dy80 O91 2.326 1_455 S
Dy80 O95 2.310 1_565 S
Dy80 O96 2.351 1_565 S
C81 O92 1.185 . S
C81 O93 1.355 . S
C82 O84 1.185 . S
C82 O85 1.355 . S
Dy83 O87 2.310 1_545 S
Dy83 O90 2.351 1_545 S
Dy83 O92 2.398 . S
Dy83 O93 2.491 . S
Dy83 O94 2.403 1_655 S
Dy83 O95 2.664 1_655 S
Dy83 O97 2.326 1_655 S
O84 Dy80 2.398 . S
O84 C82 1.185 . S
O85 Dy80 2.491 . S
O85 C82 1.355 . S
O86 Dy80 2.403 1_655 S
O86 C88 1.254 . S
O87 Dy80 2.664 1_655 S
O87 Dy83 2.310 1_565 S
O87 C88 1.268 . S
C88 O86 1.254 . S
C88 O87 1.268 . S
C89 O94 1.254 . S
C89 O95 1.268 . S
O90 Dy83 2.351 1_565 S
O90 C98 1.249 . S
O91 Dy80 2.326 1_655 S
O91 C98 1.267 . S
O92 C81 1.185 . S
O92 Dy83 2.398 . S
O93 C81 1.355 . S
O93 Dy83 2.491 . S
O94 Dy83 2.403 1_455 S
O94 C89 1.254 . S
O95 Dy80 2.310 1_545 S
O95 Dy83 2.664 1_455 S
O95 C89 1.268 . S
O96 Dy80 2.351 1_545 S
O96 C99 1.249 . S
O97 Dy83 2.326 1_455 S
O97 C99 1.267 . S
C98 O90 1.249 . S
C98 O91 1.267 . S
C99 O96 1.249 . S
C99 O97 1.267 . S
Dy100 O104 2.398 . S
Dy100 O105 2.491 . S
Dy100 O106 2.403 . S
Dy100 O107 2.664 . S
Dy100 O111 2.326 . S
Dy100 O115 2.310 . S
Dy100 O116 2.351 . S
C101 O112 1.185 . S
C101 O113 1.355 . S
C102 O104 1.185 . S
C102 O105 1.355 . S
Dy103 O107 2.310 . S
Dy103 O110 2.351 . S
Dy103 O112 2.398 . S
Dy103 O113 2.491 . S
Dy103 O114 2.403 . S
Dy103 O115 2.664 . S
Dy103 O117 2.326 . S
O104 Dy100 2.398 . S
O104 C102 1.185 . S
O105 Dy100 2.491 . S
O105 C102 1.355 . S
O106 Dy100 2.403 . S
O106 C108 1.254 . S
O107 Dy100 2.664 . S
O107 Dy103 2.310 . S
O107 C108 1.268 . S
C108 O106 1.254 . S
C108 O107 1.268 . S
C109 O114 1.254 . S
C109 O115 1.268 . S
O110 Dy103 2.351 . S
O110 C118 1.249 . S
O111 Dy100 2.326 . S
O111 C118 1.267 . S
O112 C101 1.185 . S
O112 Dy103 2.398 . S
O113 C101 1.355 . S
O113 Dy103 2.491 . S
O114 Dy103 2.403 . S
O114 C109 1.254 . S
O115 Dy100 2.310 . S
O115 Dy103 2.664 . S
O115 C109 1.268 . S
O116 Dy100 2.351 . S
O116 C119 1.249 . S
O117 Dy103 2.326 . S
O117 C119 1.267 . S
C118 O110 1.249 . S
C118 O111 1.267 . S
C119 O116 1.249 . S
C119 O117 1.267 . S
Dy120 O124 2.398 1_554 S
Dy120 O125 2.491 1_554 S
Dy120 O126 2.403 1_565 S
Dy120 O127 2.664 1_565 S
Dy120 O131 2.326 1_564 S
Dy120 O135 2.310 1_554 S
Dy120 O136 2.351 . S
C121 O132 1.185 . S
C121 O133 1.355 . S
C122 O124 1.185 . S
C122 O125 1.355 . S
Dy123 O127 2.310 1_556 S
Dy123 O130 2.351 . S
Dy123 O132 2.398 1_556 S
Dy123 O133 2.491 1_556 S
Dy123 O134 2.403 1_545 S
Dy123 O135 2.664 1_545 S
Dy123 O137 2.326 1_546 S
O124 Dy120 2.398 1_556 S
O124 C122 1.185 . S
O125 Dy120 2.491 1_556 S
O125 C122 1.355 . S
O126 Dy120 2.403 1_545 S
O126 C128 1.254 . S
O127 Dy120 2.664 1_545 S
O127 Dy123 2.310 1_554 S
O127 C128 1.268 . S
C128 O126 1.254 . S
C128 O127 1.268 . S
C129 O134 1.254 . S
C129 O135 1.268 . S
O130 Dy123 2.351 . S
O130 C138 1.249 . S
O131 Dy120 2.326 1_546 S
O131 C138 1.267 . S
O132 C121 1.185 . S
O132 Dy123 2.398 1_554 S
O133 C121 1.355 . S
O133 Dy123 2.491 1_554 S
O134 Dy123 2.403 1_565 S
O134 C129 1.254 . S
O135 Dy120 2.310 1_556 S
O135 Dy123 2.664 1_565 S
O135 C129 1.268 . S
O136 Dy120 2.351 . S
O136 C139 1.249 . S
O137 Dy123 2.326 1_564 S
O137 C139 1.267 . S
C138 O130 1.249 . S
C138 O131 1.267 . S
C139 O136 1.249 . S
C139 O137 1.267 . S
Dy140 O144 2.398 . S
Dy140 O145 2.491 . S
Dy140 O146 2.403 . S
Dy140 O147 2.664 . S
Dy140 O151 2.326 . S
Dy140 O155 2.310 . S
Dy140 O156 2.351 . S
C141 O152 1.185 . S
C141 O153 1.355 . S
C142 O144 1.185 . S
C142 O145 1.355 . S
Dy143 O147 2.310 . S
Dy143 O150 2.351 . S
Dy143 O152 2.398 . S
Dy143 O153 2.491 . S
Dy143 O154 2.403 . S
Dy143 O155 2.664 . S
Dy143 O157 2.326 . S
O144 Dy140 2.398 . S
O144 C142 1.185 . S
O145 Dy140 2.491 . S
O145 C142 1.355 . S
O146 Dy140 2.403 . S
O146 C148 1.254 . S
O147 Dy140 2.664 . S
O147 Dy143 2.310 . S
O147 C148 1.268 . S
C148 O146 1.254 . S
C148 O147 1.268 . S
C149 O154 1.254 . S
C149 O155 1.268 . S
O150 Dy143 2.351 . S
O150 C158 1.249 . S
O151 Dy140 2.326 . S
O151 C158 1.267 . S
O152 C141 1.185 . S
O152 Dy143 2.398 . S
O153 C141 1.355 . S
O153 Dy143 2.491 . S
O154 Dy143 2.403 . S
O154 C149 1.254 . S
O155 Dy140 2.310 . S
O155 Dy143 2.664 . S
O155 C149 1.268 . S
O156 Dy140 2.351 . S
O156 C159 1.249 . S
O157 Dy143 2.326 . S
O157 C159 1.267 . S
C158 O150 1.249 . S
C158 O151 1.267 . S
C159 O156 1.249 . S
C159 O157 1.267 . S
Dy160 O164 2.398 . S
Dy160 O165 2.491 . S
Dy160 O166 2.403 1_554 S
Dy160 O167 2.664 1_554 S
Dy160 O171 2.326 . S
Dy160 O175 2.310 . S
Dy160 O176 2.351 1_554 S
C161 O172 1.185 . S
C161 O173 1.355 . S
C162 O164 1.185 . S
C162 O165 1.355 . S
Dy163 O167 2.310 . S
Dy163 O170 2.351 1_556 S
Dy163 O172 2.398 . S
Dy163 O173 2.491 . S
Dy163 O174 2.403 1_556 S
Dy163 O175 2.664 1_556 S
Dy163 O177 2.326 . S
O164 Dy160 2.398 . S
O164 C162 1.185 . S
O165 Dy160 2.491 . S
O165 C162 1.355 . S
O166 Dy160 2.403 1_556 S
O166 C168 1.254 . S
O167 Dy160 2.664 1_556 S
O167 Dy163 2.310 . S
O167 C168 1.268 . S
C168 O166 1.254 . S
C168 O167 1.268 . S
C169 O174 1.254 . S
C169 O175 1.268 . S
O170 Dy163 2.351 1_554 S
O170 C178 1.249 . S
O171 Dy160 2.326 . S
O171 C178 1.267 . S
O172 C161 1.185 . S
O172 Dy163 2.398 . S
O173 C161 1.355 . S
O173 Dy163 2.491 . S
O174 Dy163 2.403 1_554 S
O174 C169 1.254 . S
O175 Dy160 2.310 . S
O175 Dy163 2.664 1_554 S
O175 C169 1.268 . S
O176 Dy160 2.351 1_556 S
O176 C179 1.249 . S
O177 Dy163 2.326 . S
O177 C179 1.267 . S
C178 O170 1.249 . S
C178 O171 1.267 . S
C179 O176 1.249 . S
C179 O177 1.267 . S
Dy180 O184 2.398 . S
Dy180 O185 2.491 . S
Dy180 O186 2.403 . S
Dy180 O187 2.664 . S
Dy180 O191 2.326 . S
Dy180 O195 2.310 . S
Dy180 O196 2.351 . S
C181 O192 1.185 . S
C181 O193 1.355 . S
C182 O184 1.185 . S
C182 O185 1.355 . S
Dy183 O187 2.310 . S
Dy183 O190 2.351 . S
Dy183 O192 2.398 . S
Dy183 O193 2.491 . S
Dy183 O194 2.403 . S
Dy183 O195 2.664 . S
Dy183 O197 2.326 . S
O184 Dy180 2.398 . S
O184 C182 1.185 . S
O185 Dy180 2.491 . S
O185 C182 1.355 . S
O186 Dy180 2.403 . S
O186 C188 1.254 . S
O187 Dy180 2.664 . S
O187 Dy183 2.310 . S
O187 C188 1.268 . S
C188 O186 1.254 . S
C188 O187 1.268 . S
C189 O194 1.254 . S
C189 O195 1.268 . S
O190 Dy183 2.351 . S
O190 C198 1.249 . S
O191 Dy180 2.326 . S
O191 C198 1.267 . S
O192 C181 1.185 . S
O192 Dy183 2.398 . S
O193 C181 1.355 . S
O193 Dy183 2.491 . S
O194 Dy183 2.403 . S
O194 C189 1.254 . S
O195 Dy180 2.310 . S
O195 Dy183 2.664 . S
O195 C189 1.268 . S
O196 Dy180 2.351 . S
O196 C199 1.249 . S
O197 Dy183 2.326 . S
O197 C199 1.267 . S
C198 O190 1.249 . S
C198 O191 1.267 . S
C199 O196 1.249 . S
C199 O197 1.267 . S
Dy200 O204 2.398 . S
Dy200 O205 2.491 . S
Dy200 O206 2.403 . S
Dy200 O207 2.664 . S
Dy200 O211 2.326 . S
Dy200 O215 2.310 1_455 S
Dy200 O216 2.351 1_455 S
C201 O212 1.185 . S
C201 O213 1.355 . S
C202 O204 1.185 . S
C202 O205 1.355 . S
Dy203 O207 2.310 1_655 S
Dy203 O210 2.351 1_655 S
Dy203 O212 2.398 . S
Dy203 O213 2.491 . S
Dy203 O214 2.403 . S
Dy203 O215 2.664 . S
Dy203 O217 2.326 . S
O204 Dy200 2.398 . S
O204 C202 1.185 . S
O205 Dy200 2.491 . S
O205 C202 1.355 . S
O206 Dy200 2.403 . S
O206 C208 1.254 . S
O207 Dy200 2.664 . S
O207 Dy203 2.310 1_455 S
O207 C208 1.268 . S
C208 O206 1.254 . S
C208 O207 1.268 . S
C209 O214 1.254 . S
C209 O215 1.268 . S
O210 Dy203 2.351 1_455 S
O210 C218 1.249 . S
O211 Dy200 2.326 . S
O211 C218 1.267 . S
O212 C201 1.185 . S
O212 Dy203 2.398 . S
O213 C201 1.355 . S
O213 Dy203 2.491 . S
O214 Dy203 2.403 . S
O214 C209 1.254 . S
O215 Dy200 2.310 1_655 S
O215 Dy203 2.664 . S
O215 C209 1.268 . S
O216 Dy200 2.351 1_655 S
O216 C219 1.249 . S
O217 Dy203 2.326 . S
O217 C219 1.267 . S
C218 O210 1.249 . S
C218 O211 1.267 . S
C219 O216 1.249 . S
C219 O217 1.267 . S
Dy220 O224 2.398 . S
Dy220 O225 2.491 . S
Dy220 O226 2.403 . S
Dy220 O227 2.664 . S
Dy220 O231 2.326 . S
Dy220 O235 2.310 . S
Dy220 O236 2.351 . S
C221 O232 1.185 . S
C221 O233 1.355 . S
C222 O224 1.185 . S
C222 O225 1.355 . S
Dy223 O227 2.310 . S
Dy223 O230 2.351 . S
Dy223 O232 2.398 . S
Dy223 O233 2.491 . S
Dy223 O234 2.403 . S
Dy223 O235 2.664 . S
Dy223 O237 2.326 . S
O224 Dy220 2.398 . S
O224 C222 1.185 . S
O225 Dy220 2.491 . S
O225 C222 1.355 . S
O226 Dy220 2.403 . S
O226 C228 1.254 . S
O227 Dy220 2.664 . S
O227 Dy223 2.310 . S
O227 C228 1.268 . S
C228 O226 1.254 . S
C228 O227 1.268 . S
C229 O234 1.254 . S
C229 O235 1.268 . S
O230 Dy223 2.351 . S
O230 C238 1.249 . S
O231 Dy220 2.326 . S
O231 C238 1.267 . S
O232 C221 1.185 . S
O232 Dy223 2.398 . S
O233 C221 1.355 . S
O233 Dy223 2.491 . S
O234 Dy223 2.403 . S
O234 C229 1.254 . S
O235 Dy220 2.310 . S
O235 Dy223 2.664 . S
O235 C229 1.268 . S
O236 Dy220 2.351 . S
O236 C239 1.249 . S
O237 Dy223 2.326 . S
O237 C239 1.267 . S
C238 O230 1.249 . S
C238 O231 1.267 . S
C239 O236 1.249 . S
C239 O237 1.267 . S
Dy240 O244 2.398 . S
Dy240 O245 2.491 . S
Dy240 O246 2.403 . S
Dy240 O247 2.664 . S
Dy240 O251 2.326 . S
Dy240 O255 2.310 . S
Dy240 O256 2.351 . S
C241 O252 1.185 . S
C241 O253 1.355 . S
C242 O244 1.185 . S
C242 O245 1.355 . S
Dy243 O247 2.310 . S
Dy243 O250 2.351 . S
Dy243 O252 2.398 . S
Dy243 O253 2.491 . S
Dy243 O254 2.403 . S
Dy243 O255 2.664 . S
Dy243 O257 2.326 . S
O244 Dy240 2.398 . S
O244 C242 1.185 . S
O245 Dy240 2.491 . S
O245 C242 1.355 . S
O246 Dy240 2.403 . S
O246 C248 1.254 . S
O247 Dy240 2.664 . S
O247 Dy243 2.310 . S
O247 C248 1.268 . S
C248 O246 1.254 . S
C248 O247 1.268 . S
C249 O254 1.254 . S
C249 O255 1.268 . S
O250 Dy243 2.351 . S
O250 C258 1.249 . S
O251 Dy240 2.326 . S
O251 C258 1.267 . S
O252 C241 1.185 . S
O252 Dy243 2.398 . S
O253 C241 1.355 . S
O253 Dy243 2.491 . S
O254 Dy243 2.403 . S
O254 C249 1.254 . S
O255 Dy240 2.310 . S
O255 Dy243 2.664 . S
O255 C249 1.268 . S
O256 Dy240 2.351 . S
O256 C259 1.249 . S
O257 Dy243 2.326 . S
O257 C259 1.267 . S
C258 O250 1.249 . S
C258 O251 1.267 . S
C259 O256 1.249 . S
C259 O257 1.267 . S
Dy260 O264 2.398 . S
Dy260 O265 2.491 . S
Dy260 O266 2.403 . S
Dy260 O267 2.664 . S
Dy260 O271 2.326 . S
Dy260 O275 2.310 . S
Dy260 O276 2.351 . S
C261 O272 1.185 . S
C261 O273 1.355 . S
C262 O264 1.185 . S
C262 O265 1.355 . S
Dy263 O267 2.310 . S
Dy263 O270 2.351 . S
Dy263 O272 2.398 . S
Dy263 O273 2.491 . S
Dy263 O274 2.403 . S
Dy263 O275 2.664 . S
Dy263 O277 2.326 . S
O264 Dy260 2.398 . S
O264 C262 1.185 . S
O265 Dy260 2.491 . S
O265 C262 1.355 . S
O266 Dy260 2.403 . S
O266 C268 1.254 . S
O267 Dy260 2.664 . S
O267 Dy263 2.310 . S
O267 C268 1.268 . S
C268 O266 1.254 . S
C268 O267 1.268 . S
C269 O274 1.254 . S
C269 O275 1.268 . S
O270 Dy263 2.351 . S
O270 C278 1.249 . S
O271 Dy260 2.326 . S
O271 C278 1.267 . S
O272 C261 1.185 . S
O272 Dy263 2.398 . S
O273 C261 1.355 . S
O273 Dy263 2.491 . S
O274 Dy263 2.403 . S
O274 C269 1.254 . S
O275 Dy260 2.310 . S
O275 Dy263 2.664 . S
O275 C269 1.268 . S
O276 Dy260 2.351 . S
O276 C279 1.249 . S
O277 Dy263 2.326 . S
O277 C279 1.267 . S
C278 O270 1.249 . S
C278 O271 1.267 . S
C279 O276 1.249 . S
C279 O277 1.267 . S
Dy280 O284 2.398 . S
Dy280 O285 2.491 . S
Dy280 O286 2.403 . S
Dy280 O287 2.664 . S
Dy280 O291 2.326 . S
Dy280 O295 2.310 . S
Dy280 O296 2.351 . S
C281 O292 1.185 . S
C281 O293 1.355 . S
C282 O284 1.185 . S
C282 O285 1.355 . S
Dy283 O287 2.310 . S
Dy283 O290 2.351 . S
Dy283 O292 2.398 . S
Dy283 O293 2.491 . S
Dy283 O294 2.403 . S
Dy283 O295 2.664 . S
Dy283 O297 2.326 . S
O284 Dy280 2.398 . S
O284 C282 1.185 . S
O285 Dy280 2.491 . S
O285 C282 1.355 . S
O286 Dy280 2.403 . S
O286 C288 1.254 . S
O287 Dy280 2.664 . S
O287 Dy283 2.310 . S
O287 C288 1.268 . S
C288 O286 1.254 . S
C288 O287 1.268 . S
C289 O294 1.254 . S
C289 O295 1.268 . S
O290 Dy283 2.351 . S
O290 C298 1.249 . S
O291 Dy280 2.326 . S
O291 C298 1.267 . S
O292 C281 1.185 . S
O292 Dy283 2.398 . S
O293 C281 1.355 . S
O293 Dy283 2.491 . S
O294 Dy283 2.403 . S
O294 C289 1.254 . S
O295 Dy280 2.310 . S
O295 Dy283 2.664 . S
O295 C289 1.268 . S
O296 Dy280 2.351 . S
O296 C299 1.249 . S
O297 Dy283 2.326 . S
O297 C299 1.267 . S
C298 O290 1.249 . S
C298 O291 1.267 . S
C299 O296 1.249 . S
C299 O297 1.267 . S
Dy300 O304 2.398 . S
Dy300 O305 2.491 . S
Dy300 O306 2.403 1_554 S
Dy300 O307 2.664 1_554 S
Dy300 O311 2.326 1_554 S
Dy300 O315 2.310 1_655 S
Dy300 O316 2.351 1_655 S
C301 O312 1.185 . S
C301 O313 1.355 . S
C302 O304 1.185 . S
C302 O305 1.355 . S
Dy303 O307 2.310 1_455 S
Dy303 O310 2.351 1_455 S
Dy303 O312 2.398 . S
Dy303 O313 2.491 . S
Dy303 O314 2.403 1_556 S
Dy303 O315 2.664 1_556 S
Dy303 O317 2.326 1_556 S
O304 Dy300 2.398 . S
O304 C302 1.185 . S
O305 Dy300 2.491 . S
O305 C302 1.355 . S
O306 Dy300 2.403 1_556 S
O306 C308 1.254 . S
O307 Dy300 2.664 1_556 S
O307 Dy303 2.310 1_655 S
O307 C308 1.268 . S
C308 O306 1.254 . S
C308 O307 1.268 . S
C309 O314 1.254 . S
C309 O315 1.268 . S
O310 Dy303 2.351 1_655 S
O310 C318 1.249 . S
O311 Dy300 2.326 1_556 S
O311 C318 1.267 . S
O312 C301 1.185 . S
O312 Dy303 2.398 . S
O313 C301 1.355 . S
O313 Dy303 2.491 . S
O314 Dy303 2.403 1_554 S
O314 C309 1.254 . S
O315 Dy300 2.310 1_455 S
O315 Dy303 2.664 1_554 S
O315 C309 1.268 . S
O316 Dy300 2.351 1_455 S
O316 C319 1.249 . S
O317 Dy303 2.326 1_554 S
O317 C319 1.267 . S
C318 O310 1.249 . S
C318 O311 1.267 . S
C319 O316 1.249 . S
C319 O317 1.267 . S
H320 C326 0.930 . S
H321 C329 0.930 . S
H322 C330 0.930 . S
H323 C331 0.930 . S
H324 C334 0.930 . S
H325 C335 0.930 . S
C326 H320 0.930 . S
C326 C327 1.355 . S
C326 C328 1.415 . S
C327 C326 1.355 . S
C327 C329 1.419 . S
C328 C326 1.415 . S
C328 C333 1.425 . S
C328 C335 1.409 . S
C329 H321 0.930 . S
C329 C327 1.419 . S
C329 C330 1.362 . S
C330 H322 0.930 . S
C330 C329 1.362 . S
C330 C333 1.409 . S
C331 H323 0.930 . S
C331 C332 1.355 . S
C331 C333 1.415 . S
C332 C331 1.355 . S
C332 C334 1.419 . S
C333 C328 1.425 . S
C333 C330 1.409 . S
C333 C331 1.415 . S
C334 H324 0.930 . S
C334 C332 1.419 . S
C334 C335 1.362 . S
C335 H325 0.930 . S
C335 C328 1.409 . S
C335 C334 1.362 . S
H336 C342 0.930 . S
H337 C345 0.930 . S
H338 C346 0.930 . S
H339 C347 0.930 . S
H340 C350 0.930 . S
H341 C351 0.930 . S
C342 H336 0.930 . S
C342 C343 1.355 . S
C342 C344 1.415 . S
C343 C342 1.355 . S
C343 C345 1.419 . S
C344 C342 1.415 . S
C344 C349 1.425 . S
C344 C351 1.409 . S
C345 H337 0.930 . S
C345 C343 1.419 . S
C345 C346 1.362 . S
C346 H338 0.930 . S
C346 C345 1.362 . S
C346 C349 1.409 . S
C347 H339 0.930 . S
C347 C348 1.355 . S
C347 C349 1.415 . S
C348 C347 1.355 . S
C348 C350 1.419 . S
C349 C344 1.425 . S
C349 C346 1.409 . S
C349 C347 1.415 . S
C350 H340 0.930 . S
C350 C348 1.419 . S
C350 C351 1.362 . S
C351 H341 0.930 . S
C351 C344 1.409 . S
C351 C350 1.362 . S
H352 C358 0.930 . S
H353 C361 0.930 . S
H354 C362 0.930 . S
H355 C363 0.930 . S
H356 C366 0.930 . S
H357 C367 0.930 . S
C358 H352 0.930 . S
C358 C359 1.355 . S
C358 C360 1.415 . S
C359 C358 1.355 . S
C359 C361 1.419 . S
C360 C358 1.415 . S
C360 C365 1.425 . S
C360 C367 1.409 . S
C361 H353 0.930 . S
C361 C359 1.419 . S
C361 C362 1.362 . S
C362 H354 0.930 . S
C362 C361 1.362 . S
C362 C365 1.409 . S
C363 H355 0.930 . S
C363 C364 1.355 . S
C363 C365 1.415 . S
C364 C363 1.355 . S
C364 C366 1.419 . S
C365 C360 1.425 . S
C365 C362 1.409 . S
C365 C363 1.415 . S
C366 H356 0.930 . S
C366 C364 1.419 . S
C366 C367 1.362 . S
C367 H357 0.930 . S
C367 C360 1.409 . S
C367 C366 1.362 . S
H368 C374 0.930 . S
H369 C377 0.930 . S
H370 C378 0.930 . S
H371 C379 0.930 . S
H372 C382 0.930 . S
H373 C383 0.930 . S
C374 H368 0.930 . S
C374 C375 1.355 . S
C374 C376 1.415 . S
C375 C374 1.355 . S
C375 C377 1.419 . S
C376 C374 1.415 . S
C376 C381 1.425 . S
C376 C383 1.409 . S
C377 H369 0.930 . S
C377 C375 1.419 . S
C377 C378 1.362 . S
C378 H370 0.930 . S
C378 C377 1.362 . S
C378 C381 1.409 . S
C379 H371 0.930 . S
C379 C380 1.355 . S
C379 C381 1.415 . S
C380 C379 1.355 . S
C380 C382 1.419 . S
C381 C376 1.425 . S
C381 C378 1.409 . S
C381 C379 1.415 . S
C382 H372 0.930 . S
C382 C380 1.419 . S
C382 C383 1.362 . S
C383 H373 0.930 . S
C383 C376 1.409 . S
C383 C382 1.362 . S
H384 C390 0.930 . S
H385 C393 0.930 . S
H386 C394 0.930 . S
H387 C395 0.930 . S
H388 C398 0.930 . S
H389 C399 0.930 . S
C390 H384 0.930 . S
C390 C391 1.355 . S
C390 C392 1.415 . S
C391 C390 1.355 . S
C391 C393 1.419 . S
C392 C390 1.415 . S
C392 C397 1.425 . S
C392 C399 1.409 . S
C393 H385 0.930 . S
C393 C391 1.419 . S
C393 C394 1.362 . S
C394 H386 0.930 . S
C394 C393 1.362 . S
C394 C397 1.409 . S
C395 H387 0.930 . S
C395 C396 1.355 . S
C395 C397 1.415 . S
C396 C395 1.355 . S
C396 C398 1.419 . S
C397 C392 1.425 . S
C397 C394 1.409 . S
C397 C395 1.415 . S
C398 H388 0.930 . S
C398 C396 1.419 . S
C398 C399 1.362 . S
C399 H389 0.930 . S
C399 C392 1.409 . S
C399 C398 1.362 . S
H400 C406 0.930 . S
H401 C409 0.930 . S
H402 C410 0.930 . S
H403 C411 0.930 . S
H404 C414 0.930 . S
H405 C415 0.930 . S
C406 H400 0.930 . S
C406 C407 1.355 . S
C406 C408 1.415 . S
C407 C406 1.355 . S
C407 C409 1.419 . S
C408 C406 1.415 . S
C408 C413 1.425 . S
C408 C415 1.409 . S
C409 H401 0.930 . S
C409 C407 1.419 . S
C409 C410 1.362 . S
C410 H402 0.930 . S
C410 C409 1.362 . S
C410 C413 1.409 . S
C411 H403 0.930 . S
C411 C412 1.355 . S
C411 C413 1.415 . S
C412 C411 1.355 . S
C412 C414 1.419 . S
C413 C408 1.425 . S
C413 C410 1.409 . S
C413 C411 1.415 . S
C414 H404 0.930 . S
C414 C412 1.419 . S
C414 C415 1.362 . S
C415 H405 0.930 . S
C415 C408 1.409 . S
C415 C414 1.362 . S
H416 C422 0.930 . S
H417 C425 0.930 . S
H418 C426 0.930 . S
H419 C427 0.930 . S
H420 C430 0.930 . S
H421 C431 0.930 . S
C422 H416 0.930 . S
C422 C423 1.355 . S
C422 C424 1.415 . S
C423 C422 1.355 . S
C423 C425 1.419 . S
C424 C422 1.415 . S
C424 C429 1.425 . S
C424 C431 1.409 . S
C425 H417 0.930 . S
C425 C423 1.419 . S
C425 C426 1.362 . S
C426 H418 0.930 . S
C426 C425 1.362 . S
C426 C429 1.409 . S
C427 H419 0.930 . S
C427 C428 1.355 . S
C427 C429 1.415 . S
C428 C427 1.355 . S
C428 C430 1.419 . S
C429 C424 1.425 . S
C429 C426 1.409 . S
C429 C427 1.415 . S
C430 H420 0.930 . S
C430 C428 1.419 . S
C430 C431 1.362 . S
C431 H421 0.930 . S
C431 C424 1.409 . S
C431 C430 1.362 . S
H432 C438 0.930 . S
H433 C441 0.930 . S
H434 C442 0.930 . S
H435 C443 0.930 . S
H436 C446 0.930 . S
H437 C447 0.930 . S
C438 H432 0.930 . S
C438 C439 1.355 . S
C438 C440 1.415 . S
C439 C438 1.355 . S
C439 C441 1.419 . S
C440 C438 1.415 . S
C440 C445 1.425 . S
C440 C447 1.409 . S
C441 H433 0.930 . S
C441 C439 1.419 . S
C441 C442 1.362 . S
C442 H434 0.930 . S
C442 C441 1.362 . S
C442 C445 1.409 . S
C443 H435 0.930 . S
C443 C444 1.355 . S
C443 C445 1.415 . S
C444 C443 1.355 . S
C444 C446 1.419 . S
C445 C440 1.425 . S
C445 C442 1.409 . S
C445 C443 1.415 . S
C446 H436 0.930 . S
C446 C444 1.419 . S
C446 C447 1.362 . S
C447 H437 0.930 . S
C447 C440 1.409 . S
C447 C446 1.362 . S
H448 C454 0.930 . S
H449 C457 0.930 . S
H450 C458 0.930 . S
H451 C459 0.930 . S
H452 C462 0.930 . S
H453 C463 0.930 . S
C454 H448 0.930 . S
C454 C455 1.355 . S
C454 C456 1.415 . S
C455 C454 1.355 . S
C455 C457 1.419 . S
C456 C454 1.415 . S
C456 C461 1.425 . S
C456 C463 1.409 . S
C457 H449 0.930 . S
C457 C455 1.419 . S
C457 C458 1.362 . S
C458 H450 0.930 . S
C458 C457 1.362 . S
C458 C461 1.409 . S
C459 H451 0.930 . S
C459 C460 1.355 . S
C459 C461 1.415 . S
C460 C459 1.355 . S
C460 C462 1.419 . S
C461 C456 1.425 . S
C461 C458 1.409 . S
C461 C459 1.415 . S
C462 H452 0.930 . S
C462 C460 1.419 . S
C462 C463 1.362 . S
C463 H453 0.930 . S
C463 C456 1.409 . S
C463 C462 1.362 . S
H464 C470 0.930 . S
H465 C473 0.930 . S
H466 C474 0.930 . S
H467 C475 0.930 . S
H468 C478 0.930 . S
H469 C479 0.930 . S
C470 H464 0.930 . S
C470 C471 1.355 . S
C470 C472 1.415 . S
C471 C470 1.355 . S
C471 C473 1.419 . S
C472 C470 1.415 . S
C472 C477 1.425 . S
C472 C479 1.409 . S
C473 H465 0.930 . S
C473 C471 1.419 . S
C473 C474 1.362 . S
C474 H466 0.930 . S
C474 C473 1.362 . S
C474 C477 1.409 . S
C475 H467 0.930 . S
C475 C476 1.355 . S
C475 C477 1.415 . S
C476 C475 1.355 . S
C476 C478 1.419 . S
C477 C472 1.425 . S
C477 C474 1.409 . S
C477 C475 1.415 . S
C478 H468 0.930 . S
C478 C476 1.419 . S
C478 C479 1.362 . S
C479 H469 0.930 . S
C479 C472 1.409 . S
C479 C478 1.362 . S
H480 C486 0.930 . S
H481 C489 0.930 . S
H482 C490 0.930 . S
H483 C491 0.930 . S
H484 C494 0.930 . S
H485 C495 0.930 . S
C486 H480 0.930 . S
C486 C487 1.355 . S
C486 C488 1.415 . S
C487 C486 1.355 . S
C487 C489 1.419 . S
C488 C486 1.415 . S
C488 C493 1.425 . S
C488 C495 1.409 . S
C489 H481 0.930 . S
C489 C487 1.419 . S
C489 C490 1.362 . S
C490 H482 0.930 . S
C490 C489 1.362 . S
C490 C493 1.409 . S
C491 H483 0.930 . S
C491 C492 1.355 . S
C491 C493 1.415 . S
C492 C491 1.355 . S
C492 C494 1.419 . S
C493 C488 1.425 . S
C493 C490 1.409 . S
C493 C491 1.415 . S
C494 H484 0.930 . S
C494 C492 1.419 . S
C494 C495 1.362 . S
C495 H485 0.930 . S
C495 C488 1.409 . S
C495 C494 1.362 . S
H496 C502 0.930 . S
H497 C505 0.930 . S
H498 C506 0.930 . S
H499 C507 0.930 . S
H500 C510 0.930 . S
H501 C511 0.930 . S
C502 H496 0.930 . S
C502 C503 1.355 . S
C502 C504 1.415 . S
C503 C502 1.355 . S
C503 C505 1.419 . S
C504 C502 1.415 . S
C504 C509 1.425 . S
C504 C511 1.409 . S
C505 H497 0.930 . S
C505 C503 1.419 . S
C505 C506 1.362 . S
C506 H498 0.930 . S
C506 C505 1.362 . S
C506 C509 1.409 . S
C507 H499 0.930 . S
C507 C508 1.355 . S
C507 C509 1.415 . S
C508 C507 1.355 . S
C508 C510 1.419 . S
C509 C504 1.425 . S
C509 C506 1.409 . S
C509 C507 1.415 . S
C510 H500 0.930 . S
C510 C508 1.419 . S
C510 C511 1.362 . S
C511 H501 0.930 . S
C511 C504 1.409 . S
C511 C510 1.362 . S
H512 C518 0.930 . S
H513 C521 0.930 . S
H514 C522 0.930 . S
H515 C523 0.930 . S
H516 C526 0.930 . S
H517 C527 0.930 . S
C518 H512 0.930 . S
C518 C519 1.355 . S
C518 C520 1.415 . S
C519 C518 1.355 . S
C519 C521 1.419 . S
C520 C518 1.415 . S
C520 C525 1.425 . S
C520 C527 1.409 . S
C521 H513 0.930 . S
C521 C519 1.419 . S
C521 C522 1.362 . S
C522 H514 0.930 . S
C522 C521 1.362 . S
C522 C525 1.409 . S
C523 H515 0.930 . S
C523 C524 1.355 . S
C523 C525 1.415 . S
C524 C523 1.355 . S
C524 C526 1.419 . S
C525 C520 1.425 . S
C525 C522 1.409 . S
C525 C523 1.415 . S
C526 H516 0.930 . S
C526 C524 1.419 . S
C526 C527 1.362 . S
C527 H517 0.930 . S
C527 C520 1.409 . S
C527 C526 1.362 . S
H528 C534 0.930 . S
H529 C537 0.930 . S
H530 C538 0.930 . S
H531 C539 0.930 . S
H532 C542 0.930 . S
H533 C543 0.930 . S
C534 H528 0.930 . S
C534 C535 1.355 . S
C534 C536 1.415 . S
C535 C534 1.355 . S
C535 C537 1.419 . S
C536 C534 1.415 . S
C536 C541 1.425 . S
C536 C543 1.409 . S
C537 H529 0.930 . S
C537 C535 1.419 . S
C537 C538 1.362 . S
C538 H530 0.930 . S
C538 C537 1.362 . S
C538 C541 1.409 . S
C539 H531 0.930 . S
C539 C540 1.355 . S
C539 C541 1.415 . S
C540 C539 1.355 . S
C540 C542 1.419 . S
C541 C536 1.425 . S
C541 C538 1.409 . S
C541 C539 1.415 . S
C542 H532 0.930 . S
C542 C540 1.419 . S
C542 C543 1.362 . S
C543 H533 0.930 . S
C543 C536 1.409 . S
C543 C542 1.362 . S
H544 C550 0.930 . S
H545 C553 0.930 . S
H546 C554 0.930 . S
H547 C555 0.930 . S
H548 C558 0.930 . S
H549 C559 0.930 . S
C550 H544 0.930 . S
C550 C551 1.355 . S
C550 C552 1.415 . S
C551 C550 1.355 . S
C551 C553 1.419 . S
C552 C550 1.415 . S
C552 C557 1.425 . S
C552 C559 1.409 . S
C553 H545 0.930 . S
C553 C551 1.419 . S
C553 C554 1.362 . S
C554 H546 0.930 . S
C554 C553 1.362 . S
C554 C557 1.409 . S
C555 H547 0.930 . S
C555 C556 1.355 . S
C555 C557 1.415 . S
C556 C555 1.355 . S
C556 C558 1.419 . S
C557 C552 1.425 . S
C557 C554 1.409 . S
C557 C555 1.415 . S
C558 H548 0.930 . S
C558 C556 1.419 . S
C558 C559 1.362 . S
C559 H549 0.930 . S
C559 C552 1.409 . S
C559 C558 1.362 . S
H560 C566 0.930 . S
H561 C569 0.930 1_655 S
H562 C570 0.930 . S
H563 C571 0.930 . S
H564 C574 0.930 . S
H565 C575 0.930 . S
C566 H560 0.930 . S
C566 C567 1.355 . S
C566 C568 1.415 . S
C567 C566 1.355 . S
C567 C569 1.419 . S
C568 C566 1.415 . S
C568 C573 1.425 . S
C568 C575 1.409 . S
C569 H561 0.930 1_455 S
C569 C567 1.419 . S
C569 C570 1.362 . S
C570 H562 0.930 . S
C570 C569 1.362 . S
C570 C573 1.409 . S
C571 H563 0.930 . S
C571 C572 1.355 . S
C571 C573 1.415 . S
C572 C571 1.355 . S
C572 C574 1.419 . S
C573 C568 1.425 . S
C573 C570 1.409 . S
C573 C571 1.415 . S
C574 H564 0.930 . S
C574 C572 1.419 . S
C574 C575 1.362 . S
C575 H565 0.930 . S
C575 C568 1.409 . S
C575 C574 1.362 . S
H576 C582 0.930 . S
H577 C585 0.930 . S
H578 C586 0.930 . S
H579 C587 0.930 . S
H580 C590 0.930 . S
H581 C591 0.930 . S
C582 H576 0.930 . S
C582 C583 1.355 . S
C582 C584 1.415 . S
C583 C582 1.355 . S
C583 C585 1.419 . S
C584 C582 1.415 . S
C584 C589 1.425 . S
C584 C591 1.409 . S
C585 H577 0.930 . S
C585 C583 1.419 . S
C585 C586 1.362 . S
C586 H578 0.930 . S
C586 C585 1.362 . S
C586 C589 1.409 . S
C587 H579 0.930 . S
C587 C588 1.355 . S
C587 C589 1.415 . S
C588 C587 1.355 . S
C588 C590 1.419 . S
C589 C584 1.425 . S
C589 C586 1.409 . S
C589 C587 1.415 . S
C590 H580 0.930 . S
C590 C588 1.419 . S
C590 C591 1.362 . S
C591 H581 0.930 . S
C591 C584 1.409 . S
C591 C590 1.362 . S
H592 C598 0.930 . S
H593 C601 0.930 . S
H594 C602 0.930 . S
H595 C603 0.930 . S
H596 C606 0.930 . S
H597 C607 0.930 . S
C598 H592 0.930 . S
C598 C599 1.355 . S
C598 C600 1.415 . S
C599 C598 1.355 . S
C599 C601 1.419 . S
C600 C598 1.415 . S
C600 C605 1.425 . S
C600 C607 1.409 . S
C601 H593 0.930 . S
C601 C599 1.419 . S
C601 C602 1.362 . S
C602 H594 0.930 . S
C602 C601 1.362 . S
C602 C605 1.409 . S
C603 H595 0.930 . S
C603 C604 1.355 . S
C603 C605 1.415 . S
C604 C603 1.355 . S
C604 C606 1.419 . S
C605 C600 1.425 . S
C605 C602 1.409 . S
C605 C603 1.415 . S
C606 H596 0.930 . S
C606 C604 1.419 . S
C606 C607 1.362 . S
C607 H597 0.930 . S
C607 C600 1.409 . S
C607 C606 1.362 . S
H608 C614 0.930 . S
H609 C617 0.930 . S
H610 C618 0.930 . S
H611 C619 0.930 . S
H612 C622 0.930 . S
H613 C623 0.930 . S
C614 H608 0.930 . S
C614 C615 1.355 . S
C614 C616 1.415 . S
C615 C614 1.355 . S
C615 C617 1.419 . S
C616 C614 1.415 . S
C616 C621 1.425 . S
C616 C623 1.409 . S
C617 H609 0.930 . S
C617 C615 1.419 . S
C617 C618 1.362 . S
C618 H610 0.930 . S
C618 C617 1.362 . S
C618 C621 1.409 . S
C619 H611 0.930 . S
C619 C620 1.355 . S
C619 C621 1.415 . S
C620 C619 1.355 . S
C620 C622 1.419 . S
C621 C616 1.425 . S
C621 C618 1.409 . S
C621 C619 1.415 . S
C622 H612 0.930 . S
C622 C620 1.419 . S
C622 C623 1.362 . S
C623 H613 0.930 . S
C623 C616 1.409 . S
C623 C622 1.362 . S
H624 C630 0.930 . S
H625 C633 0.930 . S
H626 C634 0.930 . S
H627 C635 0.930 . S
H628 C638 0.930 . S
H629 C639 0.930 . S
C630 H624 0.930 . S
C630 C631 1.355 . S
C630 C632 1.415 . S
C631 C630 1.355 . S
C631 C633 1.419 . S
C632 C630 1.415 . S
C632 C637 1.425 . S
C632 C639 1.409 . S
C633 H625 0.930 . S
C633 C631 1.419 . S
C633 C634 1.362 . S
C634 H626 0.930 . S
C634 C633 1.362 . S
C634 C637 1.409 . S
C635 H627 0.930 . S
C635 C636 1.355 . S
C635 C637 1.415 . S
C636 C635 1.355 . S
C636 C638 1.419 . S
C637 C632 1.425 . S
C637 C634 1.409 . S
C637 C635 1.415 . S
C638 H628 0.930 . S
C638 C636 1.419 . S
C638 C639 1.362 . S
C639 H629 0.930 . S
C639 C632 1.409 . S
C639 C638 1.362 . S
H640 C646 0.930 . S
H641 C649 0.930 . S
H642 C650 0.930 . S
H643 C651 0.930 . S
H644 C654 0.930 1_554 S
H645 C655 0.930 . S
C646 H640 0.930 . S
C646 C647 1.355 . S
C646 C648 1.415 . S
C647 C646 1.355 . S
C647 C649 1.419 . S
C648 C646 1.415 . S
C648 C653 1.425 . S
C648 C655 1.409 . S
C649 H641 0.930 . S
C649 C647 1.419 . S
C649 C650 1.362 . S
C650 H642 0.930 . S
C650 C649 1.362 . S
C650 C653 1.409 . S
C651 H643 0.930 . S
C651 C652 1.355 . S
C651 C653 1.415 . S
C652 C651 1.355 . S
C652 C654 1.419 . S
C653 C648 1.425 . S
C653 C650 1.409 . S
C653 C651 1.415 . S
C654 H644 0.930 1_556 S
C654 C652 1.419 . S
C654 C655 1.362 . S
C655 H645 0.930 . S
C655 C648 1.409 . S
C655 C654 1.362 . S
H656 C662 0.930 . S
H657 C665 0.930 . S
H658 C666 0.930 . S
H659 C667 0.930 . S
H660 C670 0.930 . S
H661 C671 0.930 . S
C662 H656 0.930 . S
C662 C663 1.355 . S
C662 C664 1.415 . S
C663 C662 1.355 . S
C663 C665 1.419 . S
C664 C662 1.415 . S
C664 C669 1.425 . S
C664 C671 1.409 . S
C665 H657 0.930 . S
C665 C663 1.419 . S
C665 C666 1.362 . S
C666 H658 0.930 . S
C666 C665 1.362 . S
C666 C669 1.409 . S
C667 H659 0.930 . S
C667 C668 1.355 . S
C667 C669 1.415 . S
C668 C667 1.355 . S
C668 C670 1.419 . S
C669 C664 1.425 . S
C669 C666 1.409 . S
C669 C667 1.415 . S
C670 H660 0.930 . S
C670 C668 1.419 . S
C670 C671 1.362 . S
C671 H661 0.930 . S
C671 C664 1.409 . S
C671 C670 1.362 . S
H672 C678 0.930 . S
H673 C681 0.930 . S
H674 C682 0.930 . S
H675 C683 0.930 . S
H676 C686 0.930 . S
H677 C687 0.930 . S
C678 H672 0.930 . S
C678 C679 1.355 . S
C678 C680 1.415 . S
C679 C678 1.355 . S
C679 C681 1.419 . S
C680 C678 1.415 . S
C680 C685 1.425 . S
C680 C687 1.409 . S
C681 H673 0.930 . S
C681 C679 1.419 . S
C681 C682 1.362 . S
C682 H674 0.930 . S
C682 C681 1.362 . S
C682 C685 1.409 . S
C683 H675 0.930 . S
C683 C684 1.355 . S
C683 C685 1.415 . S
C684 C683 1.355 . S
C684 C686 1.419 . S
C685 C680 1.425 . S
C685 C682 1.409 . S
C685 C683 1.415 . S
C686 H676 0.930 . S
C686 C684 1.419 . S
C686 C687 1.362 . S
C687 H677 0.930 . S
C687 C680 1.409 . S
C687 C686 1.362 . S
H688 C694 0.930 . S
H689 C697 0.930 . S
H690 C698 0.930 . S
H691 C699 0.930 . S
H692 C702 0.930 . S
H693 C703 0.930 . S
C694 H688 0.930 . S
C694 C695 1.355 . S
C694 C696 1.415 . S
C695 C694 1.355 . S
C695 C697 1.419 . S
C696 C694 1.415 . S
C696 C701 1.425 . S
C696 C703 1.409 . S
C697 H689 0.930 . S
C697 C695 1.419 . S
C697 C698 1.362 . S
C698 H690 0.930 . S
C698 C697 1.362 . S
C698 C701 1.409 . S
C699 H691 0.930 . S
C699 C700 1.355 . S
C699 C701 1.415 . S
C700 C699 1.355 . S
C700 C702 1.419 . S
C701 C696 1.425 . S
C701 C698 1.409 . S
C701 C699 1.415 . S
C702 H692 0.930 . S
C702 C700 1.419 . S
C702 C703 1.362 . S
C703 H693 0.930 . S
C703 C696 1.409 . S
C703 C702 1.362 . S
H704 C710 0.930 . S
H705 C713 0.930 . S
H706 C714 0.930 . S
H707 C715 0.930 . S
H708 C718 0.930 . S
H709 C719 0.930 . S
C710 H704 0.930 . S
C710 C711 1.355 . S
C710 C712 1.415 . S
C711 C710 1.355 . S
C711 C713 1.419 . S
C712 C710 1.415 . S
C712 C717 1.425 . S
C712 C719 1.409 . S
C713 H705 0.930 . S
C713 C711 1.419 . S
C713 C714 1.362 . S
C714 H706 0.930 . S
C714 C713 1.362 . S
C714 C717 1.409 . S
C715 H707 0.930 . S
C715 C716 1.355 . S
C715 C717 1.415 . S
C716 C715 1.355 . S
C716 C718 1.419 . S
C717 C712 1.425 . S
C717 C714 1.409 . S
C717 C715 1.415 . S
C718 H708 0.930 . S
C718 C716 1.419 . S
C718 C719 1.362 . S
C719 H709 0.930 . S
C719 C712 1.409 . S
C719 C718 1.362 . S
H720 C726 0.930 . S
H721 C729 0.930 . S
H722 C730 0.930 . S
H723 C731 0.930 . S
H724 C734 0.930 . S
H725 C735 0.930 . S
C726 H720 0.930 . S
C726 C727 1.355 . S
C726 C728 1.415 . S
C727 C726 1.355 . S
C727 C729 1.419 . S
C728 C726 1.415 . S
C728 C733 1.425 . S
C728 C735 1.409 . S
C729 H721 0.930 . S
C729 C727 1.419 . S
C729 C730 1.362 . S
C730 H722 0.930 . S
C730 C729 1.362 . S
C730 C733 1.409 . S
C731 H723 0.930 . S
C731 C732 1.355 . S
C731 C733 1.415 . S
C732 C731 1.355 . S
C732 C734 1.419 . S
C733 C728 1.425 . S
C733 C730 1.409 . S
C733 C731 1.415 . S
C734 H724 0.930 . S
C734 C732 1.419 . S
C734 C735 1.362 . S
C735 H725 0.930 . S
C735 C728 1.409 . S
C735 C734 1.362 . S
H736 C742 0.930 . S
H737 C745 0.930 . S
H738 C746 0.930 . S
H739 C747 0.930 . S
H740 C750 0.930 . S
H741 C751 0.930 . S
C742 H736 0.930 . S
C742 C743 1.355 . S
C742 C744 1.415 . S
C743 C742 1.355 . S
C743 C745 1.419 . S
C744 C742 1.415 . S
C744 C749 1.425 . S
C744 C751 1.409 . S
C745 H737 0.930 . S
C745 C743 1.419 . S
C745 C746 1.362 . S
C746 H738 0.930 . S
C746 C745 1.362 . S
C746 C749 1.409 . S
C747 H739 0.930 . S
C747 C748 1.355 . S
C747 C749 1.415 . S
C748 C747 1.355 . S
C748 C750 1.419 . S
C749 C744 1.425 . S
C749 C746 1.409 . S
C749 C747 1.415 . S
C750 H740 0.930 . S
C750 C748 1.419 . S
C750 C751 1.362 . S
C751 H741 0.930 . S
C751 C744 1.409 . S
C751 C750 1.362 . S
H752 C758 0.930 . S
H753 C761 0.930 . S
H754 C762 0.930 . S
H755 C763 0.930 . S
H756 C766 0.930 . S
H757 C767 0.930 . S
C758 H752 0.930 . S
C758 C759 1.355 . S
C758 C760 1.415 . S
C759 C758 1.355 . S
C759 C761 1.419 . S
C760 C758 1.415 . S
C760 C765 1.425 . S
C760 C767 1.409 . S
C761 H753 0.930 . S
C761 C759 1.419 . S
C761 C762 1.362 . S
C762 H754 0.930 . S
C762 C761 1.362 . S
C762 C765 1.409 . S
C763 H755 0.930 . S
C763 C764 1.355 . S
C763 C765 1.415 . S
C764 C763 1.355 . S
C764 C766 1.419 . S
C765 C760 1.425 . S
C765 C762 1.409 . S
C765 C763 1.415 . S
C766 H756 0.930 . S
C766 C764 1.419 . S
C766 C767 1.362 . S
C767 H757 0.930 . S
C767 C760 1.409 . S
C767 C766 1.362 . S
H768 C774 0.930 . S
H769 C777 0.930 . S
H770 C778 0.930 . S
H771 C779 0.930 . S
H772 C782 0.930 . S
H773 C783 0.930 . S
C774 H768 0.930 . S
C774 C775 1.355 . S
C774 C776 1.415 . S
C775 C774 1.355 . S
C775 C777 1.419 . S
C776 C774 1.415 . S
C776 C781 1.425 . S
C776 C783 1.409 . S
C777 H769 0.930 . S
C777 C775 1.419 . S
C777 C778 1.362 . S
C778 H770 0.930 . S
C778 C777 1.362 . S
C778 C781 1.409 . S
C779 H771 0.930 . S
C779 C780 1.355 . S
C779 C781 1.415 . S
C780 C779 1.355 . S
C780 C782 1.419 . S
C781 C776 1.425 . S
C781 C778 1.409 . S
C781 C779 1.415 . S
C782 H772 0.930 . S
C782 C780 1.419 . S
C782 C783 1.362 . S
C783 H773 0.930 . S
C783 C776 1.409 . S
C783 C782 1.362 . S
H784 C790 0.930 . S
H785 C793 0.930 . S
H786 C794 0.930 . S
H787 C795 0.930 . S
H788 C798 0.930 . S
H789 C799 0.930 . S
C790 H784 0.930 . S
C790 C791 1.355 . S
C790 C792 1.415 . S
C791 C790 1.355 . S
C791 C793 1.419 . S
C792 C790 1.415 . S
C792 C797 1.425 . S
C792 C799 1.409 . S
C793 H785 0.930 . S
C793 C791 1.419 . S
C793 C794 1.362 . S
C794 H786 0.930 . S
C794 C793 1.362 . S
C794 C797 1.409 . S
C795 H787 0.930 . S
C795 C796 1.355 . S
C795 C797 1.415 . S
C796 C795 1.355 . S
C796 C798 1.419 . S
C797 C792 1.425 . S
C797 C794 1.409 . S
C797 C795 1.415 . S
C798 H788 0.930 . S
C798 C796 1.419 . S
C798 C799 1.362 . S
C799 H789 0.930 . S
C799 C792 1.409 . S
C799 C798 1.362 . S
H800 C806 0.930 . S
H801 C809 0.930 . S
H802 C810 0.930 . S
H803 C811 0.930 . S
H804 C814 0.930 . S
H805 C815 0.930 . S
C806 H800 0.930 . S
C806 C807 1.355 . S
C806 C808 1.415 . S
C807 C806 1.355 . S
C807 C809 1.419 . S
C808 C806 1.415 . S
C808 C813 1.425 . S
C808 C815 1.409 . S
C809 H801 0.930 . S
C809 C807 1.419 . S
C809 C810 1.362 . S
C810 H802 0.930 . S
C810 C809 1.362 . S
C810 C813 1.409 . S
C811 H803 0.930 . S
C811 C812 1.355 . S
C811 C813 1.415 . S
C812 C811 1.355 . S
C812 C814 1.419 . S
C813 C808 1.425 . S
C813 C810 1.409 . S
C813 C811 1.415 . S
C814 H804 0.930 . S
C814 C812 1.419 . S
C814 C815 1.362 . S
C815 H805 0.930 . S
C815 C808 1.409 . S
C815 C814 1.362 . S
H816 C822 0.930 . S
H817 C825 0.930 . S
H818 C826 0.930 . S
H819 C827 0.930 . S
H820 C830 0.930 . S
H821 C831 0.930 . S
C822 H816 0.930 . S
C822 C823 1.355 . S
C822 C824 1.415 . S
C823 C822 1.355 . S
C823 C825 1.419 . S
C824 C822 1.415 . S
C824 C829 1.425 . S
C824 C831 1.409 . S
C825 H817 0.930 . S
C825 C823 1.419 . S
C825 C826 1.362 . S
C826 H818 0.930 . S
C826 C825 1.362 . S
C826 C829 1.409 . S
C827 H819 0.930 . S
C827 C828 1.355 . S
C827 C829 1.415 . S
C828 C827 1.355 . S
C828 C830 1.419 . S
C829 C824 1.425 . S
C829 C826 1.409 . S
C829 C827 1.415 . S
C830 H820 0.930 . S
C830 C828 1.419 . S
C830 C831 1.362 . S
C831 H821 0.930 . S
C831 C824 1.409 . S
C831 C830 1.362 . S
H832 C838 0.930 . S
H833 C841 0.930 . S
H834 C842 0.930 . S
H835 C843 0.930 . S
H836 C846 0.930 . S
H837 C847 0.930 . S
C838 H832 0.930 . S
C838 C839 1.355 . S
C838 C840 1.415 . S
C839 C838 1.355 . S
C839 C841 1.419 . S
C840 C838 1.415 . S
C840 C845 1.425 . S
C840 C847 1.409 . S
C841 H833 0.930 . S
C841 C839 1.419 . S
C841 C842 1.362 . S
C842 H834 0.930 . S
C842 C841 1.362 . S
C842 C845 1.409 . S
C843 H835 0.930 . S
C843 C844 1.355 . S
C843 C845 1.415 . S
C844 C843 1.355 . S
C844 C846 1.419 . S
C845 C840 1.425 . S
C845 C842 1.409 . S
C845 C843 1.415 . S
C846 H836 0.930 . S
C846 C844 1.419 . S
C846 C847 1.362 . S
C847 H837 0.930 . S
C847 C840 1.409 . S
C847 C846 1.362 . S
H848 C854 0.930 . S
H849 C857 0.930 . S
H850 C858 0.930 . S
H851 C859 0.930 . S
H852 C862 0.930 . S
H853 C863 0.930 . S
C854 H848 0.930 . S
C854 C855 1.355 . S
C854 C856 1.415 . S
C855 C854 1.355 . S
C855 C857 1.419 . S
C856 C854 1.415 . S
C856 C861 1.425 . S
C856 C863 1.409 . S
C857 H849 0.930 . S
C857 C855 1.419 . S
C857 C858 1.362 . S
C858 H850 0.930 . S
C858 C857 1.362 . S
C858 C861 1.409 . S
C859 H851 0.930 . S
C859 C860 1.355 . S
C859 C861 1.415 . S
C860 C859 1.355 . S
C860 C862 1.419 . S
C861 C856 1.425 . S
C861 C858 1.409 . S
C861 C859 1.415 . S
C862 H852 0.930 . S
C862 C860 1.419 . S
C862 C863 1.362 . S
C863 H853 0.930 . S
C863 C856 1.409 . S
C863 C862 1.362 . S
H864 C870 0.930 . S
H865 C873 0.930 . S
H866 C874 0.930 . S
H867 C875 0.930 . S
H868 C878 0.930 . S
H869 C879 0.930 . S
C870 H864 0.930 . S
C870 C871 1.355 . S
C870 C872 1.415 . S
C871 C870 1.355 . S
C871 C873 1.419 . S
C872 C870 1.415 . S
C872 C877 1.425 . S
C872 C879 1.409 . S
C873 H865 0.930 . S
C873 C871 1.419 . S
C873 C874 1.362 . S
C874 H866 0.930 . S
C874 C873 1.362 . S
C874 C877 1.409 . S
C875 H867 0.930 . S
C875 C876 1.355 . S
C875 C877 1.415 . S
C876 C875 1.355 . S
C876 C878 1.419 . S
C877 C872 1.425 . S
C877 C874 1.409 . S
C877 C875 1.415 . S
C878 H868 0.930 . S
C878 C876 1.419 . S
C878 C879 1.362 . S
C879 H869 0.930 . S
C879 C872 1.409 . S
C879 C878 1.362 . S
H880 C886 0.930 . S
H881 C889 0.930 . S
H882 C890 0.930 . S
H883 C891 0.930 . S
H884 C894 0.930 . S
H885 C895 0.930 . S
C886 H880 0.930 . S
C886 C887 1.355 . S
C886 C888 1.415 . S
C887 C886 1.355 . S
C887 C889 1.419 . S
C888 C886 1.415 . S
C888 C893 1.425 . S
C888 C895 1.409 . S
C889 H881 0.930 . S
C889 C887 1.419 . S
C889 C890 1.362 . S
C890 H882 0.930 . S
C890 C889 1.362 . S
C890 C893 1.409 . S
C891 H883 0.930 . S
C891 C892 1.355 . S
C891 C893 1.415 . S
C892 C891 1.355 . S
C892 C894 1.419 . S
C893 C888 1.425 . S
C893 C890 1.409 . S
C893 C891 1.415 . S
C894 H884 0.930 . S
C894 C892 1.419 . S
C894 C895 1.362 . S
C895 H885 0.930 . S
C895 C888 1.409 . S
C895 C894 1.362 . S
H896 C902 0.930 . S
H897 C905 0.930 1_455 S
H898 C906 0.930 . S
H899 C907 0.930 . S
H900 C910 0.930 . S
H901 C911 0.930 . S
C902 H896 0.930 . S
C902 C903 1.355 . S
C902 C904 1.415 . S
C903 C902 1.355 . S
C903 C905 1.419 . S
C904 C902 1.415 . S
C904 C909 1.425 . S
C904 C911 1.409 . S
C905 H897 0.930 1_655 S
C905 C903 1.419 . S
C905 C906 1.362 . S
C906 H898 0.930 . S
C906 C905 1.362 . S
C906 C909 1.409 . S
C907 H899 0.930 . S
C907 C908 1.355 . S
C907 C909 1.415 . S
C908 C907 1.355 . S
C908 C910 1.419 . S
C909 C904 1.425 . S
C909 C906 1.409 . S
C909 C907 1.415 . S
C910 H900 0.930 . S
C910 C908 1.419 . S
C910 C911 1.362 . S
C911 H901 0.930 . S
C911 C904 1.409 . S
C911 C910 1.362 . S
H912 C918 0.930 . S
H913 C921 0.930 . S
H914 C922 0.930 . S
H915 C923 0.930 . S
H916 C926 0.930 . S
H917 C927 0.930 . S
C918 H912 0.930 . S
C918 C919 1.355 . S
C918 C920 1.415 . S
C919 C918 1.355 . S
C919 C921 1.419 . S
C920 C918 1.415 . S
C920 C925 1.425 . S
C920 C927 1.409 . S
C921 H913 0.930 . S
C921 C919 1.419 . S
C921 C922 1.362 . S
C922 H914 0.930 . S
C922 C921 1.362 . S
C922 C925 1.409 . S
C923 H915 0.930 . S
C923 C924 1.355 . S
C923 C925 1.415 . S
C924 C923 1.355 . S
C924 C926 1.419 . S
C925 C920 1.425 . S
C925 C922 1.409 . S
C925 C923 1.415 . S
C926 H916 0.930 . S
C926 C924 1.419 . S
C926 C927 1.362 . S
C927 H917 0.930 . S
C927 C920 1.409 . S
C927 C926 1.362 . S
H928 C934 0.930 . S
H929 C937 0.930 . S
H930 C938 0.930 . S
H931 C939 0.930 . S
H932 C942 0.930 . S
H933 C943 0.930 . S
C934 H928 0.930 . S
C934 C935 1.355 . S
C934 C936 1.415 . S
C935 C934 1.355 . S
C935 C937 1.419 . S
C936 C934 1.415 . S
C936 C941 1.425 . S
C936 C943 1.409 . S
C937 H929 0.930 . S
C937 C935 1.419 . S
C937 C938 1.362 . S
C938 H930 0.930 . S
C938 C937 1.362 . S
C938 C941 1.409 . S
C939 H931 0.930 . S
C939 C940 1.355 . S
C939 C941 1.415 . S
C940 C939 1.355 . S
C940 C942 1.419 . S
C941 C936 1.425 . S
C941 C938 1.409 . S
C941 C939 1.415 . S
C942 H932 0.930 . S
C942 C940 1.419 . S
C942 C943 1.362 . S
C943 H933 0.930 . S
C943 C936 1.409 . S
C943 C942 1.362 . S
H944 C950 0.930 . S
H945 C953 0.930 . S
H946 C954 0.930 . S
H947 C955 0.930 . S
H948 C958 0.930 . S
H949 C959 0.930 . S
C950 H944 0.930 . S
C950 C951 1.355 . S
C950 C952 1.415 . S
C951 C950 1.355 . S
C951 C953 1.419 . S
C952 C950 1.415 . S
C952 C957 1.425 . S
C952 C959 1.409 . S
C953 H945 0.930 . S
C953 C951 1.419 . S
C953 C954 1.362 . S
C954 H946 0.930 . S
C954 C953 1.362 . S
C954 C957 1.409 . S
C955 H947 0.930 . S
C955 C956 1.355 . S
C955 C957 1.415 . S
C956 C955 1.355 . S
C956 C958 1.419 . S
C957 C952 1.425 . S
C957 C954 1.409 . S
C957 C955 1.415 . S
C958 H948 0.930 . S
C958 C956 1.419 . S
C958 C959 1.362 . S
C959 H949 0.930 . S
C959 C952 1.409 . S
C959 C958 1.362 . S
H960 C966 0.930 . S
H961 C969 0.930 . S
H962 C970 0.930 . S
H963 C971 0.930 . S
H964 C974 0.930 . S
H965 C975 0.930 . S
C966 H960 0.930 . S
C966 C967 1.355 . S
C966 C968 1.415 . S
C967 C966 1.355 . S
C967 C969 1.419 . S
C968 C966 1.415 . S
C968 C973 1.425 . S
C968 C975 1.409 . S
C969 H961 0.930 . S
C969 C967 1.419 . S
C969 C970 1.362 . S
C970 H962 0.930 . S
C970 C969 1.362 . S
C970 C973 1.409 . S
C971 H963 0.930 . S
C971 C972 1.355 . S
C971 C973 1.415 . S
C972 C971 1.355 . S
C972 C974 1.419 . S
C973 C968 1.425 . S
C973 C970 1.409 . S
C973 C971 1.415 . S
C974 H964 0.930 . S
C974 C972 1.419 . S
C974 C975 1.362 . S
C975 H965 0.930 . S
C975 C968 1.409 . S
C975 C974 1.362 . S
H976 C982 0.930 . S
H977 C985 0.930 . S
H978 C986 0.930 . S
H979 C987 0.930 . S
H980 C990 0.930 . S
H981 C991 0.930 . S
C982 H976 0.930 . S
C982 C983 1.355 . S
C982 C984 1.415 . S
C983 C982 1.355 . S
C983 C985 1.419 . S
C984 C982 1.415 . S
C984 C989 1.425 . S
C984 C991 1.409 . S
C985 H977 0.930 . S
C985 C983 1.419 . S
C985 C986 1.362 . S
C986 H978 0.930 . S
C986 C985 1.362 . S
C986 C989 1.409 . S
C987 H979 0.930 . S
C987 C988 1.355 . S
C987 C989 1.415 . S
C988 C987 1.355 . S
C988 C990 1.419 . S
C989 C984 1.425 . S
C989 C986 1.409 . S
C989 C987 1.415 . S
C990 H980 0.930 . S
C990 C988 1.419 . S
C990 C991 1.362 . S
C991 H981 0.930 . S
C991 C984 1.409 . S
C991 C990 1.362 . S
H992 C998 0.930 . S
H993 C1001 0.930 . S
H994 C1002 0.930 . S
H995 C1003 0.930 . S
H996 C1006 0.930 . S
H997 C1007 0.930 . S
C998 H992 0.930 . S
C998 C999 1.355 . S
C998 C1000 1.415 . S
C999 C998 1.355 . S
C999 C1001 1.419 . S
C1000 C998 1.415 . S
C1000 C1005 1.425 . S
C1000 C1007 1.409 . S
C1001 H993 0.930 . S
C1001 C999 1.419 . S
C1001 C1002 1.362 . S
C1002 H994 0.930 . S
C1002 C1001 1.362 . S
C1002 C1005 1.409 . S
C1003 H995 0.930 . S
C1003 C1004 1.355 . S
C1003 C1005 1.415 . S
C1004 C1003 1.355 . S
C1004 C1006 1.419 . S
C1005 C1000 1.425 . S
C1005 C1002 1.409 . S
C1005 C1003 1.415 . S
C1006 H996 0.930 . S
C1006 C1004 1.419 . S
C1006 C1007 1.362 . S
C1007 H997 0.930 . S
C1007 C1000 1.409 . S
C1007 C1006 1.362 . S
H1008 C1014 0.930 . S
H1009 C1017 0.930 . S
H1010 C1018 0.930 . S
H1011 C1019 0.930 . S
H1012 C1022 0.930 . S
H1013 C1023 0.930 . S
C1014 H1008 0.930 . S
C1014 C1015 1.355 . S
C1014 C1016 1.415 . S
C1015 C1014 1.355 . S
C1015 C1017 1.419 . S
C1016 C1014 1.415 . S
C1016 C1021 1.425 . S
C1016 C1023 1.409 . S
C1017 H1009 0.930 . S
C1017 C1015 1.419 . S
C1017 C1018 1.362 . S
C1018 H1010 0.930 . S
C1018 C1017 1.362 . S
C1018 C1021 1.409 . S
C1019 H1011 0.930 . S
C1019 C1020 1.355 . S
C1019 C1021 1.415 . S
C1020 C1019 1.355 . S
C1020 C1022 1.419 . S
C1021 C1016 1.425 . S
C1021 C1018 1.409 . S
C1021 C1019 1.415 . S
C1022 H1012 0.930 . S
C1022 C1020 1.419 . S
C1022 C1023 1.362 . S
C1023 H1013 0.930 . S
C1023 C1016 1.409 . S
C1023 C1022 1.362 . S
H1024 C1030 0.930 . S
H1025 C1033 0.930 . S
H1026 C1034 0.930 . S
H1027 C1035 0.930 . S
H1028 C1038 0.930 . S
H1029 C1039 0.930 . S
C1030 H1024 0.930 . S
C1030 C1031 1.355 . S
C1030 C1032 1.415 . S
C1031 C1030 1.355 . S
C1031 C1033 1.419 . S
C1032 C1030 1.415 . S
C1032 C1037 1.425 . S
C1032 C1039 1.409 . S
C1033 H1025 0.930 . S
C1033 C1031 1.419 . S
C1033 C1034 1.362 . S
C1034 H1026 0.930 . S
C1034 C1033 1.362 . S
C1034 C1037 1.409 . S
C1035 H1027 0.930 . S
C1035 C1036 1.355 . S
C1035 C1037 1.415 . S
C1036 C1035 1.355 . S
C1036 C1038 1.419 . S
C1037 C1032 1.425 . S
C1037 C1034 1.409 . S
C1037 C1035 1.415 . S
C1038 H1028 0.930 . S
C1038 C1036 1.419 . S
C1038 C1039 1.362 . S
C1039 H1029 0.930 . S
C1039 C1032 1.409 . S
C1039 C1038 1.362 . S
H1040 C1046 0.930 . S
H1041 C1049 0.930 . S
H1042 C1050 0.930 . S
H1043 C1051 0.930 . S
H1044 C1054 0.930 . S
H1045 C1055 0.930 . S
C1046 H1040 0.930 . S
C1046 C1047 1.355 . S
C1046 C1048 1.415 . S
C1047 C1046 1.355 . S
C1047 C1049 1.419 . S
C1048 C1046 1.415 . S
C1048 C1053 1.425 . S
C1048 C1055 1.409 . S
C1049 H1041 0.930 . S
C1049 C1047 1.419 . S
C1049 C1050 1.362 . S
C1050 H1042 0.930 . S
C1050 C1049 1.362 . S
C1050 C1053 1.409 . S
C1051 H1043 0.930 . S
C1051 C1052 1.355 . S
C1051 C1053 1.415 . S
C1052 C1051 1.355 . S
C1052 C1054 1.419 . S
C1053 C1048 1.425 . S
C1053 C1050 1.409 . S
C1053 C1051 1.415 . S
C1054 H1044 0.930 . S
C1054 C1052 1.419 . S
C1054 C1055 1.362 . S
C1055 H1045 0.930 . S
C1055 C1048 1.409 . S
C1055 C1054 1.362 . S
H1056 C1062 0.930 . S
H1057 C1065 0.930 . S
H1058 C1066 0.930 . S
H1059 C1067 0.930 . S
H1060 C1070 0.930 . S
H1061 C1071 0.930 . S
C1062 H1056 0.930 . S
C1062 C1063 1.355 . S
C1062 C1064 1.415 . S
C1063 C1062 1.355 . S
C1063 C1065 1.419 . S
C1064 C1062 1.415 . S
C1064 C1069 1.425 . S
C1064 C1071 1.409 . S
C1065 H1057 0.930 . S
C1065 C1063 1.419 . S
C1065 C1066 1.362 . S
C1066 H1058 0.930 . S
C1066 C1065 1.362 . S
C1066 C1069 1.409 . S
C1067 H1059 0.930 . S
C1067 C1068 1.355 . S
C1067 C1069 1.415 . S
C1068 C1067 1.355 . S
C1068 C1070 1.419 . S
C1069 C1064 1.425 . S
C1069 C1066 1.409 . S
C1069 C1067 1.415 . S
C1070 H1060 0.930 . S
C1070 C1068 1.419 . S
C1070 C1071 1.362 . S
C1071 H1061 0.930 . S
C1071 C1064 1.409 . S
C1071 C1070 1.362 . S
H1072 C1078 0.930 . S
H1073 C1081 0.930 . S
H1074 C1082 0.930 . S
H1075 C1083 0.930 . S
H1076 C1086 0.930 . S
H1077 C1087 0.930 . S
C1078 H1072 0.930 . S
C1078 C1079 1.355 . S
C1078 C1080 1.415 . S
C1079 C1078 1.355 . S
C1079 C1081 1.419 . S
C1080 C1078 1.415 . S
C1080 C1085 1.425 . S
C1080 C1087 1.409 . S
C1081 H1073 0.930 . S
C1081 C1079 1.419 . S
C1081 C1082 1.362 . S
C1082 H1074 0.930 . S
C1082 C1081 1.362 . S
C1082 C1085 1.409 . S
C1083 H1075 0.930 . S
C1083 C1084 1.355 . S
C1083 C1085 1.415 . S
C1084 C1083 1.355 . S
C1084 C1086 1.419 . S
C1085 C1080 1.425 . S
C1085 C1082 1.409 . S
C1085 C1083 1.415 . S
C1086 H1076 0.930 . S
C1086 C1084 1.419 . S
C1086 C1087 1.362 . S
C1087 H1077 0.930 . S
C1087 C1080 1.409 . S
C1087 C1086 1.362 . S
C327 C79 1.441 . S
C332 C9 1.439 . S
C343 C18 1.420 . S
C348 C21 1.389 . S
C359 C48 0.933 . S
C364 C29 0.998 . S
C375 C62 1.121 . S
C380 C42 1.191 . S
C391 C82 1.769 . S
C396 C118 1.778 . S
C407 C109 0.972 . S
C412 C129 0.978 . S
C423 C121 1.951 . S
C428 C158 1.962 . S
C439 C99 1.461 . S
C444 C149 1.479 . S
C455 C181 1.366 . S
C460 C1 1.367 . S
C471 C218 1.490 . S
C476 C38 1.493 . S
C487 C59 1.726 . S
C492 C261 1.723 . S
C503 C168 0.908 . S
C508 C68 0.833 . S
C519 C228 0.892 . S
C524 C88 0.963 . S
C535 C299 1.644 . S
C540 C101 1.688 . S
C551 C138 1.250 . S
C556 C258 1.226 . S
C567 C319 1.693 . S
C572 C141 1.678 . S
C583 C179 1.401 . S
C588 C269 1.428 . S
C599 C198 1.583 . S
C604 C162 1.632 . S
C615 C209 0.850 . S
C620 C189 0.877 . S
C631 C288 1.487 . S
C636 C239 1.467 . S
C647 C249 0.784 . S
C652 C308 0.783 . S
C663 C238 1.421 . S
C668 C8 1.443 . S
C679 C242 1.434 . S
C684 C19 1.356 . S
C695 C248 0.958 . S
C700 C49 0.992 . S
C711 C41 1.153 . S
C716 C221 1.086 . S
C727 C199 1.738 . S
C732 C81 1.733 . S
C743 C188 0.958 . S
C748 C128 0.976 . S
C759 C279 1.921 . S
C764 C122 1.987 . S
C775 C98 1.425 . S
C780 C268 1.448 . S
C791 C102 1.330 . S
C796 C2 1.332 . S
C807 C219 1.427 . S
C812 C259 1.451 . S
C823 C58 1.726 . S
C828 C142 1.721 . S
C839 C169 0.873 . S
C844 C229 0.825 . S
C855 C69 0.887 . S
C860 C89 0.958 . S
C871 C182 1.694 . S
C876 C298 1.693 . S
C887 C139 1.218 . S
C892 C39 1.221 . S
C903 C318 1.674 . S
C908 C262 1.664 . S
C919 C178 1.433 . S
C924 C148 1.421 . S
C935 C161 1.622 . S
C940 C119 1.624 . S
C951 C208 0.827 . S
C956 C108 0.805 . S
C967 C78 1.433 . S
C972 C289 1.449 . S
C983 C28 0.753 . S
C988 C309 0.824 . S
C999 C241 1.070 . S
C1004 C282 1.120 . S
C1015 C222 1.190 . S
C1020 C302 1.254 . S
C1031 C201 1.946 . S
C1036 C278 1.888 . S
C1047 C281 1.109 . S
C1052 C22 1.092 . S
C1063 C61 1.234 . S
C1068 C301 1.219 . S
C1079 C159 1.899 . S
C1084 C202 1.928 . S
