# Generated by pormake.
# Topology dei, (4)-cn, num edge types: 1
# Building blocks:
#     Node 0, Type 0, BuildingBlock: NAHDIM_clean_sbu_0, # of connection points: 4
#     Node 1, Type 0, BuildingBlock: NAHDIM_clean_sbu_0, # of connection points: 4
#     Node 2, Type 0, BuildingBlock: NAHDIM_clean_sbu_0, # of connection points: 4
#     Node 3, Type 0, BuildingBlock: NAHDIM_clean_sbu_0, # of connection points: 4
#     Node 4, Type 0, BuildingBlock: NAHDIM_clean_sbu_0, # of connection points: 4
#     Node 5, Type 0, BuildingBlock: NAHDIM_clean_sbu_0, # of connection points: 4
#     Node 6, Type 0, BuildingBlock: NAHDIM_clean_sbu_0, # of connection points: 4
#     Node 7, Type 0, BuildingBlock: NAHDIM_clean_sbu_0, # of connection points: 4
#     Node 8, Type 0, BuildingBlock: NAHDIM_clean_sbu_0, # of connection points: 4
#     Node 9, Type 0, BuildingBlock: NAHDIM_clean_sbu_0, # of connection points: 4
#     Node 10, Type 0, BuildingBlock: NAHDIM_clean_sbu_0, # of connection points: 4
#     Node 11, Type 0, BuildingBlock: NAHDIM_clean_sbu_0, # of connection points: 4
#     Node 12, Type 0, BuildingBlock: NAHDIM_clean_sbu_0, # of connection points: 4
#     Node 13, Type 0, BuildingBlock: NAHDIM_clean_sbu_0, # of connection points: 4
#     Node 14, Type 0, BuildingBlock: NAHDIM_clean_sbu_0, # of connection points: 4
#     Node 15, Type 0, BuildingBlock: NAHDIM_clean_sbu_0, # of connection points: 4
#     Node 16, Type 0, BuildingBlock: NAHDIM_clean_sbu_0, # of connection points: 4
#     Node 17, Type 0, BuildingBlock: NAHDIM_clean_sbu_0, # of connection points: 4
#     Node 18, Type 0, BuildingBlock: NAHDIM_clean_sbu_0, # of connection points: 4
#     Node 19, Type 0, BuildingBlock: NAHDIM_clean_sbu_0, # of connection points: 4
#     Node 20, Type 0, BuildingBlock: NAHDIM_clean_sbu_0, # of connection points: 4
#     Node 21, Type 0, BuildingBlock: NAHDIM_clean_sbu_0, # of connection points: 4
#     Node 22, Type 0, BuildingBlock: NAHDIM_clean_sbu_0, # of connection points: 4
#     Node 23, Type 0, BuildingBlock: NAHDIM_clean_sbu_0, # of connection points: 4
#     Node 24, Type 0, BuildingBlock: NAHDIM_clean_sbu_0, # of connection points: 4
#     Node 25, Type 0, BuildingBlock: NAHDIM_clean_sbu_0, # of connection points: 4
#     Node 26, Type 0, BuildingBlock: NAHDIM_clean_sbu_0, # of connection points: 4
#     Node 27, Type 0, BuildingBlock: NAHDIM_clean_sbu_0, # of connection points: 4
#     Node 28, Type 0, BuildingBlock: NAHDIM_clean_sbu_0, # of connection points: 4
#     Node 29, Type 0, BuildingBlock: NAHDIM_clean_sbu_0, # of connection points: 4
#     Node 30, Type 0, BuildingBlock: NAHDIM_clean_sbu_0, # of connection points: 4
#     Node 31, Type 0, BuildingBlock: NAHDIM_clean_sbu_0, # of connection points: 4
#     Edge 32, Type (0, 0), BuildingBlock: XUDNAN_clean_linker_2, # of connection points: 2
#     Edge 33, Type (0, 0), BuildingBlock: XUDNAN_clean_linker_2, # of connection points: 2
#     Edge 34, Type (0, 0), BuildingBlock: XUDNAN_clean_linker_2, # of connection points: 2
#     Edge 35, Type (0, 0), BuildingBlock: XUDNAN_clean_linker_2, # of connection points: 2
#     Edge 36, Type (0, 0), BuildingBlock: XUDNAN_clean_linker_2, # of connection points: 2
#     Edge 37, Type (0, 0), BuildingBlock: XUDNAN_clean_linker_2, # of connection points: 2
#     Edge 38, Type (0, 0), BuildingBlock: XUDNAN_clean_linker_2, # of connection points: 2
#     Edge 39, Type (0, 0), BuildingBlock: XUDNAN_clean_linker_2, # of connection points: 2
#     Edge 40, Type (0, 0), BuildingBlock: XUDNAN_clean_linker_2, # of connection points: 2
#     Edge 41, Type (0, 0), BuildingBlock: XUDNAN_clean_linker_2, # of connection points: 2
#     Edge 42, Type (0, 0), BuildingBlock: XUDNAN_clean_linker_2, # of connection points: 2
#     Edge 43, Type (0, 0), BuildingBlock: XUDNAN_clean_linker_2, # of connection points: 2
#     Edge 44, Type (0, 0), BuildingBlock: XUDNAN_clean_linker_2, # of connection points: 2
#     Edge 45, Type (0, 0), BuildingBlock: XUDNAN_clean_linker_2, # of connection points: 2
#     Edge 46, Type (0, 0), BuildingBlock: XUDNAN_clean_linker_2, # of connection points: 2
#     Edge 47, Type (0, 0), BuildingBlock: XUDNAN_clean_linker_2, # of connection points: 2
#     Edge 48, Type (0, 0), BuildingBlock: XUDNAN_clean_linker_2, # of connection points: 2
#     Edge 49, Type (0, 0), BuildingBlock: XUDNAN_clean_linker_2, # of connection points: 2
#     Edge 50, Type (0, 0), BuildingBlock: XUDNAN_clean_linker_2, # of connection points: 2
#     Edge 51, Type (0, 0), BuildingBlock: XUDNAN_clean_linker_2, # of connection points: 2
#     Edge 52, Type (0, 0), BuildingBlock: XUDNAN_clean_linker_2, # of connection points: 2
#     Edge 53, Type (0, 0), BuildingBlock: XUDNAN_clean_linker_2, # of connection points: 2
#     Edge 54, Type (0, 0), BuildingBlock: XUDNAN_clean_linker_2, # of connection points: 2
#     Edge 55, Type (0, 0), BuildingBlock: XUDNAN_clean_linker_2, # of connection points: 2
#     Edge 56, Type (0, 0), BuildingBlock: XUDNAN_clean_linker_2, # of connection points: 2
#     Edge 57, Type (0, 0), BuildingBlock: XUDNAN_clean_linker_2, # of connection points: 2
#     Edge 58, Type (0, 0), BuildingBlock: XUDNAN_clean_linker_2, # of connection points: 2
#     Edge 59, Type (0, 0), BuildingBlock: XUDNAN_clean_linker_2, # of connection points: 2
#     Edge 60, Type (0, 0), BuildingBlock: XUDNAN_clean_linker_2, # of connection points: 2
#     Edge 61, Type (0, 0), BuildingBlock: XUDNAN_clean_linker_2, # of connection points: 2
#     Edge 62, Type (0, 0), BuildingBlock: XUDNAN_clean_linker_2, # of connection points: 2
#     Edge 63, Type (0, 0), BuildingBlock: XUDNAN_clean_linker_2, # of connection points: 2
#     Edge 64, Type (0, 0), BuildingBlock: XUDNAN_clean_linker_2, # of connection points: 2
#     Edge 65, Type (0, 0), BuildingBlock: XUDNAN_clean_linker_2, # of connection points: 2
#     Edge 66, Type (0, 0), BuildingBlock: XUDNAN_clean_linker_2, # of connection points: 2
#     Edge 67, Type (0, 0), BuildingBlock: XUDNAN_clean_linker_2, # of connection points: 2
#     Edge 68, Type (0, 0), BuildingBlock: XUDNAN_clean_linker_2, # of connection points: 2
#     Edge 69, Type (0, 0), BuildingBlock: XUDNAN_clean_linker_2, # of connection points: 2
#     Edge 70, Type (0, 0), BuildingBlock: XUDNAN_clean_linker_2, # of connection points: 2
#     Edge 71, Type (0, 0), BuildingBlock: XUDNAN_clean_linker_2, # of connection points: 2
#     Edge 72, Type (0, 0), BuildingBlock: XUDNAN_clean_linker_2, # of connection points: 2
#     Edge 73, Type (0, 0), BuildingBlock: XUDNAN_clean_linker_2, # of connection points: 2
#     Edge 74, Type (0, 0), BuildingBlock: XUDNAN_clean_linker_2, # of connection points: 2
#     Edge 75, Type (0, 0), BuildingBlock: XUDNAN_clean_linker_2, # of connection points: 2
#     Edge 76, Type (0, 0), BuildingBlock: XUDNAN_clean_linker_2, # of connection points: 2
#     Edge 77, Type (0, 0), BuildingBlock: XUDNAN_clean_linker_2, # of connection points: 2
#     Edge 78, Type (0, 0), BuildingBlock: XUDNAN_clean_linker_2, # of connection points: 2
#     Edge 79, Type (0, 0), BuildingBlock: XUDNAN_clean_linker_2, # of connection points: 2
#     Edge 80, Type (0, 0), BuildingBlock: XUDNAN_clean_linker_2, # of connection points: 2
#     Edge 81, Type (0, 0), BuildingBlock: XUDNAN_clean_linker_2, # of connection points: 2
#     Edge 82, Type (0, 0), BuildingBlock: XUDNAN_clean_linker_2, # of connection points: 2
#     Edge 83, Type (0, 0), BuildingBlock: XUDNAN_clean_linker_2, # of connection points: 2
#     Edge 84, Type (0, 0), BuildingBlock: XUDNAN_clean_linker_2, # of connection points: 2
#     Edge 85, Type (0, 0), BuildingBlock: XUDNAN_clean_linker_2, # of connection points: 2
#     Edge 86, Type (0, 0), BuildingBlock: XUDNAN_clean_linker_2, # of connection points: 2
#     Edge 87, Type (0, 0), BuildingBlock: XUDNAN_clean_linker_2, # of connection points: 2
#     Edge 88, Type (0, 0), BuildingBlock: XUDNAN_clean_linker_2, # of connection points: 2
#     Edge 89, Type (0, 0), BuildingBlock: XUDNAN_clean_linker_2, # of connection points: 2
#     Edge 90, Type (0, 0), BuildingBlock: XUDNAN_clean_linker_2, # of connection points: 2
#     Edge 91, Type (0, 0), BuildingBlock: XUDNAN_clean_linker_2, # of connection points: 2
#     Edge 92, Type (0, 0), BuildingBlock: XUDNAN_clean_linker_2, # of connection points: 2
#     Edge 93, Type (0, 0), BuildingBlock: XUDNAN_clean_linker_2, # of connection points: 2
#     Edge 94, Type (0, 0), BuildingBlock: XUDNAN_clean_linker_2, # of connection points: 2
#     Edge 95, Type (0, 0), BuildingBlock: XUDNAN_clean_linker_2, # of connection points: 2
# Relax obj value: 0.225
# Max RMSD: 0.090
# Mean RMSD: 0.090
data_MOF--net-dei--node1-NAHDIM_clean_sbu_0--edge1-XUDNAN_clean_linker_2
_symmetry_space_group_name_H-M    P1
_symmetry_Int_Tables_number       1
_symmetry_cell_setting            triclinic
loop_
_symmetry_equiv_pos_as_xyz
'x, y, z'
_cell_length_a     53.060757
_cell_length_b     53.091688
_cell_length_c     93.606071
_cell_angle_alpha  90.041041
_cell_angle_beta   90.015098
_cell_angle_gamma 90.002708
loop_
_atom_site_label
_atom_site_type_symbol
_atom_site_fract_x
_atom_site_fract_y
_atom_site_fract_z
_atom_type_partial_charge
C0 C 0.16534 0.55869 0.03782 0.0
O1 O 0.14649 0.55396 0.04652 0.0
O2 O 0.16503 0.61029 0.06761 0.0
Zn3 Zn 0.15438 0.60824 0.04703 0.0
O4 O 0.1172 0.60129 0.0456 0.0
C5 C 0.17867 0.65571 0.04143 0.0
O6 O 0.19445 0.64788 0.05129 0.0
O7 O 0.17309 0.58119 0.03655 0.0
C8 C 0.10122 0.61709 0.05027 0.0
O9 O 0.10927 0.63784 0.05642 0.0
C10 C 0.15372 0.59848 0.07751 0.0
O11 O 0.13481 0.58357 0.07426 0.0
O12 O 0.16056 0.64155 0.03768 0.0
C13 C 0.66687 0.92588 0.2823 0.0
O14 O 0.66546 0.93598 0.29509 0.0
O15 O 0.63758 0.89813 0.31294 0.0
Zn16 Zn 0.62822 0.89097 0.29255 0.0
O17 O 0.63104 0.8537 0.28916 0.0
C18 C 0.58506 0.9242 0.28968 0.0
O19 O 0.60146 0.94208 0.2925 0.0
O20 O 0.65229 0.90776 0.27905 0.0
C21 C 0.6228 0.83764 0.29807 0.0
O22 O 0.61177 0.84552 0.30981 0.0
C23 C 0.65845 0.8902 0.31785 0.0
O24 O 0.67389 0.87803 0.30931 0.0
O25 O 0.59251 0.90149 0.28898 0.0
C26 C 0.3176 0.4285 0.53422 0.0
O27 O 0.31158 0.42856 0.54783 0.0
O28 O 0.33363 0.38409 0.56146 0.0
Zn29 Zn 0.34495 0.38237 0.54101 0.0
O30 O 0.38256 0.38582 0.53979 0.0
C31 C 0.31313 0.34037 0.53301 0.0
O32 O 0.29476 0.35522 0.53721 0.0
O33 O 0.33032 0.41027 0.52919 0.0
C34 C 0.39802 0.37303 0.54718 0.0
O35 O 0.3894 0.3566 0.55647 0.0
C36 C 0.34473 0.39739 0.57083 0.0
O37 O 0.36401 0.41142 0.56705 0.0
O38 O 0.33565 0.34847 0.53329 0.0
C39 C 0.80563 0.09369 0.78176 0.0
O40 O 0.79766 0.10904 0.79181 0.0
O41 O 0.84628 0.10056 0.81367 0.0
Zn42 Zn 0.85265 0.10947 0.79302 0.0
O43 O 0.84602 0.14658 0.7905 0.0
C44 C 0.90132 0.08355 0.78995 0.0
O45 O 0.89128 0.06545 0.79764 0.0
O46 O 0.82916 0.09022 0.78029 0.0
C47 C 0.86074 0.16242 0.79635 0.0
O48 O 0.87985 0.15414 0.80393 0.0
C49 C 0.86337 0.10102 0.82319 0.0
O50 O 0.88659 0.10664 0.81952 0.0
O51 O 0.88839 0.10299 0.78699 0.0
C52 C 0.17606 0.42613 0.96654 0.0
O53 O 0.19162 0.42161 0.95593 0.0
O54 O 0.1591 0.3973 0.93332 0.0
Zn55 Zn 0.14451 0.38903 0.95259 0.0
O56 O 0.10659 0.38848 0.95149 0.0
C57 C 0.16657 0.3392 0.95059 0.0
O58 O 0.17189 0.34617 0.93747 0.0
O59 O 0.15519 0.41446 0.96713 0.0
C60 C 0.09596 0.37211 0.94362 0.0
O61 O 0.11005 0.3565 0.93622 0.0
C62 C 0.14736 0.4111 0.92446 0.0
O63 O 0.12554 0.42085 0.92812 0.0
O64 O 0.15565 0.35464 0.95892 0.0
C65 C 0.8059 0.91075 0.21576 0.0
O66 O 0.79935 0.89485 0.20565 0.0
O67 O 0.84208 0.89989 0.18436 0.0
Zn68 Zn 0.85332 0.89719 0.20481 0.0
O69 O 0.85287 0.86034 0.20987 0.0
C70 C 0.90326 0.9023 0.21651 0.0
O71 O 0.89472 0.88567 0.2257 0.0
O72 O 0.82913 0.9156 0.21756 0.0
C73 C 0.86695 0.84523 0.20299 0.0
O74 O 0.88179 0.85421 0.19298 0.0
C75 C 0.852 0.91492 0.17543 0.0
O76 O 0.87 0.93018 0.17969 0.0
O77 O 0.88862 0.91054 0.20684 0.0
C78 C 0.34414 0.56915 0.46948 0.0
O79 O 0.35563 0.56103 0.45793 0.0
O80 O 0.34243 0.61012 0.43789 0.0
Zn81 Zn 0.35749 0.61661 0.45737 0.0
O82 O 0.39538 0.61303 0.45655 0.0
C83 C 0.32678 0.66006 0.46363 0.0
O84 O 0.30822 0.64428 0.46111 0.0
O85 O 0.34264 0.5927 0.47169 0.0
C86 C 0.40702 0.62559 0.44706 0.0
O87 O 0.39399 0.64008 0.4384 0.0
C88 C 0.35296 0.59619 0.42859 0.0
O89 O 0.37424 0.58485 0.43174 0.0
O90 O 0.34937 0.6522 0.4629 0.0
C91 C 0.67417 0.07323 0.71068 0.0
O92 O 0.67419 0.06261 0.698 0.0
O93 O 0.64329 0.09831 0.67938 0.0
Zn94 Zn 0.63304 0.10462 0.69969 0.0
O95 O 0.63223 0.1421 0.70302 0.0
C96 C 0.58261 0.09916 0.71099 0.0
O97 O 0.58848 0.11966 0.71812 0.0
O98 O 0.65819 0.09036 0.71346 0.0
C99 C 0.62114 0.15757 0.69479 0.0
O100 O 0.60881 0.149 0.68362 0.0
C101 C 0.66321 0.10782 0.67414 0.0
O102 O 0.67799 0.12138 0.68238 0.0
O103 O 0.59887 0.08929 0.70276 0.0
C104 C 0.83226 0.41495 0.96538 0.0
O105 O 0.81624 0.41062 0.95497 0.0
O106 O 0.84117 0.37783 0.93461 0.0
Zn107 Zn 0.85745 0.37135 0.95364 0.0
O108 O 0.89473 0.36676 0.95026 0.0
C109 C 0.82073 0.33296 0.96072 0.0
O110 O 0.80454 0.3495 0.95575 0.0
O111 O 0.85098 0.40029 0.96704 0.0
C112 C 0.91197 0.38087 0.95525 0.0
O113 O 0.90584 0.39999 0.96346 0.0
C114 C 0.85206 0.39172 0.92545 0.0
O115 O 0.87364 0.40238 0.92877 0.0
O116 O 0.84394 0.33875 0.96133 0.0
C117 C 0.33099 0.09308 0.72534 0.0
O118 O 0.35153 0.09831 0.7326 0.0
O119 O 0.35352 0.11072 0.6807 0.0
Zn120 Zn 0.35795 0.11597 0.70176 0.0
O121 O 0.35658 0.15316 0.70606 0.0
C122 C 0.40106 0.08236 0.70365 0.0
O123 O 0.38725 0.06722 0.69577 0.0
O124 O 0.33001 0.09834 0.71213 0.0
C125 C 0.36604 0.16142 0.71763 0.0
O126 O 0.37625 0.14542 0.72663 0.0
C127 C 0.33242 0.11515 0.67478 0.0
O128 O 0.31356 0.1232 0.68265 0.0
O129 O 0.39196 0.10333 0.70764 0.0
C130 C 0.65006 0.56265 0.46197 0.0
O131 O 0.63516 0.55591 0.45143 0.0
O132 O 0.66234 0.60641 0.43009 0.0
Zn133 Zn 0.64562 0.61193 0.44916 0.0
O134 O 0.60799 0.61217 0.446 0.0
C135 C 0.67322 0.65881 0.45155 0.0
O136 O 0.6865 0.64945 0.44096 0.0
O137 O 0.65663 0.58555 0.46312 0.0
C138 C 0.59084 0.60612 0.45483 0.0
O139 O 0.59715 0.59813 0.46762 0.0
C140 C 0.65147 0.59353 0.42045 0.0
O141 O 0.62972 0.58284 0.4233 0.0
O142 O 0.65529 0.64595 0.4568 0.0
C143 C 0.18418 0.90749 0.21532 0.0
O144 O 0.19202 0.89291 0.2049 0.0
O145 O 0.14694 0.89792 0.18304 0.0
Zn146 Zn 0.13639 0.89349 0.20359 0.0
O147 O 0.13534 0.85617 0.20772 0.0
C148 C 0.08681 0.89959 0.21555 0.0
O149 O 0.09511 0.88261 0.22461 0.0
O150 O 0.16066 0.91109 0.21687 0.0
C151 C 0.14448 0.84584 0.21882 0.0
O152 O 0.15506 0.85993 0.22868 0.0
C153 C 0.16068 0.88159 0.17686 0.0
O154 O 0.16859 0.86192 0.18409 0.0
O155 O 0.10147 0.90761 0.20584 0.0
C156 C 0.85526 0.5604 0.02849 0.0
O157 O 0.87332 0.55546 0.03768 0.0
O158 O 0.85452 0.60103 0.06095 0.0
Zn159 Zn 0.86353 0.60819 0.04046 0.0
O160 O 0.90103 0.60408 0.03857 0.0
C161 C 0.83152 0.65089 0.03336 0.0
O162 O 0.81316 0.63437 0.03435 0.0
O163 O 0.84687 0.58277 0.02765 0.0
C164 C 0.91628 0.61893 0.04477 0.0
O165 O 0.90733 0.63785 0.05227 0.0
C166 C 0.85092 0.61855 0.06998 0.0
O167 O 0.85221 0.6421 0.06577 0.0
O168 O 0.85412 0.64368 0.03521 0.0
C169 C 0.18216 0.09304 0.78477 0.0
O170 O 0.18789 0.1024 0.79736 0.0
O171 O 0.1365 0.09567 0.81361 0.0
Zn172 Zn 0.13334 0.10857 0.79353 0.0
O173 O 0.13908 0.14593 0.79482 0.0
C174 C 0.08443 0.08487 0.79063 0.0
O175 O 0.09326 0.0693 0.80031 0.0
O176 O 0.15931 0.09312 0.78075 0.0
C177 C 0.13518 0.16167 0.78485 0.0
O178 O 0.12751 0.15356 0.77232 0.0
C179 C 0.12313 0.10734 0.82271 0.0
O180 O 0.10784 0.12515 0.81823 0.0
O181 O 0.09843 0.10248 0.786 0.0
C182 C 0.66775 0.42489 0.53015 0.0
O183 O 0.6796 0.4232 0.54243 0.0
O184 O 0.64432 0.3905 0.56093 0.0
Zn185 Zn 0.63608 0.38333 0.54042 0.0
O186 O 0.59852 0.38435 0.5381 0.0
C187 C 0.67195 0.34339 0.53547 0.0
O188 O 0.68852 0.36063 0.53912 0.0
O189 O 0.64998 0.40965 0.52733 0.0
C190 C 0.58328 0.3736 0.5466 0.0
O191 O 0.59219 0.36053 0.55739 0.0
C192 C 0.63695 0.41087 0.5667 0.0
O193 O 0.62491 0.42754 0.55889 0.0
O194 O 0.64871 0.34911 0.53512 0.0
C195 C 0.31841 0.92317 0.28529 0.0
O196 O 0.3197 0.93432 0.2978 0.0
O197 O 0.35141 0.90101 0.31635 0.0
Zn198 Zn 0.35826 0.89016 0.29619 0.0
O199 O 0.35406 0.85245 0.29561 0.0
C200 C 0.40086 0.92266 0.2915 0.0
O201 O 0.38452 0.94029 0.29483 0.0
O202 O 0.33329 0.90508 0.28248 0.0
C203 C 0.37075 0.83675 0.29164 0.0
O204 O 0.39282 0.84499 0.28734 0.0
C205 C 0.33139 0.89391 0.32262 0.0
O206 O 0.3147 0.88069 0.31544 0.0
O207 O 0.39365 0.89985 0.29107 0.0
C208 C 0.67722 0.07814 0.53012 0.0
O209 O 0.69138 0.08151 0.54147 0.0
O210 O 0.66128 0.11387 0.56136 0.0
Zn211 Zn 0.64685 0.11901 0.54171 0.0
O212 O 0.60897 0.11845 0.54259 0.0
C213 C 0.67999 0.16074 0.53543 0.0
O214 O 0.69766 0.14541 0.54002 0.0
O215 O 0.65811 0.09213 0.52818 0.0
C216 C 0.59735 0.13132 0.55194 0.0
O217 O 0.61041 0.14476 0.56113 0.0
C218 C 0.65123 0.09899 0.57032 0.0
O219 O 0.63142 0.08576 0.56648 0.0
O220 O 0.65735 0.15305 0.53484 0.0
C221 C 0.17534 0.42856 0.78232 0.0
O222 O 0.17232 0.44479 0.79278 0.0
O223 O 0.14483 0.41311 0.81577 0.0
Zn224 Zn 0.13581 0.39931 0.79646 0.0
O225 O 0.13668 0.36163 0.79833 0.0
C226 C 0.08502 0.41644 0.80014 0.0
O227 O 0.09218 0.41706 0.81357 0.0
O228 O 0.16151 0.40904 0.7818 0.0
C229 C 0.1349 0.34678 0.78773 0.0
O230 O 0.13181 0.35616 0.77487 0.0
C231 C 0.16586 0.40728 0.82135 0.0
O232 O 0.18202 0.39398 0.81385 0.0
O233 O 0.10082 0.40989 0.79064 0.0
C234 C 0.8256 0.91643 0.03251 0.0
O235 O 0.81244 0.91282 0.04421 0.0
O236 O 0.84445 0.88418 0.06401 0.0
Zn237 Zn 0.85899 0.87836 0.04446 0.0
O238 O 0.8965 0.8833 0.04592 0.0
C239 C 0.82928 0.83509 0.03629 0.0
O240 O 0.81048 0.85105 0.03753 0.0
O241 O 0.84537 0.90344 0.03037 0.0
C242 C 0.91196 0.87634 0.03634 0.0
O243 O 0.90343 0.86503 0.02483 0.0
C244 C 0.853 0.90207 0.07162 0.0
O245 O 0.87035 0.91698 0.06626 0.0
O246 O 0.85164 0.84279 0.03844 0.0
C247 C 0.31489 0.56612 0.28851 0.0
O248 O 0.31528 0.55583 0.30126 0.0
O249 O 0.34767 0.58922 0.31949 0.0
Zn250 Zn 0.35532 0.59877 0.29918 0.0
O251 O 0.35186 0.63654 0.29793 0.0
C252 C 0.40743 0.58874 0.30376 0.0
O253 O 0.40108 0.59548 0.31678 0.0
O254 O 0.33038 0.58362 0.28555 0.0
C255 C 0.36862 0.6516 0.29333 0.0
O256 O 0.39023 0.64261 0.28877 0.0
C257 C 0.32787 0.5976 0.32548 0.0
O258 O 0.31187 0.61096 0.31791 0.0
O259 O 0.39062 0.58833 0.29409 0.0
C260 C 0.66107 0.93798 0.4633 0.0
O261 O 0.64233 0.94254 0.4545 0.0
O262 O 0.66808 0.89247 0.43104 0.0
Zn263 Zn 0.65585 0.88895 0.45132 0.0
O264 O 0.6179 0.89049 0.45145 0.0
C265 C 0.68115 0.84063 0.45286 0.0
O266 O 0.69303 0.84872 0.44143 0.0
O267 O 0.67039 0.91598 0.46377 0.0
C268 C 0.60643 0.87404 0.44402 0.0
O269 O 0.61976 0.85749 0.43682 0.0
C270 C 0.65567 0.90504 0.42188 0.0
O271 O 0.63515 0.91691 0.4259 0.0
O272 O 0.66531 0.85494 0.45899 0.0
C273 C 0.31474 0.39777 0.71662 0.0
O274 O 0.31112 0.37532 0.71109 0.0
O275 O 0.35275 0.39668 0.68082 0.0
Zn276 Zn 0.3608 0.39151 0.70164 0.0
O277 O 0.3604 0.35436 0.70583 0.0
C278 C 0.40249 0.42688 0.70465 0.0
O279 O 0.38579 0.44402 0.70107 0.0
O280 O 0.33531 0.40917 0.71408 0.0
C281 C 0.36664 0.34635 0.71812 0.0
O282 O 0.3732 0.36266 0.72801 0.0
C283 C 0.33591 0.38327 0.67486 0.0
O284 O 0.32374 0.36647 0.68249 0.0
O285 O 0.39573 0.404 0.70564 0.0
C286 C 0.83446 0.05838 0.96698 0.0
O287 O 0.8526 0.05421 0.95772 0.0
O288 O 0.83835 0.10188 0.93607 0.0
Zn289 Zn 0.84455 0.10714 0.95719 0.0
O290 O 0.88161 0.10388 0.96149 0.0
C291 C 0.81122 0.15015 0.96176 0.0
O292 O 0.79328 0.13483 0.95749 0.0
O293 O 0.82646 0.08076 0.96861 0.0
C294 C 0.89696 0.12192 0.95953 0.0
O295 O 0.88845 0.14355 0.95472 0.0
C296 C 0.85598 0.09526 0.92766 0.0
O297 O 0.8786 0.09112 0.93284 0.0
O298 O 0.83368 0.14203 0.96267 0.0
C299 C 0.18348 0.58778 0.21831 0.0
O300 O 0.19225 0.6021 0.20802 0.0
O301 O 0.14592 0.60599 0.18744 0.0
Zn302 Zn 0.13718 0.6087 0.20837 0.0
O303 O 0.14097 0.64462 0.21495 0.0
C304 C 0.09394 0.57601 0.20819 0.0
O305 O 0.11061 0.55921 0.20407 0.0
O306 O 0.15984 0.58681 0.22036 0.0
C307 C 0.12952 0.66237 0.20856 0.0
O308 O 0.115 0.65697 0.1976 0.0
C309 C 0.16109 0.62106 0.18132 0.0
O310 O 0.17205 0.63884 0.18885 0.0
O311 O 0.10115 0.59833 0.21087 0.0
C312 C 0.34309 0.92537 0.46512 0.0
O313 O 0.32666 0.92041 0.455 0.0
O314 O 0.35049 0.88764 0.43455 0.0
Zn315 Zn 0.36817 0.88204 0.45328 0.0
O316 O 0.40519 0.8778 0.4492 0.0
C317 C 0.33282 0.84315 0.46187 0.0
O318 O 0.31568 0.8593 0.45755 0.0
O319 O 0.36218 0.91115 0.4666 0.0
C320 C 0.42287 0.89062 0.45478 0.0
O321 O 0.41739 0.9084 0.46404 0.0
C322 C 0.36033 0.90163 0.42507 0.0
O323 O 0.38179 0.91298 0.42784 0.0
O324 O 0.35592 0.84942 0.46152 0.0
C325 C 0.81899 0.59151 0.21376 0.0
O326 O 0.81191 0.60752 0.20384 0.0
O327 O 0.85922 0.60055 0.18266 0.0
Zn328 Zn 0.86636 0.60734 0.20347 0.0
O329 O 0.86228 0.64425 0.20798 0.0
C330 C 0.90971 0.57496 0.20521 0.0
O331 O 0.89371 0.55802 0.20046 0.0
O332 O 0.84236 0.58763 0.21566 0.0
C333 C 0.87719 0.66058 0.20277 0.0
O334 O 0.89554 0.65313 0.19434 0.0
C335 C 0.84898 0.61657 0.1744 0.0
O336 O 0.842 0.63852 0.17953 0.0
O337 O 0.90201 0.59723 0.20757 0.0
C338 C 0.16973 0.07015 0.96583 0.0
O339 O 0.17814 0.07156 0.95266 0.0
O340 O 0.14033 0.10152 0.93656 0.0
Zn341 Zn 0.13434 0.10944 0.95732 0.0
O342 O 0.09714 0.1059 0.96113 0.0
C343 C 0.16102 0.15688 0.95455 0.0
O344 O 0.17071 0.14637 0.94309 0.0
O345 O 0.15205 0.08466 0.96983 0.0
C346 C 0.08182 0.12431 0.96116 0.0
O347 O 0.09031 0.14719 0.95885 0.0
C348 C 0.12804 0.11394 0.92729 0.0
O349 O 0.11265 0.13178 0.93159 0.0
O350 O 0.14557 0.14452 0.96218 0.0
C351 C 0.67754 0.40986 0.7096 0.0
O352 O 0.68321 0.3968 0.69812 0.0
O353 O 0.63353 0.40673 0.67997 0.0
Zn354 Zn 0.62869 0.396 0.70041 0.0
O355 O 0.63217 0.35838 0.7026 0.0
C356 C 0.58626 0.42866 0.70488 0.0
O357 O 0.60217 0.44586 0.70035 0.0
O358 O 0.6545 0.41278 0.7129 0.0
C359 C 0.61855 0.34281 0.69574 0.0
O360 O 0.60171 0.35135 0.68666 0.0
C361 C 0.64456 0.39357 0.67051 0.0
O362 O 0.6541 0.37159 0.674 0.0
O363 O 0.59375 0.40605 0.7062 0.0
C364 C 0.36014 0.07023 0.52955 0.0
O365 O 0.377 0.06558 0.53949 0.0
O366 O 0.34244 0.11389 0.56157 0.0
Zn367 Zn 0.35903 0.11974 0.54253 0.0
O368 O 0.39639 0.12288 0.546 0.0
C369 C 0.32356 0.15818 0.53398 0.0
O370 O 0.30674 0.14106 0.53743 0.0
O371 O 0.35026 0.09198 0.52883 0.0
C372 C 0.41432 0.11721 0.53761 0.0
O373 O 0.40923 0.10793 0.52492 0.0
C374 C 0.35447 0.10255 0.57139 0.0
O375 O 0.37698 0.0935 0.5686 0.0
O376 O 0.34684 0.15286 0.53498 0.0
C377 C 0.68126 0.5678 0.28034 0.0
O378 O 0.68058 0.55707 0.29297 0.0
O379 O 0.65177 0.59258 0.31163 0.0
Zn380 Zn 0.64127 0.60007 0.29146 0.0
O381 O 0.64159 0.63761 0.28861 0.0
C382 C 0.59101 0.58639 0.29874 0.0
O383 O 0.59964 0.59185 0.31152 0.0
O384 O 0.66576 0.58533 0.27746 0.0
C385 C 0.63254 0.65277 0.29778 0.0
O386 O 0.62263 0.64377 0.30958 0.0
C387 C 0.67159 0.60172 0.31721 0.0
O388 O 0.68665 0.61568 0.30938 0.0
O389 O 0.60584 0.58773 0.2881 0.0
C390 C 0.16347 0.93344 0.03357 0.0
O391 O 0.14958 0.94021 0.04453 0.0
O392 O 0.16372 0.88559 0.06348 0.0
Zn393 Zn 0.14978 0.8846 0.04349 0.0
O394 O 0.1124 0.8911 0.04441 0.0
C395 C 0.17475 0.83741 0.03879 0.0
O396 O 0.19151 0.8473 0.04747 0.0
O397 O 0.16663 0.91017 0.03103 0.0
C398 C 0.09702 0.88277 0.03513 0.0
O399 O 0.1057 0.86999 0.02416 0.0
C400 C 0.15316 0.89847 0.07324 0.0
O401 O 0.13337 0.91224 0.07005 0.0
O402 O 0.15543 0.85017 0.03536 0.0
C403 C 0.82448 0.41543 0.77079 0.0
O404 O 0.84207 0.40151 0.76484 0.0
O405 O 0.84544 0.40558 0.81647 0.0
Zn406 Zn 0.85129 0.40047 0.7955 0.0
O407 O 0.84723 0.3635 0.79145 0.0
C408 C 0.9016 0.42013 0.79918 0.0
O409 O 0.89354 0.4241 0.81226 0.0
O410 O 0.82508 0.4189 0.7842 0.0
C411 C 0.86057 0.34747 0.79811 0.0
O412 O 0.87728 0.35546 0.80744 0.0
C413 C 0.82531 0.39775 0.82231 0.0
O414 O 0.80786 0.38721 0.81434 0.0
O415 O 0.88655 0.41089 0.79 0.0
H416 H 0.13607 0.59148 0.16192 0.0
H417 H 0.19612 0.64669 0.16555 0.0
H418 H 0.20252 0.64491 0.13945 0.0
H419 H 0.16413 0.55424 0.13322 0.0
H420 H 0.13427 0.54871 0.12458 0.0
H421 H 0.13562 0.55301 0.14367 0.0
H422 H 0.10328 0.58945 0.14182 0.0
H423 H 0.10184 0.58529 0.12275 0.0
H424 H 0.10974 0.61565 0.13013 0.0
H425 H 0.20103 0.63866 0.1129 0.0
H426 H 0.19118 0.62908 0.08772 0.0
H427 H 0.13176 0.57829 0.10144 0.0
C428 C 0.15079 0.60297 0.15726 0.0
C429 C 0.16568 0.61915 0.16578 0.0
C430 C 0.18451 0.63412 0.15924 0.0
C431 C 0.18834 0.6332 0.14443 0.0
C432 C 0.17317 0.61722 0.13633 0.0
C433 C 0.15477 0.60238 0.14251 0.0
C434 C 0.1402 0.58776 0.13133 0.0
C435 C 0.14378 0.55924 0.13332 0.0
C436 C 0.11211 0.59498 0.13152 0.0
C437 C 0.15305 0.59697 0.11789 0.0
C438 C 0.17215 0.61379 0.12101 0.0
C439 C 0.18623 0.62539 0.11032 0.0
C440 C 0.18047 0.61983 0.09605 0.0
C441 C 0.16072 0.6029 0.0926 0.0
C442 C 0.14706 0.59119 0.10371 0.0
H443 H 0.62831 0.92199 0.39906 0.0
H444 H 0.69877 0.88536 0.4102 0.0
H445 H 0.70881 0.88061 0.38457 0.0
H446 H 0.61337 0.88243 0.37051 0.0
H447 H 0.59962 0.90669 0.35954 0.0
H448 H 0.59931 0.9098 0.37867 0.0
H449 H 0.6219 0.95295 0.37668 0.0
H450 H 0.62219 0.95002 0.3575 0.0
H451 H 0.65124 0.95514 0.36705 0.0
H452 H 0.70957 0.87692 0.35779 0.0
H453 H 0.70083 0.87423 0.33192 0.0
H454 H 0.6296 0.91281 0.33846 0.0
C455 C 0.6461 0.91342 0.39613 0.0
C456 C 0.66283 0.90418 0.40663 0.0
C457 C 0.68571 0.89267 0.40234 0.0
C458 C 0.6916 0.88994 0.38781 0.0
C459 C 0.67445 0.89884 0.37774 0.0
C460 C 0.6522 0.91042 0.38171 0.0
C461 C 0.63618 0.91679 0.36883 0.0
C462 C 0.61062 0.9031 0.36943 0.0
C463 C 0.63268 0.94543 0.36744 0.0
C464 C 0.65265 0.90652 0.357 0.0
C465 C 0.67476 0.89647 0.36233 0.0
C466 C 0.69244 0.88495 0.35347 0.0
C467 C 0.68729 0.88348 0.3388 0.0
C468 C 0.66456 0.89334 0.33316 0.0
C469 C 0.64722 0.90524 0.34241 0.0
H470 H 0.36322 0.40968 0.65497 0.0
H471 H 0.29774 0.36135 0.65971 0.0
H472 H 0.29094 0.36262 0.63365 0.0
H473 H 0.33854 0.44819 0.62539 0.0
H474 H 0.36876 0.44993 0.61665 0.0
H475 H 0.3671 0.44723 0.63582 0.0
H476 H 0.3955 0.40755 0.63483 0.0
H477 H 0.39721 0.41009 0.61569 0.0
H478 H 0.38625 0.3813 0.62377 0.0
H479 H 0.29298 0.3665 0.6071 0.0
H480 H 0.30404 0.37233 0.58174 0.0
H481 H 0.36836 0.41795 0.59418 0.0
C482 C 0.3472 0.39971 0.65056 0.0
C483 C 0.33094 0.38549 0.65937 0.0
C484 C 0.31042 0.37239 0.65316 0.0
C485 C 0.30635 0.37306 0.63838 0.0
C486 C 0.32293 0.38695 0.62997 0.0
C487 C 0.34292 0.40009 0.63581 0.0
C488 C 0.35886 0.41226 0.62431 0.0
C489 C 0.35827 0.44112 0.62563 0.0
C490 C 0.38606 0.40219 0.62467 0.0
C491 C 0.34501 0.40344 0.61107 0.0
C492 C 0.3242 0.38908 0.61459 0.0
C493 C 0.30908 0.37793 0.6042 0.0
C494 C 0.31555 0.38131 0.58983 0.0
C495 C 0.33703 0.39565 0.58597 0.0
C496 C 0.3517 0.40709 0.59677 0.0
H497 H 0.89138 0.09222 0.90653 0.0
H498 H 0.81058 0.09486 0.91362 0.0
H499 H 0.80352 0.09371 0.88751 0.0
H500 H 0.89193 0.13311 0.87694 0.0
H501 H 0.91662 0.11662 0.86759 0.0
H502 H 0.91516 0.11541 0.88678 0.0
H503 H 0.91423 0.06662 0.88583 0.0
H504 H 0.91571 0.06768 0.86661 0.0
H505 H 0.89045 0.05097 0.87531 0.0
H506 H 0.80547 0.09388 0.86058 0.0
H507 H 0.81623 0.09743 0.83499 0.0
H508 H 0.89582 0.09598 0.84576 0.0
C509 C 0.87217 0.09219 0.90262 0.0
C510 C 0.85151 0.09346 0.91211 0.0
C511 C 0.82668 0.09383 0.90654 0.0
C512 C 0.82249 0.0931 0.89174 0.0
C513 C 0.84332 0.09208 0.88268 0.0
C514 C 0.86767 0.09171 0.88792 0.0
C515 C 0.88684 0.09212 0.87596 0.0
C516 C 0.90361 0.11572 0.87687 0.0
C517 C 0.90274 0.0679 0.87593 0.0
C518 C 0.86949 0.09316 0.86315 0.0
C519 C 0.84446 0.0928 0.86723 0.0
C520 C 0.82501 0.09407 0.85726 0.0
C521 C 0.83131 0.09605 0.84275 0.0
C522 C 0.85687 0.09701 0.83838 0.0
C523 C 0.87612 0.09529 0.84875 0.0
H524 H 0.12212 0.42944 0.90119 0.0
H525 H 0.19422 0.39871 0.91444 0.0
H526 H 0.20891 0.39974 0.88942 0.0
H527 H 0.11624 0.39347 0.87068 0.0
H528 H 0.10152 0.41751 0.85995 0.0
H529 H 0.09811 0.41812 0.87905 0.0
H530 H 0.11604 0.46353 0.87973 0.0
H531 H 0.11947 0.46306 0.86058 0.0
H532 H 0.14627 0.46998 0.87175 0.0
H533 H 0.21398 0.39953 0.86283 0.0
H534 H 0.20862 0.39701 0.83668 0.0
H535 H 0.13308 0.42759 0.8408 0.0
C536 C 0.14123 0.42355 0.89889 0.0
C537 C 0.15709 0.41416 0.90977 0.0
C538 C 0.18177 0.40607 0.90627 0.0
C539 C 0.19033 0.40669 0.89211 0.0
C540 C 0.17401 0.41553 0.88158 0.0
C541 C 0.14999 0.42389 0.88481 0.0
C542 C 0.13531 0.43015 0.8714 0.0
C543 C 0.1114 0.41383 0.87021 0.0
C544 C 0.1289 0.45836 0.87084 0.0
C545 C 0.15451 0.42319 0.86012 0.0
C546 C 0.17685 0.41519 0.8662 0.0
C547 C 0.19672 0.40613 0.85794 0.0
C548 C 0.19348 0.40473 0.84309 0.0
C549 C 0.17047 0.41218 0.83668 0.0
C550 C 0.15102 0.42206 0.84534 0.0
H551 H 0.87454 0.93182 0.09216 0.0
H552 H 0.81486 0.87716 0.08538 0.0
H553 H 0.80512 0.87801 0.11117 0.0
H554 H 0.89726 0.90588 0.12353 0.0
H555 H 0.90467 0.93539 0.13209 0.0
H556 H 0.90464 0.93323 0.11292 0.0
H557 H 0.87245 0.96986 0.11148 0.0
H558 H 0.87245 0.97222 0.13069 0.0
H559 H 0.84322 0.96771 0.12122 0.0
H560 H 0.80482 0.88144 0.13785 0.0
H561 H 0.8141 0.88695 0.16348 0.0
H562 H 0.87421 0.93918 0.15285 0.0
C563 C 0.85902 0.92047 0.09603 0.0
C564 C 0.84537 0.90451 0.08675 0.0
C565 C 0.82553 0.88958 0.09229 0.0
C566 C 0.8198 0.89 0.10691 0.0
C567 C 0.83402 0.90552 0.11582 0.0
C568 C 0.85315 0.92057 0.11059 0.0
C569 C 0.86695 0.93396 0.12255 0.0
C570 C 0.89503 0.92666 0.12278 0.0
C571 C 0.86355 0.96264 0.12141 0.0
C572 C 0.8531 0.92348 0.13536 0.0
C573 C 0.83396 0.90737 0.13125 0.0
C574 C 0.81952 0.89428 0.1412 0.0
C575 C 0.82499 0.89749 0.15574 0.0
C576 C 0.84484 0.91356 0.16018 0.0
C577 C 0.85874 0.92699 0.14982 0.0
H578 H 0.37544 0.57606 0.40487 0.0
H579 H 0.30702 0.61307 0.41924 0.0
H580 H 0.29104 0.61327 0.39446 0.0
H581 H 0.38263 0.611 0.37377 0.0
H582 H 0.39454 0.5854 0.36306 0.0
H583 H 0.39914 0.58521 0.3821 0.0
H584 H 0.3775 0.54152 0.38371 0.0
H585 H 0.37286 0.54157 0.36463 0.0
H586 H 0.34633 0.53739 0.37641 0.0
H587 H 0.2843 0.61303 0.36791 0.0
H588 H 0.28771 0.6132 0.3416 0.0
H589 H 0.36069 0.57659 0.34467 0.0
C590 C 0.35686 0.58372 0.40287 0.0
C591 C 0.34241 0.59442 0.414 0.0
C592 C 0.31839 0.6047 0.41088 0.0
C593 C 0.30911 0.60482 0.39685 0.0
C594 C 0.32405 0.59453 0.38608 0.0
C595 C 0.34739 0.58411 0.38894 0.0
C596 C 0.36059 0.57612 0.37534 0.0
C597 C 0.3857 0.59028 0.37346 0.0
C598 C 0.36454 0.54744 0.37501 0.0
C599 C 0.34133 0.58428 0.36436 0.0
C600 C 0.32024 0.59456 0.37077 0.0
C601 C 0.30057 0.60473 0.36277 0.0
C602 C 0.3027 0.60477 0.34783 0.0
C603 C 0.32442 0.59484 0.34107 0.0
C604 C 0.34371 0.58407 0.34949 0.0
H605 H 0.6345 0.08368 0.65405 0.0
H606 H 0.70348 0.12672 0.65924 0.0
H607 H 0.71015 0.12553 0.63313 0.0
H608 H 0.65617 0.04413 0.62399 0.0
H609 H 0.62575 0.04493 0.61543 0.0
H610 H 0.62797 0.04678 0.63462 0.0
H611 H 0.6025 0.08844 0.63431 0.0
H612 H 0.60026 0.08677 0.61516 0.0
H613 H 0.61345 0.11437 0.62353 0.0
H614 H 0.70699 0.1233 0.60637 0.0
H615 H 0.69439 0.12003 0.58104 0.0
H616 H 0.62767 0.07812 0.59348 0.0
C617 C 0.65128 0.09246 0.64975 0.0
C618 C 0.66851 0.10525 0.6587 0.0
C619 C 0.69006 0.11675 0.6526 0.0
C620 C 0.69404 0.11612 0.63779 0.0
C621 C 0.6764 0.10376 0.62925 0.0
C622 C 0.65553 0.09201 0.63503 0.0
C623 C 0.63852 0.08148 0.62349 0.0
C624 C 0.63703 0.05261 0.62444 0.0
C625 C 0.61214 0.09349 0.62417 0.0
C626 C 0.65273 0.08975 0.6103 0.0
C627 C 0.67465 0.10237 0.61384 0.0
C628 C 0.69007 0.11314 0.60346 0.0
C629 C 0.68272 0.11123 0.58911 0.0
C630 C 0.66012 0.0987 0.58528 0.0
C631 C 0.64523 0.08749 0.59604 0.0
H632 H 0.85957 0.41526 0.84181 0.0
H633 H 0.7853 0.38145 0.83836 0.0
H634 H 0.78253 0.37948 0.86468 0.0
H635 H 0.88088 0.37795 0.86995 0.0
H636 H 0.89844 0.40259 0.8787 0.0
H637 H 0.89344 0.40383 0.85971 0.0
H638 H 0.87331 0.44808 0.86223 0.0
H639 H 0.87833 0.44704 0.88127 0.0
H640 H 0.84716 0.45254 0.87427 0.0
H641 H 0.78956 0.37762 0.89121 0.0
H642 H 0.80563 0.37649 0.91598 0.0
H643 H 0.8751 0.4119 0.90195 0.0
C644 C 0.84251 0.40785 0.84657 0.0
C645 C 0.82261 0.39857 0.83803 0.0
C646 C 0.80075 0.38875 0.84469 0.0
C647 C 0.79899 0.38759 0.85963 0.0
C648 C 0.81916 0.39647 0.86772 0.0
C649 C 0.84044 0.40656 0.86143 0.0
C650 C 0.86011 0.41343 0.87247 0.0
C651 C 0.88465 0.39855 0.87006 0.0
C652 C 0.865 0.44197 0.87256 0.0
C653 C 0.84682 0.40508 0.88596 0.0
C654 C 0.82315 0.39552 0.88301 0.0
C655 C 0.80793 0.38536 0.89368 0.0
C656 C 0.81724 0.38475 0.90769 0.0
C657 C 0.84157 0.39422 0.9109 0.0
C658 C 0.85631 0.40481 0.89988 0.0
H659 H 0.36738 0.09738 0.65578 0.0
H660 H 0.29092 0.12612 0.65847 0.0
H661 H 0.28691 0.12281 0.63224 0.0
H662 H 0.38466 0.13002 0.62475 0.0
H663 H 0.4035 0.10484 0.61747 0.0
H664 H 0.39953 0.10759 0.63649 0.0
H665 H 0.38256 0.06183 0.63752 0.0
H666 H 0.38647 0.05895 0.61847 0.0
H667 H 0.35617 0.05297 0.62648 0.0
H668 H 0.29252 0.11947 0.60555 0.0
H669 H 0.30731 0.11621 0.58058 0.0
H670 H 0.37972 0.0889 0.59562 0.0
C671 C 0.34967 0.10273 0.65089 0.0
C672 C 0.32946 0.11201 0.65918 0.0
C673 C 0.30665 0.11891 0.65234 0.0
C674 C 0.30417 0.11705 0.63745 0.0
C675 C 0.32459 0.10806 0.62959 0.0
C676 C 0.34685 0.1009 0.63609 0.0
C677 C 0.36637 0.09295 0.62521 0.0
C678 C 0.38989 0.10986 0.62603 0.0
C679 C 0.37329 0.06501 0.62703 0.0
C680 C 0.35182 0.09729 0.61154 0.0
C681 C 0.3277 0.10586 0.61427 0.0
C682 C 0.31126 0.11248 0.60328 0.0
C683 C 0.31983 0.11059 0.58914 0.0
C684 C 0.34461 0.10216 0.58615 0.0
C685 C 0.36057 0.09508 0.59753 0.0
H686 H 0.62969 0.57281 0.39672 0.0
H687 H 0.69615 0.61342 0.41093 0.0
H688 H 0.711 0.61607 0.38597 0.0
H689 H 0.66014 0.5378 0.36714 0.0
H690 H 0.63278 0.54082 0.35586 0.0
H691 H 0.62914 0.53928 0.37498 0.0
H692 H 0.60442 0.58139 0.37457 0.0
H693 H 0.60805 0.58311 0.3555 0.0
H694 H 0.61867 0.60879 0.36657 0.0
H695 H 0.71624 0.61822 0.35924 0.0
H696 H 0.71136 0.61967 0.33299 0.0
H697 H 0.64143 0.57767 0.33654 0.0
C698 C 0.64765 0.58177 0.39465 0.0
C699 C 0.66181 0.59281 0.40579 0.0
C700 C 0.68502 0.60473 0.40258 0.0
C701 C 0.69365 0.60628 0.38843 0.0
C702 C 0.67891 0.5957 0.37766 0.0
C703 C 0.65647 0.58354 0.38063 0.0
C704 C 0.64316 0.57548 0.36708 0.0
C705 C 0.6412 0.54663 0.36622 0.0
C706 C 0.61704 0.58795 0.36586 0.0
C707 C 0.66124 0.58564 0.35602 0.0
C708 C 0.6819 0.59699 0.3623 0.0
C709 C 0.70033 0.60906 0.3542 0.0
C710 C 0.69738 0.60983 0.3393 0.0
C711 C 0.67608 0.59871 0.3327 0.0
C712 C 0.65807 0.58613 0.34122 0.0
H713 H 0.13808 0.91251 0.15727 0.0
H714 H 0.19585 0.85515 0.16166 0.0
H715 H 0.20327 0.85646 0.13563 0.0
H716 H 0.11156 0.8884 0.12612 0.0
H717 H 0.10458 0.91853 0.1182 0.0
H718 H 0.10609 0.91551 0.13731 0.0
H719 H 0.13969 0.95091 0.13838 0.0
H720 H 0.13824 0.95409 0.11923 0.0
H721 H 0.16801 0.94811 0.12787 0.0
H722 H 0.20197 0.86145 0.10903 0.0
H723 H 0.19108 0.8687 0.08373 0.0
H724 H 0.13357 0.92222 0.09673 0.0
C725 C 0.15267 0.90062 0.1528 0.0
C726 C 0.1665 0.88384 0.16148 0.0
C727 C 0.18506 0.86819 0.1552 0.0
C728 C 0.18949 0.86888 0.14044 0.0
C729 C 0.17521 0.88532 0.13214 0.0
C730 C 0.15718 0.90092 0.13809 0.0
C731 C 0.14295 0.91531 0.1267 0.0
C732 C 0.11463 0.90905 0.12711 0.0
C733 C 0.14751 0.94379 0.12813 0.0
C734 C 0.15536 0.90488 0.1134 0.0
C735 C 0.17416 0.88789 0.11677 0.0
C736 C 0.18747 0.87492 0.10625 0.0
C737 C 0.18112 0.87915 0.09191 0.0
C738 C 0.16149 0.89605 0.08824 0.0
C739 C 0.14879 0.90932 0.09916 0.0
H740 H 0.84174 0.65146 0.09194 0.0
H741 H 0.85267 0.57206 0.08265 0.0
H742 H 0.85036 0.56248 0.10841 0.0
H743 H 0.87944 0.65371 0.12255 0.0
H744 H 0.85957 0.67535 0.13221 0.0
H745 H 0.8598 0.67572 0.113 0.0
H746 H 0.81141 0.66907 0.11263 0.0
H747 H 0.811 0.66878 0.13188 0.0
H748 H 0.79794 0.64267 0.12203 0.0
H749 H 0.85093 0.56208 0.13523 0.0
H750 H 0.85265 0.57074 0.16115 0.0
H751 H 0.84022 0.6502 0.15284 0.0
C752 C 0.84328 0.632 0.09528 0.0
C753 C 0.84739 0.61251 0.08527 0.0
C754 C 0.84944 0.58731 0.09012 0.0
C755 C 0.84814 0.58167 0.10473 0.0
C756 C 0.84453 0.60139 0.11433 0.0
C757 C 0.84189 0.62602 0.1098 0.0
C758 C 0.83926 0.64388 0.12233 0.0
C759 C 0.8608 0.6633 0.12253 0.0
C760 C 0.81336 0.65686 0.12221 0.0
C761 C 0.84145 0.62552 0.13462 0.0
C762 C 0.84439 0.60109 0.12979 0.0
C763 C 0.84828 0.58107 0.13915 0.0
C764 C 0.84931 0.58619 0.15384 0.0
C765 C 0.84639 0.6111 0.159 0.0
C766 C 0.84213 0.63091 0.14923 0.0
H767 H 0.0999 0.13219 0.84456 0.0
H768 H 0.15333 0.0722 0.83582 0.0
H769 H 0.15997 0.06656 0.86179 0.0
H770 H 0.13341 0.15945 0.87331 0.0
H771 H 0.10561 0.16734 0.88342 0.0
H772 H 0.10408 0.16559 0.86424 0.0
H773 H 0.06779 0.13302 0.86596 0.0
H774 H 0.06908 0.13479 0.88516 0.0
H775 H 0.07222 0.10477 0.87633 0.0
H776 H 0.16181 0.0688 0.88883 0.0
H777 H 0.15811 0.07818 0.91464 0.0
H778 H 0.10374 0.13696 0.90514 0.0
C779 C 0.11281 0.11765 0.84807 0.0
C780 C 0.12605 0.10258 0.83817 0.0
C781 C 0.14292 0.08392 0.84323 0.0
C782 C 0.14683 0.0806 0.85795 0.0
C783 C 0.13371 0.09607 0.86741 0.0
C784 C 0.11697 0.11416 0.86265 0.0
C785 C 0.10572 0.12888 0.87492 0.0
C786 C 0.11263 0.15697 0.87391 0.0
C787 C 0.077 0.12513 0.87563 0.0
C788 C 0.11883 0.11636 0.88736 0.0
C789 C 0.13486 0.09745 0.88285 0.0
C790 C 0.14923 0.0835 0.89248 0.0
C791 C 0.14703 0.08899 0.90711 0.0
C792 C 0.13063 0.10829 0.91191 0.0
C793 C 0.11643 0.12208 0.90184 0.0
H794 H 0.65562 0.37743 0.58631 0.0
H795 H 0.62475 0.45284 0.58226 0.0
H796 H 0.62665 0.4579 0.60847 0.0
H797 H 0.62137 0.36039 0.61658 0.0
H798 H 0.64631 0.3424 0.62475 0.0
H799 H 0.64516 0.34571 0.60563 0.0
H800 H 0.69054 0.36379 0.60565 0.0
H801 H 0.69188 0.36044 0.62479 0.0
H802 H 0.69784 0.39065 0.61669 0.0
H803 H 0.62842 0.45335 0.63511 0.0
H804 H 0.63015 0.43966 0.66027 0.0
H805 H 0.6599 0.36721 0.64686 0.0
C806 C 0.64969 0.39521 0.59089 0.0
C807 C 0.64011 0.41479 0.58223 0.0
C808 C 0.63222 0.4376 0.58868 0.0
C809 C 0.63328 0.44068 0.60355 0.0
C810 C 0.64238 0.42081 0.61179 0.0
C811 C 0.65057 0.39856 0.60569 0.0
C812 C 0.65803 0.37954 0.61696 0.0
C813 C 0.64174 0.35561 0.61591 0.0
C814 C 0.68625 0.37324 0.61596 0.0
C815 C 0.65218 0.39434 0.63037 0.0
C816 C 0.64339 0.41818 0.62716 0.0
C817 C 0.63556 0.43485 0.63776 0.0
C818 C 0.63656 0.42686 0.65202 0.0
C819 C 0.64524 0.40239 0.65554 0.0
C820 C 0.65343 0.38611 0.64454 0.0
H821 H 0.36465 0.91659 0.34092 0.0
H822 H 0.29157 0.87989 0.33947 0.0
H823 H 0.28889 0.88226 0.36577 0.0
H824 H 0.3874 0.88456 0.37017 0.0
H825 H 0.40429 0.91074 0.37785 0.0
H826 H 0.39884 0.9096 0.35891 0.0
H827 H 0.37719 0.95333 0.35992 0.0
H828 H 0.38271 0.95468 0.37891 0.0
H829 H 0.3512 0.95831 0.372 0.0
H830 H 0.29659 0.88374 0.39219 0.0
H831 H 0.31375 0.88495 0.41671 0.0
H832 H 0.38159 0.92103 0.40083 0.0
C833 C 0.34779 0.90959 0.34609 0.0
C834 C 0.32829 0.8981 0.33813 0.0
C835 C 0.30672 0.88885 0.34534 0.0
C836 C 0.30499 0.89016 0.36027 0.0
C837 C 0.32488 0.90098 0.36782 0.0
C838 C 0.34578 0.91074 0.36096 0.0
C839 C 0.36546 0.91953 0.37155 0.0
C840 C 0.39046 0.90525 0.3695 0.0
C841 C 0.36936 0.94817 0.37054 0.0
C842 C 0.35278 0.91236 0.38544 0.0
C843 C 0.32926 0.90196 0.38308 0.0
C844 C 0.31478 0.89225 0.3942 0.0
C845 C 0.32473 0.89294 0.40808 0.0
C846 C 0.34895 0.9032 0.41069 0.0
C847 C 0.36287 0.91341 0.39922 0.0
H848 H 0.06194 0.64674 0.05932 0.0
H849 H 0.07874 0.57721 0.03676 0.0
H850 H 0.03329 0.57024 0.03285 0.0
H851 H 0.00574 0.6244 0.077 0.0
H852 H 0.98945 0.65404 0.07536 0.0
H853 H 0.02333 0.65345 0.07649 0.0
H854 H 0.02625 0.67837 0.05275 0.0
H855 H 0.99238 0.67897 0.05152 0.0
H856 H 0.01078 0.66629 0.03702 0.0
H857 H 0.98614 0.57122 0.03096 0.0
H858 H 0.9404 0.57941 0.03188 0.0
H859 H 0.95432 0.64809 0.05586 0.0
C860 C 0.05608 0.63 0.05359 0.0
C861 C 0.07392 0.61254 0.04833 0.0
C862 C 0.06544 0.59086 0.0409 0.0
C863 C 0.03966 0.58674 0.0386 0.0
C864 C 0.02261 0.60441 0.04384 0.0
C865 C 0.03043 0.62555 0.05123 0.0
C866 C 0.00822 0.64161 0.05575 0.0
C867 C 0.00659 0.64347 0.07212 0.0
C868 C 0.00949 0.66786 0.04884 0.0
C869 C 0.98669 0.62624 0.04969 0.0
C870 C 0.9954 0.60488 0.04284 0.0
C871 C 0.97908 0.58785 0.03632 0.0
C872 C 0.95313 0.5927 0.03688 0.0
C873 C 0.94375 0.61438 0.04395 0.0
C874 C 0.96086 0.63134 0.05039 0.0
H875 H 0.61437 0.69047 0.31505 0.0
H876 H 0.65224 0.67725 0.2746 0.0
H877 H 0.65346 0.72304 0.2702 0.0
H878 H 0.57579 0.7422 0.30311 0.0
H879 H 0.57837 0.7593 0.31969 0.0
H880 H 0.58036 0.72543 0.31965 0.0
H881 H 0.62363 0.72782 0.33244 0.0
H882 H 0.62177 0.76169 0.33252 0.0
H883 H 0.64863 0.74624 0.32464 0.0
H884 H 0.65086 0.77015 0.27025 0.0
H885 H 0.64472 0.81552 0.27475 0.0
H886 H 0.60848 0.79809 0.31516 0.0
C887 C 0.62291 0.69717 0.30526 0.0
C888 C 0.6332 0.68024 0.29516 0.0
C889 C 0.64421 0.68983 0.28249 0.0
C890 C 0.645 0.71581 0.27989 0.0
C891 C 0.63468 0.73196 0.29005 0.0
C892 C 0.62384 0.72305 0.30248 0.0
C893 C 0.6142 0.74445 0.31169 0.0
C894 C 0.58547 0.74273 0.31364 0.0
C895 C 0.62788 0.74508 0.32618 0.0
C896 C 0.6214 0.76679 0.30251 0.0
C897 C 0.63316 0.75916 0.29007 0.0
C898 C 0.64165 0.77637 0.27994 0.0
C899 C 0.63806 0.80211 0.2826 0.0
C900 C 0.6261 0.81039 0.2953 0.0
C901 C 0.61765 0.7924 0.30534 0.0
H902 H 0.43681 0.3514 0.56237 0.0
H903 H 0.42126 0.40247 0.52721 0.0
H904 H 0.46684 0.40793 0.52331 0.0
H905 H 0.49099 0.385 0.57595 0.0
H906 H 0.50799 0.35681 0.58065 0.0
H907 H 0.47404 0.35682 0.58074 0.0
H908 H 0.47381 0.31884 0.56334 0.0
H909 H 0.50775 0.31874 0.56317 0.0
H910 H 0.49053 0.32108 0.54662 0.0
H911 H 0.51376 0.4075 0.52289 0.0
H912 H 0.55945 0.40205 0.52638 0.0
H913 H 0.54493 0.35169 0.562 0.0
C914 C 0.44298 0.36374 0.55386 0.0
C915 C 0.42544 0.37646 0.54508 0.0
C916 C 0.43431 0.39252 0.53409 0.0
C917 C 0.46018 0.39574 0.53176 0.0
C918 C 0.47695 0.38287 0.54056 0.0
C919 C 0.46878 0.36727 0.55142 0.0
C920 C 0.49085 0.35577 0.55937 0.0
C921 C 0.49097 0.36411 0.57511 0.0
C922 C 0.49072 0.3269 0.55804 0.0
C923 C 0.51266 0.36727 0.55121 0.0
C924 C 0.50417 0.3828 0.5404 0.0
C925 C 0.52067 0.39543 0.53134 0.0
C926 C 0.5466 0.39217 0.5334 0.0
C927 C 0.55581 0.37644 0.54447 0.0
C928 C 0.53852 0.36385 0.55346 0.0
H929 H 0.8868 0.30836 0.81014 0.0
H930 H 0.82596 0.32482 0.78055 0.0
H931 H 0.81932 0.27925 0.77682 0.0
H932 H 0.91185 0.25507 0.791 0.0
H933 H 0.91945 0.23775 0.80699 0.0
H934 H 0.91941 0.27167 0.80726 0.0
H935 H 0.88763 0.27121 0.82828 0.0
H936 H 0.88753 0.2373 0.82806 0.0
H937 H 0.85832 0.25436 0.82638 0.0
H938 H 0.8189 0.23174 0.77664 0.0
H939 H 0.82538 0.18595 0.77963 0.0
H940 H 0.88677 0.20086 0.80914 0.0
C941 C 0.87211 0.30242 0.80285 0.0
C942 C 0.85689 0.32018 0.79565 0.0
C943 C 0.83787 0.31158 0.78619 0.0
C944 C 0.83394 0.28573 0.78401 0.0
C945 C 0.84921 0.26874 0.79133 0.0
C946 C 0.86796 0.27673 0.80052 0.0
C947 C 0.88178 0.25464 0.80709 0.0
C948 C 0.90978 0.2548 0.80282 0.0
C949 C 0.87862 0.25437 0.82342 0.0
C950 C 0.86785 0.23296 0.80016 0.0
C951 C 0.8491 0.24146 0.79113 0.0
C952 C 0.83357 0.22487 0.78366 0.0
C953 C 0.83738 0.1989 0.78544 0.0
C954 C 0.85661 0.18981 0.79459 0.0
C955 C 0.87197 0.20717 0.80202 0.0
H956 H 0.95406 0.40586 0.96494 0.0
H957 H 0.93031 0.34464 0.93723 0.0
H958 H 0.97466 0.33631 0.93097 0.0
H959 H 0.00474 0.42826 0.94265 0.0
H960 H 0.02521 0.4355 0.95746 0.0
H961 H 0.99152 0.43689 0.95971 0.0
H962 H 0.9945 0.40562 0.98089 0.0
H963 H 0.02819 0.40418 0.97873 0.0
H964 H 0.0098 0.37564 0.97832 0.0
H965 H 0.02149 0.33441 0.92776 0.0
H966 H 0.06778 0.33865 0.92816 0.0
H967 H 0.06119 0.40097 0.95801 0.0
C968 C 0.95816 0.39072 0.95754 0.0
C969 C 0.93866 0.37591 0.95158 0.0
C970 C 0.94488 0.35624 0.94196 0.0
C971 C 0.97003 0.35137 0.93831 0.0
C972 C 0.98877 0.36631 0.94437 0.0
C973 C 0.98318 0.38556 0.9538 0.0
C974 C 0.00692 0.39861 0.95892 0.0
C975 C 0.0071 0.42646 0.95441 0.0
C976 C 0.01003 0.39584 0.97518 0.0
C977 C 0.02671 0.38365 0.95091 0.0
C978 C 0.01582 0.36516 0.94256 0.0
C979 C 0.03025 0.34884 0.93425 0.0
C980 C 0.05654 0.35141 0.93455 0.0
C981 C 0.06815 0.37013 0.94311 0.0
C982 C 0.05292 0.38649 0.95134 0.0
H983 H 0.89499 0.80807 0.19028 0.0
H984 H 0.83665 0.82036 0.22206 0.0
H985 H 0.83394 0.77447 0.22608 0.0
H986 H 0.8686 0.7529 0.175 0.0
H987 H 0.89849 0.73759 0.17211 0.0
H988 H 0.89663 0.77144 0.17221 0.0
H989 H 0.93064 0.77332 0.19206 0.0
H990 H 0.93264 0.73945 0.19201 0.0
H991 H 0.92591 0.75599 0.2084 0.0
H992 H 0.83621 0.72712 0.22581 0.0
H993 H 0.84388 0.68184 0.2216 0.0
H994 H 0.90112 0.70067 0.19023 0.0
C995 C 0.88176 0.80117 0.19817 0.0
C996 C 0.86603 0.81784 0.20586 0.0
C997 C 0.84893 0.80798 0.21605 0.0
C998 C 0.84725 0.78194 0.21841 0.0
C999 C 0.86288 0.76603 0.21055 0.0
C1000 C 0.87988 0.77527 0.20068 0.0
C1001 C 0.89416 0.75414 0.19342 0.0
C1002 C 0.88916 0.75402 0.17723 0.0
C1003 C 0.92252 0.75583 0.19668 0.0
C1004 C 0.88232 0.73155 0.20063 0.0
C1005 C 0.86435 0.7388 0.21049 0.0
C1006 C 0.85036 0.72122 0.21819 0.0
C1007 C 0.85483 0.69555 0.2157 0.0
C1008 C 0.87316 0.6877 0.20563 0.0
C1009 C 0.88713 0.70603 0.19809 0.0
H1010 H 0.4412 0.60548 0.46603 0.0
H1011 H 0.43538 0.64133 0.42447 0.0
H1012 H 0.4815 0.63862 0.42166 0.0
H1013 H 0.49765 0.63703 0.47676 0.0
H1014 H 0.51065 0.61021 0.48598 0.0
H1015 H 0.47701 0.61377 0.48449 0.0
H1016 H 0.47382 0.56959 0.47285 0.0
H1017 H 0.50748 0.5659 0.4743 0.0
H1018 H 0.49228 0.56263 0.45717 0.0
H1019 H 0.52798 0.63262 0.42336 0.0
H1020 H 0.57234 0.62534 0.42988 0.0
H1021 H 0.5486 0.59434 0.47066 0.0
C1022 C 0.44963 0.61259 0.4563 0.0
C1023 C 0.43468 0.62356 0.44544 0.0
C1024 C 0.44644 0.6329 0.43294 0.0
C1025 C 0.47262 0.63137 0.43121 0.0
C1026 C 0.48682 0.62056 0.44212 0.0
C1027 C 0.47581 0.61143 0.45445 0.0
C1028 C 0.49557 0.6016 0.46474 0.0
C1029 C 0.49519 0.61655 0.47883 0.0
C1030 C 0.49208 0.57324 0.46742 0.0
C1031 C 0.51939 0.60678 0.45629 0.0
C1032 C 0.51383 0.61753 0.44323 0.0
C1033 C 0.53259 0.62419 0.43356 0.0
C1034 C 0.55776 0.61996 0.43737 0.0
C1035 C 0.56402 0.60931 0.4508 0.0
C1036 C 0.54447 0.60251 0.46032 0.0
H1037 H 0.59872 0.19615 0.67984 0.0
H1038 H 0.64793 0.18107 0.71592 0.0
H1039 H 0.65229 0.2267 0.72015 0.0
H1040 H 0.63151 0.25049 0.66701 0.0
H1041 H 0.60333 0.26723 0.66196 0.0
H1042 H 0.60363 0.23331 0.66188 0.0
H1043 H 0.56506 0.23269 0.67885 0.0
H1044 H 0.56459 0.26661 0.67896 0.0
H1045 H 0.56652 0.24954 0.69556 0.0
H1046 H 0.65241 0.27385 0.72006 0.0
H1047 H 0.64713 0.3195 0.71616 0.0
H1048 H 0.59724 0.30409 0.68041 0.0
C1049 C 0.61033 0.20242 0.68866 0.0
C1050 C 0.62299 0.18498 0.69754 0.0
C1051 C 0.63802 0.19402 0.70898 0.0
C1052 C 0.64064 0.21992 0.71146 0.0
C1053 C 0.62805 0.23658 0.70247 0.0
C1054 C 0.61309 0.22823 0.69134 0.0
C1055 C 0.60167 0.25014 0.68324 0.0
C1056 C 0.61057 0.25029 0.6676 0.0
C1057 C 0.57274 0.24971 0.68422 0.0
C1058 C 0.61265 0.27209 0.69151 0.0
C1059 C 0.62786 0.26383 0.70253 0.0
C1060 C 0.64045 0.28057 0.71151 0.0
C1061 C 0.63736 0.30646 0.70918 0.0
C1062 C 0.62171 0.3154 0.69801 0.0
C1063 C 0.60921 0.29789 0.68909 0.0
H1064 H 0.35294 0.30787 0.70015 0.0
H1065 H 0.38118 0.32297 0.74286 0.0
H1066 H 0.3828 0.27727 0.74764 0.0
H1067 H 0.31381 0.2544 0.70964 0.0
H1068 H 0.32076 0.23751 0.6934 0.0
H1069 H 0.32109 0.27144 0.69351 0.0
H1070 H 0.36684 0.27116 0.6838 0.0
H1071 H 0.36666 0.23726 0.68367 0.0
H1072 H 0.39084 0.25397 0.69332 0.0
H1073 H 0.38286 0.22996 0.74744 0.0
H1074 H 0.38093 0.18438 0.7424 0.0
H1075 H 0.35218 0.20024 0.6999 0.0
C1076 C 0.35935 0.3016 0.71054 0.0
C1077 C 0.36695 0.31901 0.72114 0.0
C1078 C 0.37524 0.31 0.73458 0.0
C1079 C 0.37622 0.28408 0.73741 0.0
C1080 C 0.36873 0.26745 0.7267 0.0
C1081 C 0.36038 0.27583 0.71355 0.0
C1082 C 0.35384 0.25403 0.70379 0.0
C1083 C 0.3257 0.25437 0.69986 0.0
C1084 C 0.37055 0.25412 0.69036 0.0
C1085 C 0.36007 0.23205 0.71345 0.0
C1086 C 0.36859 0.24019 0.72662 0.0
C1087 C 0.37609 0.22335 0.7372 0.0
C1088 C 0.37495 0.19749 0.73422 0.0
C1089 C 0.36635 0.18872 0.72077 0.0
C1090 C 0.35869 0.20632 0.71032 0.0
H1091 H 0.11334 0.70507 0.19492 0.0
H1092 H 0.15457 0.6795 0.23226 0.0
H1093 H 0.16178 0.72371 0.23941 0.0
H1094 H 0.15322 0.75718 0.18704 0.0
H1095 H 0.12788 0.77738 0.18127 0.0
H1096 H 0.12502 0.74374 0.17945 0.0
H1097 H 0.08348 0.74471 0.19401 0.0
H1098 H 0.0862 0.77837 0.19587 0.0
H1099 H 0.08326 0.75887 0.21153 0.0
H1100 H 0.16517 0.77084 0.24222 0.0
H1101 H 0.16523 0.81724 0.24019 0.0
H1102 H 0.1223 0.81167 0.20081 0.0
C1103 C 0.12372 0.70873 0.20466 0.0
C1104 C 0.13331 0.68882 0.21306 0.0
C1105 C 0.14701 0.69445 0.22566 0.0
C1106 C 0.15118 0.7195 0.22983 0.0
C1107 C 0.14157 0.73868 0.22126 0.0
C1108 C 0.12816 0.73358 0.20893 0.0
C1109 C 0.1205 0.75759 0.20137 0.0
C1110 C 0.13237 0.75905 0.1864 0.0
C1111 C 0.09165 0.76002 0.20066 0.0
C1112 C 0.13181 0.77699 0.21134 0.0
C1113 C 0.14377 0.76574 0.22279 0.0
C1114 C 0.15581 0.77987 0.23332 0.0
C1115 C 0.15573 0.80621 0.23208 0.0
C1116 C 0.14378 0.81811 0.22035 0.0
C1117 C 0.1316 0.80319 0.20992 0.0
H1118 H 0.12925 0.20112 0.76603 0.0
H1119 H 0.14692 0.184 0.8103 0.0
H1120 H 0.14949 0.22936 0.81562 0.0
H1121 H 0.17067 0.2557 0.76311 0.0
H1122 H 0.14912 0.27296 0.75191 0.0
H1123 H 0.14945 0.23904 0.7514 0.0
H1124 H 0.10169 0.23829 0.75717 0.0
H1125 H 0.10123 0.27218 0.75775 0.0
H1126 H 0.09029 0.25428 0.77289 0.0
H1127 H 0.14846 0.27627 0.8165 0.0
H1128 H 0.14523 0.32208 0.81267 0.0
H1129 H 0.12876 0.30914 0.76779 0.0
C1130 C 0.13384 0.2069 0.77682 0.0
C1131 C 0.13788 0.18896 0.78774 0.0
C1132 C 0.14379 0.19734 0.80173 0.0
C1133 C 0.14528 0.22309 0.80488 0.0
C1134 C 0.14095 0.24025 0.79392 0.0
C1135 C 0.13551 0.23257 0.78016 0.0
C1136 C 0.13139 0.255 0.77041 0.0
C1137 C 0.15135 0.25571 0.75851 0.0
C1138 C 0.10455 0.25492 0.7642 0.0
C1139 C 0.13504 0.27643 0.78091 0.0
C1140 C 0.14058 0.26746 0.7944 0.0
C1141 C 0.14428 0.28355 0.80596 0.0
C1142 C 0.14233 0.30955 0.80368 0.0
C1143 C 0.13676 0.31923 0.78993 0.0
C1144 C 0.13312 0.30236 0.77842 0.0
H1145 H 0.40099 0.68962 0.28545 0.0
H1146 H 0.32544 0.67579 0.30151 0.0
H1147 H 0.31756 0.72153 0.3022 0.0
H1148 H 0.41352 0.74393 0.30677 0.0
H1149 H 0.43072 0.76029 0.29301 0.0
H1150 H 0.43023 0.72639 0.29327 0.0
H1151 H 0.41321 0.72584 0.26732 0.0
H1152 H 0.41367 0.75977 0.26697 0.0
H1153 H 0.38491 0.74307 0.26307 0.0
H1154 H 0.31807 0.76858 0.30172 0.0
H1155 H 0.327 0.81405 0.30018 0.0
H1156 H 0.40227 0.79754 0.2845 0.0
C1157 C 0.38274 0.69618 0.28904 0.0
C1158 C 0.36383 0.67907 0.29341 0.0
C1159 C 0.34023 0.68849 0.29809 0.0
C1160 C 0.33555 0.71445 0.29852 0.0
C1161 C 0.35462 0.73078 0.29421 0.0
C1162 C 0.37773 0.72206 0.28955 0.0
C1163 C 0.39514 0.74369 0.28577 0.0
C1164 C 0.4188 0.74356 0.29527 0.0
C1165 C 0.40214 0.74305 0.26983 0.0
C1166 C 0.37825 0.76591 0.28917 0.0
C1167 C 0.35493 0.75801 0.29397 0.0
C1168 C 0.33623 0.77501 0.29794 0.0
C1169 C 0.34151 0.80082 0.29703 0.0
C1170 C 0.36534 0.80941 0.29221 0.0
C1171 C 0.38386 0.79162 0.28819 0.0
H1172 H 0.45793 0.10312 0.52379 0.0
H1173 H 0.43035 0.14066 0.56196 0.0
H1174 H 0.47406 0.14805 0.56979 0.0
H1175 H 0.51057 0.07205 0.54076 0.0
H1176 H 0.53125 0.07587 0.52564 0.0
H1177 H 0.49771 0.07352 0.52295 0.0
H1178 H 0.49804 0.11598 0.50931 0.0
H1179 H 0.53157 0.11845 0.51196 0.0
H1180 H 0.51112 0.14353 0.51779 0.0
H1181 H 0.5206 0.15219 0.57331 0.0
H1182 H 0.5671 0.15185 0.57255 0.0
H1183 H 0.56457 0.11087 0.5324 0.0
C1184 C 0.46107 0.1129 0.53379 0.0
C1185 C 0.44068 0.12136 0.54223 0.0
C1186 C 0.44564 0.13398 0.55529 0.0
C1187 C 0.47041 0.1383 0.55984 0.0
C1188 C 0.49006 0.12977 0.55127 0.0
C1189 C 0.48572 0.11724 0.53855 0.0
C1190 C 0.51027 0.10992 0.5314 0.0
C1191 C 0.51258 0.08113 0.53012 0.0
C1192 C 0.5129 0.12274 0.51675 0.0
C1193 C 0.52904 0.12041 0.54206 0.0
C1194 C 0.51697 0.13183 0.55342 0.0
C1195 C 0.5303 0.14323 0.5645 0.0
C1196 C 0.5567 0.14297 0.56396 0.0
C1197 C 0.56949 0.1313 0.55244 0.0
C1198 C 0.55537 0.11983 0.54139 0.0
H1199 H 0.95081 0.86112 0.01892 0.0
H1200 H 0.93492 0.90205 0.0581 0.0
H1201 H 0.9804 0.90952 0.0615 0.0
H1202 H 0.00634 0.83037 0.0314 0.0
H1203 H 0.02272 0.83253 0.01458 0.0
H1204 H 0.98882 0.83124 0.0149 0.0
H1205 H 0.98672 0.87284 0.00047 0.0
H1206 H 0.02064 0.87427 0.00013 0.0
H1207 H 0.00277 0.9004 0.00711 0.0
H1208 H 0.02753 0.91175 0.06099 0.0
H1209 H 0.07327 0.90781 0.05688 0.0
H1210 H 0.05861 0.86526 0.0181 0.0
C1211 C 0.95686 0.87177 0.02818 0.0
C1212 C 0.93927 0.88102 0.03823 0.0
C1213 C 0.94802 0.89476 0.05024 0.0
C1214 C 0.97382 0.89916 0.05226 0.0
C1215 C 0.99065 0.88973 0.04218 0.0
C1216 C 0.98257 0.8763 0.03038 0.0
C1217 C 0.00464 0.86766 0.02136 0.0
C1218 C 0.00569 0.83874 0.02052 0.0
C1219 C 0.00362 0.87951 0.00638 0.0
C1220 C 0.02639 0.87813 0.03 0.0
C1221 C 0.01789 0.89091 0.04192 0.0
C1222 C 0.03443 0.90186 0.05167 0.0
C1223 C 0.06039 0.89951 0.04923 0.0
C1224 C 0.06957 0.88624 0.03716 0.0
C1225 C 0.05224 0.8756 0.0274 0.0
H1226 H 0.46579 0.91331 0.46515 0.0
H1227 H 0.43994 0.85543 0.43577 0.0
H1228 H 0.48399 0.84554 0.4296 0.0
H1229 H 0.51827 0.93486 0.44364 0.0
H1230 H 0.5386 0.94006 0.45879 0.0
H1231 H 0.50496 0.94301 0.46075 0.0
H1232 H 0.50573 0.91028 0.48127 0.0
H1233 H 0.53937 0.90722 0.47937 0.0
H1234 H 0.51954 0.87973 0.47818 0.0
H1235 H 0.53059 0.84121 0.42695 0.0
H1236 H 0.57699 0.84289 0.42786 0.0
H1237 H 0.57284 0.90369 0.45885 0.0
C1238 C 0.46938 0.89862 0.45738 0.0
C1239 C 0.44938 0.88515 0.45095 0.0
C1240 C 0.45491 0.86602 0.44085 0.0
C1241 C 0.47988 0.86026 0.43726 0.0
C1242 C 0.49912 0.8738 0.44383 0.0
C1243 C 0.49422 0.89261 0.45366 0.0
C1244 C 0.51844 0.90408 0.45927 0.0
C1245 C 0.52016 0.93217 0.45537 0.0
C1246 C 0.52091 0.90008 0.47548 0.0
C1247 C 0.53769 0.88867 0.45112 0.0
C1248 C 0.52612 0.87134 0.44227 0.0
C1249 C 0.5399 0.85474 0.4338 0.0
C1250 C 0.56626 0.85584 0.43441 0.0
C1251 C 0.57858 0.87342 0.44342 0.0
C1252 C 0.56401 0.89008 0.45183 0.0
H1253 H 0.04298 0.15746 0.95661 0.0
H1254 H 0.05896 0.08064 0.96968 0.0
H1255 H 0.01335 0.07232 0.97177 0.0
H1256 H 0.98823 0.16724 0.97947 0.0
H1257 H 0.9715 0.18521 0.96617 0.0
H1258 H 0.00545 0.18559 0.96654 0.0
H1259 H 0.00654 0.17107 0.9401 0.0
H1260 H 0.97263 0.17061 0.93966 0.0
H1261 H 0.99016 0.14272 0.93498 0.0
H1262 H 0.96614 0.07182 0.97155 0.0
H1263 H 0.92049 0.07897 0.96868 0.0
H1264 H 0.93524 0.15597 0.95546 0.0
C1265 C 0.03691 0.13898 0.96009 0.0
C1266 C 0.05454 0.11973 0.96305 0.0
C1267 C 0.0458 0.09569 0.96737 0.0
C1268 C 0.01994 0.09079 0.96862 0.0
C1269 C 0.00307 0.11011 0.96548 0.0
C1270 C 0.01117 0.13371 0.9613 0.0
C1271 C 0.98911 0.15083 0.95796 0.0
C1272 C 0.98854 0.17356 0.96814 0.0
C1273 C 0.98965 0.1593 0.94224 0.0
C1274 C 0.96735 0.13309 0.96081 0.0
C1275 C 0.97581 0.10974 0.96521 0.0
C1276 C 0.95927 0.09007 0.96818 0.0
C1277 C 0.93336 0.09432 0.96651 0.0
C1278 C 0.92426 0.11804 0.96187 0.0
C1279 C 0.94157 0.13767 0.95908 0.0
H1280 H 0.1505 0.43558 0.99125 0.0
H1281 H 0.21474 0.4605 0.96627 0.0
H1282 H 0.22215 0.49492 0.98359 0.0
H1283 H 0.12703 0.49458 -0.00078 0.0
H1284 H 0.11699 0.48692 0.01709 0.0
H1285 H 0.11878 0.46262 0.00375 0.0
H1286 H 0.14858 0.43674 0.02007 0.0
H1287 H 0.14686 0.46102 0.03351 0.0
H1288 H 0.17707 0.45101 0.02677 0.0
H1289 H 0.21925 0.52943 0.00204 0.0
H1290 H 0.20666 0.56076 0.02024 0.0
H1291 H 0.14504 0.51217 0.03328 0.0
C1292 C 0.1664 0.448 0.98952 0.0
C1293 C 0.18203 0.4454 0.97741 0.0
C1294 C 0.20257 0.4621 0.97552 0.0
C1295 C 0.20695 0.48166 0.9853 0.0
C1296 C 0.19084 0.48397 0.997 0.0
C1297 C 0.17112 0.46742 -0.0008 0.0
C1298 C 0.15551 0.47485 0.01203 0.0
C1299 C 0.12796 0.48006 0.00776 0.0
C1300 C 0.15712 0.4547 0.02379 0.0
C1301 C 0.16895 0.49871 0.01643 0.0
C1302 C 0.18944 0.50357 0.00774 0.0
C1303 C 0.20353 0.5256 0.00907 0.0
C1304 C 0.1962 0.54329 0.01941 0.0
C1305 C 0.17497 0.53881 0.02823 0.0
C1306 C 0.1616 0.51597 0.02688 0.0
H1307 H 0.75581 0.89923 0.21651 0.0
H1308 H 0.8127 0.94486 0.23751 0.0
H1309 H 0.78111 0.95859 0.2553 0.0
H1310 H 0.70128 0.94151 0.22342 0.0
H1311 H 0.68045 0.91522 0.22642 0.0
H1312 H 0.70649 0.91216 0.21418 0.0
H1313 H 0.72263 0.87335 0.22827 0.0
H1314 H 0.69674 0.87629 0.24052 0.0
H1315 H 0.72863 0.87627 0.24716 0.0
H1316 H 0.74453 0.96336 0.27232 0.0
H1317 H 0.70678 0.95761 0.28743 0.0
H1318 H 0.67436 0.90859 0.25516 0.0
C1319 C 0.76154 0.91258 0.22464 0.0
C1320 C 0.78669 0.92106 0.22559 0.0
C1321 C 0.79349 0.93819 0.23655 0.0
C1322 C 0.77565 0.94617 0.24666 0.0
C1323 C 0.75111 0.93698 0.24559 0.0
C1324 C 0.74405 0.92062 0.23481 0.0
C1325 C 0.71727 0.91154 0.23676 0.0
C1326 C 0.70038 0.92066 0.22446 0.0
C1327 C 0.71628 0.88266 0.23828 0.0
C1328 C 0.71063 0.92457 0.25061 0.0
C1329 C 0.73018 0.93953 0.25544 0.0
C1330 C 0.72895 0.95201 0.26853 0.0
C1331 C 0.70743 0.94864 0.27704 0.0
C1332 C 0.6876 0.93267 0.27247 0.0
C1333 C 0.68909 0.92107 0.25892 0.0
H1334 H 0.33161 0.43557 0.50643 0.0
H1335 H 0.29501 0.47291 0.5421 0.0
H1336 H 0.29403 0.51258 0.52833 0.0
H1337 H 0.37199 0.48379 0.49804 0.0
H1338 H 0.3708 0.4795 0.47895 0.0
H1339 H 0.36502 0.45324 0.49061 0.0
H1340 H 0.32171 0.4456 0.47855 0.0
H1341 H 0.32746 0.47174 0.46671 0.0
H1342 H 0.29928 0.47104 0.47745 0.0
H1343 H 0.30207 0.54925 0.51188 0.0
H1344 H 0.31707 0.57956 0.49375 0.0
H1345 H 0.34846 0.51785 0.46904 0.0
C1346 C 0.32277 0.45189 0.51124 0.0
C1347 C 0.31334 0.45112 0.52534 0.0
C1348 C 0.30225 0.47301 0.53129 0.0
C1349 C 0.3016 0.49563 0.52354 0.0
C1350 C 0.3119 0.49593 0.50985 0.0
C1351 C 0.32202 0.47454 0.50369 0.0
C1352 C 0.33374 0.4802 0.48932 0.0
C1353 C 0.36206 0.47381 0.48924 0.0
C1354 C 0.3197 0.46632 0.47729 0.0
C1355 C 0.3294 0.5083 0.48854 0.0
C1356 C 0.31654 0.51702 0.5004 0.0
C1357 C 0.31179 0.54258 0.50244 0.0
C1358 C 0.32048 0.55966 0.49212 0.0
C1359 C 0.33387 0.55107 0.47996 0.0
C1360 C 0.33807 0.52501 0.47814 0.0
H1361 H 0.75538 0.10393 0.77925 0.0
H1362 H 0.81549 0.05925 0.76062 0.0
H1363 H 0.78631 0.04453 0.74181 0.0
H1364 H 0.70263 0.06028 0.77056 0.0
H1365 H 0.68163 0.08605 0.76663 0.0
H1366 H 0.70612 0.08988 0.7798 0.0
H1367 H 0.72297 0.12883 0.76611 0.0
H1368 H 0.69865 0.1251 0.75292 0.0
H1369 H 0.73125 0.12576 0.74751 0.0
H1370 H 0.75196 0.03867 0.72351 0.0
H1371 H 0.71574 0.043 0.70707 0.0
H1372 H 0.67861 0.09181 0.73776 0.0
C1373 C 0.76228 0.09055 0.77143 0.0
C1374 C 0.78767 0.08265 0.77144 0.0
C1375 C 0.79606 0.0655 0.76085 0.0
C1376 C 0.77961 0.05695 0.75016 0.0
C1377 C 0.75482 0.06563 0.75026 0.0
C1378 C 0.74617 0.08196 0.76068 0.0
C1379 C 0.71948 0.0904 0.75767 0.0
C1380 C 0.7014 0.08109 0.76936 0.0
C1381 C 0.71802 0.11922 0.75595 0.0
C1382 C 0.71475 0.07701 0.74367 0.0
C1383 C 0.73516 0.06246 0.73966 0.0
C1384 C 0.73571 0.0497 0.72664 0.0
C1385 C 0.71507 0.05228 0.71737 0.0
C1386 C 0.69433 0.06772 0.72113 0.0
C1387 C 0.69407 0.07972 0.7346 0.0
H1388 H 0.87478 0.51323 0.02485 0.0
H1389 H 0.81498 0.56258 0.01009 0.0
H1390 H 0.80081 0.52956 0.99325 0.0
H1391 H 0.89042 0.48848 0.99106 0.0
H1392 H 0.89709 0.45722 0.99754 0.0
H1393 H 0.90118 0.48394 0.00914 0.0
H1394 H 0.87114 0.46367 0.02771 0.0
H1395 H 0.86697 0.43684 0.01615 0.0
H1396 H 0.83991 0.45427 0.0223 0.0
H1397 H 0.79443 0.49166 0.9773 0.0
H1398 H 0.79707 0.45255 0.96306 0.0
H1399 H 0.86165 0.42873 0.98815 0.0
C1400 C 0.8585 0.51703 0.01822 0.0
C1401 C 0.8459 0.54043 0.01883 0.0
C1402 C 0.82488 0.54475 0.00982 0.0
C1403 C 0.81667 0.5261 0.00025 0.0
C1404 C 0.8297 0.5033 -0.00017 0.0
C1405 C 0.85018 0.49874 0.00858 0.0
C1406 C 0.86175 0.47324 0.00557 0.0
C1407 C 0.88923 0.47589 0.00053 0.0
C1408 C 0.85982 0.45599 0.01872 0.0
C1409 C 0.84479 0.46425 0.99364 0.0
C1410 C 0.82627 0.48173 0.99056 0.0
C1411 C 0.80877 0.47779 0.97968 0.0
C1412 C 0.81042 0.45551 0.97165 0.0
C1413 C 0.82955 0.43757 0.97449 0.0
C1414 C 0.84675 0.44201 0.98573 0.0
H1415 H 0.23317 0.09628 0.78875 0.0
H1416 H 0.1765 0.07232 0.75816 0.0
H1417 H 0.20989 0.06368 0.74051 0.0
H1418 H 0.26943 0.12947 0.76518 0.0
H1419 H 0.29951 0.12118 0.7728 0.0
H1420 H 0.2718 0.12129 0.78383 0.0
H1421 H 0.28014 0.07484 0.79091 0.0
H1422 H 0.30802 0.07461 0.7799 0.0
H1423 H 0.28376 0.05134 0.77716 0.0
H1424 H 0.24824 0.0638 0.72517 0.0
H1425 H 0.28889 0.07237 0.71332 0.0
H1426 H 0.32081 0.09556 0.75394 0.0
C1427 C 0.22781 0.08856 0.77848 0.0
C1428 C 0.20224 0.08492 0.77485 0.0
C1429 C 0.19598 0.07521 0.7612 0.0
C1430 C 0.21483 0.07013 0.75111 0.0
C1431 C 0.23982 0.07461 0.7549 0.0
C1432 C 0.24638 0.08341 0.76829 0.0
C1433 C 0.27431 0.08903 0.76921 0.0
C1434 C 0.27902 0.11689 0.77297 0.0
C1435 C 0.28732 0.0714 0.77993 0.0
C1436 C 0.28223 0.08312 0.75405 0.0
C1437 C 0.26213 0.07446 0.74602 0.0
C1438 C 0.26425 0.07003 0.7314 0.0
C1439 C 0.28737 0.07504 0.72476 0.0
C1440 C 0.30802 0.08443 0.73274 0.0
C1441 C 0.30552 0.08788 0.74762 0.0
H1442 H 0.64624 0.43303 0.50406 0.0
H1443 H 0.69956 0.46511 0.5342 0.0
H1444 H 0.70337 0.50292 0.51894 0.0
H1445 H 0.67534 0.45867 0.47132 0.0
H1446 H 0.64511 0.46411 0.46309 0.0
H1447 H 0.64902 0.43853 0.47554 0.0
H1448 H 0.61213 0.45603 0.49074 0.0
H1449 H 0.60826 0.48175 0.47845 0.0
H1450 H 0.61346 0.48804 0.49714 0.0
H1451 H 0.69776 0.53891 0.50171 0.0
H1452 H 0.68453 0.56965 0.48341 0.0
H1453 H 0.63494 0.51357 0.46466 0.0
C1454 C 0.65913 0.44775 0.50735 0.0
C1455 C 0.67263 0.44611 0.52033 0.0
C1456 C 0.68912 0.46591 0.52427 0.0
C1457 C 0.69139 0.48745 0.51568 0.0
C1458 C 0.67723 0.48873 0.50315 0.0
C1459 C 0.66161 0.46928 0.49893 0.0
C1460 C 0.64722 0.47583 0.48549 0.0
C1461 C 0.65463 0.45824 0.47313 0.0
C1462 C 0.61858 0.47539 0.48812 0.0
C1463 C 0.65665 0.50232 0.48298 0.0
C1464 C 0.67408 0.50937 0.49321 0.0
C1465 C 0.6844 0.53348 0.49353 0.0
C1466 C 0.67667 0.55083 0.48312 0.0
C1467 C 0.65875 0.54398 0.47258 0.0
C1468 C 0.64884 0.51932 0.47249 0.0
H1469 H 0.23421 0.89634 0.21735 0.0
H1470 H 0.1751 0.94047 0.23737 0.0
H1471 H 0.20503 0.95381 0.25617 0.0
H1472 H 0.25915 0.87252 0.24856 0.0
H1473 H 0.29152 0.8731 0.24273 0.0
H1474 H 0.26662 0.87021 0.22982 0.0
H1475 H 0.28335 0.9096 0.21648 0.0
H1476 H 0.3084 0.9126 0.22938 0.0
H1477 H 0.2875 0.93873 0.2261 0.0
H1478 H 0.2404 0.95884 0.27403 0.0
H1479 H 0.27738 0.95369 0.28983 0.0
H1480 H 0.3126 0.9056 0.25807 0.0
C1481 C 0.22765 0.90928 0.22549 0.0
C1482 C 0.20237 0.91749 0.22585 0.0
C1483 C 0.19444 0.93402 0.23685 0.0
C1484 C 0.21133 0.94178 0.24754 0.0
C1485 C 0.23604 0.93289 0.24701 0.0
C1486 C 0.24416 0.91703 0.23624 0.0
C1487 C 0.27088 0.9082 0.23876 0.0
C1488 C 0.27209 0.8793 0.24005 0.0
C1489 C 0.28858 0.91787 0.22698 0.0
C1490 C 0.2763 0.9209 0.25288 0.0
C1491 C 0.25619 0.93543 0.25737 0.0
C1492 C 0.25638 0.94778 0.27053 0.0
C1493 C 0.27747 0.94475 0.27943 0.0
C1494 C 0.29787 0.92924 0.27519 0.0
C1495 C 0.29738 0.91768 0.2616 0.0
H1496 H 0.65131 0.06683 0.50575 0.0
H1497 H 0.71341 0.04132 0.53226 0.0
H1498 H 0.71842 0.00393 0.51675 0.0
H1499 H 0.62381 0.00817 0.50058 0.0
H1500 H 0.6144 0.01383 0.48236 0.0
H1501 H 0.61761 0.03982 0.49456 0.0
H1502 H 0.6491 0.06144 0.4773 0.0
H1503 H 0.64589 0.03553 0.46498 0.0
H1504 H 0.67665 0.0445 0.4714 0.0
H1505 H 0.71388 0.96747 0.49963 0.0
H1506 H 0.70066 0.93525 0.4821 0.0
H1507 H 0.64167 0.98523 0.46696 0.0
C1508 C 0.66627 0.05364 0.50819 0.0
C1509 C 0.682 0.057 0.52021 0.0
C1510 C 0.7012 0.03917 0.52307 0.0
C1511 C 0.7042 0.0179 0.51432 0.0
C1512 C 0.68798 0.01492 0.50272 0.0
C1513 C 0.66952 0.03242 0.49959 0.0
C1514 C 0.65354 0.02421 0.48705 0.0
C1515 C 0.62571 0.02133 0.4914 0.0
C1516 C 0.65648 0.04251 0.47444 0.0
C1517 C 0.66545 0.999 0.48381 0.0
C1518 C 0.68542 0.99404 0.49287 0.0
C1519 C 0.69848 0.97129 0.49236 0.0
C1520 C 0.69079 0.9531 0.48239 0.0
C1521 C 0.67018 0.95777 0.47313 0.0
C1522 C 0.65763 0.98116 0.47379 0.0
H1523 H 0.18682 0.39724 0.76016 0.0
H1524 H 0.21166 0.46552 0.78147 0.0
H1525 H 0.24899 0.46709 0.76565 0.0
H1526 H 0.24575 0.36944 0.7573 0.0
H1527 H 0.24017 0.35543 0.74004 0.0
H1528 H 0.21415 0.36142 0.75187 0.0
H1529 H 0.19213 0.38796 0.73225 0.0
H1530 H 0.21805 0.38191 0.7203 0.0
H1531 H 0.20878 0.41386 0.72414 0.0
H1532 H 0.28549 0.45888 0.74868 0.0
H1533 H 0.31755 0.44182 0.73207 0.0
H1534 H 0.26814 0.37886 0.72246 0.0
C1535 C 0.19982 0.41282 0.76137 0.0
C1536 C 0.19629 0.4313 0.77203 0.0
C1537 C 0.21393 0.45121 0.77332 0.0
C1538 C 0.23517 0.45226 0.76438 0.0
C1539 C 0.23835 0.43336 0.75419 0.0
C1540 C 0.22102 0.41412 0.7526 0.0
C1541 C 0.22937 0.39521 0.7415 0.0
C1542 C 0.23255 0.36883 0.74808 0.0
C1543 C 0.21099 0.39472 0.7288 0.0
C1544 C 0.25444 0.40644 0.7373 0.0
C1545 C 0.25925 0.42857 0.74459 0.0
C1546 C 0.28179 0.44171 0.74281 0.0
C1547 C 0.29988 0.43186 0.73337 0.0
C1548 C 0.29534 0.40901 0.72597 0.0
C1549 C 0.2722 0.39639 0.72792 0.0
H1550 H 0.84884 0.92825 0.00733 0.0
H1551 H 0.78828 0.95187 0.03549 0.0
H1552 H 0.78088 0.98911 0.02023 0.0
H1553 H 0.87425 0.98729 0.00177 0.0
H1554 H 0.88237 0.98226 0.98329 0.0
H1555 H 0.88064 0.95593 0.99531 0.0
H1556 H 0.84829 0.93407 0.97865 0.0
H1557 H 0.85 0.96034 0.9665 0.0
H1558 H 0.81997 0.95056 0.97358 0.0
H1559 H 0.78357 0.02627 0.00346 0.0
H1560 H 0.79551 0.05961 0.98631 0.0
H1561 H 0.85381 0.01091 0.96911 0.0
C1562 C 0.83366 0.94095 0.01015 0.0
C1563 C 0.81912 0.93713 0.0226 0.0
C1564 C 0.7996 0.95434 0.02597 0.0
C1565 C 0.79523 0.97554 0.01735 0.0
C1566 C 0.81036 0.97906 0.00535 0.0
C1567 C 0.82902 0.96208 0.00168 0.0
C1568 C 0.84384 0.97095 0.98883 0.0
C1569 C 0.87192 0.97431 0.99253 0.0
C1570 C 0.8403 0.95291 0.97614 0.0
C1571 C 0.83116 0.99599 0.98611 0.0
C1572 C 0.81174 0.00028 0.99565 0.0
C1573 C 0.79846 0.02294 0.99579 0.0
C1574 C 0.80541 0.04178 0.98604 0.0
C1575 C 0.82549 0.03781 0.97632 0.0
C1576 C 0.83816 0.01443 0.97626 0.0
H1577 H 0.31137 0.58128 0.26076 0.0
H1578 H 0.27231 0.53791 0.29319 0.0
H1579 H 0.23573 0.53345 0.27703 0.0
H1580 H 0.26134 0.61661 0.25033 0.0
H1581 H 0.26898 0.61745 0.23157 0.0
H1582 H 0.29358 0.61324 0.24453 0.0
H1583 H 0.30745 0.57195 0.232 0.0
H1584 H 0.28292 0.57612 0.21889 0.0
H1585 H 0.28469 0.54729 0.229 0.0
H1586 H 0.20114 0.53982 0.25894 0.0
H1587 H 0.17212 0.55533 0.24024 0.0
H1588 H 0.23445 0.59378 0.21963 0.0
C1589 C 0.29541 0.57025 0.26434 0.0
C1590 C 0.29468 0.55994 0.27823 0.0
C1591 C 0.27334 0.54584 0.28256 0.0
C1592 C 0.25249 0.54319 0.27344 0.0
C1593 C 0.25349 0.5544 0.25998 0.0
C1594 C 0.27458 0.56735 0.25538 0.0
C1595 C 0.27019 0.57967 0.24104 0.0
C1596 C 0.27372 0.60843 0.24194 0.0
C1597 C 0.28733 0.56805 0.22955 0.0
C1598 C 0.24292 0.57268 0.23858 0.0
C1599 C 0.23367 0.5578 0.2495 0.0
C1600 C 0.20831 0.55099 0.25018 0.0
C1601 C 0.19196 0.55996 0.23954 0.0
C1602 C 0.20106 0.57565 0.22844 0.0
C1603 C 0.22697 0.58151 0.22784 0.0
H1604 H 0.38274 0.02441 0.52515 0.0
H1605 H 0.32096 0.07148 0.51056 0.0
H1606 H 0.30881 0.03872 0.49315 0.0
H1607 H 0.39986 0.00105 0.49079 0.0
H1608 H 0.40763 0.96993 0.49709 0.0
H1609 H 0.41075 0.99658 0.50886 0.0
H1610 H 0.38147 0.97483 0.52727 0.0
H1611 H 0.37824 0.94811 0.51554 0.0
H1612 H 0.35059 0.96446 0.5218 0.0
H1613 H 0.30375 0.00119 0.47711 0.0
H1614 H 0.30717 0.96217 0.46288 0.0
H1615 H 0.37276 0.94005 0.48764 0.0
C1616 C 0.36654 0.02777 0.51837 0.0
C1617 C 0.35274 0.05046 0.51925 0.0
C1618 C 0.33182 0.05423 0.51008 0.0
C1619 C 0.32472 0.03572 0.50018 0.0
C1620 C 0.33878 0.01359 0.49957 0.0
C1621 C 0.3593 0.00957 0.50837 0.0
C1622 C 0.37176 0.98453 0.5052 0.0
C1623 C 0.39911 0.98826 0.50018 0.0
C1624 C 0.37042 0.96695 0.51823 0.0
C1625 C 0.35512 0.97518 0.49318 0.0
C1626 C 0.3361 0.99213 0.49016 0.0
C1627 C 0.31854 0.98774 0.47938 0.0
C1628 C 0.32063 0.96551 0.47137 0.0
C1629 C 0.34023 0.94806 0.47414 0.0
C1630 C 0.35754 0.95298 0.48527 0.0
H1631 H 0.68792 0.58737 0.25364 0.0
H1632 H 0.72206 0.53682 0.28451 0.0
H1633 H 0.75971 0.53319 0.26911 0.0
H1634 H 0.71526 0.5576 0.22094 0.0
H1635 H 0.71943 0.5878 0.21248 0.0
H1636 H 0.69372 0.58298 0.22477 0.0
H1637 H 0.70897 0.62112 0.23977 0.0
H1638 H 0.73477 0.62593 0.22765 0.0
H1639 H 0.74085 0.62156 0.24643 0.0
H1640 H 0.79585 0.54011 0.2521 0.0
H1641 H 0.82687 0.55598 0.23459 0.0
H1642 H 0.7686 0.60171 0.21494 0.0
C1643 C 0.703 0.57498 0.25701 0.0
C1644 C 0.70203 0.56235 0.27027 0.0
C1645 C 0.72232 0.54658 0.27435 0.0
C1646 C 0.74377 0.54438 0.26567 0.0
C1647 C 0.74447 0.55783 0.25288 0.0
C1648 C 0.72445 0.57258 0.24849 0.0
C1649 C 0.73065 0.58691 0.23498 0.0
C1650 C 0.71376 0.5783 0.22256 0.0
C1651 C 0.7287 0.61556 0.23736 0.0
C1652 C 0.75764 0.57874 0.23276 0.0
C1653 C 0.76522 0.56171 0.24307 0.0
C1654 C 0.78998 0.55306 0.24382 0.0
C1655 C 0.80749 0.56225 0.23386 0.0
C1656 C 0.80012 0.58 0.22336 0.0
C1657 C 0.77476 0.58791 0.2227 0.0
H1658 H 0.15322 0.9838 0.03346 0.0
H1659 H 0.19476 0.92601 0.01063 0.0
H1660 H 0.20656 0.95716 0.99224 0.0
H1661 H 0.12623 0.01051 0.00411 0.0
H1662 H 0.12758 0.04259 0.01039 0.0
H1663 H 0.12643 0.01715 0.02301 0.0
H1664 H 0.16753 0.0333 0.03488 0.0
H1665 H 0.16878 0.05892 0.02227 0.0
H1666 H 0.19531 0.03796 0.02412 0.0
H1667 H 0.20888 0.99301 0.97477 0.0
H1668 H 0.20049 0.03004 0.9595 0.0
H1669 H 0.1572 0.06392 0.99384 0.0
C1670 C 0.16539 0.97783 0.02482 0.0
C1671 C 0.17315 0.95253 0.02351 0.0
C1672 C 0.18865 0.94535 0.01187 0.0
C1673 C 0.19556 0.96294 0.00141 0.0
C1674 C 0.18697 0.98762 0.00281 0.0
C1675 C 0.17233 0.99508 0.01428 0.0
C1676 C 0.16316 0.02185 0.01254 0.0
C1677 C 0.13414 0.02307 0.0125 0.0
C1678 C 0.17437 0.03902 0.02414 0.0
C1679 C 0.17397 0.02792 0.99801 0.0
C1680 C 0.18809 0.00818 0.99267 0.0
C1681 C 0.19826 0.00877 0.97894 0.0
C1682 C 0.19338 0.02987 0.97034 0.0
C1683 C 0.17819 0.04985 0.97548 0.0
C1684 C 0.16901 0.04904 0.98963 0.0
H1685 H 0.8144 0.40524 0.74273 0.0
H1686 H 0.78397 0.44305 0.78007 0.0
H1687 H 0.74424 0.4508 0.76708 0.0
H1688 H 0.78153 0.44487 0.71525 0.0
H1689 H 0.77662 0.41799 0.70381 0.0
H1690 H 0.80406 0.41945 0.71514 0.0
H1691 H 0.79196 0.37641 0.72625 0.0
H1692 H 0.76446 0.3749 0.71508 0.0
H1693 H 0.76126 0.37256 0.73421 0.0
H1694 H 0.70595 0.44879 0.75139 0.0
H1695 H 0.67251 0.43786 0.7341 0.0
H1696 H 0.72814 0.40146 0.70708 0.0
C1697 C 0.79968 0.41582 0.74805 0.0
C1698 C 0.80232 0.4236 0.7624 0.0
C1699 C 0.78242 0.43699 0.76905 0.0
C1700 C 0.7598 0.44155 0.76175 0.0
C1701 C 0.75748 0.43281 0.74777 0.0
C1702 C 0.77701 0.42046 0.74093 0.0
C1703 C 0.76897 0.41079 0.72642 0.0
C1704 C 0.78367 0.42408 0.71445 0.0
C1705 C 0.77182 0.38197 0.72545 0.0
C1706 C 0.74157 0.41861 0.72642 0.0
C1707 C 0.73537 0.43164 0.73872 0.0
C1708 C 0.71068 0.43904 0.7416 0.0
C1709 C 0.6918 0.43266 0.73174 0.0
C1710 C 0.69772 0.41888 0.71922 0.0
C1711 C 0.72303 0.41226 0.71646 0.0
H1712 H 0.20559 0.80117 0.04994 0.0
H1713 H 0.14777 0.81352 0.0179 0.0
H1714 H 0.14738 0.76803 0.01251 0.0
H1715 H 0.2384 0.74753 0.03149 0.0
H1716 H 0.2438 0.73152 0.04819 0.0
H1717 H 0.24299 0.76546 0.04765 0.0
H1718 H 0.20818 0.76559 0.06707 0.0
H1719 H 0.2088 0.73177 0.06763 0.0
H1720 H 0.1796 0.74796 0.06409 0.0
H1721 H 0.14875 0.72123 0.01301 0.0
H1722 H 0.15125 0.67637 0.01964 0.0
H1723 H 0.20795 0.69428 0.05152 0.0
C1724 C 0.19342 0.79442 0.04148 0.0
C1725 C 0.17684 0.81086 0.03427 0.0
C1726 C 0.1607 0.80123 0.02352 0.0
C1727 C 0.16044 0.77545 0.02033 0.0
C1728 C 0.1765 0.75961 0.02793 0.0
C1729 C 0.1928 0.76872 0.03824 0.0
C1730 C 0.20597 0.74747 0.04602 0.0
C1731 C 0.23449 0.74803 0.04316 0.0
C1732 C 0.20028 0.74825 0.06215 0.0
C1733 C 0.19372 0.72499 0.03891 0.0
C1734 C 0.17714 0.7324 0.02832 0.0
C1735 C 0.16202 0.71515 0.02108 0.0
C1736 C 0.16352 0.68972 0.02497 0.0
C1737 C 0.17987 0.68183 0.03606 0.0
C1738 C 0.19558 0.69967 0.04284 0.0
H1739 H 0.54657 0.89089 0.2852 0.0
H1740 H 0.56205 0.97049 0.29125 0.0
H1741 H 0.51632 0.97939 0.29052 0.0
H1742 H 0.49239 0.89833 0.26127 0.0
H1743 H 0.4759 0.87201 0.26905 0.0
H1744 H 0.50985 0.87239 0.26877 0.0
H1745 H 0.51068 0.86618 0.29624 0.0
H1746 H 0.47679 0.86584 0.29661 0.0
H1747 H 0.49388 0.88801 0.30752 0.0
H1748 H 0.46863 0.97899 0.2909 0.0
H1749 H 0.42314 0.96931 0.29247 0.0
H1750 H 0.43958 0.88996 0.28617 0.0
C1751 C 0.54044 0.91027 0.28617 0.0
C1752 C 0.55791 0.93001 0.28825 0.0
C1753 C 0.54902 0.95506 0.2896 0.0
C1754 C 0.52309 0.96031 0.28918 0.0
C1755 C 0.50637 0.94031 0.28732 0.0
C1756 C 0.51473 0.91581 0.28578 0.0
C1757 C 0.49298 0.89749 0.2847 0.0
C1758 C 0.49277 0.88428 0.27008 0.0
C1759 C 0.49363 0.87826 0.297 0.0
C1760 C 0.47102 0.91543 0.28619 0.0
C1761 C 0.47906 0.94007 0.28756 0.0
C1762 C 0.46212 0.95979 0.28969 0.0
C1763 C 0.43632 0.9541 0.29058 0.0
C1764 C 0.42778 0.92889 0.28941 0.0
C1765 C 0.44544 0.90945 0.287 0.0
H1766 H 0.35406 0.19788 0.52726 0.0
H1767 H 0.27557 0.17758 0.53343 0.0
H1768 H 0.26346 0.22227 0.53068 0.0
H1769 H 0.35305 0.2514 0.54766 0.0
H1770 H 0.37417 0.26942 0.53659 0.0
H1771 H 0.37612 0.23564 0.5367 0.0
H1772 H 0.3701 0.23472 0.50921 0.0
H1773 H 0.36823 0.26862 0.50901 0.0
H1774 H 0.34314 0.25009 0.50137 0.0
H1775 H 0.26072 0.26973 0.53047 0.0
H1776 H 0.26764 0.31561 0.53275 0.0
H1777 H 0.34791 0.30421 0.52655 0.0
C1778 C 0.33424 0.20268 0.52769 0.0
C1779 C 0.31576 0.18422 0.53054 0.0
C1780 C 0.29006 0.19139 0.53119 0.0
C1781 C 0.28299 0.21672 0.52961 0.0
C1782 C 0.30182 0.23455 0.52722 0.0
C1783 C 0.3269 0.22778 0.52613 0.0
C1784 C 0.34376 0.25062 0.52481 0.0
C1785 C 0.36288 0.25183 0.53718 0.0
C1786 C 0.35709 0.25103 0.51023 0.0
C1787 C 0.32437 0.27138 0.5259 0.0
C1788 C 0.30023 0.26181 0.52707 0.0
C1789 C 0.27949 0.27745 0.5293 0.0
C1790 C 0.2836 0.30348 0.53061 0.0
C1791 C 0.30829 0.31353 0.52978 0.0
C1792 C 0.32876 0.29721 0.52707 0.0
H1793 H 0.93909 0.0554 0.80198 0.0
H1794 H 0.92411 0.11057 0.76886 0.0
H1795 H 0.96954 0.11282 0.76346 0.0
H1796 H 0.99223 0.08475 0.81539 0.0
H1797 H 0.00947 0.05636 0.81939 0.0
H1798 H 0.97559 0.0559 0.81917 0.0
H1799 H 0.97623 0.01977 0.80053 0.0
H1800 H 0.0102 0.02006 0.80073 0.0
H1801 H 0.99349 0.02379 0.7841 0.0
H1802 H 0.01634 0.11288 0.76346 0.0
H1803 H 0.06169 0.11125 0.76912 0.0
H1804 H 0.04666 0.05642 0.80245 0.0
C1805 C 0.94533 0.0674 0.79333 0.0
C1806 C 0.92811 0.08266 0.78576 0.0
C1807 C 0.93701 0.09867 0.77477 0.0
C1808 C 0.96275 0.09999 0.77157 0.0
C1809 C 0.97934 0.08518 0.77946 0.0
C1810 C 0.97103 0.06913 0.79009 0.0
C1811 C 0.99298 0.05718 0.79791 0.0
C1812 C 0.99253 0.06397 0.8139 0.0
C1813 C 0.99324 0.02849 0.79568 0.0
C1814 C 0.01487 0.06964 0.79031 0.0
C1815 C 0.00657 0.08542 0.77956 0.0
C1816 C 0.02313 0.10029 0.77169 0.0
C1817 C 0.04884 0.09929 0.77502 0.0
C1818 C 0.05773 0.08363 0.78619 0.0
C1819 C 0.04051 0.06829 0.79372 0.0
H1820 H 0.1804 0.19274 0.93669 0.0
H1821 H 0.15199 0.18146 0.97968 0.0
H1822 H 0.156 0.22702 0.98439 0.0
H1823 H 0.22448 0.24568 0.94514 0.0
H1824 H 0.21711 0.26167 0.92868 0.0
H1825 H 0.21607 0.22776 0.92948 0.0
H1826 H 0.16995 0.22848 0.92036 0.0
H1827 H 0.17081 0.2623 0.91958 0.0
H1828 H 0.14675 0.24672 0.9299 0.0
H1829 H 0.15822 0.27386 0.98351 0.0
H1830 H 0.15725 0.31879 0.97692 0.0
H1831 H 0.18352 0.29976 0.93432 0.0
C1832 C 0.17572 0.19976 0.94723 0.0
C1833 C 0.16608 0.18358 0.95786 0.0
C1834 C 0.1595 0.19355 0.9714 0.0
C1835 C 0.16184 0.21937 0.97419 0.0
C1836 C 0.17082 0.23493 0.96335 0.0
C1837 C 0.17772 0.22552 0.95015 0.0
C1838 C 0.18421 0.24653 0.93986 0.0
C1839 C 0.21213 0.24533 0.93554 0.0
C1840 C 0.16689 0.24597 0.92665 0.0
C1841 C 0.17896 0.26923 0.94918 0.0
C1842 C 0.17172 0.26212 0.96277 0.0
C1843 C 0.16424 0.27969 0.97298 0.0
C1844 C 0.16369 0.30518 0.96911 0.0
C1845 C 0.17035 0.31281 0.95511 0.0
C1846 C 0.17859 0.29458 0.94515 0.0
H1847 H 0.94134 0.88156 0.23237 0.0
H1848 H 0.92623 0.93835 0.20014 0.0
H1849 H 0.97181 0.94702 0.19825 0.0
H1850 H 0.99583 0.91364 0.24934 0.0
H1851 H 0.01232 0.88436 0.25209 0.0
H1852 H 0.97836 0.88498 0.25225 0.0
H1853 H 0.97743 0.85077 0.23248 0.0
H1854 H 0.01131 0.85012 0.23222 0.0
H1855 H 0.99408 0.85619 0.21598 0.0
H1856 H 0.01901 0.94636 0.19802 0.0
H1857 H 0.06436 0.93633 0.19942 0.0
H1858 H 0.04863 0.87993 0.23179 0.0
C1859 C 0.94754 0.89624 0.22516 0.0
C1860 C 0.93021 0.90937 0.21646 0.0
C1861 C 0.93915 0.92811 0.20695 0.0
C1862 C 0.965 0.93323 0.20583 0.0
C1863 C 0.98163 0.91954 0.21434 0.0
C1864 C 0.97326 0.90151 0.22387 0.0
C1865 C 0.9951 0.88804 0.23094 0.0
C1866 C 0.99541 0.89307 0.24711 0.0
C1867 C 0.99443 0.85961 0.2277 0.0
C1868 C 0.01705 0.90078 0.22358 0.0
C1869 C 0.0089 0.9191 0.21417 0.0
C1870 C 0.02565 0.93232 0.20551 0.0
C1871 C 0.05137 0.92644 0.20635 0.0
C1872 C 0.06007 0.90742 0.21575 0.0
C1873 C 0.04264 0.89479 0.22463 0.0
H1874 H 0.36126 0.69741 0.46841 0.0
H1875 H 0.28091 0.68401 0.46405 0.0
H1876 H 0.27309 0.72979 0.46589 0.0
H1877 H 0.35666 0.75135 0.49338 0.0
H1878 H 0.38282 0.76731 0.48509 0.0
H1879 H 0.38166 0.73339 0.48523 0.0
H1880 H 0.386 0.73279 0.45764 0.0
H1881 H 0.38713 0.76663 0.45741 0.0
H1882 H 0.36381 0.75024 0.44693 0.0
H1883 H 0.27461 0.77736 0.46553 0.0
H1884 H 0.2854 0.82243 0.46295 0.0
H1885 H 0.36466 0.80408 0.46781 0.0
C1886 C 0.34195 0.704 0.46813 0.0
C1887 C 0.32169 0.68711 0.46611 0.0
C1888 C 0.29674 0.69658 0.46564 0.0
C1889 C 0.2921 0.72255 0.46671 0.0
C1890 C 0.31259 0.73873 0.46839 0.0
C1891 C 0.337 0.72976 0.46919 0.0
C1892 C 0.35589 0.75105 0.46995 0.0
C1893 C 0.37009 0.75075 0.48427 0.0
C1894 C 0.37427 0.75011 0.45723 0.0
C1895 C 0.33838 0.77344 0.46897 0.0
C1896 C 0.31344 0.76602 0.46825 0.0
C1897 C 0.29404 0.7834 0.46631 0.0
C1898 C 0.30035 0.80896 0.46484 0.0
C1899 C 0.32586 0.81682 0.46523 0.0
C1900 C 0.34496 0.79878 0.46763 0.0
H1901 H 0.4347 0.11117 0.71854 0.0
H1902 H 0.4284 0.04152 0.69448 0.0
H1903 H 0.47445 0.03551 0.69637 0.0
H1904 H 0.48806 0.13287 0.70208 0.0
H1905 H 0.50204 0.14686 0.71774 0.0
H1906 H 0.46839 0.14358 0.71657 0.0
H1907 H 0.46796 0.1186 0.74034 0.0
H1908 H 0.50169 0.12195 0.74166 0.0
H1909 H 0.48758 0.09108 0.74221 0.0
H1910 H 0.52145 0.04019 0.69802 0.0
H1911 H 0.56555 0.05473 0.69965 0.0
H1912 H 0.54088 0.12122 0.72275 0.0
C1913 C 0.44287 0.09431 0.71397 0.0
C1914 C 0.42793 0.07678 0.70638 0.0
C1915 C 0.43944 0.05514 0.7004 0.0
C1916 C 0.46558 0.05155 0.70144 0.0
C1917 C 0.47985 0.06962 0.70862 0.0
C1918 C 0.46884 0.09045 0.71491 0.0
C1919 C 0.48846 0.10824 0.72091 0.0
C1920 C 0.48662 0.13442 0.7139 0.0
C1921 C 0.48629 0.11006 0.73725 0.0
C1922 C 0.5123 0.09468 0.71653 0.0
C1923 C 0.50695 0.07227 0.70962 0.0
C1924 C 0.52588 0.05746 0.70364 0.0
C1925 C 0.55086 0.06593 0.70457 0.0
C1926 C 0.55666 0.08906 0.71139 0.0
C1927 C 0.53711 0.10329 0.71767 0.0
H1928 H 0.85063 0.29337 0.96855 0.0
H1929 H 0.77299 0.31314 0.95917 0.0
H1930 H 0.76095 0.2683 0.96114 0.0
H1931 H 0.85261 0.23996 0.94782 0.0
H1932 H 0.87239 0.22195 0.95967 0.0
H1933 H 0.87414 0.25575 0.95974 0.0
H1934 H 0.86468 0.2564 0.98691 0.0
H1935 H 0.86305 0.22248 0.98695 0.0
H1936 H 0.83693 0.24076 0.99359 0.0
H1937 H 0.75849 0.22077 0.96122 0.0
H1938 H 0.76584 0.17486 0.95961 0.0
H1939 H 0.84511 0.18681 0.96889 0.0
C1940 C 0.83096 0.28842 0.96726 0.0
C1941 C 0.81274 0.30679 0.96375 0.0
C1942 C 0.78727 0.29941 0.96193 0.0
C1943 C 0.78024 0.27399 0.96305 0.0
C1944 C 0.79885 0.25625 0.96611 0.0
C1945 C 0.82366 0.26321 0.9683 0.0
C1946 C 0.84048 0.24046 0.97024 0.0
C1947 C 0.8611 0.23948 0.95868 0.0
C1948 C 0.85195 0.24 0.98532 0.0
C1949 C 0.82143 0.21956 0.96831 0.0
C1950 C 0.79746 0.22897 0.96612 0.0
C1951 C 0.77711 0.21318 0.96315 0.0
C1952 C 0.78148 0.18713 0.96222 0.0
C1953 C 0.80603 0.17721 0.96416 0.0
C1954 C 0.82607 0.19372 0.96749 0.0
H1955 H 0.7053 0.80233 0.43885 0.0
H1956 H 0.66114 0.81874 0.47676 0.0
H1957 H 0.65948 0.77341 0.4824 0.0
H1958 H 0.67155 0.751 0.42829 0.0
H1959 H 0.69779 0.73279 0.42174 0.0
H1960 H 0.69968 0.76657 0.42207 0.0
H1961 H 0.7404 0.76418 0.4373 0.0
H1962 H 0.73875 0.73027 0.43694 0.0
H1963 H 0.74029 0.74665 0.45379 0.0
H1964 H 0.65686 0.72658 0.48188 0.0
H1965 H 0.65426 0.68155 0.47548 0.0
H1966 H 0.70042 0.69549 0.43803 0.0
C1967 C 0.69596 0.79648 0.44858 0.0
C1968 C 0.68344 0.81408 0.45739 0.0
C1969 C 0.67094 0.8056 0.46987 0.0
C1970 C 0.66997 0.77989 0.47319 0.0
C1971 C 0.68177 0.76295 0.46401 0.0
C1972 C 0.69475 0.77089 0.45202 0.0
C1973 C 0.70354 0.74876 0.44312 0.0
C1974 C 0.69246 0.74986 0.42792 0.0
C1975 C 0.73247 0.74739 0.44277 0.0
C1976 C 0.6925 0.7272 0.45162 0.0
C1977 C 0.68034 0.73574 0.46374 0.0
C1978 C 0.66677 0.71958 0.47259 0.0
C1979 C 0.6653 0.69407 0.46883 0.0
C1980 C 0.67727 0.68502 0.45631 0.0
C1981 C 0.69146 0.70176 0.4478 0.0
H1982 H 0.86518 0.68992 0.03327 0.0
H1983 H 0.78537 0.67324 0.02935 0.0
H1984 H 0.7762 0.71883 0.0279 0.0
H1985 H 0.85862 0.74204 0.05582 0.0
H1986 H 0.88412 0.75974 0.04802 0.0
H1987 H 0.88452 0.72588 0.04737 0.0
H1988 H 0.88888 0.72735 0.0198 0.0
H1989 H 0.88857 0.76128 0.02037 0.0
H1990 H 0.8661 0.74466 0.00942 0.0
H1991 H 0.77564 0.76646 0.02865 0.0
H1992 H 0.78372 0.81203 0.03156 0.0
H1993 H 0.86392 0.79693 0.03502 0.0
C1994 C 0.84579 0.69577 0.03188 0.0
C1995 C 0.82599 0.67798 0.03137 0.0
C1996 C 0.80086 0.68651 0.02971 0.0
C1997 C 0.79547 0.71236 0.02886 0.0
C1998 C 0.81543 0.72939 0.02962 0.0
C1999 C 0.84009 0.72141 0.03104 0.0
C2000 C 0.85802 0.74344 0.03239 0.0
C2001 C 0.87214 0.74272 0.04676 0.0
C2002 C 0.87648 0.74422 0.01974 0.0
C2003 C 0.83956 0.76511 0.0318 0.0
C2004 C 0.8151 0.75668 0.03009 0.0
C2005 C 0.79475 0.77328 0.02985 0.0
C2006 C 0.79953 0.79912 0.03153 0.0
C2007 C 0.82445 0.80808 0.03348 0.0
C2008 C 0.84466 0.79076 0.03344 0.0
H2009 H 0.64191 0.30381 0.52799 0.0
H2010 H 0.71951 0.32326 0.53769 0.0
H2011 H 0.73133 0.27831 0.53587 0.0
H2012 H 0.63929 0.25035 0.5487 0.0
H2013 H 0.61954 0.23259 0.53669 0.0
H2014 H 0.61806 0.2664 0.53673 0.0
H2015 H 0.6279 0.26712 0.5096 0.0
H2016 H 0.62936 0.2332 0.50946 0.0
H2017 H 0.65567 0.25139 0.50301 0.0
H2018 H 0.73348 0.23072 0.53576 0.0
H2019 H 0.72569 0.18489 0.53745 0.0
H2020 H 0.6467 0.19743 0.52767 0.0
C2021 C 0.66151 0.29875 0.52945 0.0
C2022 C 0.6798 0.31705 0.53296 0.0
C2023 C 0.70519 0.30956 0.53493 0.0
C2024 C 0.71209 0.28409 0.53388 0.0
C2025 C 0.69342 0.26646 0.53072 0.0
C2026 C 0.66868 0.27354 0.52843 0.0
C2027 C 0.65176 0.25094 0.52634 0.0
C2028 C 0.63096 0.25003 0.5378 0.0
C2029 C 0.64052 0.25065 0.5112 0.0
C2030 C 0.67066 0.22995 0.5283 0.0
C2031 C 0.69466 0.23919 0.53063 0.0
C2032 C 0.71484 0.22326 0.53371 0.0
C2033 C 0.71023 0.19727 0.53467 0.0
C2034 C 0.68561 0.18757 0.53265 0.0
C2035 C 0.66579 0.20418 0.52913 0.0
H2036 H 0.93976 0.43252 0.81751 0.0
H2037 H 0.92443 0.41517 0.77302 0.0
H2038 H 0.97005 0.41691 0.76782 0.0
H2039 H 0.99444 0.47469 0.81129 0.0
H2040 H 0.01077 0.46295 0.8268 0.0
H2041 H 0.97681 0.46379 0.82654 0.0
H2042 H 0.97551 0.41606 0.8323 0.0
H2043 H 0.00937 0.41504 0.83252 0.0
H2044 H 0.99203 0.39428 0.82086 0.0
H2045 H 0.01752 0.41623 0.76804 0.0
H2046 H 0.06285 0.41266 0.77372 0.0
H2047 H 0.04672 0.42998 0.81812 0.0
C2048 C 0.94589 0.42965 0.80659 0.0
C2049 C 0.92851 0.42383 0.79565 0.0
C2050 C 0.9374 0.41977 0.78156 0.0
C2051 C 0.96327 0.42079 0.7785 0.0
C2052 C 0.97995 0.426 0.78962 0.0
C2053 C 0.97159 0.43049 0.80337 0.0
C2054 C 0.99338 0.43359 0.81366 0.0
C2055 C 0.99388 0.46035 0.81994 0.0
C2056 C 0.99251 0.41354 0.82552 0.0
C2057 C 0.01532 0.42932 0.80364 0.0
C2058 C 0.00725 0.42534 0.78978 0.0
C2059 C 0.02408 0.41964 0.77882 0.0
C2060 C 0.04979 0.41762 0.78215 0.0
C2061 C 0.05835 0.42107 0.79636 0.0
C2062 C 0.04084 0.4274 0.80714 0.0
H2063 H 0.4475 0.5881 0.32209 0.0
H2064 H 0.42765 0.5779 0.27746 0.0
H2065 H 0.47266 0.57225 0.27151 0.0
H2066 H 0.50113 0.62439 0.31636 0.0
H2067 H 0.5191 0.61098 0.33082 0.0
H2068 H 0.48525 0.61149 0.33173 0.0
H2069 H 0.48466 0.5631 0.33546 0.0
H2070 H 0.51858 0.56245 0.33458 0.0
H2071 H 0.50024 0.54296 0.32271 0.0
H2072 H 0.52019 0.57153 0.27019 0.0
H2073 H 0.56619 0.57585 0.27365 0.0
H2074 H 0.55432 0.58617 0.31918 0.0
C2075 C 0.45253 0.58428 0.31109 0.0
C2076 C 0.43406 0.5834 0.30025 0.0
C2077 C 0.44148 0.57856 0.28597 0.0
C2078 C 0.46699 0.57528 0.28248 0.0
C2079 C 0.48477 0.57668 0.29341 0.0
C2080 C 0.47782 0.58092 0.30744 0.0
C2081 C 0.50058 0.58307 0.31709 0.0
C2082 C 0.50157 0.60902 0.32442 0.0
C2083 C 0.50104 0.56161 0.32811 0.0
C2084 C 0.52147 0.58012 0.30624 0.0
C2085 C 0.51203 0.57618 0.29266 0.0
C2086 C 0.52781 0.57428 0.2808 0.0
C2087 C 0.5539 0.57678 0.28287 0.0
C2088 C 0.56386 0.58127 0.29669 0.0
C2089 C 0.54736 0.58253 0.3085 0.0
H2090 H 0.44125 0.39532 0.71161 0.0
H2091 H 0.42458 0.47341 0.70164 0.0
H2092 H 0.47005 0.48344 0.70291 0.0
H2093 H 0.49422 0.40747 0.73612 0.0
H2094 H 0.5115 0.38043 0.72981 0.0
H2095 H 0.47753 0.38017 0.72965 0.0
H2096 H 0.47796 0.36988 0.70257 0.0
H2097 H 0.51184 0.37016 0.70264 0.0
H2098 H 0.49482 0.3903 0.69051 0.0
H2099 H 0.51772 0.48391 0.70309 0.0
H2100 H 0.56336 0.47476 0.70204 0.0
H2101 H 0.54812 0.39635 0.71196 0.0
C2102 C 0.44705 0.41465 0.70992 0.0
C2103 C 0.42934 0.4336 0.70654 0.0
C2104 C 0.4378 0.45859 0.70429 0.0
C2105 C 0.46358 0.46448 0.70502 0.0
C2106 C 0.48056 0.44519 0.70812 0.0
C2107 C 0.47259 0.42081 0.71061 0.0
C2108 C 0.4946 0.40315 0.71281 0.0
C2109 C 0.49445 0.39216 0.728 0.0
C2110 C 0.49481 0.38215 0.70145 0.0
C2111 C 0.51629 0.42124 0.71076 0.0
C2112 C 0.50787 0.44546 0.70822 0.0
C2113 C 0.52453 0.46508 0.70525 0.0
C2114 C 0.55041 0.45969 0.70466 0.0
C2115 C 0.55933 0.43486 0.70696 0.0
C2116 C 0.54197 0.41558 0.71028 0.0
H2117 H 0.94775 0.60676 0.21321 0.0
H2118 H 0.93291 0.52949 0.20051 0.0
H2119 H 0.97856 0.52036 0.20151 0.0
H2120 H 0.00201 0.615 0.19255 0.0
H2121 H 0.01831 0.63413 0.20551 0.0
H2122 H 0.98441 0.63386 0.20509 0.0
H2123 H 0.98329 0.62082 0.23176 0.0
H2124 H 0.01723 0.62112 0.23229 0.0
H2125 H 0.00025 0.59319 0.23748 0.0
H2126 H 0.02617 0.52065 0.20222 0.0
H2127 H 0.07174 0.53032 0.20265 0.0
H2128 H 0.05478 0.6074 0.21487 0.0
C2129 C 0.954 0.58779 0.21084 0.0
C2130 C 0.93674 0.56882 0.20682 0.0
C2131 C 0.94578 0.54432 0.20366 0.0
C2132 C 0.97166 0.53894 0.20422 0.0
C2133 C 0.98819 0.55823 0.20801 0.0
C2134 C 0.97968 0.58213 0.21133 0.0
C2135 C 0.00131 0.59989 0.21437 0.0
C2136 C 0.00151 0.62201 0.20374 0.0
C2137 C 0.00046 0.6093 0.2299 0.0
C2138 C 0.02338 0.58241 0.21194 0.0
C2139 C 0.01548 0.5584 0.2084 0.0
C2140 C 0.03257 0.53932 0.20513 0.0
C2141 C 0.05841 0.545 0.20538 0.0
C2142 C 0.06684 0.56959 0.20883 0.0
C2143 C 0.049 0.58837 0.21229 0.0
loop_
_geom_bond_atom_site_label_1
_geom_bond_atom_site_label_2
_geom_bond_distance
_geom_bond_site_symmetry_2
_ccdc_geom_bond_type
C0 O1 1.160 . S
C0 O7 1.185 . S
O1 C0 1.160 . S
O2 Zn3 1.899 . S
O2 C10 1.284 . S
Zn3 O2 1.899 . S
Zn3 O4 2.032 . S
Zn3 O7 2.086 . S
Zn3 O12 1.977 . S
O4 Zn3 2.032 . S
O4 C8 1.278 . S
C5 O6 1.203 . S
C5 O12 1.267 . S
O6 C5 1.203 . S
O7 C0 1.185 . S
O7 Zn3 2.086 . S
C8 O4 1.278 . S
C8 O9 1.211 . S
O9 C8 1.211 . S
C10 O2 1.284 . S
C10 O11 1.273 . S
O11 C10 1.273 . S
O12 Zn3 1.977 . S
O12 C5 1.267 . S
C13 O14 1.160 . S
C13 O20 1.185 . S
O14 C13 1.160 . S
O15 Zn16 1.899 . S
O15 C23 1.284 . S
Zn16 O15 1.899 . S
Zn16 O17 2.032 . S
Zn16 O20 2.086 . S
Zn16 O25 1.977 . S
O17 Zn16 2.032 . S
O17 C21 1.278 . S
C18 O19 1.203 . S
C18 O25 1.267 . S
O19 C18 1.203 . S
O20 C13 1.185 . S
O20 Zn16 2.086 . S
C21 O17 1.278 . S
C21 O22 1.211 . S
O22 C21 1.211 . S
C23 O15 1.284 . S
C23 O24 1.273 . S
O24 C23 1.273 . S
O25 Zn16 1.977 . S
O25 C18 1.267 . S
C26 O27 1.160 . S
C26 O33 1.185 . S
O27 C26 1.160 . S
O28 Zn29 1.899 . S
O28 C36 1.284 . S
Zn29 O28 1.899 . S
Zn29 O30 2.032 . S
Zn29 O33 2.086 . S
Zn29 O38 1.977 . S
O30 Zn29 2.032 . S
O30 C34 1.278 . S
C31 O32 1.203 . S
C31 O38 1.267 . S
O32 C31 1.203 . S
O33 C26 1.185 . S
O33 Zn29 2.086 . S
C34 O30 1.278 . S
C34 O35 1.211 . S
O35 C34 1.211 . S
C36 O28 1.284 . S
C36 O37 1.273 . S
O37 C36 1.273 . S
O38 Zn29 1.977 . S
O38 C31 1.267 . S
C39 O40 1.160 . S
C39 O46 1.185 . S
O40 C39 1.160 . S
O41 Zn42 1.899 . S
O41 C49 1.284 . S
Zn42 O41 1.899 . S
Zn42 O43 2.032 . S
Zn42 O46 2.086 . S
Zn42 O51 1.977 . S
O43 Zn42 2.032 . S
O43 C47 1.278 . S
C44 O45 1.203 . S
C44 O51 1.267 . S
O45 C44 1.203 . S
O46 C39 1.185 . S
O46 Zn42 2.086 . S
C47 O43 1.278 . S
C47 O48 1.211 . S
O48 C47 1.211 . S
C49 O41 1.284 . S
C49 O50 1.273 . S
O50 C49 1.273 . S
O51 Zn42 1.977 . S
O51 C44 1.267 . S
C52 O53 1.160 . S
C52 O59 1.185 . S
O53 C52 1.160 . S
O54 Zn55 1.899 . S
O54 C62 1.284 . S
Zn55 O54 1.899 . S
Zn55 O56 2.032 . S
Zn55 O59 2.086 . S
Zn55 O64 1.977 . S
O56 Zn55 2.032 . S
O56 C60 1.278 . S
C57 O58 1.203 . S
C57 O64 1.267 . S
O58 C57 1.203 . S
O59 C52 1.185 . S
O59 Zn55 2.086 . S
C60 O56 1.278 . S
C60 O61 1.211 . S
O61 C60 1.211 . S
C62 O54 1.284 . S
C62 O63 1.273 . S
O63 C62 1.273 . S
O64 Zn55 1.977 . S
O64 C57 1.267 . S
C65 O66 1.160 . S
C65 O72 1.185 . S
O66 C65 1.160 . S
O67 Zn68 1.899 . S
O67 C75 1.284 . S
Zn68 O67 1.899 . S
Zn68 O69 2.032 . S
Zn68 O72 2.086 . S
Zn68 O77 1.977 . S
O69 Zn68 2.032 . S
O69 C73 1.278 . S
C70 O71 1.203 . S
C70 O77 1.267 . S
O71 C70 1.203 . S
O72 C65 1.185 . S
O72 Zn68 2.086 . S
C73 O69 1.278 . S
C73 O74 1.211 . S
O74 C73 1.211 . S
C75 O67 1.284 . S
C75 O76 1.273 . S
O76 C75 1.273 . S
O77 Zn68 1.977 . S
O77 C70 1.267 . S
C78 O79 1.160 . S
C78 O85 1.185 . S
O79 C78 1.160 . S
O80 Zn81 1.899 . S
O80 C88 1.284 . S
Zn81 O80 1.899 . S
Zn81 O82 2.032 . S
Zn81 O85 2.086 . S
Zn81 O90 1.977 . S
O82 Zn81 2.032 . S
O82 C86 1.278 . S
C83 O84 1.203 . S
C83 O90 1.267 . S
O84 C83 1.203 . S
O85 C78 1.185 . S
O85 Zn81 2.086 . S
C86 O82 1.278 . S
C86 O87 1.211 . S
O87 C86 1.211 . S
C88 O80 1.284 . S
C88 O89 1.273 . S
O89 C88 1.273 . S
O90 Zn81 1.977 . S
O90 C83 1.267 . S
C91 O92 1.160 . S
C91 O98 1.185 . S
O92 C91 1.160 . S
O93 Zn94 1.899 . S
O93 C101 1.284 . S
Zn94 O93 1.899 . S
Zn94 O95 2.032 . S
Zn94 O98 2.086 . S
Zn94 O103 1.977 . S
O95 Zn94 2.032 . S
O95 C99 1.278 . S
C96 O97 1.203 . S
C96 O103 1.267 . S
O97 C96 1.203 . S
O98 C91 1.185 . S
O98 Zn94 2.086 . S
C99 O95 1.278 . S
C99 O100 1.211 . S
O100 C99 1.211 . S
C101 O93 1.284 . S
C101 O102 1.273 . S
O102 C101 1.273 . S
O103 Zn94 1.977 . S
O103 C96 1.267 . S
C104 O105 1.160 . S
C104 O111 1.185 . S
O105 C104 1.160 . S
O106 Zn107 1.899 . S
O106 C114 1.284 . S
Zn107 O106 1.899 . S
Zn107 O108 2.032 . S
Zn107 O111 2.086 . S
Zn107 O116 1.977 . S
O108 Zn107 2.032 . S
O108 C112 1.278 . S
C109 O110 1.203 . S
C109 O116 1.267 . S
O110 C109 1.203 . S
O111 C104 1.185 . S
O111 Zn107 2.086 . S
C112 O108 1.278 . S
C112 O113 1.211 . S
O113 C112 1.211 . S
C114 O106 1.284 . S
C114 O115 1.273 . S
O115 C114 1.273 . S
O116 Zn107 1.977 . S
O116 C109 1.267 . S
C117 O118 1.160 . S
C117 O124 1.185 . S
O118 C117 1.160 . S
O119 Zn120 1.899 . S
O119 C127 1.284 . S
Zn120 O119 1.899 . S
Zn120 O121 2.032 . S
Zn120 O124 2.086 . S
Zn120 O129 1.977 . S
O121 Zn120 2.032 . S
O121 C125 1.278 . S
C122 O123 1.203 . S
C122 O129 1.267 . S
O123 C122 1.203 . S
O124 C117 1.185 . S
O124 Zn120 2.086 . S
C125 O121 1.278 . S
C125 O126 1.211 . S
O126 C125 1.211 . S
C127 O119 1.284 . S
C127 O128 1.273 . S
O128 C127 1.273 . S
O129 Zn120 1.977 . S
O129 C122 1.267 . S
C130 O131 1.160 . S
C130 O137 1.185 . S
O131 C130 1.160 . S
O132 Zn133 1.899 . S
O132 C140 1.284 . S
Zn133 O132 1.899 . S
Zn133 O134 2.032 . S
Zn133 O137 2.086 . S
Zn133 O142 1.977 . S
O134 Zn133 2.032 . S
O134 C138 1.278 . S
C135 O136 1.203 . S
C135 O142 1.267 . S
O136 C135 1.203 . S
O137 C130 1.185 . S
O137 Zn133 2.086 . S
C138 O134 1.278 . S
C138 O139 1.211 . S
O139 C138 1.211 . S
C140 O132 1.284 . S
C140 O141 1.273 . S
O141 C140 1.273 . S
O142 Zn133 1.977 . S
O142 C135 1.267 . S
C143 O144 1.160 . S
C143 O150 1.185 . S
O144 C143 1.160 . S
O145 Zn146 1.899 . S
O145 C153 1.284 . S
Zn146 O145 1.899 . S
Zn146 O147 2.032 . S
Zn146 O150 2.086 . S
Zn146 O155 1.977 . S
O147 Zn146 2.032 . S
O147 C151 1.278 . S
C148 O149 1.203 . S
C148 O155 1.267 . S
O149 C148 1.203 . S
O150 C143 1.185 . S
O150 Zn146 2.086 . S
C151 O147 1.278 . S
C151 O152 1.211 . S
O152 C151 1.211 . S
C153 O145 1.284 . S
C153 O154 1.273 . S
O154 C153 1.273 . S
O155 Zn146 1.977 . S
O155 C148 1.267 . S
C156 O157 1.160 . S
C156 O163 1.185 . S
O157 C156 1.160 . S
O158 Zn159 1.899 . S
O158 C166 1.284 . S
Zn159 O158 1.899 . S
Zn159 O160 2.032 . S
Zn159 O163 2.086 . S
Zn159 O168 1.977 . S
O160 Zn159 2.032 . S
O160 C164 1.278 . S
C161 O162 1.203 . S
C161 O168 1.267 . S
O162 C161 1.203 . S
O163 C156 1.185 . S
O163 Zn159 2.086 . S
C164 O160 1.278 . S
C164 O165 1.211 . S
O165 C164 1.211 . S
C166 O158 1.284 . S
C166 O167 1.273 . S
O167 C166 1.273 . S
O168 Zn159 1.977 . S
O168 C161 1.267 . S
C169 O170 1.160 . S
C169 O176 1.185 . S
O170 C169 1.160 . S
O171 Zn172 1.899 . S
O171 C179 1.284 . S
Zn172 O171 1.899 . S
Zn172 O173 2.032 . S
Zn172 O176 2.086 . S
Zn172 O181 1.977 . S
O173 Zn172 2.032 . S
O173 C177 1.278 . S
C174 O175 1.203 . S
C174 O181 1.267 . S
O175 C174 1.203 . S
O176 C169 1.185 . S
O176 Zn172 2.086 . S
C177 O173 1.278 . S
C177 O178 1.211 . S
O178 C177 1.211 . S
C179 O171 1.284 . S
C179 O180 1.273 . S
O180 C179 1.273 . S
O181 Zn172 1.977 . S
O181 C174 1.267 . S
C182 O183 1.160 . S
C182 O189 1.185 . S
O183 C182 1.160 . S
O184 Zn185 1.899 . S
O184 C192 1.284 . S
Zn185 O184 1.899 . S
Zn185 O186 2.032 . S
Zn185 O189 2.086 . S
Zn185 O194 1.977 . S
O186 Zn185 2.032 . S
O186 C190 1.278 . S
C187 O188 1.203 . S
C187 O194 1.267 . S
O188 C187 1.203 . S
O189 C182 1.185 . S
O189 Zn185 2.086 . S
C190 O186 1.278 . S
C190 O191 1.211 . S
O191 C190 1.211 . S
C192 O184 1.284 . S
C192 O193 1.273 . S
O193 C192 1.273 . S
O194 Zn185 1.977 . S
O194 C187 1.267 . S
C195 O196 1.160 . S
C195 O202 1.185 . S
O196 C195 1.160 . S
O197 Zn198 1.899 . S
O197 C205 1.284 . S
Zn198 O197 1.899 . S
Zn198 O199 2.032 . S
Zn198 O202 2.086 . S
Zn198 O207 1.977 . S
O199 Zn198 2.032 . S
O199 C203 1.278 . S
C200 O201 1.203 . S
C200 O207 1.267 . S
O201 C200 1.203 . S
O202 C195 1.185 . S
O202 Zn198 2.086 . S
C203 O199 1.278 . S
C203 O204 1.211 . S
O204 C203 1.211 . S
C205 O197 1.284 . S
C205 O206 1.273 . S
O206 C205 1.273 . S
O207 Zn198 1.977 . S
O207 C200 1.267 . S
C208 O209 1.160 . S
C208 O215 1.185 . S
O209 C208 1.160 . S
O210 Zn211 1.899 . S
O210 C218 1.284 . S
Zn211 O210 1.899 . S
Zn211 O212 2.032 . S
Zn211 O215 2.086 . S
Zn211 O220 1.977 . S
O212 Zn211 2.032 . S
O212 C216 1.278 . S
C213 O214 1.203 . S
C213 O220 1.267 . S
O214 C213 1.203 . S
O215 C208 1.185 . S
O215 Zn211 2.086 . S
C216 O212 1.278 . S
C216 O217 1.211 . S
O217 C216 1.211 . S
C218 O210 1.284 . S
C218 O219 1.273 . S
O219 C218 1.273 . S
O220 Zn211 1.977 . S
O220 C213 1.267 . S
C221 O222 1.160 . S
C221 O228 1.185 . S
O222 C221 1.160 . S
O223 Zn224 1.899 . S
O223 C231 1.284 . S
Zn224 O223 1.899 . S
Zn224 O225 2.032 . S
Zn224 O228 2.086 . S
Zn224 O233 1.977 . S
O225 Zn224 2.032 . S
O225 C229 1.278 . S
C226 O227 1.203 . S
C226 O233 1.267 . S
O227 C226 1.203 . S
O228 C221 1.185 . S
O228 Zn224 2.086 . S
C229 O225 1.278 . S
C229 O230 1.211 . S
O230 C229 1.211 . S
C231 O223 1.284 . S
C231 O232 1.273 . S
O232 C231 1.273 . S
O233 Zn224 1.977 . S
O233 C226 1.267 . S
C234 O235 1.160 . S
C234 O241 1.185 . S
O235 C234 1.160 . S
O236 Zn237 1.899 . S
O236 C244 1.284 . S
Zn237 O236 1.899 . S
Zn237 O238 2.032 . S
Zn237 O241 2.086 . S
Zn237 O246 1.977 . S
O238 Zn237 2.032 . S
O238 C242 1.278 . S
C239 O240 1.203 . S
C239 O246 1.267 . S
O240 C239 1.203 . S
O241 C234 1.185 . S
O241 Zn237 2.086 . S
C242 O238 1.278 . S
C242 O243 1.211 . S
O243 C242 1.211 . S
C244 O236 1.284 . S
C244 O245 1.273 . S
O245 C244 1.273 . S
O246 Zn237 1.977 . S
O246 C239 1.267 . S
C247 O248 1.160 . S
C247 O254 1.185 . S
O248 C247 1.160 . S
O249 Zn250 1.899 . S
O249 C257 1.284 . S
Zn250 O249 1.899 . S
Zn250 O251 2.032 . S
Zn250 O254 2.086 . S
Zn250 O259 1.977 . S
O251 Zn250 2.032 . S
O251 C255 1.278 . S
C252 O253 1.203 . S
C252 O259 1.267 . S
O253 C252 1.203 . S
O254 C247 1.185 . S
O254 Zn250 2.086 . S
C255 O251 1.278 . S
C255 O256 1.211 . S
O256 C255 1.211 . S
C257 O249 1.284 . S
C257 O258 1.273 . S
O258 C257 1.273 . S
O259 Zn250 1.977 . S
O259 C252 1.267 . S
C260 O261 1.160 . S
C260 O267 1.185 . S
O261 C260 1.160 . S
O262 Zn263 1.899 . S
O262 C270 1.284 . S
Zn263 O262 1.899 . S
Zn263 O264 2.032 . S
Zn263 O267 2.086 . S
Zn263 O272 1.977 . S
O264 Zn263 2.032 . S
O264 C268 1.278 . S
C265 O266 1.203 . S
C265 O272 1.267 . S
O266 C265 1.203 . S
O267 C260 1.185 . S
O267 Zn263 2.086 . S
C268 O264 1.278 . S
C268 O269 1.211 . S
O269 C268 1.211 . S
C270 O262 1.284 . S
C270 O271 1.273 . S
O271 C270 1.273 . S
O272 Zn263 1.977 . S
O272 C265 1.267 . S
C273 O274 1.160 . S
C273 O280 1.185 . S
O274 C273 1.160 . S
O275 Zn276 1.899 . S
O275 C283 1.284 . S
Zn276 O275 1.899 . S
Zn276 O277 2.032 . S
Zn276 O280 2.086 . S
Zn276 O285 1.977 . S
O277 Zn276 2.032 . S
O277 C281 1.278 . S
C278 O279 1.203 . S
C278 O285 1.267 . S
O279 C278 1.203 . S
O280 C273 1.185 . S
O280 Zn276 2.086 . S
C281 O277 1.278 . S
C281 O282 1.211 . S
O282 C281 1.211 . S
C283 O275 1.284 . S
C283 O284 1.273 . S
O284 C283 1.273 . S
O285 Zn276 1.977 . S
O285 C278 1.267 . S
C286 O287 1.160 . S
C286 O293 1.185 . S
O287 C286 1.160 . S
O288 Zn289 1.899 . S
O288 C296 1.284 . S
Zn289 O288 1.899 . S
Zn289 O290 2.032 . S
Zn289 O293 2.086 . S
Zn289 O298 1.977 . S
O290 Zn289 2.032 . S
O290 C294 1.278 . S
C291 O292 1.203 . S
C291 O298 1.267 . S
O292 C291 1.203 . S
O293 C286 1.185 . S
O293 Zn289 2.086 . S
C294 O290 1.278 . S
C294 O295 1.211 . S
O295 C294 1.211 . S
C296 O288 1.284 . S
C296 O297 1.273 . S
O297 C296 1.273 . S
O298 Zn289 1.977 . S
O298 C291 1.267 . S
C299 O300 1.160 . S
C299 O306 1.185 . S
O300 C299 1.160 . S
O301 Zn302 1.899 . S
O301 C309 1.284 . S
Zn302 O301 1.899 . S
Zn302 O303 2.032 . S
Zn302 O306 2.086 . S
Zn302 O311 1.977 . S
O303 Zn302 2.032 . S
O303 C307 1.278 . S
C304 O305 1.203 . S
C304 O311 1.267 . S
O305 C304 1.203 . S
O306 C299 1.185 . S
O306 Zn302 2.086 . S
C307 O303 1.278 . S
C307 O308 1.211 . S
O308 C307 1.211 . S
C309 O301 1.284 . S
C309 O310 1.273 . S
O310 C309 1.273 . S
O311 Zn302 1.977 . S
O311 C304 1.267 . S
C312 O313 1.160 . S
C312 O319 1.185 . S
O313 C312 1.160 . S
O314 Zn315 1.899 . S
O314 C322 1.284 . S
Zn315 O314 1.899 . S
Zn315 O316 2.032 . S
Zn315 O319 2.086 . S
Zn315 O324 1.977 . S
O316 Zn315 2.032 . S
O316 C320 1.278 . S
C317 O318 1.203 . S
C317 O324 1.267 . S
O318 C317 1.203 . S
O319 C312 1.185 . S
O319 Zn315 2.086 . S
C320 O316 1.278 . S
C320 O321 1.211 . S
O321 C320 1.211 . S
C322 O314 1.284 . S
C322 O323 1.273 . S
O323 C322 1.273 . S
O324 Zn315 1.977 . S
O324 C317 1.267 . S
C325 O326 1.160 . S
C325 O332 1.185 . S
O326 C325 1.160 . S
O327 Zn328 1.899 . S
O327 C335 1.284 . S
Zn328 O327 1.899 . S
Zn328 O329 2.032 . S
Zn328 O332 2.086 . S
Zn328 O337 1.977 . S
O329 Zn328 2.032 . S
O329 C333 1.278 . S
C330 O331 1.203 . S
C330 O337 1.267 . S
O331 C330 1.203 . S
O332 C325 1.185 . S
O332 Zn328 2.086 . S
C333 O329 1.278 . S
C333 O334 1.211 . S
O334 C333 1.211 . S
C335 O327 1.284 . S
C335 O336 1.273 . S
O336 C335 1.273 . S
O337 Zn328 1.977 . S
O337 C330 1.267 . S
C338 O339 1.160 . S
C338 O345 1.185 . S
O339 C338 1.160 . S
O340 Zn341 1.899 . S
O340 C348 1.284 . S
Zn341 O340 1.899 . S
Zn341 O342 2.032 . S
Zn341 O345 2.086 . S
Zn341 O350 1.977 . S
O342 Zn341 2.032 . S
O342 C346 1.278 . S
C343 O344 1.203 . S
C343 O350 1.267 . S
O344 C343 1.203 . S
O345 C338 1.185 . S
O345 Zn341 2.086 . S
C346 O342 1.278 . S
C346 O347 1.211 . S
O347 C346 1.211 . S
C348 O340 1.284 . S
C348 O349 1.273 . S
O349 C348 1.273 . S
O350 Zn341 1.977 . S
O350 C343 1.267 . S
C351 O352 1.160 . S
C351 O358 1.185 . S
O352 C351 1.160 . S
O353 Zn354 1.899 . S
O353 C361 1.284 . S
Zn354 O353 1.899 . S
Zn354 O355 2.032 . S
Zn354 O358 2.086 . S
Zn354 O363 1.977 . S
O355 Zn354 2.032 . S
O355 C359 1.278 . S
C356 O357 1.203 . S
C356 O363 1.267 . S
O357 C356 1.203 . S
O358 C351 1.185 . S
O358 Zn354 2.086 . S
C359 O355 1.278 . S
C359 O360 1.211 . S
O360 C359 1.211 . S
C361 O353 1.284 . S
C361 O362 1.273 . S
O362 C361 1.273 . S
O363 Zn354 1.977 . S
O363 C356 1.267 . S
C364 O365 1.160 . S
C364 O371 1.185 . S
O365 C364 1.160 . S
O366 Zn367 1.899 . S
O366 C374 1.284 . S
Zn367 O366 1.899 . S
Zn367 O368 2.032 . S
Zn367 O371 2.086 . S
Zn367 O376 1.977 . S
O368 Zn367 2.032 . S
O368 C372 1.278 . S
C369 O370 1.203 . S
C369 O376 1.267 . S
O370 C369 1.203 . S
O371 C364 1.185 . S
O371 Zn367 2.086 . S
C372 O368 1.278 . S
C372 O373 1.211 . S
O373 C372 1.211 . S
C374 O366 1.284 . S
C374 O375 1.273 . S
O375 C374 1.273 . S
O376 Zn367 1.977 . S
O376 C369 1.267 . S
C377 O378 1.160 . S
C377 O384 1.185 . S
O378 C377 1.160 . S
O379 Zn380 1.899 . S
O379 C387 1.284 . S
Zn380 O379 1.899 . S
Zn380 O381 2.032 . S
Zn380 O384 2.086 . S
Zn380 O389 1.977 . S
O381 Zn380 2.032 . S
O381 C385 1.278 . S
C382 O383 1.203 . S
C382 O389 1.267 . S
O383 C382 1.203 . S
O384 C377 1.185 . S
O384 Zn380 2.086 . S
C385 O381 1.278 . S
C385 O386 1.211 . S
O386 C385 1.211 . S
C387 O379 1.284 . S
C387 O388 1.273 . S
O388 C387 1.273 . S
O389 Zn380 1.977 . S
O389 C382 1.267 . S
C390 O391 1.160 . S
C390 O397 1.185 . S
O391 C390 1.160 . S
O392 Zn393 1.899 . S
O392 C400 1.284 . S
Zn393 O392 1.899 . S
Zn393 O394 2.032 . S
Zn393 O397 2.086 . S
Zn393 O402 1.977 . S
O394 Zn393 2.032 . S
O394 C398 1.278 . S
C395 O396 1.203 . S
C395 O402 1.267 . S
O396 C395 1.203 . S
O397 C390 1.185 . S
O397 Zn393 2.086 . S
C398 O394 1.278 . S
C398 O399 1.211 . S
O399 C398 1.211 . S
C400 O392 1.284 . S
C400 O401 1.273 . S
O401 C400 1.273 . S
O402 Zn393 1.977 . S
O402 C395 1.267 . S
C403 O404 1.160 . S
C403 O410 1.185 . S
O404 C403 1.160 . S
O405 Zn406 1.899 . S
O405 C413 1.284 . S
Zn406 O405 1.899 . S
Zn406 O407 2.032 . S
Zn406 O410 2.086 . S
Zn406 O415 1.977 . S
O407 Zn406 2.032 . S
O407 C411 1.278 . S
C408 O409 1.203 . S
C408 O415 1.267 . S
O409 C408 1.203 . S
O410 C403 1.185 . S
O410 Zn406 2.086 . S
C411 O407 1.278 . S
C411 O412 1.211 . S
O412 C411 1.211 . S
C413 O405 1.284 . S
C413 O414 1.273 . S
O414 C413 1.273 . S
O415 Zn406 1.977 . S
O415 C408 1.267 . S
H416 C428 0.930 . S
H417 C430 0.930 . S
H418 C431 0.930 . S
H419 C435 0.959 . S
H420 C435 0.959 . S
H421 C435 0.961 . S
H422 C436 0.960 . S
H423 C436 0.961 . S
H424 C436 0.959 . S
H425 C439 0.929 . S
H426 C440 0.931 . S
H427 C442 0.930 . S
C428 H416 0.930 . S
C428 C429 1.399 . S
C428 C433 1.399 . S
C429 C428 1.399 . S
C429 C430 1.376 . S
C430 H417 0.930 . S
C430 C429 1.376 . S
C430 C431 1.388 . S
C431 H418 0.930 . S
C431 C430 1.388 . S
C431 C432 1.390 . S
C432 C431 1.390 . S
C432 C433 1.394 . S
C432 C438 1.465 . S
C433 C428 1.399 . S
C433 C432 1.394 . S
C433 C434 1.516 . S
C434 C433 1.516 . S
C434 C435 1.502 . S
C434 C436 1.561 . S
C434 C437 1.526 . S
C435 H419 0.959 . S
C435 H420 0.959 . S
C435 H421 0.961 . S
C435 C434 1.502 . S
C436 H422 0.960 . S
C436 H423 0.961 . S
C436 H424 0.959 . S
C436 C434 1.561 . S
C437 C434 1.526 . S
C437 C438 1.396 . S
C437 C442 1.390 . S
C438 C432 1.465 . S
C438 C437 1.396 . S
C438 C439 1.399 . S
C439 H425 0.929 . S
C439 C438 1.399 . S
C439 C440 1.385 . S
C440 H426 0.931 . S
C440 C439 1.385 . S
C440 C441 1.389 . S
C441 C440 1.389 . S
C441 C442 1.387 . S
C442 H427 0.930 . S
C442 C437 1.390 . S
C442 C441 1.387 . S
H443 C455 0.930 . S
H444 C457 0.930 . S
H445 C458 0.930 . S
H446 C462 0.959 . S
H447 C462 0.959 . S
H448 C462 0.961 . S
H449 C463 0.960 . S
H450 C463 0.961 . S
H451 C463 0.959 . S
H452 C466 0.929 . S
H453 C467 0.931 . S
H454 C469 0.930 . S
C455 H443 0.930 . S
C455 C456 1.399 . S
C455 C460 1.399 . S
C456 C455 1.399 . S
C456 C457 1.376 . S
C457 H444 0.930 . S
C457 C456 1.376 . S
C457 C458 1.388 . S
C458 H445 0.930 . S
C458 C457 1.388 . S
C458 C459 1.390 . S
C459 C458 1.390 . S
C459 C460 1.394 . S
C459 C465 1.465 . S
C460 C455 1.399 . S
C460 C459 1.394 . S
C460 C461 1.516 . S
C461 C460 1.516 . S
C461 C462 1.502 . S
C461 C463 1.561 . S
C461 C464 1.526 . S
C462 H446 0.959 . S
C462 H447 0.959 . S
C462 H448 0.961 . S
C462 C461 1.502 . S
C463 H449 0.960 . S
C463 H450 0.961 . S
C463 H451 0.959 . S
C463 C461 1.561 . S
C464 C461 1.526 . S
C464 C465 1.396 . S
C464 C469 1.390 . S
C465 C459 1.465 . S
C465 C464 1.396 . S
C465 C466 1.399 . S
C466 H452 0.929 . S
C466 C465 1.399 . S
C466 C467 1.385 . S
C467 H453 0.931 . S
C467 C466 1.385 . S
C467 C468 1.389 . S
C468 C467 1.389 . S
C468 C469 1.387 . S
C469 H454 0.930 . S
C469 C464 1.390 . S
C469 C468 1.387 . S
H470 C482 0.930 . S
H471 C484 0.930 . S
H472 C485 0.930 . S
H473 C489 0.959 . S
H474 C489 0.959 . S
H475 C489 0.961 . S
H476 C490 0.960 . S
H477 C490 0.961 . S
H478 C490 0.959 . S
H479 C493 0.929 . S
H480 C494 0.931 . S
H481 C496 0.930 . S
C482 H470 0.930 . S
C482 C483 1.399 . S
C482 C487 1.399 . S
C483 C482 1.399 . S
C483 C484 1.376 . S
C484 H471 0.930 . S
C484 C483 1.376 . S
C484 C485 1.388 . S
C485 H472 0.930 . S
C485 C484 1.388 . S
C485 C486 1.390 . S
C486 C485 1.390 . S
C486 C487 1.394 . S
C486 C492 1.465 . S
C487 C482 1.399 . S
C487 C486 1.394 . S
C487 C488 1.516 . S
C488 C487 1.516 . S
C488 C489 1.502 . S
C488 C490 1.561 . S
C488 C491 1.526 . S
C489 H473 0.959 . S
C489 H474 0.959 . S
C489 H475 0.961 . S
C489 C488 1.502 . S
C490 H476 0.960 . S
C490 H477 0.961 . S
C490 H478 0.959 . S
C490 C488 1.561 . S
C491 C488 1.526 . S
C491 C492 1.396 . S
C491 C496 1.390 . S
C492 C486 1.465 . S
C492 C491 1.396 . S
C492 C493 1.399 . S
C493 H479 0.929 . S
C493 C492 1.399 . S
C493 C494 1.385 . S
C494 H480 0.931 . S
C494 C493 1.385 . S
C494 C495 1.389 . S
C495 C494 1.389 . S
C495 C496 1.387 . S
C496 H481 0.930 . S
C496 C491 1.390 . S
C496 C495 1.387 . S
H497 C509 0.930 . S
H498 C511 0.930 . S
H499 C512 0.930 . S
H500 C516 0.959 . S
H501 C516 0.959 . S
H502 C516 0.961 . S
H503 C517 0.960 . S
H504 C517 0.961 . S
H505 C517 0.959 . S
H506 C520 0.929 . S
H507 C521 0.931 . S
H508 C523 0.930 . S
C509 H497 0.930 . S
C509 C510 1.399 . S
C509 C514 1.399 . S
C510 C509 1.399 . S
C510 C511 1.376 . S
C511 H498 0.930 . S
C511 C510 1.376 . S
C511 C512 1.388 . S
C512 H499 0.930 . S
C512 C511 1.388 . S
C512 C513 1.390 . S
C513 C512 1.390 . S
C513 C514 1.394 . S
C513 C519 1.465 . S
C514 C509 1.399 . S
C514 C513 1.394 . S
C514 C515 1.516 . S
C515 C514 1.516 . S
C515 C516 1.502 . S
C515 C517 1.561 . S
C515 C518 1.526 . S
C516 H500 0.959 . S
C516 H501 0.959 . S
C516 H502 0.961 . S
C516 C515 1.502 . S
C517 H503 0.960 . S
C517 H504 0.961 . S
C517 H505 0.959 . S
C517 C515 1.561 . S
C518 C515 1.526 . S
C518 C519 1.396 . S
C518 C523 1.390 . S
C519 C513 1.465 . S
C519 C518 1.396 . S
C519 C520 1.399 . S
C520 H506 0.929 . S
C520 C519 1.399 . S
C520 C521 1.385 . S
C521 H507 0.931 . S
C521 C520 1.385 . S
C521 C522 1.389 . S
C522 C521 1.389 . S
C522 C523 1.387 . S
C523 H508 0.930 . S
C523 C518 1.390 . S
C523 C522 1.387 . S
H524 C536 0.930 . S
H525 C538 0.930 . S
H526 C539 0.930 . S
H527 C543 0.959 . S
H528 C543 0.959 . S
H529 C543 0.961 . S
H530 C544 0.960 . S
H531 C544 0.961 . S
H532 C544 0.959 . S
H533 C547 0.929 . S
H534 C548 0.931 . S
H535 C550 0.930 . S
C536 H524 0.930 . S
C536 C537 1.399 . S
C536 C541 1.399 . S
C537 C536 1.399 . S
C537 C538 1.376 . S
C538 H525 0.930 . S
C538 C537 1.376 . S
C538 C539 1.388 . S
C539 H526 0.930 . S
C539 C538 1.388 . S
C539 C540 1.390 . S
C540 C539 1.390 . S
C540 C541 1.394 . S
C540 C546 1.465 . S
C541 C536 1.399 . S
C541 C540 1.394 . S
C541 C542 1.516 . S
C542 C541 1.516 . S
C542 C543 1.502 . S
C542 C544 1.561 . S
C542 C545 1.526 . S
C543 H527 0.959 . S
C543 H528 0.959 . S
C543 H529 0.961 . S
C543 C542 1.502 . S
C544 H530 0.960 . S
C544 H531 0.961 . S
C544 H532 0.959 . S
C544 C542 1.561 . S
C545 C542 1.526 . S
C545 C546 1.396 . S
C545 C550 1.390 . S
C546 C540 1.465 . S
C546 C545 1.396 . S
C546 C547 1.399 . S
C547 H533 0.929 . S
C547 C546 1.399 . S
C547 C548 1.385 . S
C548 H534 0.931 . S
C548 C547 1.385 . S
C548 C549 1.389 . S
C549 C548 1.389 . S
C549 C550 1.387 . S
C550 H535 0.930 . S
C550 C545 1.390 . S
C550 C549 1.387 . S
H551 C563 0.930 . S
H552 C565 0.930 . S
H553 C566 0.930 . S
H554 C570 0.959 . S
H555 C570 0.959 . S
H556 C570 0.961 . S
H557 C571 0.960 . S
H558 C571 0.961 . S
H559 C571 0.959 . S
H560 C574 0.929 . S
H561 C575 0.931 . S
H562 C577 0.930 . S
C563 H551 0.930 . S
C563 C564 1.399 . S
C563 C568 1.399 . S
C564 C563 1.399 . S
C564 C565 1.376 . S
C565 H552 0.930 . S
C565 C564 1.376 . S
C565 C566 1.388 . S
C566 H553 0.930 . S
C566 C565 1.388 . S
C566 C567 1.390 . S
C567 C566 1.390 . S
C567 C568 1.394 . S
C567 C573 1.465 . S
C568 C563 1.399 . S
C568 C567 1.394 . S
C568 C569 1.516 . S
C569 C568 1.516 . S
C569 C570 1.502 . S
C569 C571 1.561 . S
C569 C572 1.526 . S
C570 H554 0.959 . S
C570 H555 0.959 . S
C570 H556 0.961 . S
C570 C569 1.502 . S
C571 H557 0.960 . S
C571 H558 0.961 . S
C571 H559 0.959 . S
C571 C569 1.561 . S
C572 C569 1.526 . S
C572 C573 1.396 . S
C572 C577 1.390 . S
C573 C567 1.465 . S
C573 C572 1.396 . S
C573 C574 1.399 . S
C574 H560 0.929 . S
C574 C573 1.399 . S
C574 C575 1.385 . S
C575 H561 0.931 . S
C575 C574 1.385 . S
C575 C576 1.389 . S
C576 C575 1.389 . S
C576 C577 1.387 . S
C577 H562 0.930 . S
C577 C572 1.390 . S
C577 C576 1.387 . S
H578 C590 0.930 . S
H579 C592 0.930 . S
H580 C593 0.930 . S
H581 C597 0.959 . S
H582 C597 0.959 . S
H583 C597 0.961 . S
H584 C598 0.960 . S
H585 C598 0.961 . S
H586 C598 0.959 . S
H587 C601 0.929 . S
H588 C602 0.931 . S
H589 C604 0.930 . S
C590 H578 0.930 . S
C590 C591 1.399 . S
C590 C595 1.399 . S
C591 C590 1.399 . S
C591 C592 1.376 . S
C592 H579 0.930 . S
C592 C591 1.376 . S
C592 C593 1.388 . S
C593 H580 0.930 . S
C593 C592 1.388 . S
C593 C594 1.390 . S
C594 C593 1.390 . S
C594 C595 1.394 . S
C594 C600 1.465 . S
C595 C590 1.399 . S
C595 C594 1.394 . S
C595 C596 1.516 . S
C596 C595 1.516 . S
C596 C597 1.502 . S
C596 C598 1.561 . S
C596 C599 1.526 . S
C597 H581 0.959 . S
C597 H582 0.959 . S
C597 H583 0.961 . S
C597 C596 1.502 . S
C598 H584 0.960 . S
C598 H585 0.961 . S
C598 H586 0.959 . S
C598 C596 1.561 . S
C599 C596 1.526 . S
C599 C600 1.396 . S
C599 C604 1.390 . S
C600 C594 1.465 . S
C600 C599 1.396 . S
C600 C601 1.399 . S
C601 H587 0.929 . S
C601 C600 1.399 . S
C601 C602 1.385 . S
C602 H588 0.931 . S
C602 C601 1.385 . S
C602 C603 1.389 . S
C603 C602 1.389 . S
C603 C604 1.387 . S
C604 H589 0.930 . S
C604 C599 1.390 . S
C604 C603 1.387 . S
H605 C617 0.930 . S
H606 C619 0.930 . S
H607 C620 0.930 . S
H608 C624 0.959 . S
H609 C624 0.959 . S
H610 C624 0.961 . S
H611 C625 0.960 . S
H612 C625 0.961 . S
H613 C625 0.959 . S
H614 C628 0.929 . S
H615 C629 0.931 . S
H616 C631 0.930 . S
C617 H605 0.930 . S
C617 C618 1.399 . S
C617 C622 1.399 . S
C618 C617 1.399 . S
C618 C619 1.376 . S
C619 H606 0.930 . S
C619 C618 1.376 . S
C619 C620 1.388 . S
C620 H607 0.930 . S
C620 C619 1.388 . S
C620 C621 1.390 . S
C621 C620 1.390 . S
C621 C622 1.394 . S
C621 C627 1.465 . S
C622 C617 1.399 . S
C622 C621 1.394 . S
C622 C623 1.516 . S
C623 C622 1.516 . S
C623 C624 1.502 . S
C623 C625 1.561 . S
C623 C626 1.526 . S
C624 H608 0.959 . S
C624 H609 0.959 . S
C624 H610 0.961 . S
C624 C623 1.502 . S
C625 H611 0.960 . S
C625 H612 0.961 . S
C625 H613 0.959 . S
C625 C623 1.561 . S
C626 C623 1.526 . S
C626 C627 1.396 . S
C626 C631 1.390 . S
C627 C621 1.465 . S
C627 C626 1.396 . S
C627 C628 1.399 . S
C628 H614 0.929 . S
C628 C627 1.399 . S
C628 C629 1.385 . S
C629 H615 0.931 . S
C629 C628 1.385 . S
C629 C630 1.389 . S
C630 C629 1.389 . S
C630 C631 1.387 . S
C631 H616 0.930 . S
C631 C626 1.390 . S
C631 C630 1.387 . S
H632 C644 0.930 . S
H633 C646 0.930 . S
H634 C647 0.930 . S
H635 C651 0.959 . S
H636 C651 0.959 . S
H637 C651 0.961 . S
H638 C652 0.960 . S
H639 C652 0.961 . S
H640 C652 0.959 . S
H641 C655 0.929 . S
H642 C656 0.931 . S
H643 C658 0.930 . S
C644 H632 0.930 . S
C644 C645 1.399 . S
C644 C649 1.399 . S
C645 C644 1.399 . S
C645 C646 1.376 . S
C646 H633 0.930 . S
C646 C645 1.376 . S
C646 C647 1.388 . S
C647 H634 0.930 . S
C647 C646 1.388 . S
C647 C648 1.390 . S
C648 C647 1.390 . S
C648 C649 1.394 . S
C648 C654 1.465 . S
C649 C644 1.399 . S
C649 C648 1.394 . S
C649 C650 1.516 . S
C650 C649 1.516 . S
C650 C651 1.502 . S
C650 C652 1.561 . S
C650 C653 1.526 . S
C651 H635 0.959 . S
C651 H636 0.959 . S
C651 H637 0.961 . S
C651 C650 1.502 . S
C652 H638 0.960 . S
C652 H639 0.961 . S
C652 H640 0.959 . S
C652 C650 1.561 . S
C653 C650 1.526 . S
C653 C654 1.396 . S
C653 C658 1.390 . S
C654 C648 1.465 . S
C654 C653 1.396 . S
C654 C655 1.399 . S
C655 H641 0.929 . S
C655 C654 1.399 . S
C655 C656 1.385 . S
C656 H642 0.931 . S
C656 C655 1.385 . S
C656 C657 1.389 . S
C657 C656 1.389 . S
C657 C658 1.387 . S
C658 H643 0.930 . S
C658 C653 1.390 . S
C658 C657 1.387 . S
H659 C671 0.930 . S
H660 C673 0.930 . S
H661 C674 0.930 . S
H662 C678 0.959 . S
H663 C678 0.959 . S
H664 C678 0.961 . S
H665 C679 0.960 . S
H666 C679 0.961 . S
H667 C679 0.959 . S
H668 C682 0.929 . S
H669 C683 0.931 . S
H670 C685 0.930 . S
C671 H659 0.930 . S
C671 C672 1.399 . S
C671 C676 1.399 . S
C672 C671 1.399 . S
C672 C673 1.376 . S
C673 H660 0.930 . S
C673 C672 1.376 . S
C673 C674 1.388 . S
C674 H661 0.930 . S
C674 C673 1.388 . S
C674 C675 1.390 . S
C675 C674 1.390 . S
C675 C676 1.394 . S
C675 C681 1.465 . S
C676 C671 1.399 . S
C676 C675 1.394 . S
C676 C677 1.516 . S
C677 C676 1.516 . S
C677 C678 1.502 . S
C677 C679 1.561 . S
C677 C680 1.526 . S
C678 H662 0.959 . S
C678 H663 0.959 . S
C678 H664 0.961 . S
C678 C677 1.502 . S
C679 H665 0.960 . S
C679 H666 0.961 . S
C679 H667 0.959 . S
C679 C677 1.561 . S
C680 C677 1.526 . S
C680 C681 1.396 . S
C680 C685 1.390 . S
C681 C675 1.465 . S
C681 C680 1.396 . S
C681 C682 1.399 . S
C682 H668 0.929 . S
C682 C681 1.399 . S
C682 C683 1.385 . S
C683 H669 0.931 . S
C683 C682 1.385 . S
C683 C684 1.389 . S
C684 C683 1.389 . S
C684 C685 1.387 . S
C685 H670 0.930 . S
C685 C680 1.390 . S
C685 C684 1.387 . S
H686 C698 0.930 . S
H687 C700 0.930 . S
H688 C701 0.930 . S
H689 C705 0.959 . S
H690 C705 0.959 . S
H691 C705 0.961 . S
H692 C706 0.960 . S
H693 C706 0.961 . S
H694 C706 0.959 . S
H695 C709 0.929 . S
H696 C710 0.931 . S
H697 C712 0.930 . S
C698 H686 0.930 . S
C698 C699 1.399 . S
C698 C703 1.399 . S
C699 C698 1.399 . S
C699 C700 1.376 . S
C700 H687 0.930 . S
C700 C699 1.376 . S
C700 C701 1.388 . S
C701 H688 0.930 . S
C701 C700 1.388 . S
C701 C702 1.390 . S
C702 C701 1.390 . S
C702 C703 1.394 . S
C702 C708 1.465 . S
C703 C698 1.399 . S
C703 C702 1.394 . S
C703 C704 1.516 . S
C704 C703 1.516 . S
C704 C705 1.502 . S
C704 C706 1.561 . S
C704 C707 1.526 . S
C705 H689 0.959 . S
C705 H690 0.959 . S
C705 H691 0.961 . S
C705 C704 1.502 . S
C706 H692 0.960 . S
C706 H693 0.961 . S
C706 H694 0.959 . S
C706 C704 1.561 . S
C707 C704 1.526 . S
C707 C708 1.396 . S
C707 C712 1.390 . S
C708 C702 1.465 . S
C708 C707 1.396 . S
C708 C709 1.399 . S
C709 H695 0.929 . S
C709 C708 1.399 . S
C709 C710 1.385 . S
C710 H696 0.931 . S
C710 C709 1.385 . S
C710 C711 1.389 . S
C711 C710 1.389 . S
C711 C712 1.387 . S
C712 H697 0.930 . S
C712 C707 1.390 . S
C712 C711 1.387 . S
H713 C725 0.930 . S
H714 C727 0.930 . S
H715 C728 0.930 . S
H716 C732 0.959 . S
H717 C732 0.959 . S
H718 C732 0.961 . S
H719 C733 0.960 . S
H720 C733 0.961 . S
H721 C733 0.959 . S
H722 C736 0.929 . S
H723 C737 0.931 . S
H724 C739 0.930 . S
C725 H713 0.930 . S
C725 C726 1.399 . S
C725 C730 1.399 . S
C726 C725 1.399 . S
C726 C727 1.376 . S
C727 H714 0.930 . S
C727 C726 1.376 . S
C727 C728 1.388 . S
C728 H715 0.930 . S
C728 C727 1.388 . S
C728 C729 1.390 . S
C729 C728 1.390 . S
C729 C730 1.394 . S
C729 C735 1.465 . S
C730 C725 1.399 . S
C730 C729 1.394 . S
C730 C731 1.516 . S
C731 C730 1.516 . S
C731 C732 1.502 . S
C731 C733 1.561 . S
C731 C734 1.526 . S
C732 H716 0.959 . S
C732 H717 0.959 . S
C732 H718 0.961 . S
C732 C731 1.502 . S
C733 H719 0.960 . S
C733 H720 0.961 . S
C733 H721 0.959 . S
C733 C731 1.561 . S
C734 C731 1.526 . S
C734 C735 1.396 . S
C734 C739 1.390 . S
C735 C729 1.465 . S
C735 C734 1.396 . S
C735 C736 1.399 . S
C736 H722 0.929 . S
C736 C735 1.399 . S
C736 C737 1.385 . S
C737 H723 0.931 . S
C737 C736 1.385 . S
C737 C738 1.389 . S
C738 C737 1.389 . S
C738 C739 1.387 . S
C739 H724 0.930 . S
C739 C734 1.390 . S
C739 C738 1.387 . S
H740 C752 0.930 . S
H741 C754 0.930 . S
H742 C755 0.930 . S
H743 C759 0.959 . S
H744 C759 0.959 . S
H745 C759 0.961 . S
H746 C760 0.960 . S
H747 C760 0.961 . S
H748 C760 0.959 . S
H749 C763 0.929 . S
H750 C764 0.931 . S
H751 C766 0.930 . S
C752 H740 0.930 . S
C752 C753 1.399 . S
C752 C757 1.399 . S
C753 C752 1.399 . S
C753 C754 1.376 . S
C754 H741 0.930 . S
C754 C753 1.376 . S
C754 C755 1.388 . S
C755 H742 0.930 . S
C755 C754 1.388 . S
C755 C756 1.390 . S
C756 C755 1.390 . S
C756 C757 1.394 . S
C756 C762 1.465 . S
C757 C752 1.399 . S
C757 C756 1.394 . S
C757 C758 1.516 . S
C758 C757 1.516 . S
C758 C759 1.502 . S
C758 C760 1.561 . S
C758 C761 1.526 . S
C759 H743 0.959 . S
C759 H744 0.959 . S
C759 H745 0.961 . S
C759 C758 1.502 . S
C760 H746 0.960 . S
C760 H747 0.961 . S
C760 H748 0.959 . S
C760 C758 1.561 . S
C761 C758 1.526 . S
C761 C762 1.396 . S
C761 C766 1.390 . S
C762 C756 1.465 . S
C762 C761 1.396 . S
C762 C763 1.399 . S
C763 H749 0.929 . S
C763 C762 1.399 . S
C763 C764 1.385 . S
C764 H750 0.931 . S
C764 C763 1.385 . S
C764 C765 1.389 . S
C765 C764 1.389 . S
C765 C766 1.387 . S
C766 H751 0.930 . S
C766 C761 1.390 . S
C766 C765 1.387 . S
H767 C779 0.930 . S
H768 C781 0.930 . S
H769 C782 0.930 . S
H770 C786 0.959 . S
H771 C786 0.959 . S
H772 C786 0.961 . S
H773 C787 0.960 . S
H774 C787 0.961 . S
H775 C787 0.959 . S
H776 C790 0.929 . S
H777 C791 0.931 . S
H778 C793 0.930 . S
C779 H767 0.930 . S
C779 C780 1.399 . S
C779 C784 1.399 . S
C780 C779 1.399 . S
C780 C781 1.376 . S
C781 H768 0.930 . S
C781 C780 1.376 . S
C781 C782 1.388 . S
C782 H769 0.930 . S
C782 C781 1.388 . S
C782 C783 1.390 . S
C783 C782 1.390 . S
C783 C784 1.394 . S
C783 C789 1.465 . S
C784 C779 1.399 . S
C784 C783 1.394 . S
C784 C785 1.516 . S
C785 C784 1.516 . S
C785 C786 1.502 . S
C785 C787 1.561 . S
C785 C788 1.526 . S
C786 H770 0.959 . S
C786 H771 0.959 . S
C786 H772 0.961 . S
C786 C785 1.502 . S
C787 H773 0.960 . S
C787 H774 0.961 . S
C787 H775 0.959 . S
C787 C785 1.561 . S
C788 C785 1.526 . S
C788 C789 1.396 . S
C788 C793 1.390 . S
C789 C783 1.465 . S
C789 C788 1.396 . S
C789 C790 1.399 . S
C790 H776 0.929 . S
C790 C789 1.399 . S
C790 C791 1.385 . S
C791 H777 0.931 . S
C791 C790 1.385 . S
C791 C792 1.389 . S
C792 C791 1.389 . S
C792 C793 1.387 . S
C793 H778 0.930 . S
C793 C788 1.390 . S
C793 C792 1.387 . S
H794 C806 0.930 . S
H795 C808 0.930 . S
H796 C809 0.930 . S
H797 C813 0.959 . S
H798 C813 0.959 . S
H799 C813 0.961 . S
H800 C814 0.960 . S
H801 C814 0.961 . S
H802 C814 0.959 . S
H803 C817 0.929 . S
H804 C818 0.931 . S
H805 C820 0.930 . S
C806 H794 0.930 . S
C806 C807 1.399 . S
C806 C811 1.399 . S
C807 C806 1.399 . S
C807 C808 1.376 . S
C808 H795 0.930 . S
C808 C807 1.376 . S
C808 C809 1.388 . S
C809 H796 0.930 . S
C809 C808 1.388 . S
C809 C810 1.390 . S
C810 C809 1.390 . S
C810 C811 1.394 . S
C810 C816 1.465 . S
C811 C806 1.399 . S
C811 C810 1.394 . S
C811 C812 1.516 . S
C812 C811 1.516 . S
C812 C813 1.502 . S
C812 C814 1.561 . S
C812 C815 1.526 . S
C813 H797 0.959 . S
C813 H798 0.959 . S
C813 H799 0.961 . S
C813 C812 1.502 . S
C814 H800 0.960 . S
C814 H801 0.961 . S
C814 H802 0.959 . S
C814 C812 1.561 . S
C815 C812 1.526 . S
C815 C816 1.396 . S
C815 C820 1.390 . S
C816 C810 1.465 . S
C816 C815 1.396 . S
C816 C817 1.399 . S
C817 H803 0.929 . S
C817 C816 1.399 . S
C817 C818 1.385 . S
C818 H804 0.931 . S
C818 C817 1.385 . S
C818 C819 1.389 . S
C819 C818 1.389 . S
C819 C820 1.387 . S
C820 H805 0.930 . S
C820 C815 1.390 . S
C820 C819 1.387 . S
H821 C833 0.930 . S
H822 C835 0.930 . S
H823 C836 0.930 . S
H824 C840 0.959 . S
H825 C840 0.959 . S
H826 C840 0.961 . S
H827 C841 0.960 . S
H828 C841 0.961 . S
H829 C841 0.959 . S
H830 C844 0.929 . S
H831 C845 0.931 . S
H832 C847 0.930 . S
C833 H821 0.930 . S
C833 C834 1.399 . S
C833 C838 1.399 . S
C834 C833 1.399 . S
C834 C835 1.376 . S
C835 H822 0.930 . S
C835 C834 1.376 . S
C835 C836 1.388 . S
C836 H823 0.930 . S
C836 C835 1.388 . S
C836 C837 1.390 . S
C837 C836 1.390 . S
C837 C838 1.394 . S
C837 C843 1.465 . S
C838 C833 1.399 . S
C838 C837 1.394 . S
C838 C839 1.516 . S
C839 C838 1.516 . S
C839 C840 1.502 . S
C839 C841 1.561 . S
C839 C842 1.526 . S
C840 H824 0.959 . S
C840 H825 0.959 . S
C840 H826 0.961 . S
C840 C839 1.502 . S
C841 H827 0.960 . S
C841 H828 0.961 . S
C841 H829 0.959 . S
C841 C839 1.561 . S
C842 C839 1.526 . S
C842 C843 1.396 . S
C842 C847 1.390 . S
C843 C837 1.465 . S
C843 C842 1.396 . S
C843 C844 1.399 . S
C844 H830 0.929 . S
C844 C843 1.399 . S
C844 C845 1.385 . S
C845 H831 0.931 . S
C845 C844 1.385 . S
C845 C846 1.389 . S
C846 C845 1.389 . S
C846 C847 1.387 . S
C847 H832 0.930 . S
C847 C842 1.390 . S
C847 C846 1.387 . S
H848 C860 0.930 . S
H849 C862 0.930 . S
H850 C863 0.930 . S
H851 C867 0.962 . S
H852 C867 0.979 . S
H853 C867 0.939 1_455 S
H854 C868 0.957 1_455 S
H855 C868 0.963 . S
H856 C868 0.959 . S
H857 C871 0.929 . S
H858 C872 0.931 . S
H859 C874 0.930 . S
C860 H848 0.930 . S
C860 C861 1.399 . S
C860 C865 1.399 . S
C861 C860 1.399 . S
C861 C862 1.376 . S
C862 H849 0.930 . S
C862 C861 1.376 . S
C862 C863 1.388 . S
C863 H850 0.930 . S
C863 C862 1.388 . S
C863 C864 1.390 . S
C864 C863 1.390 . S
C864 C865 1.394 . S
C864 C870 1.465 1_455 S
C865 C860 1.399 . S
C865 C864 1.394 . S
C865 C866 1.517 1_455 S
C866 C865 1.517 1_655 S
C866 C867 1.502 . S
C866 C868 1.561 . S
C866 C869 1.525 . S
C867 H851 0.962 . S
C867 H852 0.979 . S
C867 H853 0.939 1_655 S
C867 C866 1.502 . S
C868 H854 0.957 1_655 S
C868 H855 0.963 . S
C868 H856 0.959 . S
C868 C866 1.561 . S
C869 C866 1.525 . S
C869 C870 1.396 . S
C869 C874 1.390 . S
C870 C864 1.465 1_655 S
C870 C869 1.396 . S
C870 C871 1.399 . S
C871 H857 0.929 . S
C871 C870 1.399 . S
C871 C872 1.385 . S
C872 H858 0.931 . S
C872 C871 1.385 . S
C872 C873 1.389 . S
C873 C872 1.389 . S
C873 C874 1.387 . S
C874 H859 0.930 . S
C874 C869 1.390 . S
C874 C873 1.387 . S
H875 C887 0.930 . S
H876 C889 0.930 . S
H877 C890 0.930 . S
H878 C894 0.959 . S
H879 C894 0.959 . S
H880 C894 0.961 . S
H881 C895 0.960 . S
H882 C895 0.961 . S
H883 C895 0.959 . S
H884 C898 0.929 . S
H885 C899 0.931 . S
H886 C901 0.930 . S
C887 H875 0.930 . S
C887 C888 1.399 . S
C887 C892 1.399 . S
C888 C887 1.399 . S
C888 C889 1.376 . S
C889 H876 0.930 . S
C889 C888 1.376 . S
C889 C890 1.388 . S
C890 H877 0.930 . S
C890 C889 1.388 . S
C890 C891 1.390 . S
C891 C890 1.390 . S
C891 C892 1.394 . S
C891 C897 1.465 . S
C892 C887 1.399 . S
C892 C891 1.394 . S
C892 C893 1.516 . S
C893 C892 1.516 . S
C893 C894 1.502 . S
C893 C895 1.561 . S
C893 C896 1.526 . S
C894 H878 0.959 . S
C894 H879 0.959 . S
C894 H880 0.961 . S
C894 C893 1.502 . S
C895 H881 0.960 . S
C895 H882 0.961 . S
C895 H883 0.959 . S
C895 C893 1.561 . S
C896 C893 1.526 . S
C896 C897 1.396 . S
C896 C901 1.390 . S
C897 C891 1.465 . S
C897 C896 1.396 . S
C897 C898 1.399 . S
C898 H884 0.929 . S
C898 C897 1.399 . S
C898 C899 1.385 . S
C899 H885 0.931 . S
C899 C898 1.385 . S
C899 C900 1.389 . S
C900 C899 1.389 . S
C900 C901 1.387 . S
C901 H886 0.930 . S
C901 C896 1.390 . S
C901 C900 1.387 . S
H902 C914 0.930 . S
H903 C916 0.930 . S
H904 C917 0.930 . S
H905 C921 0.959 . S
H906 C921 0.959 . S
H907 C921 0.961 . S
H908 C922 0.960 . S
H909 C922 0.961 . S
H910 C922 0.959 . S
H911 C925 0.929 . S
H912 C926 0.931 . S
H913 C928 0.930 . S
C914 H902 0.930 . S
C914 C915 1.399 . S
C914 C919 1.399 . S
C915 C914 1.399 . S
C915 C916 1.376 . S
C916 H903 0.930 . S
C916 C915 1.376 . S
C916 C917 1.388 . S
C917 H904 0.930 . S
C917 C916 1.388 . S
C917 C918 1.390 . S
C918 C917 1.390 . S
C918 C919 1.394 . S
C918 C924 1.465 . S
C919 C914 1.399 . S
C919 C918 1.394 . S
C919 C920 1.516 . S
C920 C919 1.516 . S
C920 C921 1.502 . S
C920 C922 1.561 . S
C920 C923 1.526 . S
C921 H905 0.959 . S
C921 H906 0.959 . S
C921 H907 0.961 . S
C921 C920 1.502 . S
C922 H908 0.960 . S
C922 H909 0.961 . S
C922 H910 0.959 . S
C922 C920 1.561 . S
C923 C920 1.526 . S
C923 C924 1.396 . S
C923 C928 1.390 . S
C924 C918 1.465 . S
C924 C923 1.396 . S
C924 C925 1.399 . S
C925 H911 0.929 . S
C925 C924 1.399 . S
C925 C926 1.385 . S
C926 H912 0.931 . S
C926 C925 1.385 . S
C926 C927 1.389 . S
C927 C926 1.389 . S
C927 C928 1.387 . S
C928 H913 0.930 . S
C928 C923 1.390 . S
C928 C927 1.387 . S
H929 C941 0.930 . S
H930 C943 0.930 . S
H931 C944 0.930 . S
H932 C948 0.959 . S
H933 C948 0.959 . S
H934 C948 0.961 . S
H935 C949 0.960 . S
H936 C949 0.961 . S
H937 C949 0.959 . S
H938 C952 0.929 . S
H939 C953 0.931 . S
H940 C955 0.930 . S
C941 H929 0.930 . S
C941 C942 1.399 . S
C941 C946 1.399 . S
C942 C941 1.399 . S
C942 C943 1.376 . S
C943 H930 0.930 . S
C943 C942 1.376 . S
C943 C944 1.388 . S
C944 H931 0.930 . S
C944 C943 1.388 . S
C944 C945 1.390 . S
C945 C944 1.390 . S
C945 C946 1.394 . S
C945 C951 1.465 . S
C946 C941 1.399 . S
C946 C945 1.394 . S
C946 C947 1.516 . S
C947 C946 1.516 . S
C947 C948 1.502 . S
C947 C949 1.561 . S
C947 C950 1.526 . S
C948 H932 0.959 . S
C948 H933 0.959 . S
C948 H934 0.961 . S
C948 C947 1.502 . S
C949 H935 0.960 . S
C949 H936 0.961 . S
C949 H937 0.959 . S
C949 C947 1.561 . S
C950 C947 1.526 . S
C950 C951 1.396 . S
C950 C955 1.390 . S
C951 C945 1.465 . S
C951 C950 1.396 . S
C951 C952 1.399 . S
C952 H938 0.929 . S
C952 C951 1.399 . S
C952 C953 1.385 . S
C953 H939 0.931 . S
C953 C952 1.385 . S
C953 C954 1.389 . S
C954 C953 1.389 . S
C954 C955 1.387 . S
C955 H940 0.930 . S
C955 C950 1.390 . S
C955 C954 1.387 . S
H956 C968 0.930 . S
H957 C970 0.930 . S
H958 C971 0.930 . S
H959 C975 0.962 . S
H960 C975 0.979 . S
H961 C975 0.939 1_655 S
H962 C976 0.957 1_655 S
H963 C976 0.963 . S
H964 C976 0.959 . S
H965 C979 0.929 . S
H966 C980 0.931 . S
H967 C982 0.930 . S
C968 H956 0.930 . S
C968 C969 1.399 . S
C968 C973 1.399 . S
C969 C968 1.399 . S
C969 C970 1.376 . S
C970 H957 0.930 . S
C970 C969 1.376 . S
C970 C971 1.388 . S
C971 H958 0.930 . S
C971 C970 1.388 . S
C971 C972 1.390 . S
C972 C971 1.390 . S
C972 C973 1.394 . S
C972 C978 1.465 1_655 S
C973 C968 1.399 . S
C973 C972 1.394 . S
C973 C974 1.517 1_655 S
C974 C973 1.517 1_455 S
C974 C975 1.502 . S
C974 C976 1.561 . S
C974 C977 1.525 . S
C975 H959 0.962 . S
C975 H960 0.979 . S
C975 H961 0.939 1_455 S
C975 C974 1.502 . S
C976 H962 0.957 1_455 S
C976 H963 0.963 . S
C976 H964 0.959 . S
C976 C974 1.561 . S
C977 C974 1.525 . S
C977 C978 1.396 . S
C977 C982 1.390 . S
C978 C972 1.465 1_455 S
C978 C977 1.396 . S
C978 C979 1.399 . S
C979 H965 0.929 . S
C979 C978 1.399 . S
C979 C980 1.385 . S
C980 H966 0.931 . S
C980 C979 1.385 . S
C980 C981 1.389 . S
C981 C980 1.389 . S
C981 C982 1.387 . S
C982 H967 0.930 . S
C982 C977 1.390 . S
C982 C981 1.387 . S
H983 C995 0.930 . S
H984 C997 0.930 . S
H985 C998 0.930 . S
H986 C1002 0.959 . S
H987 C1002 0.959 . S
H988 C1002 0.961 . S
H989 C1003 0.960 . S
H990 C1003 0.961 . S
H991 C1003 0.959 . S
H992 C1006 0.929 . S
H993 C1007 0.931 . S
H994 C1009 0.930 . S
C995 H983 0.930 . S
C995 C996 1.399 . S
C995 C1000 1.399 . S
C996 C995 1.399 . S
C996 C997 1.376 . S
C997 H984 0.930 . S
C997 C996 1.376 . S
C997 C998 1.388 . S
C998 H985 0.930 . S
C998 C997 1.388 . S
C998 C999 1.390 . S
C999 C998 1.390 . S
C999 C1000 1.394 . S
C999 C1005 1.465 . S
C1000 C995 1.399 . S
C1000 C999 1.394 . S
C1000 C1001 1.516 . S
C1001 C1000 1.516 . S
C1001 C1002 1.502 . S
C1001 C1003 1.561 . S
C1001 C1004 1.526 . S
C1002 H986 0.959 . S
C1002 H987 0.959 . S
C1002 H988 0.961 . S
C1002 C1001 1.502 . S
C1003 H989 0.960 . S
C1003 H990 0.961 . S
C1003 H991 0.959 . S
C1003 C1001 1.561 . S
C1004 C1001 1.526 . S
C1004 C1005 1.396 . S
C1004 C1009 1.390 . S
C1005 C999 1.465 . S
C1005 C1004 1.396 . S
C1005 C1006 1.399 . S
C1006 H992 0.929 . S
C1006 C1005 1.399 . S
C1006 C1007 1.385 . S
C1007 H993 0.931 . S
C1007 C1006 1.385 . S
C1007 C1008 1.389 . S
C1008 C1007 1.389 . S
C1008 C1009 1.387 . S
C1009 H994 0.930 . S
C1009 C1004 1.390 . S
C1009 C1008 1.387 . S
H1010 C1022 0.930 . S
H1011 C1024 0.930 . S
H1012 C1025 0.930 . S
H1013 C1029 0.959 . S
H1014 C1029 0.959 . S
H1015 C1029 0.961 . S
H1016 C1030 0.960 . S
H1017 C1030 0.961 . S
H1018 C1030 0.959 . S
H1019 C1033 0.929 . S
H1020 C1034 0.931 . S
H1021 C1036 0.930 . S
C1022 H1010 0.930 . S
C1022 C1023 1.399 . S
C1022 C1027 1.399 . S
C1023 C1022 1.399 . S
C1023 C1024 1.376 . S
C1024 H1011 0.930 . S
C1024 C1023 1.376 . S
C1024 C1025 1.388 . S
C1025 H1012 0.930 . S
C1025 C1024 1.388 . S
C1025 C1026 1.390 . S
C1026 C1025 1.390 . S
C1026 C1027 1.394 . S
C1026 C1032 1.465 . S
C1027 C1022 1.399 . S
C1027 C1026 1.394 . S
C1027 C1028 1.516 . S
C1028 C1027 1.516 . S
C1028 C1029 1.502 . S
C1028 C1030 1.561 . S
C1028 C1031 1.526 . S
C1029 H1013 0.959 . S
C1029 H1014 0.959 . S
C1029 H1015 0.961 . S
C1029 C1028 1.502 . S
C1030 H1016 0.960 . S
C1030 H1017 0.961 . S
C1030 H1018 0.959 . S
C1030 C1028 1.561 . S
C1031 C1028 1.526 . S
C1031 C1032 1.396 . S
C1031 C1036 1.390 . S
C1032 C1026 1.465 . S
C1032 C1031 1.396 . S
C1032 C1033 1.399 . S
C1033 H1019 0.929 . S
C1033 C1032 1.399 . S
C1033 C1034 1.385 . S
C1034 H1020 0.931 . S
C1034 C1033 1.385 . S
C1034 C1035 1.389 . S
C1035 C1034 1.389 . S
C1035 C1036 1.387 . S
C1036 H1021 0.930 . S
C1036 C1031 1.390 . S
C1036 C1035 1.387 . S
H1037 C1049 0.930 . S
H1038 C1051 0.930 . S
H1039 C1052 0.930 . S
H1040 C1056 0.959 . S
H1041 C1056 0.959 . S
H1042 C1056 0.961 . S
H1043 C1057 0.960 . S
H1044 C1057 0.961 . S
H1045 C1057 0.959 . S
H1046 C1060 0.929 . S
H1047 C1061 0.931 . S
H1048 C1063 0.930 . S
C1049 H1037 0.930 . S
C1049 C1050 1.399 . S
C1049 C1054 1.399 . S
C1050 C1049 1.399 . S
C1050 C1051 1.376 . S
C1051 H1038 0.930 . S
C1051 C1050 1.376 . S
C1051 C1052 1.388 . S
C1052 H1039 0.930 . S
C1052 C1051 1.388 . S
C1052 C1053 1.390 . S
C1053 C1052 1.390 . S
C1053 C1054 1.394 . S
C1053 C1059 1.465 . S
C1054 C1049 1.399 . S
C1054 C1053 1.394 . S
C1054 C1055 1.516 . S
C1055 C1054 1.516 . S
C1055 C1056 1.502 . S
C1055 C1057 1.561 . S
C1055 C1058 1.526 . S
C1056 H1040 0.959 . S
C1056 H1041 0.959 . S
C1056 H1042 0.961 . S
C1056 C1055 1.502 . S
C1057 H1043 0.960 . S
C1057 H1044 0.961 . S
C1057 H1045 0.959 . S
C1057 C1055 1.561 . S
C1058 C1055 1.526 . S
C1058 C1059 1.396 . S
C1058 C1063 1.390 . S
C1059 C1053 1.465 . S
C1059 C1058 1.396 . S
C1059 C1060 1.399 . S
C1060 H1046 0.929 . S
C1060 C1059 1.399 . S
C1060 C1061 1.385 . S
C1061 H1047 0.931 . S
C1061 C1060 1.385 . S
C1061 C1062 1.389 . S
C1062 C1061 1.389 . S
C1062 C1063 1.387 . S
C1063 H1048 0.930 . S
C1063 C1058 1.390 . S
C1063 C1062 1.387 . S
H1064 C1076 0.930 . S
H1065 C1078 0.930 . S
H1066 C1079 0.930 . S
H1067 C1083 0.959 . S
H1068 C1083 0.959 . S
H1069 C1083 0.961 . S
H1070 C1084 0.960 . S
H1071 C1084 0.961 . S
H1072 C1084 0.959 . S
H1073 C1087 0.929 . S
H1074 C1088 0.931 . S
H1075 C1090 0.930 . S
C1076 H1064 0.930 . S
C1076 C1077 1.399 . S
C1076 C1081 1.399 . S
C1077 C1076 1.399 . S
C1077 C1078 1.376 . S
C1078 H1065 0.930 . S
C1078 C1077 1.376 . S
C1078 C1079 1.388 . S
C1079 H1066 0.930 . S
C1079 C1078 1.388 . S
C1079 C1080 1.390 . S
C1080 C1079 1.390 . S
C1080 C1081 1.394 . S
C1080 C1086 1.465 . S
C1081 C1076 1.399 . S
C1081 C1080 1.394 . S
C1081 C1082 1.516 . S
C1082 C1081 1.516 . S
C1082 C1083 1.502 . S
C1082 C1084 1.561 . S
C1082 C1085 1.526 . S
C1083 H1067 0.959 . S
C1083 H1068 0.959 . S
C1083 H1069 0.961 . S
C1083 C1082 1.502 . S
C1084 H1070 0.960 . S
C1084 H1071 0.961 . S
C1084 H1072 0.959 . S
C1084 C1082 1.561 . S
C1085 C1082 1.526 . S
C1085 C1086 1.396 . S
C1085 C1090 1.390 . S
C1086 C1080 1.465 . S
C1086 C1085 1.396 . S
C1086 C1087 1.399 . S
C1087 H1073 0.929 . S
C1087 C1086 1.399 . S
C1087 C1088 1.385 . S
C1088 H1074 0.931 . S
C1088 C1087 1.385 . S
C1088 C1089 1.389 . S
C1089 C1088 1.389 . S
C1089 C1090 1.387 . S
C1090 H1075 0.930 . S
C1090 C1085 1.390 . S
C1090 C1089 1.387 . S
H1091 C1103 0.930 . S
H1092 C1105 0.930 . S
H1093 C1106 0.930 . S
H1094 C1110 0.959 . S
H1095 C1110 0.959 . S
H1096 C1110 0.961 . S
H1097 C1111 0.960 . S
H1098 C1111 0.961 . S
H1099 C1111 0.959 . S
H1100 C1114 0.929 . S
H1101 C1115 0.931 . S
H1102 C1117 0.930 . S
C1103 H1091 0.930 . S
C1103 C1104 1.399 . S
C1103 C1108 1.399 . S
C1104 C1103 1.399 . S
C1104 C1105 1.376 . S
C1105 H1092 0.930 . S
C1105 C1104 1.376 . S
C1105 C1106 1.388 . S
C1106 H1093 0.930 . S
C1106 C1105 1.388 . S
C1106 C1107 1.390 . S
C1107 C1106 1.390 . S
C1107 C1108 1.394 . S
C1107 C1113 1.465 . S
C1108 C1103 1.399 . S
C1108 C1107 1.394 . S
C1108 C1109 1.516 . S
C1109 C1108 1.516 . S
C1109 C1110 1.502 . S
C1109 C1111 1.561 . S
C1109 C1112 1.526 . S
C1110 H1094 0.959 . S
C1110 H1095 0.959 . S
C1110 H1096 0.961 . S
C1110 C1109 1.502 . S
C1111 H1097 0.960 . S
C1111 H1098 0.961 . S
C1111 H1099 0.959 . S
C1111 C1109 1.561 . S
C1112 C1109 1.526 . S
C1112 C1113 1.396 . S
C1112 C1117 1.390 . S
C1113 C1107 1.465 . S
C1113 C1112 1.396 . S
C1113 C1114 1.399 . S
C1114 H1100 0.929 . S
C1114 C1113 1.399 . S
C1114 C1115 1.385 . S
C1115 H1101 0.931 . S
C1115 C1114 1.385 . S
C1115 C1116 1.389 . S
C1116 C1115 1.389 . S
C1116 C1117 1.387 . S
C1117 H1102 0.930 . S
C1117 C1112 1.390 . S
C1117 C1116 1.387 . S
H1118 C1130 0.930 . S
H1119 C1132 0.930 . S
H1120 C1133 0.930 . S
H1121 C1137 0.959 . S
H1122 C1137 0.959 . S
H1123 C1137 0.961 . S
H1124 C1138 0.960 . S
H1125 C1138 0.961 . S
H1126 C1138 0.959 . S
H1127 C1141 0.929 . S
H1128 C1142 0.931 . S
H1129 C1144 0.930 . S
C1130 H1118 0.930 . S
C1130 C1131 1.399 . S
C1130 C1135 1.399 . S
C1131 C1130 1.399 . S
C1131 C1132 1.376 . S
C1132 H1119 0.930 . S
C1132 C1131 1.376 . S
C1132 C1133 1.388 . S
C1133 H1120 0.930 . S
C1133 C1132 1.388 . S
C1133 C1134 1.390 . S
C1134 C1133 1.390 . S
C1134 C1135 1.394 . S
C1134 C1140 1.465 . S
C1135 C1130 1.399 . S
C1135 C1134 1.394 . S
C1135 C1136 1.516 . S
C1136 C1135 1.516 . S
C1136 C1137 1.502 . S
C1136 C1138 1.561 . S
C1136 C1139 1.526 . S
C1137 H1121 0.959 . S
C1137 H1122 0.959 . S
C1137 H1123 0.961 . S
C1137 C1136 1.502 . S
C1138 H1124 0.960 . S
C1138 H1125 0.961 . S
C1138 H1126 0.959 . S
C1138 C1136 1.561 . S
C1139 C1136 1.526 . S
C1139 C1140 1.396 . S
C1139 C1144 1.390 . S
C1140 C1134 1.465 . S
C1140 C1139 1.396 . S
C1140 C1141 1.399 . S
C1141 H1127 0.929 . S
C1141 C1140 1.399 . S
C1141 C1142 1.385 . S
C1142 H1128 0.931 . S
C1142 C1141 1.385 . S
C1142 C1143 1.389 . S
C1143 C1142 1.389 . S
C1143 C1144 1.387 . S
C1144 H1129 0.930 . S
C1144 C1139 1.390 . S
C1144 C1143 1.387 . S
H1145 C1157 0.930 . S
H1146 C1159 0.930 . S
H1147 C1160 0.930 . S
H1148 C1164 0.959 . S
H1149 C1164 0.959 . S
H1150 C1164 0.961 . S
H1151 C1165 0.960 . S
H1152 C1165 0.961 . S
H1153 C1165 0.959 . S
H1154 C1168 0.929 . S
H1155 C1169 0.931 . S
H1156 C1171 0.930 . S
C1157 H1145 0.930 . S
C1157 C1158 1.399 . S
C1157 C1162 1.399 . S
C1158 C1157 1.399 . S
C1158 C1159 1.376 . S
C1159 H1146 0.930 . S
C1159 C1158 1.376 . S
C1159 C1160 1.388 . S
C1160 H1147 0.930 . S
C1160 C1159 1.388 . S
C1160 C1161 1.390 . S
C1161 C1160 1.390 . S
C1161 C1162 1.394 . S
C1161 C1167 1.465 . S
C1162 C1157 1.399 . S
C1162 C1161 1.394 . S
C1162 C1163 1.516 . S
C1163 C1162 1.516 . S
C1163 C1164 1.502 . S
C1163 C1165 1.561 . S
C1163 C1166 1.526 . S
C1164 H1148 0.959 . S
C1164 H1149 0.959 . S
C1164 H1150 0.961 . S
C1164 C1163 1.502 . S
C1165 H1151 0.960 . S
C1165 H1152 0.961 . S
C1165 H1153 0.959 . S
C1165 C1163 1.561 . S
C1166 C1163 1.526 . S
C1166 C1167 1.396 . S
C1166 C1171 1.390 . S
C1167 C1161 1.465 . S
C1167 C1166 1.396 . S
C1167 C1168 1.399 . S
C1168 H1154 0.929 . S
C1168 C1167 1.399 . S
C1168 C1169 1.385 . S
C1169 H1155 0.931 . S
C1169 C1168 1.385 . S
C1169 C1170 1.389 . S
C1170 C1169 1.389 . S
C1170 C1171 1.387 . S
C1171 H1156 0.930 . S
C1171 C1166 1.390 . S
C1171 C1170 1.387 . S
H1172 C1184 0.930 . S
H1173 C1186 0.930 . S
H1174 C1187 0.930 . S
H1175 C1191 0.959 . S
H1176 C1191 0.959 . S
H1177 C1191 0.961 . S
H1178 C1192 0.960 . S
H1179 C1192 0.961 . S
H1180 C1192 0.959 . S
H1181 C1195 0.929 . S
H1182 C1196 0.931 . S
H1183 C1198 0.930 . S
C1184 H1172 0.930 . S
C1184 C1185 1.399 . S
C1184 C1189 1.399 . S
C1185 C1184 1.399 . S
C1185 C1186 1.376 . S
C1186 H1173 0.930 . S
C1186 C1185 1.376 . S
C1186 C1187 1.388 . S
C1187 H1174 0.930 . S
C1187 C1186 1.388 . S
C1187 C1188 1.390 . S
C1188 C1187 1.390 . S
C1188 C1189 1.394 . S
C1188 C1194 1.465 . S
C1189 C1184 1.399 . S
C1189 C1188 1.394 . S
C1189 C1190 1.516 . S
C1190 C1189 1.516 . S
C1190 C1191 1.502 . S
C1190 C1192 1.561 . S
C1190 C1193 1.526 . S
C1191 H1175 0.959 . S
C1191 H1176 0.959 . S
C1191 H1177 0.961 . S
C1191 C1190 1.502 . S
C1192 H1178 0.960 . S
C1192 H1179 0.961 . S
C1192 H1180 0.959 . S
C1192 C1190 1.561 . S
C1193 C1190 1.526 . S
C1193 C1194 1.396 . S
C1193 C1198 1.390 . S
C1194 C1188 1.465 . S
C1194 C1193 1.396 . S
C1194 C1195 1.399 . S
C1195 H1181 0.929 . S
C1195 C1194 1.399 . S
C1195 C1196 1.385 . S
C1196 H1182 0.931 . S
C1196 C1195 1.385 . S
C1196 C1197 1.389 . S
C1197 C1196 1.389 . S
C1197 C1198 1.387 . S
C1198 H1183 0.930 . S
C1198 C1193 1.390 . S
C1198 C1197 1.387 . S
H1199 C1211 0.930 . S
H1200 C1213 0.930 . S
H1201 C1214 0.930 . S
H1202 C1218 0.962 . S
H1203 C1218 0.979 . S
H1204 C1218 0.939 1_655 S
H1205 C1219 0.957 1_655 S
H1206 C1219 0.964 . S
H1207 C1219 0.959 . S
H1208 C1222 0.929 . S
H1209 C1223 0.931 . S
H1210 C1225 0.930 . S
C1211 H1199 0.930 . S
C1211 C1212 1.399 . S
C1211 C1216 1.399 . S
C1212 C1211 1.399 . S
C1212 C1213 1.376 . S
C1213 H1200 0.930 . S
C1213 C1212 1.376 . S
C1213 C1214 1.388 . S
C1214 H1201 0.930 . S
C1214 C1213 1.388 . S
C1214 C1215 1.390 . S
C1215 C1214 1.390 . S
C1215 C1216 1.394 . S
C1215 C1221 1.465 1_655 S
C1216 C1211 1.399 . S
C1216 C1215 1.394 . S
C1216 C1217 1.517 1_655 S
C1217 C1216 1.517 1_455 S
C1217 C1218 1.502 . S
C1217 C1219 1.561 . S
C1217 C1220 1.525 . S
C1218 H1202 0.962 . S
C1218 H1203 0.979 . S
C1218 H1204 0.939 1_455 S
C1218 C1217 1.502 . S
C1219 H1205 0.957 1_455 S
C1219 H1206 0.964 . S
C1219 H1207 0.959 . S
C1219 C1217 1.561 . S
C1220 C1217 1.525 . S
C1220 C1221 1.396 . S
C1220 C1225 1.390 . S
C1221 C1215 1.465 1_455 S
C1221 C1220 1.396 . S
C1221 C1222 1.399 . S
C1222 H1208 0.929 . S
C1222 C1221 1.399 . S
C1222 C1223 1.385 . S
C1223 H1209 0.931 . S
C1223 C1222 1.385 . S
C1223 C1224 1.389 . S
C1224 C1223 1.389 . S
C1224 C1225 1.387 . S
C1225 H1210 0.930 . S
C1225 C1220 1.390 . S
C1225 C1224 1.387 . S
H1226 C1238 0.930 . S
H1227 C1240 0.930 . S
H1228 C1241 0.930 . S
H1229 C1245 0.959 . S
H1230 C1245 0.959 . S
H1231 C1245 0.961 . S
H1232 C1246 0.960 . S
H1233 C1246 0.961 . S
H1234 C1246 0.959 . S
H1235 C1249 0.929 . S
H1236 C1250 0.931 . S
H1237 C1252 0.930 . S
C1238 H1226 0.930 . S
C1238 C1239 1.399 . S
C1238 C1243 1.399 . S
C1239 C1238 1.399 . S
C1239 C1240 1.376 . S
C1240 H1227 0.930 . S
C1240 C1239 1.376 . S
C1240 C1241 1.388 . S
C1241 H1228 0.930 . S
C1241 C1240 1.388 . S
C1241 C1242 1.390 . S
C1242 C1241 1.390 . S
C1242 C1243 1.394 . S
C1242 C1248 1.465 . S
C1243 C1238 1.399 . S
C1243 C1242 1.394 . S
C1243 C1244 1.516 . S
C1244 C1243 1.516 . S
C1244 C1245 1.502 . S
C1244 C1246 1.561 . S
C1244 C1247 1.526 . S
C1245 H1229 0.959 . S
C1245 H1230 0.959 . S
C1245 H1231 0.961 . S
C1245 C1244 1.502 . S
C1246 H1232 0.960 . S
C1246 H1233 0.961 . S
C1246 H1234 0.959 . S
C1246 C1244 1.561 . S
C1247 C1244 1.526 . S
C1247 C1248 1.396 . S
C1247 C1252 1.390 . S
C1248 C1242 1.465 . S
C1248 C1247 1.396 . S
C1248 C1249 1.399 . S
C1249 H1235 0.929 . S
C1249 C1248 1.399 . S
C1249 C1250 1.385 . S
C1250 H1236 0.931 . S
C1250 C1249 1.385 . S
C1250 C1251 1.389 . S
C1251 C1250 1.389 . S
C1251 C1252 1.387 . S
C1252 H1237 0.930 . S
C1252 C1247 1.390 . S
C1252 C1251 1.387 . S
H1253 C1265 0.930 . S
H1254 C1267 0.930 . S
H1255 C1268 0.930 . S
H1256 C1272 0.962 . S
H1257 C1272 0.979 . S
H1258 C1272 0.939 1_455 S
H1259 C1273 0.957 1_455 S
H1260 C1273 0.964 . S
H1261 C1273 0.959 . S
H1262 C1276 0.929 . S
H1263 C1277 0.931 . S
H1264 C1279 0.930 . S
C1265 H1253 0.930 . S
C1265 C1266 1.399 . S
C1265 C1270 1.399 . S
C1266 C1265 1.399 . S
C1266 C1267 1.376 . S
C1267 H1254 0.930 . S
C1267 C1266 1.376 . S
C1267 C1268 1.388 . S
C1268 H1255 0.930 . S
C1268 C1267 1.388 . S
C1268 C1269 1.390 . S
C1269 C1268 1.390 . S
C1269 C1270 1.394 . S
C1269 C1275 1.465 1_455 S
C1270 C1265 1.399 . S
C1270 C1269 1.394 . S
C1270 C1271 1.517 1_455 S
C1271 C1270 1.517 1_655 S
C1271 C1272 1.502 . S
C1271 C1273 1.561 . S
C1271 C1274 1.525 . S
C1272 H1256 0.962 . S
C1272 H1257 0.979 . S
C1272 H1258 0.939 1_655 S
C1272 C1271 1.502 . S
C1273 H1259 0.957 1_655 S
C1273 H1260 0.964 . S
C1273 H1261 0.959 . S
C1273 C1271 1.561 . S
C1274 C1271 1.525 . S
C1274 C1275 1.396 . S
C1274 C1279 1.390 . S
C1275 C1269 1.465 1_655 S
C1275 C1274 1.396 . S
C1275 C1276 1.399 . S
C1276 H1262 0.929 . S
C1276 C1275 1.399 . S
C1276 C1277 1.385 . S
C1277 H1263 0.931 . S
C1277 C1276 1.385 . S
C1277 C1278 1.389 . S
C1278 C1277 1.389 . S
C1278 C1279 1.387 . S
C1279 H1264 0.930 . S
C1279 C1274 1.390 . S
C1279 C1278 1.387 . S
H1280 C1292 0.930 . S
H1281 C1294 0.930 . S
H1282 C1295 0.930 . S
H1283 C1299 0.959 . S
H1284 C1299 0.959 . S
H1285 C1299 0.961 . S
H1286 C1300 0.960 . S
H1287 C1300 0.961 . S
H1288 C1300 0.959 . S
H1289 C1303 0.929 . S
H1290 C1304 0.931 . S
H1291 C1306 0.930 . S
C1292 H1280 0.930 . S
C1292 C1293 1.399 . S
C1292 C1297 1.399 . S
C1293 C1292 1.399 . S
C1293 C1294 1.376 . S
C1294 H1281 0.930 . S
C1294 C1293 1.376 . S
C1294 C1295 1.388 . S
C1295 H1282 0.930 . S
C1295 C1294 1.388 . S
C1295 C1296 1.390 . S
C1296 C1295 1.390 . S
C1296 C1297 1.394 . S
C1296 C1302 1.465 . S
C1297 C1292 1.399 . S
C1297 C1296 1.394 . S
C1297 C1298 1.516 1_556 S
C1298 C1297 1.516 1_554 S
C1298 C1299 1.502 . S
C1298 C1300 1.561 . S
C1298 C1301 1.526 . S
C1299 H1283 0.959 . S
C1299 H1284 0.959 . S
C1299 H1285 0.961 . S
C1299 C1298 1.502 . S
C1300 H1286 0.960 . S
C1300 H1287 0.961 . S
C1300 H1288 0.959 . S
C1300 C1298 1.561 . S
C1301 C1298 1.526 . S
C1301 C1302 1.396 1_554 S
C1301 C1306 1.390 . S
C1302 C1296 1.465 . S
C1302 C1301 1.396 1_556 S
C1302 C1303 1.399 . S
C1303 H1289 0.929 . S
C1303 C1302 1.399 . S
C1303 C1304 1.385 1_556 S
C1304 H1290 0.931 . S
C1304 C1303 1.385 1_554 S
C1304 C1305 1.389 . S
C1305 C1304 1.389 . S
C1305 C1306 1.387 . S
C1306 H1291 0.930 . S
C1306 C1301 1.390 . S
C1306 C1305 1.387 . S
H1307 C1319 0.930 . S
H1308 C1321 0.930 . S
H1309 C1322 0.930 . S
H1310 C1326 0.959 . S
H1311 C1326 0.959 . S
H1312 C1326 0.961 . S
H1313 C1327 0.960 . S
H1314 C1327 0.961 . S
H1315 C1327 0.959 . S
H1316 C1330 0.929 . S
H1317 C1331 0.931 . S
H1318 C1333 0.930 . S
C1319 H1307 0.930 . S
C1319 C1320 1.399 . S
C1319 C1324 1.399 . S
C1320 C1319 1.399 . S
C1320 C1321 1.376 . S
C1321 H1308 0.930 . S
C1321 C1320 1.376 . S
C1321 C1322 1.388 . S
C1322 H1309 0.930 . S
C1322 C1321 1.388 . S
C1322 C1323 1.390 . S
C1323 C1322 1.390 . S
C1323 C1324 1.394 . S
C1323 C1329 1.465 . S
C1324 C1319 1.399 . S
C1324 C1323 1.394 . S
C1324 C1325 1.516 . S
C1325 C1324 1.516 . S
C1325 C1326 1.502 . S
C1325 C1327 1.561 . S
C1325 C1328 1.526 . S
C1326 H1310 0.959 . S
C1326 H1311 0.959 . S
C1326 H1312 0.961 . S
C1326 C1325 1.502 . S
C1327 H1313 0.960 . S
C1327 H1314 0.961 . S
C1327 H1315 0.959 . S
C1327 C1325 1.561 . S
C1328 C1325 1.526 . S
C1328 C1329 1.396 . S
C1328 C1333 1.390 . S
C1329 C1323 1.465 . S
C1329 C1328 1.396 . S
C1329 C1330 1.399 . S
C1330 H1316 0.929 . S
C1330 C1329 1.399 . S
C1330 C1331 1.385 . S
C1331 H1317 0.931 . S
C1331 C1330 1.385 . S
C1331 C1332 1.389 . S
C1332 C1331 1.389 . S
C1332 C1333 1.387 . S
C1333 H1318 0.930 . S
C1333 C1328 1.390 . S
C1333 C1332 1.387 . S
H1334 C1346 0.930 . S
H1335 C1348 0.930 . S
H1336 C1349 0.930 . S
H1337 C1353 0.959 . S
H1338 C1353 0.959 . S
H1339 C1353 0.961 . S
H1340 C1354 0.960 . S
H1341 C1354 0.961 . S
H1342 C1354 0.959 . S
H1343 C1357 0.929 . S
H1344 C1358 0.931 . S
H1345 C1360 0.930 . S
C1346 H1334 0.930 . S
C1346 C1347 1.399 . S
C1346 C1351 1.399 . S
C1347 C1346 1.399 . S
C1347 C1348 1.376 . S
C1348 H1335 0.930 . S
C1348 C1347 1.376 . S
C1348 C1349 1.388 . S
C1349 H1336 0.930 . S
C1349 C1348 1.388 . S
C1349 C1350 1.390 . S
C1350 C1349 1.390 . S
C1350 C1351 1.394 . S
C1350 C1356 1.465 . S
C1351 C1346 1.399 . S
C1351 C1350 1.394 . S
C1351 C1352 1.516 . S
C1352 C1351 1.516 . S
C1352 C1353 1.502 . S
C1352 C1354 1.561 . S
C1352 C1355 1.526 . S
C1353 H1337 0.959 . S
C1353 H1338 0.959 . S
C1353 H1339 0.961 . S
C1353 C1352 1.502 . S
C1354 H1340 0.960 . S
C1354 H1341 0.961 . S
C1354 H1342 0.959 . S
C1354 C1352 1.561 . S
C1355 C1352 1.526 . S
C1355 C1356 1.396 . S
C1355 C1360 1.390 . S
C1356 C1350 1.465 . S
C1356 C1355 1.396 . S
C1356 C1357 1.399 . S
C1357 H1343 0.929 . S
C1357 C1356 1.399 . S
C1357 C1358 1.385 . S
C1358 H1344 0.931 . S
C1358 C1357 1.385 . S
C1358 C1359 1.389 . S
C1359 C1358 1.389 . S
C1359 C1360 1.387 . S
C1360 H1345 0.930 . S
C1360 C1355 1.390 . S
C1360 C1359 1.387 . S
H1361 C1373 0.930 . S
H1362 C1375 0.930 . S
H1363 C1376 0.930 . S
H1364 C1380 0.959 . S
H1365 C1380 0.959 . S
H1366 C1380 0.961 . S
H1367 C1381 0.960 . S
H1368 C1381 0.961 . S
H1369 C1381 0.959 . S
H1370 C1384 0.929 . S
H1371 C1385 0.931 . S
H1372 C1387 0.930 . S
C1373 H1361 0.930 . S
C1373 C1374 1.399 . S
C1373 C1378 1.399 . S
C1374 C1373 1.399 . S
C1374 C1375 1.376 . S
C1375 H1362 0.930 . S
C1375 C1374 1.376 . S
C1375 C1376 1.388 . S
C1376 H1363 0.930 . S
C1376 C1375 1.388 . S
C1376 C1377 1.390 . S
C1377 C1376 1.390 . S
C1377 C1378 1.394 . S
C1377 C1383 1.465 . S
C1378 C1373 1.399 . S
C1378 C1377 1.394 . S
C1378 C1379 1.516 . S
C1379 C1378 1.516 . S
C1379 C1380 1.502 . S
C1379 C1381 1.561 . S
C1379 C1382 1.526 . S
C1380 H1364 0.959 . S
C1380 H1365 0.959 . S
C1380 H1366 0.961 . S
C1380 C1379 1.502 . S
C1381 H1367 0.960 . S
C1381 H1368 0.961 . S
C1381 H1369 0.959 . S
C1381 C1379 1.561 . S
C1382 C1379 1.526 . S
C1382 C1383 1.396 . S
C1382 C1387 1.390 . S
C1383 C1377 1.465 . S
C1383 C1382 1.396 . S
C1383 C1384 1.399 . S
C1384 H1370 0.929 . S
C1384 C1383 1.399 . S
C1384 C1385 1.385 . S
C1385 H1371 0.931 . S
C1385 C1384 1.385 . S
C1385 C1386 1.389 . S
C1386 C1385 1.389 . S
C1386 C1387 1.387 . S
C1387 H1372 0.930 . S
C1387 C1382 1.390 . S
C1387 C1386 1.387 . S
H1388 C1400 0.930 . S
H1389 C1402 0.930 . S
H1390 C1403 0.930 1_556 S
H1391 C1407 0.959 1_556 S
H1392 C1407 0.959 . S
H1393 C1407 0.961 . S
H1394 C1408 0.960 . S
H1395 C1408 0.961 . S
H1396 C1408 0.959 . S
H1397 C1411 0.929 . S
H1398 C1412 0.931 . S
H1399 C1414 0.930 . S
C1400 H1388 0.930 . S
C1400 C1401 1.399 . S
C1400 C1405 1.399 . S
C1401 C1400 1.399 . S
C1401 C1402 1.376 . S
C1402 H1389 0.930 . S
C1402 C1401 1.376 . S
C1402 C1403 1.388 . S
C1403 H1390 0.930 1_554 S
C1403 C1402 1.388 . S
C1403 C1404 1.390 . S
C1404 C1403 1.390 . S
C1404 C1405 1.394 . S
C1404 C1410 1.465 1_554 S
C1405 C1400 1.399 . S
C1405 C1404 1.394 . S
C1405 C1406 1.516 . S
C1406 C1405 1.516 . S
C1406 C1407 1.502 . S
C1406 C1408 1.561 . S
C1406 C1409 1.526 1_554 S
C1407 H1391 0.959 1_554 S
C1407 H1392 0.959 . S
C1407 H1393 0.961 . S
C1407 C1406 1.502 . S
C1408 H1394 0.960 . S
C1408 H1395 0.961 . S
C1408 H1396 0.959 . S
C1408 C1406 1.561 . S
C1409 C1406 1.526 1_556 S
C1409 C1410 1.396 . S
C1409 C1414 1.390 . S
C1410 C1404 1.465 1_556 S
C1410 C1409 1.396 . S
C1410 C1411 1.399 . S
C1411 H1397 0.929 . S
C1411 C1410 1.399 . S
C1411 C1412 1.385 . S
C1412 H1398 0.931 . S
C1412 C1411 1.385 . S
C1412 C1413 1.389 . S
C1413 C1412 1.389 . S
C1413 C1414 1.387 . S
C1414 H1399 0.930 . S
C1414 C1409 1.390 . S
C1414 C1413 1.387 . S
H1415 C1427 0.930 . S
H1416 C1429 0.930 . S
H1417 C1430 0.930 . S
H1418 C1434 0.959 . S
H1419 C1434 0.959 . S
H1420 C1434 0.961 . S
H1421 C1435 0.960 . S
H1422 C1435 0.961 . S
H1423 C1435 0.959 . S
H1424 C1438 0.929 . S
H1425 C1439 0.931 . S
H1426 C1441 0.930 . S
C1427 H1415 0.930 . S
C1427 C1428 1.399 . S
C1427 C1432 1.399 . S
C1428 C1427 1.399 . S
C1428 C1429 1.376 . S
C1429 H1416 0.930 . S
C1429 C1428 1.376 . S
C1429 C1430 1.388 . S
C1430 H1417 0.930 . S
C1430 C1429 1.388 . S
C1430 C1431 1.390 . S
C1431 C1430 1.390 . S
C1431 C1432 1.394 . S
C1431 C1437 1.465 . S
C1432 C1427 1.399 . S
C1432 C1431 1.394 . S
C1432 C1433 1.516 . S
C1433 C1432 1.516 . S
C1433 C1434 1.502 . S
C1433 C1435 1.561 . S
C1433 C1436 1.526 . S
C1434 H1418 0.959 . S
C1434 H1419 0.959 . S
C1434 H1420 0.961 . S
C1434 C1433 1.502 . S
C1435 H1421 0.960 . S
C1435 H1422 0.961 . S
C1435 H1423 0.959 . S
C1435 C1433 1.561 . S
C1436 C1433 1.526 . S
C1436 C1437 1.396 . S
C1436 C1441 1.390 . S
C1437 C1431 1.465 . S
C1437 C1436 1.396 . S
C1437 C1438 1.399 . S
C1438 H1424 0.929 . S
C1438 C1437 1.399 . S
C1438 C1439 1.385 . S
C1439 H1425 0.931 . S
C1439 C1438 1.385 . S
C1439 C1440 1.389 . S
C1440 C1439 1.389 . S
C1440 C1441 1.387 . S
C1441 H1426 0.930 . S
C1441 C1436 1.390 . S
C1441 C1440 1.387 . S
H1442 C1454 0.930 . S
H1443 C1456 0.930 . S
H1444 C1457 0.930 . S
H1445 C1461 0.959 . S
H1446 C1461 0.959 . S
H1447 C1461 0.961 . S
H1448 C1462 0.960 . S
H1449 C1462 0.961 . S
H1450 C1462 0.959 . S
H1451 C1465 0.929 . S
H1452 C1466 0.931 . S
H1453 C1468 0.930 . S
C1454 H1442 0.930 . S
C1454 C1455 1.399 . S
C1454 C1459 1.399 . S
C1455 C1454 1.399 . S
C1455 C1456 1.376 . S
C1456 H1443 0.930 . S
C1456 C1455 1.376 . S
C1456 C1457 1.388 . S
C1457 H1444 0.930 . S
C1457 C1456 1.388 . S
C1457 C1458 1.390 . S
C1458 C1457 1.390 . S
C1458 C1459 1.394 . S
C1458 C1464 1.465 . S
C1459 C1454 1.399 . S
C1459 C1458 1.394 . S
C1459 C1460 1.516 . S
C1460 C1459 1.516 . S
C1460 C1461 1.502 . S
C1460 C1462 1.561 . S
C1460 C1463 1.526 . S
C1461 H1445 0.959 . S
C1461 H1446 0.959 . S
C1461 H1447 0.961 . S
C1461 C1460 1.502 . S
C1462 H1448 0.960 . S
C1462 H1449 0.961 . S
C1462 H1450 0.959 . S
C1462 C1460 1.561 . S
C1463 C1460 1.526 . S
C1463 C1464 1.396 . S
C1463 C1468 1.390 . S
C1464 C1458 1.465 . S
C1464 C1463 1.396 . S
C1464 C1465 1.399 . S
C1465 H1451 0.929 . S
C1465 C1464 1.399 . S
C1465 C1466 1.385 . S
C1466 H1452 0.931 . S
C1466 C1465 1.385 . S
C1466 C1467 1.389 . S
C1467 C1466 1.389 . S
C1467 C1468 1.387 . S
C1468 H1453 0.930 . S
C1468 C1463 1.390 . S
C1468 C1467 1.387 . S
H1469 C1481 0.930 . S
H1470 C1483 0.930 . S
H1471 C1484 0.930 . S
H1472 C1488 0.959 . S
H1473 C1488 0.959 . S
H1474 C1488 0.961 . S
H1475 C1489 0.960 . S
H1476 C1489 0.961 . S
H1477 C1489 0.959 . S
H1478 C1492 0.929 . S
H1479 C1493 0.931 . S
H1480 C1495 0.930 . S
C1481 H1469 0.930 . S
C1481 C1482 1.399 . S
C1481 C1486 1.399 . S
C1482 C1481 1.399 . S
C1482 C1483 1.376 . S
C1483 H1470 0.930 . S
C1483 C1482 1.376 . S
C1483 C1484 1.388 . S
C1484 H1471 0.930 . S
C1484 C1483 1.388 . S
C1484 C1485 1.390 . S
C1485 C1484 1.390 . S
C1485 C1486 1.394 . S
C1485 C1491 1.465 . S
C1486 C1481 1.399 . S
C1486 C1485 1.394 . S
C1486 C1487 1.516 . S
C1487 C1486 1.516 . S
C1487 C1488 1.502 . S
C1487 C1489 1.561 . S
C1487 C1490 1.526 . S
C1488 H1472 0.959 . S
C1488 H1473 0.959 . S
C1488 H1474 0.961 . S
C1488 C1487 1.502 . S
C1489 H1475 0.960 . S
C1489 H1476 0.961 . S
C1489 H1477 0.959 . S
C1489 C1487 1.561 . S
C1490 C1487 1.526 . S
C1490 C1491 1.396 . S
C1490 C1495 1.390 . S
C1491 C1485 1.465 . S
C1491 C1490 1.396 . S
C1491 C1492 1.399 . S
C1492 H1478 0.929 . S
C1492 C1491 1.399 . S
C1492 C1493 1.385 . S
C1493 H1479 0.931 . S
C1493 C1492 1.385 . S
C1493 C1494 1.389 . S
C1494 C1493 1.389 . S
C1494 C1495 1.387 . S
C1495 H1480 0.930 . S
C1495 C1490 1.390 . S
C1495 C1494 1.387 . S
H1496 C1508 0.930 . S
H1497 C1510 0.930 . S
H1498 C1511 0.930 1_565 S
H1499 C1515 0.959 . S
H1500 C1515 0.959 . S
H1501 C1515 0.961 . S
H1502 C1516 0.960 . S
H1503 C1516 0.961 . S
H1504 C1516 0.959 . S
H1505 C1519 0.929 . S
H1506 C1520 0.931 . S
H1507 C1522 0.930 . S
C1508 H1496 0.930 . S
C1508 C1509 1.399 . S
C1508 C1513 1.399 . S
C1509 C1508 1.399 . S
C1509 C1510 1.376 . S
C1510 H1497 0.930 . S
C1510 C1509 1.376 . S
C1510 C1511 1.388 . S
C1511 H1498 0.930 1_545 S
C1511 C1510 1.388 . S
C1511 C1512 1.390 . S
C1512 C1511 1.390 . S
C1512 C1513 1.394 . S
C1512 C1518 1.465 1_545 S
C1513 C1508 1.399 . S
C1513 C1512 1.394 . S
C1513 C1514 1.516 . S
C1514 C1513 1.516 . S
C1514 C1515 1.502 . S
C1514 C1516 1.561 . S
C1514 C1517 1.526 1_545 S
C1515 H1499 0.959 . S
C1515 H1500 0.959 . S
C1515 H1501 0.961 . S
C1515 C1514 1.502 . S
C1516 H1502 0.960 . S
C1516 H1503 0.961 . S
C1516 H1504 0.959 . S
C1516 C1514 1.561 . S
C1517 C1514 1.526 1_565 S
C1517 C1518 1.396 . S
C1517 C1522 1.390 . S
C1518 C1512 1.465 1_565 S
C1518 C1517 1.396 . S
C1518 C1519 1.399 . S
C1519 H1505 0.929 . S
C1519 C1518 1.399 . S
C1519 C1520 1.385 . S
C1520 H1506 0.931 . S
C1520 C1519 1.385 . S
C1520 C1521 1.389 . S
C1521 C1520 1.389 . S
C1521 C1522 1.387 . S
C1522 H1507 0.930 . S
C1522 C1517 1.390 . S
C1522 C1521 1.387 . S
H1523 C1535 0.930 . S
H1524 C1537 0.930 . S
H1525 C1538 0.930 . S
H1526 C1542 0.959 . S
H1527 C1542 0.959 . S
H1528 C1542 0.961 . S
H1529 C1543 0.960 . S
H1530 C1543 0.961 . S
H1531 C1543 0.959 . S
H1532 C1546 0.929 . S
H1533 C1547 0.931 . S
H1534 C1549 0.930 . S
C1535 H1523 0.930 . S
C1535 C1536 1.399 . S
C1535 C1540 1.399 . S
C1536 C1535 1.399 . S
C1536 C1537 1.376 . S
C1537 H1524 0.930 . S
C1537 C1536 1.376 . S
C1537 C1538 1.388 . S
C1538 H1525 0.930 . S
C1538 C1537 1.388 . S
C1538 C1539 1.390 . S
C1539 C1538 1.390 . S
C1539 C1540 1.394 . S
C1539 C1545 1.465 . S
C1540 C1535 1.399 . S
C1540 C1539 1.394 . S
C1540 C1541 1.516 . S
C1541 C1540 1.516 . S
C1541 C1542 1.502 . S
C1541 C1543 1.561 . S
C1541 C1544 1.526 . S
C1542 H1526 0.959 . S
C1542 H1527 0.959 . S
C1542 H1528 0.961 . S
C1542 C1541 1.502 . S
C1543 H1529 0.960 . S
C1543 H1530 0.961 . S
C1543 H1531 0.959 . S
C1543 C1541 1.561 . S
C1544 C1541 1.526 . S
C1544 C1545 1.396 . S
C1544 C1549 1.390 . S
C1545 C1539 1.465 . S
C1545 C1544 1.396 . S
C1545 C1546 1.399 . S
C1546 H1532 0.929 . S
C1546 C1545 1.399 . S
C1546 C1547 1.385 . S
C1547 H1533 0.931 . S
C1547 C1546 1.385 . S
C1547 C1548 1.389 . S
C1548 C1547 1.389 . S
C1548 C1549 1.387 . S
C1549 H1534 0.930 . S
C1549 C1544 1.390 . S
C1549 C1548 1.387 . S
H1550 C1562 0.930 . S
H1551 C1564 0.930 . S
H1552 C1565 0.930 1_545 S
H1553 C1569 0.959 . S
H1554 C1569 0.959 . S
H1555 C1569 0.961 . S
H1556 C1570 0.960 . S
H1557 C1570 0.961 . S
H1558 C1570 0.959 . S
H1559 C1573 0.929 . S
H1560 C1574 0.931 . S
H1561 C1576 0.930 . S
C1562 H1550 0.930 . S
C1562 C1563 1.399 . S
C1562 C1567 1.399 . S
C1563 C1562 1.399 . S
C1563 C1564 1.376 . S
C1564 H1551 0.930 . S
C1564 C1563 1.376 . S
C1564 C1565 1.388 . S
C1565 H1552 0.930 1_565 S
C1565 C1564 1.388 . S
C1565 C1566 1.390 . S
C1566 C1565 1.390 . S
C1566 C1567 1.394 . S
C1566 C1572 1.465 1_565 S
C1567 C1562 1.399 . S
C1567 C1566 1.394 . S
C1567 C1568 1.516 1_554 S
C1568 C1567 1.516 1_556 S
C1568 C1569 1.502 . S
C1568 C1570 1.561 . S
C1568 C1571 1.526 1_565 S
C1569 H1553 0.959 . S
C1569 H1554 0.959 . S
C1569 H1555 0.961 . S
C1569 C1568 1.502 . S
C1570 H1556 0.960 . S
C1570 H1557 0.961 . S
C1570 H1558 0.959 . S
C1570 C1568 1.561 . S
C1571 C1568 1.526 1_545 S
C1571 C1572 1.396 1_556 S
C1571 C1576 1.390 . S
C1572 C1566 1.465 1_545 S
C1572 C1571 1.396 1_554 S
C1572 C1573 1.399 . S
C1573 H1559 0.929 . S
C1573 C1572 1.399 . S
C1573 C1574 1.385 1_554 S
C1574 H1560 0.931 . S
C1574 C1573 1.385 1_556 S
C1574 C1575 1.389 . S
C1575 C1574 1.389 . S
C1575 C1576 1.387 . S
C1576 H1561 0.930 . S
C1576 C1571 1.390 . S
C1576 C1575 1.387 . S
H1577 C1589 0.930 . S
H1578 C1591 0.930 . S
H1579 C1592 0.930 . S
H1580 C1596 0.959 . S
H1581 C1596 0.959 . S
H1582 C1596 0.961 . S
H1583 C1597 0.960 . S
H1584 C1597 0.961 . S
H1585 C1597 0.959 . S
H1586 C1600 0.929 . S
H1587 C1601 0.931 . S
H1588 C1603 0.930 . S
C1589 H1577 0.930 . S
C1589 C1590 1.399 . S
C1589 C1594 1.399 . S
C1590 C1589 1.399 . S
C1590 C1591 1.376 . S
C1591 H1578 0.930 . S
C1591 C1590 1.376 . S
C1591 C1592 1.388 . S
C1592 H1579 0.930 . S
C1592 C1591 1.388 . S
C1592 C1593 1.390 . S
C1593 C1592 1.390 . S
C1593 C1594 1.394 . S
C1593 C1599 1.465 . S
C1594 C1589 1.399 . S
C1594 C1593 1.394 . S
C1594 C1595 1.516 . S
C1595 C1594 1.516 . S
C1595 C1596 1.502 . S
C1595 C1597 1.561 . S
C1595 C1598 1.526 . S
C1596 H1580 0.959 . S
C1596 H1581 0.959 . S
C1596 H1582 0.961 . S
C1596 C1595 1.502 . S
C1597 H1583 0.960 . S
C1597 H1584 0.961 . S
C1597 H1585 0.959 . S
C1597 C1595 1.561 . S
C1598 C1595 1.526 . S
C1598 C1599 1.396 . S
C1598 C1603 1.390 . S
C1599 C1593 1.465 . S
C1599 C1598 1.396 . S
C1599 C1600 1.399 . S
C1600 H1586 0.929 . S
C1600 C1599 1.399 . S
C1600 C1601 1.385 . S
C1601 H1587 0.931 . S
C1601 C1600 1.385 . S
C1601 C1602 1.389 . S
C1602 C1601 1.389 . S
C1602 C1603 1.387 . S
C1603 H1588 0.930 . S
C1603 C1598 1.390 . S
C1603 C1602 1.387 . S
H1604 C1616 0.930 . S
H1605 C1618 0.930 . S
H1606 C1619 0.930 . S
H1607 C1623 0.959 . S
H1608 C1623 0.959 . S
H1609 C1623 0.961 . S
H1610 C1624 0.960 . S
H1611 C1624 0.961 . S
H1612 C1624 0.959 . S
H1613 C1627 0.929 1_545 S
H1614 C1628 0.931 . S
H1615 C1630 0.930 . S
C1616 H1604 0.930 . S
C1616 C1617 1.399 . S
C1616 C1621 1.399 . S
C1617 C1616 1.399 . S
C1617 C1618 1.376 . S
C1618 H1605 0.930 . S
C1618 C1617 1.376 . S
C1618 C1619 1.388 . S
C1619 H1606 0.930 . S
C1619 C1618 1.388 . S
C1619 C1620 1.390 . S
C1620 C1619 1.390 . S
C1620 C1621 1.394 . S
C1620 C1626 1.465 1_545 S
C1621 C1616 1.399 . S
C1621 C1620 1.394 . S
C1621 C1622 1.516 1_545 S
C1622 C1621 1.516 1_565 S
C1622 C1623 1.502 . S
C1622 C1624 1.561 . S
C1622 C1625 1.526 . S
C1623 H1607 0.959 . S
C1623 H1608 0.959 . S
C1623 H1609 0.961 . S
C1623 C1622 1.502 . S
C1624 H1610 0.960 . S
C1624 H1611 0.961 . S
C1624 H1612 0.959 . S
C1624 C1622 1.561 . S
C1625 C1622 1.526 . S
C1625 C1626 1.396 . S
C1625 C1630 1.390 . S
C1626 C1620 1.465 1_565 S
C1626 C1625 1.396 . S
C1626 C1627 1.399 . S
C1627 H1613 0.929 1_565 S
C1627 C1626 1.399 . S
C1627 C1628 1.385 . S
C1628 H1614 0.931 . S
C1628 C1627 1.385 . S
C1628 C1629 1.389 . S
C1629 C1628 1.389 . S
C1629 C1630 1.387 . S
C1630 H1615 0.930 . S
C1630 C1625 1.390 . S
C1630 C1629 1.387 . S
H1631 C1643 0.930 . S
H1632 C1645 0.930 . S
H1633 C1646 0.930 . S
H1634 C1650 0.959 . S
H1635 C1650 0.959 . S
H1636 C1650 0.961 . S
H1637 C1651 0.960 . S
H1638 C1651 0.961 . S
H1639 C1651 0.959 . S
H1640 C1654 0.929 . S
H1641 C1655 0.931 . S
H1642 C1657 0.930 . S
C1643 H1631 0.930 . S
C1643 C1644 1.399 . S
C1643 C1648 1.399 . S
C1644 C1643 1.399 . S
C1644 C1645 1.376 . S
C1645 H1632 0.930 . S
C1645 C1644 1.376 . S
C1645 C1646 1.388 . S
C1646 H1633 0.930 . S
C1646 C1645 1.388 . S
C1646 C1647 1.390 . S
C1647 C1646 1.390 . S
C1647 C1648 1.394 . S
C1647 C1653 1.465 . S
C1648 C1643 1.399 . S
C1648 C1647 1.394 . S
C1648 C1649 1.516 . S
C1649 C1648 1.516 . S
C1649 C1650 1.502 . S
C1649 C1651 1.561 . S
C1649 C1652 1.526 . S
C1650 H1634 0.959 . S
C1650 H1635 0.959 . S
C1650 H1636 0.961 . S
C1650 C1649 1.502 . S
C1651 H1637 0.960 . S
C1651 H1638 0.961 . S
C1651 H1639 0.959 . S
C1651 C1649 1.561 . S
C1652 C1649 1.526 . S
C1652 C1653 1.396 . S
C1652 C1657 1.390 . S
C1653 C1647 1.465 . S
C1653 C1652 1.396 . S
C1653 C1654 1.399 . S
C1654 H1640 0.929 . S
C1654 C1653 1.399 . S
C1654 C1655 1.385 . S
C1655 H1641 0.931 . S
C1655 C1654 1.385 . S
C1655 C1656 1.389 . S
C1656 C1655 1.389 . S
C1656 C1657 1.387 . S
C1657 H1642 0.930 . S
C1657 C1652 1.390 . S
C1657 C1656 1.387 . S
H1658 C1670 0.930 . S
H1659 C1672 0.930 . S
H1660 C1673 0.930 . S
H1661 C1677 0.959 . S
H1662 C1677 0.959 . S
H1663 C1677 0.961 . S
H1664 C1678 0.960 . S
H1665 C1678 0.961 . S
H1666 C1678 0.959 . S
H1667 C1681 0.929 1_565 S
H1668 C1682 0.931 . S
H1669 C1684 0.930 . S
C1670 H1658 0.930 . S
C1670 C1671 1.399 . S
C1670 C1675 1.399 . S
C1671 C1670 1.399 . S
C1671 C1672 1.376 . S
C1672 H1659 0.930 . S
C1672 C1671 1.376 . S
C1672 C1673 1.388 1_554 S
C1673 H1660 0.930 . S
C1673 C1672 1.388 1_556 S
C1673 C1674 1.390 . S
C1674 C1673 1.390 . S
C1674 C1675 1.394 1_556 S
C1674 C1680 1.465 1_565 S
C1675 C1670 1.399 . S
C1675 C1674 1.394 1_554 S
C1675 C1676 1.516 1_565 S
C1676 C1675 1.516 1_545 S
C1676 C1677 1.502 . S
C1676 C1678 1.561 . S
C1676 C1679 1.526 1_554 S
C1677 H1661 0.959 . S
C1677 H1662 0.959 . S
C1677 H1663 0.961 . S
C1677 C1676 1.502 . S
C1678 H1664 0.960 . S
C1678 H1665 0.961 . S
C1678 H1666 0.959 . S
C1678 C1676 1.561 . S
C1679 C1676 1.526 1_556 S
C1679 C1680 1.396 . S
C1679 C1684 1.390 . S
C1680 C1674 1.465 1_545 S
C1680 C1679 1.396 . S
C1680 C1681 1.399 . S
C1681 H1667 0.929 1_545 S
C1681 C1680 1.399 . S
C1681 C1682 1.385 . S
C1682 H1668 0.931 . S
C1682 C1681 1.385 . S
C1682 C1683 1.389 . S
C1683 C1682 1.389 . S
C1683 C1684 1.387 . S
C1684 H1669 0.930 . S
C1684 C1679 1.390 . S
C1684 C1683 1.387 . S
H1685 C1697 0.930 . S
H1686 C1699 0.930 . S
H1687 C1700 0.930 . S
H1688 C1704 0.959 . S
H1689 C1704 0.959 . S
H1690 C1704 0.961 . S
H1691 C1705 0.960 . S
H1692 C1705 0.961 . S
H1693 C1705 0.959 . S
H1694 C1708 0.929 . S
H1695 C1709 0.931 . S
H1696 C1711 0.930 . S
C1697 H1685 0.930 . S
C1697 C1698 1.399 . S
C1697 C1702 1.399 . S
C1698 C1697 1.399 . S
C1698 C1699 1.376 . S
C1699 H1686 0.930 . S
C1699 C1698 1.376 . S
C1699 C1700 1.388 . S
C1700 H1687 0.930 . S
C1700 C1699 1.388 . S
C1700 C1701 1.390 . S
C1701 C1700 1.390 . S
C1701 C1702 1.394 . S
C1701 C1707 1.465 . S
C1702 C1697 1.399 . S
C1702 C1701 1.394 . S
C1702 C1703 1.516 . S
C1703 C1702 1.516 . S
C1703 C1704 1.502 . S
C1703 C1705 1.561 . S
C1703 C1706 1.526 . S
C1704 H1688 0.959 . S
C1704 H1689 0.959 . S
C1704 H1690 0.961 . S
C1704 C1703 1.502 . S
C1705 H1691 0.960 . S
C1705 H1692 0.961 . S
C1705 H1693 0.959 . S
C1705 C1703 1.561 . S
C1706 C1703 1.526 . S
C1706 C1707 1.396 . S
C1706 C1711 1.390 . S
C1707 C1701 1.465 . S
C1707 C1706 1.396 . S
C1707 C1708 1.399 . S
C1708 H1694 0.929 . S
C1708 C1707 1.399 . S
C1708 C1709 1.385 . S
C1709 H1695 0.931 . S
C1709 C1708 1.385 . S
C1709 C1710 1.389 . S
C1710 C1709 1.389 . S
C1710 C1711 1.387 . S
C1711 H1696 0.930 . S
C1711 C1706 1.390 . S
C1711 C1710 1.387 . S
H1712 C1724 0.930 . S
H1713 C1726 0.930 . S
H1714 C1727 0.930 . S
H1715 C1731 0.959 . S
H1716 C1731 0.959 . S
H1717 C1731 0.961 . S
H1718 C1732 0.960 . S
H1719 C1732 0.961 . S
H1720 C1732 0.959 . S
H1721 C1735 0.929 . S
H1722 C1736 0.931 . S
H1723 C1738 0.930 . S
C1724 H1712 0.930 . S
C1724 C1725 1.399 . S
C1724 C1729 1.399 . S
C1725 C1724 1.399 . S
C1725 C1726 1.376 . S
C1726 H1713 0.930 . S
C1726 C1725 1.376 . S
C1726 C1727 1.388 . S
C1727 H1714 0.930 . S
C1727 C1726 1.388 . S
C1727 C1728 1.390 . S
C1728 C1727 1.390 . S
C1728 C1729 1.394 . S
C1728 C1734 1.465 . S
C1729 C1724 1.399 . S
C1729 C1728 1.394 . S
C1729 C1730 1.516 . S
C1730 C1729 1.516 . S
C1730 C1731 1.502 . S
C1730 C1732 1.561 . S
C1730 C1733 1.526 . S
C1731 H1715 0.959 . S
C1731 H1716 0.959 . S
C1731 H1717 0.961 . S
C1731 C1730 1.502 . S
C1732 H1718 0.960 . S
C1732 H1719 0.961 . S
C1732 H1720 0.959 . S
C1732 C1730 1.561 . S
C1733 C1730 1.526 . S
C1733 C1734 1.396 . S
C1733 C1738 1.390 . S
C1734 C1728 1.465 . S
C1734 C1733 1.396 . S
C1734 C1735 1.399 . S
C1735 H1721 0.929 . S
C1735 C1734 1.399 . S
C1735 C1736 1.385 . S
C1736 H1722 0.931 . S
C1736 C1735 1.385 . S
C1736 C1737 1.389 . S
C1737 C1736 1.389 . S
C1737 C1738 1.387 . S
C1738 H1723 0.930 . S
C1738 C1733 1.390 . S
C1738 C1737 1.387 . S
H1739 C1751 0.930 . S
H1740 C1753 0.930 . S
H1741 C1754 0.930 . S
H1742 C1758 0.959 . S
H1743 C1758 0.959 . S
H1744 C1758 0.961 . S
H1745 C1759 0.960 . S
H1746 C1759 0.961 . S
H1747 C1759 0.959 . S
H1748 C1762 0.929 . S
H1749 C1763 0.931 . S
H1750 C1765 0.930 . S
C1751 H1739 0.930 . S
C1751 C1752 1.399 . S
C1751 C1756 1.399 . S
C1752 C1751 1.399 . S
C1752 C1753 1.376 . S
C1753 H1740 0.930 . S
C1753 C1752 1.376 . S
C1753 C1754 1.388 . S
C1754 H1741 0.930 . S
C1754 C1753 1.388 . S
C1754 C1755 1.390 . S
C1755 C1754 1.390 . S
C1755 C1756 1.394 . S
C1755 C1761 1.465 . S
C1756 C1751 1.399 . S
C1756 C1755 1.394 . S
C1756 C1757 1.516 . S
C1757 C1756 1.516 . S
C1757 C1758 1.502 . S
C1757 C1759 1.561 . S
C1757 C1760 1.526 . S
C1758 H1742 0.959 . S
C1758 H1743 0.959 . S
C1758 H1744 0.961 . S
C1758 C1757 1.502 . S
C1759 H1745 0.960 . S
C1759 H1746 0.961 . S
C1759 H1747 0.959 . S
C1759 C1757 1.561 . S
C1760 C1757 1.526 . S
C1760 C1761 1.396 . S
C1760 C1765 1.390 . S
C1761 C1755 1.465 . S
C1761 C1760 1.396 . S
C1761 C1762 1.399 . S
C1762 H1748 0.929 . S
C1762 C1761 1.399 . S
C1762 C1763 1.385 . S
C1763 H1749 0.931 . S
C1763 C1762 1.385 . S
C1763 C1764 1.389 . S
C1764 C1763 1.389 . S
C1764 C1765 1.387 . S
C1765 H1750 0.930 . S
C1765 C1760 1.390 . S
C1765 C1764 1.387 . S
H1766 C1778 0.930 . S
H1767 C1780 0.930 . S
H1768 C1781 0.930 . S
H1769 C1785 0.959 . S
H1770 C1785 0.959 . S
H1771 C1785 0.961 . S
H1772 C1786 0.960 . S
H1773 C1786 0.961 . S
H1774 C1786 0.959 . S
H1775 C1789 0.929 . S
H1776 C1790 0.931 . S
H1777 C1792 0.930 . S
C1778 H1766 0.930 . S
C1778 C1779 1.399 . S
C1778 C1783 1.399 . S
C1779 C1778 1.399 . S
C1779 C1780 1.376 . S
C1780 H1767 0.930 . S
C1780 C1779 1.376 . S
C1780 C1781 1.388 . S
C1781 H1768 0.930 . S
C1781 C1780 1.388 . S
C1781 C1782 1.390 . S
C1782 C1781 1.390 . S
C1782 C1783 1.394 . S
C1782 C1788 1.465 . S
C1783 C1778 1.399 . S
C1783 C1782 1.394 . S
C1783 C1784 1.516 . S
C1784 C1783 1.516 . S
C1784 C1785 1.502 . S
C1784 C1786 1.561 . S
C1784 C1787 1.526 . S
C1785 H1769 0.959 . S
C1785 H1770 0.959 . S
C1785 H1771 0.961 . S
C1785 C1784 1.502 . S
C1786 H1772 0.960 . S
C1786 H1773 0.961 . S
C1786 H1774 0.959 . S
C1786 C1784 1.561 . S
C1787 C1784 1.526 . S
C1787 C1788 1.396 . S
C1787 C1792 1.390 . S
C1788 C1782 1.465 . S
C1788 C1787 1.396 . S
C1788 C1789 1.399 . S
C1789 H1775 0.929 . S
C1789 C1788 1.399 . S
C1789 C1790 1.385 . S
C1790 H1776 0.931 . S
C1790 C1789 1.385 . S
C1790 C1791 1.389 . S
C1791 C1790 1.389 . S
C1791 C1792 1.387 . S
C1792 H1777 0.930 . S
C1792 C1787 1.390 . S
C1792 C1791 1.387 . S
H1793 C1805 0.930 . S
H1794 C1807 0.930 . S
H1795 C1808 0.930 . S
H1796 C1812 0.962 . S
H1797 C1812 0.979 . S
H1798 C1812 0.939 1_655 S
H1799 C1813 0.958 1_655 S
H1800 C1813 0.963 . S
H1801 C1813 0.959 . S
H1802 C1816 0.929 . S
H1803 C1817 0.931 . S
H1804 C1819 0.930 . S
C1805 H1793 0.930 . S
C1805 C1806 1.399 . S
C1805 C1810 1.399 . S
C1806 C1805 1.399 . S
C1806 C1807 1.376 . S
C1807 H1794 0.930 . S
C1807 C1806 1.376 . S
C1807 C1808 1.388 . S
C1808 H1795 0.930 . S
C1808 C1807 1.388 . S
C1808 C1809 1.390 . S
C1809 C1808 1.390 . S
C1809 C1810 1.394 . S
C1809 C1815 1.465 1_655 S
C1810 C1805 1.399 . S
C1810 C1809 1.394 . S
C1810 C1811 1.517 1_655 S
C1811 C1810 1.517 1_455 S
C1811 C1812 1.502 . S
C1811 C1813 1.561 . S
C1811 C1814 1.525 . S
C1812 H1796 0.962 . S
C1812 H1797 0.979 . S
C1812 H1798 0.939 1_455 S
C1812 C1811 1.502 . S
C1813 H1799 0.958 1_455 S
C1813 H1800 0.963 . S
C1813 H1801 0.959 . S
C1813 C1811 1.561 . S
C1814 C1811 1.525 . S
C1814 C1815 1.396 . S
C1814 C1819 1.390 . S
C1815 C1809 1.465 1_455 S
C1815 C1814 1.396 . S
C1815 C1816 1.399 . S
C1816 H1802 0.929 . S
C1816 C1815 1.399 . S
C1816 C1817 1.385 . S
C1817 H1803 0.931 . S
C1817 C1816 1.385 . S
C1817 C1818 1.389 . S
C1818 C1817 1.389 . S
C1818 C1819 1.387 . S
C1819 H1804 0.930 . S
C1819 C1814 1.390 . S
C1819 C1818 1.387 . S
H1820 C1832 0.930 . S
H1821 C1834 0.930 . S
H1822 C1835 0.930 . S
H1823 C1839 0.959 . S
H1824 C1839 0.959 . S
H1825 C1839 0.961 . S
H1826 C1840 0.960 . S
H1827 C1840 0.961 . S
H1828 C1840 0.959 . S
H1829 C1843 0.929 . S
H1830 C1844 0.931 . S
H1831 C1846 0.930 . S
C1832 H1820 0.930 . S
C1832 C1833 1.399 . S
C1832 C1837 1.399 . S
C1833 C1832 1.399 . S
C1833 C1834 1.376 . S
C1834 H1821 0.930 . S
C1834 C1833 1.376 . S
C1834 C1835 1.388 . S
C1835 H1822 0.930 . S
C1835 C1834 1.388 . S
C1835 C1836 1.390 . S
C1836 C1835 1.390 . S
C1836 C1837 1.394 . S
C1836 C1842 1.465 . S
C1837 C1832 1.399 . S
C1837 C1836 1.394 . S
C1837 C1838 1.516 . S
C1838 C1837 1.516 . S
C1838 C1839 1.502 . S
C1838 C1840 1.561 . S
C1838 C1841 1.526 . S
C1839 H1823 0.959 . S
C1839 H1824 0.959 . S
C1839 H1825 0.961 . S
C1839 C1838 1.502 . S
C1840 H1826 0.960 . S
C1840 H1827 0.961 . S
C1840 H1828 0.959 . S
C1840 C1838 1.561 . S
C1841 C1838 1.526 . S
C1841 C1842 1.396 . S
C1841 C1846 1.390 . S
C1842 C1836 1.465 . S
C1842 C1841 1.396 . S
C1842 C1843 1.399 . S
C1843 H1829 0.929 . S
C1843 C1842 1.399 . S
C1843 C1844 1.385 . S
C1844 H1830 0.931 . S
C1844 C1843 1.385 . S
C1844 C1845 1.389 . S
C1845 C1844 1.389 . S
C1845 C1846 1.387 . S
C1846 H1831 0.930 . S
C1846 C1841 1.390 . S
C1846 C1845 1.387 . S
H1847 C1859 0.930 . S
H1848 C1861 0.930 . S
H1849 C1862 0.930 . S
H1850 C1866 0.962 . S
H1851 C1866 0.980 . S
H1852 C1866 0.939 1_655 S
H1853 C1867 0.957 1_655 S
H1854 C1867 0.964 . S
H1855 C1867 0.959 . S
H1856 C1870 0.929 . S
H1857 C1871 0.931 . S
H1858 C1873 0.930 . S
C1859 H1847 0.930 . S
C1859 C1860 1.399 . S
C1859 C1864 1.399 . S
C1860 C1859 1.399 . S
C1860 C1861 1.376 . S
C1861 H1848 0.930 . S
C1861 C1860 1.376 . S
C1861 C1862 1.388 . S
C1862 H1849 0.930 . S
C1862 C1861 1.388 . S
C1862 C1863 1.390 . S
C1863 C1862 1.390 . S
C1863 C1864 1.394 . S
C1863 C1869 1.465 1_655 S
C1864 C1859 1.399 . S
C1864 C1863 1.394 . S
C1864 C1865 1.516 1_655 S
C1865 C1864 1.516 1_455 S
C1865 C1866 1.502 . S
C1865 C1867 1.561 . S
C1865 C1868 1.526 . S
C1866 H1850 0.962 . S
C1866 H1851 0.980 . S
C1866 H1852 0.939 1_455 S
C1866 C1865 1.502 . S
C1867 H1853 0.957 1_455 S
C1867 H1854 0.964 . S
C1867 H1855 0.959 . S
C1867 C1865 1.561 . S
C1868 C1865 1.526 . S
C1868 C1869 1.396 . S
C1868 C1873 1.390 . S
C1869 C1863 1.465 1_455 S
C1869 C1868 1.396 . S
C1869 C1870 1.399 . S
C1870 H1856 0.929 . S
C1870 C1869 1.399 . S
C1870 C1871 1.385 . S
C1871 H1857 0.931 . S
C1871 C1870 1.385 . S
C1871 C1872 1.389 . S
C1872 C1871 1.389 . S
C1872 C1873 1.387 . S
C1873 H1858 0.930 . S
C1873 C1868 1.390 . S
C1873 C1872 1.387 . S
H1874 C1886 0.930 . S
H1875 C1888 0.930 . S
H1876 C1889 0.930 . S
H1877 C1893 0.959 . S
H1878 C1893 0.959 . S
H1879 C1893 0.961 . S
H1880 C1894 0.960 . S
H1881 C1894 0.961 . S
H1882 C1894 0.959 . S
H1883 C1897 0.929 . S
H1884 C1898 0.931 . S
H1885 C1900 0.930 . S
C1886 H1874 0.930 . S
C1886 C1887 1.399 . S
C1886 C1891 1.399 . S
C1887 C1886 1.399 . S
C1887 C1888 1.376 . S
C1888 H1875 0.930 . S
C1888 C1887 1.376 . S
C1888 C1889 1.388 . S
C1889 H1876 0.930 . S
C1889 C1888 1.388 . S
C1889 C1890 1.390 . S
C1890 C1889 1.390 . S
C1890 C1891 1.394 . S
C1890 C1896 1.465 . S
C1891 C1886 1.399 . S
C1891 C1890 1.394 . S
C1891 C1892 1.516 . S
C1892 C1891 1.516 . S
C1892 C1893 1.502 . S
C1892 C1894 1.561 . S
C1892 C1895 1.526 . S
C1893 H1877 0.959 . S
C1893 H1878 0.959 . S
C1893 H1879 0.961 . S
C1893 C1892 1.502 . S
C1894 H1880 0.960 . S
C1894 H1881 0.961 . S
C1894 H1882 0.959 . S
C1894 C1892 1.561 . S
C1895 C1892 1.526 . S
C1895 C1896 1.396 . S
C1895 C1900 1.390 . S
C1896 C1890 1.465 . S
C1896 C1895 1.396 . S
C1896 C1897 1.399 . S
C1897 H1883 0.929 . S
C1897 C1896 1.399 . S
C1897 C1898 1.385 . S
C1898 H1884 0.931 . S
C1898 C1897 1.385 . S
C1898 C1899 1.389 . S
C1899 C1898 1.389 . S
C1899 C1900 1.387 . S
C1900 H1885 0.930 . S
C1900 C1895 1.390 . S
C1900 C1899 1.387 . S
H1901 C1913 0.930 . S
H1902 C1915 0.930 . S
H1903 C1916 0.930 . S
H1904 C1920 0.959 . S
H1905 C1920 0.959 . S
H1906 C1920 0.961 . S
H1907 C1921 0.960 . S
H1908 C1921 0.961 . S
H1909 C1921 0.959 . S
H1910 C1924 0.929 . S
H1911 C1925 0.931 . S
H1912 C1927 0.930 . S
C1913 H1901 0.930 . S
C1913 C1914 1.399 . S
C1913 C1918 1.399 . S
C1914 C1913 1.399 . S
C1914 C1915 1.376 . S
C1915 H1902 0.930 . S
C1915 C1914 1.376 . S
C1915 C1916 1.388 . S
C1916 H1903 0.930 . S
C1916 C1915 1.388 . S
C1916 C1917 1.390 . S
C1917 C1916 1.390 . S
C1917 C1918 1.394 . S
C1917 C1923 1.465 . S
C1918 C1913 1.399 . S
C1918 C1917 1.394 . S
C1918 C1919 1.516 . S
C1919 C1918 1.516 . S
C1919 C1920 1.502 . S
C1919 C1921 1.561 . S
C1919 C1922 1.526 . S
C1920 H1904 0.959 . S
C1920 H1905 0.959 . S
C1920 H1906 0.961 . S
C1920 C1919 1.502 . S
C1921 H1907 0.960 . S
C1921 H1908 0.961 . S
C1921 H1909 0.959 . S
C1921 C1919 1.561 . S
C1922 C1919 1.526 . S
C1922 C1923 1.396 . S
C1922 C1927 1.390 . S
C1923 C1917 1.465 . S
C1923 C1922 1.396 . S
C1923 C1924 1.399 . S
C1924 H1910 0.929 . S
C1924 C1923 1.399 . S
C1924 C1925 1.385 . S
C1925 H1911 0.931 . S
C1925 C1924 1.385 . S
C1925 C1926 1.389 . S
C1926 C1925 1.389 . S
C1926 C1927 1.387 . S
C1927 H1912 0.930 . S
C1927 C1922 1.390 . S
C1927 C1926 1.387 . S
H1928 C1940 0.930 . S
H1929 C1942 0.930 . S
H1930 C1943 0.930 . S
H1931 C1947 0.959 . S
H1932 C1947 0.959 . S
H1933 C1947 0.961 . S
H1934 C1948 0.960 . S
H1935 C1948 0.961 . S
H1936 C1948 0.959 . S
H1937 C1951 0.929 . S
H1938 C1952 0.931 . S
H1939 C1954 0.930 . S
C1940 H1928 0.930 . S
C1940 C1941 1.399 . S
C1940 C1945 1.399 . S
C1941 C1940 1.399 . S
C1941 C1942 1.376 . S
C1942 H1929 0.930 . S
C1942 C1941 1.376 . S
C1942 C1943 1.388 . S
C1943 H1930 0.930 . S
C1943 C1942 1.388 . S
C1943 C1944 1.390 . S
C1944 C1943 1.390 . S
C1944 C1945 1.394 . S
C1944 C1950 1.465 . S
C1945 C1940 1.399 . S
C1945 C1944 1.394 . S
C1945 C1946 1.516 . S
C1946 C1945 1.516 . S
C1946 C1947 1.502 . S
C1946 C1948 1.561 . S
C1946 C1949 1.526 . S
C1947 H1931 0.959 . S
C1947 H1932 0.959 . S
C1947 H1933 0.961 . S
C1947 C1946 1.502 . S
C1948 H1934 0.960 . S
C1948 H1935 0.961 . S
C1948 H1936 0.959 . S
C1948 C1946 1.561 . S
C1949 C1946 1.526 . S
C1949 C1950 1.396 . S
C1949 C1954 1.390 . S
C1950 C1944 1.465 . S
C1950 C1949 1.396 . S
C1950 C1951 1.399 . S
C1951 H1937 0.929 . S
C1951 C1950 1.399 . S
C1951 C1952 1.385 . S
C1952 H1938 0.931 . S
C1952 C1951 1.385 . S
C1952 C1953 1.389 . S
C1953 C1952 1.389 . S
C1953 C1954 1.387 . S
C1954 H1939 0.930 . S
C1954 C1949 1.390 . S
C1954 C1953 1.387 . S
H1955 C1967 0.930 . S
H1956 C1969 0.930 . S
H1957 C1970 0.930 . S
H1958 C1974 0.959 . S
H1959 C1974 0.959 . S
H1960 C1974 0.961 . S
H1961 C1975 0.960 . S
H1962 C1975 0.961 . S
H1963 C1975 0.959 . S
H1964 C1978 0.929 . S
H1965 C1979 0.931 . S
H1966 C1981 0.930 . S
C1967 H1955 0.930 . S
C1967 C1968 1.399 . S
C1967 C1972 1.399 . S
C1968 C1967 1.399 . S
C1968 C1969 1.376 . S
C1969 H1956 0.930 . S
C1969 C1968 1.376 . S
C1969 C1970 1.388 . S
C1970 H1957 0.930 . S
C1970 C1969 1.388 . S
C1970 C1971 1.390 . S
C1971 C1970 1.390 . S
C1971 C1972 1.394 . S
C1971 C1977 1.465 . S
C1972 C1967 1.399 . S
C1972 C1971 1.394 . S
C1972 C1973 1.516 . S
C1973 C1972 1.516 . S
C1973 C1974 1.502 . S
C1973 C1975 1.561 . S
C1973 C1976 1.526 . S
C1974 H1958 0.959 . S
C1974 H1959 0.959 . S
C1974 H1960 0.961 . S
C1974 C1973 1.502 . S
C1975 H1961 0.960 . S
C1975 H1962 0.961 . S
C1975 H1963 0.959 . S
C1975 C1973 1.561 . S
C1976 C1973 1.526 . S
C1976 C1977 1.396 . S
C1976 C1981 1.390 . S
C1977 C1971 1.465 . S
C1977 C1976 1.396 . S
C1977 C1978 1.399 . S
C1978 H1964 0.929 . S
C1978 C1977 1.399 . S
C1978 C1979 1.385 . S
C1979 H1965 0.931 . S
C1979 C1978 1.385 . S
C1979 C1980 1.389 . S
C1980 C1979 1.389 . S
C1980 C1981 1.387 . S
C1981 H1966 0.930 . S
C1981 C1976 1.390 . S
C1981 C1980 1.387 . S
H1982 C1994 0.930 . S
H1983 C1996 0.930 . S
H1984 C1997 0.930 . S
H1985 C2001 0.959 . S
H1986 C2001 0.959 . S
H1987 C2001 0.961 . S
H1988 C2002 0.960 . S
H1989 C2002 0.961 . S
H1990 C2002 0.959 . S
H1991 C2005 0.929 . S
H1992 C2006 0.931 . S
H1993 C2008 0.930 . S
C1994 H1982 0.930 . S
C1994 C1995 1.399 . S
C1994 C1999 1.399 . S
C1995 C1994 1.399 . S
C1995 C1996 1.376 . S
C1996 H1983 0.930 . S
C1996 C1995 1.376 . S
C1996 C1997 1.388 . S
C1997 H1984 0.930 . S
C1997 C1996 1.388 . S
C1997 C1998 1.390 . S
C1998 C1997 1.390 . S
C1998 C1999 1.394 . S
C1998 C2004 1.465 . S
C1999 C1994 1.399 . S
C1999 C1998 1.394 . S
C1999 C2000 1.516 . S
C2000 C1999 1.516 . S
C2000 C2001 1.502 . S
C2000 C2002 1.561 . S
C2000 C2003 1.526 . S
C2001 H1985 0.959 . S
C2001 H1986 0.959 . S
C2001 H1987 0.961 . S
C2001 C2000 1.502 . S
C2002 H1988 0.960 . S
C2002 H1989 0.961 . S
C2002 H1990 0.959 . S
C2002 C2000 1.561 . S
C2003 C2000 1.526 . S
C2003 C2004 1.396 . S
C2003 C2008 1.390 . S
C2004 C1998 1.465 . S
C2004 C2003 1.396 . S
C2004 C2005 1.399 . S
C2005 H1991 0.929 . S
C2005 C2004 1.399 . S
C2005 C2006 1.385 . S
C2006 H1992 0.931 . S
C2006 C2005 1.385 . S
C2006 C2007 1.389 . S
C2007 C2006 1.389 . S
C2007 C2008 1.387 . S
C2008 H1993 0.930 . S
C2008 C2003 1.390 . S
C2008 C2007 1.387 . S
H2009 C2021 0.930 . S
H2010 C2023 0.930 . S
H2011 C2024 0.930 . S
H2012 C2028 0.959 . S
H2013 C2028 0.959 . S
H2014 C2028 0.961 . S
H2015 C2029 0.960 . S
H2016 C2029 0.961 . S
H2017 C2029 0.959 . S
H2018 C2032 0.929 . S
H2019 C2033 0.931 . S
H2020 C2035 0.930 . S
C2021 H2009 0.930 . S
C2021 C2022 1.399 . S
C2021 C2026 1.399 . S
C2022 C2021 1.399 . S
C2022 C2023 1.376 . S
C2023 H2010 0.930 . S
C2023 C2022 1.376 . S
C2023 C2024 1.388 . S
C2024 H2011 0.930 . S
C2024 C2023 1.388 . S
C2024 C2025 1.390 . S
C2025 C2024 1.390 . S
C2025 C2026 1.394 . S
C2025 C2031 1.465 . S
C2026 C2021 1.399 . S
C2026 C2025 1.394 . S
C2026 C2027 1.516 . S
C2027 C2026 1.516 . S
C2027 C2028 1.502 . S
C2027 C2029 1.561 . S
C2027 C2030 1.526 . S
C2028 H2012 0.959 . S
C2028 H2013 0.959 . S
C2028 H2014 0.961 . S
C2028 C2027 1.502 . S
C2029 H2015 0.960 . S
C2029 H2016 0.961 . S
C2029 H2017 0.959 . S
C2029 C2027 1.561 . S
C2030 C2027 1.526 . S
C2030 C2031 1.396 . S
C2030 C2035 1.390 . S
C2031 C2025 1.465 . S
C2031 C2030 1.396 . S
C2031 C2032 1.399 . S
C2032 H2018 0.929 . S
C2032 C2031 1.399 . S
C2032 C2033 1.385 . S
C2033 H2019 0.931 . S
C2033 C2032 1.385 . S
C2033 C2034 1.389 . S
C2034 C2033 1.389 . S
C2034 C2035 1.387 . S
C2035 H2020 0.930 . S
C2035 C2030 1.390 . S
C2035 C2034 1.387 . S
H2036 C2048 0.930 . S
H2037 C2050 0.930 . S
H2038 C2051 0.930 . S
H2039 C2055 0.962 . S
H2040 C2055 0.980 . S
H2041 C2055 0.939 1_655 S
H2042 C2056 0.957 1_655 S
H2043 C2056 0.964 . S
H2044 C2056 0.959 . S
H2045 C2059 0.929 . S
H2046 C2060 0.931 . S
H2047 C2062 0.930 . S
C2048 H2036 0.930 . S
C2048 C2049 1.399 . S
C2048 C2053 1.399 . S
C2049 C2048 1.399 . S
C2049 C2050 1.376 . S
C2050 H2037 0.930 . S
C2050 C2049 1.376 . S
C2050 C2051 1.388 . S
C2051 H2038 0.930 . S
C2051 C2050 1.388 . S
C2051 C2052 1.390 . S
C2052 C2051 1.390 . S
C2052 C2053 1.394 . S
C2052 C2058 1.465 1_655 S
C2053 C2048 1.399 . S
C2053 C2052 1.394 . S
C2053 C2054 1.516 1_655 S
C2054 C2053 1.516 1_455 S
C2054 C2055 1.502 . S
C2054 C2056 1.561 . S
C2054 C2057 1.525 . S
C2055 H2039 0.962 . S
C2055 H2040 0.980 . S
C2055 H2041 0.939 1_455 S
C2055 C2054 1.502 . S
C2056 H2042 0.957 1_455 S
C2056 H2043 0.964 . S
C2056 H2044 0.959 . S
C2056 C2054 1.561 . S
C2057 C2054 1.525 . S
C2057 C2058 1.396 . S
C2057 C2062 1.390 . S
C2058 C2052 1.465 1_455 S
C2058 C2057 1.396 . S
C2058 C2059 1.399 . S
C2059 H2045 0.929 . S
C2059 C2058 1.399 . S
C2059 C2060 1.385 . S
C2060 H2046 0.931 . S
C2060 C2059 1.385 . S
C2060 C2061 1.389 . S
C2061 C2060 1.389 . S
C2061 C2062 1.387 . S
C2062 H2047 0.930 . S
C2062 C2057 1.390 . S
C2062 C2061 1.387 . S
H2063 C2075 0.930 . S
H2064 C2077 0.930 . S
H2065 C2078 0.930 . S
H2066 C2082 0.959 . S
H2067 C2082 0.959 . S
H2068 C2082 0.961 . S
H2069 C2083 0.960 . S
H2070 C2083 0.961 . S
H2071 C2083 0.959 . S
H2072 C2086 0.929 . S
H2073 C2087 0.931 . S
H2074 C2089 0.930 . S
C2075 H2063 0.930 . S
C2075 C2076 1.399 . S
C2075 C2080 1.399 . S
C2076 C2075 1.399 . S
C2076 C2077 1.376 . S
C2077 H2064 0.930 . S
C2077 C2076 1.376 . S
C2077 C2078 1.388 . S
C2078 H2065 0.930 . S
C2078 C2077 1.388 . S
C2078 C2079 1.390 . S
C2079 C2078 1.390 . S
C2079 C2080 1.394 . S
C2079 C2085 1.465 . S
C2080 C2075 1.399 . S
C2080 C2079 1.394 . S
C2080 C2081 1.516 . S
C2081 C2080 1.516 . S
C2081 C2082 1.502 . S
C2081 C2083 1.561 . S
C2081 C2084 1.526 . S
C2082 H2066 0.959 . S
C2082 H2067 0.959 . S
C2082 H2068 0.961 . S
C2082 C2081 1.502 . S
C2083 H2069 0.960 . S
C2083 H2070 0.961 . S
C2083 H2071 0.959 . S
C2083 C2081 1.561 . S
C2084 C2081 1.526 . S
C2084 C2085 1.396 . S
C2084 C2089 1.390 . S
C2085 C2079 1.465 . S
C2085 C2084 1.396 . S
C2085 C2086 1.399 . S
C2086 H2072 0.929 . S
C2086 C2085 1.399 . S
C2086 C2087 1.385 . S
C2087 H2073 0.931 . S
C2087 C2086 1.385 . S
C2087 C2088 1.389 . S
C2088 C2087 1.389 . S
C2088 C2089 1.387 . S
C2089 H2074 0.930 . S
C2089 C2084 1.390 . S
C2089 C2088 1.387 . S
H2090 C2102 0.930 . S
H2091 C2104 0.930 . S
H2092 C2105 0.930 . S
H2093 C2109 0.959 . S
H2094 C2109 0.959 . S
H2095 C2109 0.961 . S
H2096 C2110 0.960 . S
H2097 C2110 0.961 . S
H2098 C2110 0.959 . S
H2099 C2113 0.929 . S
H2100 C2114 0.931 . S
H2101 C2116 0.930 . S
C2102 H2090 0.930 . S
C2102 C2103 1.399 . S
C2102 C2107 1.399 . S
C2103 C2102 1.399 . S
C2103 C2104 1.376 . S
C2104 H2091 0.930 . S
C2104 C2103 1.376 . S
C2104 C2105 1.388 . S
C2105 H2092 0.930 . S
C2105 C2104 1.388 . S
C2105 C2106 1.390 . S
C2106 C2105 1.390 . S
C2106 C2107 1.394 . S
C2106 C2112 1.465 . S
C2107 C2102 1.399 . S
C2107 C2106 1.394 . S
C2107 C2108 1.516 . S
C2108 C2107 1.516 . S
C2108 C2109 1.502 . S
C2108 C2110 1.561 . S
C2108 C2111 1.526 . S
C2109 H2093 0.959 . S
C2109 H2094 0.959 . S
C2109 H2095 0.961 . S
C2109 C2108 1.502 . S
C2110 H2096 0.960 . S
C2110 H2097 0.961 . S
C2110 H2098 0.959 . S
C2110 C2108 1.561 . S
C2111 C2108 1.526 . S
C2111 C2112 1.396 . S
C2111 C2116 1.390 . S
C2112 C2106 1.465 . S
C2112 C2111 1.396 . S
C2112 C2113 1.399 . S
C2113 H2099 0.929 . S
C2113 C2112 1.399 . S
C2113 C2114 1.385 . S
C2114 H2100 0.931 . S
C2114 C2113 1.385 . S
C2114 C2115 1.389 . S
C2115 C2114 1.389 . S
C2115 C2116 1.387 . S
C2116 H2101 0.930 . S
C2116 C2111 1.390 . S
C2116 C2115 1.387 . S
H2117 C2129 0.930 . S
H2118 C2131 0.930 . S
H2119 C2132 0.930 . S
H2120 C2136 0.962 . S
H2121 C2136 0.979 . S
H2122 C2136 0.939 1_655 S
H2123 C2137 0.958 1_655 S
H2124 C2137 0.963 . S
H2125 C2137 0.959 . S
H2126 C2140 0.929 . S
H2127 C2141 0.931 . S
H2128 C2143 0.930 . S
C2129 H2117 0.930 . S
C2129 C2130 1.399 . S
C2129 C2134 1.399 . S
C2130 C2129 1.399 . S
C2130 C2131 1.376 . S
C2131 H2118 0.930 . S
C2131 C2130 1.376 . S
C2131 C2132 1.388 . S
C2132 H2119 0.930 . S
C2132 C2131 1.388 . S
C2132 C2133 1.390 . S
C2133 C2132 1.390 . S
C2133 C2134 1.394 . S
C2133 C2139 1.465 1_655 S
C2134 C2129 1.399 . S
C2134 C2133 1.394 . S
C2134 C2135 1.517 1_655 S
C2135 C2134 1.517 1_455 S
C2135 C2136 1.502 . S
C2135 C2137 1.561 . S
C2135 C2138 1.525 . S
C2136 H2120 0.962 . S
C2136 H2121 0.979 . S
C2136 H2122 0.939 1_455 S
C2136 C2135 1.502 . S
C2137 H2123 0.958 1_455 S
C2137 H2124 0.963 . S
C2137 H2125 0.959 . S
C2137 C2135 1.561 . S
C2138 C2135 1.525 . S
C2138 C2139 1.396 . S
C2138 C2143 1.390 . S
C2139 C2133 1.465 1_455 S
C2139 C2138 1.396 . S
C2139 C2140 1.399 . S
C2140 H2126 0.929 . S
C2140 C2139 1.399 . S
C2140 C2141 1.385 . S
C2141 H2127 0.931 . S
C2141 C2140 1.385 . S
C2141 C2142 1.389 . S
C2142 C2141 1.389 . S
C2142 C2143 1.387 . S
C2143 H2128 0.930 . S
C2143 C2138 1.390 . S
C2143 C2142 1.387 . S
C429 C309 1.371 . S
C441 C10 1.365 . S
C456 C270 1.429 . S
C468 C23 1.365 . S
C483 C283 1.354 . S
C495 C36 1.391 . S
C510 C296 1.423 . S
C522 C49 1.361 . S
C537 C62 1.428 . S
C549 C231 1.364 . S
C564 C244 1.441 . S
C576 C75 1.381 . S
C591 C88 1.425 . S
C603 C257 1.362 . S
C618 C101 1.366 . S
C630 C218 1.370 . S
C645 C413 1.377 . S
C657 C114 1.419 . S
C672 C127 1.375 . S
C684 C374 1.417 . S
C699 C140 1.361 . S
C711 C387 1.358 . S
C726 C153 1.372 . S
C738 C400 1.414 . S
C753 C166 1.437 . S
C765 C335 1.441 . S
C780 C179 1.430 . S
C792 C348 1.389 . S
C807 C192 1.436 . S
C819 C361 1.441 . S
C834 C205 1.371 . S
C846 C322 1.413 . S
C861 C8 1.502 . S
C873 C164 1.507 . S
C888 C385 1.502 . S
C900 C21 1.494 . S
C915 C34 1.473 . S
C927 C190 1.482 . S
C942 C411 1.503 . S
C954 C47 1.496 . S
C969 C112 1.451 . S
C981 C60 1.457 . S
C996 C73 1.462 . S
C1008 C333 1.471 . S
C1023 C86 1.491 . S
C1035 C138 1.482 . S
C1050 C99 1.461 . S
C1062 C359 1.470 . S
C1077 C281 1.461 . S
C1089 C125 1.469 . S
C1104 C307 1.462 . S
C1116 C151 1.471 . S
C1131 C177 1.457 . S
C1143 C229 1.465 . S
C1158 C255 1.496 . S
C1170 C203 1.488 . S
C1185 C372 1.455 . S
C1197 C216 1.462 . S
C1212 C242 1.496 . S
C1224 C398 1.487 . S
C1239 C320 1.450 . S
C1251 C268 1.454 . S
C1266 C346 1.508 . S
C1278 C294 1.503 . S
C1293 C52 1.108 . S
C1305 C0 1.173 . S
C1320 C65 1.136 . S
C1332 C13 1.096 . S
C1347 C26 1.110 . S
C1359 C78 1.173 . S
C1374 C39 1.171 . S
C1386 C91 1.125 . S
C1401 C156 1.153 . S
C1413 C104 1.128 . S
C1428 C169 1.141 . S
C1440 C117 1.110 . S
C1455 C182 1.091 . S
C1467 C130 1.168 . S
C1482 C143 1.156 . S
C1494 C195 1.099 . S
C1509 C208 1.118 . S
C1521 C260 1.172 . S
C1536 C221 1.096 . S
C1548 C273 1.135 . S
C1563 C234 1.112 . S
C1575 C286 1.173 . S
C1590 C247 1.096 . S
C1602 C299 1.168 . S
C1617 C364 1.173 . S
C1629 C312 1.098 . S
C1644 C377 1.117 . S
C1656 C325 1.161 . S
C1671 C390 1.167 . S
C1683 C338 1.111 . S
C1698 C403 1.137 . S
C1710 C351 1.113 . S
C1725 C395 1.252 . S
C1737 C5 1.268 . S
C1752 C18 1.233 . S
C1764 C200 1.248 . S
C1779 C369 1.251 . S
C1791 C31 1.236 . S
C1806 C44 1.265 . S
C1818 C174 1.250 . S
C1833 C343 1.285 . S
C1845 C57 1.297 . S
C1860 C70 1.223 . S
C1872 C148 1.215 . S
C1887 C83 1.208 . S
C1899 C317 1.211 . S
C1914 C122 1.291 . S
C1926 C96 1.276 . S
C1941 C109 1.260 . S
C1953 C291 1.244 . S
C1968 C265 1.314 . S
C1980 C135 1.312 . S
C1995 C161 1.257 . S
C2007 C239 1.242 . S
C2022 C187 1.253 . S
C2034 C213 1.238 . S
C2049 C408 1.272 . S
C2061 C226 1.287 . S
C2076 C252 1.306 . S
C2088 C382 1.295 . S
C2103 C278 1.208 . S
C2115 C356 1.211 . S
C2130 C330 1.260 . S
C2142 C304 1.245 . S
