# Generated by pormake.
# Topology wji, (4)-cn, num edge types: 1
# Building blocks:
#     Node 0, Type 0, BuildingBlock: NAHDIM_clean_sbu_0, # of connection points: 4
#     Node 1, Type 0, BuildingBlock: NAHDIM_clean_sbu_0, # of connection points: 4
#     Node 2, Type 0, BuildingBlock: NAHDIM_clean_sbu_0, # of connection points: 4
#     Node 3, Type 0, BuildingBlock: NAHDIM_clean_sbu_0, # of connection points: 4
#     Node 4, Type 0, BuildingBlock: NAHDIM_clean_sbu_0, # of connection points: 4
#     Node 5, Type 0, BuildingBlock: NAHDIM_clean_sbu_0, # of connection points: 4
#     Node 6, Type 0, BuildingBlock: NAHDIM_clean_sbu_0, # of connection points: 4
#     Node 7, Type 0, BuildingBlock: NAHDIM_clean_sbu_0, # of connection points: 4
#     Node 8, Type 0, BuildingBlock: NAHDIM_clean_sbu_0, # of connection points: 4
#     Node 9, Type 0, BuildingBlock: NAHDIM_clean_sbu_0, # of connection points: 4
#     Node 10, Type 0, BuildingBlock: NAHDIM_clean_sbu_0, # of connection points: 4
#     Node 11, Type 0, BuildingBlock: NAHDIM_clean_sbu_0, # of connection points: 4
#     Edge 12, Type (0, 0), BuildingBlock: UVAHIK_clean_linker_0, # of connection points: 2
#     Edge 13, Type (0, 0), BuildingBlock: UVAHIK_clean_linker_0, # of connection points: 2
#     Edge 14, Type (0, 0), BuildingBlock: UVAHIK_clean_linker_0, # of connection points: 2
#     Edge 15, Type (0, 0), BuildingBlock: UVAHIK_clean_linker_0, # of connection points: 2
#     Edge 16, Type (0, 0), BuildingBlock: UVAHIK_clean_linker_0, # of connection points: 2
#     Edge 17, Type (0, 0), BuildingBlock: UVAHIK_clean_linker_0, # of connection points: 2
#     Edge 18, Type (0, 0), BuildingBlock: UVAHIK_clean_linker_0, # of connection points: 2
#     Edge 19, Type (0, 0), BuildingBlock: UVAHIK_clean_linker_0, # of connection points: 2
#     Edge 20, Type (0, 0), BuildingBlock: UVAHIK_clean_linker_0, # of connection points: 2
#     Edge 21, Type (0, 0), BuildingBlock: UVAHIK_clean_linker_0, # of connection points: 2
#     Edge 22, Type (0, 0), BuildingBlock: UVAHIK_clean_linker_0, # of connection points: 2
#     Edge 23, Type (0, 0), BuildingBlock: UVAHIK_clean_linker_0, # of connection points: 2
#     Edge 24, Type (0, 0), BuildingBlock: UVAHIK_clean_linker_0, # of connection points: 2
#     Edge 25, Type (0, 0), BuildingBlock: UVAHIK_clean_linker_0, # of connection points: 2
#     Edge 26, Type (0, 0), BuildingBlock: UVAHIK_clean_linker_0, # of connection points: 2
#     Edge 27, Type (0, 0), BuildingBlock: UVAHIK_clean_linker_0, # of connection points: 2
#     Edge 28, Type (0, 0), BuildingBlock: UVAHIK_clean_linker_0, # of connection points: 2
#     Edge 29, Type (0, 0), BuildingBlock: UVAHIK_clean_linker_0, # of connection points: 2
#     Edge 30, Type (0, 0), BuildingBlock: UVAHIK_clean_linker_0, # of connection points: 2
#     Edge 31, Type (0, 0), BuildingBlock: UVAHIK_clean_linker_0, # of connection points: 2
#     Edge 32, Type (0, 0), BuildingBlock: UVAHIK_clean_linker_0, # of connection points: 2
#     Edge 33, Type (0, 0), BuildingBlock: UVAHIK_clean_linker_0, # of connection points: 2
#     Edge 34, Type (0, 0), BuildingBlock: UVAHIK_clean_linker_0, # of connection points: 2
#     Edge 35, Type (0, 0), BuildingBlock: UVAHIK_clean_linker_0, # of connection points: 2
# Relax obj value: 0.157
# Max RMSD: 0.089
# Mean RMSD: 0.088
data_MOF--net-wji--node1-NAHDIM_clean_sbu_0--edge1-UVAHIK_clean_linker_0
_symmetry_space_group_name_H-M    P1
_symmetry_Int_Tables_number       1
_symmetry_cell_setting            triclinic
loop_
_symmetry_equiv_pos_as_xyz
'x, y, z'
_cell_length_a     73.978115
_cell_length_b     74.066237
_cell_length_c     29.728249
_cell_angle_alpha  90.045347
_cell_angle_beta   90.006563
_cell_angle_gamma 120.01235
loop_
_atom_site_label
_atom_site_type_symbol
_atom_site_fract_x
_atom_site_fract_y
_atom_site_fract_z
_atom_type_partial_charge
C0 C 0.41212 0.28902 0.48503 0.0
O1 O 0.41472 0.30403 0.51251 0.0
O2 O 0.44267 0.34113 0.41602 0.0
Zn3 Zn 0.41272 0.31844 0.42412 0.0
O4 O 0.39914 0.32691 0.47209 0.0
C5 C 0.39687 0.33292 0.3592 0.0
O6 O 0.40692 0.34875 0.3868 0.0
O7 O 0.41081 0.29136 0.44299 0.0
C8 C 0.409 0.34283 0.49711 0.0
O9 O 0.42928 0.35475 0.49232 0.0
C10 C 0.45833 0.3418 0.43529 0.0
O11 O 0.45556 0.32649 0.46192 0.0
O12 O 0.39715 0.31618 0.36698 0.0
C13 C 0.11606 0.40754 0.60711 0.0
O14 O 0.09991 0.38956 0.59558 0.0
O15 O 0.09525 0.4527 0.56958 0.0
Zn16 Zn 0.08872 0.42378 0.58589 0.0
O17 O 0.07082 0.41525 0.6414 0.0
C18 C 0.05443 0.40086 0.52995 0.0
O19 O 0.048 0.41102 0.55552 0.0
O20 O 0.11508 0.42407 0.60269 0.0
C21 C 0.05946 0.39622 0.65228 0.0
O22 O 0.05905 0.38169 0.6262 0.0
C23 C 0.10151 0.46625 0.60074 0.0
O24 O 0.10403 0.46094 0.64143 0.0
O25 O 0.07275 0.40386 0.53578 0.0
C26 C 0.71964 0.14173 0.73286 0.0
O27 O 0.70309 0.14366 0.72715 0.0
O28 O 0.66796 0.10456 0.69921 0.0
Zn29 Zn 0.69228 0.09942 0.70203 0.0
O30 O 0.68575 0.07758 0.74866 0.0
C31 C 0.6917 0.09424 0.60613 0.0
O32 O 0.68846 0.11014 0.60632 0.0
O33 O 0.71887 0.12481 0.72154 0.0
C34 C 0.66813 0.06094 0.74922 0.0
O35 O 0.65425 0.05801 0.71823 0.0
C36 C 0.65889 0.10514 0.73505 0.0
O37 O 0.66618 0.10336 0.7741 0.0
O38 O 0.69487 0.08777 0.64318 0.0
C39 C 0.57139 0.69035 0.99192 0.0
O40 O 0.56523 0.67402 0.01807 0.0
O41 O 0.54414 0.63972 0.92839 0.0
Zn42 Zn 0.5743 0.66196 0.93551 0.0
O43 O 0.58733 0.65515 0.9872 0.0
C44 C 0.596 0.64977 0.8773 0.0
O45 O 0.59067 0.63605 0.90986 0.0
O46 O 0.57613 0.68924 0.95127 0.0
C47 C 0.60685 0.66629 0.99395 0.0
O48 O 0.61818 0.68172 0.96633 0.0
C49 C 0.53394 0.62753 0.9605 0.0
O50 O 0.54333 0.62933 -0.00088 0.0
O51 O 0.59027 0.66332 0.87937 0.0
C52 C 0.87336 0.59175 0.09076 0.0
O53 O 0.89256 0.60636 0.1001 0.0
O54 O 0.88622 0.54197 0.04985 0.0
Zn55 Zn 0.89539 0.57182 0.06434 0.0
O56 O 0.9083 0.57832 0.1261 0.0
C57 C 0.93536 0.59629 0.0252 0.0
O58 O 0.94005 0.58816 0.05935 0.0
O59 O 0.8705 0.5755 0.07009 0.0
C60 C 0.91607 0.56859 0.14599 0.0
O61 O 0.91667 0.55322 0.1253 0.0
C62 C 0.87352 0.52811 0.0768 0.0
O63 O 0.86632 0.53383 0.11109 0.0
O64 O 0.91643 0.59143 0.01922 0.0
C65 C 0.28181 0.86351 0.26563 0.0
O66 O 0.29958 0.86668 0.28258 0.0
O67 O 0.33209 0.89619 0.21684 0.0
Zn68 Zn 0.3098 0.90311 0.23364 0.0
O69 O 0.31689 0.91587 0.29523 0.0
C70 C 0.32173 0.94269 0.1935 0.0
O71 O 0.33416 0.94931 0.22862 0.0
O72 O 0.28199 0.87719 0.23958 0.0
C73 C 0.30754 0.92404 0.31503 0.0
O74 O 0.29222 0.92481 0.29446 0.0
C75 C 0.35053 0.90909 0.22975 0.0
O76 O 0.35389 0.92599 0.25123 0.0
O77 O 0.30929 0.92323 0.18864 0.0
C78 C 0.70923 0.56419 0.38636 0.0
O79 O 0.69035 0.55161 0.37091 0.0
O80 O 0.66096 0.54701 0.43806 0.0
Zn81 Zn 0.68489 0.57659 0.43185 0.0
O82 O 0.67995 0.5893 0.37709 0.0
C83 C 0.67352 0.59994 0.48832 0.0
O84 O 0.66104 0.59648 0.45395 0.0
O85 O 0.71147 0.5767 0.41801 0.0
C86 C 0.6893 0.60873 0.36907 0.0
O87 O 0.7028 0.62186 0.3983 0.0
C88 C 0.64353 0.54205 0.41982 0.0
O89 O 0.64139 0.55641 0.39859 0.0
O90 O 0.68613 0.59298 0.48709 0.0
C91 C 0.10353 0.72058 0.52087 0.0
O92 O 0.0844 0.71634 0.51196 0.0
O93 O 0.09033 0.66186 0.58259 0.0
Zn94 Zn 0.08207 0.68366 0.57452 0.0
O95 O 0.05877 0.6724 0.5298 0.0
C96 C 0.08018 0.6891 0.66994 0.0
O97 O 0.09748 0.68821 0.67004 0.0
O98 O 0.10638 0.70932 0.54896 0.0
C99 C 0.04182 0.6556 0.53744 0.0
O100 O 0.03942 0.64592 0.57589 0.0
C101 C 0.09339 0.65408 0.54728 0.0
O102 O 0.09155 0.66099 0.50781 0.0
O103 O 0.07153 0.68849 0.63265 0.0
C104 C 0.41801 0.11442 0.67957 0.0
O105 O 0.41638 0.09918 0.65409 0.0
O106 O 0.4497 0.09366 0.75107 0.0
Zn107 Zn 0.42023 0.0884 0.74729 0.0
O108 O 0.40334 0.06422 0.70616 0.0
C109 C 0.38679 0.07108 0.80989 0.0
O110 O 0.37608 0.06759 0.77246 0.0
O111 O 0.42001 0.11351 0.72188 0.0
C112 C 0.40444 0.04767 0.70454 0.0
O113 O 0.41746 0.04564 0.73126 0.0
C114 C 0.45946 0.09446 0.71525 0.0
O115 O 0.45014 0.09203 0.67628 0.0
O116 O 0.40661 0.0808 0.80803 0.0
C117 C 0.27086 0.41737 0.91218 0.0
O118 O 0.28407 0.4354 0.9304 0.0
O119 O 0.32373 0.43714 0.94275 0.0
Zn120 Zn 0.30279 0.40686 0.93309 0.0
O121 O 0.31468 0.39737 0.88396 0.0
C122 C 0.29806 0.37297 0.98991 0.0
O123 O 0.29417 0.36274 0.95173 0.0
O124 O 0.27517 0.40278 0.91216 0.0
C125 C 0.30363 0.38426 0.85394 0.0
O126 O 0.28321 0.37563 0.85542 0.0
C127 C 0.33106 0.44916 0.90895 0.0
O128 O 0.32368 0.44179 0.86873 0.0
O129 O 0.30097 0.3914 0.98988 0.0
C130 C 0.87351 0.27235 0.05622 0.0
O131 O 0.89249 0.27521 0.05351 0.0
O132 O 0.88642 0.33362 0.10447 0.0
Zn133 Zn 0.89504 0.3119 0.10033 0.0
O134 O 0.91753 0.32115 0.05366 0.0
C135 C 0.92027 0.30388 0.16136 0.0
O136 O 0.92629 0.29909 0.12385 0.0
O137 O 0.87057 0.28545 0.07789 0.0
C138 C 0.93247 0.3398 0.05043 0.0
O139 O 0.93378 0.35384 0.07933 0.0
C140 C 0.88321 0.34048 0.06793 0.0
O141 O 0.88534 0.33294 0.02954 0.0
O142 O 0.90621 0.30895 0.1598 0.0
C143 C 0.57535 0.8739 0.15855 0.0
O144 O 0.57077 0.88384 0.12813 0.0
O145 O 0.54686 0.89991 0.21938 0.0
Zn146 Zn 0.57631 0.90625 0.2093 0.0
O147 O 0.58672 0.92365 0.15344 0.0
C148 C 0.59483 0.94191 0.26041 0.0
O149 O 0.58382 0.94532 0.2304 0.0
O150 O 0.57814 0.88025 0.19911 0.0
C151 C 0.60604 0.93313 0.1439 0.0
O152 O 0.61919 0.93178 0.17149 0.0
C153 C 0.53034 0.88429 0.20441 0.0
O154 O 0.53164 0.86978 0.18167 0.0
O155 O 0.59415 0.92441 0.26012 0.0
C156 C 0.30347 0.34617 0.02971 0.0
C157 C 0.30279 0.36481 0.03095 0.0
C158 C 0.31135 0.34037 0.0663 0.0
C159 C 0.34911 0.36533 0.15639 0.0
H160 H 0.32628 0.31009 0.20792 0.0
C161 C 0.38289 0.35244 0.31754 0.0
C162 C 0.38505 0.3347 0.32105 0.0
C163 C 0.37187 0.35455 0.28195 0.0
C164 C 0.33297 0.32553 0.19343 0.0
H165 H 0.30832 0.39111 0.07287 0.0
H166 H 0.32198 0.38096 0.13644 0.0
H167 H 0.30754 0.31607 0.14701 0.0
H168 H 0.37712 0.30511 0.29013 0.0
H169 H 0.35808 0.30904 0.22696 0.0
H170 H 0.37464 0.37487 0.20175 0.0
C171 C 0.31677 0.37103 0.10692 0.0
C172 C 0.3222 0.32895 0.15877 0.0
C173 C 0.30885 0.37679 0.07056 0.0
C174 C 0.37574 0.31898 0.28826 0.0
C175 C 0.36475 0.32117 0.25227 0.0
C176 C 0.3599 0.36191 0.19059 0.0
C177 C 0.31873 0.35315 0.10459 0.0
C178 C 0.33004 0.34898 0.1405 0.0
C179 C 0.36285 0.33909 0.2486 0.0
C180 C 0.35182 0.34207 0.21009 0.0
H181 H 0.29884 0.33655 -0.00025 0.0
H182 H 0.31269 0.32649 0.06366 0.0
H183 H 0.3558 0.38082 0.14211 0.0
H184 H 0.38964 0.36474 0.34248 0.0
H185 H 0.37031 0.36833 0.28078 0.0
C186 C 0.0197 0.38202 0.49208 0.0
C187 C 0.04036 0.38612 0.49549 0.0
C188 C 0.00636 0.36853 0.45912 0.0
C189 C 0.00705 0.34814 0.34761 0.0
H190 H 0.94806 0.31164 0.37121 0.0
C191 C 0.94951 0.30399 0.20411 0.0
C192 C 0.93179 0.30634 0.20371 0.0
C193 C 0.96209 0.30917 0.24244 0.0
C194 C 0.96449 0.32175 0.36411 0.0
H195 H 0.06312 0.37895 0.46752 0.0
H196 H 0.03973 0.35534 0.40958 0.0
H197 H 0.97187 0.32952 0.4336 0.0
H198 H 0.91269 0.31477 0.2441 0.0
H199 H 0.93467 0.32392 0.31065 0.0
H200 H -0.00038 0.34097 0.27802 0.0
C201 C 0.03395 0.3627 0.4324 0.0
C202 C 0.97812 0.33199 0.3998 0.0
C203 C 0.04731 0.37617 0.4656 0.0
C204 C 0.92627 0.31284 0.24322 0.0
C205 C 0.93882 0.31797 0.28153 0.0
C206 C 0.99343 0.3379 0.31191 0.0
C207 C 0.01336 0.35883 0.42869 0.0
C208 C -0.00055 0.34573 0.39179 0.0
C209 C 0.95716 0.31671 0.28119 0.0
C210 C 0.97191 0.32502 0.31965 0.0
H211 H 0.01381 0.38939 0.51461 0.0
H212 H 0.99071 0.36616 0.45671 0.0
H213 H 0.02336 0.35877 0.34027 0.0
H214 H 0.95412 0.29889 0.17431 0.0
H215 H 0.97596 0.30775 0.24138 0.0
C216 C 0.61799 0.95476 0.3287 0.0
C217 C 0.60788 0.95848 0.2929 0.0
C218 C 0.62979 0.97058 0.35976 0.0
C219 C 0.63485 0.01942 0.40398 0.0
H220 H 0.68717 0.02839 0.45379 0.0
C221 C 0.68177 0.08711 0.52487 0.0
C222 C 0.68807 0.08173 0.56481 0.0
C223 C 0.67503 0.07352 0.48814 0.0
C224 C 0.67254 0.02601 0.44022 0.0
H225 H 0.60285 0.9819 0.26064 0.0
H226 H 0.62354 0.00935 0.31407 0.0
H227 H 0.66893 0.00117 0.39716 0.0
H228 H 0.69366 0.05855 0.59641 0.0
H229 H 0.68172 0.03479 0.5325 0.0
H230 H 0.6382 0.04395 0.44715 0.0
C231 C 0.62202 0.99416 0.31892 0.0
C232 C 0.66208 0.0104 0.40796 0.0
C233 C 0.61021 0.97841 0.28816 0.0
C234 C 0.6888 0.06312 0.5662 0.0
C235 C 0.68204 0.04953 0.52947 0.0
C236 C 0.6453 0.035 0.43601 0.0
C237 C 0.63171 0.99038 0.35543 0.0
C238 C 0.6431 0.00694 0.38952 0.0
C239 C 0.67446 0.05428 0.49059 0.0
C240 C 0.66424 0.03847 0.45457 0.0
H241 H 0.61652 0.93956 0.33315 0.0
H242 H 0.63695 0.96714 0.38775 0.0
H243 H 0.62005 0.01689 0.3912 0.0
H244 H 0.68121 0.10142 0.52254 0.0
H245 H 0.66965 0.07779 0.45826 0.0
C246 C 0.66023 0.62091 0.52695 0.0
C247 C 0.67158 0.61036 0.52888 0.0
C248 C 0.65637 0.62891 0.56599 0.0
C249 C 0.64847 0.61775 0.685 0.0
H250 H 0.6501 0.6708 0.69351 0.0
C251 C 0.6205 0.63946 0.84479 0.0
C252 C 0.60855 0.64921 0.83935 0.0
C253 C 0.63149 0.63765 0.80865 0.0
C254 C 0.64938 0.65585 0.69153 0.0
H255 H 0.68862 0.60074 0.57283 0.0
H256 H 0.68159 0.61451 0.64134 0.0
H257 H 0.66401 0.66274 0.62664 0.0
H258 H 0.59914 0.66527 0.79225 0.0
H259 H 0.61766 0.66137 0.72831 0.0
H260 H 0.63299 0.61025 0.74843 0.0
C261 C 0.6757 0.61654 0.60951 0.0
C262 C 0.65746 0.65132 0.65338 0.0
C263 C 0.67977 0.60874 0.57033 0.0
C264 C 0.60826 0.65768 0.79732 0.0
C265 C 0.61899 0.65555 0.76081 0.0
C266 C 0.64019 0.62214 0.72279 0.0
C267 C 0.66361 0.62634 0.60779 0.0
C268 C 0.65693 0.63215 0.64966 0.0
C269 C 0.63048 0.64519 0.76589 0.0
C270 C 0.64038 0.64119 0.72647 0.0
H271 H 0.65384 0.62253 0.49542 0.0
H272 H 0.64688 0.63624 0.56372 0.0
H273 H 0.64749 0.60268 0.68264 0.0
H274 H 0.62131 0.6331 0.87706 0.0
H275 H 0.64061 0.6301 0.8142 0.0
C276 C 0.04917 0.6855 0.71154 0.0
C277 C 0.06898 0.68722 0.71242 0.0
C278 C 0.037 0.68027 0.75041 0.0
C279 C 0.02972 0.65136 0.85474 0.0
H280 H 0.99005 0.66951 0.88244 0.0
C281 C 0.97286 0.6164 0.00278 0.0
C282 C 0.95195 0.61044 0.99391 0.0
C283 C 0.98858 0.62893 0.97252 0.0
C284 C 0.001 0.66425 0.87497 0.0
H285 H 0.09221 0.68643 0.75558 0.0
H286 H 0.07106 0.67757 0.82364 0.0
H287 H 0.01591 0.68707 0.82309 0.0
H288 H 0.93119 0.61348 0.94696 0.0
H289 H 0.95868 0.63516 0.89359 0.0
H290 H 0.0146 0.62825 0.90562 0.0
C291 C 0.06477 0.67981 0.7926 0.0
C292 C 0.01583 0.67432 0.84109 0.0
C293 C 0.07693 0.68501 0.75367 0.0
C294 C 0.94716 0.61777 0.95468 0.0
C295 C 0.96292 0.63031 0.92428 0.0
C296 C 0.01496 0.64134 0.88854 0.0
C297 C 0.0444 0.67671 0.79106 0.0
C298 C 0.03017 0.66778 0.8302 0.0
C299 C 0.98377 0.63575 0.9326 0.0
C300 C 0.00026 0.64748 0.89867 0.0
H301 H 0.0426 0.6872 0.68035 0.0
H302 H 0.02134 0.67787 0.74793 0.0
H303 H 0.04023 0.64563 0.84663 0.0
H304 H 0.97714 0.61121 0.03293 0.0
H305 H 0.00453 0.63313 0.98025 0.0
C306 C 0.38717 0.06608 0.8931 0.0
C307 C 0.37597 0.06144 0.8525 0.0
C308 C 0.3775 0.05505 0.93227 0.0
C309 C 0.33685 0.00363 0.96588 0.0
H310 H 0.34625 0.02776 0.08531 0.0
C311 C 0.30919 0.95121 0.1226 0.0
C312 C 0.32357 0.95756 0.15823 0.0
C313 C 0.31205 0.96491 0.08744 0.0
C314 C 0.34357 0.02076 0.05221 0.0
H315 H 0.34558 0.04233 0.82166 0.0
H316 H 0.32882 0.02294 0.89004 0.0
H317 H 0.35805 0.05055 0.01954 0.0
H318 H 0.35185 0.98348 0.18567 0.0
H319 H 0.35722 0.00705 0.12395 0.0
H320 H 0.32344 0.97396 -0.00193 0.0
C321 C 0.34507 0.03507 0.89142 0.0
C322 C 0.35025 0.03382 0.01461 0.0
C323 C 0.35467 0.04624 0.85236 0.0
C324 C 0.34046 0.97809 0.15875 0.0
C325 C 0.34344 0.9917 0.12342 0.0
C326 C 0.33039 0.99058 0.00341 0.0
C327 C 0.35651 0.03906 0.93148 0.0
C328 C 0.34728 0.02538 0.97114 0.0
C329 C 0.32948 0.98519 0.08691 0.0
C330 C 0.33404 -0.00101 0.04712 0.0
H331 H 0.40358 0.07776 0.89433 0.0
H332 H 0.38674 0.05835 0.96262 0.0
H333 H 0.33461 -0.0033 0.93276 0.0
H334 H 0.29589 0.93554 0.1215 0.0
H335 H 0.30076 0.95949 0.06031 0.0
C336 C 0.60777 0.51468 0.39624 0.0
C337 C 0.62604 0.5203 0.42092 0.0
C338 C 0.59128 0.49416 0.39637 0.0
C339 C 0.56769 0.44601 0.46227 0.0
H340 H 0.53825 0.4213 0.35093 0.0
C341 C 0.49639 0.36251 0.45486 0.0
C342 C 0.47924 0.36047 0.43023 0.0
C343 C 0.5158 0.38079 0.45204 0.0
C344 C 0.54625 0.42802 0.38233 0.0
H345 H 0.64129 0.50877 0.4653 0.0
H346 H 0.61228 0.47279 0.4657 0.0
H347 H 0.56947 0.45572 0.34975 0.0
H348 H 0.46913 0.37582 0.38257 0.0
H349 H 0.50281 0.40762 0.37797 0.0
H350 H 0.54415 0.41852 0.49502 0.0
C351 C 0.6108 0.48436 0.44632 0.0
C352 C 0.56412 0.44771 0.38164 0.0
C353 C 0.62741 0.50493 0.44596 0.0
C354 C 0.48202 0.37686 0.40196 0.0
C355 C 0.50138 0.39507 0.39908 0.0
C356 C 0.54975 0.4263 0.46299 0.0
C357 C 0.59261 0.47877 0.42133 0.0
C358 C 0.5748 0.45709 0.4217 0.0
C359 C 0.51845 0.39733 0.42439 0.0
C360 C 0.53861 0.41727 0.42312 0.0
H361 H 0.60619 0.52613 0.3766 0.0
H362 H 0.57734 0.4904 0.37736 0.0
H363 H 0.5755 0.45292 0.49372 0.0
H364 H 0.49477 0.35015 0.47689 0.0
H365 H 0.52871 0.38199 0.47159 0.0
C366 C 0.10858 0.50115 0.62796 0.0
C367 C 0.10454 0.48725 0.59214 0.0
C368 C 0.11002 0.52044 0.62047 0.0
C369 C 0.09324 0.54695 0.53986 0.0
H370 H 0.13116 0.59626 0.60796 0.0
C371 C 0.09836 0.62633 0.51129 0.0
C372 C 0.09779 0.63673 0.55037 0.0
C373 C 0.10132 0.60917 0.51426 0.0
C374 C 0.12043 0.58258 0.58885 0.0
H375 H 0.09961 0.48299 0.52007 0.0
H376 H 0.10252 0.51683 0.50686 0.0
H377 H 0.13289 0.56436 0.61627 0.0
H378 H 0.10045 0.63763 0.62313 0.0
H379 H 0.10564 0.60766 0.62824 0.0
H380 H 0.08072 0.56514 0.51264 0.0
C381 C 0.10414 0.51264 0.54091 0.0
C382 C 0.12139 0.56431 0.59364 0.0
C383 C 0.10259 0.4933 0.54844 0.0
C384 C 0.10078 0.62994 0.5924 0.0
C385 C 0.10388 0.61285 0.59532 0.0
C386 C 0.09237 0.56524 0.53488 0.0
C387 C 0.10757 0.52632 0.57693 0.0
C388 C 0.10762 0.54619 0.5696 0.0
C389 C 0.10393 0.60214 0.55632 0.0
C390 C 0.10579 0.58317 0.55971 0.0
H391 H 0.11012 0.49696 0.66206 0.0
H392 H 0.11239 0.53044 0.64908 0.0
H393 H 0.08216 0.53321 0.52141 0.0
H394 H 0.09616 0.6312 0.47838 0.0
H395 H 0.10151 0.60134 0.48361 0.0
C396 C 0.49043 0.0988 0.75886 0.0
C397 C 0.48077 0.09745 0.71729 0.0
C398 C 0.51033 0.10101 0.76054 0.0
C399 C 0.54675 0.0919 0.69255 0.0
H400 H 0.58778 0.12822 0.78008 0.0
C401 C 0.63117 0.10732 0.69096 0.0
C402 C 0.63971 0.10665 0.73274 0.0
C403 C 0.6124 0.10751 0.68877 0.0
C404 C 0.57642 0.11789 0.75568 0.0
H405 H 0.48462 0.09776 0.64488 0.0
H406 H 0.51936 0.10185 0.64784 0.0
H407 H 0.55375 0.12603 0.77692 0.0
H408 H 0.63545 0.10613 0.80504 0.0
H409 H 0.60264 0.10634 0.80118 0.0
H410 H 0.56933 0.08367 0.67144 0.0
C411 C 0.51143 0.10086 0.67916 0.0
C412 C 0.55693 0.11662 0.7539 0.0
C413 C 0.49155 0.09863 0.67747 0.0
C414 C 0.62931 0.10666 0.77231 0.0
C415 C 0.61055 0.10689 0.77011 0.0
C416 C 0.56622 0.09319 0.69429 0.0
C417 C 0.521 0.10193 0.72069 0.0
C418 C 0.54185 0.10357 0.72236 0.0
C419 C 0.60177 0.10708 0.72831 0.0
C420 C 0.58127 0.10617 0.72592 0.0
H421 H 0.48253 0.09789 0.79017 0.0
H422 H 0.51716 0.10155 0.79309 0.0
H423 H 0.53537 0.08141 0.66838 0.0
H424 H 0.63883 0.10741 0.65983 0.0
H425 H 0.60619 0.10796 0.65606 0.0
C426 C 0.50032 0.59847 0.9905 0.0
C427 C 0.51179 0.61139 0.95443 0.0
C428 C 0.47951 0.58296 0.98467 0.0
C429 C 0.44255 0.5501 0.89756 0.0
H430 H 0.40109 0.53832 0.98996 0.0
C431 C 0.35782 0.48348 0.87669 0.0
C432 C 0.34918 0.47041 0.91424 0.0
C433 C 0.37628 0.50262 0.88079 0.0
C434 C 0.41251 0.54135 0.96395 0.0
H435 H 0.5103 0.61836 0.88409 0.0
H436 H 0.47393 0.59125 0.87398 0.0
H437 H 0.43626 0.56811 -0.00142 0.0
H438 H 0.35264 0.46759 0.98596 0.0
H439 H 0.38494 0.50078 0.99297 0.0
H440 H 0.41907 0.5231 0.86344 0.0
C441 C 0.48112 0.59304 0.90666 0.0
C442 C 0.43264 0.5584 0.96889 0.0
C443 C 0.50192 0.60861 0.91252 0.0
C444 C 0.35889 0.47728 0.95634 0.0
C445 C 0.37737 0.49639 0.96042 0.0
C446 C 0.42245 0.53303 0.89267 0.0
C447 C 0.46972 0.57998 0.94262 0.0
C448 C 0.44795 0.5628 0.93602 0.0
C449 C 0.38651 0.50909 0.92252 0.0
C450 C 0.40727 0.52829 0.92608 0.0
H451 H 0.50744 0.6002 0.02323 0.0
H452 H 0.47123 0.57297 0.01287 0.0
H453 H 0.45407 0.55291 0.87193 0.0
H454 H 0.35063 0.47872 0.84383 0.0
H455 H 0.38272 0.51221 0.8511 0.0
C456 C 0.87215 0.36302 0.10845 0.0
C457 C 0.87819 0.35744 0.06841 0.0
C458 C 0.86819 0.3796 0.10908 0.0
C459 C 0.85908 0.41471 0.03415 0.0
H460 H 0.87899 0.4515 0.13766 0.0
C461 C 0.87549 0.49976 0.03503 0.0
C462 C 0.8692 0.5064 0.07321 0.0
C463 C 0.87332 0.47991 0.03372 0.0
C464 C 0.87309 0.44121 0.10879 0.0
H465 H 0.88465 0.36471 -0.00247 0.0
H466 H 0.87849 0.39401 -0.00113 0.0
H467 H 0.88164 0.42007 0.13714 0.0
H468 H 0.85502 0.49718 0.13929 0.0
H469 H 0.85151 0.46263 0.1371 0.0
H470 H 0.8514 0.43655 0.00521 0.0
C471 C 0.87622 0.3853 0.02962 0.0
C472 C 0.87454 0.42314 0.1085 0.0
C473 C 0.87992 0.36857 0.02889 0.0
C474 C 0.86004 0.49254 0.10939 0.0
C475 C 0.85811 0.4728 0.10828 0.0
C476 C 0.85788 0.43295 0.03425 0.0
C477 C 0.87046 0.39114 0.06979 0.0
C478 C 0.86772 0.40972 0.07103 0.0
C479 C 0.86505 0.46644 0.07076 0.0
C480 C 0.865 0.44643 0.07146 0.0
H481 H 0.8705 0.3546 0.13937 0.0
H482 H 0.8634 0.38337 0.14044 0.0
H483 H 0.85331 0.40457 0.00506 0.0
H484 H 0.88255 0.51007 0.00658 0.0
H485 H 0.87892 0.47543 0.00449 0.0
C486 C 0.38799 0.91946 0.23835 0.0
C487 C 0.36795 0.90501 0.2227 0.0
C488 C 0.40452 0.91568 0.23319 0.0
C489 C 0.41697 0.87395 0.21641 0.0
H490 H 0.47156 0.92057 0.18714 0.0
C491 C 0.49198 0.86799 0.18814 0.0
C492 C 0.5102 0.88385 0.20855 0.0
C493 C 0.47354 0.86893 0.18848 0.0
C494 C 0.45643 0.90743 0.19559 0.0
H495 H 0.34952 0.87522 0.18919 0.0
H496 H 0.37866 0.8687 0.17971 0.0
H497 H 0.44138 0.92543 0.1877 0.0
H498 H 0.52305 0.91256 0.24716 0.0
H499 H 0.49101 0.9141 0.24777 0.0
H500 H 0.43228 0.85601 0.22436 0.0
C501 C 0.38144 0.88287 0.19636 0.0
C502 C 0.43915 0.9102 0.19592 0.0
C503 C 0.36481 0.88667 0.20155 0.0
C504 C 0.50938 0.90018 0.23076 0.0
C505 C 0.49105 0.90114 0.23091 0.0
C506 C 0.43434 0.87114 0.21586 0.0
C507 C 0.40148 0.89739 0.21209 0.0
C508 C 0.4193 0.89364 0.20732 0.0
C509 C 0.47308 0.88578 0.209 0.0
C510 C 0.45429 0.888 0.20641 0.0
H511 H 0.39096 0.93369 0.25504 0.0
H512 H 0.41966 0.927 0.24647 0.0
H513 H 0.4019 0.86092 0.22557 0.0
H514 H 0.4921 0.85517 0.17085 0.0
H515 H 0.45988 0.85688 0.17135 0.0
C516 C 0.3357 0.39047 0.81291 0.0
C517 C 0.31384 0.37945 0.81686 0.0
C518 C 0.34545 0.38649 0.77723 0.0
C519 C 0.33796 0.34678 0.69409 0.0
H520 H 0.38316 0.3934 0.63129 0.0
C521 C 0.37588 0.33543 0.53534 0.0
C522 C 0.39773 0.34749 0.53205 0.0
C523 C 0.36521 0.33951 0.56889 0.0
C524 C 0.37072 0.38022 0.64879 0.0
H525 H 0.28506 0.35545 0.78672 0.0
H526 H 0.30217 0.34845 0.7243 0.0
H527 H 0.36523 0.39995 0.69246 0.0
H528 H 0.42551 0.37336 0.56123 0.0
H529 H 0.40692 0.38027 0.62026 0.0
H530 H 0.34361 0.32703 0.6509 0.0
C531 C 0.31172 0.36012 0.749 0.0
C532 C 0.36044 0.38397 0.68375 0.0
C533 C 0.30193 0.36419 0.78461 0.0
C534 C 0.40867 0.36383 0.56279 0.0
C535 C 0.398 0.36786 0.59646 0.0
C536 C 0.3483 0.34302 0.65924 0.0
C537 C 0.33357 0.37133 0.74483 0.0
C538 C 0.34403 0.36729 0.7069 0.0
C539 C 0.37615 0.35569 0.59998 0.0
C540 C 0.36486 0.3597 0.63633 0.0
H541 H 0.34535 0.40233 0.8372 0.0
H542 H 0.36233 0.39517 0.77521 0.0
H543 H 0.32553 0.33363 0.71171 0.0
H544 H 0.36697 0.3228 0.51198 0.0
H545 H 0.34836 0.33006 0.57026 0.0
C546 C 0.96174 0.3668 0.0038 0.0
C547 C 0.94725 0.34576 0.01247 0.0
C548 C 0.9747 0.37239 0.96604 0.0
C549 C 0.97764 0.3525 0.85413 0.0
H550 H 0.03551 0.39668 0.85792 0.0
C551 C 0.0338 0.36949 0.70539 0.0
C552 C 0.04698 0.39053 0.69404 0.0
C553 C 0.02204 0.36412 0.74491 0.0
C554 C 0.01932 0.38444 0.85629 0.0
H555 H 0.93552 0.31401 0.98929 0.0
H556 H 0.95832 0.32373 0.92404 0.0
H557 H 0.01455 0.3871 0.92647 0.0
H558 H 0.05823 0.42246 0.71535 0.0
H559 H 0.0376 0.41303 0.78422 0.0
H560 H 0.98239 0.3498 0.78405 0.0
C561 C 0.95937 0.33596 0.94578 0.0
C562 C 0.00732 0.37896 0.89552 0.0
C563 C 0.94639 0.33039 0.98336 0.0
C564 C 0.04822 0.40609 0.72313 0.0
C565 C 0.03651 0.40071 0.76273 0.0
C566 C 0.98964 0.35793 0.81501 0.0
C567 C 0.97346 0.35703 0.93631 0.0
C568 C 0.98635 0.3629 0.89486 0.0
C569 C 0.02327 0.37967 0.77397 0.0
C570 C 0.0106 0.37394 0.81566 0.0
H571 H 0.96274 0.37901 0.02555 0.0
H572 H 0.98526 0.38877 0.95946 0.0
H573 H 0.96142 0.34034 0.85227 0.0
H574 H 0.03254 0.35714 0.68377 0.0
H575 H 0.01215 0.34777 0.75295 0.0
C576 C 0.59907 0.94409 0.06952 0.0
C577 C 0.61346 0.94522 0.10184 0.0
C578 C 0.60599 0.95548 0.0297 0.0
C579 C 0.65003 0.00206 0.98193 0.0
H580 H 0.6246 0.97697 0.86754 0.0
C581 C 0.6784 0.04797 0.81656 0.0
C582 C 0.66289 0.04585 0.78622 0.0
C583 C 0.67328 0.03455 0.85325 0.0
C584 C 0.63173 0.98425 0.89926 0.0
H585 H 0.64639 0.95908 0.11775 0.0
H586 H 0.65847 0.97914 0.04809 0.0
H587 H 0.61392 0.95573 0.93562 0.0
H588 H 0.62994 0.02775 0.76995 0.0
H589 H 0.62091 0.00459 0.83454 0.0
H590 H 0.66744 0.03069 0.94607 0.0
C591 C 0.64184 0.96945 0.05375 0.0
C592 C 0.62565 0.97208 0.93817 0.0
C593 C 0.63493 0.95792 0.09349 0.0
C594 C 0.64225 0.02973 0.79268 0.0
C595 C 0.6371 0.01639 0.82958 0.0
C596 C 0.65603 0.01427 0.9431 0.0
C597 C 0.62743 0.96833 0.02151 0.0
C598 C 0.63463 0.98092 0.97991 0.0
C599 C 0.65252 0.01881 0.86059 0.0
C600 C 0.64684 0.00554 0.90136 0.0
H601 H 0.58242 0.93441 0.07492 0.0
H602 H 0.59453 0.95452 0.00565 0.0
H603 H 0.65701 0.00934 0.01377 0.0
H604 H 0.6945 0.06014 0.81227 0.0
H605 H 0.6856 0.03659 0.87602 0.0
C606 C 0.60418 0.64856 0.06692 0.0
C607 C 0.61662 0.66173 0.03217 0.0
C608 C 0.61328 0.64394 0.10286 0.0
C609 C 0.66373 0.66113 0.16078 0.0
H610 H 0.63398 0.6048 0.20778 0.0
C611 C 0.67461 0.60267 0.29166 0.0
C612 C 0.68402 0.61628 0.32809 0.0
C613 C 0.66818 0.60911 0.25392 0.0
C614 C 0.64269 0.62053 0.19474 0.0
H615 H 0.64833 0.6805 0.00776 0.0
H616 H 0.66422 0.67191 0.06991 0.0
H617 H 0.61948 0.61416 0.14497 0.0
H618 H 0.69462 0.64746 0.3533 0.0
H619 H 0.68269 0.65856 0.28789 0.0
H620 H 0.68734 0.66721 0.20976 0.0
C621 C 0.64747 0.66552 0.06994 0.0
C622 C 0.63416 0.62601 0.15913 0.0
C623 C 0.63836 0.67034 0.03419 0.0
C624 C 0.68743 0.63668 0.32559 0.0
C625 C 0.68069 0.64305 0.28801 0.0
C626 C 0.6724 0.65557 0.19623 0.0
C627 C 0.63501 0.65215 0.10456 0.0
C628 C 0.64447 0.6464 0.14192 0.0
C629 C 0.67067 0.6292 0.25206 0.0
C630 C 0.66193 0.63521 0.2137 0.0
H631 H 0.58739 0.64189 0.06654 0.0
H632 H 0.60325 0.63397 0.12943 0.0
H633 H 0.672 0.67703 0.1486 0.0
H634 H 0.67206 0.58694 0.29242 0.0
H635 H 0.66105 0.59823 0.22637 0.0
C636 C 0.00698 0.62762 0.50941 0.0
C637 C 0.02564 0.64648 0.50212 0.0
C638 C 0.9923 0.61849 0.47488 0.0
C639 C 0.97707 0.62999 0.36434 0.0
H640 H 0.95286 0.5706 0.34407 0.0
C641 C 0.92173 0.58952 0.21583 0.0
C642 C 0.92517 0.57529 0.19128 0.0
C643 C 0.9312 0.5968 0.25761 0.0
C644 C 0.95954 0.58721 0.34922 0.0
H645 H 0.04336 0.67076 0.4532 0.0
H646 H 0.01802 0.65474 0.39306 0.0
H647 H 0.97492 0.58668 0.40975 0.0
H648 H 0.94077 0.5571 0.19176 0.0
H649 H 0.95778 0.57025 0.26419 0.0
H650 H 0.96263 0.63079 0.30281 0.0
C651 C 0.0145 0.64712 0.42554 0.0
C652 C 0.97196 0.59638 0.38717 0.0
C653 C 0.02912 0.65624 0.45999 0.0
C654 C 0.93782 0.56806 0.2099 0.0
C655 C 0.94745 0.57549 0.25158 0.0
C656 C 0.96477 0.62086 0.32636 0.0
C657 C -0.004 0.62806 0.43243 0.0
C658 C 0.98116 0.61794 0.3947 0.0
C659 C 0.94448 0.59017 0.27562 0.0
C660 C 0.95611 0.59942 0.31797 0.0
H661 H 0.00382 0.61976 0.54157 0.0
H662 H 0.97808 0.60392 0.48137 0.0
H663 H 0.98369 0.64659 0.36953 0.0
H664 H 0.91184 0.59519 0.20262 0.0
H665 H 0.92826 0.60779 0.27563 0.0
C666 C 0.30805 0.94652 0.37867 0.0
C667 C 0.31462 0.93331 0.36011 0.0
C668 C 0.31591 0.95624 0.42013 0.0
C669 C 0.36131 0.97217 0.49472 0.0
H670 H 0.32805 0.98282 0.57993 0.0
C671 C 0.39551 0.01492 0.66235 0.0
C672 C 0.39181 0.03144 0.67109 0.0
C673 C 0.38447 0.0005 0.62834 0.0
C674 C 0.33751 0.97996 0.55638 0.0
H675 H 0.33381 0.91917 0.3713 0.0
H676 H 0.34709 0.9357 0.44384 0.0
H677 H 0.31152 0.96197 0.51281 0.0
H678 H 0.37309 0.04533 0.6523 0.0
H679 H 0.35392 0.02023 0.59315 0.0
H680 H 0.38731 0.99031 0.53802 0.0
C681 C 0.33633 0.93902 0.42597 0.0
C682 C 0.32808 0.96809 0.5179 0.0
C683 C 0.32863 0.92947 0.38446 0.0
C684 C 0.37638 0.03283 0.64627 0.0
C685 C 0.36526 0.01836 0.61259 0.0
C686 C 0.37068 0.9839 0.53328 0.0
C687 C 0.33036 0.95281 0.44397 0.0
C688 C 0.33994 0.96429 0.48632 0.0
C689 C 0.36941 0.00224 0.6028 0.0
C690 C 0.35895 0.98816 0.56419 0.0
H691 H 0.29729 0.9498 0.36065 0.0
H692 H 0.31116 0.96695 0.43277 0.0
H693 H 0.371 0.96987 0.47076 0.0
H694 H 0.40726 0.0134 0.68098 0.0
H695 H 0.38784 0.9881 0.62172 0.0
C696 C 0.41256 0.26796 0.54995 0.0
C697 C 0.41146 0.27015 0.50324 0.0
C698 C 0.41238 0.25047 0.56773 0.0
C699 C 0.42357 0.20887 0.53878 0.0
H700 H 0.39216 0.18316 0.64747 0.0
C701 C 0.41531 0.133 0.61207 0.0
C702 C 0.41715 0.13212 0.65897 0.0
C703 C 0.4142 0.1495 0.59231 0.0
C704 C 0.40118 0.19031 0.61737 0.0
H705 H 0.40913 0.25561 0.43851 0.0
H706 H 0.40869 0.22485 0.46975 0.0
H707 H 0.39034 0.21216 0.61351 0.0
H708 H 0.4194 0.14794 0.72194 0.0
H709 H 0.41762 0.17689 0.68733 0.0
H710 H 0.43449 0.18707 0.54281 0.0
C711 C 0.40989 0.23683 0.4925 0.0
C712 C 0.40011 0.20688 0.59788 0.0
C713 C 0.41003 0.25437 0.47464 0.0
C714 C 0.41794 0.14815 0.68572 0.0
C715 C 0.4168 0.16465 0.66592 0.0
C716 C 0.42463 0.19228 0.55828 0.0
C717 C 0.4111 0.23474 0.53926 0.0
C718 C 0.41142 0.21645 0.55857 0.0
C719 C 0.41488 0.16548 0.61901 0.0
C720 C 0.41355 0.18291 0.59794 0.0
H721 H 0.41372 0.27984 0.57296 0.0
H722 H 0.41365 0.24947 0.60384 0.0
H723 H 0.43269 0.21611 0.50886 0.0
H724 H 0.41461 0.12088 0.59048 0.0
H725 H 0.41249 0.14958 0.55614 0.0
C726 C 0.23883 0.39579 0.86596 0.0
C727 C 0.25285 0.41502 0.88588 0.0
C728 C 0.22333 0.39417 0.83665 0.0
C729 C 0.19551 0.42149 0.79884 0.0
H730 H 0.18659 0.38928 0.68973 0.0
C731 C 0.1494 0.42728 0.65011 0.0
C732 C 0.13365 0.40827 0.63232 0.0
C733 C 0.16429 0.42771 0.67955 0.0
C734 C 0.18882 0.3982 0.7202 0.0
H735 H 0.26114 0.44746 0.89187 0.0
H736 H 0.23434 0.44471 0.84032 0.0
H737 H 0.2109 0.39036 0.74663 0.0
H738 H 0.12191 0.37495 0.62951 0.0
H739 H 0.1481 0.37576 0.68083 0.0
H740 H 0.17366 0.42957 0.77201 0.0
C741 C 0.23512 0.4308 0.84772 0.0
C742 C 0.20265 0.39875 0.75291 0.0
C743 C 0.25055 0.4324 0.87721 0.0
C744 C 0.13382 0.38984 0.64269 0.0
C745 C 0.14882 0.3903 0.67203 0.0
C746 C 0.1818 0.42104 0.76603 0.0
C747 C 0.22156 0.41175 0.82647 0.0
C748 C 0.20622 0.41048 0.79255 0.0
C749 C 0.16385 0.40917 0.69165 0.0
C750 C 0.1784 0.40949 0.72629 0.0
H751 H 0.24012 0.38207 0.87216 0.0
H752 H 0.21288 0.37917 0.82156 0.0
H753 H 0.19761 0.43038 0.82928 0.0
H754 H 0.14983 0.4418 0.64262 0.0
H755 H 0.17595 0.44253 0.69353 0.0
C756 C 0.86006 0.24261 0.00174 0.0
C757 C 0.85665 0.2565 0.02772 0.0
C758 C 0.84529 0.22971 0.96996 0.0
C759 C 0.80434 0.22803 0.89828 0.0
H760 H 0.78769 0.16987 0.88098 0.0
C761 C 0.73622 0.17324 0.7824 0.0
C762 C 0.73756 0.15737 0.75944 0.0
C763 C 0.75172 0.18607 0.81293 0.0
C764 C 0.79244 0.18619 0.88485 0.0
H765 H 0.83462 0.26698 0.04232 0.0
H766 H 0.80889 0.24443 0.98693 0.0
H767 H 0.81203 0.1897 0.94116 0.0
H768 H 0.75685 0.14334 0.74835 0.0
H769 H 0.78417 0.16609 0.80072 0.0
H770 H 0.785 0.22468 0.84181 0.0
C771 C 0.8231 0.24374 0.99078 0.0
C772 C 0.80629 0.19749 0.91949 0.0
C773 C 0.83777 0.25652 0.02275 0.0
C774 C 0.75527 0.15532 0.76581 0.0
C775 C 0.77084 0.16824 0.79612 0.0
C776 C 0.79062 0.21679 0.86345 0.0
C777 C 0.82692 0.23055 0.96339 0.0
C778 C 0.81225 0.21847 0.92674 0.0
C779 C 0.76899 0.18341 0.82089 0.0
C780 C 0.7844 0.1957 0.85647 0.0
H781 H 0.87443 0.2422 0.00481 0.0
H782 H 0.84866 0.21972 0.94922 0.0
H783 H 0.80899 0.24431 0.90258 0.0
H784 H 0.72274 0.17519 0.77837 0.0
H785 H 0.74968 0.19746 0.83168 0.0
C786 C 0.57755 0.84197 0.17689 0.0
C787 C 0.57728 0.85579 0.14493 0.0
C788 C 0.57869 0.82451 0.16299 0.0
C789 C 0.59407 0.80343 0.06757 0.0
H790 H 0.55312 0.74934 0.11429 0.0
C791 C 0.57754 0.72665 0.98251 0.0
C792 C 0.57334 0.70973 0.0105 0.0
C793 C 0.57928 0.74486 0.00073 0.0
C794 C 0.56489 0.76434 0.10138 0.0
H795 H 0.57855 0.86251 0.07354 0.0
H796 H 0.58065 0.83225 0.04954 0.0
H797 H 0.55477 0.78073 0.14452 0.0
H798 H 0.56808 0.69877 0.07958 0.0
H799 H 0.57154 0.73057 0.11126 0.0
H800 H 0.60422 0.78714 0.0244 0.0
C801 C 0.58 0.83486 0.08522 0.0
C802 C 0.56581 0.7823 0.11875 0.0
C803 C 0.57862 0.8521 0.09902 0.0
C804 C 0.57113 0.71145 0.057 0.0
C805 C 0.57302 0.72967 0.0752 0.0
C806 C 0.59326 0.7855 0.05042 0.0
C807 C 0.57989 0.82081 0.11698 0.0
C808 C 0.58021 0.80198 0.10157 0.0
C809 C 0.57701 0.74656 0.0473 0.0
C810 C 0.57848 0.76572 0.06672 0.0
H811 H 0.57654 0.84445 0.2125 0.0
H812 H 0.57867 0.81392 0.18813 0.0
H813 H 0.60548 0.81847 0.0541 0.0
H814 H 0.57927 0.72575 0.94654 0.0
H815 H 0.58207 0.75748 0.9782 0.0
C816 C 0.72447 0.55131 0.32862 0.0
C817 C 0.72743 0.56605 0.36183 0.0
C818 C 0.74084 0.55446 0.30038 0.0
C819 C 0.78931 0.59658 0.25284 0.0
H820 H 0.79764 0.55126 0.21422 0.0
C821 C 0.85919 0.60756 0.14454 0.0
C822 C 0.8556 0.59179 0.11345 0.0
C823 C 0.84321 0.60548 0.1729 0.0
C824 C 0.7953 0.56402 0.22416 0.0
H825 H 0.75014 0.5952 0.39289 0.0
H826 H 0.7789 0.60064 0.34359 0.0
H827 H 0.77158 0.54495 0.27144 0.0
H828 H 0.83197 0.56232 0.08509 0.0
H829 H 0.80401 0.5589 0.13402 0.0
H830 H 0.81306 0.61564 0.2054 0.0
C831 C 0.76378 0.58677 0.33913 0.0
C832 C 0.78046 0.56042 0.25713 0.0
C833 C 0.74739 0.58356 0.36762 0.0
C834 C 0.83531 0.57466 0.10898 0.0
C835 C 0.81933 0.5726 0.13728 0.0
C836 C 0.80418 0.60019 0.21979 0.0
C837 C 0.76054 0.57246 0.30464 0.0
C838 C 0.77722 0.57663 0.27166 0.0
C839 C 0.82331 0.58761 0.17062 0.0
C840 C 0.80724 0.5839 0.2049 0.0
H841 H 0.70929 0.53764 0.32335 0.0
H842 H 0.73779 0.54322 0.27395 0.0
H843 H 0.78693 0.60931 0.26286 0.0
H844 H 0.87464 0.62099 0.14877 0.0
H845 H 0.84678 0.61731 0.19826 0.0
C846 C 0.14129 0.7389 0.49978 0.0
C847 C 0.12125 0.73629 0.49406 0.0
C848 C 0.15759 0.75203 0.47129 0.0
C849 C 0.17524 0.79592 0.39285 0.0
H850 H 0.21084 0.77545 0.34741 0.0
C851 C 0.24275 0.84447 0.27039 0.0
C852 C 0.26189 0.846 0.28205 0.0
C853 C 0.22424 0.82957 0.29088 0.0
C854 C 0.20109 0.78142 0.35995 0.0
H855 H 0.10281 0.74598 0.45494 0.0
H856 H 0.1314 0.76902 0.40525 0.0
H857 H 0.18141 0.75328 0.39593 0.0
H858 H 0.27647 0.83243 0.32253 0.0
H859 H 0.24432 0.80666 0.35841 0.0
H860 H 0.19518 0.82423 0.3577 0.0
C861 C 0.13442 0.76088 0.43181 0.0
C862 C 0.18428 0.76875 0.3878 0.0
C863 C 0.11806 0.74766 0.46024 0.0
C864 C 0.262 0.83169 0.31286 0.0
C865 C 0.24353 0.81682 0.33328 0.0
C866 C 0.19211 0.80863 0.36508 0.0
C867 C 0.15425 0.76289 0.43656 0.0
C868 C 0.17138 0.77599 0.4051 0.0
C869 C 0.22451 0.81589 0.32328 0.0
C870 C 0.20541 0.80163 0.34889 0.0
H871 H 0.1443 0.73044 0.5256 0.0
H872 H 0.17281 0.7536 0.47629 0.0
H873 H 0.16563 0.80195 0.40592 0.0
H874 H 0.24214 0.85522 0.24661 0.0
H875 H 0.20977 0.82901 0.28199 0.0
loop_
_geom_bond_atom_site_label_1
_geom_bond_atom_site_label_2
_geom_bond_distance
_geom_bond_site_symmetry_2
_ccdc_geom_bond_type
C0 O1 1.160 . S
C0 O7 1.185 . S
O1 C0 1.160 . S
O2 Zn3 1.899 . S
O2 C10 1.284 . S
Zn3 O2 1.899 . S
Zn3 O4 2.032 . S
Zn3 O7 2.086 . S
Zn3 O12 1.977 . S
O4 Zn3 2.032 . S
O4 C8 1.278 . S
C5 O6 1.203 . S
C5 O12 1.267 . S
O6 C5 1.203 . S
O7 C0 1.185 . S
O7 Zn3 2.086 . S
C8 O4 1.278 . S
C8 O9 1.211 . S
O9 C8 1.211 . S
C10 O2 1.284 . S
C10 O11 1.273 . S
O11 C10 1.273 . S
O12 Zn3 1.977 . S
O12 C5 1.267 . S
C13 O14 1.160 . S
C13 O20 1.185 . S
O14 C13 1.160 . S
O15 Zn16 1.899 . S
O15 C23 1.284 . S
Zn16 O15 1.899 . S
Zn16 O17 2.032 . S
Zn16 O20 2.086 . S
Zn16 O25 1.977 . S
O17 Zn16 2.032 . S
O17 C21 1.278 . S
C18 O19 1.203 . S
C18 O25 1.267 . S
O19 C18 1.203 . S
O20 C13 1.185 . S
O20 Zn16 2.086 . S
C21 O17 1.278 . S
C21 O22 1.211 . S
O22 C21 1.211 . S
C23 O15 1.284 . S
C23 O24 1.273 . S
O24 C23 1.273 . S
O25 Zn16 1.977 . S
O25 C18 1.267 . S
C26 O27 1.160 . S
C26 O33 1.185 . S
O27 C26 1.160 . S
O28 Zn29 1.899 . S
O28 C36 1.284 . S
Zn29 O28 1.899 . S
Zn29 O30 2.032 . S
Zn29 O33 2.086 . S
Zn29 O38 1.977 . S
O30 Zn29 2.032 . S
O30 C34 1.278 . S
C31 O32 1.203 . S
C31 O38 1.267 . S
O32 C31 1.203 . S
O33 C26 1.185 . S
O33 Zn29 2.086 . S
C34 O30 1.278 . S
C34 O35 1.211 . S
O35 C34 1.211 . S
C36 O28 1.284 . S
C36 O37 1.273 . S
O37 C36 1.273 . S
O38 Zn29 1.977 . S
O38 C31 1.267 . S
C39 O40 1.160 . S
C39 O46 1.185 . S
O40 C39 1.160 . S
O41 Zn42 1.899 . S
O41 C49 1.284 . S
Zn42 O41 1.899 . S
Zn42 O43 2.032 . S
Zn42 O46 2.086 . S
Zn42 O51 1.977 . S
O43 Zn42 2.032 . S
O43 C47 1.278 . S
C44 O45 1.203 . S
C44 O51 1.267 . S
O45 C44 1.203 . S
O46 C39 1.185 . S
O46 Zn42 2.086 . S
C47 O43 1.278 . S
C47 O48 1.211 . S
O48 C47 1.211 . S
C49 O41 1.284 . S
C49 O50 1.273 . S
O50 C49 1.273 . S
O51 Zn42 1.977 . S
O51 C44 1.267 . S
C52 O53 1.160 . S
C52 O59 1.185 . S
O53 C52 1.160 . S
O54 Zn55 1.899 . S
O54 C62 1.284 . S
Zn55 O54 1.899 . S
Zn55 O56 2.032 . S
Zn55 O59 2.086 . S
Zn55 O64 1.977 . S
O56 Zn55 2.032 . S
O56 C60 1.278 . S
C57 O58 1.203 . S
C57 O64 1.267 . S
O58 C57 1.203 . S
O59 C52 1.185 . S
O59 Zn55 2.086 . S
C60 O56 1.278 . S
C60 O61 1.211 . S
O61 C60 1.211 . S
C62 O54 1.284 . S
C62 O63 1.273 . S
O63 C62 1.273 . S
O64 Zn55 1.977 . S
O64 C57 1.267 . S
C65 O66 1.160 . S
C65 O72 1.185 . S
O66 C65 1.160 . S
O67 Zn68 1.899 . S
O67 C75 1.284 . S
Zn68 O67 1.899 . S
Zn68 O69 2.032 . S
Zn68 O72 2.086 . S
Zn68 O77 1.977 . S
O69 Zn68 2.032 . S
O69 C73 1.278 . S
C70 O71 1.203 . S
C70 O77 1.267 . S
O71 C70 1.203 . S
O72 C65 1.185 . S
O72 Zn68 2.086 . S
C73 O69 1.278 . S
C73 O74 1.211 . S
O74 C73 1.211 . S
C75 O67 1.284 . S
C75 O76 1.273 . S
O76 C75 1.273 . S
O77 Zn68 1.977 . S
O77 C70 1.267 . S
C78 O79 1.160 . S
C78 O85 1.185 . S
O79 C78 1.160 . S
O80 Zn81 1.899 . S
O80 C88 1.284 . S
Zn81 O80 1.899 . S
Zn81 O82 2.032 . S
Zn81 O85 2.086 . S
Zn81 O90 1.977 . S
O82 Zn81 2.032 . S
O82 C86 1.278 . S
C83 O84 1.203 . S
C83 O90 1.267 . S
O84 C83 1.203 . S
O85 C78 1.185 . S
O85 Zn81 2.086 . S
C86 O82 1.278 . S
C86 O87 1.211 . S
O87 C86 1.211 . S
C88 O80 1.284 . S
C88 O89 1.273 . S
O89 C88 1.273 . S
O90 Zn81 1.977 . S
O90 C83 1.267 . S
C91 O92 1.160 . S
C91 O98 1.185 . S
O92 C91 1.160 . S
O93 Zn94 1.899 . S
O93 C101 1.284 . S
Zn94 O93 1.899 . S
Zn94 O95 2.032 . S
Zn94 O98 2.086 . S
Zn94 O103 1.977 . S
O95 Zn94 2.032 . S
O95 C99 1.278 . S
C96 O97 1.203 . S
C96 O103 1.267 . S
O97 C96 1.203 . S
O98 C91 1.185 . S
O98 Zn94 2.086 . S
C99 O95 1.278 . S
C99 O100 1.211 . S
O100 C99 1.211 . S
C101 O93 1.284 . S
C101 O102 1.273 . S
O102 C101 1.273 . S
O103 Zn94 1.977 . S
O103 C96 1.267 . S
C104 O105 1.160 . S
C104 O111 1.185 . S
O105 C104 1.160 . S
O106 Zn107 1.899 . S
O106 C114 1.284 . S
Zn107 O106 1.899 . S
Zn107 O108 2.032 . S
Zn107 O111 2.086 . S
Zn107 O116 1.977 . S
O108 Zn107 2.032 . S
O108 C112 1.278 . S
C109 O110 1.203 . S
C109 O116 1.267 . S
O110 C109 1.203 . S
O111 C104 1.185 . S
O111 Zn107 2.086 . S
C112 O108 1.278 . S
C112 O113 1.211 . S
O113 C112 1.211 . S
C114 O106 1.284 . S
C114 O115 1.273 . S
O115 C114 1.273 . S
O116 Zn107 1.977 . S
O116 C109 1.267 . S
C117 O118 1.160 . S
C117 O124 1.185 . S
O118 C117 1.160 . S
O119 Zn120 1.899 . S
O119 C127 1.284 . S
Zn120 O119 1.899 . S
Zn120 O121 2.032 . S
Zn120 O124 2.086 . S
Zn120 O129 1.977 . S
O121 Zn120 2.032 . S
O121 C125 1.278 . S
C122 O123 1.203 . S
C122 O129 1.267 . S
O123 C122 1.203 . S
O124 C117 1.185 . S
O124 Zn120 2.086 . S
C125 O121 1.278 . S
C125 O126 1.211 . S
O126 C125 1.211 . S
C127 O119 1.284 . S
C127 O128 1.273 . S
O128 C127 1.273 . S
O129 Zn120 1.977 . S
O129 C122 1.267 . S
C130 O131 1.160 . S
C130 O137 1.185 . S
O131 C130 1.160 . S
O132 Zn133 1.899 . S
O132 C140 1.284 . S
Zn133 O132 1.899 . S
Zn133 O134 2.032 . S
Zn133 O137 2.086 . S
Zn133 O142 1.977 . S
O134 Zn133 2.032 . S
O134 C138 1.278 . S
C135 O136 1.203 . S
C135 O142 1.267 . S
O136 C135 1.203 . S
O137 C130 1.185 . S
O137 Zn133 2.086 . S
C138 O134 1.278 . S
C138 O139 1.211 . S
O139 C138 1.211 . S
C140 O132 1.284 . S
C140 O141 1.273 . S
O141 C140 1.273 . S
O142 Zn133 1.977 . S
O142 C135 1.267 . S
C143 O144 1.160 . S
C143 O150 1.185 . S
O144 C143 1.160 . S
O145 Zn146 1.899 . S
O145 C153 1.284 . S
Zn146 O145 1.899 . S
Zn146 O147 2.032 . S
Zn146 O150 2.086 . S
Zn146 O155 1.977 . S
O147 Zn146 2.032 . S
O147 C151 1.278 . S
C148 O149 1.203 . S
C148 O155 1.267 . S
O149 C148 1.203 . S
O150 C143 1.185 . S
O150 Zn146 2.086 . S
C151 O147 1.278 . S
C151 O152 1.211 . S
O152 C151 1.211 . S
C153 O145 1.284 . S
C153 O154 1.273 . S
O154 C153 1.273 . S
O155 Zn146 1.977 . S
O155 C148 1.267 . S
C156 C157 1.349 . S
C156 C158 1.327 . S
C156 H181 0.950 1_554 S
C157 C156 1.349 . S
C157 C173 1.349 . S
C158 C156 1.327 . S
C158 C177 1.429 . S
C158 H182 0.950 . S
C159 C176 1.574 . S
C159 C178 1.368 . S
C159 H183 0.949 . S
H160 C164 0.949 . S
C161 C162 1.349 . S
C161 C163 1.327 . S
C161 H184 0.950 . S
C162 C161 1.349 . S
C162 C174 1.349 . S
C163 C161 1.327 . S
C163 C179 1.429 . S
C163 H185 0.950 . S
C164 H160 0.949 . S
C164 C172 1.574 . S
C164 C180 1.368 . S
H165 C173 0.950 . S
H166 C171 0.950 . S
H167 C172 0.949 . S
H168 C174 0.950 . S
H169 C175 0.950 . S
H170 C176 0.949 . S
C171 H166 0.950 . S
C171 C173 1.327 . S
C171 C177 1.429 . S
C172 C164 1.574 . S
C172 H167 0.949 . S
C172 C178 1.368 . S
C173 C157 1.349 . S
C173 H165 0.950 . S
C173 C171 1.327 . S
C174 C162 1.349 . S
C174 H168 0.950 . S
C174 C175 1.327 . S
C175 H169 0.950 . S
C175 C174 1.327 . S
C175 C179 1.429 . S
C176 C159 1.574 . S
C176 H170 0.949 . S
C176 C180 1.368 . S
C177 C158 1.429 . S
C177 C171 1.429 . S
C177 C178 1.523 . S
C178 C159 1.368 . S
C178 C172 1.368 . S
C178 C177 1.523 . S
C179 C163 1.429 . S
C179 C175 1.429 . S
C179 C180 1.523 . S
C180 C164 1.368 . S
C180 C176 1.368 . S
C180 C179 1.523 . S
H181 C156 0.950 1_556 S
H182 C158 0.950 . S
H183 C159 0.949 . S
H184 C161 0.950 . S
H185 C163 0.950 . S
C186 C187 1.349 . S
C186 C188 1.327 . S
C186 H211 0.950 . S
C187 C186 1.349 . S
C187 C203 1.349 . S
C188 C186 1.327 . S
C188 C207 1.429 . S
C188 H212 0.950 . S
C189 C206 1.574 . S
C189 C208 1.368 . S
C189 H213 0.949 . S
H190 C194 0.949 . S
C191 C192 1.349 . S
C191 C193 1.327 . S
C191 H214 0.950 . S
C192 C191 1.349 . S
C192 C204 1.349 . S
C193 C191 1.327 . S
C193 C209 1.429 . S
C193 H215 0.950 . S
C194 H190 0.949 . S
C194 C202 1.574 . S
C194 C210 1.368 . S
H195 C203 0.950 . S
H196 C201 0.950 . S
H197 C202 0.949 . S
H198 C204 0.950 . S
H199 C205 0.950 . S
H200 C206 0.949 . S
C201 H196 0.950 . S
C201 C203 1.327 . S
C201 C207 1.429 . S
C202 C194 1.574 . S
C202 H197 0.949 . S
C202 C208 1.368 1_655 S
C203 C187 1.349 . S
C203 H195 0.950 . S
C203 C201 1.327 . S
C204 C192 1.349 . S
C204 H198 0.950 . S
C204 C205 1.327 . S
C205 H199 0.950 . S
C205 C204 1.327 . S
C205 C209 1.429 . S
C206 C189 1.574 . S
C206 H200 0.949 . S
C206 C210 1.368 1_455 S
C207 C188 1.429 . S
C207 C201 1.429 . S
C207 C208 1.523 . S
C208 C189 1.368 . S
C208 C202 1.368 1_455 S
C208 C207 1.523 . S
C209 C193 1.429 . S
C209 C205 1.429 . S
C209 C210 1.523 . S
C210 C194 1.368 . S
C210 C206 1.368 1_655 S
C210 C209 1.523 . S
H211 C186 0.950 . S
H212 C188 0.950 . S
H213 C189 0.949 . S
H214 C191 0.950 . S
H215 C193 0.950 . S
C216 C217 1.349 . S
C216 C218 1.327 . S
C216 H241 0.950 . S
C217 C216 1.349 . S
C217 C233 1.349 . S
C218 C216 1.327 . S
C218 C237 1.429 . S
C218 H242 0.950 . S
C219 C236 1.574 . S
C219 C238 1.368 1_545 S
C219 H243 0.949 . S
H220 C224 0.949 . S
C221 C222 1.349 . S
C221 C223 1.327 . S
C221 H244 0.950 . S
C222 C221 1.349 . S
C222 C234 1.349 . S
C223 C221 1.327 . S
C223 C239 1.429 . S
C223 H245 0.950 . S
C224 H220 0.949 . S
C224 C232 1.574 . S
C224 C240 1.368 1_565 S
H225 C233 0.950 . S
H226 C231 0.950 . S
H227 C232 0.949 . S
H228 C234 0.950 . S
H229 C235 0.950 . S
H230 C236 0.949 . S
C231 H226 0.950 . S
C231 C233 1.327 . S
C231 C237 1.429 . S
C232 C224 1.574 . S
C232 H227 0.949 . S
C232 C238 1.368 . S
C233 C217 1.349 . S
C233 H225 0.950 . S
C233 C231 1.327 . S
C234 C222 1.349 . S
C234 H228 0.950 . S
C234 C235 1.327 . S
C235 H229 0.950 . S
C235 C234 1.327 . S
C235 C239 1.429 . S
C236 C219 1.574 . S
C236 H230 0.949 . S
C236 C240 1.368 . S
C237 C218 1.429 . S
C237 C231 1.429 . S
C237 C238 1.523 . S
C238 C219 1.368 1_565 S
C238 C232 1.368 . S
C238 C237 1.523 . S
C239 C223 1.429 . S
C239 C235 1.429 . S
C239 C240 1.523 . S
C240 C224 1.368 1_545 S
C240 C236 1.368 . S
C240 C239 1.523 . S
H241 C216 0.950 . S
H242 C218 0.950 . S
H243 C219 0.949 . S
H244 C221 0.950 . S
H245 C223 0.950 . S
C246 C247 1.349 . S
C246 C248 1.327 . S
C246 H271 0.950 . S
C247 C246 1.349 . S
C247 C263 1.349 . S
C248 C246 1.327 . S
C248 C267 1.429 . S
C248 H272 0.950 . S
C249 C266 1.574 . S
C249 C268 1.368 . S
C249 H273 0.949 . S
H250 C254 0.949 . S
C251 C252 1.349 . S
C251 C253 1.327 . S
C251 H274 0.950 . S
C252 C251 1.349 . S
C252 C264 1.349 . S
C253 C251 1.327 . S
C253 C269 1.429 . S
C253 H275 0.950 . S
C254 H250 0.949 . S
C254 C262 1.574 . S
C254 C270 1.368 . S
H255 C263 0.950 . S
H256 C261 0.950 . S
H257 C262 0.949 . S
H258 C264 0.950 . S
H259 C265 0.950 . S
H260 C266 0.949 . S
C261 H256 0.950 . S
C261 C263 1.327 . S
C261 C267 1.429 . S
C262 C254 1.574 . S
C262 H257 0.949 . S
C262 C268 1.368 . S
C263 C247 1.349 . S
C263 H255 0.950 . S
C263 C261 1.327 . S
C264 C252 1.349 . S
C264 H258 0.950 . S
C264 C265 1.327 . S
C265 H259 0.950 . S
C265 C264 1.327 . S
C265 C269 1.429 . S
C266 C249 1.574 . S
C266 H260 0.949 . S
C266 C270 1.368 . S
C267 C248 1.429 . S
C267 C261 1.429 . S
C267 C268 1.523 . S
C268 C249 1.368 . S
C268 C262 1.368 . S
C268 C267 1.523 . S
C269 C253 1.429 . S
C269 C265 1.429 . S
C269 C270 1.523 . S
C270 C254 1.368 . S
C270 C266 1.368 . S
C270 C269 1.523 . S
H271 C246 0.950 . S
H272 C248 0.950 . S
H273 C249 0.949 . S
H274 C251 0.950 . S
H275 C253 0.950 . S
C276 C277 1.349 . S
C276 C278 1.327 . S
C276 H301 0.950 . S
C277 C276 1.349 . S
C277 C293 1.349 . S
C278 C276 1.327 . S
C278 C297 1.429 . S
C278 H302 0.950 . S
C279 C296 1.577 1_455 S
C279 C298 1.368 . S
C279 H303 0.949 . S
H280 C284 0.949 . S
C281 C282 1.349 . S
C281 C283 1.327 . S
C281 H304 0.950 . S
C282 C281 1.349 . S
C282 C294 1.349 . S
C283 C281 1.327 . S
C283 C299 1.429 . S
C283 H305 0.950 . S
C284 H280 0.949 . S
C284 C292 1.577 1_655 S
C284 C300 1.368 . S
H285 C293 0.950 . S
H286 C291 0.950 . S
H287 C292 0.957 . S
H288 C294 0.950 . S
H289 C295 0.950 . S
H290 C296 0.957 . S
C291 H286 0.950 . S
C291 C293 1.327 . S
C291 C297 1.429 . S
C292 C284 1.577 1_455 S
C292 H287 0.957 . S
C292 C298 1.363 . S
C293 C277 1.349 . S
C293 H285 0.950 . S
C293 C291 1.327 . S
C294 C282 1.349 . S
C294 H288 0.950 . S
C294 C295 1.327 . S
C295 H289 0.950 . S
C295 C294 1.327 . S
C295 C299 1.429 . S
C296 C279 1.577 1_655 S
C296 H290 0.957 . S
C296 C300 1.362 . S
C297 C278 1.429 . S
C297 C291 1.429 . S
C297 C298 1.523 . S
C298 C279 1.368 . S
C298 C292 1.363 . S
C298 C297 1.523 . S
C299 C283 1.429 . S
C299 C295 1.429 . S
C299 C300 1.523 . S
C300 C284 1.368 . S
C300 C296 1.362 . S
C300 C299 1.523 . S
H301 C276 0.950 . S
H302 C278 0.950 . S
H303 C279 0.949 . S
H304 C281 0.950 . S
H305 C283 0.950 . S
C306 C307 1.349 . S
C306 C308 1.327 . S
C306 H331 0.950 . S
C307 C306 1.349 . S
C307 C323 1.349 . S
C308 C306 1.327 . S
C308 C327 1.429 . S
C308 H332 0.950 . S
C309 C326 1.574 . S
C309 C328 1.368 1_565 S
C309 H333 0.949 . S
H310 C314 0.949 . S
C311 C312 1.349 . S
C311 C313 1.327 . S
C311 H334 0.950 . S
C312 C311 1.349 . S
C312 C324 1.349 . S
C313 C311 1.327 . S
C313 C329 1.429 . S
C313 H335 0.950 . S
C314 H310 0.949 . S
C314 C322 1.574 . S
C314 C330 1.368 1_545 S
H315 C323 0.950 . S
H316 C321 0.950 . S
H317 C322 0.949 . S
H318 C324 0.950 . S
H319 C325 0.950 . S
H320 C326 0.949 . S
C321 H316 0.950 . S
C321 C323 1.327 . S
C321 C327 1.429 . S
C322 C314 1.574 . S
C322 H317 0.949 . S
C322 C328 1.368 1_554 S
C323 C307 1.349 . S
C323 H315 0.950 . S
C323 C321 1.327 . S
C324 C312 1.349 . S
C324 H318 0.950 . S
C324 C325 1.327 . S
C325 H319 0.950 . S
C325 C324 1.327 . S
C325 C329 1.429 . S
C326 C309 1.574 . S
C326 H320 0.949 . S
C326 C330 1.368 1_556 S
C327 C308 1.429 . S
C327 C321 1.429 . S
C327 C328 1.523 . S
C328 C309 1.368 1_545 S
C328 C322 1.368 1_556 S
C328 C327 1.523 . S
C329 C313 1.429 . S
C329 C325 1.429 . S
C329 C330 1.523 . S
C330 C314 1.368 1_565 S
C330 C326 1.368 1_554 S
C330 C329 1.523 . S
H331 C306 0.950 . S
H332 C308 0.950 . S
H333 C309 0.949 . S
H334 C311 0.950 . S
H335 C313 0.950 . S
C336 C337 1.349 . S
C336 C338 1.327 . S
C336 H361 0.950 . S
C337 C336 1.349 . S
C337 C353 1.349 . S
C338 C336 1.327 . S
C338 C357 1.429 . S
C338 H362 0.950 . S
C339 C356 1.574 . S
C339 C358 1.368 . S
C339 H363 0.949 . S
H340 C344 0.949 . S
C341 C342 1.349 . S
C341 C343 1.327 . S
C341 H364 0.950 . S
C342 C341 1.349 . S
C342 C354 1.349 . S
C343 C341 1.327 . S
C343 C359 1.429 . S
C343 H365 0.950 . S
C344 H340 0.949 . S
C344 C352 1.574 . S
C344 C360 1.368 . S
H345 C353 0.950 . S
H346 C351 0.950 . S
H347 C352 0.949 . S
H348 C354 0.950 . S
H349 C355 0.950 . S
H350 C356 0.949 . S
C351 H346 0.950 . S
C351 C353 1.327 . S
C351 C357 1.429 . S
C352 C344 1.574 . S
C352 H347 0.949 . S
C352 C358 1.368 . S
C353 C337 1.349 . S
C353 H345 0.950 . S
C353 C351 1.327 . S
C354 C342 1.349 . S
C354 H348 0.950 . S
C354 C355 1.327 . S
C355 H349 0.950 . S
C355 C354 1.327 . S
C355 C359 1.429 . S
C356 C339 1.574 . S
C356 H350 0.949 . S
C356 C360 1.368 . S
C357 C338 1.429 . S
C357 C351 1.429 . S
C357 C358 1.523 . S
C358 C339 1.368 . S
C358 C352 1.368 . S
C358 C357 1.523 . S
C359 C343 1.429 . S
C359 C355 1.429 . S
C359 C360 1.523 . S
C360 C344 1.368 . S
C360 C356 1.368 . S
C360 C359 1.523 . S
H361 C336 0.950 . S
H362 C338 0.950 . S
H363 C339 0.949 . S
H364 C341 0.950 . S
H365 C343 0.950 . S
C366 C367 1.349 . S
C366 C368 1.327 . S
C366 H391 0.950 . S
C367 C366 1.349 . S
C367 C383 1.349 . S
C368 C366 1.327 . S
C368 C387 1.429 . S
C368 H392 0.950 . S
C369 C386 1.574 . S
C369 C388 1.368 . S
C369 H393 0.949 . S
H370 C374 0.949 . S
C371 C372 1.349 . S
C371 C373 1.327 . S
C371 H394 0.950 . S
C372 C371 1.349 . S
C372 C384 1.349 . S
C373 C371 1.327 . S
C373 C389 1.429 . S
C373 H395 0.950 . S
C374 H370 0.949 . S
C374 C382 1.574 . S
C374 C390 1.368 . S
H375 C383 0.950 . S
H376 C381 0.950 . S
H377 C382 0.949 . S
H378 C384 0.950 . S
H379 C385 0.950 . S
H380 C386 0.949 . S
C381 H376 0.950 . S
C381 C383 1.327 . S
C381 C387 1.429 . S
C382 C374 1.574 . S
C382 H377 0.949 . S
C382 C388 1.368 . S
C383 C367 1.349 . S
C383 H375 0.950 . S
C383 C381 1.327 . S
C384 C372 1.349 . S
C384 H378 0.950 . S
C384 C385 1.327 . S
C385 H379 0.950 . S
C385 C384 1.327 . S
C385 C389 1.429 . S
C386 C369 1.574 . S
C386 H380 0.949 . S
C386 C390 1.368 . S
C387 C368 1.429 . S
C387 C381 1.429 . S
C387 C388 1.523 . S
C388 C369 1.368 . S
C388 C382 1.368 . S
C388 C387 1.523 . S
C389 C373 1.429 . S
C389 C385 1.429 . S
C389 C390 1.523 . S
C390 C374 1.368 . S
C390 C386 1.368 . S
C390 C389 1.523 . S
H391 C366 0.950 . S
H392 C368 0.950 . S
H393 C369 0.949 . S
H394 C371 0.950 . S
H395 C373 0.950 . S
C396 C397 1.349 . S
C396 C398 1.327 . S
C396 H421 0.950 . S
C397 C396 1.349 . S
C397 C413 1.349 . S
C398 C396 1.327 . S
C398 C417 1.429 . S
C398 H422 0.950 . S
C399 C416 1.574 . S
C399 C418 1.368 . S
C399 H423 0.949 . S
H400 C404 0.949 . S
C401 C402 1.349 . S
C401 C403 1.327 . S
C401 H424 0.950 . S
C402 C401 1.349 . S
C402 C414 1.349 . S
C403 C401 1.327 . S
C403 C419 1.429 . S
C403 H425 0.950 . S
C404 H400 0.949 . S
C404 C412 1.574 . S
C404 C420 1.368 . S
H405 C413 0.950 . S
H406 C411 0.950 . S
H407 C412 0.949 . S
H408 C414 0.950 . S
H409 C415 0.950 . S
H410 C416 0.949 . S
C411 H406 0.950 . S
C411 C413 1.327 . S
C411 C417 1.429 . S
C412 C404 1.574 . S
C412 H407 0.949 . S
C412 C418 1.368 . S
C413 C397 1.349 . S
C413 H405 0.950 . S
C413 C411 1.327 . S
C414 C402 1.349 . S
C414 H408 0.950 . S
C414 C415 1.327 . S
C415 H409 0.950 . S
C415 C414 1.327 . S
C415 C419 1.429 . S
C416 C399 1.574 . S
C416 H410 0.949 . S
C416 C420 1.368 . S
C417 C398 1.429 . S
C417 C411 1.429 . S
C417 C418 1.523 . S
C418 C399 1.368 . S
C418 C412 1.368 . S
C418 C417 1.523 . S
C419 C403 1.429 . S
C419 C415 1.429 . S
C419 C420 1.523 . S
C420 C404 1.368 . S
C420 C416 1.368 . S
C420 C419 1.523 . S
H421 C396 0.950 . S
H422 C398 0.950 . S
H423 C399 0.949 . S
H424 C401 0.950 . S
H425 C403 0.950 . S
C426 C427 1.349 . S
C426 C428 1.327 . S
C426 H451 0.950 . S
C427 C426 1.349 . S
C427 C443 1.349 . S
C428 C426 1.327 . S
C428 C447 1.429 . S
C428 H452 0.950 . S
C429 C446 1.574 . S
C429 C448 1.368 . S
C429 H453 0.949 . S
H430 C434 0.949 . S
C431 C432 1.349 . S
C431 C433 1.327 . S
C431 H454 0.950 . S
C432 C431 1.349 . S
C432 C444 1.349 . S
C433 C431 1.327 . S
C433 C449 1.429 . S
C433 H455 0.950 . S
C434 H430 0.949 . S
C434 C442 1.574 . S
C434 C450 1.368 . S
H435 C443 0.950 . S
H436 C441 0.950 . S
H437 C442 0.949 . S
H438 C444 0.950 . S
H439 C445 0.950 . S
H440 C446 0.949 . S
C441 H436 0.950 . S
C441 C443 1.327 . S
C441 C447 1.429 . S
C442 C434 1.574 . S
C442 H437 0.949 . S
C442 C448 1.368 . S
C443 C427 1.349 . S
C443 H435 0.950 . S
C443 C441 1.327 . S
C444 C432 1.349 . S
C444 H438 0.950 . S
C444 C445 1.327 . S
C445 H439 0.950 . S
C445 C444 1.327 . S
C445 C449 1.429 . S
C446 C429 1.574 . S
C446 H440 0.949 . S
C446 C450 1.368 . S
C447 C428 1.429 . S
C447 C441 1.429 . S
C447 C448 1.523 . S
C448 C429 1.368 . S
C448 C442 1.368 . S
C448 C447 1.523 . S
C449 C433 1.429 . S
C449 C445 1.429 . S
C449 C450 1.523 . S
C450 C434 1.368 . S
C450 C446 1.368 . S
C450 C449 1.523 . S
H451 C426 0.950 . S
H452 C428 0.950 . S
H453 C429 0.949 . S
H454 C431 0.950 . S
H455 C433 0.950 . S
C456 C457 1.349 . S
C456 C458 1.327 . S
C456 H481 0.950 . S
C457 C456 1.349 . S
C457 C473 1.349 . S
C458 C456 1.327 . S
C458 C477 1.429 . S
C458 H482 0.950 . S
C459 C476 1.574 . S
C459 C478 1.368 . S
C459 H483 0.949 . S
H460 C464 0.949 . S
C461 C462 1.349 . S
C461 C463 1.327 . S
C461 H484 0.950 . S
C462 C461 1.349 . S
C462 C474 1.349 . S
C463 C461 1.327 . S
C463 C479 1.429 . S
C463 H485 0.950 . S
C464 H460 0.949 . S
C464 C472 1.574 . S
C464 C480 1.368 . S
H465 C473 0.950 . S
H466 C471 0.950 . S
H467 C472 0.949 . S
H468 C474 0.950 . S
H469 C475 0.950 . S
H470 C476 0.949 . S
C471 H466 0.950 . S
C471 C473 1.327 . S
C471 C477 1.429 . S
C472 C464 1.574 . S
C472 H467 0.949 . S
C472 C478 1.368 . S
C473 C457 1.349 . S
C473 H465 0.950 . S
C473 C471 1.327 . S
C474 C462 1.349 . S
C474 H468 0.950 . S
C474 C475 1.327 . S
C475 H469 0.950 . S
C475 C474 1.327 . S
C475 C479 1.429 . S
C476 C459 1.574 . S
C476 H470 0.949 . S
C476 C480 1.368 . S
C477 C458 1.429 . S
C477 C471 1.429 . S
C477 C478 1.523 . S
C478 C459 1.368 . S
C478 C472 1.368 . S
C478 C477 1.523 . S
C479 C463 1.429 . S
C479 C475 1.429 . S
C479 C480 1.523 . S
C480 C464 1.368 . S
C480 C476 1.368 . S
C480 C479 1.523 . S
H481 C456 0.950 . S
H482 C458 0.950 . S
H483 C459 0.949 . S
H484 C461 0.950 . S
H485 C463 0.950 . S
C486 C487 1.349 . S
C486 C488 1.327 . S
C486 H511 0.950 . S
C487 C486 1.349 . S
C487 C503 1.349 . S
C488 C486 1.327 . S
C488 C507 1.429 . S
C488 H512 0.950 . S
C489 C506 1.574 . S
C489 C508 1.368 . S
C489 H513 0.949 . S
H490 C494 0.949 . S
C491 C492 1.349 . S
C491 C493 1.327 . S
C491 H514 0.950 . S
C492 C491 1.349 . S
C492 C504 1.349 . S
C493 C491 1.327 . S
C493 C509 1.429 . S
C493 H515 0.950 . S
C494 H490 0.949 . S
C494 C502 1.574 . S
C494 C510 1.368 . S
H495 C503 0.950 . S
H496 C501 0.950 . S
H497 C502 0.949 . S
H498 C504 0.950 . S
H499 C505 0.950 . S
H500 C506 0.949 . S
C501 H496 0.950 . S
C501 C503 1.327 . S
C501 C507 1.429 . S
C502 C494 1.574 . S
C502 H497 0.949 . S
C502 C508 1.368 . S
C503 C487 1.349 . S
C503 H495 0.950 . S
C503 C501 1.327 . S
C504 C492 1.349 . S
C504 H498 0.950 . S
C504 C505 1.327 . S
C505 H499 0.950 . S
C505 C504 1.327 . S
C505 C509 1.429 . S
C506 C489 1.574 . S
C506 H500 0.949 . S
C506 C510 1.368 . S
C507 C488 1.429 . S
C507 C501 1.429 . S
C507 C508 1.523 . S
C508 C489 1.368 . S
C508 C502 1.368 . S
C508 C507 1.523 . S
C509 C493 1.429 . S
C509 C505 1.429 . S
C509 C510 1.523 . S
C510 C494 1.368 . S
C510 C506 1.368 . S
C510 C509 1.523 . S
H511 C486 0.950 . S
H512 C488 0.950 . S
H513 C489 0.949 . S
H514 C491 0.950 . S
H515 C493 0.950 . S
C516 C517 1.349 . S
C516 C518 1.327 . S
C516 H541 0.950 . S
C517 C516 1.349 . S
C517 C533 1.349 . S
C518 C516 1.327 . S
C518 C537 1.429 . S
C518 H542 0.950 . S
C519 C536 1.574 . S
C519 C538 1.368 . S
C519 H543 0.949 . S
H520 C524 0.949 . S
C521 C522 1.349 . S
C521 C523 1.327 . S
C521 H544 0.950 . S
C522 C521 1.349 . S
C522 C534 1.349 . S
C523 C521 1.327 . S
C523 C539 1.429 . S
C523 H545 0.950 . S
C524 H520 0.949 . S
C524 C532 1.574 . S
C524 C540 1.368 . S
H525 C533 0.950 . S
H526 C531 0.950 . S
H527 C532 0.949 . S
H528 C534 0.950 . S
H529 C535 0.950 . S
H530 C536 0.949 . S
C531 H526 0.950 . S
C531 C533 1.327 . S
C531 C537 1.429 . S
C532 C524 1.574 . S
C532 H527 0.949 . S
C532 C538 1.368 . S
C533 C517 1.349 . S
C533 H525 0.950 . S
C533 C531 1.327 . S
C534 C522 1.349 . S
C534 H528 0.950 . S
C534 C535 1.327 . S
C535 H529 0.950 . S
C535 C534 1.327 . S
C535 C539 1.429 . S
C536 C519 1.574 . S
C536 H530 0.949 . S
C536 C540 1.368 . S
C537 C518 1.429 . S
C537 C531 1.429 . S
C537 C538 1.523 . S
C538 C519 1.368 . S
C538 C532 1.368 . S
C538 C537 1.523 . S
C539 C523 1.429 . S
C539 C535 1.429 . S
C539 C540 1.523 . S
C540 C524 1.368 . S
C540 C536 1.368 . S
C540 C539 1.523 . S
H541 C516 0.950 . S
H542 C518 0.950 . S
H543 C519 0.949 . S
H544 C521 0.950 . S
H545 C523 0.950 . S
C546 C547 1.349 . S
C546 C548 1.327 . S
C546 H571 0.950 1_556 S
C547 C546 1.349 . S
C547 C563 1.349 . S
C548 C546 1.327 . S
C548 C567 1.429 . S
C548 H572 0.950 . S
C549 C566 1.574 . S
C549 C568 1.368 . S
C549 H573 0.949 . S
H550 C554 0.949 . S
C551 C552 1.349 . S
C551 C553 1.327 . S
C551 H574 0.950 . S
C552 C551 1.349 . S
C552 C564 1.349 . S
C553 C551 1.327 . S
C553 C569 1.429 . S
C553 H575 0.950 . S
C554 H550 0.949 . S
C554 C562 1.574 . S
C554 C570 1.368 . S
H555 C563 0.950 . S
H556 C561 0.950 . S
H557 C562 0.949 . S
H558 C564 0.950 . S
H559 C565 0.950 . S
H560 C566 0.949 . S
C561 H556 0.950 . S
C561 C563 1.327 . S
C561 C567 1.429 . S
C562 C554 1.574 . S
C562 H557 0.949 . S
C562 C568 1.368 1_455 S
C563 C547 1.349 . S
C563 H555 0.950 . S
C563 C561 1.327 . S
C564 C552 1.349 . S
C564 H558 0.950 . S
C564 C565 1.327 . S
C565 H559 0.950 . S
C565 C564 1.327 . S
C565 C569 1.429 . S
C566 C549 1.574 . S
C566 H560 0.949 . S
C566 C570 1.368 1_655 S
C567 C548 1.429 . S
C567 C561 1.429 . S
C567 C568 1.523 . S
C568 C549 1.368 . S
C568 C562 1.368 1_655 S
C568 C567 1.523 . S
C569 C553 1.429 . S
C569 C565 1.429 . S
C569 C570 1.523 . S
C570 C554 1.368 . S
C570 C566 1.368 1_455 S
C570 C569 1.523 . S
H571 C546 0.950 1_554 S
H572 C548 0.950 . S
H573 C549 0.949 . S
H574 C551 0.950 . S
H575 C553 0.950 . S
C576 C577 1.349 . S
C576 C578 1.327 . S
C576 H601 0.950 . S
C577 C576 1.349 . S
C577 C593 1.349 . S
C578 C576 1.327 . S
C578 C597 1.429 . S
C578 H602 0.950 . S
C579 C596 1.574 1_554 S
C579 C598 1.368 1_545 S
C579 H603 0.949 . S
H580 C584 0.949 . S
C581 C582 1.349 . S
C581 C583 1.327 . S
C581 H604 0.950 . S
C582 C581 1.349 . S
C582 C594 1.349 . S
C583 C581 1.327 . S
C583 C599 1.429 . S
C583 H605 0.950 . S
C584 H580 0.949 . S
C584 C592 1.574 1_556 S
C584 C600 1.368 1_565 S
H585 C593 0.950 . S
H586 C591 0.950 . S
H587 C592 0.949 . S
H588 C594 0.950 . S
H589 C595 0.950 . S
H590 C596 0.949 . S
C591 H586 0.950 . S
C591 C593 1.327 . S
C591 C597 1.429 . S
C592 C584 1.574 1_554 S
C592 H587 0.949 . S
C592 C598 1.368 . S
C593 C577 1.349 . S
C593 H585 0.950 . S
C593 C591 1.327 . S
C594 C582 1.349 . S
C594 H588 0.950 . S
C594 C595 1.327 . S
C595 H589 0.950 . S
C595 C594 1.327 . S
C595 C599 1.429 . S
C596 C579 1.574 1_556 S
C596 H590 0.949 . S
C596 C600 1.368 . S
C597 C578 1.429 . S
C597 C591 1.429 . S
C597 C598 1.523 . S
C598 C579 1.368 1_565 S
C598 C592 1.368 . S
C598 C597 1.523 . S
C599 C583 1.429 . S
C599 C595 1.429 . S
C599 C600 1.523 . S
C600 C584 1.368 1_545 S
C600 C596 1.368 . S
C600 C599 1.523 . S
H601 C576 0.950 . S
H602 C578 0.950 . S
H603 C579 0.949 . S
H604 C581 0.950 . S
H605 C583 0.950 . S
C606 C607 1.349 . S
C606 C608 1.327 . S
C606 H631 0.950 . S
C607 C606 1.349 . S
C607 C623 1.349 . S
C608 C606 1.327 . S
C608 C627 1.429 . S
C608 H632 0.950 . S
C609 C626 1.574 . S
C609 C628 1.368 . S
C609 H633 0.949 . S
H610 C614 0.949 . S
C611 C612 1.349 . S
C611 C613 1.327 . S
C611 H634 0.950 . S
C612 C611 1.349 . S
C612 C624 1.349 . S
C613 C611 1.327 . S
C613 C629 1.429 . S
C613 H635 0.950 . S
C614 H610 0.949 . S
C614 C622 1.574 . S
C614 C630 1.368 . S
H615 C623 0.950 1_556 S
H616 C621 0.950 . S
H617 C622 0.949 . S
H618 C624 0.950 . S
H619 C625 0.950 . S
H620 C626 0.949 . S
C621 H616 0.950 . S
C621 C623 1.327 . S
C621 C627 1.429 . S
C622 C614 1.574 . S
C622 H617 0.949 . S
C622 C628 1.368 . S
C623 C607 1.349 . S
C623 H615 0.950 1_554 S
C623 C621 1.327 . S
C624 C612 1.349 . S
C624 H618 0.950 . S
C624 C625 1.327 . S
C625 H619 0.950 . S
C625 C624 1.327 . S
C625 C629 1.429 . S
C626 C609 1.574 . S
C626 H620 0.949 . S
C626 C630 1.368 . S
C627 C608 1.429 . S
C627 C621 1.429 . S
C627 C628 1.523 . S
C628 C609 1.368 . S
C628 C622 1.368 . S
C628 C627 1.523 . S
C629 C613 1.429 . S
C629 C625 1.429 . S
C629 C630 1.523 . S
C630 C614 1.368 . S
C630 C626 1.368 . S
C630 C629 1.523 . S
H631 C606 0.950 . S
H632 C608 0.950 . S
H633 C609 0.949 . S
H634 C611 0.950 . S
H635 C613 0.950 . S
C636 C637 1.349 . S
C636 C638 1.327 . S
C636 H661 0.950 . S
C637 C636 1.349 . S
C637 C653 1.349 . S
C638 C636 1.327 . S
C638 C657 1.429 . S
C638 H662 0.950 . S
C639 C656 1.574 1_455 S
C639 C658 1.368 . S
C639 H663 0.949 . S
H640 C644 0.949 . S
C641 C642 1.349 . S
C641 C643 1.327 . S
C641 H664 0.950 . S
C642 C641 1.349 . S
C642 C654 1.349 . S
C643 C641 1.327 . S
C643 C659 1.429 . S
C643 H665 0.950 . S
C644 H640 0.949 . S
C644 C652 1.574 1_655 S
C644 C660 1.368 . S
H645 C653 0.950 . S
H646 C651 0.950 . S
H647 C652 0.949 . S
H648 C654 0.950 . S
H649 C655 0.950 . S
H650 C656 0.949 . S
C651 H646 0.950 . S
C651 C653 1.327 . S
C651 C657 1.429 . S
C652 C644 1.574 1_455 S
C652 H647 0.949 . S
C652 C658 1.368 . S
C653 C637 1.349 . S
C653 H645 0.950 . S
C653 C651 1.327 . S
C654 C642 1.349 . S
C654 H648 0.950 . S
C654 C655 1.327 . S
C655 H649 0.950 . S
C655 C654 1.327 . S
C655 C659 1.429 . S
C656 C639 1.574 1_655 S
C656 H650 0.949 . S
C656 C660 1.368 . S
C657 C638 1.429 . S
C657 C651 1.429 . S
C657 C658 1.523 . S
C658 C639 1.368 . S
C658 C652 1.368 . S
C658 C657 1.523 . S
C659 C643 1.429 . S
C659 C655 1.429 . S
C659 C660 1.523 . S
C660 C644 1.368 . S
C660 C656 1.368 . S
C660 C659 1.523 . S
H661 C636 0.950 . S
H662 C638 0.950 . S
H663 C639 0.949 . S
H664 C641 0.950 . S
H665 C643 0.950 . S
C666 C667 1.349 . S
C666 C668 1.327 . S
C666 H691 0.950 . S
C667 C666 1.349 . S
C667 C683 1.349 . S
C668 C666 1.327 . S
C668 C687 1.429 . S
C668 H692 0.950 . S
C669 C686 1.574 1_565 S
C669 C688 1.368 . S
C669 H693 0.949 . S
H670 C674 0.949 . S
C671 C672 1.349 . S
C671 C673 1.327 . S
C671 H694 0.950 . S
C672 C671 1.349 . S
C672 C684 1.349 . S
C673 C671 1.327 . S
C673 C689 1.429 . S
C673 H695 0.950 . S
C674 H670 0.949 . S
C674 C682 1.574 1_545 S
C674 C690 1.368 . S
H675 C683 0.950 . S
H676 C681 0.950 . S
H677 C682 0.949 . S
H678 C684 0.950 . S
H679 C685 0.950 . S
H680 C686 0.949 . S
C681 H676 0.950 . S
C681 C683 1.327 . S
C681 C687 1.429 . S
C682 C674 1.574 1_565 S
C682 H677 0.949 . S
C682 C688 1.368 . S
C683 C667 1.349 . S
C683 H675 0.950 . S
C683 C681 1.327 . S
C684 C672 1.349 . S
C684 H678 0.950 . S
C684 C685 1.327 . S
C685 H679 0.950 . S
C685 C684 1.327 . S
C685 C689 1.429 . S
C686 C669 1.574 1_545 S
C686 H680 0.949 . S
C686 C690 1.368 . S
C687 C668 1.429 . S
C687 C681 1.429 . S
C687 C688 1.523 . S
C688 C669 1.368 . S
C688 C682 1.368 . S
C688 C687 1.523 . S
C689 C673 1.429 . S
C689 C685 1.429 . S
C689 C690 1.523 . S
C690 C674 1.368 . S
C690 C686 1.368 . S
C690 C689 1.523 . S
H691 C666 0.950 . S
H692 C668 0.950 . S
H693 C669 0.949 . S
H694 C671 0.950 . S
H695 C673 0.950 . S
C696 C697 1.349 . S
C696 C698 1.327 . S
C696 H721 0.950 . S
C697 C696 1.349 . S
C697 C713 1.349 . S
C698 C696 1.327 . S
C698 C717 1.429 . S
C698 H722 0.950 . S
C699 C716 1.574 . S
C699 C718 1.368 . S
C699 H723 0.949 . S
H700 C704 0.949 . S
C701 C702 1.349 . S
C701 C703 1.327 . S
C701 H724 0.950 . S
C702 C701 1.349 . S
C702 C714 1.349 . S
C703 C701 1.327 . S
C703 C719 1.429 . S
C703 H725 0.950 . S
C704 H700 0.949 . S
C704 C712 1.574 . S
C704 C720 1.368 . S
H705 C713 0.950 . S
H706 C711 0.950 . S
H707 C712 0.949 . S
H708 C714 0.950 . S
H709 C715 0.950 . S
H710 C716 0.949 . S
C711 H706 0.950 . S
C711 C713 1.327 . S
C711 C717 1.429 . S
C712 C704 1.574 . S
C712 H707 0.949 . S
C712 C718 1.368 . S
C713 C697 1.349 . S
C713 H705 0.950 . S
C713 C711 1.327 . S
C714 C702 1.349 . S
C714 H708 0.950 . S
C714 C715 1.327 . S
C715 H709 0.950 . S
C715 C714 1.327 . S
C715 C719 1.429 . S
C716 C699 1.574 . S
C716 H710 0.949 . S
C716 C720 1.368 . S
C717 C698 1.429 . S
C717 C711 1.429 . S
C717 C718 1.523 . S
C718 C699 1.368 . S
C718 C712 1.368 . S
C718 C717 1.523 . S
C719 C703 1.429 . S
C719 C715 1.429 . S
C719 C720 1.523 . S
C720 C704 1.368 . S
C720 C716 1.368 . S
C720 C719 1.523 . S
H721 C696 0.950 . S
H722 C698 0.950 . S
H723 C699 0.949 . S
H724 C701 0.950 . S
H725 C703 0.950 . S
C726 C727 1.349 . S
C726 C728 1.327 . S
C726 H751 0.950 . S
C727 C726 1.349 . S
C727 C743 1.349 . S
C728 C726 1.327 . S
C728 C747 1.429 . S
C728 H752 0.950 . S
C729 C746 1.574 . S
C729 C748 1.368 . S
C729 H753 0.949 . S
H730 C734 0.949 . S
C731 C732 1.349 . S
C731 C733 1.327 . S
C731 H754 0.950 . S
C732 C731 1.349 . S
C732 C744 1.349 . S
C733 C731 1.327 . S
C733 C749 1.429 . S
C733 H755 0.950 . S
C734 H730 0.949 . S
C734 C742 1.574 . S
C734 C750 1.368 . S
H735 C743 0.950 . S
H736 C741 0.950 . S
H737 C742 0.949 . S
H738 C744 0.950 . S
H739 C745 0.950 . S
H740 C746 0.949 . S
C741 H736 0.950 . S
C741 C743 1.327 . S
C741 C747 1.429 . S
C742 C734 1.574 . S
C742 H737 0.949 . S
C742 C748 1.368 . S
C743 C727 1.349 . S
C743 H735 0.950 . S
C743 C741 1.327 . S
C744 C732 1.349 . S
C744 H738 0.950 . S
C744 C745 1.327 . S
C745 H739 0.950 . S
C745 C744 1.327 . S
C745 C749 1.429 . S
C746 C729 1.574 . S
C746 H740 0.949 . S
C746 C750 1.368 . S
C747 C728 1.429 . S
C747 C741 1.429 . S
C747 C748 1.523 . S
C748 C729 1.368 . S
C748 C742 1.368 . S
C748 C747 1.523 . S
C749 C733 1.429 . S
C749 C745 1.429 . S
C749 C750 1.523 . S
C750 C734 1.368 . S
C750 C746 1.368 . S
C750 C749 1.523 . S
H751 C726 0.950 . S
H752 C728 0.950 . S
H753 C729 0.949 . S
H754 C731 0.950 . S
H755 C733 0.950 . S
C756 C757 1.349 1_556 S
C756 C758 1.327 . S
C756 H781 0.950 . S
C757 C756 1.349 1_554 S
C757 C773 1.349 . S
C758 C756 1.327 . S
C758 C777 1.429 . S
C758 H782 0.950 . S
C759 C776 1.574 . S
C759 C778 1.368 . S
C759 H783 0.949 . S
H760 C764 0.949 . S
C761 C762 1.349 . S
C761 C763 1.327 . S
C761 H784 0.950 . S
C762 C761 1.349 . S
C762 C774 1.349 . S
C763 C761 1.327 . S
C763 C779 1.429 . S
C763 H785 0.950 . S
C764 H760 0.949 . S
C764 C772 1.574 . S
C764 C780 1.368 . S
H765 C773 0.950 . S
H766 C771 0.950 . S
H767 C772 0.949 . S
H768 C774 0.950 . S
H769 C775 0.950 . S
H770 C776 0.949 . S
C771 H766 0.950 . S
C771 C773 1.327 . S
C771 C777 1.429 1_554 S
C772 C764 1.574 . S
C772 H767 0.949 . S
C772 C778 1.368 . S
C773 C757 1.349 . S
C773 H765 0.950 . S
C773 C771 1.327 . S
C774 C762 1.349 . S
C774 H768 0.950 . S
C774 C775 1.327 . S
C775 H769 0.950 . S
C775 C774 1.327 . S
C775 C779 1.429 . S
C776 C759 1.574 . S
C776 H770 0.949 . S
C776 C780 1.368 . S
C777 C758 1.429 . S
C777 C771 1.429 1_556 S
C777 C778 1.523 . S
C778 C759 1.368 . S
C778 C772 1.368 . S
C778 C777 1.523 . S
C779 C763 1.429 . S
C779 C775 1.429 . S
C779 C780 1.523 . S
C780 C764 1.368 . S
C780 C776 1.368 . S
C780 C779 1.523 . S
H781 C756 0.950 . S
H782 C758 0.950 . S
H783 C759 0.949 . S
H784 C761 0.950 . S
H785 C763 0.950 . S
C786 C787 1.349 . S
C786 C788 1.327 . S
C786 H811 0.950 . S
C787 C786 1.349 . S
C787 C803 1.349 . S
C788 C786 1.327 . S
C788 C807 1.429 . S
C788 H812 0.950 . S
C789 C806 1.574 . S
C789 C808 1.368 . S
C789 H813 0.949 . S
H790 C794 0.949 . S
C791 C792 1.349 . S
C791 C793 1.327 . S
C791 H814 0.950 . S
C792 C791 1.349 . S
C792 C804 1.349 1_556 S
C793 C791 1.327 . S
C793 C809 1.429 1_556 S
C793 H815 0.950 . S
C794 H790 0.949 . S
C794 C802 1.574 . S
C794 C810 1.368 . S
H795 C803 0.950 . S
H796 C801 0.950 . S
H797 C802 0.949 . S
H798 C804 0.950 . S
H799 C805 0.950 . S
H800 C806 0.972 . S
C801 H796 0.950 . S
C801 C803 1.327 . S
C801 C807 1.429 . S
C802 C794 1.574 . S
C802 H797 0.949 . S
C802 C808 1.368 . S
C803 C787 1.349 . S
C803 H795 0.950 . S
C803 C801 1.327 . S
C804 C792 1.349 1_554 S
C804 H798 0.950 . S
C804 C805 1.327 . S
C805 H799 0.950 . S
C805 C804 1.327 . S
C805 C809 1.429 . S
C806 C789 1.574 . S
C806 H800 0.972 . S
C806 C810 1.368 . S
C807 C788 1.429 . S
C807 C801 1.429 . S
C807 C808 1.523 . S
C808 C789 1.368 . S
C808 C802 1.368 . S
C808 C807 1.523 . S
C809 C793 1.429 1_554 S
C809 C805 1.429 . S
C809 C810 1.523 . S
C810 C794 1.368 . S
C810 C806 1.368 . S
C810 C809 1.523 . S
H811 C786 0.950 . S
H812 C788 0.950 . S
H813 C789 0.949 . S
H814 C791 0.950 . S
H815 C793 0.950 . S
C816 C817 1.349 . S
C816 C818 1.327 . S
C816 H841 0.950 . S
C817 C816 1.349 . S
C817 C833 1.349 . S
C818 C816 1.327 . S
C818 C837 1.429 . S
C818 H842 0.950 . S
C819 C836 1.574 . S
C819 C838 1.368 . S
C819 H843 0.949 . S
H820 C824 0.949 . S
C821 C822 1.349 . S
C821 C823 1.327 . S
C821 H844 0.950 . S
C822 C821 1.349 . S
C822 C834 1.349 . S
C823 C821 1.327 . S
C823 C839 1.429 . S
C823 H845 0.950 . S
C824 H820 0.949 . S
C824 C832 1.574 . S
C824 C840 1.368 . S
H825 C833 0.950 . S
H826 C831 0.950 . S
H827 C832 0.949 . S
H828 C834 0.950 . S
H829 C835 0.950 . S
H830 C836 0.949 . S
C831 H826 0.950 . S
C831 C833 1.327 . S
C831 C837 1.429 . S
C832 C824 1.574 . S
C832 H827 0.949 . S
C832 C838 1.368 . S
C833 C817 1.349 . S
C833 H825 0.950 . S
C833 C831 1.327 . S
C834 C822 1.349 . S
C834 H828 0.950 . S
C834 C835 1.327 . S
C835 H829 0.950 . S
C835 C834 1.327 . S
C835 C839 1.429 . S
C836 C819 1.574 . S
C836 H830 0.949 . S
C836 C840 1.368 . S
C837 C818 1.429 . S
C837 C831 1.429 . S
C837 C838 1.523 . S
C838 C819 1.368 . S
C838 C832 1.368 . S
C838 C837 1.523 . S
C839 C823 1.429 . S
C839 C835 1.429 . S
C839 C840 1.523 . S
C840 C824 1.368 . S
C840 C836 1.368 . S
C840 C839 1.523 . S
H841 C816 0.950 . S
H842 C818 0.950 . S
H843 C819 0.949 . S
H844 C821 0.950 . S
H845 C823 0.950 . S
C846 C847 1.349 . S
C846 C848 1.327 . S
C846 H871 0.950 . S
C847 C846 1.349 . S
C847 C863 1.349 . S
C848 C846 1.327 . S
C848 C867 1.429 . S
C848 H872 0.950 . S
C849 C866 1.574 . S
C849 C868 1.368 . S
C849 H873 0.949 . S
H850 C854 0.949 . S
C851 C852 1.349 . S
C851 C853 1.327 . S
C851 H874 0.950 . S
C852 C851 1.349 . S
C852 C864 1.349 . S
C853 C851 1.327 . S
C853 C869 1.429 . S
C853 H875 0.950 . S
C854 H850 0.949 . S
C854 C862 1.574 . S
C854 C870 1.368 . S
H855 C863 0.950 . S
H856 C861 0.950 . S
H857 C862 0.949 . S
H858 C864 0.950 . S
H859 C865 0.950 . S
H860 C866 0.949 . S
C861 H856 0.950 . S
C861 C863 1.327 . S
C861 C867 1.429 . S
C862 C854 1.574 . S
C862 H857 0.949 . S
C862 C868 1.368 . S
C863 C847 1.349 . S
C863 H855 0.950 . S
C863 C861 1.327 . S
C864 C852 1.349 . S
C864 H858 0.950 . S
C864 C865 1.327 . S
C865 H859 0.950 . S
C865 C864 1.327 . S
C865 C869 1.429 . S
C866 C849 1.574 . S
C866 H860 0.949 . S
C866 C870 1.368 . S
C867 C848 1.429 . S
C867 C861 1.429 . S
C867 C868 1.523 . S
C868 C849 1.368 . S
C868 C862 1.368 . S
C868 C867 1.523 . S
C869 C853 1.429 . S
C869 C865 1.429 . S
C869 C870 1.523 . S
C870 C854 1.368 . S
C870 C866 1.368 . S
C870 C869 1.523 . S
H871 C846 0.950 . S
H872 C848 0.950 . S
H873 C849 0.949 . S
H874 C851 0.950 . S
H875 C853 0.950 . S
C157 C122 1.347 1_554 S
C162 C5 1.347 . S
C187 C18 1.347 . S
C192 C135 1.347 . S
C217 C148 1.347 . S
C222 C31 1.347 . S
C247 C83 1.347 . S
C252 C44 1.347 . S
C277 C96 1.347 . S
C282 C57 1.347 1_556 S
C307 C109 1.347 . S
C312 C70 1.347 . S
C337 C88 1.425 . S
C342 C10 1.425 . S
C367 C23 1.426 . S
C372 C101 1.426 . S
C397 C114 1.426 . S
C402 C36 1.426 . S
C427 C49 1.425 . S
C432 C127 1.425 . S
C457 C140 1.426 . S
C462 C62 1.426 . S
C487 C75 1.426 . S
C492 C153 1.426 . S
C517 C125 0.810 . S
C522 C8 0.810 . S
C547 C138 0.810 1_556 S
C552 C21 0.810 . S
C577 C151 0.810 . S
C582 C34 0.810 . S
C607 C47 0.810 1_554 S
C612 C86 0.810 . S
C637 C99 0.810 . S
C642 C60 0.810 . S
C667 C73 0.810 . S
C672 C112 0.810 . S
C697 C0 1.244 . S
C702 C104 1.244 . S
C727 C117 1.244 . S
C732 C13 1.244 . S
C757 C130 1.244 . S
C762 C26 1.244 . S
C787 C143 1.244 . S
C792 C39 1.244 . S
C817 C78 1.244 . S
C822 C52 1.244 . S
C847 C91 1.244 . S
C852 C65 1.244 . S
