# Generated by pormake.
# Topology gie, (4)-cn, num edge types: 1
# Building blocks:
#     Node 0, Type 0, BuildingBlock: CEKHIL_clean_sbu_0, # of connection points: 4
#     Node 1, Type 0, BuildingBlock: CEKHIL_clean_sbu_0, # of connection points: 4
#     Node 2, Type 0, BuildingBlock: CEKHIL_clean_sbu_0, # of connection points: 4
#     Node 3, Type 0, BuildingBlock: CEKHIL_clean_sbu_0, # of connection points: 4
#     Node 4, Type 0, BuildingBlock: CEKHIL_clean_sbu_0, # of connection points: 4
#     Node 5, Type 0, BuildingBlock: CEKHIL_clean_sbu_0, # of connection points: 4
#     Node 6, Type 0, BuildingBlock: CEKHIL_clean_sbu_0, # of connection points: 4
#     Node 7, Type 0, BuildingBlock: CEKHIL_clean_sbu_0, # of connection points: 4
#     Node 8, Type 0, BuildingBlock: CEKHIL_clean_sbu_0, # of connection points: 4
#     Node 9, Type 0, BuildingBlock: CEKHIL_clean_sbu_0, # of connection points: 4
#     Node 10, Type 0, BuildingBlock: CEKHIL_clean_sbu_0, # of connection points: 4
#     Node 11, Type 0, BuildingBlock: CEKHIL_clean_sbu_0, # of connection points: 4
#     Node 12, Type 0, BuildingBlock: CEKHIL_clean_sbu_0, # of connection points: 4
#     Node 13, Type 0, BuildingBlock: CEKHIL_clean_sbu_0, # of connection points: 4
#     Node 14, Type 0, BuildingBlock: CEKHIL_clean_sbu_0, # of connection points: 4
#     Node 15, Type 0, BuildingBlock: CEKHIL_clean_sbu_0, # of connection points: 4
#     Node 16, Type 0, BuildingBlock: CEKHIL_clean_sbu_0, # of connection points: 4
#     Node 17, Type 0, BuildingBlock: CEKHIL_clean_sbu_0, # of connection points: 4
#     Node 18, Type 0, BuildingBlock: CEKHIL_clean_sbu_0, # of connection points: 4
#     Node 19, Type 0, BuildingBlock: CEKHIL_clean_sbu_0, # of connection points: 4
#     Node 20, Type 0, BuildingBlock: CEKHIL_clean_sbu_0, # of connection points: 4
#     Node 21, Type 0, BuildingBlock: CEKHIL_clean_sbu_0, # of connection points: 4
#     Node 22, Type 0, BuildingBlock: CEKHIL_clean_sbu_0, # of connection points: 4
#     Node 23, Type 0, BuildingBlock: CEKHIL_clean_sbu_0, # of connection points: 4
#     Node 24, Type 0, BuildingBlock: CEKHIL_clean_sbu_0, # of connection points: 4
#     Node 25, Type 0, BuildingBlock: CEKHIL_clean_sbu_0, # of connection points: 4
#     Node 26, Type 0, BuildingBlock: CEKHIL_clean_sbu_0, # of connection points: 4
#     Node 27, Type 0, BuildingBlock: CEKHIL_clean_sbu_0, # of connection points: 4
#     Node 28, Type 0, BuildingBlock: CEKHIL_clean_sbu_0, # of connection points: 4
#     Node 29, Type 0, BuildingBlock: CEKHIL_clean_sbu_0, # of connection points: 4
#     Node 30, Type 0, BuildingBlock: CEKHIL_clean_sbu_0, # of connection points: 4
#     Node 31, Type 0, BuildingBlock: CEKHIL_clean_sbu_0, # of connection points: 4
#     Node 32, Type 0, BuildingBlock: CEKHIL_clean_sbu_0, # of connection points: 4
#     Node 33, Type 0, BuildingBlock: CEKHIL_clean_sbu_0, # of connection points: 4
#     Node 34, Type 0, BuildingBlock: CEKHIL_clean_sbu_0, # of connection points: 4
#     Node 35, Type 0, BuildingBlock: CEKHIL_clean_sbu_0, # of connection points: 4
#     Node 36, Type 0, BuildingBlock: CEKHIL_clean_sbu_0, # of connection points: 4
#     Node 37, Type 0, BuildingBlock: CEKHIL_clean_sbu_0, # of connection points: 4
#     Node 38, Type 0, BuildingBlock: CEKHIL_clean_sbu_0, # of connection points: 4
#     Node 39, Type 0, BuildingBlock: CEKHIL_clean_sbu_0, # of connection points: 4
#     Node 40, Type 0, BuildingBlock: CEKHIL_clean_sbu_0, # of connection points: 4
#     Node 41, Type 0, BuildingBlock: CEKHIL_clean_sbu_0, # of connection points: 4
#     Node 42, Type 0, BuildingBlock: CEKHIL_clean_sbu_0, # of connection points: 4
#     Node 43, Type 0, BuildingBlock: CEKHIL_clean_sbu_0, # of connection points: 4
#     Node 44, Type 0, BuildingBlock: CEKHIL_clean_sbu_0, # of connection points: 4
#     Node 45, Type 0, BuildingBlock: CEKHIL_clean_sbu_0, # of connection points: 4
#     Node 46, Type 0, BuildingBlock: CEKHIL_clean_sbu_0, # of connection points: 4
#     Node 47, Type 0, BuildingBlock: CEKHIL_clean_sbu_0, # of connection points: 4
#     Node 48, Type 0, BuildingBlock: CEKHIL_clean_sbu_0, # of connection points: 4
#     Node 49, Type 0, BuildingBlock: CEKHIL_clean_sbu_0, # of connection points: 4
#     Node 50, Type 0, BuildingBlock: CEKHIL_clean_sbu_0, # of connection points: 4
#     Node 51, Type 0, BuildingBlock: CEKHIL_clean_sbu_0, # of connection points: 4
#     Node 52, Type 0, BuildingBlock: CEKHIL_clean_sbu_0, # of connection points: 4
#     Node 53, Type 0, BuildingBlock: CEKHIL_clean_sbu_0, # of connection points: 4
#     Node 54, Type 0, BuildingBlock: CEKHIL_clean_sbu_0, # of connection points: 4
#     Node 55, Type 0, BuildingBlock: CEKHIL_clean_sbu_0, # of connection points: 4
#     Node 56, Type 0, BuildingBlock: CEKHIL_clean_sbu_0, # of connection points: 4
#     Node 57, Type 0, BuildingBlock: CEKHIL_clean_sbu_0, # of connection points: 4
#     Node 58, Type 0, BuildingBlock: CEKHIL_clean_sbu_0, # of connection points: 4
#     Node 59, Type 0, BuildingBlock: CEKHIL_clean_sbu_0, # of connection points: 4
#     Node 60, Type 0, BuildingBlock: CEKHIL_clean_sbu_0, # of connection points: 4
#     Node 61, Type 0, BuildingBlock: CEKHIL_clean_sbu_0, # of connection points: 4
#     Node 62, Type 0, BuildingBlock: CEKHIL_clean_sbu_0, # of connection points: 4
#     Node 63, Type 0, BuildingBlock: CEKHIL_clean_sbu_0, # of connection points: 4
#     Node 64, Type 0, BuildingBlock: CEKHIL_clean_sbu_0, # of connection points: 4
#     Node 65, Type 0, BuildingBlock: CEKHIL_clean_sbu_0, # of connection points: 4
#     Node 66, Type 0, BuildingBlock: CEKHIL_clean_sbu_0, # of connection points: 4
#     Node 67, Type 0, BuildingBlock: CEKHIL_clean_sbu_0, # of connection points: 4
#     Node 68, Type 0, BuildingBlock: CEKHIL_clean_sbu_0, # of connection points: 4
#     Node 69, Type 0, BuildingBlock: CEKHIL_clean_sbu_0, # of connection points: 4
#     Node 70, Type 0, BuildingBlock: CEKHIL_clean_sbu_0, # of connection points: 4
#     Node 71, Type 0, BuildingBlock: CEKHIL_clean_sbu_0, # of connection points: 4
#     Node 72, Type 0, BuildingBlock: CEKHIL_clean_sbu_0, # of connection points: 4
#     Node 73, Type 0, BuildingBlock: CEKHIL_clean_sbu_0, # of connection points: 4
#     Node 74, Type 0, BuildingBlock: CEKHIL_clean_sbu_0, # of connection points: 4
#     Node 75, Type 0, BuildingBlock: CEKHIL_clean_sbu_0, # of connection points: 4
#     Node 76, Type 0, BuildingBlock: CEKHIL_clean_sbu_0, # of connection points: 4
#     Node 77, Type 0, BuildingBlock: CEKHIL_clean_sbu_0, # of connection points: 4
#     Node 78, Type 0, BuildingBlock: CEKHIL_clean_sbu_0, # of connection points: 4
#     Node 79, Type 0, BuildingBlock: CEKHIL_clean_sbu_0, # of connection points: 4
#     Node 80, Type 0, BuildingBlock: CEKHIL_clean_sbu_0, # of connection points: 4
#     Node 81, Type 0, BuildingBlock: CEKHIL_clean_sbu_0, # of connection points: 4
#     Node 82, Type 0, BuildingBlock: CEKHIL_clean_sbu_0, # of connection points: 4
#     Node 83, Type 0, BuildingBlock: CEKHIL_clean_sbu_0, # of connection points: 4
#     Node 84, Type 0, BuildingBlock: CEKHIL_clean_sbu_0, # of connection points: 4
#     Node 85, Type 0, BuildingBlock: CEKHIL_clean_sbu_0, # of connection points: 4
#     Node 86, Type 0, BuildingBlock: CEKHIL_clean_sbu_0, # of connection points: 4
#     Node 87, Type 0, BuildingBlock: CEKHIL_clean_sbu_0, # of connection points: 4
#     Node 88, Type 0, BuildingBlock: CEKHIL_clean_sbu_0, # of connection points: 4
#     Node 89, Type 0, BuildingBlock: CEKHIL_clean_sbu_0, # of connection points: 4
#     Node 90, Type 0, BuildingBlock: CEKHIL_clean_sbu_0, # of connection points: 4
#     Node 91, Type 0, BuildingBlock: CEKHIL_clean_sbu_0, # of connection points: 4
#     Node 92, Type 0, BuildingBlock: CEKHIL_clean_sbu_0, # of connection points: 4
#     Node 93, Type 0, BuildingBlock: CEKHIL_clean_sbu_0, # of connection points: 4
#     Node 94, Type 0, BuildingBlock: CEKHIL_clean_sbu_0, # of connection points: 4
#     Node 95, Type 0, BuildingBlock: CEKHIL_clean_sbu_0, # of connection points: 4
#     Edge 96, Type (0, 0), None
#     Edge 97, Type (0, 0), None
#     Edge 98, Type (0, 0), None
#     Edge 99, Type (0, 0), None
#     Edge 100, Type (0, 0), None
#     Edge 101, Type (0, 0), None
#     Edge 102, Type (0, 0), None
#     Edge 103, Type (0, 0), None
#     Edge 104, Type (0, 0), None
#     Edge 105, Type (0, 0), None
#     Edge 106, Type (0, 0), None
#     Edge 107, Type (0, 0), None
#     Edge 108, Type (0, 0), None
#     Edge 109, Type (0, 0), None
#     Edge 110, Type (0, 0), None
#     Edge 111, Type (0, 0), None
#     Edge 112, Type (0, 0), None
#     Edge 113, Type (0, 0), None
#     Edge 114, Type (0, 0), None
#     Edge 115, Type (0, 0), None
#     Edge 116, Type (0, 0), None
#     Edge 117, Type (0, 0), None
#     Edge 118, Type (0, 0), None
#     Edge 119, Type (0, 0), None
#     Edge 120, Type (0, 0), None
#     Edge 121, Type (0, 0), None
#     Edge 122, Type (0, 0), None
#     Edge 123, Type (0, 0), None
#     Edge 124, Type (0, 0), None
#     Edge 125, Type (0, 0), None
#     Edge 126, Type (0, 0), None
#     Edge 127, Type (0, 0), None
#     Edge 128, Type (0, 0), None
#     Edge 129, Type (0, 0), None
#     Edge 130, Type (0, 0), None
#     Edge 131, Type (0, 0), None
#     Edge 132, Type (0, 0), None
#     Edge 133, Type (0, 0), None
#     Edge 134, Type (0, 0), None
#     Edge 135, Type (0, 0), None
#     Edge 136, Type (0, 0), None
#     Edge 137, Type (0, 0), None
#     Edge 138, Type (0, 0), None
#     Edge 139, Type (0, 0), None
#     Edge 140, Type (0, 0), None
#     Edge 141, Type (0, 0), None
#     Edge 142, Type (0, 0), None
#     Edge 143, Type (0, 0), None
#     Edge 144, Type (0, 0), None
#     Edge 145, Type (0, 0), None
#     Edge 146, Type (0, 0), None
#     Edge 147, Type (0, 0), None
#     Edge 148, Type (0, 0), None
#     Edge 149, Type (0, 0), None
#     Edge 150, Type (0, 0), None
#     Edge 151, Type (0, 0), None
#     Edge 152, Type (0, 0), None
#     Edge 153, Type (0, 0), None
#     Edge 154, Type (0, 0), None
#     Edge 155, Type (0, 0), None
#     Edge 156, Type (0, 0), None
#     Edge 157, Type (0, 0), None
#     Edge 158, Type (0, 0), None
#     Edge 159, Type (0, 0), None
#     Edge 160, Type (0, 0), None
#     Edge 161, Type (0, 0), None
#     Edge 162, Type (0, 0), None
#     Edge 163, Type (0, 0), None
#     Edge 164, Type (0, 0), None
#     Edge 165, Type (0, 0), None
#     Edge 166, Type (0, 0), None
#     Edge 167, Type (0, 0), None
#     Edge 168, Type (0, 0), None
#     Edge 169, Type (0, 0), None
#     Edge 170, Type (0, 0), None
#     Edge 171, Type (0, 0), None
#     Edge 172, Type (0, 0), None
#     Edge 173, Type (0, 0), None
#     Edge 174, Type (0, 0), None
#     Edge 175, Type (0, 0), None
#     Edge 176, Type (0, 0), None
#     Edge 177, Type (0, 0), None
#     Edge 178, Type (0, 0), None
#     Edge 179, Type (0, 0), None
#     Edge 180, Type (0, 0), None
#     Edge 181, Type (0, 0), None
#     Edge 182, Type (0, 0), None
#     Edge 183, Type (0, 0), None
#     Edge 184, Type (0, 0), None
#     Edge 185, Type (0, 0), None
#     Edge 186, Type (0, 0), None
#     Edge 187, Type (0, 0), None
#     Edge 188, Type (0, 0), None
#     Edge 189, Type (0, 0), None
#     Edge 190, Type (0, 0), None
#     Edge 191, Type (0, 0), None
#     Edge 192, Type (0, 0), None
#     Edge 193, Type (0, 0), None
#     Edge 194, Type (0, 0), None
#     Edge 195, Type (0, 0), None
#     Edge 196, Type (0, 0), None
#     Edge 197, Type (0, 0), None
#     Edge 198, Type (0, 0), None
#     Edge 199, Type (0, 0), None
#     Edge 200, Type (0, 0), None
#     Edge 201, Type (0, 0), None
#     Edge 202, Type (0, 0), None
#     Edge 203, Type (0, 0), None
#     Edge 204, Type (0, 0), None
#     Edge 205, Type (0, 0), None
#     Edge 206, Type (0, 0), None
#     Edge 207, Type (0, 0), None
#     Edge 208, Type (0, 0), None
#     Edge 209, Type (0, 0), None
#     Edge 210, Type (0, 0), None
#     Edge 211, Type (0, 0), None
#     Edge 212, Type (0, 0), None
#     Edge 213, Type (0, 0), None
#     Edge 214, Type (0, 0), None
#     Edge 215, Type (0, 0), None
#     Edge 216, Type (0, 0), None
#     Edge 217, Type (0, 0), None
#     Edge 218, Type (0, 0), None
#     Edge 219, Type (0, 0), None
#     Edge 220, Type (0, 0), None
#     Edge 221, Type (0, 0), None
#     Edge 222, Type (0, 0), None
#     Edge 223, Type (0, 0), None
#     Edge 224, Type (0, 0), None
#     Edge 225, Type (0, 0), None
#     Edge 226, Type (0, 0), None
#     Edge 227, Type (0, 0), None
#     Edge 228, Type (0, 0), None
#     Edge 229, Type (0, 0), None
#     Edge 230, Type (0, 0), None
#     Edge 231, Type (0, 0), None
#     Edge 232, Type (0, 0), None
#     Edge 233, Type (0, 0), None
#     Edge 234, Type (0, 0), None
#     Edge 235, Type (0, 0), None
#     Edge 236, Type (0, 0), None
#     Edge 237, Type (0, 0), None
#     Edge 238, Type (0, 0), None
#     Edge 239, Type (0, 0), None
#     Edge 240, Type (0, 0), None
#     Edge 241, Type (0, 0), None
#     Edge 242, Type (0, 0), None
#     Edge 243, Type (0, 0), None
#     Edge 244, Type (0, 0), None
#     Edge 245, Type (0, 0), None
#     Edge 246, Type (0, 0), None
#     Edge 247, Type (0, 0), None
#     Edge 248, Type (0, 0), None
#     Edge 249, Type (0, 0), None
#     Edge 250, Type (0, 0), None
#     Edge 251, Type (0, 0), None
#     Edge 252, Type (0, 0), None
#     Edge 253, Type (0, 0), None
#     Edge 254, Type (0, 0), None
#     Edge 255, Type (0, 0), None
#     Edge 256, Type (0, 0), None
#     Edge 257, Type (0, 0), None
#     Edge 258, Type (0, 0), None
#     Edge 259, Type (0, 0), None
#     Edge 260, Type (0, 0), None
#     Edge 261, Type (0, 0), None
#     Edge 262, Type (0, 0), None
#     Edge 263, Type (0, 0), None
#     Edge 264, Type (0, 0), None
#     Edge 265, Type (0, 0), None
#     Edge 266, Type (0, 0), None
#     Edge 267, Type (0, 0), None
#     Edge 268, Type (0, 0), None
#     Edge 269, Type (0, 0), None
#     Edge 270, Type (0, 0), None
#     Edge 271, Type (0, 0), None
#     Edge 272, Type (0, 0), None
#     Edge 273, Type (0, 0), None
#     Edge 274, Type (0, 0), None
#     Edge 275, Type (0, 0), None
#     Edge 276, Type (0, 0), None
#     Edge 277, Type (0, 0), None
#     Edge 278, Type (0, 0), None
#     Edge 279, Type (0, 0), None
#     Edge 280, Type (0, 0), None
#     Edge 281, Type (0, 0), None
#     Edge 282, Type (0, 0), None
#     Edge 283, Type (0, 0), None
#     Edge 284, Type (0, 0), None
#     Edge 285, Type (0, 0), None
#     Edge 286, Type (0, 0), None
#     Edge 287, Type (0, 0), None
# Relax obj value: 0.130
# Max RMSD: 0.227
# Mean RMSD: 0.210
data_MOF--net-gie--node1-CEKHIL_clean_sbu_0--edge1-none
_symmetry_space_group_name_H-M    P1
_symmetry_Int_Tables_number       1
_symmetry_cell_setting            triclinic
loop_
_symmetry_equiv_pos_as_xyz
'x, y, z'
_cell_length_a     38.373199
_cell_length_b     37.347292
_cell_length_c     37.303927
_cell_angle_alpha  89.999762
_cell_angle_beta   90.004511
_cell_angle_gamma 89.999945
loop_
_atom_site_label
_atom_site_type_symbol
_atom_site_fract_x
_atom_site_fract_y
_atom_site_fract_z
_atom_type_partial_charge
Co0 Co 0.00424 0.12274 0.40216 0.0
O1 O 0.97764 0.08553 0.42376 0.0
O2 O 0.99203 0.08651 0.36631 0.0
C3 C 0.04564 0.12324 0.44471 0.0
O4 O 0.03231 0.15901 0.37224 0.0
Co5 Co 0.00646 0.19242 0.4458 0.0
O6 O 0.04291 0.20474 0.41028 0.0
C7 C 0.94578 0.1786 0.40068 0.0
C8 C 0.97647 0.07027 0.39283 0.0
C9 C 0.04691 0.18917 0.38015 0.0
O10 O 0.9607 0.14973 0.39033 0.0
O11 O 0.95822 0.19868 0.42533 0.0
O12 O 0.04682 0.10104 0.41812 0.0
O13 O 0.01727 0.14186 0.44743 0.0
Co14 Co 0.13244 0.75423 0.65225 0.0
O15 O 0.16729 0.72443 0.67303 0.0
O16 O 0.16043 0.73208 0.61452 0.0
C17 C 0.1415 0.80265 0.68742 0.0
O18 O 0.09737 0.78349 0.62332 0.0
Co19 Co 0.07111 0.77168 0.70292 0.0
O20 O 0.06582 0.81005 0.66671 0.0
C21 C 0.06766 0.70665 0.6588 0.0
C22 C 0.17709 0.71674 0.64085 0.0
C23 C 0.07425 0.80615 0.63389 0.0
O24 O 0.09923 0.71258 0.64921 0.0
O25 O 0.05147 0.72644 0.68131 0.0
O26 O 0.16079 0.79664 0.65962 0.0
O27 O 0.1209 0.77656 0.69637 0.0
Co28 Co 0.49044 0.8858 0.90213 0.0
O29 O 0.51705 0.92301 0.92372 0.0
O30 O 0.50265 0.92202 0.86627 0.0
C31 C 0.44905 0.88533 0.94469 0.0
O32 O 0.46235 0.84953 0.87222 0.0
Co33 Co 0.48822 0.81614 0.9458 0.0
O34 O 0.45174 0.80383 0.91029 0.0
C35 C 0.54888 0.82994 0.90066 0.0
C36 C 0.51822 0.93827 0.89278 0.0
C37 C 0.44774 0.81938 0.88016 0.0
O38 O 0.53397 0.8588 0.8903 0.0
O39 O 0.53645 0.80986 0.92532 0.0
O40 O 0.44787 0.90752 0.91809 0.0
O41 O 0.47742 0.8667 0.94741 0.0
Co42 Co 0.36226 0.25431 0.15225 0.0
O43 O 0.32742 0.28411 0.17305 0.0
O44 O 0.33426 0.27647 0.11454 0.0
C45 C 0.3532 0.20588 0.18742 0.0
O46 O 0.39732 0.22506 0.12331 0.0
Co47 Co 0.42361 0.23684 0.2029 0.0
O48 O 0.42888 0.19848 0.16668 0.0
C49 C 0.42705 0.30188 0.15881 0.0
C50 C 0.31761 0.29181 0.14087 0.0
C51 C 0.42044 0.20239 0.13387 0.0
O52 O 0.39548 0.29596 0.14922 0.0
O53 O 0.44325 0.28208 0.18131 0.0
O54 O 0.33391 0.2119 0.15962 0.0
O55 O 0.37381 0.23197 0.19637 0.0
Co56 Co 0.00426 0.88581 0.10587 0.0
O57 O 0.97765 0.92302 0.08429 0.0
O58 O 0.99205 0.92203 0.14174 0.0
C59 C 0.04564 0.88534 0.06331 0.0
O60 O 0.03234 0.84954 0.13579 0.0
Co61 Co 0.00648 0.81615 0.06221 0.0
O62 O 0.04295 0.80384 0.09772 0.0
C63 C 0.94581 0.82995 0.10735 0.0
C64 C 0.97648 0.93828 0.11522 0.0
C65 C 0.04695 0.81939 0.12785 0.0
O66 O 0.96073 0.85881 0.11771 0.0
O67 O 0.95824 0.80987 0.08269 0.0
O68 O 0.04683 0.90753 0.08991 0.0
O69 O 0.01728 0.8667 0.0606 0.0
Co70 Co 0.36225 0.75424 0.35576 0.0
O71 O 0.3274 0.72444 0.33497 0.0
O72 O 0.33426 0.73209 0.39348 0.0
C73 C 0.35318 0.80266 0.32058 0.0
O74 O 0.39732 0.7835 0.38469 0.0
Co75 Co 0.42358 0.77169 0.30509 0.0
O76 O 0.42885 0.81007 0.3413 0.0
C77 C 0.42703 0.70667 0.34921 0.0
C78 C 0.3176 0.71675 0.36716 0.0
C79 C 0.42043 0.80617 0.37412 0.0
O80 O 0.39547 0.71259 0.3588 0.0
O81 O 0.44322 0.72645 0.3267 0.0
O82 O 0.33389 0.79664 0.34839 0.0
O83 O 0.37379 0.77657 0.31164 0.0
Co84 Co 0.49046 0.12274 0.60585 0.0
O85 O 0.51706 0.08553 0.58425 0.0
O86 O 0.50268 0.08651 0.6417 0.0
C87 C 0.44906 0.12323 0.56329 0.0
O88 O 0.46239 0.15901 0.63577 0.0
Co89 Co 0.48823 0.19241 0.5622 0.0
O90 O 0.45179 0.20473 0.59773 0.0
C91 C 0.54891 0.1786 0.60732 0.0
C92 C 0.51824 0.07027 0.61518 0.0
C93 C 0.44779 0.18917 0.62785 0.0
O94 O 0.534 0.14973 0.61767 0.0
O95 O 0.53647 0.19868 0.58266 0.0
O96 O 0.44788 0.10103 0.58989 0.0
O97 O 0.47743 0.14186 0.56057 0.0
Co98 Co 0.13243 0.25431 0.85575 0.0
O99 O 0.16728 0.28411 0.83496 0.0
O100 O 0.16043 0.27646 0.89347 0.0
C101 C 0.1415 0.20588 0.82058 0.0
O102 O 0.09738 0.22504 0.88469 0.0
Co103 Co 0.07109 0.23683 0.8051 0.0
O104 O 0.06584 0.19845 0.84131 0.0
C105 C 0.06764 0.30186 0.8492 0.0
C106 C 0.17708 0.2918 0.86714 0.0
C107 C 0.07427 0.20237 0.87413 0.0
O108 O 0.09921 0.29594 0.85879 0.0
O109 O 0.05145 0.28206 0.8267 0.0
O110 O 0.16079 0.2119 0.84838 0.0
O111 O 0.12089 0.23196 0.81164 0.0
Co112 Co 0.39526 0.00834 0.13162 0.0
O113 O 0.41535 0.04474 0.1024 0.0
O114 O 0.43578 0.02907 0.15571 0.0
C115 C 0.38987 0.96942 0.08512 0.0
O116 O 0.38036 0.97156 0.16926 0.0
Co117 Co 0.32167 0.97938 0.1177 0.0
O118 O 0.34373 0.93659 0.13996 0.0
C119 C 0.33169 0.04292 0.16497 0.0
C120 C 0.43836 0.0492 0.12732 0.0
C121 C 0.36119 0.9434 0.16803 0.0
O122 O 0.36421 0.04412 0.1567 0.0
O123 O 0.31059 0.01955 0.15215 0.0
O124 O 0.41867 0.97185 0.10319 0.0
O125 O 0.36532 0.99127 0.0945 0.0
Co126 Co 0.24046 0.15254 0.37229 0.0
O127 O 0.26706 0.17412 0.33504 0.0
O128 O 0.25265 0.11674 0.33601 0.0
C129 C 0.19907 0.19504 0.37284 0.0
O130 O 0.21239 0.12263 0.40859 0.0
Co131 Co 0.23827 0.19608 0.44209 0.0
O132 O 0.20179 0.16061 0.45438 0.0
C133 C 0.29895 0.15104 0.42817 0.0
C134 C 0.26823 0.14322 0.31976 0.0
C135 C 0.19778 0.13053 0.43879 0.0
O136 O 0.284 0.14069 0.39929 0.0
O137 O 0.28653 0.17566 0.44829 0.0
O138 O 0.19787 0.1685 0.35059 0.0
O139 O 0.22745 0.19774 0.39147 0.0
Co140 Co 0.09943 1.00021 0.63162 0.0
O141 O 0.07932 0.9638 0.60242 0.0
O142 O 0.05892 0.97948 0.65573 0.0
C143 C 0.10483 0.03912 0.58513 0.0
O144 O 0.11435 0.03699 0.66926 0.0
Co145 Co 0.17304 0.02913 0.6177 0.0
O146 O 0.151 0.07193 0.63996 0.0
C147 C 0.163 0.9656 0.66497 0.0
C148 C 0.05633 0.95935 0.62735 0.0
C149 C 0.13354 0.06513 0.66802 0.0
O150 O 0.13048 0.96442 0.6567 0.0
O151 O 0.18411 0.98897 0.65215 0.0
O152 O 0.07603 0.03669 0.6032 0.0
O153 O 0.12937 0.01726 0.5945 0.0
Co154 Co 0.25421 0.85599 0.87231 0.0
O155 O 0.22761 0.83441 0.83506 0.0
O156 O 0.24202 0.89179 0.83604 0.0
C157 C 0.2956 0.81348 0.87287 0.0
O158 O 0.28229 0.88589 0.90861 0.0
Co159 Co 0.25639 0.81246 0.94211 0.0
O160 O 0.29288 0.84792 0.95441 0.0
C161 C 0.19572 0.85749 0.92818 0.0
C162 C 0.22644 0.86531 0.81978 0.0
C163 C 0.29689 0.878 0.93881 0.0
O164 O 0.21067 0.86783 0.8993 0.0
O165 O 0.20814 0.83288 0.94831 0.0
O166 O 0.29679 0.84002 0.85061 0.0
O167 O 0.26722 0.81078 0.8915 0.0
Co168 Co 0.39526 1.00021 0.37638 0.0
O169 O 0.41537 0.96381 0.40558 0.0
O170 O 0.43578 0.97949 0.35227 0.0
C171 C 0.38987 0.03912 0.42288 0.0
O172 O 0.38034 0.03699 0.33874 0.0
Co173 Co 0.32165 0.02914 0.39031 0.0
O174 O 0.34369 0.07193 0.36805 0.0
C175 C 0.33169 0.96561 0.34303 0.0
C176 C 0.43837 0.95936 0.38065 0.0
C177 C 0.36115 0.06514 0.33998 0.0
O178 O 0.36421 0.96442 0.3513 0.0
O179 O 0.31058 0.98897 0.35586 0.0
O180 O 0.41866 0.0367 0.4048 0.0
O181 O 0.36532 0.01726 0.4135 0.0
Co182 Co 0.25424 0.15253 0.63571 0.0
O183 O 0.22764 0.17411 0.67296 0.0
O184 O 0.24205 0.11673 0.67199 0.0
C185 C 0.29563 0.19504 0.63517 0.0
O186 O 0.28231 0.12263 0.59941 0.0
Co187 Co 0.25642 0.19608 0.56592 0.0
O188 O 0.2929 0.16061 0.55362 0.0
C189 C 0.19575 0.15104 0.57984 0.0
C190 C 0.22647 0.14321 0.68824 0.0
C191 C 0.29691 0.13053 0.56922 0.0
O192 O 0.2107 0.14069 0.60872 0.0
O193 O 0.20816 0.17566 0.55971 0.0
O194 O 0.29682 0.1685 0.65742 0.0
O195 O 0.26725 0.19774 0.61653 0.0
Co196 Co 0.09942 0.00833 0.87638 0.0
O197 O 0.07933 0.04473 0.90559 0.0
O198 O 0.0589 0.02906 0.85228 0.0
C199 C 0.10482 0.96942 0.92288 0.0
O200 O 0.11433 0.97155 0.83874 0.0
Co201 Co 0.17302 0.97938 0.8903 0.0
O202 O 0.15096 0.93659 0.86805 0.0
C203 C 0.163 0.04292 0.84303 0.0
C204 C 0.05632 0.04919 0.88067 0.0
C205 C 0.13351 0.94339 0.83998 0.0
O206 O 0.13048 0.04411 0.8513 0.0
O207 O 0.1841 0.01955 0.85586 0.0
O208 O 0.07602 0.97184 0.90481 0.0
O209 O 0.12937 0.99127 0.9135 0.0
Co210 Co 0.24048 0.856 0.13569 0.0
O211 O 0.26708 0.83442 0.17295 0.0
O212 O 0.25267 0.8918 0.17197 0.0
C213 C 0.1991 0.81349 0.13514 0.0
O214 O 0.21241 0.8859 0.09939 0.0
Co215 Co 0.2383 0.81246 0.0659 0.0
O216 O 0.20182 0.84793 0.05359 0.0
C217 C 0.29898 0.8575 0.07983 0.0
C218 C 0.26825 0.86532 0.18822 0.0
C219 C 0.1978 0.878 0.0692 0.0
O220 O 0.28402 0.86784 0.1087 0.0
O221 O 0.28656 0.83288 0.0597 0.0
O222 O 0.1979 0.84003 0.15739 0.0
O223 O 0.22747 0.81079 0.11651 0.0
Co224 Co 0.11211 0.40253 0.00398 0.0
O225 O 0.07723 0.42327 0.97417 0.0
O226 O 0.08411 0.36483 0.98186 0.0
C227 C 0.10308 0.43771 0.05242 0.0
O228 O 0.1472 0.37364 0.03325 0.0
Co229 Co 0.17346 0.45316 0.02146 0.0
O230 O 0.17882 0.41694 0.05982 0.0
C231 C 0.17686 0.40907 0.95636 0.0
C232 C 0.06744 0.39112 0.9665 0.0
C233 C 0.17038 0.38416 0.05589 0.0
O234 O 0.14529 0.39949 0.96228 0.0
O235 O 0.19305 0.43155 0.97617 0.0
O236 O 0.08379 0.40993 0.04646 0.0
O237 O 0.12368 0.4466 0.02629 0.0
Co238 Co 0.61213 0.10557 0.00414 0.0
O239 O 0.57719 0.08489 0.0339 0.0
O240 O 0.58422 0.14332 0.02628 0.0
C241 C 0.60306 0.07049 0.95563 0.0
O242 O 0.64728 0.13444 0.97493 0.0
Co243 Co 0.6734 0.05488 0.98662 0.0
O244 O 0.67888 0.09115 0.94832 0.0
C245 C 0.67688 0.09896 0.05173 0.0
C246 C 0.56749 0.11706 0.04161 0.0
C247 C 0.67045 0.12393 0.95229 0.0
O248 O 0.64528 0.10848 0.04588 0.0
O249 O 0.69307 0.07653 0.03186 0.0
O250 O 0.58382 0.0983 0.96163 0.0
O251 O 0.62362 0.0615 0.98177 0.0
Co252 Co 0.14542 0.38187 0.24994 0.0
O253 O 0.16541 0.35268 0.21345 0.0
O254 O 0.18598 0.40585 0.2292 0.0
C255 C 0.13996 0.33539 0.28883 0.0
O256 O 0.13065 0.41946 0.2868 0.0
Co257 Co 0.07182 0.36813 0.27905 0.0
O258 O 0.09408 0.39021 0.32186 0.0
C259 C 0.08188 0.41543 0.21549 0.0
C260 C 0.1885 0.3775 0.20904 0.0
C261 C 0.11151 0.41825 0.31501 0.0
O262 O 0.11437 0.40705 0.21419 0.0
O263 O 0.06079 0.40266 0.23892 0.0
O264 O 0.16879 0.35337 0.2864 0.0
O265 O 0.11539 0.34486 0.267 0.0
Co266 Co 0.88255 0.90296 0.50419 0.0
O267 O 0.91748 0.92365 0.53396 0.0
O268 O 0.91045 0.86522 0.52634 0.0
C269 C 0.89162 0.93805 0.45568 0.0
O270 O 0.8474 0.87409 0.47497 0.0
Co271 Co 0.82127 0.95364 0.48663 0.0
O272 O 0.81582 0.91737 0.44833 0.0
C273 C 0.81778 0.90956 0.55174 0.0
C274 C 0.92718 0.89148 0.54167 0.0
C275 C 0.82425 0.8846 0.45231 0.0
O276 O 0.84939 0.90005 0.54592 0.0
O277 O 0.80159 0.93198 0.53186 0.0
O278 O 0.91087 0.91023 0.46169 0.0
O279 O 0.87105 0.94703 0.48181 0.0
Co280 Co 0.8495 0.12672 0.24981 0.0
O281 O 0.82944 0.15585 0.2133 0.0
O282 O 0.80894 0.10267 0.22913 0.0
C283 C 0.85493 0.17325 0.28866 0.0
O284 O 0.86433 0.08918 0.2867 0.0
Co285 Co 0.9231 0.14056 0.27882 0.0
O286 O 0.90098 0.11845 0.32168 0.0
C287 C 0.91302 0.09313 0.21536 0.0
C288 C 0.80638 0.13099 0.20893 0.0
C289 C 0.88351 0.09042 0.31488 0.0
O290 O 0.88053 0.10152 0.21406 0.0
O291 O 0.93412 0.10595 0.23876 0.0
O292 O 0.82612 0.15523 0.28626 0.0
O293 O 0.87949 0.1638 0.26682 0.0
Co294 Co 0.3826 0.60601 0.504 0.0
O295 O 0.41748 0.58527 0.47419 0.0
O296 O 0.4106 0.64371 0.48188 0.0
C297 C 0.39163 0.57083 0.55245 0.0
O298 O 0.3475 0.6349 0.53326 0.0
Co299 Co 0.32125 0.55537 0.52148 0.0
O300 O 0.31589 0.5916 0.55983 0.0
C301 C 0.31785 0.59947 0.45638 0.0
C302 C 0.42727 0.61742 0.46652 0.0
C303 C 0.32433 0.62438 0.55589 0.0
O304 O 0.34942 0.60904 0.46229 0.0
O305 O 0.30165 0.57699 0.47619 0.0
O306 O 0.41092 0.59861 0.54648 0.0
O307 O 0.37103 0.56194 0.52631 0.0
Co308 Co 0.14543 0.62667 0.25806 0.0
O309 O 0.16542 0.65586 0.29455 0.0
O310 O 0.18599 0.60269 0.27881 0.0
C311 C 0.13998 0.67315 0.21916 0.0
O312 O 0.13067 0.58908 0.22119 0.0
Co313 Co 0.07184 0.64041 0.22891 0.0
O314 O 0.09411 0.61833 0.18611 0.0
C315 C 0.08189 0.59311 0.29248 0.0
C316 C 0.1885 0.63104 0.29898 0.0
C317 C 0.11154 0.59029 0.19297 0.0
O318 O 0.11438 0.60149 0.2938 0.0
O319 O 0.0608 0.60589 0.26904 0.0
O320 O 0.16881 0.65516 0.2216 0.0
O321 O 0.11541 0.66368 0.24098 0.0
Co322 Co 0.34927 0.38186 0.75807 0.0
O323 O 0.32928 0.35267 0.79456 0.0
O324 O 0.30871 0.40584 0.7788 0.0
C325 C 0.35474 0.33538 0.71918 0.0
O326 O 0.36404 0.41946 0.7212 0.0
Co327 Co 0.42287 0.36813 0.72895 0.0
O328 O 0.40061 0.3902 0.68614 0.0
C329 C 0.41281 0.41543 0.79251 0.0
C330 C 0.3062 0.37749 0.79897 0.0
C331 C 0.38318 0.41825 0.69299 0.0
O332 O 0.38032 0.40704 0.79382 0.0
O333 O 0.4339 0.40265 0.76908 0.0
O334 O 0.3259 0.35336 0.7216 0.0
O335 O 0.3793 0.34485 0.741 0.0
Co336 Co 0.99585 0.88374 0.61094 0.0
O337 O 0.02554 0.91895 0.59022 0.0
O338 O 0.01231 0.91664 0.64802 0.0
C339 C 0.95349 0.88676 0.56955 0.0
O340 O 0.96534 0.84975 0.64064 0.0
Co341 Co 0.9876 0.81469 0.56607 0.0
O342 O 0.95056 0.80566 0.60214 0.0
C343 C 0.05039 0.82357 0.60886 0.0
C344 C 0.02965 0.93183 0.6221 0.0
C345 C 0.94807 0.82128 0.63244 0.0
O346 O 0.037 0.85262 0.6207 0.0
O347 O 0.03623 0.80473 0.5842 0.0
O348 O 0.95482 0.90956 0.59575 0.0
O349 O 0.98034 0.86604 0.56627 0.0
Co350 Co 0.8648 0.24752 0.35516 0.0
O351 O 0.83139 0.27902 0.33498 0.0
O352 O 0.83479 0.26624 0.39301 0.0
C353 C 0.85836 0.20301 0.31436 0.0
O354 O 0.89795 0.2161 0.38394 0.0
Co355 Co 0.92977 0.23469 0.30796 0.0
O356 O 0.93458 0.19424 0.3422 0.0
C357 C 0.92798 0.29862 0.35375 0.0
C358 C 0.82008 0.28424 0.36717 0.0
C359 C 0.92286 0.19521 0.37418 0.0
O360 O 0.89758 0.28877 0.3641 0.0
O361 O 0.94526 0.28169 0.32976 0.0
O362 O 0.83725 0.20579 0.34132 0.0
O363 O 0.87964 0.22968 0.3103 0.0
Co364 Co 0.49883 0.1248 0.11089 0.0
O365 O 0.46913 0.08958 0.09018 0.0
O366 O 0.48239 0.09191 0.14798 0.0
C367 C 0.54118 0.12178 0.06948 0.0
O368 O 0.52935 0.15878 0.14058 0.0
Co369 Co 0.50707 0.19385 0.06603 0.0
O370 O 0.54412 0.20288 0.10209 0.0
C371 C 0.4443 0.18498 0.10883 0.0
C372 C 0.46504 0.07671 0.12206 0.0
C373 C 0.54662 0.18726 0.13239 0.0
O374 O 0.45769 0.15592 0.12066 0.0
O375 O 0.45845 0.20382 0.08417 0.0
O376 O 0.53986 0.09898 0.09569 0.0
O377 O 0.51432 0.1425 0.06621 0.0
Co378 Co 0.62986 0.761 0.85514 0.0
O379 O 0.66327 0.72951 0.83495 0.0
O380 O 0.65988 0.74229 0.89298 0.0
C381 C 0.63628 0.80552 0.81434 0.0
O382 O 0.59671 0.79243 0.88392 0.0
Co383 Co 0.56488 0.77384 0.80794 0.0
O384 O 0.56007 0.81428 0.84218 0.0
C385 C 0.56667 0.70991 0.85374 0.0
C386 C 0.67458 0.72429 0.86714 0.0
C387 C 0.5718 0.81332 0.87415 0.0
O388 O 0.59709 0.71975 0.86408 0.0
O389 O 0.54939 0.72684 0.82976 0.0
O390 O 0.6574 0.80274 0.8413 0.0
O391 O 0.61501 0.77885 0.81028 0.0
Co392 Co 0.99585 0.12479 0.89708 0.0
O393 O 0.02554 0.08957 0.91781 0.0
O394 O 0.0123 0.0919 0.86 0.0
C395 C 0.95347 0.12179 0.93847 0.0
O396 O 0.96535 0.15879 0.86739 0.0
Co397 Co 0.98763 0.19384 0.94196 0.0
O398 O 0.9506 0.2029 0.90588 0.0
C399 C 0.05041 0.18495 0.89916 0.0
C400 C 0.02964 0.0767 0.88592 0.0
C401 C 0.94809 0.18727 0.87558 0.0
O402 O 0.037 0.1559 0.88733 0.0
O403 O 0.03626 0.2038 0.92382 0.0
O404 O 0.95481 0.09898 0.91227 0.0
O405 O 0.98034 0.14249 0.94176 0.0
Co406 Co 0.6299 0.24752 0.65284 0.0
O407 O 0.66332 0.279 0.67303 0.0
O408 O 0.65992 0.26623 0.615 0.0
C409 C 0.63632 0.20299 0.69363 0.0
O410 O 0.59675 0.2161 0.62405 0.0
Co411 Co 0.56493 0.2347 0.70003 0.0
O412 O 0.56011 0.19425 0.66579 0.0
C413 C 0.56672 0.29862 0.65424 0.0
C414 C 0.67463 0.28423 0.64084 0.0
C415 C 0.57183 0.19521 0.63382 0.0
O416 O 0.59713 0.28877 0.64389 0.0
O417 O 0.54944 0.2817 0.67823 0.0
O418 O 0.65744 0.20577 0.66668 0.0
O419 O 0.61506 0.22967 0.69769 0.0
Co420 Co 0.49885 0.88375 0.39705 0.0
O421 O 0.46917 0.91897 0.41778 0.0
O422 O 0.48238 0.91664 0.35997 0.0
C423 C 0.54123 0.88675 0.43843 0.0
O424 O 0.52934 0.84976 0.36734 0.0
Co425 Co 0.50709 0.81471 0.44192 0.0
O426 O 0.54412 0.80566 0.40585 0.0
C427 C 0.4443 0.82359 0.39914 0.0
C428 C 0.46505 0.93185 0.3859 0.0
C429 C 0.54661 0.82128 0.37555 0.0
O430 O 0.4577 0.85264 0.3873 0.0
O431 O 0.45845 0.80475 0.4238 0.0
O432 O 0.53989 0.90956 0.41223 0.0
O433 O 0.51437 0.86605 0.44172 0.0
Co434 Co 0.86483 0.76102 0.15286 0.0
O435 O 0.83142 0.72953 0.17306 0.0
O436 O 0.83481 0.74231 0.11502 0.0
C437 C 0.85842 0.80554 0.19366 0.0
O438 O 0.89798 0.79244 0.12408 0.0
Co439 Co 0.92981 0.77384 0.20005 0.0
O440 O 0.93462 0.81429 0.16582 0.0
C441 C 0.92801 0.70992 0.15425 0.0
C442 C 0.8201 0.72431 0.14086 0.0
C443 C 0.92289 0.81333 0.13385 0.0
O444 O 0.8976 0.71977 0.14391 0.0
O445 O 0.9453 0.72684 0.17824 0.0
O446 O 0.83729 0.80276 0.16671 0.0
O447 O 0.87968 0.77887 0.19772 0.0
Co448 Co 0.58086 0.01174 0.87802 0.0
O449 O 0.56461 0.04677 0.91161 0.0
O450 O 0.61951 0.02909 0.90751 0.0
C451 C 0.54021 0.96998 0.88912 0.0
O452 O 0.6052 0.97378 0.84703 0.0
Co453 Co 0.53038 0.99521 0.81424 0.0
O454 O 0.56245 0.9538 0.81033 0.0
C455 C 0.56931 0.06267 0.8145 0.0
C456 C 0.59604 0.04813 0.92404 0.0
C457 C 0.59276 0.95115 0.82417 0.0
O458 O 0.58836 0.05068 0.8404 0.0
O459 O 0.54228 0.04624 0.80296 0.0
O460 O 0.56685 0.9736 0.9101 0.0
O461 O 0.53618 0.99501 0.86555 0.0
Co462 Co 0.74886 0.86127 0.63331 0.0
O463 O 0.71909 0.84049 0.66844 0.0
O464 O 0.73245 0.89821 0.66635 0.0
C465 C 0.79118 0.81983 0.63616 0.0
O466 O 0.77942 0.89105 0.59946 0.0
Co467 Co 0.75702 0.81676 0.56399 0.0
O468 O 0.79395 0.85291 0.55495 0.0
C469 C 0.69432 0.85958 0.57304 0.0
C470 C 0.71503 0.8723 0.68144 0.0
C471 C 0.79655 0.88304 0.57082 0.0
O472 O 0.70776 0.87126 0.60217 0.0
O473 O 0.70841 0.83496 0.55411 0.0
O474 O 0.78985 0.8459 0.65911 0.0
O475 O 0.76432 0.81669 0.6154 0.0
Co476 Co 0.91384 0.99678 0.37807 0.0
O477 O 0.93008 0.96176 0.41168 0.0
O478 O 0.87518 0.97944 0.40755 0.0
C479 C 0.95448 0.03855 0.38919 0.0
O480 O 0.8895 0.03473 0.34706 0.0
Co481 Co 0.96434 0.0133 0.31431 0.0
O482 O 0.93227 0.0547 0.31037 0.0
C483 C 0.92541 0.94584 0.31457 0.0
C484 C 0.89865 0.96041 0.42409 0.0
C485 C 0.90195 0.05735 0.32419 0.0
O486 O 0.90635 0.95784 0.34046 0.0
O487 O 0.95245 0.96226 0.30305 0.0
O488 O 0.92784 0.03493 0.41016 0.0
O489 O 0.95852 0.01352 0.36562 0.0
Co490 Co 0.74582 0.14724 0.1333 0.0
O491 O 0.77559 0.16803 0.16843 0.0
O492 O 0.76223 0.11031 0.16635 0.0
C493 C 0.70351 0.18869 0.13615 0.0
O494 O 0.71525 0.11747 0.09945 0.0
Co495 Co 0.73765 0.19176 0.06398 0.0
O496 O 0.70071 0.15562 0.05495 0.0
C497 C 0.80035 0.14893 0.07304 0.0
C498 C 0.77966 0.13622 0.18143 0.0
C499 C 0.69811 0.12548 0.07081 0.0
O500 O 0.78692 0.13725 0.10216 0.0
O501 O 0.78627 0.17355 0.05411 0.0
O502 O 0.70483 0.16262 0.1591 0.0
O503 O 0.73036 0.19183 0.11539 0.0
Co504 Co 0.58087 0.99679 0.62992 0.0
O505 O 0.56462 0.96176 0.59633 0.0
O506 O 0.61952 0.97944 0.60043 0.0
C507 C 0.54023 0.03856 0.61883 0.0
O508 O 0.60523 0.03473 0.66092 0.0
Co509 Co 0.53041 0.01332 0.69371 0.0
O510 O 0.5625 0.05472 0.69763 0.0
C511 C 0.56931 0.94585 0.69343 0.0
C512 C 0.59604 0.9604 0.5839 0.0
C513 C 0.5928 0.05737 0.68379 0.0
O514 O 0.58838 0.95784 0.66754 0.0
O515 O 0.54228 0.96228 0.70497 0.0
O516 O 0.56687 0.03493 0.59784 0.0
O517 O 0.5362 0.01352 0.6424 0.0
Co518 Co 0.74584 0.86128 0.37471 0.0
O519 O 0.77561 0.84049 0.33958 0.0
O520 O 0.76226 0.89822 0.34167 0.0
C521 C 0.70351 0.81985 0.37185 0.0
O522 O 0.71528 0.89106 0.40855 0.0
Co523 Co 0.73764 0.81677 0.44403 0.0
O524 O 0.70077 0.85297 0.4531 0.0
C525 C 0.80037 0.85954 0.43497 0.0
C526 C 0.77968 0.8723 0.32659 0.0
C527 C 0.69818 0.8831 0.43722 0.0
O528 O 0.78694 0.87126 0.40586 0.0
O529 O 0.78627 0.83494 0.45391 0.0
O530 O 0.70485 0.84592 0.34889 0.0
O531 O 0.73037 0.8167 0.39262 0.0
Co532 Co 0.91383 0.01175 0.12997 0.0
O533 O 0.93008 0.04678 0.09637 0.0
O534 O 0.87519 0.0291 0.10047 0.0
C535 C 0.95448 0.96999 0.11887 0.0
O536 O 0.88948 0.9738 0.16096 0.0
Co537 Co 0.9643 0.99523 0.19376 0.0
O538 O 0.93223 0.95383 0.19768 0.0
C539 C 0.92539 0.0627 0.19346 0.0
C540 C 0.89866 0.04813 0.08394 0.0
C541 C 0.90192 0.95117 0.18384 0.0
O542 O 0.90632 0.0507 0.16758 0.0
O543 O 0.95242 0.04628 0.205 0.0
O544 O 0.92784 0.97361 0.09789 0.0
O545 O 0.95851 0.99502 0.14245 0.0
Co546 Co 0.74887 0.14723 0.87471 0.0
O547 O 0.7191 0.16802 0.83957 0.0
O548 O 0.73245 0.1103 0.84166 0.0
C549 C 0.79119 0.18867 0.87185 0.0
O550 O 0.77943 0.11745 0.90855 0.0
Co551 Co 0.75706 0.19175 0.94403 0.0
O552 O 0.79394 0.15555 0.9531 0.0
C553 C 0.69433 0.14897 0.93496 0.0
C554 C 0.71503 0.13621 0.82658 0.0
C555 C 0.79654 0.12542 0.93722 0.0
O556 O 0.70777 0.13725 0.90585 0.0
O557 O 0.70844 0.17358 0.9539 0.0
O558 O 0.78986 0.1626 0.8489 0.0
O559 O 0.76434 0.19181 0.89262 0.0
Co560 Co 0.87996 0.60565 0.99719 0.0
O561 O 0.91333 0.58544 0.02873 0.0
O562 O 0.91 0.64342 0.01595 0.0
C563 C 0.8864 0.56488 0.95264 0.0
O564 O 0.84683 0.63442 0.96571 0.0
Co565 Co 0.81498 0.5585 0.98434 0.0
O566 O 0.81008 0.59277 0.94393 0.0
C567 C 0.81677 0.60426 0.04833 0.0
C568 C 0.92466 0.61759 0.03398 0.0
C569 C 0.82184 0.6247 0.94487 0.0
O570 O 0.84717 0.61461 0.03846 0.0
O571 O 0.7995 0.58028 0.0314 0.0
O572 O 0.90752 0.5918 0.95541 0.0
O573 O 0.86511 0.56085 0.97932 0.0
Co574 Co 0.37997 0.90293 0.01084 0.0
O575 O 0.41336 0.92307 0.97928 0.0
O576 O 0.40994 0.8651 0.9921 0.0
C577 C 0.38645 0.94372 0.05536 0.0
O578 O 0.34683 0.8742 0.04232 0.0
Co579 Co 0.31502 0.95012 0.02374 0.0
O580 O 0.31023 0.91591 0.06423 0.0
C581 C 0.31676 0.90438 0.95974 0.0
C582 C 0.42463 0.89089 0.97404 0.0
C583 C 0.32193 0.88397 0.06324 0.0
O584 O 0.34716 0.894 0.96957 0.0
O585 O 0.29949 0.92833 0.97671 0.0
O586 O 0.40755 0.91677 0.05261 0.0
O587 O 0.36515 0.94774 0.02868 0.0
Co588 Co 0.83099 0.62838 0.74625 0.0
O589 O 0.8147 0.66189 0.71114 0.0
O590 O 0.86961 0.65787 0.72881 0.0
C591 C 0.79035 0.63952 0.78805 0.0
O592 O 0.85537 0.59746 0.78428 0.0
Co593 Co 0.7805 0.56469 0.76292 0.0
O594 O 0.81271 0.56066 0.80424 0.0
C595 C 0.81941 0.56483 0.69539 0.0
C596 C 0.8461 0.67436 0.70976 0.0
C597 C 0.84301 0.57451 0.80688 0.0
O598 O 0.83848 0.59073 0.70732 0.0
O599 O 0.79236 0.55337 0.71185 0.0
O600 O 0.81699 0.66047 0.78439 0.0
O601 O 0.78633 0.61593 0.76303 0.0
Co602 Co 0.11473 0.10562 0.51085 0.0
O603 O 0.08133 0.08549 0.4793 0.0
O604 O 0.08476 0.14345 0.49212 0.0
C605 C 0.10826 0.06483 0.55537 0.0
O606 O 0.14789 0.13434 0.54233 0.0
Co607 Co 0.17968 0.05842 0.52373 0.0
O608 O 0.1845 0.09262 0.56422 0.0
C609 C 0.17792 0.10415 0.45972 0.0
C610 C 0.07006 0.11767 0.47406 0.0
C611 C 0.1728 0.12457 0.56324 0.0
O612 O 0.14752 0.11454 0.46957 0.0
O613 O 0.19519 0.0802 0.47668 0.0
O614 O 0.08716 0.09178 0.55262 0.0
O615 O 0.12955 0.0608 0.52869 0.0
Co616 Co 0.16378 0.88015 0.74627 0.0
O617 O 0.17997 0.84659 0.71118 0.0
O618 O 0.12509 0.85074 0.72889 0.0
C619 C 0.20444 0.86897 0.78805 0.0
O620 O 0.13949 0.91114 0.78429 0.0
Co621 Co 0.2144 0.94376 0.76283 0.0
O622 O 0.18226 0.94782 0.80421 0.0
C623 C 0.17542 0.94361 0.69533 0.0
C624 C 0.14854 0.8342 0.70983 0.0
C625 C 0.15193 0.93404 0.80688 0.0
O626 O 0.15631 0.91777 0.70733 0.0
O627 O 0.20249 0.95505 0.71176 0.0
O628 O 0.17777 0.84806 0.78443 0.0
O629 O 0.20848 0.89253 0.76301 0.0
Co630 Co 0.61473 0.4029 0.49719 0.0
O631 O 0.58137 0.42311 0.52874 0.0
O632 O 0.58469 0.36514 0.51596 0.0
C633 C 0.60828 0.44367 0.45264 0.0
O634 O 0.64785 0.37413 0.46571 0.0
Co635 Co 0.6797 0.45005 0.48433 0.0
O636 O 0.68459 0.41577 0.44392 0.0
C637 C 0.67793 0.40428 0.54832 0.0
C638 C 0.57003 0.39097 0.53399 0.0
C639 C 0.67283 0.38384 0.44487 0.0
O640 O 0.64752 0.39395 0.53846 0.0
O641 O 0.6952 0.42826 0.53139 0.0
O642 O 0.58715 0.41675 0.45542 0.0
O643 O 0.62958 0.4477 0.47932 0.0
Co644 Co 0.831 0.38014 0.76177 0.0
O645 O 0.8147 0.34663 0.79687 0.0
O646 O 0.86961 0.35065 0.77922 0.0
C647 C 0.79036 0.36901 0.71996 0.0
O648 O 0.85539 0.41106 0.72374 0.0
Co649 Co 0.78052 0.44384 0.74507 0.0
O650 O 0.81274 0.44788 0.70377 0.0
C651 C 0.81941 0.44368 0.81263 0.0
C652 C 0.84609 0.33416 0.79826 0.0
C653 C 0.84304 0.43401 0.70114 0.0
O654 O 0.83848 0.41779 0.80069 0.0
O655 O 0.79236 0.45514 0.79616 0.0
O656 O 0.81699 0.34805 0.72362 0.0
O657 O 0.78634 0.3926 0.74497 0.0
Co658 Co 0.66371 0.62839 0.26176 0.0
O659 O 0.68 0.66191 0.29687 0.0
O660 O 0.62509 0.65789 0.2792 0.0
C661 C 0.70435 0.63953 0.21996 0.0
O662 O 0.63933 0.59747 0.22373 0.0
Co663 Co 0.7142 0.56471 0.2451 0.0
O664 O 0.68199 0.56066 0.20378 0.0
C665 C 0.6753 0.56486 0.31264 0.0
C666 C 0.6486 0.67438 0.29825 0.0
C667 C 0.65169 0.57452 0.20114 0.0
O668 O 0.65622 0.59075 0.30069 0.0
O669 O 0.70235 0.5534 0.29618 0.0
O670 O 0.67772 0.66048 0.22361 0.0
O671 O 0.70837 0.61594 0.24499 0.0
Co672 Co 0.50413 0.62257 0.90217 0.0
O673 O 0.47755 0.58535 0.92378 0.0
O674 O 0.49189 0.58635 0.86632 0.0
C675 C 0.54557 0.62308 0.94469 0.0
O676 O 0.53218 0.65884 0.87222 0.0
Co677 Co 0.5064 0.69226 0.9458 0.0
O678 O 0.5429 0.7045 0.9103 0.0
C679 C 0.44567 0.67841 0.90076 0.0
C680 C 0.47634 0.5701 0.89284 0.0
C681 C 0.54685 0.68896 0.88016 0.0
O682 O 0.46058 0.64956 0.89038 0.0
O683 O 0.45813 0.69851 0.92539 0.0
O684 O 0.54673 0.60086 0.9181 0.0
O685 O 0.5172 0.6417 0.94742 0.0
Co686 Co 0.63261 0.25413 0.15218 0.0
O687 O 0.66745 0.22431 0.17297 0.0
O688 O 0.66061 0.23198 0.11446 0.0
C689 C 0.64163 0.30257 0.18736 0.0
O690 O 0.59757 0.2834 0.12323 0.0
Co691 Co 0.57124 0.27155 0.20283 0.0
O692 O 0.56593 0.3099 0.16659 0.0
C693 C 0.56788 0.20646 0.15884 0.0
C694 C 0.67723 0.2166 0.14079 0.0
C695 C 0.57441 0.30603 0.13378 0.0
O696 O 0.59939 0.2125 0.1491 0.0
O697 O 0.55168 0.22621 0.18137 0.0
O698 O 0.66097 0.29655 0.15959 0.0
O699 O 0.62103 0.27647 0.19628 0.0
Co700 Co 0.99054 0.38597 0.40215 0.0
O701 O 0.01713 0.4232 0.42375 0.0
O702 O 0.00278 0.42219 0.3663 0.0
C703 C 0.94912 0.38546 0.44467 0.0
O704 O 0.96248 0.34969 0.37221 0.0
Co705 Co 0.98829 0.31629 0.44579 0.0
O706 O 0.95177 0.30404 0.41031 0.0
C707 C 0.04901 0.33013 0.40074 0.0
C708 C 0.01833 0.43844 0.39281 0.0
C709 C 0.94781 0.31958 0.38016 0.0
O710 O 0.03409 0.35898 0.39036 0.0
O711 O 0.03655 0.31004 0.42538 0.0
O712 O 0.94795 0.40768 0.41809 0.0
O713 O 0.97749 0.36684 0.44741 0.0
Co714 Co 0.86208 0.7544 0.6522 0.0
O715 O 0.82724 0.78421 0.67299 0.0
O716 O 0.83408 0.77655 0.61448 0.0
C717 C 0.85305 0.70596 0.68739 0.0
O718 O 0.89713 0.72513 0.62325 0.0
Co719 Co 0.92345 0.73697 0.70286 0.0
O720 O 0.92877 0.69863 0.66661 0.0
C721 C 0.92681 0.80208 0.65888 0.0
C722 C 0.81745 0.79192 0.6408 0.0
C723 C 0.92029 0.70251 0.6338 0.0
O724 O 0.8953 0.79603 0.64914 0.0
O725 O 0.94301 0.78232 0.68141 0.0
O726 O 0.83372 0.71198 0.6596 0.0
O727 O 0.87366 0.73205 0.6963 0.0
Co728 Co 0.50415 0.38597 0.60584 0.0
O729 O 0.47755 0.42319 0.58424 0.0
O730 O 0.49192 0.42219 0.6417 0.0
C731 C 0.54555 0.38548 0.5633 0.0
O732 O 0.53222 0.34969 0.63578 0.0
Co733 Co 0.50642 0.31628 0.5622 0.0
O734 O 0.54295 0.30405 0.59768 0.0
C735 C 0.4457 0.33011 0.60727 0.0
C736 C 0.47636 0.43844 0.61519 0.0
C737 C 0.5469 0.31959 0.62783 0.0
O738 O 0.46061 0.35897 0.61764 0.0
O739 O 0.45816 0.31002 0.58263 0.0
O740 O 0.54673 0.40769 0.5899 0.0
O741 O 0.51719 0.36684 0.56058 0.0
Co742 Co 0.86208 0.25412 0.85581 0.0
O743 O 0.82724 0.22429 0.83503 0.0
O744 O 0.83409 0.23196 0.89354 0.0
C745 C 0.85303 0.30255 0.82062 0.0
O746 O 0.89712 0.28339 0.88476 0.0
Co747 Co 0.92344 0.27158 0.80516 0.0
O748 O 0.92873 0.30993 0.8414 0.0
C749 C 0.92682 0.20647 0.84914 0.0
C750 C 0.81747 0.21658 0.86721 0.0
C751 C 0.92026 0.30604 0.87421 0.0
O752 O 0.89531 0.2125 0.85888 0.0
O753 O 0.94302 0.22624 0.82661 0.0
O754 O 0.83371 0.29653 0.84841 0.0
O755 O 0.87365 0.27646 0.81172 0.0
Co756 Co 0.99056 0.62258 0.10582 0.0
O757 O 0.01716 0.58536 0.08422 0.0
O758 O 0.0028 0.58636 0.14168 0.0
C759 C 0.94915 0.62307 0.06329 0.0
O760 O 0.96251 0.65885 0.13577 0.0
Co761 Co 0.98828 0.69228 0.0622 0.0
O762 O 0.95177 0.70451 0.09769 0.0
C763 C 0.04902 0.67843 0.10725 0.0
C764 C 0.01836 0.57011 0.11516 0.0
C765 C 0.94782 0.68896 0.12783 0.0
O766 O 0.03411 0.64957 0.11762 0.0
O767 O 0.03655 0.69853 0.08262 0.0
O768 O 0.94797 0.60087 0.08988 0.0
O769 O 0.97751 0.64171 0.06057 0.0
Co770 Co 0.63261 0.75441 0.3558 0.0
O771 O 0.66745 0.78423 0.33501 0.0
O772 O 0.6606 0.77658 0.39352 0.0
C773 C 0.64165 0.70598 0.32061 0.0
O774 O 0.59757 0.72515 0.38474 0.0
Co775 Co 0.57125 0.73697 0.30513 0.0
O776 O 0.56593 0.69863 0.34139 0.0
C777 C 0.56788 0.80208 0.34911 0.0
C778 C 0.67723 0.79194 0.3672 0.0
C779 C 0.57441 0.70252 0.3742 0.0
O780 O 0.59939 0.79605 0.35885 0.0
O781 O 0.55168 0.78232 0.32658 0.0
O782 O 0.66097 0.712 0.34841 0.0
O783 O 0.62104 0.73207 0.3117 0.0
Co784 Co 0.89535 0.50831 0.63157 0.0
O785 O 0.91533 0.54475 0.60231 0.0
O786 O 0.93589 0.52911 0.65557 0.0
C787 C 0.88989 0.46939 0.58509 0.0
O788 O 0.88059 0.47151 0.66927 0.0
Co789 Co 0.82177 0.47918 0.61788 0.0
O790 O 0.84402 0.43642 0.64 0.0
C791 C 0.8318 0.54283 0.66503 0.0
C792 C 0.93838 0.54925 0.62719 0.0
C793 C 0.86151 0.44328 0.66803 0.0
O794 O 0.86431 0.54405 0.65672 0.0
O795 O 0.81071 0.5194 0.65228 0.0
O796 O 0.91873 0.47186 0.60309 0.0
O797 O 0.86533 0.4912 0.59455 0.0
Co798 Co 0.74051 0.65256 0.87225 0.0
O799 O 0.76713 0.67412 0.835 0.0
O800 O 0.75277 0.61672 0.83604 0.0
C801 C 0.69909 0.69503 0.87268 0.0
O802 O 0.71244 0.62267 0.90856 0.0
Co803 Co 0.73821 0.69617 0.94199 0.0
O804 O 0.70174 0.66069 0.95428 0.0
C805 C 0.79896 0.65119 0.92819 0.0
C806 C 0.76834 0.6432 0.81977 0.0
C807 C 0.69779 0.63059 0.93872 0.0
O808 O 0.78405 0.6408 0.89931 0.0
O809 O 0.78648 0.67578 0.94831 0.0
O810 O 0.69793 0.66845 0.85047 0.0
O811 O 0.72743 0.69778 0.89136 0.0
Co812 Co 0.59937 0.50022 0.13156 0.0
O813 O 0.57937 0.46378 0.1023 0.0
O814 O 0.55883 0.47943 0.15557 0.0
C815 C 0.60482 0.53914 0.08508 0.0
O816 O 0.61415 0.53702 0.16926 0.0
Co817 Co 0.67295 0.52933 0.11786 0.0
O818 O 0.65073 0.5721 0.14 0.0
C819 C 0.66292 0.46569 0.16502 0.0
C820 C 0.55633 0.45929 0.12718 0.0
C821 C 0.63323 0.56524 0.16803 0.0
O822 O 0.63041 0.46447 0.1567 0.0
O823 O 0.68401 0.48911 0.15226 0.0
O824 O 0.57598 0.53668 0.10308 0.0
O825 O 0.62938 0.51733 0.09453 0.0
Co826 Co 0.75416 0.35597 0.37227 0.0
O827 O 0.72755 0.33441 0.33502 0.0
O828 O 0.7419 0.39181 0.33605 0.0
C829 C 0.79558 0.3135 0.37272 0.0
O830 O 0.78223 0.38587 0.40858 0.0
Co831 Co 0.75646 0.31238 0.44202 0.0
O832 O 0.79294 0.34786 0.45431 0.0
C833 C 0.69571 0.35735 0.4282 0.0
C834 C 0.72634 0.36533 0.31978 0.0
C835 C 0.79689 0.37796 0.43874 0.0
O836 O 0.71062 0.36774 0.39932 0.0
O837 O 0.7082 0.33277 0.44833 0.0
O838 O 0.79674 0.34008 0.3505 0.0
O839 O 0.76724 0.31075 0.39139 0.0
Co840 Co 0.89534 0.50022 0.87644 0.0
O841 O 0.91534 0.46378 0.9057 0.0
O842 O 0.93588 0.47943 0.85244 0.0
C843 C 0.88989 0.53914 0.92292 0.0
O844 O 0.88056 0.53702 0.83875 0.0
Co845 Co 0.82175 0.52932 0.89015 0.0
O846 O 0.84398 0.57209 0.86802 0.0
C847 C 0.83179 0.46568 0.84299 0.0
C848 C 0.93838 0.45928 0.88083 0.0
C849 C 0.86148 0.56524 0.83999 0.0
O850 O 0.8643 0.46447 0.8513 0.0
O851 O 0.8107 0.48911 0.85574 0.0
O852 O 0.91872 0.53667 0.90493 0.0
O853 O 0.86532 0.51732 0.91347 0.0
Co854 Co 0.75418 0.65257 0.13576 0.0
O855 O 0.72757 0.67413 0.17301 0.0
O856 O 0.74193 0.61673 0.17197 0.0
C857 C 0.7956 0.69505 0.13532 0.0
O858 O 0.78226 0.62269 0.09945 0.0
Co859 Co 0.75646 0.69617 0.06602 0.0
O860 O 0.793 0.66075 0.05377 0.0
C861 C 0.69575 0.65114 0.0798 0.0
C862 C 0.72636 0.64321 0.18824 0.0
C863 C 0.79695 0.63064 0.06931 0.0
O864 O 0.71065 0.6408 0.10871 0.0
O865 O 0.70822 0.67574 0.05969 0.0
O866 O 0.79676 0.66847 0.15753 0.0
O867 O 0.76725 0.6978 0.11665 0.0
Co868 Co 0.59935 0.50834 0.37644 0.0
O869 O 0.57936 0.54476 0.40571 0.0
O870 O 0.55882 0.52913 0.35243 0.0
C871 C 0.6048 0.46941 0.42292 0.0
O872 O 0.61414 0.47155 0.33874 0.0
Co873 Co 0.67294 0.47923 0.39016 0.0
O874 O 0.65069 0.43648 0.36801 0.0
C875 C 0.66291 0.54287 0.343 0.0
C876 C 0.55632 0.54927 0.38083 0.0
C877 C 0.63325 0.44334 0.33994 0.0
O878 O 0.6304 0.54409 0.35131 0.0
O879 O 0.684 0.51944 0.35575 0.0
O880 O 0.57597 0.47187 0.40491 0.0
O881 O 0.62937 0.49122 0.41347 0.0
Co882 Co 0.74053 0.35597 0.63574 0.0
O883 O 0.76715 0.33441 0.673 0.0
O884 O 0.75278 0.39181 0.67196 0.0
C885 C 0.69912 0.31349 0.6353 0.0
O886 O 0.71246 0.38586 0.59943 0.0
Co887 Co 0.73825 0.31238 0.566 0.0
O888 O 0.70171 0.34779 0.55375 0.0
C889 C 0.79897 0.35741 0.5798 0.0
C890 C 0.76836 0.36533 0.68823 0.0
C891 C 0.69776 0.37791 0.5693 0.0
O892 O 0.78407 0.36775 0.6087 0.0
O893 O 0.7865 0.33281 0.55968 0.0
O894 O 0.69796 0.34007 0.65751 0.0
O895 O 0.72747 0.31075 0.61663 0.0
Co896 Co 0.61216 0.90297 0.5038 0.0
O897 O 0.57723 0.92366 0.47401 0.0
O898 O 0.58427 0.86522 0.48164 0.0
C899 C 0.60305 0.93806 0.55229 0.0
O900 O 0.6473 0.8741 0.53302 0.0
Co901 Co 0.67344 0.95363 0.52143 0.0
O902 O 0.67877 0.9174 0.55978 0.0
C903 C 0.67693 0.90963 0.45626 0.0
C904 C 0.56754 0.89148 0.4663 0.0
C905 C 0.67039 0.88462 0.55576 0.0
O906 O 0.64533 0.90008 0.46208 0.0
O907 O 0.69313 0.932 0.47619 0.0
O908 O 0.58382 0.91024 0.54629 0.0
O909 O 0.62365 0.94704 0.52618 0.0
Co910 Co 0.11209 0.606 0.50401 0.0
O911 O 0.07722 0.58526 0.53381 0.0
O912 O 0.08409 0.6437 0.52613 0.0
C913 C 0.10306 0.57083 0.45556 0.0
O914 O 0.14719 0.6349 0.47475 0.0
Co915 Co 0.17345 0.55537 0.48653 0.0
O916 O 0.1788 0.5916 0.44818 0.0
C917 C 0.17685 0.59946 0.55162 0.0
C918 C 0.06743 0.61741 0.54149 0.0
C919 C 0.17037 0.62438 0.45211 0.0
O920 O 0.14528 0.60904 0.54572 0.0
O921 O 0.19305 0.57699 0.53181 0.0
O922 O 0.08377 0.59861 0.46153 0.0
O923 O 0.12366 0.56193 0.4817 0.0
Co924 Co 0.64518 0.88181 0.74979 0.0
O925 O 0.66523 0.85268 0.71328 0.0
O926 O 0.68574 0.90585 0.72913 0.0
C927 C 0.63973 0.83527 0.78864 0.0
O928 O 0.63037 0.91935 0.7867 0.0
Co929 Co 0.57157 0.86799 0.77879 0.0
O930 O 0.59369 0.89008 0.82167 0.0
C931 C 0.58167 0.9154 0.71532 0.0
C932 C 0.6883 0.87753 0.70892 0.0
C933 C 0.61121 0.91808 0.81489 0.0
O934 O 0.61416 0.90702 0.71404 0.0
O935 O 0.56056 0.9026 0.73872 0.0
O936 O 0.66855 0.85328 0.78624 0.0
O937 O 0.61517 0.84474 0.7668 0.0
Co938 Co 0.38258 0.40254 0.00403 0.0
O939 O 0.41746 0.42329 0.03384 0.0
O940 O 0.41058 0.36485 0.02615 0.0
C941 C 0.3916 0.43772 0.95558 0.0
O942 O 0.34748 0.37364 0.97477 0.0
Co943 Co 0.32122 0.45317 0.98654 0.0
O944 O 0.31587 0.41694 0.94819 0.0
C945 C 0.31783 0.40908 0.05164 0.0
C946 C 0.42725 0.39114 0.04151 0.0
C947 C 0.32431 0.38416 0.95212 0.0
O948 O 0.3494 0.39951 0.04573 0.0
O949 O 0.30163 0.43155 0.03183 0.0
O950 O 0.4109 0.40993 0.96155 0.0
O951 O 0.37101 0.44661 0.98171 0.0
Co952 Co 0.34926 0.62667 0.74995 0.0
O953 O 0.32927 0.65586 0.71345 0.0
O954 O 0.30871 0.60268 0.7292 0.0
C955 C 0.35471 0.67314 0.78884 0.0
O956 O 0.36403 0.58907 0.78682 0.0
Co957 Co 0.42285 0.64041 0.77909 0.0
O958 O 0.40059 0.61833 0.82189 0.0
C959 C 0.41281 0.59311 0.71552 0.0
C960 C 0.30619 0.63103 0.70903 0.0
C961 C 0.38316 0.59029 0.81503 0.0
O962 O 0.38032 0.60149 0.71421 0.0
O963 O 0.43389 0.60588 0.73896 0.0
O964 O 0.32588 0.65516 0.7864 0.0
O965 O 0.37928 0.66368 0.76702 0.0
Co966 Co 0.88255 0.10556 1.00383 0.0
O967 O 0.91749 0.08488 0.97406 0.0
O968 O 0.91043 0.14332 0.98168 0.0
C969 C 0.89165 0.07047 0.05233 0.0
O970 O 0.84739 0.13442 0.03304 0.0
Co971 Co 0.82127 0.05489 0.02143 0.0
O972 O 0.81591 0.09112 0.05977 0.0
C973 C 0.81779 0.09889 0.95627 0.0
C974 C 0.92717 0.11707 0.96635 0.0
C975 C 0.82429 0.12391 0.05576 0.0
O976 O 0.84939 0.10845 0.9621 0.0
O977 O 0.80159 0.07652 0.97619 0.0
O978 O 0.91087 0.0983 0.04633 0.0
O979 O 0.87106 0.06149 0.02621 0.0
Co980 Co 0.64521 0.12671 0.75818 0.0
O981 O 0.66524 0.15583 0.79471 0.0
O982 O 0.68576 0.10266 0.77887 0.0
C983 C 0.63976 0.17324 0.71934 0.0
O984 O 0.6304 0.08917 0.72127 0.0
Co985 Co 0.57161 0.14052 0.72913 0.0
O986 O 0.59375 0.11844 0.68626 0.0
C987 C 0.58168 0.09311 0.79261 0.0
C988 C 0.68831 0.13098 0.79908 0.0
C989 C 0.61126 0.09044 0.69306 0.0
O990 O 0.61417 0.10149 0.79391 0.0
O991 O 0.56058 0.10591 0.7692 0.0
O992 O 0.66858 0.15523 0.72175 0.0
O993 O 0.6152 0.16377 0.74116 0.0
Co994 Co 0.84952 0.88181 0.25822 0.0
O995 O 0.82948 0.85269 0.29474 0.0
O996 O 0.80897 0.90586 0.27889 0.0
C997 C 0.85497 0.83528 0.21937 0.0
O998 O 0.86433 0.91936 0.22131 0.0
Co999 Co 0.92312 0.868 0.22919 0.0
O1000 O 0.901 0.8901 0.18632 0.0
C1001 C 0.91304 0.9154 0.29268 0.0
C1002 C 0.80641 0.87754 0.2991 0.0
C1003 C 0.88348 0.9181 0.19312 0.0
O1004 O 0.88055 0.90703 0.29396 0.0
O1005 O 0.93415 0.9026 0.26927 0.0
O1006 O 0.82615 0.8533 0.22177 0.0
O1007 O 0.87953 0.84475 0.2412 0.0
Co1008 Co 0.49598 0.38357 0.11076 0.0
O1009 O 0.52564 0.41881 0.09003 0.0
O1010 O 0.51238 0.41649 0.14782 0.0
C1011 C 0.4536 0.38649 0.06936 0.0
O1012 O 0.46551 0.34957 0.14048 0.0
Co1013 Co 0.48778 0.31447 0.06594 0.0
O1014 O 0.45079 0.30539 0.10206 0.0
C1015 C 0.55056 0.32343 0.10873 0.0
C1016 C 0.52971 0.43171 0.1219 0.0
C1017 C 0.44828 0.32106 0.13233 0.0
O1018 O 0.53716 0.35249 0.12055 0.0
O1019 O 0.53642 0.30457 0.08408 0.0
O1020 O 0.45492 0.40932 0.09555 0.0
O1021 O 0.48048 0.3658 0.06609 0.0
Co1022 Co 0.36468 0.74739 0.85531 0.0
O1023 O 0.33128 0.77889 0.83513 0.0
O1024 O 0.33472 0.76615 0.89317 0.0
C1025 C 0.35817 0.70288 0.81454 0.0
O1026 O 0.39784 0.71596 0.88408 0.0
Co1027 Co 0.4296 0.73446 0.80805 0.0
O1028 O 0.43436 0.694 0.84229 0.0
C1029 C 0.42787 0.79845 0.85377 0.0
C1030 C 0.32002 0.78416 0.86733 0.0
C1031 C 0.4227 0.69501 0.87429 0.0
O1032 O 0.39748 0.78862 0.86419 0.0
O1033 O 0.44513 0.78148 0.8298 0.0
O1034 O 0.33708 0.70567 0.84152 0.0
O1035 O 0.37947 0.72952 0.81047 0.0
Co1036 Co -0.00128 0.62497 0.61075 0.0
O1037 O 0.96905 0.58973 0.59003 0.0
O1038 O 0.98233 0.59204 0.64782 0.0
C1039 C 0.04108 0.62205 0.56935 0.0
O1040 O 0.0292 0.65896 0.64048 0.0
Co1041 Co 0.0069 0.69408 0.56595 0.0
O1042 O 0.04391 0.70315 0.60205 0.0
C1043 C 0.94413 0.68511 0.60875 0.0
C1044 C 0.965 0.57683 0.6219 0.0
C1045 C 0.04643 0.68747 0.63233 0.0
O1046 O 0.95754 0.65605 0.62056 0.0
O1047 O 0.95827 0.70398 0.5841 0.0
O1048 O 0.03977 0.59922 0.59553 0.0
O1049 O 0.0142 0.64274 0.56609 0.0
Co1050 Co 0.12998 0.26114 0.35529 0.0
O1051 O 0.16337 0.22964 0.33511 0.0
O1052 O 0.15994 0.24236 0.39315 0.0
C1053 C 0.13649 0.30565 0.31452 0.0
O1054 O 0.09683 0.29257 0.38406 0.0
Co1055 Co 0.06505 0.27408 0.30804 0.0
O1056 O 0.06032 0.31455 0.34227 0.0
C1057 C 0.06678 0.2101 0.35376 0.0
C1058 C 0.17464 0.22436 0.36731 0.0
C1059 C 0.07197 0.31353 0.37427 0.0
O1060 O 0.09717 0.21991 0.36417 0.0
O1061 O 0.04951 0.22708 0.3298 0.0
O1062 O 0.15758 0.30286 0.34151 0.0
O1063 O 0.11519 0.27901 0.31045 0.0
Co1064 Co 0.49598 0.62499 0.39725 0.0
O1065 O 0.52564 0.58974 0.41798 0.0
O1066 O 0.51236 0.59206 0.36019 0.0
C1067 C 0.45361 0.62207 0.43866 0.0
O1068 O 0.4655 0.65898 0.36753 0.0
Co1069 Co 0.4878 0.69409 0.44205 0.0
O1070 O 0.45079 0.70316 0.40595 0.0
C1071 C 0.55056 0.68512 0.39925 0.0
C1072 C 0.5297 0.57684 0.3861 0.0
C1073 C 0.44826 0.68749 0.37568 0.0
O1074 O 0.53715 0.65606 0.38745 0.0
O1075 O 0.53643 0.70399 0.4239 0.0
O1076 O 0.45492 0.59924 0.41248 0.0
O1077 O 0.48049 0.64275 0.44192 0.0
Co1078 Co 0.13001 0.7474 0.15269 0.0
O1079 O 0.16341 0.77889 0.17288 0.0
O1080 O 0.15997 0.76616 0.11483 0.0
C1081 C 0.13652 0.70289 0.19347 0.0
O1082 O 0.09685 0.71597 0.12393 0.0
Co1083 Co 0.06509 0.73447 0.19996 0.0
O1084 O 0.06032 0.69402 0.16572 0.0
C1085 C 0.06682 0.79846 0.15424 0.0
C1086 C 0.17467 0.78417 0.14067 0.0
C1087 C 0.07198 0.69503 0.13372 0.0
O1088 O 0.09721 0.78863 0.14382 0.0
O1089 O 0.04956 0.78149 0.17821 0.0
O1090 O 0.15761 0.70567 0.16648 0.0
O1091 O 0.11522 0.72953 0.19754 0.0
Co1092 Co -0.00128 0.38355 0.89725 0.0
O1093 O 0.96906 0.4188 0.91798 0.0
O1094 O 0.98232 0.41649 0.86018 0.0
C1095 C 0.04109 0.38647 0.93864 0.0
O1096 O 0.02918 0.34956 0.86752 0.0
Co1097 Co 0.0069 0.31445 0.94205 0.0
O1098 O 0.04389 0.30537 0.90595 0.0
C1099 C 0.94412 0.32343 0.89926 0.0
C1100 C 0.965 0.43171 0.8861 0.0
C1101 C 0.04641 0.32104 0.87567 0.0
O1102 O 0.95753 0.35249 0.88745 0.0
O1103 O 0.95826 0.30456 0.92391 0.0
O1104 O 0.03978 0.4093 0.91246 0.0
O1105 O 0.01421 0.36579 0.94191 0.0
Co1106 Co 0.36472 0.26113 0.65271 0.0
O1107 O 0.33133 0.22963 0.6729 0.0
O1108 O 0.33476 0.24236 0.61485 0.0
C1109 C 0.35821 0.30564 0.69348 0.0
O1110 O 0.39787 0.29256 0.62394 0.0
Co1111 Co 0.42964 0.27407 0.69997 0.0
O1112 O 0.43439 0.31453 0.66574 0.0
C1113 C 0.42792 0.21009 0.65425 0.0
C1114 C 0.32006 0.22436 0.64069 0.0
C1115 C 0.42273 0.31351 0.63374 0.0
O1116 O 0.39752 0.2199 0.64384 0.0
O1117 O 0.44519 0.22707 0.67821 0.0
O1118 O 0.33712 0.30285 0.6665 0.0
O1119 O 0.37951 0.279 0.69756 0.0
Co1120 Co 0.08097 0.51192 0.37804 0.0
O1121 O 0.06467 0.54701 0.41155 0.0
O1122 O 0.11958 0.52934 0.40754 0.0
C1123 C 0.04032 0.47016 0.38916 0.0
O1124 O 0.10539 0.47393 0.34716 0.0
Co1125 Co 0.03058 0.49526 0.31422 0.0
O1126 O 0.06273 0.45391 0.31035 0.0
C1127 C 0.06948 0.56273 0.31443 0.0
C1128 C 0.09608 0.5484 0.424 0.0
C1129 C 0.09302 0.4513 0.32425 0.0
O1130 O 0.08852 0.55079 0.34037 0.0
O1131 O 0.04247 0.54628 0.30289 0.0
O1132 O 0.06693 0.47383 0.41018 0.0
O1133 O 0.03632 0.49515 0.36553 0.0
Co1134 Co 0.24893 0.36105 0.13338 0.0
O1135 O 0.21926 0.34035 0.16863 0.0
O1136 O 0.23257 0.39807 0.16634 0.0
C1137 C 0.29128 0.31966 0.13625 0.0
O1138 O 0.27941 0.39074 0.09938 0.0
Co1139 Co 0.25701 0.31636 0.06415 0.0
O1140 O 0.29403 0.35241 0.05507 0.0
C1141 C 0.19428 0.35913 0.07323 0.0
C1142 C 0.21519 0.3722 0.18153 0.0
C1143 C 0.2966 0.38262 0.07081 0.0
O1144 O 0.20776 0.37091 0.1023 0.0
O1145 O 0.20837 0.33451 0.0543 0.0
O1146 O 0.28999 0.34579 0.15914 0.0
O1147 O 0.26439 0.31643 0.11555 0.0
Co1148 Co 0.4137 0.49662 0.87807 0.0
O1149 O 0.43 0.46153 0.91158 0.0
O1150 O 0.37509 0.4792 0.90756 0.0
C1151 C 0.45436 0.53838 0.88919 0.0
O1152 O 0.38929 0.53461 0.84718 0.0
Co1153 Co 0.4641 0.51328 0.81426 0.0
O1154 O 0.43195 0.55463 0.81038 0.0
C1155 C 0.4252 0.44581 0.81447 0.0
C1156 C 0.39859 0.46014 0.92403 0.0
C1157 C 0.40165 0.55724 0.82427 0.0
O1158 O 0.40616 0.45775 0.8404 0.0
O1159 O 0.45222 0.46226 0.80293 0.0
O1160 O 0.42774 0.53471 0.91021 0.0
O1161 O 0.45835 0.51339 0.86557 0.0
Co1162 Co 0.24576 0.64749 0.63336 0.0
O1163 O 0.27544 0.66819 0.66862 0.0
O1164 O 0.26212 0.61046 0.66633 0.0
C1165 C 0.20341 0.68888 0.63622 0.0
O1166 O 0.21528 0.6178 0.59936 0.0
Co1167 Co 0.23768 0.69217 0.56413 0.0
O1168 O 0.20066 0.65613 0.55505 0.0
C1169 C 0.30042 0.6494 0.57322 0.0
C1170 C 0.2795 0.63634 0.68152 0.0
C1171 C 0.19808 0.62592 0.57079 0.0
O1172 O 0.28694 0.63763 0.60229 0.0
O1173 O 0.28633 0.67402 0.55429 0.0
O1174 O 0.2047 0.66275 0.65911 0.0
O1175 O 0.23031 0.69211 0.61553 0.0
Co1176 Co 0.08099 0.49663 0.12993 0.0
O1177 O 0.06469 0.46154 0.09643 0.0
O1178 O 0.1196 0.4792 0.10044 0.0
C1179 C 0.04034 0.53839 0.11881 0.0
O1180 O 0.10541 0.53461 0.16083 0.0
Co1181 Co 0.0306 0.51329 0.19375 0.0
O1182 O 0.06275 0.55463 0.19762 0.0
C1183 C 0.06949 0.44581 0.19354 0.0
C1184 C 0.0961 0.46014 0.08398 0.0
C1185 C 0.09304 0.55724 0.18373 0.0
O1186 O 0.08853 0.45775 0.16761 0.0
O1187 O 0.04247 0.46227 0.20507 0.0
O1188 O 0.06695 0.53472 0.0978 0.0
O1189 O 0.03634 0.5134 0.14243 0.0
Co1190 Co 0.24576 0.36104 0.87463 0.0
O1191 O 0.27544 0.34034 0.83937 0.0
O1192 O 0.26212 0.39807 0.84167 0.0
C1193 C 0.20341 0.31965 0.87176 0.0
O1194 O 0.21528 0.39074 0.90862 0.0
Co1195 Co 0.23768 0.31636 0.94386 0.0
O1196 O 0.20066 0.35241 0.95293 0.0
C1197 C 0.30041 0.35913 0.93478 0.0
C1198 C 0.2795 0.37219 0.82648 0.0
C1199 C 0.19809 0.38261 0.93719 0.0
O1200 O 0.28694 0.3709 0.90571 0.0
O1201 O 0.28632 0.33451 0.95371 0.0
O1202 O 0.2047 0.34578 0.84887 0.0
O1203 O 0.23031 0.31643 0.89246 0.0
Co1204 Co 0.41372 0.51192 0.62996 0.0
O1205 O 0.43002 0.54701 0.59646 0.0
O1206 O 0.37511 0.52934 0.60046 0.0
C1207 C 0.45437 0.47015 0.61884 0.0
O1208 O 0.3893 0.47393 0.66085 0.0
Co1209 Co 0.46411 0.49525 0.69378 0.0
O1210 O 0.43196 0.45391 0.69765 0.0
C1211 C 0.42521 0.56273 0.69357 0.0
C1212 C 0.39861 0.5484 0.584 0.0
C1213 C 0.40167 0.4513 0.68376 0.0
O1214 O 0.40617 0.55079 0.66764 0.0
O1215 O 0.45223 0.54627 0.70511 0.0
O1216 O 0.42776 0.47383 0.59783 0.0
O1217 O 0.45837 0.49514 0.64247 0.0
Co1218 Co 0.24893 0.6475 0.37465 0.0
O1219 O 0.21925 0.6682 0.33939 0.0
O1220 O 0.23257 0.61047 0.34168 0.0
C1221 C 0.29128 0.68889 0.37179 0.0
O1222 O 0.27942 0.6178 0.40865 0.0
Co1223 Co 0.25701 0.69217 0.44388 0.0
O1224 O 0.29404 0.65613 0.45295 0.0
C1225 C 0.19427 0.64941 0.43479 0.0
C1226 C 0.2152 0.63635 0.32649 0.0
C1227 C 0.29661 0.62593 0.43721 0.0
O1228 O 0.20775 0.63763 0.40572 0.0
O1229 O 0.20836 0.67402 0.45372 0.0
O1230 O 0.28999 0.66276 0.3489 0.0
O1231 O 0.26438 0.69211 0.39248 0.0
Co1232 Co 0.37996 0.10561 0.49716 0.0
O1233 O 0.41337 0.08548 0.52871 0.0
O1234 O 0.40993 0.14345 0.51589 0.0
C1235 C 0.38644 0.06483 0.45263 0.0
O1236 O 0.34681 0.13434 0.46568 0.0
Co1237 Co 0.31502 0.05842 0.48427 0.0
O1238 O 0.3102 0.09262 0.44378 0.0
C1239 C 0.31678 0.10415 0.54828 0.0
C1240 C 0.42463 0.11766 0.53395 0.0
C1241 C 0.3219 0.12457 0.44476 0.0
O1242 O 0.34717 0.11454 0.53843 0.0
O1243 O 0.2995 0.0802 0.53132 0.0
O1244 O 0.40754 0.09178 0.45538 0.0
O1245 O 0.36515 0.0608 0.47931 0.0
Co1246 Co 0.87995 0.40292 0.51079 0.0
O1247 O 0.91332 0.42311 0.47925 0.0
O1248 O 0.90996 0.36514 0.49202 0.0
C1249 C 0.88642 0.44368 0.55535 0.0
O1250 O 0.84682 0.37414 0.54226 0.0
Co1251 Co 0.81498 0.45006 0.52371 0.0
O1252 O 0.81019 0.41583 0.56417 0.0
C1253 C 0.81674 0.40435 0.45969 0.0
C1254 C 0.92463 0.39096 0.47399 0.0
C1255 C 0.8219 0.38388 0.56318 0.0
O1256 O 0.84715 0.39399 0.46951 0.0
O1257 O 0.79945 0.42828 0.47667 0.0
O1258 O 0.90753 0.41674 0.55257 0.0
O1259 O 0.86512 0.44771 0.52867 0.0
Co1260 Co 0.3309 0.12839 0.24626 0.0
O1261 O 0.31472 0.16195 0.21116 0.0
O1262 O 0.3696 0.15779 0.2289 0.0
C1263 C 0.29023 0.13956 0.28803 0.0
O1264 O 0.35518 0.09739 0.28429 0.0
Co1265 Co 0.28027 0.06478 0.26281 0.0
O1266 O 0.3124 0.06072 0.3042 0.0
C1267 C 0.31927 0.06492 0.19532 0.0
C1268 C 0.34615 0.17433 0.20982 0.0
C1269 C 0.34273 0.07449 0.30688 0.0
O1270 O 0.33837 0.09077 0.20732 0.0
O1271 O 0.29219 0.05348 0.21174 0.0
O1272 O 0.31691 0.16048 0.28442 0.0
O1273 O 0.2862 0.11601 0.26298 0.0
Co1274 Co 0.61476 0.60563 0.0108 0.0
O1275 O 0.58138 0.58543 0.97926 0.0
O1276 O 0.58473 0.64341 0.99203 0.0
C1277 C 0.6083 0.56486 0.05535 0.0
O1278 O 0.64789 0.63441 0.04227 0.0
Co1279 Co 0.67973 0.55849 0.0237 0.0
O1280 O 0.68454 0.59272 0.06417 0.0
C1281 C 0.67794 0.6042 0.95967 0.0
C1282 C 0.57006 0.61758 0.974 0.0
C1283 C 0.67282 0.62466 0.06318 0.0
O1284 O 0.64754 0.61456 0.96952 0.0
O1285 O 0.69524 0.58027 0.97665 0.0
O1286 O 0.58718 0.5918 0.05257 0.0
O1287 O 0.62959 0.56084 0.02867 0.0
Co1288 Co 0.66371 0.38014 0.24624 0.0
O1289 O 0.67999 0.34662 0.21114 0.0
O1290 O 0.62508 0.35066 0.22879 0.0
C1291 C 0.70434 0.369 0.28805 0.0
O1292 O 0.63933 0.41108 0.28426 0.0
Co1293 Co 0.71423 0.44381 0.2629 0.0
O1294 O 0.68201 0.44787 0.30421 0.0
C1295 C 0.67532 0.44366 0.19536 0.0
C1296 C 0.64859 0.33416 0.20975 0.0
C1297 C 0.6517 0.43404 0.30684 0.0
O1298 O 0.65624 0.41778 0.2073 0.0
O1299 O 0.70237 0.45512 0.21182 0.0
O1300 O 0.6777 0.34805 0.28439 0.0
O1301 O 0.70837 0.39258 0.26303 0.0
Co1302 Co 0.11473 0.90293 0.99717 0.0
O1303 O 0.08134 0.92307 0.02872 0.0
O1304 O 0.08476 0.86511 0.01591 0.0
C1305 C 0.10825 0.94372 0.95264 0.0
O1306 O 0.14787 0.8742 0.96569 0.0
Co1307 Co 0.17967 0.95012 0.98425 0.0
O1308 O 0.18447 0.91591 0.94377 0.0
C1309 C 0.17793 0.90439 0.04827 0.0
C1310 C 0.07007 0.8909 0.03396 0.0
C1311 C 0.17277 0.88396 0.94476 0.0
O1312 O 0.14753 0.89401 0.03844 0.0
O1313 O 0.19521 0.92833 0.03129 0.0
O1314 O 0.08714 0.91677 0.9554 0.0
O1315 O 0.12954 0.94774 0.97932 0.0
Co1316 Co 0.33091 0.88015 0.26173 0.0
O1317 O 0.31472 0.8466 0.29683 0.0
O1318 O 0.3696 0.85074 0.27911 0.0
C1319 C 0.29025 0.86898 0.21995 0.0
O1320 O 0.35521 0.91114 0.22371 0.0
Co1321 Co 0.2803 0.94377 0.24517 0.0
O1322 O 0.31244 0.94783 0.20379 0.0
C1323 C 0.31928 0.94361 0.31267 0.0
C1324 C 0.34615 0.83421 0.29818 0.0
C1325 C 0.34277 0.93405 0.20113 0.0
O1326 O 0.33838 0.91777 0.30068 0.0
O1327 O 0.2922 0.95506 0.29625 0.0
O1328 O 0.31692 0.84807 0.22357 0.0
O1329 O 0.28622 0.89254 0.245 0.0
Co1330 Co 0.16379 0.12838 0.76174 0.0
O1331 O 0.17998 0.16194 0.79684 0.0
O1332 O 0.1251 0.15779 0.7791 0.0
C1333 C 0.20446 0.13955 0.71997 0.0
O1334 O 0.13951 0.09739 0.72371 0.0
Co1335 Co 0.21442 0.06477 0.7452 0.0
O1336 O 0.18229 0.06071 0.7038 0.0
C1337 C 0.17542 0.06492 0.81268 0.0
C1338 C 0.14855 0.17433 0.79818 0.0
C1339 C 0.15196 0.07449 0.70112 0.0
O1340 O 0.15632 0.09076 0.80068 0.0
O1341 O 0.2025 0.05347 0.79627 0.0
O1342 O 0.17779 0.16047 0.72358 0.0
O1343 O 0.2085 0.116 0.74502 0.0
loop_
_geom_bond_atom_site_label_1
_geom_bond_atom_site_label_2
_geom_bond_distance
_geom_bond_site_symmetry_2
_ccdc_geom_bond_type
Co0 O1 2.216 1_455 S
Co0 O2 2.091 1_455 S
Co0 O4 2.004 . S
Co0 O10 2.021 1_455 S
Co0 O12 2.137 . S
Co0 O13 2.244 . S
O1 Co0 2.216 1_655 S
O1 C8 1.247 . S
O2 Co0 2.091 1_655 S
O2 C8 1.261 . S
C3 O12 1.247 . S
C3 O13 1.272 . S
O4 Co0 2.004 . S
O4 C9 1.259 . S
Co5 O6 2.061 . S
Co5 O11 2.052 1_455 S
Co5 O13 2.135 . S
O6 Co5 2.061 . S
O6 C9 1.235 . S
C7 O10 1.238 . S
C7 O11 1.241 . S
C8 O1 1.247 . S
C8 O2 1.261 . S
C9 O4 1.259 . S
C9 O6 1.235 . S
O10 Co0 2.021 1_655 S
O10 C7 1.238 . S
O11 Co5 2.052 1_655 S
O11 C7 1.241 . S
O12 Co0 2.137 . S
O12 C3 1.247 . S
O13 Co0 2.244 . S
O13 C3 1.272 . S
O13 Co5 2.135 . S
Co14 O15 2.216 . S
Co14 O16 2.091 . S
Co14 O18 2.004 . S
Co14 O24 2.021 . S
Co14 O26 2.137 . S
Co14 O27 2.244 . S
O15 Co14 2.216 . S
O15 C22 1.247 . S
O16 Co14 2.091 . S
O16 C22 1.261 . S
C17 O26 1.247 . S
C17 O27 1.272 . S
O18 Co14 2.004 . S
O18 C23 1.259 . S
Co19 O20 2.061 . S
Co19 O25 2.052 . S
Co19 O27 2.135 . S
O20 Co19 2.061 . S
O20 C23 1.235 . S
C21 O24 1.238 . S
C21 O25 1.241 . S
C22 O15 1.247 . S
C22 O16 1.261 . S
C23 O18 1.259 . S
C23 O20 1.235 . S
O24 Co14 2.021 . S
O24 C21 1.238 . S
O25 Co19 2.052 . S
O25 C21 1.241 . S
O26 Co14 2.137 . S
O26 C17 1.247 . S
O27 Co14 2.244 . S
O27 C17 1.272 . S
O27 Co19 2.135 . S
Co28 O29 2.216 . S
Co28 O30 2.091 . S
Co28 O32 2.004 . S
Co28 O38 2.021 . S
Co28 O40 2.137 . S
Co28 O41 2.244 . S
O29 Co28 2.216 . S
O29 C36 1.247 . S
O30 Co28 2.091 . S
O30 C36 1.261 . S
C31 O40 1.247 . S
C31 O41 1.272 . S
O32 Co28 2.004 . S
O32 C37 1.259 . S
Co33 O34 2.061 . S
Co33 O39 2.052 . S
Co33 O41 2.135 . S
O34 Co33 2.061 . S
O34 C37 1.235 . S
C35 O38 1.238 . S
C35 O39 1.241 . S
C36 O29 1.247 . S
C36 O30 1.261 . S
C37 O32 1.259 . S
C37 O34 1.235 . S
O38 Co28 2.021 . S
O38 C35 1.238 . S
O39 Co33 2.052 . S
O39 C35 1.241 . S
O40 Co28 2.137 . S
O40 C31 1.247 . S
O41 Co28 2.244 . S
O41 C31 1.272 . S
O41 Co33 2.135 . S
Co42 O43 2.216 . S
Co42 O44 2.091 . S
Co42 O46 2.004 . S
Co42 O52 2.021 . S
Co42 O54 2.137 . S
Co42 O55 2.244 . S
O43 Co42 2.216 . S
O43 C50 1.247 . S
O44 Co42 2.091 . S
O44 C50 1.261 . S
C45 O54 1.247 . S
C45 O55 1.272 . S
O46 Co42 2.004 . S
O46 C51 1.259 . S
Co47 O48 2.061 . S
Co47 O53 2.052 . S
Co47 O55 2.135 . S
O48 Co47 2.061 . S
O48 C51 1.235 . S
C49 O52 1.238 . S
C49 O53 1.241 . S
C50 O43 1.247 . S
C50 O44 1.261 . S
C51 O46 1.259 . S
C51 O48 1.235 . S
O52 Co42 2.021 . S
O52 C49 1.238 . S
O53 Co47 2.052 . S
O53 C49 1.241 . S
O54 Co42 2.137 . S
O54 C45 1.247 . S
O55 Co42 2.244 . S
O55 C45 1.272 . S
O55 Co47 2.135 . S
Co56 O57 2.216 1_455 S
Co56 O58 2.091 1_455 S
Co56 O60 2.004 . S
Co56 O66 2.021 1_455 S
Co56 O68 2.137 . S
Co56 O69 2.244 . S
O57 Co56 2.216 1_655 S
O57 C64 1.247 . S
O58 Co56 2.091 1_655 S
O58 C64 1.261 . S
C59 O68 1.247 . S
C59 O69 1.272 . S
O60 Co56 2.004 . S
O60 C65 1.259 . S
Co61 O62 2.061 . S
Co61 O67 2.052 1_455 S
Co61 O69 2.135 . S
O62 Co61 2.061 . S
O62 C65 1.235 . S
C63 O66 1.238 . S
C63 O67 1.241 . S
C64 O57 1.247 . S
C64 O58 1.261 . S
C65 O60 1.259 . S
C65 O62 1.235 . S
O66 Co56 2.021 1_655 S
O66 C63 1.238 . S
O67 Co61 2.052 1_655 S
O67 C63 1.241 . S
O68 Co56 2.137 . S
O68 C59 1.247 . S
O69 Co56 2.244 . S
O69 C59 1.272 . S
O69 Co61 2.135 . S
Co70 O71 2.216 . S
Co70 O72 2.091 . S
Co70 O74 2.004 . S
Co70 O80 2.021 . S
Co70 O82 2.137 . S
Co70 O83 2.244 . S
O71 Co70 2.216 . S
O71 C78 1.247 . S
O72 Co70 2.091 . S
O72 C78 1.261 . S
C73 O82 1.247 . S
C73 O83 1.272 . S
O74 Co70 2.004 . S
O74 C79 1.259 . S
Co75 O76 2.061 . S
Co75 O81 2.052 . S
Co75 O83 2.135 . S
O76 Co75 2.061 . S
O76 C79 1.235 . S
C77 O80 1.238 . S
C77 O81 1.241 . S
C78 O71 1.247 . S
C78 O72 1.261 . S
C79 O74 1.259 . S
C79 O76 1.235 . S
O80 Co70 2.021 . S
O80 C77 1.238 . S
O81 Co75 2.052 . S
O81 C77 1.241 . S
O82 Co70 2.137 . S
O82 C73 1.247 . S
O83 Co70 2.244 . S
O83 C73 1.272 . S
O83 Co75 2.135 . S
Co84 O85 2.216 . S
Co84 O86 2.091 . S
Co84 O88 2.004 . S
Co84 O94 2.021 . S
Co84 O96 2.137 . S
Co84 O97 2.244 . S
O85 Co84 2.216 . S
O85 C92 1.247 . S
O86 Co84 2.091 . S
O86 C92 1.261 . S
C87 O96 1.247 . S
C87 O97 1.272 . S
O88 Co84 2.004 . S
O88 C93 1.259 . S
Co89 O90 2.061 . S
Co89 O95 2.052 . S
Co89 O97 2.135 . S
O90 Co89 2.061 . S
O90 C93 1.235 . S
C91 O94 1.238 . S
C91 O95 1.241 . S
C92 O85 1.247 . S
C92 O86 1.261 . S
C93 O88 1.259 . S
C93 O90 1.235 . S
O94 Co84 2.021 . S
O94 C91 1.238 . S
O95 Co89 2.052 . S
O95 C91 1.241 . S
O96 Co84 2.137 . S
O96 C87 1.247 . S
O97 Co84 2.244 . S
O97 C87 1.272 . S
O97 Co89 2.135 . S
Co98 O99 2.216 . S
Co98 O100 2.091 . S
Co98 O102 2.004 . S
Co98 O108 2.021 . S
Co98 O110 2.137 . S
Co98 O111 2.244 . S
O99 Co98 2.216 . S
O99 C106 1.247 . S
O100 Co98 2.091 . S
O100 C106 1.261 . S
C101 O110 1.247 . S
C101 O111 1.272 . S
O102 Co98 2.004 . S
O102 C107 1.259 . S
Co103 O104 2.061 . S
Co103 O109 2.052 . S
Co103 O111 2.135 . S
O104 Co103 2.061 . S
O104 C107 1.235 . S
C105 O108 1.238 . S
C105 O109 1.241 . S
C106 O99 1.247 . S
C106 O100 1.261 . S
C107 O102 1.259 . S
C107 O104 1.235 . S
O108 Co98 2.021 . S
O108 C105 1.238 . S
O109 Co103 2.052 . S
O109 C105 1.241 . S
O110 Co98 2.137 . S
O110 C101 1.247 . S
O111 Co98 2.244 . S
O111 C101 1.272 . S
O111 Co103 2.135 . S
Co112 O113 2.216 . S
Co112 O114 2.091 . S
Co112 O116 2.004 1_545 S
Co112 O122 2.021 . S
Co112 O124 2.137 1_545 S
Co112 O125 2.244 1_545 S
O113 Co112 2.216 . S
O113 C120 1.247 . S
O114 Co112 2.091 . S
O114 C120 1.261 . S
C115 O124 1.247 . S
C115 O125 1.272 . S
O116 Co112 2.004 1_565 S
O116 C121 1.259 . S
Co117 O118 2.061 . S
Co117 O123 2.052 1_565 S
Co117 O125 2.135 . S
O118 Co117 2.061 . S
O118 C121 1.235 . S
C119 O122 1.238 . S
C119 O123 1.241 . S
C120 O113 1.247 . S
C120 O114 1.261 . S
C121 O116 1.259 . S
C121 O118 1.235 . S
O122 Co112 2.021 . S
O122 C119 1.238 . S
O123 Co117 2.052 1_545 S
O123 C119 1.241 . S
O124 Co112 2.137 1_565 S
O124 C115 1.247 . S
O125 Co112 2.244 1_565 S
O125 C115 1.272 . S
O125 Co117 2.135 . S
Co126 O127 2.216 . S
Co126 O128 2.091 . S
Co126 O130 2.004 . S
Co126 O136 2.021 . S
Co126 O138 2.137 . S
Co126 O139 2.244 . S
O127 Co126 2.216 . S
O127 C134 1.247 . S
O128 Co126 2.091 . S
O128 C134 1.261 . S
C129 O138 1.247 . S
C129 O139 1.272 . S
O130 Co126 2.004 . S
O130 C135 1.259 . S
Co131 O132 2.061 . S
Co131 O137 2.052 . S
Co131 O139 2.135 . S
O132 Co131 2.061 . S
O132 C135 1.235 . S
C133 O136 1.238 . S
C133 O137 1.241 . S
C134 O127 1.247 . S
C134 O128 1.261 . S
C135 O130 1.259 . S
C135 O132 1.235 . S
O136 Co126 2.021 . S
O136 C133 1.238 . S
O137 Co131 2.052 . S
O137 C133 1.241 . S
O138 Co126 2.137 . S
O138 C129 1.247 . S
O139 Co126 2.244 . S
O139 C129 1.272 . S
O139 Co131 2.135 . S
Co140 O141 2.216 . S
Co140 O142 2.091 . S
Co140 O144 2.004 1_565 S
Co140 O150 2.021 . S
Co140 O152 2.137 1_565 S
Co140 O153 2.244 1_565 S
O141 Co140 2.216 . S
O141 C148 1.247 . S
O142 Co140 2.091 . S
O142 C148 1.261 . S
C143 O152 1.247 . S
C143 O153 1.272 . S
O144 Co140 2.004 1_545 S
O144 C149 1.259 . S
Co145 O146 2.061 . S
Co145 O151 2.052 1_545 S
Co145 O153 2.135 . S
O146 Co145 2.061 . S
O146 C149 1.235 . S
C147 O150 1.238 . S
C147 O151 1.241 . S
C148 O141 1.247 . S
C148 O142 1.261 . S
C149 O144 1.259 . S
C149 O146 1.235 . S
O150 Co140 2.021 . S
O150 C147 1.238 . S
O151 Co145 2.052 1_565 S
O151 C147 1.241 . S
O152 Co140 2.137 1_545 S
O152 C143 1.247 . S
O153 Co140 2.244 1_545 S
O153 C143 1.272 . S
O153 Co145 2.135 . S
Co154 O155 2.216 . S
Co154 O156 2.091 . S
Co154 O158 2.004 . S
Co154 O164 2.021 . S
Co154 O166 2.137 . S
Co154 O167 2.244 . S
O155 Co154 2.216 . S
O155 C162 1.247 . S
O156 Co154 2.091 . S
O156 C162 1.261 . S
C157 O166 1.247 . S
C157 O167 1.272 . S
O158 Co154 2.004 . S
O158 C163 1.259 . S
Co159 O160 2.061 . S
Co159 O165 2.052 . S
Co159 O167 2.135 . S
O160 Co159 2.061 . S
O160 C163 1.235 . S
C161 O164 1.238 . S
C161 O165 1.241 . S
C162 O155 1.247 . S
C162 O156 1.261 . S
C163 O158 1.259 . S
C163 O160 1.235 . S
O164 Co154 2.021 . S
O164 C161 1.238 . S
O165 Co159 2.052 . S
O165 C161 1.241 . S
O166 Co154 2.137 . S
O166 C157 1.247 . S
O167 Co154 2.244 . S
O167 C157 1.272 . S
O167 Co159 2.135 . S
Co168 O169 2.216 . S
Co168 O170 2.091 . S
Co168 O172 2.004 1_565 S
Co168 O178 2.021 . S
Co168 O180 2.137 1_565 S
Co168 O181 2.244 1_565 S
O169 Co168 2.216 . S
O169 C176 1.247 . S
O170 Co168 2.091 . S
O170 C176 1.261 . S
C171 O180 1.247 . S
C171 O181 1.272 . S
O172 Co168 2.004 1_545 S
O172 C177 1.259 . S
Co173 O174 2.061 . S
Co173 O179 2.052 1_545 S
Co173 O181 2.135 . S
O174 Co173 2.061 . S
O174 C177 1.235 . S
C175 O178 1.238 . S
C175 O179 1.241 . S
C176 O169 1.247 . S
C176 O170 1.261 . S
C177 O172 1.259 . S
C177 O174 1.235 . S
O178 Co168 2.021 . S
O178 C175 1.238 . S
O179 Co173 2.052 1_565 S
O179 C175 1.241 . S
O180 Co168 2.137 1_545 S
O180 C171 1.247 . S
O181 Co168 2.244 1_545 S
O181 C171 1.272 . S
O181 Co173 2.135 . S
Co182 O183 2.216 . S
Co182 O184 2.091 . S
Co182 O186 2.004 . S
Co182 O192 2.021 . S
Co182 O194 2.137 . S
Co182 O195 2.244 . S
O183 Co182 2.216 . S
O183 C190 1.247 . S
O184 Co182 2.091 . S
O184 C190 1.261 . S
C185 O194 1.247 . S
C185 O195 1.272 . S
O186 Co182 2.004 . S
O186 C191 1.259 . S
Co187 O188 2.061 . S
Co187 O193 2.052 . S
Co187 O195 2.135 . S
O188 Co187 2.061 . S
O188 C191 1.235 . S
C189 O192 1.238 . S
C189 O193 1.241 . S
C190 O183 1.247 . S
C190 O184 1.261 . S
C191 O186 1.259 . S
C191 O188 1.235 . S
O192 Co182 2.021 . S
O192 C189 1.238 . S
O193 Co187 2.052 . S
O193 C189 1.241 . S
O194 Co182 2.137 . S
O194 C185 1.247 . S
O195 Co182 2.244 . S
O195 C185 1.272 . S
O195 Co187 2.135 . S
Co196 O197 2.216 . S
Co196 O198 2.091 . S
Co196 O200 2.004 1_545 S
Co196 O206 2.021 . S
Co196 O208 2.137 1_545 S
Co196 O209 2.244 1_545 S
O197 Co196 2.216 . S
O197 C204 1.247 . S
O198 Co196 2.091 . S
O198 C204 1.261 . S
C199 O208 1.247 . S
C199 O209 1.272 . S
O200 Co196 2.004 1_565 S
O200 C205 1.259 . S
Co201 O202 2.061 . S
Co201 O207 2.052 1_565 S
Co201 O209 2.135 . S
O202 Co201 2.061 . S
O202 C205 1.235 . S
C203 O206 1.238 . S
C203 O207 1.241 . S
C204 O197 1.247 . S
C204 O198 1.261 . S
C205 O200 1.259 . S
C205 O202 1.235 . S
O206 Co196 2.021 . S
O206 C203 1.238 . S
O207 Co201 2.052 1_545 S
O207 C203 1.241 . S
O208 Co196 2.137 1_565 S
O208 C199 1.247 . S
O209 Co196 2.244 1_565 S
O209 C199 1.272 . S
O209 Co201 2.135 . S
Co210 O211 2.216 . S
Co210 O212 2.091 . S
Co210 O214 2.004 . S
Co210 O220 2.021 . S
Co210 O222 2.137 . S
Co210 O223 2.244 . S
O211 Co210 2.216 . S
O211 C218 1.247 . S
O212 Co210 2.091 . S
O212 C218 1.261 . S
C213 O222 1.247 . S
C213 O223 1.272 . S
O214 Co210 2.004 . S
O214 C219 1.259 . S
Co215 O216 2.061 . S
Co215 O221 2.052 . S
Co215 O223 2.135 . S
O216 Co215 2.061 . S
O216 C219 1.235 . S
C217 O220 1.238 . S
C217 O221 1.241 . S
C218 O211 1.247 . S
C218 O212 1.261 . S
C219 O214 1.259 . S
C219 O216 1.235 . S
O220 Co210 2.021 . S
O220 C217 1.238 . S
O221 Co215 2.052 . S
O221 C217 1.241 . S
O222 Co210 2.137 . S
O222 C213 1.247 . S
O223 Co210 2.244 . S
O223 C213 1.272 . S
O223 Co215 2.135 . S
Co224 O225 2.216 1_554 S
Co224 O226 2.091 1_554 S
Co224 O228 2.004 . S
Co224 O234 2.021 1_554 S
Co224 O236 2.137 . S
Co224 O237 2.244 . S
O225 Co224 2.216 1_556 S
O225 C232 1.247 . S
O226 Co224 2.091 1_556 S
O226 C232 1.261 . S
C227 O236 1.247 . S
C227 O237 1.272 . S
O228 Co224 2.004 . S
O228 C233 1.259 . S
Co229 O230 2.061 . S
Co229 O235 2.052 1_554 S
Co229 O237 2.135 . S
O230 Co229 2.061 . S
O230 C233 1.235 . S
C231 O234 1.238 . S
C231 O235 1.241 . S
C232 O225 1.247 . S
C232 O226 1.261 . S
C233 O228 1.259 . S
C233 O230 1.235 . S
O234 Co224 2.021 1_556 S
O234 C231 1.238 . S
O235 Co229 2.052 1_556 S
O235 C231 1.241 . S
O236 Co224 2.137 . S
O236 C227 1.247 . S
O237 Co224 2.244 . S
O237 C227 1.272 . S
O237 Co229 2.135 . S
Co238 O239 2.216 1_556 S
Co238 O240 2.091 1_556 S
Co238 O242 2.004 . S
Co238 O248 2.021 1_556 S
Co238 O250 2.137 . S
Co238 O251 2.244 . S
O239 Co238 2.216 1_554 S
O239 C246 1.247 . S
O240 Co238 2.091 1_554 S
O240 C246 1.261 . S
C241 O250 1.247 . S
C241 O251 1.272 . S
O242 Co238 2.004 . S
O242 C247 1.259 . S
Co243 O244 2.061 . S
Co243 O249 2.052 1_556 S
Co243 O251 2.135 . S
O244 Co243 2.061 . S
O244 C247 1.235 . S
C245 O248 1.238 . S
C245 O249 1.241 . S
C246 O239 1.247 . S
C246 O240 1.261 . S
C247 O242 1.259 . S
C247 O244 1.235 . S
O248 Co238 2.021 1_554 S
O248 C245 1.238 . S
O249 Co243 2.052 1_554 S
O249 C245 1.241 . S
O250 Co238 2.137 . S
O250 C241 1.247 . S
O251 Co238 2.244 . S
O251 C241 1.272 . S
O251 Co243 2.135 . S
Co252 O253 2.216 . S
Co252 O254 2.091 . S
Co252 O256 2.004 . S
Co252 O262 2.021 . S
Co252 O264 2.137 . S
Co252 O265 2.244 . S
O253 Co252 2.216 . S
O253 C260 1.247 . S
O254 Co252 2.091 . S
O254 C260 1.261 . S
C255 O264 1.247 . S
C255 O265 1.272 . S
O256 Co252 2.004 . S
O256 C261 1.259 . S
Co257 O258 2.061 . S
Co257 O263 2.052 . S
Co257 O265 2.135 . S
O258 Co257 2.061 . S
O258 C261 1.235 . S
C259 O262 1.238 . S
C259 O263 1.241 . S
C260 O253 1.247 . S
C260 O254 1.261 . S
C261 O256 1.259 . S
C261 O258 1.235 . S
O262 Co252 2.021 . S
O262 C259 1.238 . S
O263 Co257 2.052 . S
O263 C259 1.241 . S
O264 Co252 2.137 . S
O264 C255 1.247 . S
O265 Co252 2.244 . S
O265 C255 1.272 . S
O265 Co257 2.135 . S
Co266 O267 2.216 . S
Co266 O268 2.091 . S
Co266 O270 2.004 . S
Co266 O276 2.021 . S
Co266 O278 2.137 . S
Co266 O279 2.244 . S
O267 Co266 2.216 . S
O267 C274 1.247 . S
O268 Co266 2.091 . S
O268 C274 1.261 . S
C269 O278 1.247 . S
C269 O279 1.272 . S
O270 Co266 2.004 . S
O270 C275 1.259 . S
Co271 O272 2.061 . S
Co271 O277 2.052 . S
Co271 O279 2.135 . S
O272 Co271 2.061 . S
O272 C275 1.235 . S
C273 O276 1.238 . S
C273 O277 1.241 . S
C274 O267 1.247 . S
C274 O268 1.261 . S
C275 O270 1.259 . S
C275 O272 1.235 . S
O276 Co266 2.021 . S
O276 C273 1.238 . S
O277 Co271 2.052 . S
O277 C273 1.241 . S
O278 Co266 2.137 . S
O278 C269 1.247 . S
O279 Co266 2.244 . S
O279 C269 1.272 . S
O279 Co271 2.135 . S
Co280 O281 2.216 . S
Co280 O282 2.091 . S
Co280 O284 2.004 . S
Co280 O290 2.021 . S
Co280 O292 2.137 . S
Co280 O293 2.244 . S
O281 Co280 2.216 . S
O281 C288 1.247 . S
O282 Co280 2.091 . S
O282 C288 1.261 . S
C283 O292 1.247 . S
C283 O293 1.272 . S
O284 Co280 2.004 . S
O284 C289 1.259 . S
Co285 O286 2.061 . S
Co285 O291 2.052 . S
Co285 O293 2.135 . S
O286 Co285 2.061 . S
O286 C289 1.235 . S
C287 O290 1.238 . S
C287 O291 1.241 . S
C288 O281 1.247 . S
C288 O282 1.261 . S
C289 O284 1.259 . S
C289 O286 1.235 . S
O290 Co280 2.021 . S
O290 C287 1.238 . S
O291 Co285 2.052 . S
O291 C287 1.241 . S
O292 Co280 2.137 . S
O292 C283 1.247 . S
O293 Co280 2.244 . S
O293 C283 1.272 . S
O293 Co285 2.135 . S
Co294 O295 2.216 . S
Co294 O296 2.091 . S
Co294 O298 2.004 . S
Co294 O304 2.021 . S
Co294 O306 2.137 . S
Co294 O307 2.244 . S
O295 Co294 2.216 . S
O295 C302 1.247 . S
O296 Co294 2.091 . S
O296 C302 1.261 . S
C297 O306 1.247 . S
C297 O307 1.272 . S
O298 Co294 2.004 . S
O298 C303 1.259 . S
Co299 O300 2.061 . S
Co299 O305 2.052 . S
Co299 O307 2.135 . S
O300 Co299 2.061 . S
O300 C303 1.235 . S
C301 O304 1.238 . S
C301 O305 1.241 . S
C302 O295 1.247 . S
C302 O296 1.261 . S
C303 O298 1.259 . S
C303 O300 1.235 . S
O304 Co294 2.021 . S
O304 C301 1.238 . S
O305 Co299 2.052 . S
O305 C301 1.241 . S
O306 Co294 2.137 . S
O306 C297 1.247 . S
O307 Co294 2.244 . S
O307 C297 1.272 . S
O307 Co299 2.135 . S
Co308 O309 2.216 . S
Co308 O310 2.091 . S
Co308 O312 2.004 . S
Co308 O318 2.021 . S
Co308 O320 2.137 . S
Co308 O321 2.244 . S
O309 Co308 2.216 . S
O309 C316 1.247 . S
O310 Co308 2.091 . S
O310 C316 1.261 . S
C311 O320 1.247 . S
C311 O321 1.272 . S
O312 Co308 2.004 . S
O312 C317 1.259 . S
Co313 O314 2.061 . S
Co313 O319 2.052 . S
Co313 O321 2.135 . S
O314 Co313 2.061 . S
O314 C317 1.235 . S
C315 O318 1.238 . S
C315 O319 1.241 . S
C316 O309 1.247 . S
C316 O310 1.261 . S
C317 O312 1.259 . S
C317 O314 1.235 . S
O318 Co308 2.021 . S
O318 C315 1.238 . S
O319 Co313 2.052 . S
O319 C315 1.241 . S
O320 Co308 2.137 . S
O320 C311 1.247 . S
O321 Co308 2.244 . S
O321 C311 1.272 . S
O321 Co313 2.135 . S
Co322 O323 2.216 . S
Co322 O324 2.091 . S
Co322 O326 2.004 . S
Co322 O332 2.021 . S
Co322 O334 2.137 . S
Co322 O335 2.244 . S
O323 Co322 2.216 . S
O323 C330 1.247 . S
O324 Co322 2.091 . S
O324 C330 1.261 . S
C325 O334 1.247 . S
C325 O335 1.272 . S
O326 Co322 2.004 . S
O326 C331 1.259 . S
Co327 O328 2.061 . S
Co327 O333 2.052 . S
Co327 O335 2.135 . S
O328 Co327 2.061 . S
O328 C331 1.235 . S
C329 O332 1.238 . S
C329 O333 1.241 . S
C330 O323 1.247 . S
C330 O324 1.261 . S
C331 O326 1.259 . S
C331 O328 1.235 . S
O332 Co322 2.021 . S
O332 C329 1.238 . S
O333 Co327 2.052 . S
O333 C329 1.241 . S
O334 Co322 2.137 . S
O334 C325 1.247 . S
O335 Co322 2.244 . S
O335 C325 1.272 . S
O335 Co327 2.135 . S
Co336 O337 2.216 1_655 S
Co336 O338 2.091 1_655 S
Co336 O340 2.004 . S
Co336 O346 2.021 1_655 S
Co336 O348 2.137 . S
Co336 O349 2.244 . S
O337 Co336 2.216 1_455 S
O337 C344 1.247 . S
O338 Co336 2.091 1_455 S
O338 C344 1.261 . S
C339 O348 1.247 . S
C339 O349 1.272 . S
O340 Co336 2.004 . S
O340 C345 1.259 . S
Co341 O342 2.061 . S
Co341 O347 2.052 1_655 S
Co341 O349 2.135 . S
O342 Co341 2.061 . S
O342 C345 1.235 . S
C343 O346 1.238 . S
C343 O347 1.241 . S
C344 O337 1.247 . S
C344 O338 1.261 . S
C345 O340 1.259 . S
C345 O342 1.235 . S
O346 Co336 2.021 1_455 S
O346 C343 1.238 . S
O347 Co341 2.052 1_455 S
O347 C343 1.241 . S
O348 Co336 2.137 . S
O348 C339 1.247 . S
O349 Co336 2.244 . S
O349 C339 1.272 . S
O349 Co341 2.135 . S
Co350 O351 2.216 . S
Co350 O352 2.091 . S
Co350 O354 2.004 . S
Co350 O360 2.021 . S
Co350 O362 2.137 . S
Co350 O363 2.244 . S
O351 Co350 2.216 . S
O351 C358 1.247 . S
O352 Co350 2.091 . S
O352 C358 1.261 . S
C353 O362 1.247 . S
C353 O363 1.272 . S
O354 Co350 2.004 . S
O354 C359 1.259 . S
Co355 O356 2.061 . S
Co355 O361 2.052 . S
Co355 O363 2.135 . S
O356 Co355 2.061 . S
O356 C359 1.235 . S
C357 O360 1.238 . S
C357 O361 1.241 . S
C358 O351 1.247 . S
C358 O352 1.261 . S
C359 O354 1.259 . S
C359 O356 1.235 . S
O360 Co350 2.021 . S
O360 C357 1.238 . S
O361 Co355 2.052 . S
O361 C357 1.241 . S
O362 Co350 2.137 . S
O362 C353 1.247 . S
O363 Co350 2.244 . S
O363 C353 1.272 . S
O363 Co355 2.135 . S
Co364 O365 2.216 . S
Co364 O366 2.091 . S
Co364 O368 2.004 . S
Co364 O374 2.021 . S
Co364 O376 2.137 . S
Co364 O377 2.244 . S
O365 Co364 2.216 . S
O365 C372 1.247 . S
O366 Co364 2.091 . S
O366 C372 1.261 . S
C367 O376 1.247 . S
C367 O377 1.272 . S
O368 Co364 2.004 . S
O368 C373 1.259 . S
Co369 O370 2.061 . S
Co369 O375 2.052 . S
Co369 O377 2.135 . S
O370 Co369 2.061 . S
O370 C373 1.235 . S
C371 O374 1.238 . S
C371 O375 1.241 . S
C372 O365 1.247 . S
C372 O366 1.261 . S
C373 O368 1.259 . S
C373 O370 1.235 . S
O374 Co364 2.021 . S
O374 C371 1.238 . S
O375 Co369 2.052 . S
O375 C371 1.241 . S
O376 Co364 2.137 . S
O376 C367 1.247 . S
O377 Co364 2.244 . S
O377 C367 1.272 . S
O377 Co369 2.135 . S
Co378 O379 2.216 . S
Co378 O380 2.091 . S
Co378 O382 2.004 . S
Co378 O388 2.021 . S
Co378 O390 2.137 . S
Co378 O391 2.244 . S
O379 Co378 2.216 . S
O379 C386 1.247 . S
O380 Co378 2.091 . S
O380 C386 1.261 . S
C381 O390 1.247 . S
C381 O391 1.272 . S
O382 Co378 2.004 . S
O382 C387 1.259 . S
Co383 O384 2.061 . S
Co383 O389 2.052 . S
Co383 O391 2.135 . S
O384 Co383 2.061 . S
O384 C387 1.235 . S
C385 O388 1.238 . S
C385 O389 1.241 . S
C386 O379 1.247 . S
C386 O380 1.261 . S
C387 O382 1.259 . S
C387 O384 1.235 . S
O388 Co378 2.021 . S
O388 C385 1.238 . S
O389 Co383 2.052 . S
O389 C385 1.241 . S
O390 Co378 2.137 . S
O390 C381 1.247 . S
O391 Co378 2.244 . S
O391 C381 1.272 . S
O391 Co383 2.135 . S
Co392 O393 2.216 1_655 S
Co392 O394 2.091 1_655 S
Co392 O396 2.004 . S
Co392 O402 2.021 1_655 S
Co392 O404 2.137 . S
Co392 O405 2.244 . S
O393 Co392 2.216 1_455 S
O393 C400 1.247 . S
O394 Co392 2.091 1_455 S
O394 C400 1.261 . S
C395 O404 1.247 . S
C395 O405 1.272 . S
O396 Co392 2.004 . S
O396 C401 1.259 . S
Co397 O398 2.061 . S
Co397 O403 2.052 1_655 S
Co397 O405 2.135 . S
O398 Co397 2.061 . S
O398 C401 1.235 . S
C399 O402 1.238 . S
C399 O403 1.241 . S
C400 O393 1.247 . S
C400 O394 1.261 . S
C401 O396 1.259 . S
C401 O398 1.235 . S
O402 Co392 2.021 1_455 S
O402 C399 1.238 . S
O403 Co397 2.052 1_455 S
O403 C399 1.241 . S
O404 Co392 2.137 . S
O404 C395 1.247 . S
O405 Co392 2.244 . S
O405 C395 1.272 . S
O405 Co397 2.135 . S
Co406 O407 2.216 . S
Co406 O408 2.091 . S
Co406 O410 2.004 . S
Co406 O416 2.021 . S
Co406 O418 2.137 . S
Co406 O419 2.244 . S
O407 Co406 2.216 . S
O407 C414 1.247 . S
O408 Co406 2.091 . S
O408 C414 1.261 . S
C409 O418 1.247 . S
C409 O419 1.272 . S
O410 Co406 2.004 . S
O410 C415 1.259 . S
Co411 O412 2.061 . S
Co411 O417 2.052 . S
Co411 O419 2.135 . S
O412 Co411 2.061 . S
O412 C415 1.235 . S
C413 O416 1.238 . S
C413 O417 1.241 . S
C414 O407 1.247 . S
C414 O408 1.261 . S
C415 O410 1.259 . S
C415 O412 1.235 . S
O416 Co406 2.021 . S
O416 C413 1.238 . S
O417 Co411 2.052 . S
O417 C413 1.241 . S
O418 Co406 2.137 . S
O418 C409 1.247 . S
O419 Co406 2.244 . S
O419 C409 1.272 . S
O419 Co411 2.135 . S
Co420 O421 2.216 . S
Co420 O422 2.091 . S
Co420 O424 2.004 . S
Co420 O430 2.021 . S
Co420 O432 2.137 . S
Co420 O433 2.244 . S
O421 Co420 2.216 . S
O421 C428 1.247 . S
O422 Co420 2.091 . S
O422 C428 1.261 . S
C423 O432 1.247 . S
C423 O433 1.272 . S
O424 Co420 2.004 . S
O424 C429 1.259 . S
Co425 O426 2.061 . S
Co425 O431 2.052 . S
Co425 O433 2.135 . S
O426 Co425 2.061 . S
O426 C429 1.235 . S
C427 O430 1.238 . S
C427 O431 1.241 . S
C428 O421 1.247 . S
C428 O422 1.261 . S
C429 O424 1.259 . S
C429 O426 1.235 . S
O430 Co420 2.021 . S
O430 C427 1.238 . S
O431 Co425 2.052 . S
O431 C427 1.241 . S
O432 Co420 2.137 . S
O432 C423 1.247 . S
O433 Co420 2.244 . S
O433 C423 1.272 . S
O433 Co425 2.135 . S
Co434 O435 2.216 . S
Co434 O436 2.091 . S
Co434 O438 2.004 . S
Co434 O444 2.021 . S
Co434 O446 2.137 . S
Co434 O447 2.244 . S
O435 Co434 2.216 . S
O435 C442 1.247 . S
O436 Co434 2.091 . S
O436 C442 1.261 . S
C437 O446 1.247 . S
C437 O447 1.272 . S
O438 Co434 2.004 . S
O438 C443 1.259 . S
Co439 O440 2.061 . S
Co439 O445 2.052 . S
Co439 O447 2.135 . S
O440 Co439 2.061 . S
O440 C443 1.235 . S
C441 O444 1.238 . S
C441 O445 1.241 . S
C442 O435 1.247 . S
C442 O436 1.261 . S
C443 O438 1.259 . S
C443 O440 1.235 . S
O444 Co434 2.021 . S
O444 C441 1.238 . S
O445 Co439 2.052 . S
O445 C441 1.241 . S
O446 Co434 2.137 . S
O446 C437 1.247 . S
O447 Co434 2.244 . S
O447 C437 1.272 . S
O447 Co439 2.135 . S
Co448 O449 2.216 1_565 S
Co448 O450 2.091 1_565 S
Co448 O452 2.004 . S
Co448 O458 2.021 1_565 S
Co448 O460 2.137 . S
Co448 O461 2.244 . S
O449 Co448 2.216 1_545 S
O449 C456 1.247 . S
O450 Co448 2.091 1_545 S
O450 C456 1.261 . S
C451 O460 1.247 . S
C451 O461 1.272 . S
O452 Co448 2.004 . S
O452 C457 1.259 . S
Co453 O454 2.061 . S
Co453 O459 2.052 1_565 S
Co453 O461 2.135 . S
O454 Co453 2.061 . S
O454 C457 1.235 . S
C455 O458 1.238 . S
C455 O459 1.241 . S
C456 O449 1.247 . S
C456 O450 1.261 . S
C457 O452 1.259 . S
C457 O454 1.235 . S
O458 Co448 2.021 1_545 S
O458 C455 1.238 . S
O459 Co453 2.052 1_545 S
O459 C455 1.241 . S
O460 Co448 2.137 . S
O460 C451 1.247 . S
O461 Co448 2.244 . S
O461 C451 1.272 . S
O461 Co453 2.135 . S
Co462 O463 2.216 . S
Co462 O464 2.091 . S
Co462 O466 2.004 . S
Co462 O472 2.021 . S
Co462 O474 2.137 . S
Co462 O475 2.244 . S
O463 Co462 2.216 . S
O463 C470 1.247 . S
O464 Co462 2.091 . S
O464 C470 1.261 . S
C465 O474 1.247 . S
C465 O475 1.272 . S
O466 Co462 2.004 . S
O466 C471 1.259 . S
Co467 O468 2.061 . S
Co467 O473 2.052 . S
Co467 O475 2.135 . S
O468 Co467 2.061 . S
O468 C471 1.235 . S
C469 O472 1.238 . S
C469 O473 1.241 . S
C470 O463 1.247 . S
C470 O464 1.261 . S
C471 O466 1.259 . S
C471 O468 1.235 . S
O472 Co462 2.021 . S
O472 C469 1.238 . S
O473 Co467 2.052 . S
O473 C469 1.241 . S
O474 Co462 2.137 . S
O474 C465 1.247 . S
O475 Co462 2.244 . S
O475 C465 1.272 . S
O475 Co467 2.135 . S
Co476 O477 2.216 1_545 S
Co476 O478 2.091 1_545 S
Co476 O480 2.004 . S
Co476 O486 2.021 1_545 S
Co476 O488 2.137 . S
Co476 O489 2.244 . S
O477 Co476 2.216 1_565 S
O477 C484 1.247 . S
O478 Co476 2.091 1_565 S
O478 C484 1.261 . S
C479 O488 1.247 . S
C479 O489 1.272 . S
O480 Co476 2.004 . S
O480 C485 1.259 . S
Co481 O482 2.061 . S
Co481 O487 2.052 1_545 S
Co481 O489 2.135 . S
O482 Co481 2.061 . S
O482 C485 1.235 . S
C483 O486 1.238 . S
C483 O487 1.241 . S
C484 O477 1.247 . S
C484 O478 1.261 . S
C485 O480 1.259 . S
C485 O482 1.235 . S
O486 Co476 2.021 1_565 S
O486 C483 1.238 . S
O487 Co481 2.052 1_565 S
O487 C483 1.241 . S
O488 Co476 2.137 . S
O488 C479 1.247 . S
O489 Co476 2.244 . S
O489 C479 1.272 . S
O489 Co481 2.135 . S
Co490 O491 2.216 . S
Co490 O492 2.091 . S
Co490 O494 2.004 . S
Co490 O500 2.021 . S
Co490 O502 2.137 . S
Co490 O503 2.244 . S
O491 Co490 2.216 . S
O491 C498 1.247 . S
O492 Co490 2.091 . S
O492 C498 1.261 . S
C493 O502 1.247 . S
C493 O503 1.272 . S
O494 Co490 2.004 . S
O494 C499 1.259 . S
Co495 O496 2.061 . S
Co495 O501 2.052 . S
Co495 O503 2.135 . S
O496 Co495 2.061 . S
O496 C499 1.235 . S
C497 O500 1.238 . S
C497 O501 1.241 . S
C498 O491 1.247 . S
C498 O492 1.261 . S
C499 O494 1.259 . S
C499 O496 1.235 . S
O500 Co490 2.021 . S
O500 C497 1.238 . S
O501 Co495 2.052 . S
O501 C497 1.241 . S
O502 Co490 2.137 . S
O502 C493 1.247 . S
O503 Co490 2.244 . S
O503 C493 1.272 . S
O503 Co495 2.135 . S
Co504 O505 2.216 1_545 S
Co504 O506 2.091 1_545 S
Co504 O508 2.004 . S
Co504 O514 2.021 1_545 S
Co504 O516 2.137 . S
Co504 O517 2.244 . S
O505 Co504 2.216 1_565 S
O505 C512 1.247 . S
O506 Co504 2.091 1_565 S
O506 C512 1.261 . S
C507 O516 1.247 . S
C507 O517 1.272 . S
O508 Co504 2.004 . S
O508 C513 1.259 . S
Co509 O510 2.061 . S
Co509 O515 2.052 1_545 S
Co509 O517 2.135 . S
O510 Co509 2.061 . S
O510 C513 1.235 . S
C511 O514 1.238 . S
C511 O515 1.241 . S
C512 O505 1.247 . S
C512 O506 1.261 . S
C513 O508 1.259 . S
C513 O510 1.235 . S
O514 Co504 2.021 1_565 S
O514 C511 1.238 . S
O515 Co509 2.052 1_565 S
O515 C511 1.241 . S
O516 Co504 2.137 . S
O516 C507 1.247 . S
O517 Co504 2.244 . S
O517 C507 1.272 . S
O517 Co509 2.135 . S
Co518 O519 2.216 . S
Co518 O520 2.091 . S
Co518 O522 2.004 . S
Co518 O528 2.021 . S
Co518 O530 2.137 . S
Co518 O531 2.244 . S
O519 Co518 2.216 . S
O519 C526 1.247 . S
O520 Co518 2.091 . S
O520 C526 1.261 . S
C521 O530 1.247 . S
C521 O531 1.272 . S
O522 Co518 2.004 . S
O522 C527 1.259 . S
Co523 O524 2.061 . S
Co523 O529 2.052 . S
Co523 O531 2.135 . S
O524 Co523 2.061 . S
O524 C527 1.235 . S
C525 O528 1.238 . S
C525 O529 1.241 . S
C526 O519 1.247 . S
C526 O520 1.261 . S
C527 O522 1.259 . S
C527 O524 1.235 . S
O528 Co518 2.021 . S
O528 C525 1.238 . S
O529 Co523 2.052 . S
O529 C525 1.241 . S
O530 Co518 2.137 . S
O530 C521 1.247 . S
O531 Co518 2.244 . S
O531 C521 1.272 . S
O531 Co523 2.135 . S
Co532 O533 2.216 1_565 S
Co532 O534 2.091 1_565 S
Co532 O536 2.004 . S
Co532 O542 2.021 1_565 S
Co532 O544 2.137 . S
Co532 O545 2.244 . S
O533 Co532 2.216 1_545 S
O533 C540 1.247 . S
O534 Co532 2.091 1_545 S
O534 C540 1.261 . S
C535 O544 1.247 . S
C535 O545 1.272 . S
O536 Co532 2.004 . S
O536 C541 1.259 . S
Co537 O538 2.061 . S
Co537 O543 2.052 1_565 S
Co537 O545 2.135 . S
O538 Co537 2.061 . S
O538 C541 1.235 . S
C539 O542 1.238 . S
C539 O543 1.241 . S
C540 O533 1.247 . S
C540 O534 1.261 . S
C541 O536 1.259 . S
C541 O538 1.235 . S
O542 Co532 2.021 1_545 S
O542 C539 1.238 . S
O543 Co537 2.052 1_545 S
O543 C539 1.241 . S
O544 Co532 2.137 . S
O544 C535 1.247 . S
O545 Co532 2.244 . S
O545 C535 1.272 . S
O545 Co537 2.135 . S
Co546 O547 2.216 . S
Co546 O548 2.091 . S
Co546 O550 2.004 . S
Co546 O556 2.021 . S
Co546 O558 2.137 . S
Co546 O559 2.244 . S
O547 Co546 2.216 . S
O547 C554 1.247 . S
O548 Co546 2.091 . S
O548 C554 1.261 . S
C549 O558 1.247 . S
C549 O559 1.272 . S
O550 Co546 2.004 . S
O550 C555 1.259 . S
Co551 O552 2.061 . S
Co551 O557 2.052 . S
Co551 O559 2.135 . S
O552 Co551 2.061 . S
O552 C555 1.235 . S
C553 O556 1.238 . S
C553 O557 1.241 . S
C554 O547 1.247 . S
C554 O548 1.261 . S
C555 O550 1.259 . S
C555 O552 1.235 . S
O556 Co546 2.021 . S
O556 C553 1.238 . S
O557 Co551 2.052 . S
O557 C553 1.241 . S
O558 Co546 2.137 . S
O558 C549 1.247 . S
O559 Co546 2.244 . S
O559 C549 1.272 . S
O559 Co551 2.135 . S
Co560 O561 2.216 1_556 S
Co560 O562 2.091 1_556 S
Co560 O564 2.004 . S
Co560 O570 2.021 1_556 S
Co560 O572 2.137 . S
Co560 O573 2.244 . S
O561 Co560 2.216 1_554 S
O561 C568 1.247 . S
O562 Co560 2.091 1_554 S
O562 C568 1.261 . S
C563 O572 1.247 . S
C563 O573 1.272 . S
O564 Co560 2.004 . S
O564 C569 1.259 . S
Co565 O566 2.061 . S
Co565 O571 2.052 1_556 S
Co565 O573 2.135 . S
O566 Co565 2.061 . S
O566 C569 1.235 . S
C567 O570 1.238 . S
C567 O571 1.241 . S
C568 O561 1.247 . S
C568 O562 1.261 . S
C569 O564 1.259 . S
C569 O566 1.235 . S
O570 Co560 2.021 1_554 S
O570 C567 1.238 . S
O571 Co565 2.052 1_554 S
O571 C567 1.241 . S
O572 Co560 2.137 . S
O572 C563 1.247 . S
O573 Co560 2.244 . S
O573 C563 1.272 . S
O573 Co565 2.135 . S
Co574 O575 2.216 1_554 S
Co574 O576 2.091 1_554 S
Co574 O578 2.004 . S
Co574 O584 2.021 1_554 S
Co574 O586 2.137 . S
Co574 O587 2.244 . S
O575 Co574 2.216 1_556 S
O575 C582 1.247 . S
O576 Co574 2.091 1_556 S
O576 C582 1.261 . S
C577 O586 1.247 . S
C577 O587 1.272 . S
O578 Co574 2.004 . S
O578 C583 1.259 . S
Co579 O580 2.061 . S
Co579 O585 2.052 1_554 S
Co579 O587 2.135 . S
O580 Co579 2.061 . S
O580 C583 1.235 . S
C581 O584 1.238 . S
C581 O585 1.241 . S
C582 O575 1.247 . S
C582 O576 1.261 . S
C583 O578 1.259 . S
C583 O580 1.235 . S
O584 Co574 2.021 1_556 S
O584 C581 1.238 . S
O585 Co579 2.052 1_556 S
O585 C581 1.241 . S
O586 Co574 2.137 . S
O586 C577 1.247 . S
O587 Co574 2.244 . S
O587 C577 1.272 . S
O587 Co579 2.135 . S
Co588 O589 2.216 . S
Co588 O590 2.091 . S
Co588 O592 2.004 . S
Co588 O598 2.021 . S
Co588 O600 2.137 . S
Co588 O601 2.244 . S
O589 Co588 2.216 . S
O589 C596 1.247 . S
O590 Co588 2.091 . S
O590 C596 1.261 . S
C591 O600 1.247 . S
C591 O601 1.272 . S
O592 Co588 2.004 . S
O592 C597 1.259 . S
Co593 O594 2.061 . S
Co593 O599 2.052 . S
Co593 O601 2.135 . S
O594 Co593 2.061 . S
O594 C597 1.235 . S
C595 O598 1.238 . S
C595 O599 1.241 . S
C596 O589 1.247 . S
C596 O590 1.261 . S
C597 O592 1.259 . S
C597 O594 1.235 . S
O598 Co588 2.021 . S
O598 C595 1.238 . S
O599 Co593 2.052 . S
O599 C595 1.241 . S
O600 Co588 2.137 . S
O600 C591 1.247 . S
O601 Co588 2.244 . S
O601 C591 1.272 . S
O601 Co593 2.135 . S
Co602 O603 2.216 . S
Co602 O604 2.091 . S
Co602 O606 2.004 . S
Co602 O612 2.021 . S
Co602 O614 2.137 . S
Co602 O615 2.244 . S
O603 Co602 2.216 . S
O603 C610 1.247 . S
O604 Co602 2.091 . S
O604 C610 1.261 . S
C605 O614 1.247 . S
C605 O615 1.272 . S
O606 Co602 2.004 . S
O606 C611 1.259 . S
Co607 O608 2.061 . S
Co607 O613 2.052 . S
Co607 O615 2.135 . S
O608 Co607 2.061 . S
O608 C611 1.235 . S
C609 O612 1.238 . S
C609 O613 1.241 . S
C610 O603 1.247 . S
C610 O604 1.261 . S
C611 O606 1.259 . S
C611 O608 1.235 . S
O612 Co602 2.021 . S
O612 C609 1.238 . S
O613 Co607 2.052 . S
O613 C609 1.241 . S
O614 Co602 2.137 . S
O614 C605 1.247 . S
O615 Co602 2.244 . S
O615 C605 1.272 . S
O615 Co607 2.135 . S
Co616 O617 2.216 . S
Co616 O618 2.091 . S
Co616 O620 2.004 . S
Co616 O626 2.021 . S
Co616 O628 2.137 . S
Co616 O629 2.244 . S
O617 Co616 2.216 . S
O617 C624 1.247 . S
O618 Co616 2.091 . S
O618 C624 1.261 . S
C619 O628 1.247 . S
C619 O629 1.272 . S
O620 Co616 2.004 . S
O620 C625 1.259 . S
Co621 O622 2.061 . S
Co621 O627 2.052 . S
Co621 O629 2.135 . S
O622 Co621 2.061 . S
O622 C625 1.235 . S
C623 O626 1.238 . S
C623 O627 1.241 . S
C624 O617 1.247 . S
C624 O618 1.261 . S
C625 O620 1.259 . S
C625 O622 1.235 . S
O626 Co616 2.021 . S
O626 C623 1.238 . S
O627 Co621 2.052 . S
O627 C623 1.241 . S
O628 Co616 2.137 . S
O628 C619 1.247 . S
O629 Co616 2.244 . S
O629 C619 1.272 . S
O629 Co621 2.135 . S
Co630 O631 2.216 . S
Co630 O632 2.091 . S
Co630 O634 2.004 . S
Co630 O640 2.021 . S
Co630 O642 2.137 . S
Co630 O643 2.244 . S
O631 Co630 2.216 . S
O631 C638 1.247 . S
O632 Co630 2.091 . S
O632 C638 1.261 . S
C633 O642 1.247 . S
C633 O643 1.272 . S
O634 Co630 2.004 . S
O634 C639 1.259 . S
Co635 O636 2.061 . S
Co635 O641 2.052 . S
Co635 O643 2.135 . S
O636 Co635 2.061 . S
O636 C639 1.235 . S
C637 O640 1.238 . S
C637 O641 1.241 . S
C638 O631 1.247 . S
C638 O632 1.261 . S
C639 O634 1.259 . S
C639 O636 1.235 . S
O640 Co630 2.021 . S
O640 C637 1.238 . S
O641 Co635 2.052 . S
O641 C637 1.241 . S
O642 Co630 2.137 . S
O642 C633 1.247 . S
O643 Co630 2.244 . S
O643 C633 1.272 . S
O643 Co635 2.135 . S
Co644 O645 2.216 . S
Co644 O646 2.091 . S
Co644 O648 2.004 . S
Co644 O654 2.021 . S
Co644 O656 2.137 . S
Co644 O657 2.244 . S
O645 Co644 2.216 . S
O645 C652 1.247 . S
O646 Co644 2.091 . S
O646 C652 1.261 . S
C647 O656 1.247 . S
C647 O657 1.272 . S
O648 Co644 2.004 . S
O648 C653 1.259 . S
Co649 O650 2.061 . S
Co649 O655 2.052 . S
Co649 O657 2.135 . S
O650 Co649 2.061 . S
O650 C653 1.235 . S
C651 O654 1.238 . S
C651 O655 1.241 . S
C652 O645 1.247 . S
C652 O646 1.261 . S
C653 O648 1.259 . S
C653 O650 1.235 . S
O654 Co644 2.021 . S
O654 C651 1.238 . S
O655 Co649 2.052 . S
O655 C651 1.241 . S
O656 Co644 2.137 . S
O656 C647 1.247 . S
O657 Co644 2.244 . S
O657 C647 1.272 . S
O657 Co649 2.135 . S
Co658 O659 2.216 . S
Co658 O660 2.091 . S
Co658 O662 2.004 . S
Co658 O668 2.021 . S
Co658 O670 2.137 . S
Co658 O671 2.244 . S
O659 Co658 2.216 . S
O659 C666 1.247 . S
O660 Co658 2.091 . S
O660 C666 1.261 . S
C661 O670 1.247 . S
C661 O671 1.272 . S
O662 Co658 2.004 . S
O662 C667 1.259 . S
Co663 O664 2.061 . S
Co663 O669 2.052 . S
Co663 O671 2.135 . S
O664 Co663 2.061 . S
O664 C667 1.235 . S
C665 O668 1.238 . S
C665 O669 1.241 . S
C666 O659 1.247 . S
C666 O660 1.261 . S
C667 O662 1.259 . S
C667 O664 1.235 . S
O668 Co658 2.021 . S
O668 C665 1.238 . S
O669 Co663 2.052 . S
O669 C665 1.241 . S
O670 Co658 2.137 . S
O670 C661 1.247 . S
O671 Co658 2.244 . S
O671 C661 1.272 . S
O671 Co663 2.135 . S
Co672 O673 2.216 . S
Co672 O674 2.091 . S
Co672 O676 2.004 . S
Co672 O682 2.021 . S
Co672 O684 2.137 . S
Co672 O685 2.244 . S
O673 Co672 2.216 . S
O673 C680 1.247 . S
O674 Co672 2.091 . S
O674 C680 1.261 . S
C675 O684 1.247 . S
C675 O685 1.272 . S
O676 Co672 2.004 . S
O676 C681 1.259 . S
Co677 O678 2.061 . S
Co677 O683 2.052 . S
Co677 O685 2.135 . S
O678 Co677 2.061 . S
O678 C681 1.235 . S
C679 O682 1.238 . S
C679 O683 1.241 . S
C680 O673 1.247 . S
C680 O674 1.261 . S
C681 O676 1.259 . S
C681 O678 1.235 . S
O682 Co672 2.021 . S
O682 C679 1.238 . S
O683 Co677 2.052 . S
O683 C679 1.241 . S
O684 Co672 2.137 . S
O684 C675 1.247 . S
O685 Co672 2.244 . S
O685 C675 1.272 . S
O685 Co677 2.135 . S
Co686 O687 2.216 . S
Co686 O688 2.091 . S
Co686 O690 2.004 . S
Co686 O696 2.021 . S
Co686 O698 2.137 . S
Co686 O699 2.244 . S
O687 Co686 2.216 . S
O687 C694 1.247 . S
O688 Co686 2.091 . S
O688 C694 1.261 . S
C689 O698 1.247 . S
C689 O699 1.272 . S
O690 Co686 2.004 . S
O690 C695 1.259 . S
Co691 O692 2.061 . S
Co691 O697 2.052 . S
Co691 O699 2.135 . S
O692 Co691 2.061 . S
O692 C695 1.235 . S
C693 O696 1.238 . S
C693 O697 1.241 . S
C694 O687 1.247 . S
C694 O688 1.261 . S
C695 O690 1.259 . S
C695 O692 1.235 . S
O696 Co686 2.021 . S
O696 C693 1.238 . S
O697 Co691 2.052 . S
O697 C693 1.241 . S
O698 Co686 2.137 . S
O698 C689 1.247 . S
O699 Co686 2.244 . S
O699 C689 1.272 . S
O699 Co691 2.135 . S
Co700 O701 2.216 1_655 S
Co700 O702 2.091 1_655 S
Co700 O704 2.004 . S
Co700 O710 2.021 1_655 S
Co700 O712 2.137 . S
Co700 O713 2.244 . S
O701 Co700 2.216 1_455 S
O701 C708 1.247 . S
O702 Co700 2.091 1_455 S
O702 C708 1.261 . S
C703 O712 1.247 . S
C703 O713 1.272 . S
O704 Co700 2.004 . S
O704 C709 1.259 . S
Co705 O706 2.061 . S
Co705 O711 2.052 1_655 S
Co705 O713 2.135 . S
O706 Co705 2.061 . S
O706 C709 1.235 . S
C707 O710 1.238 . S
C707 O711 1.241 . S
C708 O701 1.247 . S
C708 O702 1.261 . S
C709 O704 1.259 . S
C709 O706 1.235 . S
O710 Co700 2.021 1_455 S
O710 C707 1.238 . S
O711 Co705 2.052 1_455 S
O711 C707 1.241 . S
O712 Co700 2.137 . S
O712 C703 1.247 . S
O713 Co700 2.244 . S
O713 C703 1.272 . S
O713 Co705 2.135 . S
Co714 O715 2.216 . S
Co714 O716 2.091 . S
Co714 O718 2.004 . S
Co714 O724 2.021 . S
Co714 O726 2.137 . S
Co714 O727 2.244 . S
O715 Co714 2.216 . S
O715 C722 1.247 . S
O716 Co714 2.091 . S
O716 C722 1.261 . S
C717 O726 1.247 . S
C717 O727 1.272 . S
O718 Co714 2.004 . S
O718 C723 1.259 . S
Co719 O720 2.061 . S
Co719 O725 2.052 . S
Co719 O727 2.135 . S
O720 Co719 2.061 . S
O720 C723 1.235 . S
C721 O724 1.238 . S
C721 O725 1.241 . S
C722 O715 1.247 . S
C722 O716 1.261 . S
C723 O718 1.259 . S
C723 O720 1.235 . S
O724 Co714 2.021 . S
O724 C721 1.238 . S
O725 Co719 2.052 . S
O725 C721 1.241 . S
O726 Co714 2.137 . S
O726 C717 1.247 . S
O727 Co714 2.244 . S
O727 C717 1.272 . S
O727 Co719 2.135 . S
Co728 O729 2.216 . S
Co728 O730 2.091 . S
Co728 O732 2.004 . S
Co728 O738 2.021 . S
Co728 O740 2.137 . S
Co728 O741 2.244 . S
O729 Co728 2.216 . S
O729 C736 1.247 . S
O730 Co728 2.091 . S
O730 C736 1.261 . S
C731 O740 1.247 . S
C731 O741 1.272 . S
O732 Co728 2.004 . S
O732 C737 1.259 . S
Co733 O734 2.061 . S
Co733 O739 2.052 . S
Co733 O741 2.135 . S
O734 Co733 2.061 . S
O734 C737 1.235 . S
C735 O738 1.238 . S
C735 O739 1.241 . S
C736 O729 1.247 . S
C736 O730 1.261 . S
C737 O732 1.259 . S
C737 O734 1.235 . S
O738 Co728 2.021 . S
O738 C735 1.238 . S
O739 Co733 2.052 . S
O739 C735 1.241 . S
O740 Co728 2.137 . S
O740 C731 1.247 . S
O741 Co728 2.244 . S
O741 C731 1.272 . S
O741 Co733 2.135 . S
Co742 O743 2.216 . S
Co742 O744 2.091 . S
Co742 O746 2.004 . S
Co742 O752 2.021 . S
Co742 O754 2.137 . S
Co742 O755 2.244 . S
O743 Co742 2.216 . S
O743 C750 1.247 . S
O744 Co742 2.091 . S
O744 C750 1.261 . S
C745 O754 1.247 . S
C745 O755 1.272 . S
O746 Co742 2.004 . S
O746 C751 1.259 . S
Co747 O748 2.061 . S
Co747 O753 2.052 . S
Co747 O755 2.135 . S
O748 Co747 2.061 . S
O748 C751 1.235 . S
C749 O752 1.238 . S
C749 O753 1.241 . S
C750 O743 1.247 . S
C750 O744 1.261 . S
C751 O746 1.259 . S
C751 O748 1.235 . S
O752 Co742 2.021 . S
O752 C749 1.238 . S
O753 Co747 2.052 . S
O753 C749 1.241 . S
O754 Co742 2.137 . S
O754 C745 1.247 . S
O755 Co742 2.244 . S
O755 C745 1.272 . S
O755 Co747 2.135 . S
Co756 O757 2.216 1_655 S
Co756 O758 2.091 1_655 S
Co756 O760 2.004 . S
Co756 O766 2.021 1_655 S
Co756 O768 2.137 . S
Co756 O769 2.244 . S
O757 Co756 2.216 1_455 S
O757 C764 1.247 . S
O758 Co756 2.091 1_455 S
O758 C764 1.261 . S
C759 O768 1.247 . S
C759 O769 1.272 . S
O760 Co756 2.004 . S
O760 C765 1.259 . S
Co761 O762 2.061 . S
Co761 O767 2.052 1_655 S
Co761 O769 2.135 . S
O762 Co761 2.061 . S
O762 C765 1.235 . S
C763 O766 1.238 . S
C763 O767 1.241 . S
C764 O757 1.247 . S
C764 O758 1.261 . S
C765 O760 1.259 . S
C765 O762 1.235 . S
O766 Co756 2.021 1_455 S
O766 C763 1.238 . S
O767 Co761 2.052 1_455 S
O767 C763 1.241 . S
O768 Co756 2.137 . S
O768 C759 1.247 . S
O769 Co756 2.244 . S
O769 C759 1.272 . S
O769 Co761 2.135 . S
Co770 O771 2.216 . S
Co770 O772 2.091 . S
Co770 O774 2.004 . S
Co770 O780 2.021 . S
Co770 O782 2.137 . S
Co770 O783 2.244 . S
O771 Co770 2.216 . S
O771 C778 1.247 . S
O772 Co770 2.091 . S
O772 C778 1.261 . S
C773 O782 1.247 . S
C773 O783 1.272 . S
O774 Co770 2.004 . S
O774 C779 1.259 . S
Co775 O776 2.061 . S
Co775 O781 2.052 . S
Co775 O783 2.135 . S
O776 Co775 2.061 . S
O776 C779 1.235 . S
C777 O780 1.238 . S
C777 O781 1.241 . S
C778 O771 1.247 . S
C778 O772 1.261 . S
C779 O774 1.259 . S
C779 O776 1.235 . S
O780 Co770 2.021 . S
O780 C777 1.238 . S
O781 Co775 2.052 . S
O781 C777 1.241 . S
O782 Co770 2.137 . S
O782 C773 1.247 . S
O783 Co770 2.244 . S
O783 C773 1.272 . S
O783 Co775 2.135 . S
Co784 O785 2.216 . S
Co784 O786 2.091 . S
Co784 O788 2.004 . S
Co784 O794 2.021 . S
Co784 O796 2.137 . S
Co784 O797 2.244 . S
O785 Co784 2.216 . S
O785 C792 1.247 . S
O786 Co784 2.091 . S
O786 C792 1.261 . S
C787 O796 1.247 . S
C787 O797 1.272 . S
O788 Co784 2.004 . S
O788 C793 1.259 . S
Co789 O790 2.061 . S
Co789 O795 2.052 . S
Co789 O797 2.135 . S
O790 Co789 2.061 . S
O790 C793 1.235 . S
C791 O794 1.238 . S
C791 O795 1.241 . S
C792 O785 1.247 . S
C792 O786 1.261 . S
C793 O788 1.259 . S
C793 O790 1.235 . S
O794 Co784 2.021 . S
O794 C791 1.238 . S
O795 Co789 2.052 . S
O795 C791 1.241 . S
O796 Co784 2.137 . S
O796 C787 1.247 . S
O797 Co784 2.244 . S
O797 C787 1.272 . S
O797 Co789 2.135 . S
Co798 O799 2.216 . S
Co798 O800 2.091 . S
Co798 O802 2.004 . S
Co798 O808 2.021 . S
Co798 O810 2.137 . S
Co798 O811 2.244 . S
O799 Co798 2.216 . S
O799 C806 1.247 . S
O800 Co798 2.091 . S
O800 C806 1.261 . S
C801 O810 1.247 . S
C801 O811 1.272 . S
O802 Co798 2.004 . S
O802 C807 1.259 . S
Co803 O804 2.061 . S
Co803 O809 2.052 . S
Co803 O811 2.135 . S
O804 Co803 2.061 . S
O804 C807 1.235 . S
C805 O808 1.238 . S
C805 O809 1.241 . S
C806 O799 1.247 . S
C806 O800 1.261 . S
C807 O802 1.259 . S
C807 O804 1.235 . S
O808 Co798 2.021 . S
O808 C805 1.238 . S
O809 Co803 2.052 . S
O809 C805 1.241 . S
O810 Co798 2.137 . S
O810 C801 1.247 . S
O811 Co798 2.244 . S
O811 C801 1.272 . S
O811 Co803 2.135 . S
Co812 O813 2.216 . S
Co812 O814 2.091 . S
Co812 O816 2.004 . S
Co812 O822 2.021 . S
Co812 O824 2.137 . S
Co812 O825 2.244 . S
O813 Co812 2.216 . S
O813 C820 1.247 . S
O814 Co812 2.091 . S
O814 C820 1.261 . S
C815 O824 1.247 . S
C815 O825 1.272 . S
O816 Co812 2.004 . S
O816 C821 1.259 . S
Co817 O818 2.061 . S
Co817 O823 2.052 . S
Co817 O825 2.135 . S
O818 Co817 2.061 . S
O818 C821 1.235 . S
C819 O822 1.238 . S
C819 O823 1.241 . S
C820 O813 1.247 . S
C820 O814 1.261 . S
C821 O816 1.259 . S
C821 O818 1.235 . S
O822 Co812 2.021 . S
O822 C819 1.238 . S
O823 Co817 2.052 . S
O823 C819 1.241 . S
O824 Co812 2.137 . S
O824 C815 1.247 . S
O825 Co812 2.244 . S
O825 C815 1.272 . S
O825 Co817 2.135 . S
Co826 O827 2.216 . S
Co826 O828 2.091 . S
Co826 O830 2.004 . S
Co826 O836 2.021 . S
Co826 O838 2.137 . S
Co826 O839 2.244 . S
O827 Co826 2.216 . S
O827 C834 1.247 . S
O828 Co826 2.091 . S
O828 C834 1.261 . S
C829 O838 1.247 . S
C829 O839 1.272 . S
O830 Co826 2.004 . S
O830 C835 1.259 . S
Co831 O832 2.061 . S
Co831 O837 2.052 . S
Co831 O839 2.135 . S
O832 Co831 2.061 . S
O832 C835 1.235 . S
C833 O836 1.238 . S
C833 O837 1.241 . S
C834 O827 1.247 . S
C834 O828 1.261 . S
C835 O830 1.259 . S
C835 O832 1.235 . S
O836 Co826 2.021 . S
O836 C833 1.238 . S
O837 Co831 2.052 . S
O837 C833 1.241 . S
O838 Co826 2.137 . S
O838 C829 1.247 . S
O839 Co826 2.244 . S
O839 C829 1.272 . S
O839 Co831 2.135 . S
Co840 O841 2.216 . S
Co840 O842 2.091 . S
Co840 O844 2.004 . S
Co840 O850 2.021 . S
Co840 O852 2.137 . S
Co840 O853 2.244 . S
O841 Co840 2.216 . S
O841 C848 1.247 . S
O842 Co840 2.091 . S
O842 C848 1.261 . S
C843 O852 1.247 . S
C843 O853 1.272 . S
O844 Co840 2.004 . S
O844 C849 1.259 . S
Co845 O846 2.061 . S
Co845 O851 2.052 . S
Co845 O853 2.135 . S
O846 Co845 2.061 . S
O846 C849 1.235 . S
C847 O850 1.238 . S
C847 O851 1.241 . S
C848 O841 1.247 . S
C848 O842 1.261 . S
C849 O844 1.259 . S
C849 O846 1.235 . S
O850 Co840 2.021 . S
O850 C847 1.238 . S
O851 Co845 2.052 . S
O851 C847 1.241 . S
O852 Co840 2.137 . S
O852 C843 1.247 . S
O853 Co840 2.244 . S
O853 C843 1.272 . S
O853 Co845 2.135 . S
Co854 O855 2.216 . S
Co854 O856 2.091 . S
Co854 O858 2.004 . S
Co854 O864 2.021 . S
Co854 O866 2.137 . S
Co854 O867 2.244 . S
O855 Co854 2.216 . S
O855 C862 1.247 . S
O856 Co854 2.091 . S
O856 C862 1.261 . S
C857 O866 1.247 . S
C857 O867 1.272 . S
O858 Co854 2.004 . S
O858 C863 1.259 . S
Co859 O860 2.061 . S
Co859 O865 2.052 . S
Co859 O867 2.135 . S
O860 Co859 2.061 . S
O860 C863 1.235 . S
C861 O864 1.238 . S
C861 O865 1.241 . S
C862 O855 1.247 . S
C862 O856 1.261 . S
C863 O858 1.259 . S
C863 O860 1.235 . S
O864 Co854 2.021 . S
O864 C861 1.238 . S
O865 Co859 2.052 . S
O865 C861 1.241 . S
O866 Co854 2.137 . S
O866 C857 1.247 . S
O867 Co854 2.244 . S
O867 C857 1.272 . S
O867 Co859 2.135 . S
Co868 O869 2.216 . S
Co868 O870 2.091 . S
Co868 O872 2.004 . S
Co868 O878 2.021 . S
Co868 O880 2.137 . S
Co868 O881 2.244 . S
O869 Co868 2.216 . S
O869 C876 1.247 . S
O870 Co868 2.091 . S
O870 C876 1.261 . S
C871 O880 1.247 . S
C871 O881 1.272 . S
O872 Co868 2.004 . S
O872 C877 1.259 . S
Co873 O874 2.061 . S
Co873 O879 2.052 . S
Co873 O881 2.135 . S
O874 Co873 2.061 . S
O874 C877 1.235 . S
C875 O878 1.238 . S
C875 O879 1.241 . S
C876 O869 1.247 . S
C876 O870 1.261 . S
C877 O872 1.259 . S
C877 O874 1.235 . S
O878 Co868 2.021 . S
O878 C875 1.238 . S
O879 Co873 2.052 . S
O879 C875 1.241 . S
O880 Co868 2.137 . S
O880 C871 1.247 . S
O881 Co868 2.244 . S
O881 C871 1.272 . S
O881 Co873 2.135 . S
Co882 O883 2.216 . S
Co882 O884 2.091 . S
Co882 O886 2.004 . S
Co882 O892 2.021 . S
Co882 O894 2.137 . S
Co882 O895 2.244 . S
O883 Co882 2.216 . S
O883 C890 1.247 . S
O884 Co882 2.091 . S
O884 C890 1.261 . S
C885 O894 1.247 . S
C885 O895 1.272 . S
O886 Co882 2.004 . S
O886 C891 1.259 . S
Co887 O888 2.061 . S
Co887 O893 2.052 . S
Co887 O895 2.135 . S
O888 Co887 2.061 . S
O888 C891 1.235 . S
C889 O892 1.238 . S
C889 O893 1.241 . S
C890 O883 1.247 . S
C890 O884 1.261 . S
C891 O886 1.259 . S
C891 O888 1.235 . S
O892 Co882 2.021 . S
O892 C889 1.238 . S
O893 Co887 2.052 . S
O893 C889 1.241 . S
O894 Co882 2.137 . S
O894 C885 1.247 . S
O895 Co882 2.244 . S
O895 C885 1.272 . S
O895 Co887 2.135 . S
Co896 O897 2.216 . S
Co896 O898 2.091 . S
Co896 O900 2.004 . S
Co896 O906 2.021 . S
Co896 O908 2.137 . S
Co896 O909 2.244 . S
O897 Co896 2.216 . S
O897 C904 1.247 . S
O898 Co896 2.091 . S
O898 C904 1.261 . S
C899 O908 1.247 . S
C899 O909 1.272 . S
O900 Co896 2.004 . S
O900 C905 1.259 . S
Co901 O902 2.061 . S
Co901 O907 2.052 . S
Co901 O909 2.135 . S
O902 Co901 2.061 . S
O902 C905 1.235 . S
C903 O906 1.238 . S
C903 O907 1.241 . S
C904 O897 1.247 . S
C904 O898 1.261 . S
C905 O900 1.259 . S
C905 O902 1.235 . S
O906 Co896 2.021 . S
O906 C903 1.238 . S
O907 Co901 2.052 . S
O907 C903 1.241 . S
O908 Co896 2.137 . S
O908 C899 1.247 . S
O909 Co896 2.244 . S
O909 C899 1.272 . S
O909 Co901 2.135 . S
Co910 O911 2.216 . S
Co910 O912 2.091 . S
Co910 O914 2.004 . S
Co910 O920 2.021 . S
Co910 O922 2.137 . S
Co910 O923 2.244 . S
O911 Co910 2.216 . S
O911 C918 1.247 . S
O912 Co910 2.091 . S
O912 C918 1.261 . S
C913 O922 1.247 . S
C913 O923 1.272 . S
O914 Co910 2.004 . S
O914 C919 1.259 . S
Co915 O916 2.061 . S
Co915 O921 2.052 . S
Co915 O923 2.135 . S
O916 Co915 2.061 . S
O916 C919 1.235 . S
C917 O920 1.238 . S
C917 O921 1.241 . S
C918 O911 1.247 . S
C918 O912 1.261 . S
C919 O914 1.259 . S
C919 O916 1.235 . S
O920 Co910 2.021 . S
O920 C917 1.238 . S
O921 Co915 2.052 . S
O921 C917 1.241 . S
O922 Co910 2.137 . S
O922 C913 1.247 . S
O923 Co910 2.244 . S
O923 C913 1.272 . S
O923 Co915 2.135 . S
Co924 O925 2.216 . S
Co924 O926 2.091 . S
Co924 O928 2.004 . S
Co924 O934 2.021 . S
Co924 O936 2.137 . S
Co924 O937 2.244 . S
O925 Co924 2.216 . S
O925 C932 1.247 . S
O926 Co924 2.091 . S
O926 C932 1.261 . S
C927 O936 1.247 . S
C927 O937 1.272 . S
O928 Co924 2.004 . S
O928 C933 1.259 . S
Co929 O930 2.061 . S
Co929 O935 2.052 . S
Co929 O937 2.135 . S
O930 Co929 2.061 . S
O930 C933 1.235 . S
C931 O934 1.238 . S
C931 O935 1.241 . S
C932 O925 1.247 . S
C932 O926 1.261 . S
C933 O928 1.259 . S
C933 O930 1.235 . S
O934 Co924 2.021 . S
O934 C931 1.238 . S
O935 Co929 2.052 . S
O935 C931 1.241 . S
O936 Co924 2.137 . S
O936 C927 1.247 . S
O937 Co924 2.244 . S
O937 C927 1.272 . S
O937 Co929 2.135 . S
Co938 O939 2.216 1_556 S
Co938 O940 2.091 1_556 S
Co938 O942 2.004 . S
Co938 O948 2.021 1_556 S
Co938 O950 2.137 . S
Co938 O951 2.244 . S
O939 Co938 2.216 1_554 S
O939 C946 1.247 . S
O940 Co938 2.091 1_554 S
O940 C946 1.261 . S
C941 O950 1.247 . S
C941 O951 1.272 . S
O942 Co938 2.004 . S
O942 C947 1.259 . S
Co943 O944 2.061 . S
Co943 O949 2.052 1_556 S
Co943 O951 2.135 . S
O944 Co943 2.061 . S
O944 C947 1.235 . S
C945 O948 1.238 . S
C945 O949 1.241 . S
C946 O939 1.247 . S
C946 O940 1.261 . S
C947 O942 1.259 . S
C947 O944 1.235 . S
O948 Co938 2.021 1_554 S
O948 C945 1.238 . S
O949 Co943 2.052 1_554 S
O949 C945 1.241 . S
O950 Co938 2.137 . S
O950 C941 1.247 . S
O951 Co938 2.244 . S
O951 C941 1.272 . S
O951 Co943 2.135 . S
Co952 O953 2.216 . S
Co952 O954 2.091 . S
Co952 O956 2.004 . S
Co952 O962 2.021 . S
Co952 O964 2.137 . S
Co952 O965 2.244 . S
O953 Co952 2.216 . S
O953 C960 1.247 . S
O954 Co952 2.091 . S
O954 C960 1.261 . S
C955 O964 1.247 . S
C955 O965 1.272 . S
O956 Co952 2.004 . S
O956 C961 1.259 . S
Co957 O958 2.061 . S
Co957 O963 2.052 . S
Co957 O965 2.135 . S
O958 Co957 2.061 . S
O958 C961 1.235 . S
C959 O962 1.238 . S
C959 O963 1.241 . S
C960 O953 1.247 . S
C960 O954 1.261 . S
C961 O956 1.259 . S
C961 O958 1.235 . S
O962 Co952 2.021 . S
O962 C959 1.238 . S
O963 Co957 2.052 . S
O963 C959 1.241 . S
O964 Co952 2.137 . S
O964 C955 1.247 . S
O965 Co952 2.244 . S
O965 C955 1.272 . S
O965 Co957 2.135 . S
Co966 O967 2.216 1_554 S
Co966 O968 2.091 1_554 S
Co966 O970 2.004 . S
Co966 O976 2.021 1_554 S
Co966 O978 2.137 . S
Co966 O979 2.244 . S
O967 Co966 2.216 1_556 S
O967 C974 1.247 . S
O968 Co966 2.091 1_556 S
O968 C974 1.261 . S
C969 O978 1.247 . S
C969 O979 1.272 . S
O970 Co966 2.004 . S
O970 C975 1.259 . S
Co971 O972 2.061 . S
Co971 O977 2.052 1_554 S
Co971 O979 2.135 . S
O972 Co971 2.061 . S
O972 C975 1.235 . S
C973 O976 1.238 . S
C973 O977 1.241 . S
C974 O967 1.247 . S
C974 O968 1.261 . S
C975 O970 1.259 . S
C975 O972 1.235 . S
O976 Co966 2.021 1_556 S
O976 C973 1.238 . S
O977 Co971 2.052 1_556 S
O977 C973 1.241 . S
O978 Co966 2.137 . S
O978 C969 1.247 . S
O979 Co966 2.244 . S
O979 C969 1.272 . S
O979 Co971 2.135 . S
Co980 O981 2.216 . S
Co980 O982 2.091 . S
Co980 O984 2.004 . S
Co980 O990 2.021 . S
Co980 O992 2.137 . S
Co980 O993 2.244 . S
O981 Co980 2.216 . S
O981 C988 1.247 . S
O982 Co980 2.091 . S
O982 C988 1.261 . S
C983 O992 1.247 . S
C983 O993 1.272 . S
O984 Co980 2.004 . S
O984 C989 1.259 . S
Co985 O986 2.061 . S
Co985 O991 2.052 . S
Co985 O993 2.135 . S
O986 Co985 2.061 . S
O986 C989 1.235 . S
C987 O990 1.238 . S
C987 O991 1.241 . S
C988 O981 1.247 . S
C988 O982 1.261 . S
C989 O984 1.259 . S
C989 O986 1.235 . S
O990 Co980 2.021 . S
O990 C987 1.238 . S
O991 Co985 2.052 . S
O991 C987 1.241 . S
O992 Co980 2.137 . S
O992 C983 1.247 . S
O993 Co980 2.244 . S
O993 C983 1.272 . S
O993 Co985 2.135 . S
Co994 O995 2.216 . S
Co994 O996 2.091 . S
Co994 O998 2.004 . S
Co994 O1004 2.021 . S
Co994 O1006 2.137 . S
Co994 O1007 2.244 . S
O995 Co994 2.216 . S
O995 C1002 1.247 . S
O996 Co994 2.091 . S
O996 C1002 1.261 . S
C997 O1006 1.247 . S
C997 O1007 1.272 . S
O998 Co994 2.004 . S
O998 C1003 1.259 . S
Co999 O1000 2.061 . S
Co999 O1005 2.052 . S
Co999 O1007 2.135 . S
O1000 Co999 2.061 . S
O1000 C1003 1.235 . S
C1001 O1004 1.238 . S
C1001 O1005 1.241 . S
C1002 O995 1.247 . S
C1002 O996 1.261 . S
C1003 O998 1.259 . S
C1003 O1000 1.235 . S
O1004 Co994 2.021 . S
O1004 C1001 1.238 . S
O1005 Co999 2.052 . S
O1005 C1001 1.241 . S
O1006 Co994 2.137 . S
O1006 C997 1.247 . S
O1007 Co994 2.244 . S
O1007 C997 1.272 . S
O1007 Co999 2.135 . S
Co1008 O1009 2.216 . S
Co1008 O1010 2.091 . S
Co1008 O1012 2.004 . S
Co1008 O1018 2.021 . S
Co1008 O1020 2.137 . S
Co1008 O1021 2.244 . S
O1009 Co1008 2.216 . S
O1009 C1016 1.247 . S
O1010 Co1008 2.091 . S
O1010 C1016 1.261 . S
C1011 O1020 1.247 . S
C1011 O1021 1.272 . S
O1012 Co1008 2.004 . S
O1012 C1017 1.259 . S
Co1013 O1014 2.061 . S
Co1013 O1019 2.052 . S
Co1013 O1021 2.135 . S
O1014 Co1013 2.061 . S
O1014 C1017 1.235 . S
C1015 O1018 1.238 . S
C1015 O1019 1.241 . S
C1016 O1009 1.247 . S
C1016 O1010 1.261 . S
C1017 O1012 1.259 . S
C1017 O1014 1.235 . S
O1018 Co1008 2.021 . S
O1018 C1015 1.238 . S
O1019 Co1013 2.052 . S
O1019 C1015 1.241 . S
O1020 Co1008 2.137 . S
O1020 C1011 1.247 . S
O1021 Co1008 2.244 . S
O1021 C1011 1.272 . S
O1021 Co1013 2.135 . S
Co1022 O1023 2.216 . S
Co1022 O1024 2.091 . S
Co1022 O1026 2.004 . S
Co1022 O1032 2.021 . S
Co1022 O1034 2.137 . S
Co1022 O1035 2.244 . S
O1023 Co1022 2.216 . S
O1023 C1030 1.247 . S
O1024 Co1022 2.091 . S
O1024 C1030 1.261 . S
C1025 O1034 1.247 . S
C1025 O1035 1.272 . S
O1026 Co1022 2.004 . S
O1026 C1031 1.259 . S
Co1027 O1028 2.061 . S
Co1027 O1033 2.052 . S
Co1027 O1035 2.135 . S
O1028 Co1027 2.061 . S
O1028 C1031 1.235 . S
C1029 O1032 1.238 . S
C1029 O1033 1.241 . S
C1030 O1023 1.247 . S
C1030 O1024 1.261 . S
C1031 O1026 1.259 . S
C1031 O1028 1.235 . S
O1032 Co1022 2.021 . S
O1032 C1029 1.238 . S
O1033 Co1027 2.052 . S
O1033 C1029 1.241 . S
O1034 Co1022 2.137 . S
O1034 C1025 1.247 . S
O1035 Co1022 2.244 . S
O1035 C1025 1.272 . S
O1035 Co1027 2.135 . S
Co1036 O1037 2.216 1_455 S
Co1036 O1038 2.091 1_455 S
Co1036 O1040 2.004 . S
Co1036 O1046 2.021 1_455 S
Co1036 O1048 2.137 . S
Co1036 O1049 2.244 . S
O1037 Co1036 2.216 1_655 S
O1037 C1044 1.247 . S
O1038 Co1036 2.091 1_655 S
O1038 C1044 1.261 . S
C1039 O1048 1.247 . S
C1039 O1049 1.272 . S
O1040 Co1036 2.004 . S
O1040 C1045 1.259 . S
Co1041 O1042 2.061 . S
Co1041 O1047 2.052 1_455 S
Co1041 O1049 2.135 . S
O1042 Co1041 2.061 . S
O1042 C1045 1.235 . S
C1043 O1046 1.238 . S
C1043 O1047 1.241 . S
C1044 O1037 1.247 . S
C1044 O1038 1.261 . S
C1045 O1040 1.259 . S
C1045 O1042 1.235 . S
O1046 Co1036 2.021 1_655 S
O1046 C1043 1.238 . S
O1047 Co1041 2.052 1_655 S
O1047 C1043 1.241 . S
O1048 Co1036 2.137 . S
O1048 C1039 1.247 . S
O1049 Co1036 2.244 . S
O1049 C1039 1.272 . S
O1049 Co1041 2.135 . S
Co1050 O1051 2.216 . S
Co1050 O1052 2.091 . S
Co1050 O1054 2.004 . S
Co1050 O1060 2.021 . S
Co1050 O1062 2.137 . S
Co1050 O1063 2.244 . S
O1051 Co1050 2.216 . S
O1051 C1058 1.247 . S
O1052 Co1050 2.091 . S
O1052 C1058 1.261 . S
C1053 O1062 1.247 . S
C1053 O1063 1.272 . S
O1054 Co1050 2.004 . S
O1054 C1059 1.259 . S
Co1055 O1056 2.061 . S
Co1055 O1061 2.052 . S
Co1055 O1063 2.135 . S
O1056 Co1055 2.061 . S
O1056 C1059 1.235 . S
C1057 O1060 1.238 . S
C1057 O1061 1.241 . S
C1058 O1051 1.247 . S
C1058 O1052 1.261 . S
C1059 O1054 1.259 . S
C1059 O1056 1.235 . S
O1060 Co1050 2.021 . S
O1060 C1057 1.238 . S
O1061 Co1055 2.052 . S
O1061 C1057 1.241 . S
O1062 Co1050 2.137 . S
O1062 C1053 1.247 . S
O1063 Co1050 2.244 . S
O1063 C1053 1.272 . S
O1063 Co1055 2.135 . S
Co1064 O1065 2.216 . S
Co1064 O1066 2.091 . S
Co1064 O1068 2.004 . S
Co1064 O1074 2.021 . S
Co1064 O1076 2.137 . S
Co1064 O1077 2.244 . S
O1065 Co1064 2.216 . S
O1065 C1072 1.247 . S
O1066 Co1064 2.091 . S
O1066 C1072 1.261 . S
C1067 O1076 1.247 . S
C1067 O1077 1.272 . S
O1068 Co1064 2.004 . S
O1068 C1073 1.259 . S
Co1069 O1070 2.061 . S
Co1069 O1075 2.052 . S
Co1069 O1077 2.135 . S
O1070 Co1069 2.061 . S
O1070 C1073 1.235 . S
C1071 O1074 1.238 . S
C1071 O1075 1.241 . S
C1072 O1065 1.247 . S
C1072 O1066 1.261 . S
C1073 O1068 1.259 . S
C1073 O1070 1.235 . S
O1074 Co1064 2.021 . S
O1074 C1071 1.238 . S
O1075 Co1069 2.052 . S
O1075 C1071 1.241 . S
O1076 Co1064 2.137 . S
O1076 C1067 1.247 . S
O1077 Co1064 2.244 . S
O1077 C1067 1.272 . S
O1077 Co1069 2.135 . S
Co1078 O1079 2.216 . S
Co1078 O1080 2.091 . S
Co1078 O1082 2.004 . S
Co1078 O1088 2.021 . S
Co1078 O1090 2.137 . S
Co1078 O1091 2.244 . S
O1079 Co1078 2.216 . S
O1079 C1086 1.247 . S
O1080 Co1078 2.091 . S
O1080 C1086 1.261 . S
C1081 O1090 1.247 . S
C1081 O1091 1.272 . S
O1082 Co1078 2.004 . S
O1082 C1087 1.259 . S
Co1083 O1084 2.061 . S
Co1083 O1089 2.052 . S
Co1083 O1091 2.135 . S
O1084 Co1083 2.061 . S
O1084 C1087 1.235 . S
C1085 O1088 1.238 . S
C1085 O1089 1.241 . S
C1086 O1079 1.247 . S
C1086 O1080 1.261 . S
C1087 O1082 1.259 . S
C1087 O1084 1.235 . S
O1088 Co1078 2.021 . S
O1088 C1085 1.238 . S
O1089 Co1083 2.052 . S
O1089 C1085 1.241 . S
O1090 Co1078 2.137 . S
O1090 C1081 1.247 . S
O1091 Co1078 2.244 . S
O1091 C1081 1.272 . S
O1091 Co1083 2.135 . S
Co1092 O1093 2.216 1_455 S
Co1092 O1094 2.091 1_455 S
Co1092 O1096 2.004 . S
Co1092 O1102 2.021 1_455 S
Co1092 O1104 2.137 . S
Co1092 O1105 2.244 . S
O1093 Co1092 2.216 1_655 S
O1093 C1100 1.247 . S
O1094 Co1092 2.091 1_655 S
O1094 C1100 1.261 . S
C1095 O1104 1.247 . S
C1095 O1105 1.272 . S
O1096 Co1092 2.004 . S
O1096 C1101 1.259 . S
Co1097 O1098 2.061 . S
Co1097 O1103 2.052 1_455 S
Co1097 O1105 2.135 . S
O1098 Co1097 2.061 . S
O1098 C1101 1.235 . S
C1099 O1102 1.238 . S
C1099 O1103 1.241 . S
C1100 O1093 1.247 . S
C1100 O1094 1.261 . S
C1101 O1096 1.259 . S
C1101 O1098 1.235 . S
O1102 Co1092 2.021 1_655 S
O1102 C1099 1.238 . S
O1103 Co1097 2.052 1_655 S
O1103 C1099 1.241 . S
O1104 Co1092 2.137 . S
O1104 C1095 1.247 . S
O1105 Co1092 2.244 . S
O1105 C1095 1.272 . S
O1105 Co1097 2.135 . S
Co1106 O1107 2.216 . S
Co1106 O1108 2.091 . S
Co1106 O1110 2.004 . S
Co1106 O1116 2.021 . S
Co1106 O1118 2.137 . S
Co1106 O1119 2.244 . S
O1107 Co1106 2.216 . S
O1107 C1114 1.247 . S
O1108 Co1106 2.091 . S
O1108 C1114 1.261 . S
C1109 O1118 1.247 . S
C1109 O1119 1.272 . S
O1110 Co1106 2.004 . S
O1110 C1115 1.259 . S
Co1111 O1112 2.061 . S
Co1111 O1117 2.052 . S
Co1111 O1119 2.135 . S
O1112 Co1111 2.061 . S
O1112 C1115 1.235 . S
C1113 O1116 1.238 . S
C1113 O1117 1.241 . S
C1114 O1107 1.247 . S
C1114 O1108 1.261 . S
C1115 O1110 1.259 . S
C1115 O1112 1.235 . S
O1116 Co1106 2.021 . S
O1116 C1113 1.238 . S
O1117 Co1111 2.052 . S
O1117 C1113 1.241 . S
O1118 Co1106 2.137 . S
O1118 C1109 1.247 . S
O1119 Co1106 2.244 . S
O1119 C1109 1.272 . S
O1119 Co1111 2.135 . S
Co1120 O1121 2.216 . S
Co1120 O1122 2.091 . S
Co1120 O1124 2.004 . S
Co1120 O1130 2.021 . S
Co1120 O1132 2.137 . S
Co1120 O1133 2.244 . S
O1121 Co1120 2.216 . S
O1121 C1128 1.247 . S
O1122 Co1120 2.091 . S
O1122 C1128 1.261 . S
C1123 O1132 1.247 . S
C1123 O1133 1.272 . S
O1124 Co1120 2.004 . S
O1124 C1129 1.259 . S
Co1125 O1126 2.061 . S
Co1125 O1131 2.052 . S
Co1125 O1133 2.135 . S
O1126 Co1125 2.061 . S
O1126 C1129 1.235 . S
C1127 O1130 1.238 . S
C1127 O1131 1.241 . S
C1128 O1121 1.247 . S
C1128 O1122 1.261 . S
C1129 O1124 1.259 . S
C1129 O1126 1.235 . S
O1130 Co1120 2.021 . S
O1130 C1127 1.238 . S
O1131 Co1125 2.052 . S
O1131 C1127 1.241 . S
O1132 Co1120 2.137 . S
O1132 C1123 1.247 . S
O1133 Co1120 2.244 . S
O1133 C1123 1.272 . S
O1133 Co1125 2.135 . S
Co1134 O1135 2.216 . S
Co1134 O1136 2.091 . S
Co1134 O1138 2.004 . S
Co1134 O1144 2.021 . S
Co1134 O1146 2.137 . S
Co1134 O1147 2.244 . S
O1135 Co1134 2.216 . S
O1135 C1142 1.247 . S
O1136 Co1134 2.091 . S
O1136 C1142 1.261 . S
C1137 O1146 1.247 . S
C1137 O1147 1.272 . S
O1138 Co1134 2.004 . S
O1138 C1143 1.259 . S
Co1139 O1140 2.061 . S
Co1139 O1145 2.052 . S
Co1139 O1147 2.135 . S
O1140 Co1139 2.061 . S
O1140 C1143 1.235 . S
C1141 O1144 1.238 . S
C1141 O1145 1.241 . S
C1142 O1135 1.247 . S
C1142 O1136 1.261 . S
C1143 O1138 1.259 . S
C1143 O1140 1.235 . S
O1144 Co1134 2.021 . S
O1144 C1141 1.238 . S
O1145 Co1139 2.052 . S
O1145 C1141 1.241 . S
O1146 Co1134 2.137 . S
O1146 C1137 1.247 . S
O1147 Co1134 2.244 . S
O1147 C1137 1.272 . S
O1147 Co1139 2.135 . S
Co1148 O1149 2.216 . S
Co1148 O1150 2.091 . S
Co1148 O1152 2.004 . S
Co1148 O1158 2.021 . S
Co1148 O1160 2.137 . S
Co1148 O1161 2.244 . S
O1149 Co1148 2.216 . S
O1149 C1156 1.247 . S
O1150 Co1148 2.091 . S
O1150 C1156 1.261 . S
C1151 O1160 1.247 . S
C1151 O1161 1.272 . S
O1152 Co1148 2.004 . S
O1152 C1157 1.259 . S
Co1153 O1154 2.061 . S
Co1153 O1159 2.052 . S
Co1153 O1161 2.135 . S
O1154 Co1153 2.061 . S
O1154 C1157 1.235 . S
C1155 O1158 1.238 . S
C1155 O1159 1.241 . S
C1156 O1149 1.247 . S
C1156 O1150 1.261 . S
C1157 O1152 1.259 . S
C1157 O1154 1.235 . S
O1158 Co1148 2.021 . S
O1158 C1155 1.238 . S
O1159 Co1153 2.052 . S
O1159 C1155 1.241 . S
O1160 Co1148 2.137 . S
O1160 C1151 1.247 . S
O1161 Co1148 2.244 . S
O1161 C1151 1.272 . S
O1161 Co1153 2.135 . S
Co1162 O1163 2.216 . S
Co1162 O1164 2.091 . S
Co1162 O1166 2.004 . S
Co1162 O1172 2.021 . S
Co1162 O1174 2.137 . S
Co1162 O1175 2.244 . S
O1163 Co1162 2.216 . S
O1163 C1170 1.247 . S
O1164 Co1162 2.091 . S
O1164 C1170 1.261 . S
C1165 O1174 1.247 . S
C1165 O1175 1.272 . S
O1166 Co1162 2.004 . S
O1166 C1171 1.259 . S
Co1167 O1168 2.061 . S
Co1167 O1173 2.052 . S
Co1167 O1175 2.135 . S
O1168 Co1167 2.061 . S
O1168 C1171 1.235 . S
C1169 O1172 1.238 . S
C1169 O1173 1.241 . S
C1170 O1163 1.247 . S
C1170 O1164 1.261 . S
C1171 O1166 1.259 . S
C1171 O1168 1.235 . S
O1172 Co1162 2.021 . S
O1172 C1169 1.238 . S
O1173 Co1167 2.052 . S
O1173 C1169 1.241 . S
O1174 Co1162 2.137 . S
O1174 C1165 1.247 . S
O1175 Co1162 2.244 . S
O1175 C1165 1.272 . S
O1175 Co1167 2.135 . S
Co1176 O1177 2.216 . S
Co1176 O1178 2.091 . S
Co1176 O1180 2.004 . S
Co1176 O1186 2.021 . S
Co1176 O1188 2.137 . S
Co1176 O1189 2.244 . S
O1177 Co1176 2.216 . S
O1177 C1184 1.247 . S
O1178 Co1176 2.091 . S
O1178 C1184 1.261 . S
C1179 O1188 1.247 . S
C1179 O1189 1.272 . S
O1180 Co1176 2.004 . S
O1180 C1185 1.259 . S
Co1181 O1182 2.061 . S
Co1181 O1187 2.052 . S
Co1181 O1189 2.135 . S
O1182 Co1181 2.061 . S
O1182 C1185 1.235 . S
C1183 O1186 1.238 . S
C1183 O1187 1.241 . S
C1184 O1177 1.247 . S
C1184 O1178 1.261 . S
C1185 O1180 1.259 . S
C1185 O1182 1.235 . S
O1186 Co1176 2.021 . S
O1186 C1183 1.238 . S
O1187 Co1181 2.052 . S
O1187 C1183 1.241 . S
O1188 Co1176 2.137 . S
O1188 C1179 1.247 . S
O1189 Co1176 2.244 . S
O1189 C1179 1.272 . S
O1189 Co1181 2.135 . S
Co1190 O1191 2.216 . S
Co1190 O1192 2.091 . S
Co1190 O1194 2.004 . S
Co1190 O1200 2.021 . S
Co1190 O1202 2.137 . S
Co1190 O1203 2.244 . S
O1191 Co1190 2.216 . S
O1191 C1198 1.247 . S
O1192 Co1190 2.091 . S
O1192 C1198 1.261 . S
C1193 O1202 1.247 . S
C1193 O1203 1.272 . S
O1194 Co1190 2.004 . S
O1194 C1199 1.259 . S
Co1195 O1196 2.061 . S
Co1195 O1201 2.052 . S
Co1195 O1203 2.135 . S
O1196 Co1195 2.061 . S
O1196 C1199 1.235 . S
C1197 O1200 1.238 . S
C1197 O1201 1.241 . S
C1198 O1191 1.247 . S
C1198 O1192 1.261 . S
C1199 O1194 1.259 . S
C1199 O1196 1.235 . S
O1200 Co1190 2.021 . S
O1200 C1197 1.238 . S
O1201 Co1195 2.052 . S
O1201 C1197 1.241 . S
O1202 Co1190 2.137 . S
O1202 C1193 1.247 . S
O1203 Co1190 2.244 . S
O1203 C1193 1.272 . S
O1203 Co1195 2.135 . S
Co1204 O1205 2.216 . S
Co1204 O1206 2.091 . S
Co1204 O1208 2.004 . S
Co1204 O1214 2.021 . S
Co1204 O1216 2.137 . S
Co1204 O1217 2.244 . S
O1205 Co1204 2.216 . S
O1205 C1212 1.247 . S
O1206 Co1204 2.091 . S
O1206 C1212 1.261 . S
C1207 O1216 1.247 . S
C1207 O1217 1.272 . S
O1208 Co1204 2.004 . S
O1208 C1213 1.259 . S
Co1209 O1210 2.061 . S
Co1209 O1215 2.052 . S
Co1209 O1217 2.135 . S
O1210 Co1209 2.061 . S
O1210 C1213 1.235 . S
C1211 O1214 1.238 . S
C1211 O1215 1.241 . S
C1212 O1205 1.247 . S
C1212 O1206 1.261 . S
C1213 O1208 1.259 . S
C1213 O1210 1.235 . S
O1214 Co1204 2.021 . S
O1214 C1211 1.238 . S
O1215 Co1209 2.052 . S
O1215 C1211 1.241 . S
O1216 Co1204 2.137 . S
O1216 C1207 1.247 . S
O1217 Co1204 2.244 . S
O1217 C1207 1.272 . S
O1217 Co1209 2.135 . S
Co1218 O1219 2.216 . S
Co1218 O1220 2.091 . S
Co1218 O1222 2.004 . S
Co1218 O1228 2.021 . S
Co1218 O1230 2.137 . S
Co1218 O1231 2.244 . S
O1219 Co1218 2.216 . S
O1219 C1226 1.247 . S
O1220 Co1218 2.091 . S
O1220 C1226 1.261 . S
C1221 O1230 1.247 . S
C1221 O1231 1.272 . S
O1222 Co1218 2.004 . S
O1222 C1227 1.259 . S
Co1223 O1224 2.061 . S
Co1223 O1229 2.052 . S
Co1223 O1231 2.135 . S
O1224 Co1223 2.061 . S
O1224 C1227 1.235 . S
C1225 O1228 1.238 . S
C1225 O1229 1.241 . S
C1226 O1219 1.247 . S
C1226 O1220 1.261 . S
C1227 O1222 1.259 . S
C1227 O1224 1.235 . S
O1228 Co1218 2.021 . S
O1228 C1225 1.238 . S
O1229 Co1223 2.052 . S
O1229 C1225 1.241 . S
O1230 Co1218 2.137 . S
O1230 C1221 1.247 . S
O1231 Co1218 2.244 . S
O1231 C1221 1.272 . S
O1231 Co1223 2.135 . S
Co1232 O1233 2.216 . S
Co1232 O1234 2.091 . S
Co1232 O1236 2.004 . S
Co1232 O1242 2.021 . S
Co1232 O1244 2.137 . S
Co1232 O1245 2.244 . S
O1233 Co1232 2.216 . S
O1233 C1240 1.247 . S
O1234 Co1232 2.091 . S
O1234 C1240 1.261 . S
C1235 O1244 1.247 . S
C1235 O1245 1.272 . S
O1236 Co1232 2.004 . S
O1236 C1241 1.259 . S
Co1237 O1238 2.061 . S
Co1237 O1243 2.052 . S
Co1237 O1245 2.135 . S
O1238 Co1237 2.061 . S
O1238 C1241 1.235 . S
C1239 O1242 1.238 . S
C1239 O1243 1.241 . S
C1240 O1233 1.247 . S
C1240 O1234 1.261 . S
C1241 O1236 1.259 . S
C1241 O1238 1.235 . S
O1242 Co1232 2.021 . S
O1242 C1239 1.238 . S
O1243 Co1237 2.052 . S
O1243 C1239 1.241 . S
O1244 Co1232 2.137 . S
O1244 C1235 1.247 . S
O1245 Co1232 2.244 . S
O1245 C1235 1.272 . S
O1245 Co1237 2.135 . S
Co1246 O1247 2.216 . S
Co1246 O1248 2.091 . S
Co1246 O1250 2.004 . S
Co1246 O1256 2.021 . S
Co1246 O1258 2.137 . S
Co1246 O1259 2.244 . S
O1247 Co1246 2.216 . S
O1247 C1254 1.247 . S
O1248 Co1246 2.091 . S
O1248 C1254 1.261 . S
C1249 O1258 1.247 . S
C1249 O1259 1.272 . S
O1250 Co1246 2.004 . S
O1250 C1255 1.259 . S
Co1251 O1252 2.061 . S
Co1251 O1257 2.052 . S
Co1251 O1259 2.135 . S
O1252 Co1251 2.061 . S
O1252 C1255 1.235 . S
C1253 O1256 1.238 . S
C1253 O1257 1.241 . S
C1254 O1247 1.247 . S
C1254 O1248 1.261 . S
C1255 O1250 1.259 . S
C1255 O1252 1.235 . S
O1256 Co1246 2.021 . S
O1256 C1253 1.238 . S
O1257 Co1251 2.052 . S
O1257 C1253 1.241 . S
O1258 Co1246 2.137 . S
O1258 C1249 1.247 . S
O1259 Co1246 2.244 . S
O1259 C1249 1.272 . S
O1259 Co1251 2.135 . S
Co1260 O1261 2.216 . S
Co1260 O1262 2.091 . S
Co1260 O1264 2.004 . S
Co1260 O1270 2.021 . S
Co1260 O1272 2.137 . S
Co1260 O1273 2.244 . S
O1261 Co1260 2.216 . S
O1261 C1268 1.247 . S
O1262 Co1260 2.091 . S
O1262 C1268 1.261 . S
C1263 O1272 1.247 . S
C1263 O1273 1.272 . S
O1264 Co1260 2.004 . S
O1264 C1269 1.259 . S
Co1265 O1266 2.061 . S
Co1265 O1271 2.052 . S
Co1265 O1273 2.135 . S
O1266 Co1265 2.061 . S
O1266 C1269 1.235 . S
C1267 O1270 1.238 . S
C1267 O1271 1.241 . S
C1268 O1261 1.247 . S
C1268 O1262 1.261 . S
C1269 O1264 1.259 . S
C1269 O1266 1.235 . S
O1270 Co1260 2.021 . S
O1270 C1267 1.238 . S
O1271 Co1265 2.052 . S
O1271 C1267 1.241 . S
O1272 Co1260 2.137 . S
O1272 C1263 1.247 . S
O1273 Co1260 2.244 . S
O1273 C1263 1.272 . S
O1273 Co1265 2.135 . S
Co1274 O1275 2.216 1_554 S
Co1274 O1276 2.091 1_554 S
Co1274 O1278 2.004 . S
Co1274 O1284 2.021 1_554 S
Co1274 O1286 2.137 . S
Co1274 O1287 2.244 . S
O1275 Co1274 2.216 1_556 S
O1275 C1282 1.247 . S
O1276 Co1274 2.091 1_556 S
O1276 C1282 1.261 . S
C1277 O1286 1.247 . S
C1277 O1287 1.272 . S
O1278 Co1274 2.004 . S
O1278 C1283 1.259 . S
Co1279 O1280 2.061 . S
Co1279 O1285 2.052 1_554 S
Co1279 O1287 2.135 . S
O1280 Co1279 2.061 . S
O1280 C1283 1.235 . S
C1281 O1284 1.238 . S
C1281 O1285 1.241 . S
C1282 O1275 1.247 . S
C1282 O1276 1.261 . S
C1283 O1278 1.259 . S
C1283 O1280 1.235 . S
O1284 Co1274 2.021 1_556 S
O1284 C1281 1.238 . S
O1285 Co1279 2.052 1_556 S
O1285 C1281 1.241 . S
O1286 Co1274 2.137 . S
O1286 C1277 1.247 . S
O1287 Co1274 2.244 . S
O1287 C1277 1.272 . S
O1287 Co1279 2.135 . S
Co1288 O1289 2.216 . S
Co1288 O1290 2.091 . S
Co1288 O1292 2.004 . S
Co1288 O1298 2.021 . S
Co1288 O1300 2.137 . S
Co1288 O1301 2.244 . S
O1289 Co1288 2.216 . S
O1289 C1296 1.247 . S
O1290 Co1288 2.091 . S
O1290 C1296 1.261 . S
C1291 O1300 1.247 . S
C1291 O1301 1.272 . S
O1292 Co1288 2.004 . S
O1292 C1297 1.259 . S
Co1293 O1294 2.061 . S
Co1293 O1299 2.052 . S
Co1293 O1301 2.135 . S
O1294 Co1293 2.061 . S
O1294 C1297 1.235 . S
C1295 O1298 1.238 . S
C1295 O1299 1.241 . S
C1296 O1289 1.247 . S
C1296 O1290 1.261 . S
C1297 O1292 1.259 . S
C1297 O1294 1.235 . S
O1298 Co1288 2.021 . S
O1298 C1295 1.238 . S
O1299 Co1293 2.052 . S
O1299 C1295 1.241 . S
O1300 Co1288 2.137 . S
O1300 C1291 1.247 . S
O1301 Co1288 2.244 . S
O1301 C1291 1.272 . S
O1301 Co1293 2.135 . S
Co1302 O1303 2.216 1_556 S
Co1302 O1304 2.091 1_556 S
Co1302 O1306 2.004 . S
Co1302 O1312 2.021 1_556 S
Co1302 O1314 2.137 . S
Co1302 O1315 2.244 . S
O1303 Co1302 2.216 1_554 S
O1303 C1310 1.247 . S
O1304 Co1302 2.091 1_554 S
O1304 C1310 1.261 . S
C1305 O1314 1.247 . S
C1305 O1315 1.272 . S
O1306 Co1302 2.004 . S
O1306 C1311 1.259 . S
Co1307 O1308 2.061 . S
Co1307 O1313 2.052 1_556 S
Co1307 O1315 2.135 . S
O1308 Co1307 2.061 . S
O1308 C1311 1.235 . S
C1309 O1312 1.238 . S
C1309 O1313 1.241 . S
C1310 O1303 1.247 . S
C1310 O1304 1.261 . S
C1311 O1306 1.259 . S
C1311 O1308 1.235 . S
O1312 Co1302 2.021 1_554 S
O1312 C1309 1.238 . S
O1313 Co1307 2.052 1_554 S
O1313 C1309 1.241 . S
O1314 Co1302 2.137 . S
O1314 C1305 1.247 . S
O1315 Co1302 2.244 . S
O1315 C1305 1.272 . S
O1315 Co1307 2.135 . S
Co1316 O1317 2.216 . S
Co1316 O1318 2.091 . S
Co1316 O1320 2.004 . S
Co1316 O1326 2.021 . S
Co1316 O1328 2.137 . S
Co1316 O1329 2.244 . S
O1317 Co1316 2.216 . S
O1317 C1324 1.247 . S
O1318 Co1316 2.091 . S
O1318 C1324 1.261 . S
C1319 O1328 1.247 . S
C1319 O1329 1.272 . S
O1320 Co1316 2.004 . S
O1320 C1325 1.259 . S
Co1321 O1322 2.061 . S
Co1321 O1327 2.052 . S
Co1321 O1329 2.135 . S
O1322 Co1321 2.061 . S
O1322 C1325 1.235 . S
C1323 O1326 1.238 . S
C1323 O1327 1.241 . S
C1324 O1317 1.247 . S
C1324 O1318 1.261 . S
C1325 O1320 1.259 . S
C1325 O1322 1.235 . S
O1326 Co1316 2.021 . S
O1326 C1323 1.238 . S
O1327 Co1321 2.052 . S
O1327 C1323 1.241 . S
O1328 Co1316 2.137 . S
O1328 C1319 1.247 . S
O1329 Co1316 2.244 . S
O1329 C1319 1.272 . S
O1329 Co1321 2.135 . S
Co1330 O1331 2.216 . S
Co1330 O1332 2.091 . S
Co1330 O1334 2.004 . S
Co1330 O1340 2.021 . S
Co1330 O1342 2.137 . S
Co1330 O1343 2.244 . S
O1331 Co1330 2.216 . S
O1331 C1338 1.247 . S
O1332 Co1330 2.091 . S
O1332 C1338 1.261 . S
C1333 O1342 1.247 . S
C1333 O1343 1.272 . S
O1334 Co1330 2.004 . S
O1334 C1339 1.259 . S
Co1335 O1336 2.061 . S
Co1335 O1341 2.052 . S
Co1335 O1343 2.135 . S
O1336 Co1335 2.061 . S
O1336 C1339 1.235 . S
C1337 O1340 1.238 . S
C1337 O1341 1.241 . S
C1338 O1331 1.247 . S
C1338 O1332 1.261 . S
C1339 O1334 1.259 . S
C1339 O1336 1.235 . S
O1340 Co1330 2.021 . S
O1340 C1337 1.238 . S
O1341 Co1335 2.052 . S
O1341 C1337 1.241 . S
O1342 Co1330 2.137 . S
O1342 C1333 1.247 . S
O1343 Co1330 2.244 . S
O1343 C1333 1.272 . S
O1343 Co1335 2.135 . S
C9 C1057 1.675 . S
C343 C23 1.685 . S
C1029 C37 1.674 . S
C371 C51 1.686 . S
C65 C1085 1.675 . S
C79 C427 1.685 . S
C1113 C93 1.675 . S
C107 C399 1.686 . S
C119 C1267 1.534 . S
C609 C135 1.684 . S
C147 C623 1.533 . S
C163 C581 1.683 . S
C175 C1323 1.533 . S
C191 C1239 1.685 . S
C203 C1337 1.535 . S
C219 C1309 1.683 . S
C1141 C233 1.669 . S
C247 C553 1.702 . S
C259 C1183 1.521 . S
C525 C275 1.715 . S
C287 C539 1.590 . S
C1169 C303 1.671 . S
C315 C1127 1.521 . S
C1155 C329 1.521 . S
C721 C345 1.603 . S
C7 C359 1.695 . S
C373 C693 1.616 . S
C387 C35 1.693 . S
C401 C749 1.616 . S
C91 C415 1.695 . S
C429 C777 1.603 . S
C443 C63 1.693 . S
C457 C933 1.235 . S
C273 C471 1.613 . S
C485 C289 1.241 . S
C245 C499 1.614 . S
C513 C989 1.241 . S
C527 C903 1.614 . S
C541 C1003 1.236 . S
C973 C555 1.614 . S
C805 C569 1.645 . S
C217 C583 1.617 . S
C849 C597 1.369 . S
C611 C189 1.617 . S
C625 C205 1.365 . S
C639 C833 1.645 . S
C793 C653 1.370 . S
C667 C821 1.369 . S
C385 C681 1.706 . S
C1015 C695 1.664 . S
C709 C357 1.709 . S
C1043 C723 1.665 . S
C737 C413 1.709 . S
C1099 C751 1.664 . S
C765 C441 1.706 . S
C1071 C779 1.664 . S
C595 C791 1.530 . S
C807 C1281 1.700 . S
C1295 C819 1.526 . S
C835 C1253 1.700 . S
C651 C847 1.527 . S
C863 C567 1.700 . S
C665 C875 1.530 . S
C637 C891 1.699 . S
C469 C905 1.715 . S
C1225 C919 1.672 . S
C931 C511 1.583 . S
C947 C1197 1.669 . S
C1211 C959 1.521 . S
C497 C975 1.702 . S
C455 C987 1.590 . S
C483 C1001 1.583 . S
C1017 C49 1.624 . S
C1031 C679 1.587 . S
C1045 C21 1.630 . S
C1059 C707 1.587 . S
C77 C1073 1.630 . S
C763 C1087 1.587 . S
C105 C1101 1.624 . S
C735 C1115 1.587 . S
C1129 C261 1.370 . S
C945 C1143 1.610 . S
C1157 C961 1.370 . S
C1171 C917 1.610 . S
C317 C1185 1.370 . S
C231 C1199 1.610 . S
C1213 C331 1.370 . S
C301 C1227 1.610 . S
C1241 C133 1.616 . S
C1255 C889 1.645 . S
C177 C1269 1.362 . S
C1283 C861 1.645 . S
C877 C1297 1.370 . S
C1311 C161 1.617 . S
C1325 C121 1.364 . S
C1339 C149 1.362 . S
C3 C610 1.445 . S
C624 C17 1.539 . S
C582 C31 1.446 . S
C45 C1268 1.535 . S
C59 C1310 1.446 . S
C73 C1324 1.538 . S
C1240 C87 1.445 . S
C1338 C101 1.536 . S
C372 C120 1.413 . S
C129 C1058 1.420 . S
C344 C148 1.413 . S
C1030 C157 1.420 . S
C428 C176 1.413 . S
C185 C1114 1.420 . S
C204 C400 1.413 . S
C213 C1086 1.420 . S
C227 C1184 1.525 . S
C456 C241 1.497 . S
C260 C1142 1.418 . S
C269 C484 1.515 . S
C288 C498 1.362 . S
C297 C1212 1.524 . S
C1226 C316 1.418 . S
C1198 C330 1.417 . S
C274 C339 1.475 . S
C353 C283 1.539 . S
C367 C246 1.476 . S
C381 C927 1.536 . S
C974 C395 1.477 . S
C983 C409 1.539 . S
C423 C904 1.474 . S
C997 C437 1.536 . S
C451 C36 1.458 . S
C722 C465 1.466 . S
C479 C8 1.452 . S
C694 C493 1.460 . S
C507 C92 1.452 . S
C778 C521 1.467 . S
C64 C535 1.458 . S
C750 C549 1.459 . S
C563 C843 1.521 . S
C577 C115 1.526 . S
C806 C591 1.568 . S
C605 C143 1.529 . S
C162 C619 1.567 . S
C871 C633 1.522 . S
C890 C647 1.567 . S
C862 C661 1.567 . S
C675 C1282 1.428 . S
C689 C1296 1.541 . S
C703 C1254 1.428 . S
C596 C717 1.537 . S
C731 C638 1.428 . S
C652 C745 1.541 . S
C568 C759 1.428 . S
C666 C773 1.537 . S
C792 C1044 1.431 . S
C386 C801 1.458 . S
C820 C1016 1.430 . S
C829 C358 1.458 . S
C848 C1100 1.431 . S
C857 C442 1.458 . S
C1072 C876 1.431 . S
C414 C885 1.458 . S
C899 C512 1.515 . S
C913 C1128 1.523 . S
C932 C470 1.357 . S
C1156 C941 1.525 . S
C960 C1170 1.417 . S
C969 C540 1.497 . S
C554 C988 1.361 . S
C1002 C526 1.356 . S
C1011 C946 1.464 . S
C955 C1025 1.501 . S
C918 C1039 1.465 . S
C1053 C255 1.502 . S
C1067 C302 1.465 . S
C1081 C311 1.501 . S
C232 C1095 1.464 . S
C1109 C325 1.502 . S
C1123 C708 1.551 . S
C1137 C50 1.466 . S
C1151 C680 1.551 . S
C1165 C22 1.468 . S
C1179 C764 1.551 . S
C1193 C106 1.466 . S
C1207 C736 1.552 . S
C1221 C78 1.468 . S
C1235 C171 1.529 . S
C1249 C787 1.522 . S
C1263 C134 1.569 . S
C1277 C815 1.521 . S
C1291 C834 1.567 . S
C199 C1305 1.526 . S
C1319 C218 1.567 . S
C1333 C190 1.569 . S
