# Generated by pormake.
# Topology unl, (4)-cn, num edge types: 1
# Building blocks:
#     Node 0, Type 0, BuildingBlock: QUQFOY_clean_sbu_1, # of connection points: 4
#     Node 1, Type 0, BuildingBlock: QUQFOY_clean_sbu_1, # of connection points: 4
#     Node 2, Type 0, BuildingBlock: QUQFOY_clean_sbu_1, # of connection points: 4
#     Node 3, Type 0, BuildingBlock: QUQFOY_clean_sbu_1, # of connection points: 4
#     Node 4, Type 0, BuildingBlock: QUQFOY_clean_sbu_1, # of connection points: 4
#     Node 5, Type 0, BuildingBlock: QUQFOY_clean_sbu_1, # of connection points: 4
#     Node 6, Type 0, BuildingBlock: QUQFOY_clean_sbu_1, # of connection points: 4
#     Node 7, Type 0, BuildingBlock: QUQFOY_clean_sbu_1, # of connection points: 4
#     Node 8, Type 0, BuildingBlock: QUQFOY_clean_sbu_1, # of connection points: 4
#     Node 9, Type 0, BuildingBlock: QUQFOY_clean_sbu_1, # of connection points: 4
#     Node 10, Type 0, BuildingBlock: QUQFOY_clean_sbu_1, # of connection points: 4
#     Node 11, Type 0, BuildingBlock: QUQFOY_clean_sbu_1, # of connection points: 4
#     Node 12, Type 0, BuildingBlock: QUQFOY_clean_sbu_1, # of connection points: 4
#     Node 13, Type 0, BuildingBlock: QUQFOY_clean_sbu_1, # of connection points: 4
#     Node 14, Type 0, BuildingBlock: QUQFOY_clean_sbu_1, # of connection points: 4
#     Node 15, Type 0, BuildingBlock: QUQFOY_clean_sbu_1, # of connection points: 4
#     Node 16, Type 0, BuildingBlock: QUQFOY_clean_sbu_1, # of connection points: 4
#     Node 17, Type 0, BuildingBlock: QUQFOY_clean_sbu_1, # of connection points: 4
#     Node 18, Type 0, BuildingBlock: QUQFOY_clean_sbu_1, # of connection points: 4
#     Node 19, Type 0, BuildingBlock: QUQFOY_clean_sbu_1, # of connection points: 4
#     Node 20, Type 0, BuildingBlock: QUQFOY_clean_sbu_1, # of connection points: 4
#     Node 21, Type 0, BuildingBlock: QUQFOY_clean_sbu_1, # of connection points: 4
#     Node 22, Type 0, BuildingBlock: QUQFOY_clean_sbu_1, # of connection points: 4
#     Node 23, Type 0, BuildingBlock: QUQFOY_clean_sbu_1, # of connection points: 4
#     Node 24, Type 0, BuildingBlock: QUQFOY_clean_sbu_1, # of connection points: 4
#     Node 25, Type 0, BuildingBlock: QUQFOY_clean_sbu_1, # of connection points: 4
#     Node 26, Type 0, BuildingBlock: QUQFOY_clean_sbu_1, # of connection points: 4
#     Node 27, Type 0, BuildingBlock: QUQFOY_clean_sbu_1, # of connection points: 4
#     Node 28, Type 0, BuildingBlock: QUQFOY_clean_sbu_1, # of connection points: 4
#     Node 29, Type 0, BuildingBlock: QUQFOY_clean_sbu_1, # of connection points: 4
#     Node 30, Type 0, BuildingBlock: QUQFOY_clean_sbu_1, # of connection points: 4
#     Node 31, Type 0, BuildingBlock: QUQFOY_clean_sbu_1, # of connection points: 4
#     Node 32, Type 0, BuildingBlock: QUQFOY_clean_sbu_1, # of connection points: 4
#     Node 33, Type 0, BuildingBlock: QUQFOY_clean_sbu_1, # of connection points: 4
#     Node 34, Type 0, BuildingBlock: QUQFOY_clean_sbu_1, # of connection points: 4
#     Node 35, Type 0, BuildingBlock: QUQFOY_clean_sbu_1, # of connection points: 4
#     Edge 36, Type (0, 0), BuildingBlock: CIFDUS_clean_linker_0, # of connection points: 2
#     Edge 37, Type (0, 0), BuildingBlock: CIFDUS_clean_linker_0, # of connection points: 2
#     Edge 38, Type (0, 0), BuildingBlock: CIFDUS_clean_linker_0, # of connection points: 2
#     Edge 39, Type (0, 0), BuildingBlock: CIFDUS_clean_linker_0, # of connection points: 2
#     Edge 40, Type (0, 0), BuildingBlock: CIFDUS_clean_linker_0, # of connection points: 2
#     Edge 41, Type (0, 0), BuildingBlock: CIFDUS_clean_linker_0, # of connection points: 2
#     Edge 42, Type (0, 0), BuildingBlock: CIFDUS_clean_linker_0, # of connection points: 2
#     Edge 43, Type (0, 0), BuildingBlock: CIFDUS_clean_linker_0, # of connection points: 2
#     Edge 44, Type (0, 0), BuildingBlock: CIFDUS_clean_linker_0, # of connection points: 2
#     Edge 45, Type (0, 0), BuildingBlock: CIFDUS_clean_linker_0, # of connection points: 2
#     Edge 46, Type (0, 0), BuildingBlock: CIFDUS_clean_linker_0, # of connection points: 2
#     Edge 47, Type (0, 0), BuildingBlock: CIFDUS_clean_linker_0, # of connection points: 2
#     Edge 48, Type (0, 0), BuildingBlock: CIFDUS_clean_linker_0, # of connection points: 2
#     Edge 49, Type (0, 0), BuildingBlock: CIFDUS_clean_linker_0, # of connection points: 2
#     Edge 50, Type (0, 0), BuildingBlock: CIFDUS_clean_linker_0, # of connection points: 2
#     Edge 51, Type (0, 0), BuildingBlock: CIFDUS_clean_linker_0, # of connection points: 2
#     Edge 52, Type (0, 0), BuildingBlock: CIFDUS_clean_linker_0, # of connection points: 2
#     Edge 53, Type (0, 0), BuildingBlock: CIFDUS_clean_linker_0, # of connection points: 2
#     Edge 54, Type (0, 0), BuildingBlock: CIFDUS_clean_linker_0, # of connection points: 2
#     Edge 55, Type (0, 0), BuildingBlock: CIFDUS_clean_linker_0, # of connection points: 2
#     Edge 56, Type (0, 0), BuildingBlock: CIFDUS_clean_linker_0, # of connection points: 2
#     Edge 57, Type (0, 0), BuildingBlock: CIFDUS_clean_linker_0, # of connection points: 2
#     Edge 58, Type (0, 0), BuildingBlock: CIFDUS_clean_linker_0, # of connection points: 2
#     Edge 59, Type (0, 0), BuildingBlock: CIFDUS_clean_linker_0, # of connection points: 2
#     Edge 60, Type (0, 0), BuildingBlock: CIFDUS_clean_linker_0, # of connection points: 2
#     Edge 61, Type (0, 0), BuildingBlock: CIFDUS_clean_linker_0, # of connection points: 2
#     Edge 62, Type (0, 0), BuildingBlock: CIFDUS_clean_linker_0, # of connection points: 2
#     Edge 63, Type (0, 0), BuildingBlock: CIFDUS_clean_linker_0, # of connection points: 2
#     Edge 64, Type (0, 0), BuildingBlock: CIFDUS_clean_linker_0, # of connection points: 2
#     Edge 65, Type (0, 0), BuildingBlock: CIFDUS_clean_linker_0, # of connection points: 2
#     Edge 66, Type (0, 0), BuildingBlock: CIFDUS_clean_linker_0, # of connection points: 2
#     Edge 67, Type (0, 0), BuildingBlock: CIFDUS_clean_linker_0, # of connection points: 2
#     Edge 68, Type (0, 0), BuildingBlock: CIFDUS_clean_linker_0, # of connection points: 2
#     Edge 69, Type (0, 0), BuildingBlock: CIFDUS_clean_linker_0, # of connection points: 2
#     Edge 70, Type (0, 0), BuildingBlock: CIFDUS_clean_linker_0, # of connection points: 2
#     Edge 71, Type (0, 0), BuildingBlock: CIFDUS_clean_linker_0, # of connection points: 2
#     Edge 72, Type (0, 0), BuildingBlock: CIFDUS_clean_linker_0, # of connection points: 2
#     Edge 73, Type (0, 0), BuildingBlock: CIFDUS_clean_linker_0, # of connection points: 2
#     Edge 74, Type (0, 0), BuildingBlock: CIFDUS_clean_linker_0, # of connection points: 2
#     Edge 75, Type (0, 0), BuildingBlock: CIFDUS_clean_linker_0, # of connection points: 2
#     Edge 76, Type (0, 0), BuildingBlock: CIFDUS_clean_linker_0, # of connection points: 2
#     Edge 77, Type (0, 0), BuildingBlock: CIFDUS_clean_linker_0, # of connection points: 2
#     Edge 78, Type (0, 0), BuildingBlock: CIFDUS_clean_linker_0, # of connection points: 2
#     Edge 79, Type (0, 0), BuildingBlock: CIFDUS_clean_linker_0, # of connection points: 2
#     Edge 80, Type (0, 0), BuildingBlock: CIFDUS_clean_linker_0, # of connection points: 2
#     Edge 81, Type (0, 0), BuildingBlock: CIFDUS_clean_linker_0, # of connection points: 2
#     Edge 82, Type (0, 0), BuildingBlock: CIFDUS_clean_linker_0, # of connection points: 2
#     Edge 83, Type (0, 0), BuildingBlock: CIFDUS_clean_linker_0, # of connection points: 2
#     Edge 84, Type (0, 0), BuildingBlock: CIFDUS_clean_linker_0, # of connection points: 2
#     Edge 85, Type (0, 0), BuildingBlock: CIFDUS_clean_linker_0, # of connection points: 2
#     Edge 86, Type (0, 0), BuildingBlock: CIFDUS_clean_linker_0, # of connection points: 2
#     Edge 87, Type (0, 0), BuildingBlock: CIFDUS_clean_linker_0, # of connection points: 2
#     Edge 88, Type (0, 0), BuildingBlock: CIFDUS_clean_linker_0, # of connection points: 2
#     Edge 89, Type (0, 0), BuildingBlock: CIFDUS_clean_linker_0, # of connection points: 2
#     Edge 90, Type (0, 0), BuildingBlock: CIFDUS_clean_linker_0, # of connection points: 2
#     Edge 91, Type (0, 0), BuildingBlock: CIFDUS_clean_linker_0, # of connection points: 2
#     Edge 92, Type (0, 0), BuildingBlock: CIFDUS_clean_linker_0, # of connection points: 2
#     Edge 93, Type (0, 0), BuildingBlock: CIFDUS_clean_linker_0, # of connection points: 2
#     Edge 94, Type (0, 0), BuildingBlock: CIFDUS_clean_linker_0, # of connection points: 2
#     Edge 95, Type (0, 0), BuildingBlock: CIFDUS_clean_linker_0, # of connection points: 2
#     Edge 96, Type (0, 0), BuildingBlock: CIFDUS_clean_linker_0, # of connection points: 2
#     Edge 97, Type (0, 0), BuildingBlock: CIFDUS_clean_linker_0, # of connection points: 2
#     Edge 98, Type (0, 0), BuildingBlock: CIFDUS_clean_linker_0, # of connection points: 2
#     Edge 99, Type (0, 0), BuildingBlock: CIFDUS_clean_linker_0, # of connection points: 2
#     Edge 100, Type (0, 0), BuildingBlock: CIFDUS_clean_linker_0, # of connection points: 2
#     Edge 101, Type (0, 0), BuildingBlock: CIFDUS_clean_linker_0, # of connection points: 2
#     Edge 102, Type (0, 0), BuildingBlock: CIFDUS_clean_linker_0, # of connection points: 2
#     Edge 103, Type (0, 0), BuildingBlock: CIFDUS_clean_linker_0, # of connection points: 2
#     Edge 104, Type (0, 0), BuildingBlock: CIFDUS_clean_linker_0, # of connection points: 2
#     Edge 105, Type (0, 0), BuildingBlock: CIFDUS_clean_linker_0, # of connection points: 2
#     Edge 106, Type (0, 0), BuildingBlock: CIFDUS_clean_linker_0, # of connection points: 2
#     Edge 107, Type (0, 0), BuildingBlock: CIFDUS_clean_linker_0, # of connection points: 2
# Relax obj value: 0.016
# Max RMSD: 0.070
# Mean RMSD: 0.070
data_MOF--net-unl--node1-QUQFOY_clean_sbu_1--edge1-CIFDUS_clean_linker_0
_symmetry_space_group_name_H-M    P1
_symmetry_Int_Tables_number       1
_symmetry_cell_setting            triclinic
loop_
_symmetry_equiv_pos_as_xyz
'x, y, z'
_cell_length_a     59.969731
_cell_length_b     60.072709
_cell_length_c     36.204748
_cell_angle_alpha  89.961992
_cell_angle_beta   90.020643
_cell_angle_gamma 120.59775
loop_
_atom_site_label
_atom_site_type_symbol
_atom_site_fract_x
_atom_site_fract_y
_atom_site_fract_z
_atom_type_partial_charge
O0 O 0.23624 0.17954 0.15054 0.0
Cd1 Cd 0.2568 0.17633 0.1076 0.0
Cd2 Cd 0.21505 0.12797 0.10405 0.0
O3 O 0.20604 0.13832 0.154 0.0
O4 O 0.2945 0.19818 0.11963 0.0
O5 O 0.27357 0.15536 0.11725 0.0
C6 C 0.29465 0.17692 0.12436 0.0
C7 C 0.20433 0.08515 0.09355 0.0
C8 C 0.21649 0.16127 0.16645 0.0
C9 C 0.22527 0.16591 0.04068 0.0
O10 O 0.21056 0.1445 0.05676 0.0
O11 O 0.24679 0.18238 0.05516 0.0
O12 O 0.18688 0.09136 0.0978 0.0
O13 O 0.22824 0.10316 0.09746 0.0
O14 O 0.86709 0.07321 0.14372 0.0
Cd15 Cd 0.87159 0.09484 0.0976 0.0
Cd16 Cd 0.91712 0.09658 0.09618 0.0
O17 O 0.90672 0.07989 0.14841 0.0
O18 O 0.84598 0.10635 0.10472 0.0
O19 O 0.88841 0.13312 0.10617 0.0
C20 C 0.86534 0.12929 0.11072 0.0
C21 C 0.95701 0.13315 0.08159 0.0
C22 C 0.88386 0.07038 0.16113 0.0
C23 C 0.8785 0.06676 0.03553 0.0
O24 O 0.89936 0.07212 0.05208 0.0
O25 O 0.86458 0.07564 0.04746 0.0
O26 O 0.95503 0.11113 0.08847 0.0
O27 O 0.93647 0.13482 0.08535 0.0
O28 O 0.98104 0.81655 0.15064 0.0
Cd29 Cd 0.95736 0.79713 0.1068 0.0
Cd30 Cd 0.95124 0.83845 0.10599 0.0
O31 O 0.9705 0.84661 0.15624 0.0
O32 O 0.94178 0.75933 0.11647 0.0
O33 O 0.91912 0.77917 0.11555 0.0
C34 C 0.91991 0.75831 0.12122 0.0
C35 C 0.91797 0.84737 0.09562 0.0
C36 C 0.98283 0.83588 0.16772 0.0
C37 C 0.97988 0.83056 0.04201 0.0
O38 O 0.97321 0.84476 0.05906 0.0
O39 O 0.97416 0.80861 0.05503 0.0
O40 O 0.94157 0.86549 0.10094 0.0
O41 O 0.91275 0.82377 0.09857 0.0
O42 O 0.19377 0.23738 0.35636 0.0
Cd43 Cd 0.18749 0.25342 0.40204 0.0
Cd44 Cd 0.14268 0.20804 0.40255 0.0
O45 O 0.1546 0.20322 0.35075 0.0
O46 O 0.20909 0.29138 0.39338 0.0
O47 O 0.16615 0.27 0.39415 0.0
C48 C 0.18774 0.2913 0.38813 0.0
C49 C 0.09977 0.19661 0.41508 0.0
C50 C 0.17754 0.21743 0.33859 0.0
C51 C 0.18165 0.21937 0.4643 0.0
O52 O 0.16105 0.20327 0.44746 0.0
O53 O 0.19536 0.24242 0.45237 0.0
O54 O 0.10608 0.17945 0.40843 0.0
O55 O 0.11771 0.22063 0.41249 0.0
O56 O 0.82525 0.973 0.34904 0.0
Cd57 Cd 0.80437 0.94986 0.39264 0.0
Cd58 Cd 0.8445 0.94183 0.39522 0.0
O59 O 0.85376 0.96029 0.34424 0.0
O60 O 0.76655 0.93448 0.38116 0.0
O61 O 0.78616 0.91169 0.38362 0.0
C62 C 0.7655 0.91262 0.37659 0.0
C63 C 0.84884 0.90599 0.40827 0.0
C64 C 0.84417 0.97357 0.33229 0.0
C65 C 0.83808 0.97239 0.45763 0.0
O66 O 0.85186 0.96499 0.44102 0.0
O67 O 0.81612 0.96688 0.44456 0.0
O68 O 0.86871 0.92858 0.40239 0.0
O69 O 0.8262 0.90327 0.40421 0.0
O70 O 0.08706 0.85714 0.35128 0.0
Cd71 Cd 0.11067 0.86284 0.39555 0.0
Cd72 Cd 0.1114 0.90885 0.39718 0.0
O73 O 0.09238 0.8962 0.34685 0.0
O74 O 0.12191 0.83718 0.38783 0.0
O75 O 0.14877 0.87948 0.38467 0.0
C76 C 0.14478 0.85633 0.38076 0.0
C77 C 0.14233 0.95239 0.40804 0.0
C78 C 0.08289 0.87327 0.33461 0.0
C79 C 0.08559 0.87062 0.46053 0.0
O80 O 0.09005 0.89113 0.44389 0.0
O81 O 0.09358 0.85636 0.44717 0.0
O82 O 0.11824 0.94477 0.40279 0.0
O83 O 0.14937 0.93543 0.40472 0.0
O84 O 0.81238 0.85389 0.85129 0.0
Cd85 Cd 0.79394 0.85865 0.89551 0.0
Cd86 Cd 0.83938 0.90512 0.89876 0.0
O87 O 0.84613 0.89351 0.84803 0.0
O88 O 0.75651 0.83359 0.88658 0.0
O89 O 0.77362 0.87608 0.88463 0.0
C90 C 0.75379 0.85317 0.87976 0.0
C91 C 0.85203 0.9484 0.91019 0.0
C92 C 0.83288 0.87071 0.83507 0.0
C93 C 0.82642 0.8661 0.961 0.0
O94 O 0.84272 0.88701 0.94506 0.0
O95 O 0.80408 0.85168 0.94708 0.0
O96 O 0.8687 0.94121 0.90525 0.0
O97 O 0.82781 0.93114 0.90649 0.0
O98 O 0.19121 0.9733 0.85116 0.0
Cd99 Cd 0.1893 0.94968 0.89342 0.0
Cd100 Cd 0.14216 0.94314 0.90052 0.0
O101 O 0.14991 0.96146 0.84948 0.0
O102 O 0.21543 0.93968 0.88124 0.0
O103 O 0.17314 0.9119 0.88194 0.0
C104 C 0.19633 0.91657 0.87537 0.0
C105 C 0.1021 0.90673 0.91489 0.0
C106 C 0.17264 0.97435 0.83608 0.0
C107 C 0.18184 0.97258 0.96053 0.0
O108 O 0.16019 0.96639 0.94579 0.0
O109 O 0.1967 0.9659 0.94549 0.0
O110 O 0.10465 0.92918 0.91022 0.0
O111 O 0.12217 0.90453 0.90921 0.0
O112 O 0.08058 0.22841 0.84992 0.0
Cd113 Cd 0.10339 0.24911 0.89398 0.0
Cd114 Cd 0.11298 0.21033 0.89453 0.0
O115 O 0.09468 0.20117 0.8433 0.0
O116 O 0.11343 0.28607 0.88605 0.0
O117 O 0.1415 0.27253 0.88407 0.0
C118 C 0.13679 0.29114 0.88002 0.0
C119 C 0.15061 0.20927 0.90832 0.0
C120 C 0.0806 0.21011 0.83231 0.0
C121 C 0.08102 0.21354 0.95727 0.0
O122 O 0.0889 0.2005 0.93976 0.0
O123 O 0.08637 0.2357 0.9455 0.0
O124 O 0.129 0.18849 0.90098 0.0
O125 O 0.15143 0.23109 0.90496 0.0
O126 O 0.88028 0.82078 0.64727 0.0
Cd127 Cd 0.88548 0.80173 0.60423 0.0
Cd128 Cd 0.93289 0.84374 0.60403 0.0
O129 O 0.92117 0.8513 0.65406 0.0
O130 O 0.86349 0.76395 0.61454 0.0
O131 O 0.90645 0.78514 0.61477 0.0
C132 C 0.88473 0.76393 0.62052 0.0
C133 C 0.97532 0.85278 0.59456 0.0
C134 C 0.89773 0.84011 0.66489 0.0
C135 C 0.89668 0.83454 0.53894 0.0
O136 O 0.91737 0.84945 0.55654 0.0
O137 O 0.88051 0.81236 0.55183 0.0
O138 O 0.97011 0.87089 0.59947 0.0
O139 O 0.9565 0.82917 0.59746 0.0
O140 O 0.24906 0.07638 0.64744 0.0
Cd141 Cd 0.26497 0.0986 0.60119 0.0
Cd142 Cd 0.21864 0.09573 0.59988 0.0
O143 O 0.21338 0.07828 0.65121 0.0
O144 O 0.3031 0.1155 0.60919 0.0
O145 O 0.2822 0.13706 0.60755 0.0
C146 C 0.3035 0.13705 0.61319 0.0
C147 C 0.20674 0.12668 0.58851 0.0
C148 C 0.22834 0.07101 0.66427 0.0
C149 C 0.23134 0.06944 0.53823 0.0
O150 O 0.21482 0.07339 0.55433 0.0
O151 O 0.25418 0.07914 0.55113 0.0
O152 O 0.18973 0.1027 0.59406 0.0
O153 O 0.23088 0.13353 0.59136 0.0
O154 O 0.97521 0.1836 0.6501 0.0
Cd155 Cd 0.95394 0.17965 0.60359 0.0
Cd156 Cd 0.95211 0.13394 0.60189 0.0
O157 O 0.96923 0.14425 0.65395 0.0
O158 O 0.94317 0.20587 0.61037 0.0
O159 O 0.91546 0.16374 0.61108 0.0
C160 C 0.91983 0.18698 0.6155 0.0
C161 C 0.91548 0.09428 0.58645 0.0
C162 C 0.97851 0.16696 0.667 0.0
C163 C 0.98238 0.17264 0.54166 0.0
O164 O 0.97665 0.15163 0.55793 0.0
O165 O 0.97374 0.18673 0.55375 0.0
O166 O 0.93742 0.0961 0.59374 0.0
O167 O 0.91383 0.11477 0.59056 0.0
O168 O 0.90588 0.51103 0.4903 0.0
Cd169 Cd 0.92556 0.50765 0.44629 0.0
Cd170 Cd 0.8812 0.46195 0.43923 0.0
O171 O 0.87228 0.47131 0.49019 0.0
O172 O 0.96324 0.52932 0.45797 0.0
O173 O 0.94273 0.48667 0.45262 0.0
C174 C 0.96378 0.50814 0.46009 0.0
C175 C 0.86957 0.41932 0.42465 0.0
C176 C 0.88472 0.49373 0.50458 0.0
C177 C 0.89517 0.50342 0.38023 0.0
O178 O 0.87874 0.48172 0.3942 0.0
O179 O 0.91709 0.51739 0.39555 0.0
O180 O 0.85249 0.42599 0.42949 0.0
O181 O 0.89355 0.43665 0.43017 0.0
O182 O 0.53725 0.41177 0.48004 0.0
Cd183 Cd 0.54356 0.43402 0.43394 0.0
Cd184 Cd 0.58793 0.43321 0.43324 0.0
O185 O 0.57595 0.41618 0.4849 0.0
O186 O 0.52216 0.45039 0.44211 0.0
O187 O 0.56505 0.47253 0.44073 0.0
C188 C 0.54355 0.4721 0.44649 0.0
C189 C 0.63103 0.46487 0.421 0.0
C190 C 0.55318 0.40762 0.49741 0.0
C191 C 0.54877 0.40515 0.37176 0.0
O192 O 0.56943 0.40989 0.38834 0.0
O193 O 0.53528 0.41448 0.38385 0.0
O194 O 0.62432 0.4412 0.42768 0.0
O195 O 0.61336 0.47106 0.42332 0.0
O196 O 0.64502 0.14293 0.47722 0.0
Cd197 Cd 0.62152 0.12678 0.43218 0.0
Cd198 Cd 0.62002 0.17093 0.43586 0.0
O199 O 0.6387 0.17566 0.48623 0.0
O200 O 0.60433 0.08851 0.43949 0.0
O201 O 0.5834 0.11004 0.44199 0.0
C202 C 0.58321 0.08856 0.44637 0.0
C203 C 0.58765 0.18133 0.42641 0.0
C204 C 0.64861 0.16224 0.49626 0.0
C205 C 0.64708 0.16284 0.37013 0.0
O206 O 0.64205 0.17758 0.38903 0.0
O207 O 0.63925 0.13981 0.38085 0.0
O208 O 0.61133 0.19883 0.43309 0.0
O209 O 0.58179 0.15747 0.42779 0.0
O210 O 0.86349 0.57731 0.68623 0.0
Cd211 Cd 0.85838 0.59491 0.73122 0.0
Cd212 Cd 0.81291 0.55017 0.73338 0.0
O213 O 0.82428 0.54294 0.68262 0.0
O214 O 0.88073 0.63286 0.72179 0.0
O215 O 0.83788 0.61239 0.72339 0.0
C216 C 0.85965 0.63342 0.7173 0.0
C217 C 0.77203 0.54468 0.74531 0.0
C218 C 0.84713 0.55667 0.66986 0.0
C219 C 0.85145 0.56164 0.7955 0.0
O220 O 0.83047 0.54558 0.77941 0.0
O221 O 0.86581 0.58418 0.78214 0.0
O222 O 0.77511 0.52513 0.74051 0.0
O223 O 0.792 0.56751 0.74095 0.0
O224 O 0.49355 0.30743 0.68259 0.0
Cd225 Cd 0.47267 0.28324 0.72518 0.0
Cd226 Cd 0.5164 0.28149 0.73388 0.0
O227 O 0.52623 0.30043 0.68329 0.0
O228 O 0.43545 0.26743 0.71121 0.0
O229 O 0.45543 0.24508 0.7163 0.0
C230 C 0.43482 0.24573 0.70769 0.0
C231 C 0.52767 0.25033 0.74775 0.0
C232 C 0.51458 0.311 0.66874 0.0
C233 C 0.50163 0.3079 0.79314 0.0
O234 O 0.51822 0.30301 0.77953 0.0
O235 O 0.48012 0.30021 0.77688 0.0
O236 O 0.54487 0.27441 0.74387 0.0
O237 O 0.50377 0.24349 0.74186 0.0
O238 O 0.74672 0.19942 0.68328 0.0
Cd239 Cd 0.76964 0.20128 0.72673 0.0
Cd240 Cd 0.78023 0.25019 0.7285 0.0
O241 O 0.7617 0.24123 0.67755 0.0
O242 O 0.77943 0.17456 0.7174 0.0
O243 O 0.8075 0.21669 0.71559 0.0
C244 C 0.80265 0.1933 0.71076 0.0
C245 C 0.81761 0.28981 0.74168 0.0
C246 C 0.74732 0.21817 0.66606 0.0
C247 C 0.74887 0.21429 0.79153 0.0
O248 O 0.75677 0.23546 0.77432 0.0
O249 O 0.75355 0.19732 0.77888 0.0
O250 O 0.79572 0.2882 0.73509 0.0
O251 O 0.81883 0.26906 0.738 0.0
O252 O 0.48022 0.19372 0.18647 0.0
Cd253 Cd 0.46386 0.20014 0.23193 0.0
Cd254 Cd 0.51044 0.24431 0.2335 0.0
O255 O 0.51611 0.23175 0.18269 0.0
O256 O 0.42568 0.17876 0.2232 0.0
O257 O 0.44718 0.22156 0.2244 0.0
C258 C 0.42571 0.2001 0.21865 0.0
C259 C 0.52269 0.2875 0.2451 0.0
C260 C 0.50121 0.20916 0.16994 0.0
C261 C 0.49713 0.20527 0.29564 0.0
O262 O 0.51378 0.2259 0.27945 0.0
O263 O 0.47433 0.19178 0.28257 0.0
O264 O 0.53956 0.2806 0.23962 0.0
O265 O 0.49852 0.27001 0.24175 0.0
O266 O 0.86123 0.30206 0.18412 0.0
Cd267 Cd 0.85625 0.27942 0.22925 0.0
Cd268 Cd 0.81032 0.27682 0.23013 0.0
O269 O 0.82132 0.2945 0.17849 0.0
O270 O 0.88182 0.2679 0.22183 0.0
O271 O 0.83938 0.24133 0.21915 0.0
C272 C 0.86247 0.24512 0.21493 0.0
C273 C 0.77013 0.24026 0.24384 0.0
C274 C 0.84446 0.3048 0.16653 0.0
C275 C 0.84798 0.30575 0.29225 0.0
O276 O 0.82736 0.30054 0.27514 0.0
O277 O 0.86231 0.29738 0.28025 0.0
O278 O 0.77235 0.26241 0.23714 0.0
O279 O 0.79056 0.23841 0.24017 0.0
O280 O 0.75174 0.56496 0.18009 0.0
Cd281 Cd 0.77434 0.5852 0.22442 0.0
Cd282 Cd 0.77685 0.54184 0.23293 0.0
O283 O 0.75893 0.53246 0.18172 0.0
O284 O 0.7896 0.62256 0.21206 0.0
O285 O 0.81293 0.60367 0.218 0.0
C286 C 0.81181 0.62405 0.20979 0.0
C287 C 0.80767 0.53017 0.24741 0.0
C288 C 0.74866 0.54412 0.16636 0.0
C289 C 0.74787 0.55454 0.2907 0.0
O290 O 0.7539 0.53871 0.27745 0.0
O291 O 0.7555 0.57619 0.27493 0.0
O292 O 0.78362 0.51318 0.24247 0.0
O293 O 0.81472 0.55417 0.24251 0.0
O294 O 0.54014 0.14661 0.98773 0.0
Cd295 Cd 0.54179 0.1258 0.94389 0.0
Cd296 Cd 0.58903 0.16726 0.93789 0.0
O297 O 0.58135 0.17711 0.98942 0.0
O298 O 0.51579 0.0888 0.95446 0.0
O299 O 0.55804 0.10409 0.95254 0.0
C300 C 0.53492 0.08492 0.95867 0.0
C301 C 0.62846 0.17049 0.92222 0.0
C302 C 0.55862 0.16653 0.00299 0.0
C303 C 0.54949 0.15824 0.87857 0.0
O304 O 0.57125 0.17347 0.89351 0.0
O305 O 0.53444 0.13615 0.89273 0.0
O306 O 0.6267 0.19072 0.92797 0.0
O307 O 0.60802 0.14814 0.92776 0.0
O308 O 0.90342 0.40702 0.98315 0.0
Cd309 Cd 0.92366 0.43099 0.93982 0.0
Cd310 Cd 0.88176 0.43676 0.93711 0.0
O311 O 0.87264 0.41673 0.98687 0.0
O312 O 0.96142 0.44619 0.95027 0.0
O313 O 0.94202 0.46923 0.94883 0.0
C314 C 0.96275 0.46817 0.95474 0.0
C315 C 0.87188 0.46937 0.92675 0.0
C316 C 0.88344 0.40465 0.9991 0.0
C317 C 0.89156 0.40925 0.87339 0.0
O318 O 0.87694 0.41575 0.88963 0.0
O319 O 0.91312 0.41461 0.88767 0.0
O320 O 0.8541 0.44554 0.93108 0.0
O321 O 0.89565 0.47517 0.93065 0.0
O322 O 0.64861 0.51817 0.9748 0.0
Cd323 Cd 0.62413 0.50936 0.93075 0.0
Cd324 Cd 0.62178 0.46383 0.93665 0.0
O325 O 0.64066 0.47874 0.98654 0.0
O326 O 0.60698 0.53015 0.93769 0.0
O327 O 0.5863 0.48741 0.94211 0.0
C328 C 0.58608 0.50872 0.94575 0.0
C329 C 0.58885 0.42075 0.92863 0.0
C330 C 0.65162 0.50259 0.99499 0.0
C331 C 0.64845 0.49762 0.86933 0.0
O332 O 0.6437 0.47835 0.88945 0.0
O333 O 0.64069 0.51293 0.87903 0.0
O334 O 0.61238 0.42688 0.9356 0.0
O335 O 0.5835 0.43903 0.92903 0.0
O336 O 0.58026 0.85454 0.80499 0.0
Cd337 Cd 0.59631 0.84751 0.75991 0.0
Cd338 Cd 0.55033 0.80274 0.7608 0.0
O339 O 0.54602 0.81563 0.81222 0.0
O340 O 0.63415 0.87205 0.76611 0.0
O341 O 0.6162 0.82955 0.77033 0.0
C342 C 0.63649 0.85234 0.7736 0.0
C343 C 0.53936 0.75986 0.74989 0.0
C344 C 0.56042 0.83877 0.82342 0.0
C345 C 0.56167 0.84022 0.69728 0.0
O346 O 0.54528 0.8202 0.71495 0.0
O347 O 0.58482 0.85379 0.70895 0.0
O348 O 0.522 0.76596 0.75635 0.0
O349 O 0.56338 0.77805 0.7518 0.0
O350 O 0.20137 0.7432 0.81161 0.0
Cd351 Cd 0.20591 0.76476 0.76534 0.0
Cd352 Cd 0.25218 0.76835 0.76544 0.0
O353 O 0.2414 0.75114 0.81735 0.0
O354 O 0.18007 0.77604 0.77134 0.0
O355 O 0.22247 0.803 0.77312 0.0
C356 C 0.19932 0.7991 0.77695 0.0
C357 C 0.29164 0.80573 0.75155 0.0
C358 C 0.2183 0.74085 0.82943 0.0
C359 C 0.21481 0.73786 0.70384 0.0
O360 O 0.23566 0.74392 0.72098 0.0
O361 O 0.20007 0.74589 0.71528 0.0
O362 O 0.29036 0.78407 0.75876 0.0
O363 O 0.27064 0.80661 0.75471 0.0
O364 O 0.31347 0.48197 0.82124 0.0
Cd365 Cd 0.28962 0.46124 0.77799 0.0
Cd366 Cd 0.28165 0.50186 0.77751 0.0
O367 O 0.30077 0.51034 0.82787 0.0
O368 O 0.27924 0.42427 0.78627 0.0
O369 O 0.25155 0.43827 0.78906 0.0
C370 C 0.25604 0.41949 0.7929 0.0
C371 C 0.24855 0.51088 0.76597 0.0
C372 C 0.31435 0.50079 0.83863 0.0
C373 C 0.31126 0.49563 0.7135 0.0
O374 O 0.30427 0.50934 0.73113 0.0
O375 O 0.3058 0.47357 0.72583 0.0
O376 O 0.27197 0.52889 0.77266 0.0
O377 O 0.24327 0.48723 0.76849 0.0
O378 O 0.52745 0.89921 0.01417 0.0
Cd379 Cd 0.52643 0.92014 0.05838 0.0
Cd380 Cd 0.47911 0.87851 0.06615 0.0
O381 O 0.4865 0.86806 0.01503 0.0
O382 O 0.5524 0.95706 0.04737 0.0
O383 O 0.51021 0.94193 0.05024 0.0
C384 C 0.53329 0.96102 0.04366 0.0
C385 C 0.43916 0.87459 0.07981 0.0
C386 C 0.50877 0.87889 2e-05 0.0
C387 C 0.51916 0.88868 0.12519 0.0
O388 O 0.49702 0.87332 0.11138 0.0
O389 O 0.53429 0.91017 0.1095 0.0
O390 O 0.44156 0.8546 0.07568 0.0
O391 O 0.45939 0.89709 0.07431 0.0
O392 O 0.15863 0.63739 0.01124 0.0
Cd393 Cd 0.13822 0.61306 0.05415 0.0
Cd394 Cd 0.18052 0.60771 0.05722 0.0
O395 O 0.18967 0.62803 0.00772 0.0
O396 O 0.10053 0.59784 0.04333 0.0
O397 O 0.11999 0.57487 0.04476 0.0
C398 C 0.09926 0.5759 0.03874 0.0
C399 C 0.1919 0.57617 0.06762 0.0
C400 C 0.1788 0.64005 0.99553 0.0
C401 C 0.16982 0.6346 0.12099 0.0
O402 O 0.18465 0.62831 0.10487 0.0
O403 O 0.14833 0.6292 0.10646 0.0
O404 O 0.20906 0.60022 0.06346 0.0
O405 O 0.1679 0.56951 0.06349 0.0
O406 O 0.42185 0.52754 0.01804 0.0
Cd407 Cd 0.44397 0.53227 0.06369 0.0
Cd408 Cd 0.44509 0.57759 0.066 0.0
O409 O 0.42738 0.56673 0.01436 0.0
O410 O 0.45952 0.51018 0.05404 0.0
O411 O 0.48239 0.55295 0.05621 0.0
C412 C 0.48143 0.53135 0.04949 0.0
C413 C 0.48114 0.61808 0.08011 0.0
C414 C 0.41817 0.54401 0.00138 0.0
C415 C 0.41596 0.53835 0.12668 0.0
O416 O 0.42136 0.55936 0.11063 0.0
O417 O 0.42467 0.52444 0.11407 0.0
O418 O 0.45867 0.61533 0.07399 0.0
O419 O 0.48353 0.59806 0.07582 0.0
O420 O 0.15714 0.53002 0.51107 0.0
Cd421 Cd 0.13664 0.53219 0.55499 0.0
Cd422 Cd 0.18094 0.57811 0.56517 0.0
O423 O 0.19105 0.56945 0.51467 0.0
O424 O 0.09917 0.51058 0.54201 0.0
O425 O 0.11934 0.5531 0.54904 0.0
C426 C 0.09848 0.5317 0.54059 0.0
C427 C 0.19302 0.62094 0.57894 0.0
C428 C 0.17878 0.54767 0.49848 0.0
C429 C 0.1652 0.53565 0.62316 0.0
O430 O 0.18181 0.55786 0.61081 0.0
O431 O 0.14416 0.5216 0.60578 0.0
O432 O 0.20983 0.61376 0.57584 0.0
O433 O 0.16906 0.60391 0.57255 0.0
O434 O 0.52051 0.63765 0.51571 0.0
Cd435 Cd 0.51913 0.61542 0.55961 0.0
Cd436 Cd 0.47233 0.61018 0.56764 0.0
O437 O 0.47966 0.6276 0.51587 0.0
O438 O 0.54165 0.60088 0.54629 0.0
O439 O 0.49906 0.57703 0.55261 0.0
C440 C 0.52068 0.57858 0.54367 0.0
C441 C 0.43256 0.57393 0.58424 0.0
C442 C 0.5021 0.63931 0.50127 0.0
C443 C 0.51376 0.64159 0.62502 0.0
O444 O 0.49165 0.63466 0.61126 0.0
O445 O 0.52824 0.63426 0.61025 0.0
O446 O 0.43487 0.59623 0.57887 0.0
O447 O 0.45259 0.57179 0.57809 0.0
O448 O 0.41432 0.90399 0.51726 0.0
Cd449 Cd 0.43822 0.92061 0.56184 0.0
Cd450 Cd 0.43983 0.87639 0.55871 0.0
O451 O 0.42077 0.87131 0.5088 0.0
O452 O 0.45542 0.95881 0.55389 0.0
O453 O 0.47626 0.93719 0.55148 0.0
C454 C 0.47648 0.95867 0.54689 0.0
C455 C 0.47125 0.86469 0.56737 0.0
C456 C 0.4107 0.88452 0.49861 0.0
C457 C 0.41359 0.88528 0.62483 0.0
O458 O 0.41854 0.87043 0.60609 0.0
O459 O 0.42104 0.90812 0.61358 0.0
O460 O 0.44729 0.84768 0.56151 0.0
O461 O 0.47788 0.88877 0.56559 0.0
O462 O 0.20318 0.47176 0.3088 0.0
Cd463 Cd 0.21054 0.4551 0.26489 0.0
Cd464 Cd 0.25466 0.50108 0.26378 0.0
O465 O 0.2419 0.50647 0.31473 0.0
O466 O 0.18929 0.41729 0.27499 0.0
O467 O 0.23223 0.43915 0.27514 0.0
C468 C 0.21074 0.41778 0.28128 0.0
C469 C 0.29789 0.51308 0.25243 0.0
C470 C 0.21881 0.49213 0.32631 0.0
C471 C 0.21615 0.48737 0.20053 0.0
O472 O 0.23632 0.50425 0.21745 0.0
O473 O 0.20282 0.46453 0.21333 0.0
O474 O 0.2911 0.53003 0.2578 0.0
O475 O 0.28026 0.48899 0.25577 0.0
O476 O 0.57864 0.74266 0.31319 0.0
Cd477 Cd 0.59475 0.76647 0.26827 0.0
Cd478 Cd 0.5504 0.76733 0.27268 0.0
O479 O 0.54568 0.74858 0.32281 0.0
O480 O 0.63318 0.78367 0.27504 0.0
O481 O 0.6117 0.80461 0.27794 0.0
C482 C 0.63327 0.80484 0.28175 0.0
C483 C 0.54065 0.79995 0.26287 0.0
C484 C 0.55921 0.7387 0.33238 0.0
C485 C 0.55837 0.74076 0.20653 0.0
O486 O 0.54351 0.74537 0.2259 0.0
O487 O 0.58159 0.74891 0.21684 0.0
O488 O 0.52283 0.77648 0.26993 0.0
O489 O 0.56445 0.80545 0.2644 0.0
O490 O 0.31562 0.84502 0.30827 0.0
Cd491 Cd 0.29311 0.84266 0.26418 0.0
Cd492 Cd 0.2824 0.79387 0.26402 0.0
O493 O 0.30022 0.80324 0.31547 0.0
O494 O 0.28318 0.86932 0.2723 0.0
O495 O 0.25532 0.82712 0.27482 0.0
C496 C 0.26004 0.85049 0.27917 0.0
C497 C 0.24468 0.75453 0.25103 0.0
C498 C 0.31459 0.82643 0.32647 0.0
C499 C 0.31448 0.82916 0.20098 0.0
O500 O 0.30648 0.80816 0.21872 0.0
O501 O 0.30951 0.84614 0.21264 0.0
O502 O 0.2663 0.75572 0.25832 0.0
O503 O 0.24395 0.77559 0.25377 0.0
H504 H 0.23587 0.06873 0.06556 0.0
H505 H 0.15587 0.04302 0.09001 0.0
H506 H 0.14199 1.00359 0.0548 0.0
H507 H 0.15204 0.97989 0.00937 0.0
H508 H 0.23169 1.00545 0.98328 0.0
H509 H 0.24621 0.0411 0.02727 0.0
C510 C 0.21545 0.05419 0.06395 0.0
C511 C 0.19692 0.05906 0.07985 0.0
C512 C 0.20749 0.03165 0.04295 0.0
C513 C 0.17054 0.03996 0.07764 0.0
C514 C 0.16254 1.0174 0.05738 0.0
C515 C 0.1726 0.99297 0.01382 0.0
C516 C 0.19073 0.9903 0.99264 0.0
C517 C 0.18077 1.01359 0.03866 0.0
C518 C 0.21731 1.00713 0.99914 0.0
C519 C 0.22563 0.02765 0.02412 0.0
H520 H 1.00308 0.13539 0.07335 0.0
H521 H 0.96535 0.17916 0.05328 0.0
H522 H 1.00252 0.2105 0.01678 0.0
H523 H 0.04315 0.22204 0.98359 0.0
H524 H 0.07929 0.1766 0.00222 0.0
H525 H 0.04562 0.14969 0.04648 0.0
C526 C 1.00313 0.15202 0.06156 0.0
C527 C 0.98128 0.15469 0.0657 0.0
C528 C 1.02429 0.16964 0.03999 0.0
C529 C 0.98184 0.17652 0.05044 0.0
C530 C 1.00307 0.19441 0.02937 0.0
C531 C 0.04397 0.20666 0.99805 0.0
C532 C 0.06358 0.2012 0.98931 0.0
C533 C 1.02405 0.1907 0.02292 0.0
C534 C 0.06428 0.18107 0.00814 0.0
C535 C 0.04498 0.1656 0.03342 0.0
H536 H 0.863 0.89649 0.01054 0.0
H537 H 0.80983 0.81656 0.98368 0.0
H538 H 0.83149 0.80303 0.02806 0.0
H539 H 0.86989 0.81459 0.06685 0.0
H540 H 0.92308 0.89493 0.09228 0.0
H541 H 0.89684 0.90753 0.05666 0.0
C542 C 0.85581 0.87607 0.01497 0.0
C543 C 0.83514 0.85757 0.99349 0.0
C544 C 0.86856 0.86851 0.04004 0.0
C545 C 0.82576 0.83118 -0.00013 0.0
C546 C 0.83828 0.82345 0.02503 0.0
C547 C 0.87536 0.83478 0.06537 0.0
C548 C 0.8987 0.85382 0.08167 0.0
C549 C 0.86035 0.84202 0.04419 0.0
C550 C 0.90543 0.87989 0.07962 0.0
C551 C 0.89047 0.88716 0.05913 0.0
H552 H 0.99275 0.14309 0.49676 0.0
H553 H 1.01536 0.2224 0.51857 0.0
H554 H 0.05263 0.23719 0.47723 0.0
H555 H 0.08187 0.22738 0.44165 0.0
H556 H 0.05866 0.14765 0.421 0.0
H557 H 1.01851 0.13333 0.45471 0.0
C558 C 1.00558 0.16362 0.49198 0.0
C559 C 1.00149 0.18161 0.51111 0.0
C560 C 1.02705 0.17194 0.46862 0.0
C561 C 1.01807 0.20814 0.50422 0.0
C562 C 0.03951 0.21661 0.48078 0.0
C563 C 0.06778 0.2069 0.44389 0.0
C564 C 0.07353 0.18864 0.42926 0.0
C565 C 0.04468 0.19867 0.46382 0.0
C566 C 0.05495 0.16216 0.43228 0.0
C567 C 0.03195 0.1539 0.45167 0.0
H568 H 0.89369 0.90587 0.41599 0.0
H569 H 0.81164 0.85953 0.43721 0.0
H570 H 0.81883 0.83027 0.4757 0.0
H571 H 0.8493 0.82209 0.51112 0.0
H572 H 0.93142 0.87043 0.49175 0.0
H573 H 0.92331 0.89436 0.44453 0.0
C574 C 0.87728 0.88908 0.4284 0.0
C575 C 0.85222 0.88515 0.42418 0.0
C576 C 0.88163 0.87279 0.45125 0.0
C577 C 0.83117 0.86311 0.44015 0.0
C578 C 0.83529 0.84644 0.46239 0.0
C579 C 0.86533 0.83741 0.49584 0.0
C580 C 0.89094 0.84469 0.50524 0.0
C581 C 0.86056 0.85169 0.46933 0.0
C582 C 0.91154 0.86466 0.48534 0.0
C583 C 0.90694 0.87841 0.45836 0.0
H584 H 0.19143 0.97219 0.43562 0.0
H585 H 0.13305 0.99211 0.41255 0.0
H586 H 0.15754 0.03214 0.44716 0.0
H587 H 0.19202 0.05828 0.49117 0.0
H588 H 0.25051 0.03889 0.51548 0.0
H589 H 0.22981 1.00223 0.47277 0.0
C590 C 0.18438 0.98558 0.43744 0.0
C591 C 0.16019 0.97889 0.42199 0.0
C592 C 0.19846 1.00858 0.45798 0.0
C593 C 0.15143 0.99655 0.42451 0.0
C594 C 0.16539 1.01948 0.44442 0.0
C595 C 0.20053 0.04632 0.4866 0.0
C596 C 0.22253 0.05106 0.50686 0.0
C597 C 0.18838 0.02517 0.46244 0.0
C598 C 0.23355 0.03564 0.50026 0.0
C599 C 0.2216 1.01454 0.47603 0.0
H600 H 0.90768 0.05525 0.99151 0.0
H601 H 0.82869 0.03512 0.01145 0.0
H602 H 0.81323 0.99787 0.97012 0.0
H603 H 0.82216 0.96779 0.93526 0.0
H604 H 0.90154 0.98846 0.91651 0.0
H605 H 0.91675 0.02877 0.94997 0.0
C606 C 0.88709 0.04297 0.98632 0.0
C607 C 0.86935 0.04773 0.00494 0.0
C608 C 0.87837 1.02149 0.96295 0.0
C609 C 0.84276 0.03187 0.99751 0.0
C610 C 0.8339 1.01045 0.97407 0.0
C611 C 0.84277 0.98138 0.93782 0.0
C612 C 0.86064 0.97485 0.92387 0.0
C613 C 0.8515 1.00455 0.95764 0.0
C614 C 0.88731 0.99277 0.9273 0.0
C615 C 0.89608 1.01586 0.94655 0.0
H616 H 1.01668 0.82043 0.01604 0.0
H617 H 0.98075 0.86571 0.9943 0.0
H618 H 1.01375 0.89097 0.94834 0.0
H619 H 0.05605 0.90446 0.92144 0.0
H620 H 0.09374 0.86107 0.94462 0.0
H621 H 0.05672 0.83061 0.9822 0.0
C622 C 1.01573 0.83537 0.0005 0.0
C623 C 0.99647 0.84139 0.00889 0.0
C624 C 0.0353 0.85042 0.97468 0.0
C625 C 0.99555 0.86089 0.98866 0.0
C626 C 1.01446 0.87541 0.96242 0.0
C627 C 0.05599 0.88806 0.93412 0.0
C628 C 0.0778 0.88528 0.93067 0.0
C629 C 0.03497 0.87104 0.95632 0.0
C630 C 0.07725 0.86374 0.94694 0.0
C631 C 0.05613 0.84639 0.96866 0.0
H632 H 0.15509 0.16674 0.91389 0.0
H633 H 0.19446 0.24781 0.94164 0.0
H634 H 0.22435 0.2424 0.98148 0.0
H635 H 0.23468 0.21305 0.01594 0.0
H636 H 0.19317 0.13167 0.9897 0.0
H637 H 0.1691 0.13884 0.94161 0.0
C638 C 0.17054 0.18337 0.92803 0.0
C639 C 0.17226 0.20755 0.92517 0.0
C640 C 0.18717 0.17998 0.95159 0.0
C641 C 0.19259 0.22893 0.94343 0.0
C642 C 0.2096 0.22581 0.96646 0.0
C643 C 0.22088 0.19706 0.99897 0.0
C644 C 0.21552 0.17182 0.00665 0.0
C645 C 0.20644 0.2012 0.97189 0.0
C646 C 0.19745 0.15124 0.9846 0.0
C647 C 0.1836 0.1553 0.95713 0.0
H648 H 0.99017 0.81987 0.56709 0.0
H649 H 1.01863 0.9004 0.59073 0.0
H650 H 0.0577 0.91279 0.55524 0.0
H651 H 0.08019 0.90141 0.50946 0.0
H652 H 0.05208 0.82129 0.4843 0.0
H653 H 1.01679 0.80806 0.52888 0.0
C654 C 1.00523 0.84007 0.56526 0.0
C655 C 1.00122 0.85921 0.58097 0.0
C656 C 1.02759 0.84717 0.54413 0.0
C657 C 1.02101 0.88528 0.57852 0.0
C658 C 0.04337 0.89243 0.55809 0.0
C659 C 0.06666 0.88102 0.51433 0.0
C660 C 0.06845 0.86237 0.49325 0.0
C661 C 0.0463 0.87364 0.53949 0.0
C662 C 0.05106 0.83602 0.50018 0.0
C663 C 1.03076 0.82847 0.52545 0.0
H664 H 0.15228 0.17896 0.50929 0.0
H665 H 0.23153 0.23784 0.48776 0.0
H666 H 0.24668 0.21579 0.52874 0.0
H667 H 0.23722 0.17633 0.56331 0.0
H668 H 0.15755 0.11753 0.58342 0.0
H669 H 0.14284 0.14313 0.5508 0.0
C670 C 0.17288 0.18725 0.51412 0.0
C671 C 0.19076 0.20978 0.49512 0.0
C672 C 0.18139 0.1743 0.53718 0.0
C673 C 0.21735 0.2205 0.50204 0.0
C674 C 0.22603 0.20777 0.52525 0.0
C675 C 0.21666 0.16938 0.56122 0.0
C676 C 0.19854 0.1448 0.57528 0.0
C677 C 0.20822 0.18412 0.54188 0.0
C678 C 0.17196 0.1362 0.57251 0.0
C679 C 0.16348 0.15081 0.55376 0.0
H680 H 0.91273 0.04803 0.57868 0.0
H681 H 0.87051 0.08689 0.55515 0.0
H682 H 0.84006 0.05048 0.51673 0.0
H683 H 0.82916 1.01024 0.48294 0.0
H684 H 0.87309 0.97296 0.50541 0.0
H685 H 0.89877 1.00579 0.55127 0.0
C686 C 0.8966 0.04838 0.56572 0.0
C687 C 0.89415 0.07034 0.56948 0.0
C688 C 0.87951 0.02764 0.54309 0.0
C689 C 0.87296 0.07029 0.55268 0.0
C690 C 0.85559 0.0495 0.53049 0.0
C691 C 0.84391 1.00898 0.49858 0.0
C692 C 0.84935 0.9893 0.49046 0.0
C693 C 0.85919 0.02844 0.52447 0.0
C694 C 0.86867 0.98804 0.51082 0.0
C695 C 0.88344 1.00686 0.53703 0.0
H696 H 0.81741 0.31519 0.33646 0.0
H697 H 0.89721 0.3375 0.31847 0.0
H698 H 0.91118 0.37336 0.36207 0.0
H699 H 0.90075 0.40172 0.39866 0.0
H700 H 0.82058 0.3789 0.4153 0.0
H701 H 0.8068 0.33983 0.37931 0.0
C702 C 0.83786 0.32764 0.34253 0.0
C703 C 0.85626 0.32392 0.32386 0.0
C704 C 0.84572 0.34832 0.36719 0.0
C705 C 0.88264 0.33996 0.33244 0.0
C706 C 0.89065 0.3606 0.35718 0.0
C707 C 0.88027 0.38792 0.39507 0.0
C708 C 0.86176 0.39349 0.40922 0.0
C709 C 0.87238 0.36549 0.37377 0.0
C710 C 0.83528 0.37532 0.40441 0.0
C711 C 0.82734 0.35294 0.38371 0.0
H712 H 0.64894 0.51279 0.39055 0.0
H713 H 0.67239 0.45792 0.41938 0.0
H714 H 0.71272 0.48325 0.38551 0.0
H715 H 0.7383 0.51722 0.34066 0.0
H716 H 0.71509 0.57189 0.31003 0.0
H717 H 0.67808 0.55077 0.35216 0.0
C718 C 0.66313 0.5067 0.3901 0.0
C719 C 0.65741 0.48323 0.40701 0.0
C720 C 0.68627 0.5212 0.36993 0.0
C721 C 0.6761 0.4757 0.40627 0.0
C722 C 0.69919 0.49015 0.38681 0.0
C723 C 0.72542 0.52484 0.34369 0.0
C724 C 0.72923 0.54585 0.32182 0.0
C725 C 0.70401 0.51235 0.3674 0.0
C726 C 0.71259 0.55571 0.32649 0.0
C727 C 0.69129 0.5435 0.35038 0.0
H728 H 0.53906 0.15014 0.39769 0.0
H729 H 0.59474 0.22975 0.42361 0.0
H730 H 0.56934 0.24394 0.38917 0.0
H731 H 0.53511 0.23439 0.3443 0.0
H732 H 0.47926 0.15523 0.31728 0.0
H733 H 0.50058 0.14022 0.35998 0.0
C734 C 0.5453 0.17054 0.39654 0.0
C735 C 0.56905 0.18886 0.41274 0.0
C736 C 0.5307 0.1787 0.37613 0.0
C737 C 0.57675 0.21521 0.4111 0.0
C738 C 0.56226 0.2234 0.39127 0.0
C739 C 0.52728 0.21382 0.34833 0.0
C740 C 0.50587 0.19596 0.3273 0.0
C741 C 0.5398 0.20541 0.3725 0.0
C742 C 0.49572 0.16938 0.33315 0.0
C743 C 0.50805 0.16081 0.35735 0.0
H744 H 0.684 0.54447 0.83995 0.0
H745 H 0.65098 0.46226 0.82615 0.0
H746 H 0.68465 0.46983 0.78173 0.0
H747 H 0.72683 0.49934 0.75431 0.0
H748 H 0.76164 0.58162 0.76995 0.0
H749 H 0.72388 0.57455 0.80546 0.0
C750 C 0.68381 0.52829 0.82638 0.0
C751 C 0.66517 0.50285 0.83656 0.0
C752 C 0.70381 0.53278 0.80157 0.0
C753 C 0.66526 0.48203 0.81901 0.0
C754 C 0.68457 0.48632 0.79369 0.0
C755 C 0.72598 0.5158 0.76486 0.0
C756 C 0.74722 0.54094 0.75991 0.0
C757 C 0.70451 0.51156 0.78594 0.0
C758 C 0.74563 0.56203 0.7735 0.0
C759 C 0.72407 0.55799 0.79402 0.0
H760 H 0.4962 0.20144 0.77475 0.0
H761 H 0.5764 0.25852 0.75436 0.0
H762 H 0.59012 0.23294 0.78929 0.0
H763 H 0.57969 0.19773 0.83248 0.0
H764 H 0.49985 0.1408 0.85476 0.0
H765 H 0.48568 0.16263 0.81176 0.0
C766 C 0.51665 0.20797 0.77727 0.0
C767 C 0.53523 0.23208 0.76242 0.0
C768 C 0.52451 0.19332 0.79807 0.0
C769 C 0.56166 0.24022 0.76587 0.0
C770 C 0.56957 0.22563 0.78593 0.0
C771 C 0.55918 0.18982 0.82749 0.0
C772 C 0.54087 0.16792 0.84724 0.0
C773 C 0.55121 0.20267 0.80327 0.0
C774 C 0.51437 0.15769 0.84 0.0
C775 C 0.50625 0.17028 0.81559 0.0
H776 H 0.90166 0.37232 0.8481 0.0
H777 H 0.85859 0.41014 0.82317 0.0
H778 H 0.83464 0.37839 0.77519 0.0
H779 H 0.82124 0.33647 0.74734 0.0
H780 H 0.86211 0.29669 0.77398 0.0
H781 H 0.89188 0.33275 0.81349 0.0
C782 C 0.88753 0.37396 0.83146 0.0
C783 C 0.8817 0.39338 0.83947 0.0
C784 C 0.87317 0.35507 0.80447 0.0
C785 C 0.86322 0.3952 0.81782 0.0
C786 C 0.84946 0.37701 0.79041 0.0
C787 C 0.83698 0.33588 0.76116 0.0
C788 C 0.83918 0.31373 0.75812 0.0
C789 C 0.85352 0.35629 0.78458 0.0
C790 C 0.85988 0.31345 0.77593 0.0
C791 C 0.87682 0.33401 0.79877 0.0
H792 H 0.57783 0.3944 0.32639 0.0
H793 H 0.49877 0.37314 0.34847 0.0
H794 H 0.48334 0.33594 0.30695 0.0
H795 H 0.49248 0.30622 0.27138 0.0
H796 H 0.57199 0.32807 0.25065 0.0
H797 H 0.58698 0.36831 0.28421 0.0
C798 C 0.55721 0.3819 0.3216 0.0
C799 C 0.53947 0.38632 0.34087 0.0
C800 C 0.54854 0.36044 0.29818 0.0
C801 C 0.51285 0.37017 0.33398 0.0
C802 C 0.50401 0.34876 0.31046 0.0
C803 C 0.51307 0.32004 0.27353 0.0
C804 C 0.53106 0.31387 0.25896 0.0
C805 C 0.52168 0.34319 0.29342 0.0
C806 C 0.55767 0.3321 0.2619 0.0
C807 C 0.56632 0.35515 0.2812 0.0
H808 H 0.72417 0.23831 0.2514 0.0
H809 H 0.76143 0.1943 0.27293 0.0
H810 H 0.72427 0.16354 0.31 0.0
H811 H 0.68395 0.15288 0.34366 0.0
H812 H 0.64856 0.19884 0.3238 0.0
H813 H 0.68186 0.22473 0.27849 0.0
C814 C 0.72401 0.22173 0.2636 0.0
C815 C 0.74574 0.21885 0.25973 0.0
C816 C 0.70287 0.20449 0.28554 0.0
C817 C 0.74503 0.19709 0.27554 0.0
C818 C 0.7238 0.17954 0.29695 0.0
C819 C 0.68319 0.1681 0.32861 0.0
C820 C 0.66391 0.17405 0.33726 0.0
C821 C 0.70299 0.18354 0.30323 0.0
C822 C 0.6633 0.194 0.31783 0.0
C823 C 0.68241 0.2089 0.29199 0.0
H824 H 0.85768 0.47512 0.33053 0.0
H825 H 0.91388 0.55382 0.35954 0.0
H826 H 0.89359 0.56964 0.31637 0.0
H827 H 0.85585 0.56058 0.27756 0.0
H828 H 0.79942 0.48141 0.25058 0.0
H829 H 0.82398 0.4664 0.28537 0.0
C830 C 0.86581 0.49577 0.32692 0.0
C831 C 0.88698 0.51325 0.34862 0.0
C832 C 0.8538 0.50465 0.30265 0.0
C833 C 0.89754 0.53994 0.34322 0.0
C834 C 0.88581 0.54899 0.31874 0.0
C835 C 0.84927 0.54011 0.27862 0.0
C836 C 0.82559 0.52213 0.262 0.0
C837 C 0.86332 0.53147 0.29935 0.0
C838 C 0.81738 0.49566 0.26352 0.0
C839 C 0.83139 0.48701 0.28348 0.0
H840 H 0.67467 0.21455 0.91273 0.0
H841 H 0.63549 0.13235 0.89301 0.0
H842 H 0.67156 0.13818 0.85434 0.0
H843 H 0.71135 0.16752 0.81908 0.0
H844 H 0.74883 0.24981 0.83752 0.0
H845 H 0.71656 0.24301 0.88391 0.0
C846 C 0.67418 0.19781 0.90054 0.0
C847 C 0.65224 0.1731 0.90538 0.0
C848 C 0.69466 0.20137 0.87772 0.0
C849 C 0.65209 0.15162 0.88965 0.0
C850 C 0.67267 0.15497 0.86732 0.0
C851 C 0.71277 0.18387 0.83393 0.0
C852 C 0.7323 0.20916 0.82452 0.0
C853 C 0.69365 0.17987 0.86009 0.0
C854 C 0.73382 0.23017 0.8439 0.0
C855 C 0.71534 0.22632 0.87042 0.0
H856 H 0.9041 0.51796 0.89915 0.0
H857 H 0.82377 0.46307 0.92286 0.0
H858 H 0.81057 0.48915 0.88815 0.0
H859 H 0.82124 0.5237 0.84352 0.0
H860 H 0.90115 0.57861 0.81833 0.0
H861 H 0.91512 0.55672 0.86161 0.0
C862 C 0.88377 0.51205 0.89747 0.0
C863 C 0.86494 0.48833 0.91308 0.0
C864 C 0.87619 0.527 0.87682 0.0
C865 C 0.83867 0.48104 0.91076 0.0
C866 C 0.83106 0.49591 0.89079 0.0
C867 C 0.84174 0.53119 0.84805 0.0
C868 C 0.86012 0.55248 0.82736 0.0
C869 C 0.84956 0.51833 0.87249 0.0
C870 C 0.88661 0.56222 0.8339 0.0
C871 C 0.89459 0.54957 0.85843 0.0
H872 H 0.54139 0.40395 0.89728 0.0
H873 H 0.59426 0.37846 0.92885 0.0
H874 H 0.56916 0.33885 0.89345 0.0
H875 H 0.53674 0.31508 0.84568 0.0
H876 H 0.48409 0.34039 0.81261 0.0
H877 H 0.50421 0.3761 0.85688 0.0
C878 C 0.54702 0.38942 0.89721 0.0
C879 C 0.56997 0.39443 0.91517 0.0
C880 C 0.53272 0.36677 0.8761 0.0
C881 C 0.57689 0.3753 0.91493 0.0
C882 C 0.5626 0.35264 0.89454 0.0
C883 C 0.5293 0.3281 0.84871 0.0
C884 C 0.50926 0.32536 0.82548 0.0
C885 C 0.54119 0.34874 0.87374 0.0
C886 C 0.49955 0.34211 0.8301 0.0
C887 C 0.5112 0.36267 0.85523 0.0
H888 H 0.48519 0.65136 0.673 0.0
H889 H 0.56419 0.67572 0.64448 0.0
H890 H 0.57966 0.71344 0.68488 0.0
H891 H 0.57017 0.74258 0.72124 0.0
H892 H 0.49073 0.71782 0.74815 0.0
H893 H 0.47613 0.67719 0.71584 0.0
C894 C 0.50584 0.66465 0.67613 0.0
C895 C 0.52348 0.6609 0.65534 0.0
C896 C 0.51453 0.68646 0.69886 0.0
C897 C 0.55017 0.67813 0.66012 0.0
C898 C 0.55902 0.69984 0.68301 0.0
C899 C 0.54973 0.72806 0.72071 0.0
C900 C 0.53157 0.73349 0.73666 0.0
C901 C 0.54132 0.7047 0.70148 0.0
C902 C 0.50514 0.71437 0.7358 0.0
C903 C 0.49672 0.69108 0.71722 0.0
H904 H 0.37572 0.89391 0.65064 0.0
H905 H 0.41421 0.85114 0.67275 0.0
H906 H 0.38144 0.82497 0.71856 0.0
H907 H 0.33868 0.8099 0.74516 0.0
H908 H 0.29837 0.85065 0.72132 0.0
H909 H 0.33501 0.88206 0.68405 0.0
C910 C 0.37728 0.87937 0.66633 0.0
C911 C 0.39726 0.87435 0.65816 0.0
C912 C 0.35778 0.86371 0.69195 0.0
C913 C 0.39891 0.85525 0.67838 0.0
C914 C 0.38011 0.84019 0.70448 0.0
C915 C 0.33807 0.82592 0.73242 0.0
C916 C 0.31563 0.82766 0.73565 0.0
C917 C 0.35892 0.84353 0.71038 0.0
C918 C 0.31533 0.84873 0.71918 0.0
C919 C 0.33626 0.86666 0.69766 0.0
H920 H 0.19815 0.56343 0.67819 0.0
H921 H 0.14831 0.48514 0.64071 0.0
H922 H 0.16723 0.46954 0.68655 0.0
H923 H 0.20278 0.47931 0.73036 0.0
H924 H 0.25275 0.55806 0.76641 0.0
H925 H 0.22864 0.57218 0.72864 0.0
C926 C 0.19106 0.54288 0.68054 0.0
C927 C 0.17218 0.52552 0.65572 0.0
C928 C 0.20223 0.53414 0.70656 0.0
C929 C 0.16289 0.49892 0.65944 0.0
C930 C 0.17384 0.49001 0.6855 0.0
C931 C 0.20792 0.49942 0.73073 0.0
C932 C 0.22983 0.51766 0.75072 0.0
C933 C 0.19423 0.50758 0.70825 0.0
C934 C 0.23619 0.54366 0.75094 0.0
C935 C 0.22248 0.5518 0.72921 0.0
H936 H 0.39313 0.8301 0.087 0.0
H937 H 0.43038 0.91226 0.10618 0.0
H938 H 0.39269 0.9058 0.14138 0.0
H939 H 0.35198 0.87602 0.17421 0.0
H940 H 0.31643 0.79379 0.15675 0.0
H941 H 0.35039 0.80111 0.11306 0.0
C942 C 0.39286 0.84668 0.09832 0.0
C943 C 0.4147 0.87157 0.09444 0.0
C944 C 0.37145 0.84277 0.11916 0.0
C945 C 0.41387 0.89286 0.10891 0.0
C946 C 0.39237 0.88916 0.12923 0.0
C947 C 0.35134 0.85979 0.1601 0.0
C948 C 0.33188 0.83438 0.16905 0.0
C949 C 0.37143 0.86409 0.13566 0.0
C950 C 0.33136 0.81352 0.15067 0.0
C951 C 0.35082 0.81767 0.12573 0.0
H952 H 0.16096 0.52727 0.09514 0.0
H953 H 0.24073 0.58439 0.07205 0.0
H954 H 0.2552 0.55961 0.10739 0.0
H955 H 0.24561 0.5256 0.15251 0.0
H956 H 0.16628 0.46837 0.17689 0.0
H957 H 0.15124 0.48897 0.13297 0.0
C958 C 0.18146 0.53394 0.09707 0.0
C959 C 0.19973 0.55791 0.08149 0.0
C960 C 0.18977 0.51972 0.11807 0.0
C961 C 0.22624 0.5662 0.08414 0.0
C962 C 0.23458 0.55208 0.10447 0.0
C963 C 0.22502 0.51732 0.14763 0.0
C964 C 0.20708 0.49575 0.16827 0.0
C965 C 0.21658 0.52942 0.12279 0.0
C966 C 0.18048 0.48499 0.16134 0.0
C967 C 0.17188 0.4969 0.13643 0.0
H968 H 0.56891 0.70464 0.17887 0.0
H969 H 0.52167 0.73891 0.16122 0.0
H970 H 0.49559 0.70559 0.11612 0.0
H971 H 0.48223 0.66349 0.08873 0.0
H972 H 0.52773 0.62749 0.10785 0.0
H973 H 0.55854 0.6647 0.14466 0.0
C974 C 0.55337 0.70517 0.16433 0.0
C975 C 0.5471 0.72409 0.17359 0.0
C976 C 0.53783 0.68537 0.13905 0.0
C977 C 0.52674 0.72441 0.1548 0.0
C978 C 0.51173 0.7053 0.12908 0.0
C979 C 0.49913 0.66395 0.10035 0.0
C980 C 0.50242 0.64254 0.09592 0.0
C981 C 0.51645 0.68514 0.1221 0.0
C982 C 0.5246 0.64363 0.11094 0.0
C983 C 0.5422 0.66489 0.13219 0.0
H984 H 0.16213 0.63967 0.60169 0.0
H985 H 0.24216 0.66098 0.58851 0.0
H986 H 0.25607 0.70098 0.62218 0.0
H987 H 0.24549 0.727 0.6622 0.0
H988 H 0.16577 0.70604 0.67703 0.0
H989 H 0.15184 0.66919 0.63538 0.0
C990 C 0.18261 0.65333 0.60555 0.0
C991 C 0.20103 0.6471 0.59309 0.0
C992 C 0.19057 0.67629 0.62553 0.0
C993 C 0.22752 0.66508 0.59817 0.0
C994 C 0.23554 0.68799 0.61751 0.0
C995 C 0.22508 0.71462 0.65586 0.0
C996 C 0.20668 0.71903 0.67312 0.0
C997 C 0.21722 0.69333 0.63242 0.0
C998 C 0.18035 0.70305 0.66417 0.0
C999 C 0.17235 0.68185 0.64055 0.0
H1000 H 0.34845 0.48648 0.68606 0.0
H1001 H 0.31172 0.53137 0.66743 0.0
H1002 H 0.34444 0.55753 0.62164 0.0
H1003 H 0.38659 0.57163 0.59359 0.0
H1004 H 0.42486 0.52834 0.61325 0.0
H1005 H 0.38839 0.49747 0.65128 0.0
C1006 C 0.34727 0.50154 0.67124 0.0
C1007 C 0.32783 0.50714 0.68046 0.0
C1008 C 0.36666 0.51708 0.64545 0.0
C1009 C 0.32664 0.52684 0.66116 0.0
C1010 C 0.3454 0.54189 0.63501 0.0
C1011 C 0.38679 0.55519 0.60565 0.0
C1012 C 0.4086 0.55254 0.60099 0.0
C1013 C 0.36603 0.53783 0.628 0.0
C1014 C 0.40837 0.53095 0.6165 0.0
C1015 C 0.38756 0.51333 0.63845 0.0
H1016 H 0.52169 0.81051 0.65163 0.0
H1017 H 0.58074 0.88969 0.67238 0.0
H1018 H 0.55965 0.90461 0.62921 0.0
H1019 H 0.52081 0.89511 0.59294 0.0
H1020 H 0.462 0.81555 0.5729 0.0
H1021 H 0.48683 0.8009 0.60781 0.0
C1022 C 0.53022 0.83102 0.64614 0.0
C1023 C 0.55249 0.84898 0.66556 0.0
C1024 C 0.51789 0.83942 0.62162 0.0
C1025 C 0.56357 0.87547 0.65781 0.0
C1026 C 0.5514 0.88402 0.63332 0.0
C1027 C 0.51374 0.87458 0.59546 0.0
C1028 C 0.48932 0.85648 0.58086 0.0
C1029 C 0.52801 0.86618 0.61611 0.0
C1030 C 0.48056 0.82995 0.58419 0.0
C1031 C 0.4947 0.8215 0.60431 0.0
H1032 H 0.31636 0.48267 0.22628 0.0
H1033 H 0.33882 0.56218 0.2471 0.0
H1034 H 0.37923 0.57689 0.21391 0.0
H1035 H 0.40537 0.56753 0.17204 0.0
H1036 H 0.3834 0.48844 0.14971 0.0
H1037 H 0.34601 0.47327 0.19092 0.0
C1038 C 0.33035 0.50319 0.22423 0.0
C1039 C 0.32431 0.52127 0.23874 0.0
C1040 C 0.35359 0.51164 0.20452 0.0
C1041 C 0.34275 0.5478 0.23591 0.0
C1042 C 0.3659 0.55628 0.21682 0.0
C1043 C 0.39267 0.54696 0.1767 0.0
C1044 C 0.39697 0.52915 0.15744 0.0
C1045 C 0.37108 0.53842 0.19991 0.0
C1046 C 0.38054 0.50258 0.16417 0.0
C1047 C 0.35902 0.49389 0.18752 0.0
H1048 H 0.57257 0.84743 0.23207 0.0
H1049 H 0.49255 0.79394 0.2595 0.0
H1050 H 0.47907 0.81893 0.22255 0.0
H1051 H 0.48932 0.85196 0.17532 0.0
H1052 H 0.56903 0.90535 0.14671 0.0
H1053 H 0.5833 0.8847 0.19158 0.0
C1054 C 0.55225 0.8416 0.23071 0.0
C1055 C 0.53359 0.81857 0.24808 0.0
C1056 C 0.54451 0.85586 0.20876 0.0
C1057 C 0.50733 0.8114 0.24613 0.0
C1058 C 0.49956 0.82563 0.22483 0.0
C1059 C 0.50985 0.85938 0.17935 0.0
C1060 C 0.52805 0.87988 0.15726 0.0
C1061 C 0.51787 0.84725 0.20485 0.0
C1062 C 0.55459 0.88953 0.16324 0.0
C1063 C 0.56276 0.87761 0.18876 0.0
H1064 H 0.24008 0.70737 0.24684 0.0
H1065 H 0.20061 0.74819 0.21806 0.0
H1066 H 0.17048 0.712 0.17906 0.0
H1067 H 0.16017 0.67199 0.1453 0.0
H1068 H 0.2019 0.63311 0.17221 0.0
H1069 H 0.22599 0.66501 0.21999 0.0
C1070 C 0.22455 0.70817 0.23267 0.0
C1071 C 0.22288 0.73064 0.23492 0.0
C1072 C 0.20782 0.68766 0.20954 0.0
C1073 C 0.20245 0.73119 0.21669 0.0
C1074 C 0.1853 0.71054 0.19415 0.0
C1075 C 0.17401 0.67015 0.16237 0.0
C1076 C 0.17946 0.65039 0.15497 0.0
C1077 C 0.18847 0.68913 0.18917 0.0
C1078 C 0.19757 0.64831 0.17712 0.0
C1079 C 0.21142 0.66659 0.20439 0.0
H1080 H 0.15695 0.17019 0.30497 0.0
H1081 H 0.21797 0.25003 0.29533 0.0
H1082 H 0.23514 0.23961 0.24146 0.0
H1083 H 0.23388 0.20801 0.19834 0.0
H1084 H 0.1738 0.12779 0.20743 0.0
H1085 H 0.15535 0.13818 0.26035 0.0
C1086 C 0.17383 0.1853 0.2908 0.0
C1087 C 0.18617 0.21083 0.3042 0.0
C1088 C 0.18395 0.17911 0.25998 0.0
C1089 C 0.20817 0.23019 0.28575 0.0
C1090 C 0.21805 0.22427 0.25492 0.0
C1091 C 0.21675 0.19271 0.21182 0.0
C1092 C 0.20534 0.16714 0.19894 0.0
C1093 C 0.2063 0.19879 0.24209 0.0
C1094 C 0.18308 0.14765 0.21682 0.0
C1095 C 0.17247 0.15358 0.24704 0.0
H1096 H 0.82907 1.0052 0.30297 0.0
H1097 H 0.88492 0.98083 0.28849 0.0
H1098 H 0.90356 1.01003 0.23552 0.0
H1099 H 0.9031 0.04192 0.19221 0.0
H1100 H 0.84612 0.06475 0.20758 0.0
H1101 H 0.82912 0.03699 0.26161 0.0
C1102 C 0.84531 1.00616 0.28831 0.0
C1103 C 0.85546 0.9907 0.29966 0.0
C1104 C 0.85588 0.02291 0.2581 0.0
C1105 C 0.87661 0.9924 0.28028 0.0
C1106 C 0.88733 1.00917 0.25004 0.0
C1107 C 0.8872 0.04101 0.20774 0.0
C1108 C 0.87587 0.05535 0.19587 0.0
C1109 C 0.87708 0.02451 0.23862 0.0
C1110 C 0.85509 0.0538 0.216 0.0
C1111 C 0.8453 0.03789 0.24688 0.0
H1112 H 1.01156 0.81741 0.19772 0.0
H1113 H 0.99387 0.87825 0.21018 0.0
H1114 H 1.02428 0.89613 0.26195 0.0
H1115 H 0.05578 0.89412 0.30408 0.0
H1116 H 0.07222 0.83243 0.29088 0.0
H1117 H 0.04262 0.8155 0.23871 0.0
C1118 C 1.01423 0.83456 0.21172 0.0
C1119 C 1.00036 0.8464 0.20006 0.0
C1120 C 1.0317 0.84472 0.24123 0.0
C1121 C 1.00421 0.86866 0.21863 0.0
C1122 C 1.02166 0.87895 0.24816 0.0
C1123 C 0.05303 0.87712 0.28953 0.0
C1124 C 0.0662 0.86458 0.30139 0.0
C1125 C 0.03557 0.86716 0.25968 0.0
C1126 C 0.06225 0.84242 0.28247 0.0
C1127 C 0.0453 0.83267 0.25262 0.0
H1128 H 0.84999 0.81939 0.69507 0.0
H1129 H 0.92858 0.88264 0.70793 0.0
H1130 H 0.91534 0.89857 0.76088 0.0
H1131 H 0.88123 0.89403 0.80407 0.0
H1132 H 0.80313 0.82988 0.79057 0.0
H1133 H 0.81644 0.81501 0.73708 0.0
C1134 C 0.86433 0.83667 0.70937 0.0
C1135 C 0.89026 0.84975 0.69751 0.0
C1136 C 0.85662 0.84565 0.73963 0.0
C1137 C 0.90848 0.87212 0.71651 0.0
C1138 C 0.90091 0.88128 0.74674 0.0
C1139 C 0.86713 0.87694 0.78919 0.0
C1140 C 0.84123 0.86309 0.80135 0.0
C1141 C 0.875 0.86818 0.75857 0.0
C1142 C 0.82321 0.84083 0.78197 0.0
C1143 C 0.83078 0.83228 0.75135 0.0
H1144 H 0.18077 0.04254 0.69726 0.0
H1145 H 0.26114 0.0644 0.70806 0.0
H1146 H 0.25079 0.03656 0.76178 0.0
H1147 H 0.21927 1.00526 0.80444 0.0
H1148 H 0.13856 0.98214 0.79484 0.0
H1149 H 0.14872 1.01112 0.74178 0.0
C1150 C 0.19601 0.04136 0.71164 0.0
C1151 C 0.22168 0.0555 0.69856 0.0
C1152 C 0.18988 0.02493 0.74247 0.0
C1153 C 0.2412 0.05363 0.71734 0.0
C1154 C 0.23532 0.03769 0.74809 0.0
C1155 C 0.20378 1.00644 0.79083 0.0
C1156 C 0.17816 0.99141 0.80357 0.0
C1157 C 0.20974 0.02306 0.7606 0.0
C1158 C 0.15846 0.9934 0.78555 0.0
C1159 C 0.16427 1.01002 0.75525 0.0
H1160 H 1.00962 0.14971 0.69479 0.0
H1161 H 0.98309 0.20322 0.7154 0.0
H1162 H 1.01232 0.22114 0.76788 0.0
H1163 H 0.04641 0.22305 0.80628 0.0
H1164 H 0.07444 0.17067 0.78657 0.0
H1165 H 0.04386 0.15109 0.7352 0.0
C1166 C 1.01002 0.16501 0.71117 0.0
C1167 C 0.99418 0.1751 0.70123 0.0
C1168 C 1.0274 0.17571 0.74109 0.0
C1169 C 0.99513 0.19517 0.72239 0.0
C1170 C 1.0119 0.2055 0.75236 0.0
C1171 C 0.04599 0.20739 0.7908 0.0
C1172 C 0.06289 0.1985 0.80024 0.0
C1173 C 1.02838 0.19622 0.76158 0.0
C1174 C 0.06179 0.17804 0.77983 0.0
C1175 C 0.04422 0.16676 0.75053 0.0
H1176 H 0.82533 0.50836 0.63875 0.0
H1177 H 0.88864 0.587 0.62676 0.0
H1178 H 0.90584 0.57421 0.57554 0.0
H1179 H 0.90383 0.54104 0.53517 0.0
H1180 H 0.84109 0.46208 0.54553 0.0
H1181 H 0.82294 0.47464 0.59655 0.0
C1182 C 0.84272 0.5227 0.62464 0.0
C1183 C 0.85568 0.5486 0.63669 0.0
C1184 C 0.85282 0.51515 0.59521 0.0
C1185 C 0.87832 0.56692 0.61826 0.0
C1186 C 0.88824 0.55964 0.58896 0.0
C1187 C 0.88623 0.52645 0.54859 0.0
C1188 C 0.87397 0.50061 0.5366 0.0
C1189 C 0.87584 0.53381 0.5775 0.0
C1190 C 0.85104 0.4821 0.55427 0.0
C1191 C 0.84059 0.48929 0.58338 0.0
H1192 H 0.49598 0.33859 0.63558 0.0
H1193 H 0.55858 0.32289 0.62945 0.0
H1194 H 0.57699 0.3525 0.57689 0.0
H1195 H 0.57471 0.38239 0.53191 0.0
H1196 H 0.5114 0.39704 0.53917 0.0
H1197 H 0.4941 0.36848 0.59233 0.0
C1198 C 0.51364 0.34152 0.62281 0.0
C1199 C 0.52578 0.3284 0.6364 0.0
C1200 C 0.52411 0.35855 0.59287 0.0
C1201 C 0.54875 0.33265 0.61949 0.0
C1202 C 0.55933 0.34964 0.58949 0.0
C1203 C 0.55728 0.37951 0.54539 0.0
C1204 C 0.54436 0.39182 0.53148 0.0
C1205 C 0.54714 0.36269 0.5759 0.0
C1206 C 0.52168 0.38773 0.54911 0.0
C1207 C 0.51172 0.37136 0.57954 0.0
H1208 H 0.6768 0.20951 0.52979 0.0
H1209 H 0.65731 0.12986 0.53755 0.0
H1210 H 0.68618 0.14031 0.59021 0.0
H1211 H 0.71745 0.17178 0.63314 0.0
H1212 H 0.73855 0.25189 0.62584 0.0
H1213 H 0.70879 0.24158 0.57371 0.0
C1214 C 0.67873 0.19446 0.5433 0.0
C1215 C 0.66489 0.16894 0.52979 0.0
C1216 C 0.69584 0.20069 0.57336 0.0
C1217 C 0.6678 0.14967 0.54728 0.0
C1218 C 0.68434 0.15561 0.5774 0.0
C1219 C 0.71564 0.18709 0.62022 0.0
C1220 C 0.73027 0.21258 0.63345 0.0
C1221 C 0.6986 0.18105 0.59044 0.0
C1222 C 0.72762 0.2321 0.61617 0.0
C1223 C 0.71052 0.2262 0.58644 0.0
H1224 H 0.51175 0.1502 0.03389 0.0
H1225 H 0.59243 0.20894 0.04446 0.0
H1226 H 0.5818 0.22833 0.09605 0.0
H1227 H 0.54925 0.22817 0.13863 0.0
H1228 H 0.46887 0.1687 0.12659 0.0
H1229 H 0.47979 0.1503 0.0748 0.0
C1230 C 0.52714 0.1672 0.04745 0.0
C1231 C 0.55289 0.17799 0.03533 0.0
C1232 C 0.52089 0.17828 0.07672 0.0
C1233 C 0.57244 0.20013 0.05328 0.0
C1234 C 0.56636 0.21129 0.08271 0.0
C1235 C 0.53414 0.21136 0.12439 0.0
C1236 C 0.50827 0.19984 0.13656 0.0
C1237 C 0.54059 0.20054 0.09465 0.0
C1238 C 0.48894 0.17791 0.11799 0.0
C1239 C 0.49515 0.16731 0.08835 0.0
H1240 H 0.90066 0.37475 0.0287 0.0
H1241 H 0.84084 0.394 0.04106 0.0
H1242 H 0.82226 0.36352 0.09262 0.0
H1243 H 0.8237 0.33185 0.13522 0.0
H1244 H 0.88447 0.31399 0.12205 0.0
H1245 H 0.90168 0.34319 0.06953 0.0
C1246 C 0.88357 0.3724 0.04262 0.0
C1247 C 0.87228 0.3868 0.03104 0.0
C1248 C 0.87301 0.35488 0.07204 0.0
C1249 C 0.85005 0.38328 0.04945 0.0
C1250 C 0.83935 0.36578 0.07889 0.0
C1251 C 0.8405 0.33416 0.12052 0.0
C1252 C 0.85278 0.32077 0.13259 0.0
C1253 C 0.85069 0.35146 0.09048 0.0
C1254 C 0.87472 0.32415 0.11349 0.0
C1255 C 0.88463 0.34089 0.08345 0.0
H1256 H 0.67497 0.4807 0.03334 0.0
H1257 H 0.66668 0.548 0.02995 0.0
H1258 H 0.69636 0.56683 0.08176 0.0
H1259 H 0.72481 0.56462 0.12758 0.0
H1260 H 0.73416 0.498 0.1317 0.0
H1261 H 0.70416 0.47866 0.0798 0.0
C1262 C 0.67954 0.49938 0.04416 0.0
C1263 C 0.66858 0.51288 0.0278 0.0
C1264 C 0.69698 0.51036 0.07383 0.0
C1265 C 0.67488 0.53721 0.04191 0.0
C1266 C 0.69189 0.54804 0.07154 0.0
C1267 C 0.72042 0.5459 0.11714 0.0
C1268 C 0.73177 0.53283 0.13357 0.0
C1269 C 0.70314 0.53488 0.08755 0.0
C1270 C 0.72579 0.50857 0.11953 0.0
C1271 C 0.70854 0.49743 0.08994 0.0
H1272 H 0.55406 0.8972 0.96334 0.0
H1273 H 0.47439 0.83494 0.96194 0.0
H1274 H 0.48337 0.81618 0.90795 0.0
H1275 H 0.51413 0.81787 0.86058 0.0
H1276 H 0.59347 0.881 0.86324 0.0
H1277 H 0.58429 0.89877 0.91747 0.0
C1278 C 0.53856 0.87954 0.95131 0.0
C1279 C 0.51357 0.86757 0.9667 0.0
C1280 C 0.54384 0.86889 0.9205 0.0
C1281 C 0.49381 0.84464 0.95062 0.0
C1282 C 0.49895 0.83385 0.91978 0.0
C1283 C 0.5294 0.83539 0.87326 0.0
C1284 C 0.55443 0.84808 0.85776 0.0
C1285 C 0.52394 0.84582 0.90447 0.0
C1286 C 0.57399 0.87088 0.87437 0.0
C1287 C 0.56879 0.88111 0.90544 0.0
H1288 H 0.23894 0.71365 0.86034 0.0
H1289 H 0.17872 0.73217 0.87451 0.0
H1290 H 0.16142 0.70276 0.92685 0.0
H1291 H 0.16207 0.67064 0.96695 0.0
H1292 H 0.22133 0.65073 0.95342 0.0
H1293 H 0.24015 0.68162 0.90237 0.0
C1294 C 0.22227 0.71147 0.87527 0.0
C1295 C 0.21014 0.72507 0.86353 0.0
C1296 C 0.21201 0.69402 0.90512 0.0
C1297 C 0.18835 0.72184 0.88286 0.0
C1298 C 0.17838 0.70498 0.91277 0.0
C1299 C 0.17908 0.67294 0.95288 0.0
C1300 C 0.19013 0.65822 0.96395 0.0
C1301 C 0.18979 0.69069 0.92376 0.0
C1302 C 0.21231 0.66169 0.9454 0.0
C1303 C 0.22314 0.67943 0.91626 0.0
H1304 H 0.38733 0.56161 0.97403 0.0
H1305 H 0.41244 0.50697 0.95352 0.0
H1306 H 0.38253 0.48888 0.90178 0.0
H1307 H 0.34824 0.4872 0.86398 0.0
H1308 H 0.32176 0.54084 0.88381 0.0
H1309 H 0.35299 0.56049 0.93436 0.0
C1310 C 0.38646 0.54601 0.95784 0.0
C1311 C 0.40208 0.53565 0.96759 0.0
C1312 C 0.36873 0.53524 0.92837 0.0
C1313 C 0.40055 0.51522 0.94667 0.0
C1314 C 0.38341 0.50479 0.91713 0.0
C1315 C 0.34915 0.50315 0.87934 0.0
C1316 C 0.3325 0.51238 0.87018 0.0
C1317 C 0.36714 0.51437 0.90811 0.0
C1318 C 0.33422 0.53321 0.89036 0.0
C1319 C 0.35215 0.54453 0.9192 0.0
H1320 H 0.15929 0.50214 0.46229 0.0
H1321 H 0.22393 0.58055 0.4615 0.0
H1322 H 0.24277 0.57027 0.40888 0.0
H1323 H 0.24055 0.53871 0.36267 0.0
H1324 H 0.17529 0.46053 0.36507 0.0
H1325 H 0.15727 0.47107 0.41765 0.0
C1326 C 0.17747 0.5171 0.45064 0.0
C1327 C 0.19008 0.54211 0.46582 0.0
C1328 C 0.18821 0.51104 0.42071 0.0
C1329 C 0.21372 0.56113 0.45033 0.0
C1330 C 0.22455 0.55524 0.42028 0.0
C1331 C 0.2225 0.52398 0.37491 0.0
C1332 C 0.20931 0.49889 0.35979 0.0
C1333 C 0.21197 0.53021 0.40524 0.0
C1334 C 0.18584 0.48005 0.3759 0.0
C1335 C 0.17545 0.48603 0.40603 0.0
H1336 H 0.54767 0.66597 0.46498 0.0
H1337 H 0.46937 0.65139 0.46448 0.0
H1338 H 0.48026 0.68175 0.413 0.0
H1339 H 0.51244 0.71271 0.36817 0.0
H1340 H 0.59038 0.72616 0.36993 0.0
H1341 H 0.5792 0.69619 0.42124 0.0
C1342 C 0.53285 0.66928 0.45366 0.0
C1343 C 0.50771 0.65635 0.46864 0.0
C1344 C 0.53927 0.68678 0.42443 0.0
C1345 C 0.48886 0.66099 0.45343 0.0
C1346 C 0.49512 0.67844 0.4241 0.0
C1347 C 0.52699 0.70922 0.38004 0.0
C1348 C 0.55223 0.72172 0.36521 0.0
C1349 C 0.52034 0.69157 0.40947 0.0
C1350 C 0.5708 0.71678 0.38067 0.0
C1351 C 0.56443 0.6996 0.41002 0.0
H1352 H 0.38412 0.83726 0.46487 0.0
H1353 H 0.40009 0.91582 0.45779 0.0
H1354 H 0.37157 0.90452 0.40455 0.0
H1355 H 0.34194 0.87268 0.36054 0.0
H1356 H 0.32438 0.79362 0.36716 0.0
H1357 H 0.35346 0.80473 0.42032 0.0
C1358 C 0.38147 0.8519 0.45145 0.0
C1359 C 0.39427 0.87736 0.46523 0.0
C1360 C 0.36461 0.84517 0.42103 0.0
C1361 C 0.39042 0.89607 0.44784 0.0
C1362 C 0.3741 0.88964 0.41738 0.0
C1363 C 0.34439 0.85778 0.37353 0.0
C1364 C 0.33102 0.83236 0.35979 0.0
C1365 C 0.36102 0.86427 0.4039 0.0
C1366 C 0.33437 0.81334 0.37724 0.0
C1367 C 0.35108 0.8197 0.40754 0.0
H1368 H 0.33889 0.21829 0.15114 0.0
H1369 H 0.30204 0.13596 0.13341 0.0
H1370 H 0.33866 0.13573 0.16254 0.0
H1371 H 0.38112 0.15879 0.19309 0.0
H1372 H 0.41821 0.24115 0.21058 0.0
H1373 H 0.38139 0.24138 0.18197 0.0
C1374 C 0.33893 0.20031 0.15339 0.0
C1375 C 0.31773 0.17719 0.13987 0.0
C1376 C 0.35999 0.20026 0.17053 0.0
C1377 C 0.31809 0.15406 0.14338 0.0
C1378 C 0.339 0.15388 0.16019 0.0
C1379 C 0.38108 0.17678 0.19099 0.0
C1380 C 0.40241 0.1999 0.2042 0.0
C1381 C 0.36 0.17683 0.17403 0.0
C1382 C 0.40206 0.22304 0.20084 0.0
C1383 C 0.38103 0.22321 0.18431 0.0
H1384 H 0.82709 0.20005 0.18188 0.0
H1385 H 0.90798 0.24523 0.21123 0.0
H1386 H 0.91633 0.21429 0.17968 0.0
H1387 H 0.90079 0.17452 0.14329 0.0
H1388 H 0.81989 0.12929 0.11406 0.0
H1389 H 0.81156 0.16032 0.1454 0.0
C1390 C 0.84649 0.20297 0.18176 0.0
C1391 C 0.86683 0.22486 0.19915 0.0
C1392 C 0.85126 0.1853 0.16303 0.0
C1393 C 0.89192 0.2285 0.19825 0.0
C1394 C 0.89676 0.21088 0.18001 0.0
C1395 C 0.8814 0.17162 0.14336 0.0
C1396 C 0.86104 0.14968 0.1261 0.0
C1397 C 0.87663 0.18933 0.16203 0.0
C1398 C 0.83595 0.14606 0.12695 0.0
C1399 C 0.83113 0.16373 0.14507 0.0
H1400 H 0.81393 0.66763 0.18382 0.0
H1401 H 0.86148 0.63386 0.20334 0.0
H1402 H 0.89878 0.67192 0.17641 0.0
H1403 H 0.91786 0.71469 0.14695 0.0
H1404 H 0.87031 0.74849 0.12781 0.0
H1405 H 0.83301 0.71039 0.15457 0.0
C1406 C 0.83249 0.66863 0.18245 0.0
C1407 C 0.83487 0.6479 0.19576 0.0
C1408 C 0.85381 0.69049 0.16663 0.0
C1409 C 0.85907 0.64953 0.19347 0.0
C1410 C 0.88041 0.67127 0.17792 0.0
C1411 C 0.8993 0.71366 0.14835 0.0
C1412 C 0.8969 0.73442 0.13517 0.0
C1413 C 0.87797 0.6918 0.16422 0.0
C1414 C 0.87272 0.7328 0.13759 0.0
C1415 C 0.85138 0.71104 0.15303 0.0
H1416 H 0.16949 0.37481 0.31036 0.0
H1417 H 0.25183 0.41067 0.29213 0.0
H1418 H 0.25217 0.37544 0.32547 0.0
H1419 H 0.22915 0.33461 0.36 0.0
H1420 H 0.1468 0.29877 0.37822 0.0
H1421 H 0.14653 0.33414 0.34524 0.0
C1422 C 0.18749 0.37482 0.31332 0.0
C1423 C 0.21058 0.39529 0.29847 0.0
C1424 C 0.18761 0.35472 0.33303 0.0
C1425 C 0.23376 0.3951 0.30305 0.0
C1426 C 0.23399 0.37503 0.32231 0.0
C1427 C 0.21117 0.33465 0.35717 0.0
C1428 C 0.18804 0.3141 0.37181 0.0
C1429 C 0.21107 0.35484 0.33763 0.0
C1430 C 0.1649 0.31438 0.36744 0.0
C1431 C 0.1647 0.33454 0.34837 0.0
H1432 H 0.67755 0.80782 0.30674 0.0
H1433 H 0.6416 0.85372 0.29115 0.0
H1434 H 0.67881 0.89078 0.32013 0.0
H1435 H 0.72144 0.91008 0.35065 0.0
H1436 H 0.75695 0.8638 0.36682 0.0
H1437 H 0.71995 0.82699 0.33735 0.0
C1438 C 0.67793 0.826 0.30932 0.0
C1439 C 0.65681 0.82797 0.29649 0.0
C1440 C 0.69922 0.84713 0.32659 0.0
C1441 C 0.65759 0.85164 0.30057 0.0
C1442 C 0.67884 0.87283 0.31731 0.0
C1443 C 0.72101 0.89189 0.348 0.0
C1444 C 0.74199 0.88977 0.36115 0.0
C1445 C 0.69969 0.87076 0.33069 0.0
C1446 C 0.74111 0.86604 0.35715 0.0
C1447 C 0.71997 0.84496 0.34012 0.0
H1448 H 0.21432 0.81603 0.31143 0.0
H1449 H 0.26177 0.89677 0.28309 0.0
H1450 H 0.23106 0.90603 0.31365 0.0
H1451 H 0.19074 0.89121 0.34883 0.0
H1452 H 0.1436 0.81045 0.37736 0.0
H1453 H 0.17435 0.80132 0.34688 0.0
C1454 C 0.21782 0.83562 0.31159 0.0
C1455 C 0.24023 0.85563 0.29474 0.0
C1456 C 0.2003 0.84089 0.32974 0.0
C1457 C 0.24462 0.88096 0.29567 0.0
C1458 C 0.22712 0.88631 0.31332 0.0
C1459 C 0.18735 0.87167 0.34874 0.0
C1460 C 0.16493 0.85158 0.36553 0.0
C1461 C 0.20498 0.86646 0.3307 0.0
C1462 C 0.16072 0.82631 0.36478 0.0
C1463 C 0.17823 0.82103 0.34718 0.0
H1464 H 0.74587 0.88877 0.84504 0.0
H1465 H 0.70701 0.80837 0.87685 0.0
H1466 H 0.6678 0.80061 0.84497 0.0
H1467 H 0.64452 0.81657 0.8077 0.0
H1468 H 0.68346 0.89695 0.77572 0.0
H1469 H 0.7227 0.90465 0.80741 0.0
C1470 C 0.72873 0.86962 0.84537 0.0
C1471 C 0.72934 0.84924 0.86357 0.0
C1472 C 0.70634 0.86517 0.82641 0.0
C1473 C 0.70705 0.82445 0.86322 0.0
C1474 C 0.68464 0.81995 0.84482 0.0
C1475 C 0.66169 0.83569 0.80725 0.0
C1476 C 0.66105 0.8561 0.78915 0.0
C1477 C 0.68412 0.84011 0.82605 0.0
C1478 C 0.68341 0.88085 0.78928 0.0
C1479 C 0.70584 0.88532 0.8076 0.0
H1480 H 0.23503 0.84608 0.80467 0.0
H1481 H 0.15331 0.7979 0.78203 0.0
H1482 H 0.14502 0.82949 0.81162 0.0
H1483 H 0.1608 0.87034 0.84533 0.0
H1484 H 0.24253 0.91848 0.86793 0.0
H1485 H 0.25089 0.88723 0.83744 0.0
C1486 C 0.21545 0.84262 0.80579 0.0
C1487 C 0.19485 0.81967 0.79101 0.0
C1488 C 0.21074 0.8607 0.82337 0.0
C1489 C 0.16955 0.81542 0.79306 0.0
C1490 C 0.16476 0.83342 0.81018 0.0
C1491 C 0.18041 0.87389 0.84386 0.0
C1492 C 0.20097 0.89664 0.85914 0.0
C1493 C 0.18515 0.85598 0.82583 0.0
C1494 C 0.22631 0.90109 0.85655 0.0
C1495 C 0.23115 0.88327 0.83897 0.0
H1496 H 0.20787 0.40513 0.81946 0.0
H1497 H 0.25898 0.37572 0.7982 0.0
H1498 H 0.22726 0.33397 0.82443 0.0
H1499 H 0.185 0.30564 0.85378 0.0
H1500 H 0.13377 0.33491 0.87492 0.0
H1501 H 0.16554 0.37675 0.84883 0.0
C1502 C 0.212 0.38954 0.8203 0.0
C1503 C 0.2358 0.39364 0.80667 0.0
C1504 C 0.1937 0.36553 0.8358 0.0
C1505 C 0.24084 0.37319 0.80834 0.0
C1506 C 0.22272 0.34927 0.82349 0.0
C1507 C 0.18085 0.32122 0.85297 0.0
C1508 C 0.15701 0.31708 0.86651 0.0
C1509 C 0.19913 0.34523 0.8375 0.0
C1510 C 0.15194 0.3375 0.86485 0.0
C1511 C 0.17009 0.36146 0.84978 0.0
H1512 H 0.84303 0.72034 0.64759 0.0
H1513 H 0.9254 0.756 0.62981 0.0
H1514 H 0.9251 0.71939 0.65976 0.0
H1515 H 0.9015 0.6773 0.69113 0.0
H1516 H 0.81914 0.64169 0.70899 0.0
H1517 H 0.8195 0.67841 0.67936 0.0
C1518 C 0.8609 0.72002 0.64996 0.0
C1519 C 0.88418 0.74085 0.63622 0.0
C1520 C 0.86065 0.69906 0.66766 0.0
C1521 C 0.90719 0.74021 0.63996 0.0
C1522 C 0.90705 0.71932 0.65724 0.0
C1523 C 0.88366 0.67767 0.68889 0.0
C1524 C 0.86035 0.65678 0.70245 0.0
C1525 C 0.88393 0.69871 0.67138 0.0
C1526 C 0.83738 0.65752 0.69896 0.0
C1527 C 0.83754 0.67847 0.68184 0.0
H1528 H 0.3475 0.1402 0.63939 0.0
H1529 H 0.31211 0.18621 0.61957 0.0
H1530 H 0.34929 0.22365 0.6479 0.0
H1531 H 0.39144 0.24307 0.6794 0.0
H1532 H 0.42654 0.19683 0.69972 0.0
H1533 H 0.3897 0.15965 0.67048 0.0
C1534 C 0.348 0.15847 0.64089 0.0
C1535 C 0.32706 0.16039 0.62716 0.0
C1536 C 0.36925 0.1798 0.65775 0.0
C1537 C 0.32798 0.18419 0.62974 0.0
C1538 C 0.34919 0.20559 0.64611 0.0
C1539 C 0.39099 0.22482 0.67767 0.0
C1540 C 0.41172 0.22275 0.69196 0.0
C1541 C 0.36982 0.20355 0.66053 0.0
C1542 C 0.41084 0.19898 0.68914 0.0
C1543 C 0.38981 0.17772 0.67228 0.0
H1544 H 0.87237 0.1521 0.64358 0.0
H1545 H 0.92194 0.23334 0.61977 0.0
H1546 H 0.89067 0.24261 0.64828 0.0
H1547 H 0.84957 0.22786 0.68108 0.0
H1548 H 0.79995 0.14665 0.70499 0.0
H1549 H 0.831 0.13728 0.67585 0.0
C1550 C 0.8762 0.1718 0.64424 0.0
C1551 C 0.89946 0.19196 0.62936 0.0
C1552 C 0.85826 0.17708 0.66121 0.0
C1553 C 0.90419 0.21741 0.63086 0.0
C1554 C 0.88636 0.22277 0.64735 0.0
C1555 C 0.84563 0.20814 0.6802 0.0
C1556 C 0.8225 0.18803 0.69546 0.0
C1557 C 0.86345 0.20281 0.66296 0.0
C1558 C 0.81763 0.16254 0.69364 0.0
C1559 C 0.83534 0.15713 0.67682 0.0
H1560 H 0.05377 0.49057 0.51494 0.0
H1561 H 0.09019 0.5724 0.5368 0.0
H1562 H 0.05212 0.57244 0.51284 0.0
H1563 H 1.00856 0.54931 0.48547 0.0
H1564 H 0.97211 0.46747 0.46375 0.0
H1565 H 1.01023 0.46745 0.48756 0.0
C1566 C 0.05336 0.50841 0.51467 0.0
C1567 C 0.07483 0.53144 0.5278 0.0
C1568 C 1.03147 0.50834 0.50059 0.0
C1569 C 0.07396 0.55438 0.527 0.0
C1570 C 0.0522 0.55444 0.51318 0.0
C1571 C 1.00899 0.53148 0.48571 0.0
C1572 C 0.98749 0.50843 0.47268 0.0
C1573 C 1.03089 0.53156 0.49977 0.0
C1574 C 0.98837 0.4855 0.47349 0.0
C1575 C 1.01015 0.48545 0.48721 0.0
H1576 H 0.56184 0.57727 0.51398 0.0
H1577 H 0.48024 0.52897 0.53755 0.0
H1578 H 0.47991 0.49233 0.50787 0.0
H1579 H 0.50261 0.47393 0.47506 0.0
H1580 H 0.5843 0.52181 0.45207 0.0
H1581 H 0.58466 0.55872 0.48119 0.0
C1582 C 0.54402 0.55868 0.5129 0.0
C1583 C 0.52112 0.55591 0.52818 0.0
C1584 C 0.5439 0.53767 0.49547 0.0
C1585 C 0.49818 0.53169 0.52621 0.0
C1586 C 0.49793 0.51072 0.50906 0.0
C1587 C 0.52046 0.4925 0.47604 0.0
C1588 C 0.54336 0.4951 0.46111 0.0
C1589 C 0.52062 0.51352 0.4934 0.0
C1590 C 0.56636 0.51926 0.46313 0.0
C1591 C 0.56661 0.54037 0.47996 0.0
H1592 H 0.58021 0.0443 0.47137 0.0
H1593 H 0.53483 0.08108 0.4584 0.0
H1594 H 0.49837 0.04481 0.48982 0.0
H1595 H 0.47945 1.00284 0.52162 0.0
H1596 H 0.52481 0.96605 0.53461 0.0
H1597 H 0.56126 1.00228 0.50308 0.0
C1598 C 0.56226 0.04428 0.47504 0.0
C1599 C 0.56027 0.06538 0.46225 0.0
C1600 C 0.54145 0.0235 0.49365 0.0
C1601 C 0.53692 0.06509 0.46772 0.0
C1602 C 0.51607 0.04439 0.48589 0.0
C1603 C 0.49738 1.00284 0.51791 0.0
C1604 C 0.49938 0.98176 0.53076 0.0
C1605 C 0.51818 0.02359 0.49925 0.0
C1606 C 0.52272 0.98202 0.52524 0.0
C1607 C 0.54356 1.0027 0.50701 0.0
H1608 H 0.57103 0.07286 0.98054 0.0
H1609 H 0.48856 0.04032 0.9685 0.0
H1610 H 0.4807 0.99956 0.99493 0.0
H1611 H 0.49716 0.97308 0.02188 0.0
H1612 H 0.57963 1.00562 0.03384 0.0
H1613 H 0.58748 0.04639 0.00747 0.0
C1614 C 0.55134 0.05679 0.98343 0.0
C1615 C 0.53045 0.05968 0.97239 0.0
C1616 C 0.54691 0.03342 0.99902 0.0
C1617 C 0.50505 0.03868 0.97665 0.0
C1618 C 0.5005 1.01534 0.9919 0.0
C1619 C 0.51684 0.98915 0.01899 0.0
C1620 C 0.53775 0.98626 0.03 0.0
C1621 C 0.52127 1.01253 0.0034 0.0
C1622 C 0.56314 1.00726 0.02572 0.0
C1623 C 0.56768 0.0306 0.0105 0.0
H1624 H 1.00716 0.47029 0.97732 0.0
H1625 H 0.97252 0.51757 0.96351 0.0
H1626 H 1.01128 0.55472 0.98919 0.0
H1627 H 0.05491 0.57379 0.01597 0.0
H1628 H 0.08955 0.52653 0.02979 0.0
H1629 H 0.05081 0.48938 0.00405 0.0
C1630 C 1.00812 0.48875 0.97968 0.0
C1631 C 0.98692 0.4911 0.96832 0.0
C1632 C 1.03041 0.51003 0.99481 0.0
C1633 C 0.98852 0.51517 0.97189 0.0
C1634 C 1.01067 0.53644 0.9867 0.0
C1635 C 0.05396 0.55533 0.01358 0.0
C1636 C 0.07514 0.55299 0.02498 0.0
C1637 C 1.03168 0.53407 0.99843 0.0
C1638 C 0.07356 0.52892 0.02138 0.0
C1639 C 0.05142 0.50766 0.00653 0.0
H1640 H 0.58436 0.54987 0.97346 0.0
H1641 H 0.53721 0.4675 0.9564 0.0
H1642 H 0.50112 0.46701 0.9886 0.0
H1643 H 0.48304 0.48994 0.022 0.0
H1644 H 0.5305 0.57225 0.03962 0.0
H1645 H 0.56647 0.57268 0.00738 0.0
C1646 C 0.5661 0.53183 0.9764 0.0
C1647 C 0.56345 0.50878 0.9622 0.0
C1648 C 0.54559 0.53161 0.99558 0.0
C1649 C 0.53975 0.48555 0.96683 0.0
C1650 C 0.51914 0.48523 0.98543 0.0
C1651 C 0.50133 0.50794 0.01916 0.0
C1652 C 0.50404 0.53101 0.03343 0.0
C1653 C 0.5219 0.50811 0.00016 0.0
C1654 C 0.52786 0.55418 0.02912 0.0
C1655 C 0.54843 0.55448 0.01048 0.0
loop_
_geom_bond_atom_site_label_1
_geom_bond_atom_site_label_2
_geom_bond_distance
_geom_bond_site_symmetry_2
_ccdc_geom_bond_type
O0 Cd1 2.223 . S
O0 C8 1.315 . S
Cd1 O0 2.223 . S
Cd1 O4 2.297 . S
Cd1 O5 2.439 . S
Cd1 O11 2.240 . S
Cd2 O3 2.240 . S
Cd2 O10 2.223 . S
Cd2 O12 2.297 . S
Cd2 O13 2.439 . S
O3 Cd2 2.240 . S
O3 C8 1.279 . S
O4 Cd1 2.297 . S
O4 C6 1.247 . S
O5 Cd1 2.439 . S
O5 C6 1.208 . S
C6 O4 1.247 . S
C6 O5 1.208 . S
C7 O12 1.247 . S
C7 O13 1.208 . S
C8 O0 1.315 . S
C8 O3 1.279 . S
C9 O10 1.315 . S
C9 O11 1.279 . S
O10 Cd2 2.223 . S
O10 C9 1.315 . S
O11 Cd1 2.240 . S
O11 C9 1.279 . S
O12 Cd2 2.297 . S
O12 C7 1.247 . S
O13 Cd2 2.439 . S
O13 C7 1.208 . S
O14 Cd15 2.223 . S
O14 C22 1.315 . S
Cd15 O14 2.223 . S
Cd15 O18 2.297 . S
Cd15 O19 2.439 . S
Cd15 O25 2.240 . S
Cd16 O17 2.240 . S
Cd16 O24 2.223 . S
Cd16 O26 2.297 . S
Cd16 O27 2.439 . S
O17 Cd16 2.240 . S
O17 C22 1.279 . S
O18 Cd15 2.297 . S
O18 C20 1.247 . S
O19 Cd15 2.439 . S
O19 C20 1.208 . S
C20 O18 1.247 . S
C20 O19 1.208 . S
C21 O26 1.247 . S
C21 O27 1.208 . S
C22 O14 1.315 . S
C22 O17 1.279 . S
C23 O24 1.315 . S
C23 O25 1.279 . S
O24 Cd16 2.223 . S
O24 C23 1.315 . S
O25 Cd15 2.240 . S
O25 C23 1.279 . S
O26 Cd16 2.297 . S
O26 C21 1.247 . S
O27 Cd16 2.439 . S
O27 C21 1.208 . S
O28 Cd29 2.223 . S
O28 C36 1.315 . S
Cd29 O28 2.223 . S
Cd29 O32 2.297 . S
Cd29 O33 2.439 . S
Cd29 O39 2.240 . S
Cd30 O31 2.240 . S
Cd30 O38 2.223 . S
Cd30 O40 2.297 . S
Cd30 O41 2.439 . S
O31 Cd30 2.240 . S
O31 C36 1.279 . S
O32 Cd29 2.297 . S
O32 C34 1.247 . S
O33 Cd29 2.439 . S
O33 C34 1.208 . S
C34 O32 1.247 . S
C34 O33 1.208 . S
C35 O40 1.247 . S
C35 O41 1.208 . S
C36 O28 1.315 . S
C36 O31 1.279 . S
C37 O38 1.315 . S
C37 O39 1.279 . S
O38 Cd30 2.223 . S
O38 C37 1.315 . S
O39 Cd29 2.240 . S
O39 C37 1.279 . S
O40 Cd30 2.297 . S
O40 C35 1.247 . S
O41 Cd30 2.439 . S
O41 C35 1.208 . S
O42 Cd43 2.223 . S
O42 C50 1.315 . S
Cd43 O42 2.223 . S
Cd43 O46 2.297 . S
Cd43 O47 2.439 . S
Cd43 O53 2.240 . S
Cd44 O45 2.240 . S
Cd44 O52 2.223 . S
Cd44 O54 2.297 . S
Cd44 O55 2.439 . S
O45 Cd44 2.240 . S
O45 C50 1.279 . S
O46 Cd43 2.297 . S
O46 C48 1.247 . S
O47 Cd43 2.439 . S
O47 C48 1.208 . S
C48 O46 1.247 . S
C48 O47 1.208 . S
C49 O54 1.247 . S
C49 O55 1.208 . S
C50 O42 1.315 . S
C50 O45 1.279 . S
C51 O52 1.315 . S
C51 O53 1.279 . S
O52 Cd44 2.223 . S
O52 C51 1.315 . S
O53 Cd43 2.240 . S
O53 C51 1.279 . S
O54 Cd44 2.297 . S
O54 C49 1.247 . S
O55 Cd44 2.439 . S
O55 C49 1.208 . S
O56 Cd57 2.223 . S
O56 C64 1.315 . S
Cd57 O56 2.223 . S
Cd57 O60 2.297 . S
Cd57 O61 2.439 . S
Cd57 O67 2.240 . S
Cd58 O59 2.240 . S
Cd58 O66 2.223 . S
Cd58 O68 2.297 . S
Cd58 O69 2.439 . S
O59 Cd58 2.240 . S
O59 C64 1.279 . S
O60 Cd57 2.297 . S
O60 C62 1.247 . S
O61 Cd57 2.439 . S
O61 C62 1.208 . S
C62 O60 1.247 . S
C62 O61 1.208 . S
C63 O68 1.247 . S
C63 O69 1.208 . S
C64 O56 1.315 . S
C64 O59 1.279 . S
C65 O66 1.315 . S
C65 O67 1.279 . S
O66 Cd58 2.223 . S
O66 C65 1.315 . S
O67 Cd57 2.240 . S
O67 C65 1.279 . S
O68 Cd58 2.297 . S
O68 C63 1.247 . S
O69 Cd58 2.439 . S
O69 C63 1.208 . S
O70 Cd71 2.223 . S
O70 C78 1.315 . S
Cd71 O70 2.223 . S
Cd71 O74 2.297 . S
Cd71 O75 2.439 . S
Cd71 O81 2.240 . S
Cd72 O73 2.240 . S
Cd72 O80 2.223 . S
Cd72 O82 2.297 . S
Cd72 O83 2.439 . S
O73 Cd72 2.240 . S
O73 C78 1.279 . S
O74 Cd71 2.297 . S
O74 C76 1.247 . S
O75 Cd71 2.439 . S
O75 C76 1.208 . S
C76 O74 1.247 . S
C76 O75 1.208 . S
C77 O82 1.247 . S
C77 O83 1.208 . S
C78 O70 1.315 . S
C78 O73 1.279 . S
C79 O80 1.315 . S
C79 O81 1.279 . S
O80 Cd72 2.223 . S
O80 C79 1.315 . S
O81 Cd71 2.240 . S
O81 C79 1.279 . S
O82 Cd72 2.297 . S
O82 C77 1.247 . S
O83 Cd72 2.439 . S
O83 C77 1.208 . S
O84 Cd85 2.223 . S
O84 C92 1.315 . S
Cd85 O84 2.223 . S
Cd85 O88 2.297 . S
Cd85 O89 2.439 . S
Cd85 O95 2.240 . S
Cd86 O87 2.240 . S
Cd86 O94 2.223 . S
Cd86 O96 2.297 . S
Cd86 O97 2.439 . S
O87 Cd86 2.240 . S
O87 C92 1.279 . S
O88 Cd85 2.297 . S
O88 C90 1.247 . S
O89 Cd85 2.439 . S
O89 C90 1.208 . S
C90 O88 1.247 . S
C90 O89 1.208 . S
C91 O96 1.247 . S
C91 O97 1.208 . S
C92 O84 1.315 . S
C92 O87 1.279 . S
C93 O94 1.315 . S
C93 O95 1.279 . S
O94 Cd86 2.223 . S
O94 C93 1.315 . S
O95 Cd85 2.240 . S
O95 C93 1.279 . S
O96 Cd86 2.297 . S
O96 C91 1.247 . S
O97 Cd86 2.439 . S
O97 C91 1.208 . S
O98 Cd99 2.223 . S
O98 C106 1.315 . S
Cd99 O98 2.223 . S
Cd99 O102 2.297 . S
Cd99 O103 2.439 . S
Cd99 O109 2.240 . S
Cd100 O101 2.240 . S
Cd100 O108 2.223 . S
Cd100 O110 2.297 . S
Cd100 O111 2.439 . S
O101 Cd100 2.240 . S
O101 C106 1.279 . S
O102 Cd99 2.297 . S
O102 C104 1.247 . S
O103 Cd99 2.439 . S
O103 C104 1.208 . S
C104 O102 1.247 . S
C104 O103 1.208 . S
C105 O110 1.247 . S
C105 O111 1.208 . S
C106 O98 1.315 . S
C106 O101 1.279 . S
C107 O108 1.315 . S
C107 O109 1.279 . S
O108 Cd100 2.223 . S
O108 C107 1.315 . S
O109 Cd99 2.240 . S
O109 C107 1.279 . S
O110 Cd100 2.297 . S
O110 C105 1.247 . S
O111 Cd100 2.439 . S
O111 C105 1.208 . S
O112 Cd113 2.223 . S
O112 C120 1.315 . S
Cd113 O112 2.223 . S
Cd113 O116 2.297 . S
Cd113 O117 2.439 . S
Cd113 O123 2.240 . S
Cd114 O115 2.240 . S
Cd114 O122 2.223 . S
Cd114 O124 2.297 . S
Cd114 O125 2.439 . S
O115 Cd114 2.240 . S
O115 C120 1.279 . S
O116 Cd113 2.297 . S
O116 C118 1.247 . S
O117 Cd113 2.439 . S
O117 C118 1.208 . S
C118 O116 1.247 . S
C118 O117 1.208 . S
C119 O124 1.247 . S
C119 O125 1.208 . S
C120 O112 1.315 . S
C120 O115 1.279 . S
C121 O122 1.315 . S
C121 O123 1.279 . S
O122 Cd114 2.223 . S
O122 C121 1.315 . S
O123 Cd113 2.240 . S
O123 C121 1.279 . S
O124 Cd114 2.297 . S
O124 C119 1.247 . S
O125 Cd114 2.439 . S
O125 C119 1.208 . S
O126 Cd127 2.223 . S
O126 C134 1.315 . S
Cd127 O126 2.223 . S
Cd127 O130 2.297 . S
Cd127 O131 2.439 . S
Cd127 O137 2.240 . S
Cd128 O129 2.240 . S
Cd128 O136 2.223 . S
Cd128 O138 2.297 . S
Cd128 O139 2.439 . S
O129 Cd128 2.240 . S
O129 C134 1.279 . S
O130 Cd127 2.297 . S
O130 C132 1.247 . S
O131 Cd127 2.439 . S
O131 C132 1.208 . S
C132 O130 1.247 . S
C132 O131 1.208 . S
C133 O138 1.247 . S
C133 O139 1.208 . S
C134 O126 1.315 . S
C134 O129 1.279 . S
C135 O136 1.315 . S
C135 O137 1.279 . S
O136 Cd128 2.223 . S
O136 C135 1.315 . S
O137 Cd127 2.240 . S
O137 C135 1.279 . S
O138 Cd128 2.297 . S
O138 C133 1.247 . S
O139 Cd128 2.439 . S
O139 C133 1.208 . S
O140 Cd141 2.223 . S
O140 C148 1.315 . S
Cd141 O140 2.223 . S
Cd141 O144 2.297 . S
Cd141 O145 2.439 . S
Cd141 O151 2.240 . S
Cd142 O143 2.240 . S
Cd142 O150 2.223 . S
Cd142 O152 2.297 . S
Cd142 O153 2.439 . S
O143 Cd142 2.240 . S
O143 C148 1.279 . S
O144 Cd141 2.297 . S
O144 C146 1.247 . S
O145 Cd141 2.439 . S
O145 C146 1.208 . S
C146 O144 1.247 . S
C146 O145 1.208 . S
C147 O152 1.247 . S
C147 O153 1.208 . S
C148 O140 1.315 . S
C148 O143 1.279 . S
C149 O150 1.315 . S
C149 O151 1.279 . S
O150 Cd142 2.223 . S
O150 C149 1.315 . S
O151 Cd141 2.240 . S
O151 C149 1.279 . S
O152 Cd142 2.297 . S
O152 C147 1.247 . S
O153 Cd142 2.439 . S
O153 C147 1.208 . S
O154 Cd155 2.223 . S
O154 C162 1.315 . S
Cd155 O154 2.223 . S
Cd155 O158 2.297 . S
Cd155 O159 2.439 . S
Cd155 O165 2.240 . S
Cd156 O157 2.240 . S
Cd156 O164 2.223 . S
Cd156 O166 2.297 . S
Cd156 O167 2.439 . S
O157 Cd156 2.240 . S
O157 C162 1.279 . S
O158 Cd155 2.297 . S
O158 C160 1.247 . S
O159 Cd155 2.439 . S
O159 C160 1.208 . S
C160 O158 1.247 . S
C160 O159 1.208 . S
C161 O166 1.247 . S
C161 O167 1.208 . S
C162 O154 1.315 . S
C162 O157 1.279 . S
C163 O164 1.315 . S
C163 O165 1.279 . S
O164 Cd156 2.223 . S
O164 C163 1.315 . S
O165 Cd155 2.240 . S
O165 C163 1.279 . S
O166 Cd156 2.297 . S
O166 C161 1.247 . S
O167 Cd156 2.439 . S
O167 C161 1.208 . S
O168 Cd169 2.223 . S
O168 C176 1.315 . S
Cd169 O168 2.223 . S
Cd169 O172 2.297 . S
Cd169 O173 2.439 . S
Cd169 O179 2.240 . S
Cd170 O171 2.240 . S
Cd170 O178 2.223 . S
Cd170 O180 2.297 . S
Cd170 O181 2.439 . S
O171 Cd170 2.240 . S
O171 C176 1.279 . S
O172 Cd169 2.297 . S
O172 C174 1.247 . S
O173 Cd169 2.439 . S
O173 C174 1.208 . S
C174 O172 1.247 . S
C174 O173 1.208 . S
C175 O180 1.247 . S
C175 O181 1.208 . S
C176 O168 1.315 . S
C176 O171 1.279 . S
C177 O178 1.315 . S
C177 O179 1.279 . S
O178 Cd170 2.223 . S
O178 C177 1.315 . S
O179 Cd169 2.240 . S
O179 C177 1.279 . S
O180 Cd170 2.297 . S
O180 C175 1.247 . S
O181 Cd170 2.439 . S
O181 C175 1.208 . S
O182 Cd183 2.223 . S
O182 C190 1.315 . S
Cd183 O182 2.223 . S
Cd183 O186 2.297 . S
Cd183 O187 2.439 . S
Cd183 O193 2.240 . S
Cd184 O185 2.240 . S
Cd184 O192 2.223 . S
Cd184 O194 2.297 . S
Cd184 O195 2.439 . S
O185 Cd184 2.240 . S
O185 C190 1.279 . S
O186 Cd183 2.297 . S
O186 C188 1.247 . S
O187 Cd183 2.439 . S
O187 C188 1.208 . S
C188 O186 1.247 . S
C188 O187 1.208 . S
C189 O194 1.247 . S
C189 O195 1.208 . S
C190 O182 1.315 . S
C190 O185 1.279 . S
C191 O192 1.315 . S
C191 O193 1.279 . S
O192 Cd184 2.223 . S
O192 C191 1.315 . S
O193 Cd183 2.240 . S
O193 C191 1.279 . S
O194 Cd184 2.297 . S
O194 C189 1.247 . S
O195 Cd184 2.439 . S
O195 C189 1.208 . S
O196 Cd197 2.223 . S
O196 C204 1.315 . S
Cd197 O196 2.223 . S
Cd197 O200 2.297 . S
Cd197 O201 2.439 . S
Cd197 O207 2.240 . S
Cd198 O199 2.240 . S
Cd198 O206 2.223 . S
Cd198 O208 2.297 . S
Cd198 O209 2.439 . S
O199 Cd198 2.240 . S
O199 C204 1.279 . S
O200 Cd197 2.297 . S
O200 C202 1.247 . S
O201 Cd197 2.439 . S
O201 C202 1.208 . S
C202 O200 1.247 . S
C202 O201 1.208 . S
C203 O208 1.247 . S
C203 O209 1.208 . S
C204 O196 1.315 . S
C204 O199 1.279 . S
C205 O206 1.315 . S
C205 O207 1.279 . S
O206 Cd198 2.223 . S
O206 C205 1.315 . S
O207 Cd197 2.240 . S
O207 C205 1.279 . S
O208 Cd198 2.297 . S
O208 C203 1.247 . S
O209 Cd198 2.439 . S
O209 C203 1.208 . S
O210 Cd211 2.223 . S
O210 C218 1.315 . S
Cd211 O210 2.223 . S
Cd211 O214 2.297 . S
Cd211 O215 2.439 . S
Cd211 O221 2.240 . S
Cd212 O213 2.240 . S
Cd212 O220 2.223 . S
Cd212 O222 2.297 . S
Cd212 O223 2.439 . S
O213 Cd212 2.240 . S
O213 C218 1.279 . S
O214 Cd211 2.297 . S
O214 C216 1.247 . S
O215 Cd211 2.439 . S
O215 C216 1.208 . S
C216 O214 1.247 . S
C216 O215 1.208 . S
C217 O222 1.247 . S
C217 O223 1.208 . S
C218 O210 1.315 . S
C218 O213 1.279 . S
C219 O220 1.315 . S
C219 O221 1.279 . S
O220 Cd212 2.223 . S
O220 C219 1.315 . S
O221 Cd211 2.240 . S
O221 C219 1.279 . S
O222 Cd212 2.297 . S
O222 C217 1.247 . S
O223 Cd212 2.439 . S
O223 C217 1.208 . S
O224 Cd225 2.223 . S
O224 C232 1.315 . S
Cd225 O224 2.223 . S
Cd225 O228 2.297 . S
Cd225 O229 2.439 . S
Cd225 O235 2.240 . S
Cd226 O227 2.240 . S
Cd226 O234 2.223 . S
Cd226 O236 2.297 . S
Cd226 O237 2.439 . S
O227 Cd226 2.240 . S
O227 C232 1.279 . S
O228 Cd225 2.297 . S
O228 C230 1.247 . S
O229 Cd225 2.439 . S
O229 C230 1.208 . S
C230 O228 1.247 . S
C230 O229 1.208 . S
C231 O236 1.247 . S
C231 O237 1.208 . S
C232 O224 1.315 . S
C232 O227 1.279 . S
C233 O234 1.315 . S
C233 O235 1.279 . S
O234 Cd226 2.223 . S
O234 C233 1.315 . S
O235 Cd225 2.240 . S
O235 C233 1.279 . S
O236 Cd226 2.297 . S
O236 C231 1.247 . S
O237 Cd226 2.439 . S
O237 C231 1.208 . S
O238 Cd239 2.223 . S
O238 C246 1.315 . S
Cd239 O238 2.223 . S
Cd239 O242 2.297 . S
Cd239 O243 2.439 . S
Cd239 O249 2.240 . S
Cd240 O241 2.240 . S
Cd240 O248 2.223 . S
Cd240 O250 2.297 . S
Cd240 O251 2.439 . S
O241 Cd240 2.240 . S
O241 C246 1.279 . S
O242 Cd239 2.297 . S
O242 C244 1.247 . S
O243 Cd239 2.439 . S
O243 C244 1.208 . S
C244 O242 1.247 . S
C244 O243 1.208 . S
C245 O250 1.247 . S
C245 O251 1.208 . S
C246 O238 1.315 . S
C246 O241 1.279 . S
C247 O248 1.315 . S
C247 O249 1.279 . S
O248 Cd240 2.223 . S
O248 C247 1.315 . S
O249 Cd239 2.240 . S
O249 C247 1.279 . S
O250 Cd240 2.297 . S
O250 C245 1.247 . S
O251 Cd240 2.439 . S
O251 C245 1.208 . S
O252 Cd253 2.223 . S
O252 C260 1.315 . S
Cd253 O252 2.223 . S
Cd253 O256 2.297 . S
Cd253 O257 2.439 . S
Cd253 O263 2.240 . S
Cd254 O255 2.240 . S
Cd254 O262 2.223 . S
Cd254 O264 2.297 . S
Cd254 O265 2.439 . S
O255 Cd254 2.240 . S
O255 C260 1.279 . S
O256 Cd253 2.297 . S
O256 C258 1.247 . S
O257 Cd253 2.439 . S
O257 C258 1.208 . S
C258 O256 1.247 . S
C258 O257 1.208 . S
C259 O264 1.247 . S
C259 O265 1.208 . S
C260 O252 1.315 . S
C260 O255 1.279 . S
C261 O262 1.315 . S
C261 O263 1.279 . S
O262 Cd254 2.223 . S
O262 C261 1.315 . S
O263 Cd253 2.240 . S
O263 C261 1.279 . S
O264 Cd254 2.297 . S
O264 C259 1.247 . S
O265 Cd254 2.439 . S
O265 C259 1.208 . S
O266 Cd267 2.223 . S
O266 C274 1.315 . S
Cd267 O266 2.223 . S
Cd267 O270 2.297 . S
Cd267 O271 2.439 . S
Cd267 O277 2.240 . S
Cd268 O269 2.240 . S
Cd268 O276 2.223 . S
Cd268 O278 2.297 . S
Cd268 O279 2.439 . S
O269 Cd268 2.240 . S
O269 C274 1.279 . S
O270 Cd267 2.297 . S
O270 C272 1.247 . S
O271 Cd267 2.439 . S
O271 C272 1.208 . S
C272 O270 1.247 . S
C272 O271 1.208 . S
C273 O278 1.247 . S
C273 O279 1.208 . S
C274 O266 1.315 . S
C274 O269 1.279 . S
C275 O276 1.315 . S
C275 O277 1.279 . S
O276 Cd268 2.223 . S
O276 C275 1.315 . S
O277 Cd267 2.240 . S
O277 C275 1.279 . S
O278 Cd268 2.297 . S
O278 C273 1.247 . S
O279 Cd268 2.439 . S
O279 C273 1.208 . S
O280 Cd281 2.223 . S
O280 C288 1.315 . S
Cd281 O280 2.223 . S
Cd281 O284 2.297 . S
Cd281 O285 2.439 . S
Cd281 O291 2.240 . S
Cd282 O283 2.240 . S
Cd282 O290 2.223 . S
Cd282 O292 2.297 . S
Cd282 O293 2.439 . S
O283 Cd282 2.240 . S
O283 C288 1.279 . S
O284 Cd281 2.297 . S
O284 C286 1.247 . S
O285 Cd281 2.439 . S
O285 C286 1.208 . S
C286 O284 1.247 . S
C286 O285 1.208 . S
C287 O292 1.247 . S
C287 O293 1.208 . S
C288 O280 1.315 . S
C288 O283 1.279 . S
C289 O290 1.315 . S
C289 O291 1.279 . S
O290 Cd282 2.223 . S
O290 C289 1.315 . S
O291 Cd281 2.240 . S
O291 C289 1.279 . S
O292 Cd282 2.297 . S
O292 C287 1.247 . S
O293 Cd282 2.439 . S
O293 C287 1.208 . S
O294 Cd295 2.223 . S
O294 C302 1.315 . S
Cd295 O294 2.223 . S
Cd295 O298 2.297 . S
Cd295 O299 2.439 . S
Cd295 O305 2.240 . S
Cd296 O297 2.240 . S
Cd296 O304 2.223 . S
Cd296 O306 2.297 . S
Cd296 O307 2.439 . S
O297 Cd296 2.240 . S
O297 C302 1.279 . S
O298 Cd295 2.297 . S
O298 C300 1.247 . S
O299 Cd295 2.439 . S
O299 C300 1.208 . S
C300 O298 1.247 . S
C300 O299 1.208 . S
C301 O306 1.247 . S
C301 O307 1.208 . S
C302 O294 1.315 . S
C302 O297 1.279 . S
C303 O304 1.315 . S
C303 O305 1.279 . S
O304 Cd296 2.223 . S
O304 C303 1.315 . S
O305 Cd295 2.240 . S
O305 C303 1.279 . S
O306 Cd296 2.297 . S
O306 C301 1.247 . S
O307 Cd296 2.439 . S
O307 C301 1.208 . S
O308 Cd309 2.223 . S
O308 C316 1.315 . S
Cd309 O308 2.223 . S
Cd309 O312 2.297 . S
Cd309 O313 2.439 . S
Cd309 O319 2.240 . S
Cd310 O311 2.240 . S
Cd310 O318 2.223 . S
Cd310 O320 2.297 . S
Cd310 O321 2.439 . S
O311 Cd310 2.240 . S
O311 C316 1.279 . S
O312 Cd309 2.297 . S
O312 C314 1.247 . S
O313 Cd309 2.439 . S
O313 C314 1.208 . S
C314 O312 1.247 . S
C314 O313 1.208 . S
C315 O320 1.247 . S
C315 O321 1.208 . S
C316 O308 1.315 . S
C316 O311 1.279 . S
C317 O318 1.315 . S
C317 O319 1.279 . S
O318 Cd310 2.223 . S
O318 C317 1.315 . S
O319 Cd309 2.240 . S
O319 C317 1.279 . S
O320 Cd310 2.297 . S
O320 C315 1.247 . S
O321 Cd310 2.439 . S
O321 C315 1.208 . S
O322 Cd323 2.223 . S
O322 C330 1.315 . S
Cd323 O322 2.223 . S
Cd323 O326 2.297 . S
Cd323 O327 2.439 . S
Cd323 O333 2.240 . S
Cd324 O325 2.240 . S
Cd324 O332 2.223 . S
Cd324 O334 2.297 . S
Cd324 O335 2.439 . S
O325 Cd324 2.240 . S
O325 C330 1.279 . S
O326 Cd323 2.297 . S
O326 C328 1.247 . S
O327 Cd323 2.439 . S
O327 C328 1.208 . S
C328 O326 1.247 . S
C328 O327 1.208 . S
C329 O334 1.247 . S
C329 O335 1.208 . S
C330 O322 1.315 . S
C330 O325 1.279 . S
C331 O332 1.315 . S
C331 O333 1.279 . S
O332 Cd324 2.223 . S
O332 C331 1.315 . S
O333 Cd323 2.240 . S
O333 C331 1.279 . S
O334 Cd324 2.297 . S
O334 C329 1.247 . S
O335 Cd324 2.439 . S
O335 C329 1.208 . S
O336 Cd337 2.223 . S
O336 C344 1.315 . S
Cd337 O336 2.223 . S
Cd337 O340 2.297 . S
Cd337 O341 2.439 . S
Cd337 O347 2.240 . S
Cd338 O339 2.240 . S
Cd338 O346 2.223 . S
Cd338 O348 2.297 . S
Cd338 O349 2.439 . S
O339 Cd338 2.240 . S
O339 C344 1.279 . S
O340 Cd337 2.297 . S
O340 C342 1.247 . S
O341 Cd337 2.439 . S
O341 C342 1.208 . S
C342 O340 1.247 . S
C342 O341 1.208 . S
C343 O348 1.247 . S
C343 O349 1.208 . S
C344 O336 1.315 . S
C344 O339 1.279 . S
C345 O346 1.315 . S
C345 O347 1.279 . S
O346 Cd338 2.223 . S
O346 C345 1.315 . S
O347 Cd337 2.240 . S
O347 C345 1.279 . S
O348 Cd338 2.297 . S
O348 C343 1.247 . S
O349 Cd338 2.439 . S
O349 C343 1.208 . S
O350 Cd351 2.223 . S
O350 C358 1.315 . S
Cd351 O350 2.223 . S
Cd351 O354 2.297 . S
Cd351 O355 2.439 . S
Cd351 O361 2.240 . S
Cd352 O353 2.240 . S
Cd352 O360 2.223 . S
Cd352 O362 2.297 . S
Cd352 O363 2.439 . S
O353 Cd352 2.240 . S
O353 C358 1.279 . S
O354 Cd351 2.297 . S
O354 C356 1.247 . S
O355 Cd351 2.439 . S
O355 C356 1.208 . S
C356 O354 1.247 . S
C356 O355 1.208 . S
C357 O362 1.247 . S
C357 O363 1.208 . S
C358 O350 1.315 . S
C358 O353 1.279 . S
C359 O360 1.315 . S
C359 O361 1.279 . S
O360 Cd352 2.223 . S
O360 C359 1.315 . S
O361 Cd351 2.240 . S
O361 C359 1.279 . S
O362 Cd352 2.297 . S
O362 C357 1.247 . S
O363 Cd352 2.439 . S
O363 C357 1.208 . S
O364 Cd365 2.223 . S
O364 C372 1.315 . S
Cd365 O364 2.223 . S
Cd365 O368 2.297 . S
Cd365 O369 2.439 . S
Cd365 O375 2.240 . S
Cd366 O367 2.240 . S
Cd366 O374 2.223 . S
Cd366 O376 2.297 . S
Cd366 O377 2.439 . S
O367 Cd366 2.240 . S
O367 C372 1.279 . S
O368 Cd365 2.297 . S
O368 C370 1.247 . S
O369 Cd365 2.439 . S
O369 C370 1.208 . S
C370 O368 1.247 . S
C370 O369 1.208 . S
C371 O376 1.247 . S
C371 O377 1.208 . S
C372 O364 1.315 . S
C372 O367 1.279 . S
C373 O374 1.315 . S
C373 O375 1.279 . S
O374 Cd366 2.223 . S
O374 C373 1.315 . S
O375 Cd365 2.240 . S
O375 C373 1.279 . S
O376 Cd366 2.297 . S
O376 C371 1.247 . S
O377 Cd366 2.439 . S
O377 C371 1.208 . S
O378 Cd379 2.223 . S
O378 C386 1.315 . S
Cd379 O378 2.223 . S
Cd379 O382 2.297 . S
Cd379 O383 2.439 . S
Cd379 O389 2.240 . S
Cd380 O381 2.240 . S
Cd380 O388 2.223 . S
Cd380 O390 2.297 . S
Cd380 O391 2.439 . S
O381 Cd380 2.240 . S
O381 C386 1.279 . S
O382 Cd379 2.297 . S
O382 C384 1.247 . S
O383 Cd379 2.439 . S
O383 C384 1.208 . S
C384 O382 1.247 . S
C384 O383 1.208 . S
C385 O390 1.247 . S
C385 O391 1.208 . S
C386 O378 1.315 . S
C386 O381 1.279 . S
C387 O388 1.315 . S
C387 O389 1.279 . S
O388 Cd380 2.223 . S
O388 C387 1.315 . S
O389 Cd379 2.240 . S
O389 C387 1.279 . S
O390 Cd380 2.297 . S
O390 C385 1.247 . S
O391 Cd380 2.439 . S
O391 C385 1.208 . S
O392 Cd393 2.223 . S
O392 C400 1.315 . S
Cd393 O392 2.223 . S
Cd393 O396 2.297 . S
Cd393 O397 2.439 . S
Cd393 O403 2.240 . S
Cd394 O395 2.240 . S
Cd394 O402 2.223 . S
Cd394 O404 2.297 . S
Cd394 O405 2.439 . S
O395 Cd394 2.240 . S
O395 C400 1.279 . S
O396 Cd393 2.297 . S
O396 C398 1.247 . S
O397 Cd393 2.439 . S
O397 C398 1.208 . S
C398 O396 1.247 . S
C398 O397 1.208 . S
C399 O404 1.247 . S
C399 O405 1.208 . S
C400 O392 1.315 . S
C400 O395 1.279 . S
C401 O402 1.315 . S
C401 O403 1.279 . S
O402 Cd394 2.223 . S
O402 C401 1.315 . S
O403 Cd393 2.240 . S
O403 C401 1.279 . S
O404 Cd394 2.297 . S
O404 C399 1.247 . S
O405 Cd394 2.439 . S
O405 C399 1.208 . S
O406 Cd407 2.223 . S
O406 C414 1.315 . S
Cd407 O406 2.223 . S
Cd407 O410 2.297 . S
Cd407 O411 2.439 . S
Cd407 O417 2.240 . S
Cd408 O409 2.240 . S
Cd408 O416 2.223 . S
Cd408 O418 2.297 . S
Cd408 O419 2.439 . S
O409 Cd408 2.240 . S
O409 C414 1.279 . S
O410 Cd407 2.297 . S
O410 C412 1.247 . S
O411 Cd407 2.439 . S
O411 C412 1.208 . S
C412 O410 1.247 . S
C412 O411 1.208 . S
C413 O418 1.247 . S
C413 O419 1.208 . S
C414 O406 1.315 . S
C414 O409 1.279 . S
C415 O416 1.315 . S
C415 O417 1.279 . S
O416 Cd408 2.223 . S
O416 C415 1.315 . S
O417 Cd407 2.240 . S
O417 C415 1.279 . S
O418 Cd408 2.297 . S
O418 C413 1.247 . S
O419 Cd408 2.439 . S
O419 C413 1.208 . S
O420 Cd421 2.223 . S
O420 C428 1.315 . S
Cd421 O420 2.223 . S
Cd421 O424 2.297 . S
Cd421 O425 2.439 . S
Cd421 O431 2.240 . S
Cd422 O423 2.240 . S
Cd422 O430 2.223 . S
Cd422 O432 2.297 . S
Cd422 O433 2.439 . S
O423 Cd422 2.240 . S
O423 C428 1.279 . S
O424 Cd421 2.297 . S
O424 C426 1.247 . S
O425 Cd421 2.439 . S
O425 C426 1.208 . S
C426 O424 1.247 . S
C426 O425 1.208 . S
C427 O432 1.247 . S
C427 O433 1.208 . S
C428 O420 1.315 . S
C428 O423 1.279 . S
C429 O430 1.315 . S
C429 O431 1.279 . S
O430 Cd422 2.223 . S
O430 C429 1.315 . S
O431 Cd421 2.240 . S
O431 C429 1.279 . S
O432 Cd422 2.297 . S
O432 C427 1.247 . S
O433 Cd422 2.439 . S
O433 C427 1.208 . S
O434 Cd435 2.223 . S
O434 C442 1.315 . S
Cd435 O434 2.223 . S
Cd435 O438 2.297 . S
Cd435 O439 2.439 . S
Cd435 O445 2.240 . S
Cd436 O437 2.240 . S
Cd436 O444 2.223 . S
Cd436 O446 2.297 . S
Cd436 O447 2.439 . S
O437 Cd436 2.240 . S
O437 C442 1.279 . S
O438 Cd435 2.297 . S
O438 C440 1.247 . S
O439 Cd435 2.439 . S
O439 C440 1.208 . S
C440 O438 1.247 . S
C440 O439 1.208 . S
C441 O446 1.247 . S
C441 O447 1.208 . S
C442 O434 1.315 . S
C442 O437 1.279 . S
C443 O444 1.315 . S
C443 O445 1.279 . S
O444 Cd436 2.223 . S
O444 C443 1.315 . S
O445 Cd435 2.240 . S
O445 C443 1.279 . S
O446 Cd436 2.297 . S
O446 C441 1.247 . S
O447 Cd436 2.439 . S
O447 C441 1.208 . S
O448 Cd449 2.223 . S
O448 C456 1.315 . S
Cd449 O448 2.223 . S
Cd449 O452 2.297 . S
Cd449 O453 2.439 . S
Cd449 O459 2.240 . S
Cd450 O451 2.240 . S
Cd450 O458 2.223 . S
Cd450 O460 2.297 . S
Cd450 O461 2.439 . S
O451 Cd450 2.240 . S
O451 C456 1.279 . S
O452 Cd449 2.297 . S
O452 C454 1.247 . S
O453 Cd449 2.439 . S
O453 C454 1.208 . S
C454 O452 1.247 . S
C454 O453 1.208 . S
C455 O460 1.247 . S
C455 O461 1.208 . S
C456 O448 1.315 . S
C456 O451 1.279 . S
C457 O458 1.315 . S
C457 O459 1.279 . S
O458 Cd450 2.223 . S
O458 C457 1.315 . S
O459 Cd449 2.240 . S
O459 C457 1.279 . S
O460 Cd450 2.297 . S
O460 C455 1.247 . S
O461 Cd450 2.439 . S
O461 C455 1.208 . S
O462 Cd463 2.223 . S
O462 C470 1.315 . S
Cd463 O462 2.223 . S
Cd463 O466 2.297 . S
Cd463 O467 2.439 . S
Cd463 O473 2.240 . S
Cd464 O465 2.240 . S
Cd464 O472 2.223 . S
Cd464 O474 2.297 . S
Cd464 O475 2.439 . S
O465 Cd464 2.240 . S
O465 C470 1.279 . S
O466 Cd463 2.297 . S
O466 C468 1.247 . S
O467 Cd463 2.439 . S
O467 C468 1.208 . S
C468 O466 1.247 . S
C468 O467 1.208 . S
C469 O474 1.247 . S
C469 O475 1.208 . S
C470 O462 1.315 . S
C470 O465 1.279 . S
C471 O472 1.315 . S
C471 O473 1.279 . S
O472 Cd464 2.223 . S
O472 C471 1.315 . S
O473 Cd463 2.240 . S
O473 C471 1.279 . S
O474 Cd464 2.297 . S
O474 C469 1.247 . S
O475 Cd464 2.439 . S
O475 C469 1.208 . S
O476 Cd477 2.223 . S
O476 C484 1.315 . S
Cd477 O476 2.223 . S
Cd477 O480 2.297 . S
Cd477 O481 2.439 . S
Cd477 O487 2.240 . S
Cd478 O479 2.240 . S
Cd478 O486 2.223 . S
Cd478 O488 2.297 . S
Cd478 O489 2.439 . S
O479 Cd478 2.240 . S
O479 C484 1.279 . S
O480 Cd477 2.297 . S
O480 C482 1.247 . S
O481 Cd477 2.439 . S
O481 C482 1.208 . S
C482 O480 1.247 . S
C482 O481 1.208 . S
C483 O488 1.247 . S
C483 O489 1.208 . S
C484 O476 1.315 . S
C484 O479 1.279 . S
C485 O486 1.315 . S
C485 O487 1.279 . S
O486 Cd478 2.223 . S
O486 C485 1.315 . S
O487 Cd477 2.240 . S
O487 C485 1.279 . S
O488 Cd478 2.297 . S
O488 C483 1.247 . S
O489 Cd478 2.439 . S
O489 C483 1.208 . S
O490 Cd491 2.223 . S
O490 C498 1.315 . S
Cd491 O490 2.223 . S
Cd491 O494 2.297 . S
Cd491 O495 2.439 . S
Cd491 O501 2.240 . S
Cd492 O493 2.240 . S
Cd492 O500 2.223 . S
Cd492 O502 2.297 . S
Cd492 O503 2.439 . S
O493 Cd492 2.240 . S
O493 C498 1.279 . S
O494 Cd491 2.297 . S
O494 C496 1.247 . S
O495 Cd491 2.439 . S
O495 C496 1.208 . S
C496 O494 1.247 . S
C496 O495 1.208 . S
C497 O502 1.247 . S
C497 O503 1.208 . S
C498 O490 1.315 . S
C498 O493 1.279 . S
C499 O500 1.315 . S
C499 O501 1.279 . S
O500 Cd492 2.223 . S
O500 C499 1.315 . S
O501 Cd491 2.240 . S
O501 C499 1.279 . S
O502 Cd492 2.297 . S
O502 C497 1.247 . S
O503 Cd492 2.439 . S
O503 C497 1.208 . S
H504 C510 0.930 . S
H505 C513 0.930 . S
H506 C514 0.930 . S
H507 C515 0.930 . S
H508 C518 0.930 . S
H509 C519 0.930 1_554 S
C510 H504 0.930 . S
C510 C511 1.355 . S
C510 C512 1.415 . S
C511 C510 1.355 . S
C511 C513 1.419 . S
C512 C510 1.415 . S
C512 C517 1.425 1_554 S
C512 C519 1.409 1_554 S
C513 H505 0.930 . S
C513 C511 1.419 . S
C513 C514 1.362 1_554 S
C514 H506 0.930 . S
C514 C513 1.362 1_556 S
C514 C517 1.409 . S
C515 H507 0.930 . S
C515 C516 1.355 . S
C515 C517 1.415 1_565 S
C516 C515 1.355 . S
C516 C518 1.419 . S
C517 C512 1.425 1_556 S
C517 C514 1.409 . S
C517 C515 1.415 1_545 S
C518 H508 0.930 . S
C518 C516 1.419 . S
C518 C519 1.362 1_565 S
C519 H509 0.930 1_556 S
C519 C512 1.409 1_556 S
C519 C518 1.362 1_545 S
H520 C526 0.930 . S
H521 C529 0.930 . S
H522 C530 0.930 . S
H523 C531 0.903 1_655 S
H524 C534 0.930 . S
H525 C535 0.930 1_554 S
C526 H520 0.930 . S
C526 C527 1.355 . S
C526 C528 1.415 . S
C527 C526 1.355 . S
C527 C529 1.419 . S
C528 C526 1.415 . S
C528 C533 1.425 1_554 S
C528 C535 1.409 1_654 S
C529 H521 0.930 . S
C529 C527 1.419 . S
C529 C530 1.362 1_554 S
C530 H522 0.930 . S
C530 C529 1.362 1_556 S
C530 C533 1.409 . S
C531 H523 0.903 1_455 S
C531 C532 1.407 . S
C531 C533 1.390 1_455 S
C532 C531 1.407 . S
C532 C534 1.419 . S
C533 C528 1.425 1_556 S
C533 C530 1.409 . S
C533 C531 1.390 1_655 S
C534 H524 0.930 . S
C534 C532 1.419 . S
C534 C535 1.362 . S
C535 H525 0.930 1_556 S
C535 C528 1.409 1_456 S
C535 C534 1.362 . S
H536 C542 0.930 . S
H537 C545 0.930 . S
H538 C546 0.930 . S
H539 C547 0.930 . S
H540 C550 0.930 . S
H541 C551 0.930 . S
C542 H536 0.930 . S
C542 C543 1.355 . S
C542 C544 1.415 . S
C543 C542 1.355 . S
C543 C545 1.419 . S
C544 C542 1.415 . S
C544 C549 1.425 . S
C544 C551 1.409 1_556 S
C545 H537 0.930 . S
C545 C543 1.419 . S
C545 C546 1.362 . S
C546 H538 0.930 . S
C546 C545 1.362 . S
C546 C549 1.409 . S
C547 H539 0.930 . S
C547 C548 1.355 . S
C547 C549 1.415 1_554 S
C548 C547 1.355 . S
C548 C550 1.419 . S
C549 C544 1.425 . S
C549 C546 1.409 . S
C549 C547 1.415 1_556 S
C550 H540 0.930 . S
C550 C548 1.419 . S
C550 C551 1.362 . S
C551 H541 0.930 . S
C551 C544 1.409 1_554 S
C551 C550 1.362 . S
H552 C558 0.930 1_455 S
H553 C561 0.930 . S
H554 C562 0.930 . S
H555 C563 0.930 . S
H556 C566 0.930 . S
H557 C567 0.930 . S
C558 H552 0.930 1_655 S
C558 C559 1.355 . S
C558 C560 1.415 1_655 S
C559 C558 1.355 . S
C559 C561 1.419 . S
C560 C558 1.415 1_455 S
C560 C565 1.425 . S
C560 C567 1.409 . S
C561 H553 0.930 . S
C561 C559 1.419 . S
C561 C562 1.362 . S
C562 H554 0.930 . S
C562 C561 1.362 . S
C562 C565 1.409 1_655 S
C563 H555 0.930 . S
C563 C564 1.355 . S
C563 C565 1.415 . S
C564 C563 1.355 . S
C564 C566 1.419 . S
C565 C560 1.425 . S
C565 C562 1.409 1_455 S
C565 C563 1.415 . S
C566 H556 0.930 . S
C566 C564 1.419 . S
C566 C567 1.362 . S
C567 H557 0.930 . S
C567 C560 1.409 . S
C567 C566 1.362 . S
H568 C574 0.930 . S
H569 C577 0.930 . S
H570 C578 0.930 . S
H571 C579 0.930 . S
H572 C582 0.930 . S
H573 C583 0.930 . S
C574 H568 0.930 . S
C574 C575 1.355 . S
C574 C576 1.415 . S
C575 C574 1.355 . S
C575 C577 1.419 . S
C576 C574 1.415 . S
C576 C581 1.425 . S
C576 C583 1.409 . S
C577 H569 0.930 . S
C577 C575 1.419 . S
C577 C578 1.362 . S
C578 H570 0.930 . S
C578 C577 1.362 . S
C578 C581 1.409 . S
C579 H571 0.930 . S
C579 C580 1.355 . S
C579 C581 1.415 . S
C580 C579 1.355 . S
C580 C582 1.419 . S
C581 C576 1.425 . S
C581 C578 1.409 . S
C581 C579 1.415 . S
C582 H572 0.930 . S
C582 C580 1.419 . S
C582 C583 1.362 . S
C583 H573 0.930 . S
C583 C576 1.409 . S
C583 C582 1.362 . S
H584 C590 0.930 . S
H585 C593 0.930 . S
H586 C594 0.930 . S
H587 C595 0.932 . S
H588 C598 0.930 . S
H589 C599 0.930 . S
C590 H584 0.930 . S
C590 C591 1.355 . S
C590 C592 1.415 . S
C591 C590 1.355 . S
C591 C593 1.419 . S
C592 C590 1.415 . S
C592 C597 1.425 . S
C592 C599 1.409 1_565 S
C593 H585 0.930 . S
C593 C591 1.419 . S
C593 C594 1.362 . S
C594 H586 0.930 . S
C594 C593 1.362 . S
C594 C597 1.409 . S
C595 H587 0.932 . S
C595 C596 1.337 1_565 S
C595 C597 1.431 . S
C596 C595 1.337 1_545 S
C596 C598 1.419 . S
C597 C592 1.425 . S
C597 C594 1.409 . S
C597 C595 1.431 . S
C598 H588 0.930 . S
C598 C596 1.419 . S
C598 C599 1.362 . S
C599 H589 0.930 . S
C599 C592 1.409 1_545 S
C599 C598 1.362 . S
H600 C606 0.930 . S
H601 C609 0.930 . S
H602 C610 0.930 . S
H603 C611 0.930 . S
H604 C614 0.930 . S
H605 C615 0.930 . S
C606 H600 0.930 . S
C606 C607 1.355 . S
C606 C608 1.415 1_545 S
C607 C606 1.355 . S
C607 C609 1.419 . S
C608 C606 1.415 1_565 S
C608 C613 1.425 1_554 S
C608 C615 1.409 . S
C609 H601 0.930 . S
C609 C607 1.419 . S
C609 C610 1.362 1_554 S
C610 H602 0.930 . S
C610 C609 1.362 1_556 S
C610 C613 1.409 1_545 S
C611 H603 0.930 . S
C611 C612 1.355 . S
C611 C613 1.415 . S
C612 C611 1.355 . S
C612 C614 1.419 . S
C613 C608 1.425 1_556 S
C613 C610 1.409 1_565 S
C613 C611 1.415 . S
C614 H604 0.930 . S
C614 C612 1.419 . S
C614 C615 1.362 1_556 S
C615 H605 0.930 . S
C615 C608 1.409 . S
C615 C614 1.362 1_554 S
H616 C622 0.909 1_455 S
H617 C625 0.930 . S
H618 C626 0.930 1_556 S
H619 C627 0.930 . S
H620 C630 0.930 . S
H621 C631 0.930 . S
C622 H616 0.909 1_655 S
C622 C623 1.355 . S
C622 C624 1.415 1_655 S
C623 C622 1.355 . S
C623 C625 1.419 . S
C624 C622 1.415 1_455 S
C624 C629 1.425 1_554 S
C624 C631 1.409 . S
C625 H617 0.930 . S
C625 C623 1.419 . S
C625 C626 1.362 . S
C626 H618 0.930 1_554 S
C626 C625 1.362 . S
C626 C629 1.409 1_654 S
C627 H619 0.930 . S
C627 C628 1.355 . S
C627 C629 1.415 . S
C628 C627 1.355 . S
C628 C630 1.419 . S
C629 C624 1.425 1_556 S
C629 C626 1.409 1_456 S
C629 C627 1.415 . S
C630 H620 0.930 . S
C630 C628 1.419 . S
C630 C631 1.362 1_556 S
C631 H621 0.930 . S
C631 C624 1.409 . S
C631 C630 1.362 1_554 S
H632 C638 0.930 1_554 S
H633 C641 0.930 . S
H634 C642 0.930 . S
H635 C643 0.930 . S
H636 C646 0.930 . S
H637 C647 0.930 . S
C638 H632 0.930 1_556 S
C638 C639 1.355 . S
C638 C640 1.415 1_556 S
C639 C638 1.355 . S
C639 C641 1.419 . S
C640 C638 1.415 1_554 S
C640 C645 1.425 1_554 S
C640 C647 1.409 . S
C641 H633 0.930 . S
C641 C639 1.419 . S
C641 C642 1.362 . S
C642 H634 0.930 . S
C642 C641 1.362 . S
C642 C645 1.409 . S
C643 H635 0.930 . S
C643 C644 1.355 . S
C643 C645 1.415 1_554 S
C644 C643 1.355 . S
C644 C646 1.419 . S
C645 C640 1.425 1_556 S
C645 C642 1.409 . S
C645 C643 1.415 1_556 S
C646 H636 0.930 . S
C646 C644 1.419 . S
C646 C647 1.362 . S
C647 H637 0.930 . S
C647 C640 1.409 . S
C647 C646 1.362 . S
H648 C654 0.930 . S
H649 C657 0.930 . S
H650 C658 0.930 . S
H651 C659 0.930 . S
H652 C662 0.930 . S
H653 C663 0.930 . S
C654 H648 0.930 . S
C654 C655 1.355 . S
C654 C656 1.415 . S
C655 C654 1.355 . S
C655 C657 1.419 . S
C656 C654 1.415 . S
C656 C661 1.425 . S
C656 C663 1.409 . S
C657 H649 0.930 . S
C657 C655 1.419 . S
C657 C658 1.362 . S
C658 H650 0.930 . S
C658 C657 1.362 . S
C658 C661 1.409 . S
C659 H651 0.930 . S
C659 C660 1.355 . S
C659 C661 1.415 1_455 S
C660 C659 1.355 . S
C660 C662 1.419 . S
C661 C656 1.425 . S
C661 C658 1.409 . S
C661 C659 1.415 1_655 S
C662 H652 0.930 . S
C662 C660 1.419 . S
C662 C663 1.362 1_455 S
C663 H653 0.930 . S
C663 C656 1.409 . S
C663 C662 1.362 1_655 S
H664 C670 0.930 . S
H665 C673 0.930 . S
H666 C674 0.930 . S
H667 C675 0.930 . S
H668 C678 0.930 . S
H669 C679 0.930 . S
C670 H664 0.930 . S
C670 C671 1.355 . S
C670 C672 1.415 . S
C671 C670 1.355 . S
C671 C673 1.419 . S
C672 C670 1.415 . S
C672 C677 1.425 . S
C672 C679 1.409 . S
C673 H665 0.930 . S
C673 C671 1.419 . S
C673 C674 1.362 . S
C674 H666 0.930 . S
C674 C673 1.362 . S
C674 C677 1.409 . S
C675 H667 0.930 . S
C675 C676 1.355 . S
C675 C677 1.415 . S
C676 C675 1.355 . S
C676 C678 1.419 . S
C677 C672 1.425 . S
C677 C674 1.409 . S
C677 C675 1.415 . S
C678 H668 0.930 . S
C678 C676 1.419 . S
C678 C679 1.362 . S
C679 H669 0.930 . S
C679 C672 1.409 . S
C679 C678 1.362 . S
H680 C686 0.930 . S
H681 C689 0.930 . S
H682 C690 0.930 . S
H683 C691 0.930 . S
H684 C694 0.930 . S
H685 C695 0.930 . S
C686 H680 0.930 . S
C686 C687 1.355 . S
C686 C688 1.415 . S
C687 C686 1.355 . S
C687 C689 1.419 . S
C688 C686 1.415 . S
C688 C693 1.425 . S
C688 C695 1.409 . S
C689 H681 0.930 . S
C689 C687 1.419 . S
C689 C690 1.362 . S
C690 H682 0.930 . S
C690 C689 1.362 . S
C690 C693 1.409 . S
C691 H683 0.930 . S
C691 C692 1.355 . S
C691 C693 1.415 1_565 S
C692 C691 1.355 . S
C692 C694 1.419 . S
C693 C688 1.425 . S
C693 C690 1.409 . S
C693 C691 1.415 1_545 S
C694 H684 0.930 . S
C694 C692 1.419 . S
C694 C695 1.362 1_565 S
C695 H685 0.930 . S
C695 C688 1.409 . S
C695 C694 1.362 1_545 S
H696 C702 0.930 . S
H697 C705 0.930 . S
H698 C706 0.930 . S
H699 C707 0.930 . S
H700 C710 0.930 . S
H701 C711 0.930 . S
C702 H696 0.930 . S
C702 C703 1.355 . S
C702 C704 1.415 . S
C703 C702 1.355 . S
C703 C705 1.419 . S
C704 C702 1.415 . S
C704 C709 1.425 . S
C704 C711 1.409 . S
C705 H697 0.930 . S
C705 C703 1.419 . S
C705 C706 1.362 . S
C706 H698 0.930 . S
C706 C705 1.362 . S
C706 C709 1.409 . S
C707 H699 0.930 . S
C707 C708 1.355 . S
C707 C709 1.415 . S
C708 C707 1.355 . S
C708 C710 1.419 . S
C709 C704 1.425 . S
C709 C706 1.409 . S
C709 C707 1.415 . S
C710 H700 0.930 . S
C710 C708 1.419 . S
C710 C711 1.362 . S
C711 H701 0.930 . S
C711 C704 1.409 . S
C711 C710 1.362 . S
H712 C718 0.930 . S
H713 C721 0.930 . S
H714 C722 0.930 . S
H715 C723 0.930 . S
H716 C726 0.930 . S
H717 C727 0.930 . S
C718 H712 0.930 . S
C718 C719 1.355 . S
C718 C720 1.415 . S
C719 C718 1.355 . S
C719 C721 1.419 . S
C720 C718 1.415 . S
C720 C725 1.425 . S
C720 C727 1.409 . S
C721 H713 0.930 . S
C721 C719 1.419 . S
C721 C722 1.362 . S
C722 H714 0.930 . S
C722 C721 1.362 . S
C722 C725 1.409 . S
C723 H715 0.930 . S
C723 C724 1.355 . S
C723 C725 1.415 . S
C724 C723 1.355 . S
C724 C726 1.419 . S
C725 C720 1.425 . S
C725 C722 1.409 . S
C725 C723 1.415 . S
C726 H716 0.930 . S
C726 C724 1.419 . S
C726 C727 1.362 . S
C727 H717 0.930 . S
C727 C720 1.409 . S
C727 C726 1.362 . S
H728 C734 0.930 . S
H729 C737 0.930 . S
H730 C738 0.930 . S
H731 C739 0.930 . S
H732 C742 0.930 . S
H733 C743 0.930 . S
C734 H728 0.930 . S
C734 C735 1.355 . S
C734 C736 1.415 . S
C735 C734 1.355 . S
C735 C737 1.419 . S
C736 C734 1.415 . S
C736 C741 1.425 . S
C736 C743 1.409 . S
C737 H729 0.930 . S
C737 C735 1.419 . S
C737 C738 1.362 . S
C738 H730 0.930 . S
C738 C737 1.362 . S
C738 C741 1.409 . S
C739 H731 0.930 . S
C739 C740 1.355 . S
C739 C741 1.415 . S
C740 C739 1.355 . S
C740 C742 1.419 . S
C741 C736 1.425 . S
C741 C738 1.409 . S
C741 C739 1.415 . S
C742 H732 0.930 . S
C742 C740 1.419 . S
C742 C743 1.362 . S
C743 H733 0.930 . S
C743 C736 1.409 . S
C743 C742 1.362 . S
H744 C750 0.930 . S
H745 C753 0.930 . S
H746 C754 0.930 . S
H747 C755 0.930 . S
H748 C758 0.930 . S
H749 C759 0.930 . S
C750 H744 0.930 . S
C750 C751 1.355 . S
C750 C752 1.415 . S
C751 C750 1.355 . S
C751 C753 1.419 . S
C752 C750 1.415 . S
C752 C757 1.425 . S
C752 C759 1.409 . S
C753 H745 0.930 . S
C753 C751 1.419 . S
C753 C754 1.362 . S
C754 H746 0.930 . S
C754 C753 1.362 . S
C754 C757 1.409 . S
C755 H747 0.930 . S
C755 C756 1.355 . S
C755 C757 1.415 . S
C756 C755 1.355 . S
C756 C758 1.419 . S
C757 C752 1.425 . S
C757 C754 1.409 . S
C757 C755 1.415 . S
C758 H748 0.930 . S
C758 C756 1.419 . S
C758 C759 1.362 . S
C759 H749 0.930 . S
C759 C752 1.409 . S
C759 C758 1.362 . S
H760 C766 0.930 . S
H761 C769 0.930 . S
H762 C770 0.930 . S
H763 C771 0.930 . S
H764 C774 0.930 . S
H765 C775 0.930 . S
C766 H760 0.930 . S
C766 C767 1.355 . S
C766 C768 1.415 . S
C767 C766 1.355 . S
C767 C769 1.419 . S
C768 C766 1.415 . S
C768 C773 1.425 . S
C768 C775 1.409 . S
C769 H761 0.930 . S
C769 C767 1.419 . S
C769 C770 1.362 . S
C770 H762 0.930 . S
C770 C769 1.362 . S
C770 C773 1.409 . S
C771 H763 0.930 . S
C771 C772 1.355 . S
C771 C773 1.415 . S
C772 C771 1.355 . S
C772 C774 1.419 . S
C773 C768 1.425 . S
C773 C770 1.409 . S
C773 C771 1.415 . S
C774 H764 0.930 . S
C774 C772 1.419 . S
C774 C775 1.362 . S
C775 H765 0.930 . S
C775 C768 1.409 . S
C775 C774 1.362 . S
H776 C782 0.930 . S
H777 C785 0.930 . S
H778 C786 0.930 . S
H779 C787 0.930 . S
H780 C790 0.930 . S
H781 C791 0.930 . S
C782 H776 0.930 . S
C782 C783 1.355 . S
C782 C784 1.415 . S
C783 C782 1.355 . S
C783 C785 1.419 . S
C784 C782 1.415 . S
C784 C789 1.425 . S
C784 C791 1.409 . S
C785 H777 0.930 . S
C785 C783 1.419 . S
C785 C786 1.362 . S
C786 H778 0.930 . S
C786 C785 1.362 . S
C786 C789 1.409 . S
C787 H779 0.930 . S
C787 C788 1.355 . S
C787 C789 1.415 . S
C788 C787 1.355 . S
C788 C790 1.419 . S
C789 C784 1.425 . S
C789 C786 1.409 . S
C789 C787 1.415 . S
C790 H780 0.930 . S
C790 C788 1.419 . S
C790 C791 1.362 . S
C791 H781 0.930 . S
C791 C784 1.409 . S
C791 C790 1.362 . S
H792 C798 0.930 . S
H793 C801 0.930 . S
H794 C802 0.930 . S
H795 C803 0.930 . S
H796 C806 0.930 . S
H797 C807 0.930 . S
C798 H792 0.930 . S
C798 C799 1.355 . S
C798 C800 1.415 . S
C799 C798 1.355 . S
C799 C801 1.419 . S
C800 C798 1.415 . S
C800 C805 1.425 . S
C800 C807 1.409 . S
C801 H793 0.930 . S
C801 C799 1.419 . S
C801 C802 1.362 . S
C802 H794 0.930 . S
C802 C801 1.362 . S
C802 C805 1.409 . S
C803 H795 0.930 . S
C803 C804 1.355 . S
C803 C805 1.415 . S
C804 C803 1.355 . S
C804 C806 1.419 . S
C805 C800 1.425 . S
C805 C802 1.409 . S
C805 C803 1.415 . S
C806 H796 0.930 . S
C806 C804 1.419 . S
C806 C807 1.362 . S
C807 H797 0.930 . S
C807 C800 1.409 . S
C807 C806 1.362 . S
H808 C814 0.930 . S
H809 C817 0.930 . S
H810 C818 0.930 . S
H811 C819 0.930 . S
H812 C822 0.930 . S
H813 C823 0.930 . S
C814 H808 0.930 . S
C814 C815 1.355 . S
C814 C816 1.415 . S
C815 C814 1.355 . S
C815 C817 1.419 . S
C816 C814 1.415 . S
C816 C821 1.425 . S
C816 C823 1.409 . S
C817 H809 0.930 . S
C817 C815 1.419 . S
C817 C818 1.362 . S
C818 H810 0.930 . S
C818 C817 1.362 . S
C818 C821 1.409 . S
C819 H811 0.930 . S
C819 C820 1.355 . S
C819 C821 1.415 . S
C820 C819 1.355 . S
C820 C822 1.419 . S
C821 C816 1.425 . S
C821 C818 1.409 . S
C821 C819 1.415 . S
C822 H812 0.930 . S
C822 C820 1.419 . S
C822 C823 1.362 . S
C823 H813 0.930 . S
C823 C816 1.409 . S
C823 C822 1.362 . S
H824 C830 0.930 . S
H825 C833 0.930 . S
H826 C834 0.930 . S
H827 C835 0.930 . S
H828 C838 0.930 . S
H829 C839 0.930 . S
C830 H824 0.930 . S
C830 C831 1.355 . S
C830 C832 1.415 . S
C831 C830 1.355 . S
C831 C833 1.419 . S
C832 C830 1.415 . S
C832 C837 1.425 . S
C832 C839 1.409 . S
C833 H825 0.930 . S
C833 C831 1.419 . S
C833 C834 1.362 . S
C834 H826 0.930 . S
C834 C833 1.362 . S
C834 C837 1.409 . S
C835 H827 0.930 . S
C835 C836 1.355 . S
C835 C837 1.415 . S
C836 C835 1.355 . S
C836 C838 1.419 . S
C837 C832 1.425 . S
C837 C834 1.409 . S
C837 C835 1.415 . S
C838 H828 0.930 . S
C838 C836 1.419 . S
C838 C839 1.362 . S
C839 H829 0.930 . S
C839 C832 1.409 . S
C839 C838 1.362 . S
H840 C846 0.930 . S
H841 C849 0.930 . S
H842 C850 0.930 . S
H843 C851 0.930 . S
H844 C854 0.930 . S
H845 C855 0.930 . S
C846 H840 0.930 . S
C846 C847 1.355 . S
C846 C848 1.415 . S
C847 C846 1.355 . S
C847 C849 1.419 . S
C848 C846 1.415 . S
C848 C853 1.425 . S
C848 C855 1.409 . S
C849 H841 0.930 . S
C849 C847 1.419 . S
C849 C850 1.362 . S
C850 H842 0.930 . S
C850 C849 1.362 . S
C850 C853 1.409 . S
C851 H843 0.930 . S
C851 C852 1.355 . S
C851 C853 1.415 . S
C852 C851 1.355 . S
C852 C854 1.419 . S
C853 C848 1.425 . S
C853 C850 1.409 . S
C853 C851 1.415 . S
C854 H844 0.930 . S
C854 C852 1.419 . S
C854 C855 1.362 . S
C855 H845 0.930 . S
C855 C848 1.409 . S
C855 C854 1.362 . S
H856 C862 0.930 . S
H857 C865 0.930 . S
H858 C866 0.930 . S
H859 C867 0.930 . S
H860 C870 0.930 . S
H861 C871 0.930 . S
C862 H856 0.930 . S
C862 C863 1.355 . S
C862 C864 1.415 . S
C863 C862 1.355 . S
C863 C865 1.419 . S
C864 C862 1.415 . S
C864 C869 1.425 . S
C864 C871 1.409 . S
C865 H857 0.930 . S
C865 C863 1.419 . S
C865 C866 1.362 . S
C866 H858 0.930 . S
C866 C865 1.362 . S
C866 C869 1.409 . S
C867 H859 0.930 . S
C867 C868 1.355 . S
C867 C869 1.415 . S
C868 C867 1.355 . S
C868 C870 1.419 . S
C869 C864 1.425 . S
C869 C866 1.409 . S
C869 C867 1.415 . S
C870 H860 0.930 . S
C870 C868 1.419 . S
C870 C871 1.362 . S
C871 H861 0.930 . S
C871 C864 1.409 . S
C871 C870 1.362 . S
H872 C878 0.930 . S
H873 C881 0.930 . S
H874 C882 0.930 . S
H875 C883 0.930 . S
H876 C886 0.930 . S
H877 C887 0.930 . S
C878 H872 0.930 . S
C878 C879 1.355 . S
C878 C880 1.415 . S
C879 C878 1.355 . S
C879 C881 1.419 . S
C880 C878 1.415 . S
C880 C885 1.425 . S
C880 C887 1.409 . S
C881 H873 0.930 . S
C881 C879 1.419 . S
C881 C882 1.362 . S
C882 H874 0.930 . S
C882 C881 1.362 . S
C882 C885 1.409 . S
C883 H875 0.930 . S
C883 C884 1.355 . S
C883 C885 1.415 . S
C884 C883 1.355 . S
C884 C886 1.419 . S
C885 C880 1.425 . S
C885 C882 1.409 . S
C885 C883 1.415 . S
C886 H876 0.930 . S
C886 C884 1.419 . S
C886 C887 1.362 . S
C887 H877 0.930 . S
C887 C880 1.409 . S
C887 C886 1.362 . S
H888 C894 0.930 . S
H889 C897 0.930 . S
H890 C898 0.930 . S
H891 C899 0.930 . S
H892 C902 0.930 . S
H893 C903 0.930 . S
C894 H888 0.930 . S
C894 C895 1.355 . S
C894 C896 1.415 . S
C895 C894 1.355 . S
C895 C897 1.419 . S
C896 C894 1.415 . S
C896 C901 1.425 . S
C896 C903 1.409 . S
C897 H889 0.930 . S
C897 C895 1.419 . S
C897 C898 1.362 . S
C898 H890 0.930 . S
C898 C897 1.362 . S
C898 C901 1.409 . S
C899 H891 0.930 . S
C899 C900 1.355 . S
C899 C901 1.415 . S
C900 C899 1.355 . S
C900 C902 1.419 . S
C901 C896 1.425 . S
C901 C898 1.409 . S
C901 C899 1.415 . S
C902 H892 0.930 . S
C902 C900 1.419 . S
C902 C903 1.362 . S
C903 H893 0.930 . S
C903 C896 1.409 . S
C903 C902 1.362 . S
H904 C910 0.930 . S
H905 C913 0.930 . S
H906 C914 0.930 . S
H907 C915 0.930 . S
H908 C918 0.930 . S
H909 C919 0.930 . S
C910 H904 0.930 . S
C910 C911 1.355 . S
C910 C912 1.415 . S
C911 C910 1.355 . S
C911 C913 1.419 . S
C912 C910 1.415 . S
C912 C917 1.425 . S
C912 C919 1.409 . S
C913 H905 0.930 . S
C913 C911 1.419 . S
C913 C914 1.362 . S
C914 H906 0.930 . S
C914 C913 1.362 . S
C914 C917 1.409 . S
C915 H907 0.930 . S
C915 C916 1.355 . S
C915 C917 1.415 . S
C916 C915 1.355 . S
C916 C918 1.419 . S
C917 C912 1.425 . S
C917 C914 1.409 . S
C917 C915 1.415 . S
C918 H908 0.930 . S
C918 C916 1.419 . S
C918 C919 1.362 . S
C919 H909 0.930 . S
C919 C912 1.409 . S
C919 C918 1.362 . S
H920 C926 0.930 . S
H921 C929 0.930 . S
H922 C930 0.930 . S
H923 C931 0.930 . S
H924 C934 0.930 . S
H925 C935 0.930 . S
C926 H920 0.930 . S
C926 C927 1.355 . S
C926 C928 1.415 . S
C927 C926 1.355 . S
C927 C929 1.419 . S
C928 C926 1.415 . S
C928 C933 1.425 . S
C928 C935 1.409 . S
C929 H921 0.930 . S
C929 C927 1.419 . S
C929 C930 1.362 . S
C930 H922 0.930 . S
C930 C929 1.362 . S
C930 C933 1.409 . S
C931 H923 0.930 . S
C931 C932 1.355 . S
C931 C933 1.415 . S
C932 C931 1.355 . S
C932 C934 1.419 . S
C933 C928 1.425 . S
C933 C930 1.409 . S
C933 C931 1.415 . S
C934 H924 0.930 . S
C934 C932 1.419 . S
C934 C935 1.362 . S
C935 H925 0.930 . S
C935 C928 1.409 . S
C935 C934 1.362 . S
H936 C942 0.930 . S
H937 C945 0.930 . S
H938 C946 0.930 . S
H939 C947 0.930 . S
H940 C950 0.930 . S
H941 C951 0.930 . S
C942 H936 0.930 . S
C942 C943 1.355 . S
C942 C944 1.415 . S
C943 C942 1.355 . S
C943 C945 1.419 . S
C944 C942 1.415 . S
C944 C949 1.425 . S
C944 C951 1.409 . S
C945 H937 0.930 . S
C945 C943 1.419 . S
C945 C946 1.362 . S
C946 H938 0.930 . S
C946 C945 1.362 . S
C946 C949 1.409 . S
C947 H939 0.930 . S
C947 C948 1.355 . S
C947 C949 1.415 . S
C948 C947 1.355 . S
C948 C950 1.419 . S
C949 C944 1.425 . S
C949 C946 1.409 . S
C949 C947 1.415 . S
C950 H940 0.930 . S
C950 C948 1.419 . S
C950 C951 1.362 . S
C951 H941 0.930 . S
C951 C944 1.409 . S
C951 C950 1.362 . S
H952 C958 0.930 . S
H953 C961 0.930 . S
H954 C962 0.930 . S
H955 C963 0.930 . S
H956 C966 0.930 . S
H957 C967 0.930 . S
C958 H952 0.930 . S
C958 C959 1.355 . S
C958 C960 1.415 . S
C959 C958 1.355 . S
C959 C961 1.419 . S
C960 C958 1.415 . S
C960 C965 1.425 . S
C960 C967 1.409 . S
C961 H953 0.930 . S
C961 C959 1.419 . S
C961 C962 1.362 . S
C962 H954 0.930 . S
C962 C961 1.362 . S
C962 C965 1.409 . S
C963 H955 0.930 . S
C963 C964 1.355 . S
C963 C965 1.415 . S
C964 C963 1.355 . S
C964 C966 1.419 . S
C965 C960 1.425 . S
C965 C962 1.409 . S
C965 C963 1.415 . S
C966 H956 0.930 . S
C966 C964 1.419 . S
C966 C967 1.362 . S
C967 H957 0.930 . S
C967 C960 1.409 . S
C967 C966 1.362 . S
H968 C974 0.930 . S
H969 C977 0.930 . S
H970 C978 0.930 . S
H971 C979 0.930 . S
H972 C982 0.930 . S
H973 C983 0.930 . S
C974 H968 0.930 . S
C974 C975 1.355 . S
C974 C976 1.415 . S
C975 C974 1.355 . S
C975 C977 1.419 . S
C976 C974 1.415 . S
C976 C981 1.425 . S
C976 C983 1.409 . S
C977 H969 0.930 . S
C977 C975 1.419 . S
C977 C978 1.362 . S
C978 H970 0.930 . S
C978 C977 1.362 . S
C978 C981 1.409 . S
C979 H971 0.930 . S
C979 C980 1.355 . S
C979 C981 1.415 . S
C980 C979 1.355 . S
C980 C982 1.419 . S
C981 C976 1.425 . S
C981 C978 1.409 . S
C981 C979 1.415 . S
C982 H972 0.930 . S
C982 C980 1.419 . S
C982 C983 1.362 . S
C983 H973 0.930 . S
C983 C976 1.409 . S
C983 C982 1.362 . S
H984 C990 0.930 . S
H985 C993 0.930 . S
H986 C994 0.930 . S
H987 C995 0.930 . S
H988 C998 0.930 . S
H989 C999 0.930 . S
C990 H984 0.930 . S
C990 C991 1.355 . S
C990 C992 1.415 . S
C991 C990 1.355 . S
C991 C993 1.419 . S
C992 C990 1.415 . S
C992 C997 1.425 . S
C992 C999 1.409 . S
C993 H985 0.930 . S
C993 C991 1.419 . S
C993 C994 1.362 . S
C994 H986 0.930 . S
C994 C993 1.362 . S
C994 C997 1.409 . S
C995 H987 0.930 . S
C995 C996 1.355 . S
C995 C997 1.415 . S
C996 C995 1.355 . S
C996 C998 1.419 . S
C997 C992 1.425 . S
C997 C994 1.409 . S
C997 C995 1.415 . S
C998 H988 0.930 . S
C998 C996 1.419 . S
C998 C999 1.362 . S
C999 H989 0.930 . S
C999 C992 1.409 . S
C999 C998 1.362 . S
H1000 C1006 0.930 . S
H1001 C1009 0.930 . S
H1002 C1010 0.930 . S
H1003 C1011 0.930 . S
H1004 C1014 0.930 . S
H1005 C1015 0.930 . S
C1006 H1000 0.930 . S
C1006 C1007 1.355 . S
C1006 C1008 1.415 . S
C1007 C1006 1.355 . S
C1007 C1009 1.419 . S
C1008 C1006 1.415 . S
C1008 C1013 1.425 . S
C1008 C1015 1.409 . S
C1009 H1001 0.930 . S
C1009 C1007 1.419 . S
C1009 C1010 1.362 . S
C1010 H1002 0.930 . S
C1010 C1009 1.362 . S
C1010 C1013 1.409 . S
C1011 H1003 0.930 . S
C1011 C1012 1.355 . S
C1011 C1013 1.415 . S
C1012 C1011 1.355 . S
C1012 C1014 1.419 . S
C1013 C1008 1.425 . S
C1013 C1010 1.409 . S
C1013 C1011 1.415 . S
C1014 H1004 0.930 . S
C1014 C1012 1.419 . S
C1014 C1015 1.362 . S
C1015 H1005 0.930 . S
C1015 C1008 1.409 . S
C1015 C1014 1.362 . S
H1016 C1022 0.930 . S
H1017 C1025 0.930 . S
H1018 C1026 0.930 . S
H1019 C1027 0.930 . S
H1020 C1030 0.930 . S
H1021 C1031 0.930 . S
C1022 H1016 0.930 . S
C1022 C1023 1.355 . S
C1022 C1024 1.415 . S
C1023 C1022 1.355 . S
C1023 C1025 1.419 . S
C1024 C1022 1.415 . S
C1024 C1029 1.425 . S
C1024 C1031 1.409 . S
C1025 H1017 0.930 . S
C1025 C1023 1.419 . S
C1025 C1026 1.362 . S
C1026 H1018 0.930 . S
C1026 C1025 1.362 . S
C1026 C1029 1.409 . S
C1027 H1019 0.930 . S
C1027 C1028 1.355 . S
C1027 C1029 1.415 . S
C1028 C1027 1.355 . S
C1028 C1030 1.419 . S
C1029 C1024 1.425 . S
C1029 C1026 1.409 . S
C1029 C1027 1.415 . S
C1030 H1020 0.930 . S
C1030 C1028 1.419 . S
C1030 C1031 1.362 . S
C1031 H1021 0.930 . S
C1031 C1024 1.409 . S
C1031 C1030 1.362 . S
H1032 C1038 0.930 . S
H1033 C1041 0.930 . S
H1034 C1042 0.930 . S
H1035 C1043 0.930 . S
H1036 C1046 0.930 . S
H1037 C1047 0.930 . S
C1038 H1032 0.930 . S
C1038 C1039 1.355 . S
C1038 C1040 1.415 . S
C1039 C1038 1.355 . S
C1039 C1041 1.419 . S
C1040 C1038 1.415 . S
C1040 C1045 1.425 . S
C1040 C1047 1.409 . S
C1041 H1033 0.930 . S
C1041 C1039 1.419 . S
C1041 C1042 1.362 . S
C1042 H1034 0.930 . S
C1042 C1041 1.362 . S
C1042 C1045 1.409 . S
C1043 H1035 0.930 . S
C1043 C1044 1.355 . S
C1043 C1045 1.415 . S
C1044 C1043 1.355 . S
C1044 C1046 1.419 . S
C1045 C1040 1.425 . S
C1045 C1042 1.409 . S
C1045 C1043 1.415 . S
C1046 H1036 0.930 . S
C1046 C1044 1.419 . S
C1046 C1047 1.362 . S
C1047 H1037 0.930 . S
C1047 C1040 1.409 . S
C1047 C1046 1.362 . S
H1048 C1054 0.930 . S
H1049 C1057 0.930 . S
H1050 C1058 0.930 . S
H1051 C1059 0.930 . S
H1052 C1062 0.930 . S
H1053 C1063 0.930 . S
C1054 H1048 0.930 . S
C1054 C1055 1.355 . S
C1054 C1056 1.415 . S
C1055 C1054 1.355 . S
C1055 C1057 1.419 . S
C1056 C1054 1.415 . S
C1056 C1061 1.425 . S
C1056 C1063 1.409 . S
C1057 H1049 0.930 . S
C1057 C1055 1.419 . S
C1057 C1058 1.362 . S
C1058 H1050 0.930 . S
C1058 C1057 1.362 . S
C1058 C1061 1.409 . S
C1059 H1051 0.930 . S
C1059 C1060 1.355 . S
C1059 C1061 1.415 . S
C1060 C1059 1.355 . S
C1060 C1062 1.419 . S
C1061 C1056 1.425 . S
C1061 C1058 1.409 . S
C1061 C1059 1.415 . S
C1062 H1052 0.930 . S
C1062 C1060 1.419 . S
C1062 C1063 1.362 . S
C1063 H1053 0.930 . S
C1063 C1056 1.409 . S
C1063 C1062 1.362 . S
H1064 C1070 0.930 . S
H1065 C1073 0.930 . S
H1066 C1074 0.930 . S
H1067 C1075 0.930 . S
H1068 C1078 0.930 . S
H1069 C1079 0.930 . S
C1070 H1064 0.930 . S
C1070 C1071 1.355 . S
C1070 C1072 1.415 . S
C1071 C1070 1.355 . S
C1071 C1073 1.419 . S
C1072 C1070 1.415 . S
C1072 C1077 1.425 . S
C1072 C1079 1.409 . S
C1073 H1065 0.930 . S
C1073 C1071 1.419 . S
C1073 C1074 1.362 . S
C1074 H1066 0.930 . S
C1074 C1073 1.362 . S
C1074 C1077 1.409 . S
C1075 H1067 0.930 . S
C1075 C1076 1.355 . S
C1075 C1077 1.415 . S
C1076 C1075 1.355 . S
C1076 C1078 1.419 . S
C1077 C1072 1.425 . S
C1077 C1074 1.409 . S
C1077 C1075 1.415 . S
C1078 H1068 0.930 . S
C1078 C1076 1.419 . S
C1078 C1079 1.362 . S
C1079 H1069 0.930 . S
C1079 C1072 1.409 . S
C1079 C1078 1.362 . S
H1080 C1086 0.930 . S
H1081 C1089 0.930 . S
H1082 C1090 0.930 . S
H1083 C1091 0.930 . S
H1084 C1094 0.930 . S
H1085 C1095 0.930 . S
C1086 H1080 0.930 . S
C1086 C1087 1.355 . S
C1086 C1088 1.415 . S
C1087 C1086 1.355 . S
C1087 C1089 1.419 . S
C1088 C1086 1.415 . S
C1088 C1093 1.425 . S
C1088 C1095 1.409 . S
C1089 H1081 0.930 . S
C1089 C1087 1.419 . S
C1089 C1090 1.362 . S
C1090 H1082 0.930 . S
C1090 C1089 1.362 . S
C1090 C1093 1.409 . S
C1091 H1083 0.930 . S
C1091 C1092 1.355 . S
C1091 C1093 1.415 . S
C1092 C1091 1.355 . S
C1092 C1094 1.419 . S
C1093 C1088 1.425 . S
C1093 C1090 1.409 . S
C1093 C1091 1.415 . S
C1094 H1084 0.930 . S
C1094 C1092 1.419 . S
C1094 C1095 1.362 . S
C1095 H1085 0.930 . S
C1095 C1088 1.409 . S
C1095 C1094 1.362 . S
H1096 C1102 0.942 . S
H1097 C1105 0.930 . S
H1098 C1106 0.930 . S
H1099 C1107 0.942 . S
H1100 C1110 0.930 . S
H1101 C1111 0.930 . S
C1102 H1096 0.942 . S
C1102 C1103 1.355 . S
C1102 C1104 1.415 1_565 S
C1103 C1102 1.355 . S
C1103 C1105 1.419 . S
C1104 C1102 1.415 1_545 S
C1104 C1109 1.425 1_545 S
C1104 C1111 1.409 . S
C1105 H1097 0.930 . S
C1105 C1103 1.419 . S
C1105 C1106 1.362 . S
C1106 H1098 0.930 . S
C1106 C1105 1.362 . S
C1106 C1109 1.409 . S
C1107 H1099 0.942 . S
C1107 C1108 1.355 . S
C1107 C1109 1.415 1_545 S
C1108 C1107 1.355 . S
C1108 C1110 1.419 . S
C1109 C1104 1.425 1_565 S
C1109 C1106 1.409 . S
C1109 C1107 1.415 1_565 S
C1110 H1100 0.930 . S
C1110 C1108 1.419 . S
C1110 C1111 1.362 . S
C1111 H1101 0.930 . S
C1111 C1104 1.409 . S
C1111 C1110 1.362 . S
H1112 C1118 0.930 . S
H1113 C1121 0.930 . S
H1114 C1122 0.930 . S
H1115 C1123 0.930 . S
H1116 C1126 0.930 . S
H1117 C1127 0.930 . S
C1118 H1112 0.930 . S
C1118 C1119 1.355 . S
C1118 C1120 1.415 1_655 S
C1119 C1118 1.355 . S
C1119 C1121 1.419 . S
C1120 C1118 1.415 1_455 S
C1120 C1125 1.425 1_455 S
C1120 C1127 1.409 . S
C1121 H1113 0.930 . S
C1121 C1119 1.419 . S
C1121 C1122 1.362 . S
C1122 H1114 0.930 . S
C1122 C1121 1.362 . S
C1122 C1125 1.409 . S
C1123 H1115 0.930 . S
C1123 C1124 1.355 . S
C1123 C1125 1.415 1_455 S
C1124 C1123 1.355 . S
C1124 C1126 1.419 . S
C1125 C1120 1.425 1_655 S
C1125 C1122 1.409 . S
C1125 C1123 1.415 1_655 S
C1126 H1116 0.930 . S
C1126 C1124 1.419 . S
C1126 C1127 1.362 . S
C1127 H1117 0.930 . S
C1127 C1120 1.409 . S
C1127 C1126 1.362 . S
H1128 C1134 0.930 . S
H1129 C1137 0.930 . S
H1130 C1138 0.930 . S
H1131 C1139 0.930 . S
H1132 C1142 0.930 . S
H1133 C1143 0.930 . S
C1134 H1128 0.930 . S
C1134 C1135 1.355 . S
C1134 C1136 1.415 . S
C1135 C1134 1.355 . S
C1135 C1137 1.419 . S
C1136 C1134 1.415 . S
C1136 C1141 1.425 . S
C1136 C1143 1.409 . S
C1137 H1129 0.930 . S
C1137 C1135 1.419 . S
C1137 C1138 1.362 . S
C1138 H1130 0.930 . S
C1138 C1137 1.362 . S
C1138 C1141 1.409 . S
C1139 H1131 0.930 . S
C1139 C1140 1.355 . S
C1139 C1141 1.415 . S
C1140 C1139 1.355 . S
C1140 C1142 1.419 . S
C1141 C1136 1.425 . S
C1141 C1138 1.409 . S
C1141 C1139 1.415 . S
C1142 H1132 0.930 . S
C1142 C1140 1.419 . S
C1142 C1143 1.362 . S
C1143 H1133 0.930 . S
C1143 C1136 1.409 . S
C1143 C1142 1.362 . S
H1144 C1150 0.930 . S
H1145 C1153 0.930 . S
H1146 C1154 0.930 . S
H1147 C1155 0.930 . S
H1148 C1158 0.930 . S
H1149 C1159 0.930 . S
C1150 H1144 0.930 . S
C1150 C1151 1.355 . S
C1150 C1152 1.415 . S
C1151 C1150 1.355 . S
C1151 C1153 1.419 . S
C1152 C1150 1.415 . S
C1152 C1157 1.425 1_545 S
C1152 C1159 1.409 1_545 S
C1153 H1145 0.930 . S
C1153 C1151 1.419 . S
C1153 C1154 1.362 . S
C1154 H1146 0.930 . S
C1154 C1153 1.362 . S
C1154 C1157 1.409 1_545 S
C1155 H1147 0.930 . S
C1155 C1156 1.355 . S
C1155 C1157 1.415 . S
C1156 C1155 1.355 . S
C1156 C1158 1.419 . S
C1157 C1152 1.425 1_565 S
C1157 C1154 1.409 1_565 S
C1157 C1155 1.415 . S
C1158 H1148 0.930 . S
C1158 C1156 1.419 . S
C1158 C1159 1.362 . S
C1159 H1149 0.930 . S
C1159 C1152 1.409 1_565 S
C1159 C1158 1.362 . S
H1160 C1166 0.930 . S
H1161 C1169 0.930 . S
H1162 C1170 0.930 . S
H1163 C1171 0.930 . S
H1164 C1174 0.930 . S
H1165 C1175 0.930 . S
C1166 H1160 0.930 . S
C1166 C1167 1.355 . S
C1166 C1168 1.415 . S
C1167 C1166 1.355 . S
C1167 C1169 1.419 . S
C1168 C1166 1.415 . S
C1168 C1173 1.425 1_655 S
C1168 C1175 1.409 1_655 S
C1169 H1161 0.930 . S
C1169 C1167 1.419 . S
C1169 C1170 1.362 . S
C1170 H1162 0.930 . S
C1170 C1169 1.362 . S
C1170 C1173 1.409 1_655 S
C1171 H1163 0.930 . S
C1171 C1172 1.355 . S
C1171 C1173 1.415 . S
C1172 C1171 1.355 . S
C1172 C1174 1.419 . S
C1173 C1168 1.425 1_455 S
C1173 C1170 1.409 1_455 S
C1173 C1171 1.415 . S
C1174 H1164 0.930 . S
C1174 C1172 1.419 . S
C1174 C1175 1.362 . S
C1175 H1165 0.930 . S
C1175 C1168 1.409 1_455 S
C1175 C1174 1.362 . S
H1176 C1182 0.930 . S
H1177 C1185 0.930 . S
H1178 C1186 0.930 . S
H1179 C1187 0.930 . S
H1180 C1190 0.930 . S
H1181 C1191 0.930 . S
C1182 H1176 0.930 . S
C1182 C1183 1.355 . S
C1182 C1184 1.415 . S
C1183 C1182 1.355 . S
C1183 C1185 1.419 . S
C1184 C1182 1.415 . S
C1184 C1189 1.425 . S
C1184 C1191 1.409 . S
C1185 H1177 0.930 . S
C1185 C1183 1.419 . S
C1185 C1186 1.362 . S
C1186 H1178 0.930 . S
C1186 C1185 1.362 . S
C1186 C1189 1.409 . S
C1187 H1179 0.930 . S
C1187 C1188 1.355 . S
C1187 C1189 1.415 . S
C1188 C1187 1.355 . S
C1188 C1190 1.419 . S
C1189 C1184 1.425 . S
C1189 C1186 1.409 . S
C1189 C1187 1.415 . S
C1190 H1180 0.930 . S
C1190 C1188 1.419 . S
C1190 C1191 1.362 . S
C1191 H1181 0.930 . S
C1191 C1184 1.409 . S
C1191 C1190 1.362 . S
H1192 C1198 0.930 . S
H1193 C1201 0.930 . S
H1194 C1202 0.930 . S
H1195 C1203 0.930 . S
H1196 C1206 0.930 . S
H1197 C1207 0.930 . S
C1198 H1192 0.930 . S
C1198 C1199 1.355 . S
C1198 C1200 1.415 . S
C1199 C1198 1.355 . S
C1199 C1201 1.419 . S
C1200 C1198 1.415 . S
C1200 C1205 1.425 . S
C1200 C1207 1.409 . S
C1201 H1193 0.930 . S
C1201 C1199 1.419 . S
C1201 C1202 1.362 . S
C1202 H1194 0.930 . S
C1202 C1201 1.362 . S
C1202 C1205 1.409 . S
C1203 H1195 0.930 . S
C1203 C1204 1.355 . S
C1203 C1205 1.415 . S
C1204 C1203 1.355 . S
C1204 C1206 1.419 . S
C1205 C1200 1.425 . S
C1205 C1202 1.409 . S
C1205 C1203 1.415 . S
C1206 H1196 0.930 . S
C1206 C1204 1.419 . S
C1206 C1207 1.362 . S
C1207 H1197 0.930 . S
C1207 C1200 1.409 . S
C1207 C1206 1.362 . S
H1208 C1214 0.930 . S
H1209 C1217 0.930 . S
H1210 C1218 0.930 . S
H1211 C1219 0.930 . S
H1212 C1222 0.930 . S
H1213 C1223 0.930 . S
C1214 H1208 0.930 . S
C1214 C1215 1.355 . S
C1214 C1216 1.415 . S
C1215 C1214 1.355 . S
C1215 C1217 1.419 . S
C1216 C1214 1.415 . S
C1216 C1221 1.425 . S
C1216 C1223 1.409 . S
C1217 H1209 0.930 . S
C1217 C1215 1.419 . S
C1217 C1218 1.362 . S
C1218 H1210 0.930 . S
C1218 C1217 1.362 . S
C1218 C1221 1.409 . S
C1219 H1211 0.930 . S
C1219 C1220 1.355 . S
C1219 C1221 1.415 . S
C1220 C1219 1.355 . S
C1220 C1222 1.419 . S
C1221 C1216 1.425 . S
C1221 C1218 1.409 . S
C1221 C1219 1.415 . S
C1222 H1212 0.930 . S
C1222 C1220 1.419 . S
C1222 C1223 1.362 . S
C1223 H1213 0.930 . S
C1223 C1216 1.409 . S
C1223 C1222 1.362 . S
H1224 C1230 0.930 . S
H1225 C1233 0.930 . S
H1226 C1234 0.930 . S
H1227 C1235 0.930 . S
H1228 C1238 0.930 . S
H1229 C1239 0.930 . S
C1230 H1224 0.930 . S
C1230 C1231 1.355 . S
C1230 C1232 1.415 . S
C1231 C1230 1.355 . S
C1231 C1233 1.419 . S
C1232 C1230 1.415 . S
C1232 C1237 1.425 . S
C1232 C1239 1.409 . S
C1233 H1225 0.930 . S
C1233 C1231 1.419 . S
C1233 C1234 1.362 . S
C1234 H1226 0.930 . S
C1234 C1233 1.362 . S
C1234 C1237 1.409 . S
C1235 H1227 0.930 . S
C1235 C1236 1.355 . S
C1235 C1237 1.415 . S
C1236 C1235 1.355 . S
C1236 C1238 1.419 . S
C1237 C1232 1.425 . S
C1237 C1234 1.409 . S
C1237 C1235 1.415 . S
C1238 H1228 0.930 . S
C1238 C1236 1.419 . S
C1238 C1239 1.362 . S
C1239 H1229 0.930 . S
C1239 C1232 1.409 . S
C1239 C1238 1.362 . S
H1240 C1246 0.930 . S
H1241 C1249 0.930 . S
H1242 C1250 0.930 . S
H1243 C1251 0.930 . S
H1244 C1254 0.930 . S
H1245 C1255 0.930 . S
C1246 H1240 0.930 . S
C1246 C1247 1.355 . S
C1246 C1248 1.415 . S
C1247 C1246 1.355 . S
C1247 C1249 1.419 . S
C1248 C1246 1.415 . S
C1248 C1253 1.425 . S
C1248 C1255 1.409 . S
C1249 H1241 0.930 . S
C1249 C1247 1.419 . S
C1249 C1250 1.362 . S
C1250 H1242 0.930 . S
C1250 C1249 1.362 . S
C1250 C1253 1.409 . S
C1251 H1243 0.930 . S
C1251 C1252 1.355 . S
C1251 C1253 1.415 . S
C1252 C1251 1.355 . S
C1252 C1254 1.419 . S
C1253 C1248 1.425 . S
C1253 C1250 1.409 . S
C1253 C1251 1.415 . S
C1254 H1244 0.930 . S
C1254 C1252 1.419 . S
C1254 C1255 1.362 . S
C1255 H1245 0.930 . S
C1255 C1248 1.409 . S
C1255 C1254 1.362 . S
H1256 C1262 0.930 . S
H1257 C1265 0.930 1_556 S
H1258 C1266 0.930 . S
H1259 C1267 0.930 . S
H1260 C1270 0.930 . S
H1261 C1271 0.930 . S
C1262 H1256 0.930 . S
C1262 C1263 1.355 . S
C1262 C1264 1.415 . S
C1263 C1262 1.355 . S
C1263 C1265 1.419 . S
C1264 C1262 1.415 . S
C1264 C1269 1.425 . S
C1264 C1271 1.409 . S
C1265 H1257 0.930 1_554 S
C1265 C1263 1.419 . S
C1265 C1266 1.362 . S
C1266 H1258 0.930 . S
C1266 C1265 1.362 . S
C1266 C1269 1.409 . S
C1267 H1259 0.930 . S
C1267 C1268 1.355 . S
C1267 C1269 1.415 . S
C1268 C1267 1.355 . S
C1268 C1270 1.419 . S
C1269 C1264 1.425 . S
C1269 C1266 1.409 . S
C1269 C1267 1.415 . S
C1270 H1260 0.930 . S
C1270 C1268 1.419 . S
C1270 C1271 1.362 . S
C1271 H1261 0.930 . S
C1271 C1264 1.409 . S
C1271 C1270 1.362 . S
H1272 C1278 0.930 . S
H1273 C1281 0.930 . S
H1274 C1282 0.930 . S
H1275 C1283 0.930 . S
H1276 C1286 0.930 . S
H1277 C1287 0.930 . S
C1278 H1272 0.930 . S
C1278 C1279 1.355 . S
C1278 C1280 1.415 . S
C1279 C1278 1.355 . S
C1279 C1281 1.419 . S
C1280 C1278 1.415 . S
C1280 C1285 1.425 . S
C1280 C1287 1.409 . S
C1281 H1273 0.930 . S
C1281 C1279 1.419 . S
C1281 C1282 1.362 . S
C1282 H1274 0.930 . S
C1282 C1281 1.362 . S
C1282 C1285 1.409 . S
C1283 H1275 0.930 . S
C1283 C1284 1.355 . S
C1283 C1285 1.415 . S
C1284 C1283 1.355 . S
C1284 C1286 1.419 . S
C1285 C1280 1.425 . S
C1285 C1282 1.409 . S
C1285 C1283 1.415 . S
C1286 H1276 0.930 . S
C1286 C1284 1.419 . S
C1286 C1287 1.362 . S
C1287 H1277 0.930 . S
C1287 C1280 1.409 . S
C1287 C1286 1.362 . S
H1288 C1294 0.930 . S
H1289 C1297 0.930 . S
H1290 C1298 0.930 . S
H1291 C1299 0.930 . S
H1292 C1302 0.930 . S
H1293 C1303 0.930 . S
C1294 H1288 0.930 . S
C1294 C1295 1.355 . S
C1294 C1296 1.415 . S
C1295 C1294 1.355 . S
C1295 C1297 1.419 . S
C1296 C1294 1.415 . S
C1296 C1301 1.425 . S
C1296 C1303 1.409 . S
C1297 H1289 0.930 . S
C1297 C1295 1.419 . S
C1297 C1298 1.362 . S
C1298 H1290 0.930 . S
C1298 C1297 1.362 . S
C1298 C1301 1.409 . S
C1299 H1291 0.930 . S
C1299 C1300 1.355 . S
C1299 C1301 1.415 . S
C1300 C1299 1.355 . S
C1300 C1302 1.419 . S
C1301 C1296 1.425 . S
C1301 C1298 1.409 . S
C1301 C1299 1.415 . S
C1302 H1292 0.930 . S
C1302 C1300 1.419 . S
C1302 C1303 1.362 . S
C1303 H1293 0.930 . S
C1303 C1296 1.409 . S
C1303 C1302 1.362 . S
H1304 C1310 0.930 . S
H1305 C1313 0.930 1_554 S
H1306 C1314 0.930 . S
H1307 C1315 0.930 . S
H1308 C1318 0.930 . S
H1309 C1319 0.930 . S
C1310 H1304 0.930 . S
C1310 C1311 1.355 . S
C1310 C1312 1.415 . S
C1311 C1310 1.355 . S
C1311 C1313 1.419 . S
C1312 C1310 1.415 . S
C1312 C1317 1.425 . S
C1312 C1319 1.409 . S
C1313 H1305 0.930 1_556 S
C1313 C1311 1.419 . S
C1313 C1314 1.362 . S
C1314 H1306 0.930 . S
C1314 C1313 1.362 . S
C1314 C1317 1.409 . S
C1315 H1307 0.930 . S
C1315 C1316 1.355 . S
C1315 C1317 1.415 . S
C1316 C1315 1.355 . S
C1316 C1318 1.419 . S
C1317 C1312 1.425 . S
C1317 C1314 1.409 . S
C1317 C1315 1.415 . S
C1318 H1308 0.930 . S
C1318 C1316 1.419 . S
C1318 C1319 1.362 . S
C1319 H1309 0.930 . S
C1319 C1312 1.409 . S
C1319 C1318 1.362 . S
H1320 C1326 0.930 . S
H1321 C1329 0.930 . S
H1322 C1330 0.930 . S
H1323 C1331 0.930 . S
H1324 C1334 0.930 . S
H1325 C1335 0.930 . S
C1326 H1320 0.930 . S
C1326 C1327 1.355 . S
C1326 C1328 1.415 . S
C1327 C1326 1.355 . S
C1327 C1329 1.419 . S
C1328 C1326 1.415 . S
C1328 C1333 1.425 . S
C1328 C1335 1.409 . S
C1329 H1321 0.930 . S
C1329 C1327 1.419 . S
C1329 C1330 1.362 . S
C1330 H1322 0.930 . S
C1330 C1329 1.362 . S
C1330 C1333 1.409 . S
C1331 H1323 0.930 . S
C1331 C1332 1.355 . S
C1331 C1333 1.415 . S
C1332 C1331 1.355 . S
C1332 C1334 1.419 . S
C1333 C1328 1.425 . S
C1333 C1330 1.409 . S
C1333 C1331 1.415 . S
C1334 H1324 0.930 . S
C1334 C1332 1.419 . S
C1334 C1335 1.362 . S
C1335 H1325 0.930 . S
C1335 C1328 1.409 . S
C1335 C1334 1.362 . S
H1336 C1342 0.930 . S
H1337 C1345 0.930 . S
H1338 C1346 0.930 . S
H1339 C1347 0.930 . S
H1340 C1350 0.930 . S
H1341 C1351 0.930 . S
C1342 H1336 0.930 . S
C1342 C1343 1.355 . S
C1342 C1344 1.415 . S
C1343 C1342 1.355 . S
C1343 C1345 1.419 . S
C1344 C1342 1.415 . S
C1344 C1349 1.425 . S
C1344 C1351 1.409 . S
C1345 H1337 0.930 . S
C1345 C1343 1.419 . S
C1345 C1346 1.362 . S
C1346 H1338 0.930 . S
C1346 C1345 1.362 . S
C1346 C1349 1.409 . S
C1347 H1339 0.930 . S
C1347 C1348 1.355 . S
C1347 C1349 1.415 . S
C1348 C1347 1.355 . S
C1348 C1350 1.419 . S
C1349 C1344 1.425 . S
C1349 C1346 1.409 . S
C1349 C1347 1.415 . S
C1350 H1340 0.930 . S
C1350 C1348 1.419 . S
C1350 C1351 1.362 . S
C1351 H1341 0.930 . S
C1351 C1344 1.409 . S
C1351 C1350 1.362 . S
H1352 C1358 0.930 . S
H1353 C1361 0.930 . S
H1354 C1362 0.930 . S
H1355 C1363 0.930 . S
H1356 C1366 0.930 . S
H1357 C1367 0.930 . S
C1358 H1352 0.930 . S
C1358 C1359 1.355 . S
C1358 C1360 1.415 . S
C1359 C1358 1.355 . S
C1359 C1361 1.419 . S
C1360 C1358 1.415 . S
C1360 C1365 1.425 . S
C1360 C1367 1.409 . S
C1361 H1353 0.930 . S
C1361 C1359 1.419 . S
C1361 C1362 1.362 . S
C1362 H1354 0.930 . S
C1362 C1361 1.362 . S
C1362 C1365 1.409 . S
C1363 H1355 0.930 . S
C1363 C1364 1.355 . S
C1363 C1365 1.415 . S
C1364 C1363 1.355 . S
C1364 C1366 1.419 . S
C1365 C1360 1.425 . S
C1365 C1362 1.409 . S
C1365 C1363 1.415 . S
C1366 H1356 0.930 . S
C1366 C1364 1.419 . S
C1366 C1367 1.362 . S
C1367 H1357 0.930 . S
C1367 C1360 1.409 . S
C1367 C1366 1.362 . S
H1368 C1374 0.930 . S
H1369 C1377 0.930 . S
H1370 C1378 0.930 . S
H1371 C1379 0.930 . S
H1372 C1382 0.930 . S
H1373 C1383 0.930 . S
C1374 H1368 0.930 . S
C1374 C1375 1.355 . S
C1374 C1376 1.415 . S
C1375 C1374 1.355 . S
C1375 C1377 1.419 . S
C1376 C1374 1.415 . S
C1376 C1381 1.425 . S
C1376 C1383 1.409 . S
C1377 H1369 0.930 . S
C1377 C1375 1.419 . S
C1377 C1378 1.362 . S
C1378 H1370 0.930 . S
C1378 C1377 1.362 . S
C1378 C1381 1.409 . S
C1379 H1371 0.930 . S
C1379 C1380 1.355 . S
C1379 C1381 1.415 . S
C1380 C1379 1.355 . S
C1380 C1382 1.419 . S
C1381 C1376 1.425 . S
C1381 C1378 1.409 . S
C1381 C1379 1.415 . S
C1382 H1372 0.930 . S
C1382 C1380 1.419 . S
C1382 C1383 1.362 . S
C1383 H1373 0.930 . S
C1383 C1376 1.409 . S
C1383 C1382 1.362 . S
H1384 C1390 0.930 . S
H1385 C1393 0.930 . S
H1386 C1394 0.930 . S
H1387 C1395 0.930 . S
H1388 C1398 0.930 . S
H1389 C1399 0.930 . S
C1390 H1384 0.930 . S
C1390 C1391 1.355 . S
C1390 C1392 1.415 . S
C1391 C1390 1.355 . S
C1391 C1393 1.419 . S
C1392 C1390 1.415 . S
C1392 C1397 1.425 . S
C1392 C1399 1.409 . S
C1393 H1385 0.930 . S
C1393 C1391 1.419 . S
C1393 C1394 1.362 . S
C1394 H1386 0.930 . S
C1394 C1393 1.362 . S
C1394 C1397 1.409 . S
C1395 H1387 0.930 . S
C1395 C1396 1.355 . S
C1395 C1397 1.415 . S
C1396 C1395 1.355 . S
C1396 C1398 1.419 . S
C1397 C1392 1.425 . S
C1397 C1394 1.409 . S
C1397 C1395 1.415 . S
C1398 H1388 0.930 . S
C1398 C1396 1.419 . S
C1398 C1399 1.362 . S
C1399 H1389 0.930 . S
C1399 C1392 1.409 . S
C1399 C1398 1.362 . S
H1400 C1406 0.930 . S
H1401 C1409 0.930 . S
H1402 C1410 0.930 . S
H1403 C1411 0.930 . S
H1404 C1414 0.930 . S
H1405 C1415 0.930 . S
C1406 H1400 0.930 . S
C1406 C1407 1.355 . S
C1406 C1408 1.415 . S
C1407 C1406 1.355 . S
C1407 C1409 1.419 . S
C1408 C1406 1.415 . S
C1408 C1413 1.425 . S
C1408 C1415 1.409 . S
C1409 H1401 0.930 . S
C1409 C1407 1.419 . S
C1409 C1410 1.362 . S
C1410 H1402 0.930 . S
C1410 C1409 1.362 . S
C1410 C1413 1.409 . S
C1411 H1403 0.930 . S
C1411 C1412 1.355 . S
C1411 C1413 1.415 . S
C1412 C1411 1.355 . S
C1412 C1414 1.419 . S
C1413 C1408 1.425 . S
C1413 C1410 1.409 . S
C1413 C1411 1.415 . S
C1414 H1404 0.930 . S
C1414 C1412 1.419 . S
C1414 C1415 1.362 . S
C1415 H1405 0.930 . S
C1415 C1408 1.409 . S
C1415 C1414 1.362 . S
H1416 C1422 0.930 . S
H1417 C1425 0.930 . S
H1418 C1426 0.930 . S
H1419 C1427 0.930 . S
H1420 C1430 0.930 . S
H1421 C1431 0.930 . S
C1422 H1416 0.930 . S
C1422 C1423 1.355 . S
C1422 C1424 1.415 . S
C1423 C1422 1.355 . S
C1423 C1425 1.419 . S
C1424 C1422 1.415 . S
C1424 C1429 1.425 . S
C1424 C1431 1.409 . S
C1425 H1417 0.930 . S
C1425 C1423 1.419 . S
C1425 C1426 1.362 . S
C1426 H1418 0.930 . S
C1426 C1425 1.362 . S
C1426 C1429 1.409 . S
C1427 H1419 0.930 . S
C1427 C1428 1.355 . S
C1427 C1429 1.415 . S
C1428 C1427 1.355 . S
C1428 C1430 1.419 . S
C1429 C1424 1.425 . S
C1429 C1426 1.409 . S
C1429 C1427 1.415 . S
C1430 H1420 0.930 . S
C1430 C1428 1.419 . S
C1430 C1431 1.362 . S
C1431 H1421 0.930 . S
C1431 C1424 1.409 . S
C1431 C1430 1.362 . S
H1432 C1438 0.930 . S
H1433 C1441 0.930 . S
H1434 C1442 0.930 . S
H1435 C1443 0.930 . S
H1436 C1446 0.930 . S
H1437 C1447 0.930 . S
C1438 H1432 0.930 . S
C1438 C1439 1.355 . S
C1438 C1440 1.415 . S
C1439 C1438 1.355 . S
C1439 C1441 1.419 . S
C1440 C1438 1.415 . S
C1440 C1445 1.425 . S
C1440 C1447 1.409 . S
C1441 H1433 0.930 . S
C1441 C1439 1.419 . S
C1441 C1442 1.362 . S
C1442 H1434 0.930 . S
C1442 C1441 1.362 . S
C1442 C1445 1.409 . S
C1443 H1435 0.930 . S
C1443 C1444 1.355 . S
C1443 C1445 1.415 . S
C1444 C1443 1.355 . S
C1444 C1446 1.419 . S
C1445 C1440 1.425 . S
C1445 C1442 1.409 . S
C1445 C1443 1.415 . S
C1446 H1436 0.930 . S
C1446 C1444 1.419 . S
C1446 C1447 1.362 . S
C1447 H1437 0.930 . S
C1447 C1440 1.409 . S
C1447 C1446 1.362 . S
H1448 C1454 0.930 . S
H1449 C1457 0.930 . S
H1450 C1458 0.930 . S
H1451 C1459 0.930 . S
H1452 C1462 0.930 . S
H1453 C1463 0.930 . S
C1454 H1448 0.930 . S
C1454 C1455 1.355 . S
C1454 C1456 1.415 . S
C1455 C1454 1.355 . S
C1455 C1457 1.419 . S
C1456 C1454 1.415 . S
C1456 C1461 1.425 . S
C1456 C1463 1.409 . S
C1457 H1449 0.930 . S
C1457 C1455 1.419 . S
C1457 C1458 1.362 . S
C1458 H1450 0.930 . S
C1458 C1457 1.362 . S
C1458 C1461 1.409 . S
C1459 H1451 0.930 . S
C1459 C1460 1.355 . S
C1459 C1461 1.415 . S
C1460 C1459 1.355 . S
C1460 C1462 1.419 . S
C1461 C1456 1.425 . S
C1461 C1458 1.409 . S
C1461 C1459 1.415 . S
C1462 H1452 0.930 . S
C1462 C1460 1.419 . S
C1462 C1463 1.362 . S
C1463 H1453 0.930 . S
C1463 C1456 1.409 . S
C1463 C1462 1.362 . S
H1464 C1470 0.930 . S
H1465 C1473 0.930 . S
H1466 C1474 0.930 . S
H1467 C1475 0.930 . S
H1468 C1478 0.930 . S
H1469 C1479 0.930 . S
C1470 H1464 0.930 . S
C1470 C1471 1.355 . S
C1470 C1472 1.415 . S
C1471 C1470 1.355 . S
C1471 C1473 1.419 . S
C1472 C1470 1.415 . S
C1472 C1477 1.425 . S
C1472 C1479 1.409 . S
C1473 H1465 0.930 . S
C1473 C1471 1.419 . S
C1473 C1474 1.362 . S
C1474 H1466 0.930 . S
C1474 C1473 1.362 . S
C1474 C1477 1.409 . S
C1475 H1467 0.930 . S
C1475 C1476 1.355 . S
C1475 C1477 1.415 . S
C1476 C1475 1.355 . S
C1476 C1478 1.419 . S
C1477 C1472 1.425 . S
C1477 C1474 1.409 . S
C1477 C1475 1.415 . S
C1478 H1468 0.930 . S
C1478 C1476 1.419 . S
C1478 C1479 1.362 . S
C1479 H1469 0.930 . S
C1479 C1472 1.409 . S
C1479 C1478 1.362 . S
H1480 C1486 0.930 . S
H1481 C1489 0.930 . S
H1482 C1490 0.930 . S
H1483 C1491 0.930 . S
H1484 C1494 0.930 . S
H1485 C1495 0.930 . S
C1486 H1480 0.930 . S
C1486 C1487 1.355 . S
C1486 C1488 1.415 . S
C1487 C1486 1.355 . S
C1487 C1489 1.419 . S
C1488 C1486 1.415 . S
C1488 C1493 1.425 . S
C1488 C1495 1.409 . S
C1489 H1481 0.930 . S
C1489 C1487 1.419 . S
C1489 C1490 1.362 . S
C1490 H1482 0.930 . S
C1490 C1489 1.362 . S
C1490 C1493 1.409 . S
C1491 H1483 0.930 . S
C1491 C1492 1.355 . S
C1491 C1493 1.415 . S
C1492 C1491 1.355 . S
C1492 C1494 1.419 . S
C1493 C1488 1.425 . S
C1493 C1490 1.409 . S
C1493 C1491 1.415 . S
C1494 H1484 0.930 . S
C1494 C1492 1.419 . S
C1494 C1495 1.362 . S
C1495 H1485 0.930 . S
C1495 C1488 1.409 . S
C1495 C1494 1.362 . S
H1496 C1502 0.930 . S
H1497 C1505 0.930 . S
H1498 C1506 0.930 . S
H1499 C1507 0.930 . S
H1500 C1510 0.930 . S
H1501 C1511 0.930 . S
C1502 H1496 0.930 . S
C1502 C1503 1.355 . S
C1502 C1504 1.415 . S
C1503 C1502 1.355 . S
C1503 C1505 1.419 . S
C1504 C1502 1.415 . S
C1504 C1509 1.425 . S
C1504 C1511 1.409 . S
C1505 H1497 0.930 . S
C1505 C1503 1.419 . S
C1505 C1506 1.362 . S
C1506 H1498 0.930 . S
C1506 C1505 1.362 . S
C1506 C1509 1.409 . S
C1507 H1499 0.930 . S
C1507 C1508 1.355 . S
C1507 C1509 1.415 . S
C1508 C1507 1.355 . S
C1508 C1510 1.419 . S
C1509 C1504 1.425 . S
C1509 C1506 1.409 . S
C1509 C1507 1.415 . S
C1510 H1500 0.930 . S
C1510 C1508 1.419 . S
C1510 C1511 1.362 . S
C1511 H1501 0.930 . S
C1511 C1504 1.409 . S
C1511 C1510 1.362 . S
H1512 C1518 0.930 . S
H1513 C1521 0.930 . S
H1514 C1522 0.930 . S
H1515 C1523 0.930 . S
H1516 C1526 0.930 . S
H1517 C1527 0.930 . S
C1518 H1512 0.930 . S
C1518 C1519 1.355 . S
C1518 C1520 1.415 . S
C1519 C1518 1.355 . S
C1519 C1521 1.419 . S
C1520 C1518 1.415 . S
C1520 C1525 1.425 . S
C1520 C1527 1.409 . S
C1521 H1513 0.930 . S
C1521 C1519 1.419 . S
C1521 C1522 1.362 . S
C1522 H1514 0.930 . S
C1522 C1521 1.362 . S
C1522 C1525 1.409 . S
C1523 H1515 0.930 . S
C1523 C1524 1.355 . S
C1523 C1525 1.415 . S
C1524 C1523 1.355 . S
C1524 C1526 1.419 . S
C1525 C1520 1.425 . S
C1525 C1522 1.409 . S
C1525 C1523 1.415 . S
C1526 H1516 0.930 . S
C1526 C1524 1.419 . S
C1526 C1527 1.362 . S
C1527 H1517 0.930 . S
C1527 C1520 1.409 . S
C1527 C1526 1.362 . S
H1528 C1534 0.930 . S
H1529 C1537 0.930 . S
H1530 C1538 0.930 . S
H1531 C1539 0.930 . S
H1532 C1542 0.930 . S
H1533 C1543 0.930 . S
C1534 H1528 0.930 . S
C1534 C1535 1.355 . S
C1534 C1536 1.415 . S
C1535 C1534 1.355 . S
C1535 C1537 1.419 . S
C1536 C1534 1.415 . S
C1536 C1541 1.425 . S
C1536 C1543 1.409 . S
C1537 H1529 0.930 . S
C1537 C1535 1.419 . S
C1537 C1538 1.362 . S
C1538 H1530 0.930 . S
C1538 C1537 1.362 . S
C1538 C1541 1.409 . S
C1539 H1531 0.930 . S
C1539 C1540 1.355 . S
C1539 C1541 1.415 . S
C1540 C1539 1.355 . S
C1540 C1542 1.419 . S
C1541 C1536 1.425 . S
C1541 C1538 1.409 . S
C1541 C1539 1.415 . S
C1542 H1532 0.930 . S
C1542 C1540 1.419 . S
C1542 C1543 1.362 . S
C1543 H1533 0.930 . S
C1543 C1536 1.409 . S
C1543 C1542 1.362 . S
H1544 C1550 0.930 . S
H1545 C1553 0.930 . S
H1546 C1554 0.930 . S
H1547 C1555 0.930 . S
H1548 C1558 0.930 . S
H1549 C1559 0.930 . S
C1550 H1544 0.930 . S
C1550 C1551 1.355 . S
C1550 C1552 1.415 . S
C1551 C1550 1.355 . S
C1551 C1553 1.419 . S
C1552 C1550 1.415 . S
C1552 C1557 1.425 . S
C1552 C1559 1.409 . S
C1553 H1545 0.930 . S
C1553 C1551 1.419 . S
C1553 C1554 1.362 . S
C1554 H1546 0.930 . S
C1554 C1553 1.362 . S
C1554 C1557 1.409 . S
C1555 H1547 0.930 . S
C1555 C1556 1.355 . S
C1555 C1557 1.415 . S
C1556 C1555 1.355 . S
C1556 C1558 1.419 . S
C1557 C1552 1.425 . S
C1557 C1554 1.409 . S
C1557 C1555 1.415 . S
C1558 H1548 0.930 . S
C1558 C1556 1.419 . S
C1558 C1559 1.362 . S
C1559 H1549 0.930 . S
C1559 C1552 1.409 . S
C1559 C1558 1.362 . S
H1560 C1566 0.930 . S
H1561 C1569 0.930 . S
H1562 C1570 0.930 . S
H1563 C1571 0.930 . S
H1564 C1574 0.930 . S
H1565 C1575 0.930 . S
C1566 H1560 0.930 . S
C1566 C1567 1.355 . S
C1566 C1568 1.463 . S
C1567 C1566 1.355 . S
C1567 C1569 1.419 . S
C1568 C1566 1.463 . S
C1568 C1573 1.415 1_455 S
C1568 C1575 1.368 1_455 S
C1569 H1561 0.930 . S
C1569 C1567 1.419 . S
C1569 C1570 1.362 . S
C1570 H1562 0.930 . S
C1570 C1569 1.362 . S
C1570 C1573 1.368 1_455 S
C1571 H1563 0.930 . S
C1571 C1572 1.355 . S
C1571 C1573 1.463 . S
C1572 C1571 1.355 . S
C1572 C1574 1.419 . S
C1573 C1568 1.415 1_655 S
C1573 C1570 1.368 1_655 S
C1573 C1571 1.463 . S
C1574 H1564 0.930 . S
C1574 C1572 1.419 . S
C1574 C1575 1.362 . S
C1575 H1565 0.930 . S
C1575 C1568 1.368 1_655 S
C1575 C1574 1.362 . S
H1576 C1582 0.930 . S
H1577 C1585 0.930 . S
H1578 C1586 0.930 . S
H1579 C1587 0.930 . S
H1580 C1590 0.930 . S
H1581 C1591 0.930 . S
C1582 H1576 0.930 . S
C1582 C1583 1.355 . S
C1582 C1584 1.415 . S
C1583 C1582 1.355 . S
C1583 C1585 1.419 . S
C1584 C1582 1.415 . S
C1584 C1589 1.425 . S
C1584 C1591 1.409 . S
C1585 H1577 0.930 . S
C1585 C1583 1.419 . S
C1585 C1586 1.362 . S
C1586 H1578 0.930 . S
C1586 C1585 1.362 . S
C1586 C1589 1.409 . S
C1587 H1579 0.930 . S
C1587 C1588 1.355 . S
C1587 C1589 1.415 . S
C1588 C1587 1.355 . S
C1588 C1590 1.419 . S
C1589 C1584 1.425 . S
C1589 C1586 1.409 . S
C1589 C1587 1.415 . S
C1590 H1580 0.930 . S
C1590 C1588 1.419 . S
C1590 C1591 1.362 . S
C1591 H1581 0.930 . S
C1591 C1584 1.409 . S
C1591 C1590 1.362 . S
H1592 C1598 0.930 . S
H1593 C1601 0.930 . S
H1594 C1602 0.930 . S
H1595 C1603 0.930 . S
H1596 C1606 0.930 . S
H1597 C1607 0.930 . S
C1598 H1592 0.930 . S
C1598 C1599 1.355 . S
C1598 C1600 1.415 . S
C1599 C1598 1.355 . S
C1599 C1601 1.419 . S
C1600 C1598 1.415 . S
C1600 C1605 1.425 1_545 S
C1600 C1607 1.409 1_545 S
C1601 H1593 0.930 . S
C1601 C1599 1.419 . S
C1601 C1602 1.362 . S
C1602 H1594 0.930 . S
C1602 C1601 1.362 . S
C1602 C1605 1.409 1_545 S
C1603 H1595 0.930 . S
C1603 C1604 1.355 . S
C1603 C1605 1.415 . S
C1604 C1603 1.355 . S
C1604 C1606 1.419 . S
C1605 C1600 1.425 1_565 S
C1605 C1602 1.409 1_565 S
C1605 C1603 1.415 . S
C1606 H1596 0.930 . S
C1606 C1604 1.419 . S
C1606 C1607 1.362 . S
C1607 H1597 0.930 . S
C1607 C1600 1.409 1_565 S
C1607 C1606 1.362 . S
H1608 C1614 0.930 . S
H1609 C1617 0.930 . S
H1610 C1618 0.930 1_565 S
H1611 C1619 0.930 . S
H1612 C1622 0.930 . S
H1613 C1623 0.930 1_545 S
C1614 H1608 0.930 . S
C1614 C1615 1.355 . S
C1614 C1616 1.418 . S
C1615 C1614 1.355 . S
C1615 C1617 1.419 . S
C1616 C1614 1.418 . S
C1616 C1621 1.425 1_546 S
C1616 C1623 1.406 1_546 S
C1617 H1609 0.930 . S
C1617 C1615 1.419 . S
C1617 C1618 1.362 . S
C1618 H1610 0.930 1_545 S
C1618 C1617 1.362 . S
C1618 C1621 1.406 1_546 S
C1619 H1611 0.930 . S
C1619 C1620 1.355 . S
C1619 C1621 1.418 . S
C1620 C1619 1.355 . S
C1620 C1622 1.419 . S
C1621 C1616 1.425 1_564 S
C1621 C1618 1.406 1_564 S
C1621 C1619 1.418 . S
C1622 H1612 0.930 . S
C1622 C1620 1.419 . S
C1622 C1623 1.362 . S
C1623 H1613 0.930 1_565 S
C1623 C1616 1.406 1_564 S
C1623 C1622 1.362 . S
H1624 C1630 0.930 . S
H1625 C1633 0.930 . S
H1626 C1634 0.930 . S
H1627 C1635 0.930 . S
H1628 C1638 0.930 . S
H1629 C1639 0.930 . S
C1630 H1624 0.930 . S
C1630 C1631 1.355 . S
C1630 C1632 1.444 . S
C1631 C1630 1.355 . S
C1631 C1633 1.419 . S
C1632 C1630 1.444 . S
C1632 C1637 1.469 1_656 S
C1632 C1639 1.360 1_656 S
C1633 H1625 0.930 . S
C1633 C1631 1.419 . S
C1633 C1634 1.362 . S
C1634 H1626 0.930 . S
C1634 C1633 1.362 . S
C1634 C1637 1.360 1_656 S
C1635 H1627 0.930 . S
C1635 C1636 1.355 . S
C1635 C1637 1.444 . S
C1636 C1635 1.355 . S
C1636 C1638 1.419 . S
C1637 C1632 1.469 1_454 S
C1637 C1634 1.360 1_454 S
C1637 C1635 1.444 . S
C1638 H1628 0.930 . S
C1638 C1636 1.419 . S
C1638 C1639 1.362 . S
C1639 H1629 0.930 . S
C1639 C1632 1.360 1_454 S
C1639 C1638 1.362 . S
H1640 C1646 0.930 . S
H1641 C1649 0.930 . S
H1642 C1650 0.930 . S
H1643 C1651 0.930 . S
H1644 C1654 0.930 . S
H1645 C1655 0.930 . S
C1646 H1640 0.930 . S
C1646 C1647 1.355 1_554 S
C1646 C1648 1.415 . S
C1647 C1646 1.355 1_556 S
C1647 C1649 1.419 . S
C1648 C1646 1.415 . S
C1648 C1653 1.425 1_554 S
C1648 C1655 1.409 . S
C1649 H1641 0.930 . S
C1649 C1647 1.419 . S
C1649 C1650 1.362 . S
C1650 H1642 0.930 . S
C1650 C1649 1.362 . S
C1650 C1653 1.409 . S
C1651 H1643 0.930 . S
C1651 C1652 1.355 1_556 S
C1651 C1653 1.415 . S
C1652 C1651 1.355 1_554 S
C1652 C1654 1.419 . S
C1653 C1648 1.425 1_556 S
C1653 C1650 1.409 . S
C1653 C1651 1.415 . S
C1654 H1644 0.930 . S
C1654 C1652 1.419 . S
C1654 C1655 1.362 . S
C1655 H1645 0.930 . S
C1655 C1648 1.409 . S
C1655 C1654 1.362 . S
C511 C7 1.309 . S
C516 C107 1.333 . S
C527 C21 1.346 . S
C532 C121 1.277 . S
C543 C93 1.335 . S
C548 C35 1.302 . S
C559 C163 1.333 . S
C564 C49 1.309 . S
C575 C63 1.326 . S
C580 C135 1.300 . S
C591 C77 1.332 . S
C596 C149 1.302 . S
C607 C23 1.321 . S
C612 C91 1.319 . S
C623 C37 1.277 . S
C628 C105 1.346 . S
C639 C119 1.337 . S
C644 C9 1.287 . S
C655 C133 1.299 . S
C660 C79 1.341 . S
C671 C51 1.340 . S
C676 C147 1.299 . S
C687 C161 1.342 . S
C692 C65 1.280 . S
C703 C275 1.327 . S
C708 C175 1.307 . S
C719 C189 1.299 . S
C724 C289 1.341 . S
C735 C203 1.312 . S
C740 C261 1.330 . S
C751 C331 1.282 . S
C756 C217 1.341 . S
C767 C231 1.305 . S
C772 C303 1.330 . S
C783 C317 1.303 . S
C788 C245 1.331 . S
C799 C191 1.340 . S
C804 C259 1.302 . S
C815 C273 1.344 . S
C820 C205 1.279 . S
C831 C177 1.306 . S
C836 C287 1.330 . S
C847 C301 1.340 . S
C852 C247 1.290 . S
C863 C315 1.299 . S
C868 C219 1.340 . S
C879 C329 1.326 . S
C884 C233 1.300 . S
C895 C443 1.338 . S
C900 C343 1.300 . S
C911 C457 1.292 . S
C916 C357 1.339 . S
C927 C429 1.340 . S
C932 C371 1.299 . S
C943 C385 1.334 . S
C948 C499 1.300 . S
C959 C399 1.309 . S
C964 C471 1.324 . S
C975 C485 1.280 . S
C980 C413 1.343 . S
C991 C427 1.320 . S
C996 C359 1.318 . S
C1007 C373 1.277 . S
C1012 C441 1.346 . S
C1023 C345 1.315 . S
C1028 C455 1.323 . S
C1039 C469 1.311 . S
C1044 C415 1.330 . S
C1055 C483 1.310 . S
C1060 C387 1.323 . S
C1071 C497 1.322 . S
C1076 C401 1.317 . S
C1087 C50 1.723 . S
C1092 C8 1.749 . S
C1103 C64 1.735 . S
C1108 C22 1.739 . S
C1119 C36 1.739 . S
C1124 C78 1.735 . S
C1135 C134 1.753 . S
C1140 C92 1.713 . S
C1151 C148 1.716 . S
C1156 C106 1.752 . S
C1167 C162 1.714 . S
C1172 C120 1.753 . S
C1183 C218 1.728 . S
C1188 C176 1.723 . S
C1199 C232 1.741 . S
C1204 C190 1.733 . S
C1215 C204 1.712 . S
C1220 C246 1.753 . S
C1231 C302 1.752 1_554 S
C1236 C260 1.711 . S
C1247 C316 1.748 1_554 S
C1252 C274 1.710 . S
C1263 C330 1.714 1_554 S
C1268 C288 1.740 . S
C1279 C386 1.736 1_556 S
C1284 C344 1.738 . S
C1295 C358 1.714 . S
C1300 C400 1.753 1_556 S
C1311 C414 1.729 1_556 S
C1316 C372 1.722 . S
C1327 C428 1.747 . S
C1332 C470 1.710 . S
C1343 C442 1.742 . S
C1348 C484 1.712 . S
C1359 C456 1.714 . S
C1364 C498 1.740 . S
C1375 C6 1.494 . S
C1380 C258 1.494 . S
C1391 C272 1.459 . S
C1396 C20 1.459 . S
C1407 C286 1.499 . S
C1412 C34 1.499 . S
C1423 C468 1.499 . S
C1428 C48 1.499 . S
C1439 C482 1.500 . S
C1444 C62 1.500 . S
C1455 C496 1.461 . S
C1460 C76 1.461 . S
C1471 C90 1.460 . S
C1476 C342 1.460 . S
C1487 C356 1.462 . S
C1492 C104 1.462 . S
C1503 C370 1.461 . S
C1508 C118 1.461 . S
C1519 C132 1.490 . S
C1524 C216 1.490 . S
C1535 C146 1.496 . S
C1540 C230 1.496 . S
C1551 C160 1.474 . S
C1556 C244 1.474 . S
C1567 C426 1.487 . S
C1572 C174 1.487 . S
C1583 C440 1.500 . S
C1588 C188 1.500 . S
C1599 C202 1.484 . S
C1604 C454 1.484 . S
C1615 C300 1.459 . S
C1620 C384 1.459 . S
C1631 C314 1.499 . S
C1636 C398 1.499 . S
C1647 C328 1.479 . S
C1652 C412 1.479 . S
