# Generated by pormake.
# Topology uot, (4)-cn, num edge types: 1
# Building blocks:
#     Node 0, Type 0, BuildingBlock: NAHDIM_clean_sbu_0, # of connection points: 4
#     Node 1, Type 0, BuildingBlock: NAHDIM_clean_sbu_0, # of connection points: 4
#     Node 2, Type 0, BuildingBlock: NAHDIM_clean_sbu_0, # of connection points: 4
#     Node 3, Type 0, BuildingBlock: NAHDIM_clean_sbu_0, # of connection points: 4
#     Node 4, Type 0, BuildingBlock: NAHDIM_clean_sbu_0, # of connection points: 4
#     Node 5, Type 0, BuildingBlock: NAHDIM_clean_sbu_0, # of connection points: 4
#     Node 6, Type 0, BuildingBlock: NAHDIM_clean_sbu_0, # of connection points: 4
#     Node 7, Type 0, BuildingBlock: NAHDIM_clean_sbu_0, # of connection points: 4
#     Node 8, Type 0, BuildingBlock: NAHDIM_clean_sbu_0, # of connection points: 4
#     Node 9, Type 0, BuildingBlock: NAHDIM_clean_sbu_0, # of connection points: 4
#     Node 10, Type 0, BuildingBlock: NAHDIM_clean_sbu_0, # of connection points: 4
#     Node 11, Type 0, BuildingBlock: NAHDIM_clean_sbu_0, # of connection points: 4
#     Node 12, Type 0, BuildingBlock: NAHDIM_clean_sbu_0, # of connection points: 4
#     Node 13, Type 0, BuildingBlock: NAHDIM_clean_sbu_0, # of connection points: 4
#     Node 14, Type 0, BuildingBlock: NAHDIM_clean_sbu_0, # of connection points: 4
#     Node 15, Type 0, BuildingBlock: NAHDIM_clean_sbu_0, # of connection points: 4
#     Edge 16, Type (0, 0), BuildingBlock: XUDNAN_clean_linker_2, # of connection points: 2
#     Edge 17, Type (0, 0), BuildingBlock: XUDNAN_clean_linker_2, # of connection points: 2
#     Edge 18, Type (0, 0), BuildingBlock: XUDNAN_clean_linker_2, # of connection points: 2
#     Edge 19, Type (0, 0), BuildingBlock: XUDNAN_clean_linker_2, # of connection points: 2
#     Edge 20, Type (0, 0), BuildingBlock: XUDNAN_clean_linker_2, # of connection points: 2
#     Edge 21, Type (0, 0), BuildingBlock: XUDNAN_clean_linker_2, # of connection points: 2
#     Edge 22, Type (0, 0), BuildingBlock: XUDNAN_clean_linker_2, # of connection points: 2
#     Edge 23, Type (0, 0), BuildingBlock: XUDNAN_clean_linker_2, # of connection points: 2
#     Edge 24, Type (0, 0), BuildingBlock: XUDNAN_clean_linker_2, # of connection points: 2
#     Edge 25, Type (0, 0), BuildingBlock: XUDNAN_clean_linker_2, # of connection points: 2
#     Edge 26, Type (0, 0), BuildingBlock: XUDNAN_clean_linker_2, # of connection points: 2
#     Edge 27, Type (0, 0), BuildingBlock: XUDNAN_clean_linker_2, # of connection points: 2
#     Edge 28, Type (0, 0), BuildingBlock: XUDNAN_clean_linker_2, # of connection points: 2
#     Edge 29, Type (0, 0), BuildingBlock: XUDNAN_clean_linker_2, # of connection points: 2
#     Edge 30, Type (0, 0), BuildingBlock: XUDNAN_clean_linker_2, # of connection points: 2
#     Edge 31, Type (0, 0), BuildingBlock: XUDNAN_clean_linker_2, # of connection points: 2
#     Edge 32, Type (0, 0), BuildingBlock: XUDNAN_clean_linker_2, # of connection points: 2
#     Edge 33, Type (0, 0), BuildingBlock: XUDNAN_clean_linker_2, # of connection points: 2
#     Edge 34, Type (0, 0), BuildingBlock: XUDNAN_clean_linker_2, # of connection points: 2
#     Edge 35, Type (0, 0), BuildingBlock: XUDNAN_clean_linker_2, # of connection points: 2
#     Edge 36, Type (0, 0), BuildingBlock: XUDNAN_clean_linker_2, # of connection points: 2
#     Edge 37, Type (0, 0), BuildingBlock: XUDNAN_clean_linker_2, # of connection points: 2
#     Edge 38, Type (0, 0), BuildingBlock: XUDNAN_clean_linker_2, # of connection points: 2
#     Edge 39, Type (0, 0), BuildingBlock: XUDNAN_clean_linker_2, # of connection points: 2
#     Edge 40, Type (0, 0), BuildingBlock: XUDNAN_clean_linker_2, # of connection points: 2
#     Edge 41, Type (0, 0), BuildingBlock: XUDNAN_clean_linker_2, # of connection points: 2
#     Edge 42, Type (0, 0), BuildingBlock: XUDNAN_clean_linker_2, # of connection points: 2
#     Edge 43, Type (0, 0), BuildingBlock: XUDNAN_clean_linker_2, # of connection points: 2
#     Edge 44, Type (0, 0), BuildingBlock: XUDNAN_clean_linker_2, # of connection points: 2
#     Edge 45, Type (0, 0), BuildingBlock: XUDNAN_clean_linker_2, # of connection points: 2
#     Edge 46, Type (0, 0), BuildingBlock: XUDNAN_clean_linker_2, # of connection points: 2
#     Edge 47, Type (0, 0), BuildingBlock: XUDNAN_clean_linker_2, # of connection points: 2
# Relax obj value: 0.173
# Max RMSD: 0.206
# Mean RMSD: 0.206
data_MOF--net-uot--node1-NAHDIM_clean_sbu_0--edge1-XUDNAN_clean_linker_2
_symmetry_space_group_name_H-M    P1
_symmetry_Int_Tables_number       1
_symmetry_cell_setting            triclinic
loop_
_symmetry_equiv_pos_as_xyz
'x, y, z'
_cell_length_a     44.024548
_cell_length_b     44.023842
_cell_length_c     39.214783
_cell_angle_alpha  90.029269
_cell_angle_beta   90.012068
_cell_angle_gamma 90.026764
loop_
_atom_site_label
_atom_site_type_symbol
_atom_site_fract_x
_atom_site_fract_y
_atom_site_fract_z
_atom_type_partial_charge
C0 C 0.29114 0.45088 0.3027 0.0
O1 O 0.29227 0.47908 0.31358 0.0
O2 O 0.19366 0.42687 0.28757 0.0
Zn3 Zn 0.22436 0.45589 0.30729 0.0
O4 O 0.21802 0.4581 0.35793 0.0
C5 C 0.19366 0.51043 0.29341 0.0
O6 O 0.17485 0.4973 0.31482 0.0
O7 O 0.26551 0.43828 0.29795 0.0
C8 C 0.22806 0.4795 0.37652 0.0
O9 O 0.24369 0.50162 0.36247 0.0
C10 C 0.16879 0.42047 0.3024 0.0
O11 O 0.1623 0.4334 0.3317 0.0
O12 O 0.21834 0.49702 0.28592 0.0
C13 C 0.44957 0.71772 0.7179 0.0
O14 O 0.44273 0.74025 0.7385 0.0
O15 O 0.44814 0.79419 0.6968 0.0
Zn16 Zn 0.48114 0.76522 0.68261 0.0
O17 O 0.4877 0.76906 0.63184 0.0
C18 C 0.52236 0.78992 0.73436 0.0
O19 O 0.49744 0.79702 0.75099 0.0
O20 O 0.46713 0.7227 0.6928 0.0
C21 C 0.50889 0.78577 0.62029 0.0
O22 O 0.52626 0.8007 0.64178 0.0
C23 C 0.4485 0.82229 0.68949 0.0
O24 O 0.47146 0.83341 0.67212 0.0
O25 O 0.52037 0.77542 0.70642 0.0
C26 C 0.71766 0.58316 0.2814 0.0
O27 O 0.74079 0.59885 0.26973 0.0
O28 O 0.79481 0.57966 0.31 0.0
Zn29 Zn 0.76467 0.54498 0.31165 0.0
O30 O 0.76196 0.52902 0.35969 0.0
C31 C 0.80703 0.50365 0.28303 0.0
O32 O 0.82487 0.51854 0.30408 0.0
O33 O 0.72262 0.55922 0.29862 0.0
C34 C 0.77872 0.53839 0.38391 0.0
O35 O 0.79937 0.55922 0.37777 0.0
C36 C 0.80827 0.58705 0.28257 0.0
O37 O 0.80166 0.57248 0.25426 0.0
O38 O 0.77913 0.51093 0.28131 0.0
C39 C 0.57429 0.27347 0.72124 0.0
O40 O 0.5876 0.25144 0.73819 0.0
O41 O 0.57189 0.19385 0.69929 0.0
Zn42 Zn 0.53881 0.22451 0.69116 0.0
O43 O 0.52609 0.22199 0.64199 0.0
C44 C 0.50437 0.1924 0.74251 0.0
O45 O 0.53077 0.17963 0.74853 0.0
O46 O 0.55288 0.26714 0.70072 0.0
C47 C 0.50742 0.20162 0.63258 0.0
O48 O 0.4971 0.18219 0.6552 0.0
C49 C 0.5986 0.19355 0.68705 0.0
O50 O 0.60741 0.21559 0.66675 0.0
O51 O 0.5026 0.21337 0.72028 0.0
C52 C 0.28633 0.57095 0.71698 0.0
O53 O 0.26453 0.57992 0.73753 0.0
O54 O 0.20866 0.57476 0.69505 0.0
Zn55 Zn 0.23688 0.54005 0.68383 0.0
O56 O 0.23272 0.52947 0.63393 0.0
C57 C 0.20479 0.50229 0.73325 0.0
O58 O 0.19091 0.52769 0.74131 0.0
O59 O 0.27995 0.55299 0.69264 0.0
C60 C 0.21574 0.50761 0.62461 0.0
O61 O 0.20063 0.49225 0.64778 0.0
C62 C 0.18149 0.57533 0.68412 0.0
O63 O 0.17173 0.55301 0.66476 0.0
O64 O 0.22603 0.50281 0.71129 0.0
C65 C 0.5429 0.71663 0.29269 0.0
O66 O 0.51791 0.71415 0.31077 0.0
O67 O 0.55945 0.81608 0.28058 0.0
Zn68 Zn 0.53336 0.78231 0.29839 0.0
O69 O 0.53463 0.78583 0.3494 0.0
C70 C 0.47938 0.77425 0.25571 0.0
O71 O 0.49544 0.75337 0.23998 0.0
O72 O 0.55225 0.74282 0.28406 0.0
C73 C 0.5145 0.77621 0.36993 0.0
O74 O 0.49035 0.76231 0.35792 0.0
C75 C 0.58803 0.81474 0.28495 0.0
O76 O 0.59974 0.79082 0.30004 0.0
O77 O 0.49083 0.78822 0.281 0.0
C78 C 0.70576 0.44906 0.70305 0.0
O79 O 0.70319 0.47257 0.68264 0.0
O80 O 0.80237 0.42598 0.69936 0.0
Zn81 Zn 0.77058 0.45855 0.69408 0.0
O82 O 0.7645 0.46728 0.64413 0.0
C83 C 0.80995 0.50369 0.72389 0.0
O84 O 0.83091 0.48557 0.71153 0.0
O85 O 0.73203 0.44041 0.71224 0.0
C86 C 0.77866 0.48785 0.62788 0.0
O87 O 0.79835 0.50501 0.64409 0.0
C88 C 0.82502 0.42229 0.67969 0.0
O89 O 0.82943 0.44119 0.65427 0.0
O90 O 0.78213 0.49674 0.71991 0.0
C91 C 0.43846 0.28612 0.31105 0.0
O92 O 0.46737 0.2848 0.31922 0.0
O93 O 0.4094 0.18915 0.30184 0.0
Zn94 Zn 0.43897 0.22006 0.31978 0.0
O95 O 0.44163 0.21375 0.37041 0.0
C96 C 0.48438 0.20304 0.2696 0.0
O97 O 0.46069 0.19751 0.25018 0.0
O98 O 0.42299 0.26177 0.30959 0.0
C99 C 0.46338 0.22404 0.3883 0.0
O100 O 0.48476 0.24019 0.37356 0.0
C101 C 0.41598 0.16108 0.3029 0.0
O102 O 0.4426 0.15275 0.31481 0.0
O103 O 0.48035 0.21346 0.29947 0.0
C104 C 0.78459 0.93112 0.82414 0.0
O105 O 0.76677 0.9265 0.85051 0.0
O106 O 0.7047 0.93354 0.79793 0.0
Zn107 Zn 0.73441 0.9671 0.80934 0.0
O108 O 0.73306 0.98105 0.85843 0.0
C109 C 0.69826 0.01073 0.77589 0.0
O110 O 0.67738 0.99372 0.79031 0.0
O111 O 0.77596 0.94947 0.80107 0.0
C112 C 0.71007 0.98834 0.87622 0.0
O113 O 0.68272 0.9866 0.86299 0.0
C114 C 0.68766 0.91812 0.81756 0.0
O115 O 0.68746 0.92361 0.85046 0.0
O116 O 0.72602 0.00341 0.77937 0.0
C117 C 0.92489 0.23826 0.21088 0.0
O118 O 0.92574 0.26048 0.23322 0.0
O119 O 0.92091 0.31523 0.17275 0.0
Zn120 Zn 0.95212 0.28242 0.16469 0.0
O121 O 0.96145 0.27734 0.11494 0.0
C122 C 0.99467 0.30498 0.21673 0.0
O123 O 0.9704 0.3109 0.23505 0.0
O124 O 0.93546 0.24261 0.18114 0.0
C125 C 0.95393 0.29485 0.09062 0.0
O126 O 0.93767 0.3192 0.097 0.0
C127 C 0.92812 0.343 0.17641 0.0
O128 O 0.95673 0.3511 0.17358 0.0
O129 O 0.99169 0.29262 0.18764 0.0
C130 C 0.23522 0.06429 0.81393 0.0
O131 O 0.25231 0.07199 0.84003 0.0
O132 O 0.31353 0.05816 0.80833 0.0
Zn133 Zn 0.28267 0.02465 0.81341 0.0
O134 O 0.27638 0.01496 0.86301 0.0
C135 C 0.31496 0.98705 0.7646 0.0
O136 O 0.32496 0.01321 0.75307 0.0
O137 O 0.24329 0.04175 0.79579 0.0
C138 C 0.29407 0.99879 0.88103 0.0
O139 O 0.31866 0.98724 0.86719 0.0
C140 C 0.34171 0.05648 0.81498 0.0
O141 O 0.35307 0.03083 0.82635 0.0
O142 O 0.29597 0.98672 0.789 0.0
C143 C 0.03793 0.78555 0.19236 0.0
O144 O 0.01146 0.78546 0.17688 0.0
O145 O 0.06433 0.68834 0.20606 0.0
Zn146 Zn 0.03461 0.71905 0.18826 0.0
O147 O 0.03072 0.71363 0.13752 0.0
C148 C 0.9877 0.7121 0.24037 0.0
O149 O 0.00855 0.72193 0.26167 0.0
O150 O 0.05058 0.76046 0.19967 0.0
C151 C 0.02771 0.68658 0.12669 0.0
O152 O 0.02787 0.66414 0.14876 0.0
C153 C 0.09152 0.68781 0.19521 0.0
O154 O 0.10011 0.70783 0.17231 0.0
O155 O 0.99383 0.71041 0.20879 0.0
C156 C 0.78158 0.07347 0.19306 0.0
O157 O 0.78249 0.06204 0.16213 0.0
O158 O 0.68587 0.08728 0.20276 0.0
Zn159 Zn 0.71783 0.05653 0.18986 0.0
O160 O 0.72214 0.05287 0.13878 0.0
C161 C 0.68026 0.00764 0.21418 0.0
O162 O 0.65852 0.02688 0.20651 0.0
O163 O 0.75691 0.07228 0.20981 0.0
C164 C 0.70448 0.03696 0.12037 0.0
O165 O 0.68156 0.02269 0.1346 0.0
C166 C 0.66297 0.09525 0.18517 0.0
O167 O 0.65821 0.08272 0.15525 0.0
O168 O 0.70776 0.01549 0.2097 0.0
C169 C 0.0831 0.22482 0.79338 0.0
O170 O 0.09005 0.24492 0.81692 0.0
O171 O 0.07471 0.30294 0.77629 0.0
Zn172 Zn 0.04267 0.27113 0.78465 0.0
O173 O 0.03245 0.27004 0.8346 0.0
C174 C 0.00212 0.29974 0.7356 0.0
O175 O 0.02666 0.31415 0.72555 0.0
O176 O 0.06124 0.23062 0.77324 0.0
C177 C 0.01188 0.28579 0.84886 0.0
O178 O 0.9958 0.30491 0.83054 0.0
C179 C 0.0731 0.33017 0.78687 0.0
O180 O 0.04882 0.33912 0.80352 0.0
O181 O 0.00423 0.27972 0.7588 0.0
C182 C 0.19727 0.93748 0.2011 0.0
O183 O 0.19921 0.96336 0.18455 0.0
O184 O 0.29342 0.90629 0.20333 0.0
Zn185 Zn 0.26243 0.93897 0.19477 0.0
O186 O 0.25985 0.9485 0.14481 0.0
C187 C 0.30278 0.98227 0.2243 0.0
O188 O 0.32262 0.96159 0.21499 0.0
O189 O 0.22153 0.92378 0.20957 0.0
C190 C 0.28235 0.94784 0.12455 0.0
O191 O 0.30922 0.93997 0.13614 0.0
C192 C 0.29446 0.88156 0.18666 0.0
O193 O 0.27428 0.87648 0.16262 0.0
O194 O 0.27467 0.9774 0.21914 0.0
C195 C 0.93813 0.77209 0.83556 0.0
O196 O 0.93711 0.75973 0.86602 0.0
O197 O 0.93821 0.68444 0.80747 0.0
Zn198 Zn 0.96888 0.71636 0.82075 0.0
O199 O 0.97863 0.71096 0.87049 0.0
C200 C 0.00868 0.69144 0.76923 0.0
O201 O 0.98347 0.67869 0.75844 0.0
O202 O 0.95149 0.75795 0.81161 0.0
C203 C 0.98479 0.68432 0.88083 0.0
O204 O 0.98444 0.6618 0.85882 0.0
C205 C 0.91033 0.68536 0.81577 0.0
O206 O 0.90021 0.70834 0.83386 0.0
O207 O 0.00767 0.70944 0.79456 0.0
H208 H 0.2952 0.39155 0.28326 0.0
H209 H 0.35016 0.46822 0.31561 0.0
H210 H 0.39568 0.43523 0.31582 0.0
H211 H 0.32867 0.33839 0.33574 0.0
H212 H 0.32647 0.30744 0.30574 0.0
H213 H 0.2994 0.33793 0.30358 0.0
H214 H 0.31391 0.34769 0.24045 0.0
H215 H 0.34098 0.31703 0.24233 0.0
H216 H 0.35309 0.3544 0.22938 0.0
H217 H 0.43416 0.39219 0.31783 0.0
H218 H 0.4617 0.34333 0.32191 0.0
H219 H 0.38048 0.2957 0.28897 0.0
C220 C 0.31687 0.40167 0.28973 0.0
C221 C 0.31912 0.43251 0.29933 0.0
C222 C 0.34791 0.44468 0.308 0.0
C223 C 0.37389 0.42612 0.30814 0.0
C224 C 0.37066 0.39558 0.29935 0.0
C225 C 0.34284 0.38355 0.29011 0.0
C226 C 0.3447 0.34967 0.28427 0.0
C227 C 0.32357 0.33236 0.3088 0.0
C228 C 0.33777 0.34174 0.24688 0.0
C229 C 0.37773 0.34424 0.29267 0.0
C230 C 0.39252 0.37097 0.30085 0.0
C231 C 0.42287 0.3712 0.31107 0.0
C232 C 0.43832 0.34334 0.31334 0.0
C233 C 0.42325 0.31569 0.30578 0.0
C234 C 0.39271 0.3164 0.29484 0.0
H235 H 0.40049 0.70454 0.75799 0.0
H236 H 0.46097 0.66522 0.68257 0.0
H237 H 0.42891 0.61925 0.6805 0.0
H238 H 0.37866 0.63153 0.80133 0.0
H239 H 0.34007 0.64424 0.80692 0.0
H240 H 0.37076 0.67136 0.80729 0.0
H241 H 0.3443 0.70168 0.75907 0.0
H242 H 0.31373 0.67464 0.75837 0.0
H243 H 0.33458 0.68263 0.71984 0.0
H244 H 0.38656 0.58143 0.68006 0.0
H245 H 0.33735 0.55459 0.68146 0.0
H246 H 0.30433 0.61865 0.75701 0.0
C247 C 0.40758 0.68587 0.74186 0.0
C248 C 0.43334 0.6884 0.72059 0.0
C249 C 0.4414 0.66373 0.69922 0.0
C250 C 0.42338 0.63748 0.69796 0.0
C251 C 0.39751 0.63617 0.71838 0.0
C252 C 0.38975 0.65961 0.74016 0.0
C253 C 0.3591 0.65411 0.75658 0.0
C254 C 0.36236 0.65006 0.79533 0.0
C255 C 0.33662 0.67978 0.74792 0.0
C256 C 0.35023 0.62458 0.7395 0.0
C257 C 0.3729 0.61432 0.718 0.0
C258 C 0.36888 0.58889 0.69731 0.0
C259 C 0.3408 0.57386 0.69819 0.0
C260 C 0.31703 0.58444 0.71946 0.0
C261 C 0.32218 0.60972 0.74089 0.0
H262 H 0.59813 0.71564 0.26098 0.0
H263 H 0.53216 0.65727 0.31072 0.0
H264 H 0.56795 0.6142 0.30636 0.0
H265 H 0.63151 0.65692 0.20353 0.0
H266 H 0.66914 0.67242 0.20861 0.0
H267 H 0.63651 0.69708 0.21064 0.0
H268 H 0.65395 0.71623 0.27001 0.0
H269 H 0.68645 0.69161 0.26828 0.0
H270 H 0.66046 0.68913 0.30368 0.0
H271 H 0.61343 0.57959 0.30351 0.0
H272 H 0.66449 0.55641 0.30233 0.0
H273 H 0.70036 0.63779 0.25452 0.0
C274 C 0.59081 0.69363 0.27017 0.0
C275 C 0.56228 0.68981 0.28609 0.0
C276 C 0.55384 0.66072 0.29826 0.0
C277 C 0.574 0.6361 0.29583 0.0
C278 C 0.60234 0.64092 0.2809 0.0
C279 C 0.61062 0.66895 0.26802 0.0
C280 C 0.64331 0.66909 0.25614 0.0
C281 C 0.64522 0.67417 0.21743 0.0
C282 C 0.66213 0.69291 0.27571 0.0
C283 C 0.65257 0.6371 0.26556 0.0
C284 C 0.62854 0.62103 0.27933 0.0
C285 C 0.63226 0.59177 0.29222 0.0
C286 C 0.66138 0.57883 0.29151 0.0
C287 C 0.68642 0.59524 0.27821 0.0
C288 C 0.68166 0.62448 0.26445 0.0
H289 H 0.62808 0.29253 0.74901 0.0
H290 H 0.54772 0.32515 0.69643 0.0
H291 H 0.57016 0.37646 0.69348 0.0
H292 H 0.64528 0.36412 0.79683 0.0
H293 H 0.68561 0.35917 0.79119 0.0
H294 H 0.66114 0.32644 0.79434 0.0
H295 H 0.68176 0.30656 0.73657 0.0
H296 H 0.70615 0.33916 0.73322 0.0
H297 H 0.67969 0.33063 0.69945 0.0
H298 H 0.60384 0.42224 0.68959 0.0
H299 H 0.64651 0.45832 0.68391 0.0
H300 H 0.7049 0.39566 0.73873 0.0
C301 C 0.61482 0.31066 0.73775 0.0
C302 C 0.58608 0.30489 0.72314 0.0
C303 C 0.56976 0.32907 0.7079 0.0
C304 C 0.58225 0.35834 0.70624 0.0
C305 C 0.61102 0.36309 0.72008 0.0
C306 C 0.62704 0.33993 0.73569 0.0
C307 C 0.65875 0.3501 0.74532 0.0
C308 C 0.66293 0.34995 0.78424 0.0
C309 C 0.683 0.33046 0.72757 0.0
C310 C 0.65847 0.38218 0.73148 0.0
C311 C 0.63057 0.38946 0.71756 0.0
C312 C 0.62563 0.41701 0.70093 0.0
C313 C 0.65003 0.43735 0.69778 0.0
C314 C 0.67904 0.42989 0.71094 0.0
C315 C 0.68294 0.40224 0.72873 0.0
H316 H 0.81065 0.89462 0.87195 0.0
H317 H 0.82188 0.9266 0.76805 0.0
H318 H 0.86602 0.89233 0.76099 0.0
H319 H 0.8921 0.88493 0.89131 0.0
H320 H 0.88514 0.8513 0.91633 0.0
H321 H 0.85676 0.88072 0.91406 0.0
H322 H 0.81717 0.84125 0.89321 0.0
H323 H 0.84538 0.81179 0.89526 0.0
H324 H 0.82534 0.81869 0.85594 0.0
H325 H 0.90541 0.85035 0.76369 0.0
H326 H 0.93729 0.80549 0.77634 0.0
H327 H 0.90012 0.80234 0.87879 0.0
C328 C 0.82266 0.89486 0.84786 0.0
C329 C 0.81284 0.91327 0.82054 0.0
C330 C 0.82912 0.91277 0.78939 0.0
C331 C 0.8542 0.8934 0.78516 0.0
C332 C 0.86285 0.87501 0.81245 0.0
C333 C 0.8477 0.87586 0.8433 0.0
C334 C 0.8602 0.8527 0.86805 0.0
C335 C 0.8744 0.86836 0.89928 0.0
C336 C 0.83556 0.82976 0.87871 0.0
C337 C 0.88419 0.83799 0.84602 0.0
C338 C 0.88561 0.85125 0.81412 0.0
C339 C 0.90481 0.84011 0.78877 0.0
C340 C 0.92277 0.81458 0.79616 0.0
C341 C 0.92132 0.8005 0.82861 0.0
C342 C 0.90208 0.81277 0.85388 0.0
H343 H 0.83135 0.09304 0.15766 0.0
H344 H 0.7887 0.09692 0.25731 0.0
H345 H 0.82668 0.1347 0.27588 0.0
H346 H 0.91175 0.10695 0.18722 0.0
H347 H 0.91967 0.12999 0.1503 0.0
H348 H 0.89319 0.09885 0.14725 0.0
H349 H 0.8521 0.13573 0.12435 0.0
H350 H 0.87825 0.16691 0.12758 0.0
H351 H 0.84212 0.16879 0.14909 0.0
H352 H 0.86371 0.17772 0.28049 0.0
H353 H 0.89678 0.2222 0.2707 0.0
H354 H 0.91495 0.19032 0.16795 0.0
C355 C 0.83062 0.10102 0.18377 0.0
C356 C 0.80716 0.09192 0.20608 0.0
C357 C 0.80655 0.10348 0.2398 0.0
C358 C 0.82811 0.12487 0.25063 0.0
C359 C 0.85025 0.13428 0.22754 0.0
C360 C 0.85183 0.12249 0.19489 0.0
C361 C 0.87545 0.13888 0.17372 0.0
C362 C 0.90157 0.11738 0.16406 0.0
C363 C 0.86111 0.15344 0.14183 0.0
C364 C 0.88584 0.16267 0.19901 0.0
C365 C 0.8715 0.15931 0.23013 0.0
C366 C 0.87555 0.18021 0.25647 0.0
C367 C 0.8943 0.20547 0.25064 0.0
C368 C 0.90852 0.20972 0.2186 0.0
C369 C 0.90471 0.18757 0.19286 0.0
H370 H 0.12587 0.20494 0.83785 0.0
H371 H 0.08083 0.18081 0.74319 0.0
H372 H 0.11313 0.13476 0.73895 0.0
H373 H 0.19945 0.18362 0.81359 0.0
H374 H 0.20977 0.16953 0.85516 0.0
H375 H 0.18181 0.19909 0.85128 0.0
H376 H 0.14315 0.1663 0.88501 0.0
H377 H 0.17104 0.1366 0.88903 0.0
H378 H 0.13448 0.12842 0.87047 0.0
H379 H 0.15324 0.09251 0.7443 0.0
H380 H 0.19647 0.05873 0.7588 0.0
H381 H 0.21323 0.11205 0.85001 0.0
C382 C 0.12253 0.18995 0.81627 0.0
C383 C 0.10089 0.19647 0.79081 0.0
C384 C 0.09729 0.17617 0.76304 0.0
C385 C 0.1155 0.15 0.76045 0.0
C386 C 0.13692 0.14448 0.78596 0.0
C387 C 0.14029 0.16391 0.8134 0.0
C388 C 0.16536 0.15378 0.83701 0.0
C389 C 0.19058 0.17794 0.83937 0.0
C390 C 0.15274 0.1458 0.87247 0.0
C391 C 0.17609 0.12581 0.81838 0.0
C392 C 0.15945 0.12054 0.78907 0.0
C393 C 0.16623 0.09634 0.76735 0.0
C394 C 0.19078 0.07729 0.77576 0.0
C395 C 0.2082 0.08274 0.80554 0.0
C396 C 0.20038 0.10715 0.8271 0.0
H397 H 0.18664 0.88102 0.22751 0.0
H398 H 0.14095 0.95877 0.18286 0.0
H399 H 0.09273 0.93002 0.18234 0.0
H400 H 0.15232 0.82706 0.17797 0.0
H401 H 0.14944 0.79845 0.21068 0.0
H402 H 0.17886 0.82668 0.21299 0.0
H403 H 0.16053 0.84244 0.27327 0.0
H404 H 0.13108 0.81403 0.27125 0.0
H405 H 0.12141 0.85311 0.27962 0.0
H406 H 0.05127 0.89038 0.17961 0.0
H407 H 0.02038 0.84358 0.17536 0.0
H408 H 0.09378 0.7923 0.22169 0.0
C409 C 0.16635 0.89236 0.21848 0.0
C410 C 0.16756 0.9222 0.20533 0.0
C411 C 0.14056 0.93598 0.19322 0.0
C412 C 0.11304 0.91984 0.19289 0.0
C413 C 0.11288 0.89008 0.20502 0.0
C414 C 0.13882 0.8766 0.21788 0.0
C415 C 0.13348 0.84353 0.22642 0.0
C416 C 0.15478 0.82273 0.20577 0.0
C417 C 0.13682 0.83796 0.26493 0.0
C418 C 0.10082 0.84015 0.21513 0.0
C419 C 0.08912 0.8673 0.20332 0.0
C420 C 0.06003 0.86912 0.18934 0.0
C421 C 0.04267 0.8424 0.18697 0.0
C422 C 0.05461 0.81427 0.19826 0.0
C423 C 0.08384 0.81345 0.2131 0.0
H424 H 0.14019 0.54119 0.30014 0.0
H425 H 0.2277 0.54507 0.24931 0.0
H426 H 0.21196 0.59235 0.22014 0.0
H427 H 0.09632 0.5654 0.22986 0.0
H428 H 0.06991 0.5871 0.25515 0.0
H429 H 0.08886 0.55477 0.27346 0.0
H430 H 0.10937 0.58858 0.32249 0.0
H431 H 0.0904 0.62103 0.30437 0.0
H432 H 0.13069 0.62238 0.31241 0.0
H433 H 0.18552 0.63826 0.19487 0.0
H434 H 0.15061 0.67867 0.1754 0.0
H435 H 0.08062 0.64367 0.24278 0.0
C436 C 0.15624 0.55209 0.28316 0.0
C437 C 0.18522 0.53948 0.27706 0.0
C438 C 0.20539 0.55436 0.25441 0.0
C439 C 0.19667 0.58123 0.23776 0.0
C440 C 0.16775 0.59284 0.24412 0.0
C441 C 0.14789 0.57874 0.26633 0.0
C442 C 0.11772 0.59509 0.2679 0.0
C443 C 0.09168 0.57435 0.25586 0.0
C444 C 0.11171 0.60751 0.30393 0.0
C445 C 0.12354 0.62048 0.24282 0.0
C446 C 0.15255 0.61896 0.22948 0.0
C447 C 0.1628 0.63975 0.20528 0.0
C448 C 0.1428 0.6626 0.19436 0.0
C449 C 0.11289 0.66435 0.20756 0.0
C450 C 0.10335 0.64303 0.23223 0.0
H451 H 0.53548 0.82272 0.79232 0.0
H452 H 0.5764 0.78587 0.7004 0.0
H453 H 0.62442 0.81168 0.71436 0.0
H454 H 0.56824 0.89441 0.78771 0.0
H455 H 0.57467 0.89884 0.83284 0.0
H456 H 0.54435 0.87486 0.81792 0.0
H457 H 0.56629 0.82958 0.85216 0.0
H458 H 0.59662 0.85352 0.86744 0.0
H459 H 0.60528 0.81845 0.84578 0.0
H460 H 0.66544 0.84642 0.73382 0.0
H461 H 0.69861 0.88499 0.76033 0.0
H462 H 0.63267 0.89772 0.84128 0.0
C463 C 0.55473 0.81955 0.77551 0.0
C464 C 0.55212 0.80224 0.74526 0.0
C465 C 0.5778 0.79889 0.72379 0.0
C466 C 0.60523 0.81348 0.73148 0.0
C467 C 0.6068 0.831 0.76098 0.0
C468 C 0.58243 0.83375 0.78297 0.0
C469 C 0.5898 0.85512 0.81218 0.0
C470 C 0.56797 0.88242 0.81267 0.0
C471 C 0.58948 0.83815 0.84642 0.0
C472 C 0.62173 0.8647 0.8025 0.0
C473 C 0.63106 0.85043 0.77289 0.0
C474 C 0.65868 0.85729 0.75738 0.0
C475 C 0.67726 0.87933 0.7725 0.0
C476 C 0.66829 0.89405 0.80297 0.0
C477 C 0.64032 0.88634 0.81834 0.0
H478 H 0.93733 0.39778 0.20755 0.0
H479 H 0.86646 0.33843 0.16904 0.0
H480 H 0.8275 0.37473 0.18914 0.0
H481 H 0.89945 0.41766 0.28345 0.0
H482 H 0.91297 0.4563 0.28415 0.0
H483 H 0.93522 0.4272 0.2638 0.0
H484 H 0.93553 0.45824 0.20765 0.0
H485 H 0.91334 0.48753 0.22788 0.0
H486 H 0.90001 0.47011 0.18905 0.0
H487 H 0.79629 0.41686 0.21525 0.0
H488 H 0.77525 0.46016 0.24778 0.0
H489 H 0.86677 0.49037 0.27129 0.0
C490 C 0.91363 0.39267 0.20279 0.0
C491 C 0.90488 0.36547 0.18644 0.0
C492 C 0.87363 0.35924 0.18141 0.0
C493 C 0.85137 0.37974 0.19264 0.0
C494 C 0.86076 0.40621 0.20907 0.0
C495 C 0.89116 0.41264 0.21425 0.0
C496 C 0.89524 0.44158 0.23459 0.0
C497 C 0.91168 0.43529 0.2685 0.0
C498 C 0.91202 0.4658 0.21353 0.0
C499 C 0.8624 0.45027 0.24036 0.0
C500 C 0.84284 0.42983 0.22509 0.0
C501 C 0.81139 0.43305 0.22725 0.0
C502 C 0.79966 0.45771 0.24574 0.0
C503 C 0.81936 0.47855 0.26216 0.0
C504 C 0.85111 0.47476 0.25915 0.0
H505 H 0.49884 0.13927 0.77806 0.0
H506 H 0.44669 0.21577 0.74001 0.0
H507 H 0.39941 0.19104 0.75951 0.0
H508 H 0.4491 0.08341 0.75049 0.0
H509 H 0.45422 0.0586 0.78659 0.0
H510 H 0.48422 0.08402 0.77414 0.0
H511 H 0.48506 0.10726 0.83486 0.0
H512 H 0.45515 0.08172 0.84763 0.0
H513 H 0.45048 0.12212 0.85296 0.0
H514 H 0.35774 0.15596 0.77791 0.0
H515 H 0.32455 0.11315 0.79386 0.0
H516 H 0.40395 0.05912 0.81903 0.0
C517 C 0.47757 0.15123 0.77459 0.0
C518 C 0.47646 0.17957 0.75774 0.0
C519 C 0.44809 0.19412 0.75302 0.0
C520 C 0.42112 0.18028 0.76406 0.0
C521 C 0.42297 0.15196 0.7798 0.0
C522 C 0.45048 0.13765 0.7852 0.0
C523 C 0.4461 0.10623 0.80016 0.0
C524 C 0.45918 0.08163 0.77642 0.0
C525 C 0.46002 0.10423 0.83604 0.0
C526 C 0.41178 0.10479 0.80152 0.0
C527 C 0.39889 0.13152 0.79004 0.0
C528 C 0.36756 0.13506 0.78734 0.0
C529 C 0.34891 0.11055 0.79637 0.0
C530 C 0.36164 0.08277 0.80777 0.0
C531 C 0.3935 0.08011 0.81072 0.0
H532 H 0.15226 0.49208 0.76897 0.0
H533 H 0.22905 0.44577 0.72289 0.0
H534 H 0.20512 0.39635 0.73548 0.0
H535 H 0.13702 0.43506 0.83652 0.0
H536 H 0.09648 0.4397 0.83277 0.0
H537 H 0.12141 0.47123 0.82399 0.0
H538 H 0.09704 0.47707 0.76419 0.0
H539 H 0.0723 0.44541 0.77259 0.0
H540 H 0.09653 0.44501 0.73556 0.0
H541 H 0.17066 0.35247 0.74741 0.0
H542 H 0.12887 0.31687 0.76 0.0
H543 H 0.0744 0.39171 0.79825 0.0
C544 C 0.16444 0.47156 0.76231 0.0
C545 C 0.19262 0.4728 0.7451 0.0
C546 C 0.20752 0.44539 0.73623 0.0
C547 C 0.19411 0.4172 0.74328 0.0
C548 C 0.1659 0.41681 0.75934 0.0
C549 C 0.15134 0.44324 0.76904 0.0
C550 C 0.12026 0.43663 0.78387 0.0
C551 C 0.11871 0.44622 0.82153 0.0
C552 C 0.09506 0.45194 0.76278 0.0
C553 C 0.11931 0.40241 0.78019 0.0
C554 C 0.14595 0.39142 0.76621 0.0
C555 C 0.14985 0.36074 0.75879 0.0
C556 C 0.12591 0.34073 0.76589 0.0
C557 C 0.09838 0.35149 0.78021 0.0
C558 C 0.09524 0.38274 0.78761 0.0
H559 H 0.33759 0.88449 0.23672 0.0
H560 H 0.30708 0.82884 0.15193 0.0
H561 H 0.34968 0.79338 0.16217 0.0
H562 H 0.41603 0.8775 0.22116 0.0
H563 H 0.42648 0.87616 0.26558 0.0
H564 H 0.39261 0.89593 0.25269 0.0
H565 H 0.36069 0.86312 0.29427 0.0
H566 H 0.39449 0.84321 0.30731 0.0
H567 H 0.36233 0.82229 0.29123 0.0
H568 H 0.39768 0.76569 0.17989 0.0
H569 H 0.44653 0.74797 0.2039 0.0
H570 H 0.44431 0.82172 0.2774 0.0
C571 C 0.33963 0.86471 0.22044 0.0
C572 C 0.31898 0.85942 0.19352 0.0
C573 C 0.32258 0.83331 0.17277 0.0
C574 C 0.34669 0.81304 0.17841 0.0
C575 C 0.36681 0.81912 0.20502 0.0
C576 C 0.36339 0.84426 0.22578 0.0
C577 C 0.38851 0.84628 0.25198 0.0
C578 C 0.407 0.8757 0.24757 0.0
C579 C 0.37573 0.84355 0.28835 0.0
C580 C 0.40695 0.81861 0.2424 0.0
C581 C 0.39407 0.80312 0.21536 0.0
C582 C 0.40781 0.77748 0.20128 0.0
C583 C 0.43556 0.76761 0.21506 0.0
C584 C 0.4492 0.78336 0.24261 0.0
C585 C 0.4344 0.80897 0.25655 0.0
H586 H 0.86716 0.52712 0.7302 0.0
H587 H 0.77292 0.54531 0.75558 0.0
H588 H 0.78825 0.5937 0.78271 0.0
H589 H 0.90009 0.55788 0.80688 0.0
H590 H 0.93254 0.57356 0.78507 0.0
H591 H 0.91404 0.54018 0.76849 0.0
H592 H 0.90641 0.56719 0.71039 0.0
H593 H 0.92483 0.60066 0.72681 0.0
H594 H 0.88716 0.6033 0.70906 0.0
H595 H 0.81426 0.64047 0.80673 0.0
H596 H 0.84858 0.68191 0.82492 0.0
H597 H 0.92532 0.63271 0.78267 0.0
C598 C 0.84969 0.54114 0.7416 0.0
C599 C 0.81883 0.53238 0.74085 0.0
C600 C 0.79671 0.55154 0.75588 0.0
C601 C 0.8052 0.57905 0.77136 0.0
C602 C 0.83586 0.58703 0.77149 0.0
C603 C 0.85773 0.56862 0.75696 0.0
C604 C 0.88905 0.58253 0.75987 0.0
C605 C 0.91016 0.56233 0.78137 0.0
C606 C 0.90265 0.58879 0.72442 0.0
C607 C 0.88143 0.61173 0.77827 0.0
C608 C 0.85068 0.61392 0.78489 0.0
C609 C 0.83838 0.63898 0.80167 0.0
C610 C 0.85805 0.66239 0.81191 0.0
C611 C 0.88963 0.6606 0.80518 0.0
C612 C 0.9013 0.63485 0.78815 0.0
H613 H 0.60463 0.10638 0.16388 0.0
H614 H 0.6717 0.13337 0.23922 0.0
H615 H 0.63434 0.16786 0.26559 0.0
H616 H 0.56642 0.18071 0.15608 0.0
H617 H 0.5293 0.16374 0.15239 0.0
H618 H 0.56224 0.14364 0.13707 0.0
H619 H 0.54835 0.09764 0.17523 0.0
H620 H 0.51543 0.11756 0.19064 0.0
H621 H 0.54316 0.10326 0.2204 0.0
H622 H 0.58901 0.19614 0.28652 0.0
H623 H 0.53817 0.21539 0.30159 0.0
H624 H 0.50018 0.1698 0.21308 0.0
C625 C 0.61162 0.11999 0.18551 0.0
C626 C 0.64111 0.11733 0.19939 0.0
C627 C 0.64923 0.13507 0.22814 0.0
C628 C 0.62822 0.15483 0.24321 0.0
C629 C 0.5992 0.15659 0.22924 0.0
C630 C 0.59084 0.13968 0.20105 0.0
C631 C 0.55754 0.14409 0.19266 0.0
C632 C 0.55366 0.15894 0.15746 0.0
C633 C 0.5401 0.11384 0.19488 0.0
C634 C 0.54837 0.16561 0.22099 0.0
C635 C 0.57283 0.17278 0.24156 0.0
C636 C 0.56972 0.19097 0.27041 0.0
C637 C 0.54074 0.20175 0.27878 0.0
C638 C 0.51521 0.1942 0.25846 0.0
C639 C 0.51928 0.17629 0.22889 0.0
H640 H 0.64199 0.03643 0.77376 0.0
H641 H 0.73442 0.04896 0.73791 0.0
H642 H 0.71907 0.09696 0.70983 0.0
H643 H 0.60379 0.0661 0.69963 0.0
H644 H 0.57435 0.08413 0.72434 0.0
H645 H 0.59264 0.05039 0.7402 0.0
H646 H 0.60688 0.07886 0.79587 0.0
H647 H 0.58871 0.11268 0.78011 0.0
H648 H 0.62791 0.11394 0.79333 0.0
H649 H 0.69306 0.1444 0.68637 0.0
H650 H 0.65909 0.18701 0.67061 0.0
H651 H 0.58467 0.14264 0.72347 0.0
C652 C 0.65903 0.04906 0.75976 0.0
C653 C 0.68938 0.03887 0.75787 0.0
C654 C 0.711 0.05632 0.73962 0.0
C655 C 0.70249 0.08358 0.72359 0.0
C656 C 0.67235 0.09305 0.72622 0.0
C657 C 0.65101 0.07627 0.74392 0.0
C658 C 0.62033 0.09164 0.74398 0.0
C659 C 0.59637 0.07189 0.72595 0.0
C660 C 0.61039 0.09976 0.78049 0.0
C661 C 0.62765 0.11977 0.72352 0.0
C662 C 0.65768 0.12024 0.71333 0.0
C663 C 0.66949 0.14422 0.69421 0.0
C664 C 0.65005 0.16831 0.68538 0.0
C665 C 0.61925 0.16822 0.69584 0.0
C666 C 0.6081 0.14352 0.7151 0.0
H667 H 0.10997 0.40882 0.32138 0.0
H668 H 0.17896 0.38343 0.24754 0.0
H669 H 0.1428 0.34805 0.2204 0.0
H670 H 0.07466 0.33403 0.32944 0.0
H671 H 0.0368 0.34936 0.33249 0.0
H672 H 0.06871 0.37116 0.34769 0.0
H673 H 0.05318 0.41591 0.30846 0.0
H674 H 0.02121 0.39432 0.29325 0.0
H675 H 0.04846 0.40934 0.26338 0.0
H676 H 0.09879 0.31733 0.19974 0.0
H677 H 0.04915 0.29486 0.18529 0.0
H678 H 0.00848 0.34061 0.27217 0.0
C679 C 0.1176 0.39557 0.29974 0.0
C680 C 0.14733 0.39879 0.28666 0.0
C681 C 0.15629 0.38134 0.25801 0.0
C682 C 0.13597 0.36108 0.24251 0.0
C683 C 0.10679 0.35857 0.25594 0.0
C684 C 0.09755 0.37539 0.28383 0.0
C685 C 0.06443 0.36964 0.29206 0.0
C686 C 0.06096 0.35518 0.32753 0.0
C687 C 0.04573 0.39905 0.28909 0.0
C688 C 0.05638 0.34731 0.2641 0.0
C689 C 0.08123 0.34102 0.24378 0.0
C690 C 0.0792 0.32191 0.21559 0.0
C691 C 0.05088 0.30926 0.2076 0.0
C692 C 0.02491 0.31592 0.22763 0.0
C693 C 0.02792 0.33484 0.25655 0.0
H694 H 0.3641 0.97976 0.72244 0.0
H695 H 0.2965 0.92922 0.77974 0.0
H696 H 0.32177 0.88125 0.76384 0.0
H697 H 0.37407 0.92387 0.65337 0.0
H698 H 0.41437 0.93068 0.6506 0.0
H699 H 0.38923 0.96079 0.66371 0.0
H700 H 0.4206 0.96779 0.7191 0.0
H701 H 0.44567 0.93759 0.70631 0.0
H702 H 0.42652 0.93571 0.74688 0.0
H703 H 0.3564 0.83922 0.74546 0.0
H704 H 0.39757 0.80587 0.72503 0.0
H705 H 0.4429 0.88385 0.68013 0.0
C706 C 0.35423 0.95858 0.73109 0.0
C707 C 0.32823 0.95824 0.7522 0.0
C708 C 0.31634 0.93005 0.76345 0.0
C709 C 0.33052 0.90267 0.75453 0.0
C710 C 0.35649 0.90387 0.73431 0.0
C711 C 0.36816 0.93106 0.72256 0.0
C712 C 0.39731 0.92619 0.70279 0.0
C713 C 0.3935 0.93596 0.6654 0.0
C714 C 0.4241 0.9428 0.7198 0.0
C715 C 0.40052 0.89207 0.70584 0.0
C716 C 0.37661 0.87961 0.72389 0.0
C717 C 0.37509 0.84866 0.731 0.0
C718 C 0.39864 0.82993 0.71936 0.0
C719 C 0.42345 0.84223 0.70091 0.0
C720 C 0.4242 0.87371 0.69399 0.0
H721 H 0.84059 0.60859 0.22811 0.0
H722 H 0.83054 0.61838 0.3377 0.0
H723 H 0.87299 0.65511 0.33839 0.0
H724 H 0.91992 0.60946 0.22657 0.0
H725 H 0.92294 0.63058 0.18735 0.0
H726 H 0.89007 0.60734 0.19518 0.0
H727 H 0.8551 0.65396 0.18568 0.0
H728 H 0.88793 0.67738 0.17779 0.0
H729 H 0.86112 0.68795 0.21044 0.0
H730 H 0.91951 0.68744 0.32759 0.0
H731 H 0.96582 0.71283 0.30603 0.0
H732 H 0.94426 0.68221 0.20358 0.0
C733 C 0.84698 0.61875 0.25222 0.0
C734 C 0.8322 0.61064 0.28283 0.0
C735 C 0.84146 0.62433 0.31387 0.0
C736 C 0.86552 0.64525 0.31453 0.0
C737 C 0.87989 0.65242 0.28391 0.0
C738 C 0.87082 0.6397 0.25331 0.0
C739 C 0.8909 0.64994 0.22422 0.0
C740 C 0.9069 0.62271 0.20736 0.0
C741 C 0.87267 0.66841 0.19799 0.0
C742 C 0.91315 0.66983 0.24333 0.0
C743 C 0.90636 0.67119 0.27768 0.0
C744 C 0.92482 0.68686 0.30065 0.0
C745 C 0.95108 0.70118 0.28819 0.0
C746 C 0.95861 0.69966 0.25311 0.0
C747 C 0.93902 0.68415 0.23047 0.0
H748 H 0.62373 0.98249 0.22052 0.0
H749 H 0.71954 0.96293 0.23499 0.0
H750 H 0.7065 0.91104 0.25408 0.0
H751 H 0.59639 0.9411 0.2931 0.0
H752 H 0.56267 0.92785 0.27166 0.0
H753 H 0.57971 0.96339 0.25939 0.0
H754 H 0.58355 0.94445 0.19693 0.0
H755 H 0.56662 0.9088 0.20903 0.0
H756 H 0.60298 0.90931 0.18793 0.0
H757 H 0.68275 0.8613 0.27185 0.0
H758 H 0.65018 0.81766 0.28713 0.0
H759 H 0.57019 0.87004 0.25999 0.0
C760 C 0.64202 0.96738 0.22779 0.0
C761 C 0.67267 0.97678 0.22633 0.0
C762 C 0.69589 0.95622 0.23593 0.0
C763 C 0.68871 0.9267 0.24678 0.0
C764 C 0.65825 0.91814 0.24775 0.0
C765 C 0.63529 0.93789 0.23851 0.0
C766 C 0.60438 0.92313 0.24168 0.0
C767 C 0.58464 0.93986 0.26803 0.0
C768 C 0.58846 0.92132 0.20681 0.0
C769 C 0.6135 0.89198 0.25425 0.0
C770 C 0.64465 0.88952 0.25762 0.0
C771 C 0.65834 0.86294 0.26925 0.0
C772 C 0.63964 0.83829 0.27785 0.0
C773 C 0.60765 0.84041 0.27469 0.0
C774 C 0.59456 0.86762 0.26254 0.0
H775 H 0.88467 0.4191 0.66023 0.0
H776 H 0.81456 0.37011 0.71521 0.0
H777 H 0.85149 0.3299 0.72944 0.0
H778 H 0.92661 0.35218 0.62776 0.0
H779 H 0.96306 0.36993 0.63425 0.0
H780 H 0.93028 0.39286 0.62447 0.0
H781 H 0.93951 0.42476 0.67908 0.0
H782 H 0.97228 0.40202 0.68895 0.0
H783 H 0.94212 0.40582 0.71974 0.0
H784 H 0.89641 0.29727 0.74145 0.0
H785 H 0.947 0.27606 0.7538 0.0
H786 H 0.98853 0.34694 0.69248 0.0
C787 C 0.87698 0.39957 0.67463 0.0
C788 C 0.84674 0.39752 0.6864 0.0
C789 C 0.83764 0.37204 0.70592 0.0
C790 C 0.85839 0.34902 0.71393 0.0
C791 C 0.88816 0.35189 0.70234 0.0
C792 C 0.89752 0.37657 0.68325 0.0
C793 C 0.93143 0.37562 0.67683 0.0
C794 C 0.93823 0.37245 0.63855 0.0
C795 C 0.94726 0.40371 0.69207 0.0
C796 C 0.93976 0.34696 0.69601 0.0
C797 C 0.91437 0.33335 0.71001 0.0
C798 C 0.91645 0.30752 0.73033 0.0
C799 C 0.94532 0.29565 0.7372 0.0
C800 C 0.97176 0.3098 0.72407 0.0
C801 C 0.96877 0.3354 0.7026 0.0
H802 H 0.42611 0.10063 0.29105 0.0
H803 H 0.35559 0.1695 0.28899 0.0
H804 H 0.31827 0.13076 0.27097 0.0
H805 H 0.40121 0.06082 0.21662 0.0
H806 H 0.41087 0.02388 0.23316 0.0
H807 H 0.43163 0.05687 0.24708 0.0
H808 H 0.41891 0.04388 0.30995 0.0
H809 H 0.39798 0.01091 0.2962 0.0
H810 H 0.3798 0.03914 0.32251 0.0
H811 H 0.28859 0.08429 0.25337 0.0
H812 H 0.26964 0.03436 0.23382 0.0
H813 H 0.36007 0.99657 0.24595 0.0
C814 C 0.4028 0.10757 0.28695 0.0
C815 C 0.39372 0.13805 0.29157 0.0
C816 C 0.36306 0.14626 0.28559 0.0
C817 C 0.34167 0.12441 0.27548 0.0
C818 C 0.35136 0.09452 0.27128 0.0
C819 C 0.38125 0.08614 0.27658 0.0
C820 C 0.38607 0.05276 0.26916 0.0
C821 C 0.40878 0.04834 0.23975 0.0
C822 C 0.39629 0.03567 0.30138 0.0
C823 C 0.35425 0.04368 0.25872 0.0
C824 C 0.33448 0.06799 0.26042 0.0
C825 C 0.30387 0.06508 0.25192 0.0
C826 C 0.2933 0.03662 0.24094 0.0
C827 C 0.31338 0.0116 0.23829 0.0
C828 C 0.34416 0.01526 0.24762 0.0
H829 H 0.1201 0.57833 0.67347 0.0
H830 H 0.19506 0.62638 0.72117 0.0
H831 H 0.15915 0.66452 0.74365 0.0
H832 H 0.07446 0.64569 0.65137 0.0
H833 H 0.03917 0.62678 0.66107 0.0
H834 H 0.07113 0.60518 0.64571 0.0
H835 H 0.06784 0.57025 0.69879 0.0
H836 H 0.03595 0.59172 0.71429 0.0
H837 H 0.06907 0.58692 0.74077 0.0
H838 H 0.11467 0.69481 0.76502 0.0
H839 H 0.06502 0.71443 0.78432 0.0
H840 H 0.01934 0.64647 0.72252 0.0
C841 C 0.12908 0.59717 0.68809 0.0
C842 C 0.16041 0.59945 0.69543 0.0
C843 C 0.17115 0.62421 0.71514 0.0
C844 C 0.15094 0.64605 0.72793 0.0
C845 C 0.12012 0.64285 0.72067 0.0
C846 C 0.10925 0.61907 0.70113 0.0
C847 C 0.07493 0.61959 0.69901 0.0
C848 C 0.0643 0.62462 0.66209 0.0
C849 C 0.06115 0.5904 0.71412 0.0
C850 C 0.06813 0.64696 0.72107 0.0
C851 C 0.09449 0.66026 0.73305 0.0
C852 C 0.09388 0.68483 0.75546 0.0
C853 C 0.06557 0.69578 0.7663 0.0
C854 C 0.03828 0.68208 0.75482 0.0
C855 C 0.03974 0.6577 0.73144 0.0
H856 H 0.24281 0.53531 0.56963 0.0
H857 H 0.18284 0.46091 0.59727 0.0
H858 H 0.17903 0.44617 0.53676 0.0
H859 H 0.20487 0.55497 0.49085 0.0
H860 H 0.23966 0.56366 0.46867 0.0
H861 H 0.23739 0.5687 0.51419 0.0
H862 H 0.28411 0.5336 0.52213 0.0
H863 H 0.28651 0.52843 0.47666 0.0
H864 H 0.2835 0.49586 0.50428 0.0
H865 H 0.1825 0.43876 0.47374 0.0
H866 H 0.19249 0.43954 0.4119 0.0
H867 H 0.2499 0.51899 0.42498 0.0
C868 C 0.22881 0.51597 0.56297 0.0
C869 C 0.21313 0.49925 0.58821 0.0
C870 C 0.19505 0.47408 0.57841 0.0
C871 C 0.19273 0.46551 0.5441 0.0
C872 C 0.20855 0.48239 0.51991 0.0
C873 C 0.22618 0.50713 0.52883 0.0
C874 C 0.24102 0.52125 0.4978 0.0
C875 C 0.23007 0.55409 0.49258 0.0
C876 C 0.27585 0.51967 0.50038 0.0
C877 C 0.22911 0.50045 0.47008 0.0
C878 C 0.21042 0.47821 0.48342 0.0
C879 C 0.19702 0.45611 0.46295 0.0
C880 C 0.20289 0.45673 0.42786 0.0
C881 C 0.22197 0.47934 0.41358 0.0
C882 C 0.23514 0.50149 0.43508 0.0
H883 H 0.47857 0.75495 0.4222 0.0
H884 H 0.55935 0.80859 0.40155 0.0
H885 H 0.56619 0.81716 0.46314 0.0
H886 H 0.45101 0.8002 0.49233 0.0
H887 H 0.43769 0.76802 0.51648 0.0
H888 H 0.43883 0.76621 0.47061 0.0
H889 H 0.47213 0.71777 0.47387 0.0
H890 H 0.47108 0.71942 0.51975 0.0
H891 H 0.50706 0.71864 0.49785 0.0
H892 H 0.56439 0.82019 0.52659 0.0
H893 H 0.55465 0.81654 0.58834 0.0
H894 H 0.47543 0.76043 0.56825 0.0
C895 C 0.49766 0.76854 0.43061 0.0
C896 C 0.51839 0.78113 0.407 0.0
C897 C 0.54316 0.79868 0.4191 0.0
C898 C 0.54724 0.80373 0.45406 0.0
C899 C 0.52643 0.79102 0.47662 0.0
C900 C 0.50217 0.77373 0.46549 0.0
C901 C 0.48335 0.7624 0.49523 0.0
C902 C 0.4508 0.77497 0.49355 0.0
C903 C 0.48343 0.72748 0.49676 0.0
C904 C 0.50086 0.77604 0.52477 0.0
C905 C 0.52556 0.79253 0.51342 0.0
C906 C 0.54514 0.80732 0.53584 0.0
C907 C 0.53938 0.80512 0.57088 0.0
C908 C 0.51431 0.78817 0.58317 0.0
C909 C 0.49482 0.77351 0.55969 0.0
H910 H 0.80911 0.55516 0.44207 0.0
H911 H 0.73845 0.49477 0.40482 0.0
H912 H 0.73058 0.47553 0.46324 0.0
H913 H 0.84059 0.50361 0.50396 0.0
H914 H 0.84815 0.53297 0.53487 0.0
H915 H 0.84833 0.54187 0.49005 0.0
H916 H 0.80816 0.58391 0.50032 0.0
H917 H 0.80779 0.57508 0.54515 0.0
H918 H 0.7729 0.57436 0.5211 0.0
H919 H 0.73026 0.46296 0.52559 0.0
H920 H 0.7378 0.45759 0.58764 0.0
H921 H 0.80847 0.52642 0.58423 0.0
C922 C 0.79202 0.53784 0.44614 0.0
C923 C 0.7744 0.52647 0.41884 0.0
C924 C 0.75224 0.50384 0.42531 0.0
C925 C 0.74757 0.49277 0.45841 0.0
C926 C 0.76524 0.50457 0.48473 0.0
C927 C 0.78704 0.52656 0.479 0.0
C928 C 0.80292 0.53547 0.51178 0.0
C929 C 0.83702 0.52802 0.51005 0.0
C930 C 0.79761 0.56921 0.52007 0.0
C931 C 0.78661 0.51504 0.53684 0.0
C932 C 0.76498 0.49739 0.52072 0.0
C933 C 0.74713 0.47666 0.53852 0.0
C934 C 0.75159 0.47379 0.57376 0.0
C935 C 0.77371 0.49159 0.59082 0.0
C936 C 0.79132 0.51254 0.572 0.0
H937 H 0.50308 0.24726 0.43561 0.0
H938 H 0.42751 0.18463 0.42418 0.0
H939 H 0.43095 0.17174 0.48527 0.0
H940 H 0.54599 0.20253 0.49501 0.0
H941 H 0.55867 0.23475 0.51957 0.0
H942 H 0.55035 0.23908 0.47487 0.0
H943 H 0.51221 0.28215 0.48886 0.0
H944 H 0.52047 0.27801 0.5336 0.0
H945 H 0.48185 0.27507 0.51867 0.0
H946 H 0.44315 0.1649 0.54723 0.0
H947 H 0.46189 0.16624 0.60653 0.0
H948 H 0.52876 0.23414 0.57786 0.0
C949 C 0.48724 0.23084 0.44594 0.0
C950 C 0.46506 0.21692 0.42509 0.0
C951 C 0.44466 0.19564 0.43965 0.0
C952 C 0.44647 0.18811 0.47431 0.0
C953 C 0.46868 0.20215 0.49409 0.0
C954 C 0.48859 0.22319 0.48052 0.0
C955 C 0.5101 0.23526 0.50746 0.0
C956 C 0.54324 0.22742 0.4987 0.0
C957 C 0.50589 0.26966 0.51244 0.0
C958 C 0.49919 0.21765 0.53827 0.0
C959 C 0.47538 0.19858 0.52997 0.0
C960 C 0.46172 0.17981 0.55409 0.0
C961 C 0.47257 0.1807 0.58769 0.0
C962 C 0.49673 0.20034 0.59687 0.0
C963 C 0.51018 0.21897 0.5717 0.0
H964 H 0.66604 0.01434 0.0715 0.0
H965 H 0.75633 0.05198 0.08591 0.0
H966 H 0.76713 0.04444 0.02474 0.0
H967 H 0.68632 0.95714 0.0115 0.0
H968 H 0.65249 0.96132 0.98605 0.0
H969 H 0.65155 0.97019 0.03086 0.0
H970 H 0.63174 0.02424 0.01711 0.0
H971 H 0.63253 0.01551 0.97223 0.0
H972 H 0.65287 0.04808 0.98823 0.0
H973 H 0.76926 0.03 0.96307 0.0
H974 H 0.76136 0.01285 0.90379 0.0
H975 H 0.66881 0.98703 0.92864 0.0
C976 C 0.68804 0.02111 0.06176 0.0
C977 C 0.71039 0.03366 0.08347 0.0
C978 C 0.73884 0.04238 0.06973 0.0
C979 C 0.74522 0.03814 0.03504 0.0
C980 C 0.72278 0.02548 0.0144 0.0
C981 C 0.69466 0.01739 0.02712 0.0
C982 C 0.67452 0.00434 -0.0006 0.0
C983 C 0.66572 0.97129 0.00744 0.0
C984 C 0.64625 0.02424 0.99392 0.0
C985 C 0.69586 0.00607 0.96919 0.0
C986 C 0.72364 0.01815 0.97848 0.0
C987 C 0.7475 0.02081 0.95538 0.0
C988 C 0.74283 0.01091 0.92183 0.0
C989 C 0.71442 0.99884 0.91163 0.0
C990 C 0.69063 0.99656 0.93563 0.0
H991 H 0.97593 0.32122 0.89025 0.0
H992 H 0.03463 0.24192 0.89083 0.0
H993 H 0.02504 0.2352 0.95224 0.0
H994 H 0.99943 0.34987 0.97189 0.0
H995 H 0.96216 0.36316 0.98367 0.0
H996 H 0.97287 0.3614 0.93939 0.0
H997 H 0.92599 0.32764 0.92664 0.0
H998 H 0.91515 0.32926 0.9709 0.0
H999 H 0.92052 0.29301 0.95039 0.0
H1000 H 0.00945 0.23685 0.01306 0.0
H1001 H 0.99011 0.24774 0.07064 0.0
H1002 H 0.94211 0.32662 0.03153 0.0
C1003 C 0.98666 0.30238 0.90327 0.0
C1004 C 0.00597 0.28204 0.88571 0.0
C1005 C 0.01979 0.25782 0.90373 0.0
C1006 C 0.01443 0.25375 0.9386 0.0
C1007 C 0.99533 0.27417 0.95514 0.0
C1008 C 0.98174 0.29808 0.93821 0.0
C1009 C 0.96279 0.31716 0.96237 0.0
C1010 C 0.97506 0.34983 0.96445 0.0
C1011 C 0.92911 0.31672 0.95195 0.0
C1012 C 0.96788 0.30017 0.99547 0.0
C1013 C 0.98662 0.27538 0.99061 0.0
C1014 C 0.99476 0.2562 0.01725 0.0
C1015 C 0.98361 0.2626 0.04988 0.0
C1016 C 0.96459 0.28807 0.05566 0.0
C1017 C 0.95658 0.30699 0.02797 0.0
H1018 H 0.33038 0.97271 0.92998 0.0
H1019 H 0.24094 0.0118 0.91387 0.0
H1020 H 0.22815 0.00218 0.97408 0.0
H1021 H 0.30722 0.91358 0.98812 0.0
H1022 H 0.34053 0.91695 0.0146 0.0
H1023 H 0.34262 0.92634 0.96995 0.0
H1024 H 0.36303 0.97988 0.9852 0.0
H1025 H 0.36103 0.97065 0.02988 0.0
H1026 H 0.3416 0.00371 0.01381 0.0
H1027 H 0.22475 0.98817 0.03556 0.0
H1028 H 0.23163 0.97232 0.09532 0.0
H1029 H 0.32371 0.94345 0.07224 0.0
C1030 C 0.30806 0.97914 0.93908 0.0
C1031 C 0.28662 0.99291 0.91718 0.0
C1032 C 0.25776 0.00122 0.93016 0.0
C1033 C 0.25023 0.99581 0.96431 0.0
C1034 C 0.27186 0.98222 0.98521 0.0
C1035 C 0.30024 0.97411 0.97321 0.0
C1036 C 0.3195 0.96044 0.00131 0.0
C1037 C 0.32796 0.92736 0.99299 0.0
C1038 C 0.34797 0.97984 0.00794 0.0
C1039 C 0.29748 0.96213 0.03092 0.0
C1040 C 0.2701 0.97463 0.02098 0.0
C1041 C 0.2461 0.9784 0.0437 0.0
C1042 C 0.25024 0.96927 0.07758 0.0
C1043 C 0.27823 0.95669 0.08849 0.0
C1044 C 0.30209 0.95307 0.06473 0.0
H1045 H 0.99151 0.72631 0.93217 0.0
H1046 H 0.99498 0.62945 0.91138 0.0
H1047 H 0.00723 0.6197 0.97177 0.0
H1048 H 0.05379 0.7278 0.99211 0.0
H1049 H 0.03631 0.75584 0.01927 0.0
H1050 H 0.02795 0.75531 0.9743 0.0
H1051 H 0.97044 0.7512 0.98765 0.0
H1052 H 0.97862 0.75176 0.03264 0.0
H1053 H 0.95698 0.7209 0.01464 0.0
H1054 H 0.01802 0.62028 0.03442 0.0
H1055 H 0.02714 0.6312 0.09526 0.0
H1056 H 0.01756 0.72774 0.07522 0.0
C1057 C 0.99487 0.70304 0.94029 0.0
C1058 C 0.99227 0.67863 0.91703 0.0
C1059 C 0.99688 0.64853 0.92869 0.0
C1060 C 0.00386 0.64274 0.96295 0.0
C1061 C 0.00626 0.6673 0.98518 0.0
C1062 C 0.00199 0.69685 0.97436 0.0
C1063 C 0.00579 0.71913 0.00351 0.0
C1064 C 0.03256 0.74079 0.9969 0.0
C1065 C 0.97619 0.73678 0.00999 0.0
C1066 C 0.01269 0.69744 0.03245 0.0
C1067 C 0.01283 0.66766 0.02131 0.0
C1068 C 0.01808 0.64351 0.04345 0.0
C1069 C 0.02321 0.64996 0.07797 0.0
C1070 C 0.02314 0.68031 0.09 0.0
C1071 C 0.01796 0.70431 0.06679 0.0
loop_
_geom_bond_atom_site_label_1
_geom_bond_atom_site_label_2
_geom_bond_distance
_geom_bond_site_symmetry_2
_ccdc_geom_bond_type
C0 O1 1.160 . S
C0 O7 1.185 . S
O1 C0 1.160 . S
O2 Zn3 1.899 . S
O2 C10 1.284 . S
Zn3 O2 1.899 . S
Zn3 O4 2.032 . S
Zn3 O7 2.086 . S
Zn3 O12 1.977 . S
O4 Zn3 2.032 . S
O4 C8 1.278 . S
C5 O6 1.203 . S
C5 O12 1.267 . S
O6 C5 1.203 . S
O7 C0 1.185 . S
O7 Zn3 2.086 . S
C8 O4 1.278 . S
C8 O9 1.211 . S
O9 C8 1.211 . S
C10 O2 1.284 . S
C10 O11 1.273 . S
O11 C10 1.273 . S
O12 Zn3 1.977 . S
O12 C5 1.267 . S
C13 O14 1.160 . S
C13 O20 1.185 . S
O14 C13 1.160 . S
O15 Zn16 1.899 . S
O15 C23 1.284 . S
Zn16 O15 1.899 . S
Zn16 O17 2.032 . S
Zn16 O20 2.086 . S
Zn16 O25 1.977 . S
O17 Zn16 2.032 . S
O17 C21 1.278 . S
C18 O19 1.203 . S
C18 O25 1.267 . S
O19 C18 1.203 . S
O20 C13 1.185 . S
O20 Zn16 2.086 . S
C21 O17 1.278 . S
C21 O22 1.211 . S
O22 C21 1.211 . S
C23 O15 1.284 . S
C23 O24 1.273 . S
O24 C23 1.273 . S
O25 Zn16 1.977 . S
O25 C18 1.267 . S
C26 O27 1.160 . S
C26 O33 1.185 . S
O27 C26 1.160 . S
O28 Zn29 1.899 . S
O28 C36 1.284 . S
Zn29 O28 1.899 . S
Zn29 O30 2.032 . S
Zn29 O33 2.086 . S
Zn29 O38 1.977 . S
O30 Zn29 2.032 . S
O30 C34 1.278 . S
C31 O32 1.203 . S
C31 O38 1.267 . S
O32 C31 1.203 . S
O33 C26 1.185 . S
O33 Zn29 2.086 . S
C34 O30 1.278 . S
C34 O35 1.211 . S
O35 C34 1.211 . S
C36 O28 1.284 . S
C36 O37 1.273 . S
O37 C36 1.273 . S
O38 Zn29 1.977 . S
O38 C31 1.267 . S
C39 O40 1.160 . S
C39 O46 1.185 . S
O40 C39 1.160 . S
O41 Zn42 1.899 . S
O41 C49 1.284 . S
Zn42 O41 1.899 . S
Zn42 O43 2.032 . S
Zn42 O46 2.086 . S
Zn42 O51 1.977 . S
O43 Zn42 2.032 . S
O43 C47 1.278 . S
C44 O45 1.203 . S
C44 O51 1.267 . S
O45 C44 1.203 . S
O46 C39 1.185 . S
O46 Zn42 2.086 . S
C47 O43 1.278 . S
C47 O48 1.211 . S
O48 C47 1.211 . S
C49 O41 1.284 . S
C49 O50 1.273 . S
O50 C49 1.273 . S
O51 Zn42 1.977 . S
O51 C44 1.267 . S
C52 O53 1.160 . S
C52 O59 1.185 . S
O53 C52 1.160 . S
O54 Zn55 1.899 . S
O54 C62 1.284 . S
Zn55 O54 1.899 . S
Zn55 O56 2.032 . S
Zn55 O59 2.086 . S
Zn55 O64 1.977 . S
O56 Zn55 2.032 . S
O56 C60 1.278 . S
C57 O58 1.203 . S
C57 O64 1.267 . S
O58 C57 1.203 . S
O59 C52 1.185 . S
O59 Zn55 2.086 . S
C60 O56 1.278 . S
C60 O61 1.211 . S
O61 C60 1.211 . S
C62 O54 1.284 . S
C62 O63 1.273 . S
O63 C62 1.273 . S
O64 Zn55 1.977 . S
O64 C57 1.267 . S
C65 O66 1.160 . S
C65 O72 1.185 . S
O66 C65 1.160 . S
O67 Zn68 1.899 . S
O67 C75 1.284 . S
Zn68 O67 1.899 . S
Zn68 O69 2.032 . S
Zn68 O72 2.086 . S
Zn68 O77 1.977 . S
O69 Zn68 2.032 . S
O69 C73 1.278 . S
C70 O71 1.203 . S
C70 O77 1.267 . S
O71 C70 1.203 . S
O72 C65 1.185 . S
O72 Zn68 2.086 . S
C73 O69 1.278 . S
C73 O74 1.211 . S
O74 C73 1.211 . S
C75 O67 1.284 . S
C75 O76 1.273 . S
O76 C75 1.273 . S
O77 Zn68 1.977 . S
O77 C70 1.267 . S
C78 O79 1.160 . S
C78 O85 1.185 . S
O79 C78 1.160 . S
O80 Zn81 1.899 . S
O80 C88 1.284 . S
Zn81 O80 1.899 . S
Zn81 O82 2.032 . S
Zn81 O85 2.086 . S
Zn81 O90 1.977 . S
O82 Zn81 2.032 . S
O82 C86 1.278 . S
C83 O84 1.203 . S
C83 O90 1.267 . S
O84 C83 1.203 . S
O85 C78 1.185 . S
O85 Zn81 2.086 . S
C86 O82 1.278 . S
C86 O87 1.211 . S
O87 C86 1.211 . S
C88 O80 1.284 . S
C88 O89 1.273 . S
O89 C88 1.273 . S
O90 Zn81 1.977 . S
O90 C83 1.267 . S
C91 O92 1.160 . S
C91 O98 1.185 . S
O92 C91 1.160 . S
O93 Zn94 1.899 . S
O93 C101 1.284 . S
Zn94 O93 1.899 . S
Zn94 O95 2.032 . S
Zn94 O98 2.086 . S
Zn94 O103 1.977 . S
O95 Zn94 2.032 . S
O95 C99 1.278 . S
C96 O97 1.203 . S
C96 O103 1.267 . S
O97 C96 1.203 . S
O98 C91 1.185 . S
O98 Zn94 2.086 . S
C99 O95 1.278 . S
C99 O100 1.211 . S
O100 C99 1.211 . S
C101 O93 1.284 . S
C101 O102 1.273 . S
O102 C101 1.273 . S
O103 Zn94 1.977 . S
O103 C96 1.267 . S
C104 O105 1.160 . S
C104 O111 1.185 . S
O105 C104 1.160 . S
O106 Zn107 1.899 . S
O106 C114 1.284 . S
Zn107 O106 1.899 . S
Zn107 O108 2.032 . S
Zn107 O111 2.086 . S
Zn107 O116 1.977 . S
O108 Zn107 2.032 . S
O108 C112 1.278 . S
C109 O110 1.203 1_545 S
C109 O116 1.267 1_545 S
O110 C109 1.203 1_565 S
O111 C104 1.185 . S
O111 Zn107 2.086 . S
C112 O108 1.278 . S
C112 O113 1.211 . S
O113 C112 1.211 . S
C114 O106 1.284 . S
C114 O115 1.273 . S
O115 C114 1.273 . S
O116 Zn107 1.977 . S
O116 C109 1.267 1_565 S
C117 O118 1.160 . S
C117 O124 1.185 . S
O118 C117 1.160 . S
O119 Zn120 1.899 . S
O119 C127 1.284 . S
Zn120 O119 1.899 . S
Zn120 O121 2.032 . S
Zn120 O124 2.086 . S
Zn120 O129 1.977 . S
O121 Zn120 2.032 . S
O121 C125 1.278 . S
C122 O123 1.203 1_455 S
C122 O129 1.267 1_455 S
O123 C122 1.203 1_655 S
O124 C117 1.185 . S
O124 Zn120 2.086 . S
C125 O121 1.278 . S
C125 O126 1.211 . S
O126 C125 1.211 . S
C127 O119 1.284 . S
C127 O128 1.273 . S
O128 C127 1.273 . S
O129 Zn120 1.977 . S
O129 C122 1.267 1_655 S
C130 O131 1.160 . S
C130 O137 1.185 . S
O131 C130 1.160 . S
O132 Zn133 1.899 . S
O132 C140 1.284 . S
Zn133 O132 1.899 . S
Zn133 O134 2.032 . S
Zn133 O137 2.086 . S
Zn133 O142 1.977 . S
O134 Zn133 2.032 . S
O134 C138 1.278 . S
C135 O136 1.203 1_565 S
C135 O142 1.267 1_565 S
O136 C135 1.203 1_545 S
O137 C130 1.185 . S
O137 Zn133 2.086 . S
C138 O134 1.278 . S
C138 O139 1.211 . S
O139 C138 1.211 . S
C140 O132 1.284 . S
C140 O141 1.273 . S
O141 C140 1.273 . S
O142 Zn133 1.977 . S
O142 C135 1.267 1_545 S
C143 O144 1.160 . S
C143 O150 1.185 . S
O144 C143 1.160 . S
O145 Zn146 1.899 . S
O145 C153 1.284 . S
Zn146 O145 1.899 . S
Zn146 O147 2.032 . S
Zn146 O150 2.086 . S
Zn146 O155 1.977 . S
O147 Zn146 2.032 . S
O147 C151 1.278 . S
C148 O149 1.203 1_655 S
C148 O155 1.267 1_655 S
O149 C148 1.203 1_455 S
O150 C143 1.185 . S
O150 Zn146 2.086 . S
C151 O147 1.278 . S
C151 O152 1.211 . S
O152 C151 1.211 . S
C153 O145 1.284 . S
C153 O154 1.273 . S
O154 C153 1.273 . S
O155 Zn146 1.977 . S
O155 C148 1.267 1_455 S
C156 O157 1.160 . S
C156 O163 1.185 . S
O157 C156 1.160 . S
O158 Zn159 1.899 . S
O158 C166 1.284 . S
Zn159 O158 1.899 . S
Zn159 O160 2.032 . S
Zn159 O163 2.086 . S
Zn159 O168 1.977 . S
O160 Zn159 2.032 . S
O160 C164 1.278 . S
C161 O162 1.203 1_565 S
C161 O168 1.267 1_565 S
O162 C161 1.203 1_545 S
O163 C156 1.185 . S
O163 Zn159 2.086 . S
C164 O160 1.278 . S
C164 O165 1.211 . S
O165 C164 1.211 . S
C166 O158 1.284 . S
C166 O167 1.273 . S
O167 C166 1.273 . S
O168 Zn159 1.977 . S
O168 C161 1.267 1_545 S
C169 O170 1.160 . S
C169 O176 1.185 . S
O170 C169 1.160 . S
O171 Zn172 1.899 . S
O171 C179 1.284 . S
Zn172 O171 1.899 . S
Zn172 O173 2.032 . S
Zn172 O176 2.086 . S
Zn172 O181 1.977 . S
O173 Zn172 2.032 . S
O173 C177 1.278 . S
C174 O175 1.203 1_655 S
C174 O181 1.267 1_655 S
O175 C174 1.203 1_455 S
O176 C169 1.185 . S
O176 Zn172 2.086 . S
C177 O173 1.278 . S
C177 O178 1.211 . S
O178 C177 1.211 . S
C179 O171 1.284 . S
C179 O180 1.273 . S
O180 C179 1.273 . S
O181 Zn172 1.977 . S
O181 C174 1.267 1_455 S
C182 O183 1.160 . S
C182 O189 1.185 . S
O183 C182 1.160 . S
O184 Zn185 1.899 . S
O184 C192 1.284 . S
Zn185 O184 1.899 . S
Zn185 O186 2.032 . S
Zn185 O189 2.086 . S
Zn185 O194 1.977 . S
O186 Zn185 2.032 . S
O186 C190 1.278 . S
C187 O188 1.203 1_545 S
C187 O194 1.267 1_545 S
O188 C187 1.203 1_565 S
O189 C182 1.185 . S
O189 Zn185 2.086 . S
C190 O186 1.278 . S
C190 O191 1.211 . S
O191 C190 1.211 . S
C192 O184 1.284 . S
C192 O193 1.273 . S
O193 C192 1.273 . S
O194 Zn185 1.977 . S
O194 C187 1.267 1_565 S
C195 O196 1.160 . S
C195 O202 1.185 . S
O196 C195 1.160 . S
O197 Zn198 1.899 . S
O197 C205 1.284 . S
Zn198 O197 1.899 . S
Zn198 O199 2.032 . S
Zn198 O202 2.086 . S
Zn198 O207 1.977 . S
O199 Zn198 2.032 . S
O199 C203 1.278 . S
C200 O201 1.203 1_455 S
C200 O207 1.267 1_455 S
O201 C200 1.203 1_655 S
O202 C195 1.185 . S
O202 Zn198 2.086 . S
C203 O199 1.278 . S
C203 O204 1.211 . S
O204 C203 1.211 . S
C205 O197 1.284 . S
C205 O206 1.273 . S
O206 C205 1.273 . S
O207 Zn198 1.977 . S
O207 C200 1.267 1_655 S
H208 C220 0.930 . S
H209 C222 0.930 . S
H210 C223 0.930 . S
H211 C227 0.959 . S
H212 C227 0.959 . S
H213 C227 0.961 . S
H214 C228 0.960 . S
H215 C228 0.961 . S
H216 C228 0.959 . S
H217 C231 0.929 . S
H218 C232 0.931 . S
H219 C234 0.930 . S
C220 H208 0.930 . S
C220 C221 1.399 . S
C220 C225 1.399 . S
C221 C220 1.399 . S
C221 C222 1.376 . S
C222 H209 0.930 . S
C222 C221 1.376 . S
C222 C223 1.388 . S
C223 H210 0.930 . S
C223 C222 1.388 . S
C223 C224 1.390 . S
C224 C223 1.390 . S
C224 C225 1.394 . S
C224 C230 1.465 . S
C225 C220 1.399 . S
C225 C224 1.394 . S
C225 C226 1.516 . S
C226 C225 1.516 . S
C226 C227 1.502 . S
C226 C228 1.561 . S
C226 C229 1.526 . S
C227 H211 0.959 . S
C227 H212 0.959 . S
C227 H213 0.961 . S
C227 C226 1.502 . S
C228 H214 0.960 . S
C228 H215 0.961 . S
C228 H216 0.959 . S
C228 C226 1.561 . S
C229 C226 1.526 . S
C229 C230 1.396 . S
C229 C234 1.390 . S
C230 C224 1.465 . S
C230 C229 1.396 . S
C230 C231 1.399 . S
C231 H217 0.929 . S
C231 C230 1.399 . S
C231 C232 1.385 . S
C232 H218 0.931 . S
C232 C231 1.385 . S
C232 C233 1.389 . S
C233 C232 1.389 . S
C233 C234 1.387 . S
C234 H219 0.930 . S
C234 C229 1.390 . S
C234 C233 1.387 . S
H235 C247 0.930 . S
H236 C249 0.930 . S
H237 C250 0.930 . S
H238 C254 0.959 . S
H239 C254 0.959 . S
H240 C254 0.961 . S
H241 C255 0.960 . S
H242 C255 0.961 . S
H243 C255 0.959 . S
H244 C258 0.929 . S
H245 C259 0.931 . S
H246 C261 0.930 . S
C247 H235 0.930 . S
C247 C248 1.399 . S
C247 C252 1.399 . S
C248 C247 1.399 . S
C248 C249 1.376 . S
C249 H236 0.930 . S
C249 C248 1.376 . S
C249 C250 1.388 . S
C250 H237 0.930 . S
C250 C249 1.388 . S
C250 C251 1.390 . S
C251 C250 1.390 . S
C251 C252 1.394 . S
C251 C257 1.465 . S
C252 C247 1.399 . S
C252 C251 1.394 . S
C252 C253 1.516 . S
C253 C252 1.516 . S
C253 C254 1.502 . S
C253 C255 1.561 . S
C253 C256 1.526 . S
C254 H238 0.959 . S
C254 H239 0.959 . S
C254 H240 0.961 . S
C254 C253 1.502 . S
C255 H241 0.960 . S
C255 H242 0.961 . S
C255 H243 0.959 . S
C255 C253 1.561 . S
C256 C253 1.526 . S
C256 C257 1.396 . S
C256 C261 1.390 . S
C257 C251 1.465 . S
C257 C256 1.396 . S
C257 C258 1.399 . S
C258 H244 0.929 . S
C258 C257 1.399 . S
C258 C259 1.385 . S
C259 H245 0.931 . S
C259 C258 1.385 . S
C259 C260 1.389 . S
C260 C259 1.389 . S
C260 C261 1.387 . S
C261 H246 0.930 . S
C261 C256 1.390 . S
C261 C260 1.387 . S
H262 C274 0.930 . S
H263 C276 0.930 . S
H264 C277 0.930 . S
H265 C281 0.959 . S
H266 C281 0.959 . S
H267 C281 0.961 . S
H268 C282 0.960 . S
H269 C282 0.961 . S
H270 C282 0.959 . S
H271 C285 0.929 . S
H272 C286 0.931 . S
H273 C288 0.930 . S
C274 H262 0.930 . S
C274 C275 1.399 . S
C274 C279 1.399 . S
C275 C274 1.399 . S
C275 C276 1.376 . S
C276 H263 0.930 . S
C276 C275 1.376 . S
C276 C277 1.388 . S
C277 H264 0.930 . S
C277 C276 1.388 . S
C277 C278 1.390 . S
C278 C277 1.390 . S
C278 C279 1.394 . S
C278 C284 1.465 . S
C279 C274 1.399 . S
C279 C278 1.394 . S
C279 C280 1.516 . S
C280 C279 1.516 . S
C280 C281 1.502 . S
C280 C282 1.561 . S
C280 C283 1.526 . S
C281 H265 0.959 . S
C281 H266 0.959 . S
C281 H267 0.961 . S
C281 C280 1.502 . S
C282 H268 0.960 . S
C282 H269 0.961 . S
C282 H270 0.959 . S
C282 C280 1.561 . S
C283 C280 1.526 . S
C283 C284 1.396 . S
C283 C288 1.390 . S
C284 C278 1.465 . S
C284 C283 1.396 . S
C284 C285 1.399 . S
C285 H271 0.929 . S
C285 C284 1.399 . S
C285 C286 1.385 . S
C286 H272 0.931 . S
C286 C285 1.385 . S
C286 C287 1.389 . S
C287 C286 1.389 . S
C287 C288 1.387 . S
C288 H273 0.930 . S
C288 C283 1.390 . S
C288 C287 1.387 . S
H289 C301 0.930 . S
H290 C303 0.930 . S
H291 C304 0.930 . S
H292 C308 0.959 . S
H293 C308 0.959 . S
H294 C308 0.961 . S
H295 C309 0.960 . S
H296 C309 0.961 . S
H297 C309 0.959 . S
H298 C312 0.929 . S
H299 C313 0.931 . S
H300 C315 0.930 . S
C301 H289 0.930 . S
C301 C302 1.399 . S
C301 C306 1.399 . S
C302 C301 1.399 . S
C302 C303 1.376 . S
C303 H290 0.930 . S
C303 C302 1.376 . S
C303 C304 1.388 . S
C304 H291 0.930 . S
C304 C303 1.388 . S
C304 C305 1.390 . S
C305 C304 1.390 . S
C305 C306 1.394 . S
C305 C311 1.465 . S
C306 C301 1.399 . S
C306 C305 1.394 . S
C306 C307 1.516 . S
C307 C306 1.516 . S
C307 C308 1.502 . S
C307 C309 1.561 . S
C307 C310 1.526 . S
C308 H292 0.959 . S
C308 H293 0.959 . S
C308 H294 0.961 . S
C308 C307 1.502 . S
C309 H295 0.960 . S
C309 H296 0.961 . S
C309 H297 0.959 . S
C309 C307 1.561 . S
C310 C307 1.526 . S
C310 C311 1.396 . S
C310 C315 1.390 . S
C311 C305 1.465 . S
C311 C310 1.396 . S
C311 C312 1.399 . S
C312 H298 0.929 . S
C312 C311 1.399 . S
C312 C313 1.385 . S
C313 H299 0.931 . S
C313 C312 1.385 . S
C313 C314 1.389 . S
C314 C313 1.389 . S
C314 C315 1.387 . S
C315 H300 0.930 . S
C315 C310 1.390 . S
C315 C314 1.387 . S
H316 C328 0.930 . S
H317 C330 0.930 . S
H318 C331 0.930 . S
H319 C335 0.959 . S
H320 C335 0.959 . S
H321 C335 0.961 . S
H322 C336 0.960 . S
H323 C336 0.961 . S
H324 C336 0.959 . S
H325 C339 0.929 . S
H326 C340 0.931 . S
H327 C342 0.930 . S
C328 H316 0.930 . S
C328 C329 1.399 . S
C328 C333 1.399 . S
C329 C328 1.399 . S
C329 C330 1.376 . S
C330 H317 0.930 . S
C330 C329 1.376 . S
C330 C331 1.388 . S
C331 H318 0.930 . S
C331 C330 1.388 . S
C331 C332 1.390 . S
C332 C331 1.390 . S
C332 C333 1.394 . S
C332 C338 1.465 . S
C333 C328 1.399 . S
C333 C332 1.394 . S
C333 C334 1.516 . S
C334 C333 1.516 . S
C334 C335 1.502 . S
C334 C336 1.561 . S
C334 C337 1.526 . S
C335 H319 0.959 . S
C335 H320 0.959 . S
C335 H321 0.961 . S
C335 C334 1.502 . S
C336 H322 0.960 . S
C336 H323 0.961 . S
C336 H324 0.959 . S
C336 C334 1.561 . S
C337 C334 1.526 . S
C337 C338 1.396 . S
C337 C342 1.390 . S
C338 C332 1.465 . S
C338 C337 1.396 . S
C338 C339 1.399 . S
C339 H325 0.929 . S
C339 C338 1.399 . S
C339 C340 1.385 . S
C340 H326 0.931 . S
C340 C339 1.385 . S
C340 C341 1.389 . S
C341 C340 1.389 . S
C341 C342 1.387 . S
C342 H327 0.930 . S
C342 C337 1.390 . S
C342 C341 1.387 . S
H343 C355 0.930 . S
H344 C357 0.930 . S
H345 C358 0.930 . S
H346 C362 0.959 . S
H347 C362 0.959 . S
H348 C362 0.961 . S
H349 C363 0.960 . S
H350 C363 0.961 . S
H351 C363 0.959 . S
H352 C366 0.929 . S
H353 C367 0.931 . S
H354 C369 0.930 . S
C355 H343 0.930 . S
C355 C356 1.399 . S
C355 C360 1.399 . S
C356 C355 1.399 . S
C356 C357 1.376 . S
C357 H344 0.930 . S
C357 C356 1.376 . S
C357 C358 1.388 . S
C358 H345 0.930 . S
C358 C357 1.388 . S
C358 C359 1.390 . S
C359 C358 1.390 . S
C359 C360 1.394 . S
C359 C365 1.465 . S
C360 C355 1.399 . S
C360 C359 1.394 . S
C360 C361 1.516 . S
C361 C360 1.516 . S
C361 C362 1.502 . S
C361 C363 1.561 . S
C361 C364 1.526 . S
C362 H346 0.959 . S
C362 H347 0.959 . S
C362 H348 0.961 . S
C362 C361 1.502 . S
C363 H349 0.960 . S
C363 H350 0.961 . S
C363 H351 0.959 . S
C363 C361 1.561 . S
C364 C361 1.526 . S
C364 C365 1.396 . S
C364 C369 1.390 . S
C365 C359 1.465 . S
C365 C364 1.396 . S
C365 C366 1.399 . S
C366 H352 0.929 . S
C366 C365 1.399 . S
C366 C367 1.385 . S
C367 H353 0.931 . S
C367 C366 1.385 . S
C367 C368 1.389 . S
C368 C367 1.389 . S
C368 C369 1.387 . S
C369 H354 0.930 . S
C369 C364 1.390 . S
C369 C368 1.387 . S
H370 C382 0.930 . S
H371 C384 0.930 . S
H372 C385 0.930 . S
H373 C389 0.959 . S
H374 C389 0.959 . S
H375 C389 0.961 . S
H376 C390 0.960 . S
H377 C390 0.961 . S
H378 C390 0.959 . S
H379 C393 0.929 . S
H380 C394 0.931 . S
H381 C396 0.930 . S
C382 H370 0.930 . S
C382 C383 1.399 . S
C382 C387 1.399 . S
C383 C382 1.399 . S
C383 C384 1.376 . S
C384 H371 0.930 . S
C384 C383 1.376 . S
C384 C385 1.388 . S
C385 H372 0.930 . S
C385 C384 1.388 . S
C385 C386 1.390 . S
C386 C385 1.390 . S
C386 C387 1.394 . S
C386 C392 1.465 . S
C387 C382 1.399 . S
C387 C386 1.394 . S
C387 C388 1.516 . S
C388 C387 1.516 . S
C388 C389 1.502 . S
C388 C390 1.561 . S
C388 C391 1.526 . S
C389 H373 0.959 . S
C389 H374 0.959 . S
C389 H375 0.961 . S
C389 C388 1.502 . S
C390 H376 0.960 . S
C390 H377 0.961 . S
C390 H378 0.959 . S
C390 C388 1.561 . S
C391 C388 1.526 . S
C391 C392 1.396 . S
C391 C396 1.390 . S
C392 C386 1.465 . S
C392 C391 1.396 . S
C392 C393 1.399 . S
C393 H379 0.929 . S
C393 C392 1.399 . S
C393 C394 1.385 . S
C394 H380 0.931 . S
C394 C393 1.385 . S
C394 C395 1.389 . S
C395 C394 1.389 . S
C395 C396 1.387 . S
C396 H381 0.930 . S
C396 C391 1.390 . S
C396 C395 1.387 . S
H397 C409 0.930 . S
H398 C411 0.930 . S
H399 C412 0.930 . S
H400 C416 0.959 . S
H401 C416 0.959 . S
H402 C416 0.961 . S
H403 C417 0.960 . S
H404 C417 0.961 . S
H405 C417 0.959 . S
H406 C420 0.929 . S
H407 C421 0.931 . S
H408 C423 0.930 . S
C409 H397 0.930 . S
C409 C410 1.399 . S
C409 C414 1.399 . S
C410 C409 1.399 . S
C410 C411 1.376 . S
C411 H398 0.930 . S
C411 C410 1.376 . S
C411 C412 1.388 . S
C412 H399 0.930 . S
C412 C411 1.388 . S
C412 C413 1.390 . S
C413 C412 1.390 . S
C413 C414 1.394 . S
C413 C419 1.465 . S
C414 C409 1.399 . S
C414 C413 1.394 . S
C414 C415 1.516 . S
C415 C414 1.516 . S
C415 C416 1.502 . S
C415 C417 1.561 . S
C415 C418 1.526 . S
C416 H400 0.959 . S
C416 H401 0.959 . S
C416 H402 0.961 . S
C416 C415 1.502 . S
C417 H403 0.960 . S
C417 H404 0.961 . S
C417 H405 0.959 . S
C417 C415 1.561 . S
C418 C415 1.526 . S
C418 C419 1.396 . S
C418 C423 1.390 . S
C419 C413 1.465 . S
C419 C418 1.396 . S
C419 C420 1.399 . S
C420 H406 0.929 . S
C420 C419 1.399 . S
C420 C421 1.385 . S
C421 H407 0.931 . S
C421 C420 1.385 . S
C421 C422 1.389 . S
C422 C421 1.389 . S
C422 C423 1.387 . S
C423 H408 0.930 . S
C423 C418 1.390 . S
C423 C422 1.387 . S
H424 C436 0.930 . S
H425 C438 0.930 . S
H426 C439 0.930 . S
H427 C443 0.959 . S
H428 C443 0.959 . S
H429 C443 0.961 . S
H430 C444 0.960 . S
H431 C444 0.961 . S
H432 C444 0.959 . S
H433 C447 0.929 . S
H434 C448 0.931 . S
H435 C450 0.930 . S
C436 H424 0.930 . S
C436 C437 1.399 . S
C436 C441 1.399 . S
C437 C436 1.399 . S
C437 C438 1.376 . S
C438 H425 0.930 . S
C438 C437 1.376 . S
C438 C439 1.388 . S
C439 H426 0.930 . S
C439 C438 1.388 . S
C439 C440 1.390 . S
C440 C439 1.390 . S
C440 C441 1.394 . S
C440 C446 1.465 . S
C441 C436 1.399 . S
C441 C440 1.394 . S
C441 C442 1.516 . S
C442 C441 1.516 . S
C442 C443 1.502 . S
C442 C444 1.561 . S
C442 C445 1.526 . S
C443 H427 0.959 . S
C443 H428 0.959 . S
C443 H429 0.961 . S
C443 C442 1.502 . S
C444 H430 0.960 . S
C444 H431 0.961 . S
C444 H432 0.959 . S
C444 C442 1.561 . S
C445 C442 1.526 . S
C445 C446 1.396 . S
C445 C450 1.390 . S
C446 C440 1.465 . S
C446 C445 1.396 . S
C446 C447 1.399 . S
C447 H433 0.929 . S
C447 C446 1.399 . S
C447 C448 1.385 . S
C448 H434 0.931 . S
C448 C447 1.385 . S
C448 C449 1.389 . S
C449 C448 1.389 . S
C449 C450 1.387 . S
C450 H435 0.930 . S
C450 C445 1.390 . S
C450 C449 1.387 . S
H451 C463 0.930 . S
H452 C465 0.930 . S
H453 C466 0.930 . S
H454 C470 0.959 . S
H455 C470 0.959 . S
H456 C470 0.961 . S
H457 C471 0.960 . S
H458 C471 0.961 . S
H459 C471 0.959 . S
H460 C474 0.929 . S
H461 C475 0.931 . S
H462 C477 0.930 . S
C463 H451 0.930 . S
C463 C464 1.399 . S
C463 C468 1.399 . S
C464 C463 1.399 . S
C464 C465 1.376 . S
C465 H452 0.930 . S
C465 C464 1.376 . S
C465 C466 1.388 . S
C466 H453 0.930 . S
C466 C465 1.388 . S
C466 C467 1.390 . S
C467 C466 1.390 . S
C467 C468 1.394 . S
C467 C473 1.465 . S
C468 C463 1.399 . S
C468 C467 1.394 . S
C468 C469 1.516 . S
C469 C468 1.516 . S
C469 C470 1.502 . S
C469 C471 1.561 . S
C469 C472 1.526 . S
C470 H454 0.959 . S
C470 H455 0.959 . S
C470 H456 0.961 . S
C470 C469 1.502 . S
C471 H457 0.960 . S
C471 H458 0.961 . S
C471 H459 0.959 . S
C471 C469 1.561 . S
C472 C469 1.526 . S
C472 C473 1.396 . S
C472 C477 1.390 . S
C473 C467 1.465 . S
C473 C472 1.396 . S
C473 C474 1.399 . S
C474 H460 0.929 . S
C474 C473 1.399 . S
C474 C475 1.385 . S
C475 H461 0.931 . S
C475 C474 1.385 . S
C475 C476 1.389 . S
C476 C475 1.389 . S
C476 C477 1.387 . S
C477 H462 0.930 . S
C477 C472 1.390 . S
C477 C476 1.387 . S
H478 C490 0.930 . S
H479 C492 0.930 . S
H480 C493 0.930 . S
H481 C497 0.959 . S
H482 C497 0.959 . S
H483 C497 0.961 . S
H484 C498 0.960 . S
H485 C498 0.961 . S
H486 C498 0.959 . S
H487 C501 0.929 . S
H488 C502 0.931 . S
H489 C504 0.930 . S
C490 H478 0.930 . S
C490 C491 1.399 . S
C490 C495 1.399 . S
C491 C490 1.399 . S
C491 C492 1.376 . S
C492 H479 0.930 . S
C492 C491 1.376 . S
C492 C493 1.388 . S
C493 H480 0.930 . S
C493 C492 1.388 . S
C493 C494 1.390 . S
C494 C493 1.390 . S
C494 C495 1.394 . S
C494 C500 1.465 . S
C495 C490 1.399 . S
C495 C494 1.394 . S
C495 C496 1.516 . S
C496 C495 1.516 . S
C496 C497 1.502 . S
C496 C498 1.561 . S
C496 C499 1.526 . S
C497 H481 0.959 . S
C497 H482 0.959 . S
C497 H483 0.961 . S
C497 C496 1.502 . S
C498 H484 0.960 . S
C498 H485 0.961 . S
C498 H486 0.959 . S
C498 C496 1.561 . S
C499 C496 1.526 . S
C499 C500 1.396 . S
C499 C504 1.390 . S
C500 C494 1.465 . S
C500 C499 1.396 . S
C500 C501 1.399 . S
C501 H487 0.929 . S
C501 C500 1.399 . S
C501 C502 1.385 . S
C502 H488 0.931 . S
C502 C501 1.385 . S
C502 C503 1.389 . S
C503 C502 1.389 . S
C503 C504 1.387 . S
C504 H489 0.930 . S
C504 C499 1.390 . S
C504 C503 1.387 . S
H505 C517 0.930 . S
H506 C519 0.930 . S
H507 C520 0.930 . S
H508 C524 0.959 . S
H509 C524 0.959 . S
H510 C524 0.961 . S
H511 C525 0.960 . S
H512 C525 0.961 . S
H513 C525 0.959 . S
H514 C528 0.929 . S
H515 C529 0.931 . S
H516 C531 0.930 . S
C517 H505 0.930 . S
C517 C518 1.399 . S
C517 C522 1.399 . S
C518 C517 1.399 . S
C518 C519 1.376 . S
C519 H506 0.930 . S
C519 C518 1.376 . S
C519 C520 1.388 . S
C520 H507 0.930 . S
C520 C519 1.388 . S
C520 C521 1.390 . S
C521 C520 1.390 . S
C521 C522 1.394 . S
C521 C527 1.465 . S
C522 C517 1.399 . S
C522 C521 1.394 . S
C522 C523 1.516 . S
C523 C522 1.516 . S
C523 C524 1.502 . S
C523 C525 1.561 . S
C523 C526 1.526 . S
C524 H508 0.959 . S
C524 H509 0.959 . S
C524 H510 0.961 . S
C524 C523 1.502 . S
C525 H511 0.960 . S
C525 H512 0.961 . S
C525 H513 0.959 . S
C525 C523 1.561 . S
C526 C523 1.526 . S
C526 C527 1.396 . S
C526 C531 1.390 . S
C527 C521 1.465 . S
C527 C526 1.396 . S
C527 C528 1.399 . S
C528 H514 0.929 . S
C528 C527 1.399 . S
C528 C529 1.385 . S
C529 H515 0.931 . S
C529 C528 1.385 . S
C529 C530 1.389 . S
C530 C529 1.389 . S
C530 C531 1.387 . S
C531 H516 0.930 . S
C531 C526 1.390 . S
C531 C530 1.387 . S
H532 C544 0.930 . S
H533 C546 0.930 . S
H534 C547 0.930 . S
H535 C551 0.959 . S
H536 C551 0.959 . S
H537 C551 0.961 . S
H538 C552 0.960 . S
H539 C552 0.961 . S
H540 C552 0.959 . S
H541 C555 0.929 . S
H542 C556 0.931 . S
H543 C558 0.930 . S
C544 H532 0.930 . S
C544 C545 1.399 . S
C544 C549 1.399 . S
C545 C544 1.399 . S
C545 C546 1.376 . S
C546 H533 0.930 . S
C546 C545 1.376 . S
C546 C547 1.388 . S
C547 H534 0.930 . S
C547 C546 1.388 . S
C547 C548 1.390 . S
C548 C547 1.390 . S
C548 C549 1.394 . S
C548 C554 1.465 . S
C549 C544 1.399 . S
C549 C548 1.394 . S
C549 C550 1.516 . S
C550 C549 1.516 . S
C550 C551 1.502 . S
C550 C552 1.561 . S
C550 C553 1.526 . S
C551 H535 0.959 . S
C551 H536 0.959 . S
C551 H537 0.961 . S
C551 C550 1.502 . S
C552 H538 0.960 . S
C552 H539 0.961 . S
C552 H540 0.959 . S
C552 C550 1.561 . S
C553 C550 1.526 . S
C553 C554 1.396 . S
C553 C558 1.390 . S
C554 C548 1.465 . S
C554 C553 1.396 . S
C554 C555 1.399 . S
C555 H541 0.929 . S
C555 C554 1.399 . S
C555 C556 1.385 . S
C556 H542 0.931 . S
C556 C555 1.385 . S
C556 C557 1.389 . S
C557 C556 1.389 . S
C557 C558 1.387 . S
C558 H543 0.930 . S
C558 C553 1.390 . S
C558 C557 1.387 . S
H559 C571 0.930 . S
H560 C573 0.930 . S
H561 C574 0.930 . S
H562 C578 0.959 . S
H563 C578 0.959 . S
H564 C578 0.961 . S
H565 C579 0.960 . S
H566 C579 0.961 . S
H567 C579 0.959 . S
H568 C582 0.929 . S
H569 C583 0.931 . S
H570 C585 0.930 . S
C571 H559 0.930 . S
C571 C572 1.399 . S
C571 C576 1.399 . S
C572 C571 1.399 . S
C572 C573 1.376 . S
C573 H560 0.930 . S
C573 C572 1.376 . S
C573 C574 1.388 . S
C574 H561 0.930 . S
C574 C573 1.388 . S
C574 C575 1.390 . S
C575 C574 1.390 . S
C575 C576 1.394 . S
C575 C581 1.465 . S
C576 C571 1.399 . S
C576 C575 1.394 . S
C576 C577 1.516 . S
C577 C576 1.516 . S
C577 C578 1.502 . S
C577 C579 1.561 . S
C577 C580 1.526 . S
C578 H562 0.959 . S
C578 H563 0.959 . S
C578 H564 0.961 . S
C578 C577 1.502 . S
C579 H565 0.960 . S
C579 H566 0.961 . S
C579 H567 0.959 . S
C579 C577 1.561 . S
C580 C577 1.526 . S
C580 C581 1.396 . S
C580 C585 1.390 . S
C581 C575 1.465 . S
C581 C580 1.396 . S
C581 C582 1.399 . S
C582 H568 0.929 . S
C582 C581 1.399 . S
C582 C583 1.385 . S
C583 H569 0.931 . S
C583 C582 1.385 . S
C583 C584 1.389 . S
C584 C583 1.389 . S
C584 C585 1.387 . S
C585 H570 0.930 . S
C585 C580 1.390 . S
C585 C584 1.387 . S
H586 C598 0.930 . S
H587 C600 0.930 . S
H588 C601 0.930 . S
H589 C605 0.959 . S
H590 C605 0.959 . S
H591 C605 0.961 . S
H592 C606 0.960 . S
H593 C606 0.961 . S
H594 C606 0.959 . S
H595 C609 0.929 . S
H596 C610 0.931 . S
H597 C612 0.930 . S
C598 H586 0.930 . S
C598 C599 1.399 . S
C598 C603 1.399 . S
C599 C598 1.399 . S
C599 C600 1.376 . S
C600 H587 0.930 . S
C600 C599 1.376 . S
C600 C601 1.388 . S
C601 H588 0.930 . S
C601 C600 1.388 . S
C601 C602 1.390 . S
C602 C601 1.390 . S
C602 C603 1.394 . S
C602 C608 1.465 . S
C603 C598 1.399 . S
C603 C602 1.394 . S
C603 C604 1.516 . S
C604 C603 1.516 . S
C604 C605 1.502 . S
C604 C606 1.561 . S
C604 C607 1.526 . S
C605 H589 0.959 . S
C605 H590 0.959 . S
C605 H591 0.961 . S
C605 C604 1.502 . S
C606 H592 0.960 . S
C606 H593 0.961 . S
C606 H594 0.959 . S
C606 C604 1.561 . S
C607 C604 1.526 . S
C607 C608 1.396 . S
C607 C612 1.390 . S
C608 C602 1.465 . S
C608 C607 1.396 . S
C608 C609 1.399 . S
C609 H595 0.929 . S
C609 C608 1.399 . S
C609 C610 1.385 . S
C610 H596 0.931 . S
C610 C609 1.385 . S
C610 C611 1.389 . S
C611 C610 1.389 . S
C611 C612 1.387 . S
C612 H597 0.930 . S
C612 C607 1.390 . S
C612 C611 1.387 . S
H613 C625 0.930 . S
H614 C627 0.930 . S
H615 C628 0.930 . S
H616 C632 0.959 . S
H617 C632 0.959 . S
H618 C632 0.961 . S
H619 C633 0.960 . S
H620 C633 0.961 . S
H621 C633 0.959 . S
H622 C636 0.929 . S
H623 C637 0.931 . S
H624 C639 0.930 . S
C625 H613 0.930 . S
C625 C626 1.399 . S
C625 C630 1.399 . S
C626 C625 1.399 . S
C626 C627 1.376 . S
C627 H614 0.930 . S
C627 C626 1.376 . S
C627 C628 1.388 . S
C628 H615 0.930 . S
C628 C627 1.388 . S
C628 C629 1.390 . S
C629 C628 1.390 . S
C629 C630 1.394 . S
C629 C635 1.465 . S
C630 C625 1.399 . S
C630 C629 1.394 . S
C630 C631 1.516 . S
C631 C630 1.516 . S
C631 C632 1.502 . S
C631 C633 1.561 . S
C631 C634 1.526 . S
C632 H616 0.959 . S
C632 H617 0.959 . S
C632 H618 0.961 . S
C632 C631 1.502 . S
C633 H619 0.960 . S
C633 H620 0.961 . S
C633 H621 0.959 . S
C633 C631 1.561 . S
C634 C631 1.526 . S
C634 C635 1.396 . S
C634 C639 1.390 . S
C635 C629 1.465 . S
C635 C634 1.396 . S
C635 C636 1.399 . S
C636 H622 0.929 . S
C636 C635 1.399 . S
C636 C637 1.385 . S
C637 H623 0.931 . S
C637 C636 1.385 . S
C637 C638 1.389 . S
C638 C637 1.389 . S
C638 C639 1.387 . S
C639 H624 0.930 . S
C639 C634 1.390 . S
C639 C638 1.387 . S
H640 C652 0.930 . S
H641 C654 0.930 1_565 S
H642 C655 0.930 . S
H643 C659 0.959 . S
H644 C659 0.959 . S
H645 C659 0.961 . S
H646 C660 0.960 . S
H647 C660 0.961 . S
H648 C660 0.959 . S
H649 C663 0.929 . S
H650 C664 0.931 . S
H651 C666 0.930 . S
C652 H640 0.930 . S
C652 C653 1.399 . S
C652 C657 1.399 . S
C653 C652 1.399 . S
C653 C654 1.376 . S
C654 H641 0.930 1_545 S
C654 C653 1.376 . S
C654 C655 1.388 . S
C655 H642 0.930 . S
C655 C654 1.388 . S
C655 C656 1.390 . S
C656 C655 1.390 . S
C656 C657 1.394 . S
C656 C662 1.465 . S
C657 C652 1.399 . S
C657 C656 1.394 . S
C657 C658 1.516 . S
C658 C657 1.516 . S
C658 C659 1.502 . S
C658 C660 1.561 . S
C658 C661 1.526 . S
C659 H643 0.959 . S
C659 H644 0.959 . S
C659 H645 0.961 . S
C659 C658 1.502 . S
C660 H646 0.960 . S
C660 H647 0.961 . S
C660 H648 0.959 . S
C660 C658 1.561 . S
C661 C658 1.526 . S
C661 C662 1.396 . S
C661 C666 1.390 . S
C662 C656 1.465 . S
C662 C661 1.396 . S
C662 C663 1.399 . S
C663 H649 0.929 . S
C663 C662 1.399 . S
C663 C664 1.385 . S
C664 H650 0.931 . S
C664 C663 1.385 . S
C664 C665 1.389 . S
C665 C664 1.389 . S
C665 C666 1.387 . S
C666 H651 0.930 . S
C666 C661 1.390 . S
C666 C665 1.387 . S
H667 C679 0.930 . S
H668 C681 0.930 . S
H669 C682 0.930 . S
H670 C686 0.959 . S
H671 C686 0.959 . S
H672 C686 0.961 . S
H673 C687 0.960 . S
H674 C687 0.961 . S
H675 C687 0.959 . S
H676 C690 0.929 . S
H677 C691 0.931 . S
H678 C693 0.930 . S
C679 H667 0.930 . S
C679 C680 1.399 . S
C679 C684 1.399 . S
C680 C679 1.399 . S
C680 C681 1.376 . S
C681 H668 0.930 . S
C681 C680 1.376 . S
C681 C682 1.388 . S
C682 H669 0.930 . S
C682 C681 1.388 . S
C682 C683 1.390 . S
C683 C682 1.390 . S
C683 C684 1.394 . S
C683 C689 1.465 . S
C684 C679 1.399 . S
C684 C683 1.394 . S
C684 C685 1.516 . S
C685 C684 1.516 . S
C685 C686 1.502 . S
C685 C687 1.561 . S
C685 C688 1.526 . S
C686 H670 0.959 . S
C686 H671 0.959 . S
C686 H672 0.961 . S
C686 C685 1.502 . S
C687 H673 0.960 . S
C687 H674 0.961 . S
C687 H675 0.959 . S
C687 C685 1.561 . S
C688 C685 1.526 . S
C688 C689 1.396 . S
C688 C693 1.390 . S
C689 C683 1.465 . S
C689 C688 1.396 . S
C689 C690 1.399 . S
C690 H676 0.929 . S
C690 C689 1.399 . S
C690 C691 1.385 . S
C691 H677 0.931 . S
C691 C690 1.385 . S
C691 C692 1.389 . S
C692 C691 1.389 . S
C692 C693 1.387 . S
C693 H678 0.930 . S
C693 C688 1.390 . S
C693 C692 1.387 . S
H694 C706 0.930 . S
H695 C708 0.930 . S
H696 C709 0.930 . S
H697 C713 0.959 . S
H698 C713 0.959 . S
H699 C713 0.961 . S
H700 C714 0.960 . S
H701 C714 0.961 . S
H702 C714 0.959 . S
H703 C717 0.929 . S
H704 C718 0.931 . S
H705 C720 0.930 . S
C706 H694 0.930 . S
C706 C707 1.399 . S
C706 C711 1.399 . S
C707 C706 1.399 . S
C707 C708 1.376 . S
C708 H695 0.930 . S
C708 C707 1.376 . S
C708 C709 1.388 . S
C709 H696 0.930 . S
C709 C708 1.388 . S
C709 C710 1.390 . S
C710 C709 1.390 . S
C710 C711 1.394 . S
C710 C716 1.465 . S
C711 C706 1.399 . S
C711 C710 1.394 . S
C711 C712 1.516 . S
C712 C711 1.516 . S
C712 C713 1.502 . S
C712 C714 1.561 . S
C712 C715 1.526 . S
C713 H697 0.959 . S
C713 H698 0.959 . S
C713 H699 0.961 . S
C713 C712 1.502 . S
C714 H700 0.960 . S
C714 H701 0.961 . S
C714 H702 0.959 . S
C714 C712 1.561 . S
C715 C712 1.526 . S
C715 C716 1.396 . S
C715 C720 1.390 . S
C716 C710 1.465 . S
C716 C715 1.396 . S
C716 C717 1.399 . S
C717 H703 0.929 . S
C717 C716 1.399 . S
C717 C718 1.385 . S
C718 H704 0.931 . S
C718 C717 1.385 . S
C718 C719 1.389 . S
C719 C718 1.389 . S
C719 C720 1.387 . S
C720 H705 0.930 . S
C720 C715 1.390 . S
C720 C719 1.387 . S
H721 C733 0.930 . S
H722 C735 0.930 . S
H723 C736 0.930 . S
H724 C740 0.959 . S
H725 C740 0.959 . S
H726 C740 0.961 . S
H727 C741 0.960 . S
H728 C741 0.961 . S
H729 C741 0.959 . S
H730 C744 0.929 . S
H731 C745 0.931 1_455 S
H732 C747 0.930 . S
C733 H721 0.930 . S
C733 C734 1.399 . S
C733 C738 1.399 . S
C734 C733 1.399 . S
C734 C735 1.376 . S
C735 H722 0.930 . S
C735 C734 1.376 . S
C735 C736 1.388 . S
C736 H723 0.930 . S
C736 C735 1.388 . S
C736 C737 1.390 . S
C737 C736 1.390 . S
C737 C738 1.394 . S
C737 C743 1.465 . S
C738 C733 1.399 . S
C738 C737 1.394 . S
C738 C739 1.516 . S
C739 C738 1.516 . S
C739 C740 1.502 . S
C739 C741 1.561 . S
C739 C742 1.526 . S
C740 H724 0.959 . S
C740 H725 0.959 . S
C740 H726 0.961 . S
C740 C739 1.502 . S
C741 H727 0.960 . S
C741 H728 0.961 . S
C741 H729 0.959 . S
C741 C739 1.561 . S
C742 C739 1.526 . S
C742 C743 1.396 . S
C742 C747 1.390 . S
C743 C737 1.465 . S
C743 C742 1.396 . S
C743 C744 1.399 . S
C744 H730 0.929 . S
C744 C743 1.399 . S
C744 C745 1.385 . S
C745 H731 0.931 1_655 S
C745 C744 1.385 . S
C745 C746 1.389 . S
C746 C745 1.389 . S
C746 C747 1.387 . S
C747 H732 0.930 . S
C747 C742 1.390 . S
C747 C746 1.387 . S
H748 C760 0.930 . S
H749 C762 0.930 . S
H750 C763 0.930 . S
H751 C767 0.959 . S
H752 C767 0.959 . S
H753 C767 0.961 . S
H754 C768 0.960 . S
H755 C768 0.961 . S
H756 C768 0.959 . S
H757 C771 0.929 . S
H758 C772 0.931 . S
H759 C774 0.930 . S
C760 H748 0.930 . S
C760 C761 1.399 . S
C760 C765 1.399 . S
C761 C760 1.399 . S
C761 C762 1.376 . S
C762 H749 0.930 . S
C762 C761 1.376 . S
C762 C763 1.388 . S
C763 H750 0.930 . S
C763 C762 1.388 . S
C763 C764 1.390 . S
C764 C763 1.390 . S
C764 C765 1.394 . S
C764 C770 1.465 . S
C765 C760 1.399 . S
C765 C764 1.394 . S
C765 C766 1.516 . S
C766 C765 1.516 . S
C766 C767 1.502 . S
C766 C768 1.561 . S
C766 C769 1.526 . S
C767 H751 0.959 . S
C767 H752 0.959 . S
C767 H753 0.961 . S
C767 C766 1.502 . S
C768 H754 0.960 . S
C768 H755 0.961 . S
C768 H756 0.959 . S
C768 C766 1.561 . S
C769 C766 1.526 . S
C769 C770 1.396 . S
C769 C774 1.390 . S
C770 C764 1.465 . S
C770 C769 1.396 . S
C770 C771 1.399 . S
C771 H757 0.929 . S
C771 C770 1.399 . S
C771 C772 1.385 . S
C772 H758 0.931 . S
C772 C771 1.385 . S
C772 C773 1.389 . S
C773 C772 1.389 . S
C773 C774 1.387 . S
C774 H759 0.930 . S
C774 C769 1.390 . S
C774 C773 1.387 . S
H775 C787 0.930 . S
H776 C789 0.930 . S
H777 C790 0.930 . S
H778 C794 0.959 . S
H779 C794 0.959 . S
H780 C794 0.961 . S
H781 C795 0.960 . S
H782 C795 0.961 . S
H783 C795 0.959 . S
H784 C798 0.929 . S
H785 C799 0.931 . S
H786 C801 0.930 . S
C787 H775 0.930 . S
C787 C788 1.399 . S
C787 C792 1.399 . S
C788 C787 1.399 . S
C788 C789 1.376 . S
C789 H776 0.930 . S
C789 C788 1.376 . S
C789 C790 1.388 . S
C790 H777 0.930 . S
C790 C789 1.388 . S
C790 C791 1.390 . S
C791 C790 1.390 . S
C791 C792 1.394 . S
C791 C797 1.465 . S
C792 C787 1.399 . S
C792 C791 1.394 . S
C792 C793 1.516 . S
C793 C792 1.516 . S
C793 C794 1.502 . S
C793 C795 1.561 . S
C793 C796 1.526 . S
C794 H778 0.959 . S
C794 H779 0.959 . S
C794 H780 0.961 . S
C794 C793 1.502 . S
C795 H781 0.960 . S
C795 H782 0.961 . S
C795 H783 0.959 . S
C795 C793 1.561 . S
C796 C793 1.526 . S
C796 C797 1.396 . S
C796 C801 1.390 . S
C797 C791 1.465 . S
C797 C796 1.396 . S
C797 C798 1.399 . S
C798 H784 0.929 . S
C798 C797 1.399 . S
C798 C799 1.385 . S
C799 H785 0.931 . S
C799 C798 1.385 . S
C799 C800 1.389 . S
C800 C799 1.389 . S
C800 C801 1.387 . S
C801 H786 0.930 . S
C801 C796 1.390 . S
C801 C800 1.387 . S
H802 C814 0.930 . S
H803 C816 0.930 . S
H804 C817 0.930 . S
H805 C821 0.959 . S
H806 C821 0.959 . S
H807 C821 0.961 . S
H808 C822 0.960 . S
H809 C822 0.961 . S
H810 C822 0.959 . S
H811 C825 0.929 . S
H812 C826 0.931 . S
H813 C828 0.930 . S
C814 H802 0.930 . S
C814 C815 1.399 . S
C814 C819 1.399 . S
C815 C814 1.399 . S
C815 C816 1.376 . S
C816 H803 0.930 . S
C816 C815 1.376 . S
C816 C817 1.388 . S
C817 H804 0.930 . S
C817 C816 1.388 . S
C817 C818 1.390 . S
C818 C817 1.390 . S
C818 C819 1.394 . S
C818 C824 1.465 . S
C819 C814 1.399 . S
C819 C818 1.394 . S
C819 C820 1.516 . S
C820 C819 1.516 . S
C820 C821 1.502 . S
C820 C822 1.561 . S
C820 C823 1.526 . S
C821 H805 0.959 . S
C821 H806 0.959 . S
C821 H807 0.961 . S
C821 C820 1.502 . S
C822 H808 0.960 . S
C822 H809 0.961 . S
C822 H810 0.959 . S
C822 C820 1.561 . S
C823 C820 1.526 . S
C823 C824 1.396 . S
C823 C828 1.390 . S
C824 C818 1.465 . S
C824 C823 1.396 . S
C824 C825 1.399 . S
C825 H811 0.929 . S
C825 C824 1.399 . S
C825 C826 1.385 . S
C826 H812 0.931 . S
C826 C825 1.385 . S
C826 C827 1.389 . S
C827 C826 1.389 . S
C827 C828 1.387 . S
C828 H813 0.930 . S
C828 C823 1.390 . S
C828 C827 1.387 . S
H829 C841 0.930 . S
H830 C843 0.930 . S
H831 C844 0.930 . S
H832 C848 0.959 . S
H833 C848 0.959 . S
H834 C848 0.961 . S
H835 C849 0.960 . S
H836 C849 0.961 . S
H837 C849 0.959 . S
H838 C852 0.929 . S
H839 C853 0.931 . S
H840 C855 0.930 . S
C841 H829 0.930 . S
C841 C842 1.399 . S
C841 C846 1.399 . S
C842 C841 1.399 . S
C842 C843 1.376 . S
C843 H830 0.930 . S
C843 C842 1.376 . S
C843 C844 1.388 . S
C844 H831 0.930 . S
C844 C843 1.388 . S
C844 C845 1.390 . S
C845 C844 1.390 . S
C845 C846 1.394 . S
C845 C851 1.465 . S
C846 C841 1.399 . S
C846 C845 1.394 . S
C846 C847 1.516 . S
C847 C846 1.516 . S
C847 C848 1.502 . S
C847 C849 1.561 . S
C847 C850 1.526 . S
C848 H832 0.959 . S
C848 H833 0.959 . S
C848 H834 0.961 . S
C848 C847 1.502 . S
C849 H835 0.960 . S
C849 H836 0.961 . S
C849 H837 0.959 . S
C849 C847 1.561 . S
C850 C847 1.526 . S
C850 C851 1.396 . S
C850 C855 1.390 . S
C851 C845 1.465 . S
C851 C850 1.396 . S
C851 C852 1.399 . S
C852 H838 0.929 . S
C852 C851 1.399 . S
C852 C853 1.385 . S
C853 H839 0.931 . S
C853 C852 1.385 . S
C853 C854 1.389 . S
C854 C853 1.389 . S
C854 C855 1.387 . S
C855 H840 0.930 . S
C855 C850 1.390 . S
C855 C854 1.387 . S
H856 C868 0.930 . S
H857 C870 0.930 . S
H858 C871 0.930 . S
H859 C875 0.959 . S
H860 C875 0.959 . S
H861 C875 0.961 . S
H862 C876 0.960 . S
H863 C876 0.961 . S
H864 C876 0.959 . S
H865 C879 0.929 . S
H866 C880 0.931 . S
H867 C882 0.930 . S
C868 H856 0.930 . S
C868 C869 1.399 . S
C868 C873 1.399 . S
C869 C868 1.399 . S
C869 C870 1.376 . S
C870 H857 0.930 . S
C870 C869 1.376 . S
C870 C871 1.388 . S
C871 H858 0.930 . S
C871 C870 1.388 . S
C871 C872 1.390 . S
C872 C871 1.390 . S
C872 C873 1.394 . S
C872 C878 1.465 . S
C873 C868 1.399 . S
C873 C872 1.394 . S
C873 C874 1.516 . S
C874 C873 1.516 . S
C874 C875 1.502 . S
C874 C876 1.561 . S
C874 C877 1.526 . S
C875 H859 0.959 . S
C875 H860 0.959 . S
C875 H861 0.961 . S
C875 C874 1.502 . S
C876 H862 0.960 . S
C876 H863 0.961 . S
C876 H864 0.959 . S
C876 C874 1.561 . S
C877 C874 1.526 . S
C877 C878 1.396 . S
C877 C882 1.390 . S
C878 C872 1.465 . S
C878 C877 1.396 . S
C878 C879 1.399 . S
C879 H865 0.929 . S
C879 C878 1.399 . S
C879 C880 1.385 . S
C880 H866 0.931 . S
C880 C879 1.385 . S
C880 C881 1.389 . S
C881 C880 1.389 . S
C881 C882 1.387 . S
C882 H867 0.930 . S
C882 C877 1.390 . S
C882 C881 1.387 . S
H883 C895 0.930 . S
H884 C897 0.930 . S
H885 C898 0.930 . S
H886 C902 0.959 . S
H887 C902 0.959 . S
H888 C902 0.961 . S
H889 C903 0.960 . S
H890 C903 0.961 . S
H891 C903 0.959 . S
H892 C906 0.929 . S
H893 C907 0.931 . S
H894 C909 0.930 . S
C895 H883 0.930 . S
C895 C896 1.399 . S
C895 C900 1.399 . S
C896 C895 1.399 . S
C896 C897 1.376 . S
C897 H884 0.930 . S
C897 C896 1.376 . S
C897 C898 1.388 . S
C898 H885 0.930 . S
C898 C897 1.388 . S
C898 C899 1.390 . S
C899 C898 1.390 . S
C899 C900 1.394 . S
C899 C905 1.465 . S
C900 C895 1.399 . S
C900 C899 1.394 . S
C900 C901 1.516 . S
C901 C900 1.516 . S
C901 C902 1.502 . S
C901 C903 1.561 . S
C901 C904 1.526 . S
C902 H886 0.959 . S
C902 H887 0.959 . S
C902 H888 0.961 . S
C902 C901 1.502 . S
C903 H889 0.960 . S
C903 H890 0.961 . S
C903 H891 0.959 . S
C903 C901 1.561 . S
C904 C901 1.526 . S
C904 C905 1.396 . S
C904 C909 1.390 . S
C905 C899 1.465 . S
C905 C904 1.396 . S
C905 C906 1.399 . S
C906 H892 0.929 . S
C906 C905 1.399 . S
C906 C907 1.385 . S
C907 H893 0.931 . S
C907 C906 1.385 . S
C907 C908 1.389 . S
C908 C907 1.389 . S
C908 C909 1.387 . S
C909 H894 0.930 . S
C909 C904 1.390 . S
C909 C908 1.387 . S
H910 C922 0.930 . S
H911 C924 0.930 . S
H912 C925 0.930 . S
H913 C929 0.959 . S
H914 C929 0.959 . S
H915 C929 0.961 . S
H916 C930 0.960 . S
H917 C930 0.961 . S
H918 C930 0.959 . S
H919 C933 0.929 . S
H920 C934 0.931 . S
H921 C936 0.930 . S
C922 H910 0.930 . S
C922 C923 1.399 . S
C922 C927 1.399 . S
C923 C922 1.399 . S
C923 C924 1.376 . S
C924 H911 0.930 . S
C924 C923 1.376 . S
C924 C925 1.388 . S
C925 H912 0.930 . S
C925 C924 1.388 . S
C925 C926 1.390 . S
C926 C925 1.390 . S
C926 C927 1.394 . S
C926 C932 1.465 . S
C927 C922 1.399 . S
C927 C926 1.394 . S
C927 C928 1.516 . S
C928 C927 1.516 . S
C928 C929 1.502 . S
C928 C930 1.561 . S
C928 C931 1.526 . S
C929 H913 0.959 . S
C929 H914 0.959 . S
C929 H915 0.961 . S
C929 C928 1.502 . S
C930 H916 0.960 . S
C930 H917 0.961 . S
C930 H918 0.959 . S
C930 C928 1.561 . S
C931 C928 1.526 . S
C931 C932 1.396 . S
C931 C936 1.390 . S
C932 C926 1.465 . S
C932 C931 1.396 . S
C932 C933 1.399 . S
C933 H919 0.929 . S
C933 C932 1.399 . S
C933 C934 1.385 . S
C934 H920 0.931 . S
C934 C933 1.385 . S
C934 C935 1.389 . S
C935 C934 1.389 . S
C935 C936 1.387 . S
C936 H921 0.930 . S
C936 C931 1.390 . S
C936 C935 1.387 . S
H937 C949 0.930 . S
H938 C951 0.930 . S
H939 C952 0.930 . S
H940 C956 0.959 . S
H941 C956 0.959 . S
H942 C956 0.961 . S
H943 C957 0.960 . S
H944 C957 0.961 . S
H945 C957 0.959 . S
H946 C960 0.929 . S
H947 C961 0.931 . S
H948 C963 0.930 . S
C949 H937 0.930 . S
C949 C950 1.399 . S
C949 C954 1.399 . S
C950 C949 1.399 . S
C950 C951 1.376 . S
C951 H938 0.930 . S
C951 C950 1.376 . S
C951 C952 1.388 . S
C952 H939 0.930 . S
C952 C951 1.388 . S
C952 C953 1.390 . S
C953 C952 1.390 . S
C953 C954 1.394 . S
C953 C959 1.465 . S
C954 C949 1.399 . S
C954 C953 1.394 . S
C954 C955 1.516 . S
C955 C954 1.516 . S
C955 C956 1.502 . S
C955 C957 1.561 . S
C955 C958 1.526 . S
C956 H940 0.959 . S
C956 H941 0.959 . S
C956 H942 0.961 . S
C956 C955 1.502 . S
C957 H943 0.960 . S
C957 H944 0.961 . S
C957 H945 0.959 . S
C957 C955 1.561 . S
C958 C955 1.526 . S
C958 C959 1.396 . S
C958 C963 1.390 . S
C959 C953 1.465 . S
C959 C958 1.396 . S
C959 C960 1.399 . S
C960 H946 0.929 . S
C960 C959 1.399 . S
C960 C961 1.385 . S
C961 H947 0.931 . S
C961 C960 1.385 . S
C961 C962 1.389 . S
C962 C961 1.389 . S
C962 C963 1.387 . S
C963 H948 0.930 . S
C963 C958 1.390 . S
C963 C962 1.387 . S
H964 C976 0.930 1_565 S
H965 C978 0.930 . S
H966 C979 0.930 . S
H967 C983 0.959 . S
H968 C983 0.959 . S
H969 C983 0.961 . S
H970 C984 0.960 . S
H971 C984 0.961 1_556 S
H972 C984 0.969 . S
H973 C987 0.929 . S
H974 C988 0.931 . S
H975 C990 0.930 . S
C976 H964 0.930 1_545 S
C976 C977 1.399 . S
C976 C981 1.394 1_545 S
C977 C976 1.399 . S
C977 C978 1.376 . S
C978 H965 0.930 . S
C978 C977 1.376 . S
C978 C979 1.388 . S
C979 H966 0.930 . S
C979 C978 1.388 . S
C979 C980 1.390 . S
C980 C979 1.390 . S
C980 C981 1.376 1_545 S
C980 C986 1.465 1_554 S
C981 C976 1.394 1_565 S
C981 C980 1.376 1_565 S
C981 C982 1.537 . S
C982 C981 1.537 . S
C982 C983 1.502 . S
C982 C984 1.561 . S
C982 C985 1.526 1_554 S
C983 H967 0.959 . S
C983 H968 0.959 . S
C983 H969 0.961 . S
C983 C982 1.502 . S
C984 H970 0.960 . S
C984 H971 0.961 1_554 S
C984 H972 0.969 . S
C984 C982 1.561 . S
C985 C982 1.526 1_556 S
C985 C986 1.396 1_565 S
C985 C990 1.390 . S
C986 C980 1.465 1_556 S
C986 C985 1.396 1_545 S
C986 C987 1.399 . S
C987 H973 0.929 . S
C987 C986 1.399 . S
C987 C988 1.385 . S
C988 H974 0.931 . S
C988 C987 1.385 . S
C988 C989 1.389 1_545 S
C989 C988 1.389 1_565 S
C989 C990 1.387 . S
C990 H975 0.930 . S
C990 C985 1.390 . S
C990 C989 1.387 . S
H991 C1003 0.930 . S
H992 C1005 0.930 1_655 S
H993 C1006 0.930 . S
H994 C1010 0.959 . S
H995 C1010 0.959 . S
H996 C1010 0.961 . S
H997 C1011 0.960 1_556 S
H998 C1011 0.961 . S
H999 C1011 0.959 1_656 S
H1000 C1014 0.929 . S
H1001 C1015 0.931 . S
H1002 C1017 0.930 1_455 S
C1003 H991 0.930 . S
C1003 C1004 1.399 . S
C1003 C1008 1.399 . S
C1004 C1003 1.399 . S
C1004 C1005 1.376 . S
C1005 H992 0.930 1_455 S
C1005 C1004 1.376 . S
C1005 C1006 1.388 1_455 S
C1006 H993 0.930 . S
C1006 C1005 1.388 1_655 S
C1006 C1007 1.390 . S
C1007 C1006 1.390 . S
C1007 C1008 1.394 1_655 S
C1007 C1013 1.465 1_556 S
C1008 C1003 1.399 . S
C1008 C1007 1.394 1_455 S
C1008 C1009 1.516 1_556 S
C1009 C1008 1.516 1_554 S
C1009 C1010 1.502 . S
C1009 C1011 1.561 . S
C1009 C1012 1.526 1_455 S
C1010 H994 0.959 . S
C1010 H995 0.959 . S
C1010 H996 0.961 . S
C1010 C1009 1.502 . S
C1011 H997 0.960 1_554 S
C1011 H998 0.961 . S
C1011 H999 0.959 1_454 S
C1011 C1009 1.561 . S
C1012 C1009 1.526 1_655 S
C1012 C1013 1.396 . S
C1012 C1017 1.390 . S
C1013 C1007 1.465 1_554 S
C1013 C1012 1.396 . S
C1013 C1014 1.399 . S
C1014 H1000 0.929 . S
C1014 C1013 1.399 . S
C1014 C1015 1.385 . S
C1015 H1001 0.931 . S
C1015 C1014 1.385 . S
C1015 C1016 1.389 . S
C1016 C1015 1.389 . S
C1016 C1017 1.387 . S
C1017 H1002 0.930 1_655 S
C1017 C1012 1.390 . S
C1017 C1016 1.387 . S
H1018 C1030 0.930 . S
H1019 C1032 0.930 . S
H1020 C1033 0.930 . S
H1021 C1037 0.959 . S
H1022 C1037 0.959 1_554 S
H1023 C1037 0.961 . S
H1024 C1038 0.960 1_556 S
H1025 C1038 0.961 . S
H1026 C1038 0.959 . S
H1027 C1041 0.929 . S
H1028 C1042 0.931 . S
H1029 C1044 0.930 . S
C1030 H1018 0.930 . S
C1030 C1031 1.399 . S
C1030 C1035 1.399 . S
C1031 C1030 1.399 . S
C1031 C1032 1.376 . S
C1032 H1019 0.930 . S
C1032 C1031 1.376 . S
C1032 C1033 1.388 . S
C1033 H1020 0.930 . S
C1033 C1032 1.388 . S
C1033 C1034 1.390 . S
C1034 C1033 1.390 . S
C1034 C1035 1.394 . S
C1034 C1040 1.465 1_546 S
C1035 C1030 1.399 . S
C1035 C1034 1.394 . S
C1035 C1036 1.492 1_556 S
C1036 C1035 1.492 1_554 S
C1036 C1037 1.493 1_544 S
C1036 C1038 1.573 . S
C1036 C1039 1.551 1_545 S
C1037 H1021 0.959 . S
C1037 H1022 0.959 1_556 S
C1037 H1023 0.961 . S
C1037 C1036 1.493 1_566 S
C1038 H1024 0.960 1_554 S
C1038 H1025 0.961 . S
C1038 H1026 0.959 . S
C1038 C1036 1.573 . S
C1039 C1036 1.551 1_565 S
C1039 C1040 1.396 . S
C1039 C1044 1.390 . S
C1040 C1034 1.465 1_564 S
C1040 C1039 1.396 . S
C1040 C1041 1.399 . S
C1041 H1027 0.929 . S
C1041 C1040 1.399 . S
C1041 C1042 1.385 . S
C1042 H1028 0.931 . S
C1042 C1041 1.385 . S
C1042 C1043 1.389 . S
C1043 C1042 1.389 . S
C1043 C1044 1.387 . S
C1044 H1029 0.930 . S
C1044 C1039 1.390 . S
C1044 C1043 1.387 . S
H1045 C1057 0.930 . S
H1046 C1059 0.930 . S
H1047 C1060 0.930 . S
H1048 C1064 0.959 . S
H1049 C1064 0.959 1_554 S
H1050 C1064 0.961 . S
H1051 C1065 0.960 1_556 S
H1052 C1065 0.961 . S
H1053 C1065 0.959 . S
H1054 C1068 0.929 1_655 S
H1055 C1069 0.931 . S
H1056 C1071 0.930 . S
C1057 H1045 0.930 . S
C1057 C1058 1.399 . S
C1057 C1062 1.399 . S
C1058 C1057 1.399 . S
C1058 C1059 1.376 . S
C1059 H1046 0.930 . S
C1059 C1058 1.376 . S
C1059 C1060 1.388 . S
C1060 H1047 0.930 . S
C1060 C1059 1.388 . S
C1060 C1061 1.390 . S
C1061 C1060 1.390 . S
C1061 C1062 1.394 . S
C1061 C1067 1.465 1_656 S
C1062 C1057 1.399 . S
C1062 C1061 1.394 . S
C1062 C1063 1.535 1_655 S
C1063 C1062 1.535 1_455 S
C1063 C1064 1.510 . S
C1063 C1065 1.553 1_456 S
C1063 C1066 1.506 1_556 S
C1064 H1048 0.959 . S
C1064 H1049 0.959 1_556 S
C1064 H1050 0.961 . S
C1064 C1063 1.510 . S
C1065 H1051 0.960 1_554 S
C1065 H1052 0.961 . S
C1065 H1053 0.959 . S
C1065 C1063 1.553 1_654 S
C1066 C1063 1.506 1_554 S
C1066 C1067 1.396 . S
C1066 C1071 1.390 . S
C1067 C1061 1.465 1_454 S
C1067 C1066 1.396 . S
C1067 C1068 1.399 . S
C1068 H1054 0.929 1_455 S
C1068 C1067 1.399 . S
C1068 C1069 1.385 . S
C1069 H1055 0.931 . S
C1069 C1068 1.385 . S
C1069 C1070 1.389 . S
C1070 C1069 1.389 . S
C1070 C1071 1.387 . S
C1071 H1056 0.930 . S
C1071 C1066 1.390 . S
C1071 C1070 1.387 . S
C221 C0 1.176 . S
C233 C91 1.161 . S
C248 C13 1.097 . S
C260 C52 1.109 . S
C275 C65 1.102 . S
C287 C26 1.116 . S
C302 C39 1.093 . S
C314 C78 1.104 . S
C329 C104 1.115 . S
C341 C195 1.132 . S
C356 C156 1.094 . S
C368 C117 1.105 . S
C383 C169 1.183 . S
C395 C130 1.169 . S
C410 C182 1.177 . S
C422 C143 1.163 . S
C437 C5 1.116 . S
C449 C153 1.190 . S
C464 C18 1.088 . S
C476 C114 1.216 . S
C491 C127 1.213 . S
C503 C31 1.120 . S
C518 C44 1.135 . S
C530 C140 1.216 . S
C545 C57 1.042 . S
C557 C179 1.216 . S
C572 C192 1.190 . S
C584 C70 1.067 . S
C599 C83 1.176 . S
C611 C205 1.199 . S
C626 C166 1.214 . S
C638 C96 1.153 . S
C653 C109 1.132 . S
C665 C49 1.189 . S
C680 C10 1.204 . S
C692 C122 1.031 . S
C707 C135 1.040 . S
C719 C23 1.215 . S
C734 C36 1.196 . S
C746 C148 1.039 . S
C761 C161 1.168 . S
C773 C75 1.190 . S
C788 C88 1.209 . S
C800 C174 1.039 . S
C815 C101 1.209 . S
C827 C187 1.144 . S
C842 C62 1.216 . S
C854 C200 1.135 . S
C869 C60 1.503 . S
C881 C8 1.557 . S
C896 C73 1.538 . S
C908 C21 1.504 . S
C923 C34 1.536 . S
C935 C86 1.535 . S
C950 C99 1.549 . S
C962 C47 1.494 . S
C977 C164 1.558 . S
C989 C112 1.493 . S
C1004 C177 1.491 . S
C1016 C125 1.555 . S
C1031 C138 1.546 . S
C1043 C190 1.524 . S
C1058 C203 1.537 . S
C1070 C151 1.505 . S
