# Generated by pormake.
# Topology rob, (6)-cn, num edge types: 1
# Building blocks:
#     Node 0, Type 0, BuildingBlock: BETGAK_clean_sbu_0, # of connection points: 6
#     Node 1, Type 0, BuildingBlock: BETGAK_clean_sbu_0, # of connection points: 6
#     Node 2, Type 0, BuildingBlock: BETGAK_clean_sbu_0, # of connection points: 6
#     Node 3, Type 0, BuildingBlock: BETGAK_clean_sbu_0, # of connection points: 6
#     Edge 4, Type (0, 0), BuildingBlock: UKIBUN_clean_linker_0, # of connection points: 2
#     Edge 5, Type (0, 0), BuildingBlock: UKIBUN_clean_linker_0, # of connection points: 2
#     Edge 6, Type (0, 0), BuildingBlock: UKIBUN_clean_linker_0, # of connection points: 2
#     Edge 7, Type (0, 0), BuildingBlock: UKIBUN_clean_linker_0, # of connection points: 2
#     Edge 8, Type (0, 0), BuildingBlock: UKIBUN_clean_linker_0, # of connection points: 2
#     Edge 9, Type (0, 0), BuildingBlock: UKIBUN_clean_linker_0, # of connection points: 2
#     Edge 10, Type (0, 0), BuildingBlock: UKIBUN_clean_linker_0, # of connection points: 2
#     Edge 11, Type (0, 0), BuildingBlock: UKIBUN_clean_linker_0, # of connection points: 2
#     Edge 12, Type (0, 0), BuildingBlock: UKIBUN_clean_linker_0, # of connection points: 2
#     Edge 13, Type (0, 0), BuildingBlock: UKIBUN_clean_linker_0, # of connection points: 2
#     Edge 14, Type (0, 0), BuildingBlock: UKIBUN_clean_linker_0, # of connection points: 2
#     Edge 15, Type (0, 0), BuildingBlock: UKIBUN_clean_linker_0, # of connection points: 2
# Relax obj value: 0.083
# Max RMSD: 0.160
# Mean RMSD: 0.160
data_MOF--net-rob--node1-BETGAK_clean_sbu_0--edge1-UKIBUN_clean_linker_0
_symmetry_space_group_name_H-M    P1
_symmetry_Int_Tables_number       1
_symmetry_cell_setting            triclinic
loop_
_symmetry_equiv_pos_as_xyz
'x, y, z'
_cell_length_a     23.397414
_cell_length_b     42.163451
_cell_length_c     55.43528
_cell_angle_alpha  89.890549
_cell_angle_beta   117.01875
_cell_angle_gamma 90.020352
loop_
_atom_site_label
_atom_site_type_symbol
_atom_site_fract_x
_atom_site_fract_y
_atom_site_fract_z
_atom_type_partial_charge
La0 La 0.19329 0.27412 0.00608 0.0
La1 La 0.30039 0.24634 0.99438 0.0
C2 C 0.11894 0.28025 0.02802 0.0
C3 C 0.1199 0.28634 0.05491 0.0
C4 C 0.10748 0.31676 0.06208 0.0
C5 C 0.09634 0.32099 0.08478 0.0
C6 C 0.09658 0.29481 0.10051 0.0
C7 C 0.1126 0.26489 0.09435 0.0
C8 C 0.12415 0.26072 0.07196 0.0
C9 C 0.27038 0.3167 0.00093 0.0
C10 C 0.32875 0.25349 0.05503 0.0
C11 C 0.37603 0.2406 0.97292 0.0
C12 C 0.37657 0.23438 0.94634 0.0
C13 C 0.38387 0.2036 0.93823 0.0
C14 C 0.39409 0.19892 0.91534 0.0
C15 C 0.39769 0.22492 0.90011 0.0
C16 C 0.38943 0.25551 0.90801 0.0
C17 C 0.37854 0.26011 0.93055 0.0
C18 C 0.22423 0.20308 -0.00092 0.0
C19 C 0.16344 0.26613 0.94544 0.0
O20 O 0.13295 0.30341 0.01585 0.0
O21 O 0.14193 0.25316 0.0248 0.0
O22 O 0.21171 0.32199 0.99648 0.0
O23 O 0.28628 0.28936 0.01133 0.0
O24 O 0.26848 0.26221 0.04582 0.0
O25 O 0.35626 0.24847 0.03894 0.0
O26 O 0.36319 0.21752 0.98551 0.0
O27 O 0.35035 0.26716 0.9752 0.0
O28 O 0.28277 0.19844 0.00317 0.0
O29 O 0.20736 0.23065 0.98912 0.0
O30 O 0.22459 0.25868 0.95474 0.0
O31 O 0.1364 0.27096 0.96173 0.0
H32 H 0.10367 0.33709 0.0495 0.0
H33 H 0.08479 0.34441 0.0893 0.0
H34 H 0.11496 0.24442 0.10662 0.0
H35 H 0.13374 0.23698 0.06737 0.0
H36 H 0.38323 0.18316 0.94993 0.0
H37 H 0.39918 0.17493 0.90963 0.0
H38 H 0.3931 0.27622 0.89723 0.0
H39 H 0.3742 0.28419 0.93623 0.0
La40 La 0.69094 0.7745 0.00607 0.0
La41 La 0.80312 0.7457 0.99399 0.0
C42 C 0.61624 0.78086 0.0276 0.0
C43 C 0.61819 0.78633 0.05462 0.0
C44 C 0.61067 0.81686 0.06314 0.0
C45 C 0.59994 0.82081 0.08595 0.0
C46 C 0.59626 0.79428 0.10062 0.0
C47 C 0.60656 0.76405 0.0927 0.0
C48 C 0.6179 0.76019 0.07028 0.0
C49 C 0.76601 0.81747 0.00018 0.0
C50 C 0.83027 0.75538 0.05457 0.0
C51 C 0.87822 0.74019 0.97269 0.0
C52 C 0.87594 0.73411 0.94563 0.0
C53 C 0.88322 0.70348 0.93716 0.0
C54 C 0.89348 0.69937 0.91422 0.0
C55 C 0.89692 0.7258 0.89939 0.0
C56 C 0.88665 0.75607 0.90721 0.0
C57 C 0.8757 0.76009 0.9297 0.0
C58 C 0.72485 0.70127 0.99657 0.0
C59 C 0.66509 0.76519 0.94564 0.0
O60 O 0.63152 0.80416 0.01602 0.0
O61 O 0.63774 0.7537 0.02375 0.0
O62 O 0.71045 0.82288 -0.0008 0.0
O63 O 0.78226 0.78929 0.00876 0.0
O64 O 0.76963 0.76422 0.04541 0.0
O65 O 0.85736 0.74846 0.03851 0.0
O66 O 0.86596 0.71691 0.98536 0.0
O67 O 0.85409 0.76711 0.9756 0.0
O68 O 0.77688 0.69593 0.99449 0.0
O69 O 0.71821 0.73105 0.99539 0.0
O70 O 0.72596 0.75741 0.95474 0.0
O71 O 0.63702 0.77057 0.96153 0.0
H72 H 0.6104 0.8376 0.05156 0.0
H73 H 0.59306 0.84451 0.09166 0.0
H74 H 0.60267 0.74291 0.10296 0.0
H75 H 0.62283 0.73632 0.06434 0.0
H76 H 0.88365 0.68283 0.94886 0.0
H77 H 0.90028 0.67563 0.90855 0.0
H78 H 0.89033 0.77716 0.89684 0.0
H79 H 0.87076 0.78402 0.93552 0.0
La80 La 0.29938 0.77428 0.49406 0.0
La81 La 0.19235 0.74551 0.50577 0.0
C82 C 0.37393 0.7801 0.47217 0.0
C83 C 0.37322 0.78625 0.4453 0.0
C84 C 0.38573 0.81668 0.43809 0.0
C85 C 0.3969 0.82094 0.41538 0.0
C86 C 0.39665 0.79479 0.39969 0.0
C87 C 0.38058 0.76488 0.40589 0.0
C88 C 0.369 0.76067 0.42829 0.0
C89 C 0.22054 0.81614 0.49876 0.0
C90 C 0.16419 0.75323 0.44514 0.0
C91 C 0.11794 0.73974 0.52769 0.0
C92 C 0.1193 0.73368 0.55465 0.0
C93 C 0.10718 0.70328 0.562 0.0
C94 C 0.09631 0.69909 0.58478 0.0
C95 C 0.09655 0.7253 0.60041 0.0
C96 C 0.11242 0.7552 0.59411 0.0
C97 C 0.12367 0.75934 0.57162 0.0
C98 C 0.26861 0.70335 0.50058 0.0
C99 C 0.32942 0.76567 0.55471 0.0
O100 O 0.36054 0.8033 0.48446 0.0
O101 O 0.35027 0.75312 0.47528 0.0
O102 O 0.27822 0.82233 0.50232 0.0
O103 O 0.20605 0.7886 0.48883 0.0
O104 O 0.22445 0.76205 0.45436 0.0
O105 O 0.13659 0.74802 0.4612 0.0
O106 O 0.13091 0.71653 0.5153 0.0
O107 O 0.14186 0.76657 0.52459 0.0
O108 O 0.21015 0.69793 0.49625 0.0
O109 O 0.28556 0.73061 0.51107 0.0
O110 O 0.26889 0.75701 0.54541 0.0
O111 O 0.35606 0.77172 0.53844 0.0
H112 H 0.38952 0.83698 0.45064 0.0
H113 H 0.40846 0.84437 0.41083 0.0
H114 H 0.37819 0.74443 0.39365 0.0
H115 H 0.35936 0.73692 0.43291 0.0
H116 H 0.10336 0.68293 0.54949 0.0
H117 H 0.08492 0.67567 0.58942 0.0
H118 H 0.1148 0.77569 0.6063 0.0
H119 H 0.13303 0.78308 0.56688 0.0
La120 La 0.79938 0.27481 0.49428 0.0
La121 La 0.69121 0.24563 0.50608 0.0
C122 C 0.87387 0.28226 0.47247 0.0
C123 C 0.87341 0.2871 0.44551 0.0
C124 C 0.88161 0.31744 0.43676 0.0
C125 C 0.89309 0.32105 0.41409 0.0
C126 C 0.89696 0.29438 0.39969 0.0
C127 C 0.88646 0.26428 0.40787 0.0
C128 C 0.87448 0.26073 0.43023 0.0
C129 C 0.72164 0.31585 0.50029 0.0
C130 C 0.66258 0.25459 0.4453 0.0
C131 C 0.61739 0.24165 0.52827 0.0
C132 C 0.61986 0.23448 0.55527 0.0
C133 C 0.60903 0.20363 0.56218 0.0
C134 C 0.598 0.19847 0.58478 0.0
C135 C 0.59701 0.22409 0.60074 0.0
C136 C 0.61255 0.25441 0.59512 0.0
C137 C 0.62394 0.25952 0.57275 0.0
C138 C 0.76721 0.2027 0.50129 0.0
C139 C 0.82808 0.26595 0.55468 0.0
O140 O 0.85552 0.30548 0.48302 0.0
O141 O 0.85489 0.25474 0.47717 0.0
O142 O 0.78073 0.32186 0.5057 0.0
O143 O 0.70629 0.28883 0.48936 0.0
O144 O 0.72268 0.26401 0.45464 0.0
O145 O 0.6359 0.24769 0.46146 0.0
O146 O 0.62577 0.21853 0.51441 0.0
O147 O 0.64458 0.26795 0.52613 0.0
O148 O 0.71253 0.19673 0.50103 0.0
O149 O 0.78295 0.23089 0.50986 0.0
O150 O 0.76751 0.25763 0.54552 0.0
O151 O 0.85567 0.27131 0.53865 0.0
H152 H 0.88161 0.33834 0.44805 0.0
H153 H 0.90019 0.34467 0.40822 0.0
H154 H 0.8905 0.24302 0.39782 0.0
H155 H 0.86929 0.23696 0.43634 0.0
H156 H 0.60564 0.1837 0.54932 0.0
H157 H 0.58629 0.17478 0.58872 0.0
H158 H 0.61337 0.27449 0.60745 0.0
H159 H 0.6325 0.28356 0.56834 0.0
C160 C 0.69169 0.64568 0.98768 0.0
C161 C 0.68541 0.6748 -0.00139 0.0
C162 C 0.66619 0.61787 0.99227 0.0
C163 C 0.57739 0.50575 0.00613 0.0
C164 C 0.3136 0.37055 0.01874 0.0
C165 C 0.31615 0.34304 0.00497 0.0
C166 C 0.35366 0.39646 0.02148 0.0
C167 C 0.49805 0.50106 0.0315 0.0
H168 H 0.71829 0.64412 0.97603 0.0
H169 H 0.67333 0.59581 0.98401 0.0
H170 H 0.60729 0.50738 0.99591 0.0
H171 H 0.28043 0.37204 0.02737 0.0
H172 H 0.35067 0.41735 0.0322 0.0
H173 H 0.46687 0.49973 0.04113 0.0
C174 C 0.65057 0.67554 0.01365 0.0
C175 C 0.62428 0.64737 0.01813 0.0
C176 C 0.52819 0.52984 0.03175 0.0
C177 C 0.35946 0.34226 0.99384 0.0
C178 C 0.3993 0.36828 0.99642 0.0
C179 C 0.54725 0.47692 0.00589 0.0
C180 C 0.63316 0.61839 0.00778 0.0
C181 C 0.60958 0.58885 0.01299 0.0
C182 C 0.59163 0.56307 0.01627 0.0
C183 C 0.56682 0.53248 0.01858 0.0
H184 H 0.64634 0.69706 0.02308 0.0
H185 H 0.59864 0.64806 0.0302 0.0
H186 H 0.51973 0.55027 0.04152 0.0
H187 H 0.36122 0.32224 0.98226 0.0
H188 H 0.43163 0.36721 0.98733 0.0
H189 H 0.55445 0.45672 0.99554 0.0
C190 C 0.39667 0.39554 0.01031 0.0
C191 C 0.43717 0.42268 0.0129 0.0
C192 C 0.47005 0.4459 0.01557 0.0
C193 C 0.50633 0.47463 0.01809 0.0
C194 C 0.36343 0.6667 0.52483 0.0
C195 C 0.3103 0.67683 0.50092 0.0
C196 C 0.39043 0.63651 0.52601 0.0
C197 C 0.48978 0.51596 0.52974 0.0
C198 C 0.61957 0.34817 0.47802 0.0
C199 C 0.67716 0.34045 0.50104 0.0
C200 C 0.58235 0.37414 0.47856 0.0
C201 C 0.44254 0.4796 0.48243 0.0
H202 H 0.38135 0.68112 0.54294 0.0
H203 H 0.4299 0.62853 0.5448 0.0
H204 H 0.50911 0.53001 0.54809 0.0
H205 H 0.60449 0.33484 0.45944 0.0
H206 H 0.53878 0.38012 0.46053 0.0
H207 H 0.42414 0.46595 0.46388 0.0
C208 C 0.28681 0.65699 0.47815 0.0
C209 C 0.31373 0.62713 0.4793 0.0
C210 C 0.41207 0.50807 0.48291 0.0
C211 C 0.69624 0.35885 0.5245 0.0
C212 C 0.65866 0.38437 0.52517 0.0
C213 C 0.52023 0.4875 0.52926 0.0
C214 C 0.36464 0.61636 0.50335 0.0
C215 C 0.38911 0.58448 0.50471 0.0
C216 C 0.40966 0.55786 0.5059 0.0
C217 C 0.43643 0.52674 0.50639 0.0
H218 H 0.24525 0.66404 0.4597 0.0
H219 H 0.29327 0.61203 0.46159 0.0
H220 H 0.37076 0.51594 0.46471 0.0
H221 H 0.74071 0.35359 0.54234 0.0
H222 H 0.67463 0.39812 0.54359 0.0
H223 H 0.56246 0.48003 0.54727 0.0
C224 C 0.60166 0.39232 0.5022 0.0
C225 C 0.56363 0.41918 0.50298 0.0
C226 C 0.53278 0.44171 0.50418 0.0
C227 C 0.49762 0.4695 0.50543 0.0
C228 C 0.11784 0.1788 0.99239 0.0
C229 C 0.18122 0.17566 0.996 0.0
C230 C 0.0799 0.15163 0.98932 0.0
C231 C 0.94183 0.03767 0.97668 0.0
C232 C 0.86556 0.8409 -0.00174 0.0
C233 C 0.80514 0.84414 0.99782 0.0
C234 C 0.89661 0.8677 0.99432 0.0
C235 C 0.00667 0.98084 0.98001 0.0
H236 H 0.09763 0.20201 0.99184 0.0
H237 H 0.03118 0.15438 0.98649 0.0
H238 H 0.91654 0.05952 0.97572 0.0
H239 H 0.88867 0.81803 0.00156 0.0
H240 H 0.94271 0.86492 0.99437 0.0
H241 H 0.0326 0.95901 0.98165 0.0
C242 C 0.20558 0.14493 0.99681 0.0
C243 C 0.16773 0.11813 0.99341 0.0
C244 C 0.03554 1.00985 0.97977 0.0
C245 C 0.77811 0.8747 0.99425 0.0
C246 C 0.80906 0.90111 0.99067 0.0
C247 C 0.91295 1.00863 0.97694 0.0
C248 C 0.10458 0.12122 0.9894 0.0
C249 C 0.06579 0.09299 0.985 0.0
C250 C 0.03645 0.06836 0.98147 0.0
C251 C 0.00382 0.03842 0.9787 0.0
H252 H 0.25412 0.1414 -0.00033 0.0
H253 H 0.18788 0.09492 0.9937 0.0
H254 H 0.08334 1.00997 0.98124 0.0
H255 H 0.7321 0.87848 0.99404 0.0
H256 H 0.78638 0.92415 0.98789 0.0
H257 H 0.86582 1.0085 0.97617 0.0
C258 C 0.86798 0.89785 0.99036 0.0
C259 C 0.89793 0.92579 0.98603 0.0
C260 C 0.91934 0.95037 0.98229 0.0
C261 C 0.94591 0.98013 0.97919 0.0
C262 C 0.81293 0.14921 0.51757 0.0
C263 C 0.81006 0.17626 0.50214 0.0
C264 C 0.837 0.12045 0.5135 0.0
C265 C 0.92306 1.00552 0.50132 0.0
C266 C 0.16577 0.86692 0.47723 0.0
C267 C 0.17354 0.84169 0.49507 0.0
C268 C 0.12632 0.89282 0.47533 0.0
C269 C 0.98069 0.99713 0.46724 0.0
H270 H 0.79353 0.14991 0.53197 0.0
H271 H 0.83689 0.09985 0.52521 0.0
H272 H 0.90171 1.0086 0.51489 0.0
H273 H 0.19085 0.86675 0.46492 0.0
H274 H 0.12139 0.91199 0.46147 0.0
H275 H 0.00342 0.99438 0.45415 0.0
C276 C 0.83398 0.17404 0.48306 0.0
C277 C 0.8583 0.14506 0.47899 0.0
C278 C 0.95014 0.02583 0.46693 0.0
C279 C 0.14137 0.84311 0.51117 0.0
C280 C 0.10196 0.8691 0.50932 0.0
C281 C 0.95359 0.97679 0.50162 0.0
C282 C 0.85871 0.11798 0.49388 0.0
C283 C 0.88035 0.0875 0.48912 0.0
C284 C 0.89772 0.06133 0.48626 0.0
C285 C 0.92244 0.03044 0.48438 0.0
H286 H 0.83005 0.19395 0.47008 0.0
H287 H 0.87478 0.14357 0.46365 0.0
H288 H 0.94991 0.04476 0.45365 0.0
H289 H 0.1486 0.82489 0.52597 0.0
H290 H 0.0783 0.86983 0.52218 0.0
H291 H 0.95518 0.95814 0.51538 0.0
C292 C 0.09415 0.89412 0.49134 0.0
C293 C 0.05396 0.92123 0.48941 0.0
C294 C 0.02086 0.94426 0.48721 0.0
C295 C 0.98381 0.97268 0.48501 0.0
C296 C 0.58134 0.2325 0.40022 0.0
C297 C 0.62622 0.2557 0.4154 0.0
C298 C 0.55425 0.23284 0.37177 0.0
C299 C 0.436 0.24197 0.26006 0.0
C300 C 0.40009 0.27565 0.10052 0.0
C301 C 0.36218 0.25053 0.08468 0.0
C302 C 0.41152 0.27903 0.12753 0.0
C303 C 0.47352 0.28907 0.23461 0.0
H304 H 0.56829 0.21388 0.41026 0.0
H305 H 0.51924 0.21497 0.36023 0.0
H306 H 0.42167 0.22337 0.2697 0.0
H307 H 0.41743 0.29371 0.09156 0.0
H308 H 0.4402 0.29876 0.13938 0.0
H309 H 0.48926 0.3071 0.225 0.0
C310 C 0.64424 0.27875 0.40164 0.0
C311 C 0.61745 0.27902 0.3735 0.0
C312 C 0.49976 0.2884 0.2629 0.0
C313 C 0.3359 0.22906 0.09639 0.0
C314 C 0.34685 0.23257 0.12321 0.0
C315 C 0.40978 0.24263 0.2318 0.0
C316 C 0.57148 0.25646 0.35838 0.0
C317 C 0.53945 0.25901 0.32924 0.0
C318 C 0.51344 0.26172 0.30488 0.0
C319 C 0.48214 0.26439 0.27574 0.0
H320 H 0.6795 0.29676 0.41271 0.0
H321 H 0.63181 0.29726 0.36356 0.0
H322 H 0.53513 0.30601 0.27474 0.0
H323 H 0.3033 0.21067 0.08414 0.0
H324 H 0.32496 0.21602 0.13152 0.0
H325 H 0.37585 0.22446 0.22002 0.0
C326 C 0.38458 0.25762 0.13889 0.0
C327 C 0.39749 0.26074 0.16683 0.0
C328 C 0.40904 0.26389 0.19026 0.0
C329 C 0.42939 0.2658 0.21899 0.0
C330 C 0.53054 0.81902 0.12129 0.0
C331 C 0.5778 0.79718 0.12291 0.0
C332 C 0.50648 0.81799 0.14018 0.0
C333 C 0.4212 0.80803 0.21718 0.0
C334 C 0.45505 0.7754 0.37446 0.0
C335 C 0.41359 0.79779 0.37707 0.0
C336 C 0.46213 0.77407 0.35088 0.0
C337 C 0.47685 0.76149 0.25729 0.0
H338 H 0.50991 0.83583 0.10476 0.0
H339 H 0.46888 0.83431 0.13831 0.0
H340 H 0.40076 0.82651 0.20202 0.0
H341 H 0.47987 0.75805 0.39023 0.0
H342 H 0.49204 0.75579 0.3487 0.0
H343 H 0.4996 0.74389 0.27309 0.0
C344 C 0.60285 0.77568 0.14477 0.0
C345 C 0.57818 0.77441 0.16329 0.0
C346 C 0.48949 0.76166 0.2351 0.0
C347 C 0.38355 0.82053 0.35657 0.0
C348 C 0.39067 0.81915 0.33291 0.0
C349 C 0.4086 0.80786 0.23934 0.0
C350 C 0.52923 0.79507 0.16062 0.0
C351 C 0.50206 0.79209 0.17875 0.0
C352 C 0.48163 0.78818 0.19469 0.0
C353 C 0.46236 0.78526 0.21536 0.0
H354 H 0.64055 0.75919 0.14722 0.0
H355 H 0.59659 0.75691 0.17941 0.0
H356 H 0.522 0.7442 0.23382 0.0
H357 H 0.35167 0.83809 0.35813 0.0
H358 H 0.36488 0.83583 0.31664 0.0
H359 H 0.37846 0.82623 0.24121 0.0
C360 C 0.42818 0.79525 0.32984 0.0
C361 C 0.42942 0.79133 0.30466 0.0
C362 C 0.43127 0.78753 0.28372 0.0
C363 C 0.43732 0.78495 0.25953 0.0
C364 C 0.658 0.79035 0.90434 0.0
C365 C 0.63183 0.76858 0.91592 0.0
C366 C 0.6466 0.78735 0.87738 0.0
C367 C 0.58337 0.77751 0.76834 0.0
C368 C 0.34852 0.74133 0.59837 0.0
C369 C 0.3663 0.76439 0.58457 0.0
C370 C 0.37561 0.74102 0.62654 0.0
C371 C 0.49342 0.73173 0.73725 0.0
H372 H 0.69076 0.8086 0.91675 0.0
H373 H 0.66848 0.80409 0.8692 0.0
H374 H 0.6173 0.7957 0.7801 0.0
H375 H 0.3131 0.72338 0.5873 0.0
H376 H 0.36133 0.72278 0.63651 0.0
H377 H 0.45807 0.71411 0.72543 0.0
C378 C 0.59332 0.74384 0.89974 0.0
C379 C 0.58158 0.74093 0.87263 0.0
C380 C 0.51965 0.7311 0.76557 0.0
C381 C 0.41141 0.78754 0.59972 0.0
C382 C 0.43875 0.78719 0.62818 0.0
C383 C 0.55717 0.77815 0.74006 0.0
C384 C 0.60863 0.7625 0.86143 0.0
C385 C 0.59581 0.75955 0.83344 0.0
C386 C 0.58411 0.75639 0.80997 0.0
C387 C 0.56375 0.75439 0.78119 0.0
H388 H 0.57574 0.72565 0.90848 0.0
H389 H 0.55261 0.7214 0.8606 0.0
H390 H 0.50391 0.71308 0.77518 0.0
H391 H 0.42431 0.80617 0.58965 0.0
H392 H 0.47379 0.80507 0.63968 0.0
H393 H 0.57152 0.79673 0.73043 0.0
C394 C 0.42164 0.76358 0.64164 0.0
C395 C 0.45372 0.76109 0.67082 0.0
C396 C 0.47972 0.75839 0.69519 0.0
C397 C 0.51101 0.75573 0.72438 0.0
C398 C 0.52758 0.24105 0.62177 0.0
C399 C 0.574 0.22006 0.62144 0.0
C400 C 0.50431 0.23733 0.64065 0.0
C401 C 0.42414 0.22669 0.71768 0.0
C402 C 0.44953 0.19659 0.87484 0.0
C403 C 0.40863 0.22058 0.87582 0.0
C404 C 0.45771 0.19249 0.85157 0.0
C405 C 0.47901 0.17992 0.75762 0.0
H406 H 0.50853 0.2601 0.60712 0.0
H407 H 0.46839 0.25363 0.64056 0.0
H408 H 0.40384 0.24518 0.70251 0.0
H409 H 0.47522 0.18109 0.89199 0.0
H410 H 0.48864 0.17372 0.85093 0.0
H411 H 0.50133 0.16215 0.77329 0.0
C412 C 0.59669 0.19523 0.64045 0.0
C413 C 0.57355 0.19165 0.6595 0.0
C414 C 0.49181 0.18011 0.73551 0.0
C415 C 0.37755 0.24066 0.8532 0.0
C416 C 0.38617 0.23668 0.83018 0.0
C417 C 0.41135 0.22651 0.73984 0.0
C418 C 0.52718 0.21264 0.65938 0.0
C419 C 0.50336 0.20917 0.67864 0.0
C420 C 0.48386 0.20591 0.69496 0.0
C421 C 0.46503 0.20372 0.71582 0.0
H422 H 0.63256 0.17885 0.64069 0.0
H423 H 0.59163 0.17254 0.67419 0.0
H424 H 0.52398 0.1625 0.73419 0.0
H425 H 0.34502 0.25905 0.8529 0.0
H426 H 0.36113 0.25218 0.8129 0.0
H427 H 0.38121 0.24487 0.74173 0.0
C428 C 0.42534 0.21236 0.82925 0.0
C429 C 0.43065 0.20772 0.80498 0.0
C430 C 0.433 0.20513 0.78403 0.0
C431 C 0.43966 0.20337 0.75992 0.0
C432 C 0.91153 0.7329 0.09963 0.0
C433 C 0.86672 0.75625 0.08449 0.0
C434 C 0.93868 0.73302 0.12809 0.0
C435 C 0.05721 0.74198 0.24009 0.0
C436 C 0.09307 0.77559 0.39962 0.0
C437 C 0.13088 0.7504 0.41549 0.0
C438 C 0.0817 0.77903 0.3726 0.0
C439 C 0.0196 0.78905 0.26542 0.0
H440 H 0.9245 0.71437 0.08954 0.0
H441 H 0.97364 0.71507 0.13958 0.0
H442 H 0.0716 0.72339 0.23051 0.0
H443 H 0.07574 0.79364 0.40855 0.0
H444 H 0.05304 0.79879 0.36073 0.0
H445 H 0.00383 0.80707 0.27499 0.0
C446 C 0.84869 0.77909 0.09832 0.0
C447 C 0.87555 0.77915 0.12648 0.0
C448 C 0.99333 0.78839 0.23712 0.0
C449 C 0.15723 0.72897 0.40384 0.0
C450 C 0.14635 0.73254 0.37702 0.0
C451 C 0.08344 0.74263 0.26836 0.0
C452 C 0.92158 0.75654 0.14157 0.0
C453 C 0.95374 0.75898 0.17077 0.0
C454 C 0.97969 0.76171 0.19514 0.0
C455 C 0.01098 0.76439 0.22432 0.0
H456 H 0.81335 0.79713 0.08729 0.0
H457 H 0.86118 0.79729 0.13645 0.0
H458 H 0.95792 0.806 0.22524 0.0
H459 H 0.18978 0.71053 0.41612 0.0
H460 H 0.16826 0.716 0.36876 0.0
H461 H 0.11743 0.72446 0.28018 0.0
C462 C 0.10863 0.75762 0.36129 0.0
C463 C 0.09571 0.76074 0.33332 0.0
C464 C 0.08416 0.76387 0.30988 0.0
C465 C 0.06379 0.76578 0.28112 0.0
C466 C 0.96276 0.31894 0.37887 0.0
C467 C 0.91561 0.29708 0.37739 0.0
C468 C 0.98671 0.31792 0.35994 0.0
C469 C 0.07198 0.30797 0.28294 0.0
C470 C 0.03819 0.27542 0.12577 0.0
C471 C 0.07966 0.29779 0.12311 0.0
C472 C 0.03107 0.2741 0.14933 0.0
C473 C 0.0163 0.26151 0.24291 0.0
H474 H 0.98337 0.33577 0.39532 0.0
H475 H 0.02425 0.33425 0.36173 0.0
H476 H 0.09243 0.32643 0.29806 0.0
H477 H 0.01339 0.25809 0.11004 0.0
H478 H 0.00116 0.25582 0.15156 0.0
H479 H 0.99355 0.24395 0.22714 0.0
C480 C 0.89058 0.27556 0.35561 0.0
C481 C 0.91507 0.27435 0.337 0.0
C482 C 0.00363 0.26167 0.2651 0.0
C483 C 0.10966 0.32053 0.14355 0.0
C484 C 0.1025 0.31914 0.1672 0.0
C485 C 0.0846 0.30782 0.26078 0.0
C486 C 0.96394 0.29502 0.33956 0.0
C487 C 0.99106 0.29204 0.3214 0.0
C488 C 0.01147 0.28815 0.30546 0.0
C489 C 0.03077 0.28524 0.28479 0.0
H490 H 0.85299 0.25905 0.35326 0.0
H491 H 0.89664 0.25687 0.32093 0.0
H492 H 0.9711 0.24422 0.2664 0.0
H493 H 0.14155 0.33807 0.14195 0.0
H494 H 0.12826 0.33581 0.18342 0.0
H495 H 0.11477 0.32617 0.25888 0.0
C496 C 0.06498 0.29526 0.17032 0.0
C497 C 0.06376 0.29134 0.1955 0.0
C498 C 0.06192 0.28755 0.21645 0.0
C499 C 0.05586 0.28495 0.24064 0.0
C500 C 0.83526 0.29067 0.59592 0.0
C501 C 0.86147 0.26904 0.58433 0.0
C502 C 0.84662 0.28745 0.62283 0.0
C503 C 0.90986 0.27752 0.73177 0.0
C504 C 0.14471 0.24152 0.902 0.0
C505 C 0.12656 0.26461 0.91559 0.0
C506 C 0.11772 0.24107 0.87382 0.0
C507 C -8e-05 0.23171 0.76295 0.0
H508 H 0.80251 0.30898 0.58353 0.0
H509 H 0.82477 0.30411 0.63104 0.0
H510 H 0.87589 0.29571 0.71997 0.0
H511 H 0.18038 0.22371 0.91325 0.0
H512 H 0.13226 0.22281 0.864 0.0
H513 H 0.0353 0.21407 0.77481 0.0
C514 C 0.89978 0.24411 0.6004 0.0
C515 C 0.91153 0.241 0.62749 0.0
C516 C 0.97362 0.2311 0.73464 0.0
C517 C 0.08132 0.28766 0.90025 0.0
C518 C 0.05414 0.28718 0.87181 0.0
C519 C 0.93612 0.27813 0.76005 0.0
C520 C 0.88458 0.26251 0.63873 0.0
C521 C 0.89748 0.25949 0.66672 0.0
C522 C 0.90909 0.25638 0.69019 0.0
C523 C 0.92947 0.2544 0.71897 0.0
H524 H 0.91722 0.22598 0.59158 0.0
H525 H 0.94045 0.22138 0.63949 0.0
H526 H 0.98936 0.21309 0.72506 0.0
H527 H 0.06821 0.30633 0.91018 0.0
H528 H 0.01902 0.305 0.86016 0.0
H529 H 0.92177 0.2967 0.76965 0.0
C530 C 0.07153 0.26354 0.85853 0.0
C531 C 0.0396 0.26099 0.82935 0.0
C532 C 0.01367 0.25829 0.80497 0.0
C533 C 0.98234 0.25569 0.77579 0.0
C534 C 0.1097 0.69959 0.64354 0.0
C535 C 0.07971 0.72235 0.62305 0.0
C536 C 0.10253 0.70096 0.66719 0.0
C537 C 0.08461 0.71228 0.76074 0.0
C538 C 0.8902 0.74433 0.85519 0.0
C539 C 0.91528 0.72284 0.87706 0.0
C540 C 0.915 0.74566 0.83671 0.0
C541 C 0.00375 0.7585 0.76499 0.0
H542 H 0.14156 0.68202 0.64198 0.0
H543 H 0.12828 0.68427 0.68345 0.0
H544 H 0.11474 0.69392 0.75887 0.0
H545 H 0.8524 0.76078 0.8527 0.0
H546 H 0.89659 0.76315 0.82059 0.0
H547 H 0.97124 0.77596 0.76627 0.0
C548 C 0.03826 0.74475 0.62566 0.0
C549 C 0.03112 0.74606 0.64922 0.0
C550 C 0.0163 0.75864 0.74277 0.0
C551 C 0.96266 0.70106 0.87873 0.0
C552 C 0.98682 0.70213 0.85988 0.0
C553 C 0.07211 0.71215 0.78292 0.0
C554 C 0.06501 0.72486 0.67025 0.0
C555 C 0.06373 0.72877 0.69542 0.0
C556 C 0.06183 0.73257 0.71635 0.0
C557 C 0.05582 0.73518 0.74054 0.0
H558 H 0.01346 0.7621 0.60989 0.0
H559 H 0.00121 0.76434 0.6514 0.0
H560 H 0.99349 0.77621 0.72696 0.0
H561 H 0.98332 0.68427 0.89527 0.0
H562 H 0.02451 0.68585 0.86177 0.0
H563 H 0.0926 0.69369 0.79809 0.0
C564 C 0.96406 0.72505 0.83944 0.0
C565 C 0.9913 0.72807 0.82135 0.0
C566 C 0.01177 0.73202 0.80543 0.0
C567 C 0.03098 0.73492 0.78474 0.0
loop_
_geom_bond_atom_site_label_1
_geom_bond_atom_site_label_2
_geom_bond_distance
_geom_bond_site_symmetry_2
_ccdc_geom_bond_type
La0 C2 2.928 . S
La0 O20 2.521 . S
La0 O21 2.628 . S
La0 O22 2.554 . S
La0 O23 2.757 1_554 S
La0 O24 2.470 . S
La0 O29 2.482 . S
La0 O31 2.503 1_554 S
La1 C11 2.928 . S
La1 O23 2.482 . S
La1 O25 2.503 1_556 S
La1 O26 2.521 . S
La1 O27 2.628 . S
La1 O28 2.554 . S
La1 O29 2.757 1_556 S
La1 O30 2.470 . S
C2 La0 2.928 . S
C2 C3 1.503 . S
C2 O20 1.261 . S
C2 O21 1.243 . S
C3 C2 1.503 . S
C3 C4 1.394 . S
C3 C8 1.373 . S
C4 C3 1.394 . S
C4 C5 1.380 . S
C4 H32 0.930 . S
C5 C4 1.380 . S
C5 C6 1.376 . S
C5 H33 0.930 . S
C6 C5 1.376 . S
C6 C7 1.370 . S
C7 C6 1.370 . S
C7 C8 1.396 . S
C7 H34 0.929 . S
C8 C3 1.373 . S
C8 C7 1.396 . S
C8 H35 0.929 . S
C9 O22 1.240 . S
C9 O23 1.289 1_554 S
C10 O24 1.258 . S
C10 O25 1.256 . S
C11 La1 2.928 . S
C11 C12 1.503 . S
C11 O26 1.261 . S
C11 O27 1.243 . S
C12 C11 1.503 . S
C12 C13 1.394 . S
C12 C17 1.373 . S
C13 C12 1.394 . S
C13 C14 1.380 . S
C13 H36 0.930 . S
C14 C13 1.380 . S
C14 C15 1.376 . S
C14 H37 0.930 . S
C15 C14 1.376 . S
C15 C16 1.370 . S
C16 C15 1.370 . S
C16 C17 1.396 . S
C16 H38 0.929 . S
C17 C12 1.373 . S
C17 C16 1.396 . S
C17 H39 0.929 . S
C18 O28 1.230 1_554 S
C18 O29 1.294 . S
C19 O30 1.258 . S
C19 O31 1.256 . S
O20 La0 2.521 . S
O20 C2 1.261 . S
O21 La0 2.628 . S
O21 C2 1.243 . S
O22 La0 2.554 . S
O22 C9 1.240 . S
O23 La0 2.757 1_556 S
O23 La1 2.482 . S
O23 C9 1.289 1_556 S
O24 La0 2.470 . S
O24 C10 1.258 . S
O25 La1 2.503 1_554 S
O25 C10 1.256 . S
O26 La1 2.521 . S
O26 C11 1.261 . S
O27 La1 2.628 . S
O27 C11 1.243 . S
O28 La1 2.554 . S
O28 C18 1.230 1_556 S
O29 La0 2.482 . S
O29 La1 2.757 1_554 S
O29 C18 1.294 . S
O30 La1 2.470 . S
O30 C19 1.258 . S
O31 La0 2.503 1_556 S
O31 C19 1.256 . S
H32 C4 0.930 . S
H33 C5 0.930 . S
H34 C7 0.929 . S
H35 C8 0.929 . S
H36 C13 0.930 . S
H37 C14 0.930 . S
H38 C16 0.929 . S
H39 C17 0.929 . S
La40 C42 2.928 . S
La40 O60 2.521 . S
La40 O61 2.628 . S
La40 O62 2.554 . S
La40 O63 2.757 1_554 S
La40 O64 2.470 . S
La40 O69 2.482 . S
La40 O71 2.503 1_554 S
La41 C51 2.928 . S
La41 O63 2.482 . S
La41 O65 2.503 1_556 S
La41 O66 2.521 . S
La41 O67 2.628 . S
La41 O68 2.554 . S
La41 O69 2.757 1_556 S
La41 O70 2.470 . S
C42 La40 2.928 . S
C42 C43 1.503 . S
C42 O60 1.261 . S
C42 O61 1.243 . S
C43 C42 1.503 . S
C43 C44 1.394 . S
C43 C48 1.373 . S
C44 C43 1.394 . S
C44 C45 1.380 . S
C44 H72 0.930 . S
C45 C44 1.380 . S
C45 C46 1.376 . S
C45 H73 0.930 . S
C46 C45 1.376 . S
C46 C47 1.370 . S
C47 C46 1.370 . S
C47 C48 1.396 . S
C47 H74 0.929 . S
C48 C43 1.373 . S
C48 C47 1.396 . S
C48 H75 0.929 . S
C49 O62 1.240 . S
C49 O63 1.289 1_554 S
C50 O64 1.258 . S
C50 O65 1.256 . S
C51 La41 2.928 . S
C51 C52 1.503 . S
C51 O66 1.261 . S
C51 O67 1.243 . S
C52 C51 1.503 . S
C52 C53 1.394 . S
C52 C57 1.373 . S
C53 C52 1.394 . S
C53 C54 1.380 . S
C53 H76 0.930 . S
C54 C53 1.380 . S
C54 C55 1.376 . S
C54 H77 0.930 . S
C55 C54 1.376 . S
C55 C56 1.370 . S
C56 C55 1.370 . S
C56 C57 1.396 . S
C56 H78 0.929 . S
C57 C52 1.373 . S
C57 C56 1.396 . S
C57 H79 0.929 . S
C58 O68 1.230 1_554 S
C58 O69 1.294 . S
C59 O70 1.258 . S
C59 O71 1.256 . S
O60 La40 2.521 . S
O60 C42 1.261 . S
O61 La40 2.628 . S
O61 C42 1.243 . S
O62 La40 2.554 . S
O62 C49 1.240 . S
O63 La40 2.757 1_556 S
O63 La41 2.482 . S
O63 C49 1.289 1_556 S
O64 La40 2.470 . S
O64 C50 1.258 . S
O65 La41 2.503 1_554 S
O65 C50 1.256 . S
O66 La41 2.521 . S
O66 C51 1.261 . S
O67 La41 2.628 . S
O67 C51 1.243 . S
O68 La41 2.554 . S
O68 C58 1.230 1_556 S
O69 La40 2.482 . S
O69 La41 2.757 1_554 S
O69 C58 1.294 . S
O70 La41 2.470 . S
O70 C59 1.258 . S
O71 La40 2.503 1_556 S
O71 C59 1.256 . S
H72 C44 0.930 . S
H73 C45 0.930 . S
H74 C47 0.929 . S
H75 C48 0.929 . S
H76 C53 0.930 . S
H77 C54 0.930 . S
H78 C56 0.929 . S
H79 C57 0.929 . S
La80 C82 2.928 . S
La80 O100 2.521 . S
La80 O101 2.628 . S
La80 O102 2.554 . S
La80 O103 2.757 . S
La80 O104 2.470 . S
La80 O109 2.482 . S
La80 O111 2.503 . S
La81 C91 2.928 . S
La81 O103 2.482 . S
La81 O105 2.503 . S
La81 O106 2.521 . S
La81 O107 2.628 . S
La81 O108 2.554 . S
La81 O109 2.757 . S
La81 O110 2.470 . S
C82 La80 2.928 . S
C82 C83 1.503 . S
C82 O100 1.261 . S
C82 O101 1.243 . S
C83 C82 1.503 . S
C83 C84 1.394 . S
C83 C88 1.373 . S
C84 C83 1.394 . S
C84 C85 1.380 . S
C84 H112 0.930 . S
C85 C84 1.380 . S
C85 C86 1.376 . S
C85 H113 0.930 . S
C86 C85 1.376 . S
C86 C87 1.370 . S
C87 C86 1.370 . S
C87 C88 1.396 . S
C87 H114 0.929 . S
C88 C83 1.373 . S
C88 C87 1.396 . S
C88 H115 0.929 . S
C89 O102 1.240 . S
C89 O103 1.289 . S
C90 O104 1.258 . S
C90 O105 1.256 . S
C91 La81 2.928 . S
C91 C92 1.503 . S
C91 O106 1.261 . S
C91 O107 1.243 . S
C92 C91 1.503 . S
C92 C93 1.394 . S
C92 C97 1.373 . S
C93 C92 1.394 . S
C93 C94 1.380 . S
C93 H116 0.930 . S
C94 C93 1.380 . S
C94 C95 1.376 . S
C94 H117 0.930 . S
C95 C94 1.376 . S
C95 C96 1.370 . S
C96 C95 1.370 . S
C96 C97 1.396 . S
C96 H118 0.929 . S
C97 C92 1.373 . S
C97 C96 1.396 . S
C97 H119 0.929 . S
C98 O108 1.240 . S
C98 O109 1.289 . S
C99 O110 1.258 . S
C99 O111 1.256 . S
O100 La80 2.521 . S
O100 C82 1.261 . S
O101 La80 2.628 . S
O101 C82 1.243 . S
O102 La80 2.554 . S
O102 C89 1.240 . S
O103 La80 2.757 . S
O103 La81 2.482 . S
O103 C89 1.289 . S
O104 La80 2.470 . S
O104 C90 1.258 . S
O105 La81 2.503 . S
O105 C90 1.256 . S
O106 La81 2.521 . S
O106 C91 1.261 . S
O107 La81 2.628 . S
O107 C91 1.243 . S
O108 La81 2.554 . S
O108 C98 1.240 . S
O109 La80 2.482 . S
O109 La81 2.757 . S
O109 C98 1.289 . S
O110 La81 2.470 . S
O110 C99 1.258 . S
O111 La80 2.503 . S
O111 C99 1.256 . S
H112 C84 0.930 . S
H113 C85 0.930 . S
H114 C87 0.929 . S
H115 C88 0.929 . S
H116 C93 0.930 . S
H117 C94 0.930 . S
H118 C96 0.929 . S
H119 C97 0.929 . S
La120 C122 2.928 . S
La120 O140 2.521 . S
La120 O141 2.628 . S
La120 O142 2.554 . S
La120 O143 2.757 . S
La120 O144 2.470 . S
La120 O149 2.482 . S
La120 O151 2.503 . S
La121 C131 2.928 . S
La121 O143 2.482 . S
La121 O145 2.503 . S
La121 O146 2.521 . S
La121 O147 2.628 . S
La121 O148 2.554 . S
La121 O149 2.757 . S
La121 O150 2.470 . S
C122 La120 2.928 . S
C122 C123 1.503 . S
C122 O140 1.261 . S
C122 O141 1.243 . S
C123 C122 1.503 . S
C123 C124 1.394 . S
C123 C128 1.373 . S
C124 C123 1.394 . S
C124 C125 1.380 . S
C124 H152 0.930 . S
C125 C124 1.380 . S
C125 C126 1.376 . S
C125 H153 0.930 . S
C126 C125 1.376 . S
C126 C127 1.370 . S
C127 C126 1.370 . S
C127 C128 1.396 . S
C127 H154 0.929 . S
C128 C123 1.373 . S
C128 C127 1.396 . S
C128 H155 0.929 . S
C129 O142 1.240 . S
C129 O143 1.289 . S
C130 O144 1.258 . S
C130 O145 1.256 . S
C131 La121 2.928 . S
C131 C132 1.503 . S
C131 O146 1.261 . S
C131 O147 1.243 . S
C132 C131 1.503 . S
C132 C133 1.394 . S
C132 C137 1.373 . S
C133 C132 1.394 . S
C133 C134 1.380 . S
C133 H156 0.930 . S
C134 C133 1.380 . S
C134 C135 1.376 . S
C134 H157 0.930 . S
C135 C134 1.376 . S
C135 C136 1.370 . S
C136 C135 1.370 . S
C136 C137 1.396 . S
C136 H158 0.929 . S
C137 C132 1.373 . S
C137 C136 1.396 . S
C137 H159 0.929 . S
C138 O148 1.240 . S
C138 O149 1.289 . S
C139 O150 1.258 . S
C139 O151 1.256 . S
O140 La120 2.521 . S
O140 C122 1.261 . S
O141 La120 2.628 . S
O141 C122 1.243 . S
O142 La120 2.554 . S
O142 C129 1.240 . S
O143 La120 2.757 . S
O143 La121 2.482 . S
O143 C129 1.289 . S
O144 La120 2.470 . S
O144 C130 1.258 . S
O145 La121 2.503 . S
O145 C130 1.256 . S
O146 La121 2.521 . S
O146 C131 1.261 . S
O147 La121 2.628 . S
O147 C131 1.243 . S
O148 La121 2.554 . S
O148 C138 1.240 . S
O149 La120 2.482 . S
O149 La121 2.757 . S
O149 C138 1.289 . S
O150 La121 2.470 . S
O150 C139 1.258 . S
O151 La120 2.503 . S
O151 C139 1.256 . S
H152 C124 0.930 . S
H153 C125 0.930 . S
H154 C127 0.929 . S
H155 C128 0.929 . S
H156 C133 0.930 . S
H157 C134 0.930 . S
H158 C136 0.929 . S
H159 C137 0.929 . S
C160 C161 1.420 1_556 S
C160 C162 1.385 . S
C160 H168 0.928 . S
C161 C160 1.420 1_554 S
C161 C174 1.420 . S
C162 C160 1.385 . S
C162 H169 0.929 . S
C162 C180 1.407 1_556 S
C163 H170 0.928 . S
C163 C179 1.374 . S
C163 C183 1.388 . S
C164 C165 1.420 . S
C164 C166 1.385 . S
C164 H171 0.928 . S
C165 C164 1.420 . S
C165 C177 1.420 1_554 S
C166 C164 1.385 . S
C166 H172 0.929 . S
C166 C190 1.407 . S
C167 H173 0.928 . S
C167 C176 1.374 . S
C167 C193 1.388 . S
H168 C160 0.928 . S
H169 C162 0.929 . S
H170 C163 0.928 . S
H171 C164 0.928 . S
H172 C166 0.929 . S
H173 C167 0.928 . S
C174 C161 1.420 . S
C174 C175 1.385 . S
C174 H184 0.928 . S
C175 C174 1.385 . S
C175 C180 1.407 . S
C175 H185 0.929 . S
C176 C167 1.374 . S
C176 C183 1.388 . S
C176 H186 0.928 . S
C177 C165 1.420 1_556 S
C177 C178 1.385 . S
C177 H187 0.928 . S
C178 C177 1.385 . S
C178 H188 0.929 . S
C178 C190 1.407 1_556 S
C179 C163 1.374 . S
C179 H189 0.928 . S
C179 C193 1.388 . S
C180 C162 1.407 1_554 S
C180 C175 1.407 . S
C180 C181 1.428 . S
C181 C180 1.428 . S
C181 C182 1.230 . S
C182 C181 1.230 . S
C182 C183 1.405 . S
C183 C163 1.388 . S
C183 C176 1.388 . S
C183 C182 1.405 . S
H184 C174 0.928 . S
H185 C175 0.929 . S
H186 C176 0.928 . S
H187 C177 0.928 . S
H188 C178 0.929 . S
H189 C179 0.928 . S
C190 C166 1.407 . S
C190 C178 1.407 1_554 S
C190 C191 1.428 . S
C191 C190 1.428 . S
C191 C192 1.230 . S
C192 C191 1.230 . S
C192 C193 1.405 . S
C193 C167 1.388 . S
C193 C179 1.388 . S
C193 C192 1.405 . S
C194 C195 1.420 . S
C194 C196 1.385 . S
C194 H202 0.928 . S
C195 C194 1.420 . S
C195 C208 1.420 . S
C196 C194 1.385 . S
C196 H203 0.929 . S
C196 C214 1.407 . S
C197 H204 0.928 . S
C197 C213 1.374 . S
C197 C217 1.388 . S
C198 C199 1.420 . S
C198 C200 1.385 . S
C198 H205 0.928 . S
C199 C198 1.420 . S
C199 C211 1.420 . S
C200 C198 1.385 . S
C200 H206 0.929 . S
C200 C224 1.407 . S
C201 H207 0.928 . S
C201 C210 1.374 . S
C201 C227 1.388 . S
H202 C194 0.928 . S
H203 C196 0.929 . S
H204 C197 0.928 . S
H205 C198 0.928 . S
H206 C200 0.929 . S
H207 C201 0.928 . S
C208 C195 1.420 . S
C208 C209 1.385 . S
C208 H218 0.928 . S
C209 C208 1.385 . S
C209 C214 1.407 . S
C209 H219 0.929 . S
C210 C201 1.374 . S
C210 C217 1.388 . S
C210 H220 0.928 . S
C211 C199 1.420 . S
C211 C212 1.385 . S
C211 H221 0.928 . S
C212 C211 1.385 . S
C212 H222 0.929 . S
C212 C224 1.407 . S
C213 C197 1.374 . S
C213 H223 0.928 . S
C213 C227 1.388 . S
C214 C196 1.407 . S
C214 C209 1.407 . S
C214 C215 1.428 . S
C215 C214 1.428 . S
C215 C216 1.230 . S
C216 C215 1.230 . S
C216 C217 1.405 . S
C217 C197 1.388 . S
C217 C210 1.388 . S
C217 C216 1.405 . S
H218 C208 0.928 . S
H219 C209 0.929 . S
H220 C210 0.928 . S
H221 C211 0.928 . S
H222 C212 0.929 . S
H223 C213 0.928 . S
C224 C200 1.407 . S
C224 C212 1.407 . S
C224 C225 1.428 . S
C225 C224 1.428 . S
C225 C226 1.230 . S
C226 C225 1.230 . S
C226 C227 1.405 . S
C227 C201 1.388 . S
C227 C213 1.388 . S
C227 C226 1.405 . S
C228 C229 1.416 . S
C228 C230 1.385 . S
C228 H236 0.928 . S
C229 C228 1.416 . S
C229 C242 1.423 . S
C230 C228 1.385 . S
C230 H237 0.929 . S
C230 C248 1.407 . S
C231 H238 0.928 . S
C231 C247 1.356 1_545 S
C231 C251 1.388 1_655 S
C232 C233 1.420 . S
C232 C234 1.385 1_554 S
C232 H239 0.928 . S
C233 C232 1.420 . S
C233 C245 1.420 1_554 S
C234 C232 1.385 1_556 S
C234 H240 0.929 . S
C234 C258 1.407 . S
C235 H241 0.928 . S
C235 C244 1.374 . S
C235 C261 1.388 1_455 S
H236 C228 0.928 . S
H237 C230 0.929 . S
H238 C231 0.928 . S
H239 C232 0.928 . S
H240 C234 0.929 . S
H241 C235 0.928 . S
C242 C229 1.423 . S
C242 C243 1.385 . S
C242 H252 0.929 1_556 S
C243 C242 1.385 . S
C243 C248 1.407 . S
C243 H253 0.929 . S
C244 C235 1.374 . S
C244 C251 1.388 1_565 S
C244 H254 0.928 . S
C245 C233 1.420 1_556 S
C245 C246 1.385 . S
C245 H255 0.928 . S
C246 C245 1.385 . S
C246 H256 0.929 . S
C246 C258 1.407 . S
C247 C231 1.356 1_565 S
C247 H257 0.927 1_565 S
C247 C261 1.406 . S
C248 C230 1.407 . S
C248 C243 1.407 . S
C248 C249 1.428 . S
C249 C248 1.428 . S
C249 C250 1.230 . S
C250 C249 1.230 . S
C250 C251 1.405 . S
C251 C231 1.388 1_455 S
C251 C244 1.388 1_545 S
C251 C250 1.405 . S
H252 C242 0.929 1_554 S
H253 C243 0.929 . S
H254 C244 0.928 . S
H255 C245 0.928 . S
H256 C246 0.929 . S
H257 C247 0.927 1_545 S
C258 C234 1.407 . S
C258 C246 1.407 . S
C258 C259 1.428 . S
C259 C258 1.428 . S
C259 C260 1.230 . S
C260 C259 1.230 . S
C260 C261 1.405 . S
C261 C235 1.388 1_655 S
C261 C247 1.406 . S
C261 C260 1.405 . S
C262 C263 1.420 . S
C262 C264 1.385 . S
C262 H270 0.928 . S
C263 C262 1.420 . S
C263 C276 1.420 . S
C264 C262 1.385 . S
C264 H271 0.929 . S
C264 C282 1.407 . S
C265 H272 0.928 . S
C265 C281 1.374 . S
C265 C285 1.388 1_565 S
C266 C267 1.420 . S
C266 C268 1.385 . S
C266 H273 0.928 . S
C267 C266 1.420 . S
C267 C279 1.420 . S
C268 C266 1.385 . S
C268 H274 0.929 . S
C268 C292 1.407 . S
C269 H275 0.928 . S
C269 C278 1.374 1_565 S
C269 C295 1.388 . S
H270 C262 0.928 . S
H271 C264 0.929 . S
H272 C265 0.928 . S
H273 C266 0.928 . S
H274 C268 0.929 . S
H275 C269 0.928 . S
C276 C263 1.420 . S
C276 C277 1.385 . S
C276 H286 0.928 . S
C277 C276 1.385 . S
C277 C282 1.407 . S
C277 H287 0.929 . S
C278 C269 1.374 1_545 S
C278 C285 1.388 . S
C278 H288 0.928 . S
C279 C267 1.420 . S
C279 C280 1.385 . S
C279 H289 0.928 . S
C280 C279 1.385 . S
C280 H290 0.929 . S
C280 C292 1.407 . S
C281 C265 1.374 . S
C281 H291 0.928 . S
C281 C295 1.388 . S
C282 C264 1.407 . S
C282 C277 1.407 . S
C282 C283 1.428 . S
C283 C282 1.428 . S
C283 C284 1.230 . S
C284 C283 1.230 . S
C284 C285 1.405 . S
C285 C265 1.388 1_545 S
C285 C278 1.388 . S
C285 C284 1.405 . S
H286 C276 0.928 . S
H287 C277 0.929 . S
H288 C278 0.928 . S
H289 C279 0.928 . S
H290 C280 0.929 . S
H291 C281 0.928 . S
C292 C268 1.407 . S
C292 C280 1.407 . S
C292 C293 1.428 . S
C293 C292 1.428 . S
C293 C294 1.230 . S
C294 C293 1.230 . S
C294 C295 1.405 1_455 S
C295 C269 1.388 . S
C295 C281 1.388 . S
C295 C294 1.405 1_655 S
C296 C297 1.420 . S
C296 C298 1.385 . S
C296 H304 0.928 . S
C297 C296 1.420 . S
C297 C310 1.420 . S
C298 C296 1.385 . S
C298 H305 0.929 . S
C298 C316 1.407 . S
C299 H306 0.928 . S
C299 C315 1.374 . S
C299 C319 1.388 . S
C300 C301 1.420 . S
C300 C302 1.385 . S
C300 H307 0.928 . S
C301 C300 1.420 . S
C301 C313 1.420 . S
C302 C300 1.385 . S
C302 H308 0.929 . S
C302 C326 1.407 . S
C303 H309 0.928 . S
C303 C312 1.374 . S
C303 C329 1.388 . S
H304 C296 0.928 . S
H305 C298 0.929 . S
H306 C299 0.928 . S
H307 C300 0.928 . S
H308 C302 0.929 . S
H309 C303 0.928 . S
C310 C297 1.420 . S
C310 C311 1.385 . S
C310 H320 0.928 . S
C311 C310 1.385 . S
C311 C316 1.407 . S
C311 H321 0.929 . S
C312 C303 1.374 . S
C312 C319 1.388 . S
C312 H322 0.928 . S
C313 C301 1.420 . S
C313 C314 1.385 . S
C313 H323 0.928 . S
C314 C313 1.385 . S
C314 H324 0.929 . S
C314 C326 1.407 . S
C315 C299 1.374 . S
C315 H325 0.928 . S
C315 C329 1.388 . S
C316 C298 1.407 . S
C316 C311 1.407 . S
C316 C317 1.428 . S
C317 C316 1.428 . S
C317 C318 1.230 . S
C318 C317 1.230 . S
C318 C319 1.405 . S
C319 C299 1.388 . S
C319 C312 1.388 . S
C319 C318 1.405 . S
H320 C310 0.928 . S
H321 C311 0.929 . S
H322 C312 0.928 . S
H323 C313 0.928 . S
H324 C314 0.929 . S
H325 C315 0.928 . S
C326 C302 1.407 . S
C326 C314 1.407 . S
C326 C327 1.428 . S
C327 C326 1.428 . S
C327 C328 1.230 . S
C328 C327 1.230 . S
C328 C329 1.405 . S
C329 C303 1.388 . S
C329 C315 1.388 . S
C329 C328 1.405 . S
C330 C331 1.420 . S
C330 C332 1.385 . S
C330 H338 0.928 . S
C331 C330 1.420 . S
C331 C344 1.420 . S
C332 C330 1.385 . S
C332 H339 0.929 . S
C332 C350 1.407 . S
C333 H340 0.928 . S
C333 C349 1.374 . S
C333 C353 1.388 . S
C334 C335 1.420 . S
C334 C336 1.385 . S
C334 H341 0.928 . S
C335 C334 1.420 . S
C335 C347 1.420 . S
C336 C334 1.385 . S
C336 H342 0.929 . S
C336 C360 1.407 . S
C337 H343 0.928 . S
C337 C346 1.374 . S
C337 C363 1.388 . S
H338 C330 0.928 . S
H339 C332 0.929 . S
H340 C333 0.928 . S
H341 C334 0.928 . S
H342 C336 0.929 . S
H343 C337 0.928 . S
C344 C331 1.420 . S
C344 C345 1.385 . S
C344 H354 0.928 . S
C345 C344 1.385 . S
C345 C350 1.407 . S
C345 H355 0.929 . S
C346 C337 1.374 . S
C346 C353 1.388 . S
C346 H356 0.928 . S
C347 C335 1.420 . S
C347 C348 1.385 . S
C347 H357 0.928 . S
C348 C347 1.385 . S
C348 H358 0.929 . S
C348 C360 1.407 . S
C349 C333 1.374 . S
C349 H359 0.928 . S
C349 C363 1.388 . S
C350 C332 1.407 . S
C350 C345 1.407 . S
C350 C351 1.428 . S
C351 C350 1.428 . S
C351 C352 1.230 . S
C352 C351 1.230 . S
C352 C353 1.405 . S
C353 C333 1.388 . S
C353 C346 1.388 . S
C353 C352 1.405 . S
H354 C344 0.928 . S
H355 C345 0.929 . S
H356 C346 0.928 . S
H357 C347 0.928 . S
H358 C348 0.929 . S
H359 C349 0.928 . S
C360 C336 1.407 . S
C360 C348 1.407 . S
C360 C361 1.428 . S
C361 C360 1.428 . S
C361 C362 1.230 . S
C362 C361 1.230 . S
C362 C363 1.405 . S
C363 C337 1.388 . S
C363 C349 1.388 . S
C363 C362 1.405 . S
C364 C365 1.420 . S
C364 C366 1.385 . S
C364 H372 0.928 . S
C365 C364 1.420 . S
C365 C378 1.420 . S
C366 C364 1.385 . S
C366 H373 0.929 . S
C366 C384 1.407 . S
C367 H374 0.928 . S
C367 C383 1.374 . S
C367 C387 1.388 . S
C368 C369 1.420 . S
C368 C370 1.385 . S
C368 H375 0.928 . S
C369 C368 1.420 . S
C369 C381 1.420 . S
C370 C368 1.385 . S
C370 H376 0.929 . S
C370 C394 1.407 . S
C371 H377 0.928 . S
C371 C380 1.374 . S
C371 C397 1.388 . S
H372 C364 0.928 . S
H373 C366 0.929 . S
H374 C367 0.928 . S
H375 C368 0.928 . S
H376 C370 0.929 . S
H377 C371 0.928 . S
C378 C365 1.420 . S
C378 C379 1.385 . S
C378 H388 0.928 . S
C379 C378 1.385 . S
C379 C384 1.407 . S
C379 H389 0.929 . S
C380 C371 1.374 . S
C380 C387 1.388 . S
C380 H390 0.928 . S
C381 C369 1.420 . S
C381 C382 1.385 . S
C381 H391 0.928 . S
C382 C381 1.385 . S
C382 H392 0.929 . S
C382 C394 1.407 . S
C383 C367 1.374 . S
C383 H393 0.928 . S
C383 C397 1.388 . S
C384 C366 1.407 . S
C384 C379 1.407 . S
C384 C385 1.428 . S
C385 C384 1.428 . S
C385 C386 1.230 . S
C386 C385 1.230 . S
C386 C387 1.405 . S
C387 C367 1.388 . S
C387 C380 1.388 . S
C387 C386 1.405 . S
H388 C378 0.928 . S
H389 C379 0.929 . S
H390 C380 0.928 . S
H391 C381 0.928 . S
H392 C382 0.929 . S
H393 C383 0.928 . S
C394 C370 1.407 . S
C394 C382 1.407 . S
C394 C395 1.428 . S
C395 C394 1.428 . S
C395 C396 1.230 . S
C396 C395 1.230 . S
C396 C397 1.405 . S
C397 C371 1.388 . S
C397 C383 1.388 . S
C397 C396 1.405 . S
C398 C399 1.420 . S
C398 C400 1.385 . S
C398 H406 0.928 . S
C399 C398 1.420 . S
C399 C412 1.420 . S
C400 C398 1.385 . S
C400 H407 0.929 . S
C400 C418 1.407 . S
C401 H408 0.928 . S
C401 C417 1.374 . S
C401 C421 1.388 . S
C402 C403 1.420 . S
C402 C404 1.385 . S
C402 H409 0.928 . S
C403 C402 1.420 . S
C403 C415 1.420 . S
C404 C402 1.385 . S
C404 H410 0.929 . S
C404 C428 1.407 . S
C405 H411 0.928 . S
C405 C414 1.374 . S
C405 C431 1.388 . S
H406 C398 0.928 . S
H407 C400 0.929 . S
H408 C401 0.928 . S
H409 C402 0.928 . S
H410 C404 0.929 . S
H411 C405 0.928 . S
C412 C399 1.420 . S
C412 C413 1.385 . S
C412 H422 0.928 . S
C413 C412 1.385 . S
C413 C418 1.407 . S
C413 H423 0.929 . S
C414 C405 1.374 . S
C414 C421 1.388 . S
C414 H424 0.928 . S
C415 C403 1.420 . S
C415 C416 1.385 . S
C415 H425 0.928 . S
C416 C415 1.385 . S
C416 H426 0.929 . S
C416 C428 1.407 . S
C417 C401 1.374 . S
C417 H427 0.928 . S
C417 C431 1.388 . S
C418 C400 1.407 . S
C418 C413 1.407 . S
C418 C419 1.428 . S
C419 C418 1.428 . S
C419 C420 1.230 . S
C420 C419 1.230 . S
C420 C421 1.405 . S
C421 C401 1.388 . S
C421 C414 1.388 . S
C421 C420 1.405 . S
H422 C412 0.928 . S
H423 C413 0.929 . S
H424 C414 0.928 . S
H425 C415 0.928 . S
H426 C416 0.929 . S
H427 C417 0.928 . S
C428 C404 1.407 . S
C428 C416 1.407 . S
C428 C429 1.428 . S
C429 C428 1.428 . S
C429 C430 1.230 . S
C430 C429 1.230 . S
C430 C431 1.405 . S
C431 C405 1.388 . S
C431 C417 1.388 . S
C431 C430 1.405 . S
C432 C433 1.420 . S
C432 C434 1.385 . S
C432 H440 0.928 . S
C433 C432 1.420 . S
C433 C446 1.420 . S
C434 C432 1.385 . S
C434 H441 0.929 . S
C434 C452 1.407 . S
C435 H442 0.928 . S
C435 C451 1.374 . S
C435 C455 1.388 . S
C436 C437 1.420 . S
C436 C438 1.385 . S
C436 H443 0.928 . S
C437 C436 1.420 . S
C437 C449 1.420 . S
C438 C436 1.385 . S
C438 H444 0.929 . S
C438 C462 1.407 . S
C439 H445 0.928 . S
C439 C448 1.374 1_455 S
C439 C465 1.388 . S
H440 C432 0.928 . S
H441 C434 0.929 . S
H442 C435 0.928 . S
H443 C436 0.928 . S
H444 C438 0.929 . S
H445 C439 0.928 . S
C446 C433 1.420 . S
C446 C447 1.385 . S
C446 H456 0.928 . S
C447 C446 1.385 . S
C447 C452 1.407 . S
C447 H457 0.929 . S
C448 C439 1.374 1_655 S
C448 C455 1.388 1_655 S
C448 H458 0.928 . S
C449 C437 1.420 . S
C449 C450 1.385 . S
C449 H459 0.928 . S
C450 C449 1.385 . S
C450 H460 0.929 . S
C450 C462 1.407 . S
C451 C435 1.374 . S
C451 H461 0.928 . S
C451 C465 1.388 . S
C452 C434 1.407 . S
C452 C447 1.407 . S
C452 C453 1.428 . S
C453 C452 1.428 . S
C453 C454 1.230 . S
C454 C453 1.230 . S
C454 C455 1.405 1_655 S
C455 C435 1.388 . S
C455 C448 1.388 1_455 S
C455 C454 1.405 1_455 S
H456 C446 0.928 . S
H457 C447 0.929 . S
H458 C448 0.928 . S
H459 C449 0.928 . S
H460 C450 0.929 . S
H461 C451 0.928 . S
C462 C438 1.407 . S
C462 C450 1.407 . S
C462 C463 1.428 . S
C463 C462 1.428 . S
C463 C464 1.230 . S
C464 C463 1.230 . S
C464 C465 1.405 . S
C465 C439 1.388 . S
C465 C451 1.388 . S
C465 C464 1.405 . S
C466 C467 1.420 . S
C466 C468 1.385 . S
C466 H474 0.928 . S
C467 C466 1.420 . S
C467 C480 1.420 . S
C468 C466 1.385 . S
C468 H475 0.929 1_655 S
C468 C486 1.407 . S
C469 H476 0.928 . S
C469 C485 1.374 . S
C469 C489 1.388 . S
C470 C471 1.420 . S
C470 C472 1.385 . S
C470 H477 0.928 . S
C471 C470 1.420 . S
C471 C483 1.420 . S
C472 C470 1.385 . S
C472 H478 0.929 . S
C472 C496 1.407 . S
C473 H479 0.928 . S
C473 C482 1.374 . S
C473 C499 1.388 . S
H474 C466 0.928 . S
H475 C468 0.929 1_455 S
H476 C469 0.928 . S
H477 C470 0.928 . S
H478 C472 0.929 . S
H479 C473 0.928 . S
C480 C467 1.420 . S
C480 C481 1.385 . S
C480 H490 0.928 . S
C481 C480 1.385 . S
C481 C486 1.407 . S
C481 H491 0.929 . S
C482 C473 1.374 . S
C482 C489 1.388 . S
C482 H492 0.928 1_455 S
C483 C471 1.420 . S
C483 C484 1.385 . S
C483 H493 0.928 . S
C484 C483 1.385 . S
C484 H494 0.929 . S
C484 C496 1.407 . S
C485 C469 1.374 . S
C485 H495 0.928 . S
C485 C499 1.388 . S
C486 C468 1.407 . S
C486 C481 1.407 . S
C486 C487 1.428 . S
C487 C486 1.428 . S
C487 C488 1.230 1_655 S
C488 C487 1.230 1_455 S
C488 C489 1.405 . S
C489 C469 1.388 . S
C489 C482 1.388 . S
C489 C488 1.405 . S
H490 C480 0.928 . S
H491 C481 0.929 . S
H492 C482 0.928 1_655 S
H493 C483 0.928 . S
H494 C484 0.929 . S
H495 C485 0.928 . S
C496 C472 1.407 . S
C496 C484 1.407 . S
C496 C497 1.428 . S
C497 C496 1.428 . S
C497 C498 1.230 . S
C498 C497 1.230 . S
C498 C499 1.405 . S
C499 C473 1.388 . S
C499 C485 1.388 . S
C499 C498 1.405 . S
C500 C501 1.420 . S
C500 C502 1.385 . S
C500 H508 0.928 . S
C501 C500 1.420 . S
C501 C514 1.420 . S
C502 C500 1.385 . S
C502 H509 0.929 . S
C502 C520 1.407 . S
C503 H510 0.928 . S
C503 C519 1.374 . S
C503 C523 1.388 . S
C504 C505 1.420 . S
C504 C506 1.385 . S
C504 H511 0.928 . S
C505 C504 1.420 . S
C505 C517 1.420 . S
C506 C504 1.385 . S
C506 H512 0.929 . S
C506 C530 1.407 . S
C507 H513 0.928 . S
C507 C516 1.374 1_455 S
C507 C533 1.388 1_455 S
H508 C500 0.928 . S
H509 C502 0.929 . S
H510 C503 0.928 . S
H511 C504 0.928 . S
H512 C506 0.929 . S
H513 C507 0.928 . S
C514 C501 1.420 . S
C514 C515 1.385 . S
C514 H524 0.928 . S
C515 C514 1.385 . S
C515 C520 1.407 . S
C515 H525 0.929 . S
C516 C507 1.374 1_655 S
C516 C523 1.388 . S
C516 H526 0.928 . S
C517 C505 1.420 . S
C517 C518 1.385 . S
C517 H527 0.928 . S
C518 C517 1.385 . S
C518 H528 0.929 . S
C518 C530 1.407 . S
C519 C503 1.374 . S
C519 H529 0.928 . S
C519 C533 1.388 . S
C520 C502 1.407 . S
C520 C515 1.407 . S
C520 C521 1.428 . S
C521 C520 1.428 . S
C521 C522 1.230 . S
C522 C521 1.230 . S
C522 C523 1.405 . S
C523 C503 1.388 . S
C523 C516 1.388 . S
C523 C522 1.405 . S
H524 C514 0.928 . S
H525 C515 0.929 . S
H526 C516 0.928 . S
H527 C517 0.928 . S
H528 C518 0.929 . S
H529 C519 0.928 . S
C530 C506 1.407 . S
C530 C518 1.407 . S
C530 C531 1.428 . S
C531 C530 1.428 . S
C531 C532 1.230 . S
C532 C531 1.230 . S
C532 C533 1.405 1_455 S
C533 C507 1.388 1_655 S
C533 C519 1.388 . S
C533 C532 1.405 1_655 S
C534 C535 1.420 . S
C534 C536 1.385 . S
C534 H542 0.928 . S
C535 C534 1.420 . S
C535 C548 1.420 . S
C536 C534 1.385 . S
C536 H543 0.929 . S
C536 C554 1.407 . S
C537 H544 0.928 . S
C537 C553 1.374 . S
C537 C557 1.388 . S
C538 C539 1.420 . S
C538 C540 1.385 . S
C538 H545 0.928 . S
C539 C538 1.420 . S
C539 C551 1.420 . S
C540 C538 1.385 . S
C540 H546 0.929 . S
C540 C564 1.407 . S
C541 H547 0.928 1_455 S
C541 C550 1.374 . S
C541 C567 1.388 . S
H542 C534 0.928 . S
H543 C536 0.929 . S
H544 C537 0.928 . S
H545 C538 0.928 . S
H546 C540 0.929 . S
H547 C541 0.928 1_655 S
C548 C535 1.420 . S
C548 C549 1.385 . S
C548 H558 0.928 . S
C549 C548 1.385 . S
C549 C554 1.407 . S
C549 H559 0.929 . S
C550 C541 1.374 . S
C550 C557 1.388 . S
C550 H560 0.928 . S
C551 C539 1.420 . S
C551 C552 1.385 . S
C551 H561 0.928 . S
C552 C551 1.385 . S
C552 H562 0.929 1_655 S
C552 C564 1.407 . S
C553 C537 1.374 . S
C553 H563 0.928 . S
C553 C567 1.388 . S
C554 C536 1.407 . S
C554 C549 1.407 . S
C554 C555 1.428 . S
C555 C554 1.428 . S
C555 C556 1.230 . S
C556 C555 1.230 . S
C556 C557 1.405 . S
C557 C537 1.388 . S
C557 C550 1.388 . S
C557 C556 1.405 . S
H558 C548 0.928 . S
H559 C549 0.929 . S
H560 C550 0.928 . S
H561 C551 0.928 . S
H562 C552 0.929 1_455 S
H563 C553 0.928 . S
C564 C540 1.407 . S
C564 C552 1.407 . S
C564 C565 1.428 . S
C565 C564 1.428 . S
C565 C566 1.230 1_655 S
C566 C565 1.230 1_455 S
C566 C567 1.405 . S
C567 C541 1.388 . S
C567 C553 1.388 . S
C567 C566 1.405 . S
C161 C58 1.512 . S
C165 C9 1.515 . S
C195 C98 1.502 . S
C199 C129 1.519 . S
C229 C18 1.518 1_556 S
C233 C49 1.512 . S
C263 C138 1.505 . S
C267 C89 1.517 . S
C297 C130 1.387 . S
C301 C10 1.390 . S
C331 C46 0.782 . S
C335 C86 0.770 . S
C365 C59 1.390 . S
C369 C99 1.387 . S
C399 C135 0.790 . S
C403 C15 0.779 . S
C433 C50 1.387 . S
C437 C90 1.390 . S
C467 C126 0.782 . S
C471 C6 0.770 . S
C501 C139 1.390 . S
C505 C19 1.387 . S
C535 C95 0.770 . S
C539 C55 0.782 . S
