# Generated by pormake.
# Topology som, (6)-cn, num edge types: 1
# Building blocks:
#     Node 0, Type 0, BuildingBlock: BETFAJ_clean_sbu_0, # of connection points: 6
#     Node 1, Type 0, BuildingBlock: BETFAJ_clean_sbu_0, # of connection points: 6
#     Node 2, Type 0, BuildingBlock: BETFAJ_clean_sbu_0, # of connection points: 6
#     Node 3, Type 0, BuildingBlock: BETFAJ_clean_sbu_0, # of connection points: 6
#     Node 4, Type 0, BuildingBlock: BETFAJ_clean_sbu_0, # of connection points: 6
#     Node 5, Type 0, BuildingBlock: BETFAJ_clean_sbu_0, # of connection points: 6
#     Node 6, Type 0, BuildingBlock: BETFAJ_clean_sbu_0, # of connection points: 6
#     Node 7, Type 0, BuildingBlock: BETFAJ_clean_sbu_0, # of connection points: 6
#     Node 8, Type 0, BuildingBlock: BETFAJ_clean_sbu_0, # of connection points: 6
#     Node 9, Type 0, BuildingBlock: BETFAJ_clean_sbu_0, # of connection points: 6
#     Node 10, Type 0, BuildingBlock: BETFAJ_clean_sbu_0, # of connection points: 6
#     Node 11, Type 0, BuildingBlock: BETFAJ_clean_sbu_0, # of connection points: 6
#     Node 12, Type 0, BuildingBlock: BETFAJ_clean_sbu_0, # of connection points: 6
#     Node 13, Type 0, BuildingBlock: BETFAJ_clean_sbu_0, # of connection points: 6
#     Node 14, Type 0, BuildingBlock: BETFAJ_clean_sbu_0, # of connection points: 6
#     Node 15, Type 0, BuildingBlock: BETFAJ_clean_sbu_0, # of connection points: 6
#     Node 16, Type 0, BuildingBlock: BETFAJ_clean_sbu_0, # of connection points: 6
#     Node 17, Type 0, BuildingBlock: BETFAJ_clean_sbu_0, # of connection points: 6
#     Node 18, Type 0, BuildingBlock: BETFAJ_clean_sbu_0, # of connection points: 6
#     Node 19, Type 0, BuildingBlock: BETFAJ_clean_sbu_0, # of connection points: 6
#     Node 20, Type 0, BuildingBlock: BETFAJ_clean_sbu_0, # of connection points: 6
#     Node 21, Type 0, BuildingBlock: BETFAJ_clean_sbu_0, # of connection points: 6
#     Node 22, Type 0, BuildingBlock: BETFAJ_clean_sbu_0, # of connection points: 6
#     Node 23, Type 0, BuildingBlock: BETFAJ_clean_sbu_0, # of connection points: 6
#     Node 24, Type 0, BuildingBlock: BETFAJ_clean_sbu_0, # of connection points: 6
#     Node 25, Type 0, BuildingBlock: BETFAJ_clean_sbu_0, # of connection points: 6
#     Node 26, Type 0, BuildingBlock: BETFAJ_clean_sbu_0, # of connection points: 6
#     Node 27, Type 0, BuildingBlock: BETFAJ_clean_sbu_0, # of connection points: 6
#     Node 28, Type 0, BuildingBlock: BETFAJ_clean_sbu_0, # of connection points: 6
#     Node 29, Type 0, BuildingBlock: BETFAJ_clean_sbu_0, # of connection points: 6
#     Node 30, Type 0, BuildingBlock: BETFAJ_clean_sbu_0, # of connection points: 6
#     Node 31, Type 0, BuildingBlock: BETFAJ_clean_sbu_0, # of connection points: 6
#     Edge 32, Type (0, 0), BuildingBlock: UVAHIK_clean_linker_0, # of connection points: 2
#     Edge 33, Type (0, 0), BuildingBlock: UVAHIK_clean_linker_0, # of connection points: 2
#     Edge 34, Type (0, 0), BuildingBlock: UVAHIK_clean_linker_0, # of connection points: 2
#     Edge 35, Type (0, 0), BuildingBlock: UVAHIK_clean_linker_0, # of connection points: 2
#     Edge 36, Type (0, 0), BuildingBlock: UVAHIK_clean_linker_0, # of connection points: 2
#     Edge 37, Type (0, 0), BuildingBlock: UVAHIK_clean_linker_0, # of connection points: 2
#     Edge 38, Type (0, 0), BuildingBlock: UVAHIK_clean_linker_0, # of connection points: 2
#     Edge 39, Type (0, 0), BuildingBlock: UVAHIK_clean_linker_0, # of connection points: 2
#     Edge 40, Type (0, 0), BuildingBlock: UVAHIK_clean_linker_0, # of connection points: 2
#     Edge 41, Type (0, 0), BuildingBlock: UVAHIK_clean_linker_0, # of connection points: 2
#     Edge 42, Type (0, 0), BuildingBlock: UVAHIK_clean_linker_0, # of connection points: 2
#     Edge 43, Type (0, 0), BuildingBlock: UVAHIK_clean_linker_0, # of connection points: 2
#     Edge 44, Type (0, 0), BuildingBlock: UVAHIK_clean_linker_0, # of connection points: 2
#     Edge 45, Type (0, 0), BuildingBlock: UVAHIK_clean_linker_0, # of connection points: 2
#     Edge 46, Type (0, 0), BuildingBlock: UVAHIK_clean_linker_0, # of connection points: 2
#     Edge 47, Type (0, 0), BuildingBlock: UVAHIK_clean_linker_0, # of connection points: 2
#     Edge 48, Type (0, 0), BuildingBlock: UVAHIK_clean_linker_0, # of connection points: 2
#     Edge 49, Type (0, 0), BuildingBlock: UVAHIK_clean_linker_0, # of connection points: 2
#     Edge 50, Type (0, 0), BuildingBlock: UVAHIK_clean_linker_0, # of connection points: 2
#     Edge 51, Type (0, 0), BuildingBlock: UVAHIK_clean_linker_0, # of connection points: 2
#     Edge 52, Type (0, 0), BuildingBlock: UVAHIK_clean_linker_0, # of connection points: 2
#     Edge 53, Type (0, 0), BuildingBlock: UVAHIK_clean_linker_0, # of connection points: 2
#     Edge 54, Type (0, 0), BuildingBlock: UVAHIK_clean_linker_0, # of connection points: 2
#     Edge 55, Type (0, 0), BuildingBlock: UVAHIK_clean_linker_0, # of connection points: 2
#     Edge 56, Type (0, 0), BuildingBlock: UVAHIK_clean_linker_0, # of connection points: 2
#     Edge 57, Type (0, 0), BuildingBlock: UVAHIK_clean_linker_0, # of connection points: 2
#     Edge 58, Type (0, 0), BuildingBlock: UVAHIK_clean_linker_0, # of connection points: 2
#     Edge 59, Type (0, 0), BuildingBlock: UVAHIK_clean_linker_0, # of connection points: 2
#     Edge 60, Type (0, 0), BuildingBlock: UVAHIK_clean_linker_0, # of connection points: 2
#     Edge 61, Type (0, 0), BuildingBlock: UVAHIK_clean_linker_0, # of connection points: 2
#     Edge 62, Type (0, 0), BuildingBlock: UVAHIK_clean_linker_0, # of connection points: 2
#     Edge 63, Type (0, 0), BuildingBlock: UVAHIK_clean_linker_0, # of connection points: 2
#     Edge 64, Type (0, 0), BuildingBlock: UVAHIK_clean_linker_0, # of connection points: 2
#     Edge 65, Type (0, 0), BuildingBlock: UVAHIK_clean_linker_0, # of connection points: 2
#     Edge 66, Type (0, 0), BuildingBlock: UVAHIK_clean_linker_0, # of connection points: 2
#     Edge 67, Type (0, 0), BuildingBlock: UVAHIK_clean_linker_0, # of connection points: 2
#     Edge 68, Type (0, 0), BuildingBlock: UVAHIK_clean_linker_0, # of connection points: 2
#     Edge 69, Type (0, 0), BuildingBlock: UVAHIK_clean_linker_0, # of connection points: 2
#     Edge 70, Type (0, 0), BuildingBlock: UVAHIK_clean_linker_0, # of connection points: 2
#     Edge 71, Type (0, 0), BuildingBlock: UVAHIK_clean_linker_0, # of connection points: 2
#     Edge 72, Type (0, 0), BuildingBlock: UVAHIK_clean_linker_0, # of connection points: 2
#     Edge 73, Type (0, 0), BuildingBlock: UVAHIK_clean_linker_0, # of connection points: 2
#     Edge 74, Type (0, 0), BuildingBlock: UVAHIK_clean_linker_0, # of connection points: 2
#     Edge 75, Type (0, 0), BuildingBlock: UVAHIK_clean_linker_0, # of connection points: 2
#     Edge 76, Type (0, 0), BuildingBlock: UVAHIK_clean_linker_0, # of connection points: 2
#     Edge 77, Type (0, 0), BuildingBlock: UVAHIK_clean_linker_0, # of connection points: 2
#     Edge 78, Type (0, 0), BuildingBlock: UVAHIK_clean_linker_0, # of connection points: 2
#     Edge 79, Type (0, 0), BuildingBlock: UVAHIK_clean_linker_0, # of connection points: 2
#     Edge 80, Type (0, 0), BuildingBlock: UVAHIK_clean_linker_0, # of connection points: 2
#     Edge 81, Type (0, 0), BuildingBlock: UVAHIK_clean_linker_0, # of connection points: 2
#     Edge 82, Type (0, 0), BuildingBlock: UVAHIK_clean_linker_0, # of connection points: 2
#     Edge 83, Type (0, 0), BuildingBlock: UVAHIK_clean_linker_0, # of connection points: 2
#     Edge 84, Type (0, 0), BuildingBlock: UVAHIK_clean_linker_0, # of connection points: 2
#     Edge 85, Type (0, 0), BuildingBlock: UVAHIK_clean_linker_0, # of connection points: 2
#     Edge 86, Type (0, 0), BuildingBlock: UVAHIK_clean_linker_0, # of connection points: 2
#     Edge 87, Type (0, 0), BuildingBlock: UVAHIK_clean_linker_0, # of connection points: 2
#     Edge 88, Type (0, 0), BuildingBlock: UVAHIK_clean_linker_0, # of connection points: 2
#     Edge 89, Type (0, 0), BuildingBlock: UVAHIK_clean_linker_0, # of connection points: 2
#     Edge 90, Type (0, 0), BuildingBlock: UVAHIK_clean_linker_0, # of connection points: 2
#     Edge 91, Type (0, 0), BuildingBlock: UVAHIK_clean_linker_0, # of connection points: 2
#     Edge 92, Type (0, 0), BuildingBlock: UVAHIK_clean_linker_0, # of connection points: 2
#     Edge 93, Type (0, 0), BuildingBlock: UVAHIK_clean_linker_0, # of connection points: 2
#     Edge 94, Type (0, 0), BuildingBlock: UVAHIK_clean_linker_0, # of connection points: 2
#     Edge 95, Type (0, 0), BuildingBlock: UVAHIK_clean_linker_0, # of connection points: 2
#     Edge 96, Type (0, 0), BuildingBlock: UVAHIK_clean_linker_0, # of connection points: 2
#     Edge 97, Type (0, 0), BuildingBlock: UVAHIK_clean_linker_0, # of connection points: 2
#     Edge 98, Type (0, 0), BuildingBlock: UVAHIK_clean_linker_0, # of connection points: 2
#     Edge 99, Type (0, 0), BuildingBlock: UVAHIK_clean_linker_0, # of connection points: 2
#     Edge 100, Type (0, 0), BuildingBlock: UVAHIK_clean_linker_0, # of connection points: 2
#     Edge 101, Type (0, 0), BuildingBlock: UVAHIK_clean_linker_0, # of connection points: 2
#     Edge 102, Type (0, 0), BuildingBlock: UVAHIK_clean_linker_0, # of connection points: 2
#     Edge 103, Type (0, 0), BuildingBlock: UVAHIK_clean_linker_0, # of connection points: 2
#     Edge 104, Type (0, 0), BuildingBlock: UVAHIK_clean_linker_0, # of connection points: 2
#     Edge 105, Type (0, 0), BuildingBlock: UVAHIK_clean_linker_0, # of connection points: 2
#     Edge 106, Type (0, 0), BuildingBlock: UVAHIK_clean_linker_0, # of connection points: 2
#     Edge 107, Type (0, 0), BuildingBlock: UVAHIK_clean_linker_0, # of connection points: 2
#     Edge 108, Type (0, 0), BuildingBlock: UVAHIK_clean_linker_0, # of connection points: 2
#     Edge 109, Type (0, 0), BuildingBlock: UVAHIK_clean_linker_0, # of connection points: 2
#     Edge 110, Type (0, 0), BuildingBlock: UVAHIK_clean_linker_0, # of connection points: 2
#     Edge 111, Type (0, 0), BuildingBlock: UVAHIK_clean_linker_0, # of connection points: 2
#     Edge 112, Type (0, 0), BuildingBlock: UVAHIK_clean_linker_0, # of connection points: 2
#     Edge 113, Type (0, 0), BuildingBlock: UVAHIK_clean_linker_0, # of connection points: 2
#     Edge 114, Type (0, 0), BuildingBlock: UVAHIK_clean_linker_0, # of connection points: 2
#     Edge 115, Type (0, 0), BuildingBlock: UVAHIK_clean_linker_0, # of connection points: 2
#     Edge 116, Type (0, 0), BuildingBlock: UVAHIK_clean_linker_0, # of connection points: 2
#     Edge 117, Type (0, 0), BuildingBlock: UVAHIK_clean_linker_0, # of connection points: 2
#     Edge 118, Type (0, 0), BuildingBlock: UVAHIK_clean_linker_0, # of connection points: 2
#     Edge 119, Type (0, 0), BuildingBlock: UVAHIK_clean_linker_0, # of connection points: 2
#     Edge 120, Type (0, 0), BuildingBlock: UVAHIK_clean_linker_0, # of connection points: 2
#     Edge 121, Type (0, 0), BuildingBlock: UVAHIK_clean_linker_0, # of connection points: 2
#     Edge 122, Type (0, 0), BuildingBlock: UVAHIK_clean_linker_0, # of connection points: 2
#     Edge 123, Type (0, 0), BuildingBlock: UVAHIK_clean_linker_0, # of connection points: 2
#     Edge 124, Type (0, 0), BuildingBlock: UVAHIK_clean_linker_0, # of connection points: 2
#     Edge 125, Type (0, 0), BuildingBlock: UVAHIK_clean_linker_0, # of connection points: 2
#     Edge 126, Type (0, 0), BuildingBlock: UVAHIK_clean_linker_0, # of connection points: 2
#     Edge 127, Type (0, 0), BuildingBlock: UVAHIK_clean_linker_0, # of connection points: 2
# Relax obj value: 0.068
# Max RMSD: 0.130
# Mean RMSD: 0.130
data_MOF--net-som--node1-BETFAJ_clean_sbu_0--edge1-UVAHIK_clean_linker_0
_symmetry_space_group_name_H-M    P1
_symmetry_Int_Tables_number       1
_symmetry_cell_setting            triclinic
loop_
_symmetry_equiv_pos_as_xyz
'x, y, z'
_cell_length_a     30.631558
_cell_length_b     73.280665
_cell_length_c     147.2427
_cell_angle_alpha  89.99357
_cell_angle_beta   90.023105
_cell_angle_gamma 89.968415
loop_
_atom_site_label
_atom_site_type_symbol
_atom_site_fract_x
_atom_site_fract_y
_atom_site_fract_z
_atom_type_partial_charge
Sm0 Sm 0.99283 0.49491 0.07429 0.0
Sm1 Sm 0.08339 0.47747 0.07543 0.0
C2 C 0.91136 0.50452 0.07037 0.0
C3 C 0.86485 0.49942 0.07145 0.0
C4 C 0.83856 0.49791 0.06368 0.0
C5 C 0.79372 0.49467 0.06444 0.0
C6 C 0.77396 0.49295 0.07303 0.0
C7 C 0.80052 0.49411 0.08082 0.0
C8 C 0.84551 0.49729 0.08004 0.0
C9 C 0.03088 0.49543 0.09127 0.0
C10 C 1.00061 0.45095 0.07818 0.0
C11 C 0.16476 0.46823 0.07971 0.0
C12 C 0.2114 0.47312 0.07866 0.0
C13 C 0.23743 0.47479 0.08646 0.0
C14 C 0.2824 0.47777 0.08573 0.0
C15 C 0.30253 0.47909 0.07717 0.0
C16 C 0.27621 0.47779 0.06935 0.0
C17 C 0.23112 0.47485 0.07008 0.0
C18 C 0.04773 0.47751 0.0582 0.0
C19 C 0.07303 0.52177 0.07157 0.0
O20 O 0.93538 0.49437 0.06502 0.0
O21 O 0.93254 0.51045 0.0775 0.0
O22 O 0.03117 0.48219 0.08583 0.0
O23 O 1.00816 0.5089 0.08803 0.0
O24 O 0.97682 0.46443 0.07492 0.0
O25 O 0.04244 0.45298 0.08009 0.0
O26 O 0.14049 0.47877 0.0848 0.0
O27 O 0.14397 0.46181 0.07263 0.0
O28 O 0.04575 0.49047 0.06382 0.0
O29 O 0.07111 0.46424 0.06145 0.0
O30 O 0.09789 0.50865 0.07497 0.0
O31 O 0.03238 0.51873 0.06913 0.0
H32 H 0.8526 0.49966 0.05698 0.0
H33 H 0.7743 0.49411 0.0583 0.0
H34 H 0.78651 0.49262 0.08753 0.0
H35 H 0.86493 0.49836 0.08616 0.0
H36 H 0.2231 0.47334 0.09315 0.0
H37 H 0.3016 0.47845 0.0919 0.0
H38 H 0.29049 0.47899 0.06265 0.0
H39 H 0.21189 0.47364 0.06394 0.0
Sm40 Sm 0.28971 0.73589 0.07412 0.0
Sm41 Sm 0.19955 0.75244 0.07521 0.0
C42 C 0.37161 0.72659 0.07041 0.0
C43 C 0.41792 0.73208 0.07157 0.0
C44 C 0.43961 0.74168 0.06465 0.0
C45 C 0.48448 0.74509 0.06522 0.0
C46 C 0.50883 0.73888 0.07271 0.0
C47 C 0.48691 0.72966 0.07974 0.0
C48 C 0.44205 0.72624 0.07916 0.0
C49 C 0.25282 0.73563 0.09123 0.0
C50 C 0.28063 0.77981 0.07753 0.0
C51 C 0.11788 0.76145 0.07932 0.0
C52 C 0.07126 0.75673 0.07793 0.0
C53 C 0.04809 0.74765 0.08482 0.0
C54 C 1.00301 0.74498 0.08409 0.0
C55 C 0.97987 0.75145 0.07649 0.0
C56 C 1.00325 0.76013 0.06949 0.0
C57 C 0.04838 0.76279 0.07021 0.0
C58 C 0.23384 0.75193 0.05784 0.0
C59 C 0.21133 0.7081 0.07196 0.0
O60 O 0.34721 0.73627 0.06492 0.0
O61 O 0.35038 0.72077 0.07756 0.0
O62 O 0.2518 0.74877 0.08572 0.0
O63 O 0.27534 0.72216 0.08796 0.0
O64 O 0.30452 0.76655 0.07411 0.0
O65 O 0.23951 0.77719 0.07984 0.0
O66 O 0.14169 0.75045 0.08427 0.0
O67 O 0.13948 0.76855 0.07252 0.0
O68 O 0.23662 0.73916 0.06356 0.0
O69 O 0.21076 0.76525 0.06109 0.0
O70 O 0.186 0.72119 0.07521 0.0
O71 O 0.25154 0.71139 0.06934 0.0
H72 H 0.42214 0.74621 0.05866 0.0
H73 H 0.50018 0.75243 0.05974 0.0
H74 H 0.50469 0.72446 0.08555 0.0
H75 H 0.42657 0.71856 0.08456 0.0
H76 H 0.06464 0.74298 0.09089 0.0
H77 H 0.98619 0.73802 0.08955 0.0
H78 H 0.98646 0.76548 0.06359 0.0
H79 H 0.06505 0.77005 0.06483 0.0
Sm80 Sm 1.00032 0.73689 0.19583 0.0
Sm81 Sm 0.09782 0.75361 0.19381 0.0
C82 C 0.91935 0.72857 0.20064 0.0
C83 C 0.87298 0.73377 0.19958 0.0
C84 C 0.84742 0.73612 0.2074 0.0
C85 C 0.80264 0.73951 0.2067 0.0
C86 C 0.78225 0.74053 0.19815 0.0
C87 C 0.80818 0.73867 0.1903 0.0
C88 C 0.85311 0.73531 0.19101 0.0
C89 C 0.03884 0.73537 0.17891 0.0
C90 C 1.01264 0.78091 0.19182 0.0
C91 C 0.1741 0.76263 0.1867 0.0
C92 C 0.22148 0.76048 0.18812 0.0
C93 C 0.24897 0.75952 0.18053 0.0
C94 C 0.29417 0.75806 0.18161 0.0
C95 C 0.31293 0.75756 0.19034 0.0
C96 C 0.28512 0.75827 0.19795 0.0
C97 C 0.2398 0.75971 0.19685 0.0
C98 C 0.07547 0.75033 0.212 0.0
C99 C 0.08149 0.71023 0.19873 0.0
O100 O 0.94434 0.73953 0.20536 0.0
O101 O 0.9393 0.7212 0.19367 0.0
O102 O 0.04117 0.74838 0.18446 0.0
O103 O 1.01318 0.72265 0.18198 0.0
O104 O 0.9862 0.76722 0.19378 0.0
O105 O 0.05556 0.77907 0.19105 0.0
O106 O 0.15239 0.74799 0.18426 0.0
O107 O 0.15285 0.77301 0.19247 0.0
O108 O 0.05306 0.74623 0.20514 0.0
O109 O 0.11268 0.75688 0.20927 0.0
O110 O 0.10652 0.72217 0.19439 0.0
O111 O 0.04209 0.71433 0.20169 0.0
H112 H 0.862 0.735 0.21408 0.0
H113 H 0.78391 0.7412 0.21288 0.0
H114 H 0.79355 0.73924 0.18361 0.0
H115 H 0.87202 0.73354 0.18486 0.0
H116 H 0.23543 0.76 0.17373 0.0
H117 H 0.31441 0.75719 0.1756 0.0
H118 H 0.29841 0.75807 0.20477 0.0
H119 H 0.21914 0.76038 0.20281 0.0
Sm120 Sm 0.29473 0.49633 0.19464 0.0
Sm121 Sm 0.20512 0.47886 0.19409 0.0
C122 C 0.37673 0.50634 0.19774 0.0
C123 C 0.4231 0.5012 0.19633 0.0
C124 C 0.44261 0.4869 0.20126 0.0
C125 C 0.48754 0.48359 0.20057 0.0
C126 C 0.514 0.49448 0.19494 0.0
C127 C 0.49418 0.50846 0.18985 0.0
C128 C 0.44935 0.51181 0.19057 0.0
C129 C 0.25473 0.49651 0.17784 0.0
C130 C 0.28755 0.45228 0.1912 0.0
C131 C 0.12328 0.46919 0.1905 0.0
C132 C 0.07666 0.47397 0.19189 0.0
C133 C 0.05635 0.48777 0.18676 0.0
C134 C 1.01126 0.4907 0.18741 0.0
C135 C 0.98537 0.47988 0.19319 0.0
C136 C 1.00594 0.46638 0.19847 0.0
C137 C 0.05096 0.46342 0.1978 0.0
C138 C 0.24265 0.47901 0.21115 0.0
C139 C 0.21501 0.52324 0.19772 0.0
O140 O 0.35351 0.49669 0.20346 0.0
O141 O 0.35434 0.51174 0.19067 0.0
O142 O 0.25552 0.48328 0.18329 0.0
O143 O 0.27687 0.51019 0.181 0.0
O144 O 0.31135 0.46588 0.19432 0.0
O145 O 0.24566 0.45428 0.18935 0.0
O146 O 0.14675 0.47952 0.18513 0.0
O147 O 0.1453 0.46305 0.19747 0.0
O148 O 0.24368 0.49205 0.20555 0.0
O149 O 0.21978 0.46558 0.20793 0.0
O150 O 0.1898 0.51001 0.19455 0.0
O151 O 0.256 0.52027 0.1999 0.0
H152 H 0.42342 0.47849 0.2058 0.0
H153 H 0.50164 0.47258 0.20451 0.0
H154 H 0.51358 0.51727 0.18554 0.0
H155 H 0.43538 0.52308 0.18679 0.0
H156 H 0.07506 0.49608 0.18208 0.0
H157 H 0.9966 0.50136 0.18333 0.0
H158 H 0.98703 0.45762 0.20289 0.0
H159 H 0.06548 0.45249 0.20173 0.0
Sm160 Sm 0.95014 0.50233 0.94427 0.0
Sm161 Sm 0.04056 0.48576 0.94545 0.0
C162 C 0.86864 0.5113 0.93999 0.0
C163 C 0.822 0.50661 0.94137 0.0
C164 C 0.79874 0.49763 0.93447 0.0
C165 C 0.75367 0.49495 0.9352 0.0
C166 C 0.73063 0.50131 0.94284 0.0
C167 C 0.7541 0.50989 0.94985 0.0
C168 C 0.79923 0.51256 0.94912 0.0
C169 C 0.98366 0.50159 0.96167 0.0
C170 C 0.96204 0.45795 0.94741 0.0
C171 C 0.12238 0.4764 0.9492 0.0
C172 C 0.16872 0.48184 0.94803 0.0
C173 C 0.19056 0.49138 0.95496 0.0
C174 C 0.23543 0.49475 0.95437 0.0
C175 C 0.25965 0.48857 0.94686 0.0
C176 C 0.23759 0.4794 0.93983 0.0
C177 C 0.19272 0.47602 0.94043 0.0
C178 C 1.00395 0.48596 0.92829 0.0
C179 C 0.03136 0.52974 0.94221 0.0
O180 O 0.89251 0.50014 0.93514 0.0
O181 O 0.89012 0.51858 0.94676 0.0
O182 O 0.98707 0.48892 0.95591 0.0
O183 O 0.96023 0.51485 0.95846 0.0
O184 O 0.93684 0.47107 0.94412 0.0
O185 O 1.00212 0.46125 0.95014 0.0
O186 O 0.09804 0.48617 0.95466 0.0
O187 O 0.10111 0.47053 0.94207 0.0
O188 O 1.00302 0.49891 0.9339 0.0
O189 O 0.02643 0.47239 0.93149 0.0
O190 O 0.05515 0.51643 0.94564 0.0
O191 O 0.99037 0.52711 0.93978 0.0
H192 H 0.81522 0.49304 0.92837 0.0
H193 H 0.73678 0.48805 0.92973 0.0
H194 H 0.7374 0.51516 0.95578 0.0
H195 H 0.81598 0.51974 0.95452 0.0
H196 H 0.17319 0.49589 0.96096 0.0
H197 H 0.25125 0.50205 0.95985 0.0
H198 H 0.25526 0.47422 0.93401 0.0
H199 H 0.17712 0.46839 0.93503 0.0
Sm200 Sm 0.83858 0.22677 0.94403 0.0
Sm201 Sm 0.74792 0.24336 0.94522 0.0
C202 C 0.91993 0.21784 0.93965 0.0
C203 C 0.96661 0.22243 0.94097 0.0
C204 C 0.9911 0.22874 0.93354 0.0
C205 C 0.0362 0.23128 0.9343 0.0
C206 C 0.05802 0.22744 0.94249 0.0
C207 C 0.03328 0.22158 0.95 0.0
C208 C 0.9881 0.21906 0.94924 0.0
C209 C 0.80474 0.22728 0.96141 0.0
C210 C 0.82666 0.2711 0.9474 0.0
C211 C 0.66621 0.25267 0.94906 0.0
C212 C 0.61986 0.24714 0.94808 0.0
C213 C 0.59713 0.24029 0.95564 0.0
C214 C 0.55225 0.23692 0.95515 0.0
C215 C 0.52888 0.24044 0.94711 0.0
C216 C 0.55186 0.24685 0.93948 0.0
C217 C 0.5968 0.25021 0.93996 0.0
C218 C 0.78485 0.24347 0.92811 0.0
C219 C 0.75725 0.19942 0.94184 0.0
O220 O 0.89605 0.2291 0.93486 0.0
O221 O 0.89864 0.21052 0.94644 0.0
O222 O 0.80138 0.23998 0.95567 0.0
O223 O 0.82852 0.21411 0.95821 0.0
O224 O 0.85195 0.25804 0.94409 0.0
O225 O 0.78641 0.2678 0.95001 0.0
O226 O 0.69087 0.2431 0.95455 0.0
O227 O 0.68702 0.25834 0.94183 0.0
O228 O 0.78571 0.23042 0.93366 0.0
O229 O 0.76226 0.25699 0.93133 0.0
O230 O 0.73333 0.21269 0.94526 0.0
O231 O 0.79833 0.20204 0.93949 0.0
H232 H 0.97548 0.23132 0.92707 0.0
H233 H 0.05404 0.23609 0.92842 0.0
H234 H 0.04902 0.21831 0.95638 0.0
H235 H 0.97028 0.21404 0.95508 0.0
H236 H 0.61386 0.23794 0.96202 0.0
H237 H 0.53576 0.23174 0.96112 0.0
H238 H 0.53487 0.24992 0.93321 0.0
H239 H 0.61315 0.25568 0.93404 0.0
Sm240 Sm 0.94697 0.22857 0.82492 0.0
Sm241 Sm 0.03795 0.24487 0.82361 0.0
C242 C 0.86573 0.21972 0.82942 0.0
C243 C 0.8191 0.22443 0.82826 0.0
C244 C 0.79279 0.22622 0.836 0.0
C245 C 0.7478 0.22903 0.83518 0.0
C246 C 0.72798 0.23005 0.82658 0.0
C247 C 0.75458 0.22866 0.81881 0.0
C248 C 0.7997 0.22589 0.81963 0.0
C249 C 0.97985 0.22942 0.80747 0.0
C250 C 0.95974 0.27297 0.82195 0.0
C251 C 0.11959 0.25402 0.81962 0.0
C252 C 0.16591 0.24863 0.82065 0.0
C253 C 0.19197 0.24701 0.81285 0.0
C254 C 0.23679 0.24366 0.81359 0.0
C255 C 0.25669 0.24194 0.82216 0.0
C256 C 0.23032 0.24312 0.82997 0.0
C257 C 0.18539 0.24642 0.82923 0.0
C258 C 1.00211 0.24448 0.84084 0.0
C259 C 0.02805 0.20089 0.82677 0.0
O260 O 0.88991 0.2308 0.83424 0.0
O261 O 0.88649 0.21265 0.8225 0.0
O262 O 0.98378 0.24199 0.81327 0.0
O263 O 0.95615 0.21623 0.81066 0.0
O264 O 0.93428 0.25989 0.82516 0.0
O265 O 0.99969 0.26961 0.81916 0.0
O266 O 0.09507 0.24413 0.81426 0.0
O267 O 0.09884 0.25992 0.82682 0.0
O268 O 1.00058 0.23167 0.83516 0.0
O269 O 0.02496 0.25798 0.83769 0.0
O270 O 0.05193 0.21415 0.82334 0.0
O271 O 0.98715 0.20361 0.82925 0.0
H272 H 0.80692 0.22499 0.84272 0.0
H273 H 0.72836 0.22979 0.84131 0.0
H274 H 0.74051 0.22962 0.81207 0.0
H275 H 0.8192 0.22459 0.81353 0.0
H276 H 0.17782 0.24882 0.80617 0.0
H277 H 0.25609 0.24305 0.80743 0.0
H278 H 0.24448 0.24163 0.83667 0.0
H279 H 0.16614 0.24756 0.83537 0.0
Sm280 Sm 0.83583 0.50421 0.82539 0.0
Sm281 Sm 0.74542 0.48684 0.82434 0.0
C282 C 0.91725 0.51338 0.82963 0.0
C283 C 0.96388 0.50848 0.82852 0.0
C284 C 0.98945 0.50547 0.83629 0.0
C285 C 0.03444 0.50251 0.83555 0.0
C286 C 0.05505 0.50259 0.82701 0.0
C287 C 0.0292 0.50523 0.81921 0.0
C288 C 0.98411 0.50814 0.81995 0.0
C289 C 0.80031 0.50408 0.80815 0.0
C290 C 0.82542 0.4599 0.82158 0.0
C291 C 0.66382 0.4772 0.82058 0.0
C292 C 0.61735 0.48234 0.82174 0.0
C293 C 0.59155 0.48528 0.81399 0.0
C294 C 0.5467 0.48851 0.81478 0.0
C295 C 0.52643 0.48877 0.82336 0.0
C296 C 0.55249 0.48621 0.83113 0.0
C297 C 0.59747 0.48303 0.83034 0.0
C298 C 0.78387 0.4865 0.8413 0.0
C299 C 0.75318 0.53084 0.82805 0.0
O300 O 0.89308 0.50275 0.8347 0.0
O301 O 0.89628 0.51995 0.82261 0.0
O302 O 0.79803 0.49116 0.8138 0.0
O303 O 0.82387 0.51731 0.81137 0.0
O304 O 0.85031 0.47301 0.82498 0.0
O305 O 0.78481 0.46301 0.81914 0.0
O306 O 0.68763 0.48729 0.81517 0.0
O307 O 0.68534 0.4713 0.82769 0.0
O308 O 0.78374 0.4997 0.83583 0.0
O309 O 0.7614 0.47294 0.83809 0.0
O310 O 0.72939 0.51734 0.82483 0.0
O311 O 0.79498 0.5288 0.82999 0.0
H312 H 0.97477 0.50585 0.84298 0.0
H313 H 0.05328 0.50077 0.84172 0.0
H314 H 0.04387 0.50514 0.81252 0.0
H315 H 0.9653 0.51043 0.81382 0.0
H316 H 0.60593 0.48463 0.80728 0.0
H317 H 0.52766 0.49018 0.80864 0.0
H318 H 0.53807 0.48655 0.83785 0.0
H319 H 0.61644 0.48082 0.83645 0.0
Sm320 Sm 0.99442 -0.00463 0.5756 0.0
Sm321 Sm 0.08418 0.97787 0.57599 0.0
C322 C 0.91246 0.00552 0.57255 0.0
C323 C 0.86608 0.00051 0.57396 0.0
C324 C 0.84782 0.98474 0.57006 0.0
C325 C 0.80288 0.98137 0.57072 0.0
C326 C 0.77526 -0.00634 0.5753 0.0
C327 C 0.79388 0.00917 0.57939 0.0
C328 C 0.83868 0.01256 0.5787 0.0
C329 C 0.03474 -0.00469 0.59237 0.0
C330 C 1.0018 0.95132 0.57891 0.0
C331 C 0.16613 0.96803 0.5794 0.0
C332 C 0.21274 0.97258 0.57787 0.0
C333 C 0.23233 0.9879 0.58193 0.0
C334 C 0.27744 -0.00924 0.5812 0.0
C335 C 0.30399 0.97837 0.57641 0.0
C336 C 0.28407 0.96331 0.57217 0.0
C337 C 0.23907 0.96043 0.57292 0.0
C338 C 0.04634 0.97859 0.55895 0.0
C339 C 0.07402 0.02233 0.57276 0.0
O340 O 0.93552 -0.00417 0.56683 0.0
O341 O 0.93488 0.01083 0.57964 0.0
O342 O 0.03401 0.98215 0.58687 0.0
O343 O 1.01227 0.00899 0.58928 0.0
O344 O 0.97792 0.96493 0.57584 0.0
O345 O 0.04373 0.95329 0.58073 0.0
O346 O 0.14317 0.97855 0.58477 0.0
O347 O 0.14365 0.96186 0.5725 0.0
O348 O 0.0454 -0.00857 0.56466 0.0
O349 O 0.06933 0.96507 0.56204 0.0
O350 O 0.09926 0.00902 0.57584 0.0
O351 O 0.03317 0.01939 0.57046 0.0
H352 H 0.86803 0.97517 0.56635 0.0
H353 H 0.78972 0.96919 0.56758 0.0
H354 H 0.7736 0.01904 0.58288 0.0
H355 H 0.85179 0.02492 0.58168 0.0
H356 H 0.21304 -0.00249 0.58582 0.0
H357 H 0.29159 0.00262 0.58445 0.0
H358 H 0.30348 0.95335 0.56853 0.0
H359 H 0.225 0.94838 0.56983 0.0
Sm360 Sm 0.2935 0.23551 0.57411 0.0
Sm361 Sm 0.20322 0.25286 0.57524 0.0
C362 C 0.37508 0.22593 0.57027 0.0
C363 C 0.42157 0.23104 0.57142 0.0
C364 C 0.44737 0.23388 0.56367 0.0
C365 C 0.49223 0.23709 0.56446 0.0
C366 C 0.5125 0.23745 0.57303 0.0
C367 C 0.48644 0.23497 0.58081 0.0
C368 C 0.44146 0.23181 0.58002 0.0
C369 C 0.25582 0.23524 0.59114 0.0
C370 C 0.28585 0.27949 0.57785 0.0
C371 C 0.1218 0.26204 0.57949 0.0
C372 C 0.07517 0.25713 0.57838 0.0
C373 C 0.04959 0.25424 0.58616 0.0
C374 C 1.0046 0.25128 0.58543 0.0
C375 C 0.984 0.25122 0.57688 0.0
C376 C 1.00986 0.25372 0.56907 0.0
C377 C 0.05495 0.25664 0.56981 0.0
C378 C 0.23841 0.25276 0.55797 0.0
C379 C 0.21371 0.20852 0.57146 0.0
O380 O 0.35116 0.23612 0.56491 0.0
O381 O 0.35369 0.21991 0.57735 0.0
O382 O 0.2555 0.2484 0.58564 0.0
O383 O 0.27827 0.22168 0.58791 0.0
O384 O 0.30949 0.266 0.57456 0.0
O385 O 0.24413 0.27743 0.57985 0.0
O386 O 0.14604 0.25145 0.58457 0.0
O387 O 0.1427 0.26858 0.57246 0.0
O388 O 0.24055 0.23979 0.56359 0.0
O389 O 0.21528 0.26606 0.56126 0.0
O390 O 0.18888 0.22164 0.57487 0.0
O391 O 0.2542 0.21163 0.56896 0.0
H392 H 0.43298 0.23316 0.55695 0.0
H393 H 0.51126 0.2387 0.55831 0.0
H394 H 0.50086 0.23539 0.58752 0.0
H395 H 0.42249 0.22967 0.58613 0.0
H396 H 0.06427 0.25474 0.59285 0.0
H397 H 0.98576 0.24964 0.59159 0.0
H398 H 0.9952 0.25352 0.56238 0.0
H399 H 0.07377 0.25882 0.56368 0.0
Sm400 Sm 0.9935 0.23628 0.69465 0.0
Sm401 Sm 0.08318 0.25397 0.69384 0.0
C402 C 0.9118 0.22636 0.69815 0.0
C403 C 0.86531 0.23172 0.69703 0.0
C404 C 0.84352 0.24125 0.70397 0.0
C405 C 0.79858 0.24455 0.70342 0.0
C406 C 0.77419 0.23831 0.69594 0.0
C407 C 0.79619 0.22915 0.6889 0.0
C408 C 0.84114 0.22583 0.68945 0.0
C409 C 0.03252 0.23603 0.67776 0.0
C410 C 1.00024 0.2803 0.69103 0.0
C411 C 0.1648 0.26356 0.68999 0.0
C412 C 0.21148 0.25864 0.69124 0.0
C413 C 0.23424 0.2496 0.68428 0.0
C414 C 0.27932 0.24674 0.68492 0.0
C415 C 0.3029 0.25297 0.69251 0.0
C416 C 0.27994 0.26165 0.69957 0.0
C417 C 0.23483 0.2645 0.69893 0.0
C418 C 0.04668 0.25359 0.711 0.0
C419 C 0.07371 0.20953 0.69735 0.0
O420 O 0.93582 0.23584 0.70379 0.0
O421 O 0.93336 0.22102 0.69095 0.0
O422 O 0.03204 0.24928 0.68321 0.0
O423 O 1.01035 0.22239 0.68098 0.0
O424 O 0.97675 0.2667 0.69424 0.0
O425 O 0.04211 0.27841 0.68914 0.0
O426 O 0.14098 0.2532 0.68471 0.0
O427 O 0.14318 0.26978 0.697 0.0
O428 O 0.04544 0.24063 0.70536 0.0
O429 O 0.06946 0.26706 0.70779 0.0
O430 O 0.09848 0.22284 0.69412 0.0
O431 O 0.03294 0.21239 0.69974 0.0
H432 H 0.86098 0.24582 0.70995 0.0
H433 H 0.78285 0.25185 0.70892 0.0
H434 H 0.77842 0.22394 0.6831 0.0
H435 H 0.85669 0.21821 0.68405 0.0
H436 H 0.21738 0.24508 0.67821 0.0
H437 H 0.29578 0.23979 0.6794 0.0
H438 H 0.29705 0.26684 0.70547 0.0
H439 H 0.21852 0.27176 0.70437 0.0
Sm440 Sm 0.29165 -0.00474 0.69647 0.0
Sm441 Sm 0.20097 0.97882 0.69509 0.0
C442 C 0.37322 0.00441 0.70052 0.0
C443 C 0.41963 -0.00095 0.69948 0.0
C444 C 0.44335 -0.00666 0.70714 0.0
C445 C 0.48826 0.9901 0.70656 0.0
C446 C 0.51069 -0.00737 0.69832 0.0
C447 C 0.4867 -0.00211 0.69059 0.0
C448 C 0.44171 0.0011 0.69117 0.0
C449 C 0.25597 -0.00482 0.67924 0.0
C450 C 0.28223 0.95133 0.69307 0.0
C451 C 0.11971 0.96996 0.69061 0.0
C452 C 0.07301 0.97462 0.69182 0.0
C453 C 0.04842 0.98009 0.68424 0.0
C454 C 1.00332 0.98268 0.68494 0.0
C455 C 0.98159 0.97975 0.69323 0.0
C456 C 1.00643 0.97475 0.70088 0.0
C457 C 0.05164 0.97218 0.70018 0.0
C458 C 0.23415 0.97939 0.71254 0.0
C459 C 0.21312 0.02315 0.69837 0.0
O460 O 0.34867 -0.00561 0.70583 0.0
O461 O 0.3524 0.01054 0.69338 0.0
O462 O 0.25436 0.98225 0.68485 0.0
O463 O 0.27867 0.00865 0.68246 0.0
O464 O 0.30601 0.96455 0.69657 0.0
O465 O 0.2413 0.95403 0.69061 0.0
O466 O 0.14381 0.98113 0.68582 0.0
O467 O 0.14071 0.9627 0.69745 0.0
O468 O 0.23755 -0.00792 0.7068 0.0
O469 O 0.21068 0.96618 0.7093 0.0
O470 O 0.18796 0.01011 0.69501 0.0
O471 O 0.25309 0.01976 0.70115 0.0
H472 H 0.42731 -0.00823 0.71365 0.0
H473 H 0.50551 0.98579 0.71262 0.0
H474 H 0.50292 0.00016 0.68416 0.0
H475 H 0.42453 0.00564 0.68515 0.0
H476 H 0.06399 0.98197 0.6777 0.0
H477 H 0.9854 0.98683 0.67894 0.0
H478 H 0.99077 0.9722 0.70735 0.0
H479 H 0.06957 0.96784 0.70614 0.0
Sm480 Sm 0.94835 0.00416 0.44504 0.0
Sm481 Sm 0.03931 0.98766 0.44648 0.0
C482 C 0.86712 0.01299 0.44048 0.0
C483 C 0.82049 0.00829 0.44164 0.0
C484 C 0.79405 0.00663 0.43391 0.0
C485 C 0.74908 0.00379 0.43474 0.0
C486 C 0.72939 0.0026 0.44335 0.0
C487 C 0.75613 0.00389 0.45111 0.0
C488 C 0.80122 0.00669 0.45027 0.0
C489 C 0.98125 0.00359 0.46251 0.0
C490 C 0.96064 0.95982 0.44833 0.0
C491 C 0.12086 0.97846 0.45056 0.0
C492 C 0.16725 0.98372 0.44951 0.0
C493 C 0.19349 0.9852 0.45729 0.0
C494 C 0.23833 0.98846 0.45653 0.0
C495 C 0.2581 0.99023 0.44796 0.0
C496 C 0.23156 0.98917 0.44016 0.0
C497 C 0.18659 0.98597 0.44093 0.0
C498 C 1.00343 0.98762 0.42926 0.0
C499 C 0.0297 0.03161 0.44304 0.0
O500 O 0.89134 0.00185 0.4357 0.0
O501 O 0.88785 0.02014 0.44738 0.0
O502 O 0.98505 -0.00908 0.45676 0.0
O503 O 0.95762 0.01676 0.45925 0.0
O504 O 0.93549 0.97287 0.44497 0.0
O505 O 1.0006 0.96317 0.45113 0.0
O506 O 0.09642 0.98856 0.45585 0.0
O507 O 0.10008 0.97239 0.44341 0.0
O508 O 1.00199 0.0006 0.43484 0.0
O509 O 0.02624 0.97418 0.4325 0.0
O510 O 0.05353 0.01836 0.44652 0.0
O511 O 0.98872 0.02896 0.44061 0.0
H512 H 0.80808 0.00797 0.42718 0.0
H513 H 0.72955 0.00312 0.42862 0.0
H514 H 0.74217 0.0028 0.45785 0.0
H515 H 0.82082 0.00789 0.45637 0.0
H516 H 0.17944 0.98337 0.46398 0.0
H517 H 0.25775 0.98897 0.46268 0.0
H518 H 0.24559 -0.00929 0.43345 0.0
H519 H 0.1672 0.98493 0.4348 0.0
Sm520 Sm 0.83517 0.72899 0.44304 0.0
Sm521 Sm 0.74469 0.7456 0.44423 0.0
C522 C 0.91659 0.72009 0.43869 0.0
C523 C 0.96326 0.72476 0.44 0.0
C524 C 0.98724 0.73191 0.4327 0.0
C525 C 0.03233 0.73452 0.43341 0.0
C526 C 0.05467 0.7299 0.44144 0.0
C527 C 0.03045 0.72319 0.44885 0.0
C528 C 0.98528 0.72061 0.44813 0.0
C529 C 0.8011 0.72919 0.4604 0.0
C530 C 0.8235 0.77325 0.44662 0.0
C531 C 0.6629 0.75489 0.44803 0.0
C532 C 0.61656 0.74941 0.44696 0.0
C533 C 0.59392 0.74182 0.45435 0.0
C534 C 0.54905 0.73846 0.4538 0.0
C535 C 0.52559 0.74272 0.44586 0.0
C536 C 0.54847 0.7499 0.43838 0.0
C537 C 0.59339 0.75326 0.43893 0.0
C538 C 0.78185 0.746 0.42713 0.0
C539 C 0.75389 0.70168 0.4407 0.0
O540 O 0.89263 0.73127 0.43387 0.0
O541 O 0.89532 0.71281 0.44549 0.0
O542 O 0.79789 0.74201 0.45472 0.0
O543 O 0.82471 0.71603 0.45713 0.0
O544 O 0.84879 0.76022 0.44328 0.0
O545 O 0.78313 0.76995 0.44915 0.0
O546 O 0.6874 0.74518 0.45349 0.0
O547 O 0.68394 0.76071 0.44086 0.0
O548 O 0.78254 0.73284 0.43263 0.0
O549 O 0.75934 0.75948 0.43041 0.0
O550 O 0.72991 0.71493 0.44412 0.0
O551 O 0.79504 0.70429 0.43841 0.0
H552 H 0.97126 0.7351 0.42632 0.0
H553 H 0.04978 0.73998 0.42763 0.0
H554 H 0.0466 0.71931 0.4551 0.0
H555 H 0.9679 0.7149 0.45387 0.0
H556 H 0.61071 0.73886 0.46066 0.0
H557 H 0.53264 0.73268 0.45964 0.0
H558 H 0.53141 0.75357 0.4322 0.0
H559 H 0.60964 0.75933 0.43314 0.0
Sm560 Sm 0.94095 0.72553 0.32504 0.0
Sm561 Sm 0.03786 0.74316 0.32296 0.0
C562 C 0.8646 0.71662 0.33219 0.0
C563 C 0.81716 0.71906 0.3309 0.0
C564 C 0.79011 0.71985 0.33857 0.0
C565 C 0.74493 0.72184 0.33762 0.0
C566 C 0.72571 0.72307 0.32895 0.0
C567 C 0.75303 0.72235 0.32126 0.0
C568 C 0.79836 0.72042 0.32223 0.0
C569 C 0.96383 0.72844 0.30686 0.0
C570 C 0.95534 0.76889 0.31968 0.0
C571 C 0.11892 0.7516 0.31823 0.0
C572 C 0.16525 0.74661 0.31962 0.0
C573 C 0.19259 0.74503 0.31202 0.0
C574 C 0.23718 0.7415 0.31307 0.0
C575 C 0.25558 0.73951 0.32177 0.0
C576 C 0.22793 0.74079 0.32939 0.0
C577 C 0.18319 0.74427 0.32833 0.0
C578 C 0.99845 0.74506 0.33978 0.0
C579 C 0.02742 0.69917 0.32755 0.0
O580 O 0.88681 0.73107 0.3347 0.0
O581 O 0.88539 0.70631 0.32631 0.0
O582 O 0.98576 0.73295 0.31372 0.0
O583 O 0.92685 0.72166 0.30958 0.0
O584 O 0.93103 0.75687 0.32415 0.0
O585 O 0.99503 0.76508 0.31677 0.0
O586 O 0.09463 0.74013 0.31364 0.0
O587 O 0.09816 0.75943 0.32497 0.0
O588 O 0.99716 0.7318 0.33436 0.0
O589 O 0.02368 0.75788 0.33663 0.0
O590 O 0.05314 0.71311 0.32559 0.0
O591 O 0.98427 0.70044 0.32804 0.0
H592 H 0.80396 0.7188 0.34532 0.0
H593 H 0.72496 0.72208 0.34368 0.0
H594 H 0.73943 0.72348 0.3145 0.0
H595 H 0.81866 0.71995 0.31621 0.0
H596 H 0.17954 0.74688 0.30524 0.0
H597 H 0.25747 0.74084 0.30706 0.0
H598 H 0.24088 0.7391 0.33619 0.0
H599 H 0.16281 0.74533 0.33431 0.0
Sm600 Sm 0.8427 0.00138 0.32584 0.0
Sm601 Sm 0.75174 0.98486 0.3246 0.0
C602 C 0.92388 0.01045 0.3303 0.0
C603 C 0.9705 0.00567 0.32921 0.0
C604 C 0.99732 0.00519 0.33693 0.0
C605 C 0.04227 0.00229 0.33611 0.0
C606 C 0.06156 -0.00017 0.32752 0.0
C607 C 0.03443 -7e-05 0.31979 0.0
C608 C 0.98935 0.0028 0.32062 0.0
C609 C 0.80934 0.00053 0.30844 0.0
C610 C 0.83054 0.95688 0.3229 0.0
C611 C 0.67017 0.9755 0.32064 0.0
C612 C 0.62378 0.98089 0.32151 0.0
C613 C 0.59746 0.98117 0.31371 0.0
C614 C 0.5526 0.98448 0.31436 0.0
C615 C 0.5329 0.98752 0.32286 0.0
C616 C 0.55953 0.98768 0.33066 0.0
C617 C 0.60452 0.98442 0.33 0.0
C618 C 0.78794 0.98542 0.34179 0.0
C619 C 0.76122 0.02896 0.32761 0.0
O620 O 0.89964 -0.00042 0.33523 0.0
O621 O 0.90321 0.01719 0.32329 0.0
O622 O 0.80569 0.98791 0.31423 0.0
O623 O 0.833 0.01375 0.31161 0.0
O624 O 0.8561 0.9701 0.32595 0.0
O625 O 0.79016 0.96003 0.32031 0.0
O626 O 0.69482 0.98509 0.31517 0.0
O627 O 0.69069 0.97005 0.32795 0.0
O628 O 0.78923 -0.0018 0.33609 0.0
O629 O 0.76515 0.97186 0.33869 0.0
O630 O 0.73731 0.01555 0.32432 0.0
O631 O 0.80231 0.02641 0.33002 0.0
H632 H 0.98358 0.00751 0.34361 0.0
H633 H 0.0621 0.00255 0.3422 0.0
H634 H 0.04807 -0.00215 0.31309 0.0
H635 H 0.96941 0.00306 0.31455 0.0
H636 H 0.61147 0.97834 0.3071 0.0
H637 H 0.53312 0.98403 0.30823 0.0
H638 H 0.54555 0.99022 0.3373 0.0
H639 H 0.624 0.98434 0.33614 0.0
Sm640 Sm 0.49908 0.49383 0.57388 0.0
Sm641 Sm 0.59004 0.47735 0.57521 0.0
C642 C 0.41755 0.50305 0.56978 0.0
C643 C 0.37117 0.49773 0.57075 0.0
C644 C 0.34501 0.4966 0.56295 0.0
C645 C 0.30016 0.49332 0.56365 0.0
C646 C 0.28031 0.49117 0.5722 0.0
C647 C 0.30678 0.49186 0.58001 0.0
C648 C 0.35175 0.49509 0.5793 0.0
C649 C 0.53473 0.49354 0.59111 0.0
C650 C 0.50876 0.44983 0.57712 0.0
C651 C 0.67134 0.46835 0.57964 0.0
C652 C 0.71796 0.47309 0.57848 0.0
C653 C 0.74455 0.47441 0.58621 0.0
C654 C 0.7895 0.47727 0.58537 0.0
C655 C 0.80902 0.47883 0.57676 0.0
C656 C 0.78213 0.47789 0.56901 0.0
C657 C 0.73704 0.47506 0.56986 0.0
C658 C 0.55675 0.47825 0.55777 0.0
C659 C 0.57767 0.52177 0.57224 0.0
O660 O 0.44216 0.49312 0.56445 0.0
O661 O 0.43814 0.50895 0.577 0.0
O662 O 0.53653 0.48068 0.58545 0.0
O663 O 0.51172 0.50699 0.58794 0.0
O664 O 0.48489 0.46313 0.57371 0.0
O665 O 0.54975 0.45245 0.57956 0.0
O666 O 0.6472 0.47933 0.58453 0.0
O667 O 0.6505 0.46145 0.57269 0.0
O668 O 0.55334 0.49084 0.56357 0.0
O669 O 0.58022 0.46497 0.56096 0.0
O670 O 0.60299 0.50862 0.57546 0.0
O671 O 0.53764 0.51852 0.56947 0.0
H672 H 0.35912 0.49874 0.55628 0.0
H673 H 0.28079 0.4931 0.55749 0.0
H674 H 0.29268 0.49003 0.58669 0.0
H675 H 0.3711 0.49585 0.58545 0.0
H676 H 0.73066 0.47278 0.59293 0.0
H677 H 0.80916 0.47768 0.59148 0.0
H678 H 0.79595 0.47927 0.56227 0.0
H679 H 0.71732 0.47413 0.56377 0.0
Sm680 Sm 0.79012 0.73651 0.57307 0.0
Sm681 Sm 0.6997 0.75313 0.5743 0.0
C682 C 0.87182 0.72721 0.5692 0.0
C683 C 0.91822 0.73259 0.5703 0.0
C684 C 0.94095 0.74022 0.56293 0.0
C685 C 0.98586 0.74348 0.56349 0.0
C686 C 1.00927 0.73908 0.57141 0.0
C687 C 0.9863 0.73188 0.57887 0.0
C688 C 0.94134 0.72862 0.57831 0.0
C689 C 0.75365 0.73641 0.59023 0.0
C690 C 0.78105 0.78044 0.57653 0.0
C691 C 0.61827 0.7621 0.57861 0.0
C692 C 0.57161 0.7574 0.57732 0.0
C693 C 0.54766 0.75026 0.58463 0.0
C694 C 0.50258 0.74761 0.58392 0.0
C695 C 0.48022 0.75216 0.57588 0.0
C696 C 0.5044 0.75887 0.56847 0.0
C697 C 0.54956 0.7615 0.56919 0.0
C698 C 0.73365 0.75268 0.55691 0.0
C699 C 0.71139 0.70882 0.57091 0.0
O700 O 0.84738 0.7371 0.56381 0.0
O701 O 0.85076 0.72123 0.57634 0.0
O702 O 0.75249 0.74946 0.58467 0.0
O703 O 0.7762 0.72291 0.58698 0.0
O704 O 0.80486 0.76718 0.57306 0.0
O705 O 0.73999 0.77782 0.57889 0.0
O706 O 0.64225 0.751 0.58348 0.0
O707 O 0.63955 0.76928 0.57178 0.0
O708 O 0.73661 0.73992 0.56262 0.0
O709 O 0.71027 0.76593 0.56016 0.0
O710 O 0.68632 0.72187 0.5743 0.0
O711 O 0.75149 0.71216 0.56822 0.0
H712 H 0.9242 0.74327 0.55663 0.0
H713 H 1.00234 0.74928 0.55766 0.0
H714 H 1.00332 0.72812 0.58504 0.0
H715 H 0.92501 0.72252 0.58409 0.0
H716 H 0.56367 0.74712 0.59101 0.0
H717 H 0.48517 0.74215 0.58971 0.0
H718 H 0.48824 0.7627 0.56222 0.0
H719 H 0.56691 0.7672 0.56344 0.0
Sm720 Sm 0.49651 0.73686 0.69433 0.0
Sm721 Sm 0.58669 0.75419 0.69339 0.0
C722 C 0.41484 0.72726 0.69804 0.0
C723 C 0.36837 0.73238 0.69681 0.0
C724 C 0.34318 0.73686 0.70446 0.0
C725 C 0.29831 0.74003 0.70366 0.0
C726 C 0.27739 0.73868 0.69518 0.0
C727 C 0.30281 0.73456 0.68748 0.0
C728 C 0.34779 0.73144 0.68828 0.0
C729 C 0.53494 0.73649 0.67738 0.0
C730 C 0.50421 0.78084 0.69061 0.0
C731 C 0.66827 0.76339 0.68931 0.0
C732 C 0.71486 0.75845 0.69051 0.0
C733 C 0.73992 0.75397 0.68284 0.0
C734 C 0.7849 0.75102 0.68359 0.0
C735 C 0.80604 0.75259 0.69204 0.0
C736 C 0.78075 0.7567 0.69976 0.0
C737 C 0.73566 0.7596 0.699 0.0
C738 C 0.5507 0.75403 0.7106 0.0
C739 C 0.57631 0.70989 0.69717 0.0
O740 O 0.43855 0.73746 0.70343 0.0
O741 O 0.43654 0.7212 0.691 0.0
O742 O 0.535 0.7497 0.68285 0.0
O743 O 0.51241 0.72295 0.6806 0.0
O744 O 0.48037 0.76734 0.69381 0.0
O745 O 0.54606 0.7788 0.68873 0.0
O746 O 0.64425 0.75283 0.68418 0.0
O747 O 0.64701 0.76993 0.6963 0.0
O748 O 0.54889 0.7411 0.70495 0.0
O749 O 0.574 0.76733 0.70738 0.0
O750 O 0.60122 0.72299 0.69377 0.0
O751 O 0.53573 0.71304 0.6996 0.0
H752 H 0.35804 0.73746 0.71113 0.0
H753 H 0.27976 0.74293 0.70975 0.0
H754 H 0.28787 0.73362 0.68083 0.0
H755 H 0.3662 0.72797 0.68224 0.0
H756 H 0.72485 0.75322 0.67619 0.0
H757 H 0.80334 0.74812 0.67749 0.0
H758 H 0.79585 0.75778 0.70639 0.0
H759 H 0.71734 0.76308 0.70505 0.0
Sm760 Sm 0.78693 0.49457 0.6957 0.0
Sm761 Sm 0.69577 0.47831 0.69443 0.0
C762 C 0.86845 0.50374 0.69978 0.0
C763 C 0.91481 0.49838 0.69885 0.0
C764 C 0.94114 0.49783 0.70665 0.0
C765 C 0.98598 0.49451 0.70596 0.0
C766 C 1.00562 0.49174 0.69743 0.0
C767 C 0.97896 0.49183 0.68964 0.0
C768 C 0.93399 0.4951 0.69034 0.0
C769 C 0.7513 0.49406 0.67847 0.0
C770 C 0.77678 0.45057 0.69264 0.0
C771 C 0.61447 0.46937 0.69 0.0
C772 C 0.56787 0.47414 0.69113 0.0
C773 C 0.54113 0.47492 0.6834 0.0
C774 C 0.49618 0.4778 0.68423 0.0
C775 C 0.47684 0.47993 0.69284 0.0
C776 C 0.50388 0.47953 0.70057 0.0
C777 C 0.54897 0.47668 0.69973 0.0
C778 C 0.72905 0.47938 0.71186 0.0
C779 C 0.70873 0.52274 0.6972 0.0
O780 O 0.84379 0.49392 0.70514 0.0
O781 O 0.84797 0.50953 0.69253 0.0
O782 O 0.74935 0.48131 0.68419 0.0
O783 O 0.77442 0.50751 0.68158 0.0
O784 O 0.80078 0.46385 0.69602 0.0
O785 O 0.73585 0.45327 0.69017 0.0
O786 O 0.63866 0.48028 0.68509 0.0
O787 O 0.63522 0.46253 0.69699 0.0
O788 O 0.73262 0.49187 0.70602 0.0
O789 O 0.70537 0.46613 0.70873 0.0
O790 O 0.6832 0.50962 0.69404 0.0
O791 O 0.74866 0.51941 0.70001 0.0
H792 H 0.92717 0.50046 0.71328 0.0
H793 H 1.0055 0.49476 0.71209 0.0
H794 H 0.9929 0.4895 0.68298 0.0
H795 H 0.91447 0.49539 0.6842 0.0
H796 H 0.55491 0.47285 0.6767 0.0
H797 H 0.4764 0.47777 0.67814 0.0
H798 H 0.49018 0.48136 0.70729 0.0
H799 H 0.56884 0.47619 0.70581 0.0
Sm800 Sm 0.45352 0.50366 0.4443 0.0
Sm801 Sm 0.5432 0.48613 0.4447 0.0
C802 C 0.37159 0.51335 0.44079 0.0
C803 C 0.32498 0.50876 0.44229 0.0
C804 C 0.30557 0.49341 0.43823 0.0
C805 C 0.26046 0.4905 0.43891 0.0
C806 C 0.23374 0.50288 0.44367 0.0
C807 C 0.25347 0.51797 0.44791 0.0
C808 C 0.29847 0.5209 0.4472 0.0
C809 C 0.49138 0.50334 0.46132 0.0
C810 C 0.4636 0.45934 0.44797 0.0
C811 C 0.62523 0.47594 0.44764 0.0
C812 C 0.67157 0.48089 0.44613 0.0
C813 C 0.69012 0.49665 0.44998 0.0
C814 C 0.73506 0.49994 0.44925 0.0
C815 C 0.76239 0.48758 0.44464 0.0
C816 C 0.74348 0.4721 0.44058 0.0
C817 C 0.69867 0.46878 0.44135 0.0
C818 C 0.50225 0.48591 0.42798 0.0
C819 C 0.53593 0.53013 0.44123 0.0
O820 O 0.39472 0.50278 0.43548 0.0
O821 O 0.39389 0.51966 0.44769 0.0
O822 O 0.49256 0.4904 0.45568 0.0
O823 O 0.46819 0.51676 0.45819 0.0
O824 O 0.43845 0.47251 0.44471 0.0
O825 O 0.50451 0.46237 0.45018 0.0
O826 O 0.60248 0.48577 0.45337 0.0
O827 O 0.60246 0.47052 0.44063 0.0
O828 O 0.50356 0.49917 0.43341 0.0
O829 O 0.52445 0.47221 0.43113 0.0
O830 O 0.55979 0.51656 0.44437 0.0
O831 O 0.49399 0.52813 0.43943 0.0
H832 H 0.32499 0.48381 0.43436 0.0
H833 H 0.24646 0.47862 0.43565 0.0
H834 H 0.23392 0.52792 0.45153 0.0
H835 H 0.3124 0.53298 0.4503 0.0
H836 H 0.67014 0.50627 0.45371 0.0
H837 H 0.74845 0.5121 0.45235 0.0
H838 H 0.76355 0.46217 0.43708 0.0
H839 H 0.68534 0.45643 0.4384 0.0
Sm840 Sm 0.33469 0.22864 0.44417 0.0
Sm841 Sm 0.24505 0.24609 0.44472 0.0
C842 C 0.41654 0.219 0.44055 0.0
C843 C 0.46315 0.22376 0.44198 0.0
C844 C 0.48356 0.23749 0.43682 0.0
C845 C 0.52864 0.24039 0.4375 0.0
C846 C 0.55444 0.22962 0.44333 0.0
C847 C 0.53378 0.21619 0.44863 0.0
C848 C 0.48876 0.21326 0.44793 0.0
C849 C 0.29802 0.22921 0.46129 0.0
C850 C 0.32446 0.27309 0.4475 0.0
C851 C 0.16307 0.25617 0.44781 0.0
C852 C 0.1167 0.25101 0.44644 0.0
C853 C 0.0973 0.23678 0.45143 0.0
C854 C 0.05237 0.23345 0.45077 0.0
C855 C 0.02581 0.24425 0.44511 0.0
C856 C 0.0455 0.25816 0.43996 0.0
C857 C 0.09033 0.26153 0.44065 0.0
C858 C 0.28485 0.24593 0.42789 0.0
C859 C 0.25224 0.20205 0.44144 0.0
O860 O 0.39307 0.22943 0.43523 0.0
O861 O 0.39451 0.21275 0.44749 0.0
O862 O 0.2964 0.2421 0.45561 0.0
O863 O 0.32088 0.21574 0.45812 0.0
O864 O 0.3496 0.25983 0.44433 0.0
O865 O 0.28376 0.27009 0.44987 0.0
O866 O 0.18638 0.24664 0.45356 0.0
O867 O 0.18536 0.26144 0.4407 0.0
O868 O 0.28393 0.23282 0.4334 0.0
O869 O 0.26284 0.2597 0.43101 0.0
O870 O 0.22859 0.21566 0.4446 0.0
O871 O 0.29405 0.20403 0.43952 0.0
H872 H 0.46493 0.24575 0.43211 0.0
H873 H 0.54337 0.251 0.4334 0.0
H874 H 0.55262 0.20747 0.45309 0.0
H875 H 0.47418 0.20239 0.45189 0.0
H876 H 0.11658 0.22843 0.45599 0.0
H877 H 0.03837 0.22249 0.45475 0.0
H878 H 0.02602 0.2669 0.43563 0.0
H879 H 0.1042 0.27275 0.43682 0.0
Sm880 Sm 0.45631 0.22688 0.3255 0.0
Sm881 Sm 0.54663 0.2443 0.32433 0.0
C882 C 0.37507 0.21761 0.32986 0.0
C883 C 0.32838 0.22247 0.32882 0.0
C884 C 0.30228 0.22395 0.33661 0.0
C885 C 0.25728 0.22689 0.33588 0.0
C886 C 0.23718 0.22838 0.32732 0.0
C887 C 0.26357 0.22727 0.3195 0.0
C888 C 0.3087 0.22436 0.32024 0.0
C889 C 0.4909 0.22725 0.3082 0.0
C890 C 0.46646 0.27132 0.32189 0.0
C891 C 0.62811 0.25401 0.32049 0.0
C892 C 0.67463 0.24884 0.32152 0.0
C893 C 0.70087 0.24751 0.31373 0.0
C894 C 0.74574 0.24426 0.31447 0.0
C895 C 0.76559 0.24233 0.32304 0.0
C896 C 0.73907 0.24327 0.33084 0.0
C897 C 0.69406 0.24647 0.33009 0.0
C898 C 0.50898 0.24443 0.34137 0.0
C899 C 0.53919 0.20021 0.32787 0.0
O900 O 0.39937 0.22822 0.33491 0.0
O901 O 0.39579 0.21116 0.32278 0.0
O902 O 0.49347 0.24012 0.31387 0.0
O903 O 0.46768 0.21395 0.31145 0.0
O904 O 0.4417 0.25808 0.32521 0.0
O905 O 0.50706 0.26834 0.3194 0.0
O906 O 0.60402 0.2441 0.31504 0.0
O907 O 0.60698 0.25966 0.32768 0.0
O908 O 0.50887 0.23129 0.33587 0.0
O909 O 0.53133 0.25802 0.33815 0.0
O910 O 0.56271 0.21379 0.32464 0.0
O911 O 0.4975 0.20223 0.32993 0.0
H912 H 0.31659 0.22237 0.3433 0.0
H913 H 0.23804 0.22743 0.34205 0.0
H914 H 0.24933 0.2286 0.3128 0.0
H915 H 0.32798 0.22331 0.3141 0.0
H916 H 0.68678 0.24945 0.30705 0.0
H917 H 0.76511 0.24386 0.30832 0.0
H918 H 0.75313 0.24161 0.33754 0.0
H919 H 0.6747 0.24739 0.33623 0.0
Sm920 Sm 0.33533 0.5019 0.32536 0.0
Sm921 Sm 0.24477 0.48516 0.32391 0.0
C922 C 0.41642 0.51094 0.32994 0.0
C923 C 0.46311 0.50625 0.32879 0.0
C924 C 0.48973 0.50502 0.33653 0.0
C925 C 0.53472 0.50217 0.33569 0.0
C926 C 0.55426 0.50055 0.32708 0.0
C927 C 0.52735 0.50142 0.31933 0.0
C928 C 0.48223 0.50423 0.32017 0.0
C929 C 0.30281 0.50121 0.30788 0.0
C930 C 0.32377 0.45743 0.32216 0.0
C931 C 0.1632 0.47578 0.31991 0.0
C932 C 0.11675 0.48107 0.32087 0.0
C933 C 0.09055 0.48215 0.31307 0.0
C934 C 0.04566 0.48541 0.31377 0.0
C935 C 0.02579 0.48758 0.32232 0.0
C936 C 0.0523 0.48693 0.33013 0.0
C937 C 0.0973 0.48372 0.32942 0.0
C938 C 0.28035 0.48559 0.34117 0.0
C939 C 0.25347 0.52921 0.32703 0.0
O940 O 0.39225 0.49984 0.33475 0.0
O941 O 0.39567 0.51796 0.323 0.0
O942 O 0.29908 0.48849 0.31362 0.0
O943 O 0.32605 0.51445 0.31116 0.0
O944 O 0.34876 0.47062 0.32545 0.0
O945 O 0.28366 0.4606 0.31941 0.0
O946 O 0.18768 0.4856 0.31451 0.0
O947 O 0.18395 0.47006 0.32714 0.0
O948 O 0.28156 0.49846 0.33551 0.0
O949 O 0.25805 0.47199 0.33796 0.0
O950 O 0.23024 0.51582 0.32353 0.0
O951 O 0.29428 0.5267 0.32964 0.0
H952 H 0.47582 0.50669 0.34324 0.0
H953 H 0.55436 0.50182 0.3418 0.0
H954 H 0.54116 0.49998 0.3126 0.0
H955 H 0.4625 0.50509 0.31408 0.0
H956 H 0.10467 0.48 0.30641 0.0
H957 H 0.0263 0.4856 0.30762 0.0
H958 H 0.03821 0.48879 0.33681 0.0
H959 H 0.11665 0.483 0.33557 0.0
Sm960 Sm 0.49445 -0.00521 0.07538 0.0
Sm961 Sm 0.58406 0.97725 0.07605 0.0
C962 C 0.41258 0.00488 0.07213 0.0
C963 C 0.36612 -0.0001 0.07353 0.0
C964 C 0.34706 0.98493 0.06905 0.0
C965 C 0.30208 0.98168 0.06971 0.0
C966 C 0.27515 -0.00671 0.07487 0.0
C967 C 0.29453 0.00797 0.07953 0.0
C968 C 0.3394 0.01125 0.07884 0.0
C969 C 0.53383 -0.00509 0.09225 0.0
C970 C 0.50149 0.95077 0.07886 0.0
C971 C 0.66593 0.96756 0.07965 0.0
C972 C 0.71254 0.97223 0.07816 0.0
C973 C 0.73257 0.98678 0.0828 0.0
C974 C 0.77765 0.98969 0.08207 0.0
C975 C 0.80378 0.97814 0.0767 0.0
C976 C 0.78347 0.96388 0.0719 0.0
C977 C 0.73848 0.96093 0.07265 0.0
C978 C 0.54726 0.97773 0.05891 0.0
C979 C 0.57422 0.02165 0.07261 0.0
O980 O 0.43583 -0.00498 0.06651 0.0
O981 O 0.43486 0.01042 0.0792 0.0
O982 O 0.5333 0.98169 0.08678 0.0
O983 O 0.51164 0.00858 0.08906 0.0
O984 O 0.47789 0.96436 0.07565 0.0
O985 O 0.5433 0.95275 0.08079 0.0
O986 O 0.64264 0.97809 0.08495 0.0
O987 O 0.64373 0.96122 0.07274 0.0
O988 O 0.54604 -0.00933 0.06456 0.0
O989 O 0.56989 0.96422 0.06212 0.0
O990 O 0.59909 0.0084 0.07587 0.0
O991 O 0.53357 0.01867 0.07018 0.0
H992 H 0.36665 0.97592 0.06488 0.0
H993 H 0.28833 0.97013 0.06612 0.0
H994 H 0.27479 0.01732 0.08347 0.0
H995 H 0.35305 0.02302 0.08227 0.0
H996 H 0.71366 -0.0043 0.08714 0.0
H997 H 0.7921 0.00094 0.08577 0.0
H998 H 0.80256 0.95455 0.0678 0.0
H999 H 0.72415 0.94945 0.0691 0.0
Sm1000 Sm 0.78967 0.23635 0.07376 0.0
Sm1001 Sm 0.69866 0.25273 0.07508 0.0
C1002 C 0.87114 0.22716 0.06966 0.0
C1003 C 0.91754 0.23258 0.0705 0.0
C1004 C 0.94181 0.23593 0.06259 0.0
C1005 C 0.98674 0.23917 0.06306 0.0
C1006 C 1.0086 0.23901 0.07147 0.0
C1007 C 0.98401 0.23618 0.07942 0.0
C1008 C 0.93898 0.23297 0.07895 0.0
C1009 C 0.7539 0.23655 0.09098 0.0
C1010 C 0.77981 0.2803 0.07705 0.0
C1011 C 0.61751 0.26171 0.07959 0.0
C1012 C 0.57076 0.25718 0.07844 0.0
C1013 C 0.54521 0.25409 0.0862 0.0
C1014 C 0.50009 0.25164 0.08547 0.0
C1015 C 0.47935 0.2523 0.07694 0.0
C1016 C 0.5052 0.25487 0.06914 0.0
C1017 C 0.55044 0.25731 0.06988 0.0
C1018 C 0.73201 0.25199 0.05766 0.0
C1019 C 0.71121 0.20835 0.07197 0.0
O1020 O 0.84623 0.23686 0.06428 0.0
O1021 O 0.85084 0.22142 0.07694 0.0
O1022 O 0.75215 0.24942 0.08533 0.0
O1023 O 0.77683 0.22309 0.0878 0.0
O1024 O 0.80377 0.26707 0.0736 0.0
O1025 O 0.73888 0.27759 0.07949 0.0
O1026 O 0.64157 0.25053 0.08439 0.0
O1027 O 0.63836 0.2688 0.07268 0.0
O1028 O 0.73548 0.23939 0.06345 0.0
O1029 O 0.70824 0.26518 0.06083 0.0
O1030 O 0.68581 0.22142 0.07524 0.0
O1031 O 0.75125 0.2117 0.06924 0.0
H1032 H 0.92617 0.23564 0.05599 0.0
H1033 H 1.00443 0.24161 0.05681 0.0
H1034 H 0.99978 0.2358 0.086 0.0
H1035 H 0.92126 0.23035 0.08517 0.0
H1036 H 0.56007 0.25398 0.09288 0.0
H1037 H 0.48139 0.24936 0.0916 0.0
H1038 H 0.49032 0.25561 0.06248 0.0
H1039 H 0.56925 0.25973 0.06377 0.0
Sm1040 Sm 0.49742 0.23644 0.19511 0.0
Sm1041 Sm 0.58748 0.25305 0.19437 0.0
C1042 C 0.41539 0.22681 0.19844 0.0
C1043 C 0.36909 0.23219 0.19718 0.0
C1044 C 0.34985 0.24598 0.20249 0.0
C1045 C 0.30497 0.24946 0.20191 0.0
C1046 C 0.27832 0.23925 0.19601 0.0
C1047 C 0.29785 0.22578 0.19055 0.0
C1048 C 0.34262 0.22225 0.19116 0.0
C1049 C 0.53534 0.23677 0.1781 0.0
C1050 C 0.50635 0.28046 0.1921 0.0
C1051 C 0.66935 0.26236 0.19062 0.0
C1052 C 0.71593 0.25774 0.19219 0.0
C1053 C 0.73728 0.24462 0.18682 0.0
C1054 C 0.78238 0.2419 0.18761 0.0
C1055 C 0.80725 0.25229 0.19376 0.0
C1056 C 0.78566 0.26509 0.19928 0.0
C1057 C 0.74062 0.26783 0.19848 0.0
C1058 C 0.55219 0.25211 0.21164 0.0
C1059 C 0.57583 0.20859 0.19725 0.0
O1060 O 0.4393 0.23623 0.20412 0.0
O1061 O 0.43708 0.22145 0.19127 0.0
O1062 O 0.53589 0.24972 0.18371 0.0
O1063 O 0.51288 0.22314 0.18122 0.0
O1064 O 0.48239 0.26708 0.19538 0.0
O1065 O 0.54754 0.27789 0.18982 0.0
O1066 O 0.64605 0.25147 0.1855 0.0
O1067 O 0.64713 0.26921 0.1974 0.0
O1068 O 0.54982 0.23943 0.20586 0.0
O1069 O 0.57523 0.26554 0.2085 0.0
O1070 O 0.60132 0.22181 0.19418 0.0
O1071 O 0.53542 0.21177 0.19977 0.0
H1072 H 0.36921 0.25384 0.20724 0.0
H1073 H 0.29106 0.26007 0.20613 0.0
H1074 H 0.27827 0.21747 0.18603 0.0
H1075 H 0.35635 0.21136 0.18709 0.0
H1076 H 0.7194 0.23671 0.18184 0.0
H1077 H 0.79785 0.23178 0.18333 0.0
H1078 H 0.8038 0.27351 0.204 0.0
H1079 H 0.72533 0.27826 0.20261 0.0
Sm1080 Sm 0.79645 -0.00425 0.19575 0.0
Sm1081 Sm 0.70686 0.97789 0.19466 0.0
C1082 C 0.87803 0.00569 0.19939 0.0
C1083 C 0.9246 0.00044 0.19829 0.0
C1084 C 0.94764 -0.00709 0.20565 0.0
C1085 C 0.9926 0.98971 0.20506 0.0
C1086 C 1.01583 -0.00592 0.19711 0.0
C1087 C 0.99258 0.00121 0.18967 0.0
C1088 C 0.94756 0.00441 0.19025 0.0
C1089 C 0.75844 -0.00419 0.17874 0.0
C1090 C 0.79033 0.95172 0.19215 0.0
C1091 C 0.62555 0.96833 0.1905 0.0
C1092 C 0.57875 0.97313 0.19165 0.0
C1093 C 0.55514 0.98019 0.18426 0.0
C1094 C 0.51003 0.98298 0.18487 0.0
C1095 C 0.48723 0.97865 0.19288 0.0
C1096 C 0.51106 0.97196 0.20036 0.0
C1097 C 0.55624 0.96919 0.19974 0.0
C1098 C 0.74236 0.97813 0.2119 0.0
C1099 C 0.71581 0.02231 0.19845 0.0
O1100 O 0.85407 -0.00404 0.20494 0.0
O1101 O 0.85649 0.01124 0.19223 0.0
O1102 O 0.75878 0.98262 0.18422 0.0
O1103 O 0.78019 0.00954 0.18199 0.0
O1104 O 0.81322 0.96533 0.19553 0.0
O1105 O 0.7487 0.95359 0.19001 0.0
O1106 O 0.64953 0.97893 0.18538 0.0
O1107 O 0.64684 0.96187 0.1975 0.0
O1108 O 0.74389 -0.00885 0.2063 0.0
O1109 O 0.71966 0.96471 0.20862 0.0
O1110 O 0.69144 0.00904 0.19504 0.0
O1111 O 0.75651 0.01946 0.2009 0.0
H1112 H 0.93107 0.98985 0.21197 0.0
H1113 H 1.00925 0.98396 0.21089 0.0
H1114 H 1.00941 0.00494 0.18347 0.0
H1115 H 0.93103 0.01044 0.18448 0.0
H1116 H 0.57143 0.9832 0.1779 0.0
H1117 H 0.49295 0.98841 0.17903 0.0
H1118 H 0.4946 0.96827 0.2066 0.0
H1119 H 0.57325 0.96352 0.20554 0.0
Sm1120 Sm 0.45458 0.00194 0.94504 0.0
Sm1121 Sm 0.54429 0.98453 0.9457 0.0
C1122 C 0.37274 0.0115 0.94134 0.0
C1123 C 0.3261 0.00692 0.94284 0.0
C1124 C 0.30607 -0.00777 0.93831 0.0
C1125 C 0.26096 0.98938 0.93903 0.0
C1126 C 0.23481 0.00117 0.94427 0.0
C1127 C 0.25511 0.01558 0.94895 0.0
C1128 C 0.30013 0.01845 0.94822 0.0
C1129 C 0.4911 0.00161 0.96218 0.0
C1130 C 0.46486 0.95758 0.94861 0.0
C1131 C 0.62626 0.97449 0.94884 0.0
C1132 C 0.67264 0.97951 0.94738 0.0
C1133 C 0.69151 -0.00527 0.95168 0.0
C1134 C 0.73645 -0.00197 0.95098 0.0
C1135 C 0.7635 0.98622 0.94596 0.0
C1136 C 0.7443 0.97129 0.94148 0.0
C1137 C 0.69947 0.96795 0.94222 0.0
C1138 C 0.50462 0.98446 0.92884 0.0
C1139 C 0.53701 0.02849 0.94222 0.0
O1140 O 0.39604 0.00077 0.93614 0.0
O1141 O 0.39489 0.01808 0.94819 0.0
O1142 O 0.49282 0.98866 0.95654 0.0
O1143 O 0.46815 0.01501 0.95896 0.0
O1144 O 0.43981 0.97075 0.94531 0.0
O1145 O 0.5055 0.96067 0.95101 0.0
O1146 O 0.60316 0.98434 0.95449 0.0
O1147 O 0.60382 0.96892 0.94181 0.0
O1148 O 0.50546 -0.00236 0.93432 0.0
O1149 O 0.52665 0.97074 0.93201 0.0
O1150 O 0.56064 0.01498 0.94548 0.0
O1151 O 0.49526 0.02642 0.94025 0.0
H1152 H 0.32501 0.98313 0.93406 0.0
H1153 H 0.24652 0.97802 0.93542 0.0
H1154 H 0.236 0.02508 0.95295 0.0
H1155 H 0.31447 0.03005 0.95167 0.0
H1156 H 0.67181 0.00391 0.95574 0.0
H1157 H 0.75008 0.00978 0.95442 0.0
H1158 H 0.76415 0.96178 0.93765 0.0
H1159 H 0.68595 0.956 0.93892 0.0
Sm1160 Sm 0.33413 0.72723 0.94419 0.0
Sm1161 Sm 0.24458 0.74471 0.94456 0.0
C1162 C 0.4161 0.71756 0.94071 0.0
C1163 C 0.46271 0.72226 0.94216 0.0
C1164 C 0.48277 0.73662 0.93739 0.0
C1165 C 0.52788 0.73949 0.93806 0.0
C1166 C 0.55401 0.72806 0.9435 0.0
C1167 C 0.53368 0.714 0.94844 0.0
C1168 C 0.48865 0.7111 0.94774 0.0
C1169 C 0.29639 0.72756 0.96122 0.0
C1170 C 0.32404 0.77159 0.94777 0.0
C1171 C 0.16249 0.75485 0.94748 0.0
C1172 C 0.11616 0.74968 0.94608 0.0
C1173 C 0.09732 0.73477 0.95064 0.0
C1174 C 0.0524 0.7314 0.94999 0.0
C1175 C 0.02533 0.74284 0.94476 0.0
C1176 C 0.0445 0.75743 0.94001 0.0
C1177 C 0.08932 0.76084 0.9407 0.0
C1178 C 0.28544 0.74493 0.92784 0.0
C1179 C 0.25184 0.70071 0.94117 0.0
O1180 O 0.39282 0.72798 0.93534 0.0
O1181 O 0.39389 0.71137 0.94763 0.0
O1182 O 0.29517 0.74052 0.95558 0.0
O1183 O 0.31941 0.71412 0.95806 0.0
O1184 O 0.3493 0.75837 0.9446 0.0
O1185 O 0.28306 0.76861 0.94993 0.0
O1186 O 0.18559 0.74539 0.9533 0.0
O1187 O 0.18498 0.75998 0.94037 0.0
O1188 O 0.28416 0.73166 0.93327 0.0
O1189 O 0.26333 0.75864 0.931 0.0
O1190 O 0.22798 0.71429 0.94427 0.0
O1191 O 0.29378 0.70269 0.93938 0.0
H1192 H 0.46385 0.74542 0.93298 0.0
H1193 H 0.54235 0.75059 0.93426 0.0
H1194 H 0.55278 0.70477 0.95259 0.0
H1195 H 0.47429 0.69975 0.95139 0.0
H1196 H 0.11703 0.72591 0.95487 0.0
H1197 H 0.03879 0.71991 0.95365 0.0
H1198 H 0.02463 0.76665 0.93601 0.0
H1199 H 0.10282 0.77256 0.9372 0.0
Sm1200 Sm 0.44985 0.72879 0.8244 0.0
Sm1201 Sm 0.54002 0.74543 0.82342 0.0
C1202 C 0.36826 0.71975 0.82853 0.0
C1203 C 0.32162 0.7245 0.82716 0.0
C1204 C 0.2987 0.73391 0.83397 0.0
C1205 C 0.25361 0.73661 0.83327 0.0
C1206 C 0.23023 0.72986 0.82577 0.0
C1207 C 0.25336 0.72084 0.81884 0.0
C1208 C 0.29849 0.71814 0.81954 0.0
C1209 C 0.48418 0.72946 0.80706 0.0
C1210 C 0.46144 0.77314 0.82114 0.0
C1211 C 0.62195 0.75488 0.81987 0.0
C1212 C 0.66826 0.7494 0.82106 0.0
C1213 C 0.68982 0.73937 0.81426 0.0
C1214 C 0.73469 0.73597 0.81485 0.0
C1215 C 0.75918 0.7426 0.82223 0.0
C1216 C 0.7374 0.75225 0.82913 0.0
C1217 C 0.69254 0.75566 0.82854 0.0
C1218 C 0.50257 0.74526 0.8405 0.0
C1219 C 0.53116 0.70145 0.82662 0.0
O1220 O 0.39209 0.73073 0.83349 0.0
O1221 O 0.38981 0.71268 0.82171 0.0
O1222 O 0.48718 0.74216 0.81281 0.0
O1223 O 0.46082 0.71616 0.81025 0.0
O1224 O 0.43622 0.76004 0.82443 0.0
O1225 O 0.50172 0.76986 0.81856 0.0
O1226 O 0.59777 0.74531 0.8143 0.0
O1227 O 0.60048 0.76052 0.82702 0.0
O1228 O 0.5021 0.73227 0.83491 0.0
O1229 O 0.52487 0.75888 0.83731 0.0
O1230 O 0.55495 0.71478 0.82323 0.0
O1231 O 0.49004 0.70402 0.82896 0.0
H1232 H 0.31543 0.73881 0.83998 0.0
H1233 H 0.23698 0.74384 0.83867 0.0
H1234 H 0.23638 0.71526 0.81301 0.0
H1235 H 0.31497 0.71061 0.81422 0.0
H1236 H 0.67225 0.7345 0.80835 0.0
H1237 H 0.7503 0.72831 0.80946 0.0
H1238 H 0.7553 0.75777 0.83485 0.0
H1239 H 0.67716 0.76368 0.83383 0.0
Sm1240 Sm 0.33361 0.00395 0.82633 0.0
Sm1241 Sm 0.24323 0.98664 0.82522 0.0
C1242 C 0.41507 0.01306 0.83057 0.0
C1243 C 0.46168 0.00824 0.8293 0.0
C1244 C 0.48711 0.00389 0.83694 0.0
C1245 C 0.53208 0.001 0.83611 0.0
C1246 C 0.55284 0.0025 0.82762 0.0
C1247 C 0.52717 0.00649 0.81994 0.0
C1248 C 0.48209 0.00934 0.82076 0.0
C1249 C 0.29855 0.00374 0.80905 0.0
C1250 C 0.32306 0.9596 0.82264 0.0
C1251 C 0.16164 0.97709 0.8214 0.0
C1252 C 0.11517 0.98227 0.82257 0.0
C1253 C 0.09005 0.98657 0.81488 0.0
C1254 C 0.04517 0.98977 0.81564 0.0
C1255 C 0.02418 0.98862 0.82412 0.0
C1256 C 0.04955 0.9847 0.83186 0.0
C1257 C 0.09453 0.98155 0.8311 0.0
C1258 C 0.28134 0.98624 0.84221 0.0
C1259 C 0.25099 0.0306 0.82899 0.0
O1260 O 0.39114 0.00216 0.83554 0.0
O1261 O 0.39376 0.01997 0.82367 0.0
O1262 O 0.29608 -0.00916 0.81471 0.0
O1263 O 0.32199 0.01697 0.81229 0.0
O1264 O 0.34802 0.97275 0.82598 0.0
O1265 O 0.28253 0.96269 0.82014 0.0
O1266 O 0.18556 0.98721 0.81602 0.0
O1267 O 0.1831 0.97106 0.82848 0.0
O1268 O 0.28139 -0.00055 0.83675 0.0
O1269 O 0.25875 0.97273 0.83898 0.0
O1270 O 0.22726 0.01713 0.82572 0.0
O1271 O 0.29274 0.02852 0.83096 0.0
H1272 H 0.47233 0.00317 0.84361 0.0
H1273 H 0.55081 -0.00181 0.84219 0.0
H1274 H 0.54196 0.00752 0.81328 0.0
H1275 H 0.46345 0.0127 0.81474 0.0
H1276 H 0.10497 0.987 0.80821 0.0
H1277 H 0.02666 -0.00749 0.80952 0.0
H1278 H 0.03456 0.98393 0.83851 0.0
H1279 H 0.11289 0.97824 0.83716 0.0
C1280 C 1.0014 0.41708 0.08041 0.0
C1281 C 0.97838 0.43361 0.08012 0.0
C1282 C 0.97892 0.40063 0.08156 0.0
C1283 C 0.86892 0.38151 0.07814 0.0
H1284 H 0.91603 0.33991 0.09113 0.0
C1285 C 0.7759 0.31343 0.08115 0.0
C1286 C 0.80072 0.29809 0.0787 0.0
C1287 C 0.79628 0.33024 0.08258 0.0
C1288 C 0.90255 0.35147 0.0875 0.0
H1289 H 0.91447 0.44617 0.08144 0.0
H1290 H 0.87568 0.4177 0.0837 0.0
H1291 H 0.95499 0.36901 0.0915 0.0
H1292 H 0.86641 0.28817 0.07606 0.0
H1293 H 0.90164 0.31743 0.07854 0.0
H1294 H 0.81673 0.36395 0.07408 0.0
C1295 C 0.9107 0.41724 0.08272 0.0
C1296 C 0.92489 0.36806 0.08766 0.0
C1297 C 0.93298 0.43357 0.08144 0.0
C1298 C 0.84627 0.29976 0.07789 0.0
C1299 C 0.86658 0.31647 0.07939 0.0
C1300 C 0.84647 0.36499 0.07803 0.0
C1301 C 0.9332 0.40056 0.08256 0.0
C1302 C 0.90856 0.38319 0.08289 0.0
C1303 C 0.84179 0.33188 0.08168 0.0
C1304 C 0.86339 0.34977 0.08259 0.0
H1305 H 0.03643 0.41679 0.07941 0.0
H1306 H 0.99715 0.38798 0.08133 0.0
H1307 H 0.85584 0.39279 0.07424 0.0
H1308 H 0.74078 0.31253 0.08185 0.0
H1309 H 0.77652 0.34196 0.08437 0.0
C1310 C 0.50237 0.91687 0.08105 0.0
C1311 C 0.47919 0.93336 0.08063 0.0
C1312 C 0.47996 0.90037 0.08207 0.0
C1313 C 0.37058 0.8809 0.07813 0.0
H1314 H 0.41635 0.83972 0.09165 0.0
C1315 C 0.2768 0.81306 0.08142 0.0
C1316 C 0.30164 0.79758 0.0792 0.0
C1317 C 0.29726 0.82988 0.08276 0.0
C1318 C 0.40326 0.85115 0.08786 0.0
H1319 H 0.41489 0.94574 0.0815 0.0
H1320 H 0.37621 0.91719 0.08352 0.0
H1321 H 0.45524 0.86883 0.09197 0.0
H1322 H 0.36742 0.78744 0.0769 0.0
H1323 H 0.40279 0.81672 0.07924 0.0
H1324 H 0.31879 0.8632 0.07399 0.0
C1325 C 0.41137 0.91681 0.08276 0.0
C1326 C 0.42557 0.86776 0.088 0.0
C1327 C 0.4336 0.93319 0.08163 0.0
C1328 C 0.34728 0.79913 0.07855 0.0
C1329 C 0.36766 0.81585 0.07997 0.0
C1330 C 0.34815 0.86437 0.07805 0.0
C1331 C 0.43412 0.90018 0.08278 0.0
C1332 C 0.40969 0.88275 0.08305 0.0
C1333 C 0.34285 0.8314 0.08201 0.0
C1334 C 0.36456 0.8493 0.08282 0.0
H1335 H 0.53754 0.91666 0.08029 0.0
H1336 H 0.4984 0.88776 0.08198 0.0
H1337 H 0.35787 0.89206 0.07409 0.0
H1338 H 0.24161 0.81224 0.08199 0.0
H1339 H 0.27747 0.8417 0.08436 0.0
C1340 C 0.85929 0.93438 0.19015 0.0
C1341 C 0.81343 0.93446 0.19037 0.0
C1342 C 0.88211 0.91817 0.18891 0.0
C1343 C 0.87153 0.87026 0.18156 0.0
H1344 H 0.97104 0.86333 0.19752 0.0
C1345 C 0.94673 0.80026 0.18941 0.0
C1346 C 0.9924 0.79887 0.19012 0.0
C1347 C 0.92687 0.81716 0.18816 0.0
C1348 C 0.94384 0.86518 0.19291 0.0
H1349 H 0.75538 0.91774 0.18919 0.0
H1350 H 0.79553 0.8891 0.18725 0.0
H1351 H 0.93132 0.89204 0.19784 0.0
H1352 H 0.05313 0.81408 0.18984 0.0
H1353 H 1.01813 0.84378 0.18769 0.0
H1354 H 0.88356 0.84308 0.17683 0.0
C1355 C 0.81371 0.9017 0.1879 0.0
C1356 C 0.92101 0.88162 0.19309 0.0
C1357 C 0.79073 0.91804 0.18907 0.0
C1358 C 1.01788 0.81472 0.18935 0.0
C1359 C 0.99789 0.8317 0.18815 0.0
C1360 C 0.89433 0.85376 0.1814 0.0
C1361 C 0.85966 0.90161 0.18796 0.0
C1362 C 0.88444 0.88429 0.18747 0.0
C1363 C 0.95217 0.83306 0.18763 0.0
C1364 C 0.93044 0.85103 0.18714 0.0
H1365 H 0.87781 0.94687 0.19097 0.0
H1366 H 0.91745 0.91862 0.18877 0.0
H1367 H 0.84386 0.87203 0.17706 0.0
H1368 H 0.92604 0.78832 0.18991 0.0
H1369 H 0.89156 0.81782 0.1879 0.0
C1370 C 0.28615 0.41836 0.18907 0.0
C1371 C 0.30962 0.43478 0.18949 0.0
C1372 C 0.30826 0.40177 0.1881 0.0
C1373 C 0.41729 0.38184 0.19205 0.0
H1374 H 0.37074 0.3409 0.17848 0.0
C1375 C 0.5103 0.31381 0.18844 0.0
C1376 C 0.4854 0.29831 0.19058 0.0
C1377 C 0.48994 0.3307 0.18723 0.0
C1378 C 0.38404 0.35226 0.18229 0.0
H1379 H 0.37417 0.4469 0.18864 0.0
H1380 H 0.41234 0.41818 0.18669 0.0
H1381 H 0.33233 0.37014 0.17822 0.0
H1382 H 0.4196 0.28823 0.19288 0.0
H1383 H 0.38439 0.31764 0.19076 0.0
H1384 H 0.46885 0.36395 0.19614 0.0
C1385 C 0.37716 0.41795 0.18743 0.0
C1386 C 0.362 0.36894 0.18218 0.0
C1387 C 0.35522 0.43442 0.18852 0.0
C1388 C 0.43979 0.29993 0.19129 0.0
C1389 C 0.4195 0.31673 0.18999 0.0
C1390 C 0.43945 0.36524 0.1921 0.0
C1391 C 0.3541 0.4014 0.18741 0.0
C1392 C 0.37818 0.38386 0.18713 0.0
C1393 C 0.44438 0.33229 0.18803 0.0
C1394 C 0.42278 0.35025 0.18731 0.0
H1395 H 0.25097 0.41828 0.18981 0.0
H1396 H 0.28957 0.38924 0.18819 0.0
H1397 H 0.43023 0.39294 0.19609 0.0
H1398 H 0.54548 0.31296 0.18783 0.0
H1399 H 0.50978 0.34253 0.18567 0.0
C1400 C 0.02771 0.56294 0.93824 0.0
C1401 C 0.05242 0.54751 0.94062 0.0
C1402 C 0.04821 0.57975 0.93691 0.0
C1403 C 0.15452 0.60098 0.9321 0.0
H1404 H 0.10789 0.64213 0.9455 0.0
C1405 C 0.25293 0.6668 0.93906 0.0
C1406 C 0.22972 0.68329 0.93934 0.0
C1407 C 0.23063 0.65029 0.938 0.0
C1408 C 0.12095 0.63089 0.94157 0.0
H1409 H 0.11804 0.53746 0.94322 0.0
H1410 H 0.15347 0.56673 0.94091 0.0
H1411 H 0.06888 0.61325 0.9456 0.0
H1412 H 0.16555 0.69567 0.93813 0.0
H1413 H 0.12706 0.66709 0.93602 0.0
H1414 H 0.2068 0.61861 0.92811 0.0
C1415 C 0.11841 0.56583 0.94004 0.0
C1416 C 0.09857 0.61436 0.94164 0.0
C1417 C 0.09798 0.54911 0.94145 0.0
C1418 C 0.18425 0.68312 0.93812 0.0
C1419 C 0.16213 0.66673 0.93694 0.0
C1420 C 0.17679 0.61759 0.93197 0.0
C1421 C 0.09372 0.58132 0.93783 0.0
C1422 C 0.11542 0.59921 0.93701 0.0
C1423 C 0.18487 0.6501 0.93709 0.0
C1424 C 0.16046 0.63267 0.93678 0.0
H1425 H 0.99258 0.56209 0.93753 0.0
H1426 H 0.02852 0.59153 0.93518 0.0
H1427 H 0.16796 0.58949 0.92842 0.0
H1428 H 0.28802 0.6666 0.93998 0.0
H1429 H 0.24905 0.63768 0.93821 0.0
C1430 C 0.69067 0.18007 0.94085 0.0
C1431 C 0.73631 0.18163 0.94023 0.0
C1432 C 0.67038 0.1633 0.93953 0.0
C1433 C 0.69022 0.11495 0.94196 0.0
H1434 H 0.58305 0.10973 0.92814 0.0
C1435 C 0.60488 0.04597 0.9393 0.0
C1436 C 0.5593 0.04584 0.94032 0.0
C1437 C 0.62707 0.06229 0.93796 0.0
C1438 C 0.61275 0.11103 0.93208 0.0
H1439 H 0.79645 0.16694 0.93756 0.0
H1440 H 0.76074 0.13739 0.93537 0.0
H1441 H 0.62188 0.13887 0.92807 0.0
H1442 H 0.50092 0.06253 0.94046 0.0
H1443 H 0.54001 0.09135 0.93841 0.0
H1444 H 0.68058 0.08748 0.94628 0.0
C1445 C 0.74089 0.14925 0.93687 0.0
C1446 C 0.63503 0.12764 0.932 0.0
C1447 C 0.76124 0.16612 0.93811 0.0
C1448 C 0.53609 0.0623 0.9397 0.0
C1449 C 0.55847 0.07874 0.93848 0.0
C1450 C 0.66783 0.09843 0.94211 0.0
C1451 C 0.6953 0.14771 0.93763 0.0
C1452 C 0.67374 0.12976 0.93701 0.0
C1453 C 0.60429 0.0789 0.93774 0.0
C1454 C 0.62869 0.09631 0.93722 0.0
H1455 H 0.67046 0.19179 0.94242 0.0
H1456 H 0.63525 0.16242 0.94026 0.0
H1457 H 0.71959 0.11635 0.94601 0.0
H1458 H 0.62361 0.03343 0.93957 0.0
H1459 H 0.66222 0.06188 0.93718 0.0
C1460 C 0.09467 0.1815 0.82752 0.0
C1461 C 0.04914 0.18313 0.82842 0.0
C1462 C 0.11525 0.16486 0.82909 0.0
C1463 C 0.09592 0.11624 0.82819 0.0
H1464 H 0.20479 0.11301 0.84159 0.0
C1465 C 0.18338 0.048 0.83224 0.0
C1466 C 0.22873 0.04796 0.83086 0.0
C1467 C 0.16095 0.06433 0.83338 0.0
C1468 C 0.1746 0.11374 0.83778 0.0
H1469 H 0.98949 0.16867 0.83175 0.0
H1470 H 0.0257 0.13934 0.83438 0.0
H1471 H 0.16535 0.14199 0.84098 0.0
H1472 H 0.28659 0.06483 0.82992 0.0
H1473 H 0.24704 0.09366 0.83161 0.0
H1474 H 0.10565 0.08831 0.82468 0.0
C1475 C 0.04525 0.15105 0.83248 0.0
C1476 C 0.15198 0.13027 0.83746 0.0
C1477 C 0.0246 0.16779 0.83098 0.0
C1478 C 0.25159 0.06454 0.83097 0.0
C1479 C 0.22896 0.08099 0.83198 0.0
C1480 C 0.11864 0.09978 0.82844 0.0
C1481 C 0.09075 0.14948 0.83153 0.0
C1482 C 0.11269 0.13168 0.83259 0.0
C1483 C 0.18325 0.08104 0.83302 0.0
C1484 C 0.1584 0.09838 0.83318 0.0
H1485 H 0.11462 0.19307 0.8256 0.0
H1486 H 0.15028 0.16395 0.82819 0.0
H1487 H 0.06607 0.11705 0.82426 0.0
H1488 H 0.165 0.03537 0.83237 0.0
H1489 H 0.12596 0.06387 0.8344 0.0
C1490 C 0.59794 0.68216 0.82748 0.0
C1491 C 0.55235 0.68372 0.82827 0.0
C1492 C 0.61852 0.66549 0.82896 0.0
C1493 C 0.59911 0.61691 0.82751 0.0
H1494 H 0.70744 0.61299 0.84106 0.0
C1495 C 0.68555 0.54835 0.83118 0.0
C1496 C 0.73098 0.54823 0.82991 0.0
C1497 C 0.66329 0.56471 0.83237 0.0
C1498 C 0.67741 0.61392 0.8372 0.0
H1499 H 0.49261 0.6691 0.83136 0.0
H1500 H 0.52881 0.63974 0.83384 0.0
H1501 H 0.66827 0.64205 0.84066 0.0
H1502 H 0.78909 0.56499 0.8292 0.0
H1503 H 0.74985 0.59387 0.83097 0.0
H1504 H 0.60872 0.58911 0.82374 0.0
C1505 C 0.5484 0.65152 0.83208 0.0
C1506 C 0.65494 0.63049 0.83701 0.0
C1507 C 0.52776 0.66829 0.83068 0.0
C1508 C 0.75403 0.56475 0.83016 0.0
C1509 C 0.73158 0.58124 0.83122 0.0
C1510 C 0.62167 0.60041 0.82764 0.0
C1511 C 0.59394 0.65 0.8312 0.0
C1512 C 0.61582 0.63215 0.83209 0.0
C1513 C 0.68584 0.58137 0.83217 0.0
C1514 C 0.66123 0.59876 0.83243 0.0
H1515 H 0.61791 0.69381 0.82569 0.0
H1516 H 0.65359 0.66462 0.82812 0.0
H1517 H 0.56941 0.61792 0.82355 0.0
H1518 H 0.66699 0.53576 0.83121 0.0
H1519 H 0.62824 0.5643 0.83332 0.0
C1520 C 0.93426 0.93364 0.58187 0.0
C1521 C 0.97972 0.93386 0.58066 0.0
C1522 C 0.91214 0.91722 0.58293 0.0
C1523 C 0.92675 0.8679 0.58749 0.0
H1524 H 0.8189 0.86408 0.57378 0.0
C1525 C 0.84776 0.79976 0.57744 0.0
C1526 C 0.80218 0.79817 0.57824 0.0
C1527 C 0.86825 0.81642 0.57898 0.0
C1528 C 0.84857 0.86503 0.57776 0.0
H1529 H 0.03802 0.91719 0.5799 0.0
H1530 H 0.99905 0.88822 0.58146 0.0
H1531 H 0.85793 0.89293 0.57415 0.0
H1532 H 0.74238 0.8127 0.5814 0.0
H1533 H 0.77842 0.84204 0.58398 0.0
H1534 H 0.91786 0.83968 0.59079 0.0
C1535 C 0.98063 0.90082 0.58176 0.0
C1536 C 0.87097 0.88156 0.57799 0.0
C1537 C 1.00294 0.91736 0.58082 0.0
C1538 C 0.77752 0.81354 0.58071 0.0
C1539 C 0.79808 0.8303 0.58217 0.0
C1540 C 0.90446 0.8513 0.5872 0.0
C1541 C 0.93487 0.90059 0.58266 0.0
C1542 C 0.91045 0.88316 0.5828 0.0
C1543 C 0.8436 0.83186 0.58129 0.0
C1544 C 0.86538 0.84971 0.58226 0.0
H1545 H 0.91555 0.9462 0.58195 0.0
H1546 H 0.87706 0.91755 0.58385 0.0
H1547 H 0.95674 0.86878 0.59136 0.0
H1548 H 0.86778 0.78815 0.5756 0.0
H1549 H 0.90332 0.81732 0.57814 0.0
C1550 C 0.35368 0.29683 0.58097 0.0
C1551 C 0.30822 0.29682 0.57975 0.0
C1552 C 0.3761 0.31312 0.58222 0.0
C1553 C 0.36248 0.36223 0.58736 0.0
H1554 H 0.4703 0.36638 0.57368 0.0
C1555 C 0.44202 0.43055 0.57796 0.0
C1556 C 0.48763 0.43207 0.57872 0.0
C1557 C 0.42147 0.41387 0.57938 0.0
C1558 C 0.44066 0.36532 0.57766 0.0
H1559 H 0.25021 0.31369 0.57917 0.0
H1560 H 0.28973 0.34247 0.58106 0.0
H1561 H 0.43074 0.33764 0.57372 0.0
H1562 H 0.54743 0.41737 0.58169 0.0
H1563 H 0.51125 0.38797 0.58406 0.0
H1564 H 0.37191 0.39025 0.591 0.0
C1565 C 0.30791 0.3298 0.58122 0.0
C1566 C 0.41795 0.34886 0.57769 0.0
C1567 C 0.28529 0.31337 0.58009 0.0
C1568 C 0.51226 0.41658 0.58104 0.0
C1569 C 0.49163 0.3998 0.58238 0.0
C1570 C 0.38509 0.37876 0.58727 0.0
C1571 C 0.35368 0.32983 0.58213 0.0
C1572 C 0.37844 0.34716 0.58249 0.0
C1573 C 0.44606 0.39832 0.58153 0.0
C1574 C 0.42415 0.38047 0.58234 0.0
H1575 H 0.37215 0.28421 0.58092 0.0
H1576 H 0.41117 0.31263 0.58314 0.0
H1577 H 0.33249 0.36126 0.59123 0.0
H1578 H 0.42201 0.44225 0.57624 0.0
H1579 H 0.38637 0.41304 0.57857 0.0
C1580 C 0.93223 0.29758 0.68792 0.0
C1581 C 0.97768 0.29762 0.68918 0.0
C1582 C 0.90962 0.31386 0.68675 0.0
C1583 C 0.92281 0.36313 0.68194 0.0
H1584 H 0.81491 0.36681 0.69564 0.0
C1585 C 0.84335 0.43115 0.69186 0.0
C1586 C 0.79778 0.43277 0.69104 0.0
C1587 C 0.86383 0.41447 0.69037 0.0
C1588 C 0.84457 0.36588 0.69166 0.0
H1589 H 0.03545 0.31458 0.68989 0.0
H1590 H 0.99561 0.34332 0.68814 0.0
H1591 H 0.85457 0.33807 0.69537 0.0
H1592 H 0.73796 0.41823 0.68792 0.0
H1593 H 0.77403 0.38883 0.68542 0.0
H1594 H 0.91332 0.39127 0.67854 0.0
C1595 C 0.97759 0.33062 0.68789 0.0
C1596 C 0.86733 0.34943 0.69149 0.0
C1597 C 1.00039 0.31422 0.68894 0.0
C1598 C 0.7731 0.41737 0.68862 0.0
C1599 C 0.79367 0.40059 0.6872 0.0
C1600 C 0.90015 0.37965 0.68217 0.0
C1601 C 0.93184 0.3306 0.68695 0.0
C1602 C 0.90689 0.34791 0.6867 0.0
C1603 C 0.83921 0.39903 0.68808 0.0
C1604 C 0.8611 0.3812 0.68711 0.0
H1605 H 0.91393 0.28493 0.68789 0.0
H1606 H 0.87458 0.31333 0.68581 0.0
H1607 H 0.95282 0.3623 0.67808 0.0
H1608 H 0.8634 0.44277 0.69367 0.0
H1609 H 0.89891 0.41357 0.69121 0.0
C1610 C 0.50507 0.81479 0.68868 0.0
C1611 C 0.48207 0.79825 0.68875 0.0
C1612 C 0.48258 0.83128 0.68768 0.0
C1613 C 0.37243 0.85021 0.69122 0.0
H1614 H 0.41954 0.89245 0.67877 0.0
C1615 C 0.2788 0.9183 0.68876 0.0
C1616 C 0.30337 0.9336 0.69136 0.0
C1617 C 0.29942 0.90156 0.68723 0.0
C1618 C 0.40606 0.88072 0.68226 0.0
H1619 H 0.41825 0.78576 0.68721 0.0
H1620 H 0.37944 0.81433 0.6852 0.0
H1621 H 0.45872 0.86341 0.67811 0.0
H1622 H 0.36885 0.94351 0.69421 0.0
H1623 H 0.40448 0.91439 0.69156 0.0
H1624 H 0.32002 0.86753 0.69542 0.0
C1625 C 0.41444 0.81473 0.68624 0.0
C1626 C 0.42853 0.86415 0.68192 0.0
C1627 C 0.43673 0.79836 0.68736 0.0
C1628 C 0.3489 0.93195 0.69226 0.0
C1629 C 0.36945 0.91533 0.69066 0.0
C1630 C 0.34987 0.8667 0.69149 0.0
C1631 C 0.43688 0.83141 0.68663 0.0
C1632 C 0.41218 0.84878 0.68649 0.0
C1633 C 0.34491 0.89996 0.68819 0.0
C1634 C 0.36677 0.88215 0.68712 0.0
H1635 H 0.54006 0.81503 0.68973 0.0
H1636 H 0.50077 0.84392 0.68808 0.0
H1637 H 0.35934 0.83874 0.69496 0.0
H1638 H 0.2437 0.91918 0.68799 0.0
H1639 H 0.27985 0.88988 0.6853 0.0
C1640 C 0.09645 0.05087 0.44212 0.0
C1641 C 0.05084 0.04934 0.44137 0.0
C1642 C 0.117 0.06753 0.44063 0.0
C1643 C 0.09779 0.1161 0.44218 0.0
H1644 H 0.20575 0.11999 0.42852 0.0
C1645 C 0.18441 0.18459 0.43848 0.0
C1646 C 0.22991 0.18467 0.43966 0.0
C1647 C 0.16204 0.16825 0.43734 0.0
C1648 C 0.17583 0.11907 0.43241 0.0
H1649 H 0.99103 0.06399 0.43835 0.0
H1650 H 0.0272 0.09336 0.43586 0.0
H1651 H 0.16644 0.09098 0.4289 0.0
H1652 H 0.288 0.16785 0.44027 0.0
H1653 H 0.24858 0.13901 0.43857 0.0
H1654 H 0.10767 0.14385 0.446 0.0
C1655 C 0.04682 0.08155 0.43759 0.0
C1656 C 0.15328 0.10253 0.43259 0.0
C1657 C 0.0262 0.06479 0.439 0.0
C1658 C 0.2529 0.16812 0.43938 0.0
C1659 C 0.23034 0.15166 0.43836 0.0
C1660 C 0.12045 0.13257 0.44206 0.0
C1661 C 0.09239 0.08304 0.43843 0.0
C1662 C 0.11429 0.10088 0.43754 0.0
C1663 C 0.18455 0.15157 0.43749 0.0
C1664 C 0.15987 0.13421 0.43723 0.0
H1665 H 0.11646 0.0392 0.44388 0.0
H1666 H 0.1521 0.06837 0.44144 0.0
H1667 H 0.0682 0.11509 0.44617 0.0
H1668 H 0.16587 0.19719 0.43849 0.0
H1669 H 0.12696 0.1687 0.43645 0.0
C1670 C 0.75815 0.66838 0.43699 0.0
C1671 C 0.73307 0.68386 0.43908 0.0
C1672 C 0.73796 0.65146 0.43579 0.0
C1673 C 0.63233 0.62957 0.43099 0.0
H1674 H 0.67868 0.58961 0.4453 0.0
C1675 C 0.53456 0.56394 0.43874 0.0
C1676 C 0.55802 0.54754 0.43935 0.0
C1677 C 0.55667 0.58045 0.43753 0.0
C1678 C 0.66571 0.60049 0.44112 0.0
H1679 H 0.66712 0.69393 0.44123 0.0
H1680 H 0.63219 0.66448 0.43914 0.0
H1681 H 0.71718 0.61859 0.44499 0.0
H1682 H 0.62254 0.53532 0.43861 0.0
H1683 H 0.66069 0.56389 0.43624 0.0
H1684 H 0.58064 0.61148 0.42717 0.0
C1685 C 0.66732 0.6654 0.43841 0.0
C1686 C 0.68781 0.61709 0.44095 0.0
C1687 C 0.68744 0.68223 0.43969 0.0
C1688 C 0.6036 0.54781 0.43834 0.0
C1689 C 0.62554 0.56419 0.43701 0.0
C1690 C 0.61034 0.61289 0.4311 0.0
C1691 C 0.6924 0.64984 0.43655 0.0
C1692 C 0.67105 0.63183 0.43598 0.0
C1693 C 0.60249 0.58075 0.43679 0.0
C1694 C 0.62658 0.59823 0.43625 0.0
H1695 H 0.79335 0.66925 0.43645 0.0
H1696 H 0.75795 0.63962 0.43432 0.0
H1697 H 0.61896 0.64074 0.42705 0.0
H1698 H 0.49939 0.56409 0.4395 0.0
H1699 H 0.53801 0.59301 0.43746 0.0
C1700 C 0.25494 0.56221 0.33159 0.0
C1701 C 0.23168 0.54692 0.32849 0.0
C1702 C 0.23352 0.57887 0.3329 0.0
C1703 C 0.12417 0.59905 0.33613 0.0
H1704 H 0.17569 0.64217 0.32532 0.0
C1705 C 0.02686 0.66501 0.32863 0.0
C1706 C 0.049 0.68166 0.32957 0.0
C1707 C 0.04927 0.64853 0.32979 0.0
C1708 C 0.16114 0.63034 0.32853 0.0
H1709 H 0.16758 0.53703 0.32446 0.0
H1710 H 0.13072 0.56595 0.3267 0.0
H1711 H 0.21596 0.61356 0.32518 0.0
H1712 H 0.11102 0.69421 0.33306 0.0
H1713 H 0.14952 0.66564 0.33527 0.0
H1714 H 0.06905 0.6158 0.33937 0.0
C1715 C 0.16529 0.56508 0.3282 0.0
C1716 C 0.18427 0.61396 0.32844 0.0
C1717 C 0.18662 0.54854 0.32684 0.0
C1718 C 0.09322 0.68158 0.33211 0.0
C1719 C 0.11538 0.6652 0.33336 0.0
C1720 C 0.10106 0.61547 0.33625 0.0
C1721 C 0.18849 0.58041 0.3312 0.0
C1722 C 0.16576 0.59811 0.33213 0.0
C1723 C 0.09402 0.6485 0.33199 0.0
C1724 C 0.11912 0.63124 0.33236 0.0
H1725 H 0.28964 0.56137 0.33294 0.0
H1726 H 0.2521 0.59051 0.33526 0.0
H1727 H 0.10937 0.58703 0.33911 0.0
H1728 H 0.99277 0.6647 0.32668 0.0
H1729 H 0.03198 0.63586 0.32863 0.0
C1730 C 0.69444 0.04828 0.32838 0.0
C1731 C 0.7401 0.04681 0.32904 0.0
C1732 C 0.6739 0.06505 0.32958 0.0
C1733 C 0.69277 0.11357 0.32714 0.0
H1734 H 0.58583 0.11839 0.34106 0.0
C1735 C 0.60721 0.18254 0.33047 0.0
C1736 C 0.56156 0.18276 0.32957 0.0
C1737 C 0.62948 0.16614 0.33157 0.0
C1738 C 0.61544 0.11721 0.33709 0.0
H1739 H 0.80002 0.0617 0.33161 0.0
H1740 H 0.76386 0.09124 0.33361 0.0
H1741 H 0.62496 0.08932 0.34097 0.0
H1742 H 0.50318 0.1661 0.3294 0.0
H1743 H 0.54235 0.13717 0.33105 0.0
H1744 H 0.68278 0.14114 0.32297 0.0
C1745 C 0.74418 0.07931 0.33216 0.0
C1746 C 0.6379 0.10063 0.33708 0.0
C1747 C 0.7648 0.06244 0.33104 0.0
C1748 C 0.53839 0.16628 0.33007 0.0
C1749 C 0.56083 0.14976 0.33107 0.0
C1750 C 0.67019 0.13008 0.32709 0.0
C1751 C 0.69855 0.08074 0.33141 0.0
C1752 C 0.67658 0.09864 0.33204 0.0
C1753 C 0.60671 0.14953 0.33168 0.0
C1754 C 0.63114 0.13207 0.33203 0.0
H1755 H 0.67438 0.03648 0.3269 0.0
H1756 H 0.63875 0.06582 0.32885 0.0
H1757 H 0.72211 0.11231 0.32308 0.0
H1758 H 0.62595 0.19507 0.33028 0.0
H1759 H 0.66467 0.1665 0.33227 0.0
C1760 C 0.07023 0.47931 0.10387 0.0
C1761 C 0.0536 0.49554 0.10016 0.0
C1762 C 0.09166 0.47938 0.11227 0.0
C1763 C 0.1089 0.50828 0.13301 0.0
H1764 H 0.20286 0.47395 0.13748 0.0
C1765 C 0.22505 0.51268 0.16416 0.0
C1766 C 0.23177 0.49637 0.16898 0.0
C1767 C 0.20292 0.5126 0.15583 0.0
C1768 C 0.17649 0.48354 0.13635 0.0
H1769 H 0.04711 0.52465 0.10225 0.0
H1770 H 0.08587 0.525 0.11671 0.0
H1771 H 0.16614 0.47404 0.12279 0.0
H1772 H 0.22072 0.46717 0.16885 0.0
H1773 H 0.18296 0.46696 0.15418 0.0
H1774 H 0.12056 0.51811 0.14652 0.0
C1775 C 0.08125 0.51204 0.11333 0.0
C1776 C 0.15516 0.48355 0.12793 0.0
C1777 C 0.05923 0.51189 0.10498 0.0
C1778 C 0.21611 0.47995 0.16528 0.0
C1779 C 0.19464 0.47982 0.15687 0.0
C1780 C 0.13074 0.50845 0.14137 0.0
C1781 C 0.09768 0.49577 0.11714 0.0
C1782 C 0.12085 0.49587 0.12612 0.0
C1783 C 0.18767 0.49615 0.15206 0.0
C1784 C 0.16465 0.49604 0.14315 0.0
H1785 H 0.06625 0.46647 0.10031 0.0
H1786 H 0.10295 0.4665 0.115 0.0
H1787 H 0.08218 0.51774 0.13202 0.0
H1788 H 0.23663 0.52555 0.16686 0.0
H1789 H 0.19826 0.52538 0.15226 0.0
C1790 C 0.21565 0.75183 0.10411 0.0
C1791 C 0.23105 0.73556 0.10023 0.0
C1792 C 0.1953 0.75172 0.11264 0.0
C1793 C 0.1785 0.72218 0.13324 0.0
H1794 H 0.08864 0.75785 0.13861 0.0
C1795 C 0.06478 0.71884 0.16496 0.0
C1796 C 0.0614 0.73506 0.17 0.0
C1797 C 0.08606 0.7187 0.15653 0.0
C1798 C 0.11384 0.74786 0.13722 0.0
H1799 H 0.23633 0.70635 0.10211 0.0
H1800 H 0.19926 0.70594 0.11674 0.0
H1801 H 0.12332 0.75781 0.12372 0.0
H1802 H 0.07762 0.76385 0.17017 0.0
H1803 H 0.11368 0.76369 0.15533 0.0
H1804 H 0.1675 0.7119 0.14671 0.0
C1805 C 0.20414 0.71897 0.11343 0.0
C1806 C 0.13406 0.74788 0.12868 0.0
C1807 C 0.22519 0.71914 0.10499 0.0
C1808 C 0.07963 0.75114 0.16643 0.0
C1809 C 0.10013 0.75107 0.15793 0.0
C1810 C 0.15766 0.72196 0.14172 0.0
C1811 C 0.18904 0.73527 0.11744 0.0
C1812 C 0.16695 0.73511 0.12656 0.0
C1813 C 0.10362 0.73485 0.15288 0.0
C1814 C 0.12528 0.73486 0.14382 0.0
H1815 H 0.21985 0.76471 0.1006 0.0
H1816 H 0.18508 0.76464 0.11549 0.0
H1817 H 0.20419 0.71234 0.13202 0.0
H1818 H 0.05117 0.70624 0.16756 0.0
H1819 H 0.08812 0.70601 0.15277 0.0
C1820 C 0.82231 0.5029 0.85394 0.0
C1821 C 0.80653 0.48653 0.8502 0.0
C1822 C 0.84353 0.50294 0.86237 0.0
C1823 C 0.90679 0.47415 0.87789 0.0
H1824 H 0.87067 0.50826 0.89655 0.0
C1825 C 0.97659 0.46992 0.91438 0.0
C1826 C 0.98183 0.48613 0.91934 0.0
C1827 C 0.95506 0.47 0.90598 0.0
C1828 C 0.88187 0.49883 0.89139 0.0
H1829 H 0.80122 0.45735 0.85227 0.0
H1830 H 0.8392 0.45736 0.86692 0.0
H1831 H 0.83453 0.50858 0.8818 0.0
H1832 H 0.96901 0.51519 0.91938 0.0
H1833 H 0.93322 0.51556 0.90459 0.0
H1834 H 0.95503 0.46472 0.88728 0.0
C1835 C 0.8348 0.47017 0.86336 0.0
C1836 C 0.86086 0.49898 0.88294 0.0
C1837 C 0.81288 0.47018 0.855 0.0
C1838 C 0.96533 0.50246 0.91571 0.0
C1839 C 0.94442 0.50261 0.90724 0.0
C1840 C 0.92833 0.4742 0.88629 0.0
C1841 C 0.85015 0.48656 0.86716 0.0
C1842 C 0.87293 0.48658 0.87611 0.0
C1843 C 0.93878 0.48637 0.90224 0.0
C1844 C 0.91608 0.48647 0.89321 0.0
H1845 H 0.81798 0.51571 0.85037 0.0
H1846 H 0.85531 0.51575 0.8651 0.0
H1847 H 0.91716 0.46457 0.87272 0.0
H1848 H 0.9886 0.45709 0.91706 0.0
H1849 H 0.9507 0.45712 0.9025 0.0
C1850 C 0.97501 0.2604 0.85481 0.0
C1851 C 0.98019 0.24422 0.84981 0.0
C1852 C 0.95353 0.26024 0.86321 0.0
C1853 C 0.92675 0.23096 0.88255 0.0
H1854 H 0.83389 0.26564 0.88725 0.0
C1855 C 0.82309 0.22713 0.91543 0.0
C1856 C 0.80697 0.24343 0.91916 0.0
C1857 C 0.84388 0.22711 0.90695 0.0
C1858 C 0.86024 0.25604 0.88616 0.0
H1859 H 0.96717 0.21516 0.84969 0.0
H1860 H 0.93066 0.2148 0.8645 0.0
H1861 H 0.8714 0.26603 0.87266 0.0
H1862 H 0.80082 0.27255 0.91705 0.0
H1863 H 0.83855 0.27273 0.90249 0.0
H1864 H 0.917 0.22131 0.8961 0.0
C1865 C 0.94299 0.22762 0.86189 0.0
C1866 C 0.88156 0.25623 0.87774 0.0
C1867 C 0.96375 0.22784 0.85341 0.0
C1868 C 0.81252 0.25974 0.9143 0.0
C1869 C 0.83395 0.25978 0.90589 0.0
C1870 C 0.90599 0.23097 0.89103 0.0
C1871 C 0.93746 0.24383 0.86686 0.0
C1872 C 0.91495 0.24366 0.87583 0.0
C1873 C 0.84979 0.24345 0.90204 0.0
C1874 C 0.87225 0.24348 0.89298 0.0
H1875 H 0.98719 0.27324 0.85219 0.0
H1876 H 0.94996 0.27293 0.86691 0.0
H1877 H 0.95269 0.22123 0.8813 0.0
H1878 H 0.81917 0.21433 0.91902 0.0
H1879 H 0.85473 0.21417 0.90421 0.0
C1880 C 0.06453 0.01146 0.60602 0.0
C1881 C 0.05787 -0.00485 0.60121 0.0
C1882 C 0.08657 0.01141 0.61435 0.0
C1883 C 0.15827 0.98225 0.62911 0.0
H1884 H 0.12559 0.01755 0.64751 0.0
C1885 C 0.21737 0.97878 0.66663 0.0
C1886 C 0.23406 -0.00492 0.67026 0.0
C1887 C 0.19647 0.97869 0.65816 0.0
C1888 C 0.13525 0.00768 0.64242 0.0
H1889 H 0.06885 0.96597 0.60138 0.0
H1890 H 0.10556 0.96567 0.61607 0.0
H1891 H 0.08747 0.01733 0.63299 0.0
H1892 H 0.24144 0.02411 0.66795 0.0
H1893 H 0.20403 0.02403 0.65324 0.0
H1894 H 0.2051 0.97228 0.63876 0.0
C1895 C 0.09505 0.97866 0.61334 0.0
C1896 C 0.11357 0.00759 0.63404 0.0
C1897 C 0.07362 0.97877 0.60492 0.0
C1898 C 0.22906 0.01133 0.6653 0.0
C1899 C 0.20747 0.0113 0.65691 0.0
C1900 C 0.17942 0.98215 0.63755 0.0
C1901 C 0.10194 -0.00501 0.6182 0.0
C1902 C 0.12486 -0.00507 0.62721 0.0
C1903 C 0.19109 -0.00503 0.65322 0.0
C1904 C 0.16831 -0.00507 0.64428 0.0
H1905 H 0.05315 0.02433 0.60328 0.0
H1906 H 0.09195 0.02435 0.61772 0.0
H1907 H 0.16871 0.9725 0.62403 0.0
H1908 H 0.22064 0.96605 0.67032 0.0
H1909 H 0.18389 0.96593 0.65553 0.0
C1910 C 0.22768 0.21906 0.60496 0.0
C1911 C 0.23338 0.23532 0.60006 0.0
C1912 C 0.20582 0.21911 0.61332 0.0
C1913 C 0.13243 0.24803 0.62783 0.0
H1914 H 0.16661 0.21367 0.64656 0.0
C1915 C 0.07141 0.25234 0.66516 0.0
C1916 C 0.05554 0.23601 0.66891 0.0
C1917 C 0.09296 0.2523 0.65676 0.0
C1918 C 0.15654 0.22328 0.64137 0.0
H1919 H 0.22104 0.26441 0.60009 0.0
H1920 H 0.18466 0.26472 0.6148 0.0
H1921 H 0.2049 0.21371 0.63205 0.0
H1922 H 0.05041 0.2068 0.66691 0.0
H1923 H 0.08888 0.20668 0.65232 0.0
H1924 H 0.08494 0.25791 0.63734 0.0
C1925 C 0.19575 0.25176 0.61213 0.0
C1926 C 0.17833 0.22326 0.633 0.0
C1927 C 0.21701 0.25165 0.60371 0.0
C1928 C 0.06213 0.21961 0.66416 0.0
C1929 C 0.08434 0.21952 0.65584 0.0
C1930 C 0.11116 0.24823 0.63625 0.0
C1931 C 0.18962 0.23548 0.61707 0.0
C1932 C 0.16653 0.23558 0.62606 0.0
C1933 C 0.09979 0.23588 0.65202 0.0
C1934 C 0.12283 0.23581 0.6431 0.0
H1935 H 0.23961 0.20624 0.60227 0.0
H1936 H 0.20114 0.20621 0.61677 0.0
H1937 H 0.12155 0.25749 0.62265 0.0
H1938 H 0.06692 0.26518 0.66868 0.0
H1939 H 0.1048 0.2651 0.65402 0.0
C1940 C 0.97613 0.97124 0.41544 0.0
C1941 C 0.98146 0.9876 0.42029 0.0
C1942 C 0.95467 0.97114 0.40704 0.0
C1943 C 0.92855 -0.00033 0.3874 0.0
H1944 H 0.83524 0.96508 0.38299 0.0
C1945 C 0.82593 0.00225 0.35434 0.0
C1946 C 0.8097 0.98582 0.35078 0.0
C1947 C 0.84641 0.00262 0.36285 0.0
C1948 C 0.86172 0.97464 0.384 0.0
H1949 H 0.96875 0.01669 0.42014 0.0
H1950 H 0.93229 0.01657 0.40531 0.0
H1951 H 0.87242 0.96524 0.39762 0.0
H1952 H 0.80302 0.95684 0.35322 0.0
H1953 H 0.84024 0.95724 0.36784 0.0
H1954 H 0.91929 0.00871 0.37373 0.0
C1955 C 0.94447 0.00383 0.40805 0.0
C1956 C 0.88284 0.97478 0.39244 0.0
C1957 C 0.9652 0.00388 0.41654 0.0
C1958 C 0.81482 0.96974 0.35584 0.0
C1959 C 0.83595 0.97003 0.36428 0.0
C1960 C 0.90799 -0.00067 0.3789 0.0
C1961 C 0.9388 0.98744 0.40323 0.0
C1962 C 0.9164 0.98732 0.39425 0.0
C1963 C 0.85191 0.9865 0.36796 0.0
C1964 C 0.87411 0.98684 0.37706 0.0
H1965 H 0.98817 0.95848 0.41819 0.0
H1966 H 0.95099 0.95832 0.40345 0.0
H1967 H 0.95464 0.00936 0.38857 0.0
H1968 H 0.82233 0.01488 0.35059 0.0
H1969 H 0.85736 0.01565 0.36545 0.0
C1970 C 0.95789 0.72946 0.35233 0.0
C1971 C 0.97548 0.74553 0.34863 0.0
C1972 C 0.93707 0.7297 0.3608 0.0
C1973 C 0.87804 0.75905 0.3767 0.0
H1974 H 0.9129 0.72387 0.39498 0.0
C1975 C 0.80955 0.76241 0.41336 0.0
C1976 C 0.8038 0.74605 0.41816 0.0
C1977 C 0.83083 0.76253 0.40493 0.0
C1978 C 0.90203 0.73361 0.38993 0.0
H1979 H 0.98429 0.77453 0.3508 0.0
H1980 H 0.94686 0.77504 0.36553 0.0
H1981 H 0.948 0.72359 0.38013 0.0
H1982 H 0.81542 0.71691 0.41789 0.0
H1983 H 0.85065 0.71687 0.40306 0.0
H1984 H 0.83102 0.76872 0.38629 0.0
C1985 C 0.9496 0.76223 0.3619 0.0
C1986 C 0.92247 0.7335 0.38142 0.0
C1987 C 0.97116 0.76192 0.3535 0.0
C1988 C 0.81953 0.72976 0.41435 0.0
C1989 C 0.84014 0.7298 0.40586 0.0
C1990 C 0.85699 0.75897 0.38515 0.0
C1991 C 0.93268 0.74608 0.36568 0.0
C1992 C 0.91081 0.74624 0.37472 0.0
C1993 C 0.84632 0.7462 0.40101 0.0
C1994 C 0.86871 0.74627 0.39193 0.0
H1995 H 0.96064 0.71662 0.34873 0.0
H1996 H 0.92402 0.71707 0.3635 0.0
H1997 H 0.86804 0.76892 0.37163 0.0
H1998 H 0.79814 0.77521 0.41617 0.0
H1999 H 0.83561 0.77551 0.40158 0.0
C2000 C 0.57301 0.47711 0.60376 0.0
C2001 C 0.55655 0.49341 0.60009 0.0
C2002 C 0.59362 0.47701 0.61226 0.0
C2003 C 0.60911 0.50566 0.63318 0.0
H2004 H 0.70223 0.4711 0.63796 0.0
C2005 C 0.72419 0.51002 0.66451 0.0
C2006 C 0.72935 0.49382 0.6695 0.0
C2007 C 0.70266 0.50988 0.65611 0.0
C2008 C 0.67609 0.48076 0.63673 0.0
H2009 H 0.54958 0.52245 0.60233 0.0
H2010 H 0.58704 0.52252 0.61693 0.0
H2011 H 0.66661 0.47127 0.62315 0.0
H2012 H 0.71628 0.46477 0.66962 0.0
H2013 H 0.67973 0.46444 0.6548 0.0
H2014 H 0.62007 0.51552 0.64672 0.0
C2015 C 0.58282 0.50962 0.61346 0.0
C2016 C 0.65537 0.48082 0.62824 0.0
C2017 C 0.56155 0.50964 0.60504 0.0
C2018 C 0.71287 0.47745 0.6659 0.0
C2019 C 0.69208 0.47725 0.65742 0.0
C2020 C 0.63041 0.50581 0.6416 0.0
C2021 C 0.59903 0.49328 0.61725 0.0
C2022 C 0.6214 0.49324 0.62633 0.0
C2023 C 0.68655 0.49348 0.65245 0.0
C2024 C 0.66403 0.49333 0.64349 0.0
H2025 H 0.56951 0.46437 0.6001 0.0
H2026 H 0.60475 0.46407 0.61494 0.0
H2027 H 0.58258 0.51518 0.63212 0.0
H2028 H 0.73639 0.52285 0.66714 0.0
H2029 H 0.69907 0.52257 0.65241 0.0
C2030 C 0.71519 0.75274 0.60288 0.0
C2031 C 0.73168 0.73646 0.5992 0.0
C2032 C 0.69437 0.7528 0.61135 0.0
C2033 C 0.6784 0.72416 0.63225 0.0
H2034 H 0.58494 0.75864 0.63686 0.0
C2035 C 0.56357 0.72016 0.66365 0.0
C2036 C 0.55741 0.73651 0.66846 0.0
C2037 C 0.58531 0.72014 0.65527 0.0
C2038 C 0.61118 0.749 0.63569 0.0
H2039 H 0.73856 0.70741 0.60141 0.0
H2040 H 0.70083 0.70727 0.61598 0.0
H2041 H 0.62083 0.75838 0.62209 0.0
H2042 H 0.56906 0.76567 0.66829 0.0
H2043 H 0.60606 0.7657 0.65354 0.0
H2044 H 0.66738 0.71444 0.64581 0.0
C2045 C 0.70511 0.72019 0.61253 0.0
C2046 C 0.63204 0.7489 0.62722 0.0
C2047 C 0.72655 0.7202 0.60412 0.0
C2048 C 0.57323 0.75286 0.66472 0.0
C2049 C 0.59427 0.75289 0.65627 0.0
C2050 C 0.65699 0.72408 0.64066 0.0
C2051 C 0.68881 0.7365 0.61632 0.0
C2052 C 0.66617 0.73652 0.62536 0.0
C2053 C 0.60069 0.73652 0.65146 0.0
C2054 C 0.62326 0.73654 0.64249 0.0
H2055 H 0.71878 0.76551 0.59925 0.0
H2056 H 0.68319 0.76572 0.61404 0.0
H2057 H 0.70502 0.71466 0.63123 0.0
H2058 H 0.55189 0.70734 0.66639 0.0
H2059 H 0.58956 0.70733 0.65171 0.0
C2060 C 0.30769 0.46961 0.35511 0.0
C2061 C 0.30248 0.48581 0.35012 0.0
C2062 C 0.32943 0.46973 0.36349 0.0
C2063 C 0.3578 0.49907 0.38276 0.0
H2064 H 0.44929 0.46373 0.38739 0.0
C2065 C 0.46367 0.50244 0.41539 0.0
C2066 C 0.47912 0.48604 0.41914 0.0
C2067 C 0.44226 0.50255 0.40697 0.0
C2068 C 0.42333 0.47352 0.38633 0.0
H2069 H 0.31571 0.51485 0.35 0.0
H2070 H 0.35276 0.51513 0.36475 0.0
H2071 H 0.41116 0.46348 0.37287 0.0
H2072 H 0.48333 0.45684 0.41714 0.0
H2073 H 0.44458 0.45681 0.40269 0.0
H2074 H 0.36866 0.50881 0.39626 0.0
C2075 C 0.34021 0.50234 0.36216 0.0
C2076 C 0.40164 0.47341 0.37795 0.0
C2077 C 0.31914 0.50217 0.35371 0.0
C2078 C 0.47217 0.46972 0.41437 0.0
C2079 C 0.45017 0.46976 0.40603 0.0
C2080 C 0.37897 0.499 0.3912 0.0
C2081 C 0.34579 0.4861 0.36713 0.0
C2082 C 0.36872 0.48621 0.37605 0.0
C2083 C 0.43509 0.48619 0.40214 0.0
C2084 C 0.4122 0.48625 0.39312 0.0
H2085 H 0.29534 0.4568 0.3525 0.0
H2086 H 0.333 0.45703 0.36718 0.0
H2087 H 0.33222 0.50899 0.38153 0.0
H2088 H 0.46866 0.51526 0.41891 0.0
H2089 H 0.43198 0.51554 0.4042 0.0
C2090 C 0.31473 0.26186 0.41417 0.0
C2091 C 0.30787 0.24563 0.41904 0.0
C2092 C 0.33694 0.26164 0.40585 0.0
C2093 C 0.36362 0.23232 0.38647 0.0
H2094 H 0.45779 0.26651 0.38212 0.0
C2095 C 0.46976 0.22816 0.35394 0.0
C2096 C 0.48625 0.24443 0.35026 0.0
C2097 C 0.44837 0.22818 0.36236 0.0
C2098 C 0.4311 0.25705 0.38311 0.0
H2099 H 0.31875 0.21641 0.41901 0.0
H2100 H 0.35667 0.21596 0.40436 0.0
H2101 H 0.41936 0.26698 0.3966 0.0
H2102 H 0.49246 0.27354 0.35237 0.0
H2103 H 0.45379 0.27379 0.36683 0.0
H2104 H 0.37407 0.22272 0.37293 0.0
C2105 C 0.34502 0.22886 0.407 0.0
C2106 C 0.40923 0.25728 0.39147 0.0
C2107 C 0.32347 0.22913 0.4154 0.0
C2108 C 0.48047 0.26075 0.3551 0.0
C2109 C 0.45851 0.26084 0.36344 0.0
C2110 C 0.38498 0.23228 0.37805 0.0
C2111 C 0.35215 0.24513 0.40215 0.0
C2112 C 0.37533 0.24488 0.39325 0.0
C2113 C 0.44227 0.24454 0.36724 0.0
C2114 C 0.4192 0.24461 0.37624 0.0
H2115 H 0.30321 0.27478 0.41682 0.0
H2116 H 0.34171 0.27437 0.40225 0.0
H2117 H 0.33727 0.22274 0.38761 0.0
H2118 H 0.47383 0.21535 0.35037 0.0
H2119 H 0.43719 0.21528 0.36507 0.0
C2120 C 0.72935 0.01192 0.16499 0.0
C2121 C 0.73576 -0.00434 0.16985 0.0
C2122 C 0.70734 0.01182 0.15664 0.0
C2123 C 0.63473 0.98266 0.14211 0.0
H2124 H 0.66773 0.01732 0.12344 0.0
C2125 C 0.57305 0.97854 0.1048 0.0
C2126 C 0.55692 -0.00512 0.10109 0.0
C2127 C 0.59469 0.97854 0.1132 0.0
C2128 C 0.65799 0.00763 0.12861 0.0
H2129 H 0.72447 0.9665 0.16977 0.0
H2130 H 0.68778 0.9661 0.15508 0.0
H2131 H 0.70622 0.01732 0.13793 0.0
H2132 H 0.5514 0.02405 0.10317 0.0
H2133 H 0.59 0.02411 0.11774 0.0
H2134 H 0.58734 0.97267 0.13259 0.0
C2135 C 0.69847 0.9791 0.15777 0.0
C2136 C 0.6799 0.00766 0.13697 0.0
C2137 C 0.7199 0.97927 0.16618 0.0
C2138 C 0.56333 0.01124 0.10588 0.0
C2139 C 0.58561 0.01129 0.11419 0.0
C2140 C 0.61333 0.98244 0.1337 0.0
C2141 C 0.69169 -0.00462 0.15287 0.0
C2142 C 0.66851 -0.00477 0.14388 0.0
C2143 C 0.60135 -0.00507 0.11797 0.0
C2144 C 0.62457 -0.00502 0.12687 0.0
H2145 H 0.74086 0.0248 0.16769 0.0
H2146 H 0.70212 0.02471 0.15323 0.0
H2147 H 0.6242 0.9731 0.14727 0.0
H2148 H 0.56869 0.96572 0.10125 0.0
H2149 H 0.60675 0.96575 0.1159 0.0
C2150 C 0.72727 0.22056 0.10496 0.0
C2151 C 0.73209 0.23673 0.09996 0.0
C2152 C 0.70594 0.22066 0.11338 0.0
C2153 C 0.63271 0.24949 0.12798 0.0
H2154 H 0.66849 0.21531 0.14666 0.0
C2155 C 0.57375 0.25337 0.16552 0.0
C2156 C 0.55786 0.23696 0.16919 0.0
C2157 C 0.59489 0.2535 0.15707 0.0
C2158 C 0.65801 0.22488 0.14149 0.0
H2159 H 0.71878 0.26575 0.09986 0.0
H2160 H 0.6834 0.26617 0.11468 0.0
H2161 H 0.70615 0.21547 0.13209 0.0
H2162 H 0.55227 0.20783 0.16701 0.0
H2163 H 0.59014 0.20801 0.15236 0.0
H2164 H 0.58549 0.25923 0.1376 0.0
C2165 C 0.69473 0.25322 0.11205 0.0
C2166 C 0.67941 0.22492 0.13308 0.0
C2167 C 0.71541 0.25304 0.10356 0.0
C2168 C 0.56401 0.22068 0.16432 0.0
C2169 C 0.58586 0.22077 0.15596 0.0
C2170 C 0.61186 0.24965 0.13645 0.0
C2171 C 0.68947 0.23701 0.1171 0.0
C2172 C 0.66696 0.23715 0.12615 0.0
C2173 C 0.60135 0.23719 0.15222 0.0
C2174 C 0.62409 0.23727 0.14328 0.0
H2175 H 0.73942 0.20774 0.10231 0.0
H2176 H 0.70187 0.2078 0.1169 0.0
H2177 H 0.62135 0.25888 0.12282 0.0
H2178 H 0.56957 0.26612 0.16913 0.0
H2179 H 0.60675 0.26634 0.15439 0.0
C2180 C 0.31002 0.96976 0.85589 0.0
C2181 C 0.30416 0.98615 0.85109 0.0
C2182 C 0.33214 0.96961 0.86422 0.0
C2183 C 0.36011 -0.00167 0.88374 0.0
H2184 H 0.45242 0.96318 0.88804 0.0
C2185 C 0.4662 0.00115 0.9163 0.0
C2186 C 0.48184 0.98471 0.91996 0.0
C2187 C 0.44486 0.0014 0.90788 0.0
C2188 C 0.42625 0.97291 0.88706 0.0
H2189 H 0.31672 0.01524 0.85124 0.0
H2190 H 0.35445 0.01505 0.86592 0.0
H2191 H 0.41414 0.96329 0.87352 0.0
H2192 H 0.48661 0.95557 0.91779 0.0
H2193 H 0.448 0.95578 0.90332 0.0
H2194 H 0.3709 0.00764 0.89732 0.0
C2195 C 0.34211 0.00231 0.86322 0.0
C2196 C 0.40447 0.97301 0.87869 0.0
C2197 C 0.32065 0.00241 0.85481 0.0
C2198 C 0.47527 0.96848 0.91509 0.0
C2199 C 0.45334 0.96866 0.90674 0.0
C2200 C 0.38137 -0.00195 0.89217 0.0
C2201 C 0.34823 0.9859 0.868 0.0
C2202 C 0.37126 0.98576 0.87692 0.0
C2203 C 0.43796 0.98514 0.90296 0.0
C2204 C 0.41493 0.98537 0.89396 0.0
H2205 H 0.29781 0.95701 0.85317 0.0
H2206 H 0.33613 0.95678 0.86778 0.0
H2207 H 0.3343 0.00818 0.88262 0.0
H2208 H 0.47091 0.0139 0.9199 0.0
H2209 H 0.43438 0.01443 0.90519 0.0
C2210 C 0.46438 0.72862 0.8531 0.0
C2211 C 0.48057 0.74501 0.84947 0.0
C2212 C 0.44368 0.72841 0.86159 0.0
C2213 C 0.38268 0.75725 0.87751 0.0
H2214 H 0.41712 0.72194 0.89577 0.0
C2215 C 0.31468 0.76105 0.91413 0.0
C2216 C 0.30811 0.74475 0.91894 0.0
C2217 C 0.33611 0.76097 0.90572 0.0
C2218 C 0.40641 0.73172 0.89073 0.0
H2219 H 0.48722 0.77406 0.8518 0.0
H2220 H 0.45021 0.77376 0.86654 0.0
H2221 H 0.45259 0.72177 0.88094 0.0
H2222 H 0.31872 0.71554 0.91873 0.0
H2223 H 0.35444 0.71521 0.90393 0.0
H2224 H 0.33562 0.76691 0.88709 0.0
C2225 C 0.45385 0.76105 0.86286 0.0
C2226 C 0.42702 0.73166 0.88222 0.0
C2227 C 0.47521 0.76121 0.85445 0.0
C2228 C 0.32341 0.72834 0.91518 0.0
C2229 C 0.34427 0.72821 0.9067 0.0
C2230 C 0.36156 0.75714 0.88595 0.0
C2231 C 0.438 0.74464 0.86655 0.0
C2232 C 0.41558 0.74449 0.87554 0.0
C2233 C 0.35101 0.74453 0.90182 0.0
C2234 C 0.37324 0.74445 0.89273 0.0
H2235 H 0.46794 0.71592 0.8494 0.0
H2236 H 0.43152 0.71558 0.86422 0.0
H2237 H 0.37275 0.76716 0.87246 0.0
H2238 H 0.30362 0.77394 0.9169 0.0
H2239 H 0.3414 0.77391 0.90235 0.0
C2240 C 0.1512 0.68489 0.07182 0.0
C2241 C 0.19584 0.68915 0.07149 0.0
C2242 C 0.13771 0.66667 0.07148 0.0
C2243 C 0.17386 0.62086 0.0769 0.0
H2244 H 0.09212 0.60442 0.05855 0.0
C2245 C 0.13386 0.54465 0.0722 0.0
C2246 C 0.08976 0.54051 0.07066 0.0
C2247 C 0.14822 0.56273 0.07178 0.0
C2248 C 0.1146 0.60882 0.06379 0.0
H2249 H 0.26136 0.67782 0.07071 0.0
H2250 H 0.2377 0.64623 0.07027 0.0
H2251 H 0.11161 0.63666 0.05937 0.0
H2252 H 0.02616 0.55202 0.06742 0.0
H2253 H 0.05077 0.58326 0.06698 0.0
H2254 H 0.17616 0.59325 0.08152 0.0
C2255 C 0.21327 0.65689 0.07071 0.0
C2256 C 0.12563 0.62725 0.06424 0.0
C2257 C 0.22666 0.67498 0.0709 0.0
C2258 C 0.0605 0.55468 0.06858 0.0
C2259 C 0.07466 0.57266 0.06826 0.0
C2260 C 0.16237 0.60248 0.07654 0.0
C2261 C 0.1688 0.6526 0.071 0.0
C2262 C 0.15539 0.63335 0.07079 0.0
C2263 C 0.11858 0.57694 0.0699 0.0
C2264 C 0.13258 0.59626 0.06998 0.0
H2265 H 0.12685 0.69558 0.07228 0.0
H2266 H 0.10317 0.66355 0.07173 0.0
H2267 H 0.19683 0.62537 0.08203 0.0
H2268 H 0.15715 0.53398 0.07378 0.0
H2269 H 0.18244 0.56559 0.07295 0.0
C2270 C 0.13952 0.68606 0.1983 0.0
C2271 C 0.09586 0.69115 0.19974 0.0
C2272 C 0.15169 0.66769 0.19882 0.0
C2273 C 0.10876 0.62231 0.19534 0.0
H2274 H 0.20344 0.60565 0.21071 0.0
C2275 C 0.15353 0.54591 0.19841 0.0
C2276 C 0.19835 0.54198 0.19869 0.0
C2277 C 0.13903 0.56395 0.19923 0.0
C2278 C 0.17722 0.6101 0.2063 0.0
H2279 H 0.03082 0.68104 0.20288 0.0
H2280 H 0.05215 0.64917 0.20362 0.0
H2281 H 0.18413 0.63795 0.21051 0.0
H2282 H 0.26315 0.55384 0.19985 0.0
H2283 H 0.23819 0.58496 0.20093 0.0
H2284 H 0.10269 0.5947 0.19084 0.0
C2285 C 0.07682 0.65935 0.20215 0.0
C2286 C 0.16624 0.62856 0.20621 0.0
C2287 C 0.06481 0.67762 0.20178 0.0
C2288 C 0.2283 0.55634 0.19974 0.0
C2289 C 0.21396 0.57426 0.20043 0.0
C2290 C 0.12018 0.60388 0.19531 0.0
C2291 C 0.12021 0.65423 0.20062 0.0
C2292 C 0.13207 0.63478 0.2007 0.0
C2293 C 0.16922 0.57832 0.20022 0.0
C2294 C 0.15479 0.59759 0.20073 0.0
H2295 H 0.16409 0.6962 0.19672 0.0
H2296 H 0.1854 0.66395 0.1976 0.0
H2297 H 0.08233 0.6269 0.19101 0.0
H2298 H 0.12976 0.53508 0.19762 0.0
H2299 H 0.10427 0.56663 0.19912 0.0
C2300 C 0.81213 0.30412 0.94947 0.0
C2301 C 0.84241 0.29002 0.94801 0.0
C2302 C 0.82559 0.32221 0.94968 0.0
C2303 C 0.91499 0.35227 0.94238 0.0
H2304 H 0.8588 0.38646 0.95879 0.0
C2305 C 0.97717 0.42484 0.94876 0.0
C2306 C 0.94652 0.439 0.9478 0.0
C2307 C 0.9638 0.40674 0.94879 0.0
C2308 C 0.87435 0.37704 0.95413 0.0
H2309 H 0.91069 0.28373 0.94575 0.0
H2310 H 0.9347 0.31555 0.94639 0.0
H2311 H 0.83931 0.3542 0.95938 0.0
H2312 H 0.87779 0.44536 0.94623 0.0
H2313 H 0.85412 0.41334 0.94651 0.0
H2314 H 0.95095 0.37518 0.93735 0.0
C2315 C 0.90031 0.31255 0.94719 0.0
C2316 C 0.8633 0.35861 0.95445 0.0
C2317 C 0.88668 0.29435 0.94687 0.0
C2318 C 0.90203 0.4347 0.94699 0.0
C2319 C 0.88854 0.41648 0.94716 0.0
C2320 C 0.92646 0.37067 0.94216 0.0
C2321 C 0.86977 0.32666 0.94854 0.0
C2322 C 0.88329 0.34604 0.94853 0.0
C2323 C 0.91949 0.40241 0.94798 0.0
C2324 C 0.90609 0.38316 0.94801 0.0
H2325 H 0.77763 0.30129 0.95026 0.0
H2326 H 0.80106 0.33272 0.95052 0.0
H2327 H 0.9304 0.34303 0.93762 0.0
H2328 H 1.01176 0.42768 0.94934 0.0
H2329 H 0.98812 0.39609 0.94951 0.0
C2330 C 0.88578 0.4368 0.82249 0.0
C2331 C 0.84198 0.44112 0.8207 0.0
C2332 C 0.89982 0.41865 0.82214 0.0
C2333 C 0.86627 0.37272 0.81394 0.0
H2334 H 0.94561 0.35574 0.83264 0.0
C2335 C 0.90011 0.29643 0.82186 0.0
C2336 C 0.94468 0.292 0.82169 0.0
C2337 C 0.88705 0.31471 0.82161 0.0
C2338 C 0.92343 0.36037 0.82739 0.0
H2339 H 0.77862 0.42986 0.81709 0.0
H2340 H 0.80264 0.39854 0.81677 0.0
H2341 H 0.9258 0.38797 0.83203 0.0
H2342 H 1.0105 0.30306 0.82138 0.0
H2343 H 0.98757 0.33478 0.82111 0.0
H2344 H 0.86319 0.34492 0.80949 0.0
C2345 C 0.82657 0.40904 0.81819 0.0
C2346 C 0.91245 0.37881 0.82697 0.0
C2347 C 0.81273 0.42707 0.81844 0.0
C2348 C 0.97586 0.30605 0.82142 0.0
C2349 C 0.96287 0.3242 0.82134 0.0
C2350 C 0.87677 0.35425 0.81445 0.0
C2351 C 0.87016 0.40457 0.82008 0.0
C2352 C 0.88371 0.38519 0.82024 0.0
C2353 C 0.91846 0.32868 0.82141 0.0
C2354 C 0.90547 0.34798 0.82116 0.0
H2355 H 0.90905 0.44737 0.82422 0.0
H2356 H 0.93381 0.41565 0.82352 0.0
H2357 H 0.84463 0.37725 0.80857 0.0
H2358 H 0.87551 0.28583 0.82208 0.0
H2359 H 0.85255 0.31797 0.82169 0.0
C2360 C 0.13511 0.04515 0.57244 0.0
C2361 C 0.09031 0.04115 0.57213 0.0
C2362 C 0.14925 0.06328 0.57204 0.0
C2363 C 0.11429 0.10931 0.57737 0.0
H2364 H 0.1959 0.12546 0.55895 0.0
C2365 C 0.15329 0.18547 0.57226 0.0
C2366 C 0.19726 0.18972 0.57065 0.0
C2367 C 0.13927 0.16733 0.57195 0.0
C2368 C 0.17348 0.12114 0.56421 0.0
H2369 H 0.02522 0.05293 0.57125 0.0
H2370 H 0.05 0.08431 0.57069 0.0
H2371 H 0.17635 0.09323 0.55989 0.0
H2372 H 0.26099 0.17834 0.56741 0.0
H2373 H 0.23696 0.14701 0.56717 0.0
H2374 H 0.11201 0.13698 0.58188 0.0
C2375 C 0.07406 0.07351 0.57119 0.0
C2376 C 0.16242 0.10271 0.56473 0.0
C2377 C 0.06003 0.05551 0.57144 0.0
C2378 C 0.22673 0.17559 0.56862 0.0
C2379 C 0.2129 0.15756 0.56842 0.0
C2380 C 0.12579 0.12767 0.57694 0.0
C2381 C 0.11866 0.07754 0.5715 0.0
C2382 C 0.13262 0.09672 0.57129 0.0
C2383 C 0.16912 0.15317 0.57013 0.0
C2384 C 0.15546 0.1338 0.57034 0.0
H2385 H 0.15907 0.03432 0.57298 0.0
H2386 H 0.18389 0.0662 0.5723 0.0
H2387 H 0.0913 0.10488 0.58251 0.0
H2388 H 0.12985 0.1961 0.57381 0.0
H2389 H 0.10513 0.16439 0.57318 0.0
C2390 C 0.13511 0.18683 0.69707 0.0
C2391 C 0.09045 0.19076 0.69801 0.0
C2392 C 0.14961 0.16874 0.69735 0.0
C2393 C 0.11333 0.12265 0.69263 0.0
H2394 H 0.20185 0.1067 0.70969 0.0
C2395 C 0.15337 0.04651 0.69772 0.0
C2396 C 0.19762 0.04212 0.69885 0.0
C2397 C 0.13994 0.06475 0.69792 0.0
C2398 C 0.1775 0.11097 0.7048 0.0
H2399 H 0.02604 0.17888 0.69997 0.0
H2400 H 0.05142 0.14756 0.70031 0.0
H2401 H 0.18172 0.1389 0.70903 0.0
H2402 H 0.26258 0.0533 0.70093 0.0
H2403 H 0.23948 0.0848 0.70097 0.0
H2404 H 0.10956 0.09494 0.68821 0.0
C2405 C 0.07509 0.1584 0.6994 0.0
C2406 C 0.16608 0.12937 0.70444 0.0
C2407 C 0.06072 0.17636 0.69926 0.0
C2408 C 0.22809 0.0562 0.70016 0.0
C2409 C 0.21483 0.07432 0.70024 0.0
C2410 C 0.12514 0.1043 0.69289 0.0
C2411 C 0.1195 0.15444 0.6984 0.0
C2412 C 0.13374 0.13529 0.69839 0.0
C2413 C 0.17066 0.07884 0.69912 0.0
C2414 C 0.15725 0.09824 0.699 0.0
H2415 H 0.15867 0.19767 0.6961 0.0
H2416 H 0.1841 0.16587 0.69656 0.0
H2417 H 0.08839 0.12702 0.68788 0.0
H2418 H 0.12922 0.03591 0.69672 0.0
H2419 H 0.10554 0.06779 0.69715 0.0
C2420 C 0.80935 0.80626 0.44885 0.0
C2421 C 0.8395 0.7921 0.44741 0.0
C2422 C 0.82315 0.82428 0.44929 0.0
C2423 C 0.91394 0.85431 0.44273 0.0
H2424 H 0.85647 0.88802 0.45919 0.0
C2425 C 0.97576 0.92671 0.44979 0.0
C2426 C 0.94516 0.94085 0.44872 0.0
C2427 C 0.96243 0.9086 0.44974 0.0
C2428 C 0.87243 0.87874 0.45452 0.0
H2429 H 0.90788 0.78565 0.4454 0.0
H2430 H 0.93245 0.81734 0.44644 0.0
H2431 H 0.83648 0.8558 0.45939 0.0
H2432 H 0.87655 0.94719 0.4469 0.0
H2433 H 0.85297 0.91516 0.44703 0.0
H2434 H 0.95073 0.87731 0.43808 0.0
C2435 C 0.89792 0.81444 0.44705 0.0
C2436 C 0.86108 0.86033 0.45462 0.0
C2437 C 0.88396 0.79631 0.4465 0.0
C2438 C 0.90076 0.93654 0.44774 0.0
C2439 C 0.8873 0.91831 0.44783 0.0
C2440 C 0.9257 0.87267 0.44273 0.0
C2441 C 0.86753 0.82861 0.44841 0.0
C2442 C 0.88146 0.84794 0.44867 0.0
C2443 C 0.91822 0.90426 0.44874 0.0
C2444 C 0.90486 0.885 0.4486 0.0
H2445 H 0.77473 0.80351 0.44947 0.0
H2446 H 0.79875 0.83485 0.45012 0.0
H2447 H 0.9297 0.8452 0.43795 0.0
H2448 H 1.01028 0.92957 0.45051 0.0
H2449 H 0.98671 0.89795 0.45053 0.0
C2450 C 0.96894 0.8013 0.31547 0.0
C2451 C 0.93998 0.78786 0.31865 0.0
C2452 C 0.95706 0.81962 0.31553 0.0
C2453 C 0.88074 0.85105 0.32689 0.0
H2454 H 0.92158 0.88517 0.30861 0.0
C2455 C 0.81525 0.92374 0.32295 0.0
C2456 C 0.84605 0.93792 0.32257 0.0
C2457 C 0.82856 0.90563 0.32263 0.0
C2458 C 0.9105 0.87577 0.3138 0.0
H2459 H 0.87488 0.78301 0.3239 0.0
H2460 H 0.85342 0.81509 0.32369 0.0
H2461 H 0.93764 0.85269 0.30697 0.0
H2462 H 0.91491 0.94437 0.32155 0.0
H2463 H 0.93837 0.91228 0.32072 0.0
H2464 H 0.85229 0.87417 0.33352 0.0
C2465 C 0.88591 0.81145 0.32143 0.0
C2466 C 0.91956 0.8572 0.31288 0.0
C2467 C 0.89802 0.79306 0.32147 0.0
C2468 C 0.89061 0.93366 0.32186 0.0
C2469 C 0.90394 0.91541 0.32136 0.0
C2470 C 0.87119 0.86956 0.32774 0.0
C2471 C 0.91571 0.82497 0.31865 0.0
C2472 C 0.90475 0.84462 0.31942 0.0
C2473 C 0.87289 0.90132 0.32178 0.0
C2474 C 0.88594 0.88203 0.3212 0.0
H2475 H 1.00162 0.79782 0.31326 0.0
H2476 H 0.98105 0.82964 0.31345 0.0
H2477 H 0.86973 0.84183 0.33216 0.0
H2478 H 0.78068 0.92661 0.32358 0.0
H2479 H 0.80409 0.89497 0.32289 0.0
C2480 C 0.56224 0.55492 0.5715 0.0
C2481 C 0.59309 0.54075 0.57196 0.0
C2482 C 0.57561 0.57302 0.57143 0.0
C2483 C 0.66321 0.60265 0.56491 0.0
H2484 H 0.612 0.63684 0.582 0.0
C2485 C 0.72561 0.67585 0.56846 0.0
C2486 C 0.69566 0.68988 0.57035 0.0
C2487 C 0.71238 0.65773 0.56844 0.0
C2488 C 0.62601 0.62754 0.57708 0.0
H2489 H 0.6621 0.53432 0.57268 0.0
H2490 H 0.68574 0.56636 0.57232 0.0
H2491 H 0.59196 0.60465 0.58268 0.0
H2492 H 0.62808 0.69598 0.57349 0.0
H2493 H 0.60441 0.66411 0.57317 0.0
H2494 H 0.69622 0.62547 0.5591 0.0
C2495 C 0.65119 0.56324 0.57208 0.0
C2496 C 0.61488 0.60913 0.57754 0.0
C2497 C 0.63773 0.54501 0.57231 0.0
C2498 C 0.65186 0.68543 0.57204 0.0
C2499 C 0.63844 0.6672 0.57192 0.0
C2500 C 0.67389 0.6211 0.56436 0.0
C2501 C 0.62009 0.57732 0.5717 0.0
C2502 C 0.63351 0.59657 0.57147 0.0
C2503 C 0.66873 0.65316 0.57019 0.0
C2504 C 0.65559 0.63373 0.57048 0.0
H2505 H 0.52755 0.55208 0.5713 0.0
H2506 H 0.55115 0.58369 0.57105 0.0
H2507 H 0.67735 0.59319 0.56008 0.0
H2508 H 0.75975 0.67877 0.56722 0.0
H2509 H 0.73676 0.64728 0.56728 0.0
C2510 C 0.72512 0.5558 0.69746 0.0
C2511 C 0.69382 0.54179 0.69735 0.0
C2512 C 0.71229 0.57397 0.69747 0.0
C2513 C 0.62698 0.60424 0.70449 0.0
H2514 H 0.6752 0.63766 0.68667 0.0
C2515 C 0.56355 0.67713 0.70046 0.0
C2516 C 0.59278 0.6911 0.69807 0.0
C2517 C 0.57721 0.65908 0.70073 0.0
C2518 C 0.6621 0.62858 0.69179 0.0
H2519 H 0.62459 0.5357 0.69716 0.0
H2520 H 0.6019 0.5679 0.69743 0.0
H2521 H 0.69454 0.60537 0.68609 0.0
H2522 H 0.65968 0.69719 0.69436 0.0
H2523 H 0.68416 0.66543 0.69509 0.0
H2524 H 0.59558 0.62737 0.71039 0.0
C2525 C 0.63637 0.56459 0.69743 0.0
C2526 C 0.67279 0.61012 0.69139 0.0
C2527 C 0.64928 0.54628 0.69726 0.0
C2528 C 0.63643 0.68669 0.69619 0.0
C2529 C 0.6503 0.66851 0.69655 0.0
C2530 C 0.61677 0.62274 0.70498 0.0
C2531 C 0.66792 0.57851 0.69749 0.0
C2532 C 0.65511 0.59783 0.6977 0.0
C2533 C 0.62062 0.65451 0.69873 0.0
C2534 C 0.63393 0.6351 0.69859 0.0
H2535 H 0.75974 0.55277 0.69744 0.0
H2536 H 0.73709 0.58451 0.69759 0.0
H2537 H 0.61365 0.59499 0.70951 0.0
H2538 H 0.52955 0.68 0.70189 0.0
H2539 H 0.55327 0.64864 0.70224 0.0
C2540 C 0.40288 0.43638 0.44752 0.0
C2541 C 0.44703 0.44059 0.44894 0.0
C2542 C 0.38874 0.41825 0.44796 0.0
C2543 C 0.42348 0.37212 0.45573 0.0
H2544 H 0.33988 0.35566 0.43774 0.0
C2545 C 0.38531 0.29604 0.44764 0.0
C2546 C 0.3406 0.29195 0.44811 0.0
C2547 C 0.39925 0.31421 0.44801 0.0
C2548 C 0.36326 0.36014 0.4428 0.0
H2549 H 0.51095 0.42916 0.45198 0.0
H2550 H 0.48671 0.39789 0.45245 0.0
H2551 H 0.36043 0.38779 0.43825 0.0
H2552 H 0.27545 0.30358 0.44924 0.0
H2553 H 0.29986 0.33501 0.44974 0.0
H2554 H 0.42693 0.34424 0.46008 0.0
C2555 C 0.46262 0.40844 0.45126 0.0
C2556 C 0.37467 0.37853 0.44316 0.0
C2557 C 0.47657 0.42645 0.45092 0.0
C2558 C 0.3102 0.30624 0.44892 0.0
C2559 C 0.32402 0.32426 0.44915 0.0
C2560 C 0.41251 0.35368 0.45528 0.0
C2561 C 0.41866 0.40409 0.44973 0.0
C2562 C 0.40489 0.38473 0.44963 0.0
C2563 C 0.36852 0.3284 0.44867 0.0
C2564 C 0.38223 0.34761 0.44883 0.0
H2565 H 0.37939 0.44701 0.44601 0.0
H2566 H 0.35448 0.41534 0.44687 0.0
H2567 H 0.44633 0.3765 0.4609 0.0
H2568 H 0.40936 0.28528 0.44701 0.0
H2569 H 0.43382 0.31722 0.44762 0.0
C2570 C 0.40528 0.29409 0.32247 0.0
C2571 C 0.44963 0.29009 0.32114 0.0
C2572 C 0.39068 0.31216 0.32212 0.0
C2573 C 0.42457 0.35853 0.31459 0.0
H2574 H 0.33836 0.37448 0.33215 0.0
C2575 C 0.38438 0.43439 0.32233 0.0
C2576 C 0.33969 0.43851 0.32178 0.0
C2577 C 0.39833 0.41622 0.32206 0.0
C2578 C 0.36243 0.37014 0.32721 0.0
H2579 H 0.51347 0.30185 0.31844 0.0
H2580 H 0.48841 0.33307 0.31813 0.0
H2581 H 0.36014 0.34246 0.33174 0.0
H2582 H 0.27456 0.42693 0.32067 0.0
H2583 H 0.29899 0.39542 0.32035 0.0
H2584 H 0.42748 0.38642 0.31025 0.0
C2585 C 0.46453 0.32238 0.31916 0.0
C2586 C 0.3746 0.35182 0.32691 0.0
C2587 C 0.47895 0.30441 0.31941 0.0
C2588 C 0.30929 0.42422 0.32103 0.0
C2589 C 0.32313 0.40617 0.32092 0.0
C2590 C 0.41283 0.37689 0.31498 0.0
C2591 C 0.4203 0.32651 0.32054 0.0
C2592 C 0.40584 0.3458 0.32059 0.0
C2593 C 0.36766 0.40201 0.32143 0.0
C2594 C 0.38163 0.3828 0.32128 0.0
H2595 H 0.38195 0.28331 0.32379 0.0
H2596 H 0.35625 0.31489 0.32309 0.0
H2597 H 0.44816 0.3543 0.30953 0.0
H2598 H 0.40844 0.44516 0.32291 0.0
H2599 H 0.43291 0.41323 0.32249 0.0
C2600 C 0.63512 0.04455 0.07311 0.0
C2601 C 0.59065 0.04047 0.07197 0.0
C2602 C 0.64926 0.06269 0.07288 0.0
C2603 C 0.61146 0.1087 0.07737 0.0
H2604 H 0.70206 0.1248 0.06086 0.0
C2605 C 0.65156 0.18493 0.07246 0.0
C2606 C 0.69589 0.18935 0.07156 0.0
C2607 C 0.63828 0.16668 0.07224 0.0
C2608 C 0.67711 0.12049 0.0656 0.0
H2609 H 0.52623 0.05214 0.06969 0.0
H2610 H 0.55098 0.08353 0.06942 0.0
H2611 H 0.68226 0.09257 0.0614 0.0
H2612 H 0.76118 0.1782 0.06989 0.0
H2613 H 0.73832 0.14668 0.06982 0.0
H2614 H 0.60675 0.13641 0.08176 0.0
C2615 C 0.57477 0.07278 0.07046 0.0
C2616 C 0.66588 0.10207 0.06589 0.0
C2617 C 0.56077 0.05477 0.07055 0.0
C2618 C 0.72663 0.17528 0.07048 0.0
C2619 C 0.71351 0.15715 0.07038 0.0
C2620 C 0.62308 0.12707 0.07718 0.0
C2621 C 0.61897 0.07689 0.07168 0.0
C2622 C 0.63283 0.09609 0.07174 0.0
C2623 C 0.66924 0.1526 0.07124 0.0
C2624 C 0.65595 0.13319 0.07127 0.0
H2625 H 0.6588 0.03379 0.07422 0.0
H2626 H 0.6836 0.06567 0.07384 0.0
H2627 H 0.58595 0.10429 0.08197 0.0
H2628 H 0.62721 0.19553 0.07329 0.0
H2629 H 0.60381 0.16362 0.07282 0.0
C2630 C 0.56063 0.17542 0.19782 0.0
C2631 C 0.59142 0.18963 0.19762 0.0
C2632 C 0.57414 0.15733 0.19802 0.0
C2633 C 0.66063 0.12777 0.2053 0.0
H2634 H 0.61383 0.09363 0.18766 0.0
C2635 C 0.72718 0.05522 0.20165 0.0
C2636 C 0.69858 0.041 0.19929 0.0
C2637 C 0.71275 0.07319 0.20185 0.0
C2638 C 0.62655 0.1029 0.19274 0.0
H2639 H 0.66043 0.19614 0.1975 0.0
H2640 H 0.68428 0.16412 0.19809 0.0
H2641 H 0.59309 0.12574 0.18691 0.0
H2642 H 0.63197 0.03439 0.19556 0.0
H2643 H 0.60616 0.06596 0.19617 0.0
H2644 H 0.69309 0.105 0.21132 0.0
C2645 C 0.64969 0.1672 0.19802 0.0
C2646 C 0.61504 0.12128 0.19224 0.0
C2647 C 0.63612 0.18542 0.19766 0.0
C2648 C 0.65477 0.04508 0.19737 0.0
C2649 C 0.64012 0.06315 0.19766 0.0
C2650 C 0.67167 0.10935 0.20589 0.0
C2651 C 0.61867 0.15307 0.19815 0.0
C2652 C 0.6322 0.13383 0.19849 0.0
C2653 C 0.66918 0.07741 0.1998 0.0
C2654 C 0.65504 0.09673 0.19956 0.0
H2655 H 0.52591 0.17823 0.19772 0.0
H2656 H 0.54972 0.14664 0.19819 0.0
H2657 H 0.6736 0.13722 0.21028 0.0
H2658 H 0.76128 0.05262 0.20312 0.0
H2659 H 0.73624 0.08381 0.20334 0.0
C2660 C 0.31077 0.80462 0.95014 0.0
C2661 C 0.34062 0.79033 0.94873 0.0
C2662 C 0.32499 0.82256 0.95066 0.0
C2663 C 0.41663 0.85216 0.94422 0.0
H2664 H 0.35841 0.88643 0.96028 0.0
C2665 C 0.4788 0.92455 0.95079 0.0
C2666 C 0.44867 0.93875 0.94935 0.0
C2667 C 0.46507 0.90651 0.95098 0.0
C2668 C 0.37457 0.87699 0.95573 0.0
H2669 H 0.40896 0.78357 0.94693 0.0
H2670 H 0.43429 0.81516 0.94811 0.0
H2671 H 0.33826 0.85422 0.96068 0.0
H2672 H 0.38036 0.94523 0.94718 0.0
H2673 H 0.35603 0.91329 0.94774 0.0
H2674 H 0.45376 0.87498 0.93948 0.0
C2675 C 0.39965 0.8124 0.94862 0.0
C2676 C 0.36316 0.85858 0.95594 0.0
C2677 C 0.38526 0.79434 0.94799 0.0
C2678 C 0.40423 0.93455 0.9483 0.0
C2679 C 0.39035 0.91637 0.94863 0.0
C2680 C 0.42846 0.87051 0.94411 0.0
C2681 C 0.36952 0.82671 0.9499 0.0
C2682 C 0.3838 0.84599 0.95012 0.0
C2683 C 0.42089 0.90227 0.94985 0.0
C2684 C 0.40733 0.88304 0.94983 0.0
H2685 H 0.27603 0.80205 0.95064 0.0
H2686 H 0.30079 0.83323 0.95142 0.0
H2687 H 0.43258 0.84291 0.93954 0.0
H2688 H 0.51334 0.92727 0.95159 0.0
H2689 H 0.48904 0.89582 0.95202 0.0
C2690 C 0.47589 0.80619 0.81915 0.0
C2691 C 0.44565 0.79207 0.82057 0.0
C2692 C 0.46242 0.82428 0.81904 0.0
C2693 C 0.37302 0.85412 0.82661 0.0
H2694 H 0.42882 0.88888 0.81045 0.0
C2695 C 0.30925 0.9265 0.82074 0.0
C2696 C 0.33936 0.94077 0.82195 0.0
C2697 C 0.32324 0.90849 0.8205 0.0
C2698 C 0.41339 0.8793 0.81504 0.0
H2699 H 0.37739 0.78575 0.82282 0.0
H2700 H 0.35334 0.81758 0.82233 0.0
H2701 H 0.44866 0.85666 0.80962 0.0
H2702 H 0.40783 0.94743 0.82369 0.0
H2703 H 0.4326 0.91555 0.82304 0.0
H2704 H 0.3368 0.87681 0.8318 0.0
C2705 C 0.38774 0.81459 0.82151 0.0
C2706 C 0.42463 0.86089 0.81458 0.0
C2707 C 0.40138 0.79638 0.82173 0.0
C2708 C 0.38398 0.93668 0.82275 0.0
C2709 C 0.39811 0.91854 0.82237 0.0
C2710 C 0.36136 0.87248 0.82697 0.0
C2711 C 0.41826 0.82872 0.82023 0.0
C2712 C 0.40472 0.84811 0.8204 0.0
C2713 C 0.36764 0.90437 0.82135 0.0
C2714 C 0.38155 0.88517 0.8212 0.0
H2715 H 0.51038 0.80336 0.81833 0.0
H2716 H 0.48693 0.8348 0.81824 0.0
H2717 H 0.3577 0.84471 0.83129 0.0
H2718 H 0.27457 0.92916 0.82015 0.0
H2719 H 0.2993 0.89775 0.81961 0.0
C2720 C 0.70274 0.47937 0.06772 0.0
C2721 C 0.72567 0.49065 0.0738 0.0
C2722 C 0.6572 0.47794 0.06816 0.0
C2723 C 0.55937 0.50247 0.07655 0.0
H2724 H 0.50182 0.45597 0.07279 0.0
C2725 C 0.3739 0.4925 0.0825 0.0
C2726 C 0.35091 0.48118 0.07645 0.0
C2727 C 0.41947 0.49381 0.0821 0.0
C2728 C 0.5173 0.46912 0.07375 0.0
H2729 H 0.71831 0.50923 0.08517 0.0
H2730 H 0.63907 0.5065 0.08603 0.0
H2731 H 0.58131 0.45762 0.07244 0.0
H2732 H 0.35823 0.46237 0.06518 0.0
H2733 H 0.4375 0.46492 0.06435 0.0
H2734 H 0.4954 0.51397 0.07785 0.0
C2735 C 0.6563 0.49889 0.08085 0.0
C2736 C 0.56296 0.47006 0.07355 0.0
C2737 C 0.70185 0.50027 0.08043 0.0
C2738 C 0.37473 0.47137 0.06989 0.0
C2739 C 0.42031 0.47265 0.06949 0.0
C2740 C 0.51372 0.50153 0.07674 0.0
C2741 C 0.63331 0.4878 0.07468 0.0
C2742 C 0.58463 0.48674 0.07496 0.0
C2743 C 0.44334 0.4838 0.07562 0.0
C2744 C 0.49204 0.48484 0.07534 0.0
H2745 H 0.72002 0.47162 0.06259 0.0
H2746 H 0.64065 0.46939 0.06325 0.0
H2747 H 0.57486 0.51561 0.0775 0.0
H2748 H 0.35666 0.5004 0.08758 0.0
H2749 H 0.43604 0.50241 0.08698 0.0
C2750 C 0.5825 0.73864 0.06516 0.0
C2751 C 0.55715 0.74127 0.07302 0.0
C2752 C 0.62801 0.7401 0.06549 0.0
C2753 C 0.72089 0.73795 0.08154 0.0
H2754 H 0.78485 0.76067 0.06183 0.0
C2755 C 0.90582 0.75288 0.08384 0.0
C2756 C 0.93137 0.74985 0.07605 0.0
C2757 C 0.86028 0.75184 0.08343 0.0
C2758 C 0.76754 0.75409 0.06734 0.0
H2759 H 0.55995 0.74798 0.08735 0.0
H2760 H 0.63932 0.75058 0.08792 0.0
H2761 H 0.70534 0.75931 0.06122 0.0
H2762 H 0.92877 0.74308 0.06172 0.0
H2763 H 0.84927 0.74123 0.06101 0.0
H2764 H 0.78304 0.73272 0.08766 0.0
C2765 C 0.62401 0.74708 0.08153 0.0
C2766 C 0.72191 0.75332 0.067 0.0
C2767 C 0.57848 0.74561 0.08119 0.0
C2768 C 0.91013 0.74571 0.06783 0.0
C2769 C 0.86452 0.74467 0.06742 0.0
C2770 C 0.76649 0.73872 0.08188 0.0
C2771 C 0.6494 0.74422 0.07369 0.0
C2772 C 0.69798 0.74524 0.07409 0.0
C2773 C 0.83901 0.74775 0.07522 0.0
C2774 C 0.79042 0.74681 0.0748 0.0
H2775 H 0.56728 0.73496 0.05878 0.0
H2776 H 0.6465 0.73754 0.05935 0.0
H2777 H 0.70362 0.73134 0.08704 0.0
H2778 H 0.92095 0.75646 0.09025 0.0
H2779 H 0.84168 0.7546 0.08954 0.0
C2780 C 0.71537 0.75413 0.19076 0.0
C2781 C 0.73399 0.74288 0.19746 0.0
C2782 C 0.66997 0.75608 0.19011 0.0
C2783 C 0.56649 0.73333 0.19655 0.0
H2784 H 0.51507 0.78064 0.19159 0.0
C2785 C 0.37998 0.74536 0.19823 0.0
C2786 C 0.36128 0.75639 0.19144 0.0
C2787 C 0.42538 0.74402 0.19911 0.0
C2788 C 0.52889 0.76729 0.19289 0.0
H2789 H 0.71913 0.72468 0.20867 0.0
H2790 H 0.64033 0.72837 0.20765 0.0
H2791 H 0.59421 0.77771 0.19273 0.0
H2792 H 0.37602 0.77503 0.18041 0.0
H2793 H 0.45496 0.77238 0.18182 0.0
H2794 H 0.50126 0.72287 0.19667 0.0
C2795 C 0.66074 0.73558 0.20284 0.0
C2796 C 0.57431 0.76561 0.19354 0.0
C2797 C 0.70604 0.73365 0.20349 0.0
C2798 C 0.3892 0.7662 0.18564 0.0
C2799 C 0.43456 0.76486 0.18652 0.0
C2800 C 0.5211 0.735 0.19589 0.0
C2801 C 0.64207 0.74678 0.19612 0.0
C2802 C 0.59371 0.74861 0.19538 0.0
C2803 C 0.45328 0.7537 0.19325 0.0
C2804 C 0.50167 0.752 0.19405 0.0
H2805 H 0.73588 0.76156 0.18605 0.0
H2806 H 0.65672 0.76469 0.1848 0.0
H2807 H 0.58029 0.71996 0.19783 0.0
H2808 H 0.35954 0.7375 0.20278 0.0
H2809 H 0.43862 0.73546 0.20444 0.0
C2810 C 0.91319 0.48502 0.1854 0.0
C2811 C 0.93695 0.48211 0.19345 0.0
C2812 C 0.8676 0.48633 0.18556 0.0
C2813 C 0.77135 0.47414 0.19955 0.0
H2814 H 0.71177 0.50934 0.18429 0.0
C2815 C 0.58595 0.48855 0.20268 0.0
C2816 C 0.56227 0.49184 0.19466 0.0
C2817 C 0.63149 0.48701 0.2025 0.0
C2818 C 0.72781 0.49926 0.18851 0.0
H2819 H 0.93118 0.47876 0.20803 0.0
H2820 H 0.85174 0.48112 0.20833 0.0
H2821 H 0.79123 0.50776 0.1841 0.0
H2822 H 0.56806 0.49553 0.1801 0.0
H2823 H 0.64739 0.49271 0.17976 0.0
H2824 H 0.70792 0.46563 0.20395 0.0
C2825 C 0.86833 0.48207 0.20185 0.0
C2826 C 0.77346 0.49837 0.18841 0.0
C2827 C 0.91393 0.48075 0.20168 0.0
C2828 C 0.58529 0.49326 0.18642 0.0
C2829 C 0.63083 0.49168 0.18623 0.0
C2830 C 0.72569 0.47502 0.19964 0.0
C2831 C 0.84453 0.48478 0.19379 0.0
C2832 C 0.79586 0.48581 0.19393 0.0
C2833 C 0.6546 0.48868 0.19428 0.0
C2834 C 0.70328 0.48759 0.19412 0.0
H2835 H 0.92972 0.48582 0.17891 0.0
H2836 H 0.85037 0.48815 0.1792 0.0
H2837 H 0.78742 0.46408 0.20378 0.0
H2838 H 0.56939 0.48767 0.20916 0.0
H2839 H 0.64868 0.48496 0.20884 0.0
C2840 C 0.65644 0.50276 0.93553 0.0
C2841 C 0.68214 0.49967 0.9433 0.0
C2842 C 0.61091 0.50168 0.93596 0.0
C2843 C 0.51845 0.50375 0.95211 0.0
H2844 H 0.45424 0.48111 0.93241 0.0
C2845 C 0.33346 0.48826 0.95437 0.0
C2846 C 0.30797 0.49094 0.94653 0.0
C2847 C 0.37896 0.48972 0.95402 0.0
C2848 C 0.47159 0.48769 0.93792 0.0
H2849 H 0.67981 0.49276 0.95761 0.0
H2850 H 0.60033 0.49086 0.95837 0.0
H2851 H 0.53365 0.48253 0.93175 0.0
H2852 H 0.31055 0.49773 0.93221 0.0
H2853 H 0.3899 0.50032 0.93159 0.0
H2854 H 0.45635 0.50891 0.95827 0.0
C2855 C 0.61546 0.49437 0.95196 0.0
C2856 C 0.51719 0.48848 0.93754 0.0
C2857 C 0.66105 0.49544 0.95152 0.0
C2858 C 0.32918 0.49532 0.93835 0.0
C2859 C 0.3747 0.49678 0.93799 0.0
C2860 C 0.47283 0.50297 0.95248 0.0
C2861 C 0.5898 0.49751 0.94418 0.0
C2862 C 0.54122 0.49653 0.94463 0.0
C2863 C 0.40022 0.49389 0.94581 0.0
C2864 C 0.4488 0.49492 0.94539 0.0
H2865 H 0.67145 0.50641 0.92912 0.0
H2866 H 0.5922 0.50448 0.92988 0.0
H2867 H 0.53585 0.51031 0.95762 0.0
H2868 H 0.31834 0.48456 0.96076 0.0
H2869 H 0.39755 0.48713 0.96014 0.0
C2870 C 0.45969 0.23109 0.93908 0.0
C2871 C 0.48051 0.23821 0.94682 0.0
C2872 C 0.41415 0.22958 0.93874 0.0
C2873 C 0.31354 0.24815 0.9492 0.0
H2874 H 0.25882 0.20573 0.93834 0.0
C2875 C 0.12691 0.23578 0.95091 0.0
C2876 C 0.10651 0.22888 0.94308 0.0
C2877 C 0.17248 0.23681 0.95147 0.0
C2878 C 0.27355 0.21777 0.94131 0.0
H2879 H 0.46943 0.24943 0.96026 0.0
H2880 H 0.39031 0.24646 0.95973 0.0
H2881 H 0.33821 0.20755 0.93912 0.0
H2882 H 0.1184 0.2174 0.92972 0.0
H2883 H 0.19757 0.21957 0.93061 0.0
H2884 H 0.24891 0.25839 0.95137 0.0
C2885 C 0.40913 0.24219 0.95388 0.0
C2886 C 0.31912 0.21881 0.94175 0.0
C2887 C 0.45462 0.24367 0.95423 0.0
C2888 C 0.13289 0.22303 0.93581 0.0
C2889 C 0.17839 0.22404 0.93637 0.0
C2890 C 0.26798 0.24711 0.94875 0.0
C2891 C 0.38827 0.23521 0.94612 0.0
C2892 C 0.33972 0.23402 0.94569 0.0
C2893 C 0.19882 0.23091 0.94421 0.0
C2894 C 0.24737 0.23193 0.94479 0.0
H2895 H 0.4786 0.22661 0.93328 0.0
H2896 H 0.39918 0.2243 0.93261 0.0
H2897 H 0.32827 0.2602 0.95215 0.0
H2898 H 0.10765 0.24054 0.95661 0.0
H2899 H 0.18709 0.24202 0.95765 0.0
C2900 C 0.65629 0.2218 0.81925 0.0
C2901 C 0.67962 0.23192 0.82576 0.0
C2902 C 0.61069 0.22282 0.8188 0.0
C2903 C 0.51402 0.2351 0.83263 0.0
H2904 H 0.45441 0.23595 0.80941 0.0
C2905 C 0.32874 0.24943 0.82949 0.0
C2906 C 0.30496 0.23969 0.82291 0.0
C2907 C 0.37429 0.2481 0.8299 0.0
C2908 C 0.47047 0.23548 0.81596 0.0
H2909 H 0.67307 0.2515 0.83672 0.0
H2910 H 0.59368 0.25331 0.83592 0.0
H2911 H 0.53393 0.23475 0.80986 0.0
H2912 H 0.31056 0.22046 0.81178 0.0
H2913 H 0.38992 0.21804 0.81254 0.0
H2914 H 0.45061 0.23581 0.83874 0.0
C2915 C 0.61059 0.24431 0.83127 0.0
C2916 C 0.51614 0.23482 0.81622 0.0
C2917 C 0.65617 0.2433 0.83172 0.0
C2918 C 0.32787 0.22836 0.81685 0.0
C2919 C 0.37342 0.227 0.81727 0.0
C2920 C 0.46837 0.23574 0.83238 0.0
C2921 C 0.5872 0.23398 0.82485 0.0
C2922 C 0.53853 0.23466 0.82456 0.0
C2923 C 0.39729 0.23697 0.82376 0.0
C2924 C 0.44595 0.23598 0.82404 0.0
H2925 H 0.67316 0.21268 0.81465 0.0
H2926 H 0.59376 0.21449 0.81385 0.0
H2927 H 0.53009 0.23467 0.83918 0.0
H2928 H 0.31228 0.25851 0.83417 0.0
H2929 H 0.39155 0.25618 0.8349 0.0
C2930 C 0.12605 0.4882 0.83192 0.0
C2931 C 0.10344 0.50057 0.82632 0.0
C2932 C 0.17162 0.4869 0.83156 0.0
C2933 C 0.26994 0.51281 0.82454 0.0
H2934 H 0.32709 0.46573 0.82632 0.0
C2935 C 0.45562 0.50337 0.81849 0.0
C2936 C 0.47813 0.49101 0.82411 0.0
C2937 C 0.41007 0.50479 0.81888 0.0
C2938 C 0.31171 0.47902 0.82593 0.0
H2939 H 0.11141 0.52127 0.81592 0.0
H2940 H 0.19071 0.51876 0.81517 0.0
H2941 H 0.24762 0.46743 0.82657 0.0
H2942 H 0.47006 0.47049 0.83459 0.0
H2943 H 0.39081 0.47319 0.83539 0.0
H2944 H 0.33407 0.52439 0.82389 0.0
C2945 C 0.17321 0.51018 0.81992 0.0
C2946 C 0.26606 0.47999 0.82606 0.0
C2947 C 0.12762 0.51145 0.82027 0.0
C2948 C 0.45391 0.48029 0.83022 0.0
C2949 C 0.40835 0.48167 0.8306 0.0
C2950 C 0.3156 0.51184 0.8244 0.0
C2951 C 0.19586 0.49796 0.8256 0.0
C2952 C 0.24454 0.4969 0.82538 0.0
C2953 C 0.38578 0.49384 0.82489 0.0
C2954 C 0.33711 0.49493 0.8251 0.0
H2955 H 0.1085 0.47948 0.8366 0.0
H2956 H 0.18791 0.47745 0.83609 0.0
H2957 H 0.25457 0.5261 0.82415 0.0
H2958 H 0.47322 0.51197 0.81376 0.0
H2959 H 0.39382 0.51421 0.81433 0.0
C2960 C 0.37602 0.97684 0.56815 0.0
C2961 C 0.35239 0.98066 0.57612 0.0
C2962 C 0.42163 0.97816 0.56801 0.0
C2963 C 0.518 0.97803 0.58327 0.0
H2964 H 0.57786 -0.00196 0.56232 0.0
C2965 C 0.70297 -0.00546 0.58346 0.0
C2966 C 0.72705 -0.0092 0.57554 0.0
C2967 C 0.65746 -0.00722 0.58354 0.0
C2968 C 0.56172 -0.0078 0.56819 0.0
H2969 H 0.35856 0.98889 0.59021 0.0
H2970 H 0.43787 -0.00847 0.58993 0.0
H2971 H 0.49834 -0.00354 0.56241 0.0
H2972 H 0.72188 0.98217 0.56149 0.0
H2973 H 0.64263 0.97884 0.56167 0.0
H2974 H 0.58138 0.97382 0.58906 0.0
C2975 C 0.42117 0.98732 0.58379 0.0
C2976 C 0.51605 -0.00869 0.56824 0.0
C2977 C 0.37557 0.98604 0.58392 0.0
C2978 C 0.70447 0.985 0.56774 0.0
C2979 C 0.65893 0.98331 0.5678 0.0
C2980 C 0.56366 0.97894 0.58322 0.0
C2981 C 0.44486 0.98329 0.57586 0.0
C2982 C 0.49355 0.98425 0.57579 0.0
C2983 C 0.63478 0.9873 0.57569 0.0
C2984 C 0.58614 0.98606 0.57568 0.0
H2985 H 0.35926 0.97282 0.56199 0.0
H2986 H 0.43873 0.97482 0.5618 0.0
H2987 H 0.50188 0.97221 0.58914 0.0
H2988 H 0.71931 -0.00113 0.58962 0.0
H2989 H 0.63997 -0.00389 0.58971 0.0
C2990 C 0.58509 0.22913 0.57996 0.0
C2991 C 0.56081 0.23971 0.57378 0.0
C2992 C 0.63064 0.23056 0.58034 0.0
C2993 C 0.72602 0.24557 0.56673 0.0
H2994 H 0.78665 0.24342 0.58982 0.0
C2995 C 0.91143 0.25995 0.57006 0.0
C2996 C 0.9356 0.2492 0.57619 0.0
C2997 C 0.86584 0.25868 0.5697 0.0
C2998 C 0.77031 0.24382 0.5833 0.0
H2999 H 0.56561 0.26055 0.56337 0.0
H3000 H 0.64492 0.26311 0.56408 0.0
H3001 H 0.70718 0.24183 0.58947 0.0
H3002 H 0.93051 0.22828 0.58655 0.0
H3003 H 0.85115 0.22602 0.5859 0.0
H3004 H 0.78915 0.24757 0.56057 0.0
C3005 C 0.62881 0.25342 0.56851 0.0
C3006 C 0.72465 0.24292 0.5831 0.0
C3007 C 0.58327 0.25198 0.56811 0.0
C3008 C 0.91297 0.23697 0.58185 0.0
C3009 C 0.86739 0.2357 0.58149 0.0
C3010 C 0.77167 0.24647 0.56693 0.0
C3011 C 0.65317 0.24263 0.57458 0.0
C3012 C 0.70186 0.24378 0.57481 0.0
C3013 C 0.84316 0.24663 0.57545 0.0
C3014 C 0.79446 0.2456 0.57522 0.0
H3015 H 0.56901 0.21933 0.58433 0.0
H3016 H 0.64828 0.22184 0.58502 0.0
H3017 H 0.70969 0.24596 0.56021 0.0
H3018 H 0.92763 0.26973 0.5657 0.0
H3019 H 0.8483 0.2675 0.56506 0.0
C3020 C 0.70057 0.23802 0.70354 0.0
C3021 C 0.72581 0.24065 0.69567 0.0
C3022 C 0.65506 0.23956 0.70325 0.0
C3023 C 0.56417 0.25876 0.68962 0.0
H3024 H 0.49416 0.22363 0.70286 0.0
C3025 C 0.37694 0.25405 0.68509 0.0
C3026 C 0.3514 0.25108 0.6929 0.0
C3027 C 0.42248 0.25278 0.68547 0.0
C3028 C 0.51317 0.23369 0.69921 0.0
H3029 H 0.72268 0.24731 0.68133 0.0
H3030 H 0.64326 0.24975 0.6808 0.0
H3031 H 0.57355 0.22167 0.70346 0.0
H3032 H 0.35411 0.24419 0.70721 0.0
H3033 H 0.43357 0.24228 0.70791 0.0
H3034 H 0.50379 0.27079 0.68538 0.0
C3035 C 0.65874 0.24663 0.68723 0.0
C3036 C 0.55877 0.23257 0.69955 0.0
C3037 C 0.70429 0.24504 0.68751 0.0
C3038 C 0.3727 0.24672 0.70108 0.0
C3039 C 0.41829 0.24543 0.70146 0.0
C3040 C 0.51857 0.2599 0.68929 0.0
C3041 C 0.6335 0.2438 0.69509 0.0
C3042 C 0.58489 0.24508 0.69475 0.0
C3043 C 0.44381 0.24851 0.69366 0.0
C3044 C 0.49244 0.24736 0.69407 0.0
H3045 H 0.71592 0.23441 0.70992 0.0
H3046 H 0.63675 0.2375 0.70946 0.0
H3047 H 0.58321 0.2688 0.68596 0.0
H3048 H 0.36178 0.25767 0.6787 0.0
H3049 H 0.44098 0.25504 0.67931 0.0
C3050 C 0.91269 0.98897 0.70142 0.0
C3051 C 0.93308 0.98123 0.69378 0.0
C3052 C 0.8671 0.99005 0.70195 0.0
C3053 C 0.76726 0.98904 0.68769 0.0
H3054 H 0.70904 0.97863 0.71048 0.0
C3055 C 0.57933 0.98253 0.69029 0.0
C3056 C 0.55909 -0.00947 0.69789 0.0
C3057 C 0.62485 0.98106 0.68982 0.0
C3058 C 0.72478 0.98176 0.70409 0.0
H3059 H 0.92117 0.96822 0.68077 0.0
H3060 H 0.84197 0.97017 0.68168 0.0
H3061 H 0.78845 0.97701 0.70962 0.0
H3062 H 0.57125 0.00347 0.7109 0.0
H3063 H 0.65037 0.00086 0.71009 0.0
H3064 H 0.70361 -0.0062 0.68216 0.0
C3065 C 0.86118 0.9757 0.68721 0.0
C3066 C 0.77036 0.98085 0.7036 0.0
C3067 C 0.90669 0.9746 0.68668 0.0
C3068 C 0.58558 -0.00308 0.70502 0.0
C3069 C 0.63105 -0.00456 0.70455 0.0
C3070 C 0.72169 0.98994 0.68818 0.0
C3071 C 0.84076 0.98342 0.69484 0.0
C3072 C 0.79221 0.98448 0.69539 0.0
C3073 C 0.65131 0.98756 0.69694 0.0
C3074 C 0.69984 0.98633 0.69639 0.0
H3075 H 0.93196 -0.0056 0.70696 0.0
H3076 H 0.85252 -0.00368 0.70788 0.0
H3077 H 0.78299 -0.00781 0.6813 0.0
H3078 H 0.55996 0.97724 0.68473 0.0
H3079 H 0.63931 0.97466 0.68392 0.0
C3080 C 0.65771 0.01061 0.45075 0.0
C3081 C 0.68105 0.00066 0.44418 0.0
C3082 C 0.61213 0.00948 0.45124 0.0
C3083 C 0.51796 0.98081 0.44423 0.0
H3084 H 0.4513 0.025 0.44845 0.0
C3085 C 0.33002 0.98272 0.44056 0.0
C3086 C 0.30639 -0.00759 0.44718 0.0
C3087 C 0.37558 0.98396 0.44013 0.0
C3088 C 0.4694 0.0125 0.44736 0.0
H3089 H 0.6745 0.98131 0.43312 0.0
H3090 H 0.59514 0.97956 0.43387 0.0
H3091 H 0.53082 0.02639 0.44801 0.0
H3092 H 0.31234 0.01143 0.45839 0.0
H3093 H 0.39177 0.01343 0.45772 0.0
H3094 H 0.45655 0.96693 0.44356 0.0
C3095 C 0.61207 0.98817 0.4387 0.0
C3096 C 0.51507 0.01328 0.44712 0.0
C3097 C 0.65762 0.98932 0.4382 0.0
C3098 C 0.32949 0.00363 0.45326 0.0
C3099 C 0.37505 0.00492 0.45282 0.0
C3100 C 0.47232 0.98003 0.44446 0.0
C3101 C 0.58866 -0.00167 0.44518 0.0
C3102 C 0.53998 -0.00255 0.44555 0.0
C3103 C 0.39874 -0.00502 0.4463 0.0
C3104 C 0.44741 -0.00413 0.44602 0.0
H3105 H 0.67457 0.01962 0.45541 0.0
H3106 H 0.59529 0.01733 0.45639 0.0
H3107 H 0.53603 0.9683 0.44315 0.0
H3108 H 0.3134 0.9738 0.43582 0.0
H3109 H 0.39267 0.97629 0.43495 0.0
C3110 C 0.45131 0.74511 0.45306 0.0
C3111 C 0.47724 0.74045 0.44552 0.0
C3112 C 0.40582 0.74361 0.45267 0.0
C3113 C 0.31406 0.74167 0.43635 0.0
H3114 H 0.24878 0.72403 0.45713 0.0
C3115 C 0.1292 0.72639 0.43448 0.0
C3116 C 0.10317 0.7314 0.44195 0.0
C3117 C 0.17472 0.72745 0.43496 0.0
C3118 C 0.26646 0.72918 0.45131 0.0
H3119 H 0.47544 0.73016 0.43172 0.0
H3120 H 0.39609 0.72753 0.43104 0.0
H3121 H 0.32825 0.72554 0.45787 0.0
H3122 H 0.10493 0.74168 0.45576 0.0
H3123 H 0.18441 0.74354 0.45658 0.0
H3124 H 0.25231 0.74533 0.42979 0.0
C3125 C 0.41095 0.73261 0.43722 0.0
C3126 C 0.31207 0.73004 0.45173 0.0
C3127 C 0.45648 0.7341 0.4376 0.0
C3128 C 0.12394 0.7375 0.44991 0.0
C3129 C 0.16953 0.73855 0.45039 0.0
C3130 C 0.26848 0.74081 0.43593 0.0
C3131 C 0.38502 0.73743 0.44473 0.0
C3132 C 0.33646 0.7363 0.44425 0.0
C3133 C 0.19551 0.73353 0.44292 0.0
C3134 C 0.24407 0.73456 0.4434 0.0
H3135 H 0.46607 0.75036 0.45921 0.0
H3136 H 0.3869 0.74772 0.45853 0.0
H3137 H 0.3317 0.74686 0.43053 0.0
H3138 H 0.11444 0.72127 0.4283 0.0
H3139 H 0.19367 0.72317 0.42913 0.0
C3140 C 0.32669 0.72524 0.31688 0.0
C3141 C 0.30358 0.73669 0.32285 0.0
C3142 C 0.37203 0.72331 0.3176 0.0
C3143 C 0.46521 0.73041 0.33339 0.0
H3144 H 0.53409 0.72925 0.31131 0.0
C3145 C 0.65348 0.73608 0.33398 0.0
C3146 C 0.67736 0.7249 0.328 0.0
C3147 C 0.60801 0.73736 0.3333 0.0
C3148 C 0.51536 0.72934 0.31755 0.0
H3149 H 0.31039 0.75509 0.3343 0.0
H3150 H 0.38935 0.75174 0.33556 0.0
H3151 H 0.45481 0.73144 0.31035 0.0
H3152 H 0.67176 0.70628 0.31662 0.0
H3153 H 0.59247 0.70852 0.31543 0.0
H3154 H 0.52577 0.72837 0.34059 0.0
C3155 C 0.37234 0.74403 0.33038 0.0
C3156 C 0.46981 0.73058 0.317 0.0
C3157 C 0.32697 0.74594 0.32966 0.0
C3158 C 0.65454 0.71521 0.32126 0.0
C3159 C 0.60901 0.71649 0.32058 0.0
C3160 C 0.51075 0.72918 0.33394 0.0
C3161 C 0.39555 0.73279 0.32432 0.0
C3162 C 0.44409 0.73118 0.32491 0.0
C3163 C 0.58509 0.72751 0.32663 0.0
C3164 C 0.53648 0.72867 0.32603 0.0
H3165 H 0.30968 0.71768 0.31164 0.0
H3166 H 0.38864 0.71427 0.31292 0.0
H3167 H 0.4465 0.73054 0.33963 0.0
H3168 H 0.66999 0.74399 0.33915 0.0
H3169 H 0.59083 0.74626 0.33796 0.0
C3170 C 0.13367 0.98742 0.333 0.0
C3171 C 0.10988 -0.0022 0.32666 0.0
C3172 C 0.17921 0.98624 0.33247 0.0
C3173 C 0.27559 0.01015 0.32298 0.0
H3174 H 0.33481 0.96459 0.32823 0.0
C3175 C 0.46126 -6e-05 0.31709 0.0
C3176 C 0.48458 0.98973 0.32358 0.0
C3177 C 0.41569 0.00121 0.31751 0.0
C3178 C 0.31885 0.97749 0.32685 0.0
H3179 H 0.1157 0.01502 0.31475 0.0
H3180 H 0.19497 0.01267 0.3137 0.0
H3181 H 0.25533 0.96587 0.32867 0.0
H3182 H 0.47794 0.9729 0.33561 0.0
H3183 H 0.39865 0.97536 0.33643 0.0
H3184 H 0.33918 0.02175 0.32114 0.0
C3185 C 0.17841 0.0056 0.31917 0.0
C3186 C 0.2732 0.97822 0.32709 0.0
C3187 C 0.13284 0.00676 0.31969 0.0
C3188 C 0.46115 0.98103 0.33056 0.0
C3189 C 0.41558 0.98225 0.33096 0.0
C3190 C 0.32127 0.00941 0.32272 0.0
C3191 C 0.20225 -0.00458 0.32558 0.0
C3192 C 0.25093 -0.00543 0.32518 0.0
C3193 C 0.3922 -0.00776 0.3244 0.0
C3194 C 0.34352 -0.00692 0.32467 0.0
H3195 H 0.11709 0.98018 0.33841 0.0
H3196 H 0.19642 0.97841 0.33758 0.0
H3197 H 0.25965 0.02306 0.32161 0.0
H3198 H 0.47825 0.00696 0.31167 0.0
H3199 H 0.39879 0.00891 0.3123 0.0
C3200 C 0.2089 0.47806 0.56672 0.0
C3201 C 0.232 0.48899 0.57293 0.0
C3202 C 0.16334 0.47678 0.56713 0.0
C3203 C 0.06612 0.50136 0.57574 0.0
H3204 H 1.00745 0.4552 0.5717 0.0
C3205 C 0.88089 0.49188 0.58198 0.0
C3206 C 0.85735 0.48081 0.5759 0.0
C3207 C 0.92643 0.49305 0.58147 0.0
C3208 C 0.02325 0.46826 0.57273 0.0
H3209 H 0.22498 0.50709 0.58449 0.0
H3210 H 0.1457 0.50462 0.58531 0.0
H3211 H 0.08698 0.45656 0.57127 0.0
H3212 H 0.86361 0.46233 0.56447 0.0
H3213 H 0.94288 0.46465 0.56346 0.0
H3214 H 1.00245 0.51307 0.57719 0.0
C3215 C 0.1628 0.49717 0.58005 0.0
C3216 C 0.06892 0.46903 0.57249 0.0
C3217 C 0.20837 0.4984 0.57965 0.0
C3218 C 0.88056 0.47113 0.56921 0.0
C3219 C 0.92613 0.47228 0.5687 0.0
C3220 C 0.02047 0.50059 0.57597 0.0
C3221 C 0.13964 0.48645 0.57375 0.0
C3222 C 0.09097 0.48558 0.57401 0.0
C3223 C 0.94972 0.48316 0.57486 0.0
C3224 C 0.99839 0.48403 0.57448 0.0
H3225 H 0.22606 0.47048 0.56151 0.0
H3226 H 0.14661 0.4685 0.56213 0.0
H3227 H 0.08192 0.51441 0.57678 0.0
H3228 H 0.86411 0.49967 0.58717 0.0
H3229 H 0.94345 0.50144 0.58638 0.0
C3230 C 0.41109 0.7444 0.5674 0.0
C3231 C 0.43173 0.75058 0.57537 0.0
C3232 C 0.36551 0.74331 0.5669 0.0
C3233 C 0.26466 0.76111 0.57768 0.0
H3234 H 0.2099 0.71983 0.56581 0.0
C3235 C 0.07855 0.74753 0.57966 0.0
C3236 C 0.05766 0.74124 0.57175 0.0
C3237 C 0.12409 0.74898 0.58003 0.0
C3238 C 0.22464 0.73157 0.56906 0.0
H3239 H 0.42026 0.76065 0.58902 0.0
H3240 H 0.34107 0.75835 0.58822 0.0
H3241 H 0.28927 0.72162 0.56657 0.0
H3242 H 0.06862 0.73145 0.55803 0.0
H3243 H 0.14776 0.73434 0.55861 0.0
H3244 H 0.2 0.77103 0.58019 0.0
C3245 C 0.36007 0.75451 0.58231 0.0
C3246 C 0.27021 0.73259 0.56949 0.0
C3247 C 0.40559 0.7556 0.58282 0.0
C3248 C 0.08349 0.73656 0.5642 0.0
C3249 C 0.12898 0.73798 0.56457 0.0
C3250 C 0.21909 0.76008 0.57725 0.0
C3251 C 0.3394 0.7484 0.57435 0.0
C3252 C 0.29083 0.74737 0.57382 0.0
C3253 C 0.14991 0.74413 0.5725 0.0
C3254 C 0.19847 0.74529 0.57294 0.0
H3255 H 0.43017 0.74029 0.56156 0.0
H3256 H 0.35072 0.7387 0.56063 0.0
H3257 H 0.2794 0.77284 0.58094 0.0
H3258 H 0.05968 0.75139 0.58558 0.0
H3259 H 0.13911 0.75361 0.58628 0.0
C3260 C 0.8766 0.73721 0.68765 0.0
C3261 C 0.85444 0.75062 0.6927 0.0
C3262 C 0.92218 0.73589 0.68797 0.0
C3263 C 0.02108 0.76282 0.6935 0.0
H3264 H 0.07771 0.71551 0.69389 0.0
C3265 C 0.20702 0.75426 0.69953 0.0
C3266 C 0.22906 0.74083 0.69447 0.0
C3267 C 0.16146 0.75567 0.6992 0.0
C3268 C 0.06247 0.72884 0.69367 0.0
H3269 H 0.86318 0.77316 0.70207 0.0
H3270 H 0.94249 0.77065 0.70276 0.0
H3271 H 0.99825 0.7173 0.69373 0.0
H3272 H 0.22013 0.71837 0.68505 0.0
H3273 H 0.14086 0.72104 0.68435 0.0
H3274 H 0.08533 0.77435 0.69345 0.0
C3275 C 0.92464 0.76126 0.69847 0.0
C3276 C 1.01683 0.72987 0.69359 0.0
C3277 C 0.87906 0.76254 0.69817 0.0
C3278 C 0.20435 0.729 0.68897 0.0
C3279 C 0.15879 0.73038 0.68866 0.0
C3280 C 0.06673 0.76179 0.69359 0.0
C3281 C 0.94684 0.74798 0.69334 0.0
C3282 C 0.99551 0.74687 0.6935 0.0
C3283 C 0.1367 0.74365 0.69381 0.0
C3284 C 0.08804 0.74478 0.69367 0.0
H3285 H 0.8587 0.72768 0.68344 0.0
H3286 H 0.93813 0.7256 0.68387 0.0
H3287 H 1.00584 0.77615 0.69328 0.0
H3288 H 0.22501 0.7637 0.70377 0.0
H3289 H 0.14559 0.76596 0.70331 0.0
C3290 C 0.07721 0.47909 0.70308 0.0
C3291 C 0.0539 0.48954 0.69669 0.0
C3292 C 0.12278 0.47786 0.70266 0.0
C3293 C 0.2195 0.50203 0.6936 0.0
H3294 H 0.27891 0.4563 0.69838 0.0
C3295 C 0.40477 0.49253 0.68745 0.0
C3296 C 0.42852 0.48191 0.69369 0.0
C3297 C 0.35923 0.49365 0.68797 0.0
C3298 C 0.2629 0.46924 0.69714 0.0
H3299 H 0.06052 0.50683 0.68481 0.0
H3300 H 0.13982 0.50443 0.68399 0.0
H3301 H 0.19936 0.45751 0.69881 0.0
H3302 H 0.42264 0.4642 0.70543 0.0
H3303 H 0.34335 0.46645 0.70645 0.0
H3304 H 0.28297 0.51379 0.69194 0.0
C3305 C 0.12288 0.49732 0.68939 0.0
C3306 C 0.21723 0.46992 0.69738 0.0
C3307 C 0.07731 0.49851 0.68979 0.0
C3308 C 0.40552 0.47265 0.70056 0.0
C3309 C 0.35995 0.47375 0.70107 0.0
C3310 C 0.26515 0.50136 0.69337 0.0
C3311 C 0.14626 0.4871 0.69586 0.0
C3312 C 0.19492 0.48632 0.69559 0.0
C3313 C 0.33615 0.48416 0.69474 0.0
C3314 C 0.28749 0.48495 0.69512 0.0
H3315 H 0.06022 0.47187 0.70843 0.0
H3316 H 0.13969 0.46997 0.70779 0.0
H3317 H 0.20348 0.51497 0.69235 0.0
H3318 H 0.4214 0.5 0.68213 0.0
H3319 H 0.34204 0.50167 0.68293 0.0
C3320 C 0.83345 0.49614 0.45212 0.0
C3321 C 0.81063 0.49034 0.44435 0.0
C3322 C 0.879 0.49774 0.45201 0.0
C3323 C 0.97681 0.48155 0.43952 0.0
H3324 H 0.03468 0.52109 0.45219 0.0
C3325 C 0.16239 0.49507 0.4361 0.0
C3326 C 0.18535 0.50053 0.44391 0.0
C3327 C 0.1168 0.49369 0.43619 0.0
C3328 C 0.0191 0.50983 0.44871 0.0
H3329 H 0.81795 0.48227 0.43026 0.0
H3330 H 0.89725 0.48519 0.43005 0.0
H3331 H 0.95519 0.51945 0.45216 0.0
H3332 H 0.17814 0.50834 0.45804 0.0
H3333 H 0.09873 0.50586 0.45821 0.0
H3334 H 0.0407 0.47194 0.43606 0.0
C3335 C 0.88003 0.48814 0.4363 0.0
C3336 C 0.97344 0.5089 0.44868 0.0
C3337 C 0.8345 0.4865 0.43641 0.0
C3338 C 0.16152 0.50436 0.45186 0.0
C3339 C 0.11593 0.50296 0.45195 0.0
C3340 C 0.02245 0.48249 0.43954 0.0
C3341 C 0.90296 0.49362 0.44412 0.0
C3342 C 0.95165 0.49474 0.44409 0.0
C3343 C 0.09292 0.49772 0.4441 0.0
C3344 C 0.04424 0.49664 0.44413 0.0
H3345 H 0.81622 0.49894 0.45839 0.0
H3346 H 0.89551 0.50175 0.4582 0.0
H3347 H 0.96126 0.47027 0.43604 0.0
H3348 H 0.17954 0.49232 0.42982 0.0
H3349 H 0.1002 0.48987 0.42998 0.0
C3350 C 0.95445 0.24288 0.43661 0.0
C3351 C 0.97754 0.24159 0.44484 0.0
C3352 C 0.90892 0.2413 0.43643 0.0
C3353 C 0.81417 0.22482 0.44991 0.0
H3354 H 0.74852 0.25736 0.43425 0.0
C3355 C 0.62584 0.23053 0.45186 0.0
C3356 C 0.60287 0.23181 0.4436 0.0
C3357 C 0.67144 0.23185 0.45205 0.0
C3358 C 0.76632 0.24803 0.4386 0.0
H3359 H 0.97056 0.23761 0.45936 0.0
H3360 H 0.89127 0.23489 0.45907 0.0
H3361 H 0.82796 0.25895 0.43444 0.0
H3362 H 0.61022 0.23536 0.42906 0.0
H3363 H 0.68954 0.23768 0.42939 0.0
H3364 H 0.75248 0.21393 0.45407 0.0
C3365 C 0.9084 0.23685 0.45271 0.0
C3366 C 0.81196 0.24893 0.4387 0.0
C3367 C 0.95394 0.2384 0.45288 0.0
C3368 C 0.6267 0.23462 0.43556 0.0
C3369 C 0.67227 0.23594 0.43575 0.0
C3370 C 0.76851 0.22394 0.44981 0.0
C3371 C 0.88522 0.23841 0.44449 0.0
C3372 C 0.83654 0.23733 0.44435 0.0
C3373 C 0.69529 0.23448 0.44399 0.0
C3374 C 0.74396 0.23552 0.44415 0.0
H3375 H 0.97162 0.24507 0.43027 0.0
H3376 H 0.8923 0.24223 0.42996 0.0
H3377 H 0.83198 0.21549 0.45425 0.0
H3378 H 0.60854 0.22861 0.4582 0.0
H3379 H 0.68798 0.23097 0.45853 0.0
C3380 C 0.16506 0.22082 0.31995 0.0
C3381 C 0.18878 0.23046 0.32658 0.0
C3382 C 0.11947 0.2221 0.31953 0.0
C3383 C 0.02587 0.2508 0.3269 0.0
H3384 H 0.9584 0.20705 0.32223 0.0
C3385 C 0.8377 0.24946 0.33049 0.0
C3386 C 0.81391 0.24003 0.3238 0.0
C3387 C 0.88326 0.24807 0.33091 0.0
C3388 C 0.97672 0.21944 0.32345 0.0
H3389 H 0.18282 0.24939 0.33783 0.0
H3390 H 0.10345 0.25141 0.33719 0.0
H3391 H 0.03788 0.20537 0.32263 0.0
H3392 H 0.81964 0.22132 0.31245 0.0
H3393 H 0.89902 0.21908 0.31311 0.0
H3394 H 0.96471 0.26487 0.32773 0.0
C3395 C 0.1201 0.24293 0.33226 0.0
C3396 C 0.02238 0.21849 0.32367 0.0
C3397 C 0.16567 0.24162 0.3327 0.0
C3398 C 0.83688 0.22893 0.31764 0.0
C3399 C 0.88243 0.22749 0.31808 0.0
C3400 C 0.98022 0.25176 0.32669 0.0
C3401 C 0.09632 0.2331 0.32571 0.0
C3402 C 0.04761 0.23415 0.3254 0.0
C3403 C 0.9063 0.23717 0.32467 0.0
C3404 C 0.95499 0.23609 0.32496 0.0
H3405 H 0.18164 0.21194 0.31519 0.0
H3406 H 0.10237 0.2145 0.31432 0.0
H3407 H 0.04417 0.26321 0.32812 0.0
H3408 H 0.82121 0.25829 0.33529 0.0
H3409 H 0.90045 0.25554 0.33616 0.0
C3410 C 0.95429 0.50064 0.31681 0.0
C3411 C 0.97745 0.48978 0.32305 0.0
C3412 C 0.90871 0.50197 0.31724 0.0
C3413 C 0.8114 0.47769 0.32605 0.0
H3414 H 0.75296 0.52385 0.32179 0.0
C3415 C 0.62621 0.48755 0.33235 0.0
C3416 C 0.60263 0.49854 0.32623 0.0
C3417 C 0.67176 0.48632 0.33181 0.0
C3418 C 0.76868 0.51079 0.32288 0.0
H3419 H 0.97048 0.47184 0.33468 0.0
H3420 H 0.89122 0.47441 0.33553 0.0
H3421 H 0.83247 0.52235 0.3213 0.0
H3422 H 0.60887 0.51682 0.31472 0.0
H3423 H 0.68812 0.5144 0.31368 0.0
H3424 H 0.74767 0.46612 0.32762 0.0
C3425 C 0.90827 0.48177 0.33023 0.0
C3426 C 0.81435 0.50994 0.32261 0.0
C3427 C 0.95384 0.48048 0.32981 0.0
C3428 C 0.62583 0.50808 0.31949 0.0
C3429 C 0.67141 0.50688 0.31897 0.0
C3430 C 0.76574 0.47854 0.32631 0.0
C3431 C 0.88504 0.49243 0.32391 0.0
C3432 C 0.83635 0.49338 0.32421 0.0
C3433 C 0.69504 0.49606 0.32516 0.0
C3434 C 0.74373 0.49511 0.32475 0.0
H3435 H 0.97139 0.50814 0.31157 0.0
H3436 H 0.89196 0.5102 0.31222 0.0
H3437 H 0.82713 0.46464 0.32715 0.0
H3438 H 0.60946 0.47985 0.33757 0.0
H3439 H 0.68879 0.47799 0.33675 0.0
C3440 C 0.87532 0.97796 0.06821 0.0
C3441 C 0.85219 0.98043 0.07638 0.0
C3442 C 0.92091 0.97933 0.06801 0.0
C3443 C 1.01829 0.97678 0.08295 0.0
H3444 H 0.07671 0.0002 0.06272 0.0
C3445 C 0.20339 -0.00689 0.08325 0.0
C3446 C 0.22687 -0.00939 0.07514 0.0
C3447 C 0.15786 -0.00856 0.0834 0.0
C3448 C 0.06098 -0.00659 0.06837 0.0
H3449 H 0.85926 0.98627 0.09074 0.0
H3450 H 0.93854 0.989 0.09036 0.0
H3451 H 0.99722 -0.00145 0.06296 0.0
H3452 H 0.22058 0.98435 0.0608 0.0
H3453 H 0.14132 0.98116 0.06108 0.0
H3454 H 0.08206 0.97168 0.08837 0.0
C3455 C 0.92146 0.98582 0.08412 0.0
C3456 C 1.01532 -0.00753 0.06851 0.0
C3457 C 0.87587 0.98449 0.08431 0.0
C3458 C 0.20365 0.98618 0.06719 0.0
C3459 C 0.1581 0.98458 0.06733 0.0
C3460 C 0.06394 0.97773 0.08281 0.0
C3461 C 0.94464 0.98315 0.07597 0.0
C3462 C 0.99333 0.98417 0.07581 0.0
C3463 C 0.13456 0.98729 0.07542 0.0
C3464 C 0.08591 0.98607 0.07552 0.0
H3465 H 0.85816 0.97498 0.06196 0.0
H3466 H 0.93762 0.97704 0.06163 0.0
H3467 H 1.00257 0.96999 0.0886 0.0
H3468 H 0.22023 -0.00363 0.08951 0.0
H3469 H 0.14084 -0.00623 0.08974 0.0
C3470 C 0.07708 0.25114 0.07884 0.0
C3471 C 0.05702 0.24102 0.07188 0.0
C3472 C 0.12263 0.25261 0.07929 0.0
C3473 C 0.22407 0.22991 0.07145 0.0
H3474 H 0.27848 0.27584 0.07796 0.0
C3475 C 0.41099 0.24106 0.06919 0.0
C3476 C 0.43087 0.25093 0.07626 0.0
C3477 C 0.36544 0.23995 0.06857 0.0
C3478 C 0.26383 0.26285 0.07623 0.0
H3479 H 0.06949 0.22434 0.05998 0.0
H3480 H 0.14856 0.22723 0.06065 0.0
H3481 H 0.19913 0.27382 0.07709 0.0
H3482 H 0.41812 0.26763 0.08814 0.0
H3483 H 0.33898 0.26537 0.08716 0.0
H3484 H 0.28873 0.21893 0.07061 0.0
C3485 C 0.12915 0.23391 0.06582 0.0
C3486 C 0.21828 0.2617 0.07573 0.0
C3487 C 0.08369 0.23246 0.06537 0.0
C3488 C 0.40401 0.2597 0.08267 0.0
C3489 C 0.35854 0.25861 0.08204 0.0
C3490 C 0.26961 0.23107 0.07195 0.0
C3491 C 0.14926 0.24394 0.0728 0.0
C3492 C 0.19779 0.24521 0.07334 0.0
C3493 C 0.33862 0.24872 0.07498 0.0
C3494 C 0.2901 0.24755 0.07435 0.0
H3495 H 0.05758 0.25803 0.08392 0.0
H3496 H 0.13698 0.26031 0.08481 0.0
H3497 H 0.20943 0.21692 0.06974 0.0
H3498 H 0.43063 0.23404 0.06417 0.0
H3499 H 0.35123 0.23237 0.06299 0.0
C3500 C 0.87804 0.25104 0.20248 0.0
C3501 C 0.85569 0.25042 0.19413 0.0
C3502 C 0.92367 0.25004 0.20277 0.0
C3503 C 0.02179 0.25714 0.18848 0.0
H3504 H 0.08001 0.2289 0.20717 0.0
C3505 C 0.20706 0.24157 0.18755 0.0
C3506 C 0.23012 0.24201 0.19581 0.0
C3507 C 0.16154 0.2432 0.18742 0.0
C3508 C 0.0643 0.23704 0.20197 0.0
H3509 H 0.86411 0.2483 0.17955 0.0
H3510 H 0.94345 0.24618 0.18007 0.0
H3511 H 1.00047 0.23016 0.20681 0.0
H3512 H 0.2232 0.24461 0.21041 0.0
H3513 H 0.14392 0.24774 0.21017 0.0
H3514 H 0.08563 0.26396 0.18362 0.0
C3515 C 0.92574 0.24764 0.18639 0.0
C3516 C 1.01865 0.23776 0.20176 0.0
C3517 C 0.88014 0.2486 0.1861 0.0
C3518 C 0.20655 0.24439 0.20392 0.0
C3519 C 0.16102 0.24596 0.20379 0.0
C3520 C 0.06743 0.25642 0.18869 0.0
C3521 C 0.94813 0.24845 0.19472 0.0
C3522 C 0.99678 0.24777 0.195 0.0
C3523 C 0.13789 0.24525 0.19555 0.0
C3524 C 0.08929 0.24632 0.19542 0.0
H3525 H 0.86025 0.25228 0.2088 0.0
H3526 H 0.9398 0.25086 0.2093 0.0
H3527 H 1.0061 0.26526 0.18327 0.0
H3528 H 0.2242 0.23992 0.18117 0.0
H3529 H 0.1448 0.24245 0.18095 0.0
C3530 C 0.41257 0.97567 0.18584 0.0
C3531 C 0.43869 0.98051 0.19333 0.0
C3532 C 0.36704 0.97705 0.18627 0.0
C3533 C 0.27739 -0.00053 0.19904 0.0
H3534 H 0.2061 0.96168 0.1881 0.0
C3535 C 0.09035 -0.00355 0.20426 0.0
C3536 C 0.06429 -0.00812 0.19673 0.0
C3537 C 0.13585 -0.00512 0.20387 0.0
C3538 C 0.22548 0.97246 0.19111 0.0
H3539 H 0.43698 -0.0092 0.20713 0.0
H3540 H 0.35759 -0.0071 0.20794 0.0
H3541 H 0.28544 0.9594 0.18741 0.0
H3542 H 0.06602 0.9818 0.18289 0.0
H3543 H 0.1454 0.97932 0.18215 0.0
H3544 H 0.21743 0.01253 0.20274 0.0
C3545 C 0.37239 0.98821 0.20169 0.0
C3546 C 0.27105 0.97116 0.19071 0.0
C3547 C 0.41797 0.98681 0.20126 0.0
C3548 C 0.08501 0.98559 0.1888 0.0
C3549 C 0.13057 0.98398 0.18841 0.0
C3550 C 0.23182 0.00077 0.19945 0.0
C3551 C 0.34628 0.9833 0.19421 0.0
C3552 C 0.29766 0.98465 0.19467 0.0
C3553 C 0.15662 0.98869 0.19593 0.0
C3554 C 0.20522 0.98728 0.19548 0.0
H3555 H 0.42724 0.97053 0.17966 0.0
H3556 H 0.34811 0.97334 0.18034 0.0
H3557 H 0.29674 0.01027 0.20204 0.0
H3558 H 0.07566 0.00157 0.21045 0.0
H3559 H 0.15475 -0.00157 0.20983 0.0
C3560 C 0.83487 -0.00626 0.95359 0.0
C3561 C 0.81175 0.98895 0.94568 0.0
C3562 C 0.88041 -0.00465 0.95345 0.0
C3563 C 0.97477 0.00155 0.93797 0.0
H3564 H 0.04114 0.98142 0.95804 0.0
C3565 C 0.16283 -0.00539 0.93666 0.0
C3566 C 0.18639 -0.00106 0.94457 0.0
C3567 C 0.11724 -0.00667 0.93683 0.0
C3568 C 0.02314 0.9873 0.95243 0.0
H3569 H 0.81854 0.98258 0.93137 0.0
H3570 H 0.89794 0.98521 0.93116 0.0
H3571 H 0.96164 0.97983 0.95825 0.0
H3572 H 0.1802 0.00492 0.95894 0.0
H3573 H 0.10073 0.00294 0.95922 0.0
H3574 H 0.03625 0.00903 0.93214 0.0
C3575 C 0.88084 0.98781 0.93746 0.0
C3576 C 0.97748 0.9864 0.95255 0.0
C3577 C 0.83531 0.98612 0.9376 0.0
C3578 C 0.16314 0.00172 0.9527 0.0
C3579 C 0.11754 0.00041 0.95288 0.0
C3580 C 0.02042 0.00247 0.93785 0.0
C3581 C 0.90404 -0.00771 0.9454 0.0
C3582 C 0.95268 -0.00651 0.94532 0.0
C3583 C 0.09394 -0.00369 0.94493 0.0
C3584 C 0.04525 -0.00467 0.94507 0.0
H3585 H 0.81786 -0.00416 0.95995 0.0
H3586 H 0.89712 -0.00097 0.95967 0.0
H3587 H 0.95674 0.00739 0.93235 0.0
H3588 H 0.17955 -0.00742 0.93026 0.0
H3589 H 0.10025 0.98993 0.93061 0.0
C3590 C 0.95344 0.74233 0.93643 0.0
C3591 C 0.97708 0.74009 0.94454 0.0
C3592 C 0.90791 0.74066 0.93633 0.0
C3593 C 0.81147 0.74324 0.95142 0.0
H3594 H 0.75237 0.71913 0.93146 0.0
C3595 C 0.62577 0.72804 0.95191 0.0
C3596 C 0.60244 0.73026 0.94375 0.0
C3597 C 0.67138 0.72933 0.95205 0.0
C3598 C 0.76829 0.72611 0.93704 0.0
H3599 H 0.9711 0.73427 0.95893 0.0
H3600 H 0.89185 0.73108 0.95873 0.0
H3601 H 0.83189 0.72074 0.93161 0.0
H3602 H 0.60913 0.73558 0.92933 0.0
H3603 H 0.68845 0.73818 0.9296 0.0
H3604 H 0.7479 0.74866 0.95684 0.0
C3605 C 0.9085 0.73429 0.95245 0.0
C3606 C 0.81395 0.72701 0.93712 0.0
C3607 C 0.95404 0.7359 0.95254 0.0
C3608 C 0.62592 0.734 0.93575 0.0
C3609 C 0.67152 0.73525 0.93589 0.0
C3610 C 0.76581 0.74235 0.95133 0.0
C3611 C 0.88479 0.73677 0.94435 0.0
C3612 C 0.83615 0.7356 0.94431 0.0
C3613 C 0.6949 0.73283 0.94403 0.0
C3614 C 0.74359 0.73379 0.94413 0.0
H3615 H 0.97015 0.74541 0.93013 0.0
H3616 H 0.89075 0.74279 0.92999 0.0
H3617 H 0.82741 0.75022 0.95699 0.0
H3618 H 0.60877 0.72531 0.95821 0.0
H3619 H 0.68826 0.72724 0.95843 0.0
C3620 C 0.15635 0.72885 0.83321 0.0
C3621 C 0.18174 0.73152 0.82536 0.0
C3622 C 0.11081 0.72993 0.83283 0.0
C3623 C 1.01777 0.72701 0.81685 0.0
H3624 H 0.95421 0.7507 0.83634 0.0
C3625 C 0.83271 0.74243 0.81462 0.0
C3626 C 0.80749 0.7402 0.82253 0.0
C3627 C 0.87822 0.74096 0.81494 0.0
C3628 C 0.97138 0.74383 0.83089 0.0
H3629 H 0.17885 0.73769 0.81097 0.0
H3630 H 0.09935 0.73958 0.81031 0.0
H3631 H 0.03364 0.7493 0.83691 0.0
H3632 H 0.81052 0.73422 0.83693 0.0
H3633 H 0.8899 0.7316 0.83749 0.0
H3634 H 0.95547 0.72154 0.81084 0.0
C3635 C 0.11473 0.7364 0.81674 0.0
C3636 C 1.01698 0.74305 0.83121 0.0
C3637 C 0.16033 0.73534 0.81712 0.0
C3638 C 0.82896 0.73626 0.83074 0.0
C3639 C 0.87449 0.73479 0.83106 0.0
C3640 C 0.97214 0.72779 0.81653 0.0
C3641 C 0.08937 0.73368 0.82459 0.0
C3642 C 0.04079 0.73463 0.8242 0.0
C3643 C 0.89975 0.73724 0.82317 0.0
C3644 C 0.94834 0.73621 0.82355 0.0
H3645 H 0.17162 0.72553 0.83964 0.0
H3646 H 0.09233 0.72745 0.83898 0.0
H3647 H 0.03498 0.72017 0.81141 0.0
H3648 H 0.81738 0.74578 0.8082 0.0
H3649 H 0.89661 0.7432 0.80876 0.0
C3650 C 0.62364 0.9872 0.83193 0.0
C3651 C 0.60122 0.00054 0.82688 0.0
C3652 C 0.6692 0.98589 0.83153 0.0
C3653 C 0.76785 0.01276 0.82573 0.0
H3654 H 0.82448 0.96544 0.8255 0.0
C3655 C 0.95378 0.00407 0.81965 0.0
C3656 C 0.97584 -0.00924 0.8248 0.0
C3657 C 0.90821 0.00548 0.81998 0.0
C3658 C 0.80924 0.97877 0.82567 0.0
H3659 H 0.6095 0.02296 0.81742 0.0
H3660 H 0.68879 0.02046 0.81659 0.0
H3661 H 0.74502 0.96724 0.82573 0.0
H3662 H 0.96695 0.96851 0.83433 0.0
H3663 H 0.88769 0.97118 0.83502 0.0
H3664 H 0.8321 0.02429 0.82566 0.0
C3665 C 0.67115 0.01112 0.82095 0.0
C3666 C 0.76361 0.9798 0.8258 0.0
C3667 C 0.62557 0.0124 0.82133 0.0
C3668 C 0.95115 0.97904 0.83035 0.0
C3669 C 0.90559 0.98042 0.83066 0.0
C3670 C 0.81349 0.01173 0.8256 0.0
C3671 C 0.69361 -0.00208 0.82608 0.0
C3672 C 0.74227 -0.00319 0.82584 0.0
C3673 C 0.88347 -0.00642 0.82543 0.0
C3674 C 0.83481 -0.00528 0.82558 0.0
H3675 H 0.60595 0.97773 0.83621 0.0
H3676 H 0.68534 0.97566 0.83564 0.0
H3677 H 0.75261 0.02609 0.82591 0.0
H3678 H 0.97175 0.01342 0.81536 0.0
H3679 H 0.89231 0.01569 0.81581 0.0
C3680 C 0.01938 0.49567 0.04499 0.0
C3681 C 0.03749 0.47944 0.04841 0.0
C3682 C 1.01287 0.49795 0.03564 0.0
C3683 C 1.00499 0.4724 0.01384 0.0
H3684 H 0.03407 0.5192 1.00317 0.0
C3685 C 1.01135 0.48312 0.97485 0.0
C3686 C 0.99323 0.49939 0.97148 0.0
C3687 C 1.01758 0.4807 0.98421 0.0
C3688 C 0.02536 0.50609 1.00604 0.0
H3689 H 0.06194 0.4527 0.04472 0.0
H3690 H 0.05093 0.45668 0.02843 0.0
H3691 H 0.04123 0.51487 0.01951 0.0
H3692 H 0.96833 0.52602 0.97525 0.0
H3693 H 0.97892 0.5218 0.99153 0.0
H3694 H 0.98916 0.46363 1.00036 0.0
C3695 C 0.04137 0.46763 0.03295 0.0
C3696 C 0.02939 0.50361 0.01543 0.0
C3697 C 0.04788 0.46537 0.0423 0.0
C3698 C 0.98241 0.51333 0.97764 0.0
C3699 C 0.98869 0.51093 0.98698 0.0
C3700 C 1.00097 0.47488 1.00444 0.0
C3701 C 0.02424 0.48403 0.02948 0.0
C3702 C 0.01924 0.48674 0.01947 0.0
C3703 C 1.00597 0.49452 0.99041 0.0
C3704 C 1.01107 0.49177 1.00041 0.0
H3705 H 1.01085 0.50674 0.04954 0.0
H3706 H 0.99893 0.51065 0.03323 0.0
H3707 H 0.99628 0.45929 0.01671 0.0
H3708 H 0.02016 0.47216 0.97027 0.0
H3709 H 0.03159 0.468 0.98659 0.0
C3710 C 0.29547 0.71541 0.97712 0.0
C3711 C 0.28613 0.72963 0.97102 0.0
C3712 C 0.2892 0.71773 0.98647 0.0
C3713 C 0.23258 0.74656 1.00357 0.0
H3714 H 0.32114 0.72753 0.01985 0.0
C3715 C 0.23301 0.76388 0.0419 0.0
C3716 C 0.24317 0.74978 0.04801 0.0
C3717 C 0.2389 0.76152 0.03255 0.0
C3718 C 0.29582 0.73276 0.01543 0.0
H3719 H 0.26177 0.75729 0.96991 0.0
H3720 H 0.25092 0.76142 0.98624 0.0
H3721 H 0.32863 0.72307 1.00353 0.0
H3722 H 0.2684 0.72225 0.04912 0.0
H3723 H 0.27843 0.71802 0.03278 0.0
H3724 H 0.19973 0.75622 0.01547 0.0
C3725 C 0.26288 0.7484 0.9838 0.0
C3726 C 0.3001 0.73019 1.00604 0.0
C3727 C 0.26923 0.74607 0.97444 0.0
C3728 C 0.26032 0.73338 0.04458 0.0
C3729 C 0.26622 0.73101 0.03521 0.0
C3730 C 0.22828 0.74911 0.01296 0.0
C3731 C 0.27333 0.73434 0.98996 0.0
C3732 C 0.26854 0.73704 0.99998 0.0
C3733 C 0.25514 0.74498 0.02905 0.0
C3734 C 0.25986 0.74227 0.01903 0.0
H3735 H 0.30833 0.70253 0.97469 0.0
H3736 H 0.29683 0.70648 0.99097 0.0
H3737 H 0.2073 0.7518 0.99914 0.0
H3738 H 0.21996 0.77672 0.04434 0.0
H3739 H 0.23078 0.77272 0.02805 0.0
C3740 C 1.01541 0.73944 0.29471 0.0
C3741 C 0.97654 0.73063 0.29721 0.0
C3742 C 0.02628 0.7416 0.2855 0.0
C3743 C 0.97681 0.74166 0.2624 0.0
H3744 H 0.0961 0.73487 0.25433 0.0
C3745 C 0.02383 0.73941 0.22416 0.0
C3746 C 0.06285 0.7481 0.22165 0.0
C3747 C 1.01301 0.73723 0.23336 0.0
C3748 C 0.06267 0.73702 0.25647 0.0
H3749 H 0.91867 0.71713 0.29207 0.0
H3750 H 0.93766 0.72069 0.27611 0.0
H3751 H 0.0784 0.73151 0.27039 0.0
H3752 H 0.12105 0.76135 0.22679 0.0
H3753 H 0.10213 0.75778 0.24275 0.0
H3754 H 0.96107 0.74719 0.24849 0.0
C3755 C 0.9596 0.72618 0.28119 0.0
C3756 C 0.05254 0.73511 0.2657 0.0
C3757 C 0.94884 0.72402 0.29035 0.0
C3758 C 0.09076 0.75456 0.22851 0.0
C3759 C 0.08003 0.75239 0.23767 0.0
C3760 C 0.98695 0.74359 0.25317 0.0
C3761 C 0.99839 0.73504 0.27862 0.0
C3762 C 1.00945 0.73738 0.2688 0.0
C3763 C 0.04108 0.74365 0.24025 0.0
C3764 C 0.03003 0.74131 0.25007 0.0
H3765 H 0.03716 0.74483 0.29984 0.0
H3766 H 0.05618 0.74868 0.28379 0.0
H3767 H 0.94338 0.7438 0.26454 0.0
H3768 H 1.00193 0.73413 0.21903 0.0
H3769 H 0.983 0.73023 0.23508 0.0
C3770 C 0.26967 0.49729 0.22445 0.0
C3771 C 0.25292 0.4809 0.22094 0.0
C3772 C 0.27598 0.49943 0.23382 0.0
C3773 C 0.28545 0.47338 0.25548 0.0
H3774 H 0.2527 0.51949 0.26645 0.0
C3775 C 0.27653 0.48285 0.29454 0.0
C3776 C 0.29366 0.49917 0.29805 0.0
C3777 C 0.27081 0.48064 0.28515 0.0
C3778 C 0.26241 0.50657 0.26349 0.0
H3779 H 0.23071 0.45374 0.22448 0.0
H3780 H 0.24129 0.45748 0.24077 0.0
H3781 H 0.24644 0.51557 0.25006 0.0
H3782 H 0.31729 0.52612 0.2945 0.0
H3783 H 0.30754 0.52228 0.27818 0.0
H3784 H 0.30128 0.46438 0.26893 0.0
C3785 C 0.24999 0.46866 0.23632 0.0
C3786 C 0.25893 0.50434 0.25407 0.0
C3787 C 0.24371 0.46654 0.22697 0.0
C3788 C 0.30398 0.51337 0.29201 0.0
C3789 C 0.29818 0.5112 0.28264 0.0
C3790 C 0.28888 0.47561 0.2649 0.0
C3791 C 0.26574 0.48521 0.2399 0.0
C3792 C 0.2704 0.48771 0.24993 0.0
C3793 C 0.28192 0.49474 0.27907 0.0
C3794 C 0.27742 0.49224 0.26904 0.0
H3795 H 0.27724 0.50858 0.21997 0.0
H3796 H 0.28883 0.51225 0.2363 0.0
H3797 H 0.29519 0.46047 0.25253 0.0
H3798 H 0.26814 0.47168 0.29903 0.0
H3799 H 0.25761 0.46788 0.28266 0.0
C3800 C 0.77512 0.24543 0.9745 0.0
C3801 C 0.79441 0.22935 0.97119 0.0
C3802 C 0.76797 0.24778 0.98383 0.0
C3803 C 0.80571 0.23082 1.00627 0.0
H3804 H 0.70107 0.25458 0.01517 0.0
C3805 C 0.76149 0.23369 0.0446 0.0
C3806 C 0.74224 0.2498 0.04788 0.0
C3807 C 0.76859 0.23127 0.03527 0.0
C3808 C 0.73076 0.24811 0.01281 0.0
H3809 H 0.82025 0.20293 0.97504 0.0
H3810 H 0.80735 0.20689 0.99127 0.0
H3811 H 0.71077 0.25005 0.99889 0.0
H3812 H 0.71643 0.27621 0.04399 0.0
H3813 H 0.72923 0.27212 0.02776 0.0
H3814 H 0.8257 0.22888 0.02018 0.0
C3815 C 0.79843 0.21785 0.9867 0.0
C3816 C 0.7363 0.2455 1.00345 0.0
C3817 C 0.80553 0.21552 0.97738 0.0
C3818 C 0.73111 0.26359 0.04166 0.0
C3819 C 0.73816 0.26118 0.03235 0.0
C3820 C 0.80017 0.23343 0.01562 0.0
C3821 C 0.77995 0.23409 0.99007 0.0
C3822 C 0.77385 0.23681 1.00005 0.0
C3823 C 0.75658 0.24491 0.029 0.0
C3824 C 0.76263 0.24213 0.01903 0.0
H3825 H 0.76623 0.25635 0.96989 0.0
H3826 H 0.75403 0.26052 0.98617 0.0
H3827 H 0.8354 0.22435 1.00391 0.0
H3828 H 0.7704 0.22281 0.04922 0.0
H3829 H 0.7825 0.21851 0.03295 0.0
C3830 C 1.00751 0.2479 0.79429 0.0
C3831 C 0.98941 0.23164 0.79766 0.0
C3832 C 1.01379 0.25032 0.78494 0.0
C3833 C 0.97569 0.23275 0.7626 0.0
H3834 H 0.07779 0.25783 0.75336 0.0
C3835 C 1.01862 0.23528 0.72419 0.0
C3836 C 0.03624 0.2516 0.72078 0.0
C3837 C 1.01182 0.23304 0.73354 0.0
C3838 C 0.04879 0.25099 0.75582 0.0
H3839 H 0.96489 0.20496 0.79389 0.0
H3840 H 0.9764 0.20904 0.77762 0.0
H3841 H 0.06939 0.25341 0.76967 0.0
H3842 H 0.05931 0.27856 0.72446 0.0
H3843 H 0.04708 0.27474 0.74072 0.0
H3844 H 0.95518 0.23028 0.74874 0.0
C3845 C 0.98496 0.2201 0.78216 0.0
C3846 C 0.04398 0.24844 0.7652 0.0
C3847 C 0.97867 0.2177 0.7915 0.0
C3848 C 0.0459 0.26578 0.72688 0.0
C3849 C 0.0392 0.26353 0.73622 0.0
C3850 C 0.98053 0.23528 0.75322 0.0
C3851 C 1.00217 0.23652 0.77873 0.0
C3852 C 1.00738 0.23927 0.76872 0.0
C3853 C 0.02253 0.24706 0.7397 0.0
C3854 C 1.01714 0.24443 0.7497 0.0
H3855 H 1.01607 0.2589 0.79887 0.0
H3856 H 0.02677 0.26321 0.78256 0.0
H3857 H 0.94667 0.22592 0.76505 0.0
H3858 H 1.01088 0.22411 0.71965 0.0
H3859 H 0.99925 0.22012 0.73596 0.0
C3860 C 0.77087 0.48604 0.79501 0.0
C3861 C 0.7896 0.50218 0.79838 0.0
C3862 C 0.76365 0.48382 0.78567 0.0
C3863 C 0.80074 0.50131 0.76331 0.0
H3864 H 0.69714 0.47694 0.75431 0.0
C3865 C 0.75764 0.49797 0.72491 0.0
C3866 C 0.73901 0.48173 0.72165 0.0
C3867 C 0.76437 0.50052 0.73425 0.0
C3868 C 0.72655 0.48359 0.7567 0.0
H3869 H 0.81427 0.52885 0.79464 0.0
H3870 H 0.80126 0.5251 0.7784 0.0
H3871 H 0.70644 0.48146 0.77059 0.0
H3872 H 0.71398 0.45523 0.72557 0.0
H3873 H 0.72619 0.45953 0.7418 0.0
H3874 H 0.82089 0.5034 0.74942 0.0
C3875 C 0.79283 0.514 0.78292 0.0
C3876 C 0.73185 0.48619 0.76606 0.0
C3877 C 0.79999 0.51621 0.79225 0.0
C3878 C 0.72816 0.46795 0.72788 0.0
C3879 C 0.73487 0.47048 0.7372 0.0
C3880 C 0.79544 0.4987 0.75395 0.0
C3881 C 0.77501 0.4977 0.77949 0.0
C3882 C 0.76904 0.49508 0.7695 0.0
C3883 C 0.75264 0.48687 0.74053 0.0
C3884 C 0.75831 0.48976 0.75051 0.0
H3885 H 0.76255 0.47497 0.79957 0.0
H3886 H 0.75022 0.47103 0.78329 0.0
H3887 H 0.83016 0.50794 0.76571 0.0
H3888 H 0.7663 0.50886 0.72027 0.0
H3889 H 0.77779 0.51338 0.73655 0.0
C3890 C 1.01821 -0.00273 0.54588 0.0
C3891 C 0.03566 0.98083 0.54919 0.0
C3892 C 1.01135 -0.00025 0.53655 0.0
C3893 C 1.00154 0.97447 0.51467 0.0
H3894 H 0.03167 0.02119 0.50404 0.0
C3895 C 1.00873 0.98519 0.47572 0.0
C3896 C 0.99071 0.00146 0.47232 0.0
C3897 C 1.0148 0.98279 0.48508 0.0
C3898 C 0.02268 0.00811 0.5069 0.0
H3899 H 0.05861 0.95394 0.54535 0.0
H3900 H 0.04708 0.95828 0.52911 0.0
H3901 H 0.03902 0.01672 0.52038 0.0
H3902 H 0.96589 0.02812 0.47605 0.0
H3903 H 0.97629 0.02394 0.49235 0.0
H3904 H 0.98538 0.96583 0.50119 0.0
C3905 C 0.03823 0.96924 0.53369 0.0
C3906 C 0.0268 0.00555 0.51629 0.0
C3907 C 0.04506 0.96677 0.54301 0.0
C3908 C 0.97987 0.01543 0.47846 0.0
C3909 C 0.98604 0.01305 0.48781 0.0
C3910 C 0.9975 0.97701 0.50528 0.0
C3911 C 0.02171 0.98583 0.53031 0.0
C3912 C 1.01632 0.98869 0.52031 0.0
C3913 C 1.00316 -0.00337 0.49126 0.0
C3914 C 1.00804 -0.00614 0.50126 0.0
H3915 H 1.01048 0.00833 0.55049 0.0
H3916 H 0.99791 0.0126 0.53422 0.0
H3917 H 0.99251 0.96138 0.51752 0.0
H3918 H 1.01756 0.9742 0.47115 0.0
H3919 H 0.02869 0.97008 0.48747 0.0
C3920 C 0.29764 0.21709 0.47718 0.0
C3921 C 0.28824 0.23133 0.4711 0.0
C3922 C 0.29185 0.21943 0.48654 0.0
C3923 C 0.23647 0.24834 0.50375 0.0
H3924 H 0.32544 0.22899 0.51984 0.0
C3925 C 0.23822 0.26512 0.54212 0.0
C3926 C 0.24802 0.25083 0.54815 0.0
C3927 C 0.24405 0.26294 0.53275 0.0
C3928 C 0.30003 0.23431 0.51547 0.0
H3929 H 0.26428 0.25907 0.47003 0.0
H3930 H 0.25429 0.26323 0.48638 0.0
H3931 H 0.33227 0.22467 0.50349 0.0
H3932 H 0.27269 0.22319 0.54911 0.0
H3933 H 0.28264 0.21928 0.53276 0.0
H3934 H 0.20419 0.25796 0.51572 0.0
C3935 C 0.26592 0.25018 0.48393 0.0
C3936 C 0.30392 0.23183 0.50607 0.0
C3937 C 0.27177 0.24783 0.47455 0.0
C3938 C 0.26488 0.23446 0.54464 0.0
C3939 C 0.27072 0.23226 0.53525 0.0
C3940 C 0.23256 0.25082 0.51315 0.0
C3941 C 0.27644 0.23608 0.49006 0.0
C3942 C 0.27216 0.23878 0.50008 0.0
C3943 C 0.25988 0.2464 0.52917 0.0
C3944 C 0.26429 0.24384 0.51914 0.0
H3945 H 0.31015 0.20417 0.47473 0.0
H3946 H 0.29949 0.20815 0.49102 0.0
H3947 H 0.21107 0.25366 0.49937 0.0
H3948 H 0.2254 0.27795 0.54462 0.0
H3949 H 0.23612 0.27424 0.52831 0.0
C3950 C 0.29907 0.01581 0.79314 0.0
C3951 C 0.28846 0.00177 0.79925 0.0
C3952 C 0.29263 0.01354 0.7838 0.0
C3953 C 0.23342 0.98554 0.76675 0.0
H3954 H 0.3235 0.003 0.75042 0.0
C3955 C 0.23256 0.96766 0.72851 0.0
C3956 C 0.24361 0.98156 0.72236 0.0
C3957 C 0.23867 0.97006 0.73785 0.0
C3958 C 0.29778 -0.00179 0.75486 0.0
H3959 H 0.26172 0.97451 0.80039 0.0
H3960 H 0.25063 0.97047 0.78407 0.0
H3961 H 0.33147 0.0075 0.76674 0.0
H3962 H 0.27067 0.00876 0.72116 0.0
H3963 H 0.28112 0.01306 0.73748 0.0
H3964 H 0.19972 0.97625 0.75488 0.0
C3965 C 0.2637 0.9833 0.78649 0.0
C3966 C 0.30233 0.00081 0.76424 0.0
C3967 C 0.2702 0.98558 0.79584 0.0
C3968 C 0.26187 -0.00221 0.72573 0.0
C3969 C 0.26801 0.00021 0.73509 0.0
C3970 C 0.22887 0.98295 0.75737 0.0
C3971 C 0.27533 -0.00282 0.78032 0.0
C3972 C 0.27022 -0.00549 0.77032 0.0
C3973 C 0.25604 0.98645 0.74129 0.0
C3974 C 0.261 0.98923 0.7513 0.0
H3975 H 0.31299 0.02849 0.79557 0.0
H3976 H 0.30123 0.02465 0.77929 0.0
H3977 H 0.20773 0.98074 0.7712 0.0
H3978 H 0.21864 0.95495 0.72611 0.0
H3979 H 0.22982 0.95904 0.74239 0.0
C3980 C 0.77252 0.74726 0.47362 0.0
C3981 C 0.79115 0.73113 0.47021 0.0
C3982 C 0.76588 0.74948 0.48298 0.0
C3983 C 0.80417 0.73189 0.50527 0.0
H3984 H 0.70097 0.75623 0.51451 0.0
C3985 C 0.76197 0.73443 0.54372 0.0
C3986 C 0.74351 0.75062 0.5471 0.0
C3987 C 0.76855 0.73213 0.53436 0.0
C3988 C 0.73027 0.7496 0.51205 0.0
H3989 H 0.81629 0.7045 0.47389 0.0
H3990 H 0.80427 0.70824 0.49017 0.0
H3991 H 0.70964 0.75191 0.49819 0.0
H3992 H 0.71861 0.77727 0.54337 0.0
H3993 H 0.73051 0.77337 0.5271 0.0
H3994 H 0.82479 0.72958 0.51913 0.0
C3995 C 0.79549 0.71934 0.48566 0.0
C3996 C 0.73522 0.7471 0.50267 0.0
C3997 C 0.80208 0.71713 0.47632 0.0
C3998 C 0.73268 0.76459 0.54097 0.0
C3999 C 0.73921 0.76229 0.53163 0.0
C4000 C 0.79921 0.73438 0.51465 0.0
C4001 C 0.77772 0.73562 0.48914 0.0
C4002 C 0.77224 0.73821 0.49915 0.0
C4003 C 0.7568 0.74595 0.52818 0.0
C4004 C 0.76221 0.74329 0.51817 0.0
H4005 H 0.76379 0.75831 0.46908 0.0
H4006 H 0.75249 0.76226 0.4854 0.0
H4007 H 0.83347 0.72526 0.50282 0.0
H4008 H 0.77062 0.72341 0.54828 0.0
H4009 H 0.78183 0.71931 0.53197 0.0
C4010 C 0.74299 0.96571 0.22774 0.0
C4011 C 0.75264 0.97998 0.22169 0.0
C4012 C 0.74964 0.9678 0.23708 0.0
C4013 C 0.76087 0.00343 0.25481 0.0
H4014 H 0.80296 0.96329 0.26957 0.0
C4015 C 0.80955 0.0125 0.29253 0.0
C4016 C 0.79933 -0.00158 0.29864 0.0
C4017 C 0.80282 0.01026 0.28319 0.0
C4018 C 0.79063 0.97457 0.26557 0.0
H4019 H 0.77805 0.00749 0.22068 0.0
H4020 H 0.79026 0.01111 0.23699 0.0
H4021 H 0.79541 0.95933 0.2532 0.0
H4022 H 0.77303 0.97108 0.2998 0.0
H4023 H 0.76086 0.96718 0.28348 0.0
H4024 H 0.75616 0.01868 0.26717 0.0
C4025 C 0.77678 -0.00162 0.23453 0.0
C4026 C 0.78636 0.97231 0.25617 0.0
C4027 C 0.77011 -0.00373 0.22517 0.0
C4028 C 0.78137 0.98216 0.29524 0.0
C4029 C 0.77471 0.97989 0.28589 0.0
C4030 C 0.76516 0.00569 0.26421 0.0
C4031 C 0.7662 0.98424 0.24063 0.0
C4032 C 0.77145 0.98671 0.25065 0.0
C4033 C 0.78569 -0.00613 0.27973 0.0
C4034 C 0.78014 -0.00869 0.26973 0.0
H4035 H 0.72943 0.95299 0.22526 0.0
H4036 H 0.74067 0.95668 0.24155 0.0
H4037 H 0.74851 0.01472 0.25082 0.0
H4038 H 0.82348 0.02519 0.29494 0.0
H4039 H 0.81213 0.02124 0.27867 0.0
C4040 C 0.52925 0.49688 0.54463 0.0
C4041 C 0.54714 0.48054 0.54796 0.0
C4042 C 0.52299 0.49938 0.53527 0.0
C4043 C 0.51448 0.47417 0.51341 0.0
H4044 H 0.54456 0.52092 0.5028 0.0
C4045 C 0.51959 0.48488 0.47445 0.0
C4046 C 0.50199 0.50126 0.4711 0.0
C4047 C 0.52631 0.48248 0.48379 0.0
C4048 C 0.53556 0.50783 0.50565 0.0
H4049 H 0.57157 0.45387 0.54415 0.0
H4050 H 0.56089 0.45822 0.52788 0.0
H4051 H 0.55178 0.51644 0.51914 0.0
H4052 H 0.47868 0.52812 0.47488 0.0
H4053 H 0.49003 0.52393 0.49113 0.0
H4054 H 0.49816 0.46557 0.49993 0.0
C4055 C 0.55135 0.46909 0.53245 0.0
C4056 C 0.53964 0.50527 0.51504 0.0
C4057 C 0.55768 0.46661 0.54179 0.0
C4058 C 0.49234 0.51535 0.47725 0.0
C4059 C 0.49905 0.51296 0.48658 0.0
C4060 C 0.51036 0.47674 0.50402 0.0
C4061 C 0.53431 0.48557 0.52905 0.0
C4062 C 0.52918 0.4884 0.51905 0.0
C4063 C 0.51566 0.49641 0.49 0.0
C4064 C 0.52085 0.4936 0.5 0.0
H4065 H 0.52066 0.50784 0.54923 0.0
H4066 H 0.50918 0.51214 0.53292 0.0
H4067 H 0.50551 0.46108 0.51626 0.0
H4068 H 0.52752 0.47379 0.46987 0.0
H4069 H 0.53984 0.46967 0.48615 0.0
C4070 C 0.51182 0.74798 0.7939 0.0
C4071 C 0.4939 0.73167 0.79725 0.0
C4072 C 0.51815 0.75043 0.78455 0.0
C4073 C 0.48016 0.73295 0.7622 0.0
H4074 H 0.58222 0.75807 0.75298 0.0
C4075 C 0.52246 0.73576 0.72378 0.0
C4076 C 0.54038 0.75204 0.72038 0.0
C4077 C 0.51576 0.73347 0.73313 0.0
C4078 C 0.55322 0.75122 0.75543 0.0
H4079 H 0.46975 0.70494 0.79347 0.0
H4080 H 0.48129 0.70908 0.7772 0.0
H4081 H 0.57391 0.75355 0.76929 0.0
H4082 H 0.56409 0.77887 0.72409 0.0
H4083 H 0.55197 0.775 0.74036 0.0
H4084 H 0.45951 0.7306 0.74835 0.0
C4085 C 0.48971 0.72015 0.78175 0.0
C4086 C 0.54848 0.74861 0.76481 0.0
C4087 C 0.4834 0.71771 0.79109 0.0
C4088 C 0.55044 0.76613 0.7265 0.0
C4089 C 0.5438 0.76385 0.73584 0.0
C4090 C 0.48491 0.73555 0.75283 0.0
C4091 C 0.50673 0.73661 0.77833 0.0
C4092 C 0.5119 0.73941 0.76833 0.0
C4093 C 0.52684 0.74741 0.73931 0.0
C4094 C 0.52151 0.74473 0.74931 0.0
H4095 H 0.52019 0.75899 0.79849 0.0
H4096 H 0.53098 0.76334 0.78218 0.0
H4097 H 0.45116 0.72609 0.76466 0.0
H4098 H 0.51441 0.72464 0.71923 0.0
H4099 H 0.50298 0.72058 0.73554 0.0
C4100 C 0.49051 0.2151 0.29231 0.0
C4101 C 0.50066 0.22925 0.29839 0.0
C4102 C 0.49661 0.21736 0.28295 0.0
C4103 C 0.554 0.24581 0.26581 0.0
H4104 H 0.46469 0.22732 0.24956 0.0
C4105 C 0.55269 0.26379 0.2276 0.0
C4106 C 0.54268 0.24976 0.22144 0.0
C4107 C 0.54686 0.26127 0.23695 0.0
C4108 C 0.49019 0.2324 0.25398 0.0
H4109 H 0.5262 0.25673 0.29946 0.0
H4110 H 0.53664 0.26076 0.28312 0.0
H4111 H 0.45732 0.22282 0.2659 0.0
H4112 H 0.51767 0.22223 0.22022 0.0
H4113 H 0.50763 0.21774 0.23655 0.0
H4114 H 0.58683 0.25542 0.2539 0.0
C4115 C 0.52424 0.24784 0.28557 0.0
C4116 C 0.486 0.2298 0.26337 0.0
C4117 C 0.51811 0.24556 0.29494 0.0
C4118 C 0.52565 0.2333 0.2248 0.0
C4119 C 0.51976 0.23077 0.23416 0.0
C4120 C 0.55818 0.24841 0.25643 0.0
C4121 C 0.51307 0.23383 0.27944 0.0
C4122 C 0.51783 0.23648 0.26942 0.0
C4123 C 0.53081 0.24465 0.24037 0.0
C4124 C 0.5263 0.24178 0.25038 0.0
H4125 H 0.47722 0.20232 0.29476 0.0
H4126 H 0.48841 0.20616 0.27847 0.0
H4127 H 0.5795 0.2509 0.27023 0.0
H4128 H 0.56564 0.27668 0.22522 0.0
H4129 H 0.55493 0.27238 0.24149 0.0
C4130 C 0.54672 0.96555 0.04303 0.0
C4131 C 0.5376 0.97985 0.0491 0.0
C4132 C 0.54103 0.96788 0.03367 0.0
C4133 C 0.53442 0.00389 0.01605 0.0
H4134 H 0.49081 0.96455 1.00097 0.0
C4135 C 0.49134 0.01385 0.97805 0.0
C4136 C 0.50069 -0.00045 0.972 0.0
C4137 C 0.49696 0.01155 0.98742 0.0
C4138 C 0.5036 0.9756 1.00506 0.0
H4139 H 0.51411 0.00766 0.05014 0.0
H4140 H 0.50362 0.01171 0.03379 0.0
H4141 H 0.49603 0.96032 0.01735 0.0
H4142 H 0.52452 0.97178 0.97099 0.0
H4143 H 0.53485 0.96779 0.98735 0.0
H4144 H 0.54196 0.01917 1.00375 0.0
C4145 C 0.5159 -0.00124 0.03625 0.0
C4146 C 0.50651 0.97319 0.01447 0.0
C4147 C 0.52157 -0.0036 0.04563 0.0
C4148 C 0.51688 0.98303 0.97549 0.0
C4149 C 0.52246 0.98071 0.98487 0.0
C4150 C 0.5315 0.0063 1.00664 0.0
C4151 C 0.52603 0.98459 0.03013 0.0
C4152 C 0.52198 0.98729 0.02011 0.0
C4153 C 0.51211 -0.00512 0.99097 0.0
C4154 C 0.51606 -0.00781 1.001 0.0
H4155 H 0.55917 0.95263 0.0455 0.0
H4156 H 0.54961 0.95672 0.02919 0.0
H4157 H 0.54723 0.01494 0.02014 0.0
H4158 H 0.47877 0.02674 0.97557 0.0
H4159 H 0.48823 0.0227 0.99189 0.0
loop_
_geom_bond_atom_site_label_1
_geom_bond_atom_site_label_2
_geom_bond_distance
_geom_bond_site_symmetry_2
_ccdc_geom_bond_type
Sm0 C2 2.846 . S
Sm0 O20 2.543 . S
Sm0 O21 2.450 . S
Sm0 O22 2.681 1_655 S
Sm0 O23 2.464 . S
Sm0 O24 2.396 . S
Sm0 O28 2.386 1_655 S
Sm0 O31 2.408 1_655 S
Sm1 C11 2.846 . S
Sm1 O22 2.386 . S
Sm1 O25 2.408 . S
Sm1 O26 2.543 . S
Sm1 O27 2.450 . S
Sm1 O28 2.681 . S
Sm1 O29 2.464 . S
Sm1 O30 2.396 . S
C2 Sm0 2.846 . S
C2 C3 1.506 . S
C2 O20 1.261 . S
C2 O21 1.242 . S
C3 C2 1.506 . S
C3 C4 1.358 . S
C3 C8 1.382 . S
C4 C3 1.358 . S
C4 C5 1.385 . S
C4 H32 0.930 . S
C5 C4 1.385 . S
C5 C6 1.395 . S
C5 H33 0.929 . S
C6 C5 1.395 . S
C6 C7 1.335 . S
C7 C6 1.335 . S
C7 C8 1.398 . S
C7 H34 0.930 . S
C8 C3 1.382 . S
C8 C7 1.398 . S
C8 H35 0.929 . S
C9 O22 1.271 . S
C9 O23 1.251 1_455 S
C10 O24 1.252 . S
C10 O25 1.272 1_655 S
C11 Sm1 2.846 . S
C11 C12 1.506 . S
C11 O26 1.261 . S
C11 O27 1.242 . S
C12 C11 1.506 . S
C12 C13 1.358 . S
C12 C17 1.382 . S
C13 C12 1.358 . S
C13 C14 1.385 . S
C13 H36 0.930 . S
C14 C13 1.385 . S
C14 C15 1.395 . S
C14 H37 0.929 . S
C15 C14 1.395 . S
C15 C16 1.335 . S
C16 C15 1.335 . S
C16 C17 1.398 . S
C16 H38 0.930 . S
C17 C12 1.382 . S
C17 C16 1.398 . S
C17 H39 0.929 . S
C18 O28 1.271 . S
C18 O29 1.251 . S
C19 O30 1.252 . S
C19 O31 1.272 . S
O20 Sm0 2.543 . S
O20 C2 1.261 . S
O21 Sm0 2.450 . S
O21 C2 1.242 . S
O22 Sm0 2.681 1_455 S
O22 Sm1 2.386 . S
O22 C9 1.271 . S
O23 Sm0 2.464 . S
O23 C9 1.251 1_655 S
O24 Sm0 2.396 . S
O24 C10 1.252 . S
O25 Sm1 2.408 . S
O25 C10 1.272 1_455 S
O26 Sm1 2.543 . S
O26 C11 1.261 . S
O27 Sm1 2.450 . S
O27 C11 1.242 . S
O28 Sm0 2.386 1_455 S
O28 Sm1 2.681 . S
O28 C18 1.271 . S
O29 Sm1 2.464 . S
O29 C18 1.251 . S
O30 Sm1 2.396 . S
O30 C19 1.252 . S
O31 Sm0 2.408 1_455 S
O31 C19 1.272 . S
H32 C4 0.930 . S
H33 C5 0.929 . S
H34 C7 0.930 . S
H35 C8 0.929 . S
H36 C13 0.930 . S
H37 C14 0.929 . S
H38 C16 0.930 . S
H39 C17 0.929 . S
Sm40 C42 2.846 . S
Sm40 O60 2.543 . S
Sm40 O61 2.450 . S
Sm40 O62 2.681 . S
Sm40 O63 2.464 . S
Sm40 O64 2.396 . S
Sm40 O68 2.386 . S
Sm40 O71 2.408 . S
Sm41 C51 2.846 . S
Sm41 O62 2.386 . S
Sm41 O65 2.408 . S
Sm41 O66 2.543 . S
Sm41 O67 2.450 . S
Sm41 O68 2.681 . S
Sm41 O69 2.464 . S
Sm41 O70 2.396 . S
C42 Sm40 2.846 . S
C42 C43 1.506 . S
C42 O60 1.261 . S
C42 O61 1.242 . S
C43 C42 1.506 . S
C43 C44 1.358 . S
C43 C48 1.382 . S
C44 C43 1.358 . S
C44 C45 1.385 . S
C44 H72 0.930 . S
C45 C44 1.385 . S
C45 C46 1.395 . S
C45 H73 0.929 . S
C46 C45 1.395 . S
C46 C47 1.335 . S
C47 C46 1.335 . S
C47 C48 1.398 . S
C47 H74 0.930 . S
C48 C43 1.382 . S
C48 C47 1.398 . S
C48 H75 0.929 . S
C49 O62 1.271 . S
C49 O63 1.251 . S
C50 O64 1.252 . S
C50 O65 1.272 . S
C51 Sm41 2.846 . S
C51 C52 1.506 . S
C51 O66 1.261 . S
C51 O67 1.242 . S
C52 C51 1.506 . S
C52 C53 1.358 . S
C52 C57 1.382 . S
C53 C52 1.358 . S
C53 C54 1.385 1_455 S
C53 H76 0.930 . S
C54 C53 1.385 1_655 S
C54 C55 1.395 . S
C54 H77 0.929 . S
C55 C54 1.395 . S
C55 C56 1.335 . S
C56 C55 1.335 . S
C56 C57 1.398 1_655 S
C56 H78 0.930 . S
C57 C52 1.382 . S
C57 C56 1.398 1_455 S
C57 H79 0.929 . S
C58 O68 1.271 . S
C58 O69 1.251 . S
C59 O70 1.252 . S
C59 O71 1.272 . S
O60 Sm40 2.543 . S
O60 C42 1.261 . S
O61 Sm40 2.450 . S
O61 C42 1.242 . S
O62 Sm40 2.681 . S
O62 Sm41 2.386 . S
O62 C49 1.271 . S
O63 Sm40 2.464 . S
O63 C49 1.251 . S
O64 Sm40 2.396 . S
O64 C50 1.252 . S
O65 Sm41 2.408 . S
O65 C50 1.272 . S
O66 Sm41 2.543 . S
O66 C51 1.261 . S
O67 Sm41 2.450 . S
O67 C51 1.242 . S
O68 Sm40 2.386 . S
O68 Sm41 2.681 . S
O68 C58 1.271 . S
O69 Sm41 2.464 . S
O69 C58 1.251 . S
O70 Sm41 2.396 . S
O70 C59 1.252 . S
O71 Sm40 2.408 . S
O71 C59 1.272 . S
H72 C44 0.930 . S
H73 C45 0.929 . S
H74 C47 0.930 . S
H75 C48 0.929 . S
H76 C53 0.930 . S
H77 C54 0.929 . S
H78 C56 0.930 . S
H79 C57 0.929 . S
Sm80 C82 2.846 . S
Sm80 O100 2.543 . S
Sm80 O101 2.450 . S
Sm80 O102 2.681 1_655 S
Sm80 O103 2.464 . S
Sm80 O104 2.396 . S
Sm80 O108 2.386 1_655 S
Sm80 O111 2.408 1_655 S
Sm81 C91 2.846 . S
Sm81 O102 2.386 . S
Sm81 O105 2.408 . S
Sm81 O106 2.543 . S
Sm81 O107 2.450 . S
Sm81 O108 2.681 . S
Sm81 O109 2.464 . S
Sm81 O110 2.396 . S
C82 Sm80 2.846 . S
C82 C83 1.506 . S
C82 O100 1.261 . S
C82 O101 1.242 . S
C83 C82 1.506 . S
C83 C84 1.358 . S
C83 C88 1.382 . S
C84 C83 1.358 . S
C84 C85 1.385 . S
C84 H112 0.930 . S
C85 C84 1.385 . S
C85 C86 1.395 . S
C85 H113 0.929 . S
C86 C85 1.395 . S
C86 C87 1.335 . S
C87 C86 1.335 . S
C87 C88 1.398 . S
C87 H114 0.930 . S
C88 C83 1.382 . S
C88 C87 1.398 . S
C88 H115 0.929 . S
C89 O102 1.271 . S
C89 O103 1.251 1_455 S
C90 O104 1.252 . S
C90 O105 1.272 1_655 S
C91 Sm81 2.846 . S
C91 C92 1.506 . S
C91 O106 1.261 . S
C91 O107 1.242 . S
C92 C91 1.506 . S
C92 C93 1.358 . S
C92 C97 1.382 . S
C93 C92 1.358 . S
C93 C94 1.385 . S
C93 H116 0.930 . S
C94 C93 1.385 . S
C94 C95 1.395 . S
C94 H117 0.929 . S
C95 C94 1.395 . S
C95 C96 1.335 . S
C96 C95 1.335 . S
C96 C97 1.398 . S
C96 H118 0.930 . S
C97 C92 1.382 . S
C97 C96 1.398 . S
C97 H119 0.929 . S
C98 O108 1.271 . S
C98 O109 1.251 . S
C99 O110 1.252 . S
C99 O111 1.272 . S
O100 Sm80 2.543 . S
O100 C82 1.261 . S
O101 Sm80 2.450 . S
O101 C82 1.242 . S
O102 Sm80 2.681 1_455 S
O102 Sm81 2.386 . S
O102 C89 1.271 . S
O103 Sm80 2.464 . S
O103 C89 1.251 1_655 S
O104 Sm80 2.396 . S
O104 C90 1.252 . S
O105 Sm81 2.408 . S
O105 C90 1.272 1_455 S
O106 Sm81 2.543 . S
O106 C91 1.261 . S
O107 Sm81 2.450 . S
O107 C91 1.242 . S
O108 Sm80 2.386 1_455 S
O108 Sm81 2.681 . S
O108 C98 1.271 . S
O109 Sm81 2.464 . S
O109 C98 1.251 . S
O110 Sm81 2.396 . S
O110 C99 1.252 . S
O111 Sm80 2.408 1_455 S
O111 C99 1.272 . S
H112 C84 0.930 . S
H113 C85 0.929 . S
H114 C87 0.930 . S
H115 C88 0.929 . S
H116 C93 0.930 . S
H117 C94 0.929 . S
H118 C96 0.930 . S
H119 C97 0.929 . S
Sm120 C122 2.846 . S
Sm120 O140 2.543 . S
Sm120 O141 2.450 . S
Sm120 O142 2.681 . S
Sm120 O143 2.464 . S
Sm120 O144 2.396 . S
Sm120 O148 2.386 . S
Sm120 O151 2.408 . S
Sm121 C131 2.846 . S
Sm121 O142 2.386 . S
Sm121 O145 2.408 . S
Sm121 O146 2.543 . S
Sm121 O147 2.450 . S
Sm121 O148 2.681 . S
Sm121 O149 2.464 . S
Sm121 O150 2.396 . S
C122 Sm120 2.846 . S
C122 C123 1.506 . S
C122 O140 1.261 . S
C122 O141 1.242 . S
C123 C122 1.506 . S
C123 C124 1.358 . S
C123 C128 1.382 . S
C124 C123 1.358 . S
C124 C125 1.385 . S
C124 H152 0.930 . S
C125 C124 1.385 . S
C125 C126 1.395 . S
C125 H153 0.929 . S
C126 C125 1.395 . S
C126 C127 1.335 . S
C127 C126 1.335 . S
C127 C128 1.398 . S
C127 H154 0.930 . S
C128 C123 1.382 . S
C128 C127 1.398 . S
C128 H155 0.929 . S
C129 O142 1.271 . S
C129 O143 1.251 . S
C130 O144 1.252 . S
C130 O145 1.272 . S
C131 Sm121 2.846 . S
C131 C132 1.506 . S
C131 O146 1.261 . S
C131 O147 1.242 . S
C132 C131 1.506 . S
C132 C133 1.358 . S
C132 C137 1.382 . S
C133 C132 1.358 . S
C133 C134 1.385 1_455 S
C133 H156 0.930 . S
C134 C133 1.385 1_655 S
C134 C135 1.395 . S
C134 H157 0.929 . S
C135 C134 1.395 . S
C135 C136 1.335 . S
C136 C135 1.335 . S
C136 C137 1.398 1_655 S
C136 H158 0.930 . S
C137 C132 1.382 . S
C137 C136 1.398 1_455 S
C137 H159 0.929 . S
C138 O148 1.271 . S
C138 O149 1.251 . S
C139 O150 1.252 . S
C139 O151 1.272 . S
O140 Sm120 2.543 . S
O140 C122 1.261 . S
O141 Sm120 2.450 . S
O141 C122 1.242 . S
O142 Sm120 2.681 . S
O142 Sm121 2.386 . S
O142 C129 1.271 . S
O143 Sm120 2.464 . S
O143 C129 1.251 . S
O144 Sm120 2.396 . S
O144 C130 1.252 . S
O145 Sm121 2.408 . S
O145 C130 1.272 . S
O146 Sm121 2.543 . S
O146 C131 1.261 . S
O147 Sm121 2.450 . S
O147 C131 1.242 . S
O148 Sm120 2.386 . S
O148 Sm121 2.681 . S
O148 C138 1.271 . S
O149 Sm121 2.464 . S
O149 C138 1.251 . S
O150 Sm121 2.396 . S
O150 C139 1.252 . S
O151 Sm120 2.408 . S
O151 C139 1.272 . S
H152 C124 0.930 . S
H153 C125 0.929 . S
H154 C127 0.930 . S
H155 C128 0.929 . S
H156 C133 0.930 . S
H157 C134 0.929 . S
H158 C136 0.930 . S
H159 C137 0.929 . S
Sm160 C162 2.846 . S
Sm160 O180 2.543 . S
Sm160 O181 2.450 . S
Sm160 O182 2.681 . S
Sm160 O183 2.464 . S
Sm160 O184 2.396 . S
Sm160 O188 2.386 . S
Sm160 O191 2.408 . S
Sm161 C171 2.846 . S
Sm161 O182 2.386 1_455 S
Sm161 O185 2.408 1_455 S
Sm161 O186 2.543 . S
Sm161 O187 2.450 . S
Sm161 O188 2.681 1_455 S
Sm161 O189 2.464 . S
Sm161 O190 2.396 . S
C162 Sm160 2.846 . S
C162 C163 1.506 . S
C162 O180 1.261 . S
C162 O181 1.242 . S
C163 C162 1.506 . S
C163 C164 1.358 . S
C163 C168 1.382 . S
C164 C163 1.358 . S
C164 C165 1.385 . S
C164 H192 0.930 . S
C165 C164 1.385 . S
C165 C166 1.395 . S
C165 H193 0.929 . S
C166 C165 1.395 . S
C166 C167 1.335 . S
C167 C166 1.335 . S
C167 C168 1.398 . S
C167 H194 0.930 . S
C168 C163 1.382 . S
C168 C167 1.398 . S
C168 H195 0.929 . S
C169 O182 1.271 . S
C169 O183 1.251 . S
C170 O184 1.252 . S
C170 O185 1.272 . S
C171 Sm161 2.846 . S
C171 C172 1.506 . S
C171 O186 1.261 . S
C171 O187 1.242 . S
C172 C171 1.506 . S
C172 C173 1.358 . S
C172 C177 1.382 . S
C173 C172 1.358 . S
C173 C174 1.385 . S
C173 H196 0.930 . S
C174 C173 1.385 . S
C174 C175 1.395 . S
C174 H197 0.929 . S
C175 C174 1.395 . S
C175 C176 1.335 . S
C176 C175 1.335 . S
C176 C177 1.398 . S
C176 H198 0.930 . S
C177 C172 1.382 . S
C177 C176 1.398 . S
C177 H199 0.929 . S
C178 O188 1.271 . S
C178 O189 1.251 1_655 S
C179 O190 1.252 . S
C179 O191 1.272 1_455 S
O180 Sm160 2.543 . S
O180 C162 1.261 . S
O181 Sm160 2.450 . S
O181 C162 1.242 . S
O182 Sm160 2.681 . S
O182 Sm161 2.386 1_655 S
O182 C169 1.271 . S
O183 Sm160 2.464 . S
O183 C169 1.251 . S
O184 Sm160 2.396 . S
O184 C170 1.252 . S
O185 Sm161 2.408 1_655 S
O185 C170 1.272 . S
O186 Sm161 2.543 . S
O186 C171 1.261 . S
O187 Sm161 2.450 . S
O187 C171 1.242 . S
O188 Sm160 2.386 . S
O188 Sm161 2.681 1_655 S
O188 C178 1.271 . S
O189 Sm161 2.464 . S
O189 C178 1.251 1_455 S
O190 Sm161 2.396 . S
O190 C179 1.252 . S
O191 Sm160 2.408 . S
O191 C179 1.272 1_655 S
H192 C164 0.930 . S
H193 C165 0.929 . S
H194 C167 0.930 . S
H195 C168 0.929 . S
H196 C173 0.930 . S
H197 C174 0.929 . S
H198 C176 0.930 . S
H199 C177 0.929 . S
Sm200 C202 2.846 . S
Sm200 O220 2.543 . S
Sm200 O221 2.450 . S
Sm200 O222 2.681 . S
Sm200 O223 2.464 . S
Sm200 O224 2.396 . S
Sm200 O228 2.386 . S
Sm200 O231 2.408 . S
Sm201 C211 2.846 . S
Sm201 O222 2.386 . S
Sm201 O225 2.408 . S
Sm201 O226 2.543 . S
Sm201 O227 2.450 . S
Sm201 O228 2.681 . S
Sm201 O229 2.464 . S
Sm201 O230 2.396 . S
C202 Sm200 2.846 . S
C202 C203 1.506 . S
C202 O220 1.261 . S
C202 O221 1.242 . S
C203 C202 1.506 . S
C203 C204 1.358 . S
C203 C208 1.382 . S
C204 C203 1.358 . S
C204 C205 1.385 1_655 S
C204 H232 0.930 . S
C205 C204 1.385 1_455 S
C205 C206 1.395 . S
C205 H233 0.929 . S
C206 C205 1.395 . S
C206 C207 1.335 . S
C207 C206 1.335 . S
C207 C208 1.398 1_455 S
C207 H234 0.930 . S
C208 C203 1.382 . S
C208 C207 1.398 1_655 S
C208 H235 0.929 . S
C209 O222 1.271 . S
C209 O223 1.251 . S
C210 O224 1.252 . S
C210 O225 1.272 . S
C211 Sm201 2.846 . S
C211 C212 1.506 . S
C211 O226 1.261 . S
C211 O227 1.242 . S
C212 C211 1.506 . S
C212 C213 1.358 . S
C212 C217 1.382 . S
C213 C212 1.358 . S
C213 C214 1.385 . S
C213 H236 0.930 . S
C214 C213 1.385 . S
C214 C215 1.395 . S
C214 H237 0.929 . S
C215 C214 1.395 . S
C215 C216 1.335 . S
C216 C215 1.335 . S
C216 C217 1.398 . S
C216 H238 0.930 . S
C217 C212 1.382 . S
C217 C216 1.398 . S
C217 H239 0.929 . S
C218 O228 1.271 . S
C218 O229 1.251 . S
C219 O230 1.252 . S
C219 O231 1.272 . S
O220 Sm200 2.543 . S
O220 C202 1.261 . S
O221 Sm200 2.450 . S
O221 C202 1.242 . S
O222 Sm200 2.681 . S
O222 Sm201 2.386 . S
O222 C209 1.271 . S
O223 Sm200 2.464 . S
O223 C209 1.251 . S
O224 Sm200 2.396 . S
O224 C210 1.252 . S
O225 Sm201 2.408 . S
O225 C210 1.272 . S
O226 Sm201 2.543 . S
O226 C211 1.261 . S
O227 Sm201 2.450 . S
O227 C211 1.242 . S
O228 Sm200 2.386 . S
O228 Sm201 2.681 . S
O228 C218 1.271 . S
O229 Sm201 2.464 . S
O229 C218 1.251 . S
O230 Sm201 2.396 . S
O230 C219 1.252 . S
O231 Sm200 2.408 . S
O231 C219 1.272 . S
H232 C204 0.930 . S
H233 C205 0.929 . S
H234 C207 0.930 . S
H235 C208 0.929 . S
H236 C213 0.930 . S
H237 C214 0.929 . S
H238 C216 0.930 . S
H239 C217 0.929 . S
Sm240 C242 2.846 . S
Sm240 O260 2.543 . S
Sm240 O261 2.450 . S
Sm240 O262 2.681 . S
Sm240 O263 2.464 . S
Sm240 O264 2.396 . S
Sm240 O268 2.386 . S
Sm240 O271 2.408 . S
Sm241 C251 2.846 . S
Sm241 O262 2.386 1_455 S
Sm241 O265 2.408 1_455 S
Sm241 O266 2.543 . S
Sm241 O267 2.450 . S
Sm241 O268 2.681 1_455 S
Sm241 O269 2.464 . S
Sm241 O270 2.396 . S
C242 Sm240 2.846 . S
C242 C243 1.506 . S
C242 O260 1.261 . S
C242 O261 1.242 . S
C243 C242 1.506 . S
C243 C244 1.358 . S
C243 C248 1.382 . S
C244 C243 1.358 . S
C244 C245 1.385 . S
C244 H272 0.930 . S
C245 C244 1.385 . S
C245 C246 1.395 . S
C245 H273 0.929 . S
C246 C245 1.395 . S
C246 C247 1.335 . S
C247 C246 1.335 . S
C247 C248 1.398 . S
C247 H274 0.930 . S
C248 C243 1.382 . S
C248 C247 1.398 . S
C248 H275 0.929 . S
C249 O262 1.271 . S
C249 O263 1.251 . S
C250 O264 1.252 . S
C250 O265 1.272 . S
C251 Sm241 2.846 . S
C251 C252 1.506 . S
C251 O266 1.261 . S
C251 O267 1.242 . S
C252 C251 1.506 . S
C252 C253 1.358 . S
C252 C257 1.382 . S
C253 C252 1.358 . S
C253 C254 1.385 . S
C253 H276 0.930 . S
C254 C253 1.385 . S
C254 C255 1.395 . S
C254 H277 0.929 . S
C255 C254 1.395 . S
C255 C256 1.335 . S
C256 C255 1.335 . S
C256 C257 1.398 . S
C256 H278 0.930 . S
C257 C252 1.382 . S
C257 C256 1.398 . S
C257 H279 0.929 . S
C258 O268 1.271 . S
C258 O269 1.251 1_655 S
C259 O270 1.252 . S
C259 O271 1.272 1_455 S
O260 Sm240 2.543 . S
O260 C242 1.261 . S
O261 Sm240 2.450 . S
O261 C242 1.242 . S
O262 Sm240 2.681 . S
O262 Sm241 2.386 1_655 S
O262 C249 1.271 . S
O263 Sm240 2.464 . S
O263 C249 1.251 . S
O264 Sm240 2.396 . S
O264 C250 1.252 . S
O265 Sm241 2.408 1_655 S
O265 C250 1.272 . S
O266 Sm241 2.543 . S
O266 C251 1.261 . S
O267 Sm241 2.450 . S
O267 C251 1.242 . S
O268 Sm240 2.386 . S
O268 Sm241 2.681 1_655 S
O268 C258 1.271 . S
O269 Sm241 2.464 . S
O269 C258 1.251 1_455 S
O270 Sm241 2.396 . S
O270 C259 1.252 . S
O271 Sm240 2.408 . S
O271 C259 1.272 1_655 S
H272 C244 0.930 . S
H273 C245 0.929 . S
H274 C247 0.930 . S
H275 C248 0.929 . S
H276 C253 0.930 . S
H277 C254 0.929 . S
H278 C256 0.930 . S
H279 C257 0.929 . S
Sm280 C282 2.846 . S
Sm280 O300 2.543 . S
Sm280 O301 2.450 . S
Sm280 O302 2.681 . S
Sm280 O303 2.464 . S
Sm280 O304 2.396 . S
Sm280 O308 2.386 . S
Sm280 O311 2.408 . S
Sm281 C291 2.846 . S
Sm281 O302 2.386 . S
Sm281 O305 2.408 . S
Sm281 O306 2.543 . S
Sm281 O307 2.450 . S
Sm281 O308 2.681 . S
Sm281 O309 2.464 . S
Sm281 O310 2.396 . S
C282 Sm280 2.846 . S
C282 C283 1.506 . S
C282 O300 1.261 . S
C282 O301 1.242 . S
C283 C282 1.506 . S
C283 C284 1.358 . S
C283 C288 1.382 . S
C284 C283 1.358 . S
C284 C285 1.385 1_655 S
C284 H312 0.930 . S
C285 C284 1.385 1_455 S
C285 C286 1.395 . S
C285 H313 0.929 . S
C286 C285 1.395 . S
C286 C287 1.335 . S
C287 C286 1.335 . S
C287 C288 1.398 1_455 S
C287 H314 0.930 . S
C288 C283 1.382 . S
C288 C287 1.398 1_655 S
C288 H315 0.929 . S
C289 O302 1.271 . S
C289 O303 1.251 . S
C290 O304 1.252 . S
C290 O305 1.272 . S
C291 Sm281 2.846 . S
C291 C292 1.506 . S
C291 O306 1.261 . S
C291 O307 1.242 . S
C292 C291 1.506 . S
C292 C293 1.358 . S
C292 C297 1.382 . S
C293 C292 1.358 . S
C293 C294 1.385 . S
C293 H316 0.930 . S
C294 C293 1.385 . S
C294 C295 1.395 . S
C294 H317 0.929 . S
C295 C294 1.395 . S
C295 C296 1.335 . S
C296 C295 1.335 . S
C296 C297 1.398 . S
C296 H318 0.930 . S
C297 C292 1.382 . S
C297 C296 1.398 . S
C297 H319 0.929 . S
C298 O308 1.271 . S
C298 O309 1.251 . S
C299 O310 1.252 . S
C299 O311 1.272 . S
O300 Sm280 2.543 . S
O300 C282 1.261 . S
O301 Sm280 2.450 . S
O301 C282 1.242 . S
O302 Sm280 2.681 . S
O302 Sm281 2.386 . S
O302 C289 1.271 . S
O303 Sm280 2.464 . S
O303 C289 1.251 . S
O304 Sm280 2.396 . S
O304 C290 1.252 . S
O305 Sm281 2.408 . S
O305 C290 1.272 . S
O306 Sm281 2.543 . S
O306 C291 1.261 . S
O307 Sm281 2.450 . S
O307 C291 1.242 . S
O308 Sm280 2.386 . S
O308 Sm281 2.681 . S
O308 C298 1.271 . S
O309 Sm281 2.464 . S
O309 C298 1.251 . S
O310 Sm281 2.396 . S
O310 C299 1.252 . S
O311 Sm280 2.408 . S
O311 C299 1.272 . S
H312 C284 0.930 . S
H313 C285 0.929 . S
H314 C287 0.930 . S
H315 C288 0.929 . S
H316 C293 0.930 . S
H317 C294 0.929 . S
H318 C296 0.930 . S
H319 C297 0.929 . S
Sm320 C322 2.846 1_545 S
Sm320 O340 2.543 1_545 S
Sm320 O341 2.450 . S
Sm320 O342 2.681 1_645 S
Sm320 O343 2.464 . S
Sm320 O344 2.396 1_545 S
Sm320 O348 2.386 1_645 S
Sm320 O351 2.408 1_655 S
Sm321 C331 2.846 . S
Sm321 O342 2.386 . S
Sm321 O345 2.408 . S
Sm321 O346 2.543 . S
Sm321 O347 2.450 . S
Sm321 O348 2.681 . S
Sm321 O349 2.464 . S
Sm321 O350 2.396 1_565 S
C322 Sm320 2.846 1_565 S
C322 C323 1.506 . S
C322 O340 1.261 . S
C322 O341 1.242 1_565 S
C323 C322 1.506 . S
C323 C324 1.358 . S
C323 C328 1.382 . S
C324 C323 1.358 . S
C324 C325 1.385 . S
C324 H352 0.930 . S
C325 C324 1.385 . S
C325 C326 1.395 . S
C325 H353 0.929 . S
C326 C325 1.395 . S
C326 C327 1.335 . S
C327 C326 1.335 . S
C327 C328 1.398 . S
C327 H354 0.930 . S
C328 C323 1.382 . S
C328 C327 1.398 . S
C328 H355 0.928 1_565 S
C329 O342 1.271 . S
C329 O343 1.251 1_465 S
C330 O344 1.252 . S
C330 O345 1.272 1_655 S
C331 Sm321 2.846 . S
C331 C332 1.506 . S
C331 O346 1.261 . S
C331 O347 1.242 . S
C332 C331 1.506 . S
C332 C333 1.358 1_565 S
C332 C337 1.382 . S
C333 C332 1.358 1_545 S
C333 C334 1.385 . S
C333 H356 0.930 . S
C334 C333 1.385 . S
C334 C335 1.395 . S
C334 H357 0.929 . S
C335 C334 1.395 . S
C335 C336 1.352 . S
C336 C335 1.352 . S
C336 C337 1.389 1_545 S
C336 H358 0.923 1_545 S
C337 C332 1.382 . S
C337 C336 1.389 1_565 S
C337 H359 0.929 . S
C338 O348 1.271 . S
C338 O349 1.251 . S
C339 O350 1.252 . S
C339 O351 1.272 . S
O340 Sm320 2.543 1_565 S
O340 C322 1.261 . S
O341 Sm320 2.450 . S
O341 C322 1.242 1_545 S
O342 Sm320 2.681 1_465 S
O342 Sm321 2.386 . S
O342 C329 1.271 . S
O343 Sm320 2.464 . S
O343 C329 1.251 1_645 S
O344 Sm320 2.396 1_565 S
O344 C330 1.252 . S
O345 Sm321 2.408 . S
O345 C330 1.272 1_455 S
O346 Sm321 2.543 . S
O346 C331 1.261 . S
O347 Sm321 2.450 . S
O347 C331 1.242 . S
O348 Sm320 2.386 1_465 S
O348 Sm321 2.681 . S
O348 C338 1.271 . S
O349 Sm321 2.464 . S
O349 C338 1.251 . S
O350 Sm321 2.396 1_545 S
O350 C339 1.252 . S
O351 Sm320 2.408 1_455 S
O351 C339 1.272 . S
H352 C324 0.930 . S
H353 C325 0.929 . S
H354 C327 0.930 . S
H355 C328 0.928 1_545 S
H356 C333 0.930 . S
H357 C334 0.929 . S
H358 C336 0.923 1_565 S
H359 C337 0.929 . S
Sm360 C362 2.846 . S
Sm360 O380 2.543 . S
Sm360 O381 2.450 . S
Sm360 O382 2.681 . S
Sm360 O383 2.464 . S
Sm360 O384 2.396 . S
Sm360 O388 2.386 . S
Sm360 O391 2.408 . S
Sm361 C371 2.846 . S
Sm361 O382 2.386 . S
Sm361 O385 2.408 . S
Sm361 O386 2.543 . S
Sm361 O387 2.450 . S
Sm361 O388 2.681 . S
Sm361 O389 2.464 . S
Sm361 O390 2.396 . S
C362 Sm360 2.846 . S
C362 C363 1.506 . S
C362 O380 1.261 . S
C362 O381 1.242 . S
C363 C362 1.506 . S
C363 C364 1.358 . S
C363 C368 1.382 . S
C364 C363 1.358 . S
C364 C365 1.385 . S
C364 H392 0.930 . S
C365 C364 1.385 . S
C365 C366 1.395 . S
C365 H393 0.929 . S
C366 C365 1.395 . S
C366 C367 1.335 . S
C367 C366 1.335 . S
C367 C368 1.398 . S
C367 H394 0.930 . S
C368 C363 1.382 . S
C368 C367 1.398 . S
C368 H395 0.929 . S
C369 O382 1.271 . S
C369 O383 1.251 . S
C370 O384 1.252 . S
C370 O385 1.272 . S
C371 Sm361 2.846 . S
C371 C372 1.506 . S
C371 O386 1.261 . S
C371 O387 1.242 . S
C372 C371 1.506 . S
C372 C373 1.358 . S
C372 C377 1.382 . S
C373 C372 1.358 . S
C373 C374 1.385 1_455 S
C373 H396 0.930 . S
C374 C373 1.385 1_655 S
C374 C375 1.395 . S
C374 H397 0.929 . S
C375 C374 1.395 . S
C375 C376 1.335 . S
C376 C375 1.335 . S
C376 C377 1.398 1_655 S
C376 H398 0.930 . S
C377 C372 1.382 . S
C377 C376 1.398 1_455 S
C377 H399 0.929 . S
C378 O388 1.271 . S
C378 O389 1.251 . S
C379 O390 1.252 . S
C379 O391 1.272 . S
O380 Sm360 2.543 . S
O380 C362 1.261 . S
O381 Sm360 2.450 . S
O381 C362 1.242 . S
O382 Sm360 2.681 . S
O382 Sm361 2.386 . S
O382 C369 1.271 . S
O383 Sm360 2.464 . S
O383 C369 1.251 . S
O384 Sm360 2.396 . S
O384 C370 1.252 . S
O385 Sm361 2.408 . S
O385 C370 1.272 . S
O386 Sm361 2.543 . S
O386 C371 1.261 . S
O387 Sm361 2.450 . S
O387 C371 1.242 . S
O388 Sm360 2.386 . S
O388 Sm361 2.681 . S
O388 C378 1.271 . S
O389 Sm361 2.464 . S
O389 C378 1.251 . S
O390 Sm361 2.396 . S
O390 C379 1.252 . S
O391 Sm360 2.408 . S
O391 C379 1.272 . S
H392 C364 0.930 . S
H393 C365 0.929 . S
H394 C367 0.930 . S
H395 C368 0.929 . S
H396 C373 0.930 . S
H397 C374 0.929 . S
H398 C376 0.930 . S
H399 C377 0.929 . S
Sm400 C402 2.846 . S
Sm400 O420 2.543 . S
Sm400 O421 2.450 . S
Sm400 O422 2.681 1_655 S
Sm400 O423 2.464 . S
Sm400 O424 2.396 . S
Sm400 O428 2.386 1_655 S
Sm400 O431 2.408 1_655 S
Sm401 C411 2.846 . S
Sm401 O422 2.386 . S
Sm401 O425 2.408 . S
Sm401 O426 2.543 . S
Sm401 O427 2.450 . S
Sm401 O428 2.681 . S
Sm401 O429 2.464 . S
Sm401 O430 2.396 . S
C402 Sm400 2.846 . S
C402 C403 1.506 . S
C402 O420 1.261 . S
C402 O421 1.242 . S
C403 C402 1.506 . S
C403 C404 1.358 . S
C403 C408 1.382 . S
C404 C403 1.358 . S
C404 C405 1.385 . S
C404 H432 0.930 . S
C405 C404 1.385 . S
C405 C406 1.395 . S
C405 H433 0.929 . S
C406 C405 1.395 . S
C406 C407 1.335 . S
C407 C406 1.335 . S
C407 C408 1.398 . S
C407 H434 0.930 . S
C408 C403 1.382 . S
C408 C407 1.398 . S
C408 H435 0.929 . S
C409 O422 1.271 . S
C409 O423 1.251 1_455 S
C410 O424 1.252 . S
C410 O425 1.272 1_655 S
C411 Sm401 2.846 . S
C411 C412 1.506 . S
C411 O426 1.261 . S
C411 O427 1.242 . S
C412 C411 1.506 . S
C412 C413 1.358 . S
C412 C417 1.382 . S
C413 C412 1.358 . S
C413 C414 1.385 . S
C413 H436 0.930 . S
C414 C413 1.385 . S
C414 C415 1.395 . S
C414 H437 0.929 . S
C415 C414 1.395 . S
C415 C416 1.335 . S
C416 C415 1.335 . S
C416 C417 1.398 . S
C416 H438 0.930 . S
C417 C412 1.382 . S
C417 C416 1.398 . S
C417 H439 0.929 . S
C418 O428 1.271 . S
C418 O429 1.251 . S
C419 O430 1.252 . S
C419 O431 1.272 . S
O420 Sm400 2.543 . S
O420 C402 1.261 . S
O421 Sm400 2.450 . S
O421 C402 1.242 . S
O422 Sm400 2.681 1_455 S
O422 Sm401 2.386 . S
O422 C409 1.271 . S
O423 Sm400 2.464 . S
O423 C409 1.251 1_655 S
O424 Sm400 2.396 . S
O424 C410 1.252 . S
O425 Sm401 2.408 . S
O425 C410 1.272 1_455 S
O426 Sm401 2.543 . S
O426 C411 1.261 . S
O427 Sm401 2.450 . S
O427 C411 1.242 . S
O428 Sm400 2.386 1_455 S
O428 Sm401 2.681 . S
O428 C418 1.271 . S
O429 Sm401 2.464 . S
O429 C418 1.251 . S
O430 Sm401 2.396 . S
O430 C419 1.252 . S
O431 Sm400 2.408 1_455 S
O431 C419 1.272 . S
H432 C404 0.930 . S
H433 C405 0.929 . S
H434 C407 0.930 . S
H435 C408 0.929 . S
H436 C413 0.930 . S
H437 C414 0.929 . S
H438 C416 0.930 . S
H439 C417 0.929 . S
Sm440 C442 2.846 1_545 S
Sm440 O460 2.543 1_545 S
Sm440 O461 2.450 . S
Sm440 O462 2.681 1_545 S
Sm440 O463 2.464 . S
Sm440 O464 2.396 1_545 S
Sm440 O468 2.386 1_545 S
Sm440 O471 2.408 . S
Sm441 C451 2.846 . S
Sm441 O462 2.386 . S
Sm441 O465 2.408 . S
Sm441 O466 2.543 . S
Sm441 O467 2.450 . S
Sm441 O468 2.681 . S
Sm441 O469 2.464 . S
Sm441 O470 2.396 1_565 S
C442 Sm440 2.846 1_565 S
C442 C443 1.506 . S
C442 O460 1.261 . S
C442 O461 1.242 1_565 S
C443 C442 1.506 . S
C443 C444 1.358 . S
C443 C448 1.382 . S
C444 C443 1.358 . S
C444 C445 1.385 . S
C444 H472 0.930 . S
C445 C444 1.385 . S
C445 C446 1.395 . S
C445 H473 0.929 . S
C446 C445 1.395 . S
C446 C447 1.335 . S
C447 C446 1.335 . S
C447 C448 1.398 . S
C447 H474 0.930 . S
C448 C443 1.382 . S
C448 C447 1.398 . S
C448 H475 0.928 1_565 S
C449 O462 1.271 . S
C449 O463 1.251 1_565 S
C450 O464 1.252 . S
C450 O465 1.272 . S
C451 Sm441 2.846 . S
C451 C452 1.506 . S
C451 O466 1.261 . S
C451 O467 1.242 . S
C452 C451 1.506 . S
C452 C453 1.358 1_565 S
C452 C457 1.382 . S
C453 C452 1.358 1_545 S
C453 C454 1.385 1_455 S
C453 H476 0.930 . S
C454 C453 1.385 1_655 S
C454 C455 1.395 . S
C454 H477 0.929 . S
C455 C454 1.395 . S
C455 C456 1.352 . S
C456 C455 1.352 . S
C456 C457 1.389 1_645 S
C456 H478 0.923 1_545 S
C457 C452 1.382 . S
C457 C456 1.389 1_465 S
C457 H479 0.929 . S
C458 O468 1.271 . S
C458 O469 1.251 . S
C459 O470 1.252 . S
C459 O471 1.272 . S
O460 Sm440 2.543 1_565 S
O460 C442 1.261 . S
O461 Sm440 2.450 . S
O461 C442 1.242 1_545 S
O462 Sm440 2.681 1_565 S
O462 Sm441 2.386 . S
O462 C449 1.271 . S
O463 Sm440 2.464 . S
O463 C449 1.251 1_545 S
O464 Sm440 2.396 1_565 S
O464 C450 1.252 . S
O465 Sm441 2.408 . S
O465 C450 1.272 . S
O466 Sm441 2.543 . S
O466 C451 1.261 . S
O467 Sm441 2.450 . S
O467 C451 1.242 . S
O468 Sm440 2.386 1_565 S
O468 Sm441 2.681 . S
O468 C458 1.271 . S
O469 Sm441 2.464 . S
O469 C458 1.251 . S
O470 Sm441 2.396 1_545 S
O470 C459 1.252 . S
O471 Sm440 2.408 . S
O471 C459 1.272 . S
H472 C444 0.930 . S
H473 C445 0.929 . S
H474 C447 0.930 . S
H475 C448 0.928 1_545 S
H476 C453 0.930 . S
H477 C454 0.929 . S
H478 C456 0.923 1_565 S
H479 C457 0.929 . S
Sm480 C482 2.846 . S
Sm480 O500 2.543 . S
Sm480 O501 2.450 . S
Sm480 O502 2.681 . S
Sm480 O503 2.464 . S
Sm480 O504 2.396 1_545 S
Sm480 O508 2.386 . S
Sm480 O511 2.408 . S
Sm481 C491 2.846 1_565 S
Sm481 O502 2.386 1_465 S
Sm481 O505 2.408 1_455 S
Sm481 O506 2.543 1_565 S
Sm481 O507 2.450 . S
Sm481 O508 2.681 1_465 S
Sm481 O509 2.464 . S
Sm481 O510 2.396 1_565 S
C482 Sm480 2.846 . S
C482 C483 1.506 . S
C482 O500 1.261 . S
C482 O501 1.242 . S
C483 C482 1.506 . S
C483 C484 1.358 1_545 S
C483 C488 1.382 . S
C484 C483 1.358 1_565 S
C484 C485 1.385 . S
C484 H512 0.930 . S
C485 C484 1.385 . S
C485 C486 1.395 . S
C485 H513 0.929 . S
C486 C485 1.395 . S
C486 C487 1.352 . S
C487 C486 1.352 . S
C487 C488 1.389 1_565 S
C487 H514 0.923 1_565 S
C488 C483 1.382 . S
C488 C487 1.389 1_545 S
C488 H515 0.929 . S
C489 O502 1.271 . S
C489 O503 1.251 . S
C490 O504 1.252 . S
C490 O505 1.272 . S
C491 Sm481 2.846 1_545 S
C491 C492 1.506 . S
C491 O506 1.261 . S
C491 O507 1.242 1_545 S
C492 C491 1.506 . S
C492 C493 1.358 . S
C492 C497 1.382 . S
C493 C492 1.358 . S
C493 C494 1.385 . S
C493 H516 0.930 . S
C494 C493 1.385 . S
C494 C495 1.395 . S
C494 H517 0.929 . S
C495 C494 1.395 . S
C495 C496 1.335 . S
C496 C495 1.335 . S
C496 C497 1.398 . S
C496 H518 0.930 . S
C497 C492 1.382 . S
C497 C496 1.398 . S
C497 H519 0.928 1_545 S
C498 O508 1.271 . S
C498 O509 1.251 1_645 S
C499 O510 1.252 . S
C499 O511 1.272 1_455 S
O500 Sm480 2.543 . S
O500 C482 1.261 . S
O501 Sm480 2.450 . S
O501 C482 1.242 . S
O502 Sm480 2.681 . S
O502 Sm481 2.386 1_645 S
O502 C489 1.271 . S
O503 Sm480 2.464 . S
O503 C489 1.251 . S
O504 Sm480 2.396 1_565 S
O504 C490 1.252 . S
O505 Sm481 2.408 1_655 S
O505 C490 1.272 . S
O506 Sm481 2.543 1_545 S
O506 C491 1.261 . S
O507 Sm481 2.450 . S
O507 C491 1.242 1_565 S
O508 Sm480 2.386 . S
O508 Sm481 2.681 1_645 S
O508 C498 1.271 . S
O509 Sm481 2.464 . S
O509 C498 1.251 1_465 S
O510 Sm481 2.396 1_545 S
O510 C499 1.252 . S
O511 Sm480 2.408 . S
O511 C499 1.272 1_655 S
H512 C484 0.930 . S
H513 C485 0.929 . S
H514 C487 0.923 1_545 S
H515 C488 0.929 . S
H516 C493 0.930 . S
H517 C494 0.929 . S
H518 C496 0.930 . S
H519 C497 0.928 1_565 S
Sm520 C522 2.846 . S
Sm520 O540 2.543 . S
Sm520 O541 2.450 . S
Sm520 O542 2.681 . S
Sm520 O543 2.464 . S
Sm520 O544 2.396 . S
Sm520 O548 2.386 . S
Sm520 O551 2.408 . S
Sm521 C531 2.846 . S
Sm521 O542 2.386 . S
Sm521 O545 2.408 . S
Sm521 O546 2.543 . S
Sm521 O547 2.450 . S
Sm521 O548 2.681 . S
Sm521 O549 2.464 . S
Sm521 O550 2.396 . S
C522 Sm520 2.846 . S
C522 C523 1.506 . S
C522 O540 1.261 . S
C522 O541 1.242 . S
C523 C522 1.506 . S
C523 C524 1.358 . S
C523 C528 1.382 . S
C524 C523 1.358 . S
C524 C525 1.385 1_655 S
C524 H552 0.930 . S
C525 C524 1.385 1_455 S
C525 C526 1.395 . S
C525 H553 0.929 . S
C526 C525 1.395 . S
C526 C527 1.335 . S
C527 C526 1.335 . S
C527 C528 1.398 1_455 S
C527 H554 0.930 . S
C528 C523 1.382 . S
C528 C527 1.398 1_655 S
C528 H555 0.929 . S
C529 O542 1.271 . S
C529 O543 1.251 . S
C530 O544 1.252 . S
C530 O545 1.272 . S
C531 Sm521 2.846 . S
C531 C532 1.506 . S
C531 O546 1.261 . S
C531 O547 1.242 . S
C532 C531 1.506 . S
C532 C533 1.358 . S
C532 C537 1.382 . S
C533 C532 1.358 . S
C533 C534 1.385 . S
C533 H556 0.930 . S
C534 C533 1.385 . S
C534 C535 1.395 . S
C534 H557 0.929 . S
C535 C534 1.395 . S
C535 C536 1.335 . S
C536 C535 1.335 . S
C536 C537 1.398 . S
C536 H558 0.930 . S
C537 C532 1.382 . S
C537 C536 1.398 . S
C537 H559 0.929 . S
C538 O548 1.271 . S
C538 O549 1.251 . S
C539 O550 1.252 . S
C539 O551 1.272 . S
O540 Sm520 2.543 . S
O540 C522 1.261 . S
O541 Sm520 2.450 . S
O541 C522 1.242 . S
O542 Sm520 2.681 . S
O542 Sm521 2.386 . S
O542 C529 1.271 . S
O543 Sm520 2.464 . S
O543 C529 1.251 . S
O544 Sm520 2.396 . S
O544 C530 1.252 . S
O545 Sm521 2.408 . S
O545 C530 1.272 . S
O546 Sm521 2.543 . S
O546 C531 1.261 . S
O547 Sm521 2.450 . S
O547 C531 1.242 . S
O548 Sm520 2.386 . S
O548 Sm521 2.681 . S
O548 C538 1.271 . S
O549 Sm521 2.464 . S
O549 C538 1.251 . S
O550 Sm521 2.396 . S
O550 C539 1.252 . S
O551 Sm520 2.408 . S
O551 C539 1.272 . S
H552 C524 0.930 . S
H553 C525 0.929 . S
H554 C527 0.930 . S
H555 C528 0.929 . S
H556 C533 0.930 . S
H557 C534 0.929 . S
H558 C536 0.930 . S
H559 C537 0.929 . S
Sm560 C562 2.846 . S
Sm560 O580 2.543 . S
Sm560 O581 2.450 . S
Sm560 O582 2.681 . S
Sm560 O583 2.464 . S
Sm560 O584 2.396 . S
Sm560 O588 2.386 . S
Sm560 O591 2.408 . S
Sm561 C571 2.846 . S
Sm561 O582 2.386 1_455 S
Sm561 O585 2.408 1_455 S
Sm561 O586 2.543 . S
Sm561 O587 2.450 . S
Sm561 O588 2.681 1_455 S
Sm561 O589 2.464 . S
Sm561 O590 2.396 . S
C562 Sm560 2.846 . S
C562 C563 1.506 . S
C562 O580 1.261 . S
C562 O581 1.242 . S
C563 C562 1.506 . S
C563 C564 1.358 . S
C563 C568 1.382 . S
C564 C563 1.358 . S
C564 C565 1.385 . S
C564 H592 0.930 . S
C565 C564 1.385 . S
C565 C566 1.395 . S
C565 H593 0.929 . S
C566 C565 1.395 . S
C566 C567 1.335 . S
C567 C566 1.335 . S
C567 C568 1.398 . S
C567 H594 0.930 . S
C568 C563 1.382 . S
C568 C567 1.398 . S
C568 H595 0.929 . S
C569 O582 1.271 . S
C569 O583 1.251 . S
C570 O584 1.252 . S
C570 O585 1.272 . S
C571 Sm561 2.846 . S
C571 C572 1.506 . S
C571 O586 1.261 . S
C571 O587 1.242 . S
C572 C571 1.506 . S
C572 C573 1.358 . S
C572 C577 1.382 . S
C573 C572 1.358 . S
C573 C574 1.385 . S
C573 H596 0.930 . S
C574 C573 1.385 . S
C574 C575 1.395 . S
C574 H597 0.929 . S
C575 C574 1.395 . S
C575 C576 1.335 . S
C576 C575 1.335 . S
C576 C577 1.398 . S
C576 H598 0.930 . S
C577 C572 1.382 . S
C577 C576 1.398 . S
C577 H599 0.929 . S
C578 O588 1.271 . S
C578 O589 1.251 1_655 S
C579 O590 1.252 . S
C579 O591 1.272 1_455 S
O580 Sm560 2.543 . S
O580 C562 1.261 . S
O581 Sm560 2.450 . S
O581 C562 1.242 . S
O582 Sm560 2.681 . S
O582 Sm561 2.386 1_655 S
O582 C569 1.271 . S
O583 Sm560 2.464 . S
O583 C569 1.251 . S
O584 Sm560 2.396 . S
O584 C570 1.252 . S
O585 Sm561 2.408 1_655 S
O585 C570 1.272 . S
O586 Sm561 2.543 . S
O586 C571 1.261 . S
O587 Sm561 2.450 . S
O587 C571 1.242 . S
O588 Sm560 2.386 . S
O588 Sm561 2.681 1_655 S
O588 C578 1.271 . S
O589 Sm561 2.464 . S
O589 C578 1.251 1_455 S
O590 Sm561 2.396 . S
O590 C579 1.252 . S
O591 Sm560 2.408 . S
O591 C579 1.272 1_655 S
H592 C564 0.930 . S
H593 C565 0.929 . S
H594 C567 0.930 . S
H595 C568 0.929 . S
H596 C573 0.930 . S
H597 C574 0.929 . S
H598 C576 0.930 . S
H599 C577 0.929 . S
Sm600 C602 2.846 . S
Sm600 O620 2.543 . S
Sm600 O621 2.450 . S
Sm600 O622 2.681 . S
Sm600 O623 2.464 . S
Sm600 O624 2.396 1_545 S
Sm600 O628 2.386 . S
Sm600 O631 2.408 . S
Sm601 C611 2.846 1_565 S
Sm601 O622 2.386 1_565 S
Sm601 O625 2.408 . S
Sm601 O626 2.543 1_565 S
Sm601 O627 2.450 . S
Sm601 O628 2.681 1_565 S
Sm601 O629 2.464 . S
Sm601 O630 2.396 1_565 S
C602 Sm600 2.846 . S
C602 C603 1.506 . S
C602 O620 1.261 . S
C602 O621 1.242 . S
C603 C602 1.506 . S
C603 C604 1.358 1_545 S
C603 C608 1.382 . S
C604 C603 1.358 1_565 S
C604 C605 1.385 1_655 S
C604 H632 0.930 . S
C605 C604 1.385 1_455 S
C605 C606 1.395 . S
C605 H633 0.929 . S
C606 C605 1.395 . S
C606 C607 1.352 . S
C607 C606 1.352 . S
C607 C608 1.389 1_465 S
C607 H634 0.923 1_565 S
C608 C603 1.382 . S
C608 C607 1.389 1_645 S
C608 H635 0.929 . S
C609 O622 1.271 . S
C609 O623 1.251 . S
C610 O624 1.252 . S
C610 O625 1.272 . S
C611 Sm601 2.846 1_545 S
C611 C612 1.506 . S
C611 O626 1.261 . S
C611 O627 1.242 1_545 S
C612 C611 1.506 . S
C612 C613 1.358 . S
C612 C617 1.382 . S
C613 C612 1.358 . S
C613 C614 1.385 . S
C613 H636 0.930 . S
C614 C613 1.385 . S
C614 C615 1.395 . S
C614 H637 0.929 . S
C615 C614 1.395 . S
C615 C616 1.335 . S
C616 C615 1.335 . S
C616 C617 1.398 . S
C616 H638 0.930 . S
C617 C612 1.382 . S
C617 C616 1.398 . S
C617 H639 0.928 1_545 S
C618 O628 1.271 . S
C618 O629 1.251 1_545 S
C619 O630 1.252 . S
C619 O631 1.272 . S
O620 Sm600 2.543 . S
O620 C602 1.261 . S
O621 Sm600 2.450 . S
O621 C602 1.242 . S
O622 Sm600 2.681 . S
O622 Sm601 2.386 1_545 S
O622 C609 1.271 . S
O623 Sm600 2.464 . S
O623 C609 1.251 . S
O624 Sm600 2.396 1_565 S
O624 C610 1.252 . S
O625 Sm601 2.408 . S
O625 C610 1.272 . S
O626 Sm601 2.543 1_545 S
O626 C611 1.261 . S
O627 Sm601 2.450 . S
O627 C611 1.242 1_565 S
O628 Sm600 2.386 . S
O628 Sm601 2.681 1_545 S
O628 C618 1.271 . S
O629 Sm601 2.464 . S
O629 C618 1.251 1_565 S
O630 Sm601 2.396 1_545 S
O630 C619 1.252 . S
O631 Sm600 2.408 . S
O631 C619 1.272 . S
H632 C604 0.930 . S
H633 C605 0.929 . S
H634 C607 0.923 1_545 S
H635 C608 0.929 . S
H636 C613 0.930 . S
H637 C614 0.929 . S
H638 C616 0.930 . S
H639 C617 0.928 1_565 S
Sm640 C642 2.846 . S
Sm640 O660 2.543 . S
Sm640 O661 2.450 . S
Sm640 O662 2.681 . S
Sm640 O663 2.464 . S
Sm640 O664 2.396 . S
Sm640 O668 2.386 . S
Sm640 O671 2.408 . S
Sm641 C651 2.846 . S
Sm641 O662 2.386 . S
Sm641 O665 2.408 . S
Sm641 O666 2.543 . S
Sm641 O667 2.450 . S
Sm641 O668 2.681 . S
Sm641 O669 2.464 . S
Sm641 O670 2.396 . S
C642 Sm640 2.846 . S
C642 C643 1.506 . S
C642 O660 1.261 . S
C642 O661 1.242 . S
C643 C642 1.506 . S
C643 C644 1.358 . S
C643 C648 1.382 . S
C644 C643 1.358 . S
C644 C645 1.385 . S
C644 H672 0.930 . S
C645 C644 1.385 . S
C645 C646 1.395 . S
C645 H673 0.929 . S
C646 C645 1.395 . S
C646 C647 1.335 . S
C647 C646 1.335 . S
C647 C648 1.398 . S
C647 H674 0.930 . S
C648 C643 1.382 . S
C648 C647 1.398 . S
C648 H675 0.929 . S
C649 O662 1.271 . S
C649 O663 1.251 . S
C650 O664 1.252 . S
C650 O665 1.272 . S
C651 Sm641 2.846 . S
C651 C652 1.506 . S
C651 O666 1.261 . S
C651 O667 1.242 . S
C652 C651 1.506 . S
C652 C653 1.358 . S
C652 C657 1.382 . S
C653 C652 1.358 . S
C653 C654 1.385 . S
C653 H676 0.930 . S
C654 C653 1.385 . S
C654 C655 1.395 . S
C654 H677 0.929 . S
C655 C654 1.395 . S
C655 C656 1.335 . S
C656 C655 1.335 . S
C656 C657 1.398 . S
C656 H678 0.930 . S
C657 C652 1.382 . S
C657 C656 1.398 . S
C657 H679 0.929 . S
C658 O668 1.271 . S
C658 O669 1.251 . S
C659 O670 1.252 . S
C659 O671 1.272 . S
O660 Sm640 2.543 . S
O660 C642 1.261 . S
O661 Sm640 2.450 . S
O661 C642 1.242 . S
O662 Sm640 2.681 . S
O662 Sm641 2.386 . S
O662 C649 1.271 . S
O663 Sm640 2.464 . S
O663 C649 1.251 . S
O664 Sm640 2.396 . S
O664 C650 1.252 . S
O665 Sm641 2.408 . S
O665 C650 1.272 . S
O666 Sm641 2.543 . S
O666 C651 1.261 . S
O667 Sm641 2.450 . S
O667 C651 1.242 . S
O668 Sm640 2.386 . S
O668 Sm641 2.681 . S
O668 C658 1.271 . S
O669 Sm641 2.464 . S
O669 C658 1.251 . S
O670 Sm641 2.396 . S
O670 C659 1.252 . S
O671 Sm640 2.408 . S
O671 C659 1.272 . S
H672 C644 0.930 . S
H673 C645 0.929 . S
H674 C647 0.930 . S
H675 C648 0.929 . S
H676 C653 0.930 . S
H677 C654 0.929 . S
H678 C656 0.930 . S
H679 C657 0.929 . S
Sm680 C682 2.846 . S
Sm680 O700 2.543 . S
Sm680 O701 2.450 . S
Sm680 O702 2.681 . S
Sm680 O703 2.464 . S
Sm680 O704 2.396 . S
Sm680 O708 2.386 . S
Sm680 O711 2.408 . S
Sm681 C691 2.846 . S
Sm681 O702 2.386 . S
Sm681 O705 2.408 . S
Sm681 O706 2.543 . S
Sm681 O707 2.450 . S
Sm681 O708 2.681 . S
Sm681 O709 2.464 . S
Sm681 O710 2.396 . S
C682 Sm680 2.846 . S
C682 C683 1.506 . S
C682 O700 1.261 . S
C682 O701 1.242 . S
C683 C682 1.506 . S
C683 C684 1.358 . S
C683 C688 1.382 . S
C684 C683 1.358 . S
C684 C685 1.385 . S
C684 H712 0.930 . S
C685 C684 1.385 . S
C685 C686 1.395 . S
C685 H713 0.929 . S
C686 C685 1.395 . S
C686 C687 1.335 . S
C687 C686 1.335 . S
C687 C688 1.398 . S
C687 H714 0.930 . S
C688 C683 1.382 . S
C688 C687 1.398 . S
C688 H715 0.929 . S
C689 O702 1.271 . S
C689 O703 1.251 . S
C690 O704 1.252 . S
C690 O705 1.272 . S
C691 Sm681 2.846 . S
C691 C692 1.506 . S
C691 O706 1.261 . S
C691 O707 1.242 . S
C692 C691 1.506 . S
C692 C693 1.358 . S
C692 C697 1.382 . S
C693 C692 1.358 . S
C693 C694 1.385 . S
C693 H716 0.930 . S
C694 C693 1.385 . S
C694 C695 1.395 . S
C694 H717 0.929 . S
C695 C694 1.395 . S
C695 C696 1.335 . S
C696 C695 1.335 . S
C696 C697 1.398 . S
C696 H718 0.930 . S
C697 C692 1.382 . S
C697 C696 1.398 . S
C697 H719 0.929 . S
C698 O708 1.271 . S
C698 O709 1.251 . S
C699 O710 1.252 . S
C699 O711 1.272 . S
O700 Sm680 2.543 . S
O700 C682 1.261 . S
O701 Sm680 2.450 . S
O701 C682 1.242 . S
O702 Sm680 2.681 . S
O702 Sm681 2.386 . S
O702 C689 1.271 . S
O703 Sm680 2.464 . S
O703 C689 1.251 . S
O704 Sm680 2.396 . S
O704 C690 1.252 . S
O705 Sm681 2.408 . S
O705 C690 1.272 . S
O706 Sm681 2.543 . S
O706 C691 1.261 . S
O707 Sm681 2.450 . S
O707 C691 1.242 . S
O708 Sm680 2.386 . S
O708 Sm681 2.681 . S
O708 C698 1.271 . S
O709 Sm681 2.464 . S
O709 C698 1.251 . S
O710 Sm681 2.396 . S
O710 C699 1.252 . S
O711 Sm680 2.408 . S
O711 C699 1.272 . S
H712 C684 0.930 . S
H713 C685 0.929 . S
H714 C687 0.930 . S
H715 C688 0.929 . S
H716 C693 0.930 . S
H717 C694 0.929 . S
H718 C696 0.930 . S
H719 C697 0.929 . S
Sm720 C722 2.846 . S
Sm720 O740 2.543 . S
Sm720 O741 2.450 . S
Sm720 O742 2.681 . S
Sm720 O743 2.464 . S
Sm720 O744 2.396 . S
Sm720 O748 2.386 . S
Sm720 O751 2.408 . S
Sm721 C731 2.846 . S
Sm721 O742 2.386 . S
Sm721 O745 2.408 . S
Sm721 O746 2.543 . S
Sm721 O747 2.450 . S
Sm721 O748 2.681 . S
Sm721 O749 2.464 . S
Sm721 O750 2.396 . S
C722 Sm720 2.846 . S
C722 C723 1.506 . S
C722 O740 1.261 . S
C722 O741 1.242 . S
C723 C722 1.506 . S
C723 C724 1.358 . S
C723 C728 1.382 . S
C724 C723 1.358 . S
C724 C725 1.385 . S
C724 H752 0.930 . S
C725 C724 1.385 . S
C725 C726 1.395 . S
C725 H753 0.929 . S
C726 C725 1.395 . S
C726 C727 1.335 . S
C727 C726 1.335 . S
C727 C728 1.398 . S
C727 H754 0.930 . S
C728 C723 1.382 . S
C728 C727 1.398 . S
C728 H755 0.929 . S
C729 O742 1.271 . S
C729 O743 1.251 . S
C730 O744 1.252 . S
C730 O745 1.272 . S
C731 Sm721 2.846 . S
C731 C732 1.506 . S
C731 O746 1.261 . S
C731 O747 1.242 . S
C732 C731 1.506 . S
C732 C733 1.358 . S
C732 C737 1.382 . S
C733 C732 1.358 . S
C733 C734 1.385 . S
C733 H756 0.930 . S
C734 C733 1.385 . S
C734 C735 1.395 . S
C734 H757 0.929 . S
C735 C734 1.395 . S
C735 C736 1.335 . S
C736 C735 1.335 . S
C736 C737 1.398 . S
C736 H758 0.930 . S
C737 C732 1.382 . S
C737 C736 1.398 . S
C737 H759 0.929 . S
C738 O748 1.271 . S
C738 O749 1.251 . S
C739 O750 1.252 . S
C739 O751 1.272 . S
O740 Sm720 2.543 . S
O740 C722 1.261 . S
O741 Sm720 2.450 . S
O741 C722 1.242 . S
O742 Sm720 2.681 . S
O742 Sm721 2.386 . S
O742 C729 1.271 . S
O743 Sm720 2.464 . S
O743 C729 1.251 . S
O744 Sm720 2.396 . S
O744 C730 1.252 . S
O745 Sm721 2.408 . S
O745 C730 1.272 . S
O746 Sm721 2.543 . S
O746 C731 1.261 . S
O747 Sm721 2.450 . S
O747 C731 1.242 . S
O748 Sm720 2.386 . S
O748 Sm721 2.681 . S
O748 C738 1.271 . S
O749 Sm721 2.464 . S
O749 C738 1.251 . S
O750 Sm721 2.396 . S
O750 C739 1.252 . S
O751 Sm720 2.408 . S
O751 C739 1.272 . S
H752 C724 0.930 . S
H753 C725 0.929 . S
H754 C727 0.930 . S
H755 C728 0.929 . S
H756 C733 0.930 . S
H757 C734 0.929 . S
H758 C736 0.930 . S
H759 C737 0.929 . S
Sm760 C762 2.846 . S
Sm760 O780 2.543 . S
Sm760 O781 2.450 . S
Sm760 O782 2.681 . S
Sm760 O783 2.464 . S
Sm760 O784 2.396 . S
Sm760 O788 2.386 . S
Sm760 O791 2.408 . S
Sm761 C771 2.846 . S
Sm761 O782 2.386 . S
Sm761 O785 2.408 . S
Sm761 O786 2.543 . S
Sm761 O787 2.450 . S
Sm761 O788 2.681 . S
Sm761 O789 2.464 . S
Sm761 O790 2.396 . S
C762 Sm760 2.846 . S
C762 C763 1.506 . S
C762 O780 1.261 . S
C762 O781 1.242 . S
C763 C762 1.506 . S
C763 C764 1.358 . S
C763 C768 1.382 . S
C764 C763 1.358 . S
C764 C765 1.385 . S
C764 H792 0.930 . S
C765 C764 1.385 . S
C765 C766 1.395 . S
C765 H793 0.929 . S
C766 C765 1.395 . S
C766 C767 1.335 . S
C767 C766 1.335 . S
C767 C768 1.398 . S
C767 H794 0.930 . S
C768 C763 1.382 . S
C768 C767 1.398 . S
C768 H795 0.929 . S
C769 O782 1.271 . S
C769 O783 1.251 . S
C770 O784 1.252 . S
C770 O785 1.272 . S
C771 Sm761 2.846 . S
C771 C772 1.506 . S
C771 O786 1.261 . S
C771 O787 1.242 . S
C772 C771 1.506 . S
C772 C773 1.358 . S
C772 C777 1.382 . S
C773 C772 1.358 . S
C773 C774 1.385 . S
C773 H796 0.930 . S
C774 C773 1.385 . S
C774 C775 1.395 . S
C774 H797 0.929 . S
C775 C774 1.395 . S
C775 C776 1.335 . S
C776 C775 1.335 . S
C776 C777 1.398 . S
C776 H798 0.930 . S
C777 C772 1.382 . S
C777 C776 1.398 . S
C777 H799 0.929 . S
C778 O788 1.271 . S
C778 O789 1.251 . S
C779 O790 1.252 . S
C779 O791 1.272 . S
O780 Sm760 2.543 . S
O780 C762 1.261 . S
O781 Sm760 2.450 . S
O781 C762 1.242 . S
O782 Sm760 2.681 . S
O782 Sm761 2.386 . S
O782 C769 1.271 . S
O783 Sm760 2.464 . S
O783 C769 1.251 . S
O784 Sm760 2.396 . S
O784 C770 1.252 . S
O785 Sm761 2.408 . S
O785 C770 1.272 . S
O786 Sm761 2.543 . S
O786 C771 1.261 . S
O787 Sm761 2.450 . S
O787 C771 1.242 . S
O788 Sm760 2.386 . S
O788 Sm761 2.681 . S
O788 C778 1.271 . S
O789 Sm761 2.464 . S
O789 C778 1.251 . S
O790 Sm761 2.396 . S
O790 C779 1.252 . S
O791 Sm760 2.408 . S
O791 C779 1.272 . S
H792 C764 0.930 . S
H793 C765 0.929 . S
H794 C767 0.930 . S
H795 C768 0.929 . S
H796 C773 0.930 . S
H797 C774 0.929 . S
H798 C776 0.930 . S
H799 C777 0.929 . S
Sm800 C802 2.846 . S
Sm800 O820 2.543 . S
Sm800 O821 2.450 . S
Sm800 O822 2.681 . S
Sm800 O823 2.464 . S
Sm800 O824 2.396 . S
Sm800 O828 2.386 . S
Sm800 O831 2.408 . S
Sm801 C811 2.846 . S
Sm801 O822 2.386 . S
Sm801 O825 2.408 . S
Sm801 O826 2.543 . S
Sm801 O827 2.450 . S
Sm801 O828 2.681 . S
Sm801 O829 2.464 . S
Sm801 O830 2.396 . S
C802 Sm800 2.846 . S
C802 C803 1.506 . S
C802 O820 1.261 . S
C802 O821 1.242 . S
C803 C802 1.506 . S
C803 C804 1.358 . S
C803 C808 1.382 . S
C804 C803 1.358 . S
C804 C805 1.385 . S
C804 H832 0.930 . S
C805 C804 1.385 . S
C805 C806 1.395 . S
C805 H833 0.929 . S
C806 C805 1.395 . S
C806 C807 1.335 . S
C807 C806 1.335 . S
C807 C808 1.398 . S
C807 H834 0.930 . S
C808 C803 1.382 . S
C808 C807 1.398 . S
C808 H835 0.929 . S
C809 O822 1.271 . S
C809 O823 1.251 . S
C810 O824 1.252 . S
C810 O825 1.272 . S
C811 Sm801 2.846 . S
C811 C812 1.506 . S
C811 O826 1.261 . S
C811 O827 1.242 . S
C812 C811 1.506 . S
C812 C813 1.358 . S
C812 C817 1.382 . S
C813 C812 1.358 . S
C813 C814 1.385 . S
C813 H836 0.930 . S
C814 C813 1.385 . S
C814 C815 1.395 . S
C814 H837 0.929 . S
C815 C814 1.395 . S
C815 C816 1.335 . S
C816 C815 1.335 . S
C816 C817 1.398 . S
C816 H838 0.930 . S
C817 C812 1.382 . S
C817 C816 1.398 . S
C817 H839 0.929 . S
C818 O828 1.271 . S
C818 O829 1.251 . S
C819 O830 1.252 . S
C819 O831 1.272 . S
O820 Sm800 2.543 . S
O820 C802 1.261 . S
O821 Sm800 2.450 . S
O821 C802 1.242 . S
O822 Sm800 2.681 . S
O822 Sm801 2.386 . S
O822 C809 1.271 . S
O823 Sm800 2.464 . S
O823 C809 1.251 . S
O824 Sm800 2.396 . S
O824 C810 1.252 . S
O825 Sm801 2.408 . S
O825 C810 1.272 . S
O826 Sm801 2.543 . S
O826 C811 1.261 . S
O827 Sm801 2.450 . S
O827 C811 1.242 . S
O828 Sm800 2.386 . S
O828 Sm801 2.681 . S
O828 C818 1.271 . S
O829 Sm801 2.464 . S
O829 C818 1.251 . S
O830 Sm801 2.396 . S
O830 C819 1.252 . S
O831 Sm800 2.408 . S
O831 C819 1.272 . S
H832 C804 0.930 . S
H833 C805 0.929 . S
H834 C807 0.930 . S
H835 C808 0.929 . S
H836 C813 0.930 . S
H837 C814 0.929 . S
H838 C816 0.930 . S
H839 C817 0.929 . S
Sm840 C842 2.846 . S
Sm840 O860 2.543 . S
Sm840 O861 2.450 . S
Sm840 O862 2.681 . S
Sm840 O863 2.464 . S
Sm840 O864 2.396 . S
Sm840 O868 2.386 . S
Sm840 O871 2.408 . S
Sm841 C851 2.846 . S
Sm841 O862 2.386 . S
Sm841 O865 2.408 . S
Sm841 O866 2.543 . S
Sm841 O867 2.450 . S
Sm841 O868 2.681 . S
Sm841 O869 2.464 . S
Sm841 O870 2.396 . S
C842 Sm840 2.846 . S
C842 C843 1.506 . S
C842 O860 1.261 . S
C842 O861 1.242 . S
C843 C842 1.506 . S
C843 C844 1.358 . S
C843 C848 1.382 . S
C844 C843 1.358 . S
C844 C845 1.385 . S
C844 H872 0.930 . S
C845 C844 1.385 . S
C845 C846 1.395 . S
C845 H873 0.929 . S
C846 C845 1.395 . S
C846 C847 1.335 . S
C847 C846 1.335 . S
C847 C848 1.398 . S
C847 H874 0.930 . S
C848 C843 1.382 . S
C848 C847 1.398 . S
C848 H875 0.929 . S
C849 O862 1.271 . S
C849 O863 1.251 . S
C850 O864 1.252 . S
C850 O865 1.272 . S
C851 Sm841 2.846 . S
C851 C852 1.506 . S
C851 O866 1.261 . S
C851 O867 1.242 . S
C852 C851 1.506 . S
C852 C853 1.358 . S
C852 C857 1.382 . S
C853 C852 1.358 . S
C853 C854 1.385 . S
C853 H876 0.930 . S
C854 C853 1.385 . S
C854 C855 1.395 . S
C854 H877 0.929 . S
C855 C854 1.395 . S
C855 C856 1.335 . S
C856 C855 1.335 . S
C856 C857 1.398 . S
C856 H878 0.930 . S
C857 C852 1.382 . S
C857 C856 1.398 . S
C857 H879 0.929 . S
C858 O868 1.271 . S
C858 O869 1.251 . S
C859 O870 1.252 . S
C859 O871 1.272 . S
O860 Sm840 2.543 . S
O860 C842 1.261 . S
O861 Sm840 2.450 . S
O861 C842 1.242 . S
O862 Sm840 2.681 . S
O862 Sm841 2.386 . S
O862 C849 1.271 . S
O863 Sm840 2.464 . S
O863 C849 1.251 . S
O864 Sm840 2.396 . S
O864 C850 1.252 . S
O865 Sm841 2.408 . S
O865 C850 1.272 . S
O866 Sm841 2.543 . S
O866 C851 1.261 . S
O867 Sm841 2.450 . S
O867 C851 1.242 . S
O868 Sm840 2.386 . S
O868 Sm841 2.681 . S
O868 C858 1.271 . S
O869 Sm841 2.464 . S
O869 C858 1.251 . S
O870 Sm841 2.396 . S
O870 C859 1.252 . S
O871 Sm840 2.408 . S
O871 C859 1.272 . S
H872 C844 0.930 . S
H873 C845 0.929 . S
H874 C847 0.930 . S
H875 C848 0.929 . S
H876 C853 0.930 . S
H877 C854 0.929 . S
H878 C856 0.930 . S
H879 C857 0.929 . S
Sm880 C882 2.846 . S
Sm880 O900 2.543 . S
Sm880 O901 2.450 . S
Sm880 O902 2.681 . S
Sm880 O903 2.464 . S
Sm880 O904 2.396 . S
Sm880 O908 2.386 . S
Sm880 O911 2.408 . S
Sm881 C891 2.846 . S
Sm881 O902 2.386 . S
Sm881 O905 2.408 . S
Sm881 O906 2.543 . S
Sm881 O907 2.450 . S
Sm881 O908 2.681 . S
Sm881 O909 2.464 . S
Sm881 O910 2.396 . S
C882 Sm880 2.846 . S
C882 C883 1.506 . S
C882 O900 1.261 . S
C882 O901 1.242 . S
C883 C882 1.506 . S
C883 C884 1.358 . S
C883 C888 1.382 . S
C884 C883 1.358 . S
C884 C885 1.385 . S
C884 H912 0.930 . S
C885 C884 1.385 . S
C885 C886 1.395 . S
C885 H913 0.929 . S
C886 C885 1.395 . S
C886 C887 1.335 . S
C887 C886 1.335 . S
C887 C888 1.398 . S
C887 H914 0.930 . S
C888 C883 1.382 . S
C888 C887 1.398 . S
C888 H915 0.929 . S
C889 O902 1.271 . S
C889 O903 1.251 . S
C890 O904 1.252 . S
C890 O905 1.272 . S
C891 Sm881 2.846 . S
C891 C892 1.506 . S
C891 O906 1.261 . S
C891 O907 1.242 . S
C892 C891 1.506 . S
C892 C893 1.358 . S
C892 C897 1.382 . S
C893 C892 1.358 . S
C893 C894 1.385 . S
C893 H916 0.930 . S
C894 C893 1.385 . S
C894 C895 1.395 . S
C894 H917 0.929 . S
C895 C894 1.395 . S
C895 C896 1.335 . S
C896 C895 1.335 . S
C896 C897 1.398 . S
C896 H918 0.930 . S
C897 C892 1.382 . S
C897 C896 1.398 . S
C897 H919 0.929 . S
C898 O908 1.271 . S
C898 O909 1.251 . S
C899 O910 1.252 . S
C899 O911 1.272 . S
O900 Sm880 2.543 . S
O900 C882 1.261 . S
O901 Sm880 2.450 . S
O901 C882 1.242 . S
O902 Sm880 2.681 . S
O902 Sm881 2.386 . S
O902 C889 1.271 . S
O903 Sm880 2.464 . S
O903 C889 1.251 . S
O904 Sm880 2.396 . S
O904 C890 1.252 . S
O905 Sm881 2.408 . S
O905 C890 1.272 . S
O906 Sm881 2.543 . S
O906 C891 1.261 . S
O907 Sm881 2.450 . S
O907 C891 1.242 . S
O908 Sm880 2.386 . S
O908 Sm881 2.681 . S
O908 C898 1.271 . S
O909 Sm881 2.464 . S
O909 C898 1.251 . S
O910 Sm881 2.396 . S
O910 C899 1.252 . S
O911 Sm880 2.408 . S
O911 C899 1.272 . S
H912 C884 0.930 . S
H913 C885 0.929 . S
H914 C887 0.930 . S
H915 C888 0.929 . S
H916 C893 0.930 . S
H917 C894 0.929 . S
H918 C896 0.930 . S
H919 C897 0.929 . S
Sm920 C922 2.846 . S
Sm920 O940 2.543 . S
Sm920 O941 2.450 . S
Sm920 O942 2.681 . S
Sm920 O943 2.464 . S
Sm920 O944 2.396 . S
Sm920 O948 2.386 . S
Sm920 O951 2.408 . S
Sm921 C931 2.846 . S
Sm921 O942 2.386 . S
Sm921 O945 2.408 . S
Sm921 O946 2.543 . S
Sm921 O947 2.450 . S
Sm921 O948 2.681 . S
Sm921 O949 2.464 . S
Sm921 O950 2.396 . S
C922 Sm920 2.846 . S
C922 C923 1.506 . S
C922 O940 1.261 . S
C922 O941 1.242 . S
C923 C922 1.506 . S
C923 C924 1.358 . S
C923 C928 1.382 . S
C924 C923 1.358 . S
C924 C925 1.385 . S
C924 H952 0.930 . S
C925 C924 1.385 . S
C925 C926 1.395 . S
C925 H953 0.929 . S
C926 C925 1.395 . S
C926 C927 1.335 . S
C927 C926 1.335 . S
C927 C928 1.398 . S
C927 H954 0.930 . S
C928 C923 1.382 . S
C928 C927 1.398 . S
C928 H955 0.929 . S
C929 O942 1.271 . S
C929 O943 1.251 . S
C930 O944 1.252 . S
C930 O945 1.272 . S
C931 Sm921 2.846 . S
C931 C932 1.506 . S
C931 O946 1.261 . S
C931 O947 1.242 . S
C932 C931 1.506 . S
C932 C933 1.358 . S
C932 C937 1.382 . S
C933 C932 1.358 . S
C933 C934 1.385 . S
C933 H956 0.930 . S
C934 C933 1.385 . S
C934 C935 1.395 . S
C934 H957 0.929 . S
C935 C934 1.395 . S
C935 C936 1.335 . S
C936 C935 1.335 . S
C936 C937 1.398 . S
C936 H958 0.930 . S
C937 C932 1.382 . S
C937 C936 1.398 . S
C937 H959 0.929 . S
C938 O948 1.271 . S
C938 O949 1.251 . S
C939 O950 1.252 . S
C939 O951 1.272 . S
O940 Sm920 2.543 . S
O940 C922 1.261 . S
O941 Sm920 2.450 . S
O941 C922 1.242 . S
O942 Sm920 2.681 . S
O942 Sm921 2.386 . S
O942 C929 1.271 . S
O943 Sm920 2.464 . S
O943 C929 1.251 . S
O944 Sm920 2.396 . S
O944 C930 1.252 . S
O945 Sm921 2.408 . S
O945 C930 1.272 . S
O946 Sm921 2.543 . S
O946 C931 1.261 . S
O947 Sm921 2.450 . S
O947 C931 1.242 . S
O948 Sm920 2.386 . S
O948 Sm921 2.681 . S
O948 C938 1.271 . S
O949 Sm921 2.464 . S
O949 C938 1.251 . S
O950 Sm921 2.396 . S
O950 C939 1.252 . S
O951 Sm920 2.408 . S
O951 C939 1.272 . S
H952 C924 0.930 . S
H953 C925 0.929 . S
H954 C927 0.930 . S
H955 C928 0.929 . S
H956 C933 0.930 . S
H957 C934 0.929 . S
H958 C936 0.930 . S
H959 C937 0.929 . S
Sm960 C962 2.846 1_545 S
Sm960 O980 2.543 1_545 S
Sm960 O981 2.450 . S
Sm960 O982 2.681 1_545 S
Sm960 O983 2.464 . S
Sm960 O984 2.396 1_545 S
Sm960 O988 2.386 1_545 S
Sm960 O991 2.408 . S
Sm961 C971 2.846 . S
Sm961 O982 2.386 . S
Sm961 O985 2.408 . S
Sm961 O986 2.543 . S
Sm961 O987 2.450 . S
Sm961 O988 2.681 . S
Sm961 O989 2.464 . S
Sm961 O990 2.396 1_565 S
C962 Sm960 2.846 1_565 S
C962 C963 1.506 . S
C962 O980 1.261 . S
C962 O981 1.242 1_565 S
C963 C962 1.506 . S
C963 C964 1.358 . S
C963 C968 1.382 . S
C964 C963 1.358 . S
C964 C965 1.385 . S
C964 H992 0.930 . S
C965 C964 1.385 . S
C965 C966 1.395 . S
C965 H993 0.929 . S
C966 C965 1.395 . S
C966 C967 1.335 . S
C967 C966 1.335 . S
C967 C968 1.398 . S
C967 H994 0.930 . S
C968 C963 1.382 . S
C968 C967 1.398 . S
C968 H995 0.928 1_565 S
C969 O982 1.271 . S
C969 O983 1.251 1_565 S
C970 O984 1.252 . S
C970 O985 1.272 . S
C971 Sm961 2.846 . S
C971 C972 1.506 . S
C971 O986 1.261 . S
C971 O987 1.242 . S
C972 C971 1.506 . S
C972 C973 1.358 1_565 S
C972 C977 1.382 . S
C973 C972 1.358 1_545 S
C973 C974 1.385 . S
C973 H996 0.930 . S
C974 C973 1.385 . S
C974 C975 1.395 . S
C974 H997 0.929 . S
C975 C974 1.395 . S
C975 C976 1.352 . S
C976 C975 1.352 . S
C976 C977 1.389 1_545 S
C976 H998 0.923 1_545 S
C977 C972 1.382 . S
C977 C976 1.389 1_565 S
C977 H999 0.929 . S
C978 O988 1.271 . S
C978 O989 1.251 . S
C979 O990 1.252 . S
C979 O991 1.272 . S
O980 Sm960 2.543 1_565 S
O980 C962 1.261 . S
O981 Sm960 2.450 . S
O981 C962 1.242 1_545 S
O982 Sm960 2.681 1_565 S
O982 Sm961 2.386 . S
O982 C969 1.271 . S
O983 Sm960 2.464 . S
O983 C969 1.251 1_545 S
O984 Sm960 2.396 1_565 S
O984 C970 1.252 . S
O985 Sm961 2.408 . S
O985 C970 1.272 . S
O986 Sm961 2.543 . S
O986 C971 1.261 . S
O987 Sm961 2.450 . S
O987 C971 1.242 . S
O988 Sm960 2.386 1_565 S
O988 Sm961 2.681 . S
O988 C978 1.271 . S
O989 Sm961 2.464 . S
O989 C978 1.251 . S
O990 Sm961 2.396 1_545 S
O990 C979 1.252 . S
O991 Sm960 2.408 . S
O991 C979 1.272 . S
H992 C964 0.930 . S
H993 C965 0.929 . S
H994 C967 0.930 . S
H995 C968 0.928 1_545 S
H996 C973 0.930 . S
H997 C974 0.929 . S
H998 C976 0.923 1_565 S
H999 C977 0.929 . S
Sm1000 C1002 2.846 . S
Sm1000 O1020 2.543 . S
Sm1000 O1021 2.450 . S
Sm1000 O1022 2.681 . S
Sm1000 O1023 2.464 . S
Sm1000 O1024 2.396 . S
Sm1000 O1028 2.386 . S
Sm1000 O1031 2.408 . S
Sm1001 C1011 2.846 . S
Sm1001 O1022 2.386 . S
Sm1001 O1025 2.408 . S
Sm1001 O1026 2.543 . S
Sm1001 O1027 2.450 . S
Sm1001 O1028 2.681 . S
Sm1001 O1029 2.464 . S
Sm1001 O1030 2.396 . S
C1002 Sm1000 2.846 . S
C1002 C1003 1.506 . S
C1002 O1020 1.261 . S
C1002 O1021 1.242 . S
C1003 C1002 1.506 . S
C1003 C1004 1.358 . S
C1003 C1008 1.382 . S
C1004 C1003 1.358 . S
C1004 C1005 1.385 . S
C1004 H1032 0.930 . S
C1005 C1004 1.385 . S
C1005 C1006 1.395 . S
C1005 H1033 0.929 . S
C1006 C1005 1.395 . S
C1006 C1007 1.335 . S
C1007 C1006 1.335 . S
C1007 C1008 1.398 . S
C1007 H1034 0.930 . S
C1008 C1003 1.382 . S
C1008 C1007 1.398 . S
C1008 H1035 0.929 . S
C1009 O1022 1.271 . S
C1009 O1023 1.251 . S
C1010 O1024 1.252 . S
C1010 O1025 1.272 . S
C1011 Sm1001 2.846 . S
C1011 C1012 1.506 . S
C1011 O1026 1.261 . S
C1011 O1027 1.242 . S
C1012 C1011 1.506 . S
C1012 C1013 1.358 . S
C1012 C1017 1.382 . S
C1013 C1012 1.358 . S
C1013 C1014 1.385 . S
C1013 H1036 0.930 . S
C1014 C1013 1.385 . S
C1014 C1015 1.395 . S
C1014 H1037 0.929 . S
C1015 C1014 1.395 . S
C1015 C1016 1.335 . S
C1016 C1015 1.335 . S
C1016 C1017 1.398 . S
C1016 H1038 0.930 . S
C1017 C1012 1.382 . S
C1017 C1016 1.398 . S
C1017 H1039 0.929 . S
C1018 O1028 1.271 . S
C1018 O1029 1.251 . S
C1019 O1030 1.252 . S
C1019 O1031 1.272 . S
O1020 Sm1000 2.543 . S
O1020 C1002 1.261 . S
O1021 Sm1000 2.450 . S
O1021 C1002 1.242 . S
O1022 Sm1000 2.681 . S
O1022 Sm1001 2.386 . S
O1022 C1009 1.271 . S
O1023 Sm1000 2.464 . S
O1023 C1009 1.251 . S
O1024 Sm1000 2.396 . S
O1024 C1010 1.252 . S
O1025 Sm1001 2.408 . S
O1025 C1010 1.272 . S
O1026 Sm1001 2.543 . S
O1026 C1011 1.261 . S
O1027 Sm1001 2.450 . S
O1027 C1011 1.242 . S
O1028 Sm1000 2.386 . S
O1028 Sm1001 2.681 . S
O1028 C1018 1.271 . S
O1029 Sm1001 2.464 . S
O1029 C1018 1.251 . S
O1030 Sm1001 2.396 . S
O1030 C1019 1.252 . S
O1031 Sm1000 2.408 . S
O1031 C1019 1.272 . S
H1032 C1004 0.930 . S
H1033 C1005 0.929 . S
H1034 C1007 0.930 . S
H1035 C1008 0.929 . S
H1036 C1013 0.930 . S
H1037 C1014 0.929 . S
H1038 C1016 0.930 . S
H1039 C1017 0.929 . S
Sm1040 C1042 2.846 . S
Sm1040 O1060 2.543 . S
Sm1040 O1061 2.450 . S
Sm1040 O1062 2.681 . S
Sm1040 O1063 2.464 . S
Sm1040 O1064 2.396 . S
Sm1040 O1068 2.386 . S
Sm1040 O1071 2.408 . S
Sm1041 C1051 2.846 . S
Sm1041 O1062 2.386 . S
Sm1041 O1065 2.408 . S
Sm1041 O1066 2.543 . S
Sm1041 O1067 2.450 . S
Sm1041 O1068 2.681 . S
Sm1041 O1069 2.464 . S
Sm1041 O1070 2.396 . S
C1042 Sm1040 2.846 . S
C1042 C1043 1.506 . S
C1042 O1060 1.261 . S
C1042 O1061 1.242 . S
C1043 C1042 1.506 . S
C1043 C1044 1.358 . S
C1043 C1048 1.382 . S
C1044 C1043 1.358 . S
C1044 C1045 1.385 . S
C1044 H1072 0.930 . S
C1045 C1044 1.385 . S
C1045 C1046 1.395 . S
C1045 H1073 0.929 . S
C1046 C1045 1.395 . S
C1046 C1047 1.335 . S
C1047 C1046 1.335 . S
C1047 C1048 1.398 . S
C1047 H1074 0.930 . S
C1048 C1043 1.382 . S
C1048 C1047 1.398 . S
C1048 H1075 0.929 . S
C1049 O1062 1.271 . S
C1049 O1063 1.251 . S
C1050 O1064 1.252 . S
C1050 O1065 1.272 . S
C1051 Sm1041 2.846 . S
C1051 C1052 1.506 . S
C1051 O1066 1.261 . S
C1051 O1067 1.242 . S
C1052 C1051 1.506 . S
C1052 C1053 1.358 . S
C1052 C1057 1.382 . S
C1053 C1052 1.358 . S
C1053 C1054 1.385 . S
C1053 H1076 0.930 . S
C1054 C1053 1.385 . S
C1054 C1055 1.395 . S
C1054 H1077 0.929 . S
C1055 C1054 1.395 . S
C1055 C1056 1.335 . S
C1056 C1055 1.335 . S
C1056 C1057 1.398 . S
C1056 H1078 0.930 . S
C1057 C1052 1.382 . S
C1057 C1056 1.398 . S
C1057 H1079 0.929 . S
C1058 O1068 1.271 . S
C1058 O1069 1.251 . S
C1059 O1070 1.252 . S
C1059 O1071 1.272 . S
O1060 Sm1040 2.543 . S
O1060 C1042 1.261 . S
O1061 Sm1040 2.450 . S
O1061 C1042 1.242 . S
O1062 Sm1040 2.681 . S
O1062 Sm1041 2.386 . S
O1062 C1049 1.271 . S
O1063 Sm1040 2.464 . S
O1063 C1049 1.251 . S
O1064 Sm1040 2.396 . S
O1064 C1050 1.252 . S
O1065 Sm1041 2.408 . S
O1065 C1050 1.272 . S
O1066 Sm1041 2.543 . S
O1066 C1051 1.261 . S
O1067 Sm1041 2.450 . S
O1067 C1051 1.242 . S
O1068 Sm1040 2.386 . S
O1068 Sm1041 2.681 . S
O1068 C1058 1.271 . S
O1069 Sm1041 2.464 . S
O1069 C1058 1.251 . S
O1070 Sm1041 2.396 . S
O1070 C1059 1.252 . S
O1071 Sm1040 2.408 . S
O1071 C1059 1.272 . S
H1072 C1044 0.930 . S
H1073 C1045 0.929 . S
H1074 C1047 0.930 . S
H1075 C1048 0.929 . S
H1076 C1053 0.930 . S
H1077 C1054 0.929 . S
H1078 C1056 0.930 . S
H1079 C1057 0.929 . S
Sm1080 C1082 2.846 1_545 S
Sm1080 O1100 2.543 1_545 S
Sm1080 O1101 2.450 . S
Sm1080 O1102 2.681 1_545 S
Sm1080 O1103 2.464 . S
Sm1080 O1104 2.396 1_545 S
Sm1080 O1108 2.386 1_545 S
Sm1080 O1111 2.408 . S
Sm1081 C1091 2.846 . S
Sm1081 O1102 2.386 . S
Sm1081 O1105 2.408 . S
Sm1081 O1106 2.543 . S
Sm1081 O1107 2.450 . S
Sm1081 O1108 2.681 . S
Sm1081 O1109 2.464 . S
Sm1081 O1110 2.396 1_565 S
C1082 Sm1080 2.846 1_565 S
C1082 C1083 1.506 . S
C1082 O1100 1.261 . S
C1082 O1101 1.242 1_565 S
C1083 C1082 1.506 . S
C1083 C1084 1.358 . S
C1083 C1088 1.382 . S
C1084 C1083 1.358 . S
C1084 C1085 1.385 . S
C1084 H1112 0.930 . S
C1085 C1084 1.385 . S
C1085 C1086 1.395 . S
C1085 H1113 0.929 . S
C1086 C1085 1.395 . S
C1086 C1087 1.335 . S
C1087 C1086 1.335 . S
C1087 C1088 1.398 . S
C1087 H1114 0.930 . S
C1088 C1083 1.382 . S
C1088 C1087 1.398 . S
C1088 H1115 0.928 1_565 S
C1089 O1102 1.271 . S
C1089 O1103 1.251 1_565 S
C1090 O1104 1.252 . S
C1090 O1105 1.272 . S
C1091 Sm1081 2.846 . S
C1091 C1092 1.506 . S
C1091 O1106 1.261 . S
C1091 O1107 1.242 . S
C1092 C1091 1.506 . S
C1092 C1093 1.358 1_565 S
C1092 C1097 1.382 . S
C1093 C1092 1.358 1_545 S
C1093 C1094 1.385 . S
C1093 H1116 0.930 . S
C1094 C1093 1.385 . S
C1094 C1095 1.395 . S
C1094 H1117 0.929 . S
C1095 C1094 1.395 . S
C1095 C1096 1.352 . S
C1096 C1095 1.352 . S
C1096 C1097 1.389 1_545 S
C1096 H1118 0.923 1_545 S
C1097 C1092 1.382 . S
C1097 C1096 1.389 1_565 S
C1097 H1119 0.929 . S
C1098 O1108 1.271 . S
C1098 O1109 1.251 . S
C1099 O1110 1.252 . S
C1099 O1111 1.272 . S
O1100 Sm1080 2.543 1_565 S
O1100 C1082 1.261 . S
O1101 Sm1080 2.450 . S
O1101 C1082 1.242 1_545 S
O1102 Sm1080 2.681 1_565 S
O1102 Sm1081 2.386 . S
O1102 C1089 1.271 . S
O1103 Sm1080 2.464 . S
O1103 C1089 1.251 1_545 S
O1104 Sm1080 2.396 1_565 S
O1104 C1090 1.252 . S
O1105 Sm1081 2.408 . S
O1105 C1090 1.272 . S
O1106 Sm1081 2.543 . S
O1106 C1091 1.261 . S
O1107 Sm1081 2.450 . S
O1107 C1091 1.242 . S
O1108 Sm1080 2.386 1_565 S
O1108 Sm1081 2.681 . S
O1108 C1098 1.271 . S
O1109 Sm1081 2.464 . S
O1109 C1098 1.251 . S
O1110 Sm1081 2.396 1_545 S
O1110 C1099 1.252 . S
O1111 Sm1080 2.408 . S
O1111 C1099 1.272 . S
H1112 C1084 0.930 . S
H1113 C1085 0.929 . S
H1114 C1087 0.930 . S
H1115 C1088 0.928 1_545 S
H1116 C1093 0.930 . S
H1117 C1094 0.929 . S
H1118 C1096 0.923 1_565 S
H1119 C1097 0.929 . S
Sm1120 C1122 2.846 . S
Sm1120 O1140 2.543 . S
Sm1120 O1141 2.450 . S
Sm1120 O1142 2.681 . S
Sm1120 O1143 2.464 . S
Sm1120 O1144 2.396 1_545 S
Sm1120 O1148 2.386 . S
Sm1120 O1151 2.408 . S
Sm1121 C1131 2.846 1_565 S
Sm1121 O1142 2.386 1_565 S
Sm1121 O1145 2.408 . S
Sm1121 O1146 2.543 1_565 S
Sm1121 O1147 2.450 . S
Sm1121 O1148 2.681 1_565 S
Sm1121 O1149 2.464 . S
Sm1121 O1150 2.396 1_565 S
C1122 Sm1120 2.846 . S
C1122 C1123 1.506 . S
C1122 O1140 1.261 . S
C1122 O1141 1.242 . S
C1123 C1122 1.506 . S
C1123 C1124 1.358 1_545 S
C1123 C1128 1.382 . S
C1124 C1123 1.358 1_565 S
C1124 C1125 1.385 . S
C1124 H1152 0.930 . S
C1125 C1124 1.385 . S
C1125 C1126 1.395 . S
C1125 H1153 0.929 . S
C1126 C1125 1.395 . S
C1126 C1127 1.352 . S
C1127 C1126 1.352 . S
C1127 C1128 1.389 1_565 S
C1127 H1154 0.923 1_565 S
C1128 C1123 1.382 . S
C1128 C1127 1.389 1_545 S
C1128 H1155 0.929 . S
C1129 O1142 1.271 . S
C1129 O1143 1.251 . S
C1130 O1144 1.252 . S
C1130 O1145 1.272 . S
C1131 Sm1121 2.846 1_545 S
C1131 C1132 1.506 . S
C1131 O1146 1.261 . S
C1131 O1147 1.242 1_545 S
C1132 C1131 1.506 . S
C1132 C1133 1.358 . S
C1132 C1137 1.382 . S
C1133 C1132 1.358 . S
C1133 C1134 1.385 . S
C1133 H1156 0.930 . S
C1134 C1133 1.385 . S
C1134 C1135 1.395 . S
C1134 H1157 0.929 . S
C1135 C1134 1.395 . S
C1135 C1136 1.335 . S
C1136 C1135 1.335 . S
C1136 C1137 1.398 . S
C1136 H1158 0.930 . S
C1137 C1132 1.382 . S
C1137 C1136 1.398 . S
C1137 H1159 0.928 1_545 S
C1138 O1148 1.271 . S
C1138 O1149 1.251 1_545 S
C1139 O1150 1.252 . S
C1139 O1151 1.272 . S
O1140 Sm1120 2.543 . S
O1140 C1122 1.261 . S
O1141 Sm1120 2.450 . S
O1141 C1122 1.242 . S
O1142 Sm1120 2.681 . S
O1142 Sm1121 2.386 1_545 S
O1142 C1129 1.271 . S
O1143 Sm1120 2.464 . S
O1143 C1129 1.251 . S
O1144 Sm1120 2.396 1_565 S
O1144 C1130 1.252 . S
O1145 Sm1121 2.408 . S
O1145 C1130 1.272 . S
O1146 Sm1121 2.543 1_545 S
O1146 C1131 1.261 . S
O1147 Sm1121 2.450 . S
O1147 C1131 1.242 1_565 S
O1148 Sm1120 2.386 . S
O1148 Sm1121 2.681 1_545 S
O1148 C1138 1.271 . S
O1149 Sm1121 2.464 . S
O1149 C1138 1.251 1_565 S
O1150 Sm1121 2.396 1_545 S
O1150 C1139 1.252 . S
O1151 Sm1120 2.408 . S
O1151 C1139 1.272 . S
H1152 C1124 0.930 . S
H1153 C1125 0.929 . S
H1154 C1127 0.923 1_545 S
H1155 C1128 0.929 . S
H1156 C1133 0.930 . S
H1157 C1134 0.929 . S
H1158 C1136 0.930 . S
H1159 C1137 0.928 1_565 S
Sm1160 C1162 2.846 . S
Sm1160 O1180 2.543 . S
Sm1160 O1181 2.450 . S
Sm1160 O1182 2.681 . S
Sm1160 O1183 2.464 . S
Sm1160 O1184 2.396 . S
Sm1160 O1188 2.386 . S
Sm1160 O1191 2.408 . S
Sm1161 C1171 2.846 . S
Sm1161 O1182 2.386 . S
Sm1161 O1185 2.408 . S
Sm1161 O1186 2.543 . S
Sm1161 O1187 2.450 . S
Sm1161 O1188 2.681 . S
Sm1161 O1189 2.464 . S
Sm1161 O1190 2.396 . S
C1162 Sm1160 2.846 . S
C1162 C1163 1.506 . S
C1162 O1180 1.261 . S
C1162 O1181 1.242 . S
C1163 C1162 1.506 . S
C1163 C1164 1.358 . S
C1163 C1168 1.382 . S
C1164 C1163 1.358 . S
C1164 C1165 1.385 . S
C1164 H1192 0.930 . S
C1165 C1164 1.385 . S
C1165 C1166 1.395 . S
C1165 H1193 0.929 . S
C1166 C1165 1.395 . S
C1166 C1167 1.335 . S
C1167 C1166 1.335 . S
C1167 C1168 1.398 . S
C1167 H1194 0.930 . S
C1168 C1163 1.382 . S
C1168 C1167 1.398 . S
C1168 H1195 0.929 . S
C1169 O1182 1.271 . S
C1169 O1183 1.251 . S
C1170 O1184 1.252 . S
C1170 O1185 1.272 . S
C1171 Sm1161 2.846 . S
C1171 C1172 1.506 . S
C1171 O1186 1.261 . S
C1171 O1187 1.242 . S
C1172 C1171 1.506 . S
C1172 C1173 1.358 . S
C1172 C1177 1.382 . S
C1173 C1172 1.358 . S
C1173 C1174 1.385 . S
C1173 H1196 0.930 . S
C1174 C1173 1.385 . S
C1174 C1175 1.395 . S
C1174 H1197 0.929 . S
C1175 C1174 1.395 . S
C1175 C1176 1.335 . S
C1176 C1175 1.335 . S
C1176 C1177 1.398 . S
C1176 H1198 0.930 . S
C1177 C1172 1.382 . S
C1177 C1176 1.398 . S
C1177 H1199 0.929 . S
C1178 O1188 1.271 . S
C1178 O1189 1.251 . S
C1179 O1190 1.252 . S
C1179 O1191 1.272 . S
O1180 Sm1160 2.543 . S
O1180 C1162 1.261 . S
O1181 Sm1160 2.450 . S
O1181 C1162 1.242 . S
O1182 Sm1160 2.681 . S
O1182 Sm1161 2.386 . S
O1182 C1169 1.271 . S
O1183 Sm1160 2.464 . S
O1183 C1169 1.251 . S
O1184 Sm1160 2.396 . S
O1184 C1170 1.252 . S
O1185 Sm1161 2.408 . S
O1185 C1170 1.272 . S
O1186 Sm1161 2.543 . S
O1186 C1171 1.261 . S
O1187 Sm1161 2.450 . S
O1187 C1171 1.242 . S
O1188 Sm1160 2.386 . S
O1188 Sm1161 2.681 . S
O1188 C1178 1.271 . S
O1189 Sm1161 2.464 . S
O1189 C1178 1.251 . S
O1190 Sm1161 2.396 . S
O1190 C1179 1.252 . S
O1191 Sm1160 2.408 . S
O1191 C1179 1.272 . S
H1192 C1164 0.930 . S
H1193 C1165 0.929 . S
H1194 C1167 0.930 . S
H1195 C1168 0.929 . S
H1196 C1173 0.930 . S
H1197 C1174 0.929 . S
H1198 C1176 0.930 . S
H1199 C1177 0.929 . S
Sm1200 C1202 2.846 . S
Sm1200 O1220 2.543 . S
Sm1200 O1221 2.450 . S
Sm1200 O1222 2.681 . S
Sm1200 O1223 2.464 . S
Sm1200 O1224 2.396 . S
Sm1200 O1228 2.386 . S
Sm1200 O1231 2.408 . S
Sm1201 C1211 2.846 . S
Sm1201 O1222 2.386 . S
Sm1201 O1225 2.408 . S
Sm1201 O1226 2.543 . S
Sm1201 O1227 2.450 . S
Sm1201 O1228 2.681 . S
Sm1201 O1229 2.464 . S
Sm1201 O1230 2.396 . S
C1202 Sm1200 2.846 . S
C1202 C1203 1.506 . S
C1202 O1220 1.261 . S
C1202 O1221 1.242 . S
C1203 C1202 1.506 . S
C1203 C1204 1.358 . S
C1203 C1208 1.382 . S
C1204 C1203 1.358 . S
C1204 C1205 1.385 . S
C1204 H1232 0.930 . S
C1205 C1204 1.385 . S
C1205 C1206 1.395 . S
C1205 H1233 0.929 . S
C1206 C1205 1.395 . S
C1206 C1207 1.335 . S
C1207 C1206 1.335 . S
C1207 C1208 1.398 . S
C1207 H1234 0.930 . S
C1208 C1203 1.382 . S
C1208 C1207 1.398 . S
C1208 H1235 0.929 . S
C1209 O1222 1.271 . S
C1209 O1223 1.251 . S
C1210 O1224 1.252 . S
C1210 O1225 1.272 . S
C1211 Sm1201 2.846 . S
C1211 C1212 1.506 . S
C1211 O1226 1.261 . S
C1211 O1227 1.242 . S
C1212 C1211 1.506 . S
C1212 C1213 1.358 . S
C1212 C1217 1.382 . S
C1213 C1212 1.358 . S
C1213 C1214 1.385 . S
C1213 H1236 0.930 . S
C1214 C1213 1.385 . S
C1214 C1215 1.395 . S
C1214 H1237 0.929 . S
C1215 C1214 1.395 . S
C1215 C1216 1.335 . S
C1216 C1215 1.335 . S
C1216 C1217 1.398 . S
C1216 H1238 0.930 . S
C1217 C1212 1.382 . S
C1217 C1216 1.398 . S
C1217 H1239 0.929 . S
C1218 O1228 1.271 . S
C1218 O1229 1.251 . S
C1219 O1230 1.252 . S
C1219 O1231 1.272 . S
O1220 Sm1200 2.543 . S
O1220 C1202 1.261 . S
O1221 Sm1200 2.450 . S
O1221 C1202 1.242 . S
O1222 Sm1200 2.681 . S
O1222 Sm1201 2.386 . S
O1222 C1209 1.271 . S
O1223 Sm1200 2.464 . S
O1223 C1209 1.251 . S
O1224 Sm1200 2.396 . S
O1224 C1210 1.252 . S
O1225 Sm1201 2.408 . S
O1225 C1210 1.272 . S
O1226 Sm1201 2.543 . S
O1226 C1211 1.261 . S
O1227 Sm1201 2.450 . S
O1227 C1211 1.242 . S
O1228 Sm1200 2.386 . S
O1228 Sm1201 2.681 . S
O1228 C1218 1.271 . S
O1229 Sm1201 2.464 . S
O1229 C1218 1.251 . S
O1230 Sm1201 2.396 . S
O1230 C1219 1.252 . S
O1231 Sm1200 2.408 . S
O1231 C1219 1.272 . S
H1232 C1204 0.930 . S
H1233 C1205 0.929 . S
H1234 C1207 0.930 . S
H1235 C1208 0.929 . S
H1236 C1213 0.930 . S
H1237 C1214 0.929 . S
H1238 C1216 0.930 . S
H1239 C1217 0.929 . S
Sm1240 C1242 2.846 . S
Sm1240 O1260 2.543 . S
Sm1240 O1261 2.450 . S
Sm1240 O1262 2.681 . S
Sm1240 O1263 2.464 . S
Sm1240 O1264 2.396 1_545 S
Sm1240 O1268 2.386 . S
Sm1240 O1271 2.408 . S
Sm1241 C1251 2.846 1_565 S
Sm1241 O1262 2.386 1_565 S
Sm1241 O1265 2.408 . S
Sm1241 O1266 2.543 1_565 S
Sm1241 O1267 2.450 . S
Sm1241 O1268 2.681 1_565 S
Sm1241 O1269 2.464 . S
Sm1241 O1270 2.396 1_565 S
C1242 Sm1240 2.846 . S
C1242 C1243 1.506 . S
C1242 O1260 1.261 . S
C1242 O1261 1.242 . S
C1243 C1242 1.506 . S
C1243 C1244 1.358 1_545 S
C1243 C1248 1.382 . S
C1244 C1243 1.358 1_565 S
C1244 C1245 1.385 . S
C1244 H1272 0.930 . S
C1245 C1244 1.385 . S
C1245 C1246 1.395 . S
C1245 H1273 0.929 . S
C1246 C1245 1.395 . S
C1246 C1247 1.352 . S
C1247 C1246 1.352 . S
C1247 C1248 1.389 1_565 S
C1247 H1274 0.923 1_565 S
C1248 C1243 1.382 . S
C1248 C1247 1.389 1_545 S
C1248 H1275 0.929 . S
C1249 O1262 1.271 . S
C1249 O1263 1.251 . S
C1250 O1264 1.252 . S
C1250 O1265 1.272 . S
C1251 Sm1241 2.846 1_545 S
C1251 C1252 1.506 . S
C1251 O1266 1.261 . S
C1251 O1267 1.242 1_545 S
C1252 C1251 1.506 . S
C1252 C1253 1.358 . S
C1252 C1257 1.382 . S
C1253 C1252 1.358 . S
C1253 C1254 1.385 . S
C1253 H1276 0.930 . S
C1254 C1253 1.385 . S
C1254 C1255 1.395 . S
C1254 H1277 0.929 . S
C1255 C1254 1.395 . S
C1255 C1256 1.335 . S
C1256 C1255 1.335 . S
C1256 C1257 1.398 . S
C1256 H1278 0.930 . S
C1257 C1252 1.382 . S
C1257 C1256 1.398 . S
C1257 H1279 0.928 1_545 S
C1258 O1268 1.271 . S
C1258 O1269 1.251 1_545 S
C1259 O1270 1.252 . S
C1259 O1271 1.272 . S
O1260 Sm1240 2.543 . S
O1260 C1242 1.261 . S
O1261 Sm1240 2.450 . S
O1261 C1242 1.242 . S
O1262 Sm1240 2.681 . S
O1262 Sm1241 2.386 1_545 S
O1262 C1249 1.271 . S
O1263 Sm1240 2.464 . S
O1263 C1249 1.251 . S
O1264 Sm1240 2.396 1_565 S
O1264 C1250 1.252 . S
O1265 Sm1241 2.408 . S
O1265 C1250 1.272 . S
O1266 Sm1241 2.543 1_545 S
O1266 C1251 1.261 . S
O1267 Sm1241 2.450 . S
O1267 C1251 1.242 1_565 S
O1268 Sm1240 2.386 . S
O1268 Sm1241 2.681 1_545 S
O1268 C1258 1.271 . S
O1269 Sm1241 2.464 . S
O1269 C1258 1.251 1_565 S
O1270 Sm1241 2.396 1_545 S
O1270 C1259 1.252 . S
O1271 Sm1240 2.408 . S
O1271 C1259 1.272 . S
H1272 C1244 0.930 . S
H1273 C1245 0.929 . S
H1274 C1247 0.923 1_545 S
H1275 C1248 0.929 . S
H1276 C1253 0.930 . S
H1277 C1254 0.929 . S
H1278 C1256 0.930 . S
H1279 C1257 0.928 1_565 S
C1280 C1281 1.349 . S
C1280 C1282 1.327 . S
C1280 H1305 0.950 . S
C1281 C1280 1.349 . S
C1281 C1297 1.349 . S
C1282 C1280 1.327 . S
C1282 C1301 1.429 . S
C1282 H1306 0.950 . S
C1283 C1300 1.574 . S
C1283 C1302 1.368 . S
C1283 H1307 0.949 . S
H1284 C1288 0.949 . S
C1285 C1286 1.349 . S
C1285 C1287 1.327 . S
C1285 H1308 0.950 . S
C1286 C1285 1.349 . S
C1286 C1298 1.349 . S
C1287 C1285 1.327 . S
C1287 C1303 1.429 . S
C1287 H1309 0.950 . S
C1288 H1284 0.949 . S
C1288 C1296 1.574 . S
C1288 C1304 1.368 . S
H1289 C1297 0.950 . S
H1290 C1295 0.950 . S
H1291 C1296 0.949 . S
H1292 C1298 0.950 . S
H1293 C1299 0.950 . S
H1294 C1300 0.949 . S
C1295 H1290 0.950 . S
C1295 C1297 1.327 . S
C1295 C1301 1.429 . S
C1296 C1288 1.574 . S
C1296 H1291 0.949 . S
C1296 C1302 1.368 . S
C1297 C1281 1.349 . S
C1297 H1289 0.950 . S
C1297 C1295 1.327 . S
C1298 C1286 1.349 . S
C1298 H1292 0.950 . S
C1298 C1299 1.327 . S
C1299 H1293 0.950 . S
C1299 C1298 1.327 . S
C1299 C1303 1.429 . S
C1300 C1283 1.574 . S
C1300 H1294 0.949 . S
C1300 C1304 1.368 . S
C1301 C1282 1.429 . S
C1301 C1295 1.429 . S
C1301 C1302 1.523 . S
C1302 C1283 1.368 . S
C1302 C1296 1.368 . S
C1302 C1301 1.523 . S
C1303 C1287 1.429 . S
C1303 C1299 1.429 . S
C1303 C1304 1.523 . S
C1304 C1288 1.368 . S
C1304 C1300 1.368 . S
C1304 C1303 1.523 . S
H1305 C1280 0.950 . S
H1306 C1282 0.950 . S
H1307 C1283 0.949 . S
H1308 C1285 0.950 . S
H1309 C1287 0.950 . S
C1310 C1311 1.349 . S
C1310 C1312 1.327 . S
C1310 H1335 0.950 . S
C1311 C1310 1.349 . S
C1311 C1327 1.349 . S
C1312 C1310 1.327 . S
C1312 C1331 1.429 . S
C1312 H1336 0.950 . S
C1313 C1330 1.574 . S
C1313 C1332 1.368 . S
C1313 H1337 0.949 . S
H1314 C1318 0.949 . S
C1315 C1316 1.349 . S
C1315 C1317 1.327 . S
C1315 H1338 0.950 . S
C1316 C1315 1.349 . S
C1316 C1328 1.349 . S
C1317 C1315 1.327 . S
C1317 C1333 1.429 . S
C1317 H1339 0.950 . S
C1318 H1314 0.949 . S
C1318 C1326 1.574 . S
C1318 C1334 1.368 . S
H1319 C1327 0.950 . S
H1320 C1325 0.950 . S
H1321 C1326 0.949 . S
H1322 C1328 0.950 . S
H1323 C1329 0.950 . S
H1324 C1330 0.949 . S
C1325 H1320 0.950 . S
C1325 C1327 1.327 . S
C1325 C1331 1.429 . S
C1326 C1318 1.574 . S
C1326 H1321 0.949 . S
C1326 C1332 1.368 . S
C1327 C1311 1.349 . S
C1327 H1319 0.950 . S
C1327 C1325 1.327 . S
C1328 C1316 1.349 . S
C1328 H1322 0.950 . S
C1328 C1329 1.327 . S
C1329 H1323 0.950 . S
C1329 C1328 1.327 . S
C1329 C1333 1.429 . S
C1330 C1313 1.574 . S
C1330 H1324 0.949 . S
C1330 C1334 1.368 . S
C1331 C1312 1.429 . S
C1331 C1325 1.429 . S
C1331 C1332 1.523 . S
C1332 C1313 1.368 . S
C1332 C1326 1.368 . S
C1332 C1331 1.523 . S
C1333 C1317 1.429 . S
C1333 C1329 1.429 . S
C1333 C1334 1.523 . S
C1334 C1318 1.368 . S
C1334 C1330 1.368 . S
C1334 C1333 1.523 . S
H1335 C1310 0.950 . S
H1336 C1312 0.950 . S
H1337 C1313 0.949 . S
H1338 C1315 0.950 . S
H1339 C1317 0.950 . S
C1340 C1341 1.349 . S
C1340 C1342 1.327 . S
C1340 H1365 0.950 . S
C1341 C1340 1.349 . S
C1341 C1357 1.349 . S
C1342 C1340 1.327 . S
C1342 C1361 1.429 . S
C1342 H1366 0.950 . S
C1343 C1360 1.574 . S
C1343 C1362 1.368 . S
C1343 H1367 0.949 . S
H1344 C1348 0.949 . S
C1345 C1346 1.349 . S
C1345 C1347 1.327 . S
C1345 H1368 0.950 . S
C1346 C1345 1.349 . S
C1346 C1358 1.349 . S
C1347 C1345 1.327 . S
C1347 C1363 1.429 . S
C1347 H1369 0.950 . S
C1348 H1344 0.949 . S
C1348 C1356 1.574 . S
C1348 C1364 1.368 . S
H1349 C1357 0.950 . S
H1350 C1355 0.950 . S
H1351 C1356 0.949 . S
H1352 C1358 0.950 . S
H1353 C1359 0.950 . S
H1354 C1360 0.949 . S
C1355 H1350 0.950 . S
C1355 C1357 1.327 . S
C1355 C1361 1.429 . S
C1356 C1348 1.574 . S
C1356 H1351 0.949 . S
C1356 C1362 1.368 . S
C1357 C1341 1.349 . S
C1357 H1349 0.950 . S
C1357 C1355 1.327 . S
C1358 C1346 1.349 . S
C1358 H1352 0.950 . S
C1358 C1359 1.327 . S
C1359 H1353 0.950 . S
C1359 C1358 1.327 . S
C1359 C1363 1.429 . S
C1360 C1343 1.574 . S
C1360 H1354 0.949 . S
C1360 C1364 1.368 . S
C1361 C1342 1.429 . S
C1361 C1355 1.429 . S
C1361 C1362 1.523 . S
C1362 C1343 1.368 . S
C1362 C1356 1.368 . S
C1362 C1361 1.523 . S
C1363 C1347 1.429 . S
C1363 C1359 1.429 . S
C1363 C1364 1.523 . S
C1364 C1348 1.368 . S
C1364 C1360 1.368 . S
C1364 C1363 1.523 . S
H1365 C1340 0.950 . S
H1366 C1342 0.950 . S
H1367 C1343 0.949 . S
H1368 C1345 0.950 . S
H1369 C1347 0.950 . S
C1370 C1371 1.349 . S
C1370 C1372 1.327 . S
C1370 H1395 0.950 . S
C1371 C1370 1.349 . S
C1371 C1387 1.349 . S
C1372 C1370 1.327 . S
C1372 C1391 1.429 . S
C1372 H1396 0.950 . S
C1373 C1390 1.574 . S
C1373 C1392 1.368 . S
C1373 H1397 0.949 . S
H1374 C1378 0.949 . S
C1375 C1376 1.349 . S
C1375 C1377 1.327 . S
C1375 H1398 0.950 . S
C1376 C1375 1.349 . S
C1376 C1388 1.349 . S
C1377 C1375 1.327 . S
C1377 C1393 1.429 . S
C1377 H1399 0.950 . S
C1378 H1374 0.949 . S
C1378 C1386 1.574 . S
C1378 C1394 1.368 . S
H1379 C1387 0.950 . S
H1380 C1385 0.950 . S
H1381 C1386 0.949 . S
H1382 C1388 0.950 . S
H1383 C1389 0.950 . S
H1384 C1390 0.949 . S
C1385 H1380 0.950 . S
C1385 C1387 1.327 . S
C1385 C1391 1.429 . S
C1386 C1378 1.574 . S
C1386 H1381 0.949 . S
C1386 C1392 1.368 . S
C1387 C1371 1.349 . S
C1387 H1379 0.950 . S
C1387 C1385 1.327 . S
C1388 C1376 1.349 . S
C1388 H1382 0.950 . S
C1388 C1389 1.327 . S
C1389 H1383 0.950 . S
C1389 C1388 1.327 . S
C1389 C1393 1.429 . S
C1390 C1373 1.574 . S
C1390 H1384 0.949 . S
C1390 C1394 1.368 . S
C1391 C1372 1.429 . S
C1391 C1385 1.429 . S
C1391 C1392 1.523 . S
C1392 C1373 1.368 . S
C1392 C1386 1.368 . S
C1392 C1391 1.523 . S
C1393 C1377 1.429 . S
C1393 C1389 1.429 . S
C1393 C1394 1.523 . S
C1394 C1378 1.368 . S
C1394 C1390 1.368 . S
C1394 C1393 1.523 . S
H1395 C1370 0.950 . S
H1396 C1372 0.950 . S
H1397 C1373 0.949 . S
H1398 C1375 0.950 . S
H1399 C1377 0.950 . S
C1400 C1401 1.349 . S
C1400 C1402 1.327 . S
C1400 H1425 0.950 . S
C1401 C1400 1.349 . S
C1401 C1417 1.349 . S
C1402 C1400 1.327 . S
C1402 C1421 1.429 . S
C1402 H1426 0.950 . S
C1403 C1420 1.574 . S
C1403 C1422 1.368 . S
C1403 H1427 0.949 . S
H1404 C1408 0.949 . S
C1405 C1406 1.349 . S
C1405 C1407 1.327 . S
C1405 H1428 0.950 . S
C1406 C1405 1.349 . S
C1406 C1418 1.349 . S
C1407 C1405 1.327 . S
C1407 C1423 1.429 . S
C1407 H1429 0.950 . S
C1408 H1404 0.949 . S
C1408 C1416 1.574 . S
C1408 C1424 1.368 . S
H1409 C1417 0.950 . S
H1410 C1415 0.950 . S
H1411 C1416 0.949 . S
H1412 C1418 0.950 . S
H1413 C1419 0.950 . S
H1414 C1420 0.949 . S
C1415 H1410 0.950 . S
C1415 C1417 1.327 . S
C1415 C1421 1.429 . S
C1416 C1408 1.574 . S
C1416 H1411 0.949 . S
C1416 C1422 1.368 . S
C1417 C1401 1.349 . S
C1417 H1409 0.950 . S
C1417 C1415 1.327 . S
C1418 C1406 1.349 . S
C1418 H1412 0.950 . S
C1418 C1419 1.327 . S
C1419 H1413 0.950 . S
C1419 C1418 1.327 . S
C1419 C1423 1.429 . S
C1420 C1403 1.574 . S
C1420 H1414 0.949 . S
C1420 C1424 1.368 . S
C1421 C1402 1.429 . S
C1421 C1415 1.429 . S
C1421 C1422 1.523 . S
C1422 C1403 1.368 . S
C1422 C1416 1.368 . S
C1422 C1421 1.523 . S
C1423 C1407 1.429 . S
C1423 C1419 1.429 . S
C1423 C1424 1.523 . S
C1424 C1408 1.368 . S
C1424 C1420 1.368 . S
C1424 C1423 1.523 . S
H1425 C1400 0.950 . S
H1426 C1402 0.950 . S
H1427 C1403 0.949 . S
H1428 C1405 0.950 . S
H1429 C1407 0.950 . S
C1430 C1431 1.349 . S
C1430 C1432 1.327 . S
C1430 H1455 0.950 . S
C1431 C1430 1.349 . S
C1431 C1447 1.349 . S
C1432 C1430 1.327 . S
C1432 C1451 1.429 . S
C1432 H1456 0.950 . S
C1433 C1450 1.574 . S
C1433 C1452 1.368 . S
C1433 H1457 0.949 . S
H1434 C1438 0.949 . S
C1435 C1436 1.349 . S
C1435 C1437 1.327 . S
C1435 H1458 0.950 . S
C1436 C1435 1.349 . S
C1436 C1448 1.349 . S
C1437 C1435 1.327 . S
C1437 C1453 1.429 . S
C1437 H1459 0.950 . S
C1438 H1434 0.949 . S
C1438 C1446 1.574 . S
C1438 C1454 1.368 . S
H1439 C1447 0.950 . S
H1440 C1445 0.950 . S
H1441 C1446 0.949 . S
H1442 C1448 0.950 . S
H1443 C1449 0.950 . S
H1444 C1450 0.949 . S
C1445 H1440 0.950 . S
C1445 C1447 1.327 . S
C1445 C1451 1.429 . S
C1446 C1438 1.574 . S
C1446 H1441 0.949 . S
C1446 C1452 1.368 . S
C1447 C1431 1.349 . S
C1447 H1439 0.950 . S
C1447 C1445 1.327 . S
C1448 C1436 1.349 . S
C1448 H1442 0.950 . S
C1448 C1449 1.327 . S
C1449 H1443 0.950 . S
C1449 C1448 1.327 . S
C1449 C1453 1.429 . S
C1450 C1433 1.574 . S
C1450 H1444 0.949 . S
C1450 C1454 1.368 . S
C1451 C1432 1.429 . S
C1451 C1445 1.429 . S
C1451 C1452 1.523 . S
C1452 C1433 1.368 . S
C1452 C1446 1.368 . S
C1452 C1451 1.523 . S
C1453 C1437 1.429 . S
C1453 C1449 1.429 . S
C1453 C1454 1.523 . S
C1454 C1438 1.368 . S
C1454 C1450 1.368 . S
C1454 C1453 1.523 . S
H1455 C1430 0.950 . S
H1456 C1432 0.950 . S
H1457 C1433 0.949 . S
H1458 C1435 0.950 . S
H1459 C1437 0.950 . S
C1460 C1461 1.349 . S
C1460 C1462 1.327 . S
C1460 H1485 0.950 . S
C1461 C1460 1.349 . S
C1461 C1477 1.349 . S
C1462 C1460 1.327 . S
C1462 C1481 1.429 . S
C1462 H1486 0.950 . S
C1463 C1480 1.574 . S
C1463 C1482 1.368 . S
C1463 H1487 0.949 . S
H1464 C1468 0.949 . S
C1465 C1466 1.349 . S
C1465 C1467 1.327 . S
C1465 H1488 0.950 . S
C1466 C1465 1.349 . S
C1466 C1478 1.349 . S
C1467 C1465 1.327 . S
C1467 C1483 1.429 . S
C1467 H1489 0.950 . S
C1468 H1464 0.949 . S
C1468 C1476 1.574 . S
C1468 C1484 1.368 . S
H1469 C1477 0.950 . S
H1470 C1475 0.950 . S
H1471 C1476 0.949 . S
H1472 C1478 0.950 . S
H1473 C1479 0.950 . S
H1474 C1480 0.949 . S
C1475 H1470 0.950 . S
C1475 C1477 1.327 . S
C1475 C1481 1.429 . S
C1476 C1468 1.574 . S
C1476 H1471 0.949 . S
C1476 C1482 1.368 . S
C1477 C1461 1.349 . S
C1477 H1469 0.950 . S
C1477 C1475 1.327 . S
C1478 C1466 1.349 . S
C1478 H1472 0.950 . S
C1478 C1479 1.327 . S
C1479 H1473 0.950 . S
C1479 C1478 1.327 . S
C1479 C1483 1.429 . S
C1480 C1463 1.574 . S
C1480 H1474 0.949 . S
C1480 C1484 1.368 . S
C1481 C1462 1.429 . S
C1481 C1475 1.429 . S
C1481 C1482 1.523 . S
C1482 C1463 1.368 . S
C1482 C1476 1.368 . S
C1482 C1481 1.523 . S
C1483 C1467 1.429 . S
C1483 C1479 1.429 . S
C1483 C1484 1.523 . S
C1484 C1468 1.368 . S
C1484 C1480 1.368 . S
C1484 C1483 1.523 . S
H1485 C1460 0.950 . S
H1486 C1462 0.950 . S
H1487 C1463 0.949 . S
H1488 C1465 0.950 . S
H1489 C1467 0.950 . S
C1490 C1491 1.349 . S
C1490 C1492 1.327 . S
C1490 H1515 0.950 . S
C1491 C1490 1.349 . S
C1491 C1507 1.349 . S
C1492 C1490 1.327 . S
C1492 C1511 1.429 . S
C1492 H1516 0.950 . S
C1493 C1510 1.574 . S
C1493 C1512 1.368 . S
C1493 H1517 0.949 . S
H1494 C1498 0.949 . S
C1495 C1496 1.349 . S
C1495 C1497 1.327 . S
C1495 H1518 0.950 . S
C1496 C1495 1.349 . S
C1496 C1508 1.349 . S
C1497 C1495 1.327 . S
C1497 C1513 1.429 . S
C1497 H1519 0.950 . S
C1498 H1494 0.949 . S
C1498 C1506 1.574 . S
C1498 C1514 1.368 . S
H1499 C1507 0.950 . S
H1500 C1505 0.950 . S
H1501 C1506 0.949 . S
H1502 C1508 0.950 . S
H1503 C1509 0.950 . S
H1504 C1510 0.949 . S
C1505 H1500 0.950 . S
C1505 C1507 1.327 . S
C1505 C1511 1.429 . S
C1506 C1498 1.574 . S
C1506 H1501 0.949 . S
C1506 C1512 1.368 . S
C1507 C1491 1.349 . S
C1507 H1499 0.950 . S
C1507 C1505 1.327 . S
C1508 C1496 1.349 . S
C1508 H1502 0.950 . S
C1508 C1509 1.327 . S
C1509 H1503 0.950 . S
C1509 C1508 1.327 . S
C1509 C1513 1.429 . S
C1510 C1493 1.574 . S
C1510 H1504 0.949 . S
C1510 C1514 1.368 . S
C1511 C1492 1.429 . S
C1511 C1505 1.429 . S
C1511 C1512 1.523 . S
C1512 C1493 1.368 . S
C1512 C1506 1.368 . S
C1512 C1511 1.523 . S
C1513 C1497 1.429 . S
C1513 C1509 1.429 . S
C1513 C1514 1.523 . S
C1514 C1498 1.368 . S
C1514 C1510 1.368 . S
C1514 C1513 1.523 . S
H1515 C1490 0.950 . S
H1516 C1492 0.950 . S
H1517 C1493 0.949 . S
H1518 C1495 0.950 . S
H1519 C1497 0.950 . S
C1520 C1521 1.349 . S
C1520 C1522 1.327 . S
C1520 H1545 0.950 . S
C1521 C1520 1.349 . S
C1521 C1537 1.349 . S
C1522 C1520 1.327 . S
C1522 C1541 1.429 . S
C1522 H1546 0.950 . S
C1523 C1540 1.574 . S
C1523 C1542 1.368 . S
C1523 H1547 0.949 . S
H1524 C1528 0.949 . S
C1525 C1526 1.349 . S
C1525 C1527 1.327 . S
C1525 H1548 0.950 . S
C1526 C1525 1.349 . S
C1526 C1538 1.349 . S
C1527 C1525 1.327 . S
C1527 C1543 1.429 . S
C1527 H1549 0.950 . S
C1528 H1524 0.949 . S
C1528 C1536 1.574 . S
C1528 C1544 1.368 . S
H1529 C1537 0.950 . S
H1530 C1535 0.950 . S
H1531 C1536 0.949 . S
H1532 C1538 0.950 . S
H1533 C1539 0.950 . S
H1534 C1540 0.949 . S
C1535 H1530 0.950 . S
C1535 C1537 1.327 . S
C1535 C1541 1.429 . S
C1536 C1528 1.574 . S
C1536 H1531 0.949 . S
C1536 C1542 1.368 . S
C1537 C1521 1.349 . S
C1537 H1529 0.950 . S
C1537 C1535 1.327 . S
C1538 C1526 1.349 . S
C1538 H1532 0.950 . S
C1538 C1539 1.327 . S
C1539 H1533 0.950 . S
C1539 C1538 1.327 . S
C1539 C1543 1.429 . S
C1540 C1523 1.574 . S
C1540 H1534 0.949 . S
C1540 C1544 1.368 . S
C1541 C1522 1.429 . S
C1541 C1535 1.429 . S
C1541 C1542 1.523 . S
C1542 C1523 1.368 . S
C1542 C1536 1.368 . S
C1542 C1541 1.523 . S
C1543 C1527 1.429 . S
C1543 C1539 1.429 . S
C1543 C1544 1.523 . S
C1544 C1528 1.368 . S
C1544 C1540 1.368 . S
C1544 C1543 1.523 . S
H1545 C1520 0.950 . S
H1546 C1522 0.950 . S
H1547 C1523 0.949 . S
H1548 C1525 0.950 . S
H1549 C1527 0.950 . S
C1550 C1551 1.349 . S
C1550 C1552 1.327 . S
C1550 H1575 0.950 . S
C1551 C1550 1.349 . S
C1551 C1567 1.349 . S
C1552 C1550 1.327 . S
C1552 C1571 1.429 . S
C1552 H1576 0.950 . S
C1553 C1570 1.574 . S
C1553 C1572 1.368 . S
C1553 H1577 0.949 . S
H1554 C1558 0.949 . S
C1555 C1556 1.349 . S
C1555 C1557 1.327 . S
C1555 H1578 0.950 . S
C1556 C1555 1.349 . S
C1556 C1568 1.349 . S
C1557 C1555 1.327 . S
C1557 C1573 1.429 . S
C1557 H1579 0.950 . S
C1558 H1554 0.949 . S
C1558 C1566 1.574 . S
C1558 C1574 1.368 . S
H1559 C1567 0.950 . S
H1560 C1565 0.950 . S
H1561 C1566 0.949 . S
H1562 C1568 0.950 . S
H1563 C1569 0.950 . S
H1564 C1570 0.949 . S
C1565 H1560 0.950 . S
C1565 C1567 1.327 . S
C1565 C1571 1.429 . S
C1566 C1558 1.574 . S
C1566 H1561 0.949 . S
C1566 C1572 1.368 . S
C1567 C1551 1.349 . S
C1567 H1559 0.950 . S
C1567 C1565 1.327 . S
C1568 C1556 1.349 . S
C1568 H1562 0.950 . S
C1568 C1569 1.327 . S
C1569 H1563 0.950 . S
C1569 C1568 1.327 . S
C1569 C1573 1.429 . S
C1570 C1553 1.574 . S
C1570 H1564 0.949 . S
C1570 C1574 1.368 . S
C1571 C1552 1.429 . S
C1571 C1565 1.429 . S
C1571 C1572 1.523 . S
C1572 C1553 1.368 . S
C1572 C1566 1.368 . S
C1572 C1571 1.523 . S
C1573 C1557 1.429 . S
C1573 C1569 1.429 . S
C1573 C1574 1.523 . S
C1574 C1558 1.368 . S
C1574 C1570 1.368 . S
C1574 C1573 1.523 . S
H1575 C1550 0.950 . S
H1576 C1552 0.950 . S
H1577 C1553 0.949 . S
H1578 C1555 0.950 . S
H1579 C1557 0.950 . S
C1580 C1581 1.349 . S
C1580 C1582 1.327 . S
C1580 H1605 0.950 . S
C1581 C1580 1.349 . S
C1581 C1597 1.349 . S
C1582 C1580 1.327 . S
C1582 C1601 1.429 . S
C1582 H1606 0.950 . S
C1583 C1600 1.574 . S
C1583 C1602 1.368 . S
C1583 H1607 0.949 . S
H1584 C1588 0.949 . S
C1585 C1586 1.349 . S
C1585 C1587 1.327 . S
C1585 H1608 0.950 . S
C1586 C1585 1.349 . S
C1586 C1598 1.349 . S
C1587 C1585 1.327 . S
C1587 C1603 1.429 . S
C1587 H1609 0.950 . S
C1588 H1584 0.949 . S
C1588 C1596 1.574 . S
C1588 C1604 1.368 . S
H1589 C1597 0.950 . S
H1590 C1595 0.950 . S
H1591 C1596 0.949 . S
H1592 C1598 0.950 . S
H1593 C1599 0.950 . S
H1594 C1600 0.949 . S
C1595 H1590 0.950 . S
C1595 C1597 1.327 . S
C1595 C1601 1.429 . S
C1596 C1588 1.574 . S
C1596 H1591 0.949 . S
C1596 C1602 1.368 . S
C1597 C1581 1.349 . S
C1597 H1589 0.950 . S
C1597 C1595 1.327 . S
C1598 C1586 1.349 . S
C1598 H1592 0.950 . S
C1598 C1599 1.327 . S
C1599 H1593 0.950 . S
C1599 C1598 1.327 . S
C1599 C1603 1.429 . S
C1600 C1583 1.574 . S
C1600 H1594 0.949 . S
C1600 C1604 1.368 . S
C1601 C1582 1.429 . S
C1601 C1595 1.429 . S
C1601 C1602 1.523 . S
C1602 C1583 1.368 . S
C1602 C1596 1.368 . S
C1602 C1601 1.523 . S
C1603 C1587 1.429 . S
C1603 C1599 1.429 . S
C1603 C1604 1.523 . S
C1604 C1588 1.368 . S
C1604 C1600 1.368 . S
C1604 C1603 1.523 . S
H1605 C1580 0.950 . S
H1606 C1582 0.950 . S
H1607 C1583 0.949 . S
H1608 C1585 0.950 . S
H1609 C1587 0.950 . S
C1610 C1611 1.349 . S
C1610 C1612 1.327 . S
C1610 H1635 0.950 . S
C1611 C1610 1.349 . S
C1611 C1627 1.349 . S
C1612 C1610 1.327 . S
C1612 C1631 1.429 . S
C1612 H1636 0.950 . S
C1613 C1630 1.574 . S
C1613 C1632 1.368 . S
C1613 H1637 0.949 . S
H1614 C1618 0.949 . S
C1615 C1616 1.349 . S
C1615 C1617 1.327 . S
C1615 H1638 0.950 . S
C1616 C1615 1.349 . S
C1616 C1628 1.349 . S
C1617 C1615 1.327 . S
C1617 C1633 1.429 . S
C1617 H1639 0.950 . S
C1618 H1614 0.949 . S
C1618 C1626 1.574 . S
C1618 C1634 1.368 . S
H1619 C1627 0.950 . S
H1620 C1625 0.950 . S
H1621 C1626 0.949 . S
H1622 C1628 0.950 . S
H1623 C1629 0.950 . S
H1624 C1630 0.949 . S
C1625 H1620 0.950 . S
C1625 C1627 1.327 . S
C1625 C1631 1.429 . S
C1626 C1618 1.574 . S
C1626 H1621 0.949 . S
C1626 C1632 1.368 . S
C1627 C1611 1.349 . S
C1627 H1619 0.950 . S
C1627 C1625 1.327 . S
C1628 C1616 1.349 . S
C1628 H1622 0.950 . S
C1628 C1629 1.327 . S
C1629 H1623 0.950 . S
C1629 C1628 1.327 . S
C1629 C1633 1.429 . S
C1630 C1613 1.574 . S
C1630 H1624 0.949 . S
C1630 C1634 1.368 . S
C1631 C1612 1.429 . S
C1631 C1625 1.429 . S
C1631 C1632 1.523 . S
C1632 C1613 1.368 . S
C1632 C1626 1.368 . S
C1632 C1631 1.523 . S
C1633 C1617 1.429 . S
C1633 C1629 1.429 . S
C1633 C1634 1.523 . S
C1634 C1618 1.368 . S
C1634 C1630 1.368 . S
C1634 C1633 1.523 . S
H1635 C1610 0.950 . S
H1636 C1612 0.950 . S
H1637 C1613 0.949 . S
H1638 C1615 0.950 . S
H1639 C1617 0.950 . S
C1640 C1641 1.349 . S
C1640 C1642 1.327 . S
C1640 H1665 0.950 . S
C1641 C1640 1.349 . S
C1641 C1657 1.349 . S
C1642 C1640 1.327 . S
C1642 C1661 1.429 . S
C1642 H1666 0.950 . S
C1643 C1660 1.574 . S
C1643 C1662 1.368 . S
C1643 H1667 0.949 . S
H1644 C1648 0.949 . S
C1645 C1646 1.349 . S
C1645 C1647 1.327 . S
C1645 H1668 0.950 . S
C1646 C1645 1.349 . S
C1646 C1658 1.349 . S
C1647 C1645 1.327 . S
C1647 C1663 1.429 . S
C1647 H1669 0.950 . S
C1648 H1644 0.949 . S
C1648 C1656 1.574 . S
C1648 C1664 1.368 . S
H1649 C1657 0.950 . S
H1650 C1655 0.950 . S
H1651 C1656 0.949 . S
H1652 C1658 0.950 . S
H1653 C1659 0.950 . S
H1654 C1660 0.949 . S
C1655 H1650 0.950 . S
C1655 C1657 1.327 . S
C1655 C1661 1.429 . S
C1656 C1648 1.574 . S
C1656 H1651 0.949 . S
C1656 C1662 1.368 . S
C1657 C1641 1.349 . S
C1657 H1649 0.950 . S
C1657 C1655 1.327 . S
C1658 C1646 1.349 . S
C1658 H1652 0.950 . S
C1658 C1659 1.327 . S
C1659 H1653 0.950 . S
C1659 C1658 1.327 . S
C1659 C1663 1.429 . S
C1660 C1643 1.574 . S
C1660 H1654 0.949 . S
C1660 C1664 1.368 . S
C1661 C1642 1.429 . S
C1661 C1655 1.429 . S
C1661 C1662 1.523 . S
C1662 C1643 1.368 . S
C1662 C1656 1.368 . S
C1662 C1661 1.523 . S
C1663 C1647 1.429 . S
C1663 C1659 1.429 . S
C1663 C1664 1.523 . S
C1664 C1648 1.368 . S
C1664 C1660 1.368 . S
C1664 C1663 1.523 . S
H1665 C1640 0.950 . S
H1666 C1642 0.950 . S
H1667 C1643 0.949 . S
H1668 C1645 0.950 . S
H1669 C1647 0.950 . S
C1670 C1671 1.349 . S
C1670 C1672 1.327 . S
C1670 H1695 0.950 . S
C1671 C1670 1.349 . S
C1671 C1687 1.349 . S
C1672 C1670 1.327 . S
C1672 C1691 1.429 . S
C1672 H1696 0.950 . S
C1673 C1690 1.574 . S
C1673 C1692 1.368 . S
C1673 H1697 0.949 . S
H1674 C1678 0.949 . S
C1675 C1676 1.349 . S
C1675 C1677 1.327 . S
C1675 H1698 0.950 . S
C1676 C1675 1.349 . S
C1676 C1688 1.349 . S
C1677 C1675 1.327 . S
C1677 C1693 1.429 . S
C1677 H1699 0.950 . S
C1678 H1674 0.949 . S
C1678 C1686 1.574 . S
C1678 C1694 1.368 . S
H1679 C1687 0.950 . S
H1680 C1685 0.950 . S
H1681 C1686 0.949 . S
H1682 C1688 0.950 . S
H1683 C1689 0.950 . S
H1684 C1690 0.949 . S
C1685 H1680 0.950 . S
C1685 C1687 1.327 . S
C1685 C1691 1.429 . S
C1686 C1678 1.574 . S
C1686 H1681 0.949 . S
C1686 C1692 1.368 . S
C1687 C1671 1.349 . S
C1687 H1679 0.950 . S
C1687 C1685 1.327 . S
C1688 C1676 1.349 . S
C1688 H1682 0.950 . S
C1688 C1689 1.327 . S
C1689 H1683 0.950 . S
C1689 C1688 1.327 . S
C1689 C1693 1.429 . S
C1690 C1673 1.574 . S
C1690 H1684 0.949 . S
C1690 C1694 1.368 . S
C1691 C1672 1.429 . S
C1691 C1685 1.429 . S
C1691 C1692 1.523 . S
C1692 C1673 1.368 . S
C1692 C1686 1.368 . S
C1692 C1691 1.523 . S
C1693 C1677 1.429 . S
C1693 C1689 1.429 . S
C1693 C1694 1.523 . S
C1694 C1678 1.368 . S
C1694 C1690 1.368 . S
C1694 C1693 1.523 . S
H1695 C1670 0.950 . S
H1696 C1672 0.950 . S
H1697 C1673 0.949 . S
H1698 C1675 0.950 . S
H1699 C1677 0.950 . S
C1700 C1701 1.349 . S
C1700 C1702 1.327 . S
C1700 H1725 0.950 . S
C1701 C1700 1.349 . S
C1701 C1717 1.349 . S
C1702 C1700 1.327 . S
C1702 C1721 1.429 . S
C1702 H1726 0.950 . S
C1703 C1720 1.574 . S
C1703 C1722 1.368 . S
C1703 H1727 0.949 . S
H1704 C1708 0.949 . S
C1705 C1706 1.349 . S
C1705 C1707 1.327 . S
C1705 H1728 0.950 . S
C1706 C1705 1.349 . S
C1706 C1718 1.349 . S
C1707 C1705 1.327 . S
C1707 C1723 1.429 . S
C1707 H1729 0.950 . S
C1708 H1704 0.949 . S
C1708 C1716 1.574 . S
C1708 C1724 1.368 . S
H1709 C1717 0.950 . S
H1710 C1715 0.950 . S
H1711 C1716 0.949 . S
H1712 C1718 0.950 . S
H1713 C1719 0.950 . S
H1714 C1720 0.949 . S
C1715 H1710 0.950 . S
C1715 C1717 1.327 . S
C1715 C1721 1.429 . S
C1716 C1708 1.574 . S
C1716 H1711 0.949 . S
C1716 C1722 1.368 . S
C1717 C1701 1.349 . S
C1717 H1709 0.950 . S
C1717 C1715 1.327 . S
C1718 C1706 1.349 . S
C1718 H1712 0.950 . S
C1718 C1719 1.327 . S
C1719 H1713 0.950 . S
C1719 C1718 1.327 . S
C1719 C1723 1.429 . S
C1720 C1703 1.574 . S
C1720 H1714 0.949 . S
C1720 C1724 1.368 . S
C1721 C1702 1.429 . S
C1721 C1715 1.429 . S
C1721 C1722 1.523 . S
C1722 C1703 1.368 . S
C1722 C1716 1.368 . S
C1722 C1721 1.523 . S
C1723 C1707 1.429 . S
C1723 C1719 1.429 . S
C1723 C1724 1.523 . S
C1724 C1708 1.368 . S
C1724 C1720 1.368 . S
C1724 C1723 1.523 . S
H1725 C1700 0.950 . S
H1726 C1702 0.950 . S
H1727 C1703 0.949 . S
H1728 C1705 0.950 . S
H1729 C1707 0.950 . S
C1730 C1731 1.349 . S
C1730 C1732 1.327 . S
C1730 H1755 0.950 . S
C1731 C1730 1.349 . S
C1731 C1747 1.349 . S
C1732 C1730 1.327 . S
C1732 C1751 1.429 . S
C1732 H1756 0.950 . S
C1733 C1750 1.574 . S
C1733 C1752 1.368 . S
C1733 H1757 0.949 . S
H1734 C1738 0.949 . S
C1735 C1736 1.349 . S
C1735 C1737 1.327 . S
C1735 H1758 0.950 . S
C1736 C1735 1.349 . S
C1736 C1748 1.349 . S
C1737 C1735 1.327 . S
C1737 C1753 1.429 . S
C1737 H1759 0.950 . S
C1738 H1734 0.949 . S
C1738 C1746 1.574 . S
C1738 C1754 1.368 . S
H1739 C1747 0.950 . S
H1740 C1745 0.950 . S
H1741 C1746 0.949 . S
H1742 C1748 0.950 . S
H1743 C1749 0.950 . S
H1744 C1750 0.949 . S
C1745 H1740 0.950 . S
C1745 C1747 1.327 . S
C1745 C1751 1.429 . S
C1746 C1738 1.574 . S
C1746 H1741 0.949 . S
C1746 C1752 1.368 . S
C1747 C1731 1.349 . S
C1747 H1739 0.950 . S
C1747 C1745 1.327 . S
C1748 C1736 1.349 . S
C1748 H1742 0.950 . S
C1748 C1749 1.327 . S
C1749 H1743 0.950 . S
C1749 C1748 1.327 . S
C1749 C1753 1.429 . S
C1750 C1733 1.574 . S
C1750 H1744 0.949 . S
C1750 C1754 1.368 . S
C1751 C1732 1.429 . S
C1751 C1745 1.429 . S
C1751 C1752 1.523 . S
C1752 C1733 1.368 . S
C1752 C1746 1.368 . S
C1752 C1751 1.523 . S
C1753 C1737 1.429 . S
C1753 C1749 1.429 . S
C1753 C1754 1.523 . S
C1754 C1738 1.368 . S
C1754 C1750 1.368 . S
C1754 C1753 1.523 . S
H1755 C1730 0.950 . S
H1756 C1732 0.950 . S
H1757 C1733 0.949 . S
H1758 C1735 0.950 . S
H1759 C1737 0.950 . S
C1760 C1761 1.349 . S
C1760 C1762 1.327 . S
C1760 H1785 0.950 . S
C1761 C1760 1.349 . S
C1761 C1777 1.349 . S
C1762 C1760 1.327 . S
C1762 C1781 1.429 . S
C1762 H1786 0.950 . S
C1763 C1780 1.574 . S
C1763 C1782 1.368 . S
C1763 H1787 0.949 . S
H1764 C1768 0.949 . S
C1765 C1766 1.349 . S
C1765 C1767 1.327 . S
C1765 H1788 0.950 . S
C1766 C1765 1.349 . S
C1766 C1778 1.349 . S
C1767 C1765 1.327 . S
C1767 C1783 1.429 . S
C1767 H1789 0.950 . S
C1768 H1764 0.949 . S
C1768 C1776 1.574 . S
C1768 C1784 1.368 . S
H1769 C1777 0.950 . S
H1770 C1775 0.950 . S
H1771 C1776 0.949 . S
H1772 C1778 0.950 . S
H1773 C1779 0.950 . S
H1774 C1780 0.949 . S
C1775 H1770 0.950 . S
C1775 C1777 1.327 . S
C1775 C1781 1.429 . S
C1776 C1768 1.574 . S
C1776 H1771 0.949 . S
C1776 C1782 1.368 . S
C1777 C1761 1.349 . S
C1777 H1769 0.950 . S
C1777 C1775 1.327 . S
C1778 C1766 1.349 . S
C1778 H1772 0.950 . S
C1778 C1779 1.327 . S
C1779 H1773 0.950 . S
C1779 C1778 1.327 . S
C1779 C1783 1.429 . S
C1780 C1763 1.574 . S
C1780 H1774 0.949 . S
C1780 C1784 1.368 . S
C1781 C1762 1.429 . S
C1781 C1775 1.429 . S
C1781 C1782 1.523 . S
C1782 C1763 1.368 . S
C1782 C1776 1.368 . S
C1782 C1781 1.523 . S
C1783 C1767 1.429 . S
C1783 C1779 1.429 . S
C1783 C1784 1.523 . S
C1784 C1768 1.368 . S
C1784 C1780 1.368 . S
C1784 C1783 1.523 . S
H1785 C1760 0.950 . S
H1786 C1762 0.950 . S
H1787 C1763 0.949 . S
H1788 C1765 0.950 . S
H1789 C1767 0.950 . S
C1790 C1791 1.349 . S
C1790 C1792 1.327 . S
C1790 H1815 0.950 . S
C1791 C1790 1.349 . S
C1791 C1807 1.349 . S
C1792 C1790 1.327 . S
C1792 C1811 1.429 . S
C1792 H1816 0.950 . S
C1793 C1810 1.574 . S
C1793 C1812 1.368 . S
C1793 H1817 0.949 . S
H1794 C1798 0.949 . S
C1795 C1796 1.349 . S
C1795 C1797 1.327 . S
C1795 H1818 0.950 . S
C1796 C1795 1.349 . S
C1796 C1808 1.349 . S
C1797 C1795 1.327 . S
C1797 C1813 1.429 . S
C1797 H1819 0.950 . S
C1798 H1794 0.949 . S
C1798 C1806 1.574 . S
C1798 C1814 1.368 . S
H1799 C1807 0.950 . S
H1800 C1805 0.950 . S
H1801 C1806 0.949 . S
H1802 C1808 0.950 . S
H1803 C1809 0.950 . S
H1804 C1810 0.949 . S
C1805 H1800 0.950 . S
C1805 C1807 1.327 . S
C1805 C1811 1.429 . S
C1806 C1798 1.574 . S
C1806 H1801 0.949 . S
C1806 C1812 1.368 . S
C1807 C1791 1.349 . S
C1807 H1799 0.950 . S
C1807 C1805 1.327 . S
C1808 C1796 1.349 . S
C1808 H1802 0.950 . S
C1808 C1809 1.327 . S
C1809 H1803 0.950 . S
C1809 C1808 1.327 . S
C1809 C1813 1.429 . S
C1810 C1793 1.574 . S
C1810 H1804 0.949 . S
C1810 C1814 1.368 . S
C1811 C1792 1.429 . S
C1811 C1805 1.429 . S
C1811 C1812 1.523 . S
C1812 C1793 1.368 . S
C1812 C1806 1.368 . S
C1812 C1811 1.523 . S
C1813 C1797 1.429 . S
C1813 C1809 1.429 . S
C1813 C1814 1.523 . S
C1814 C1798 1.368 . S
C1814 C1810 1.368 . S
C1814 C1813 1.523 . S
H1815 C1790 0.950 . S
H1816 C1792 0.950 . S
H1817 C1793 0.949 . S
H1818 C1795 0.950 . S
H1819 C1797 0.950 . S
C1820 C1821 1.349 . S
C1820 C1822 1.327 . S
C1820 H1845 0.950 . S
C1821 C1820 1.349 . S
C1821 C1837 1.349 . S
C1822 C1820 1.327 . S
C1822 C1841 1.429 . S
C1822 H1846 0.950 . S
C1823 C1840 1.574 . S
C1823 C1842 1.368 . S
C1823 H1847 0.949 . S
H1824 C1828 0.949 . S
C1825 C1826 1.349 . S
C1825 C1827 1.327 . S
C1825 H1848 0.950 . S
C1826 C1825 1.349 . S
C1826 C1838 1.349 . S
C1827 C1825 1.327 . S
C1827 C1843 1.429 . S
C1827 H1849 0.950 . S
C1828 H1824 0.949 . S
C1828 C1836 1.574 . S
C1828 C1844 1.368 . S
H1829 C1837 0.950 . S
H1830 C1835 0.950 . S
H1831 C1836 0.949 . S
H1832 C1838 0.950 . S
H1833 C1839 0.950 . S
H1834 C1840 0.949 . S
C1835 H1830 0.950 . S
C1835 C1837 1.327 . S
C1835 C1841 1.429 . S
C1836 C1828 1.574 . S
C1836 H1831 0.949 . S
C1836 C1842 1.368 . S
C1837 C1821 1.349 . S
C1837 H1829 0.950 . S
C1837 C1835 1.327 . S
C1838 C1826 1.349 . S
C1838 H1832 0.950 . S
C1838 C1839 1.327 . S
C1839 H1833 0.950 . S
C1839 C1838 1.327 . S
C1839 C1843 1.429 . S
C1840 C1823 1.574 . S
C1840 H1834 0.949 . S
C1840 C1844 1.368 . S
C1841 C1822 1.429 . S
C1841 C1835 1.429 . S
C1841 C1842 1.523 . S
C1842 C1823 1.368 . S
C1842 C1836 1.368 . S
C1842 C1841 1.523 . S
C1843 C1827 1.429 . S
C1843 C1839 1.429 . S
C1843 C1844 1.523 . S
C1844 C1828 1.368 . S
C1844 C1840 1.368 . S
C1844 C1843 1.523 . S
H1845 C1820 0.950 . S
H1846 C1822 0.950 . S
H1847 C1823 0.949 . S
H1848 C1825 0.950 . S
H1849 C1827 0.950 . S
C1850 C1851 1.349 . S
C1850 C1852 1.327 . S
C1850 H1875 0.950 . S
C1851 C1850 1.349 . S
C1851 C1867 1.349 . S
C1852 C1850 1.327 . S
C1852 C1871 1.429 . S
C1852 H1876 0.950 . S
C1853 C1870 1.574 . S
C1853 C1872 1.368 . S
C1853 H1877 0.949 . S
H1854 C1858 0.949 . S
C1855 C1856 1.349 . S
C1855 C1857 1.327 . S
C1855 H1878 0.950 . S
C1856 C1855 1.349 . S
C1856 C1868 1.349 . S
C1857 C1855 1.327 . S
C1857 C1873 1.429 . S
C1857 H1879 0.950 . S
C1858 H1854 0.949 . S
C1858 C1866 1.574 . S
C1858 C1874 1.368 . S
H1859 C1867 0.950 . S
H1860 C1865 0.950 . S
H1861 C1866 0.949 . S
H1862 C1868 0.950 . S
H1863 C1869 0.950 . S
H1864 C1870 0.949 . S
C1865 H1860 0.950 . S
C1865 C1867 1.327 . S
C1865 C1871 1.429 . S
C1866 C1858 1.574 . S
C1866 H1861 0.949 . S
C1866 C1872 1.368 . S
C1867 C1851 1.349 . S
C1867 H1859 0.950 . S
C1867 C1865 1.327 . S
C1868 C1856 1.349 . S
C1868 H1862 0.950 . S
C1868 C1869 1.327 . S
C1869 H1863 0.950 . S
C1869 C1868 1.327 . S
C1869 C1873 1.429 . S
C1870 C1853 1.574 . S
C1870 H1864 0.949 . S
C1870 C1874 1.368 . S
C1871 C1852 1.429 . S
C1871 C1865 1.429 . S
C1871 C1872 1.523 . S
C1872 C1853 1.368 . S
C1872 C1866 1.368 . S
C1872 C1871 1.523 . S
C1873 C1857 1.429 . S
C1873 C1869 1.429 . S
C1873 C1874 1.523 . S
C1874 C1858 1.368 . S
C1874 C1870 1.368 . S
C1874 C1873 1.523 . S
H1875 C1850 0.950 . S
H1876 C1852 0.950 . S
H1877 C1853 0.949 . S
H1878 C1855 0.950 . S
H1879 C1857 0.950 . S
C1880 C1881 1.349 1_545 S
C1880 C1882 1.327 . S
C1880 H1905 0.950 . S
C1881 C1880 1.349 1_565 S
C1881 C1897 1.349 . S
C1882 C1880 1.327 . S
C1882 C1901 1.429 1_545 S
C1882 H1906 0.950 . S
C1883 C1900 1.574 . S
C1883 C1902 1.368 . S
C1883 H1907 0.949 . S
H1884 C1888 0.949 . S
C1885 C1886 1.349 . S
C1885 C1887 1.327 . S
C1885 H1908 0.950 . S
C1886 C1885 1.349 . S
C1886 C1898 1.349 1_565 S
C1887 C1885 1.327 . S
C1887 C1903 1.429 . S
C1887 H1909 0.950 . S
C1888 H1884 0.949 . S
C1888 C1896 1.574 . S
C1888 C1904 1.368 1_545 S
H1889 C1897 0.950 . S
H1890 C1895 0.950 . S
H1891 C1896 0.949 . S
H1892 C1898 0.950 . S
H1893 C1899 0.950 . S
H1894 C1900 0.949 . S
C1895 H1890 0.950 . S
C1895 C1897 1.327 . S
C1895 C1901 1.429 . S
C1896 C1888 1.574 . S
C1896 H1891 0.949 . S
C1896 C1902 1.368 1_545 S
C1897 C1881 1.349 . S
C1897 H1889 0.950 . S
C1897 C1895 1.327 . S
C1898 C1886 1.349 1_545 S
C1898 H1892 0.950 . S
C1898 C1899 1.327 . S
C1899 H1893 0.950 . S
C1899 C1898 1.327 . S
C1899 C1903 1.429 1_545 S
C1900 C1883 1.574 . S
C1900 H1894 0.949 . S
C1900 C1904 1.368 . S
C1901 C1882 1.429 1_565 S
C1901 C1895 1.429 . S
C1901 C1902 1.523 . S
C1902 C1883 1.368 . S
C1902 C1896 1.368 1_565 S
C1902 C1901 1.523 . S
C1903 C1887 1.429 . S
C1903 C1899 1.429 1_565 S
C1903 C1904 1.523 . S
C1904 C1888 1.368 1_565 S
C1904 C1900 1.368 . S
C1904 C1903 1.523 . S
H1905 C1880 0.950 . S
H1906 C1882 0.950 . S
H1907 C1883 0.949 . S
H1908 C1885 0.950 . S
H1909 C1887 0.950 . S
C1910 C1911 1.349 . S
C1910 C1912 1.327 . S
C1910 H1935 0.950 . S
C1911 C1910 1.349 . S
C1911 C1927 1.349 . S
C1912 C1910 1.327 . S
C1912 C1931 1.429 . S
C1912 H1936 0.950 . S
C1913 C1930 1.574 . S
C1913 C1932 1.368 . S
C1913 H1937 0.949 . S
H1914 C1918 0.949 . S
C1915 C1916 1.349 . S
C1915 C1917 1.327 . S
C1915 H1938 0.950 . S
C1916 C1915 1.349 . S
C1916 C1928 1.349 . S
C1917 C1915 1.327 . S
C1917 C1933 1.429 . S
C1917 H1939 0.950 . S
C1918 H1914 0.949 . S
C1918 C1926 1.574 . S
C1918 C1934 1.368 . S
H1919 C1927 0.950 . S
H1920 C1925 0.950 . S
H1921 C1926 0.949 . S
H1922 C1928 0.950 . S
H1923 C1929 0.950 . S
H1924 C1930 0.949 . S
C1925 H1920 0.950 . S
C1925 C1927 1.327 . S
C1925 C1931 1.429 . S
C1926 C1918 1.574 . S
C1926 H1921 0.949 . S
C1926 C1932 1.368 . S
C1927 C1911 1.349 . S
C1927 H1919 0.950 . S
C1927 C1925 1.327 . S
C1928 C1916 1.349 . S
C1928 H1922 0.950 . S
C1928 C1929 1.327 . S
C1929 H1923 0.950 . S
C1929 C1928 1.327 . S
C1929 C1933 1.429 . S
C1930 C1913 1.574 . S
C1930 H1924 0.949 . S
C1930 C1934 1.368 . S
C1931 C1912 1.429 . S
C1931 C1925 1.429 . S
C1931 C1932 1.523 . S
C1932 C1913 1.368 . S
C1932 C1926 1.368 . S
C1932 C1931 1.523 . S
C1933 C1917 1.429 . S
C1933 C1929 1.429 . S
C1933 C1934 1.523 . S
C1934 C1918 1.368 . S
C1934 C1930 1.368 . S
C1934 C1933 1.523 . S
H1935 C1910 0.950 . S
H1936 C1912 0.950 . S
H1937 C1913 0.949 . S
H1938 C1915 0.950 . S
H1939 C1917 0.950 . S
C1940 C1941 1.349 1_565 S
C1940 C1942 1.327 . S
C1940 H1965 0.950 . S
C1941 C1940 1.349 1_545 S
C1941 C1957 1.349 . S
C1942 C1940 1.327 . S
C1942 C1961 1.429 1_565 S
C1942 H1966 0.950 . S
C1943 C1960 1.574 . S
C1943 C1962 1.368 . S
C1943 H1967 0.949 . S
H1944 C1948 0.949 . S
C1945 C1946 1.349 . S
C1945 C1947 1.327 . S
C1945 H1968 0.950 . S
C1946 C1945 1.349 . S
C1946 C1958 1.349 1_545 S
C1947 C1945 1.327 . S
C1947 C1963 1.429 . S
C1947 H1969 0.950 . S
C1948 H1944 0.949 . S
C1948 C1956 1.574 . S
C1948 C1964 1.368 1_565 S
H1949 C1957 0.950 . S
H1950 C1955 0.950 . S
H1951 C1956 0.949 . S
H1952 C1958 0.950 . S
H1953 C1959 0.950 . S
H1954 C1960 0.949 . S
C1955 H1950 0.950 . S
C1955 C1957 1.327 . S
C1955 C1961 1.429 . S
C1956 C1948 1.574 . S
C1956 H1951 0.949 . S
C1956 C1962 1.368 1_565 S
C1957 C1941 1.349 . S
C1957 H1949 0.950 . S
C1957 C1955 1.327 . S
C1958 C1946 1.349 1_565 S
C1958 H1952 0.950 . S
C1958 C1959 1.327 . S
C1959 H1953 0.950 . S
C1959 C1958 1.327 . S
C1959 C1963 1.429 1_565 S
C1960 C1943 1.574 . S
C1960 H1954 0.949 . S
C1960 C1964 1.368 . S
C1961 C1942 1.429 1_545 S
C1961 C1955 1.429 . S
C1961 C1962 1.523 . S
C1962 C1943 1.368 . S
C1962 C1956 1.368 1_545 S
C1962 C1961 1.523 . S
C1963 C1947 1.429 . S
C1963 C1959 1.429 1_545 S
C1963 C1964 1.523 . S
C1964 C1948 1.368 1_545 S
C1964 C1960 1.368 . S
C1964 C1963 1.523 . S
H1965 C1940 0.950 . S
H1966 C1942 0.950 . S
H1967 C1943 0.949 . S
H1968 C1945 0.950 . S
H1969 C1947 0.950 . S
C1970 C1971 1.349 . S
C1970 C1972 1.327 . S
C1970 H1995 0.950 . S
C1971 C1970 1.349 . S
C1971 C1987 1.349 . S
C1972 C1970 1.327 . S
C1972 C1991 1.429 . S
C1972 H1996 0.950 . S
C1973 C1990 1.574 . S
C1973 C1992 1.368 . S
C1973 H1997 0.949 . S
H1974 C1978 0.949 . S
C1975 C1976 1.349 . S
C1975 C1977 1.327 . S
C1975 H1998 0.950 . S
C1976 C1975 1.349 . S
C1976 C1988 1.349 . S
C1977 C1975 1.327 . S
C1977 C1993 1.429 . S
C1977 H1999 0.950 . S
C1978 H1974 0.949 . S
C1978 C1986 1.574 . S
C1978 C1994 1.368 . S
H1979 C1987 0.950 . S
H1980 C1985 0.950 . S
H1981 C1986 0.949 . S
H1982 C1988 0.950 . S
H1983 C1989 0.950 . S
H1984 C1990 0.949 . S
C1985 H1980 0.950 . S
C1985 C1987 1.327 . S
C1985 C1991 1.429 . S
C1986 C1978 1.574 . S
C1986 H1981 0.949 . S
C1986 C1992 1.368 . S
C1987 C1971 1.349 . S
C1987 H1979 0.950 . S
C1987 C1985 1.327 . S
C1988 C1976 1.349 . S
C1988 H1982 0.950 . S
C1988 C1989 1.327 . S
C1989 H1983 0.950 . S
C1989 C1988 1.327 . S
C1989 C1993 1.429 . S
C1990 C1973 1.574 . S
C1990 H1984 0.949 . S
C1990 C1994 1.368 . S
C1991 C1972 1.429 . S
C1991 C1985 1.429 . S
C1991 C1992 1.523 . S
C1992 C1973 1.368 . S
C1992 C1986 1.368 . S
C1992 C1991 1.523 . S
C1993 C1977 1.429 . S
C1993 C1989 1.429 . S
C1993 C1994 1.523 . S
C1994 C1978 1.368 . S
C1994 C1990 1.368 . S
C1994 C1993 1.523 . S
H1995 C1970 0.950 . S
H1996 C1972 0.950 . S
H1997 C1973 0.949 . S
H1998 C1975 0.950 . S
H1999 C1977 0.950 . S
C2000 C2001 1.349 . S
C2000 C2002 1.327 . S
C2000 H2025 0.950 . S
C2001 C2000 1.349 . S
C2001 C2017 1.349 . S
C2002 C2000 1.327 . S
C2002 C2021 1.429 . S
C2002 H2026 0.950 . S
C2003 C2020 1.574 . S
C2003 C2022 1.368 . S
C2003 H2027 0.949 . S
H2004 C2008 0.949 . S
C2005 C2006 1.349 . S
C2005 C2007 1.327 . S
C2005 H2028 0.950 . S
C2006 C2005 1.349 . S
C2006 C2018 1.349 . S
C2007 C2005 1.327 . S
C2007 C2023 1.429 . S
C2007 H2029 0.950 . S
C2008 H2004 0.949 . S
C2008 C2016 1.574 . S
C2008 C2024 1.368 . S
H2009 C2017 0.950 . S
H2010 C2015 0.950 . S
H2011 C2016 0.949 . S
H2012 C2018 0.950 . S
H2013 C2019 0.950 . S
H2014 C2020 0.949 . S
C2015 H2010 0.950 . S
C2015 C2017 1.327 . S
C2015 C2021 1.429 . S
C2016 C2008 1.574 . S
C2016 H2011 0.949 . S
C2016 C2022 1.368 . S
C2017 C2001 1.349 . S
C2017 H2009 0.950 . S
C2017 C2015 1.327 . S
C2018 C2006 1.349 . S
C2018 H2012 0.950 . S
C2018 C2019 1.327 . S
C2019 H2013 0.950 . S
C2019 C2018 1.327 . S
C2019 C2023 1.429 . S
C2020 C2003 1.574 . S
C2020 H2014 0.949 . S
C2020 C2024 1.368 . S
C2021 C2002 1.429 . S
C2021 C2015 1.429 . S
C2021 C2022 1.523 . S
C2022 C2003 1.368 . S
C2022 C2016 1.368 . S
C2022 C2021 1.523 . S
C2023 C2007 1.429 . S
C2023 C2019 1.429 . S
C2023 C2024 1.523 . S
C2024 C2008 1.368 . S
C2024 C2020 1.368 . S
C2024 C2023 1.523 . S
H2025 C2000 0.950 . S
H2026 C2002 0.950 . S
H2027 C2003 0.949 . S
H2028 C2005 0.950 . S
H2029 C2007 0.950 . S
C2030 C2031 1.349 . S
C2030 C2032 1.327 . S
C2030 H2055 0.950 . S
C2031 C2030 1.349 . S
C2031 C2047 1.349 . S
C2032 C2030 1.327 . S
C2032 C2051 1.429 . S
C2032 H2056 0.950 . S
C2033 C2050 1.574 . S
C2033 C2052 1.368 . S
C2033 H2057 0.949 . S
H2034 C2038 0.949 . S
C2035 C2036 1.349 . S
C2035 C2037 1.327 . S
C2035 H2058 0.950 . S
C2036 C2035 1.349 . S
C2036 C2048 1.349 . S
C2037 C2035 1.327 . S
C2037 C2053 1.429 . S
C2037 H2059 0.950 . S
C2038 H2034 0.949 . S
C2038 C2046 1.574 . S
C2038 C2054 1.368 . S
H2039 C2047 0.950 . S
H2040 C2045 0.950 . S
H2041 C2046 0.949 . S
H2042 C2048 0.950 . S
H2043 C2049 0.950 . S
H2044 C2050 0.949 . S
C2045 H2040 0.950 . S
C2045 C2047 1.327 . S
C2045 C2051 1.429 . S
C2046 C2038 1.574 . S
C2046 H2041 0.949 . S
C2046 C2052 1.368 . S
C2047 C2031 1.349 . S
C2047 H2039 0.950 . S
C2047 C2045 1.327 . S
C2048 C2036 1.349 . S
C2048 H2042 0.950 . S
C2048 C2049 1.327 . S
C2049 H2043 0.950 . S
C2049 C2048 1.327 . S
C2049 C2053 1.429 . S
C2050 C2033 1.574 . S
C2050 H2044 0.949 . S
C2050 C2054 1.368 . S
C2051 C2032 1.429 . S
C2051 C2045 1.429 . S
C2051 C2052 1.523 . S
C2052 C2033 1.368 . S
C2052 C2046 1.368 . S
C2052 C2051 1.523 . S
C2053 C2037 1.429 . S
C2053 C2049 1.429 . S
C2053 C2054 1.523 . S
C2054 C2038 1.368 . S
C2054 C2050 1.368 . S
C2054 C2053 1.523 . S
H2055 C2030 0.950 . S
H2056 C2032 0.950 . S
H2057 C2033 0.949 . S
H2058 C2035 0.950 . S
H2059 C2037 0.950 . S
C2060 C2061 1.349 . S
C2060 C2062 1.327 . S
C2060 H2085 0.950 . S
C2061 C2060 1.349 . S
C2061 C2077 1.349 . S
C2062 C2060 1.327 . S
C2062 C2081 1.429 . S
C2062 H2086 0.950 . S
C2063 C2080 1.574 . S
C2063 C2082 1.368 . S
C2063 H2087 0.949 . S
H2064 C2068 0.949 . S
C2065 C2066 1.349 . S
C2065 C2067 1.327 . S
C2065 H2088 0.950 . S
C2066 C2065 1.349 . S
C2066 C2078 1.349 . S
C2067 C2065 1.327 . S
C2067 C2083 1.429 . S
C2067 H2089 0.950 . S
C2068 H2064 0.949 . S
C2068 C2076 1.574 . S
C2068 C2084 1.368 . S
H2069 C2077 0.950 . S
H2070 C2075 0.950 . S
H2071 C2076 0.949 . S
H2072 C2078 0.950 . S
H2073 C2079 0.950 . S
H2074 C2080 0.949 . S
C2075 H2070 0.950 . S
C2075 C2077 1.327 . S
C2075 C2081 1.429 . S
C2076 C2068 1.574 . S
C2076 H2071 0.949 . S
C2076 C2082 1.368 . S
C2077 C2061 1.349 . S
C2077 H2069 0.950 . S
C2077 C2075 1.327 . S
C2078 C2066 1.349 . S
C2078 H2072 0.950 . S
C2078 C2079 1.327 . S
C2079 H2073 0.950 . S
C2079 C2078 1.327 . S
C2079 C2083 1.429 . S
C2080 C2063 1.574 . S
C2080 H2074 0.949 . S
C2080 C2084 1.368 . S
C2081 C2062 1.429 . S
C2081 C2075 1.429 . S
C2081 C2082 1.523 . S
C2082 C2063 1.368 . S
C2082 C2076 1.368 . S
C2082 C2081 1.523 . S
C2083 C2067 1.429 . S
C2083 C2079 1.429 . S
C2083 C2084 1.523 . S
C2084 C2068 1.368 . S
C2084 C2080 1.368 . S
C2084 C2083 1.523 . S
H2085 C2060 0.950 . S
H2086 C2062 0.950 . S
H2087 C2063 0.949 . S
H2088 C2065 0.950 . S
H2089 C2067 0.950 . S
C2090 C2091 1.349 . S
C2090 C2092 1.327 . S
C2090 H2115 0.950 . S
C2091 C2090 1.349 . S
C2091 C2107 1.349 . S
C2092 C2090 1.327 . S
C2092 C2111 1.429 . S
C2092 H2116 0.950 . S
C2093 C2110 1.574 . S
C2093 C2112 1.368 . S
C2093 H2117 0.949 . S
H2094 C2098 0.949 . S
C2095 C2096 1.349 . S
C2095 C2097 1.327 . S
C2095 H2118 0.950 . S
C2096 C2095 1.349 . S
C2096 C2108 1.349 . S
C2097 C2095 1.327 . S
C2097 C2113 1.429 . S
C2097 H2119 0.950 . S
C2098 H2094 0.949 . S
C2098 C2106 1.574 . S
C2098 C2114 1.368 . S
H2099 C2107 0.950 . S
H2100 C2105 0.950 . S
H2101 C2106 0.949 . S
H2102 C2108 0.950 . S
H2103 C2109 0.950 . S
H2104 C2110 0.949 . S
C2105 H2100 0.950 . S
C2105 C2107 1.327 . S
C2105 C2111 1.429 . S
C2106 C2098 1.574 . S
C2106 H2101 0.949 . S
C2106 C2112 1.368 . S
C2107 C2091 1.349 . S
C2107 H2099 0.950 . S
C2107 C2105 1.327 . S
C2108 C2096 1.349 . S
C2108 H2102 0.950 . S
C2108 C2109 1.327 . S
C2109 H2103 0.950 . S
C2109 C2108 1.327 . S
C2109 C2113 1.429 . S
C2110 C2093 1.574 . S
C2110 H2104 0.949 . S
C2110 C2114 1.368 . S
C2111 C2092 1.429 . S
C2111 C2105 1.429 . S
C2111 C2112 1.523 . S
C2112 C2093 1.368 . S
C2112 C2106 1.368 . S
C2112 C2111 1.523 . S
C2113 C2097 1.429 . S
C2113 C2109 1.429 . S
C2113 C2114 1.523 . S
C2114 C2098 1.368 . S
C2114 C2110 1.368 . S
C2114 C2113 1.523 . S
H2115 C2090 0.950 . S
H2116 C2092 0.950 . S
H2117 C2093 0.949 . S
H2118 C2095 0.950 . S
H2119 C2097 0.950 . S
C2120 C2121 1.349 1_545 S
C2120 C2122 1.327 . S
C2120 H2145 0.950 . S
C2121 C2120 1.349 1_565 S
C2121 C2137 1.349 . S
C2122 C2120 1.327 . S
C2122 C2141 1.429 1_545 S
C2122 H2146 0.950 . S
C2123 C2140 1.574 . S
C2123 C2142 1.368 . S
C2123 H2147 0.949 . S
H2124 C2128 0.949 . S
C2125 C2126 1.349 . S
C2125 C2127 1.327 . S
C2125 H2148 0.950 . S
C2126 C2125 1.349 . S
C2126 C2138 1.349 1_565 S
C2127 C2125 1.327 . S
C2127 C2143 1.429 . S
C2127 H2149 0.950 . S
C2128 H2124 0.949 . S
C2128 C2136 1.574 . S
C2128 C2144 1.368 1_545 S
H2129 C2137 0.950 . S
H2130 C2135 0.950 . S
H2131 C2136 0.949 . S
H2132 C2138 0.950 . S
H2133 C2139 0.950 . S
H2134 C2140 0.949 . S
C2135 H2130 0.950 . S
C2135 C2137 1.327 . S
C2135 C2141 1.429 . S
C2136 C2128 1.574 . S
C2136 H2131 0.949 . S
C2136 C2142 1.368 1_545 S
C2137 C2121 1.349 . S
C2137 H2129 0.950 . S
C2137 C2135 1.327 . S
C2138 C2126 1.349 1_545 S
C2138 H2132 0.950 . S
C2138 C2139 1.327 . S
C2139 H2133 0.950 . S
C2139 C2138 1.327 . S
C2139 C2143 1.429 1_545 S
C2140 C2123 1.574 . S
C2140 H2134 0.949 . S
C2140 C2144 1.368 . S
C2141 C2122 1.429 1_565 S
C2141 C2135 1.429 . S
C2141 C2142 1.523 . S
C2142 C2123 1.368 . S
C2142 C2136 1.368 1_565 S
C2142 C2141 1.523 . S
C2143 C2127 1.429 . S
C2143 C2139 1.429 1_565 S
C2143 C2144 1.523 . S
C2144 C2128 1.368 1_565 S
C2144 C2140 1.368 . S
C2144 C2143 1.523 . S
H2145 C2120 0.950 . S
H2146 C2122 0.950 . S
H2147 C2123 0.949 . S
H2148 C2125 0.950 . S
H2149 C2127 0.950 . S
C2150 C2151 1.349 . S
C2150 C2152 1.327 . S
C2150 H2175 0.950 . S
C2151 C2150 1.349 . S
C2151 C2167 1.349 . S
C2152 C2150 1.327 . S
C2152 C2171 1.429 . S
C2152 H2176 0.950 . S
C2153 C2170 1.574 . S
C2153 C2172 1.368 . S
C2153 H2177 0.949 . S
H2154 C2158 0.949 . S
C2155 C2156 1.349 . S
C2155 C2157 1.327 . S
C2155 H2178 0.950 . S
C2156 C2155 1.349 . S
C2156 C2168 1.349 . S
C2157 C2155 1.327 . S
C2157 C2173 1.429 . S
C2157 H2179 0.950 . S
C2158 H2154 0.949 . S
C2158 C2166 1.574 . S
C2158 C2174 1.368 . S
H2159 C2167 0.950 . S
H2160 C2165 0.950 . S
H2161 C2166 0.949 . S
H2162 C2168 0.950 . S
H2163 C2169 0.950 . S
H2164 C2170 0.949 . S
C2165 H2160 0.950 . S
C2165 C2167 1.327 . S
C2165 C2171 1.429 . S
C2166 C2158 1.574 . S
C2166 H2161 0.949 . S
C2166 C2172 1.368 . S
C2167 C2151 1.349 . S
C2167 H2159 0.950 . S
C2167 C2165 1.327 . S
C2168 C2156 1.349 . S
C2168 H2162 0.950 . S
C2168 C2169 1.327 . S
C2169 H2163 0.950 . S
C2169 C2168 1.327 . S
C2169 C2173 1.429 . S
C2170 C2153 1.574 . S
C2170 H2164 0.949 . S
C2170 C2174 1.368 . S
C2171 C2152 1.429 . S
C2171 C2165 1.429 . S
C2171 C2172 1.523 . S
C2172 C2153 1.368 . S
C2172 C2166 1.368 . S
C2172 C2171 1.523 . S
C2173 C2157 1.429 . S
C2173 C2169 1.429 . S
C2173 C2174 1.523 . S
C2174 C2158 1.368 . S
C2174 C2170 1.368 . S
C2174 C2173 1.523 . S
H2175 C2150 0.950 . S
H2176 C2152 0.950 . S
H2177 C2153 0.949 . S
H2178 C2155 0.950 . S
H2179 C2157 0.950 . S
C2180 C2181 1.349 1_565 S
C2180 C2182 1.327 . S
C2180 H2205 0.950 . S
C2181 C2180 1.349 1_545 S
C2181 C2197 1.349 . S
C2182 C2180 1.327 . S
C2182 C2201 1.429 1_565 S
C2182 H2206 0.950 . S
C2183 C2200 1.574 . S
C2183 C2202 1.368 . S
C2183 H2207 0.949 . S
H2184 C2188 0.949 . S
C2185 C2186 1.349 . S
C2185 C2187 1.327 . S
C2185 H2208 0.950 . S
C2186 C2185 1.349 . S
C2186 C2198 1.349 1_545 S
C2187 C2185 1.327 . S
C2187 C2203 1.429 . S
C2187 H2209 0.950 . S
C2188 H2184 0.949 . S
C2188 C2196 1.574 . S
C2188 C2204 1.368 1_565 S
H2189 C2197 0.950 . S
H2190 C2195 0.950 . S
H2191 C2196 0.949 . S
H2192 C2198 0.950 . S
H2193 C2199 0.950 . S
H2194 C2200 0.949 . S
C2195 H2190 0.950 . S
C2195 C2197 1.327 . S
C2195 C2201 1.429 . S
C2196 C2188 1.574 . S
C2196 H2191 0.949 . S
C2196 C2202 1.368 1_565 S
C2197 C2181 1.349 . S
C2197 H2189 0.950 . S
C2197 C2195 1.327 . S
C2198 C2186 1.349 1_565 S
C2198 H2192 0.950 . S
C2198 C2199 1.327 . S
C2199 H2193 0.950 . S
C2199 C2198 1.327 . S
C2199 C2203 1.429 1_565 S
C2200 C2183 1.574 . S
C2200 H2194 0.949 . S
C2200 C2204 1.368 . S
C2201 C2182 1.429 1_545 S
C2201 C2195 1.429 . S
C2201 C2202 1.523 . S
C2202 C2183 1.368 . S
C2202 C2196 1.368 1_545 S
C2202 C2201 1.523 . S
C2203 C2187 1.429 . S
C2203 C2199 1.429 1_545 S
C2203 C2204 1.523 . S
C2204 C2188 1.368 1_545 S
C2204 C2200 1.368 . S
C2204 C2203 1.523 . S
H2205 C2180 0.950 . S
H2206 C2182 0.950 . S
H2207 C2183 0.949 . S
H2208 C2185 0.950 . S
H2209 C2187 0.950 . S
C2210 C2211 1.349 . S
C2210 C2212 1.327 . S
C2210 H2235 0.950 . S
C2211 C2210 1.349 . S
C2211 C2227 1.349 . S
C2212 C2210 1.327 . S
C2212 C2231 1.429 . S
C2212 H2236 0.950 . S
C2213 C2230 1.574 . S
C2213 C2232 1.368 . S
C2213 H2237 0.949 . S
H2214 C2218 0.949 . S
C2215 C2216 1.349 . S
C2215 C2217 1.327 . S
C2215 H2238 0.950 . S
C2216 C2215 1.349 . S
C2216 C2228 1.349 . S
C2217 C2215 1.327 . S
C2217 C2233 1.429 . S
C2217 H2239 0.950 . S
C2218 H2214 0.949 . S
C2218 C2226 1.574 . S
C2218 C2234 1.368 . S
H2219 C2227 0.950 . S
H2220 C2225 0.950 . S
H2221 C2226 0.949 . S
H2222 C2228 0.950 . S
H2223 C2229 0.950 . S
H2224 C2230 0.949 . S
C2225 H2220 0.950 . S
C2225 C2227 1.327 . S
C2225 C2231 1.429 . S
C2226 C2218 1.574 . S
C2226 H2221 0.949 . S
C2226 C2232 1.368 . S
C2227 C2211 1.349 . S
C2227 H2219 0.950 . S
C2227 C2225 1.327 . S
C2228 C2216 1.349 . S
C2228 H2222 0.950 . S
C2228 C2229 1.327 . S
C2229 H2223 0.950 . S
C2229 C2228 1.327 . S
C2229 C2233 1.429 . S
C2230 C2213 1.574 . S
C2230 H2224 0.949 . S
C2230 C2234 1.368 . S
C2231 C2212 1.429 . S
C2231 C2225 1.429 . S
C2231 C2232 1.523 . S
C2232 C2213 1.368 . S
C2232 C2226 1.368 . S
C2232 C2231 1.523 . S
C2233 C2217 1.429 . S
C2233 C2229 1.429 . S
C2233 C2234 1.523 . S
C2234 C2218 1.368 . S
C2234 C2230 1.368 . S
C2234 C2233 1.523 . S
H2235 C2210 0.950 . S
H2236 C2212 0.950 . S
H2237 C2213 0.949 . S
H2238 C2215 0.950 . S
H2239 C2217 0.950 . S
C2240 C2241 1.349 . S
C2240 C2242 1.327 . S
C2240 H2265 0.950 . S
C2241 C2240 1.349 . S
C2241 C2257 1.349 . S
C2242 C2240 1.327 . S
C2242 C2261 1.429 . S
C2242 H2266 0.950 . S
C2243 C2260 1.574 . S
C2243 C2262 1.368 . S
C2243 H2267 0.949 . S
H2244 C2248 0.949 . S
C2245 C2246 1.349 . S
C2245 C2247 1.327 . S
C2245 H2268 0.950 . S
C2246 C2245 1.349 . S
C2246 C2258 1.349 . S
C2247 C2245 1.327 . S
C2247 C2263 1.429 . S
C2247 H2269 0.950 . S
C2248 H2244 0.949 . S
C2248 C2256 1.574 . S
C2248 C2264 1.368 . S
H2249 C2257 0.950 . S
H2250 C2255 0.950 . S
H2251 C2256 0.949 . S
H2252 C2258 0.950 . S
H2253 C2259 0.950 . S
H2254 C2260 0.949 . S
C2255 H2250 0.950 . S
C2255 C2257 1.327 . S
C2255 C2261 1.429 . S
C2256 C2248 1.574 . S
C2256 H2251 0.949 . S
C2256 C2262 1.368 . S
C2257 C2241 1.349 . S
C2257 H2249 0.950 . S
C2257 C2255 1.327 . S
C2258 C2246 1.349 . S
C2258 H2252 0.950 . S
C2258 C2259 1.327 . S
C2259 H2253 0.950 . S
C2259 C2258 1.327 . S
C2259 C2263 1.429 . S
C2260 C2243 1.574 . S
C2260 H2254 0.949 . S
C2260 C2264 1.368 . S
C2261 C2242 1.429 . S
C2261 C2255 1.429 . S
C2261 C2262 1.523 . S
C2262 C2243 1.368 . S
C2262 C2256 1.368 . S
C2262 C2261 1.523 . S
C2263 C2247 1.429 . S
C2263 C2259 1.429 . S
C2263 C2264 1.523 . S
C2264 C2248 1.368 . S
C2264 C2260 1.368 . S
C2264 C2263 1.523 . S
H2265 C2240 0.950 . S
H2266 C2242 0.950 . S
H2267 C2243 0.949 . S
H2268 C2245 0.950 . S
H2269 C2247 0.950 . S
C2270 C2271 1.349 . S
C2270 C2272 1.327 . S
C2270 H2295 0.950 . S
C2271 C2270 1.349 . S
C2271 C2287 1.349 . S
C2272 C2270 1.327 . S
C2272 C2291 1.429 . S
C2272 H2296 0.950 . S
C2273 C2290 1.574 . S
C2273 C2292 1.368 . S
C2273 H2297 0.949 . S
H2274 C2278 0.949 . S
C2275 C2276 1.349 . S
C2275 C2277 1.327 . S
C2275 H2298 0.950 . S
C2276 C2275 1.349 . S
C2276 C2288 1.349 . S
C2277 C2275 1.327 . S
C2277 C2293 1.429 . S
C2277 H2299 0.950 . S
C2278 H2274 0.949 . S
C2278 C2286 1.574 . S
C2278 C2294 1.368 . S
H2279 C2287 0.950 . S
H2280 C2285 0.950 . S
H2281 C2286 0.949 . S
H2282 C2288 0.950 . S
H2283 C2289 0.950 . S
H2284 C2290 0.949 . S
C2285 H2280 0.950 . S
C2285 C2287 1.327 . S
C2285 C2291 1.429 . S
C2286 C2278 1.574 . S
C2286 H2281 0.949 . S
C2286 C2292 1.368 . S
C2287 C2271 1.349 . S
C2287 H2279 0.950 . S
C2287 C2285 1.327 . S
C2288 C2276 1.349 . S
C2288 H2282 0.950 . S
C2288 C2289 1.327 . S
C2289 H2283 0.950 . S
C2289 C2288 1.327 . S
C2289 C2293 1.429 . S
C2290 C2273 1.574 . S
C2290 H2284 0.949 . S
C2290 C2294 1.368 . S
C2291 C2272 1.429 . S
C2291 C2285 1.429 . S
C2291 C2292 1.523 . S
C2292 C2273 1.368 . S
C2292 C2286 1.368 . S
C2292 C2291 1.523 . S
C2293 C2277 1.429 . S
C2293 C2289 1.429 . S
C2293 C2294 1.523 . S
C2294 C2278 1.368 . S
C2294 C2290 1.368 . S
C2294 C2293 1.523 . S
H2295 C2270 0.950 . S
H2296 C2272 0.950 . S
H2297 C2273 0.949 . S
H2298 C2275 0.950 . S
H2299 C2277 0.950 . S
C2300 C2301 1.349 . S
C2300 C2302 1.327 . S
C2300 H2325 0.950 . S
C2301 C2300 1.349 . S
C2301 C2317 1.349 . S
C2302 C2300 1.327 . S
C2302 C2321 1.429 . S
C2302 H2326 0.950 . S
C2303 C2320 1.574 . S
C2303 C2322 1.368 . S
C2303 H2327 0.949 . S
H2304 C2308 0.949 . S
C2305 C2306 1.349 . S
C2305 C2307 1.327 . S
C2305 H2328 0.950 . S
C2306 C2305 1.349 . S
C2306 C2318 1.349 . S
C2307 C2305 1.327 . S
C2307 C2323 1.429 . S
C2307 H2329 0.950 . S
C2308 H2304 0.949 . S
C2308 C2316 1.574 . S
C2308 C2324 1.368 . S
H2309 C2317 0.950 . S
H2310 C2315 0.950 . S
H2311 C2316 0.949 . S
H2312 C2318 0.950 . S
H2313 C2319 0.950 . S
H2314 C2320 0.949 . S
C2315 H2310 0.950 . S
C2315 C2317 1.327 . S
C2315 C2321 1.429 . S
C2316 C2308 1.574 . S
C2316 H2311 0.949 . S
C2316 C2322 1.368 . S
C2317 C2301 1.349 . S
C2317 H2309 0.950 . S
C2317 C2315 1.327 . S
C2318 C2306 1.349 . S
C2318 H2312 0.950 . S
C2318 C2319 1.327 . S
C2319 H2313 0.950 . S
C2319 C2318 1.327 . S
C2319 C2323 1.429 . S
C2320 C2303 1.574 . S
C2320 H2314 0.949 . S
C2320 C2324 1.368 . S
C2321 C2302 1.429 . S
C2321 C2315 1.429 . S
C2321 C2322 1.523 . S
C2322 C2303 1.368 . S
C2322 C2316 1.368 . S
C2322 C2321 1.523 . S
C2323 C2307 1.429 . S
C2323 C2319 1.429 . S
C2323 C2324 1.523 . S
C2324 C2308 1.368 . S
C2324 C2320 1.368 . S
C2324 C2323 1.523 . S
H2325 C2300 0.950 . S
H2326 C2302 0.950 . S
H2327 C2303 0.949 . S
H2328 C2305 0.950 . S
H2329 C2307 0.950 . S
C2330 C2331 1.349 . S
C2330 C2332 1.327 . S
C2330 H2355 0.950 . S
C2331 C2330 1.349 . S
C2331 C2347 1.349 . S
C2332 C2330 1.327 . S
C2332 C2351 1.429 . S
C2332 H2356 0.950 . S
C2333 C2350 1.574 . S
C2333 C2352 1.368 . S
C2333 H2357 0.949 . S
H2334 C2338 0.949 . S
C2335 C2336 1.349 . S
C2335 C2337 1.327 . S
C2335 H2358 0.950 . S
C2336 C2335 1.349 . S
C2336 C2348 1.349 . S
C2337 C2335 1.327 . S
C2337 C2353 1.429 . S
C2337 H2359 0.950 . S
C2338 H2334 0.949 . S
C2338 C2346 1.574 . S
C2338 C2354 1.368 . S
H2339 C2347 0.950 . S
H2340 C2345 0.950 . S
H2341 C2346 0.949 . S
H2342 C2348 0.950 . S
H2343 C2349 0.950 . S
H2344 C2350 0.949 . S
C2345 H2340 0.950 . S
C2345 C2347 1.327 . S
C2345 C2351 1.429 . S
C2346 C2338 1.574 . S
C2346 H2341 0.949 . S
C2346 C2352 1.368 . S
C2347 C2331 1.349 . S
C2347 H2339 0.950 . S
C2347 C2345 1.327 . S
C2348 C2336 1.349 . S
C2348 H2342 0.950 . S
C2348 C2349 1.327 . S
C2349 H2343 0.950 . S
C2349 C2348 1.327 . S
C2349 C2353 1.429 . S
C2350 C2333 1.574 . S
C2350 H2344 0.949 . S
C2350 C2354 1.368 . S
C2351 C2332 1.429 . S
C2351 C2345 1.429 . S
C2351 C2352 1.523 . S
C2352 C2333 1.368 . S
C2352 C2346 1.368 . S
C2352 C2351 1.523 . S
C2353 C2337 1.429 . S
C2353 C2349 1.429 . S
C2353 C2354 1.523 . S
C2354 C2338 1.368 . S
C2354 C2350 1.368 . S
C2354 C2353 1.523 . S
H2355 C2330 0.950 . S
H2356 C2332 0.950 . S
H2357 C2333 0.949 . S
H2358 C2335 0.950 . S
H2359 C2337 0.950 . S
C2360 C2361 1.349 . S
C2360 C2362 1.327 . S
C2360 H2385 0.950 . S
C2361 C2360 1.349 . S
C2361 C2377 1.349 . S
C2362 C2360 1.327 . S
C2362 C2381 1.429 . S
C2362 H2386 0.950 . S
C2363 C2380 1.574 . S
C2363 C2382 1.368 . S
C2363 H2387 0.949 . S
H2364 C2368 0.949 . S
C2365 C2366 1.349 . S
C2365 C2367 1.327 . S
C2365 H2388 0.950 . S
C2366 C2365 1.349 . S
C2366 C2378 1.349 . S
C2367 C2365 1.327 . S
C2367 C2383 1.429 . S
C2367 H2389 0.950 . S
C2368 H2364 0.949 . S
C2368 C2376 1.574 . S
C2368 C2384 1.368 . S
H2369 C2377 0.950 . S
H2370 C2375 0.950 . S
H2371 C2376 0.949 . S
H2372 C2378 0.950 . S
H2373 C2379 0.950 . S
H2374 C2380 0.949 . S
C2375 H2370 0.950 . S
C2375 C2377 1.327 . S
C2375 C2381 1.429 . S
C2376 C2368 1.574 . S
C2376 H2371 0.949 . S
C2376 C2382 1.368 . S
C2377 C2361 1.349 . S
C2377 H2369 0.950 . S
C2377 C2375 1.327 . S
C2378 C2366 1.349 . S
C2378 H2372 0.950 . S
C2378 C2379 1.327 . S
C2379 H2373 0.950 . S
C2379 C2378 1.327 . S
C2379 C2383 1.429 . S
C2380 C2363 1.574 . S
C2380 H2374 0.949 . S
C2380 C2384 1.368 . S
C2381 C2362 1.429 . S
C2381 C2375 1.429 . S
C2381 C2382 1.523 . S
C2382 C2363 1.368 . S
C2382 C2376 1.368 . S
C2382 C2381 1.523 . S
C2383 C2367 1.429 . S
C2383 C2379 1.429 . S
C2383 C2384 1.523 . S
C2384 C2368 1.368 . S
C2384 C2380 1.368 . S
C2384 C2383 1.523 . S
H2385 C2360 0.950 . S
H2386 C2362 0.950 . S
H2387 C2363 0.949 . S
H2388 C2365 0.950 . S
H2389 C2367 0.950 . S
C2390 C2391 1.349 . S
C2390 C2392 1.327 . S
C2390 H2415 0.950 . S
C2391 C2390 1.349 . S
C2391 C2407 1.349 . S
C2392 C2390 1.327 . S
C2392 C2411 1.429 . S
C2392 H2416 0.950 . S
C2393 C2410 1.574 . S
C2393 C2412 1.368 . S
C2393 H2417 0.949 . S
H2394 C2398 0.949 . S
C2395 C2396 1.349 . S
C2395 C2397 1.327 . S
C2395 H2418 0.950 . S
C2396 C2395 1.349 . S
C2396 C2408 1.349 . S
C2397 C2395 1.327 . S
C2397 C2413 1.429 . S
C2397 H2419 0.950 . S
C2398 H2394 0.949 . S
C2398 C2406 1.574 . S
C2398 C2414 1.368 . S
H2399 C2407 0.950 . S
H2400 C2405 0.950 . S
H2401 C2406 0.949 . S
H2402 C2408 0.950 . S
H2403 C2409 0.950 . S
H2404 C2410 0.949 . S
C2405 H2400 0.950 . S
C2405 C2407 1.327 . S
C2405 C2411 1.429 . S
C2406 C2398 1.574 . S
C2406 H2401 0.949 . S
C2406 C2412 1.368 . S
C2407 C2391 1.349 . S
C2407 H2399 0.950 . S
C2407 C2405 1.327 . S
C2408 C2396 1.349 . S
C2408 H2402 0.950 . S
C2408 C2409 1.327 . S
C2409 H2403 0.950 . S
C2409 C2408 1.327 . S
C2409 C2413 1.429 . S
C2410 C2393 1.574 . S
C2410 H2404 0.949 . S
C2410 C2414 1.368 . S
C2411 C2392 1.429 . S
C2411 C2405 1.429 . S
C2411 C2412 1.523 . S
C2412 C2393 1.368 . S
C2412 C2406 1.368 . S
C2412 C2411 1.523 . S
C2413 C2397 1.429 . S
C2413 C2409 1.429 . S
C2413 C2414 1.523 . S
C2414 C2398 1.368 . S
C2414 C2410 1.368 . S
C2414 C2413 1.523 . S
H2415 C2390 0.950 . S
H2416 C2392 0.950 . S
H2417 C2393 0.949 . S
H2418 C2395 0.950 . S
H2419 C2397 0.950 . S
C2420 C2421 1.349 . S
C2420 C2422 1.327 . S
C2420 H2445 0.950 . S
C2421 C2420 1.349 . S
C2421 C2437 1.349 . S
C2422 C2420 1.327 . S
C2422 C2441 1.429 . S
C2422 H2446 0.950 . S
C2423 C2440 1.574 . S
C2423 C2442 1.368 . S
C2423 H2447 0.949 . S
H2424 C2428 0.949 . S
C2425 C2426 1.349 . S
C2425 C2427 1.327 . S
C2425 H2448 0.950 . S
C2426 C2425 1.349 . S
C2426 C2438 1.349 . S
C2427 C2425 1.327 . S
C2427 C2443 1.429 . S
C2427 H2449 0.950 . S
C2428 H2424 0.949 . S
C2428 C2436 1.574 . S
C2428 C2444 1.368 . S
H2429 C2437 0.950 . S
H2430 C2435 0.950 . S
H2431 C2436 0.949 . S
H2432 C2438 0.950 . S
H2433 C2439 0.950 . S
H2434 C2440 0.949 . S
C2435 H2430 0.950 . S
C2435 C2437 1.327 . S
C2435 C2441 1.429 . S
C2436 C2428 1.574 . S
C2436 H2431 0.949 . S
C2436 C2442 1.368 . S
C2437 C2421 1.349 . S
C2437 H2429 0.950 . S
C2437 C2435 1.327 . S
C2438 C2426 1.349 . S
C2438 H2432 0.950 . S
C2438 C2439 1.327 . S
C2439 H2433 0.950 . S
C2439 C2438 1.327 . S
C2439 C2443 1.429 . S
C2440 C2423 1.574 . S
C2440 H2434 0.949 . S
C2440 C2444 1.368 . S
C2441 C2422 1.429 . S
C2441 C2435 1.429 . S
C2441 C2442 1.523 . S
C2442 C2423 1.368 . S
C2442 C2436 1.368 . S
C2442 C2441 1.523 . S
C2443 C2427 1.429 . S
C2443 C2439 1.429 . S
C2443 C2444 1.523 . S
C2444 C2428 1.368 . S
C2444 C2440 1.368 . S
C2444 C2443 1.523 . S
H2445 C2420 0.950 . S
H2446 C2422 0.950 . S
H2447 C2423 0.949 . S
H2448 C2425 0.950 . S
H2449 C2427 0.950 . S
C2450 C2451 1.349 . S
C2450 C2452 1.327 . S
C2450 H2475 0.950 . S
C2451 C2450 1.349 . S
C2451 C2467 1.349 . S
C2452 C2450 1.327 . S
C2452 C2471 1.429 . S
C2452 H2476 0.950 . S
C2453 C2470 1.574 . S
C2453 C2472 1.368 . S
C2453 H2477 0.949 . S
H2454 C2458 0.949 . S
C2455 C2456 1.349 . S
C2455 C2457 1.327 . S
C2455 H2478 0.950 . S
C2456 C2455 1.349 . S
C2456 C2468 1.349 . S
C2457 C2455 1.327 . S
C2457 C2473 1.429 . S
C2457 H2479 0.950 . S
C2458 H2454 0.949 . S
C2458 C2466 1.574 . S
C2458 C2474 1.368 . S
H2459 C2467 0.950 . S
H2460 C2465 0.950 . S
H2461 C2466 0.949 . S
H2462 C2468 0.950 . S
H2463 C2469 0.950 . S
H2464 C2470 0.949 . S
C2465 H2460 0.950 . S
C2465 C2467 1.327 . S
C2465 C2471 1.429 . S
C2466 C2458 1.574 . S
C2466 H2461 0.949 . S
C2466 C2472 1.368 . S
C2467 C2451 1.349 . S
C2467 H2459 0.950 . S
C2467 C2465 1.327 . S
C2468 C2456 1.349 . S
C2468 H2462 0.950 . S
C2468 C2469 1.327 . S
C2469 H2463 0.950 . S
C2469 C2468 1.327 . S
C2469 C2473 1.429 . S
C2470 C2453 1.574 . S
C2470 H2464 0.949 . S
C2470 C2474 1.368 . S
C2471 C2452 1.429 . S
C2471 C2465 1.429 . S
C2471 C2472 1.523 . S
C2472 C2453 1.368 . S
C2472 C2466 1.368 . S
C2472 C2471 1.523 . S
C2473 C2457 1.429 . S
C2473 C2469 1.429 . S
C2473 C2474 1.523 . S
C2474 C2458 1.368 . S
C2474 C2470 1.368 . S
C2474 C2473 1.523 . S
H2475 C2450 0.950 . S
H2476 C2452 0.950 . S
H2477 C2453 0.949 . S
H2478 C2455 0.950 . S
H2479 C2457 0.950 . S
C2480 C2481 1.349 . S
C2480 C2482 1.327 . S
C2480 H2505 0.950 . S
C2481 C2480 1.349 . S
C2481 C2497 1.349 . S
C2482 C2480 1.327 . S
C2482 C2501 1.429 . S
C2482 H2506 0.950 . S
C2483 C2500 1.574 . S
C2483 C2502 1.368 . S
C2483 H2507 0.949 . S
H2484 C2488 0.949 . S
C2485 C2486 1.349 . S
C2485 C2487 1.327 . S
C2485 H2508 0.950 . S
C2486 C2485 1.349 . S
C2486 C2498 1.349 . S
C2487 C2485 1.327 . S
C2487 C2503 1.429 . S
C2487 H2509 0.950 . S
C2488 H2484 0.949 . S
C2488 C2496 1.574 . S
C2488 C2504 1.368 . S
H2489 C2497 0.950 . S
H2490 C2495 0.950 . S
H2491 C2496 0.949 . S
H2492 C2498 0.950 . S
H2493 C2499 0.950 . S
H2494 C2500 0.949 . S
C2495 H2490 0.950 . S
C2495 C2497 1.327 . S
C2495 C2501 1.429 . S
C2496 C2488 1.574 . S
C2496 H2491 0.949 . S
C2496 C2502 1.368 . S
C2497 C2481 1.349 . S
C2497 H2489 0.950 . S
C2497 C2495 1.327 . S
C2498 C2486 1.349 . S
C2498 H2492 0.950 . S
C2498 C2499 1.327 . S
C2499 H2493 0.950 . S
C2499 C2498 1.327 . S
C2499 C2503 1.429 . S
C2500 C2483 1.574 . S
C2500 H2494 0.949 . S
C2500 C2504 1.368 . S
C2501 C2482 1.429 . S
C2501 C2495 1.429 . S
C2501 C2502 1.523 . S
C2502 C2483 1.368 . S
C2502 C2496 1.368 . S
C2502 C2501 1.523 . S
C2503 C2487 1.429 . S
C2503 C2499 1.429 . S
C2503 C2504 1.523 . S
C2504 C2488 1.368 . S
C2504 C2500 1.368 . S
C2504 C2503 1.523 . S
H2505 C2480 0.950 . S
H2506 C2482 0.950 . S
H2507 C2483 0.949 . S
H2508 C2485 0.950 . S
H2509 C2487 0.950 . S
C2510 C2511 1.349 . S
C2510 C2512 1.327 . S
C2510 H2535 0.950 . S
C2511 C2510 1.349 . S
C2511 C2527 1.349 . S
C2512 C2510 1.327 . S
C2512 C2531 1.429 . S
C2512 H2536 0.950 . S
C2513 C2530 1.574 . S
C2513 C2532 1.368 . S
C2513 H2537 0.949 . S
H2514 C2518 0.949 . S
C2515 C2516 1.349 . S
C2515 C2517 1.327 . S
C2515 H2538 0.950 . S
C2516 C2515 1.349 . S
C2516 C2528 1.349 . S
C2517 C2515 1.327 . S
C2517 C2533 1.429 . S
C2517 H2539 0.950 . S
C2518 H2514 0.949 . S
C2518 C2526 1.574 . S
C2518 C2534 1.368 . S
H2519 C2527 0.950 . S
H2520 C2525 0.950 . S
H2521 C2526 0.949 . S
H2522 C2528 0.950 . S
H2523 C2529 0.950 . S
H2524 C2530 0.949 . S
C2525 H2520 0.950 . S
C2525 C2527 1.327 . S
C2525 C2531 1.429 . S
C2526 C2518 1.574 . S
C2526 H2521 0.949 . S
C2526 C2532 1.368 . S
C2527 C2511 1.349 . S
C2527 H2519 0.950 . S
C2527 C2525 1.327 . S
C2528 C2516 1.349 . S
C2528 H2522 0.950 . S
C2528 C2529 1.327 . S
C2529 H2523 0.950 . S
C2529 C2528 1.327 . S
C2529 C2533 1.429 . S
C2530 C2513 1.574 . S
C2530 H2524 0.949 . S
C2530 C2534 1.368 . S
C2531 C2512 1.429 . S
C2531 C2525 1.429 . S
C2531 C2532 1.523 . S
C2532 C2513 1.368 . S
C2532 C2526 1.368 . S
C2532 C2531 1.523 . S
C2533 C2517 1.429 . S
C2533 C2529 1.429 . S
C2533 C2534 1.523 . S
C2534 C2518 1.368 . S
C2534 C2530 1.368 . S
C2534 C2533 1.523 . S
H2535 C2510 0.950 . S
H2536 C2512 0.950 . S
H2537 C2513 0.949 . S
H2538 C2515 0.950 . S
H2539 C2517 0.950 . S
C2540 C2541 1.349 . S
C2540 C2542 1.327 . S
C2540 H2565 0.950 . S
C2541 C2540 1.349 . S
C2541 C2557 1.349 . S
C2542 C2540 1.327 . S
C2542 C2561 1.429 . S
C2542 H2566 0.950 . S
C2543 C2560 1.574 . S
C2543 C2562 1.368 . S
C2543 H2567 0.949 . S
H2544 C2548 0.949 . S
C2545 C2546 1.349 . S
C2545 C2547 1.327 . S
C2545 H2568 0.950 . S
C2546 C2545 1.349 . S
C2546 C2558 1.349 . S
C2547 C2545 1.327 . S
C2547 C2563 1.429 . S
C2547 H2569 0.950 . S
C2548 H2544 0.949 . S
C2548 C2556 1.574 . S
C2548 C2564 1.368 . S
H2549 C2557 0.950 . S
H2550 C2555 0.950 . S
H2551 C2556 0.949 . S
H2552 C2558 0.950 . S
H2553 C2559 0.950 . S
H2554 C2560 0.949 . S
C2555 H2550 0.950 . S
C2555 C2557 1.327 . S
C2555 C2561 1.429 . S
C2556 C2548 1.574 . S
C2556 H2551 0.949 . S
C2556 C2562 1.368 . S
C2557 C2541 1.349 . S
C2557 H2549 0.950 . S
C2557 C2555 1.327 . S
C2558 C2546 1.349 . S
C2558 H2552 0.950 . S
C2558 C2559 1.327 . S
C2559 H2553 0.950 . S
C2559 C2558 1.327 . S
C2559 C2563 1.429 . S
C2560 C2543 1.574 . S
C2560 H2554 0.949 . S
C2560 C2564 1.368 . S
C2561 C2542 1.429 . S
C2561 C2555 1.429 . S
C2561 C2562 1.523 . S
C2562 C2543 1.368 . S
C2562 C2556 1.368 . S
C2562 C2561 1.523 . S
C2563 C2547 1.429 . S
C2563 C2559 1.429 . S
C2563 C2564 1.523 . S
C2564 C2548 1.368 . S
C2564 C2560 1.368 . S
C2564 C2563 1.523 . S
H2565 C2540 0.950 . S
H2566 C2542 0.950 . S
H2567 C2543 0.949 . S
H2568 C2545 0.950 . S
H2569 C2547 0.950 . S
C2570 C2571 1.349 . S
C2570 C2572 1.327 . S
C2570 H2595 0.950 . S
C2571 C2570 1.349 . S
C2571 C2587 1.349 . S
C2572 C2570 1.327 . S
C2572 C2591 1.429 . S
C2572 H2596 0.950 . S
C2573 C2590 1.574 . S
C2573 C2592 1.368 . S
C2573 H2597 0.949 . S
H2574 C2578 0.949 . S
C2575 C2576 1.349 . S
C2575 C2577 1.327 . S
C2575 H2598 0.950 . S
C2576 C2575 1.349 . S
C2576 C2588 1.349 . S
C2577 C2575 1.327 . S
C2577 C2593 1.429 . S
C2577 H2599 0.950 . S
C2578 H2574 0.949 . S
C2578 C2586 1.574 . S
C2578 C2594 1.368 . S
H2579 C2587 0.950 . S
H2580 C2585 0.950 . S
H2581 C2586 0.949 . S
H2582 C2588 0.950 . S
H2583 C2589 0.950 . S
H2584 C2590 0.949 . S
C2585 H2580 0.950 . S
C2585 C2587 1.327 . S
C2585 C2591 1.429 . S
C2586 C2578 1.574 . S
C2586 H2581 0.949 . S
C2586 C2592 1.368 . S
C2587 C2571 1.349 . S
C2587 H2579 0.950 . S
C2587 C2585 1.327 . S
C2588 C2576 1.349 . S
C2588 H2582 0.950 . S
C2588 C2589 1.327 . S
C2589 H2583 0.950 . S
C2589 C2588 1.327 . S
C2589 C2593 1.429 . S
C2590 C2573 1.574 . S
C2590 H2584 0.949 . S
C2590 C2594 1.368 . S
C2591 C2572 1.429 . S
C2591 C2585 1.429 . S
C2591 C2592 1.523 . S
C2592 C2573 1.368 . S
C2592 C2586 1.368 . S
C2592 C2591 1.523 . S
C2593 C2577 1.429 . S
C2593 C2589 1.429 . S
C2593 C2594 1.523 . S
C2594 C2578 1.368 . S
C2594 C2590 1.368 . S
C2594 C2593 1.523 . S
H2595 C2570 0.950 . S
H2596 C2572 0.950 . S
H2597 C2573 0.949 . S
H2598 C2575 0.950 . S
H2599 C2577 0.950 . S
C2600 C2601 1.349 . S
C2600 C2602 1.327 . S
C2600 H2625 0.950 . S
C2601 C2600 1.349 . S
C2601 C2617 1.349 . S
C2602 C2600 1.327 . S
C2602 C2621 1.429 . S
C2602 H2626 0.950 . S
C2603 C2620 1.574 . S
C2603 C2622 1.368 . S
C2603 H2627 0.949 . S
H2604 C2608 0.949 . S
C2605 C2606 1.349 . S
C2605 C2607 1.327 . S
C2605 H2628 0.950 . S
C2606 C2605 1.349 . S
C2606 C2618 1.349 . S
C2607 C2605 1.327 . S
C2607 C2623 1.429 . S
C2607 H2629 0.950 . S
C2608 H2604 0.949 . S
C2608 C2616 1.574 . S
C2608 C2624 1.368 . S
H2609 C2617 0.950 . S
H2610 C2615 0.950 . S
H2611 C2616 0.949 . S
H2612 C2618 0.950 . S
H2613 C2619 0.950 . S
H2614 C2620 0.949 . S
C2615 H2610 0.950 . S
C2615 C2617 1.327 . S
C2615 C2621 1.429 . S
C2616 C2608 1.574 . S
C2616 H2611 0.949 . S
C2616 C2622 1.368 . S
C2617 C2601 1.349 . S
C2617 H2609 0.950 . S
C2617 C2615 1.327 . S
C2618 C2606 1.349 . S
C2618 H2612 0.950 . S
C2618 C2619 1.327 . S
C2619 H2613 0.950 . S
C2619 C2618 1.327 . S
C2619 C2623 1.429 . S
C2620 C2603 1.574 . S
C2620 H2614 0.949 . S
C2620 C2624 1.368 . S
C2621 C2602 1.429 . S
C2621 C2615 1.429 . S
C2621 C2622 1.523 . S
C2622 C2603 1.368 . S
C2622 C2616 1.368 . S
C2622 C2621 1.523 . S
C2623 C2607 1.429 . S
C2623 C2619 1.429 . S
C2623 C2624 1.523 . S
C2624 C2608 1.368 . S
C2624 C2620 1.368 . S
C2624 C2623 1.523 . S
H2625 C2600 0.950 . S
H2626 C2602 0.950 . S
H2627 C2603 0.949 . S
H2628 C2605 0.950 . S
H2629 C2607 0.950 . S
C2630 C2631 1.349 . S
C2630 C2632 1.327 . S
C2630 H2655 0.950 . S
C2631 C2630 1.349 . S
C2631 C2647 1.349 . S
C2632 C2630 1.327 . S
C2632 C2651 1.429 . S
C2632 H2656 0.950 . S
C2633 C2650 1.574 . S
C2633 C2652 1.368 . S
C2633 H2657 0.949 . S
H2634 C2638 0.949 . S
C2635 C2636 1.349 . S
C2635 C2637 1.327 . S
C2635 H2658 0.950 . S
C2636 C2635 1.349 . S
C2636 C2648 1.349 . S
C2637 C2635 1.327 . S
C2637 C2653 1.429 . S
C2637 H2659 0.950 . S
C2638 H2634 0.949 . S
C2638 C2646 1.574 . S
C2638 C2654 1.368 . S
H2639 C2647 0.950 . S
H2640 C2645 0.950 . S
H2641 C2646 0.949 . S
H2642 C2648 0.950 . S
H2643 C2649 0.950 . S
H2644 C2650 0.949 . S
C2645 H2640 0.950 . S
C2645 C2647 1.327 . S
C2645 C2651 1.429 . S
C2646 C2638 1.574 . S
C2646 H2641 0.949 . S
C2646 C2652 1.368 . S
C2647 C2631 1.349 . S
C2647 H2639 0.950 . S
C2647 C2645 1.327 . S
C2648 C2636 1.349 . S
C2648 H2642 0.950 . S
C2648 C2649 1.327 . S
C2649 H2643 0.950 . S
C2649 C2648 1.327 . S
C2649 C2653 1.429 . S
C2650 C2633 1.574 . S
C2650 H2644 0.949 . S
C2650 C2654 1.368 . S
C2651 C2632 1.429 . S
C2651 C2645 1.429 . S
C2651 C2652 1.523 . S
C2652 C2633 1.368 . S
C2652 C2646 1.368 . S
C2652 C2651 1.523 . S
C2653 C2637 1.429 . S
C2653 C2649 1.429 . S
C2653 C2654 1.523 . S
C2654 C2638 1.368 . S
C2654 C2650 1.368 . S
C2654 C2653 1.523 . S
H2655 C2630 0.950 . S
H2656 C2632 0.950 . S
H2657 C2633 0.949 . S
H2658 C2635 0.950 . S
H2659 C2637 0.950 . S
C2660 C2661 1.349 . S
C2660 C2662 1.327 . S
C2660 H2685 0.950 . S
C2661 C2660 1.349 . S
C2661 C2677 1.349 . S
C2662 C2660 1.327 . S
C2662 C2681 1.429 . S
C2662 H2686 0.950 . S
C2663 C2680 1.574 . S
C2663 C2682 1.368 . S
C2663 H2687 0.949 . S
H2664 C2668 0.949 . S
C2665 C2666 1.349 . S
C2665 C2667 1.327 . S
C2665 H2688 0.950 . S
C2666 C2665 1.349 . S
C2666 C2678 1.349 . S
C2667 C2665 1.327 . S
C2667 C2683 1.429 . S
C2667 H2689 0.950 . S
C2668 H2664 0.949 . S
C2668 C2676 1.574 . S
C2668 C2684 1.368 . S
H2669 C2677 0.950 . S
H2670 C2675 0.950 . S
H2671 C2676 0.949 . S
H2672 C2678 0.950 . S
H2673 C2679 0.950 . S
H2674 C2680 0.949 . S
C2675 H2670 0.950 . S
C2675 C2677 1.327 . S
C2675 C2681 1.429 . S
C2676 C2668 1.574 . S
C2676 H2671 0.949 . S
C2676 C2682 1.368 . S
C2677 C2661 1.349 . S
C2677 H2669 0.950 . S
C2677 C2675 1.327 . S
C2678 C2666 1.349 . S
C2678 H2672 0.950 . S
C2678 C2679 1.327 . S
C2679 H2673 0.950 . S
C2679 C2678 1.327 . S
C2679 C2683 1.429 . S
C2680 C2663 1.574 . S
C2680 H2674 0.949 . S
C2680 C2684 1.368 . S
C2681 C2662 1.429 . S
C2681 C2675 1.429 . S
C2681 C2682 1.523 . S
C2682 C2663 1.368 . S
C2682 C2676 1.368 . S
C2682 C2681 1.523 . S
C2683 C2667 1.429 . S
C2683 C2679 1.429 . S
C2683 C2684 1.523 . S
C2684 C2668 1.368 . S
C2684 C2680 1.368 . S
C2684 C2683 1.523 . S
H2685 C2660 0.950 . S
H2686 C2662 0.950 . S
H2687 C2663 0.949 . S
H2688 C2665 0.950 . S
H2689 C2667 0.950 . S
C2690 C2691 1.349 . S
C2690 C2692 1.327 . S
C2690 H2715 0.950 . S
C2691 C2690 1.349 . S
C2691 C2707 1.349 . S
C2692 C2690 1.327 . S
C2692 C2711 1.429 . S
C2692 H2716 0.950 . S
C2693 C2710 1.574 . S
C2693 C2712 1.368 . S
C2693 H2717 0.949 . S
H2694 C2698 0.949 . S
C2695 C2696 1.349 . S
C2695 C2697 1.327 . S
C2695 H2718 0.950 . S
C2696 C2695 1.349 . S
C2696 C2708 1.349 . S
C2697 C2695 1.327 . S
C2697 C2713 1.429 . S
C2697 H2719 0.950 . S
C2698 H2694 0.949 . S
C2698 C2706 1.574 . S
C2698 C2714 1.368 . S
H2699 C2707 0.950 . S
H2700 C2705 0.950 . S
H2701 C2706 0.949 . S
H2702 C2708 0.950 . S
H2703 C2709 0.950 . S
H2704 C2710 0.949 . S
C2705 H2700 0.950 . S
C2705 C2707 1.327 . S
C2705 C2711 1.429 . S
C2706 C2698 1.574 . S
C2706 H2701 0.949 . S
C2706 C2712 1.368 . S
C2707 C2691 1.349 . S
C2707 H2699 0.950 . S
C2707 C2705 1.327 . S
C2708 C2696 1.349 . S
C2708 H2702 0.950 . S
C2708 C2709 1.327 . S
C2709 H2703 0.950 . S
C2709 C2708 1.327 . S
C2709 C2713 1.429 . S
C2710 C2693 1.574 . S
C2710 H2704 0.949 . S
C2710 C2714 1.368 . S
C2711 C2692 1.429 . S
C2711 C2705 1.429 . S
C2711 C2712 1.523 . S
C2712 C2693 1.368 . S
C2712 C2706 1.368 . S
C2712 C2711 1.523 . S
C2713 C2697 1.429 . S
C2713 C2709 1.429 . S
C2713 C2714 1.523 . S
C2714 C2698 1.368 . S
C2714 C2710 1.368 . S
C2714 C2713 1.523 . S
H2715 C2690 0.950 . S
H2716 C2692 0.950 . S
H2717 C2693 0.949 . S
H2718 C2695 0.950 . S
H2719 C2697 0.950 . S
C2720 C2721 1.349 . S
C2720 C2722 1.327 . S
C2720 H2745 0.950 . S
C2721 C2720 1.349 . S
C2721 C2737 1.349 . S
C2722 C2720 1.327 . S
C2722 C2741 1.429 . S
C2722 H2746 0.950 . S
C2723 C2740 1.574 . S
C2723 C2742 1.368 . S
C2723 H2747 0.949 . S
H2724 C2728 0.949 . S
C2725 C2726 1.349 . S
C2725 C2727 1.327 . S
C2725 H2748 0.950 . S
C2726 C2725 1.349 . S
C2726 C2738 1.349 . S
C2727 C2725 1.327 . S
C2727 C2743 1.429 . S
C2727 H2749 0.950 . S
C2728 H2724 0.949 . S
C2728 C2736 1.574 . S
C2728 C2744 1.368 . S
H2729 C2737 0.950 . S
H2730 C2735 0.950 . S
H2731 C2736 0.949 . S
H2732 C2738 0.950 . S
H2733 C2739 0.950 . S
H2734 C2740 0.949 . S
C2735 H2730 0.950 . S
C2735 C2737 1.327 . S
C2735 C2741 1.429 . S
C2736 C2728 1.574 . S
C2736 H2731 0.949 . S
C2736 C2742 1.368 . S
C2737 C2721 1.349 . S
C2737 H2729 0.950 . S
C2737 C2735 1.327 . S
C2738 C2726 1.349 . S
C2738 H2732 0.950 . S
C2738 C2739 1.327 . S
C2739 H2733 0.950 . S
C2739 C2738 1.327 . S
C2739 C2743 1.429 . S
C2740 C2723 1.574 . S
C2740 H2734 0.949 . S
C2740 C2744 1.368 . S
C2741 C2722 1.429 . S
C2741 C2735 1.429 . S
C2741 C2742 1.523 . S
C2742 C2723 1.368 . S
C2742 C2736 1.368 . S
C2742 C2741 1.523 . S
C2743 C2727 1.429 . S
C2743 C2739 1.429 . S
C2743 C2744 1.523 . S
C2744 C2728 1.368 . S
C2744 C2740 1.368 . S
C2744 C2743 1.523 . S
H2745 C2720 0.950 . S
H2746 C2722 0.950 . S
H2747 C2723 0.949 . S
H2748 C2725 0.950 . S
H2749 C2727 0.950 . S
C2750 C2751 1.349 . S
C2750 C2752 1.327 . S
C2750 H2775 0.950 . S
C2751 C2750 1.349 . S
C2751 C2767 1.349 . S
C2752 C2750 1.327 . S
C2752 C2771 1.429 . S
C2752 H2776 0.950 . S
C2753 C2770 1.574 . S
C2753 C2772 1.368 . S
C2753 H2777 0.949 . S
H2754 C2758 0.949 . S
C2755 C2756 1.349 . S
C2755 C2757 1.327 . S
C2755 H2778 0.950 . S
C2756 C2755 1.349 . S
C2756 C2768 1.349 . S
C2757 C2755 1.327 . S
C2757 C2773 1.429 . S
C2757 H2779 0.950 . S
C2758 H2754 0.949 . S
C2758 C2766 1.574 . S
C2758 C2774 1.368 . S
H2759 C2767 0.950 . S
H2760 C2765 0.950 . S
H2761 C2766 0.949 . S
H2762 C2768 0.950 . S
H2763 C2769 0.950 . S
H2764 C2770 0.949 . S
C2765 H2760 0.950 . S
C2765 C2767 1.327 . S
C2765 C2771 1.429 . S
C2766 C2758 1.574 . S
C2766 H2761 0.949 . S
C2766 C2772 1.368 . S
C2767 C2751 1.349 . S
C2767 H2759 0.950 . S
C2767 C2765 1.327 . S
C2768 C2756 1.349 . S
C2768 H2762 0.950 . S
C2768 C2769 1.327 . S
C2769 H2763 0.950 . S
C2769 C2768 1.327 . S
C2769 C2773 1.429 . S
C2770 C2753 1.574 . S
C2770 H2764 0.949 . S
C2770 C2774 1.368 . S
C2771 C2752 1.429 . S
C2771 C2765 1.429 . S
C2771 C2772 1.523 . S
C2772 C2753 1.368 . S
C2772 C2766 1.368 . S
C2772 C2771 1.523 . S
C2773 C2757 1.429 . S
C2773 C2769 1.429 . S
C2773 C2774 1.523 . S
C2774 C2758 1.368 . S
C2774 C2770 1.368 . S
C2774 C2773 1.523 . S
H2775 C2750 0.950 . S
H2776 C2752 0.950 . S
H2777 C2753 0.949 . S
H2778 C2755 0.950 . S
H2779 C2757 0.950 . S
C2780 C2781 1.349 . S
C2780 C2782 1.327 . S
C2780 H2805 0.950 . S
C2781 C2780 1.349 . S
C2781 C2797 1.349 . S
C2782 C2780 1.327 . S
C2782 C2801 1.429 . S
C2782 H2806 0.950 . S
C2783 C2800 1.574 . S
C2783 C2802 1.368 . S
C2783 H2807 0.949 . S
H2784 C2788 0.949 . S
C2785 C2786 1.349 . S
C2785 C2787 1.327 . S
C2785 H2808 0.950 . S
C2786 C2785 1.349 . S
C2786 C2798 1.349 . S
C2787 C2785 1.327 . S
C2787 C2803 1.429 . S
C2787 H2809 0.950 . S
C2788 H2784 0.949 . S
C2788 C2796 1.574 . S
C2788 C2804 1.368 . S
H2789 C2797 0.950 . S
H2790 C2795 0.950 . S
H2791 C2796 0.949 . S
H2792 C2798 0.950 . S
H2793 C2799 0.950 . S
H2794 C2800 0.949 . S
C2795 H2790 0.950 . S
C2795 C2797 1.327 . S
C2795 C2801 1.429 . S
C2796 C2788 1.574 . S
C2796 H2791 0.949 . S
C2796 C2802 1.368 . S
C2797 C2781 1.349 . S
C2797 H2789 0.950 . S
C2797 C2795 1.327 . S
C2798 C2786 1.349 . S
C2798 H2792 0.950 . S
C2798 C2799 1.327 . S
C2799 H2793 0.950 . S
C2799 C2798 1.327 . S
C2799 C2803 1.429 . S
C2800 C2783 1.574 . S
C2800 H2794 0.949 . S
C2800 C2804 1.368 . S
C2801 C2782 1.429 . S
C2801 C2795 1.429 . S
C2801 C2802 1.523 . S
C2802 C2783 1.368 . S
C2802 C2796 1.368 . S
C2802 C2801 1.523 . S
C2803 C2787 1.429 . S
C2803 C2799 1.429 . S
C2803 C2804 1.523 . S
C2804 C2788 1.368 . S
C2804 C2800 1.368 . S
C2804 C2803 1.523 . S
H2805 C2780 0.950 . S
H2806 C2782 0.950 . S
H2807 C2783 0.949 . S
H2808 C2785 0.950 . S
H2809 C2787 0.950 . S
C2810 C2811 1.349 . S
C2810 C2812 1.327 . S
C2810 H2835 0.950 . S
C2811 C2810 1.349 . S
C2811 C2827 1.349 . S
C2812 C2810 1.327 . S
C2812 C2831 1.429 . S
C2812 H2836 0.950 . S
C2813 C2830 1.574 . S
C2813 C2832 1.368 . S
C2813 H2837 0.949 . S
H2814 C2818 0.949 . S
C2815 C2816 1.349 . S
C2815 C2817 1.327 . S
C2815 H2838 0.950 . S
C2816 C2815 1.349 . S
C2816 C2828 1.349 . S
C2817 C2815 1.327 . S
C2817 C2833 1.429 . S
C2817 H2839 0.950 . S
C2818 H2814 0.949 . S
C2818 C2826 1.574 . S
C2818 C2834 1.368 . S
H2819 C2827 0.950 . S
H2820 C2825 0.950 . S
H2821 C2826 0.949 . S
H2822 C2828 0.950 . S
H2823 C2829 0.950 . S
H2824 C2830 0.949 . S
C2825 H2820 0.950 . S
C2825 C2827 1.327 . S
C2825 C2831 1.429 . S
C2826 C2818 1.574 . S
C2826 H2821 0.949 . S
C2826 C2832 1.368 . S
C2827 C2811 1.349 . S
C2827 H2819 0.950 . S
C2827 C2825 1.327 . S
C2828 C2816 1.349 . S
C2828 H2822 0.950 . S
C2828 C2829 1.327 . S
C2829 H2823 0.950 . S
C2829 C2828 1.327 . S
C2829 C2833 1.429 . S
C2830 C2813 1.574 . S
C2830 H2824 0.949 . S
C2830 C2834 1.368 . S
C2831 C2812 1.429 . S
C2831 C2825 1.429 . S
C2831 C2832 1.523 . S
C2832 C2813 1.368 . S
C2832 C2826 1.368 . S
C2832 C2831 1.523 . S
C2833 C2817 1.429 . S
C2833 C2829 1.429 . S
C2833 C2834 1.523 . S
C2834 C2818 1.368 . S
C2834 C2830 1.368 . S
C2834 C2833 1.523 . S
H2835 C2810 0.950 . S
H2836 C2812 0.950 . S
H2837 C2813 0.949 . S
H2838 C2815 0.950 . S
H2839 C2817 0.950 . S
C2840 C2841 1.349 . S
C2840 C2842 1.327 . S
C2840 H2865 0.950 . S
C2841 C2840 1.349 . S
C2841 C2857 1.349 . S
C2842 C2840 1.327 . S
C2842 C2861 1.429 . S
C2842 H2866 0.950 . S
C2843 C2860 1.574 . S
C2843 C2862 1.368 . S
C2843 H2867 0.949 . S
H2844 C2848 0.949 . S
C2845 C2846 1.349 . S
C2845 C2847 1.327 . S
C2845 H2868 0.950 . S
C2846 C2845 1.349 . S
C2846 C2858 1.349 . S
C2847 C2845 1.327 . S
C2847 C2863 1.429 . S
C2847 H2869 0.950 . S
C2848 H2844 0.949 . S
C2848 C2856 1.574 . S
C2848 C2864 1.368 . S
H2849 C2857 0.950 . S
H2850 C2855 0.950 . S
H2851 C2856 0.949 . S
H2852 C2858 0.950 . S
H2853 C2859 0.950 . S
H2854 C2860 0.949 . S
C2855 H2850 0.950 . S
C2855 C2857 1.327 . S
C2855 C2861 1.429 . S
C2856 C2848 1.574 . S
C2856 H2851 0.949 . S
C2856 C2862 1.368 . S
C2857 C2841 1.349 . S
C2857 H2849 0.950 . S
C2857 C2855 1.327 . S
C2858 C2846 1.349 . S
C2858 H2852 0.950 . S
C2858 C2859 1.327 . S
C2859 H2853 0.950 . S
C2859 C2858 1.327 . S
C2859 C2863 1.429 . S
C2860 C2843 1.574 . S
C2860 H2854 0.949 . S
C2860 C2864 1.368 . S
C2861 C2842 1.429 . S
C2861 C2855 1.429 . S
C2861 C2862 1.523 . S
C2862 C2843 1.368 . S
C2862 C2856 1.368 . S
C2862 C2861 1.523 . S
C2863 C2847 1.429 . S
C2863 C2859 1.429 . S
C2863 C2864 1.523 . S
C2864 C2848 1.368 . S
C2864 C2860 1.368 . S
C2864 C2863 1.523 . S
H2865 C2840 0.950 . S
H2866 C2842 0.950 . S
H2867 C2843 0.949 . S
H2868 C2845 0.950 . S
H2869 C2847 0.950 . S
C2870 C2871 1.349 . S
C2870 C2872 1.327 . S
C2870 H2895 0.950 . S
C2871 C2870 1.349 . S
C2871 C2887 1.349 . S
C2872 C2870 1.327 . S
C2872 C2891 1.429 . S
C2872 H2896 0.950 . S
C2873 C2890 1.574 . S
C2873 C2892 1.368 . S
C2873 H2897 0.949 . S
H2874 C2878 0.949 . S
C2875 C2876 1.349 . S
C2875 C2877 1.327 . S
C2875 H2898 0.950 . S
C2876 C2875 1.349 . S
C2876 C2888 1.349 . S
C2877 C2875 1.327 . S
C2877 C2893 1.429 . S
C2877 H2899 0.950 . S
C2878 H2874 0.949 . S
C2878 C2886 1.574 . S
C2878 C2894 1.368 . S
H2879 C2887 0.950 . S
H2880 C2885 0.950 . S
H2881 C2886 0.949 . S
H2882 C2888 0.950 . S
H2883 C2889 0.950 . S
H2884 C2890 0.949 . S
C2885 H2880 0.950 . S
C2885 C2887 1.327 . S
C2885 C2891 1.429 . S
C2886 C2878 1.574 . S
C2886 H2881 0.949 . S
C2886 C2892 1.368 . S
C2887 C2871 1.349 . S
C2887 H2879 0.950 . S
C2887 C2885 1.327 . S
C2888 C2876 1.349 . S
C2888 H2882 0.950 . S
C2888 C2889 1.327 . S
C2889 H2883 0.950 . S
C2889 C2888 1.327 . S
C2889 C2893 1.429 . S
C2890 C2873 1.574 . S
C2890 H2884 0.949 . S
C2890 C2894 1.368 . S
C2891 C2872 1.429 . S
C2891 C2885 1.429 . S
C2891 C2892 1.523 . S
C2892 C2873 1.368 . S
C2892 C2886 1.368 . S
C2892 C2891 1.523 . S
C2893 C2877 1.429 . S
C2893 C2889 1.429 . S
C2893 C2894 1.523 . S
C2894 C2878 1.368 . S
C2894 C2890 1.368 . S
C2894 C2893 1.523 . S
H2895 C2870 0.950 . S
H2896 C2872 0.950 . S
H2897 C2873 0.949 . S
H2898 C2875 0.950 . S
H2899 C2877 0.950 . S
C2900 C2901 1.349 . S
C2900 C2902 1.327 . S
C2900 H2925 0.950 . S
C2901 C2900 1.349 . S
C2901 C2917 1.349 . S
C2902 C2900 1.327 . S
C2902 C2921 1.429 . S
C2902 H2926 0.950 . S
C2903 C2920 1.574 . S
C2903 C2922 1.368 . S
C2903 H2927 0.949 . S
H2904 C2908 0.949 . S
C2905 C2906 1.349 . S
C2905 C2907 1.327 . S
C2905 H2928 0.950 . S
C2906 C2905 1.349 . S
C2906 C2918 1.349 . S
C2907 C2905 1.327 . S
C2907 C2923 1.429 . S
C2907 H2929 0.950 . S
C2908 H2904 0.949 . S
C2908 C2916 1.574 . S
C2908 C2924 1.368 . S
H2909 C2917 0.950 . S
H2910 C2915 0.950 . S
H2911 C2916 0.949 . S
H2912 C2918 0.950 . S
H2913 C2919 0.950 . S
H2914 C2920 0.949 . S
C2915 H2910 0.950 . S
C2915 C2917 1.327 . S
C2915 C2921 1.429 . S
C2916 C2908 1.574 . S
C2916 H2911 0.949 . S
C2916 C2922 1.368 . S
C2917 C2901 1.349 . S
C2917 H2909 0.950 . S
C2917 C2915 1.327 . S
C2918 C2906 1.349 . S
C2918 H2912 0.950 . S
C2918 C2919 1.327 . S
C2919 H2913 0.950 . S
C2919 C2918 1.327 . S
C2919 C2923 1.429 . S
C2920 C2903 1.574 . S
C2920 H2914 0.949 . S
C2920 C2924 1.368 . S
C2921 C2902 1.429 . S
C2921 C2915 1.429 . S
C2921 C2922 1.523 . S
C2922 C2903 1.368 . S
C2922 C2916 1.368 . S
C2922 C2921 1.523 . S
C2923 C2907 1.429 . S
C2923 C2919 1.429 . S
C2923 C2924 1.523 . S
C2924 C2908 1.368 . S
C2924 C2920 1.368 . S
C2924 C2923 1.523 . S
H2925 C2900 0.950 . S
H2926 C2902 0.950 . S
H2927 C2903 0.949 . S
H2928 C2905 0.950 . S
H2929 C2907 0.950 . S
C2930 C2931 1.349 . S
C2930 C2932 1.327 . S
C2930 H2955 0.950 . S
C2931 C2930 1.349 . S
C2931 C2947 1.349 . S
C2932 C2930 1.327 . S
C2932 C2951 1.429 . S
C2932 H2956 0.950 . S
C2933 C2950 1.574 . S
C2933 C2952 1.368 . S
C2933 H2957 0.949 . S
H2934 C2938 0.949 . S
C2935 C2936 1.349 . S
C2935 C2937 1.327 . S
C2935 H2958 0.950 . S
C2936 C2935 1.349 . S
C2936 C2948 1.349 . S
C2937 C2935 1.327 . S
C2937 C2953 1.429 . S
C2937 H2959 0.950 . S
C2938 H2934 0.949 . S
C2938 C2946 1.574 . S
C2938 C2954 1.368 . S
H2939 C2947 0.950 . S
H2940 C2945 0.950 . S
H2941 C2946 0.949 . S
H2942 C2948 0.950 . S
H2943 C2949 0.950 . S
H2944 C2950 0.949 . S
C2945 H2940 0.950 . S
C2945 C2947 1.327 . S
C2945 C2951 1.429 . S
C2946 C2938 1.574 . S
C2946 H2941 0.949 . S
C2946 C2952 1.368 . S
C2947 C2931 1.349 . S
C2947 H2939 0.950 . S
C2947 C2945 1.327 . S
C2948 C2936 1.349 . S
C2948 H2942 0.950 . S
C2948 C2949 1.327 . S
C2949 H2943 0.950 . S
C2949 C2948 1.327 . S
C2949 C2953 1.429 . S
C2950 C2933 1.574 . S
C2950 H2944 0.949 . S
C2950 C2954 1.368 . S
C2951 C2932 1.429 . S
C2951 C2945 1.429 . S
C2951 C2952 1.523 . S
C2952 C2933 1.368 . S
C2952 C2946 1.368 . S
C2952 C2951 1.523 . S
C2953 C2937 1.429 . S
C2953 C2949 1.429 . S
C2953 C2954 1.523 . S
C2954 C2938 1.368 . S
C2954 C2950 1.368 . S
C2954 C2953 1.523 . S
H2955 C2930 0.950 . S
H2956 C2932 0.950 . S
H2957 C2933 0.949 . S
H2958 C2935 0.950 . S
H2959 C2937 0.950 . S
C2960 C2961 1.349 . S
C2960 C2962 1.327 . S
C2960 H2985 0.950 . S
C2961 C2960 1.349 . S
C2961 C2977 1.349 . S
C2962 C2960 1.327 . S
C2962 C2981 1.429 . S
C2962 H2986 0.950 . S
C2963 C2980 1.574 . S
C2963 C2982 1.368 . S
C2963 H2987 0.949 . S
H2964 C2968 0.955 . S
C2965 C2966 1.349 . S
C2965 C2967 1.327 . S
C2965 H2988 0.950 . S
C2966 C2965 1.349 . S
C2966 C2978 1.349 . S
C2967 C2965 1.327 . S
C2967 C2983 1.429 . S
C2967 H2989 0.950 . S
C2968 H2964 0.955 . S
C2968 C2976 1.574 1_565 S
C2968 C2984 1.368 . S
H2969 C2977 0.950 . S
H2970 C2975 0.952 . S
H2971 C2976 0.949 . S
H2972 C2978 0.950 . S
H2973 C2979 0.950 . S
H2974 C2980 0.949 . S
C2975 H2970 0.952 . S
C2975 C2977 1.326 1_565 S
C2975 C2981 1.428 1_565 S
C2976 C2968 1.574 1_545 S
C2976 H2971 0.949 . S
C2976 C2982 1.368 1_545 S
C2977 C2961 1.349 . S
C2977 H2969 0.950 . S
C2977 C2975 1.326 1_545 S
C2978 C2966 1.349 . S
C2978 H2972 0.950 . S
C2978 C2979 1.327 . S
C2979 H2973 0.950 . S
C2979 C2978 1.327 . S
C2979 C2983 1.429 . S
C2980 C2963 1.574 . S
C2980 H2974 0.949 . S
C2980 C2984 1.368 . S
C2981 C2962 1.429 . S
C2981 C2975 1.428 1_545 S
C2981 C2982 1.523 1_545 S
C2982 C2963 1.368 . S
C2982 C2976 1.368 1_565 S
C2982 C2981 1.523 1_565 S
C2983 C2967 1.429 . S
C2983 C2979 1.429 . S
C2983 C2984 1.523 . S
C2984 C2968 1.368 . S
C2984 C2980 1.368 . S
C2984 C2983 1.523 . S
H2985 C2960 0.950 . S
H2986 C2962 0.950 . S
H2987 C2963 0.949 . S
H2988 C2965 0.950 . S
H2989 C2967 0.950 . S
C2990 C2991 1.349 . S
C2990 C2992 1.327 . S
C2990 H3015 0.950 . S
C2991 C2990 1.349 . S
C2991 C3007 1.349 . S
C2992 C2990 1.327 . S
C2992 C3011 1.429 . S
C2992 H3016 0.950 . S
C2993 C3010 1.574 . S
C2993 C3012 1.368 . S
C2993 H3017 0.949 . S
H2994 C2998 0.949 . S
C2995 C2996 1.349 . S
C2995 C2997 1.327 . S
C2995 H3018 0.950 . S
C2996 C2995 1.349 . S
C2996 C3008 1.349 . S
C2997 C2995 1.327 . S
C2997 C3013 1.429 . S
C2997 H3019 0.950 . S
C2998 H2994 0.949 . S
C2998 C3006 1.574 . S
C2998 C3014 1.368 . S
H2999 C3007 0.950 . S
H3000 C3005 0.950 . S
H3001 C3006 0.949 . S
H3002 C3008 0.950 . S
H3003 C3009 0.950 . S
H3004 C3010 0.949 . S
C3005 H3000 0.950 . S
C3005 C3007 1.327 . S
C3005 C3011 1.429 . S
C3006 C2998 1.574 . S
C3006 H3001 0.949 . S
C3006 C3012 1.368 . S
C3007 C2991 1.349 . S
C3007 H2999 0.950 . S
C3007 C3005 1.327 . S
C3008 C2996 1.349 . S
C3008 H3002 0.950 . S
C3008 C3009 1.327 . S
C3009 H3003 0.950 . S
C3009 C3008 1.327 . S
C3009 C3013 1.429 . S
C3010 C2993 1.574 . S
C3010 H3004 0.949 . S
C3010 C3014 1.368 . S
C3011 C2992 1.429 . S
C3011 C3005 1.429 . S
C3011 C3012 1.523 . S
C3012 C2993 1.368 . S
C3012 C3006 1.368 . S
C3012 C3011 1.523 . S
C3013 C2997 1.429 . S
C3013 C3009 1.429 . S
C3013 C3014 1.523 . S
C3014 C2998 1.368 . S
C3014 C3010 1.368 . S
C3014 C3013 1.523 . S
H3015 C2990 0.950 . S
H3016 C2992 0.950 . S
H3017 C2993 0.949 . S
H3018 C2995 0.950 . S
H3019 C2997 0.950 . S
C3020 C3021 1.349 . S
C3020 C3022 1.327 . S
C3020 H3045 0.950 . S
C3021 C3020 1.349 . S
C3021 C3037 1.349 . S
C3022 C3020 1.327 . S
C3022 C3041 1.429 . S
C3022 H3046 0.950 . S
C3023 C3040 1.574 . S
C3023 C3042 1.368 . S
C3023 H3047 0.949 . S
H3024 C3028 0.949 . S
C3025 C3026 1.349 . S
C3025 C3027 1.327 . S
C3025 H3048 0.950 . S
C3026 C3025 1.349 . S
C3026 C3038 1.349 . S
C3027 C3025 1.327 . S
C3027 C3043 1.429 . S
C3027 H3049 0.950 . S
C3028 H3024 0.949 . S
C3028 C3036 1.574 . S
C3028 C3044 1.368 . S
H3029 C3037 0.950 . S
H3030 C3035 0.950 . S
H3031 C3036 0.949 . S
H3032 C3038 0.950 . S
H3033 C3039 0.950 . S
H3034 C3040 0.949 . S
C3035 H3030 0.950 . S
C3035 C3037 1.327 . S
C3035 C3041 1.429 . S
C3036 C3028 1.574 . S
C3036 H3031 0.949 . S
C3036 C3042 1.368 . S
C3037 C3021 1.349 . S
C3037 H3029 0.950 . S
C3037 C3035 1.327 . S
C3038 C3026 1.349 . S
C3038 H3032 0.950 . S
C3038 C3039 1.327 . S
C3039 H3033 0.950 . S
C3039 C3038 1.327 . S
C3039 C3043 1.429 . S
C3040 C3023 1.574 . S
C3040 H3034 0.949 . S
C3040 C3044 1.368 . S
C3041 C3022 1.429 . S
C3041 C3035 1.429 . S
C3041 C3042 1.523 . S
C3042 C3023 1.368 . S
C3042 C3036 1.368 . S
C3042 C3041 1.523 . S
C3043 C3027 1.429 . S
C3043 C3039 1.429 . S
C3043 C3044 1.523 . S
C3044 C3028 1.368 . S
C3044 C3040 1.368 . S
C3044 C3043 1.523 . S
H3045 C3020 0.950 . S
H3046 C3022 0.950 . S
H3047 C3023 0.949 . S
H3048 C3025 0.950 . S
H3049 C3027 0.950 . S
C3050 C3051 1.349 . S
C3050 C3052 1.327 . S
C3050 H3075 0.950 . S
C3051 C3050 1.349 . S
C3051 C3067 1.349 . S
C3052 C3050 1.327 . S
C3052 C3071 1.429 . S
C3052 H3076 0.950 . S
C3053 C3070 1.574 . S
C3053 C3072 1.368 . S
C3053 H3077 0.949 . S
H3054 C3058 0.949 . S
C3055 C3056 1.349 . S
C3055 C3057 1.327 . S
C3055 H3078 0.950 . S
C3056 C3055 1.349 . S
C3056 C3068 1.349 . S
C3057 C3055 1.327 . S
C3057 C3073 1.429 . S
C3057 H3079 0.950 . S
C3058 H3054 0.949 . S
C3058 C3066 1.574 . S
C3058 C3074 1.368 . S
H3059 C3067 0.950 . S
H3060 C3065 0.951 . S
H3061 C3066 0.943 1_545 S
H3062 C3068 0.950 . S
H3063 C3069 0.950 . S
H3064 C3070 0.949 . S
C3065 H3060 0.951 . S
C3065 C3067 1.327 . S
C3065 C3071 1.429 . S
C3066 C3058 1.574 . S
C3066 H3061 0.943 1_565 S
C3066 C3072 1.368 . S
C3067 C3051 1.349 . S
C3067 H3059 0.950 . S
C3067 C3065 1.327 . S
C3068 C3056 1.349 . S
C3068 H3062 0.950 . S
C3068 C3069 1.327 . S
C3069 H3063 0.950 . S
C3069 C3068 1.327 . S
C3069 C3073 1.429 . S
C3070 C3053 1.574 . S
C3070 H3064 0.949 . S
C3070 C3074 1.368 . S
C3071 C3052 1.429 . S
C3071 C3065 1.429 . S
C3071 C3072 1.523 1_545 S
C3072 C3053 1.368 . S
C3072 C3066 1.368 . S
C3072 C3071 1.523 1_565 S
C3073 C3057 1.429 . S
C3073 C3069 1.429 . S
C3073 C3074 1.523 . S
C3074 C3058 1.368 . S
C3074 C3070 1.368 . S
C3074 C3073 1.523 . S
H3075 C3050 0.950 . S
H3076 C3052 0.950 . S
H3077 C3053 0.949 . S
H3078 C3055 0.950 . S
H3079 C3057 0.950 . S
C3080 C3081 1.349 1_545 S
C3080 C3082 1.327 . S
C3080 H3105 0.950 . S
C3081 C3080 1.349 1_565 S
C3081 C3097 1.349 . S
C3082 C3080 1.327 . S
C3082 C3101 1.429 1_545 S
C3082 H3106 0.950 . S
C3083 C3100 1.574 . S
C3083 C3102 1.368 1_565 S
C3083 H3107 0.949 . S
H3084 C3088 0.949 . S
C3085 C3086 1.358 . S
C3085 C3087 1.325 1_545 S
C3085 H3108 0.942 1_545 S
C3086 C3085 1.358 . S
C3086 C3098 1.349 . S
C3087 C3085 1.325 1_565 S
C3087 C3103 1.429 1_565 S
C3087 H3109 0.950 . S
C3088 H3084 0.949 . S
C3088 C3096 1.574 . S
C3088 C3104 1.368 . S
H3089 C3097 0.950 . S
H3090 C3095 0.950 . S
H3091 C3096 0.949 . S
H3092 C3098 0.950 . S
H3093 C3099 0.950 . S
H3094 C3100 0.949 . S
C3095 H3090 0.950 . S
C3095 C3097 1.327 . S
C3095 C3101 1.429 . S
C3096 C3088 1.574 . S
C3096 H3091 0.949 . S
C3096 C3102 1.368 . S
C3097 C3081 1.349 . S
C3097 H3089 0.950 . S
C3097 C3095 1.327 . S
C3098 C3086 1.349 . S
C3098 H3092 0.950 . S
C3098 C3099 1.327 . S
C3099 H3093 0.950 . S
C3099 C3098 1.327 . S
C3099 C3103 1.429 . S
C3100 C3083 1.574 . S
C3100 H3094 0.949 . S
C3100 C3104 1.368 1_565 S
C3101 C3082 1.429 1_565 S
C3101 C3095 1.429 . S
C3101 C3102 1.523 1_565 S
C3102 C3083 1.368 1_545 S
C3102 C3096 1.368 . S
C3102 C3101 1.523 1_545 S
C3103 C3087 1.429 1_545 S
C3103 C3099 1.429 . S
C3103 C3104 1.523 . S
C3104 C3088 1.368 . S
C3104 C3100 1.368 1_545 S
C3104 C3103 1.523 . S
H3105 C3080 0.950 . S
H3106 C3082 0.950 . S
H3107 C3083 0.949 . S
H3108 C3085 0.942 1_565 S
H3109 C3087 0.950 . S
C3110 C3111 1.349 . S
C3110 C3112 1.327 . S
C3110 H3135 0.950 . S
C3111 C3110 1.349 . S
C3111 C3127 1.349 . S
C3112 C3110 1.327 . S
C3112 C3131 1.429 . S
C3112 H3136 0.950 . S
C3113 C3130 1.574 . S
C3113 C3132 1.368 . S
C3113 H3137 0.949 . S
H3114 C3118 0.949 . S
C3115 C3116 1.349 . S
C3115 C3117 1.327 . S
C3115 H3138 0.950 . S
C3116 C3115 1.349 . S
C3116 C3128 1.349 . S
C3117 C3115 1.327 . S
C3117 C3133 1.429 . S
C3117 H3139 0.950 . S
C3118 H3114 0.949 . S
C3118 C3126 1.574 . S
C3118 C3134 1.368 . S
H3119 C3127 0.950 . S
H3120 C3125 0.950 . S
H3121 C3126 0.949 . S
H3122 C3128 0.950 . S
H3123 C3129 0.950 . S
H3124 C3130 0.949 . S
C3125 H3120 0.950 . S
C3125 C3127 1.327 . S
C3125 C3131 1.429 . S
C3126 C3118 1.574 . S
C3126 H3121 0.949 . S
C3126 C3132 1.368 . S
C3127 C3111 1.349 . S
C3127 H3119 0.950 . S
C3127 C3125 1.327 . S
C3128 C3116 1.349 . S
C3128 H3122 0.950 . S
C3128 C3129 1.327 . S
C3129 H3123 0.950 . S
C3129 C3128 1.327 . S
C3129 C3133 1.429 . S
C3130 C3113 1.574 . S
C3130 H3124 0.949 . S
C3130 C3134 1.368 . S
C3131 C3112 1.429 . S
C3131 C3125 1.429 . S
C3131 C3132 1.523 . S
C3132 C3113 1.368 . S
C3132 C3126 1.368 . S
C3132 C3131 1.523 . S
C3133 C3117 1.429 . S
C3133 C3129 1.429 . S
C3133 C3134 1.523 . S
C3134 C3118 1.368 . S
C3134 C3130 1.368 . S
C3134 C3133 1.523 . S
H3135 C3110 0.950 . S
H3136 C3112 0.950 . S
H3137 C3113 0.949 . S
H3138 C3115 0.950 . S
H3139 C3117 0.950 . S
C3140 C3141 1.349 . S
C3140 C3142 1.327 . S
C3140 H3165 0.950 . S
C3141 C3140 1.349 . S
C3141 C3157 1.349 . S
C3142 C3140 1.327 . S
C3142 C3161 1.429 . S
C3142 H3166 0.950 . S
C3143 C3160 1.574 . S
C3143 C3162 1.368 . S
C3143 H3167 0.949 . S
H3144 C3148 0.949 . S
C3145 C3146 1.349 . S
C3145 C3147 1.327 . S
C3145 H3168 0.950 . S
C3146 C3145 1.349 . S
C3146 C3158 1.349 . S
C3147 C3145 1.327 . S
C3147 C3163 1.429 . S
C3147 H3169 0.950 . S
C3148 H3144 0.949 . S
C3148 C3156 1.574 . S
C3148 C3164 1.368 . S
H3149 C3157 0.950 . S
H3150 C3155 0.950 . S
H3151 C3156 0.949 . S
H3152 C3158 0.950 . S
H3153 C3159 0.950 . S
H3154 C3160 0.949 . S
C3155 H3150 0.950 . S
C3155 C3157 1.327 . S
C3155 C3161 1.429 . S
C3156 C3148 1.574 . S
C3156 H3151 0.949 . S
C3156 C3162 1.368 . S
C3157 C3141 1.349 . S
C3157 H3149 0.950 . S
C3157 C3155 1.327 . S
C3158 C3146 1.349 . S
C3158 H3152 0.950 . S
C3158 C3159 1.327 . S
C3159 H3153 0.950 . S
C3159 C3158 1.327 . S
C3159 C3163 1.429 . S
C3160 C3143 1.574 . S
C3160 H3154 0.949 . S
C3160 C3164 1.368 . S
C3161 C3142 1.429 . S
C3161 C3155 1.429 . S
C3161 C3162 1.523 . S
C3162 C3143 1.368 . S
C3162 C3156 1.368 . S
C3162 C3161 1.523 . S
C3163 C3147 1.429 . S
C3163 C3159 1.429 . S
C3163 C3164 1.523 . S
C3164 C3148 1.368 . S
C3164 C3160 1.368 . S
C3164 C3163 1.523 . S
H3165 C3140 0.950 . S
H3166 C3142 0.950 . S
H3167 C3143 0.949 . S
H3168 C3145 0.950 . S
H3169 C3147 0.950 . S
C3170 C3171 1.349 . S
C3170 C3172 1.327 . S
C3170 H3195 0.950 . S
C3171 C3170 1.349 . S
C3171 C3187 1.349 1_565 S
C3172 C3170 1.327 . S
C3172 C3191 1.429 . S
C3172 H3196 0.950 . S
C3173 C3190 1.574 . S
C3173 C3192 1.368 . S
C3173 H3197 0.949 . S
H3174 C3178 0.949 . S
C3175 C3176 1.349 . S
C3175 C3177 1.327 . S
C3175 H3198 0.950 . S
C3176 C3175 1.349 . S
C3176 C3188 1.349 . S
C3177 C3175 1.327 . S
C3177 C3193 1.429 . S
C3177 H3199 0.950 . S
C3178 H3174 0.949 . S
C3178 C3186 1.574 . S
C3178 C3194 1.368 1_565 S
H3179 C3187 0.950 . S
H3180 C3185 0.950 . S
H3181 C3186 0.949 . S
H3182 C3188 0.950 1_565 S
H3183 C3189 0.947 1_565 S
H3184 C3190 0.949 . S
C3185 H3180 0.950 . S
C3185 C3187 1.327 . S
C3185 C3191 1.429 1_545 S
C3186 C3178 1.574 . S
C3186 H3181 0.949 . S
C3186 C3192 1.368 1_565 S
C3187 C3171 1.349 1_545 S
C3187 H3179 0.950 . S
C3187 C3185 1.327 . S
C3188 C3176 1.349 . S
C3188 H3182 0.950 1_545 S
C3188 C3189 1.328 . S
C3189 H3183 0.947 1_545 S
C3189 C3188 1.328 . S
C3189 C3193 1.430 . S
C3190 C3173 1.574 . S
C3190 H3184 0.949 . S
C3190 C3194 1.368 . S
C3191 C3172 1.429 . S
C3191 C3185 1.429 1_565 S
C3191 C3192 1.523 1_565 S
C3192 C3173 1.368 . S
C3192 C3186 1.368 1_545 S
C3192 C3191 1.523 1_545 S
C3193 C3177 1.429 . S
C3193 C3189 1.430 . S
C3193 C3194 1.523 . S
C3194 C3178 1.368 1_545 S
C3194 C3190 1.368 . S
C3194 C3193 1.523 . S
H3195 C3170 0.950 . S
H3196 C3172 0.950 . S
H3197 C3173 0.949 . S
H3198 C3175 0.950 . S
H3199 C3177 0.950 . S
C3200 C3201 1.349 . S
C3200 C3202 1.327 . S
C3200 H3225 0.950 . S
C3201 C3200 1.349 . S
C3201 C3217 1.349 . S
C3202 C3200 1.327 . S
C3202 C3221 1.429 . S
C3202 H3226 0.950 . S
C3203 C3220 1.574 . S
C3203 C3222 1.368 . S
C3203 H3227 0.949 . S
H3204 C3208 0.949 1_655 S
C3205 C3206 1.349 . S
C3205 C3207 1.327 . S
C3205 H3228 0.950 . S
C3206 C3205 1.349 . S
C3206 C3218 1.349 . S
C3207 C3205 1.327 . S
C3207 C3223 1.429 . S
C3207 H3229 0.950 . S
C3208 H3204 0.949 1_455 S
C3208 C3216 1.574 . S
C3208 C3224 1.368 1_455 S
H3209 C3217 0.950 . S
H3210 C3215 0.950 . S
H3211 C3216 0.949 . S
H3212 C3218 0.950 . S
H3213 C3219 0.950 . S
H3214 C3220 0.949 1_655 S
C3215 H3210 0.950 . S
C3215 C3217 1.327 . S
C3215 C3221 1.429 . S
C3216 C3208 1.574 . S
C3216 H3211 0.949 . S
C3216 C3222 1.368 . S
C3217 C3201 1.349 . S
C3217 H3209 0.950 . S
C3217 C3215 1.327 . S
C3218 C3206 1.349 . S
C3218 H3212 0.950 . S
C3218 C3219 1.327 . S
C3219 H3213 0.950 . S
C3219 C3218 1.327 . S
C3219 C3223 1.429 . S
C3220 C3203 1.574 . S
C3220 H3214 0.949 1_455 S
C3220 C3224 1.368 1_455 S
C3221 C3202 1.429 . S
C3221 C3215 1.429 . S
C3221 C3222 1.523 . S
C3222 C3203 1.368 . S
C3222 C3216 1.368 . S
C3222 C3221 1.523 . S
C3223 C3207 1.429 . S
C3223 C3219 1.429 . S
C3223 C3224 1.523 . S
C3224 C3208 1.368 1_655 S
C3224 C3220 1.368 1_655 S
C3224 C3223 1.523 . S
H3225 C3200 0.950 . S
H3226 C3202 0.950 . S
H3227 C3203 0.949 . S
H3228 C3205 0.950 . S
H3229 C3207 0.950 . S
C3230 C3231 1.349 . S
C3230 C3232 1.327 . S
C3230 H3255 0.950 . S
C3231 C3230 1.349 . S
C3231 C3247 1.349 . S
C3232 C3230 1.327 . S
C3232 C3251 1.429 . S
C3232 H3256 0.950 . S
C3233 C3250 1.574 . S
C3233 C3252 1.368 . S
C3233 H3257 0.949 . S
H3234 C3238 0.949 . S
C3235 C3236 1.349 . S
C3235 C3237 1.327 . S
C3235 H3258 0.950 . S
C3236 C3235 1.349 . S
C3236 C3248 1.349 . S
C3237 C3235 1.327 . S
C3237 C3253 1.429 . S
C3237 H3259 0.950 . S
C3238 H3234 0.949 . S
C3238 C3246 1.574 . S
C3238 C3254 1.368 . S
H3239 C3247 0.950 . S
H3240 C3245 0.950 . S
H3241 C3246 0.949 . S
H3242 C3248 0.950 . S
H3243 C3249 0.950 . S
H3244 C3250 0.949 . S
C3245 H3240 0.950 . S
C3245 C3247 1.327 . S
C3245 C3251 1.429 . S
C3246 C3238 1.574 . S
C3246 H3241 0.949 . S
C3246 C3252 1.368 . S
C3247 C3231 1.349 . S
C3247 H3239 0.950 . S
C3247 C3245 1.327 . S
C3248 C3236 1.349 . S
C3248 H3242 0.950 . S
C3248 C3249 1.327 . S
C3249 H3243 0.950 . S
C3249 C3248 1.327 . S
C3249 C3253 1.429 . S
C3250 C3233 1.574 . S
C3250 H3244 0.949 . S
C3250 C3254 1.368 . S
C3251 C3232 1.429 . S
C3251 C3245 1.429 . S
C3251 C3252 1.523 . S
C3252 C3233 1.368 . S
C3252 C3246 1.368 . S
C3252 C3251 1.523 . S
C3253 C3237 1.429 . S
C3253 C3249 1.429 . S
C3253 C3254 1.523 . S
C3254 C3238 1.368 . S
C3254 C3250 1.368 . S
C3254 C3253 1.523 . S
H3255 C3230 0.950 . S
H3256 C3232 0.950 . S
H3257 C3233 0.949 . S
H3258 C3235 0.950 . S
H3259 C3237 0.950 . S
C3260 C3261 1.349 . S
C3260 C3262 1.327 . S
C3260 H3285 0.950 . S
C3261 C3260 1.349 . S
C3261 C3277 1.349 . S
C3262 C3260 1.327 . S
C3262 C3281 1.429 . S
C3262 H3286 0.950 . S
C3263 C3280 1.574 . S
C3263 C3282 1.368 1_455 S
C3263 H3287 0.949 1_455 S
H3264 C3268 0.949 . S
C3265 C3266 1.349 . S
C3265 C3267 1.327 . S
C3265 H3288 0.950 . S
C3266 C3265 1.349 . S
C3266 C3278 1.349 . S
C3267 C3265 1.327 . S
C3267 C3283 1.429 . S
C3267 H3289 0.950 . S
C3268 H3264 0.949 . S
C3268 C3276 1.574 . S
C3268 C3284 1.368 . S
H3269 C3277 0.950 . S
H3270 C3275 0.950 . S
H3271 C3276 0.960 . S
H3272 C3278 0.950 . S
H3273 C3279 0.950 . S
H3274 C3280 0.949 . S
C3275 H3270 0.950 . S
C3275 C3277 1.327 . S
C3275 C3281 1.429 . S
C3276 C3268 1.574 . S
C3276 H3271 0.960 . S
C3276 C3282 1.368 1_455 S
C3277 C3261 1.349 . S
C3277 H3269 0.950 . S
C3277 C3275 1.327 . S
C3278 C3266 1.349 . S
C3278 H3272 0.950 . S
C3278 C3279 1.327 . S
C3279 H3273 0.950 . S
C3279 C3278 1.327 . S
C3279 C3283 1.429 . S
C3280 C3263 1.574 . S
C3280 H3274 0.949 . S
C3280 C3284 1.368 . S
C3281 C3262 1.429 . S
C3281 C3275 1.429 . S
C3281 C3282 1.523 . S
C3282 C3263 1.368 1_655 S
C3282 C3276 1.368 1_655 S
C3282 C3281 1.523 . S
C3283 C3267 1.429 . S
C3283 C3279 1.429 . S
C3283 C3284 1.523 . S
C3284 C3268 1.368 . S
C3284 C3280 1.368 . S
C3284 C3283 1.523 . S
H3285 C3260 0.950 . S
H3286 C3262 0.950 . S
H3287 C3263 0.949 1_655 S
H3288 C3265 0.950 . S
H3289 C3267 0.950 . S
C3290 C3291 1.349 . S
C3290 C3292 1.327 . S
C3290 H3315 0.950 . S
C3291 C3290 1.349 . S
C3291 C3307 1.349 . S
C3292 C3290 1.327 . S
C3292 C3311 1.429 . S
C3292 H3316 0.950 . S
C3293 C3310 1.574 . S
C3293 C3312 1.368 . S
C3293 H3317 0.949 . S
H3294 C3298 0.949 . S
C3295 C3296 1.349 . S
C3295 C3297 1.327 . S
C3295 H3318 0.950 . S
C3296 C3295 1.349 . S
C3296 C3308 1.349 . S
C3297 C3295 1.327 . S
C3297 C3313 1.429 . S
C3297 H3319 0.950 . S
C3298 H3294 0.949 . S
C3298 C3306 1.574 . S
C3298 C3314 1.368 . S
H3299 C3307 0.950 . S
H3300 C3305 0.950 . S
H3301 C3306 0.949 . S
H3302 C3308 0.950 . S
H3303 C3309 0.950 . S
H3304 C3310 0.949 . S
C3305 H3300 0.950 . S
C3305 C3307 1.327 . S
C3305 C3311 1.429 . S
C3306 C3298 1.574 . S
C3306 H3301 0.949 . S
C3306 C3312 1.368 . S
C3307 C3291 1.349 . S
C3307 H3299 0.950 . S
C3307 C3305 1.327 . S
C3308 C3296 1.349 . S
C3308 H3302 0.950 . S
C3308 C3309 1.327 . S
C3309 H3303 0.950 . S
C3309 C3308 1.327 . S
C3309 C3313 1.429 . S
C3310 C3293 1.574 . S
C3310 H3304 0.949 . S
C3310 C3314 1.368 . S
C3311 C3292 1.429 . S
C3311 C3305 1.429 . S
C3311 C3312 1.523 . S
C3312 C3293 1.368 . S
C3312 C3306 1.368 . S
C3312 C3311 1.523 . S
C3313 C3297 1.429 . S
C3313 C3309 1.429 . S
C3313 C3314 1.523 . S
C3314 C3298 1.368 . S
C3314 C3310 1.368 . S
C3314 C3313 1.523 . S
H3315 C3290 0.950 . S
H3316 C3292 0.950 . S
H3317 C3293 0.949 . S
H3318 C3295 0.950 . S
H3319 C3297 0.950 . S
C3320 C3321 1.349 . S
C3320 C3322 1.327 . S
C3320 H3345 0.950 . S
C3321 C3320 1.349 . S
C3321 C3337 1.349 . S
C3322 C3320 1.327 . S
C3322 C3341 1.429 . S
C3322 H3346 0.950 . S
C3323 C3340 1.574 . S
C3323 C3342 1.368 . S
C3323 H3347 0.949 . S
H3324 C3328 0.949 1_455 S
C3325 C3326 1.349 . S
C3325 C3327 1.327 . S
C3325 H3348 0.950 . S
C3326 C3325 1.349 . S
C3326 C3338 1.349 . S
C3327 C3325 1.327 . S
C3327 C3343 1.429 . S
C3327 H3349 0.950 . S
C3328 H3324 0.949 1_655 S
C3328 C3336 1.574 . S
C3328 C3344 1.368 1_655 S
H3329 C3337 0.950 . S
H3330 C3335 0.950 . S
H3331 C3336 0.949 . S
H3332 C3338 0.950 . S
H3333 C3339 0.950 . S
H3334 C3340 0.949 1_455 S
C3335 H3330 0.950 . S
C3335 C3337 1.327 . S
C3335 C3341 1.429 . S
C3336 C3328 1.574 . S
C3336 H3331 0.949 . S
C3336 C3342 1.368 . S
C3337 C3321 1.349 . S
C3337 H3329 0.950 . S
C3337 C3335 1.327 . S
C3338 C3326 1.349 . S
C3338 H3332 0.950 . S
C3338 C3339 1.327 . S
C3339 H3333 0.950 . S
C3339 C3338 1.327 . S
C3339 C3343 1.429 . S
C3340 C3323 1.574 . S
C3340 H3334 0.949 1_655 S
C3340 C3344 1.368 1_655 S
C3341 C3322 1.429 . S
C3341 C3335 1.429 . S
C3341 C3342 1.523 . S
C3342 C3323 1.368 . S
C3342 C3336 1.368 . S
C3342 C3341 1.523 . S
C3343 C3327 1.429 . S
C3343 C3339 1.429 . S
C3343 C3344 1.523 . S
C3344 C3328 1.368 1_455 S
C3344 C3340 1.368 1_455 S
C3344 C3343 1.523 . S
H3345 C3320 0.950 . S
H3346 C3322 0.950 . S
H3347 C3323 0.949 . S
H3348 C3325 0.950 . S
H3349 C3327 0.950 . S
C3350 C3351 1.349 . S
C3350 C3352 1.327 . S
C3350 H3375 0.950 . S
C3351 C3350 1.349 . S
C3351 C3367 1.349 . S
C3352 C3350 1.327 . S
C3352 C3371 1.429 . S
C3352 H3376 0.950 . S
C3353 C3370 1.574 . S
C3353 C3372 1.368 . S
C3353 H3377 0.949 . S
H3354 C3358 0.949 . S
C3355 C3356 1.349 . S
C3355 C3357 1.327 . S
C3355 H3378 0.950 . S
C3356 C3355 1.349 . S
C3356 C3368 1.349 . S
C3357 C3355 1.327 . S
C3357 C3373 1.429 . S
C3357 H3379 0.950 . S
C3358 H3354 0.949 . S
C3358 C3366 1.574 . S
C3358 C3374 1.368 . S
H3359 C3367 0.950 . S
H3360 C3365 0.950 . S
H3361 C3366 0.949 . S
H3362 C3368 0.950 . S
H3363 C3369 0.950 . S
H3364 C3370 0.949 . S
C3365 H3360 0.950 . S
C3365 C3367 1.327 . S
C3365 C3371 1.429 . S
C3366 C3358 1.574 . S
C3366 H3361 0.949 . S
C3366 C3372 1.368 . S
C3367 C3351 1.349 . S
C3367 H3359 0.950 . S
C3367 C3365 1.327 . S
C3368 C3356 1.349 . S
C3368 H3362 0.950 . S
C3368 C3369 1.327 . S
C3369 H3363 0.950 . S
C3369 C3368 1.327 . S
C3369 C3373 1.429 . S
C3370 C3353 1.574 . S
C3370 H3364 0.949 . S
C3370 C3374 1.368 . S
C3371 C3352 1.429 . S
C3371 C3365 1.429 . S
C3371 C3372 1.523 . S
C3372 C3353 1.368 . S
C3372 C3366 1.368 . S
C3372 C3371 1.523 . S
C3373 C3357 1.429 . S
C3373 C3369 1.429 . S
C3373 C3374 1.523 . S
C3374 C3358 1.368 . S
C3374 C3370 1.368 . S
C3374 C3373 1.523 . S
H3375 C3350 0.950 . S
H3376 C3352 0.950 . S
H3377 C3353 0.949 . S
H3378 C3355 0.950 . S
H3379 C3357 0.950 . S
C3380 C3381 1.349 . S
C3380 C3382 1.327 . S
C3380 H3405 0.950 . S
C3381 C3380 1.349 . S
C3381 C3397 1.349 . S
C3382 C3380 1.327 . S
C3382 C3401 1.429 . S
C3382 H3406 0.950 . S
C3383 C3400 1.574 . S
C3383 C3402 1.368 1_655 S
C3383 H3407 0.949 1_655 S
H3384 C3388 0.949 . S
C3385 C3386 1.349 . S
C3385 C3387 1.327 . S
C3385 H3408 0.950 . S
C3386 C3385 1.349 . S
C3386 C3398 1.349 . S
C3387 C3385 1.327 . S
C3387 C3403 1.429 . S
C3387 H3409 0.950 . S
C3388 H3384 0.949 . S
C3388 C3396 1.574 . S
C3388 C3404 1.368 . S
H3389 C3397 0.950 . S
H3390 C3395 0.950 . S
H3391 C3396 0.949 1_455 S
H3392 C3398 0.950 . S
H3393 C3399 0.950 . S
H3394 C3400 0.949 . S
C3395 H3390 0.950 . S
C3395 C3397 1.327 . S
C3395 C3401 1.429 . S
C3396 C3388 1.574 . S
C3396 H3391 0.949 1_655 S
C3396 C3402 1.368 1_655 S
C3397 C3381 1.349 . S
C3397 H3389 0.950 . S
C3397 C3395 1.327 . S
C3398 C3386 1.349 . S
C3398 H3392 0.950 . S
C3398 C3399 1.327 . S
C3399 H3393 0.950 . S
C3399 C3398 1.327 . S
C3399 C3403 1.429 . S
C3400 C3383 1.574 . S
C3400 H3394 0.949 . S
C3400 C3404 1.368 . S
C3401 C3382 1.429 . S
C3401 C3395 1.429 . S
C3401 C3402 1.523 . S
C3402 C3383 1.368 1_455 S
C3402 C3396 1.368 1_455 S
C3402 C3401 1.523 . S
C3403 C3387 1.429 . S
C3403 C3399 1.429 . S
C3403 C3404 1.523 . S
C3404 C3388 1.368 . S
C3404 C3400 1.368 . S
C3404 C3403 1.523 . S
H3405 C3380 0.950 . S
H3406 C3382 0.950 . S
H3407 C3383 0.949 1_455 S
H3408 C3385 0.950 . S
H3409 C3387 0.950 . S
C3410 C3411 1.349 . S
C3410 C3412 1.327 . S
C3410 H3435 0.950 . S
C3411 C3410 1.349 . S
C3411 C3427 1.349 . S
C3412 C3410 1.327 . S
C3412 C3431 1.429 . S
C3412 H3436 0.950 . S
C3413 C3430 1.574 . S
C3413 C3432 1.368 . S
C3413 H3437 0.949 . S
H3414 C3418 0.949 . S
C3415 C3416 1.349 . S
C3415 C3417 1.327 . S
C3415 H3438 0.950 . S
C3416 C3415 1.349 . S
C3416 C3428 1.349 . S
C3417 C3415 1.327 . S
C3417 C3433 1.429 . S
C3417 H3439 0.950 . S
C3418 H3414 0.949 . S
C3418 C3426 1.574 . S
C3418 C3434 1.368 . S
H3419 C3427 0.950 . S
H3420 C3425 0.950 . S
H3421 C3426 0.949 . S
H3422 C3428 0.950 . S
H3423 C3429 0.950 . S
H3424 C3430 0.949 . S
C3425 H3420 0.950 . S
C3425 C3427 1.327 . S
C3425 C3431 1.429 . S
C3426 C3418 1.574 . S
C3426 H3421 0.949 . S
C3426 C3432 1.368 . S
C3427 C3411 1.349 . S
C3427 H3419 0.950 . S
C3427 C3425 1.327 . S
C3428 C3416 1.349 . S
C3428 H3422 0.950 . S
C3428 C3429 1.327 . S
C3429 H3423 0.950 . S
C3429 C3428 1.327 . S
C3429 C3433 1.429 . S
C3430 C3413 1.574 . S
C3430 H3424 0.949 . S
C3430 C3434 1.368 . S
C3431 C3412 1.429 . S
C3431 C3425 1.429 . S
C3431 C3432 1.523 . S
C3432 C3413 1.368 . S
C3432 C3426 1.368 . S
C3432 C3431 1.523 . S
C3433 C3417 1.429 . S
C3433 C3429 1.429 . S
C3433 C3434 1.523 . S
C3434 C3418 1.368 . S
C3434 C3430 1.368 . S
C3434 C3433 1.523 . S
H3435 C3410 0.950 . S
H3436 C3412 0.950 . S
H3437 C3413 0.949 . S
H3438 C3415 0.950 . S
H3439 C3417 0.950 . S
C3440 C3441 1.349 . S
C3440 C3442 1.327 . S
C3440 H3465 0.950 . S
C3441 C3440 1.349 . S
C3441 C3457 1.349 . S
C3442 C3440 1.327 . S
C3442 C3461 1.429 . S
C3442 H3466 0.950 . S
C3443 C3460 1.574 . S
C3443 C3462 1.368 1_455 S
C3443 H3467 0.949 1_455 S
H3444 C3448 0.944 1_545 S
C3445 C3446 1.349 . S
C3445 C3447 1.327 . S
C3445 H3468 0.950 . S
C3446 C3445 1.349 . S
C3446 C3458 1.349 . S
C3447 C3445 1.327 . S
C3447 C3463 1.429 . S
C3447 H3469 0.950 . S
C3448 H3444 0.944 1_565 S
C3448 C3456 1.574 1_565 S
C3448 C3464 1.368 . S
H3449 C3457 0.949 1_565 S
H3450 C3455 0.950 . S
H3451 C3456 0.949 1_655 S
H3452 C3458 0.950 . S
H3453 C3459 0.950 . S
H3454 C3460 0.949 . S
C3455 H3450 0.950 . S
C3455 C3457 1.327 1_565 S
C3455 C3461 1.429 1_565 S
C3456 C3448 1.574 1_545 S
C3456 H3451 0.949 1_455 S
C3456 C3462 1.368 1_445 S
C3457 C3441 1.349 . S
C3457 H3449 0.949 1_545 S
C3457 C3455 1.327 1_545 S
C3458 C3446 1.349 . S
C3458 H3452 0.950 . S
C3458 C3459 1.327 . S
C3459 H3453 0.950 . S
C3459 C3458 1.327 . S
C3459 C3463 1.429 . S
C3460 C3443 1.574 . S
C3460 H3454 0.949 . S
C3460 C3464 1.368 . S
C3461 C3442 1.429 . S
C3461 C3455 1.429 1_545 S
C3461 C3462 1.523 1_545 S
C3462 C3443 1.368 1_655 S
C3462 C3456 1.368 1_665 S
C3462 C3461 1.523 1_565 S
C3463 C3447 1.429 . S
C3463 C3459 1.429 . S
C3463 C3464 1.523 . S
C3464 C3448 1.368 . S
C3464 C3460 1.368 . S
C3464 C3463 1.523 . S
H3465 C3440 0.950 . S
H3466 C3442 0.950 . S
H3467 C3443 0.949 1_655 S
H3468 C3445 0.950 . S
H3469 C3447 0.950 . S
C3470 C3471 1.349 . S
C3470 C3472 1.327 . S
C3470 H3495 0.950 . S
C3471 C3470 1.349 . S
C3471 C3487 1.349 . S
C3472 C3470 1.327 . S
C3472 C3491 1.429 . S
C3472 H3496 0.950 . S
C3473 C3490 1.574 . S
C3473 C3492 1.368 . S
C3473 H3497 0.949 . S
H3474 C3478 0.949 . S
C3475 C3476 1.349 . S
C3475 C3477 1.327 . S
C3475 H3498 0.950 . S
C3476 C3475 1.349 . S
C3476 C3488 1.349 . S
C3477 C3475 1.327 . S
C3477 C3493 1.429 . S
C3477 H3499 0.950 . S
C3478 H3474 0.949 . S
C3478 C3486 1.574 . S
C3478 C3494 1.368 . S
H3479 C3487 0.950 . S
H3480 C3485 0.950 . S
H3481 C3486 0.949 . S
H3482 C3488 0.950 . S
H3483 C3489 0.950 . S
H3484 C3490 0.949 . S
C3485 H3480 0.950 . S
C3485 C3487 1.327 . S
C3485 C3491 1.429 . S
C3486 C3478 1.574 . S
C3486 H3481 0.949 . S
C3486 C3492 1.368 . S
C3487 C3471 1.349 . S
C3487 H3479 0.950 . S
C3487 C3485 1.327 . S
C3488 C3476 1.349 . S
C3488 H3482 0.950 . S
C3488 C3489 1.327 . S
C3489 H3483 0.950 . S
C3489 C3488 1.327 . S
C3489 C3493 1.429 . S
C3490 C3473 1.574 . S
C3490 H3484 0.949 . S
C3490 C3494 1.368 . S
C3491 C3472 1.429 . S
C3491 C3485 1.429 . S
C3491 C3492 1.523 . S
C3492 C3473 1.368 . S
C3492 C3486 1.368 . S
C3492 C3491 1.523 . S
C3493 C3477 1.429 . S
C3493 C3489 1.429 . S
C3493 C3494 1.523 . S
C3494 C3478 1.368 . S
C3494 C3490 1.368 . S
C3494 C3493 1.523 . S
H3495 C3470 0.950 . S
H3496 C3472 0.950 . S
H3497 C3473 0.949 . S
H3498 C3475 0.950 . S
H3499 C3477 0.950 . S
C3500 C3501 1.349 . S
C3500 C3502 1.327 . S
C3500 H3525 0.950 . S
C3501 C3500 1.349 . S
C3501 C3517 1.349 . S
C3502 C3500 1.327 . S
C3502 C3521 1.429 . S
C3502 H3526 0.950 . S
C3503 C3520 1.574 . S
C3503 C3522 1.368 1_455 S
C3503 H3527 0.949 1_455 S
H3504 C3508 0.949 . S
C3505 C3506 1.349 . S
C3505 C3507 1.327 . S
C3505 H3528 0.950 . S
C3506 C3505 1.349 . S
C3506 C3518 1.349 . S
C3507 C3505 1.327 . S
C3507 C3523 1.429 . S
C3507 H3529 0.950 . S
C3508 H3504 0.949 . S
C3508 C3516 1.574 . S
C3508 C3524 1.368 . S
H3509 C3517 0.950 . S
H3510 C3515 0.950 . S
H3511 C3516 0.949 1_655 S
H3512 C3518 0.950 . S
H3513 C3519 0.950 . S
H3514 C3520 0.949 . S
C3515 H3510 0.950 . S
C3515 C3517 1.327 . S
C3515 C3521 1.429 . S
C3516 C3508 1.574 . S
C3516 H3511 0.949 1_455 S
C3516 C3522 1.368 1_455 S
C3517 C3501 1.349 . S
C3517 H3509 0.950 . S
C3517 C3515 1.327 . S
C3518 C3506 1.349 . S
C3518 H3512 0.950 . S
C3518 C3519 1.327 . S
C3519 H3513 0.950 . S
C3519 C3518 1.327 . S
C3519 C3523 1.429 . S
C3520 C3503 1.574 . S
C3520 H3514 0.949 . S
C3520 C3524 1.368 . S
C3521 C3502 1.429 . S
C3521 C3515 1.429 . S
C3521 C3522 1.523 . S
C3522 C3503 1.368 1_655 S
C3522 C3516 1.368 1_655 S
C3522 C3521 1.523 . S
C3523 C3507 1.429 . S
C3523 C3519 1.429 . S
C3523 C3524 1.523 . S
C3524 C3508 1.368 . S
C3524 C3520 1.368 . S
C3524 C3523 1.523 . S
H3525 C3500 0.950 . S
H3526 C3502 0.950 . S
H3527 C3503 0.949 1_655 S
H3528 C3505 0.950 . S
H3529 C3507 0.950 . S
C3530 C3531 1.349 1_565 S
C3530 C3532 1.327 . S
C3530 H3555 0.950 . S
C3531 C3530 1.349 1_545 S
C3531 C3547 1.349 . S
C3532 C3530 1.327 . S
C3532 C3551 1.429 1_565 S
C3532 H3556 0.950 . S
C3533 C3550 1.574 . S
C3533 C3552 1.368 1_545 S
C3533 H3557 0.949 . S
H3534 C3538 0.949 . S
C3535 C3536 1.349 . S
C3535 C3537 1.335 . S
C3535 H3558 0.950 1_565 S
C3536 C3535 1.349 . S
C3536 C3548 1.349 . S
C3537 C3535 1.335 . S
C3537 C3553 1.449 . S
C3537 H3559 0.922 1_565 S
C3538 H3534 0.949 . S
C3538 C3546 1.574 . S
C3538 C3554 1.368 . S
H3539 C3547 0.950 . S
H3540 C3545 0.950 . S
H3541 C3546 0.949 . S
H3542 C3548 0.950 . S
H3543 C3549 0.950 . S
H3544 C3550 0.949 . S
C3545 H3540 0.950 . S
C3545 C3547 1.327 . S
C3545 C3551 1.429 . S
C3546 C3538 1.574 . S
C3546 H3541 0.949 . S
C3546 C3552 1.368 . S
C3547 C3531 1.349 . S
C3547 H3539 0.950 . S
C3547 C3545 1.327 . S
C3548 C3536 1.349 . S
C3548 H3542 0.950 . S
C3548 C3549 1.327 . S
C3549 H3543 0.950 . S
C3549 C3548 1.327 . S
C3549 C3553 1.429 . S
C3550 C3533 1.574 . S
C3550 H3544 0.949 . S
C3550 C3554 1.368 1_545 S
C3551 C3532 1.429 1_545 S
C3551 C3545 1.429 . S
C3551 C3552 1.523 1_545 S
C3552 C3533 1.368 1_565 S
C3552 C3546 1.368 . S
C3552 C3551 1.523 1_565 S
C3553 C3537 1.449 . S
C3553 C3549 1.429 . S
C3553 C3554 1.523 . S
C3554 C3538 1.368 . S
C3554 C3550 1.368 1_565 S
C3554 C3553 1.523 . S
H3555 C3530 0.950 . S
H3556 C3532 0.950 . S
H3557 C3533 0.949 . S
H3558 C3535 0.950 1_545 S
H3559 C3537 0.922 1_545 S
C3560 C3561 1.349 . S
C3560 C3562 1.327 . S
C3560 H3585 0.950 . S
C3561 C3560 1.349 . S
C3561 C3577 1.349 . S
C3562 C3560 1.327 . S
C3562 C3581 1.429 . S
C3562 H3586 0.950 . S
C3563 C3580 1.574 . S
C3563 C3582 1.368 . S
C3563 H3587 0.949 . S
H3564 C3568 0.949 1_455 S
C3565 C3566 1.349 . S
C3565 C3567 1.319 1_565 S
C3565 H3588 0.949 . S
C3566 C3565 1.349 . S
C3566 C3578 1.349 . S
C3567 C3565 1.319 1_545 S
C3567 C3583 1.421 1_545 S
C3567 H3589 0.970 . S
C3568 H3564 0.949 1_655 S
C3568 C3576 1.574 1_565 S
C3568 C3584 1.368 1_665 S
H3569 C3577 0.950 . S
H3570 C3575 0.950 . S
H3571 C3576 0.946 1_565 S
H3572 C3578 0.950 . S
H3573 C3579 0.950 . S
H3574 C3580 0.949 1_455 S
C3575 H3570 0.950 . S
C3575 C3577 1.327 . S
C3575 C3581 1.429 . S
C3576 C3568 1.574 1_545 S
C3576 H3571 0.946 1_545 S
C3576 C3582 1.368 . S
C3577 C3561 1.349 . S
C3577 H3569 0.950 . S
C3577 C3575 1.327 . S
C3578 C3566 1.349 . S
C3578 H3572 0.950 . S
C3578 C3579 1.327 . S
C3579 H3573 0.950 . S
C3579 C3578 1.327 . S
C3579 C3583 1.429 . S
C3580 C3563 1.574 . S
C3580 H3574 0.949 1_655 S
C3580 C3584 1.368 1_655 S
C3581 C3562 1.429 . S
C3581 C3575 1.429 . S
C3581 C3582 1.523 . S
C3582 C3563 1.368 . S
C3582 C3576 1.368 . S
C3582 C3581 1.523 . S
C3583 C3567 1.421 1_565 S
C3583 C3579 1.429 . S
C3583 C3584 1.523 1_565 S
C3584 C3568 1.368 1_445 S
C3584 C3580 1.368 1_455 S
C3584 C3583 1.523 1_545 S
H3585 C3560 0.950 . S
H3586 C3562 0.950 . S
H3587 C3563 0.949 . S
H3588 C3565 0.949 . S
H3589 C3567 0.970 . S
C3590 C3591 1.349 . S
C3590 C3592 1.327 . S
C3590 H3615 0.950 . S
C3591 C3590 1.349 . S
C3591 C3607 1.349 . S
C3592 C3590 1.327 . S
C3592 C3611 1.429 . S
C3592 H3616 0.950 . S
C3593 C3610 1.574 . S
C3593 C3612 1.368 . S
C3593 H3617 0.949 . S
H3594 C3598 0.949 . S
C3595 C3596 1.349 . S
C3595 C3597 1.327 . S
C3595 H3618 0.950 . S
C3596 C3595 1.349 . S
C3596 C3608 1.349 . S
C3597 C3595 1.327 . S
C3597 C3613 1.429 . S
C3597 H3619 0.950 . S
C3598 H3594 0.949 . S
C3598 C3606 1.574 . S
C3598 C3614 1.368 . S
H3599 C3607 0.950 . S
H3600 C3605 0.950 . S
H3601 C3606 0.949 . S
H3602 C3608 0.950 . S
H3603 C3609 0.950 . S
H3604 C3610 0.949 . S
C3605 H3600 0.950 . S
C3605 C3607 1.327 . S
C3605 C3611 1.429 . S
C3606 C3598 1.574 . S
C3606 H3601 0.949 . S
C3606 C3612 1.368 . S
C3607 C3591 1.349 . S
C3607 H3599 0.950 . S
C3607 C3605 1.327 . S
C3608 C3596 1.349 . S
C3608 H3602 0.950 . S
C3608 C3609 1.327 . S
C3609 H3603 0.950 . S
C3609 C3608 1.327 . S
C3609 C3613 1.429 . S
C3610 C3593 1.574 . S
C3610 H3604 0.949 . S
C3610 C3614 1.368 . S
C3611 C3592 1.429 . S
C3611 C3605 1.429 . S
C3611 C3612 1.523 . S
C3612 C3593 1.368 . S
C3612 C3606 1.368 . S
C3612 C3611 1.523 . S
C3613 C3597 1.429 . S
C3613 C3609 1.429 . S
C3613 C3614 1.523 . S
C3614 C3598 1.368 . S
C3614 C3610 1.368 . S
C3614 C3613 1.523 . S
H3615 C3590 0.950 . S
H3616 C3592 0.950 . S
H3617 C3593 0.949 . S
H3618 C3595 0.950 . S
H3619 C3597 0.950 . S
C3620 C3621 1.349 . S
C3620 C3622 1.327 . S
C3620 H3645 0.950 . S
C3621 C3620 1.349 . S
C3621 C3637 1.349 . S
C3622 C3620 1.327 . S
C3622 C3641 1.429 . S
C3622 H3646 0.950 . S
C3623 C3640 1.574 . S
C3623 C3642 1.368 1_655 S
C3623 H3647 0.949 1_655 S
H3624 C3628 0.949 . S
C3625 C3626 1.349 . S
C3625 C3627 1.327 . S
C3625 H3648 0.950 . S
C3626 C3625 1.349 . S
C3626 C3638 1.349 . S
C3627 C3625 1.327 . S
C3627 C3643 1.429 . S
C3627 H3649 0.950 . S
C3628 H3624 0.949 . S
C3628 C3636 1.574 . S
C3628 C3644 1.368 . S
H3629 C3637 0.950 . S
H3630 C3635 0.950 . S
H3631 C3636 0.949 1_455 S
H3632 C3638 0.950 . S
H3633 C3639 0.950 . S
H3634 C3640 0.949 . S
C3635 H3630 0.950 . S
C3635 C3637 1.327 . S
C3635 C3641 1.429 . S
C3636 C3628 1.574 . S
C3636 H3631 0.949 1_655 S
C3636 C3642 1.368 1_655 S
C3637 C3621 1.349 . S
C3637 H3629 0.950 . S
C3637 C3635 1.327 . S
C3638 C3626 1.349 . S
C3638 H3632 0.950 . S
C3638 C3639 1.327 . S
C3639 H3633 0.950 . S
C3639 C3638 1.327 . S
C3639 C3643 1.429 . S
C3640 C3623 1.574 . S
C3640 H3634 0.949 . S
C3640 C3644 1.368 . S
C3641 C3622 1.429 . S
C3641 C3635 1.429 . S
C3641 C3642 1.523 . S
C3642 C3623 1.368 1_455 S
C3642 C3636 1.368 1_455 S
C3642 C3641 1.523 . S
C3643 C3627 1.429 . S
C3643 C3639 1.429 . S
C3643 C3644 1.523 . S
C3644 C3628 1.368 . S
C3644 C3640 1.368 . S
C3644 C3643 1.523 . S
H3645 C3620 0.950 . S
H3646 C3622 0.950 . S
H3647 C3623 0.949 1_455 S
H3648 C3625 0.950 . S
H3649 C3627 0.950 . S
C3650 C3651 1.349 . S
C3650 C3652 1.327 . S
C3650 H3675 0.950 . S
C3651 C3650 1.349 . S
C3651 C3667 1.349 1_565 S
C3652 C3650 1.327 . S
C3652 C3671 1.429 . S
C3652 H3676 0.950 . S
C3653 C3670 1.574 . S
C3653 C3672 1.368 . S
C3653 H3677 0.949 . S
H3654 C3658 0.949 . S
C3655 C3656 1.349 . S
C3655 C3657 1.327 . S
C3655 H3678 0.950 . S
C3656 C3655 1.349 . S
C3656 C3668 1.349 1_545 S
C3657 C3655 1.327 . S
C3657 C3673 1.429 . S
C3657 H3679 0.950 . S
C3658 H3654 0.949 . S
C3658 C3666 1.574 . S
C3658 C3674 1.368 1_565 S
H3659 C3667 0.950 . S
H3660 C3665 0.950 . S
H3661 C3666 0.949 . S
H3662 C3668 0.950 . S
H3663 C3669 0.950 . S
H3664 C3670 0.949 . S
C3665 H3660 0.950 . S
C3665 C3667 1.327 . S
C3665 C3671 1.429 1_545 S
C3666 C3658 1.574 . S
C3666 H3661 0.949 . S
C3666 C3672 1.368 1_565 S
C3667 C3651 1.349 1_545 S
C3667 H3659 0.950 . S
C3667 C3665 1.327 . S
C3668 C3656 1.349 1_565 S
C3668 H3662 0.950 . S
C3668 C3669 1.327 . S
C3669 H3663 0.950 . S
C3669 C3668 1.327 . S
C3669 C3673 1.429 1_565 S
C3670 C3653 1.574 . S
C3670 H3664 0.949 . S
C3670 C3674 1.368 . S
C3671 C3652 1.429 . S
C3671 C3665 1.429 1_565 S
C3671 C3672 1.523 1_565 S
C3672 C3653 1.368 . S
C3672 C3666 1.368 1_545 S
C3672 C3671 1.523 1_545 S
C3673 C3657 1.429 . S
C3673 C3669 1.429 1_545 S
C3673 C3674 1.523 . S
C3674 C3658 1.368 1_545 S
C3674 C3670 1.368 . S
C3674 C3673 1.523 . S
H3675 C3650 0.950 . S
H3676 C3652 0.950 . S
H3677 C3653 0.949 . S
H3678 C3655 0.950 . S
H3679 C3657 0.950 . S
C3680 C3681 1.349 . S
C3680 C3682 1.327 . S
C3680 H3705 0.950 . S
C3681 C3680 1.349 . S
C3681 C3697 1.349 1_455 S
C3682 C3680 1.327 . S
C3682 C3701 1.429 . S
C3682 H3706 0.950 . S
C3683 C3700 1.574 1_554 S
C3683 C3702 1.368 1_655 S
C3683 H3707 0.949 . S
H3684 C3688 0.949 . S
C3685 C3686 1.349 . S
C3685 C3687 1.327 . S
C3685 H3708 0.950 . S
C3686 C3685 1.349 . S
C3686 C3698 1.349 1_655 S
C3687 C3685 1.327 . S
C3687 C3703 1.429 . S
C3687 H3709 0.950 . S
C3688 H3684 0.949 . S
C3688 C3696 1.574 1_556 S
C3688 C3704 1.368 1_455 S
H3689 C3697 0.950 . S
H3690 C3695 0.950 . S
H3691 C3696 0.949 . S
H3692 C3698 0.950 . S
H3693 C3699 0.950 . S
H3694 C3700 0.949 . S
C3695 H3690 0.950 . S
C3695 C3697 1.327 . S
C3695 C3701 1.429 1_655 S
C3696 C3688 1.574 1_554 S
C3696 H3691 0.949 . S
C3696 C3702 1.368 . S
C3697 C3681 1.349 1_655 S
C3697 H3689 0.950 . S
C3697 C3695 1.327 . S
C3698 C3686 1.349 1_455 S
C3698 H3692 0.950 . S
C3698 C3699 1.327 . S
C3699 H3693 0.950 . S
C3699 C3698 1.327 . S
C3699 C3703 1.429 1_455 S
C3700 C3683 1.574 1_556 S
C3700 H3694 0.949 . S
C3700 C3704 1.368 . S
C3701 C3682 1.429 . S
C3701 C3695 1.429 1_455 S
C3701 C3702 1.523 . S
C3702 C3683 1.368 1_455 S
C3702 C3696 1.368 . S
C3702 C3701 1.523 . S
C3703 C3687 1.429 . S
C3703 C3699 1.429 1_655 S
C3703 C3704 1.523 . S
C3704 C3688 1.368 1_655 S
C3704 C3700 1.368 . S
C3704 C3703 1.523 . S
H3705 C3680 0.950 . S
H3706 C3682 0.950 . S
H3707 C3683 0.949 . S
H3708 C3685 0.950 . S
H3709 C3687 0.950 . S
C3710 C3711 1.349 . S
C3710 C3712 1.327 . S
C3710 H3735 0.950 . S
C3711 C3710 1.349 . S
C3711 C3727 1.349 . S
C3712 C3710 1.327 . S
C3712 C3731 1.429 . S
C3712 H3736 0.950 . S
C3713 C3730 1.574 1_556 S
C3713 C3732 1.368 . S
C3713 H3737 0.949 . S
H3714 C3718 0.949 . S
C3715 C3716 1.349 . S
C3715 C3717 1.327 . S
C3715 H3738 0.950 . S
C3716 C3715 1.349 . S
C3716 C3728 1.349 . S
C3717 C3715 1.327 . S
C3717 C3733 1.429 . S
C3717 H3739 0.950 . S
C3718 H3714 0.949 . S
C3718 C3726 1.574 1_554 S
C3718 C3734 1.368 . S
H3719 C3727 0.950 . S
H3720 C3725 0.950 . S
H3721 C3726 0.949 . S
H3722 C3728 0.950 . S
H3723 C3729 0.950 . S
H3724 C3730 0.949 . S
C3725 H3720 0.950 . S
C3725 C3727 1.327 . S
C3725 C3731 1.429 . S
C3726 C3718 1.574 1_556 S
C3726 H3721 0.949 . S
C3726 C3732 1.368 . S
C3727 C3711 1.349 . S
C3727 H3719 0.950 . S
C3727 C3725 1.327 . S
C3728 C3716 1.349 . S
C3728 H3722 0.950 . S
C3728 C3729 1.327 . S
C3729 H3723 0.950 . S
C3729 C3728 1.327 . S
C3729 C3733 1.429 . S
C3730 C3713 1.574 1_554 S
C3730 H3724 0.949 . S
C3730 C3734 1.368 . S
C3731 C3712 1.429 . S
C3731 C3725 1.429 . S
C3731 C3732 1.523 . S
C3732 C3713 1.368 . S
C3732 C3726 1.368 . S
C3732 C3731 1.523 . S
C3733 C3717 1.429 . S
C3733 C3729 1.429 . S
C3733 C3734 1.523 . S
C3734 C3718 1.368 . S
C3734 C3730 1.368 . S
C3734 C3733 1.523 . S
H3735 C3710 0.950 . S
H3736 C3712 0.950 . S
H3737 C3713 0.949 . S
H3738 C3715 0.950 . S
H3739 C3717 0.950 . S
C3740 C3741 1.349 1_455 S
C3740 C3742 1.327 . S
C3740 H3765 0.950 . S
C3741 C3740 1.349 1_655 S
C3741 C3757 1.349 . S
C3742 C3740 1.327 . S
C3742 C3761 1.429 1_455 S
C3742 H3766 0.950 . S
C3743 C3760 1.574 . S
C3743 C3762 1.368 . S
C3743 H3767 0.949 . S
H3744 C3748 0.949 . S
C3745 C3746 1.349 1_655 S
C3745 C3747 1.327 . S
C3745 H3768 0.950 . S
C3746 C3745 1.349 1_455 S
C3746 C3758 1.349 . S
C3747 C3745 1.327 . S
C3747 C3763 1.429 1_655 S
C3747 H3769 0.950 . S
C3748 H3744 0.949 . S
C3748 C3756 1.574 . S
C3748 C3764 1.368 . S
H3749 C3757 0.950 . S
H3750 C3755 0.950 . S
H3751 C3756 0.949 . S
H3752 C3758 0.950 . S
H3753 C3759 0.950 . S
H3754 C3760 0.949 . S
C3755 H3750 0.950 . S
C3755 C3757 1.327 . S
C3755 C3761 1.429 . S
C3756 C3748 1.574 . S
C3756 H3751 0.949 . S
C3756 C3762 1.368 1_455 S
C3757 C3741 1.349 . S
C3757 H3749 0.950 . S
C3757 C3755 1.327 . S
C3758 C3746 1.349 . S
C3758 H3752 0.950 . S
C3758 C3759 1.327 . S
C3759 H3753 0.950 . S
C3759 C3758 1.327 . S
C3759 C3763 1.429 . S
C3760 C3743 1.574 . S
C3760 H3754 0.949 . S
C3760 C3764 1.368 1_655 S
C3761 C3742 1.429 1_655 S
C3761 C3755 1.429 . S
C3761 C3762 1.523 . S
C3762 C3743 1.368 . S
C3762 C3756 1.368 1_655 S
C3762 C3761 1.523 . S
C3763 C3747 1.429 1_455 S
C3763 C3759 1.429 . S
C3763 C3764 1.523 . S
C3764 C3748 1.368 . S
C3764 C3760 1.368 1_455 S
C3764 C3763 1.523 . S
H3765 C3740 0.950 . S
H3766 C3742 0.950 . S
H3767 C3743 0.949 . S
H3768 C3745 0.950 . S
H3769 C3747 0.950 . S
C3770 C3771 1.349 . S
C3770 C3772 1.327 . S
C3770 H3795 0.950 . S
C3771 C3770 1.349 . S
C3771 C3787 1.349 . S
C3772 C3770 1.327 . S
C3772 C3791 1.429 . S
C3772 H3796 0.950 . S
C3773 C3790 1.574 . S
C3773 C3792 1.368 . S
C3773 H3797 0.949 . S
H3774 C3778 0.949 . S
C3775 C3776 1.349 . S
C3775 C3777 1.327 . S
C3775 H3798 0.950 . S
C3776 C3775 1.349 . S
C3776 C3788 1.349 . S
C3777 C3775 1.327 . S
C3777 C3793 1.429 . S
C3777 H3799 0.950 . S
C3778 H3774 0.949 . S
C3778 C3786 1.574 . S
C3778 C3794 1.368 . S
H3779 C3787 0.950 . S
H3780 C3785 0.950 . S
H3781 C3786 0.949 . S
H3782 C3788 0.950 . S
H3783 C3789 0.950 . S
H3784 C3790 0.949 . S
C3785 H3780 0.950 . S
C3785 C3787 1.327 . S
C3785 C3791 1.429 . S
C3786 C3778 1.574 . S
C3786 H3781 0.949 . S
C3786 C3792 1.368 . S
C3787 C3771 1.349 . S
C3787 H3779 0.950 . S
C3787 C3785 1.327 . S
C3788 C3776 1.349 . S
C3788 H3782 0.950 . S
C3788 C3789 1.327 . S
C3789 H3783 0.950 . S
C3789 C3788 1.327 . S
C3789 C3793 1.429 . S
C3790 C3773 1.574 . S
C3790 H3784 0.949 . S
C3790 C3794 1.368 . S
C3791 C3772 1.429 . S
C3791 C3785 1.429 . S
C3791 C3792 1.523 . S
C3792 C3773 1.368 . S
C3792 C3786 1.368 . S
C3792 C3791 1.523 . S
C3793 C3777 1.429 . S
C3793 C3789 1.429 . S
C3793 C3794 1.523 . S
C3794 C3778 1.368 . S
C3794 C3790 1.368 . S
C3794 C3793 1.523 . S
H3795 C3770 0.950 . S
H3796 C3772 0.950 . S
H3797 C3773 0.949 . S
H3798 C3775 0.950 . S
H3799 C3777 0.950 . S
C3800 C3801 1.349 . S
C3800 C3802 1.327 . S
C3800 H3825 0.950 . S
C3801 C3800 1.349 . S
C3801 C3817 1.349 . S
C3802 C3800 1.327 . S
C3802 C3821 1.429 . S
C3802 H3826 0.950 . S
C3803 C3820 1.574 1_556 S
C3803 C3822 1.368 . S
C3803 H3827 0.949 . S
H3804 C3808 0.949 . S
C3805 C3806 1.349 . S
C3805 C3807 1.327 . S
C3805 H3828 0.950 . S
C3806 C3805 1.349 . S
C3806 C3818 1.349 . S
C3807 C3805 1.327 . S
C3807 C3823 1.429 . S
C3807 H3829 0.950 . S
C3808 H3804 0.949 . S
C3808 C3816 1.574 1_554 S
C3808 C3824 1.368 . S
H3809 C3817 0.950 . S
H3810 C3815 0.950 . S
H3811 C3816 0.949 . S
H3812 C3818 0.950 . S
H3813 C3819 0.950 . S
H3814 C3820 0.949 . S
C3815 H3810 0.950 . S
C3815 C3817 1.327 . S
C3815 C3821 1.429 . S
C3816 C3808 1.574 1_556 S
C3816 H3811 0.949 . S
C3816 C3822 1.368 . S
C3817 C3801 1.349 . S
C3817 H3809 0.950 . S
C3817 C3815 1.327 . S
C3818 C3806 1.349 . S
C3818 H3812 0.950 . S
C3818 C3819 1.327 . S
C3819 H3813 0.950 . S
C3819 C3818 1.327 . S
C3819 C3823 1.429 . S
C3820 C3803 1.574 1_554 S
C3820 H3814 0.949 . S
C3820 C3824 1.368 . S
C3821 C3802 1.429 . S
C3821 C3815 1.429 . S
C3821 C3822 1.523 . S
C3822 C3803 1.368 . S
C3822 C3816 1.368 . S
C3822 C3821 1.523 . S
C3823 C3807 1.429 . S
C3823 C3819 1.429 . S
C3823 C3824 1.523 . S
C3824 C3808 1.368 . S
C3824 C3820 1.368 . S
C3824 C3823 1.523 . S
H3825 C3800 0.950 . S
H3826 C3802 0.950 . S
H3827 C3803 0.949 . S
H3828 C3805 0.950 . S
H3829 C3807 0.950 . S
C3830 C3831 1.339 1_455 S
C3830 C3832 1.330 . S
C3830 H3855 0.958 . S
C3831 C3830 1.339 1_655 S
C3831 C3847 1.349 . S
C3832 C3830 1.330 . S
C3832 C3851 1.429 1_455 S
C3832 H3856 0.950 . S
C3833 C3850 1.574 . S
C3833 C3852 1.368 . S
C3833 H3857 0.949 . S
H3834 C3838 0.949 . S
C3835 C3836 1.339 1_655 S
C3835 C3837 1.330 . S
C3835 H3858 0.958 . S
C3836 C3835 1.339 1_455 S
C3836 C3848 1.349 . S
C3837 C3835 1.330 . S
C3837 C3853 1.429 1_655 S
C3837 H3859 0.950 . S
C3838 H3834 0.949 . S
C3838 C3846 1.574 . S
C3838 C3854 1.368 . S
H3839 C3847 0.950 . S
H3840 C3845 0.950 . S
H3841 C3846 0.949 . S
H3842 C3848 0.950 . S
H3843 C3849 0.950 . S
H3844 C3850 0.949 . S
C3845 H3840 0.950 . S
C3845 C3847 1.327 . S
C3845 C3851 1.429 . S
C3846 C3838 1.574 . S
C3846 H3841 0.949 . S
C3846 C3852 1.368 1_455 S
C3847 C3831 1.349 . S
C3847 H3839 0.950 . S
C3847 C3845 1.327 . S
C3848 C3836 1.349 . S
C3848 H3842 0.950 . S
C3848 C3849 1.327 . S
C3849 H3843 0.950 . S
C3849 C3848 1.327 . S
C3849 C3853 1.429 . S
C3850 C3833 1.574 . S
C3850 H3844 0.949 . S
C3850 C3854 1.368 1_655 S
C3851 C3832 1.429 1_655 S
C3851 C3845 1.429 . S
C3851 C3852 1.523 . S
C3852 C3833 1.368 . S
C3852 C3846 1.368 1_655 S
C3852 C3851 1.523 . S
C3853 C3837 1.429 1_455 S
C3853 C3849 1.429 . S
C3853 C3854 1.523 . S
C3854 C3838 1.368 . S
C3854 C3850 1.368 1_455 S
C3854 C3853 1.523 . S
H3855 C3830 0.958 . S
H3856 C3832 0.950 . S
H3857 C3833 0.949 . S
H3858 C3835 0.958 . S
H3859 C3837 0.950 . S
C3860 C3861 1.349 . S
C3860 C3862 1.327 . S
C3860 H3885 0.950 . S
C3861 C3860 1.349 . S
C3861 C3877 1.349 . S
C3862 C3860 1.327 . S
C3862 C3881 1.429 . S
C3862 H3886 0.950 . S
C3863 C3880 1.574 . S
C3863 C3882 1.368 . S
C3863 H3887 0.949 . S
H3864 C3868 0.949 . S
C3865 C3866 1.349 . S
C3865 C3867 1.327 . S
C3865 H3888 0.950 . S
C3866 C3865 1.349 . S
C3866 C3878 1.349 . S
C3867 C3865 1.327 . S
C3867 C3883 1.429 . S
C3867 H3889 0.950 . S
C3868 H3864 0.949 . S
C3868 C3876 1.574 . S
C3868 C3884 1.368 . S
H3869 C3877 0.950 . S
H3870 C3875 0.950 . S
H3871 C3876 0.949 . S
H3872 C3878 0.950 . S
H3873 C3879 0.950 . S
H3874 C3880 0.949 . S
C3875 H3870 0.950 . S
C3875 C3877 1.327 . S
C3875 C3881 1.429 . S
C3876 C3868 1.574 . S
C3876 H3871 0.949 . S
C3876 C3882 1.368 . S
C3877 C3861 1.349 . S
C3877 H3869 0.950 . S
C3877 C3875 1.327 . S
C3878 C3866 1.349 . S
C3878 H3872 0.950 . S
C3878 C3879 1.327 . S
C3879 H3873 0.950 . S
C3879 C3878 1.327 . S
C3879 C3883 1.429 . S
C3880 C3863 1.574 . S
C3880 H3874 0.949 . S
C3880 C3884 1.368 . S
C3881 C3862 1.429 . S
C3881 C3875 1.429 . S
C3881 C3882 1.523 . S
C3882 C3863 1.368 . S
C3882 C3876 1.368 . S
C3882 C3881 1.523 . S
C3883 C3867 1.429 . S
C3883 C3879 1.429 . S
C3883 C3884 1.523 . S
C3884 C3868 1.368 . S
C3884 C3880 1.368 . S
C3884 C3883 1.523 . S
H3885 C3860 0.950 . S
H3886 C3862 0.950 . S
H3887 C3863 0.949 . S
H3888 C3865 0.950 . S
H3889 C3867 0.950 . S
C3890 C3891 1.349 1_545 S
C3890 C3892 1.327 . S
C3890 H3915 0.950 . S
C3891 C3890 1.349 1_565 S
C3891 C3907 1.349 1_455 S
C3892 C3890 1.327 . S
C3892 C3911 1.429 1_545 S
C3892 H3916 0.950 . S
C3893 C3910 1.574 . S
C3893 C3912 1.404 1_655 S
C3893 H3917 0.949 . S
H3894 C3898 0.949 . S
C3895 C3896 1.349 1_565 S
C3895 C3897 1.327 . S
C3895 H3918 0.950 . S
C3896 C3895 1.349 1_545 S
C3896 C3908 1.349 1_655 S
C3897 C3895 1.327 . S
C3897 C3913 1.429 1_565 S
C3897 H3919 0.950 . S
C3898 H3894 0.949 . S
C3898 C3906 1.574 . S
C3898 C3914 1.404 1_455 S
H3899 C3907 0.950 . S
H3900 C3905 0.950 . S
H3901 C3906 0.949 . S
H3902 C3908 0.950 . S
H3903 C3909 0.950 . S
H3904 C3910 0.949 . S
C3905 H3900 0.950 . S
C3905 C3907 1.327 . S
C3905 C3911 1.429 1_655 S
C3906 C3898 1.574 . S
C3906 H3901 0.949 . S
C3906 C3912 1.332 1_545 S
C3907 C3891 1.349 1_655 S
C3907 H3899 0.950 . S
C3907 C3905 1.327 . S
C3908 C3896 1.349 1_455 S
C3908 H3902 0.950 . S
C3908 C3909 1.327 . S
C3909 H3903 0.950 . S
C3909 C3908 1.327 . S
C3909 C3913 1.429 1_455 S
C3910 C3893 1.574 . S
C3910 H3904 0.949 . S
C3910 C3914 1.332 1_565 S
C3911 C3892 1.429 1_565 S
C3911 C3905 1.429 1_455 S
C3911 C3912 1.525 . S
C3912 C3893 1.404 1_455 S
C3912 C3906 1.332 1_565 S
C3912 C3911 1.525 . S
C3913 C3897 1.429 1_545 S
C3913 C3909 1.429 1_655 S
C3913 C3914 1.525 . S
C3914 C3898 1.404 1_655 S
C3914 C3910 1.332 1_545 S
C3914 C3913 1.525 . S
H3915 C3890 0.950 . S
H3916 C3892 0.950 . S
H3917 C3893 0.949 . S
H3918 C3895 0.950 . S
H3919 C3897 0.950 . S
C3920 C3921 1.349 . S
C3920 C3922 1.327 . S
C3920 H3945 0.950 . S
C3921 C3920 1.349 . S
C3921 C3937 1.349 . S
C3922 C3920 1.327 . S
C3922 C3941 1.429 . S
C3922 H3946 0.950 . S
C3923 C3940 1.574 . S
C3923 C3942 1.368 . S
C3923 H3947 0.949 . S
H3924 C3928 0.949 . S
C3925 C3926 1.349 . S
C3925 C3927 1.327 . S
C3925 H3948 0.950 . S
C3926 C3925 1.349 . S
C3926 C3938 1.349 . S
C3927 C3925 1.327 . S
C3927 C3943 1.429 . S
C3927 H3949 0.950 . S
C3928 H3924 0.949 . S
C3928 C3936 1.574 . S
C3928 C3944 1.368 . S
H3929 C3937 0.950 . S
H3930 C3935 0.950 . S
H3931 C3936 0.949 . S
H3932 C3938 0.950 . S
H3933 C3939 0.950 . S
H3934 C3940 0.949 . S
C3935 H3930 0.950 . S
C3935 C3937 1.327 . S
C3935 C3941 1.429 . S
C3936 C3928 1.574 . S
C3936 H3931 0.949 . S
C3936 C3942 1.368 . S
C3937 C3921 1.349 . S
C3937 H3929 0.950 . S
C3937 C3935 1.327 . S
C3938 C3926 1.349 . S
C3938 H3932 0.950 . S
C3938 C3939 1.327 . S
C3939 H3933 0.950 . S
C3939 C3938 1.327 . S
C3939 C3943 1.429 . S
C3940 C3923 1.574 . S
C3940 H3934 0.949 . S
C3940 C3944 1.368 . S
C3941 C3922 1.429 . S
C3941 C3935 1.429 . S
C3941 C3942 1.523 . S
C3942 C3923 1.368 . S
C3942 C3936 1.368 . S
C3942 C3941 1.523 . S
C3943 C3927 1.429 . S
C3943 C3939 1.429 . S
C3943 C3944 1.523 . S
C3944 C3928 1.368 . S
C3944 C3940 1.368 . S
C3944 C3943 1.523 . S
H3945 C3920 0.950 . S
H3946 C3922 0.950 . S
H3947 C3923 0.949 . S
H3948 C3925 0.950 . S
H3949 C3927 0.950 . S
C3950 C3951 1.349 . S
C3950 C3952 1.327 . S
C3950 H3975 0.950 . S
C3951 C3950 1.349 . S
C3951 C3967 1.349 1_545 S
C3952 C3950 1.327 . S
C3952 C3971 1.429 . S
C3952 H3976 0.950 . S
C3953 C3970 1.574 . S
C3953 C3972 1.334 1_565 S
C3953 H3977 0.949 . S
H3954 C3958 0.949 . S
C3955 C3956 1.349 . S
C3955 C3957 1.327 . S
C3955 H3978 0.950 . S
C3956 C3955 1.349 . S
C3956 C3968 1.349 1_565 S
C3957 C3955 1.327 . S
C3957 C3973 1.429 . S
C3957 H3979 0.950 . S
C3958 H3954 0.949 . S
C3958 C3966 1.574 . S
C3958 C3974 1.334 1_545 S
H3959 C3967 0.950 . S
H3960 C3965 0.950 . S
H3961 C3966 0.949 . S
H3962 C3968 0.950 . S
H3963 C3969 0.950 . S
H3964 C3970 0.949 . S
C3965 H3960 0.950 . S
C3965 C3967 1.327 . S
C3965 C3971 1.429 1_565 S
C3966 C3958 1.574 . S
C3966 H3961 0.949 . S
C3966 C3972 1.402 . S
C3967 C3951 1.349 1_565 S
C3967 H3959 0.950 . S
C3967 C3965 1.327 . S
C3968 C3956 1.349 1_545 S
C3968 H3962 0.950 . S
C3968 C3969 1.327 . S
C3969 H3963 0.950 . S
C3969 C3968 1.327 . S
C3969 C3973 1.429 1_545 S
C3970 C3953 1.574 . S
C3970 H3964 0.949 . S
C3970 C3974 1.402 . S
C3971 C3952 1.429 . S
C3971 C3965 1.429 1_545 S
C3971 C3972 1.525 . S
C3972 C3953 1.334 1_545 S
C3972 C3966 1.402 . S
C3972 C3971 1.525 . S
C3973 C3957 1.429 . S
C3973 C3969 1.429 1_565 S
C3973 C3974 1.525 . S
C3974 C3958 1.334 1_565 S
C3974 C3970 1.402 . S
C3974 C3973 1.525 . S
H3975 C3950 0.950 . S
H3976 C3952 0.950 . S
H3977 C3953 0.949 . S
H3978 C3955 0.950 . S
H3979 C3957 0.950 . S
C3980 C3981 1.349 . S
C3980 C3982 1.327 . S
C3980 H4005 0.950 . S
C3981 C3980 1.349 . S
C3981 C3997 1.349 . S
C3982 C3980 1.327 . S
C3982 C4001 1.429 . S
C3982 H4006 0.950 . S
C3983 C4000 1.574 . S
C3983 C4002 1.368 . S
C3983 H4007 0.949 . S
H3984 C3988 0.949 . S
C3985 C3986 1.349 . S
C3985 C3987 1.327 . S
C3985 H4008 0.950 . S
C3986 C3985 1.349 . S
C3986 C3998 1.349 . S
C3987 C3985 1.327 . S
C3987 C4003 1.429 . S
C3987 H4009 0.950 . S
C3988 H3984 0.949 . S
C3988 C3996 1.574 . S
C3988 C4004 1.368 . S
H3989 C3997 0.950 . S
H3990 C3995 0.950 . S
H3991 C3996 0.949 . S
H3992 C3998 0.950 . S
H3993 C3999 0.950 . S
H3994 C4000 0.949 . S
C3995 H3990 0.950 . S
C3995 C3997 1.327 . S
C3995 C4001 1.429 . S
C3996 C3988 1.574 . S
C3996 H3991 0.949 . S
C3996 C4002 1.368 . S
C3997 C3981 1.349 . S
C3997 H3989 0.950 . S
C3997 C3995 1.327 . S
C3998 C3986 1.349 . S
C3998 H3992 0.950 . S
C3998 C3999 1.327 . S
C3999 H3993 0.950 . S
C3999 C3998 1.327 . S
C3999 C4003 1.429 . S
C4000 C3983 1.574 . S
C4000 H3994 0.949 . S
C4000 C4004 1.368 . S
C4001 C3982 1.429 . S
C4001 C3995 1.429 . S
C4001 C4002 1.523 . S
C4002 C3983 1.368 . S
C4002 C3996 1.368 . S
C4002 C4001 1.523 . S
C4003 C3987 1.429 . S
C4003 C3999 1.429 . S
C4003 C4004 1.523 . S
C4004 C3988 1.368 . S
C4004 C4000 1.368 . S
C4004 C4003 1.523 . S
H4005 C3980 0.950 . S
H4006 C3982 0.950 . S
H4007 C3983 0.949 . S
H4008 C3985 0.950 . S
H4009 C3987 0.950 . S
C4010 C4011 1.349 . S
C4010 C4012 1.327 . S
C4010 H4035 0.950 . S
C4011 C4010 1.349 . S
C4011 C4027 1.349 1_565 S
C4012 C4010 1.327 . S
C4012 C4031 1.429 . S
C4012 H4036 0.950 . S
C4013 C4030 1.574 . S
C4013 C4032 1.336 1_545 S
C4013 H4037 0.949 . S
H4014 C4018 0.949 . S
C4015 C4016 1.349 . S
C4015 C4017 1.327 . S
C4015 H4038 0.950 . S
C4016 C4015 1.349 . S
C4016 C4028 1.349 1_545 S
C4017 C4015 1.327 . S
C4017 C4033 1.429 . S
C4017 H4039 0.950 . S
C4018 H4014 0.949 . S
C4018 C4026 1.574 . S
C4018 C4034 1.336 1_565 S
H4019 C4027 0.950 . S
H4020 C4025 0.950 . S
H4021 C4026 0.949 . S
H4022 C4028 0.950 . S
H4023 C4029 0.950 . S
H4024 C4030 0.949 . S
C4025 H4020 0.950 . S
C4025 C4027 1.327 . S
C4025 C4031 1.429 1_545 S
C4026 C4018 1.574 . S
C4026 H4021 0.949 . S
C4026 C4032 1.400 . S
C4027 C4011 1.349 1_545 S
C4027 H4019 0.950 . S
C4027 C4025 1.327 . S
C4028 C4016 1.349 1_565 S
C4028 H4022 0.950 . S
C4028 C4029 1.327 . S
C4029 H4023 0.950 . S
C4029 C4028 1.327 . S
C4029 C4033 1.429 1_565 S
C4030 C4013 1.574 . S
C4030 H4024 0.949 . S
C4030 C4034 1.400 . S
C4031 C4012 1.429 . S
C4031 C4025 1.429 1_565 S
C4031 C4032 1.525 . S
C4032 C4013 1.336 1_565 S
C4032 C4026 1.400 . S
C4032 C4031 1.525 . S
C4033 C4017 1.429 . S
C4033 C4029 1.429 1_545 S
C4033 C4034 1.525 . S
C4034 C4018 1.336 1_545 S
C4034 C4030 1.400 . S
C4034 C4033 1.525 . S
H4035 C4010 0.950 . S
H4036 C4012 0.950 . S
H4037 C4013 0.949 . S
H4038 C4015 0.950 . S
H4039 C4017 0.950 . S
C4040 C4041 1.349 . S
C4040 C4042 1.327 . S
C4040 H4065 0.950 . S
C4041 C4040 1.349 . S
C4041 C4057 1.349 . S
C4042 C4040 1.327 . S
C4042 C4061 1.429 . S
C4042 H4066 0.950 . S
C4043 C4060 1.574 . S
C4043 C4062 1.368 . S
C4043 H4067 0.949 . S
H4044 C4048 0.949 . S
C4045 C4046 1.349 . S
C4045 C4047 1.327 . S
C4045 H4068 0.950 . S
C4046 C4045 1.349 . S
C4046 C4058 1.349 . S
C4047 C4045 1.327 . S
C4047 C4063 1.429 . S
C4047 H4069 0.950 . S
C4048 H4044 0.949 . S
C4048 C4056 1.574 . S
C4048 C4064 1.368 . S
H4049 C4057 0.950 . S
H4050 C4055 0.950 . S
H4051 C4056 0.949 . S
H4052 C4058 0.950 . S
H4053 C4059 0.950 . S
H4054 C4060 0.949 . S
C4055 H4050 0.950 . S
C4055 C4057 1.327 . S
C4055 C4061 1.429 . S
C4056 C4048 1.574 . S
C4056 H4051 0.949 . S
C4056 C4062 1.368 . S
C4057 C4041 1.349 . S
C4057 H4049 0.950 . S
C4057 C4055 1.327 . S
C4058 C4046 1.349 . S
C4058 H4052 0.950 . S
C4058 C4059 1.327 . S
C4059 H4053 0.950 . S
C4059 C4058 1.327 . S
C4059 C4063 1.429 . S
C4060 C4043 1.574 . S
C4060 H4054 0.949 . S
C4060 C4064 1.368 . S
C4061 C4042 1.429 . S
C4061 C4055 1.429 . S
C4061 C4062 1.523 . S
C4062 C4043 1.368 . S
C4062 C4056 1.368 . S
C4062 C4061 1.523 . S
C4063 C4047 1.429 . S
C4063 C4059 1.429 . S
C4063 C4064 1.523 . S
C4064 C4048 1.368 . S
C4064 C4060 1.368 . S
C4064 C4063 1.523 . S
H4065 C4040 0.950 . S
H4066 C4042 0.950 . S
H4067 C4043 0.949 . S
H4068 C4045 0.950 . S
H4069 C4047 0.950 . S
C4070 C4071 1.349 . S
C4070 C4072 1.327 . S
C4070 H4095 0.950 . S
C4071 C4070 1.349 . S
C4071 C4087 1.349 . S
C4072 C4070 1.327 . S
C4072 C4091 1.429 . S
C4072 H4096 0.950 . S
C4073 C4090 1.574 . S
C4073 C4092 1.368 . S
C4073 H4097 0.949 . S
H4074 C4078 0.949 . S
C4075 C4076 1.349 . S
C4075 C4077 1.327 . S
C4075 H4098 0.950 . S
C4076 C4075 1.349 . S
C4076 C4088 1.349 . S
C4077 C4075 1.327 . S
C4077 C4093 1.429 . S
C4077 H4099 0.950 . S
C4078 H4074 0.949 . S
C4078 C4086 1.574 . S
C4078 C4094 1.368 . S
H4079 C4087 0.950 . S
H4080 C4085 0.950 . S
H4081 C4086 0.949 . S
H4082 C4088 0.950 . S
H4083 C4089 0.950 . S
H4084 C4090 0.949 . S
C4085 H4080 0.950 . S
C4085 C4087 1.327 . S
C4085 C4091 1.429 . S
C4086 C4078 1.574 . S
C4086 H4081 0.949 . S
C4086 C4092 1.368 . S
C4087 C4071 1.349 . S
C4087 H4079 0.950 . S
C4087 C4085 1.327 . S
C4088 C4076 1.349 . S
C4088 H4082 0.950 . S
C4088 C4089 1.327 . S
C4089 H4083 0.950 . S
C4089 C4088 1.327 . S
C4089 C4093 1.429 . S
C4090 C4073 1.574 . S
C4090 H4084 0.949 . S
C4090 C4094 1.368 . S
C4091 C4072 1.429 . S
C4091 C4085 1.429 . S
C4091 C4092 1.523 . S
C4092 C4073 1.368 . S
C4092 C4086 1.368 . S
C4092 C4091 1.523 . S
C4093 C4077 1.429 . S
C4093 C4089 1.429 . S
C4093 C4094 1.523 . S
C4094 C4078 1.368 . S
C4094 C4090 1.368 . S
C4094 C4093 1.523 . S
H4095 C4070 0.950 . S
H4096 C4072 0.950 . S
H4097 C4073 0.949 . S
H4098 C4075 0.950 . S
H4099 C4077 0.950 . S
C4100 C4101 1.349 . S
C4100 C4102 1.327 . S
C4100 H4125 0.950 . S
C4101 C4100 1.349 . S
C4101 C4117 1.349 . S
C4102 C4100 1.327 . S
C4102 C4121 1.429 . S
C4102 H4126 0.950 . S
C4103 C4120 1.574 . S
C4103 C4122 1.368 . S
C4103 H4127 0.949 . S
H4104 C4108 0.949 . S
C4105 C4106 1.349 . S
C4105 C4107 1.327 . S
C4105 H4128 0.950 . S
C4106 C4105 1.349 . S
C4106 C4118 1.349 . S
C4107 C4105 1.327 . S
C4107 C4123 1.429 . S
C4107 H4129 0.950 . S
C4108 H4104 0.949 . S
C4108 C4116 1.574 . S
C4108 C4124 1.368 . S
H4109 C4117 0.950 . S
H4110 C4115 0.950 . S
H4111 C4116 0.949 . S
H4112 C4118 0.950 . S
H4113 C4119 0.950 . S
H4114 C4120 0.949 . S
C4115 H4110 0.950 . S
C4115 C4117 1.327 . S
C4115 C4121 1.429 . S
C4116 C4108 1.574 . S
C4116 H4111 0.949 . S
C4116 C4122 1.368 . S
C4117 C4101 1.349 . S
C4117 H4109 0.950 . S
C4117 C4115 1.327 . S
C4118 C4106 1.349 . S
C4118 H4112 0.950 . S
C4118 C4119 1.327 . S
C4119 H4113 0.950 . S
C4119 C4118 1.327 . S
C4119 C4123 1.429 . S
C4120 C4103 1.574 . S
C4120 H4114 0.949 . S
C4120 C4124 1.368 . S
C4121 C4102 1.429 . S
C4121 C4115 1.429 . S
C4121 C4122 1.523 . S
C4122 C4103 1.368 . S
C4122 C4116 1.368 . S
C4122 C4121 1.523 . S
C4123 C4107 1.429 . S
C4123 C4119 1.429 . S
C4123 C4124 1.523 . S
C4124 C4108 1.368 . S
C4124 C4120 1.368 . S
C4124 C4123 1.523 . S
H4125 C4100 0.950 . S
H4126 C4102 0.950 . S
H4127 C4103 0.949 . S
H4128 C4105 0.950 . S
H4129 C4107 0.950 . S
C4130 C4131 1.349 . S
C4130 C4132 1.327 . S
C4130 H4155 0.950 . S
C4131 C4130 1.349 . S
C4131 C4147 1.349 1_565 S
C4132 C4130 1.327 . S
C4132 C4151 1.429 . S
C4132 H4156 0.950 . S
C4133 C4150 1.574 1_554 S
C4133 C4152 1.333 1_545 S
C4133 H4157 0.949 . S
H4134 C4138 0.949 . S
C4135 C4136 1.349 . S
C4135 C4137 1.327 . S
C4135 H4158 0.950 . S
C4136 C4135 1.349 . S
C4136 C4148 1.349 1_545 S
C4137 C4135 1.327 . S
C4137 C4153 1.429 . S
C4137 H4159 0.950 . S
C4138 H4134 0.949 . S
C4138 C4146 1.574 1_556 S
C4138 C4154 1.333 1_565 S
H4139 C4147 0.950 . S
H4140 C4145 0.950 . S
H4141 C4146 0.949 . S
H4142 C4148 0.950 . S
H4143 C4149 0.950 . S
H4144 C4150 0.949 . S
C4145 H4140 0.950 . S
C4145 C4147 1.327 . S
C4145 C4151 1.429 1_545 S
C4146 C4138 1.574 1_554 S
C4146 H4141 0.949 . S
C4146 C4152 1.402 . S
C4147 C4131 1.349 1_545 S
C4147 H4139 0.950 . S
C4147 C4145 1.327 . S
C4148 C4136 1.349 1_565 S
C4148 H4142 0.950 . S
C4148 C4149 1.327 . S
C4149 H4143 0.950 . S
C4149 C4148 1.327 . S
C4149 C4153 1.429 1_565 S
C4150 C4133 1.574 1_556 S
C4150 H4144 0.949 . S
C4150 C4154 1.402 . S
C4151 C4132 1.429 . S
C4151 C4145 1.429 1_565 S
C4151 C4152 1.525 . S
C4152 C4133 1.333 1_565 S
C4152 C4146 1.402 . S
C4152 C4151 1.525 . S
C4153 C4137 1.429 . S
C4153 C4149 1.429 1_545 S
C4153 C4154 1.525 . S
C4154 C4138 1.333 1_545 S
C4154 C4150 1.402 . S
C4154 C4153 1.525 . S
H4155 C4130 0.950 . S
H4156 C4132 0.950 . S
H4157 C4133 0.949 . S
H4158 C4135 0.950 . S
H4159 C4137 0.950 . S
C1281 C10 1.650 . S
C1286 C1010 1.650 . S
C1311 C970 1.650 . S
C1316 C50 1.650 . S
C1341 C1090 1.650 . S
C1346 C90 1.650 . S
C1371 C130 1.650 . S
C1376 C1050 1.650 . S
C1401 C179 1.650 . S
C1406 C1179 1.650 . S
C1431 C219 1.650 . S
C1436 C1139 1.650 . S
C1461 C259 1.650 . S
C1466 C1259 1.650 . S
C1491 C1219 1.650 . S
C1496 C299 1.650 . S
C1521 C330 1.650 . S
C1526 C690 1.650 . S
C1551 C370 1.650 . S
C1556 C650 1.650 . S
C1581 C410 1.650 . S
C1586 C770 1.650 . S
C1611 C730 1.650 . S
C1616 C450 1.650 . S
C1641 C499 1.650 . S
C1646 C859 1.650 . S
C1671 C539 1.650 . S
C1676 C819 1.650 . S
C1701 C939 1.650 . S
C1706 C579 1.650 . S
C1731 C619 1.650 . S
C1736 C899 1.650 . S
C1761 C9 1.580 . S
C1766 C129 1.580 . S
C1791 C49 1.580 . S
C1796 C89 1.580 . S
C1821 C298 1.580 . S
C1826 C178 1.580 . S
C1851 C258 1.580 . S
C1856 C218 1.580 . S
C1881 C329 1.580 . S
C1886 C449 1.580 . S
C1911 C369 1.580 . S
C1916 C409 1.580 . S
C1941 C498 1.580 . S
C1946 C618 1.580 . S
C1971 C578 1.580 . S
C1976 C538 1.580 . S
C2001 C649 1.580 . S
C2006 C769 1.580 . S
C2031 C689 1.580 . S
C2036 C729 1.580 . S
C2061 C938 1.580 . S
C2066 C818 1.580 . S
C2091 C858 1.580 . S
C2096 C898 1.580 . S
C2121 C1089 1.580 . S
C2126 C969 1.580 . S
C2151 C1009 1.580 . S
C2156 C1049 1.580 . S
C2181 C1258 1.580 . S
C2186 C1138 1.580 . S
C2211 C1218 1.580 . S
C2216 C1178 1.580 . S
C2241 C59 1.489 . S
C2246 C19 1.489 . S
C2271 C99 1.489 . S
C2276 C139 1.489 . S
C2301 C210 1.489 . S
C2306 C170 1.489 . S
C2331 C290 1.489 . S
C2336 C250 1.489 . S
C2361 C339 1.489 . S
C2366 C379 1.489 . S
C2391 C419 1.489 . S
C2396 C459 1.489 . S
C2421 C530 1.489 . S
C2426 C490 1.489 . S
C2451 C570 1.489 . S
C2456 C610 1.489 . S
C2481 C659 1.489 . S
C2486 C699 1.489 . S
C2511 C779 1.489 . S
C2516 C739 1.489 . S
C2541 C810 1.489 . S
C2546 C850 1.489 . S
C2571 C890 1.489 . S
C2576 C930 1.489 . S
C2601 C979 1.489 . S
C2606 C1019 1.489 . S
C2631 C1059 1.489 . S
C2636 C1099 1.489 . S
C2661 C1170 1.489 . S
C2666 C1130 1.489 . S
C2691 C1210 1.489 . S
C2696 C1250 1.489 . S
C2721 C6 1.763 . S
C2726 C15 1.763 . S
C2751 C46 1.763 . S
C2756 C55 1.763 . S
C2781 C86 1.763 . S
C2786 C95 1.763 . S
C2811 C135 1.763 . S
C2816 C126 1.763 . S
C2841 C166 1.763 . S
C2846 C175 1.763 . S
C2871 C215 1.763 . S
C2876 C206 1.763 . S
C2901 C246 1.763 . S
C2906 C255 1.763 . S
C2931 C286 1.763 . S
C2936 C295 1.763 . S
C2961 C335 1.763 . S
C2966 C326 1.763 . S
C2991 C366 1.763 . S
C2996 C375 1.763 . S
C3021 C406 1.763 . S
C3026 C415 1.763 . S
C3051 C455 1.763 . S
C3056 C446 1.763 . S
C3081 C486 1.763 . S
C3086 C495 1.763 . S
C3111 C535 1.763 . S
C3116 C526 1.763 . S
C3141 C575 1.763 . S
C3146 C566 1.763 . S
C3171 C606 1.763 . S
C3176 C615 1.763 . S
C3201 C646 1.763 . S
C3206 C655 1.763 . S
C3231 C695 1.763 . S
C3236 C686 1.763 1_455 S
C3261 C735 1.763 . S
C3266 C726 1.763 . S
C3291 C766 1.763 1_455 S
C3296 C775 1.763 . S
C3321 C815 1.763 . S
C3326 C806 1.763 . S
C3351 C855 1.763 1_655 S
C3356 C846 1.763 . S
C3381 C886 1.763 . S
C3386 C895 1.763 . S
C3411 C935 1.763 1_655 S
C3416 C926 1.763 . S
C3441 C975 1.763 . S
C3446 C966 1.763 . S
C3471 C1006 1.763 1_455 S
C3476 C1015 1.763 . S
C3501 C1055 1.763 . S
C3506 C1046 1.763 . S
C3531 C1095 1.763 . S
C3536 C1086 1.763 1_455 S
C3561 C1135 1.763 . S
C3566 C1126 1.763 . S
C3591 C1175 1.763 1_655 S
C3596 C1166 1.763 . S
C3621 C1206 1.763 . S
C3626 C1215 1.763 . S
C3651 C1246 1.763 . S
C3656 C1255 1.763 1_655 S
C3681 C18 1.482 . S
C3686 C169 1.482 . S
C3711 C1169 1.482 . S
C3716 C58 1.482 . S
C3741 C569 1.482 . S
C3746 C98 1.482 . S
C3771 C138 1.482 . S
C3776 C929 1.482 . S
C3801 C209 1.482 . S
C3806 C1018 1.482 . S
C3831 C249 1.482 . S
C3836 C418 1.482 . S
C3861 C289 1.482 . S
C3866 C778 1.482 . S
C3891 C338 1.482 . S
C3896 C489 1.482 . S
C3921 C849 1.482 . S
C3926 C378 1.482 . S
C3951 C1249 1.482 . S
C3956 C458 1.482 . S
C3981 C529 1.482 . S
C3986 C698 1.482 . S
C4011 C1098 1.482 . S
C4016 C609 1.482 . S
C4041 C658 1.482 . S
C4046 C809 1.482 . S
C4071 C1209 1.482 . S
C4076 C738 1.482 . S
C4101 C889 1.482 . S
C4106 C1058 1.482 . S
C4131 C978 1.482 . S
C4136 C1129 1.482 . S
