# Generated by pormake.
# Topology ftb, (5)-cn, num edge types: 1
# Building blocks:
#     Node 0, Type 0, BuildingBlock: XOMCOT_clean_sbu_0, # of connection points: 5
#     Node 1, Type 0, BuildingBlock: XOMCOT_clean_sbu_0, # of connection points: 5
#     Node 2, Type 0, BuildingBlock: XOMCOT_clean_sbu_0, # of connection points: 5
#     Node 3, Type 0, BuildingBlock: XOMCOT_clean_sbu_0, # of connection points: 5
#     Node 4, Type 0, BuildingBlock: XOMCOT_clean_sbu_0, # of connection points: 5
#     Node 5, Type 0, BuildingBlock: XOMCOT_clean_sbu_0, # of connection points: 5
#     Node 6, Type 0, BuildingBlock: XOMCOT_clean_sbu_0, # of connection points: 5
#     Node 7, Type 0, BuildingBlock: XOMCOT_clean_sbu_0, # of connection points: 5
#     Edge 8, Type (0, 0), BuildingBlock: ZUJKAS_clean_linker_0, # of connection points: 2
#     Edge 9, Type (0, 0), BuildingBlock: ZUJKAS_clean_linker_0, # of connection points: 2
#     Edge 10, Type (0, 0), BuildingBlock: ZUJKAS_clean_linker_0, # of connection points: 2
#     Edge 11, Type (0, 0), BuildingBlock: ZUJKAS_clean_linker_0, # of connection points: 2
#     Edge 12, Type (0, 0), BuildingBlock: ZUJKAS_clean_linker_0, # of connection points: 2
#     Edge 13, Type (0, 0), BuildingBlock: ZUJKAS_clean_linker_0, # of connection points: 2
#     Edge 14, Type (0, 0), BuildingBlock: ZUJKAS_clean_linker_0, # of connection points: 2
#     Edge 15, Type (0, 0), BuildingBlock: ZUJKAS_clean_linker_0, # of connection points: 2
#     Edge 16, Type (0, 0), BuildingBlock: ZUJKAS_clean_linker_0, # of connection points: 2
#     Edge 17, Type (0, 0), BuildingBlock: ZUJKAS_clean_linker_0, # of connection points: 2
#     Edge 18, Type (0, 0), BuildingBlock: ZUJKAS_clean_linker_0, # of connection points: 2
#     Edge 19, Type (0, 0), BuildingBlock: ZUJKAS_clean_linker_0, # of connection points: 2
#     Edge 20, Type (0, 0), BuildingBlock: ZUJKAS_clean_linker_0, # of connection points: 2
#     Edge 21, Type (0, 0), BuildingBlock: ZUJKAS_clean_linker_0, # of connection points: 2
#     Edge 22, Type (0, 0), BuildingBlock: ZUJKAS_clean_linker_0, # of connection points: 2
#     Edge 23, Type (0, 0), BuildingBlock: ZUJKAS_clean_linker_0, # of connection points: 2
#     Edge 24, Type (0, 0), BuildingBlock: ZUJKAS_clean_linker_0, # of connection points: 2
#     Edge 25, Type (0, 0), BuildingBlock: ZUJKAS_clean_linker_0, # of connection points: 2
#     Edge 26, Type (0, 0), BuildingBlock: ZUJKAS_clean_linker_0, # of connection points: 2
#     Edge 27, Type (0, 0), BuildingBlock: ZUJKAS_clean_linker_0, # of connection points: 2
# Relax obj value: 0.126
# Max RMSD: 0.202
# Mean RMSD: 0.202
data_MOF--net-ftb--node1-XOMCOT_clean_sbu_0--edge1-ZUJKAS_clean_linker_0
_symmetry_space_group_name_H-M    P1
_symmetry_Int_Tables_number       1
_symmetry_cell_setting            triclinic
loop_
_symmetry_equiv_pos_as_xyz
'x, y, z'
_cell_length_a     69.883987
_cell_length_b     26.306926
_cell_length_c     35.658733
_cell_angle_alpha  89.974723
_cell_angle_beta   92.251627
_cell_angle_gamma 89.795579
loop_
_atom_site_label
_atom_site_type_symbol
_atom_site_fract_x
_atom_site_fract_y
_atom_site_fract_z
_atom_type_partial_charge
Co0 Co 0.32106 0.98733 1.0167 0.0
C1 C 0.31728 0.92567 0.94699 0.0
C2 C 0.30048 0.99418 0.94358 0.0
C3 C 0.29755 0.96731 0.9107 0.0
N4 N 0.31283 0.96807 0.96626 0.0
N5 N 0.30815 0.92433 0.91284 0.0
H6 H 0.32671 0.89603 0.95797 0.0
H7 H 0.29396 0.03011 0.95061 0.0
C8 C 0.33803 0.09107 1.00956 0.0
O9 O 0.35221 0.07823 0.03302 0.0
N10 N 0.32871 0.00753 0.06783 0.0
C11 C 0.33927 0.98183 0.0941 0.0
C12 C 0.33988 0.00926 0.12697 0.0
C13 C 0.32263 0.04971 0.08573 0.0
N14 N 0.32945 0.05207 0.12174 0.0
C15 C 0.35346 0.92022 0.02154 0.0
C16 C 0.37572 0.97194 0.97197 0.0
C17 C 0.38339 0.92907 0.99054 0.0
C18 C 0.37182 0.90237 1.01488 0.0
C19 C 0.35728 0.98857 0.9796 0.0
N20 N 0.34683 0.96463 1.00595 0.0
H21 H 0.34453 0.89798 0.03922 0.0
H22 H 0.35142 0.02032 0.9638 0.0
H23 H 0.34583 0.94519 0.09065 0.0
H24 H 0.31317 0.07779 0.07268 0.0
O25 O 0.31076 0.92461 0.03533 0.0
O26 O 0.2948 0.99748 0.02925 0.0
O27 O 0.32563 0.05827 0.9986 0.0
C28 C 0.29488 0.94987 0.03894 0.0
H29 H 0.28848 0.9788 0.88687 0.0
H30 H 0.34753 0.99843 0.15273 0.0
H31 H 0.384 0.99309 0.95225 0.0
H32 H 0.37688 0.86782 0.02857 0.0
Co33 Co 0.64733 0.98732 0.03011 0.0
C34 C 0.64988 0.92781 0.1014 0.0
C35 C 0.63833 0.00275 0.10852 0.0
C36 C 0.63878 0.97831 0.14268 0.0
N37 N 0.64542 0.97132 0.08274 0.0
N38 N 0.64606 0.93118 0.13826 0.0
H39 H 0.6558 0.89444 0.08842 0.0
H40 H 0.63287 0.04055 0.10277 0.0
C41 C 0.66617 0.08061 0.05159 0.0
O42 O 0.64829 0.09632 0.05067 0.0
N43 N 0.6489 0.00389 0.97748 0.0
C44 C 0.64836 0.97046 0.94891 0.0
C45 C 0.64907 0.99686 0.91566 0.0
C46 C 0.6498 0.05025 0.96129 0.0
N47 N 0.64995 0.04708 0.92337 0.0
C48 C 0.61839 0.90949 0.01883 0.0
C49 C 0.58913 0.98067 1.01145 0.0
C50 C 0.58459 0.92883 1.01013 0.0
C51 C 0.59946 0.89287 1.01334 0.0
C52 C 0.60811 0.99549 1.01665 0.0
N53 N 0.62228 0.96022 0.02043 0.0
H54 H 0.62977 0.88183 0.02234 0.0
H55 H 0.61165 0.03546 1.01815 0.0
H56 H 0.64734 0.92967 0.95198 0.0
H57 H 0.64991 0.08554 0.97677 0.0
O58 O 0.66198 0.92246 0.02173 0.0
O59 O 0.67606 0.99138 0.03616 0.0
O60 O 0.66986 0.0339 0.04315 0.0
C61 C 0.67796 0.94402 0.02812 0.0
H62 H 0.63366 0.99374 0.16859 0.0
H63 H 0.64909 0.98015 0.88794 0.0
H64 H 0.5781 0.00959 1.00854 0.0
H65 H 0.59643 0.85253 1.01262 0.0
Co66 Co 0.3209 0.49665 0.51121 0.0
C67 C 0.32189 0.43872 0.43987 0.0
C68 C 0.30942 0.51287 0.432 0.0
C69 C 0.30876 0.48784 0.39807 0.0
N70 N 0.31772 0.48218 0.4581 0.0
N71 N 0.31659 0.44113 0.40292 0.0
H72 H 0.32857 0.40609 0.45352 0.0
H73 H 0.3038 0.5504 0.43742 0.0
C74 C 0.33809 0.60208 0.51059 0.0
O75 O 0.35125 0.58936 0.53625 0.0
N76 N 0.32336 0.51117 0.5652 0.0
C77 C 0.32484 0.47645 0.59318 0.0
C78 C 0.32336 0.50042 0.62721 0.0
C79 C 0.32013 0.55573 0.58312 0.0
N80 N 0.32054 0.5503 0.62086 0.0
C81 C 0.35529 0.4405 0.53071 0.0
C82 C 0.3789 0.49355 0.48434 0.0
C83 C 0.38703 0.45744 0.5092 0.0
C84 C 0.37486 0.42967 0.53178 0.0
C85 C 0.35924 0.50321 0.48431 0.0
N86 N 0.3479 0.47909 0.50903 0.0
H87 H 0.34611 0.41748 0.54716 0.0
H88 H 0.3532 0.53078 0.46471 0.0
H89 H 0.3257 0.43583 0.58955 0.0
H90 H 0.31644 0.59102 0.56909 0.0
O91 O 0.31038 0.43061 0.52193 0.0
O92 O 0.29362 0.50217 0.51456 0.0
O93 O 0.32574 0.5698 0.49855 0.0
C94 C 0.29381 0.45364 0.52138 0.0
H95 H 0.3024 0.50254 0.3721 0.0
H96 H 0.32398 0.48241 0.65454 0.0
H97 H 0.38769 0.51528 0.46586 0.0
H98 H 0.38041 0.39979 0.55012 0.0
Co99 Co 0.65924 0.49107 0.53339 0.0
C100 C 0.65848 0.43603 0.60721 0.0
C101 C 0.68052 0.49231 0.60604 0.0
C102 C 0.68203 0.46733 0.63996 0.0
N103 N 0.66556 0.47333 0.58558 0.0
N104 N 0.66819 0.43178 0.64071 0.0
H105 H 0.64676 0.41169 0.59869 0.0
H106 H 0.68998 0.52168 0.59653 0.0
C107 C 0.6553 0.58817 0.57681 0.0
O108 O 0.64812 0.56354 0.60503 0.0
N109 N 0.65342 0.50825 0.48143 0.0
C110 C 0.64356 0.47939 0.4563 0.0
C111 C 0.64223 0.50495 0.4226 0.0
C112 C 0.65803 0.55093 0.46276 0.0
N113 N 0.65132 0.54998 0.4266 0.0
C114 C 0.6243 0.43543 0.54074 0.0
C115 C 0.60009 0.51864 0.5375 0.0
C116 C 0.5921 0.46993 0.53877 0.0
C117 C 0.60451 0.42794 0.54068 0.0
C118 C 0.6199 0.52439 0.53745 0.0
N119 N 0.63186 0.48322 0.54012 0.0
H120 H 0.63352 0.40249 0.53995 0.0
H121 H 0.62535 0.56209 0.53327 0.0
H122 H 0.63759 0.4425 0.46218 0.0
H123 H 0.66623 0.58176 0.47531 0.0
O124 O 0.66601 0.42236 0.51905 0.0
O125 O 0.68593 0.48788 0.52295 0.0
O126 O 0.65898 0.56526 0.54639 0.0
C127 C 0.68329 0.43998 0.51597 0.0
H128 H 0.69298 0.47364 0.66175 0.0
H129 H 0.63474 0.49172 0.39734 0.0
H130 H 0.5911 0.55224 0.53568 0.0
H131 H 0.59899 0.38952 0.54052 0.0
Co132 Co 0.82765 0.99253 0.53406 0.0
C133 C 0.82689 0.93223 0.46325 0.0
C134 C 0.8092 0.99909 0.45919 0.0
C135 C 0.80785 0.97373 0.42549 0.0
N136 N 0.82118 0.97328 0.48277 0.0
N137 N 0.819 0.93169 0.42789 0.0
H138 H 0.83669 0.90373 0.47463 0.0
H139 H 0.80177 0.03376 0.46619 0.0
C140 C 0.83849 0.10342 0.52853 0.0
O141 O 0.8522 0.09853 0.55458 0.0
N142 N 0.83358 0.01242 0.58605 0.0
C143 C 0.8446 0.98759 0.61205 0.0
C144 C 0.84428 0.01344 0.64548 0.0
C145 C 0.82611 0.05222 0.60482 0.0
N146 N 0.8327 0.05432 0.64108 0.0
C147 C 0.86314 0.93748 0.53956 0.0
C148 C 0.88418 0.00334 0.49732 0.0
C149 C 0.89361 0.96311 0.51613 0.0
C150 C 0.88271 0.92891 0.53639 0.0
C151 C 0.86456 0.01061 0.50147 0.0
N152 N 0.85457 0.98005 0.52473 0.0
H153 H 0.85494 0.91004 0.55458 0.0
H154 H 0.85754 0.04082 0.48578 0.0
H155 H 0.85216 0.9525 0.60795 0.0
H156 H 0.81602 0.07901 0.59209 0.0
O157 O 0.82025 0.92572 0.55094 0.0
O158 O 0.80092 0.99249 0.54479 0.0
O159 O 0.82871 0.06519 0.51719 0.0
C160 C 0.80313 0.94484 0.55356 0.0
H161 H 0.79899 0.98502 0.40133 0.0
H162 H 0.85225 0.00299 0.67094 0.0
H163 H 0.89195 0.02981 0.48037 0.0
H164 H 0.88926 0.89592 0.54987 0.0
Co165 Co 0.16515 1.0017 0.52846 0.0
C166 C 0.16603 0.94314 0.59964 0.0
C167 C 0.17651 0.01917 0.60764 0.0
C168 C 0.17766 0.99423 0.64162 0.0
N169 N 0.16912 0.98725 0.58143 0.0
N170 N 0.1711 0.94639 0.6366 0.0
H171 H 0.16019 0.90949 0.58607 0.0
H172 H 0.18109 0.05765 0.60237 0.0
C173 C 0.14912 0.10803 0.52685 0.0
O174 O 0.13648 0.09539 0.50026 0.0
N175 N 0.16186 0.01674 0.47482 0.0
C176 C 0.1552 0.98605 0.447 0.0
C177 C 0.15667 0.01047 0.41316 0.0
C178 C 0.16815 0.05861 0.4569 0.0
N179 N 0.16477 0.05634 0.41924 0.0
C180 C 0.13063 0.94381 0.51523 0.0
C181 C 0.10738 0.0046 0.55733 0.0
C182 C 0.09905 0.96561 0.53558 0.0
C183 C 0.11101 0.93393 0.51527 0.0
C184 C 0.12703 0.01338 0.55609 0.0
N185 N 0.13814 0.98565 0.53286 0.0
H186 H 0.13977 0.91744 0.50127 0.0
H187 H 0.13322 0.04277 0.57377 0.0
H188 H 0.15026 0.94769 0.45017 0.0
H189 H 0.17537 0.08975 0.47121 0.0
O190 O 0.175 0.93504 0.51697 0.0
O191 O 0.19241 0.00529 0.52327 0.0
O192 O 0.16089 0.07527 0.54081 0.0
C193 C 0.19173 0.95671 0.51674 0.0
H194 H 0.18341 0.00974 0.66779 0.0
H195 H 0.15202 0.99525 0.38616 0.0
H196 H 0.09875 0.02901 0.5744 0.0
H197 H 0.10527 0.90167 0.49973 0.0
Co198 Co 0.83372 0.50829 0.02588 0.0
C199 C 0.83239 0.44849 0.95523 0.0
C200 C 0.8148 0.51548 0.95104 0.0
C201 C 0.81288 0.48897 0.91783 0.0
N202 N 0.82711 0.49029 0.97436 0.0
N203 N 0.82391 0.44674 0.92041 0.0
H204 H 0.84208 0.41982 0.96675 0.0
H205 H 0.80728 0.54998 0.95803 0.0
C206 C 0.83864 0.62226 0.02557 0.0
O207 O 0.85363 0.61899 0.04889 0.0
N208 N 0.83992 0.52607 0.07809 0.0
C209 C 0.85295 0.50393 0.10181 0.0
C210 C 0.85233 0.52704 0.13633 0.0
C211 C 0.83108 0.56126 0.09917 0.0
N212 N 0.83866 0.56336 0.13467 0.0
C213 C 0.87093 0.46371 0.02479 0.0
C214 C 0.88904 0.54141 0.98833 0.0
C215 C 0.90002 0.50068 1.00293 0.0
C216 C 0.89051 0.46049 0.01982 0.0
C217 C 0.86928 0.54268 0.99345 0.0
N218 N 0.86072 0.50595 1.01407 0.0
H219 H 0.86413 0.43228 0.03824 0.0
H220 H 0.86106 0.57335 0.98083 0.0
H221 H 0.86222 0.47269 0.09521 0.0
H222 H 0.81937 0.58498 0.08865 0.0
O223 O 0.8304 0.43845 0.04062 0.0
O224 O 0.80755 0.49714 0.03885 0.0
O225 O 0.83061 0.58221 1.01235 0.0
C226 C 0.81261 0.45031 0.04559 0.0
H227 H 0.80351 0.49921 0.89412 0.0
H228 H 0.86154 0.51829 0.16059 0.0
H229 H 0.89566 0.57263 0.97395 0.0
H230 H 0.89817 0.4269 0.0297 0.0
Co231 Co 0.17228 0.50672 0.03272 0.0
C232 C 0.17128 0.44714 0.10329 0.0
C233 C 0.18343 0.52122 0.1123 0.0
C234 C 0.18408 0.49532 0.14589 0.0
N235 N 0.17533 0.4911 0.08569 0.0
N236 N 0.17647 0.44866 0.14029 0.0
H237 H 0.16479 0.41476 0.08914 0.0
H238 H 0.18893 0.55893 0.10746 0.0
C239 C 0.15567 0.61272 0.03414 0.0
O240 O 0.1429 0.60142 1.00744 0.0
N241 N 0.16994 0.52233 0.97893 0.0
C242 C 0.1671 0.48861 0.95073 0.0
C243 C 0.1681 0.5132 0.91689 0.0
C244 C 0.17374 0.56668 0.9613 0.0
N245 N 0.17221 0.56248 0.9234 0.0
C246 C 0.13659 0.45625 1.01248 0.0
C247 C 0.11446 0.51504 0.05826 0.0
C248 C 0.10538 0.4833 0.03163 0.0
C249 C 0.11667 0.45168 1.00984 0.0
C250 C 0.13436 0.51795 0.06014 0.0
N251 N 0.14506 0.49224 0.03505 0.0
H252 H 0.14511 0.43122 0.9961 0.0
H253 H 0.14113 0.54263 0.08087 0.0
H254 H 0.16542 0.44815 0.95396 0.0
H255 H 0.17827 0.60094 0.97575 0.0
O256 O 0.18207 0.43987 0.02129 0.0
O257 O 0.19958 0.50957 0.02961 0.0
O258 O 0.16804 0.58006 0.04597 0.0
C259 C 0.19892 0.46111 0.02262 0.0
H260 H 0.1903 0.50934 0.17214 0.0
H261 H 0.16607 0.49571 0.88958 0.0
H262 H 0.10623 0.53823 0.07692 0.0
H263 H 0.11018 0.42515 0.98995 0.0
H264 H 0.3168 0.45393 0.32726 0.0
H265 H 0.31772 0.38801 0.27934 0.0
H266 H 0.32168 0.27304 0.36549 0.0
H267 H 0.31999 0.33874 0.41375 0.0
H268 H 0.34495 0.31771 0.26498 0.0
H269 H 0.27764 0.22024 0.29941 0.0
H270 H 0.28405 0.28182 0.3182 0.0
H271 H 0.29451 0.22507 0.33851 0.0
C272 C 0.31761 0.41467 0.33619 0.0
C273 C 0.31809 0.40192 0.37461 0.0
C274 C 0.31827 0.37692 0.30863 0.0
C275 C 0.3194 0.32538 0.31865 0.0
C276 C 0.32035 0.31243 0.35694 0.0
H277 H 0.33029 0.04247 0.19755 0.0
H278 H 0.32752 0.11015 0.24386 0.0
C279 C 0.31964 0.35022 0.3846 0.0
C280 C 0.31992 0.28552 0.28895 0.0
H281 H 0.29718 0.17885 0.25555 0.0
C282 C 0.33443 0.28754 0.26279 0.0
C283 C 0.30615 0.24618 0.28592 0.0
C284 C 0.28959 0.24332 0.31176 0.0
C285 C 0.33583 0.25076 0.23438 0.0
C286 C 0.3222 0.21113 0.23165 0.0
C287 C 0.30762 0.20923 0.25763 0.0
C288 C 0.32326 0.1702 0.20294 0.0
C289 C 0.3522 0.25381 0.20812 0.0
C290 C 0.32142 0.18118 0.16437 0.0
C291 C 0.32306 0.1424 0.13766 0.0
C292 C 0.3266 0.09184 0.14902 0.0
C293 C 0.32793 0.08098 0.18771 0.0
C294 C 0.32622 0.11964 0.2143 0.0
H295 H 0.36369 0.2796 0.21896 0.0
H296 H 0.35849 0.2156 0.20353 0.0
H297 H 0.34679 0.26865 0.18055 0.0
H298 H 0.3188 0.2198 0.15489 0.0
H299 H 0.322 0.15223 0.10818 0.0
H300 H 0.65178 0.94616 0.21312 0.0
H301 H 0.65467 0.88145 0.26214 0.0
H302 H 0.64909 0.7638 0.17833 0.0
H303 H 0.64615 0.82846 0.12903 0.0
H304 H 0.62838 0.8093 0.28014 0.0
H305 H 0.69595 0.71624 0.24019 0.0
H306 H 0.68826 0.77705 0.22146 0.0
H307 H 0.67799 0.71932 0.20284 0.0
C308 C 0.65114 0.90656 0.20502 0.0
C309 C 0.64868 0.89265 0.16701 0.0
C310 C 0.6529 0.86954 0.23313 0.0
C311 C 0.65234 0.81768 0.22399 0.0
C312 C 0.65001 0.80353 0.18608 0.0
H313 H 0.64982 0.53733 0.35097 0.0
H314 H 0.65043 0.60346 0.30301 0.0
C315 C 0.6483 0.84061 0.15786 0.0
C316 C 0.65327 0.77871 0.25435 0.0
H317 H 0.67833 0.67484 0.28702 0.0
C318 C 0.63939 0.78011 0.28179 0.0
C319 C 0.66761 0.74055 0.2565 0.0
C320 C 0.68341 0.73831 0.22891 0.0
C321 C 0.63919 0.74386 0.31075 0.0
C322 C 0.65347 0.70555 0.31281 0.0
C323 C 0.66741 0.70424 0.28548 0.0
C324 C 0.6538 0.66555 0.3424 0.0
C325 C 0.62334 0.74603 0.33827 0.0
C326 C 0.65586 0.67823 0.38063 0.0
C327 C 0.65537 0.64039 0.40828 0.0
C328 C 0.65287 0.589 0.39825 0.0
C329 C 0.65138 0.57645 0.35985 0.0
C330 C 0.65187 0.61425 0.3323 0.0
H331 H 0.61107 0.76957 0.32756 0.0
H332 H 0.61804 0.70733 0.34456 0.0
H333 H 0.62892 0.76321 0.36491 0.0
H334 H 0.65772 0.71748 0.38912 0.0
H335 H 0.65651 0.65159 0.43747 0.0
H336 H 0.33557 0.64462 0.62109 0.0
H337 H 0.33383 0.70873 0.6708 0.0
H338 H 0.29887 0.60749 0.73403 0.0
H339 H 0.301 0.54328 0.6846 0.0
H340 H 0.30555 0.76 0.70013 0.0
H341 H 0.3395 0.64069 0.81204 0.0
H342 H 0.33897 0.62224 0.76332 0.0
H343 H 0.31848 0.61148 0.79137 0.0
C344 C 0.32731 0.63656 0.64535 0.0
C345 C 0.31839 0.58917 0.64892 0.0
C346 C 0.32643 0.67295 0.67393 0.0
C347 C 0.31657 0.66268 0.70671 0.0
C348 C 0.30709 0.61588 0.70969 0.0
H349 H 0.27997 0.89397 0.86378 0.0
H350 H 0.28225 0.83062 0.81401 0.0
C351 C 0.30819 0.5793 0.68132 0.0
C352 C 0.31607 0.70104 0.73751 0.0
H353 H 0.3245 0.71715 0.8319 0.0
C354 C 0.30979 0.75064 0.7289 0.0
C355 C 0.32197 0.68938 0.77505 0.0
C356 C 0.3303 0.63822 0.78596 0.0
C357 C 0.30887 0.7884 0.75671 0.0
C358 C 0.31379 0.77596 0.79458 0.0
C359 C 0.32045 0.72667 0.80306 0.0
C360 C 0.31222 0.81349 0.82574 0.0
C361 C 0.30304 0.84153 0.74491 0.0
C362 C 0.32802 0.82347 0.85028 0.0
C363 C 0.32661 0.85908 0.87931 0.0
C364 C 0.30941 0.88569 0.88427 0.0
C365 C 0.29352 0.87486 0.8602 0.0
C366 C 0.29485 0.8388 0.83157 0.0
H367 H 0.30586 0.84852 0.7149 0.0
H368 H 0.28744 0.84648 0.74845 0.0
H369 H 0.31079 0.87062 0.76214 0.0
H370 H 0.34155 0.80426 0.84663 0.0
H371 H 0.33911 0.86675 0.89728 0.0
H372 H 0.65153 0.33852 0.63416 0.0
H373 H 0.64743 0.27613 0.684 0.0
H374 H 0.67479 0.37779 0.76409 0.0
H375 H 0.67838 0.44105 0.71474 0.0
H376 H 0.6757 0.22909 0.72819 0.0
H377 H 0.62676 0.33736 0.81766 0.0
H378 H 0.6312 0.35572 0.77001 0.0
H379 H 0.64832 0.37059 0.80731 0.0
C380 C 0.65638 0.34813 0.66244 0.0
C381 C 0.66524 0.39515 0.67028 0.0
C382 C 0.65414 0.31217 0.69092 0.0
C383 C 0.66056 0.32243 0.72797 0.0
C384 C 0.66937 0.36928 0.73593 0.0
H385 H 0.66513 0.14141 0.93444 0.0
H386 H 0.66782 0.209 0.88754 0.0
C387 C 0.67163 0.40525 0.70749 0.0
C388 C 0.65879 0.28325 0.75784 0.0
H389 H 0.63963 0.26048 0.84307 0.0
C390 C 0.66774 0.23591 0.75321 0.0
C391 C 0.64851 0.2922 0.79068 0.0
C392 C 0.63799 0.34153 0.79669 0.0
C393 C 0.66687 0.19756 0.78057 0.0
C394 C 0.65645 0.2063 0.81324 0.0
C395 C 0.64763 0.25378 0.81807 0.0
C396 C 0.6542 0.16612 0.84219 0.0
C397 C 0.67743 0.14828 0.77452 0.0
C398 C 0.64524 0.12002 0.83262 0.0
C399 C 0.64364 0.08146 0.85932 0.0
C400 C 0.65087 0.0881 0.89641 0.0
C401 C 0.65934 0.13498 0.90626 0.0
C402 C 0.66095 0.17361 0.87942 0.0
H403 H 0.68885 0.15276 0.75397 0.0
H404 H 0.684 0.13369 0.80128 0.0
H405 H 0.66719 0.1194 0.7633 0.0
H406 H 0.63945 0.1138 0.80438 0.0
H407 H 0.63663 0.04648 0.85085 0.0
H408 H 0.83704 0.04528 0.717 0.0
H409 H 0.83453 0.11236 0.76358 0.0
H410 H 0.81816 0.2191 0.67625 0.0
H411 H 0.8205 0.15188 0.62932 0.0
H412 H 0.85551 0.20006 0.76849 0.0
H413 H 0.77807 0.2463 0.7533 0.0
H414 H 0.78819 0.18939 0.73377 0.0
H415 H 0.79049 0.2494 0.71024 0.0
C416 C 0.8329 0.0829 0.70746 0.0
C417 C 0.8293 0.09306 0.669 0.0
C418 C 0.83139 0.1213 0.73431 0.0
C419 C 0.82609 0.17086 0.72359 0.0
C420 C 0.82199 0.18102 0.6854 0.0
H421 H 0.81784 0.45646 0.84504 0.0
H422 H 0.81876 0.38945 0.79779 0.0
C423 C 0.82343 0.14247 0.65846 0.0
C424 C 0.82583 0.21206 0.7523 0.0
H425 H 0.79719 0.30128 0.79183 0.0
C426 C 0.84273 0.22203 0.77369 0.0
C427 C 0.80918 0.24091 0.75907 0.0
C428 C 0.79039 0.23078 0.73816 0.0
C429 C 0.84351 0.26034 0.80121 0.0
C430 C 0.82684 0.28906 0.80809 0.0
C431 C 0.80996 0.27926 0.78661 0.0
C432 C 0.82665 0.32973 0.83718 0.0
C433 C 0.86231 0.2705 0.82207 0.0
C434 C 0.83071 0.31862 0.87524 0.0
C435 C 0.83014 0.35699 0.90249 0.0
C436 C 0.82534 0.4073 0.8923 0.0
C437 C 0.82135 0.41818 0.8541 0.0
C438 C 0.82193 0.37987 0.82694 0.0
H439 H 0.87463 0.25495 0.80693 0.0
H440 H 0.86452 0.3119 0.8264 0.0
H441 H 0.86223 0.25197 0.85002 0.0
H442 H 0.834 0.28005 0.884 0.0
H443 H 0.833 0.34693 0.93159 0.0
H444 H 0.18057 0.55068 0.8499 0.0
H445 H 0.18089 0.61641 0.80168 0.0
H446 H 0.16842 0.73018 0.88422 0.0
H447 H 0.16781 0.66441 0.93264 0.0
H448 H 0.15025 0.68192 0.78007 0.0
H449 H 0.21422 0.7906 0.83039 0.0
H450 H 0.20934 0.72698 0.84639 0.0
H451 H 0.19661 0.78019 0.86496 0.0
C452 C 0.17786 0.58957 0.858 0.0
C453 C 0.17403 0.60199 0.89543 0.0
C454 C 0.17814 0.62722 0.83029 0.0
C455 C 0.17482 0.6783 0.8393 0.0
C456 C 0.17135 0.69113 0.87666 0.0
H457 H 0.16691 0.95901 0.71125 0.0
H458 H 0.16734 0.89311 0.75958 0.0
C459 C 0.17102 0.65342 0.90442 0.0
C460 C 0.17416 0.71764 0.80924 0.0
H461 H 0.19555 0.82659 0.78016 0.0
C462 C 0.1602 0.71346 0.77997 0.0
C463 C 0.1871 0.75886 0.80922 0.0
C464 C 0.20279 0.76443 0.83921 0.0
C465 C 0.1586 0.74984 0.75108 0.0
C466 C 0.1716 0.791 0.75092 0.0
C467 C 0.18558 0.79509 0.78021 0.0
C468 C 0.17084 0.83064 0.72098 0.0
C469 C 0.14264 0.74453 0.7216 0.0
C470 C 0.17272 0.81769 0.68304 0.0
C471 C 0.17241 0.85543 0.65523 0.0
C472 C 0.17049 0.90702 0.66485 0.0
C473 C 0.16862 0.91978 0.70286 0.0
C474 C 0.16881 0.88208 0.73056 0.0
H475 H 0.13093 0.72003 0.73143 0.0
H476 H 0.13652 0.78219 0.71357 0.0
H477 H 0.14838 0.72666 0.69618 0.0
H478 H 0.17477 0.77844 0.67495 0.0
H479 H 0.1742 0.84433 0.62636 0.0
H480 H 0.82943 0.8322 0.43609 0.0
H481 H 0.8327 0.76917 0.38609 0.0
H482 H 0.81684 0.88277 0.30333 0.0
H483 H 0.81422 0.94607 0.35267 0.0
H484 H 0.80512 0.73526 0.3338 0.0
H485 H 0.86521 0.82406 0.26116 0.0
H486 H 0.85867 0.84291 0.30761 0.0
H487 H 0.84536 0.86639 0.26697 0.0
C488 C 0.82693 0.844 0.40724 0.0
C489 C 0.82154 0.89442 0.39859 0.0
C490 C 0.82867 0.8078 0.37866 0.0
C491 C 0.82526 0.82131 0.34084 0.0
C492 C 0.8199 0.87153 0.33217 0.0
H493 H 0.82488 0.65976 0.12673 0.0
H494 H 0.82026 0.72194 0.17684 0.0
C495 C 0.81817 0.90765 0.36061 0.0
C496 C 0.82666 0.78276 0.31044 0.0
H497 H 0.84894 0.75682 0.22887 0.0
C498 C 0.81479 0.73981 0.311 0.0
C499 C 0.83922 0.78877 0.28051 0.0
C500 C 0.85297 0.83276 0.2791 0.0
C501 C 0.81489 0.70325 0.2822 0.0
C502 C 0.82739 0.70937 0.25225 0.0
C503 C 0.83926 0.75231 0.25167 0.0
C504 C 0.82894 0.67078 0.22196 0.0
C505 C 0.80134 0.65886 0.2837 0.0
C506 C 0.83527 0.62132 0.23059 0.0
C507 C 0.83789 0.58579 0.20206 0.0
C508 C 0.83431 0.59888 0.16413 0.0
C509 C 0.82759 0.6482 0.15558 0.0
C510 C 0.82506 0.68389 0.1842 0.0
H511 H 0.78929 0.66672 0.30231 0.0
H512 H 0.79537 0.64928 0.25526 0.0
H513 H 0.80923 0.62513 0.29495 0.0
H514 H 0.83864 0.61047 0.25941 0.0
H515 H 0.84291 0.5481 0.20974 0.0
H516 H 0.17102 0.15766 0.43068 0.0
H517 H 0.17347 0.22361 0.3829 0.0
H518 H 0.16954 0.10961 0.29623 0.0
H519 H 0.16684 0.04364 0.34358 0.0
H520 H 0.19913 0.23958 0.32718 0.0
H521 H 0.12656 0.20613 0.2636 0.0
H522 H 0.13432 0.17944 0.30829 0.0
H523 H 0.14143 0.15036 0.26534 0.0
C524 C 0.17063 0.14641 0.40157 0.0
C525 C 0.16814 0.09508 0.39129 0.0
C526 C 0.17207 0.18432 0.37417 0.0
C527 C 0.17112 0.17181 0.33585 0.0
C528 C 0.16964 0.12048 0.32553 0.0
H529 H 0.17455 0.34649 0.12791 0.0
H530 H 0.17353 0.2792 0.17527 0.0
C531 C 0.1681 0.08264 0.35283 0.0
C532 C 0.17167 0.2123 0.30666 0.0
H533 H 0.14654 0.26236 0.23099 0.0
C534 C 0.18759 0.24469 0.30626 0.0
C535 C 0.15661 0.21903 0.27928 0.0
C536 C 0.13867 0.18725 0.27924 0.0
C537 C 0.18902 0.28294 0.27891 0.0
C538 C 0.17399 0.28955 0.25152 0.0
C539 C 0.15809 0.25714 0.25187 0.0
C540 C 0.17432 0.3305 0.2227 0.0
C541 C 0.2068 0.31533 0.27914 0.0
C542 C 0.17466 0.38177 0.2335 0.0
C543 C 0.1751 0.42033 0.2065 0.0
C544 C 0.17516 0.4086 0.16796 0.0
C545 C 0.17439 0.35712 0.15719 0.0
C546 C 0.17392 0.31852 0.18429 0.0
H547 H 0.21892 0.29715 0.29526 0.0
H548 H 0.21128 0.32282 0.25012 0.0
H549 H 0.20375 0.35238 0.29254 0.0
H550 H 0.17447 0.39205 0.26289 0.0
H551 H 0.17526 0.4594 0.21593 0.0
H552 H 0.55498 0.96484 0.04932 0.0
H553 H 0.5209 0.94852 0.03785 0.0
H554 H 0.534 0.84229 0.95034 0.0
H555 H 0.56841 0.85863 0.96173 0.0
H556 H 0.50295 0.96685 0.96349 0.0
H557 H 0.49311 0.77001 1.01722 0.0
H558 H 0.51291 0.80928 0.03347 0.0
H559 H 0.51271 0.78269 0.98721 0.0
C560 C 0.55063 0.93764 0.02786 0.0
C561 C 0.56427 0.9134 1.00611 0.0
C562 C 0.53119 0.92825 0.02143 0.0
C563 C 0.52501 0.89433 0.99325 0.0
C564 C 0.53857 0.86828 0.97244 0.0
H565 H 0.40299 0.92389 0.92542 0.0
H566 H 0.43727 0.90702 0.91939 0.0
C567 C 0.55815 0.87759 0.97898 0.0
C568 C 0.50428 0.89008 0.9842 0.0
H569 H 0.46538 0.81501 0.99711 0.0
C570 C 0.4947 0.93341 0.97018 0.0
C571 C 0.49373 0.84638 0.99316 0.0
C572 C 0.50351 0.79931 1.00875 0.0
C573 C 0.47468 0.93523 0.96662 0.0
C574 C 0.46401 0.89206 0.97669 0.0
C575 C 0.47365 0.84785 0.98918 0.0
C576 C 0.44293 0.89456 0.9788 0.0
C577 C 0.46513 0.98442 0.95436 0.0
C578 C 0.43469 0.89098 1.01391 0.0
C579 C 0.41519 0.90038 1.01741 0.0
C580 C 0.40356 0.91358 0.98581 0.0
C581 C 0.41167 0.9147 0.95034 0.0
C582 C 0.4312 0.90495 0.94684 0.0
H583 H 0.47537 0.01665 0.95435 0.0
H584 H 0.45893 0.98003 0.92543 0.0
H585 H 0.45333 0.99426 0.97304 0.0
H586 H 0.44351 0.88317 0.03893 0.0
H587 H 0.4094 0.89959 0.04514 0.0
H588 H 0.40915 0.44623 0.57345 0.0
H589 H 0.44408 0.44081 0.57965 0.0
H590 H 0.44757 0.44828 0.45934 0.0
H591 H 0.41255 0.45283 0.45276 0.0
H592 H 0.47263 0.37205 0.49945 0.0
H593 H 0.47771 0.56871 0.55651 0.0
H594 H 0.46147 0.52658 0.57893 0.0
H595 H 0.4566 0.54567 0.53117 0.0
C596 C 0.41732 0.44582 0.54825 0.0
C597 C 0.4081 0.45021 0.5126 0.0
C598 C 0.43726 0.44309 0.55189 0.0
C599 C 0.44833 0.44467 0.51998 0.0
C600 C 0.43921 0.4472 0.48428 0.0
H601 H 0.56616 0.52231 0.49414 0.0
H602 H 0.53141 0.51307 0.49056 0.0
C603 C 0.41925 0.45015 0.4806 0.0
C604 C 0.46944 0.44622 0.52393 0.0
H605 H 0.50652 0.5223 0.55327 0.0
C606 C 0.48009 0.40473 0.51133 0.0
C607 C 0.47902 0.48918 0.53915 0.0
C608 C 0.46819 0.53533 0.55201 0.0
C609 C 0.50021 0.40509 0.51368 0.0
C610 C 0.50976 0.44795 0.52913 0.0
C611 C 0.49909 0.48939 0.54168 0.0
C612 C 0.53088 0.45181 0.53094 0.0
C613 C 0.51112 0.3603 0.49888 0.0
C614 C 0.54205 0.42045 0.555 0.0
C615 C 0.56196 0.42599 0.55747 0.0
C616 C 0.57099 0.46313 0.53599 0.0
C617 C 0.55968 0.49405 0.51166 0.0
C618 C 0.53982 0.4886 0.50933 0.0
H619 H 0.50172 0.33423 0.48205 0.0
H620 H 0.52289 0.37341 0.48123 0.0
H621 H 0.51765 0.33855 0.52282 0.0
H622 H 0.53533 0.39231 0.57229 0.0
H623 H 0.57024 0.40193 0.57672 0.0
H624 H 0.07627 0.95076 0.47281 0.0
H625 H 0.04127 0.94698 0.46825 0.0
H626 H 0.03933 0.961 0.58859 0.0
H627 H 0.07433 0.96582 0.59322 0.0
H628 H 0.01532 0.88275 0.49695 0.0
H629 H 0.00506 0.07681 0.55356 0.0
H630 H 0.02811 0.05354 0.5401 0.0
H631 H 0.01894 0.03656 0.58488 0.0
C632 C 0.06837 0.95256 0.49831 0.0
C633 C 0.07799 0.95902 0.53335 0.0
C634 C 0.04839 0.95057 0.49566 0.0
C635 C 0.03768 0.95485 0.52799 0.0
C636 C 0.04729 0.95913 0.56317 0.0
H637 H 0.91798 0.94247 0.57564 0.0
H638 H 0.95296 0.938 0.57658 0.0
C639 C 0.06727 0.96166 0.56581 0.0
C640 C 0.01647 0.95541 0.52481 0.0
H641 H 0.97717 0.02549 0.54638 0.0
C642 C 0.00698 0.91409 0.50754 0.0
C643 C 0.00562 0.99661 0.53834 0.0
C644 C 0.01494 0.04362 0.5549 0.0
C645 C 0.9869 0.91233 0.50432 0.0
C646 C 0.97614 0.95287 0.51872 0.0
C647 C 0.98557 0.99437 0.53561 0.0
C648 C 0.95501 0.95263 0.51722 0.0
C649 C 0.97724 0.86689 0.48623 0.0
C650 C 0.94468 0.96231 0.48344 0.0
C651 C 0.92468 0.96504 0.48279 0.0
C652 C 0.91474 0.95784 0.51592 0.0
C653 C 0.92521 0.94745 0.54957 0.0
C654 C 0.94517 0.94514 0.55023 0.0
H655 H 0.98757 0.83603 0.48021 0.0
H656 H 0.96617 0.85172 0.50471 0.0
H657 H 0.9699 0.8787 0.45945 0.0
H658 H 0.95212 0.96857 0.45776 0.0
H659 H 0.91699 0.97283 0.45644 0.0
H660 H 0.92308 0.53378 0.94681 0.0
H661 H 0.95818 0.53354 0.94751 0.0
H662 H 0.95988 0.46517 0.05757 0.0
H663 H 0.92515 0.46785 0.05805 0.0
H664 H 0.98416 0.54288 0.05412 0.0
H665 H 0.99375 0.41332 0.93324 0.0
H666 H 0.97939 0.46864 0.9227 0.0
H667 H 0.971 0.42167 0.95472 0.0
C668 C 0.93095 0.51901 0.97123 0.0
C669 C 0.92126 0.50032 1.0022 0.0
C670 C 0.95099 0.51827 0.97137 0.0
C671 C 0.96162 0.49844 1.00231 0.0
C672 C 0.95197 0.48023 0.03326 0.0
H673 H 0.08023 0.40373 0.02569 0.0
H674 H 0.04524 0.40868 1.01702 0.0
C675 C 0.93206 0.48135 0.0333 0.0
C676 C 0.98282 0.49799 1.0036 0.0
H677 H 0.02185 0.44944 0.9612 0.0
C678 C 0.99241 0.52253 0.03375 0.0
C679 C 0.9935 0.47085 0.97726 0.0
C680 C 0.98393 0.4417 0.94532 0.0
C681 C 0.01238 0.52028 0.03859 0.0
C682 C 0.02311 0.49408 1.01183 0.0
C683 C 0.01356 0.46975 0.98151 0.0
C684 C 0.04426 0.49094 1.01531 0.0
C685 C 0.02168 0.54462 0.07302 0.0
C686 C 0.05525 0.53543 1.01648 0.0
C687 C 0.07509 0.53267 0.02192 0.0
C688 C 0.08434 0.48532 0.02561 0.0
C689 C 0.07341 0.44066 0.02304 0.0
C690 C 0.05349 0.44348 1.01805 0.0
H691 H 0.01133 0.54997 0.09557 0.0
H692 H 0.03388 0.52137 0.08434 0.0
H693 H 0.02718 0.58265 0.06546 0.0
H694 H 0.04847 0.57236 1.01336 0.0
H695 H 0.08324 0.56763 0.02291 0.0
H696 H 0.20272 0.35813 1.01614 0.0
H697 H 0.23253 0.30953 1.01221 0.0
H698 H 0.26492 0.44878 1.01483 0.0
H699 H 0.23522 0.49772 1.01865 0.0
H700 H 0.27611 0.37521 0.95923 0.0
H701 H 0.27211 0.29418 0.10234 0.0
H702 H 0.25057 0.28626 0.07376 0.0
H703 H 0.25831 0.34908 0.08695 0.0
C704 C 0.21617 0.37839 1.01566 0.0
C705 C 0.21666 0.43165 1.01793 0.0
C706 C 0.23317 0.35063 1.01361 0.0
C707 C 0.25088 0.37568 1.01378 0.0
C708 C 0.25138 0.42887 1.01488 0.0
H709 H 0.34807 0.17276 0.05327 0.0
H710 H 0.33175 0.25527 0.0524 0.0
C711 C 0.2344 0.45666 1.01712 0.0
C712 C 0.26885 0.34604 1.0133 0.0
H713 H 0.29382 0.25403 0.06155 0.0
C714 C 0.2802 0.3492 0.98179 0.0
C715 C 0.27438 0.31328 0.04321 0.0
C716 C 0.26333 0.31073 0.07868 0.0
C717 C 0.29629 0.31766 0.97832 0.0
C718 C 0.3009 0.28191 1.00693 0.0
C719 C 0.29027 0.28136 0.03954 0.0
C720 C 0.31468 0.23988 1.00173 0.0
C721 C 0.30788 0.32208 0.94371 0.0
C722 C 0.31113 0.20492 0.97262 0.0
C723 C 0.3204 0.15794 0.97306 0.0
C724 C 0.3333 0.14499 1.00276 0.0
C725 C 0.33828 0.18185 0.0299 0.0
C726 C 0.3289 0.22891 0.02953 0.0
H727 H 0.30736 0.36146 0.93243 0.0
H728 H 0.32307 0.31114 0.94955 0.0
H729 H 0.30174 0.29654 0.92162 0.0
H730 H 0.29996 0.21199 0.9513 0.0
H731 H 0.31632 0.13022 0.95177 0.0
H732 H 0.81295 0.64697 0.96924 0.0
H733 H 0.79013 0.71723 0.96866 0.0
H734 H 0.81752 0.77731 0.06962 0.0
H735 H 0.84045 0.70657 0.0705 0.0
H736 H 0.77901 0.75746 0.07627 0.0
H737 H 0.78974 0.86943 0.94747 0.0
H738 H 0.78853 0.80243 0.93836 0.0
H739 H 0.80789 0.82734 0.96755 0.0
C740 C 0.8145 0.67595 0.99071 0.0
C741 C 0.82839 0.67104 0.02009 0.0
C742 C 0.8015 0.71633 0.9902 0.0
C743 C 0.80218 0.75267 0.01897 0.0
C744 C 0.81684 0.74978 0.04702 0.0
H745 H 0.71322 0.98768 0.02961 0.0
H746 H 0.74439 0.94487 0.02927 0.0
C747 C 0.82998 0.70948 0.04739 0.0
C748 C 0.78596 0.78848 0.02255 0.0
H749 H 0.75842 0.87522 0.9736 0.0
C750 C 0.7747 0.78391 0.05413 0.0
C751 C 0.78038 0.82303 0.99372 0.0
C752 C 0.79238 0.83127 0.96004 0.0
C753 C 0.75752 0.8111 0.05679 0.0
C754 C 0.75136 0.84324 0.0269 0.0
C755 C 0.76307 0.8499 0.99621 0.0
C756 C 0.73253 0.8691 0.02665 0.0
C757 C 0.74593 0.80467 0.09128 0.0
C758 C 0.71557 0.84059 0.02472 0.0
C759 C 0.69775 0.86492 0.02486 0.0
C760 C 0.69666 0.91812 0.02702 0.0
C761 C 0.71366 0.94659 0.02841 0.0
C762 C 0.73146 0.92226 0.02805 0.0
H763 H 0.75472 0.78896 0.11523 0.0
H764 H 0.73964 0.8415 0.09988 0.0
H765 H 0.734 0.7779 0.08491 0.0
H766 H 0.71613 0.79949 0.02307 0.0
H767 H 0.68487 0.84211 0.02362 0.0
H768 H 0.15991 0.64673 0.10559 0.0
H769 H 0.17446 0.72736 0.12504 0.0
H770 H 0.17516 0.77356 1.00873 0.0
H771 H 0.1587 0.69585 0.99027 0.0
H772 H 0.20754 0.74271 0.11303 0.0
H773 H 0.17231 0.90895 0.04978 0.0
H774 H 0.1599 0.84907 0.05232 0.0
H775 H 0.17402 0.86426 1.01236 0.0
C776 C 0.16223 0.67563 0.08459 0.0
C777 C 0.15841 0.66539 0.04646 0.0
C778 C 0.17067 0.72154 0.09561 0.0
C779 C 0.17616 0.75688 0.06847 0.0
C780 C 0.17073 0.74815 0.03058 0.0
H781 H 0.28666 0.84914 0.03829 0.0
H782 H 0.25675 0.80907 0.0547 0.0
C783 C 0.1615 0.7032 0.01981 0.0
C784 C 0.19104 0.79559 0.07815 0.0
H785 H 0.20826 0.90856 0.04728 0.0
C786 C 0.2073 0.77971 0.09962 0.0
C787 C 0.1909 0.84476 0.06198 0.0
C788 C 0.17318 0.86772 0.04327 0.0
C789 C 0.22397 0.80902 0.10183 0.0
C790 C 0.22478 0.85413 0.08046 0.0
C791 C 0.20793 0.87292 0.06255 0.0
C792 C 0.24327 0.87881 0.07282 0.0
C793 C 0.24071 0.7902 0.12611 0.0
C794 C 0.24548 0.93164 0.07618 0.0
C795 C 0.26243 0.95479 0.06569 0.0
C796 C 0.27748 0.92538 0.05203 0.0
C797 C 0.27539 0.87255 0.04928 0.0
C798 C 0.25834 0.8496 0.05901 0.0
H799 H 0.23563 0.77067 0.15148 0.0
H800 H 0.24898 0.76196 0.11019 0.0
H801 H 0.25036 0.82168 0.13518 0.0
H802 H 0.23402 0.95501 0.08645 0.0
H803 H 0.26372 0.9957 0.06806 0.0
H804 H 0.6641 0.18406 0.05382 0.0
H805 H 0.69066 0.24371 0.06257 0.0
H806 H 0.73012 0.11824 0.07753 0.0
H807 H 0.70367 0.0583 0.06866 0.0
H808 H 0.71893 0.25644 0.12226 0.0
H809 H 0.75013 0.1981 0.98754 0.0
H810 H 0.72612 0.18133 0.99956 0.0
H811 H 0.74627 0.14764 0.02034 0.0
C812 C 0.67841 0.16916 0.05926 0.0
C813 C 0.68189 0.11653 0.05984 0.0
C814 C 0.69353 0.20326 0.06433 0.0
C815 C 0.71231 0.18521 0.07008 0.0
C816 C 0.71573 0.13275 0.0724 0.0
H817 H 0.81952 0.35048 0.06143 0.0
H818 H 0.79593 0.28478 0.07385 0.0
C819 C 0.70063 0.09863 0.0672 0.0
C820 C 0.72838 0.22139 0.07162 0.0
H821 H 0.76671 0.26036 0.02299 0.0
C822 C 0.72947 0.25724 0.10073 0.0
C823 C 0.74203 0.2221 0.04341 0.0
C824 C 0.74109 0.18557 1.01074 0.0
C825 C 0.7439 0.29419 0.10226 0.0
C826 C 0.75729 0.29553 0.07361 0.0
C827 C 0.75643 0.25897 0.04499 0.0
C828 C 0.77168 0.33619 0.0712 0.0
C829 C 0.74469 0.33138 0.13447 0.0
C830 C 0.76581 0.38682 0.06593 0.0
C831 C 0.77923 0.42442 0.05883 0.0
C832 C 0.79869 0.41177 0.05657 0.0
C833 C 0.8046 0.3613 0.06295 0.0
C834 C 0.79117 0.32377 0.0701 0.0
H835 H 0.73732 0.31632 0.15917 0.0
H836 H 0.75973 0.34057 0.14309 0.0
H837 H 0.73738 0.36714 0.12555 0.0
H838 H 0.75077 0.39694 0.06582 0.0
H839 H 0.77427 0.463 0.05393 0.0
H840 H 0.1985 0.8578 0.53437 0.0
H841 H 0.22822 0.81008 0.52755 0.0
H842 H 0.25378 0.94104 0.4766 0.0
H843 H 0.22441 0.98982 0.48577 0.0
H844 H 0.24555 0.78158 0.46995 0.0
H845 H 0.29543 0.90757 0.55068 0.0
H846 H 0.26984 0.91642 0.55008 0.0
H847 H 0.28352 0.93914 0.51175 0.0
C848 C 0.21051 0.87634 0.52183 0.0
C849 C 0.20928 0.92738 0.51073 0.0
C850 C 0.22749 0.84915 0.51796 0.0
C851 C 0.24344 0.87218 0.50218 0.0
C852 C 0.24198 0.92288 0.49002 0.0
H853 H 0.32823 0.64537 0.44346 0.0
H854 H 0.30909 0.72299 0.43519 0.0
C855 C 0.22513 0.95055 0.49488 0.0
C856 C 0.26123 0.84206 0.49757 0.0
H857 H 0.30933 0.83843 0.51895 0.0
C858 C 0.2595 0.79408 0.48067 0.0
C859 C 0.27944 0.85828 0.51171 0.0
C860 C 0.28218 0.90793 0.5324 0.0
C861 C 0.27515 0.76093 0.47892 0.0
C862 C 0.29348 0.77745 0.49231 0.0
C863 C 0.29538 0.82616 0.50808 0.0
C864 C 0.31017 0.74226 0.49428 0.0
C865 C 0.27147 0.70746 0.46494 0.0
C866 C 0.31926 0.73143 0.52924 0.0
C867 C 0.3311 0.68875 0.53351 0.0
C868 C 0.33347 0.65575 0.50318 0.0
C869 C 0.32641 0.67015 0.46733 0.0
C870 C 0.31523 0.71397 0.46275 0.0
H871 H 0.25603 0.69748 0.46519 0.0
H872 H 0.27597 0.70417 0.43555 0.0
H873 H 0.27958 0.67914 0.48239 0.0
H874 H 0.31588 0.75317 0.55393 0.0
H875 H 0.33654 0.67859 0.56131 0.0
H876 H 0.68929 0.34199 0.53781 0.0
H877 H 0.71892 0.29282 0.53288 0.0
H878 H 0.74337 0.41466 0.46943 0.0
H879 H 0.71425 0.46504 0.47657 0.0
H880 H 0.73778 0.25472 0.47976 0.0
H881 H 0.78421 0.40032 0.54847 0.0
H882 H 0.75849 0.40579 0.54608 0.0
H883 H 0.77227 0.42375 0.50653 0.0
C884 C 0.70096 0.35789 0.52253 0.0
C885 C 0.69965 0.40722 0.5078 0.0
C886 C 0.7179 0.32997 0.51982 0.0
C887 C 0.73364 0.35064 0.50173 0.0
C888 C 0.73177 0.39868 0.48481 0.0
H889 H 0.82504 0.13436 0.45987 0.0
H890 H 0.80223 0.20381 0.44802 0.0
C891 C 0.71505 0.42715 0.48846 0.0
C892 C 0.75196 0.32188 0.50098 0.0
H893 H 0.79997 0.32936 0.52252 0.0
C894 C 0.75137 0.27107 0.48913 0.0
C895 C 0.76969 0.34301 0.51373 0.0
C896 C 0.77121 0.39601 0.52979 0.0
C897 C 0.76784 0.24046 0.49034 0.0
C898 C 0.78571 0.26208 0.50175 0.0
C899 C 0.78637 0.31313 0.51307 0.0
C900 C 0.80342 0.23082 0.50542 0.0
C901 C 0.76559 0.18463 0.48127 0.0
C902 C 0.81344 0.22718 0.5403 0.0
C903 C 0.82724 0.1892 0.54651 0.0
C904 C 0.83073 0.1537 0.51826 0.0
C905 C 0.82239 0.1611 0.4822 0.0
C906 C 0.80913 0.20018 0.47561 0.0
H907 H 0.75052 0.17194 0.48346 0.0
H908 H 0.76977 0.17769 0.45201 0.0
H909 H 0.77476 0.16079 0.50042 0.0
H910 H 0.80955 0.251 0.5636 0.0
H911 H 0.83368 0.18448 0.5744 0.0
H912 H 0.15763 0.14981 0.59488 0.0
H913 H 0.17483 0.22943 0.60572 0.0
H914 H 0.16976 0.26205 0.48693 0.0
H915 H 0.15067 0.18567 0.47719 0.0
H916 H 0.20737 0.23605 0.58425 0.0
H917 H 0.17115 0.40204 0.5209 0.0
H918 H 0.15833 0.344 0.52928 0.0
H919 H 0.17069 0.35302 0.48619 0.0
C920 C 0.15929 0.17565 0.57156 0.0
C921 C 0.15316 0.16164 0.53512 0.0
C922 C 0.16926 0.22094 0.57764 0.0
C923 C 0.17393 0.25183 0.54714 0.0
C924 C 0.16614 0.23995 0.51122 0.0
H925 H 0.28665 0.3529 0.51142 0.0
H926 H 0.2567 0.30827 0.52172 0.0
C927 C 0.15539 0.19577 0.50548 0.0
C928 C 0.18988 0.28897 0.5514 0.0
H929 H 0.20642 0.4008 0.51685 0.0
C930 C 0.20686 0.27271 0.57032 0.0
C931 C 0.18946 0.33734 0.53395 0.0
C932 C 0.1713 0.36016 0.51688 0.0
C933 C 0.2236 0.3017 0.57024 0.0
C934 C 0.22375 0.34701 0.54894 0.0
C935 C 0.20651 0.36523 0.53224 0.0
C936 C 0.2418 0.37451 0.54224 0.0
C937 C 0.24095 0.28296 0.59283 0.0
C938 C 0.24314 0.42703 0.5486 0.0
C939 C 0.26007 0.45282 0.5416 0.0
C940 C 0.276 0.42636 0.52856 0.0
C941 C 0.27466 0.37395 0.52204 0.0
C942 C 0.25759 0.34841 0.52821 0.0
H943 H 0.23665 0.26103 0.61776 0.0
H944 H 0.24938 0.25701 0.57527 0.0
H945 H 0.25026 0.31482 0.60256 0.0
H946 H 0.23113 0.44805 0.55917 0.0
H947 H 0.26078 0.49334 0.54685 0.0
H948 H 0.67224 0.62769 0.64031 0.0
H949 H 0.6942 0.69989 0.64286 0.0
H950 H 0.67884 0.7355 0.52739 0.0
H951 H 0.65746 0.66226 0.52438 0.0
H952 H 0.71595 0.71702 0.53703 0.0
H953 H 0.69444 0.85318 0.64623 0.0
H954 H 0.69601 0.78889 0.66293 0.0
H955 H 0.67836 0.8055 0.62687 0.0
C956 C 0.67295 0.65227 0.61602 0.0
C957 C 0.66326 0.63946 0.5821 0.0
C958 C 0.68551 0.69359 0.6175 0.0
C959 C 0.68818 0.72314 0.58531 0.0
C960 C 0.67704 0.71314 0.55253 0.0
H961 H 0.76574 0.97409 0.55499 0.0
H962 H 0.73801 0.92057 0.56587 0.0
C963 C 0.66478 0.67146 0.55086 0.0
C964 C 0.70469 0.75818 0.5836 0.0
H965 H 0.72656 0.86047 0.62551 0.0
C966 C 0.71815 0.74866 0.55621 0.0
C967 C 0.70758 0.79935 0.60864 0.0
C968 C 0.69323 0.81271 0.6376 0.0
C969 C 0.73443 0.77897 0.55316 0.0
C970 C 0.73768 0.81909 0.57896 0.0
C971 C 0.72415 0.82912 0.60616 0.0
C972 C 0.75465 0.85228 0.57675 0.0
C973 C 0.74779 0.76828 0.52181 0.0
C974 C 0.77323 0.83187 0.58034 0.0
C975 C 0.78912 0.86224 0.57376 0.0
C976 C 0.78666 0.91361 0.56394 0.0
C977 C 0.7681 0.93453 0.56231 0.0
C978 C 0.75223 0.90409 0.56865 0.0
H979 H 0.74078 0.74512 0.49916 0.0
H980 H 0.75294 0.80416 0.50933 0.0
H981 H 0.76041 0.74672 0.53314 0.0
H982 H 0.77539 0.79212 0.58728 0.0
H983 H 0.80326 0.84522 0.57558 0.0
loop_
_geom_bond_atom_site_label_1
_geom_bond_atom_site_label_2
_geom_bond_distance
_geom_bond_site_symmetry_2
_ccdc_geom_bond_type
Co0 N4 2.148 1_554 S
Co0 N10 2.128 1_565 S
Co0 N20 2.194 . S
Co0 O25 2.351 . S
Co0 O26 2.155 . S
Co0 O27 2.096 1_564 S
C1 N4 1.301 . S
C1 N5 1.328 . S
C1 H6 0.930 . S
C2 C3 1.333 1_545 S
C2 N4 1.317 1_545 S
C2 H7 0.930 . S
C3 C2 1.333 1_565 S
C3 N5 1.350 . S
C3 H29 0.931 . S
N4 Co0 2.148 1_556 S
N4 C1 1.301 . S
N4 C2 1.317 1_565 S
N5 C1 1.328 . S
N5 C3 1.350 . S
H6 C1 0.930 . S
H7 C2 0.930 . S
C8 O9 1.224 . S
C8 O27 1.247 . S
O9 C8 1.224 . S
N10 Co0 2.128 1_545 S
N10 C11 1.355 . S
N10 C13 1.311 . S
C11 N10 1.355 . S
C11 C12 1.363 . S
C11 H23 0.929 1_545 S
C12 C11 1.363 . S
C12 N14 1.375 . S
C12 H30 0.931 . S
C13 N10 1.311 . S
C13 N14 1.347 . S
C13 H24 0.929 . S
N14 C12 1.375 . S
N14 C13 1.347 . S
C15 C18 1.365 . S
C15 N20 1.328 . S
C15 H21 0.929 . S
C16 C17 1.362 1_556 S
C16 C19 1.378 . S
C16 H31 0.929 . S
C17 C16 1.362 1_554 S
C17 C18 1.366 1_545 S
C18 C15 1.365 . S
C18 C17 1.366 1_565 S
C18 H32 0.930 . S
C19 C16 1.378 . S
C19 N20 1.315 1_546 S
C19 H22 0.930 . S
N20 Co0 2.194 . S
N20 C15 1.328 . S
N20 C19 1.315 1_564 S
H21 C15 0.929 . S
H22 C19 0.930 . S
H23 C11 0.929 1_565 S
H24 C13 0.929 . S
O25 Co0 2.351 . S
O25 C28 1.244 . S
O26 Co0 2.155 . S
O26 C28 1.240 . S
O27 Co0 2.096 1_546 S
O27 C8 1.247 . S
C28 O25 1.244 . S
C28 O26 1.240 . S
H29 C3 0.931 . S
H30 C12 0.931 . S
H31 C16 0.929 . S
H32 C18 0.930 . S
Co33 N37 2.148 . S
Co33 N43 2.128 1_564 S
Co33 N53 2.194 . S
Co33 O58 2.351 1_554 S
Co33 O59 2.155 1_554 S
Co33 O60 2.096 1_565 S
C34 N37 1.301 . S
C34 N38 1.328 . S
C34 H39 0.930 . S
C35 C36 1.333 1_545 S
C35 N37 1.317 1_545 S
C35 H40 0.930 . S
C36 C35 1.333 1_565 S
C36 N38 1.350 . S
C36 H62 0.931 . S
N37 Co33 2.148 . S
N37 C34 1.301 . S
N37 C35 1.317 1_565 S
N38 C34 1.328 . S
N38 C36 1.350 . S
H39 C34 0.930 . S
H40 C35 0.930 . S
C41 O42 1.224 . S
C41 O60 1.247 . S
O42 C41 1.224 . S
N43 Co33 2.128 1_546 S
N43 C44 1.355 . S
N43 C46 1.311 . S
C44 N43 1.355 . S
C44 C45 1.363 . S
C44 H56 0.929 1_545 S
C45 C44 1.363 . S
C45 N47 1.375 . S
C45 H63 0.931 . S
C46 N43 1.311 . S
C46 N47 1.347 . S
C46 H57 0.929 . S
N47 C45 1.375 . S
N47 C46 1.347 . S
C48 C51 1.365 . S
C48 N53 1.328 . S
C48 H54 0.929 . S
C49 C50 1.362 . S
C49 C52 1.378 . S
C49 H64 0.929 . S
C50 C49 1.362 . S
C50 C51 1.366 1_545 S
C51 C48 1.365 . S
C51 C50 1.366 1_565 S
C51 H65 0.930 . S
C52 C49 1.378 . S
C52 N53 1.315 1_545 S
C52 H55 0.930 . S
N53 Co33 2.194 . S
N53 C48 1.328 . S
N53 C52 1.315 1_565 S
H54 C48 0.929 . S
H55 C52 0.930 . S
H56 C44 0.929 1_565 S
H57 C46 0.929 . S
O58 Co33 2.351 1_556 S
O58 C61 1.244 . S
O59 Co33 2.155 1_556 S
O59 C61 1.240 . S
O60 Co33 2.096 1_545 S
O60 C41 1.247 . S
C61 O58 1.244 . S
C61 O59 1.240 . S
H62 C36 0.931 . S
H63 C45 0.931 . S
H64 C49 0.929 . S
H65 C51 0.930 . S
Co66 N70 2.148 . S
Co66 N76 2.128 . S
Co66 N86 2.194 . S
Co66 O91 2.351 . S
Co66 O92 2.155 . S
Co66 O93 2.096 . S
C67 N70 1.301 . S
C67 N71 1.328 . S
C67 H72 0.930 . S
C68 C69 1.333 . S
C68 N70 1.317 . S
C68 H73 0.930 . S
C69 C68 1.333 . S
C69 N71 1.350 . S
C69 H95 0.931 . S
N70 Co66 2.148 . S
N70 C67 1.301 . S
N70 C68 1.317 . S
N71 C67 1.328 . S
N71 C69 1.350 . S
H72 C67 0.930 . S
H73 C68 0.930 . S
C74 O75 1.224 . S
C74 O93 1.247 . S
O75 C74 1.224 . S
N76 Co66 2.128 . S
N76 C77 1.355 . S
N76 C79 1.311 . S
C77 N76 1.355 . S
C77 C78 1.363 . S
C77 H89 0.929 . S
C78 C77 1.363 . S
C78 N80 1.375 . S
C78 H96 0.931 . S
C79 N76 1.311 . S
C79 N80 1.347 . S
C79 H90 0.929 . S
N80 C78 1.375 . S
N80 C79 1.347 . S
C81 C84 1.365 . S
C81 N86 1.328 . S
C81 H87 0.929 . S
C82 C83 1.362 . S
C82 C85 1.378 . S
C82 H97 0.929 . S
C83 C82 1.362 . S
C83 C84 1.366 . S
C84 C81 1.365 . S
C84 C83 1.366 . S
C84 H98 0.930 . S
C85 C82 1.378 . S
C85 N86 1.315 . S
C85 H88 0.930 . S
N86 Co66 2.194 . S
N86 C81 1.328 . S
N86 C85 1.315 . S
H87 C81 0.929 . S
H88 C85 0.930 . S
H89 C77 0.929 . S
H90 C79 0.929 . S
O91 Co66 2.351 . S
O91 C94 1.244 . S
O92 Co66 2.155 . S
O92 C94 1.240 . S
O93 Co66 2.096 . S
O93 C74 1.247 . S
C94 O91 1.244 . S
C94 O92 1.240 . S
H95 C69 0.931 . S
H96 C78 0.931 . S
H97 C82 0.929 . S
H98 C84 0.930 . S
Co99 N103 2.148 . S
Co99 N109 2.128 . S
Co99 N119 2.194 . S
Co99 O124 2.351 . S
Co99 O125 2.155 . S
Co99 O126 2.096 . S
C100 N103 1.301 . S
C100 N104 1.328 . S
C100 H105 0.930 . S
C101 C102 1.333 . S
C101 N103 1.317 . S
C101 H106 0.930 . S
C102 C101 1.333 . S
C102 N104 1.350 . S
C102 H128 0.931 . S
N103 Co99 2.148 . S
N103 C100 1.301 . S
N103 C101 1.317 . S
N104 C100 1.328 . S
N104 C102 1.350 . S
H105 C100 0.930 . S
H106 C101 0.930 . S
C107 O108 1.224 . S
C107 O126 1.247 . S
O108 C107 1.224 . S
N109 Co99 2.128 . S
N109 C110 1.355 . S
N109 C112 1.311 . S
C110 N109 1.355 . S
C110 C111 1.363 . S
C110 H122 0.929 . S
C111 C110 1.363 . S
C111 N113 1.375 . S
C111 H129 0.931 . S
C112 N109 1.311 . S
C112 N113 1.347 . S
C112 H123 0.929 . S
N113 C111 1.375 . S
N113 C112 1.347 . S
C114 C117 1.365 . S
C114 N119 1.328 . S
C114 H120 0.929 . S
C115 C116 1.362 . S
C115 C118 1.378 . S
C115 H130 0.929 . S
C116 C115 1.362 . S
C116 C117 1.366 . S
C117 C114 1.365 . S
C117 C116 1.366 . S
C117 H131 0.930 . S
C118 C115 1.378 . S
C118 N119 1.315 . S
C118 H121 0.930 . S
N119 Co99 2.194 . S
N119 C114 1.328 . S
N119 C118 1.315 . S
H120 C114 0.929 . S
H121 C118 0.930 . S
H122 C110 0.929 . S
H123 C112 0.929 . S
O124 Co99 2.351 . S
O124 C127 1.244 . S
O125 Co99 2.155 . S
O125 C127 1.240 . S
O126 Co99 2.096 . S
O126 C107 1.247 . S
C127 O124 1.244 . S
C127 O125 1.240 . S
H128 C102 0.931 . S
H129 C111 0.931 . S
H130 C115 0.929 . S
H131 C117 0.930 . S
Co132 N136 2.148 . S
Co132 N142 2.128 1_565 S
Co132 N152 2.194 . S
Co132 O157 2.351 . S
Co132 O158 2.155 . S
Co132 O159 2.096 1_565 S
C133 N136 1.301 . S
C133 N137 1.328 . S
C133 H138 0.930 . S
C134 C135 1.333 1_545 S
C134 N136 1.317 1_545 S
C134 H139 0.930 . S
C135 C134 1.333 1_565 S
C135 N137 1.350 . S
C135 H161 0.931 . S
N136 Co132 2.148 . S
N136 C133 1.301 . S
N136 C134 1.317 1_565 S
N137 C133 1.328 . S
N137 C135 1.350 . S
H138 C133 0.930 . S
H139 C134 0.930 . S
C140 O141 1.224 . S
C140 O159 1.247 . S
O141 C140 1.224 . S
N142 Co132 2.128 1_545 S
N142 C143 1.355 . S
N142 C145 1.311 . S
C143 N142 1.355 . S
C143 C144 1.363 . S
C143 H155 0.929 1_545 S
C144 C143 1.363 . S
C144 N146 1.375 . S
C144 H162 0.931 . S
C145 N142 1.311 . S
C145 N146 1.347 . S
C145 H156 0.929 . S
N146 C144 1.375 . S
N146 C145 1.347 . S
C147 C150 1.365 . S
C147 N152 1.328 . S
C147 H153 0.929 . S
C148 C149 1.362 . S
C148 C151 1.378 . S
C148 H163 0.929 . S
C149 C148 1.362 . S
C149 C150 1.366 1_545 S
C150 C147 1.365 . S
C150 C149 1.366 1_565 S
C150 H164 0.930 . S
C151 C148 1.378 . S
C151 N152 1.315 1_545 S
C151 H154 0.930 . S
N152 Co132 2.194 . S
N152 C147 1.328 . S
N152 C151 1.315 1_565 S
H153 C147 0.929 . S
H154 C151 0.930 . S
H155 C143 0.929 1_565 S
H156 C145 0.929 . S
O157 Co132 2.351 . S
O157 C160 1.244 . S
O158 Co132 2.155 . S
O158 C160 1.240 . S
O159 Co132 2.096 1_545 S
O159 C140 1.247 . S
C160 O157 1.244 . S
C160 O158 1.240 . S
H161 C135 0.931 . S
H162 C144 0.931 . S
H163 C148 0.929 . S
H164 C150 0.930 . S
Co165 N169 2.148 . S
Co165 N175 2.128 1_565 S
Co165 N185 2.194 . S
Co165 O190 2.351 . S
Co165 O191 2.155 . S
Co165 O192 2.096 1_565 S
C166 N169 1.301 . S
C166 N170 1.328 . S
C166 H171 0.930 . S
C167 C168 1.333 1_545 S
C167 N169 1.317 1_545 S
C167 H172 0.930 . S
C168 C167 1.333 1_565 S
C168 N170 1.350 . S
C168 H194 0.931 . S
N169 Co165 2.148 . S
N169 C166 1.301 . S
N169 C167 1.317 1_565 S
N170 C166 1.328 . S
N170 C168 1.350 . S
H171 C166 0.930 . S
H172 C167 0.930 . S
C173 O174 1.224 . S
C173 O192 1.247 . S
O174 C173 1.224 . S
N175 Co165 2.128 1_545 S
N175 C176 1.355 . S
N175 C178 1.311 . S
C176 N175 1.355 . S
C176 C177 1.363 . S
C176 H188 0.929 1_545 S
C177 C176 1.363 . S
C177 N179 1.375 . S
C177 H195 0.931 . S
C178 N175 1.311 . S
C178 N179 1.347 . S
C178 H189 0.929 . S
N179 C177 1.375 . S
N179 C178 1.347 . S
C180 C183 1.365 . S
C180 N185 1.328 . S
C180 H186 0.929 . S
C181 C182 1.362 . S
C181 C184 1.378 . S
C181 H196 0.929 . S
C182 C181 1.362 . S
C182 C183 1.366 1_545 S
C183 C180 1.365 . S
C183 C182 1.366 1_565 S
C183 H197 0.930 . S
C184 C181 1.378 . S
C184 N185 1.315 1_545 S
C184 H187 0.930 . S
N185 Co165 2.194 . S
N185 C180 1.328 . S
N185 C184 1.315 1_565 S
H186 C180 0.929 . S
H187 C184 0.930 . S
H188 C176 0.929 1_565 S
H189 C178 0.929 . S
O190 Co165 2.351 . S
O190 C193 1.244 . S
O191 Co165 2.155 . S
O191 C193 1.240 . S
O192 Co165 2.096 1_545 S
O192 C173 1.247 . S
C193 O190 1.244 . S
C193 O191 1.240 . S
H194 C168 0.931 . S
H195 C177 0.931 . S
H196 C181 0.929 . S
H197 C183 0.930 . S
Co198 N202 2.148 1_554 S
Co198 N208 2.128 . S
Co198 N218 2.194 . S
Co198 O223 2.351 . S
Co198 O224 2.155 . S
Co198 O225 2.096 1_554 S
C199 N202 1.301 . S
C199 N203 1.328 . S
C199 H204 0.930 . S
C200 C201 1.333 . S
C200 N202 1.317 . S
C200 H205 0.930 . S
C201 C200 1.333 . S
C201 N203 1.350 . S
C201 H227 0.931 . S
N202 Co198 2.148 1_556 S
N202 C199 1.301 . S
N202 C200 1.317 . S
N203 C199 1.328 . S
N203 C201 1.350 . S
H204 C199 0.930 . S
H205 C200 0.930 . S
C206 O207 1.224 . S
C206 O225 1.247 . S
O207 C206 1.224 . S
N208 Co198 2.128 . S
N208 C209 1.355 . S
N208 C211 1.311 . S
C209 N208 1.355 . S
C209 C210 1.363 . S
C209 H221 0.929 . S
C210 C209 1.363 . S
C210 N212 1.375 . S
C210 H228 0.931 . S
C211 N208 1.311 . S
C211 N212 1.347 . S
C211 H222 0.929 . S
N212 C210 1.375 . S
N212 C211 1.347 . S
C213 C216 1.365 . S
C213 N218 1.328 . S
C213 H219 0.929 . S
C214 C215 1.362 1_556 S
C214 C217 1.378 . S
C214 H229 0.929 . S
C215 C214 1.362 1_554 S
C215 C216 1.366 . S
C216 C213 1.365 . S
C216 C215 1.366 . S
C216 H230 0.930 . S
C217 C214 1.378 . S
C217 N218 1.315 1_556 S
C217 H220 0.930 . S
N218 Co198 2.194 . S
N218 C213 1.328 . S
N218 C217 1.315 1_554 S
H219 C213 0.929 . S
H220 C217 0.930 . S
H221 C209 0.929 . S
H222 C211 0.929 . S
O223 Co198 2.351 . S
O223 C226 1.244 . S
O224 Co198 2.155 . S
O224 C226 1.240 . S
O225 Co198 2.096 1_556 S
O225 C206 1.247 . S
C226 O223 1.244 . S
C226 O224 1.240 . S
H227 C201 0.931 . S
H228 C210 0.931 . S
H229 C214 0.929 . S
H230 C216 0.930 . S
Co231 N235 2.148 . S
Co231 N241 2.128 1_554 S
Co231 N251 2.194 . S
Co231 O256 2.351 1_554 S
Co231 O257 2.155 1_554 S
Co231 O258 2.096 . S
C232 N235 1.301 . S
C232 N236 1.328 . S
C232 H237 0.930 . S
C233 C234 1.333 . S
C233 N235 1.317 . S
C233 H238 0.930 . S
C234 C233 1.333 . S
C234 N236 1.350 . S
C234 H260 0.931 . S
N235 Co231 2.148 . S
N235 C232 1.301 . S
N235 C233 1.317 . S
N236 C232 1.328 . S
N236 C234 1.350 . S
H237 C232 0.930 . S
H238 C233 0.930 . S
C239 O240 1.224 . S
C239 O258 1.247 . S
O240 C239 1.224 . S
N241 Co231 2.128 1_556 S
N241 C242 1.355 . S
N241 C244 1.311 . S
C242 N241 1.355 . S
C242 C243 1.363 . S
C242 H254 0.929 . S
C243 C242 1.363 . S
C243 N245 1.375 . S
C243 H261 0.931 . S
C244 N241 1.311 . S
C244 N245 1.347 . S
C244 H255 0.929 . S
N245 C243 1.375 . S
N245 C244 1.347 . S
C246 C249 1.365 . S
C246 N251 1.328 . S
C246 H252 0.929 . S
C247 C248 1.362 . S
C247 C250 1.378 . S
C247 H262 0.929 . S
C248 C247 1.362 . S
C248 C249 1.366 . S
C249 C246 1.365 . S
C249 C248 1.366 . S
C249 H263 0.930 . S
C250 C247 1.378 . S
C250 N251 1.315 . S
C250 H253 0.930 . S
N251 Co231 2.194 . S
N251 C246 1.328 . S
N251 C250 1.315 . S
H252 C246 0.929 . S
H253 C250 0.930 . S
H254 C242 0.929 . S
H255 C244 0.929 . S
O256 Co231 2.351 1_556 S
O256 C259 1.244 . S
O257 Co231 2.155 1_556 S
O257 C259 1.240 . S
O258 Co231 2.096 . S
O258 C239 1.247 . S
C259 O256 1.244 . S
C259 O257 1.240 . S
H260 C234 0.931 . S
H261 C243 0.931 . S
H262 C247 0.929 . S
H263 C249 0.930 . S
H264 C272 0.929 . S
H265 C274 0.930 . S
H266 C276 0.930 . S
H267 C279 0.929 . S
H268 C282 0.930 . S
H269 C284 0.960 . S
H270 C284 0.960 . S
H271 C284 0.960 . S
C272 H264 0.929 . S
C272 C273 1.377 . S
C272 C274 1.384 . S
C273 C272 1.377 . S
C273 C279 1.390 . S
C274 H265 0.930 . S
C274 C272 1.384 . S
C274 C275 1.372 . S
C275 C274 1.372 . S
C275 C276 1.400 . S
C275 C280 1.490 . S
C276 H266 0.930 . S
C276 C275 1.400 . S
C276 C279 1.386 . S
H277 C293 0.930 . S
H278 C294 0.931 . S
C279 H267 0.929 . S
C279 C273 1.390 . S
C279 C276 1.386 . S
C280 C275 1.490 . S
C280 C282 1.395 . S
C280 C283 1.403 . S
H281 C287 0.930 . S
C282 H268 0.930 . S
C282 C280 1.395 . S
C282 C285 1.403 . S
C283 C280 1.403 . S
C283 C284 1.524 . S
C283 C287 1.400 . S
C284 H269 0.960 . S
C284 H270 0.960 . S
C284 H271 0.960 . S
C284 C283 1.524 . S
C285 C282 1.403 . S
C285 C286 1.392 . S
C285 C289 1.495 . S
C286 C285 1.392 . S
C286 C287 1.385 . S
C286 C288 1.478 . S
C287 H281 0.930 . S
C287 C283 1.400 . S
C287 C286 1.385 . S
C288 C286 1.478 . S
C288 C290 1.381 . S
C288 C294 1.383 . S
C289 C285 1.495 . S
C289 H295 0.959 . S
C289 H296 0.961 . S
C289 H297 0.960 . S
C290 C288 1.381 . S
C290 C291 1.394 . S
C290 H298 0.930 . S
C291 C290 1.394 . S
C291 C292 1.383 . S
C291 H299 0.929 . S
C292 C291 1.383 . S
C292 C293 1.377 . S
C293 H277 0.930 . S
C293 C292 1.377 . S
C293 C294 1.379 . S
C294 H278 0.931 . S
C294 C288 1.383 . S
C294 C293 1.379 . S
H295 C289 0.959 . S
H296 C289 0.961 . S
H297 C289 0.960 . S
H298 C290 0.930 . S
H299 C291 0.929 . S
H300 C308 0.929 . S
H301 C310 0.930 . S
H302 C312 0.930 . S
H303 C315 0.929 . S
H304 C318 0.930 . S
H305 C320 0.960 . S
H306 C320 0.960 . S
H307 C320 0.960 . S
C308 H300 0.929 . S
C308 C309 1.377 . S
C308 C310 1.384 . S
C309 C308 1.377 . S
C309 C315 1.390 . S
C310 H301 0.930 . S
C310 C308 1.384 . S
C310 C311 1.372 . S
C311 C310 1.372 . S
C311 C312 1.400 . S
C311 C316 1.490 . S
C312 H302 0.930 . S
C312 C311 1.400 . S
C312 C315 1.386 . S
H313 C329 0.930 . S
H314 C330 0.931 . S
C315 H303 0.929 . S
C315 C309 1.390 . S
C315 C312 1.386 . S
C316 C311 1.490 . S
C316 C318 1.395 . S
C316 C319 1.403 . S
H317 C323 0.930 . S
C318 H304 0.930 . S
C318 C316 1.395 . S
C318 C321 1.403 . S
C319 C316 1.403 . S
C319 C320 1.524 . S
C319 C323 1.400 . S
C320 H305 0.960 . S
C320 H306 0.960 . S
C320 H307 0.960 . S
C320 C319 1.524 . S
C321 C318 1.403 . S
C321 C322 1.392 . S
C321 C325 1.495 . S
C322 C321 1.392 . S
C322 C323 1.385 . S
C322 C324 1.478 . S
C323 H317 0.930 . S
C323 C319 1.400 . S
C323 C322 1.385 . S
C324 C322 1.478 . S
C324 C326 1.381 . S
C324 C330 1.383 . S
C325 C321 1.495 . S
C325 H331 0.959 . S
C325 H332 0.961 . S
C325 H333 0.960 . S
C326 C324 1.381 . S
C326 C327 1.394 . S
C326 H334 0.930 . S
C327 C326 1.394 . S
C327 C328 1.383 . S
C327 H335 0.929 . S
C328 C327 1.383 . S
C328 C329 1.377 . S
C329 H313 0.930 . S
C329 C328 1.377 . S
C329 C330 1.379 . S
C330 H314 0.931 . S
C330 C324 1.383 . S
C330 C329 1.379 . S
H331 C325 0.959 . S
H332 C325 0.961 . S
H333 C325 0.960 . S
H334 C326 0.930 . S
H335 C327 0.929 . S
H336 C344 0.929 . S
H337 C346 0.930 . S
H338 C348 0.930 . S
H339 C351 0.929 . S
H340 C354 0.930 . S
H341 C356 0.960 . S
H342 C356 0.960 . S
H343 C356 0.960 . S
C344 H336 0.929 . S
C344 C345 1.377 . S
C344 C346 1.384 . S
C345 C344 1.377 . S
C345 C351 1.390 . S
C346 H337 0.930 . S
C346 C344 1.384 . S
C346 C347 1.372 . S
C347 C346 1.372 . S
C347 C348 1.400 . S
C347 C352 1.490 . S
C348 H338 0.930 . S
C348 C347 1.400 . S
C348 C351 1.386 . S
H349 C365 0.930 . S
H350 C366 0.931 . S
C351 H339 0.929 . S
C351 C345 1.390 . S
C351 C348 1.386 . S
C352 C347 1.490 . S
C352 C354 1.395 . S
C352 C355 1.403 . S
H353 C359 0.930 . S
C354 H340 0.930 . S
C354 C352 1.395 . S
C354 C357 1.403 . S
C355 C352 1.403 . S
C355 C356 1.524 . S
C355 C359 1.400 . S
C356 H341 0.960 . S
C356 H342 0.960 . S
C356 H343 0.960 . S
C356 C355 1.524 . S
C357 C354 1.403 . S
C357 C358 1.392 . S
C357 C361 1.495 . S
C358 C357 1.392 . S
C358 C359 1.385 . S
C358 C360 1.478 . S
C359 H353 0.930 . S
C359 C355 1.400 . S
C359 C358 1.385 . S
C360 C358 1.478 . S
C360 C362 1.381 . S
C360 C366 1.383 . S
C361 C357 1.495 . S
C361 H367 0.959 . S
C361 H368 0.961 . S
C361 H369 0.960 . S
C362 C360 1.381 . S
C362 C363 1.394 . S
C362 H370 0.930 . S
C363 C362 1.394 . S
C363 C364 1.383 . S
C363 H371 0.929 . S
C364 C363 1.383 . S
C364 C365 1.377 . S
C365 H349 0.930 . S
C365 C364 1.377 . S
C365 C366 1.379 . S
C366 H350 0.931 . S
C366 C360 1.383 . S
C366 C365 1.379 . S
H367 C361 0.959 . S
H368 C361 0.961 . S
H369 C361 0.960 . S
H370 C362 0.930 . S
H371 C363 0.929 . S
H372 C380 0.929 . S
H373 C382 0.930 . S
H374 C384 0.930 . S
H375 C387 0.929 . S
H376 C390 0.930 . S
H377 C392 0.960 . S
H378 C392 0.960 . S
H379 C392 0.960 . S
C380 H372 0.929 . S
C380 C381 1.377 . S
C380 C382 1.384 . S
C381 C380 1.377 . S
C381 C387 1.390 . S
C382 H373 0.930 . S
C382 C380 1.384 . S
C382 C383 1.372 . S
C383 C382 1.372 . S
C383 C384 1.400 . S
C383 C388 1.490 . S
C384 H374 0.930 . S
C384 C383 1.400 . S
C384 C387 1.386 . S
H385 C401 0.930 . S
H386 C402 0.931 . S
C387 H375 0.929 . S
C387 C381 1.390 . S
C387 C384 1.386 . S
C388 C383 1.490 . S
C388 C390 1.395 . S
C388 C391 1.403 . S
H389 C395 0.930 . S
C390 H376 0.930 . S
C390 C388 1.395 . S
C390 C393 1.403 . S
C391 C388 1.403 . S
C391 C392 1.524 . S
C391 C395 1.400 . S
C392 H377 0.960 . S
C392 H378 0.960 . S
C392 H379 0.960 . S
C392 C391 1.524 . S
C393 C390 1.403 . S
C393 C394 1.392 . S
C393 C397 1.495 . S
C394 C393 1.392 . S
C394 C395 1.385 . S
C394 C396 1.478 . S
C395 H389 0.930 . S
C395 C391 1.400 . S
C395 C394 1.385 . S
C396 C394 1.478 . S
C396 C398 1.381 . S
C396 C402 1.383 . S
C397 C393 1.495 . S
C397 H403 0.959 . S
C397 H404 0.961 . S
C397 H405 0.960 . S
C398 C396 1.381 . S
C398 C399 1.394 . S
C398 H406 0.930 . S
C399 C398 1.394 . S
C399 C400 1.383 . S
C399 H407 0.929 . S
C400 C399 1.383 . S
C400 C401 1.377 . S
C401 H385 0.930 . S
C401 C400 1.377 . S
C401 C402 1.379 . S
C402 H386 0.931 . S
C402 C396 1.383 . S
C402 C401 1.379 . S
H403 C397 0.959 . S
H404 C397 0.961 . S
H405 C397 0.960 . S
H406 C398 0.930 . S
H407 C399 0.929 . S
H408 C416 0.929 . S
H409 C418 0.930 . S
H410 C420 0.930 . S
H411 C423 0.929 . S
H412 C426 0.930 . S
H413 C428 0.960 . S
H414 C428 0.960 . S
H415 C428 0.960 . S
C416 H408 0.929 . S
C416 C417 1.377 . S
C416 C418 1.384 . S
C417 C416 1.377 . S
C417 C423 1.390 . S
C418 H409 0.930 . S
C418 C416 1.384 . S
C418 C419 1.372 . S
C419 C418 1.372 . S
C419 C420 1.400 . S
C419 C424 1.490 . S
C420 H410 0.930 . S
C420 C419 1.400 . S
C420 C423 1.386 . S
H421 C437 0.930 . S
H422 C438 0.931 . S
C423 H411 0.929 . S
C423 C417 1.390 . S
C423 C420 1.386 . S
C424 C419 1.490 . S
C424 C426 1.395 . S
C424 C427 1.403 . S
H425 C431 0.930 . S
C426 H412 0.930 . S
C426 C424 1.395 . S
C426 C429 1.403 . S
C427 C424 1.403 . S
C427 C428 1.524 . S
C427 C431 1.400 . S
C428 H413 0.960 . S
C428 H414 0.960 . S
C428 H415 0.960 . S
C428 C427 1.524 . S
C429 C426 1.403 . S
C429 C430 1.392 . S
C429 C433 1.495 . S
C430 C429 1.392 . S
C430 C431 1.385 . S
C430 C432 1.478 . S
C431 H425 0.930 . S
C431 C427 1.400 . S
C431 C430 1.385 . S
C432 C430 1.478 . S
C432 C434 1.381 . S
C432 C438 1.383 . S
C433 C429 1.495 . S
C433 H439 0.959 . S
C433 H440 0.961 . S
C433 H441 0.960 . S
C434 C432 1.381 . S
C434 C435 1.394 . S
C434 H442 0.930 . S
C435 C434 1.394 . S
C435 C436 1.383 . S
C435 H443 0.929 . S
C436 C435 1.383 . S
C436 C437 1.377 . S
C437 H421 0.930 . S
C437 C436 1.377 . S
C437 C438 1.379 . S
C438 H422 0.931 . S
C438 C432 1.383 . S
C438 C437 1.379 . S
H439 C433 0.959 . S
H440 C433 0.961 . S
H441 C433 0.960 . S
H442 C434 0.930 . S
H443 C435 0.929 . S
H444 C452 0.929 . S
H445 C454 0.930 . S
H446 C456 0.930 . S
H447 C459 0.929 . S
H448 C462 0.930 . S
H449 C464 0.960 . S
H450 C464 0.960 . S
H451 C464 0.960 . S
C452 H444 0.929 . S
C452 C453 1.377 . S
C452 C454 1.384 . S
C453 C452 1.377 . S
C453 C459 1.390 . S
C454 H445 0.930 . S
C454 C452 1.384 . S
C454 C455 1.372 . S
C455 C454 1.372 . S
C455 C456 1.400 . S
C455 C460 1.490 . S
C456 H446 0.930 . S
C456 C455 1.400 . S
C456 C459 1.386 . S
H457 C473 0.930 . S
H458 C474 0.931 . S
C459 H447 0.929 . S
C459 C453 1.390 . S
C459 C456 1.386 . S
C460 C455 1.490 . S
C460 C462 1.395 . S
C460 C463 1.403 . S
H461 C467 0.930 . S
C462 H448 0.930 . S
C462 C460 1.395 . S
C462 C465 1.403 . S
C463 C460 1.403 . S
C463 C464 1.524 . S
C463 C467 1.400 . S
C464 H449 0.960 . S
C464 H450 0.960 . S
C464 H451 0.960 . S
C464 C463 1.524 . S
C465 C462 1.403 . S
C465 C466 1.392 . S
C465 C469 1.495 . S
C466 C465 1.392 . S
C466 C467 1.385 . S
C466 C468 1.478 . S
C467 H461 0.930 . S
C467 C463 1.400 . S
C467 C466 1.385 . S
C468 C466 1.478 . S
C468 C470 1.381 . S
C468 C474 1.383 . S
C469 C465 1.495 . S
C469 H475 0.959 . S
C469 H476 0.961 . S
C469 H477 0.960 . S
C470 C468 1.381 . S
C470 C471 1.394 . S
C470 H478 0.930 . S
C471 C470 1.394 . S
C471 C472 1.383 . S
C471 H479 0.929 . S
C472 C471 1.383 . S
C472 C473 1.377 . S
C473 H457 0.930 . S
C473 C472 1.377 . S
C473 C474 1.379 . S
C474 H458 0.931 . S
C474 C468 1.383 . S
C474 C473 1.379 . S
H475 C469 0.959 . S
H476 C469 0.961 . S
H477 C469 0.960 . S
H478 C470 0.930 . S
H479 C471 0.929 . S
H480 C488 0.929 . S
H481 C490 0.930 . S
H482 C492 0.930 . S
H483 C495 0.929 . S
H484 C498 0.930 . S
H485 C500 0.960 . S
H486 C500 0.960 . S
H487 C500 0.960 . S
C488 H480 0.929 . S
C488 C489 1.377 . S
C488 C490 1.384 . S
C489 C488 1.377 . S
C489 C495 1.390 . S
C490 H481 0.930 . S
C490 C488 1.384 . S
C490 C491 1.372 . S
C491 C490 1.372 . S
C491 C492 1.400 . S
C491 C496 1.490 . S
C492 H482 0.930 . S
C492 C491 1.400 . S
C492 C495 1.386 . S
H493 C509 0.930 . S
H494 C510 0.931 . S
C495 H483 0.929 . S
C495 C489 1.390 . S
C495 C492 1.386 . S
C496 C491 1.490 . S
C496 C498 1.395 . S
C496 C499 1.403 . S
H497 C503 0.930 . S
C498 H484 0.930 . S
C498 C496 1.395 . S
C498 C501 1.403 . S
C499 C496 1.403 . S
C499 C500 1.524 . S
C499 C503 1.400 . S
C500 H485 0.960 . S
C500 H486 0.960 . S
C500 H487 0.960 . S
C500 C499 1.524 . S
C501 C498 1.403 . S
C501 C502 1.392 . S
C501 C505 1.495 . S
C502 C501 1.392 . S
C502 C503 1.385 . S
C502 C504 1.478 . S
C503 H497 0.930 . S
C503 C499 1.400 . S
C503 C502 1.385 . S
C504 C502 1.478 . S
C504 C506 1.381 . S
C504 C510 1.383 . S
C505 C501 1.495 . S
C505 H511 0.959 . S
C505 H512 0.961 . S
C505 H513 0.960 . S
C506 C504 1.381 . S
C506 C507 1.394 . S
C506 H514 0.930 . S
C507 C506 1.394 . S
C507 C508 1.383 . S
C507 H515 0.929 . S
C508 C507 1.383 . S
C508 C509 1.377 . S
C509 H493 0.930 . S
C509 C508 1.377 . S
C509 C510 1.379 . S
C510 H494 0.931 . S
C510 C504 1.383 . S
C510 C509 1.379 . S
H511 C505 0.959 . S
H512 C505 0.961 . S
H513 C505 0.960 . S
H514 C506 0.930 . S
H515 C507 0.929 . S
H516 C524 0.929 . S
H517 C526 0.930 . S
H518 C528 0.930 . S
H519 C531 0.929 . S
H520 C534 0.930 . S
H521 C536 0.960 . S
H522 C536 0.960 . S
H523 C536 0.960 . S
C524 H516 0.929 . S
C524 C525 1.377 . S
C524 C526 1.384 . S
C525 C524 1.377 . S
C525 C531 1.390 . S
C526 H517 0.930 . S
C526 C524 1.384 . S
C526 C527 1.372 . S
C527 C526 1.372 . S
C527 C528 1.400 . S
C527 C532 1.490 . S
C528 H518 0.930 . S
C528 C527 1.400 . S
C528 C531 1.386 . S
H529 C545 0.930 . S
H530 C546 0.931 . S
C531 H519 0.929 . S
C531 C525 1.390 . S
C531 C528 1.386 . S
C532 C527 1.490 . S
C532 C534 1.395 . S
C532 C535 1.403 . S
H533 C539 0.930 . S
C534 H520 0.930 . S
C534 C532 1.395 . S
C534 C537 1.403 . S
C535 C532 1.403 . S
C535 C536 1.524 . S
C535 C539 1.400 . S
C536 H521 0.960 . S
C536 H522 0.960 . S
C536 H523 0.960 . S
C536 C535 1.524 . S
C537 C534 1.403 . S
C537 C538 1.392 . S
C537 C541 1.495 . S
C538 C537 1.392 . S
C538 C539 1.385 . S
C538 C540 1.478 . S
C539 H533 0.930 . S
C539 C535 1.400 . S
C539 C538 1.385 . S
C540 C538 1.478 . S
C540 C542 1.381 . S
C540 C546 1.383 . S
C541 C537 1.495 . S
C541 H547 0.959 . S
C541 H548 0.961 . S
C541 H549 0.960 . S
C542 C540 1.381 . S
C542 C543 1.394 . S
C542 H550 0.930 . S
C543 C542 1.394 . S
C543 C544 1.383 . S
C543 H551 0.929 . S
C544 C543 1.383 . S
C544 C545 1.377 . S
C545 H529 0.930 . S
C545 C544 1.377 . S
C545 C546 1.379 . S
C546 H530 0.931 . S
C546 C540 1.383 . S
C546 C545 1.379 . S
H547 C541 0.959 . S
H548 C541 0.961 . S
H549 C541 0.960 . S
H550 C542 0.930 . S
H551 C543 0.929 . S
H552 C560 0.929 . S
H553 C562 0.930 . S
H554 C564 0.930 . S
H555 C567 0.929 . S
H556 C570 0.930 . S
H557 C572 0.960 . S
H558 C572 0.960 1_554 S
H559 C572 0.960 . S
C560 H552 0.929 . S
C560 C561 1.377 . S
C560 C562 1.384 . S
C561 C560 1.377 . S
C561 C567 1.390 1_544 S
C562 H553 0.930 . S
C562 C560 1.384 . S
C562 C563 1.372 . S
C563 C562 1.372 . S
C563 C564 1.400 1_544 S
C563 C568 1.490 . S
C564 H554 0.930 . S
C564 C563 1.400 1_566 S
C564 C567 1.386 . S
H565 C581 0.930 . S
H566 C582 0.931 . S
C567 H555 0.929 . S
C567 C561 1.390 1_566 S
C567 C564 1.386 . S
C568 C563 1.490 . S
C568 C570 1.395 . S
C568 C571 1.403 1_544 S
H569 C575 0.939 . S
C570 H556 0.930 . S
C570 C568 1.395 . S
C570 C573 1.403 . S
C571 C568 1.403 1_566 S
C571 C572 1.524 . S
C571 C575 1.401 . S
C572 H557 0.960 . S
C572 H558 0.960 1_556 S
C572 H559 0.960 . S
C572 C571 1.524 . S
C573 C570 1.403 . S
C573 C574 1.392 . S
C573 C577 1.495 . S
C574 C573 1.392 . S
C574 C575 1.376 1_544 S
C574 C576 1.478 . S
C575 H569 0.939 . S
C575 C571 1.401 . S
C575 C574 1.376 1_566 S
C576 C574 1.478 . S
C576 C578 1.381 . S
C576 C582 1.383 1_554 S
C577 C573 1.495 . S
C577 H583 0.959 . S
C577 H584 0.961 . S
C577 H585 0.960 . S
C578 C576 1.381 . S
C578 C579 1.394 . S
C578 H586 0.930 . S
C579 C578 1.394 . S
C579 C580 1.383 . S
C579 H587 0.929 . S
C580 C579 1.383 . S
C580 C581 1.377 1_554 S
C581 H565 0.930 . S
C581 C580 1.377 1_556 S
C581 C582 1.379 . S
C582 H566 0.931 . S
C582 C576 1.383 1_556 S
C582 C581 1.379 . S
H583 C577 0.959 . S
H584 C577 0.961 . S
H585 C577 0.960 . S
H586 C578 0.930 . S
H587 C579 0.929 . S
H588 C596 0.929 . S
H589 C598 0.930 . S
H590 C600 0.930 . S
H591 C603 0.929 . S
H592 C606 0.930 . S
H593 C608 0.960 . S
H594 C608 0.960 . S
H595 C608 0.960 . S
C596 H588 0.929 . S
C596 C597 1.377 . S
C596 C598 1.384 . S
C597 C596 1.377 . S
C597 C603 1.390 . S
C598 H589 0.930 . S
C598 C596 1.384 . S
C598 C599 1.372 . S
C599 C598 1.372 . S
C599 C600 1.400 . S
C599 C604 1.490 . S
C600 H590 0.930 . S
C600 C599 1.400 . S
C600 C603 1.386 . S
H601 C617 0.930 . S
H602 C618 0.931 . S
C603 H591 0.929 . S
C603 C597 1.390 . S
C603 C600 1.386 . S
C604 C599 1.490 . S
C604 C606 1.395 . S
C604 C607 1.403 . S
H605 C611 0.930 . S
C606 H592 0.930 . S
C606 C604 1.395 . S
C606 C609 1.403 . S
C607 C604 1.403 . S
C607 C608 1.524 . S
C607 C611 1.400 . S
C608 H593 0.960 . S
C608 H594 0.960 . S
C608 H595 0.960 . S
C608 C607 1.524 . S
C609 C606 1.403 . S
C609 C610 1.392 . S
C609 C613 1.495 . S
C610 C609 1.392 . S
C610 C611 1.385 . S
C610 C612 1.478 . S
C611 H605 0.930 . S
C611 C607 1.400 . S
C611 C610 1.385 . S
C612 C610 1.478 . S
C612 C614 1.381 . S
C612 C618 1.383 . S
C613 C609 1.495 . S
C613 H619 0.959 . S
C613 H620 0.961 . S
C613 H621 0.960 . S
C614 C612 1.381 . S
C614 C615 1.394 . S
C614 H622 0.930 . S
C615 C614 1.394 . S
C615 C616 1.383 . S
C615 H623 0.929 . S
C616 C615 1.383 . S
C616 C617 1.377 . S
C617 H601 0.930 . S
C617 C616 1.377 . S
C617 C618 1.379 . S
C618 H602 0.931 . S
C618 C612 1.383 . S
C618 C617 1.379 . S
H619 C613 0.959 . S
H620 C613 0.961 . S
H621 C613 0.960 . S
H622 C614 0.930 . S
H623 C615 0.929 . S
H624 C632 0.929 . S
H625 C634 0.930 . S
H626 C636 0.930 . S
H627 C639 0.929 . S
H628 C642 0.930 . S
H629 C644 0.960 . S
H630 C644 0.960 . S
H631 C644 0.960 . S
C632 H624 0.929 . S
C632 C633 1.377 . S
C632 C634 1.384 . S
C633 C632 1.377 . S
C633 C639 1.390 1_545 S
C634 H625 0.930 . S
C634 C632 1.384 . S
C634 C635 1.372 . S
C635 C634 1.372 . S
C635 C636 1.400 1_545 S
C635 C640 1.490 . S
C636 H626 0.930 . S
C636 C635 1.400 1_565 S
C636 C639 1.386 . S
H637 C653 0.930 . S
H638 C654 0.931 . S
C639 H627 0.929 . S
C639 C633 1.390 1_565 S
C639 C636 1.386 . S
C640 C635 1.490 . S
C640 C642 1.395 1_545 S
C640 C643 1.403 . S
H641 C647 0.930 . S
C642 H628 0.930 . S
C642 C640 1.395 1_565 S
C642 C645 1.403 1_455 S
C643 C640 1.403 . S
C643 C644 1.524 . S
C643 C647 1.400 1_455 S
C644 H629 0.960 . S
C644 H630 0.960 . S
C644 H631 0.960 . S
C644 C643 1.524 . S
C645 C642 1.403 1_655 S
C645 C646 1.392 . S
C645 C649 1.495 . S
C646 C645 1.392 . S
C646 C647 1.385 1_565 S
C646 C648 1.478 . S
C647 H641 0.930 . S
C647 C643 1.400 1_655 S
C647 C646 1.385 1_545 S
C648 C646 1.478 . S
C648 C650 1.381 1_565 S
C648 C654 1.383 . S
C649 C645 1.495 . S
C649 H655 0.959 . S
C649 H656 0.961 . S
C649 H657 0.960 . S
C650 C648 1.381 1_545 S
C650 C651 1.394 . S
C650 H658 0.930 . S
C651 C650 1.394 . S
C651 C652 1.386 . S
C651 H659 0.929 . S
C652 C651 1.386 . S
C652 C653 1.374 1_545 S
C653 H637 0.930 . S
C653 C652 1.374 1_565 S
C653 C654 1.379 . S
C654 H638 0.931 . S
C654 C648 1.383 . S
C654 C653 1.379 . S
H655 C649 0.959 . S
H656 C649 0.961 . S
H657 C649 0.960 . S
H658 C650 0.930 . S
H659 C651 0.929 . S
H660 C668 0.929 . S
H661 C670 0.930 . S
H662 C672 0.930 . S
H663 C675 0.929 . S
H664 C678 0.930 . S
H665 C680 0.960 . S
H666 C680 0.960 . S
H667 C680 0.960 . S
C668 H660 0.929 . S
C668 C669 1.377 1_556 S
C668 C670 1.384 . S
C669 C668 1.377 1_554 S
C669 C675 1.390 . S
C670 H661 0.930 . S
C670 C668 1.384 . S
C670 C671 1.372 1_556 S
C671 C670 1.372 1_554 S
C671 C672 1.400 . S
C671 C676 1.490 . S
C672 H662 0.930 . S
C672 C671 1.400 . S
C672 C675 1.386 . S
H673 C689 0.930 . S
H674 C690 0.931 . S
C675 H663 0.929 . S
C675 C669 1.390 . S
C675 C672 1.386 . S
C676 C671 1.490 . S
C676 C678 1.395 . S
C676 C679 1.403 1_554 S
H677 C683 0.930 . S
C678 H664 0.930 . S
C678 C676 1.395 . S
C678 C681 1.403 1_655 S
C679 C676 1.403 1_556 S
C679 C680 1.524 . S
C679 C683 1.400 1_655 S
C680 H665 0.960 . S
C680 H666 0.960 . S
C680 H667 0.960 . S
C680 C679 1.524 . S
C681 C678 1.403 1_455 S
C681 C682 1.392 . S
C681 C685 1.495 . S
C682 C681 1.392 . S
C682 C683 1.385 1_554 S
C682 C684 1.478 . S
C683 H677 0.930 . S
C683 C679 1.400 1_455 S
C683 C682 1.385 1_556 S
C684 C682 1.478 . S
C684 C686 1.381 1_554 S
C684 C690 1.383 . S
C685 C681 1.495 . S
C685 H691 0.959 . S
C685 H692 0.961 . S
C685 H693 0.960 . S
C686 C684 1.381 1_556 S
C686 C687 1.394 . S
C686 H694 0.930 . S
C687 C686 1.394 . S
C687 C688 1.383 1_556 S
C687 H695 0.929 . S
C688 C687 1.383 1_554 S
C688 C689 1.377 . S
C689 H673 0.930 . S
C689 C688 1.377 . S
C689 C690 1.379 . S
C690 H674 0.931 . S
C690 C684 1.383 . S
C690 C689 1.379 . S
H691 C685 0.959 . S
H692 C685 0.961 . S
H693 C685 0.960 . S
H694 C686 0.930 . S
H695 C687 0.929 . S
H696 C704 0.929 . S
H697 C706 0.930 . S
H698 C708 0.930 . S
H699 C711 0.929 . S
H700 C714 0.930 . S
H701 C716 0.960 . S
H702 C716 0.960 . S
H703 C716 0.960 . S
C704 H696 0.929 . S
C704 C705 1.377 . S
C704 C706 1.384 . S
C705 C704 1.377 . S
C705 C711 1.390 . S
C706 H697 0.930 . S
C706 C704 1.384 . S
C706 C707 1.372 . S
C707 C706 1.372 . S
C707 C708 1.400 . S
C707 C712 1.490 . S
C708 H698 0.930 . S
C708 C707 1.400 . S
C708 C711 1.386 . S
H709 C725 0.930 . S
H710 C726 0.931 . S
C711 H699 0.929 . S
C711 C705 1.390 . S
C711 C708 1.386 . S
C712 C707 1.490 . S
C712 C714 1.395 . S
C712 C715 1.403 1_556 S
H713 C719 0.930 . S
C714 H700 0.930 . S
C714 C712 1.395 . S
C714 C717 1.403 . S
C715 C712 1.403 1_554 S
C715 C716 1.524 . S
C715 C719 1.400 . S
C716 H701 0.960 . S
C716 H702 0.960 . S
C716 H703 0.960 . S
C716 C715 1.524 . S
C717 C714 1.403 . S
C717 C718 1.392 . S
C717 C721 1.495 . S
C718 C717 1.392 . S
C718 C719 1.385 1_556 S
C718 C720 1.478 . S
C719 H713 0.930 . S
C719 C715 1.400 . S
C719 C718 1.385 1_554 S
C720 C718 1.478 . S
C720 C722 1.381 . S
C720 C726 1.383 . S
C721 C717 1.495 . S
C721 H727 0.959 . S
C721 H728 0.961 . S
C721 H729 0.960 . S
C722 C720 1.381 . S
C722 C723 1.394 . S
C722 H730 0.930 . S
C723 C722 1.394 . S
C723 C724 1.383 . S
C723 H731 0.929 . S
C724 C723 1.383 . S
C724 C725 1.377 . S
C725 H709 0.930 . S
C725 C724 1.377 . S
C725 C726 1.379 . S
C726 H710 0.931 . S
C726 C720 1.383 . S
C726 C725 1.379 . S
H727 C721 0.959 . S
H728 C721 0.961 . S
H729 C721 0.960 . S
H730 C722 0.930 . S
H731 C723 0.929 . S
H732 C740 0.929 . S
H733 C742 0.930 1_554 S
H734 C744 0.930 . S
H735 C747 0.929 . S
H736 C750 0.930 . S
H737 C752 0.960 . S
H738 C752 0.960 . S
H739 C752 0.960 . S
C740 H732 0.929 . S
C740 C741 1.377 . S
C740 C742 1.384 . S
C741 C740 1.377 . S
C741 C747 1.390 . S
C742 H733 0.930 1_556 S
C742 C740 1.384 . S
C742 C743 1.372 . S
C743 C742 1.372 . S
C743 C744 1.400 . S
C743 C748 1.490 . S
C744 H734 0.930 . S
C744 C743 1.400 . S
C744 C747 1.386 . S
H745 C761 0.930 . S
H746 C762 0.931 . S
C747 H735 0.929 . S
C747 C741 1.390 . S
C747 C744 1.386 . S
C748 C743 1.490 . S
C748 C750 1.395 1_556 S
C748 C751 1.403 . S
H749 C755 0.930 . S
C750 H736 0.930 . S
C750 C748 1.395 1_554 S
C750 C753 1.403 . S
C751 C748 1.403 . S
C751 C752 1.524 . S
C751 C755 1.400 . S
C752 H737 0.960 . S
C752 H738 0.960 . S
C752 H739 0.960 . S
C752 C751 1.524 . S
C753 C750 1.403 . S
C753 C754 1.392 1_554 S
C753 C757 1.495 . S
C754 C753 1.392 1_556 S
C754 C755 1.385 . S
C754 C756 1.478 . S
C755 H749 0.930 . S
C755 C751 1.400 . S
C755 C754 1.385 . S
C756 C754 1.478 . S
C756 C758 1.383 . S
C756 C762 1.383 . S
C757 C753 1.495 . S
C757 H763 0.959 . S
C757 H764 0.961 . S
C757 H765 0.960 . S
C758 C756 1.383 . S
C758 C759 1.395 . S
C758 H766 0.928 1_556 S
C759 C758 1.395 . S
C759 C760 1.383 . S
C759 H767 0.930 . S
C760 C759 1.383 . S
C760 C761 1.377 . S
C761 H745 0.930 . S
C761 C760 1.377 . S
C761 C762 1.379 . S
C762 H746 0.931 . S
C762 C756 1.383 . S
C762 C761 1.379 . S
H763 C757 0.959 . S
H764 C757 0.961 . S
H765 C757 0.960 . S
H766 C758 0.928 1_554 S
H767 C759 0.930 . S
H768 C776 0.929 . S
H769 C778 0.930 . S
H770 C780 0.932 . S
H771 C783 0.940 . S
H772 C786 0.930 . S
H773 C788 0.960 . S
H774 C788 0.960 . S
H775 C788 0.960 . S
C776 H768 0.929 . S
C776 C777 1.377 . S
C776 C778 1.384 . S
C777 C776 1.377 . S
C777 C783 1.378 1_554 S
C778 H769 0.930 . S
C778 C776 1.384 . S
C778 C779 1.372 . S
C779 C778 1.372 . S
C779 C780 1.398 1_554 S
C779 C784 1.490 . S
C780 H770 0.932 . S
C780 C779 1.398 1_556 S
C780 C783 1.386 . S
H781 C797 0.931 1_556 S
H782 C798 0.931 1_556 S
C783 H771 0.940 . S
C783 C777 1.378 1_556 S
C783 C780 1.386 . S
C784 C779 1.490 . S
C784 C786 1.395 . S
C784 C787 1.403 . S
H785 C791 0.930 1_556 S
C786 H772 0.930 . S
C786 C784 1.395 . S
C786 C789 1.403 . S
C787 C784 1.403 . S
C787 C788 1.524 1_554 S
C787 C791 1.400 . S
C788 H773 0.960 . S
C788 H774 0.960 . S
C788 H775 0.960 . S
C788 C787 1.524 1_556 S
C789 C786 1.403 . S
C789 C790 1.392 . S
C789 C793 1.495 . S
C790 C789 1.392 . S
C790 C791 1.385 . S
C790 C792 1.478 . S
C791 H785 0.930 1_554 S
C791 C787 1.400 . S
C791 C790 1.385 . S
C792 C790 1.478 . S
C792 C794 1.381 . S
C792 C798 1.383 . S
C793 C789 1.495 . S
C793 H799 0.959 . S
C793 H800 0.961 . S
C793 H801 0.960 . S
C794 C792 1.381 . S
C794 C795 1.394 . S
C794 H802 0.930 . S
C795 C794 1.394 . S
C795 C796 1.383 . S
C795 H803 0.929 . S
C796 C795 1.383 . S
C796 C797 1.375 . S
C797 H781 0.931 1_554 S
C797 C796 1.375 . S
C797 C798 1.379 . S
C798 H782 0.931 1_554 S
C798 C792 1.383 . S
C798 C797 1.379 . S
H799 C793 0.959 . S
H800 C793 0.961 . S
H801 C793 0.960 . S
H802 C794 0.930 . S
H803 C795 0.929 . S
H804 C812 0.929 1_556 S
H805 C814 0.930 1_556 S
H806 C816 0.930 . S
H807 C819 0.929 . S
H808 C822 0.930 . S
H809 C824 0.960 . S
H810 C824 0.960 1_556 S
H811 C824 0.960 . S
C812 H804 0.929 1_554 S
C812 C813 1.377 . S
C812 C814 1.384 . S
C813 C812 1.377 . S
C813 C819 1.390 . S
C814 H805 0.930 1_554 S
C814 C812 1.384 . S
C814 C815 1.372 . S
C815 C814 1.372 . S
C815 C816 1.400 . S
C815 C820 1.490 . S
C816 H806 0.930 . S
C816 C815 1.400 . S
C816 C819 1.386 . S
H817 C833 0.930 . S
H818 C834 0.931 . S
C819 H807 0.929 . S
C819 C813 1.390 . S
C819 C816 1.386 . S
C820 C815 1.490 . S
C820 C822 1.395 . S
C820 C823 1.403 . S
H821 C827 0.930 . S
C822 H808 0.930 . S
C822 C820 1.395 . S
C822 C825 1.403 . S
C823 C820 1.403 . S
C823 C824 1.524 . S
C823 C827 1.400 . S
C824 H809 0.960 . S
C824 H810 0.960 1_554 S
C824 H811 0.960 . S
C824 C823 1.524 . S
C825 C822 1.403 . S
C825 C826 1.392 . S
C825 C829 1.495 . S
C826 C825 1.392 . S
C826 C827 1.385 . S
C826 C828 1.478 . S
C827 H821 0.930 . S
C827 C823 1.400 . S
C827 C826 1.385 . S
C828 C826 1.478 . S
C828 C830 1.381 . S
C828 C834 1.383 . S
C829 C825 1.495 . S
C829 H835 0.959 . S
C829 H836 0.961 . S
C829 H837 0.960 . S
C830 C828 1.381 . S
C830 C831 1.395 . S
C830 H838 0.930 1_554 S
C831 C830 1.395 . S
C831 C832 1.388 . S
C831 H839 0.925 1_554 S
C832 C831 1.388 . S
C832 C833 1.377 . S
C833 H817 0.930 . S
C833 C832 1.377 . S
C833 C834 1.379 . S
C834 H818 0.931 . S
C834 C828 1.383 . S
C834 C833 1.379 . S
H835 C829 0.959 . S
H836 C829 0.961 . S
H837 C829 0.960 . S
H838 C830 0.930 1_556 S
H839 C831 0.925 1_556 S
H840 C848 0.929 . S
H841 C850 0.930 . S
H842 C852 0.930 . S
H843 C855 0.929 . S
H844 C858 0.930 . S
H845 C860 0.960 . S
H846 C860 0.960 . S
H847 C860 0.960 . S
C848 H840 0.929 . S
C848 C849 1.377 . S
C848 C850 1.384 . S
C849 C848 1.377 . S
C849 C855 1.390 . S
C850 H841 0.930 . S
C850 C848 1.384 . S
C850 C851 1.372 . S
C851 C850 1.372 . S
C851 C852 1.400 . S
C851 C856 1.490 . S
C852 H842 0.930 . S
C852 C851 1.400 . S
C852 C855 1.386 . S
H853 C869 0.930 . S
H854 C870 0.931 . S
C855 H843 0.929 . S
C855 C849 1.390 . S
C855 C852 1.386 . S
C856 C851 1.490 . S
C856 C858 1.395 . S
C856 C859 1.403 . S
H857 C863 0.930 . S
C858 H844 0.930 . S
C858 C856 1.395 . S
C858 C861 1.403 . S
C859 C856 1.403 . S
C859 C860 1.524 . S
C859 C863 1.400 . S
C860 H845 0.960 . S
C860 H846 0.960 . S
C860 H847 0.960 . S
C860 C859 1.524 . S
C861 C858 1.403 . S
C861 C862 1.392 . S
C861 C865 1.495 . S
C862 C861 1.392 . S
C862 C863 1.385 . S
C862 C864 1.478 . S
C863 H857 0.930 . S
C863 C859 1.400 . S
C863 C862 1.385 . S
C864 C862 1.478 . S
C864 C866 1.381 . S
C864 C870 1.383 . S
C865 C861 1.495 . S
C865 H871 0.959 . S
C865 H872 0.961 . S
C865 H873 0.960 . S
C866 C864 1.381 . S
C866 C867 1.394 . S
C866 H874 0.930 . S
C867 C866 1.394 . S
C867 C868 1.383 . S
C867 H875 0.929 . S
C868 C867 1.383 . S
C868 C869 1.377 . S
C869 H853 0.930 . S
C869 C868 1.377 . S
C869 C870 1.379 . S
C870 H854 0.931 . S
C870 C864 1.383 . S
C870 C869 1.379 . S
H871 C865 0.959 . S
H872 C865 0.961 . S
H873 C865 0.960 . S
H874 C866 0.930 . S
H875 C867 0.929 . S
H876 C884 0.929 . S
H877 C886 0.930 . S
H878 C888 0.930 . S
H879 C891 0.929 . S
H880 C894 0.930 . S
H881 C896 0.960 . S
H882 C896 0.960 . S
H883 C896 0.960 . S
C884 H876 0.929 . S
C884 C885 1.377 . S
C884 C886 1.384 . S
C885 C884 1.377 . S
C885 C891 1.390 . S
C886 H877 0.930 . S
C886 C884 1.384 . S
C886 C887 1.372 . S
C887 C886 1.372 . S
C887 C888 1.400 . S
C887 C892 1.490 . S
C888 H878 0.930 . S
C888 C887 1.400 . S
C888 C891 1.386 . S
H889 C905 0.930 . S
H890 C906 0.931 . S
C891 H879 0.929 . S
C891 C885 1.390 . S
C891 C888 1.386 . S
C892 C887 1.490 . S
C892 C894 1.395 . S
C892 C895 1.403 . S
H893 C899 0.930 . S
C894 H880 0.930 . S
C894 C892 1.395 . S
C894 C897 1.403 . S
C895 C892 1.403 . S
C895 C896 1.524 . S
C895 C899 1.400 . S
C896 H881 0.960 . S
C896 H882 0.960 . S
C896 H883 0.960 . S
C896 C895 1.524 . S
C897 C894 1.403 . S
C897 C898 1.392 . S
C897 C901 1.495 . S
C898 C897 1.392 . S
C898 C899 1.385 . S
C898 C900 1.478 . S
C899 H893 0.930 . S
C899 C895 1.400 . S
C899 C898 1.385 . S
C900 C898 1.478 . S
C900 C902 1.381 . S
C900 C906 1.383 . S
C901 C897 1.495 . S
C901 H907 0.959 . S
C901 H908 0.961 . S
C901 H909 0.960 . S
C902 C900 1.381 . S
C902 C903 1.394 . S
C902 H910 0.930 . S
C903 C902 1.394 . S
C903 C904 1.383 . S
C903 H911 0.929 . S
C904 C903 1.383 . S
C904 C905 1.377 . S
C905 H889 0.930 . S
C905 C904 1.377 . S
C905 C906 1.379 . S
C906 H890 0.931 . S
C906 C900 1.383 . S
C906 C905 1.379 . S
H907 C901 0.959 . S
H908 C901 0.961 . S
H909 C901 0.960 . S
H910 C902 0.930 . S
H911 C903 0.929 . S
H912 C920 0.929 . S
H913 C922 0.930 . S
H914 C924 0.930 . S
H915 C927 0.929 . S
H916 C930 0.930 . S
H917 C932 0.960 . S
H918 C932 0.960 . S
H919 C932 0.960 . S
C920 H912 0.929 . S
C920 C921 1.377 . S
C920 C922 1.384 . S
C921 C920 1.377 . S
C921 C927 1.390 . S
C922 H913 0.930 . S
C922 C920 1.384 . S
C922 C923 1.372 . S
C923 C922 1.372 . S
C923 C924 1.400 . S
C923 C928 1.490 . S
C924 H914 0.930 . S
C924 C923 1.400 . S
C924 C927 1.386 . S
H925 C941 0.930 . S
H926 C942 0.931 . S
C927 H915 0.929 . S
C927 C921 1.390 . S
C927 C924 1.386 . S
C928 C923 1.490 . S
C928 C930 1.395 . S
C928 C931 1.403 . S
H929 C935 0.930 . S
C930 H916 0.930 . S
C930 C928 1.395 . S
C930 C933 1.403 . S
C931 C928 1.403 . S
C931 C932 1.524 . S
C931 C935 1.400 . S
C932 H917 0.960 . S
C932 H918 0.960 . S
C932 H919 0.960 . S
C932 C931 1.524 . S
C933 C930 1.403 . S
C933 C934 1.392 . S
C933 C937 1.495 . S
C934 C933 1.392 . S
C934 C935 1.385 . S
C934 C936 1.478 . S
C935 H929 0.930 . S
C935 C931 1.400 . S
C935 C934 1.385 . S
C936 C934 1.478 . S
C936 C938 1.381 . S
C936 C942 1.383 . S
C937 C933 1.495 . S
C937 H943 0.959 . S
C937 H944 0.961 . S
C937 H945 0.960 . S
C938 C936 1.381 . S
C938 C939 1.394 . S
C938 H946 0.930 . S
C939 C938 1.394 . S
C939 C940 1.383 . S
C939 H947 0.929 . S
C940 C939 1.383 . S
C940 C941 1.377 . S
C941 H925 0.930 . S
C941 C940 1.377 . S
C941 C942 1.379 . S
C942 H926 0.931 . S
C942 C936 1.383 . S
C942 C941 1.379 . S
H943 C937 0.959 . S
H944 C937 0.961 . S
H945 C937 0.960 . S
H946 C938 0.930 . S
H947 C939 0.929 . S
H948 C956 0.929 . S
H949 C958 0.930 . S
H950 C960 0.930 . S
H951 C963 0.929 . S
H952 C966 0.930 . S
H953 C968 0.960 . S
H954 C968 0.960 . S
H955 C968 0.960 . S
C956 H948 0.929 . S
C956 C957 1.377 . S
C956 C958 1.384 . S
C957 C956 1.377 . S
C957 C963 1.390 . S
C958 H949 0.930 . S
C958 C956 1.384 . S
C958 C959 1.372 . S
C959 C958 1.372 . S
C959 C960 1.400 . S
C959 C964 1.490 . S
C960 H950 0.930 . S
C960 C959 1.400 . S
C960 C963 1.386 . S
H961 C977 0.930 . S
H962 C978 0.931 . S
C963 H951 0.929 . S
C963 C957 1.390 . S
C963 C960 1.386 . S
C964 C959 1.490 . S
C964 C966 1.395 . S
C964 C967 1.403 . S
H965 C971 0.930 . S
C966 H952 0.930 . S
C966 C964 1.395 . S
C966 C969 1.403 . S
C967 C964 1.403 . S
C967 C968 1.524 . S
C967 C971 1.400 . S
C968 H953 0.960 . S
C968 H954 0.960 . S
C968 H955 0.960 . S
C968 C967 1.524 . S
C969 C966 1.403 . S
C969 C970 1.392 . S
C969 C973 1.495 . S
C970 C969 1.392 . S
C970 C971 1.385 . S
C970 C972 1.478 . S
C971 H965 0.930 . S
C971 C967 1.400 . S
C971 C970 1.385 . S
C972 C970 1.478 . S
C972 C974 1.381 . S
C972 C978 1.383 . S
C973 C969 1.495 . S
C973 H979 0.959 . S
C973 H980 0.961 . S
C973 H981 0.960 . S
C974 C972 1.381 . S
C974 C975 1.394 . S
C974 H982 0.930 . S
C975 C974 1.394 . S
C975 C976 1.383 . S
C975 H983 0.929 . S
C976 C975 1.383 . S
C976 C977 1.377 . S
C977 H961 0.930 . S
C977 C976 1.377 . S
C977 C978 1.379 . S
C978 H962 0.931 . S
C978 C972 1.383 . S
C978 C977 1.379 . S
H979 C973 0.959 . S
H980 C973 0.961 . S
H981 C973 0.960 . S
H982 C974 0.930 . S
H983 C975 0.929 . S
C273 N71 1.577 . S
C292 N14 1.562 . S
C309 N38 1.578 . S
C328 N113 1.579 . S
C345 N80 1.572 . S
C364 N5 1.568 . S
C381 N104 1.579 . S
C400 N47 1.560 . S
C417 N146 1.574 . S
C436 N203 1.582 . S
C453 N245 1.576 . S
C472 N170 1.582 . S
C489 N137 1.581 . S
C508 N212 1.573 . S
C525 N179 1.573 . S
C544 N236 1.567 . S
C561 C50 1.362 . S
C580 C17 1.365 . S
C597 C83 1.365 . S
C616 C116 1.357 . S
C633 C182 1.364 . S
C652 C149 1.354 . S
C669 C215 1.362 . S
C688 C248 1.361 . S
C705 C259 0.439 . S
C724 C8 0.451 . S
C741 C206 0.423 . S
C760 C61 0.426 . S
C777 C239 0.437 . S
C796 C28 0.503 . S
C813 C41 0.414 . S
C832 C226 0.386 . S
C849 C193 0.424 . S
C868 C74 0.380 . S
C885 C127 0.426 . S
C904 C140 0.389 . S
C921 C173 0.438 . S
C940 C94 0.505 . S
C957 C107 0.438 . S
C976 C160 0.500 . S
