# Generated by pormake.
# Topology why, (6)-cn, num edge types: 1
# Building blocks:
#     Node 0, Type 0, BuildingBlock: FUNLAD_clean_sbu_0, # of connection points: 6
#     Node 1, Type 0, BuildingBlock: FUNLAD_clean_sbu_0, # of connection points: 6
#     Node 2, Type 0, BuildingBlock: FUNLAD_clean_sbu_0, # of connection points: 6
#     Node 3, Type 0, BuildingBlock: FUNLAD_clean_sbu_0, # of connection points: 6
#     Node 4, Type 0, BuildingBlock: FUNLAD_clean_sbu_0, # of connection points: 6
#     Node 5, Type 0, BuildingBlock: FUNLAD_clean_sbu_0, # of connection points: 6
#     Node 6, Type 0, BuildingBlock: FUNLAD_clean_sbu_0, # of connection points: 6
#     Node 7, Type 0, BuildingBlock: FUNLAD_clean_sbu_0, # of connection points: 6
#     Node 8, Type 0, BuildingBlock: FUNLAD_clean_sbu_0, # of connection points: 6
#     Node 9, Type 0, BuildingBlock: FUNLAD_clean_sbu_0, # of connection points: 6
#     Node 10, Type 0, BuildingBlock: FUNLAD_clean_sbu_0, # of connection points: 6
#     Node 11, Type 0, BuildingBlock: FUNLAD_clean_sbu_0, # of connection points: 6
#     Node 12, Type 0, BuildingBlock: FUNLAD_clean_sbu_0, # of connection points: 6
#     Node 13, Type 0, BuildingBlock: FUNLAD_clean_sbu_0, # of connection points: 6
#     Node 14, Type 0, BuildingBlock: FUNLAD_clean_sbu_0, # of connection points: 6
#     Node 15, Type 0, BuildingBlock: FUNLAD_clean_sbu_0, # of connection points: 6
#     Edge 16, Type (0, 0), BuildingBlock: OJICUG_clean_linker_0, # of connection points: 2
#     Edge 17, Type (0, 0), BuildingBlock: OJICUG_clean_linker_0, # of connection points: 2
#     Edge 18, Type (0, 0), BuildingBlock: OJICUG_clean_linker_0, # of connection points: 2
#     Edge 19, Type (0, 0), BuildingBlock: OJICUG_clean_linker_0, # of connection points: 2
#     Edge 20, Type (0, 0), BuildingBlock: OJICUG_clean_linker_0, # of connection points: 2
#     Edge 21, Type (0, 0), BuildingBlock: OJICUG_clean_linker_0, # of connection points: 2
#     Edge 22, Type (0, 0), BuildingBlock: OJICUG_clean_linker_0, # of connection points: 2
#     Edge 23, Type (0, 0), BuildingBlock: OJICUG_clean_linker_0, # of connection points: 2
#     Edge 24, Type (0, 0), BuildingBlock: OJICUG_clean_linker_0, # of connection points: 2
#     Edge 25, Type (0, 0), BuildingBlock: OJICUG_clean_linker_0, # of connection points: 2
#     Edge 26, Type (0, 0), BuildingBlock: OJICUG_clean_linker_0, # of connection points: 2
#     Edge 27, Type (0, 0), BuildingBlock: OJICUG_clean_linker_0, # of connection points: 2
#     Edge 28, Type (0, 0), BuildingBlock: OJICUG_clean_linker_0, # of connection points: 2
#     Edge 29, Type (0, 0), BuildingBlock: OJICUG_clean_linker_0, # of connection points: 2
#     Edge 30, Type (0, 0), BuildingBlock: OJICUG_clean_linker_0, # of connection points: 2
#     Edge 31, Type (0, 0), BuildingBlock: OJICUG_clean_linker_0, # of connection points: 2
#     Edge 32, Type (0, 0), BuildingBlock: OJICUG_clean_linker_0, # of connection points: 2
#     Edge 33, Type (0, 0), BuildingBlock: OJICUG_clean_linker_0, # of connection points: 2
#     Edge 34, Type (0, 0), BuildingBlock: OJICUG_clean_linker_0, # of connection points: 2
#     Edge 35, Type (0, 0), BuildingBlock: OJICUG_clean_linker_0, # of connection points: 2
#     Edge 36, Type (0, 0), BuildingBlock: OJICUG_clean_linker_0, # of connection points: 2
#     Edge 37, Type (0, 0), BuildingBlock: OJICUG_clean_linker_0, # of connection points: 2
#     Edge 38, Type (0, 0), BuildingBlock: OJICUG_clean_linker_0, # of connection points: 2
#     Edge 39, Type (0, 0), BuildingBlock: OJICUG_clean_linker_0, # of connection points: 2
#     Edge 40, Type (0, 0), BuildingBlock: OJICUG_clean_linker_0, # of connection points: 2
#     Edge 41, Type (0, 0), BuildingBlock: OJICUG_clean_linker_0, # of connection points: 2
#     Edge 42, Type (0, 0), BuildingBlock: OJICUG_clean_linker_0, # of connection points: 2
#     Edge 43, Type (0, 0), BuildingBlock: OJICUG_clean_linker_0, # of connection points: 2
#     Edge 44, Type (0, 0), BuildingBlock: OJICUG_clean_linker_0, # of connection points: 2
#     Edge 45, Type (0, 0), BuildingBlock: OJICUG_clean_linker_0, # of connection points: 2
#     Edge 46, Type (0, 0), BuildingBlock: OJICUG_clean_linker_0, # of connection points: 2
#     Edge 47, Type (0, 0), BuildingBlock: OJICUG_clean_linker_0, # of connection points: 2
#     Edge 48, Type (0, 0), BuildingBlock: OJICUG_clean_linker_0, # of connection points: 2
#     Edge 49, Type (0, 0), BuildingBlock: OJICUG_clean_linker_0, # of connection points: 2
#     Edge 50, Type (0, 0), BuildingBlock: OJICUG_clean_linker_0, # of connection points: 2
#     Edge 51, Type (0, 0), BuildingBlock: OJICUG_clean_linker_0, # of connection points: 2
#     Edge 52, Type (0, 0), BuildingBlock: OJICUG_clean_linker_0, # of connection points: 2
#     Edge 53, Type (0, 0), BuildingBlock: OJICUG_clean_linker_0, # of connection points: 2
#     Edge 54, Type (0, 0), BuildingBlock: OJICUG_clean_linker_0, # of connection points: 2
#     Edge 55, Type (0, 0), BuildingBlock: OJICUG_clean_linker_0, # of connection points: 2
#     Edge 56, Type (0, 0), BuildingBlock: OJICUG_clean_linker_0, # of connection points: 2
#     Edge 57, Type (0, 0), BuildingBlock: OJICUG_clean_linker_0, # of connection points: 2
#     Edge 58, Type (0, 0), BuildingBlock: OJICUG_clean_linker_0, # of connection points: 2
#     Edge 59, Type (0, 0), BuildingBlock: OJICUG_clean_linker_0, # of connection points: 2
#     Edge 60, Type (0, 0), BuildingBlock: OJICUG_clean_linker_0, # of connection points: 2
#     Edge 61, Type (0, 0), BuildingBlock: OJICUG_clean_linker_0, # of connection points: 2
#     Edge 62, Type (0, 0), BuildingBlock: OJICUG_clean_linker_0, # of connection points: 2
#     Edge 63, Type (0, 0), BuildingBlock: OJICUG_clean_linker_0, # of connection points: 2
# Relax obj value: 0.496
# Max RMSD: 0.191
# Mean RMSD: 0.190
data_MOF--net-why--node1-FUNLAD_clean_sbu_0--edge1-OJICUG_clean_linker_0
_symmetry_space_group_name_H-M    P1
_symmetry_Int_Tables_number       1
_symmetry_cell_setting            triclinic
loop_
_symmetry_equiv_pos_as_xyz
'x, y, z'
_cell_length_a     38.112405
_cell_length_b     38.127696
_cell_length_c     24.005417
_cell_angle_alpha  90.008502
_cell_angle_beta   89.955032
_cell_angle_gamma 89.9447
loop_
_atom_site_label
_atom_site_type_symbol
_atom_site_fract_x
_atom_site_fract_y
_atom_site_fract_z
_atom_type_partial_charge
C0 C 0.32108 0.24426 0.1955 0.0
N1 N 0.37079 0.14598 0.18067 0.0
C2 C 0.38543 0.14817 0.23221 0.0
C3 C 0.39415 0.11774 0.26113 0.0
C4 C 0.38695 0.0851 0.23698 0.0
C5 C 0.37005 0.08355 0.18529 0.0
C6 C 0.36243 0.11458 0.15735 0.0
Zn7 Zn 0.36535 0.1899 0.13493 0.0
C8 C 0.29859 0.19084 0.07416 0.0
N9 N 0.35486 0.28326 0.03588 0.0
C10 C 0.38145 0.30712 0.03689 0.0
C11 C 0.33322 0.28137 0.99073 0.0
C12 C 0.34092 0.29994 0.94221 0.0
C13 C 0.37173 0.32 0.93918 0.0
C14 C 0.39081 0.32525 0.98863 0.0
Zn15 Zn 0.35823 0.23982 0.08837 0.0
O16 O 0.33635 0.21463 0.20093 0.0
C17 C 0.4282 0.23647 0.14851 0.0
O18 O 0.3294 0.26386 0.15442 0.0
H19 H 0.3116 0.26326 0.98958 0.0
H20 H 0.39158 0.1735 0.24992 0.0
H21 H 0.39777 0.31 0.07324 0.0
O22 O 0.41564 0.20715 0.16348 0.0
O23 O 0.40913 0.2568 0.11938 0.0
H24 H 0.35113 0.11352 0.1161 0.0
O25 O 0.38296 0.21407 0.02097 0.0
O26 O 0.39095 0.16492 0.06651 0.0
O27 O 0.30987 0.22074 0.05977 0.0
O28 O 0.31689 0.17176 0.10603 0.0
C29 C 0.3933 0.18246 0.02172 0.0
H30 H 0.40715 0.11961 0.30114 0.0
H31 H 0.36453 0.05863 0.16545 0.0
H32 H 0.3241 0.29649 0.90631 0.0
H33 H 0.41451 0.34081 0.98946 0.0
C34 C 0.51 0.56915 0.44122 0.0
N35 N 0.60813 0.61904 0.42741 0.0
C36 C 0.60612 0.63032 0.48109 0.0
C37 C 0.63668 0.6385 0.51024 0.0
C38 C 0.66909 0.63532 0.48318 0.0
C39 C 0.67051 0.62209 0.42888 0.0
C40 C 0.63949 0.61383 0.40167 0.0
Zn41 Zn 0.56442 0.61319 0.38134 0.0
C42 C 0.56469 0.5472 0.32051 0.0
N43 N 0.47275 0.60313 0.28016 0.0
C44 C 0.44443 0.6247 0.28552 0.0
C45 C 0.47978 0.58716 0.23051 0.0
C46 C 0.46064 0.59541 0.18304 0.0
C47 C 0.43411 0.62074 0.18594 0.0
C48 C 0.42473 0.63407 0.23854 0.0
Zn49 Zn 0.51471 0.60714 0.33452 0.0
O50 O 0.53935 0.58479 0.44726 0.0
C51 C 0.51685 0.67652 0.39405 0.0
O52 O 0.49066 0.5771 0.39959 0.0
H53 H 0.50274 0.57105 0.22518 0.0
H54 H 0.58078 0.63423 0.50046 0.0
H55 H 0.43897 0.6373 0.32492 0.0
O56 O 0.54633 0.66381 0.40847 0.0
O57 O 0.49604 0.65745 0.36561 0.0
H58 H 0.64043 0.60454 0.35914 0.0
O59 O 0.54004 0.63349 0.26861 0.0
O60 O 0.58979 0.63804 0.31294 0.0
O61 O 0.5351 0.559 0.30537 0.0
O62 O 0.58331 0.56483 0.35388 0.0
C63 C 0.57204 0.64237 0.26883 0.0
H64 H 0.63496 0.64891 0.55215 0.0
H65 H 0.6953 0.6193 0.40717 0.0
H66 H 0.46913 0.5847 0.14346 0.0
H67 H 0.40395 0.65329 0.24274 0.0
C68 C 0.18441 0.76025 0.69319 0.0
N69 N 0.13492 0.85832 0.6771 0.0
C70 C 0.12456 0.85709 0.7313 0.0
C71 C 0.1169 0.88804 0.75973 0.0
C72 C 0.11963 0.92003 0.73143 0.0
C73 C 0.13205 0.92068 0.67659 0.0
C74 C 0.13984 0.88927 0.6501 0.0
Zn75 Zn 0.13943 0.81394 0.63262 0.0
C76 C 0.20577 0.81259 0.56986 0.0
N77 N 0.14893 0.71998 0.53423 0.0
C78 C 0.121 0.6977 0.53391 0.0
C79 C 0.17109 0.72104 0.48955 0.0
C80 C 0.16263 0.70367 0.44013 0.0
C81 C 0.13074 0.68544 0.43591 0.0
C82 C 0.11101 0.68075 0.4849 0.0
Zn83 Zn 0.14645 0.76373 0.58677 0.0
O84 O 0.16872 0.78966 0.69848 0.0
C85 C 0.0766 0.76778 0.64819 0.0
O86 O 0.1762 0.74029 0.65245 0.0
H87 H 0.1939 0.73765 0.48955 0.0
H88 H 0.12087 0.83205 0.75164 0.0
H89 H 0.10416 0.69529 0.56974 0.0
O90 O 0.08903 0.79731 0.66255 0.0
O91 O 0.09588 0.74719 0.61978 0.0
H92 H 0.14841 0.88956 0.60717 0.0
O93 O 0.121 0.78888 0.52009 0.0
O94 O 0.11358 0.8385 0.56436 0.0
O95 O 0.1944 0.78262 0.55599 0.0
O96 O 0.18779 0.83167 0.60227 0.0
C97 C 0.111 0.82059 0.52008 0.0
H98 H 0.10712 0.88692 0.80208 0.0
H99 H 0.13448 0.94515 0.65395 0.0
H100 H 0.17992 0.70655 0.40465 0.0
H101 H 0.08643 0.66662 0.48495 0.0
C102 C 0.9936 0.43332 0.9445 0.0
N103 N 0.89577 0.3823 0.92482 0.0
C104 C 0.89654 0.37247 0.97927 0.0
C105 C 0.86544 0.36389 0.00664 0.0
C106 C 0.8338 0.36512 0.97705 0.0
C107 C 0.83357 0.37697 0.92192 0.0
C108 C 0.86508 0.38572 0.8965 0.0
Zn109 Zn 0.94056 0.38785 0.88149 0.0
C110 C 0.94092 0.45584 0.82272 0.0
N111 N 0.03413 0.40149 0.78533 0.0
C112 C 0.05804 0.37492 0.7861 0.0
C113 C 0.03128 0.42249 0.73954 0.0
C114 C 0.04889 0.41409 0.69033 0.0
C115 C 0.06889 0.38319 0.68726 0.0
C116 C 0.07516 0.36482 0.73718 0.0
Zn117 Zn 0.9907 0.39763 0.83762 0.0
O118 O 0.9634 0.41892 0.94711 0.0
C119 C 0.98749 0.32643 0.89625 0.0
O120 O 0.01462 0.42425 0.90555 0.0
H121 H 0.01282 0.44388 0.73848 0.0
H122 H 0.92138 0.36995 0.00067 0.0
H123 H 0.06144 0.35905 0.82288 0.0
O124 O 0.9586 0.33895 0.91351 0.0
O125 O 0.00692 0.34551 0.86553 0.0
H126 H 0.86512 0.39389 0.85339 0.0
O127 O 0.96512 0.37502 0.76824 0.0
O128 O 0.91775 0.36015 0.81385 0.0
O129 O 0.97246 0.44734 0.81272 0.0
O130 O 0.92124 0.43485 0.84896 0.0
C131 C 0.93478 0.36146 0.76856 0.0
H132 H 0.86626 0.35468 0.04932 0.0
H133 H 0.80938 0.37841 0.89831 0.0
H134 H 0.04468 0.43044 0.65411 0.0
H135 H 0.09067 0.34107 0.73813 0.0
C136 C 0.61109 0.82473 0.97639 0.0
N137 N 0.65254 0.72592 0.96788 0.0
C138 C 0.66731 0.73422 0.01793 0.0
C139 C 0.65973 0.71475 0.06539 0.0
C140 C 0.63632 0.68657 0.06201 0.0
C141 C 0.62428 0.67621 0.00909 0.0
C142 C 0.63286 0.69634 0.96219 0.0
Zn143 Zn 0.64761 0.76707 0.9124 0.0
C144 C 0.57773 0.7669 0.85322 0.0
N145 N 0.63269 0.85892 0.8167 0.0
C146 C 0.64107 0.89067 0.83877 0.0
C147 C 0.61751 0.85597 0.76565 0.0
C148 C 0.60848 0.886 0.73585 0.0
C149 C 0.61599 0.91897 0.75861 0.0
C150 C 0.63323 0.92125 0.80992 0.0
Zn151 Zn 0.63951 0.81604 0.86436 0.0
O152 O 0.62202 0.79339 0.97804 0.0
C153 C 0.70594 0.81815 0.92532 0.0
O154 O 0.61314 0.84177 0.93116 0.0
H155 H 0.61127 0.83037 0.74899 0.0
H156 H 0.68175 0.75825 0.02328 0.0
H157 H 0.65264 0.89241 0.87976 0.0
O158 O 0.69548 0.78801 0.93995 0.0
O159 O 0.68739 0.83636 0.89258 0.0
H160 H 0.62112 0.69006 0.92245 0.0
O161 O 0.66922 0.79107 0.79953 0.0
O162 O 0.6774 0.74255 0.84746 0.0
O163 O 0.58985 0.79621 0.83704 0.0
O164 O 0.59714 0.74727 0.88323 0.0
C165 C 0.68523 0.76191 0.80577 0.0
H166 H 0.66932 0.72406 0.10519 0.0
H167 H 0.60655 0.65422 0.00453 0.0
H168 H 0.59513 0.88359 0.6962 0.0
H169 H 0.6389 0.94644 0.82878 0.0
C170 C 0.43474 0.36021 0.7294 0.0
N171 N 0.53388 0.40063 0.71185 0.0
C172 C 0.53215 0.42192 0.75748 0.0
C173 C 0.55037 0.41347 0.80612 0.0
C174 C 0.56993 0.38226 0.80885 0.0
C175 C 0.57496 0.36345 0.75897 0.0
C176 C 0.55722 0.37356 0.71063 0.0
Zn177 Zn 0.48967 0.39753 0.66063 0.0
C178 C 0.48588 0.32713 0.59931 0.0
N179 N 0.39364 0.38311 0.57541 0.0
C180 C 0.36331 0.38602 0.60493 0.0
C181 C 0.39368 0.37402 0.52062 0.0
C182 C 0.36222 0.36578 0.49405 0.0
C183 C 0.33092 0.36659 0.52472 0.0
C184 C 0.33146 0.37759 0.58032 0.0
Zn185 Zn 0.43911 0.38827 0.61729 0.0
O186 O 0.46501 0.37388 0.72986 0.0
C187 C 0.43988 0.45525 0.6795 0.0
O188 O 0.4174 0.3596 0.68443 0.0
H189 H 0.41823 0.37186 0.49823 0.0
H190 H 0.51426 0.44378 0.7589 0.0
H191 H 0.36391 0.39359 0.64831 0.0
O192 O 0.47154 0.44668 0.68823 0.0
O193 O 0.42006 0.43479 0.65247 0.0
H194 H 0.55982 0.35738 0.67403 0.0
O195 O 0.46102 0.42022 0.55199 0.0
O196 O 0.51256 0.42531 0.5926 0.0
O197 O 0.45687 0.33985 0.583 0.0
O198 O 0.50555 0.34587 0.63015 0.0
C199 C 0.49122 0.43463 0.55426 0.0
H200 H 0.54707 0.43014 0.84223 0.0
H201 H 0.59005 0.33944 0.75772 0.0
H202 H 0.36252 0.35724 0.45101 0.0
H203 H 0.30759 0.37875 0.60481 0.0
C204 C 0.89676 0.18581 0.47802 0.0
N205 N 0.8576 0.28552 0.45981 0.0
C206 C 0.83375 0.28696 0.50221 0.0
C207 C 0.84127 0.30544 0.55108 0.0
C208 C 0.87368 0.32259 0.55669 0.0
C209 C 0.89535 0.32478 0.50945 0.0
C210 C 0.88654 0.3065 0.4612 0.0
Zn211 Zn 0.86015 0.24025 0.41043 0.0
C212 C 0.92796 0.236 0.34484 0.0
N213 N 0.87108 0.14374 0.32424 0.0
C214 C 0.86731 0.11345 0.35357 0.0
C215 C 0.88237 0.14372 0.2705 0.0
C216 C 0.892 0.1123 0.24498 0.0
C217 C 0.89033 0.08103 0.2756 0.0
C218 C 0.87711 0.0816 0.33001 0.0
Zn219 Zn 0.86548 0.18958 0.36528 0.0
O220 O 0.88875 0.21807 0.47696 0.0
C221 C 0.80086 0.19104 0.43133 0.0
O222 O 0.89095 0.16719 0.43524 0.0
H223 H 0.88531 0.16822 0.24829 0.0
H224 H 0.81007 0.27158 0.50093 0.0
H225 H 0.85805 0.11411 0.39614 0.0
O226 O 0.81342 0.22037 0.44634 0.0
O227 O 0.81737 0.17246 0.39633 0.0
H228 H 0.90501 0.30688 0.42732 0.0
O229 O 0.83626 0.21205 0.29792 0.0
O230 O 0.82792 0.26092 0.34508 0.0
O231 O 0.91576 0.20577 0.33418 0.0
O232 O 0.9089 0.25736 0.3721 0.0
C233 C 0.82001 0.24112 0.30397 0.0
H234 H 0.82277 0.30437 0.58528 0.0
H235 H 0.92049 0.3379 0.51073 0.0
H236 H 0.90216 0.11263 0.20283 0.0
H237 H 0.87509 0.05777 0.35439 0.0
C238 C 0.06739 0.64862 0.22464 0.0
N239 N 0.9681 0.60784 0.21024 0.0
C240 C 0.9652 0.58212 0.24958 0.0
C241 C 0.94672 0.5882 0.29912 0.0
C242 C 0.93075 0.62092 0.30821 0.0
C243 C 0.93044 0.64507 0.26408 0.0
C244 C 0.94899 0.63792 0.21543 0.0
Zn245 Zn 0.01275 0.60997 0.15933 0.0
C246 C 0.01593 0.67753 0.09138 0.0
N247 N 0.10839 0.62116 0.07076 0.0
C248 C 0.139 0.61809 0.09941 0.0
C249 C 0.1078 0.63076 0.0162 0.0
C250 C 0.13893 0.63954 0.98908 0.0
C251 C 0.1705 0.63874 0.01895 0.0
C252 C 0.17057 0.62702 0.07421 0.0
Zn253 Zn 0.06318 0.61641 0.11353 0.0
O254 O 0.0358 0.63836 0.2248 0.0
C255 C 0.06298 0.55227 0.18199 0.0
O256 O 0.08584 0.64455 0.18115 0.0
H257 H 0.08304 0.63307 0.99453 0.0
H258 H 0.97933 0.55776 0.24526 0.0
H259 H 0.1388 0.61014 0.14264 0.0
O260 O 0.03289 0.56367 0.19561 0.0
O261 O 0.08146 0.56938 0.14762 0.0
H262 H 0.95033 0.65833 0.18466 0.0
O263 O 0.0406 0.58496 0.04866 0.0
O264 O 0.99135 0.57739 0.09511 0.0
O265 O 0.04598 0.66529 0.07949 0.0
O266 O 0.99525 0.65876 0.12045 0.0
C267 C 0.01148 0.56886 0.05469 0.0
H268 H 0.94664 0.56818 0.3311 0.0
H269 H 0.9186 0.67074 0.26844 0.0
H270 H 0.13814 0.6486 0.94633 0.0
H271 H 0.19466 0.62578 0.09807 0.0
C272 C 0.82009 0.74411 0.69253 0.0
N273 N 0.87083 0.64608 0.68204 0.0
C274 C 0.88668 0.64914 0.73255 0.0
C275 C 0.89579 0.61917 0.76245 0.0
C276 C 0.88767 0.58616 0.74037 0.0
C277 C 0.86964 0.5838 0.68975 0.0
C278 C 0.86173 0.61431 0.66076 0.0
Zn279 Zn 0.86449 0.68872 0.63371 0.0
C280 C 0.7974 0.68802 0.57448 0.0
N281 N 0.85298 0.77878 0.52928 0.0
C282 C 0.87471 0.80704 0.53296 0.0
C283 C 0.83718 0.77059 0.47996 0.0
C284 C 0.84581 0.78841 0.43129 0.0
C285 C 0.87131 0.81479 0.4327 0.0
C286 C 0.88444 0.8254 0.4848 0.0
Zn287 Zn 0.85704 0.73796 0.58599 0.0
O288 O 0.83584 0.7148 0.69869 0.0
C289 C 0.92717 0.73712 0.64407 0.0
O290 O 0.82787 0.76334 0.65065 0.0
H291 H 0.82097 0.74762 0.47607 0.0
H292 H 0.89347 0.67474 0.7486 0.0
H293 H 0.88717 0.81341 0.57209 0.0
O294 O 0.91494 0.70774 0.65978 0.0
O295 O 0.90776 0.75708 0.6147 0.0
H296 H 0.8496 0.6125 0.62017 0.0
O297 O 0.882 0.71073 0.5207 0.0
O298 O 0.8897 0.66187 0.56678 0.0
O299 O 0.80865 0.71777 0.55933 0.0
O300 O 0.81577 0.66933 0.60684 0.0
C301 C 0.892 0.67905 0.52174 0.0
H302 H 0.90971 0.62165 0.80158 0.0
H303 H 0.86346 0.55859 0.67142 0.0
H304 H 0.83521 0.77906 0.39217 0.0
H305 H 0.90375 0.84613 0.48783 0.0
C306 C 0.0113 0.07028 0.94312 0.0
N307 N 0.10929 0.12079 0.92904 0.0
C308 C 0.10728 0.13198 0.98276 0.0
C309 C 0.13782 0.14068 0.01158 0.0
C310 C 0.17015 0.13806 0.98413 0.0
C311 C 0.17159 0.1248 0.92987 0.0
C312 C 0.14062 0.11604 0.903 0.0
Zn313 Zn 0.06575 0.11491 0.88294 0.0
C314 C 0.06625 0.04802 0.82284 0.0
N315 N 0.97446 0.10303 0.78174 0.0
C316 C 0.94635 0.12493 0.78655 0.0
C317 C 0.98176 0.08703 0.73222 0.0
C318 C 0.96327 0.09574 0.68429 0.0
C319 C 0.93709 0.12147 0.68668 0.0
C320 C 0.92729 0.13472 0.73914 0.0
Zn321 Zn 0.01623 0.10707 0.83636 0.0
O322 O 0.04099 0.08541 0.94817 0.0
C323 C 0.01782 0.17712 0.89524 0.0
O324 O 0.99156 0.07852 0.90212 0.0
H325 H 0.00459 0.07064 0.72747 0.0
H326 H 0.08196 0.13552 0.00234 0.0
H327 H 0.94068 0.1375 0.8259 0.0
O328 O 0.04701 0.16468 0.91147 0.0
O329 O 0.99795 0.15798 0.86529 0.0
H330 H 0.14155 0.10684 0.86043 0.0
O331 O 0.04246 0.13154 0.76962 0.0
O332 O 0.09095 0.14125 0.81555 0.0
O333 O 0.03589 0.05854 0.80941 0.0
O334 O 0.08529 0.06689 0.85387 0.0
C335 C 0.07374 0.14266 0.77048 0.0
H336 H 0.1361 0.15103 0.05353 0.0
H337 H 0.19634 0.12239 0.90793 0.0
H338 H 0.97204 0.08503 0.64487 0.0
H339 H 0.90671 0.15417 0.74297 0.0
C340 C 0.68505 0.25976 0.19232 0.0
N341 N 0.6343 0.35735 0.17471 0.0
C342 C 0.62455 0.35641 0.2292 0.0
C343 C 0.61622 0.38742 0.257 0.0
C344 C 0.61765 0.4192 0.22781 0.0
C345 C 0.62943 0.41959 0.17259 0.0
C346 C 0.63791 0.38813 0.14673 0.0
Zn347 Zn 0.63946 0.31254 0.13131 0.0
C348 C 0.70552 0.31185 0.06778 0.0
N349 N 0.65013 0.21808 0.03464 0.0
C350 C 0.62276 0.19512 0.0354 0.0
C351 C 0.67227 0.21891 0.98994 0.0
C352 C 0.66418 0.20057 0.94132 0.0
C353 C 0.63266 0.18167 0.93794 0.0
C354 C 0.61312 0.17717 0.98714 0.0
Zn355 Zn 0.64697 0.26238 0.08554 0.0
O356 O 0.66979 0.28943 0.19703 0.0
C357 C 0.57752 0.26599 0.14837 0.0
O358 O 0.67654 0.23959 0.15202 0.0
H359 H 0.69466 0.23608 0.98917 0.0
H360 H 0.62185 0.33151 0.25034 0.0
H361 H 0.60604 0.19291 0.07142 0.0
O362 O 0.59008 0.29536 0.16312 0.0
O363 O 0.59638 0.24577 0.1186 0.0
H364 H 0.64603 0.3882 0.10357 0.0
O365 O 0.62152 0.28674 0.01768 0.0
O366 O 0.61227 0.33571 0.06299 0.0
O367 O 0.69489 0.28145 0.05486 0.0
O368 O 0.68704 0.33096 0.09941 0.0
C369 C 0.61022 0.31801 0.01837 0.0
H370 H 0.60704 0.38644 0.29969 0.0
H371 H 0.63102 0.44387 0.14926 0.0
H372 H 0.68131 0.20333 0.9056 0.0
H373 H 0.58886 0.16248 0.98771 0.0
C374 C 0.49338 0.93425 0.44382 0.0
N375 N 0.39614 0.88181 0.42494 0.0
C376 C 0.39703 0.87242 0.47959 0.0
C377 C 0.36602 0.86382 0.50725 0.0
C378 C 0.33431 0.86459 0.47777 0.0
C379 C 0.33397 0.87592 0.42234 0.0
C380 C 0.36538 0.88468 0.39663 0.0
Zn381 Zn 0.44088 0.88775 0.38146 0.0
C382 C 0.4404 0.95525 0.32149 0.0
N383 N 0.53449 0.90214 0.28499 0.0
C384 C 0.55842 0.87557 0.28467 0.0
C385 C 0.5322 0.92434 0.24053 0.0
C386 C 0.55062 0.91742 0.19146 0.0
C387 C 0.57104 0.88687 0.18713 0.0
C388 C 0.57649 0.86706 0.23586 0.0
Zn389 Zn 0.49102 0.89764 0.33742 0.0
O390 O 0.46329 0.91962 0.44657 0.0
C391 C 0.48837 0.82651 0.3966 0.0
O392 O 0.51459 0.92496 0.40525 0.0
H393 H 0.51381 0.94579 0.24029 0.0
H394 H 0.42191 0.87033 0.501 0.0
H395 H 0.56134 0.85864 0.32033 0.0
O396 O 0.45958 0.83915 0.41411 0.0
O397 O 0.50775 0.84558 0.36569 0.0
H398 H 0.36531 0.89251 0.35335 0.0
O399 O 0.46573 0.87453 0.26829 0.0
O400 O 0.41859 0.85937 0.31434 0.0
O401 O 0.47206 0.94698 0.31209 0.0
O402 O 0.42081 0.93431 0.34802 0.0
C403 C 0.43556 0.86062 0.26899 0.0
H404 H 0.36697 0.85503 0.55013 0.0
H405 H 0.30975 0.87703 0.39879 0.0
H406 H 0.54686 0.93469 0.15618 0.0
H407 H 0.59219 0.84342 0.23569 0.0
C408 C 0.10642 0.31849 0.47705 0.0
N409 N 0.14786 0.21936 0.46079 0.0
C410 C 0.17246 0.21778 0.50206 0.0
C411 C 0.16581 0.19914 0.55114 0.0
C412 C 0.13356 0.18189 0.55807 0.0
C413 C 0.11097 0.18002 0.51195 0.0
C414 C 0.11884 0.19855 0.46352 0.0
Zn415 Zn 0.14496 0.26429 0.41061 0.0
C416 C 0.07683 0.26737 0.34409 0.0
N417 N 0.1325 0.36043 0.32331 0.0
C418 C 0.13552 0.39067 0.353 0.0
C419 C 0.12289 0.36059 0.26877 0.0
C420 C 0.11425 0.39213 0.24267 0.0
C421 C 0.11517 0.42333 0.27356 0.0
C422 C 0.12668 0.42259 0.32889 0.0
Zn423 Zn 0.13781 0.31477 0.365 0.0
O424 O 0.11746 0.28715 0.47738 0.0
C425 C 0.20246 0.31451 0.43231 0.0
O426 O 0.10955 0.33674 0.43318 0.0
H427 H 0.1206 0.33614 0.24623 0.0
H428 H 0.19616 0.23307 0.49973 0.0
H429 H 0.14349 0.38992 0.3962 0.0
O430 O 0.19159 0.28416 0.44515 0.0
O431 O 0.18479 0.33327 0.39907 0.0
H432 H 0.09969 0.19841 0.43067 0.0
O433 O 0.16945 0.29271 0.29956 0.0
O434 O 0.17663 0.24309 0.34515 0.0
O435 O 0.08896 0.29727 0.33109 0.0
O436 O 0.09572 0.24707 0.3736 0.0
C437 C 0.18532 0.26338 0.30506 0.0
H438 H 0.1849 0.20007 0.58447 0.0
H439 H 0.08583 0.16695 0.51434 0.0
H440 H 0.10535 0.39197 0.19982 0.0
H441 H 0.128 0.44636 0.35355 0.0
C442 C 0.9354 0.85547 0.2237 0.0
N443 N 0.03561 0.89281 0.20921 0.0
C444 C 0.04122 0.91903 0.24689 0.0
C445 C 0.05981 0.91239 0.29618 0.0
C446 C 0.0731 0.8786 0.3064 0.0
C447 C 0.07043 0.85352 0.26391 0.0
C448 C 0.05173 0.86114 0.2158 0.0
Zn449 Zn 0.99086 0.89304 0.15918 0.0
C450 C 0.98595 0.82672 0.08952 0.0
N451 N 0.89557 0.88662 0.07062 0.0
C452 C 0.86504 0.89164 0.09885 0.0
C453 C 0.89595 0.87714 0.016 0.0
C454 C 0.86454 0.87035 0.98839 0.0
C455 C 0.83294 0.87304 0.01787 0.0
C456 C 0.83317 0.88472 0.07315 0.0
Zn457 Zn 0.94082 0.88922 0.11325 0.0
O458 O 0.96793 0.86229 0.22262 0.0
C459 C 0.94279 0.9522 0.18365 0.0
O460 O 0.91678 0.86326 0.18171 0.0
H461 H 0.92066 0.87332 0.99466 0.0
H462 H 0.02901 0.94435 0.24148 0.0
H463 H 0.86545 0.89952 0.14211 0.0
O464 O 0.97143 0.93863 0.20003 0.0
O465 O 0.92513 0.93709 0.14608 0.0
H466 H 0.04752 0.83997 0.18708 0.0
O467 O 0.96456 0.91868 0.04747 0.0
O468 O 0.01228 0.92749 0.097 0.0
O469 O 0.95554 0.83903 0.08051 0.0
O470 O 0.0078 0.84562 0.11601 0.0
C471 C 0.99313 0.93541 0.05514 0.0
H472 H 0.06203 0.93291 0.32716 0.0
H473 H 0.07985 0.82696 0.26949 0.0
H474 H 0.86505 0.86112 0.94572 0.0
H475 H 0.80903 0.88714 0.09675 0.0
C476 C 0.39331 0.68472 0.97731 0.0
N477 N 0.35554 0.78523 0.96166 0.0
C478 C 0.33314 0.78445 0.00604 0.0
C479 C 0.341 0.80272 0.05485 0.0
C480 C 0.37249 0.82165 0.05869 0.0
C481 C 0.39238 0.82603 0.00983 0.0
C482 C 0.38303 0.80808 0.96144 0.0
Zn483 Zn 0.35874 0.74107 0.91018 0.0
C484 C 0.42806 0.73712 0.84966 0.0
N485 N 0.3701 0.64654 0.81968 0.0
C486 C 0.36118 0.61535 0.84324 0.0
C487 C 0.38566 0.64826 0.76876 0.0
C488 C 0.39473 0.61758 0.74077 0.0
C489 C 0.38696 0.58516 0.76519 0.0
C490 C 0.36915 0.58407 0.81621 0.0
Zn491 Zn 0.36429 0.69095 0.86408 0.0
O492 O 0.38603 0.71718 0.97637 0.0
C493 C 0.2986 0.69197 0.92636 0.0
O494 O 0.38764 0.66635 0.93415 0.0
H495 H 0.39226 0.67342 0.75085 0.0
H496 H 0.31059 0.76747 0.00633 0.0
H497 H 0.34911 0.61468 0.884 0.0
O498 O 0.3113 0.72089 0.9429 0.0
O499 O 0.31527 0.67381 0.89106 0.0
H500 H 0.40002 0.81029 0.92578 0.0
O501 O 0.337 0.71529 0.79631 0.0
O502 O 0.3277 0.76336 0.84489 0.0
O503 O 0.41575 0.70715 0.83773 0.0
O504 O 0.40846 0.75867 0.87554 0.0
C505 C 0.32039 0.7441 0.80291 0.0
H506 H 0.32366 0.80001 0.09032 0.0
H507 H 0.41665 0.8407 0.00963 0.0
H508 H 0.40837 0.6191 0.70124 0.0
H509 H 0.36312 0.55932 0.83621 0.0
C510 C 0.56836 0.14399 0.72804 0.0
N511 N 0.46929 0.10328 0.71236 0.0
C512 C 0.47159 0.08155 0.7574 0.0
C513 C 0.45353 0.0892 0.80659 0.0
C514 C 0.43347 0.12004 0.81055 0.0
C515 C 0.42804 0.13942 0.76134 0.0
C516 C 0.4457 0.13015 0.71243 0.0
Zn517 Zn 0.51293 0.10707 0.65976 0.0
C518 C 0.51584 0.17779 0.59946 0.0
N519 N 0.60844 0.1227 0.57266 0.0
C520 C 0.63891 0.11962 0.60173 0.0
C521 C 0.60817 0.13277 0.5183 0.0
C522 C 0.6395 0.14179 0.4918 0.0
C523 C 0.67092 0.14076 0.52211 0.0
C524 C 0.67061 0.1288 0.5772 0.0
Zn525 Zn 0.5632 0.11674 0.61541 0.0
O526 O 0.53808 0.13034 0.72876 0.0
C527 C 0.56314 0.04926 0.67568 0.0
O528 O 0.58537 0.14499 0.68273 0.0
H529 H 0.58354 0.13509 0.49625 0.0
H530 H 0.48978 0.05991 0.75789 0.0
H531 H 0.63854 0.11132 0.64478 0.0
O532 O 0.5316 0.0578 0.6857 0.0
O533 O 0.58276 0.07006 0.64889 0.0
H534 H 0.44277 0.14678 0.67641 0.0
O535 O 0.54084 0.08501 0.55018 0.0
O536 O 0.48962 0.07952 0.59189 0.0
O537 O 0.54479 0.16523 0.5825 0.0
O538 O 0.49644 0.15887 0.63054 0.0
C539 C 0.51078 0.07029 0.55316 0.0
H540 H 0.45726 0.07217 0.84216 0.0
H541 H 0.41264 0.16324 0.76105 0.0
H542 H 0.639 0.15099 0.44912 0.0
H543 H 0.69456 0.12734 0.60139 0.0
C544 C 0.49083 0.21666 0.15897 0.0
C545 C 0.46617 0.24425 0.15736 0.0
H546 H 0.54526 0.20173 0.15647 0.0
C547 C 0.47869 0.2789 0.15809 0.0
H548 H 0.48215 0.18963 0.15777 0.0
C549 C 0.51491 0.28577 0.15914 0.0
C550 C 0.53957 0.25819 0.15756 0.0
H551 H 0.46048 0.30071 0.15651 0.0
H552 H 0.52359 0.31281 0.158 0.0
C553 C 0.52705 0.22354 0.15811 0.0
C554 C 0.47495 0.72758 0.40536 0.0
C555 C 0.50946 0.71468 0.40277 0.0
H556 H 0.44141 0.77284 0.40761 0.0
C557 C 0.53725 0.73911 0.4028 0.0
H558 H 0.45295 0.70961 0.405 0.0
C559 C 0.53066 0.77543 0.40253 0.0
C560 C 0.49612 0.78834 0.40422 0.0
H561 H 0.56419 0.73017 0.40011 0.0
H562 H 0.55258 0.79341 0.39985 0.0
C563 C 0.4684 0.76389 0.40705 0.0
C564 C 0.02613 0.72527 0.65762 0.0
C565 C 0.03847 0.75998 0.65606 0.0
H566 H 0.98149 0.69101 0.65703 0.0
C567 C 0.01358 0.78738 0.65512 0.0
H568 H 0.04449 0.70357 0.65786 0.0
C569 C 0.97739 0.7802 0.6528 0.0
C570 C 0.96508 0.74545 0.65324 0.0
H571 H 0.02212 0.81444 0.65309 0.0
H572 H 0.95908 0.80184 0.6495 0.0
C573 C 0.98994 0.71813 0.65719 0.0
C574 C 0.03024 0.27602 0.90413 0.0
C575 C 0.99552 0.28843 0.90428 0.0
H576 H 0.06438 0.23122 0.90331 0.0
C577 C 0.96805 0.26369 0.90605 0.0
H578 H 0.05196 0.2943 0.90233 0.0
C579 C 0.9751 0.2275 0.90477 0.0
C580 C 0.00982 0.21509 0.90369 0.0
H581 H 0.94097 0.27232 0.90544 0.0
H582 H 0.95336 0.20923 0.90351 0.0
C583 C 0.0373 0.23983 0.90485 0.0
C584 C 0.51511 0.78597 0.83878 0.0
C585 C 0.53979 0.75857 0.84423 0.0
H586 H 0.46068 0.80091 0.83706 0.0
C587 C 0.52724 0.72394 0.84646 0.0
H588 H 0.52374 0.81302 0.83755 0.0
C589 C 0.491 0.71699 0.84441 0.0
C590 C 0.46629 0.74453 0.84193 0.0
H591 H 0.5454 0.70225 0.85097 0.0
H592 H 0.48228 0.69004 0.84778 0.0
C593 C 0.47888 0.77909 0.83858 0.0
C594 C 0.52838 0.27663 0.58935 0.0
C595 C 0.4937 0.28914 0.59058 0.0
H596 H 0.5624 0.23175 0.58901 0.0
C597 C 0.46615 0.26447 0.58993 0.0
H598 H 0.55016 0.29485 0.59032 0.0
C599 C 0.47311 0.22825 0.59107 0.0
C600 C 0.5078 0.21575 0.59084 0.0
H601 H 0.4391 0.27317 0.59168 0.0
H602 H 0.45136 0.21005 0.59334 0.0
C603 C 0.53532 0.24042 0.58846 0.0
C604 C 0.99082 0.21674 0.33378 0.0
C605 C 0.96578 0.244 0.33424 0.0
H606 H 0.04543 0.20258 0.33726 0.0
C607 C 0.9779 0.27878 0.33171 0.0
H608 H 0.98251 0.18963 0.33635 0.0
C609 C 0.01404 0.28613 0.3306 0.0
C610 C 0.03908 0.25895 0.33375 0.0
H611 H 0.95943 0.30039 0.33237 0.0
H612 H 0.02233 0.3133 0.33071 0.0
C613 C 0.02697 0.22413 0.33443 0.0
C614 C 0.03516 0.73999 0.076 0.0
C615 C 0.00775 0.71529 0.08025 0.0
H616 H 0.04998 0.79441 0.07621 0.0
C617 C 0.97305 0.72782 0.08105 0.0
H618 H 0.06227 0.73141 0.07591 0.0
C619 C 0.96601 0.76404 0.07959 0.0
C620 C 0.99352 0.78877 0.07902 0.0
H621 H 0.95132 0.70966 0.08467 0.0
H622 H 0.93898 0.77266 0.08243 0.0
C623 C 0.02817 0.77621 0.07626 0.0
C624 C 0.21544 0.13825 0.05882 0.0
C625 C 0.20203 0.15228 0.00931 0.0
H626 H 0.25736 0.13939 0.11813 0.0
C627 C 0.2197 0.17966 0.98236 0.0
H628 H 0.20196 0.11707 0.07997 0.0
C629 C 0.2508 0.1927 0.00424 0.0
C630 C 0.26493 0.1781 0.05292 0.0
H631 H 0.20945 0.19087 0.94419 0.0
H632 H 0.26416 0.21363 0.98232 0.0
C633 C 0.247 0.15088 0.08028 0.0
C634 C 0.6174 0.46416 0.3032 0.0
C635 C 0.60392 0.45148 0.25281 0.0
H636 H 0.61563 0.50514 0.36414 0.0
C637 C 0.57695 0.46976 0.2257 0.0
H638 H 0.63819 0.45023 0.32461 0.0
C639 C 0.56372 0.50058 0.24844 0.0
C640 C 0.57768 0.51386 0.29818 0.0
H641 H 0.56603 0.46006 0.18698 0.0
H642 H 0.54303 0.51433 0.2265 0.0
C643 C 0.60459 0.49544 0.32553 0.0
C644 C 0.2839 0.82376 0.47601 0.0
C645 C 0.30201 0.85093 0.5028 0.0
H646 H 0.23922 0.79002 0.4768 0.0
C647 C 0.28895 0.86497 0.55261 0.0
H648 H 0.29385 0.81245 0.4377 0.0
C649 C 0.25746 0.85249 0.57465 0.0
C650 C 0.2392 0.82538 0.54762 0.0
H651 H 0.30271 0.88596 0.57373 0.0
H652 H 0.24748 0.86393 0.61282 0.0
C653 C 0.25285 0.81087 0.49848 0.0
C654 C 0.93696 0.54977 0.77504 0.0
C655 C 0.90079 0.55409 0.76676 0.0
H656 H 0.9782 0.51468 0.79856 0.0
C657 C 0.87778 0.52646 0.77867 0.0
H658 H 0.9551 0.57078 0.76536 0.0
C659 C 0.89085 0.4946 0.79801 0.0
C660 C 0.92716 0.48982 0.80448 0.0
H661 H 0.84979 0.5294 0.77223 0.0
H662 H 0.87264 0.47345 0.80644 0.0
C663 C 0.95012 0.5177 0.79335 0.0
C664 C 0.75183 0.81892 0.99826 0.0
C665 C 0.73866 0.83224 0.94799 0.0
H666 H 0.79204 0.82209 0.05999 0.0
C667 C 0.75664 0.85935 0.92051 0.0
H668 H 0.73835 0.79815 0.02038 0.0
C669 C 0.78763 0.87274 0.94294 0.0
C670 C 0.80034 0.85967 0.99361 0.0
H671 H 0.74693 0.86993 0.88156 0.0
H672 H 0.80144 0.89346 0.9212 0.0
C673 C 0.78229 0.83274 0.02111 0.0
C674 C 0.43608 0.54851 0.73036 0.0
C675 C 0.40003 0.55258 0.74021 0.0
H676 H 0.47713 0.51395 0.70408 0.0
C677 C 0.37704 0.52476 0.72931 0.0
H678 H 0.45421 0.56967 0.73915 0.0
C679 C 0.39 0.49313 0.70871 0.0
C680 C 0.4262 0.48876 0.70002 0.0
H681 H 0.34914 0.52752 0.73689 0.0
H682 H 0.37182 0.4719 0.70066 0.0
C683 C 0.44914 0.51667 0.71086 0.0
C684 C 0.72288 0.17994 0.52611 0.0
C685 C 0.70372 0.15404 0.49787 0.0
H686 H 0.76867 0.21233 0.52669 0.0
C687 C 0.71623 0.1408 0.44717 0.0
H688 H 0.71341 0.19068 0.56513 0.0
C689 C 0.74802 0.15278 0.42557 0.0
C690 C 0.76729 0.17864 0.45393 0.0
H691 H 0.70176 0.12078 0.42489 0.0
H692 H 0.75739 0.14195 0.38657 0.0
C693 C 0.7543 0.19238 0.50406 0.0
C694 C 0.11535 0.46902 0.19929 0.0
C695 C 0.10194 0.45625 0.2497 0.0
H696 H 0.11372 0.51007 0.13859 0.0
C697 C 0.07552 0.475 0.27759 0.0
H698 H 0.13576 0.45486 0.17729 0.0
C699 C 0.06256 0.50614 0.25528 0.0
C700 C 0.0763 0.51926 0.20525 0.0
H701 H 0.06465 0.46532 0.31637 0.0
H702 H 0.04211 0.52012 0.27749 0.0
C703 C 0.10286 0.50055 0.17747 0.0
C704 C 0.71432 0.63515 0.55822 0.0
C705 C 0.70108 0.64923 0.5086 0.0
H706 H 0.75606 0.63627 0.618 0.0
C707 C 0.7189 0.67659 0.48186 0.0
H708 H 0.70073 0.614 0.57924 0.0
C709 C 0.7499 0.6896 0.50409 0.0
C710 C 0.76385 0.67503 0.55296 0.0
H711 H 0.7088 0.68785 0.44364 0.0
H712 H 0.76329 0.71057 0.48232 0.0
C713 C 0.74584 0.64776 0.58006 0.0
C714 C 0.06489 1.00062 0.75232 0.0
C715 C 0.07956 0.01472 0.80096 0.0
H716 H 0.06676 0.95943 0.69198 0.0
C717 C 0.10728 0.9971 0.82759 0.0
H718 H 0.04359 0.01376 0.73093 0.0
C719 C 0.12016 0.96573 0.80564 0.0
C720 C 0.10591 0.95226 0.75632 0.0
H721 H 0.11885 0.00748 0.86535 0.0
H722 H 0.14155 0.95235 0.82643 0.0
C723 C 0.07819 0.96975 0.72992 0.0
C724 C 0.75279 0.31064 0.99673 0.0
C725 C 0.73879 0.32506 0.04567 0.0
H726 H 0.79406 0.31264 0.93642 0.0
C727 C 0.75658 0.35244 0.0728 0.0
H728 H 0.73949 0.2896 0.97501 0.0
C729 C 0.78802 0.36524 0.05112 0.0
C730 C 0.80147 0.35126 0.00155 0.0
H731 H 0.74631 0.3638 0.11084 0.0
H732 H 0.80147 0.38639 0.07235 0.0
C733 C 0.78378 0.32387 0.97457 0.0
C734 C 0.39027 0.99308 0.29333 0.0
C735 C 0.42646 0.98891 0.30213 0.0
H736 H 0.3493 0.02729 0.2651 0.0
C737 C 0.44923 0.01711 0.29214 0.0
H738 H 0.37224 0.97164 0.30077 0.0
C739 C 0.43602 0.04896 0.27302 0.0
C740 C 0.4 0.05276 0.26271 0.0
H741 H 0.47721 0.01454 0.29907 0.0
H742 H 0.45404 0.07028 0.26461 0.0
C743 C 0.37716 0.02474 0.27308 0.0
C744 C 0.24875 0.31359 0.50507 0.0
C745 C 0.23539 0.32785 0.4556 0.0
H746 H 0.28966 0.31525 0.56596 0.0
C747 C 0.25373 0.35491 0.42856 0.0
H748 H 0.23504 0.29277 0.52671 0.0
C749 C 0.28518 0.36739 0.45062 0.0
C750 C 0.29816 0.35344 0.5005 0.0
H751 H 0.24398 0.36616 0.39012 0.0
H752 H 0.2991 0.38818 0.42925 0.0
C753 C 0.27978 0.32651 0.5276 0.0
C754 C 0.89236 0.03661 0.19971 0.0
C755 C 0.90389 0.04814 0.25196 0.0
H756 H 0.89555 0.99679 0.13735 0.0
C757 C 0.92874 0.02829 0.28153 0.0
H758 H 0.87319 0.05158 0.17635 0.0
C759 C 0.94193 0.99723 0.25904 0.0
C760 C 0.92995 0.98536 0.20714 0.0
H761 H 0.93819 0.03702 0.32176 0.0
H762 H 0.96108 0.98231 0.28253 0.0
C763 C 0.90507 0.00528 0.17767 0.0
C764 C 0.21508 0.64006 0.94291 0.0
C765 C 0.2029 0.6526 0.99428 0.0
H766 H 0.25551 0.64264 0.88117 0.0
C767 C 0.22171 0.67878 0.02241 0.0
H768 H 0.20081 0.61989 0.92066 0.0
C769 C 0.25253 0.69213 -0.00031 0.0
C770 C 0.26524 0.67908 0.94891 0.0
H771 H 0.21243 0.68904 0.06186 0.0
H772 H 0.26671 0.71217 0.02239 0.0
C773 C 0.24628 0.653 0.92058 0.0
C774 C 0.61312 0.01065 0.70141 0.0
C775 C 0.57686 0.01535 0.69421 0.0
H776 H 0.65403 0.97588 0.72791 0.0
C777 C 0.55387 0.98739 0.7047 0.0
H778 H 0.63133 0.03187 0.69344 0.0
C779 C 0.56695 0.95531 0.72309 0.0
C780 C 0.60304 0.95106 0.7321 0.0
H781 H 0.52584 0.99036 0.69888 0.0
H782 H 0.54878 0.93423 0.73224 0.0
C783 C 0.6261 0.97877 0.72086 0.0
C784 C 0.4312 0.14151 0.96619 0.0
C785 C 0.40336 0.16542 0.96894 0.0
H786 H 0.46356 0.10965 0.9143 0.0
C787 C 0.38404 0.17268 0.92054 0.0
H788 H 0.4464 0.13547 0.00309 0.0
C789 C 0.39257 0.15662 0.87001 0.0
C790 C 0.42151 0.13376 0.866 0.0
H791 H 0.36186 0.19048 0.92193 0.0
H792 H 0.3764 0.16245 0.83416 0.0
C793 C 0.44059 0.12633 0.91514 0.0
C794 C 0.62528 0.65888 0.21306 0.0
C795 C 0.58879 0.65405 0.2164 0.0
H796 H 0.6692 0.67167 0.16117 0.0
C797 C 0.56852 0.65794 0.16787 0.0
H798 H 0.6417 0.65553 0.24949 0.0
C799 C 0.58424 0.66695 0.11735 0.0
C800 C 0.62067 0.67226 0.11399 0.0
H801 H 0.54035 0.65415 0.16882 0.0
H802 H 0.56762 0.6709 0.08132 0.0
C803 C 0.64105 0.66787 0.16238 0.0
C804 C 0.11187 0.8416 0.36697 0.0
C805 C 0.08591 0.86767 0.36242 0.0
H806 H 0.13904 0.80576 0.41993 0.0
C807 C 0.0694 0.87973 0.41145 0.0
H808 H 0.12592 0.83232 0.33062 0.0
C809 C 0.07773 0.86498 0.46331 0.0
C810 C 0.10198 0.83736 0.46669 0.0
H811 H 0.04901 0.89948 0.40961 0.0
H812 H 0.06439 0.87428 0.50035 0.0
C813 C 0.11935 0.82627 0.41822 0.0
C814 C 0.91083 0.36236 0.61621 0.0
C815 C 0.88669 0.33457 0.61221 0.0
H816 H 0.94551 0.39174 0.66828 0.0
C817 C 0.87776 0.31617 0.66126 0.0
H818 H 0.91779 0.37787 0.58011 0.0
C819 C 0.89299 0.32498 0.71244 0.0
C820 C 0.91821 0.35163 0.71535 0.0
H821 H 0.85987 0.29416 0.66009 0.0
H822 H 0.88581 0.31032 0.74938 0.0
C823 C 0.92676 0.37039 0.66689 0.0
C824 C 0.6212 0.83565 0.07683 0.0
C825 C 0.60124 0.84215 0.02882 0.0
H826 H 0.62917 0.84636 0.16299 0.0
C827 C 0.57289 0.86542 0.03174 0.0
H828 H 0.64378 0.81836 0.07521 0.0
C829 C 0.56355 0.88059 0.08279 0.0
C830 C 0.58316 0.87371 0.13159 0.0
H831 H 0.55724 0.87087 0.99508 0.0
H832 H 0.54018 0.8967 0.084 0.0
C833 C 0.61267 0.85167 0.12731 0.0
C834 C 0.42467 0.36957 0.83042 0.0
C835 C 0.41834 0.34971 0.78225 0.0
H836 H 0.41323 0.37759 0.91638 0.0
C837 C 0.39516 0.32133 0.78481 0.0
H838 H 0.44187 0.39218 0.82907 0.0
C839 C 0.37959 0.31206 0.83545 0.0
C840 C 0.38592 0.3318 0.88425 0.0
H841 H 0.38981 0.30576 0.74801 0.0
H842 H 0.36342 0.28877 0.83629 0.0
C843 C 0.40823 0.3611 0.88058 0.0
C844 C 0.91858 0.11701 0.58638 0.0
C845 C 0.92427 0.13762 0.63413 0.0
H846 H 0.90618 0.11602 0.49947 0.0
C847 C 0.92153 0.1743 0.62963 0.0
H848 H 0.92035 0.08869 0.58845 0.0
C849 C 0.91356 0.18998 0.57859 0.0
C850 C 0.90824 0.16938 0.53077 0.0
H851 H 0.92654 0.19103 0.66521 0.0
H852 H 0.91151 0.2183 0.57671 0.0
C853 C 0.91073 0.1327 0.53527 0.0
C854 C 0.12445 0.69387 0.33174 0.0
C855 C 0.11644 0.67462 0.38046 0.0
H856 H 0.1155 0.70057 0.2439 0.0
C857 C 0.09245 0.64671 0.3762 0.0
H858 H 0.14207 0.71608 0.33296 0.0
C859 C 0.07596 0.63926 0.32574 0.0
C860 C 0.08389 0.65864 0.27767 0.0
H861 H 0.08618 0.63045 0.41176 0.0
H862 H 0.0575 0.61768 0.32404 0.0
C863 C 0.10881 0.68551 0.28067 0.0
C864 C 0.92694 0.63578 0.46515 0.0
C865 C 0.90092 0.6617 0.46873 0.0
H866 H 0.95744 0.60296 0.41128 0.0
C867 C 0.88233 0.67118 0.42058 0.0
H868 H 0.94136 0.62784 0.50192 0.0
C869 C 0.89033 0.65601 0.36934 0.0
C870 C 0.91797 0.63176 0.36443 0.0
H871 H 0.86139 0.69041 0.42253 0.0
H872 H 0.87525 0.66402 0.3333 0.0
C873 C 0.93573 0.62125 0.41327 0.0
C874 C 0.11616 0.17864 0.71445 0.0
C875 C 0.09084 0.15211 0.71755 0.0
H876 H 0.14889 0.20963 0.66152 0.0
C877 C 0.08211 0.13333 0.66921 0.0
H878 H 0.12349 0.19325 0.75136 0.0
C879 C 0.0977 0.14146 0.61831 0.0
C880 C 0.1216 0.16942 0.61394 0.0
H881 H 0.06332 0.11203 0.67083 0.0
H882 H 0.09047 0.12606 0.58224 0.0
C883 C 0.13104 0.18759 0.66297 0.0
C884 C 0.61023 0.34419 0.86685 0.0
C885 C 0.5817 0.36761 0.86373 0.0
H886 H 0.64066 0.30953 0.91773 0.0
C887 C 0.5628 0.3748 0.91317 0.0
H888 H 0.62621 0.33846 0.83073 0.0
C889 C 0.57213 0.35907 0.96374 0.0
C890 C 0.59968 0.33481 0.96571 0.0
H891 H 0.5401 0.39184 0.91297 0.0
H892 H 0.55722 0.36514 0.00097 0.0
C893 C 0.61868 0.32758 0.91693 0.0
C894 C 0.40939 0.86206 0.11766 0.0
C895 C 0.38645 0.83327 0.11382 0.0
H896 H 0.44353 0.89241 0.1693 0.0
C897 C 0.37939 0.81378 0.1626 0.0
H898 H 0.41494 0.87838 0.08185 0.0
C899 C 0.39502 0.82269 0.21338 0.0
C900 C 0.4189 0.85052 0.21609 0.0
H901 H 0.36261 0.79091 0.16157 0.0
H902 H 0.38916 0.80728 0.25014 0.0
C903 C 0.42582 0.8702 0.16792 0.0
C904 C 0.06828 0.35884 0.53287 0.0
C905 C 0.0962 0.33508 0.52995 0.0
H906 H 0.03669 0.39139 0.58475 0.0
C907 C 0.11629 0.32851 0.57779 0.0
H908 H 0.05261 0.36443 0.49629 0.0
C909 C 0.10858 0.34534 0.62795 0.0
C910 C 0.07974 0.36829 0.63213 0.0
H911 H 0.13862 0.3109 0.57608 0.0
H912 H 0.1254 0.34019 0.66329 0.0
C913 C 0.05968 0.37476 0.58363 0.0
C914 C 0.9396 0.83771 0.32383 0.0
C915 C 0.91892 0.84335 0.27616 0.0
H916 H 0.94079 0.8247 0.41045 0.0
C917 C 0.88224 0.84077 0.28083 0.0
H918 H 0.96792 0.83975 0.32188 0.0
C919 C 0.86663 0.83272 0.33202 0.0
C920 C 0.88733 0.8271 0.3797 0.0
H921 H 0.86551 0.84547 0.24513 0.0
H922 H 0.8383 0.83092 0.33428 0.0
C923 C 0.924 0.8297 0.37494 0.0
C924 C 0.40982 0.68886 0.07791 0.0
C925 C 0.40435 0.66816 0.0302 0.0
H926 H 0.42314 0.69011 0.16435 0.0
C927 C 0.4067 0.6315 0.03488 0.0
H928 H 0.40791 0.71718 0.07591 0.0
C929 C 0.41474 0.61592 0.08604 0.0
C930 C 0.4207 0.63665 0.1336 0.0
H931 H 0.40206 0.61478 -0.00085 0.0
H932 H 0.41657 0.5876 0.08827 0.0
C933 C 0.41793 0.67329 0.12895 0.0
C934 C 0.59504 0.14182 0.87909 0.0
C935 C 0.61827 0.17039 0.8829 0.0
H936 H 0.5604 0.11198 0.82755 0.0
C937 C 0.62522 0.19004 0.83423 0.0
H938 H 0.58954 0.12541 0.91479 0.0
C939 C 0.60928 0.18146 0.78359 0.0
C940 C 0.58516 0.15386 0.7809 0.0
H941 H 0.64218 0.21277 0.83524 0.0
H942 H 0.6151 0.19696 0.7469 0.0
C943 C 0.57829 0.13404 0.82895 0.0
C944 C 0.26572 0.2793 0.21314 0.0
C945 C 0.28784 0.25104 0.22729 0.0
H946 H 0.21603 0.3048 0.22476 0.0
C947 C 0.27492 0.22596 0.2653 0.0
H948 H 0.27424 0.29882 0.1833 0.0
C949 C 0.24109 0.22897 0.28822 0.0
C950 C 0.21893 0.25716 0.27396 0.0
H951 H 0.29072 0.20345 0.27667 0.0
H952 H 0.23255 0.20938 0.31793 0.0
C953 C 0.23188 0.28233 0.23615 0.0
C954 C 0.52854 0.52358 0.51171 0.0
C955 C 0.50335 0.53611 0.47351 0.0
H956 H 0.54531 0.4818 0.56534 0.0
C957 C 0.47514 0.51385 0.45998 0.0
H958 H 0.55102 0.53951 0.52266 0.0
C959 C 0.4722 0.48029 0.48393 0.0
C960 C 0.49748 0.46774 0.52196 0.0
H961 H 0.45556 0.52207 0.43003 0.0
H962 H 0.44973 0.46432 0.47309 0.0
C963 C 0.52568 0.49 0.53544 0.0
C964 C 0.22986 0.77927 0.76359 0.0
C965 C 0.21788 0.75425 0.7247 0.0
H966 H 0.2715 0.79653 0.81708 0.0
C967 C 0.24103 0.72705 0.70953 0.0
H968 H 0.21324 0.80101 0.77576 0.0
C969 C 0.27493 0.72491 0.73249 0.0
C970 C 0.2869 0.74994 0.77136 0.0
H971 H 0.23326 0.70767 0.67896 0.0
H972 H 0.29156 0.70316 0.72036 0.0
C973 C 0.26374 0.77713 0.78654 0.0
C974 C 0.97718 0.51312 0.03716 0.0
C975 C 0.00548 0.53526 0.02357 0.0
H976 H 0.95181 0.46354 0.02475 0.0
C977 C 0.03104 0.52234 0.98629 0.0
H978 H 0.9573 0.52166 0.06645 0.0
C979 C 0.02832 0.48855 0.96323 0.0
C980 C 0.99993 0.46647 0.97661 0.0
H981 H 0.05361 0.53818 0.9754 0.0
H982 H 0.04816 0.48007 0.93384 0.0
C983 C 0.97441 0.47935 0.014 0.0
C984 C 0.73 0.78003 0.73341 0.0
C985 C 0.71847 0.7556 0.77362 0.0
H986 H 0.77101 0.79644 0.67784 0.0
C987 C 0.74183 0.72869 0.78912 0.0
H988 H 0.7132 0.80155 0.72091 0.0
C989 C 0.77544 0.72622 0.76516 0.0
C990 C 0.78696 0.75061 0.72488 0.0
H991 H 0.73443 0.70977 0.82066 0.0
H992 H 0.79223 0.70468 0.77766 0.0
C993 C 0.76362 0.77755 0.70942 0.0
C994 C 0.73069 0.27834 0.26265 0.0
C995 C 0.71819 0.25324 0.22436 0.0
H996 H 0.77255 0.29501 0.31615 0.0
C997 C 0.74054 0.22512 0.21043 0.0
H998 H 0.71467 0.30074 0.27386 0.0
C999 C 0.77421 0.22222 0.23397 0.0
C1000 C 0.78672 0.24737 0.27219 0.0
H1001 H 0.73233 0.20559 0.18039 0.0
H1002 H 0.79024 0.19983 0.22276 0.0
C1003 C 0.76433 0.27544 0.28617 0.0
C1004 C 0.97732 0.01438 0.9604 0.0
C1005 C 0.00462 0.03733 0.97556 0.0
H1006 H 0.95295 0.96421 0.97175 0.0
C1007 C 0.0291 0.02551 0.01545 0.0
H1008 H 0.95833 0.02204 0.92914 0.0
C1009 C 0.02643 0.99191 0.03922 0.0
C1010 C 0.99925 0.96889 0.02381 0.0
H1011 H 0.05088 0.04203 0.02771 0.0
H1012 H 0.04548 0.9842 0.07037 0.0
C1013 C 0.97467 0.98076 0.98412 0.0
C1014 C 0.53072 0.0235 0.48539 0.0
C1015 C 0.50476 0.03681 0.52164 0.0
H1016 H 0.54827 0.98081 0.43408 0.0
C1017 C 0.47609 0.01493 0.53439 0.0
H1018 H 0.55357 0.03911 0.47515 0.0
C1019 C 0.47344 0.98103 0.51162 0.0
C1020 C 0.4994 0.96773 0.47536 0.0
H1021 H 0.45589 0.02372 0.56293 0.0
H1022 H 0.45059 0.96542 0.52184 0.0
C1023 C 0.52807 0.9896 0.46262 0.0
loop_
_geom_bond_atom_site_label_1
_geom_bond_atom_site_label_2
_geom_bond_distance
_geom_bond_site_symmetry_2
_ccdc_geom_bond_type
C0 O16 1.251 . S
C0 O18 1.254 . S
N1 C2 1.333 . S
N1 C6 1.307 . S
N1 Zn7 2.020 . S
C2 N1 1.333 . S
C2 C3 1.379 . S
C2 H20 0.952 . S
C3 C2 1.379 . S
C3 C4 1.390 . S
C3 H30 0.949 . S
C4 C3 1.390 . S
C4 C5 1.357 . S
C5 C4 1.357 . S
C5 C6 1.370 . S
C5 H31 0.950 . S
C6 N1 1.307 . S
C6 C5 1.370 . S
C6 H24 0.948 . S
Zn7 N1 2.020 . S
Zn7 O16 2.039 . S
Zn7 O22 2.034 . S
Zn7 O26 2.025 . S
Zn7 O28 2.024 . S
C8 O27 1.246 . S
C8 O28 1.249 . S
N9 C10 1.307 . S
N9 C11 1.333 1_554 S
N9 Zn15 2.020 . S
C10 N9 1.307 . S
C10 C14 1.370 1_554 S
C10 H21 0.948 . S
C11 N9 1.333 1_556 S
C11 C12 1.379 . S
C11 H19 0.952 . S
C12 C11 1.379 . S
C12 C13 1.390 . S
C12 H32 0.949 . S
C13 C12 1.390 . S
C13 C14 1.357 . S
C14 C10 1.370 1_556 S
C14 C13 1.357 . S
C14 H33 0.950 1_556 S
Zn15 N9 2.020 . S
Zn15 O18 2.025 . S
Zn15 O23 2.024 . S
Zn15 O25 2.039 . S
Zn15 O27 2.034 . S
O16 C0 1.251 . S
O16 Zn7 2.039 . S
C17 O22 1.246 . S
C17 O23 1.249 . S
O18 C0 1.254 . S
O18 Zn15 2.025 . S
H19 C11 0.952 . S
H20 C2 0.952 . S
H21 C10 0.948 . S
O22 Zn7 2.034 . S
O22 C17 1.246 . S
O23 Zn15 2.024 . S
O23 C17 1.249 . S
H24 C6 0.948 . S
O25 Zn15 2.039 . S
O25 C29 1.251 . S
O26 Zn7 2.025 . S
O26 C29 1.254 . S
O27 C8 1.246 . S
O27 Zn15 2.034 . S
O28 Zn7 2.024 . S
O28 C8 1.249 . S
C29 O25 1.251 . S
C29 O26 1.254 . S
H30 C3 0.949 . S
H31 C5 0.950 . S
H32 C12 0.949 . S
H33 C14 0.950 1_554 S
C34 O50 1.251 . S
C34 O52 1.254 . S
N35 C36 1.333 . S
N35 C40 1.307 . S
N35 Zn41 2.020 . S
C36 N35 1.333 . S
C36 C37 1.379 . S
C36 H54 0.952 . S
C37 C36 1.379 . S
C37 C38 1.390 . S
C37 H64 0.949 . S
C38 C37 1.390 . S
C38 C39 1.357 . S
C39 C38 1.357 . S
C39 C40 1.370 . S
C39 H65 0.950 . S
C40 N35 1.307 . S
C40 C39 1.370 . S
C40 H58 0.948 . S
Zn41 N35 2.020 . S
Zn41 O50 2.039 . S
Zn41 O56 2.034 . S
Zn41 O60 2.025 . S
Zn41 O62 2.024 . S
C42 O61 1.246 . S
C42 O62 1.249 . S
N43 C44 1.307 . S
N43 C45 1.333 . S
N43 Zn49 2.020 . S
C44 N43 1.307 . S
C44 C48 1.370 . S
C44 H55 0.948 . S
C45 N43 1.333 . S
C45 C46 1.379 . S
C45 H53 0.952 . S
C46 C45 1.379 . S
C46 C47 1.390 . S
C46 H66 0.949 . S
C47 C46 1.390 . S
C47 C48 1.357 . S
C48 C44 1.370 . S
C48 C47 1.357 . S
C48 H67 0.950 . S
Zn49 N43 2.020 . S
Zn49 O52 2.025 . S
Zn49 O57 2.024 . S
Zn49 O59 2.039 . S
Zn49 O61 2.034 . S
O50 C34 1.251 . S
O50 Zn41 2.039 . S
C51 O56 1.246 . S
C51 O57 1.249 . S
O52 C34 1.254 . S
O52 Zn49 2.025 . S
H53 C45 0.952 . S
H54 C36 0.952 . S
H55 C44 0.948 . S
O56 Zn41 2.034 . S
O56 C51 1.246 . S
O57 Zn49 2.024 . S
O57 C51 1.249 . S
H58 C40 0.948 . S
O59 Zn49 2.039 . S
O59 C63 1.251 . S
O60 Zn41 2.025 . S
O60 C63 1.254 . S
O61 C42 1.246 . S
O61 Zn49 2.034 . S
O62 Zn41 2.024 . S
O62 C42 1.249 . S
C63 O59 1.251 . S
C63 O60 1.254 . S
H64 C37 0.949 . S
H65 C39 0.950 . S
H66 C46 0.949 . S
H67 C48 0.950 . S
C68 O84 1.251 . S
C68 O86 1.254 . S
N69 C70 1.333 . S
N69 C74 1.307 . S
N69 Zn75 2.020 . S
C70 N69 1.333 . S
C70 C71 1.379 . S
C70 H88 0.952 . S
C71 C70 1.379 . S
C71 C72 1.390 . S
C71 H98 0.949 . S
C72 C71 1.390 . S
C72 C73 1.357 . S
C73 C72 1.357 . S
C73 C74 1.370 . S
C73 H99 0.950 . S
C74 N69 1.307 . S
C74 C73 1.370 . S
C74 H92 0.948 . S
Zn75 N69 2.020 . S
Zn75 O84 2.039 . S
Zn75 O90 2.034 . S
Zn75 O94 2.025 . S
Zn75 O96 2.024 . S
C76 O95 1.246 . S
C76 O96 1.249 . S
N77 C78 1.307 . S
N77 C79 1.333 . S
N77 Zn83 2.020 . S
C78 N77 1.307 . S
C78 C82 1.370 . S
C78 H89 0.948 . S
C79 N77 1.333 . S
C79 C80 1.379 . S
C79 H87 0.952 . S
C80 C79 1.379 . S
C80 C81 1.390 . S
C80 H100 0.949 . S
C81 C80 1.390 . S
C81 C82 1.357 . S
C82 C78 1.370 . S
C82 C81 1.357 . S
C82 H101 0.950 . S
Zn83 N77 2.020 . S
Zn83 O86 2.025 . S
Zn83 O91 2.024 . S
Zn83 O93 2.039 . S
Zn83 O95 2.034 . S
O84 C68 1.251 . S
O84 Zn75 2.039 . S
C85 O90 1.246 . S
C85 O91 1.249 . S
O86 C68 1.254 . S
O86 Zn83 2.025 . S
H87 C79 0.952 . S
H88 C70 0.952 . S
H89 C78 0.948 . S
O90 Zn75 2.034 . S
O90 C85 1.246 . S
O91 Zn83 2.024 . S
O91 C85 1.249 . S
H92 C74 0.948 . S
O93 Zn83 2.039 . S
O93 C97 1.251 . S
O94 Zn75 2.025 . S
O94 C97 1.254 . S
O95 C76 1.246 . S
O95 Zn83 2.034 . S
O96 Zn75 2.024 . S
O96 C76 1.249 . S
C97 O93 1.251 . S
C97 O94 1.254 . S
H98 C71 0.949 . S
H99 C73 0.950 . S
H100 C80 0.949 . S
H101 C82 0.950 . S
C102 O118 1.251 . S
C102 O120 1.254 . S
N103 C104 1.333 . S
N103 C108 1.307 . S
N103 Zn109 2.020 . S
C104 N103 1.333 . S
C104 C105 1.379 1_556 S
C104 H122 0.952 . S
C105 C104 1.379 1_554 S
C105 C106 1.390 . S
C105 H132 0.949 . S
C106 C105 1.390 . S
C106 C107 1.357 1_554 S
C107 C106 1.357 1_556 S
C107 C108 1.370 . S
C107 H133 0.950 . S
C108 N103 1.307 . S
C108 C107 1.370 . S
C108 H126 0.948 . S
Zn109 N103 2.020 . S
Zn109 O118 2.039 . S
Zn109 O124 2.034 . S
Zn109 O128 2.025 . S
Zn109 O130 2.024 . S
C110 O129 1.246 . S
C110 O130 1.249 . S
N111 C112 1.307 . S
N111 C113 1.333 . S
N111 Zn117 2.020 1_455 S
C112 N111 1.307 . S
C112 C116 1.370 . S
C112 H123 0.948 . S
C113 N111 1.333 . S
C113 C114 1.379 . S
C113 H121 0.952 1_455 S
C114 C113 1.379 . S
C114 C115 1.390 . S
C114 H134 0.949 . S
C115 C114 1.390 . S
C115 C116 1.357 . S
C116 C112 1.370 . S
C116 C115 1.357 . S
C116 H135 0.950 . S
Zn117 N111 2.020 1_655 S
Zn117 O120 2.025 . S
Zn117 O125 2.024 . S
Zn117 O127 2.039 . S
Zn117 O129 2.034 . S
O118 C102 1.251 . S
O118 Zn109 2.039 . S
C119 O124 1.246 . S
C119 O125 1.249 . S
O120 C102 1.254 . S
O120 Zn117 2.025 . S
H121 C113 0.952 1_655 S
H122 C104 0.952 . S
H123 C112 0.948 . S
O124 Zn109 2.034 . S
O124 C119 1.246 . S
O125 Zn117 2.024 . S
O125 C119 1.249 . S
H126 C108 0.948 . S
O127 Zn117 2.039 . S
O127 C131 1.251 . S
O128 Zn109 2.025 . S
O128 C131 1.254 . S
O129 C110 1.246 . S
O129 Zn117 2.034 . S
O130 Zn109 2.024 . S
O130 C110 1.249 . S
C131 O127 1.251 . S
C131 O128 1.254 . S
H132 C105 0.949 . S
H133 C107 0.950 . S
H134 C114 0.949 . S
H135 C116 0.950 . S
C136 O152 1.251 . S
C136 O154 1.254 . S
N137 C138 1.333 1_556 S
N137 C142 1.307 . S
N137 Zn143 2.020 . S
C138 N137 1.333 1_554 S
C138 C139 1.379 . S
C138 H156 0.952 . S
C139 C138 1.379 . S
C139 C140 1.390 . S
C139 H166 0.949 . S
C140 C139 1.390 . S
C140 C141 1.357 . S
C141 C140 1.357 . S
C141 C142 1.370 1_554 S
C141 H167 0.950 1_554 S
C142 N137 1.307 . S
C142 C141 1.370 1_556 S
C142 H160 0.948 . S
Zn143 N137 2.020 . S
Zn143 O152 2.039 . S
Zn143 O158 2.034 . S
Zn143 O162 2.025 . S
Zn143 O164 2.024 . S
C144 O163 1.246 . S
C144 O164 1.249 . S
N145 C146 1.307 . S
N145 C147 1.333 . S
N145 Zn151 2.020 . S
C146 N145 1.307 . S
C146 C150 1.370 . S
C146 H157 0.948 . S
C147 N145 1.333 . S
C147 C148 1.379 . S
C147 H155 0.952 . S
C148 C147 1.379 . S
C148 C149 1.390 . S
C148 H168 0.949 . S
C149 C148 1.390 . S
C149 C150 1.357 . S
C150 C146 1.370 . S
C150 C149 1.357 . S
C150 H169 0.950 . S
Zn151 N145 2.020 . S
Zn151 O154 2.025 . S
Zn151 O159 2.024 . S
Zn151 O161 2.039 . S
Zn151 O163 2.034 . S
O152 C136 1.251 . S
O152 Zn143 2.039 . S
C153 O158 1.246 . S
C153 O159 1.249 . S
O154 C136 1.254 . S
O154 Zn151 2.025 . S
H155 C147 0.952 . S
H156 C138 0.952 . S
H157 C146 0.948 . S
O158 Zn143 2.034 . S
O158 C153 1.246 . S
O159 Zn151 2.024 . S
O159 C153 1.249 . S
H160 C142 0.948 . S
O161 Zn151 2.039 . S
O161 C165 1.251 . S
O162 Zn143 2.025 . S
O162 C165 1.254 . S
O163 C144 1.246 . S
O163 Zn151 2.034 . S
O164 Zn143 2.024 . S
O164 C144 1.249 . S
C165 O161 1.251 . S
C165 O162 1.254 . S
H166 C139 0.949 . S
H167 C141 0.950 1_556 S
H168 C148 0.949 . S
H169 C150 0.950 . S
C170 O186 1.251 . S
C170 O188 1.254 . S
N171 C172 1.333 . S
N171 C176 1.307 . S
N171 Zn177 2.020 . S
C172 N171 1.333 . S
C172 C173 1.379 . S
C172 H190 0.952 . S
C173 C172 1.379 . S
C173 C174 1.390 . S
C173 H200 0.949 . S
C174 C173 1.390 . S
C174 C175 1.357 . S
C175 C174 1.357 . S
C175 C176 1.370 . S
C175 H201 0.950 . S
C176 N171 1.307 . S
C176 C175 1.370 . S
C176 H194 0.948 . S
Zn177 N171 2.020 . S
Zn177 O186 2.039 . S
Zn177 O192 2.034 . S
Zn177 O196 2.025 . S
Zn177 O198 2.024 . S
C178 O197 1.246 . S
C178 O198 1.249 . S
N179 C180 1.307 . S
N179 C181 1.333 . S
N179 Zn185 2.020 . S
C180 N179 1.307 . S
C180 C184 1.370 . S
C180 H191 0.948 . S
C181 N179 1.333 . S
C181 C182 1.379 . S
C181 H189 0.952 . S
C182 C181 1.379 . S
C182 C183 1.390 . S
C182 H202 0.949 . S
C183 C182 1.390 . S
C183 C184 1.357 . S
C184 C180 1.370 . S
C184 C183 1.357 . S
C184 H203 0.950 . S
Zn185 N179 2.020 . S
Zn185 O188 2.025 . S
Zn185 O193 2.024 . S
Zn185 O195 2.039 . S
Zn185 O197 2.034 . S
O186 C170 1.251 . S
O186 Zn177 2.039 . S
C187 O192 1.246 . S
C187 O193 1.249 . S
O188 C170 1.254 . S
O188 Zn185 2.025 . S
H189 C181 0.952 . S
H190 C172 0.952 . S
H191 C180 0.948 . S
O192 Zn177 2.034 . S
O192 C187 1.246 . S
O193 Zn185 2.024 . S
O193 C187 1.249 . S
H194 C176 0.948 . S
O195 Zn185 2.039 . S
O195 C199 1.251 . S
O196 Zn177 2.025 . S
O196 C199 1.254 . S
O197 C178 1.246 . S
O197 Zn185 2.034 . S
O198 Zn177 2.024 . S
O198 C178 1.249 . S
C199 O195 1.251 . S
C199 O196 1.254 . S
H200 C173 0.949 . S
H201 C175 0.950 . S
H202 C182 0.949 . S
H203 C184 0.950 . S
C204 O220 1.251 . S
C204 O222 1.254 . S
N205 C206 1.333 . S
N205 C210 1.307 . S
N205 Zn211 2.020 . S
C206 N205 1.333 . S
C206 C207 1.379 . S
C206 H224 0.952 . S
C207 C206 1.379 . S
C207 C208 1.390 . S
C207 H234 0.949 . S
C208 C207 1.390 . S
C208 C209 1.357 . S
C209 C208 1.357 . S
C209 C210 1.370 . S
C209 H235 0.950 . S
C210 N205 1.307 . S
C210 C209 1.370 . S
C210 H228 0.948 . S
Zn211 N205 2.020 . S
Zn211 O220 2.039 . S
Zn211 O226 2.034 . S
Zn211 O230 2.025 . S
Zn211 O232 2.024 . S
C212 O231 1.246 . S
C212 O232 1.249 . S
N213 C214 1.307 . S
N213 C215 1.333 . S
N213 Zn219 2.020 . S
C214 N213 1.307 . S
C214 C218 1.370 . S
C214 H225 0.948 . S
C215 N213 1.333 . S
C215 C216 1.379 . S
C215 H223 0.952 . S
C216 C215 1.379 . S
C216 C217 1.390 . S
C216 H236 0.949 . S
C217 C216 1.390 . S
C217 C218 1.357 . S
C218 C214 1.370 . S
C218 C217 1.357 . S
C218 H237 0.950 . S
Zn219 N213 2.020 . S
Zn219 O222 2.025 . S
Zn219 O227 2.024 . S
Zn219 O229 2.039 . S
Zn219 O231 2.034 . S
O220 C204 1.251 . S
O220 Zn211 2.039 . S
C221 O226 1.246 . S
C221 O227 1.249 . S
O222 C204 1.254 . S
O222 Zn219 2.025 . S
H223 C215 0.952 . S
H224 C206 0.952 . S
H225 C214 0.948 . S
O226 Zn211 2.034 . S
O226 C221 1.246 . S
O227 Zn219 2.024 . S
O227 C221 1.249 . S
H228 C210 0.948 . S
O229 Zn219 2.039 . S
O229 C233 1.251 . S
O230 Zn211 2.025 . S
O230 C233 1.254 . S
O231 C212 1.246 . S
O231 Zn219 2.034 . S
O232 Zn211 2.024 . S
O232 C212 1.249 . S
C233 O229 1.251 . S
C233 O230 1.254 . S
H234 C207 0.949 . S
H235 C209 0.950 . S
H236 C216 0.949 . S
H237 C218 0.950 . S
C238 O254 1.251 . S
C238 O256 1.254 . S
N239 C240 1.333 . S
N239 C244 1.307 . S
N239 Zn245 2.020 1_655 S
C240 N239 1.333 . S
C240 C241 1.379 . S
C240 H258 0.952 1_655 S
C241 C240 1.379 . S
C241 C242 1.390 . S
C241 H268 0.949 . S
C242 C241 1.390 . S
C242 C243 1.357 . S
C243 C242 1.357 . S
C243 C244 1.370 . S
C243 H269 0.950 . S
C244 N239 1.307 . S
C244 C243 1.370 . S
C244 H262 0.948 . S
Zn245 N239 2.020 1_455 S
Zn245 O254 2.039 . S
Zn245 O260 2.034 . S
Zn245 O264 2.025 . S
Zn245 O266 2.024 . S
C246 O265 1.246 . S
C246 O266 1.249 . S
N247 C248 1.307 . S
N247 C249 1.333 . S
N247 Zn253 2.020 . S
C248 N247 1.307 . S
C248 C252 1.370 . S
C248 H259 0.948 . S
C249 N247 1.333 . S
C249 C250 1.379 1_554 S
C249 H257 0.952 . S
C250 C249 1.379 1_556 S
C250 C251 1.390 . S
C250 H270 0.949 . S
C251 C250 1.390 . S
C251 C252 1.357 1_556 S
C252 C248 1.370 . S
C252 C251 1.357 1_554 S
C252 H271 0.950 . S
Zn253 N247 2.020 . S
Zn253 O256 2.025 . S
Zn253 O261 2.024 . S
Zn253 O263 2.039 . S
Zn253 O265 2.034 . S
O254 C238 1.251 . S
O254 Zn245 2.039 . S
C255 O260 1.246 . S
C255 O261 1.249 . S
O256 C238 1.254 . S
O256 Zn253 2.025 . S
H257 C249 0.952 . S
H258 C240 0.952 1_455 S
H259 C248 0.948 . S
O260 Zn245 2.034 . S
O260 C255 1.246 . S
O261 Zn253 2.024 . S
O261 C255 1.249 . S
H262 C244 0.948 . S
O263 Zn253 2.039 . S
O263 C267 1.251 . S
O264 Zn245 2.025 . S
O264 C267 1.254 . S
O265 C246 1.246 . S
O265 Zn253 2.034 . S
O266 Zn245 2.024 . S
O266 C246 1.249 . S
C267 O263 1.251 . S
C267 O264 1.254 . S
H268 C241 0.949 . S
H269 C243 0.950 . S
H270 C250 0.949 . S
H271 C252 0.950 . S
C272 O288 1.251 . S
C272 O290 1.254 . S
N273 C274 1.333 . S
N273 C278 1.307 . S
N273 Zn279 2.020 . S
C274 N273 1.333 . S
C274 C275 1.379 . S
C274 H292 0.952 . S
C275 C274 1.379 . S
C275 C276 1.390 . S
C275 H302 0.949 . S
C276 C275 1.390 . S
C276 C277 1.357 . S
C277 C276 1.357 . S
C277 C278 1.370 . S
C277 H303 0.950 . S
C278 N273 1.307 . S
C278 C277 1.370 . S
C278 H296 0.948 . S
Zn279 N273 2.020 . S
Zn279 O288 2.039 . S
Zn279 O294 2.034 . S
Zn279 O298 2.025 . S
Zn279 O300 2.024 . S
C280 O299 1.246 . S
C280 O300 1.249 . S
N281 C282 1.307 . S
N281 C283 1.333 . S
N281 Zn287 2.020 . S
C282 N281 1.307 . S
C282 C286 1.370 . S
C282 H293 0.948 . S
C283 N281 1.333 . S
C283 C284 1.379 . S
C283 H291 0.952 . S
C284 C283 1.379 . S
C284 C285 1.390 . S
C284 H304 0.949 . S
C285 C284 1.390 . S
C285 C286 1.357 . S
C286 C282 1.370 . S
C286 C285 1.357 . S
C286 H305 0.950 . S
Zn287 N281 2.020 . S
Zn287 O290 2.025 . S
Zn287 O295 2.024 . S
Zn287 O297 2.039 . S
Zn287 O299 2.034 . S
O288 C272 1.251 . S
O288 Zn279 2.039 . S
C289 O294 1.246 . S
C289 O295 1.249 . S
O290 C272 1.254 . S
O290 Zn287 2.025 . S
H291 C283 0.952 . S
H292 C274 0.952 . S
H293 C282 0.948 . S
O294 Zn279 2.034 . S
O294 C289 1.246 . S
O295 Zn287 2.024 . S
O295 C289 1.249 . S
H296 C278 0.948 . S
O297 Zn287 2.039 . S
O297 C301 1.251 . S
O298 Zn279 2.025 . S
O298 C301 1.254 . S
O299 C280 1.246 . S
O299 Zn287 2.034 . S
O300 Zn279 2.024 . S
O300 C280 1.249 . S
C301 O297 1.251 . S
C301 O298 1.254 . S
H302 C275 0.949 . S
H303 C277 0.950 . S
H304 C284 0.949 . S
H305 C286 0.950 . S
C306 O322 1.251 . S
C306 O324 1.254 . S
N307 C308 1.333 . S
N307 C312 1.307 . S
N307 Zn313 2.020 . S
C308 N307 1.333 . S
C308 C309 1.379 1_556 S
C308 H326 0.952 . S
C309 C308 1.379 1_554 S
C309 C310 1.390 . S
C309 H336 0.949 . S
C310 C309 1.390 . S
C310 C311 1.357 1_554 S
C311 C310 1.357 1_556 S
C311 C312 1.370 . S
C311 H337 0.950 . S
C312 N307 1.307 . S
C312 C311 1.370 . S
C312 H330 0.948 . S
Zn313 N307 2.020 . S
Zn313 O322 2.039 . S
Zn313 O328 2.034 . S
Zn313 O332 2.025 . S
Zn313 O334 2.024 . S
C314 O333 1.246 . S
C314 O334 1.249 . S
N315 C316 1.307 . S
N315 C317 1.333 . S
N315 Zn321 2.020 1_655 S
C316 N315 1.307 . S
C316 C320 1.370 . S
C316 H327 0.948 . S
C317 N315 1.333 . S
C317 C318 1.379 . S
C317 H325 0.952 1_655 S
C318 C317 1.379 . S
C318 C319 1.390 . S
C318 H338 0.949 . S
C319 C318 1.390 . S
C319 C320 1.357 . S
C320 C316 1.370 . S
C320 C319 1.357 . S
C320 H339 0.950 . S
Zn321 N315 2.020 1_455 S
Zn321 O324 2.025 . S
Zn321 O329 2.024 . S
Zn321 O331 2.039 . S
Zn321 O333 2.034 . S
O322 C306 1.251 . S
O322 Zn313 2.039 . S
C323 O328 1.246 . S
C323 O329 1.249 . S
O324 C306 1.254 . S
O324 Zn321 2.025 . S
H325 C317 0.952 1_455 S
H326 C308 0.952 . S
H327 C316 0.948 . S
O328 Zn313 2.034 . S
O328 C323 1.246 . S
O329 Zn321 2.024 . S
O329 C323 1.249 . S
H330 C312 0.948 . S
O331 Zn321 2.039 . S
O331 C335 1.251 . S
O332 Zn313 2.025 . S
O332 C335 1.254 . S
O333 C314 1.246 . S
O333 Zn321 2.034 . S
O334 Zn313 2.024 . S
O334 C314 1.249 . S
C335 O331 1.251 . S
C335 O332 1.254 . S
H336 C309 0.949 . S
H337 C311 0.950 . S
H338 C318 0.949 . S
H339 C320 0.950 . S
C340 O356 1.251 . S
C340 O358 1.254 . S
N341 C342 1.333 . S
N341 C346 1.307 . S
N341 Zn347 2.020 . S
C342 N341 1.333 . S
C342 C343 1.379 . S
C342 H360 0.952 . S
C343 C342 1.379 . S
C343 C344 1.390 . S
C343 H370 0.949 . S
C344 C343 1.390 . S
C344 C345 1.357 . S
C345 C344 1.357 . S
C345 C346 1.370 . S
C345 H371 0.950 . S
C346 N341 1.307 . S
C346 C345 1.370 . S
C346 H364 0.948 . S
Zn347 N341 2.020 . S
Zn347 O356 2.039 . S
Zn347 O362 2.034 . S
Zn347 O366 2.025 . S
Zn347 O368 2.024 . S
C348 O367 1.246 . S
C348 O368 1.249 . S
N349 C350 1.307 . S
N349 C351 1.333 1_554 S
N349 Zn355 2.020 . S
C350 N349 1.307 . S
C350 C354 1.370 1_554 S
C350 H361 0.948 . S
C351 N349 1.333 1_556 S
C351 C352 1.379 . S
C351 H359 0.952 . S
C352 C351 1.379 . S
C352 C353 1.390 . S
C352 H372 0.949 . S
C353 C352 1.390 . S
C353 C354 1.357 . S
C354 C350 1.370 1_556 S
C354 C353 1.357 . S
C354 H373 0.950 1_556 S
Zn355 N349 2.020 . S
Zn355 O358 2.025 . S
Zn355 O363 2.024 . S
Zn355 O365 2.039 . S
Zn355 O367 2.034 . S
O356 C340 1.251 . S
O356 Zn347 2.039 . S
C357 O362 1.246 . S
C357 O363 1.249 . S
O358 C340 1.254 . S
O358 Zn355 2.025 . S
H359 C351 0.952 . S
H360 C342 0.952 . S
H361 C350 0.948 . S
O362 Zn347 2.034 . S
O362 C357 1.246 . S
O363 Zn355 2.024 . S
O363 C357 1.249 . S
H364 C346 0.948 . S
O365 Zn355 2.039 . S
O365 C369 1.251 . S
O366 Zn347 2.025 . S
O366 C369 1.254 . S
O367 C348 1.246 . S
O367 Zn355 2.034 . S
O368 Zn347 2.024 . S
O368 C348 1.249 . S
C369 O365 1.251 . S
C369 O366 1.254 . S
H370 C343 0.949 . S
H371 C345 0.950 . S
H372 C352 0.949 . S
H373 C354 0.950 1_554 S
C374 O390 1.251 . S
C374 O392 1.254 . S
N375 C376 1.333 . S
N375 C380 1.307 . S
N375 Zn381 2.020 . S
C376 N375 1.333 . S
C376 C377 1.379 . S
C376 H394 0.952 . S
C377 C376 1.379 . S
C377 C378 1.390 . S
C377 H404 0.949 . S
C378 C377 1.390 . S
C378 C379 1.357 . S
C379 C378 1.357 . S
C379 C380 1.370 . S
C379 H405 0.950 . S
C380 N375 1.307 . S
C380 C379 1.370 . S
C380 H398 0.948 . S
Zn381 N375 2.020 . S
Zn381 O390 2.039 . S
Zn381 O396 2.034 . S
Zn381 O400 2.025 . S
Zn381 O402 2.024 . S
C382 O401 1.246 . S
C382 O402 1.249 . S
N383 C384 1.307 . S
N383 C385 1.333 . S
N383 Zn389 2.020 . S
C384 N383 1.307 . S
C384 C388 1.370 . S
C384 H395 0.948 . S
C385 N383 1.333 . S
C385 C386 1.379 . S
C385 H393 0.952 . S
C386 C385 1.379 . S
C386 C387 1.390 . S
C386 H406 0.949 . S
C387 C386 1.390 . S
C387 C388 1.357 . S
C388 C384 1.370 . S
C388 C387 1.357 . S
C388 H407 0.950 . S
Zn389 N383 2.020 . S
Zn389 O392 2.025 . S
Zn389 O397 2.024 . S
Zn389 O399 2.039 . S
Zn389 O401 2.034 . S
O390 C374 1.251 . S
O390 Zn381 2.039 . S
C391 O396 1.246 . S
C391 O397 1.249 . S
O392 C374 1.254 . S
O392 Zn389 2.025 . S
H393 C385 0.952 . S
H394 C376 0.952 . S
H395 C384 0.948 . S
O396 Zn381 2.034 . S
O396 C391 1.246 . S
O397 Zn389 2.024 . S
O397 C391 1.249 . S
H398 C380 0.948 . S
O399 Zn389 2.039 . S
O399 C403 1.251 . S
O400 Zn381 2.025 . S
O400 C403 1.254 . S
O401 C382 1.246 . S
O401 Zn389 2.034 . S
O402 Zn381 2.024 . S
O402 C382 1.249 . S
C403 O399 1.251 . S
C403 O400 1.254 . S
H404 C377 0.949 . S
H405 C379 0.950 . S
H406 C386 0.949 . S
H407 C388 0.950 . S
C408 O424 1.251 . S
C408 O426 1.254 . S
N409 C410 1.333 . S
N409 C414 1.307 . S
N409 Zn415 2.020 . S
C410 N409 1.333 . S
C410 C411 1.379 . S
C410 H428 0.952 . S
C411 C410 1.379 . S
C411 C412 1.390 . S
C411 H438 0.949 . S
C412 C411 1.390 . S
C412 C413 1.357 . S
C413 C412 1.357 . S
C413 C414 1.370 . S
C413 H439 0.950 . S
C414 N409 1.307 . S
C414 C413 1.370 . S
C414 H432 0.948 . S
Zn415 N409 2.020 . S
Zn415 O424 2.039 . S
Zn415 O430 2.034 . S
Zn415 O434 2.025 . S
Zn415 O436 2.024 . S
C416 O435 1.246 . S
C416 O436 1.249 . S
N417 C418 1.307 . S
N417 C419 1.333 . S
N417 Zn423 2.020 . S
C418 N417 1.307 . S
C418 C422 1.370 . S
C418 H429 0.948 . S
C419 N417 1.333 . S
C419 C420 1.379 . S
C419 H427 0.952 . S
C420 C419 1.379 . S
C420 C421 1.390 . S
C420 H440 0.949 . S
C421 C420 1.390 . S
C421 C422 1.357 . S
C422 C418 1.370 . S
C422 C421 1.357 . S
C422 H441 0.950 . S
Zn423 N417 2.020 . S
Zn423 O426 2.025 . S
Zn423 O431 2.024 . S
Zn423 O433 2.039 . S
Zn423 O435 2.034 . S
O424 C408 1.251 . S
O424 Zn415 2.039 . S
C425 O430 1.246 . S
C425 O431 1.249 . S
O426 C408 1.254 . S
O426 Zn423 2.025 . S
H427 C419 0.952 . S
H428 C410 0.952 . S
H429 C418 0.948 . S
O430 Zn415 2.034 . S
O430 C425 1.246 . S
O431 Zn423 2.024 . S
O431 C425 1.249 . S
H432 C414 0.948 . S
O433 Zn423 2.039 . S
O433 C437 1.251 . S
O434 Zn415 2.025 . S
O434 C437 1.254 . S
O435 C416 1.246 . S
O435 Zn423 2.034 . S
O436 Zn415 2.024 . S
O436 C416 1.249 . S
C437 O433 1.251 . S
C437 O434 1.254 . S
H438 C411 0.949 . S
H439 C413 0.950 . S
H440 C420 0.949 . S
H441 C422 0.950 . S
C442 O458 1.251 . S
C442 O460 1.254 . S
N443 C444 1.333 . S
N443 C448 1.307 . S
N443 Zn449 2.020 1_455 S
C444 N443 1.333 . S
C444 C445 1.379 . S
C444 H462 0.952 1_455 S
C445 C444 1.379 . S
C445 C446 1.390 . S
C445 H472 0.949 . S
C446 C445 1.390 . S
C446 C447 1.357 . S
C447 C446 1.357 . S
C447 C448 1.370 . S
C447 H473 0.950 . S
C448 N443 1.307 . S
C448 C447 1.370 . S
C448 H466 0.948 . S
Zn449 N443 2.020 1_655 S
Zn449 O458 2.039 . S
Zn449 O464 2.034 . S
Zn449 O468 2.025 . S
Zn449 O470 2.024 . S
C450 O469 1.246 . S
C450 O470 1.249 . S
N451 C452 1.307 . S
N451 C453 1.333 . S
N451 Zn457 2.020 . S
C452 N451 1.307 . S
C452 C456 1.370 . S
C452 H463 0.948 . S
C453 N451 1.333 . S
C453 C454 1.379 1_554 S
C453 H461 0.952 . S
C454 C453 1.379 1_556 S
C454 C455 1.390 . S
C454 H474 0.949 . S
C455 C454 1.390 . S
C455 C456 1.357 1_556 S
C456 C452 1.370 . S
C456 C455 1.357 1_554 S
C456 H475 0.950 . S
Zn457 N451 2.020 . S
Zn457 O460 2.025 . S
Zn457 O465 2.024 . S
Zn457 O467 2.039 . S
Zn457 O469 2.034 . S
O458 C442 1.251 . S
O458 Zn449 2.039 . S
C459 O464 1.246 . S
C459 O465 1.249 . S
O460 C442 1.254 . S
O460 Zn457 2.025 . S
H461 C453 0.952 . S
H462 C444 0.952 1_655 S
H463 C452 0.948 . S
O464 Zn449 2.034 . S
O464 C459 1.246 . S
O465 Zn457 2.024 . S
O465 C459 1.249 . S
H466 C448 0.948 . S
O467 Zn457 2.039 . S
O467 C471 1.251 . S
O468 Zn449 2.025 . S
O468 C471 1.254 . S
O469 C450 1.246 . S
O469 Zn457 2.034 . S
O470 Zn449 2.024 . S
O470 C450 1.249 . S
C471 O467 1.251 . S
C471 O468 1.254 . S
H472 C445 0.949 . S
H473 C447 0.950 . S
H474 C454 0.949 . S
H475 C456 0.950 . S
C476 O492 1.251 . S
C476 O494 1.254 . S
N477 C478 1.333 1_556 S
N477 C482 1.307 . S
N477 Zn483 2.020 . S
C478 N477 1.333 1_554 S
C478 C479 1.379 . S
C478 H496 0.952 . S
C479 C478 1.379 . S
C479 C480 1.390 . S
C479 H506 0.949 . S
C480 C479 1.390 . S
C480 C481 1.357 . S
C481 C480 1.357 . S
C481 C482 1.370 1_554 S
C481 H507 0.950 1_554 S
C482 N477 1.307 . S
C482 C481 1.370 1_556 S
C482 H500 0.948 . S
Zn483 N477 2.020 . S
Zn483 O492 2.039 . S
Zn483 O498 2.034 . S
Zn483 O502 2.025 . S
Zn483 O504 2.024 . S
C484 O503 1.246 . S
C484 O504 1.249 . S
N485 C486 1.307 . S
N485 C487 1.333 . S
N485 Zn491 2.020 . S
C486 N485 1.307 . S
C486 C490 1.370 . S
C486 H497 0.948 . S
C487 N485 1.333 . S
C487 C488 1.379 . S
C487 H495 0.952 . S
C488 C487 1.379 . S
C488 C489 1.390 . S
C488 H508 0.949 . S
C489 C488 1.390 . S
C489 C490 1.357 . S
C490 C486 1.370 . S
C490 C489 1.357 . S
C490 H509 0.950 . S
Zn491 N485 2.020 . S
Zn491 O494 2.025 . S
Zn491 O499 2.024 . S
Zn491 O501 2.039 . S
Zn491 O503 2.034 . S
O492 C476 1.251 . S
O492 Zn483 2.039 . S
C493 O498 1.246 . S
C493 O499 1.249 . S
O494 C476 1.254 . S
O494 Zn491 2.025 . S
H495 C487 0.952 . S
H496 C478 0.952 . S
H497 C486 0.948 . S
O498 Zn483 2.034 . S
O498 C493 1.246 . S
O499 Zn491 2.024 . S
O499 C493 1.249 . S
H500 C482 0.948 . S
O501 Zn491 2.039 . S
O501 C505 1.251 . S
O502 Zn483 2.025 . S
O502 C505 1.254 . S
O503 C484 1.246 . S
O503 Zn491 2.034 . S
O504 Zn483 2.024 . S
O504 C484 1.249 . S
C505 O501 1.251 . S
C505 O502 1.254 . S
H506 C479 0.949 . S
H507 C481 0.950 1_556 S
H508 C488 0.949 . S
H509 C490 0.950 . S
C510 O526 1.251 . S
C510 O528 1.254 . S
N511 C512 1.333 . S
N511 C516 1.307 . S
N511 Zn517 2.020 . S
C512 N511 1.333 . S
C512 C513 1.379 . S
C512 H530 0.952 . S
C513 C512 1.379 . S
C513 C514 1.390 . S
C513 H540 0.949 . S
C514 C513 1.390 . S
C514 C515 1.357 . S
C515 C514 1.357 . S
C515 C516 1.370 . S
C515 H541 0.950 . S
C516 N511 1.307 . S
C516 C515 1.370 . S
C516 H534 0.948 . S
Zn517 N511 2.020 . S
Zn517 O526 2.039 . S
Zn517 O532 2.034 . S
Zn517 O536 2.025 . S
Zn517 O538 2.024 . S
C518 O537 1.246 . S
C518 O538 1.249 . S
N519 C520 1.307 . S
N519 C521 1.333 . S
N519 Zn525 2.020 . S
C520 N519 1.307 . S
C520 C524 1.370 . S
C520 H531 0.948 . S
C521 N519 1.333 . S
C521 C522 1.379 . S
C521 H529 0.952 . S
C522 C521 1.379 . S
C522 C523 1.390 . S
C522 H542 0.949 . S
C523 C522 1.390 . S
C523 C524 1.357 . S
C524 C520 1.370 . S
C524 C523 1.357 . S
C524 H543 0.950 . S
Zn525 N519 2.020 . S
Zn525 O528 2.025 . S
Zn525 O533 2.024 . S
Zn525 O535 2.039 . S
Zn525 O537 2.034 . S
O526 C510 1.251 . S
O526 Zn517 2.039 . S
C527 O532 1.246 . S
C527 O533 1.249 . S
O528 C510 1.254 . S
O528 Zn525 2.025 . S
H529 C521 0.952 . S
H530 C512 0.952 . S
H531 C520 0.948 . S
O532 Zn517 2.034 . S
O532 C527 1.246 . S
O533 Zn525 2.024 . S
O533 C527 1.249 . S
H534 C516 0.948 . S
O535 Zn525 2.039 . S
O535 C539 1.251 . S
O536 Zn517 2.025 . S
O536 C539 1.254 . S
O537 C518 1.246 . S
O537 Zn525 2.034 . S
O538 Zn517 2.024 . S
O538 C518 1.249 . S
C539 O535 1.251 . S
C539 O536 1.254 . S
H540 C513 0.949 . S
H541 C515 0.950 . S
H542 C522 0.949 . S
H543 C524 0.950 . S
C544 C545 1.387 . S
C544 H548 0.950 . S
C544 C553 1.390 . S
C545 C544 1.387 . S
C545 C547 1.387 . S
H546 C553 0.950 . S
C547 C545 1.387 . S
C547 C549 1.390 . S
C547 H551 0.950 . S
H548 C544 0.950 . S
C549 C547 1.390 . S
C549 C550 1.387 . S
C549 H552 0.950 . S
C550 C549 1.387 . S
C550 C553 1.387 . S
H551 C547 0.950 . S
H552 C549 0.950 . S
C553 C544 1.390 . S
C553 H546 0.950 . S
C553 C550 1.387 . S
C554 C555 1.387 . S
C554 H558 0.950 . S
C554 C563 1.390 . S
C555 C554 1.387 . S
C555 C557 1.387 . S
H556 C563 0.950 . S
C557 C555 1.387 . S
C557 C559 1.390 . S
C557 H561 0.950 . S
H558 C554 0.950 . S
C559 C557 1.390 . S
C559 C560 1.387 . S
C559 H562 0.950 . S
C560 C559 1.387 . S
C560 C563 1.387 . S
H561 C557 0.950 . S
H562 C559 0.950 . S
C563 C554 1.390 . S
C563 H556 0.950 . S
C563 C560 1.387 . S
C564 C565 1.387 . S
C564 H568 0.950 . S
C564 C573 1.390 1_455 S
C565 C564 1.387 . S
C565 C567 1.387 . S
H566 C573 0.950 . S
C567 C565 1.387 . S
C567 C569 1.390 1_455 S
C567 H571 0.950 . S
H568 C564 0.950 . S
C569 C567 1.390 1_655 S
C569 C570 1.387 . S
C569 H572 0.950 . S
C570 C569 1.387 . S
C570 C573 1.387 . S
H571 C567 0.950 . S
H572 C569 0.950 . S
C573 C564 1.390 1_655 S
C573 H566 0.950 . S
C573 C570 1.387 . S
C574 C575 1.387 . S
C574 H578 0.950 . S
C574 C583 1.390 1_655 S
C575 C574 1.387 . S
C575 C577 1.387 . S
H576 C583 0.950 . S
C577 C575 1.387 . S
C577 C579 1.390 1_655 S
C577 H581 0.950 . S
H578 C574 0.950 . S
C579 C577 1.390 1_455 S
C579 C580 1.387 . S
C579 H582 0.950 . S
C580 C579 1.387 . S
C580 C583 1.387 . S
H581 C577 0.950 . S
H582 C579 0.950 . S
C583 C574 1.390 1_455 S
C583 H576 0.950 . S
C583 C580 1.387 . S
C584 C585 1.387 . S
C584 H588 0.950 . S
C584 C593 1.390 . S
C585 C584 1.387 . S
C585 C587 1.387 . S
H586 C593 0.950 . S
C587 C585 1.387 . S
C587 C589 1.390 . S
C587 H591 0.950 . S
H588 C584 0.950 . S
C589 C587 1.390 . S
C589 C590 1.387 . S
C589 H592 0.950 . S
C590 C589 1.387 . S
C590 C593 1.387 . S
H591 C587 0.950 . S
H592 C589 0.950 . S
C593 C584 1.390 . S
C593 H586 0.950 . S
C593 C590 1.387 . S
C594 C595 1.387 . S
C594 H598 0.950 . S
C594 C603 1.390 . S
C595 C594 1.387 . S
C595 C597 1.387 . S
H596 C603 0.950 . S
C597 C595 1.387 . S
C597 C599 1.390 . S
C597 H601 0.950 . S
H598 C594 0.950 . S
C599 C597 1.390 . S
C599 C600 1.387 . S
C599 H602 0.950 . S
C600 C599 1.387 . S
C600 C603 1.387 . S
H601 C597 0.950 . S
H602 C599 0.950 . S
C603 C594 1.390 . S
C603 H596 0.950 . S
C603 C600 1.387 . S
C604 C605 1.387 . S
C604 H608 0.950 . S
C604 C613 1.390 1_655 S
C605 C604 1.387 . S
C605 C607 1.387 . S
H606 C613 0.950 . S
C607 C605 1.387 . S
C607 C609 1.390 1_655 S
C607 H611 0.950 . S
H608 C604 0.950 . S
C609 C607 1.390 1_455 S
C609 C610 1.387 . S
C609 H612 0.950 . S
C610 C609 1.387 . S
C610 C613 1.387 . S
H611 C607 0.950 . S
H612 C609 0.950 . S
C613 C604 1.390 1_455 S
C613 H606 0.950 . S
C613 C610 1.387 . S
C614 C615 1.387 . S
C614 H618 0.950 . S
C614 C623 1.390 1_455 S
C615 C614 1.387 . S
C615 C617 1.387 . S
H616 C623 0.950 . S
C617 C615 1.387 . S
C617 C619 1.390 1_455 S
C617 H621 0.950 . S
H618 C614 0.950 . S
C619 C617 1.390 1_655 S
C619 C620 1.387 . S
C619 H622 0.950 . S
C620 C619 1.387 . S
C620 C623 1.387 . S
H621 C617 0.950 . S
H622 C619 0.950 . S
C623 C614 1.390 1_655 S
C623 H616 0.950 . S
C623 C620 1.387 . S
C624 C625 1.387 . S
C624 H628 0.950 . S
C624 C633 1.390 . S
C625 C624 1.387 . S
C625 C627 1.387 1_554 S
H626 C633 0.950 . S
C627 C625 1.387 1_556 S
C627 C629 1.390 . S
C627 H631 0.950 . S
H628 C624 0.950 . S
C629 C627 1.390 . S
C629 C630 1.387 1_556 S
C629 H632 0.950 . S
C630 C629 1.387 1_554 S
C630 C633 1.387 . S
H631 C627 0.950 . S
H632 C629 0.950 . S
C633 C624 1.390 . S
C633 H626 0.950 . S
C633 C630 1.387 . S
C634 C635 1.387 . S
C634 H638 0.950 . S
C634 C643 1.390 . S
C635 C634 1.387 . S
C635 C637 1.387 . S
H636 C643 0.950 . S
C637 C635 1.387 . S
C637 C639 1.390 . S
C637 H641 0.950 . S
H638 C634 0.950 . S
C639 C637 1.390 . S
C639 C640 1.387 . S
C639 H642 0.950 . S
C640 C639 1.387 . S
C640 C643 1.387 . S
H641 C637 0.950 . S
H642 C639 0.950 . S
C643 C634 1.390 . S
C643 H636 0.950 . S
C643 C640 1.387 . S
C644 C645 1.387 . S
C644 H648 0.950 . S
C644 C653 1.390 . S
C645 C644 1.387 . S
C645 C647 1.387 . S
H646 C653 0.950 . S
C647 C645 1.387 . S
C647 C649 1.390 . S
C647 H651 0.950 . S
H648 C644 0.950 . S
C649 C647 1.390 . S
C649 C650 1.387 . S
C649 H652 0.950 . S
C650 C649 1.387 . S
C650 C653 1.387 . S
H651 C647 0.950 . S
H652 C649 0.950 . S
C653 C644 1.390 . S
C653 H646 0.950 . S
C653 C650 1.387 . S
C654 C655 1.387 . S
C654 H658 0.950 . S
C654 C663 1.390 . S
C655 C654 1.387 . S
C655 C657 1.387 . S
H656 C663 0.950 . S
C657 C655 1.387 . S
C657 C659 1.390 . S
C657 H661 0.950 . S
H658 C654 0.950 . S
C659 C657 1.390 . S
C659 C660 1.387 . S
C659 H662 0.950 . S
C660 C659 1.387 . S
C660 C663 1.387 . S
H661 C657 0.950 . S
H662 C659 0.950 . S
C663 C654 1.390 . S
C663 H656 0.950 . S
C663 C660 1.387 . S
C664 C665 1.387 1_554 S
C664 H668 0.950 . S
C664 C673 1.390 . S
C665 C664 1.387 1_556 S
C665 C667 1.387 . S
H666 C673 0.950 . S
C667 C665 1.387 . S
C667 C669 1.390 . S
C667 H671 0.950 . S
H668 C664 0.950 . S
C669 C667 1.390 . S
C669 C670 1.387 . S
C669 H672 0.950 . S
C670 C669 1.387 . S
C670 C673 1.387 1_556 S
H671 C667 0.950 . S
H672 C669 0.950 . S
C673 C664 1.390 . S
C673 H666 0.950 . S
C673 C670 1.387 1_554 S
C674 C675 1.387 . S
C674 H678 0.950 . S
C674 C683 1.390 . S
C675 C674 1.387 . S
C675 C677 1.387 . S
H676 C683 0.950 . S
C677 C675 1.387 . S
C677 C679 1.390 . S
C677 H681 0.950 . S
H678 C674 0.950 . S
C679 C677 1.390 . S
C679 C680 1.387 . S
C679 H682 0.950 . S
C680 C679 1.387 . S
C680 C683 1.387 . S
H681 C677 0.950 . S
H682 C679 0.950 . S
C683 C674 1.390 . S
C683 H676 0.950 . S
C683 C680 1.387 . S
C684 C685 1.387 . S
C684 H688 0.950 . S
C684 C693 1.390 . S
C685 C684 1.387 . S
C685 C687 1.387 . S
H686 C693 0.950 . S
C687 C685 1.387 . S
C687 C689 1.390 . S
C687 H691 0.950 . S
H688 C684 0.950 . S
C689 C687 1.390 . S
C689 C690 1.387 . S
C689 H692 0.950 . S
C690 C689 1.387 . S
C690 C693 1.387 . S
H691 C687 0.950 . S
H692 C689 0.950 . S
C693 C684 1.390 . S
C693 H686 0.950 . S
C693 C690 1.387 . S
C694 C695 1.387 . S
C694 H698 0.950 . S
C694 C703 1.390 . S
C695 C694 1.387 . S
C695 C697 1.387 . S
H696 C703 0.950 . S
C697 C695 1.387 . S
C697 C699 1.390 . S
C697 H701 0.950 . S
H698 C694 0.950 . S
C699 C697 1.390 . S
C699 C700 1.387 . S
C699 H702 0.950 . S
C700 C699 1.387 . S
C700 C703 1.387 . S
H701 C697 0.950 . S
H702 C699 0.950 . S
C703 C694 1.390 . S
C703 H696 0.950 . S
C703 C700 1.387 . S
C704 C705 1.387 . S
C704 H708 0.950 . S
C704 C713 1.390 . S
C705 C704 1.387 . S
C705 C707 1.387 . S
H706 C713 0.950 . S
C707 C705 1.387 . S
C707 C709 1.390 . S
C707 H711 0.950 . S
H708 C704 0.950 . S
C709 C707 1.390 . S
C709 C710 1.387 . S
C709 H712 0.950 . S
C710 C709 1.387 . S
C710 C713 1.387 . S
H711 C707 0.950 . S
H712 C709 0.950 . S
C713 C704 1.390 . S
C713 H706 0.950 . S
C713 C710 1.387 . S
C714 C715 1.387 . S
C714 H718 0.950 . S
C714 C723 1.390 1_545 S
C715 C714 1.387 . S
C715 C717 1.387 . S
H716 C723 0.950 . S
C717 C715 1.387 . S
C717 C719 1.390 1_545 S
C717 H721 0.950 . S
H718 C714 0.950 . S
C719 C717 1.390 1_565 S
C719 C720 1.387 . S
C719 H722 0.950 . S
C720 C719 1.387 . S
C720 C723 1.387 . S
H721 C717 0.950 . S
H722 C719 0.950 . S
C723 C714 1.390 1_565 S
C723 H716 0.950 . S
C723 C720 1.387 . S
C724 C725 1.387 1_556 S
C724 H728 0.950 . S
C724 C733 1.390 . S
C725 C724 1.387 1_554 S
C725 C727 1.387 . S
H726 C733 0.950 . S
C727 C725 1.387 . S
C727 C729 1.390 . S
C727 H731 0.950 . S
H728 C724 0.950 . S
C729 C727 1.390 . S
C729 C730 1.387 . S
C729 H732 0.950 . S
C730 C729 1.387 . S
C730 C733 1.387 1_554 S
H731 C727 0.950 . S
H732 C729 0.950 . S
C733 C724 1.390 . S
C733 H726 0.950 . S
C733 C730 1.387 1_556 S
C734 C735 1.387 . S
C734 H738 0.950 . S
C734 C743 1.390 1_565 S
C735 C734 1.387 . S
C735 C737 1.366 1_565 S
H736 C743 0.950 . S
C737 C735 1.366 1_545 S
C737 C739 1.417 . S
C737 H741 0.945 1_545 S
H738 C734 0.950 . S
C739 C737 1.417 . S
C739 C740 1.387 . S
C739 H742 0.950 . S
C740 C739 1.387 . S
C740 C743 1.387 . S
H741 C737 0.945 1_565 S
H742 C739 0.950 . S
C743 C734 1.390 1_545 S
C743 H736 0.950 . S
C743 C740 1.387 . S
C744 C745 1.387 . S
C744 H748 0.950 . S
C744 C753 1.390 . S
C745 C744 1.387 . S
C745 C747 1.387 . S
H746 C753 0.950 . S
C747 C745 1.387 . S
C747 C749 1.390 . S
C747 H751 0.950 . S
H748 C744 0.950 . S
C749 C747 1.390 . S
C749 C750 1.387 . S
C749 H752 0.950 . S
C750 C749 1.387 . S
C750 C753 1.387 . S
H751 C747 0.950 . S
H752 C749 0.950 . S
C753 C744 1.390 . S
C753 H746 0.950 . S
C753 C750 1.387 . S
C754 C755 1.387 . S
C754 H758 0.950 . S
C754 C763 1.390 1_545 S
C755 C754 1.387 . S
C755 C757 1.387 . S
H756 C763 0.950 . S
C757 C755 1.387 . S
C757 C759 1.390 1_545 S
C757 H761 0.950 . S
H758 C754 0.950 . S
C759 C757 1.390 1_565 S
C759 C760 1.387 . S
C759 H762 0.950 . S
C760 C759 1.387 . S
C760 C763 1.387 . S
H761 C757 0.950 . S
H762 C759 0.950 . S
C763 C754 1.390 1_565 S
C763 H756 0.950 . S
C763 C760 1.387 . S
C764 C765 1.387 . S
C764 H768 0.950 . S
C764 C773 1.390 . S
C765 C764 1.387 . S
C765 C767 1.387 1_556 S
H766 C773 0.950 . S
C767 C765 1.387 1_554 S
C767 C769 1.390 . S
C767 H771 0.950 . S
H768 C764 0.950 . S
C769 C767 1.390 . S
C769 C770 1.387 1_554 S
C769 H772 0.950 . S
C770 C769 1.387 1_556 S
C770 C773 1.387 . S
H771 C767 0.950 . S
H772 C769 0.950 . S
C773 C764 1.390 . S
C773 H766 0.950 . S
C773 C770 1.387 . S
C774 C775 1.387 . S
C774 H778 0.950 . S
C774 C783 1.390 1_545 S
C775 C774 1.387 . S
C775 C777 1.387 . S
H776 C783 0.950 . S
C777 C775 1.387 . S
C777 C779 1.390 1_545 S
C777 H781 0.950 . S
H778 C774 0.950 . S
C779 C777 1.390 1_565 S
C779 C780 1.387 . S
C779 H782 0.950 . S
C780 C779 1.387 . S
C780 C783 1.387 . S
H781 C777 0.950 . S
H782 C779 0.950 . S
C783 C774 1.390 1_565 S
C783 H776 0.950 . S
C783 C780 1.387 . S
C784 C785 1.387 . S
C784 H788 0.950 . S
C784 C793 1.390 . S
C785 C784 1.387 . S
C785 C787 1.387 . S
H786 C793 0.950 . S
C787 C785 1.387 . S
C787 C789 1.390 . S
C787 H791 0.950 . S
H788 C784 0.950 . S
C789 C787 1.390 . S
C789 C790 1.387 . S
C789 H792 0.950 . S
C790 C789 1.387 . S
C790 C793 1.387 . S
H791 C787 0.950 . S
H792 C789 0.950 . S
C793 C784 1.390 . S
C793 H786 0.950 . S
C793 C790 1.387 . S
C794 C795 1.387 . S
C794 H798 0.950 . S
C794 C803 1.390 . S
C795 C794 1.387 . S
C795 C797 1.387 . S
H796 C803 0.950 . S
C797 C795 1.387 . S
C797 C799 1.390 . S
C797 H801 0.950 . S
H798 C794 0.950 . S
C799 C797 1.390 . S
C799 C800 1.387 . S
C799 H802 0.950 . S
C800 C799 1.387 . S
C800 C803 1.387 . S
H801 C797 0.950 . S
H802 C799 0.950 . S
C803 C794 1.390 . S
C803 H796 0.950 . S
C803 C800 1.387 . S
C804 C805 1.387 . S
C804 H808 0.950 . S
C804 C813 1.390 . S
C805 C804 1.387 . S
C805 C807 1.387 . S
H806 C813 0.950 . S
C807 C805 1.387 . S
C807 C809 1.390 . S
C807 H811 0.950 . S
H808 C804 0.950 . S
C809 C807 1.390 . S
C809 C810 1.387 . S
C809 H812 0.950 . S
C810 C809 1.387 . S
C810 C813 1.387 . S
H811 C807 0.950 . S
H812 C809 0.950 . S
C813 C804 1.390 . S
C813 H806 0.950 . S
C813 C810 1.387 . S
C814 C815 1.387 . S
C814 H818 0.950 . S
C814 C823 1.390 . S
C815 C814 1.387 . S
C815 C817 1.387 . S
H816 C823 0.950 . S
C817 C815 1.387 . S
C817 C819 1.390 . S
C817 H821 0.950 . S
H818 C814 0.950 . S
C819 C817 1.390 . S
C819 C820 1.387 . S
C819 H822 0.950 . S
C820 C819 1.387 . S
C820 C823 1.387 . S
H821 C817 0.950 . S
H822 C819 0.950 . S
C823 C814 1.390 . S
C823 H816 0.950 . S
C823 C820 1.387 . S
C824 C825 1.387 . S
C824 H828 0.950 . S
C824 C833 1.390 . S
C825 C824 1.387 . S
C825 C827 1.387 . S
H826 C833 0.950 . S
C827 C825 1.387 . S
C827 C829 1.390 . S
C827 H831 0.950 . S
H828 C824 0.950 . S
C829 C827 1.390 . S
C829 C830 1.387 . S
C829 H832 0.950 . S
C830 C829 1.387 . S
C830 C833 1.387 . S
H831 C827 0.950 . S
H832 C829 0.950 . S
C833 C824 1.390 . S
C833 H826 0.950 . S
C833 C830 1.387 . S
C834 C835 1.387 . S
C834 H838 0.950 . S
C834 C843 1.390 . S
C835 C834 1.387 . S
C835 C837 1.387 . S
H836 C843 0.950 . S
C837 C835 1.387 . S
C837 C839 1.390 . S
C837 H841 0.950 . S
H838 C834 0.950 . S
C839 C837 1.390 . S
C839 C840 1.387 . S
C839 H842 0.950 . S
C840 C839 1.387 . S
C840 C843 1.387 . S
H841 C837 0.950 . S
H842 C839 0.950 . S
C843 C834 1.390 . S
C843 H836 0.950 . S
C843 C840 1.387 . S
C844 C845 1.387 . S
C844 H848 0.950 . S
C844 C853 1.390 . S
C845 C844 1.387 . S
C845 C847 1.387 . S
H846 C853 0.950 . S
C847 C845 1.387 . S
C847 C849 1.390 . S
C847 H851 0.950 . S
H848 C844 0.950 . S
C849 C847 1.390 . S
C849 C850 1.387 . S
C849 H852 0.950 . S
C850 C849 1.387 . S
C850 C853 1.387 . S
H851 C847 0.950 . S
H852 C849 0.950 . S
C853 C844 1.390 . S
C853 H846 0.950 . S
C853 C850 1.387 . S
C854 C855 1.387 . S
C854 H858 0.950 . S
C854 C863 1.390 . S
C855 C854 1.387 . S
C855 C857 1.387 . S
H856 C863 0.950 . S
C857 C855 1.387 . S
C857 C859 1.390 . S
C857 H861 0.950 . S
H858 C854 0.950 . S
C859 C857 1.390 . S
C859 C860 1.387 . S
C859 H862 0.950 . S
C860 C859 1.387 . S
C860 C863 1.387 . S
H861 C857 0.950 . S
H862 C859 0.950 . S
C863 C854 1.390 . S
C863 H856 0.950 . S
C863 C860 1.387 . S
C864 C865 1.387 . S
C864 H868 0.950 . S
C864 C873 1.390 . S
C865 C864 1.387 . S
C865 C867 1.387 . S
H866 C873 0.950 . S
C867 C865 1.387 . S
C867 C869 1.390 . S
C867 H871 0.950 . S
H868 C864 0.950 . S
C869 C867 1.390 . S
C869 C870 1.387 . S
C869 H872 0.950 . S
C870 C869 1.387 . S
C870 C873 1.387 . S
H871 C867 0.950 . S
H872 C869 0.950 . S
C873 C864 1.390 . S
C873 H866 0.950 . S
C873 C870 1.387 . S
C874 C875 1.387 . S
C874 H878 0.950 . S
C874 C883 1.390 . S
C875 C874 1.387 . S
C875 C877 1.387 . S
H876 C883 0.950 . S
C877 C875 1.387 . S
C877 C879 1.390 . S
C877 H881 0.950 . S
H878 C874 0.950 . S
C879 C877 1.390 . S
C879 C880 1.387 . S
C879 H882 0.950 . S
C880 C879 1.387 . S
C880 C883 1.387 . S
H881 C877 0.950 . S
H882 C879 0.950 . S
C883 C874 1.390 . S
C883 H876 0.950 . S
C883 C880 1.387 . S
C884 C885 1.387 . S
C884 H888 0.950 . S
C884 C893 1.390 . S
C885 C884 1.387 . S
C885 C887 1.387 . S
H886 C893 0.950 . S
C887 C885 1.387 . S
C887 C889 1.390 . S
C887 H891 0.950 . S
H888 C884 0.950 . S
C889 C887 1.390 . S
C889 C890 1.387 . S
C889 H892 0.950 . S
C890 C889 1.387 . S
C890 C893 1.387 . S
H891 C887 0.950 . S
H892 C889 0.950 . S
C893 C884 1.390 . S
C893 H886 0.950 . S
C893 C890 1.387 . S
C894 C895 1.387 . S
C894 H898 0.950 . S
C894 C903 1.390 . S
C895 C894 1.387 . S
C895 C897 1.387 . S
H896 C903 0.950 . S
C897 C895 1.387 . S
C897 C899 1.390 . S
C897 H901 0.950 . S
H898 C894 0.950 . S
C899 C897 1.390 . S
C899 C900 1.387 . S
C899 H902 0.950 . S
C900 C899 1.387 . S
C900 C903 1.387 . S
H901 C897 0.950 . S
H902 C899 0.950 . S
C903 C894 1.390 . S
C903 H896 0.950 . S
C903 C900 1.387 . S
C904 C905 1.387 . S
C904 H908 0.950 . S
C904 C913 1.390 . S
C905 C904 1.387 . S
C905 C907 1.387 . S
H906 C913 0.950 . S
C907 C905 1.387 . S
C907 C909 1.390 . S
C907 H911 0.950 . S
H908 C904 0.950 . S
C909 C907 1.390 . S
C909 C910 1.387 . S
C909 H912 0.950 . S
C910 C909 1.387 . S
C910 C913 1.387 . S
H911 C907 0.950 . S
H912 C909 0.950 . S
C913 C904 1.390 . S
C913 H906 0.950 . S
C913 C910 1.387 . S
C914 C915 1.387 . S
C914 H918 0.950 . S
C914 C923 1.390 . S
C915 C914 1.387 . S
C915 C917 1.387 . S
H916 C923 0.950 . S
C917 C915 1.387 . S
C917 C919 1.390 . S
C917 H921 0.950 . S
H918 C914 0.950 . S
C919 C917 1.390 . S
C919 C920 1.387 . S
C919 H922 0.950 . S
C920 C919 1.387 . S
C920 C923 1.387 . S
H921 C917 0.950 . S
H922 C919 0.950 . S
C923 C914 1.390 . S
C923 H916 0.950 . S
C923 C920 1.387 . S
C924 C925 1.387 . S
C924 H928 0.950 . S
C924 C933 1.390 . S
C925 C924 1.387 . S
C925 C927 1.387 . S
H926 C933 0.950 . S
C927 C925 1.387 . S
C927 C929 1.390 . S
C927 H931 0.950 . S
H928 C924 0.950 . S
C929 C927 1.390 . S
C929 C930 1.387 . S
C929 H932 0.950 . S
C930 C929 1.387 . S
C930 C933 1.387 . S
H931 C927 0.950 . S
H932 C929 0.950 . S
C933 C924 1.390 . S
C933 H926 0.950 . S
C933 C930 1.387 . S
C934 C935 1.387 . S
C934 H938 0.950 . S
C934 C943 1.390 . S
C935 C934 1.387 . S
C935 C937 1.387 . S
H936 C943 0.950 . S
C937 C935 1.387 . S
C937 C939 1.390 . S
C937 H941 0.950 . S
H938 C934 0.950 . S
C939 C937 1.390 . S
C939 C940 1.387 . S
C939 H942 0.950 . S
C940 C939 1.387 . S
C940 C943 1.387 . S
H941 C937 0.950 . S
H942 C939 0.950 . S
C943 C934 1.390 . S
C943 H936 0.950 . S
C943 C940 1.387 . S
C944 C945 1.387 . S
C944 H948 0.950 . S
C944 C953 1.390 . S
C945 C944 1.387 . S
C945 C947 1.387 . S
H946 C953 0.950 . S
C947 C945 1.387 . S
C947 C949 1.390 . S
C947 H951 0.950 . S
H948 C944 0.950 . S
C949 C947 1.390 . S
C949 C950 1.387 . S
C949 H952 0.950 . S
C950 C949 1.387 . S
C950 C953 1.387 . S
H951 C947 0.950 . S
H952 C949 0.950 . S
C953 C944 1.390 . S
C953 H946 0.950 . S
C953 C950 1.387 . S
C954 C955 1.387 . S
C954 H958 0.950 . S
C954 C963 1.390 . S
C955 C954 1.387 . S
C955 C957 1.387 . S
H956 C963 0.950 . S
C957 C955 1.387 . S
C957 C959 1.390 . S
C957 H961 0.950 . S
H958 C954 0.950 . S
C959 C957 1.390 . S
C959 C960 1.387 . S
C959 H962 0.950 . S
C960 C959 1.387 . S
C960 C963 1.387 . S
H961 C957 0.950 . S
H962 C959 0.950 . S
C963 C954 1.390 . S
C963 H956 0.950 . S
C963 C960 1.387 . S
C964 C965 1.387 . S
C964 H968 0.950 . S
C964 C973 1.390 . S
C965 C964 1.387 . S
C965 C967 1.387 . S
H966 C973 0.950 . S
C967 C965 1.387 . S
C967 C969 1.390 . S
C967 H971 0.950 . S
H968 C964 0.950 . S
C969 C967 1.390 . S
C969 C970 1.387 . S
C969 H972 0.950 . S
C970 C969 1.387 . S
C970 C973 1.387 . S
H971 C967 0.950 . S
H972 C969 0.950 . S
C973 C964 1.390 . S
C973 H966 0.950 . S
C973 C970 1.387 . S
C974 C975 1.387 1_655 S
C974 H978 0.950 . S
C974 C983 1.390 . S
C975 C974 1.387 1_455 S
C975 C977 1.387 1_554 S
H976 C983 0.950 . S
C977 C975 1.387 1_556 S
C977 C979 1.390 . S
C977 H981 0.950 . S
H978 C974 0.950 . S
C979 C977 1.390 . S
C979 C980 1.387 1_455 S
C979 H982 0.950 . S
C980 C979 1.387 1_655 S
C980 C983 1.387 1_556 S
H981 C977 0.950 . S
H982 C979 0.950 . S
C983 C974 1.390 . S
C983 H976 0.950 . S
C983 C980 1.387 1_554 S
C984 C985 1.387 . S
C984 H988 0.950 . S
C984 C993 1.390 . S
C985 C984 1.387 . S
C985 C987 1.387 . S
H986 C993 0.950 . S
C987 C985 1.387 . S
C987 C989 1.390 . S
C987 H991 0.950 . S
H988 C984 0.950 . S
C989 C987 1.390 . S
C989 C990 1.387 . S
C989 H992 0.950 . S
C990 C989 1.387 . S
C990 C993 1.387 . S
H991 C987 0.950 . S
H992 C989 0.950 . S
C993 C984 1.390 . S
C993 H986 0.950 . S
C993 C990 1.387 . S
C994 C995 1.387 . S
C994 H998 0.950 . S
C994 C1003 1.390 . S
C995 C994 1.387 . S
C995 C997 1.387 . S
H996 C1003 0.950 . S
C997 C995 1.387 . S
C997 C999 1.390 . S
C997 H1001 0.950 . S
H998 C994 0.950 . S
C999 C997 1.390 . S
C999 C1000 1.387 . S
C999 H1002 0.950 . S
C1000 C999 1.387 . S
C1000 C1003 1.387 . S
H1001 C997 0.950 . S
H1002 C999 0.950 . S
C1003 C994 1.390 . S
C1003 H996 0.950 . S
C1003 C1000 1.387 . S
C1004 C1005 1.387 1_654 S
C1004 H1008 0.950 . S
C1004 C1013 1.397 . S
C1005 C1004 1.387 1_456 S
C1005 C1007 1.380 1_545 S
H1006 C1013 0.950 . S
C1007 C1005 1.380 1_565 S
C1007 C1009 1.397 . S
C1007 H1011 0.950 . S
H1008 C1004 0.950 . S
C1009 C1007 1.397 . S
C1009 C1010 1.387 1_456 S
C1009 H1012 0.950 . S
C1010 C1009 1.387 1_654 S
C1010 C1013 1.380 1_565 S
H1011 C1007 0.950 . S
H1012 C1009 0.950 . S
C1013 C1004 1.397 . S
C1013 H1006 0.950 . S
C1013 C1010 1.380 1_545 S
C1014 C1015 1.387 . S
C1014 H1018 0.950 . S
C1014 C1023 1.390 1_545 S
C1015 C1014 1.387 . S
C1015 C1017 1.387 . S
H1016 C1023 0.950 . S
C1017 C1015 1.387 . S
C1017 C1019 1.390 1_545 S
C1017 H1021 0.950 . S
H1018 C1014 0.950 . S
C1019 C1017 1.390 1_565 S
C1019 C1020 1.387 . S
C1019 H1022 0.950 . S
C1020 C1019 1.387 . S
C1020 C1023 1.387 . S
H1021 C1017 0.950 . S
H1022 C1019 0.950 . S
C1023 C1014 1.390 1_565 S
C1023 H1016 0.950 . S
C1023 C1020 1.387 . S
C545 C17 1.988 . S
C550 C357 1.988 . S
C555 C51 1.988 . S
C560 C391 1.988 . S
C565 C85 1.988 . S
C570 C289 1.988 . S
C575 C119 1.988 . S
C580 C323 1.988 . S
C585 C144 1.988 . S
C590 C484 1.988 . S
C595 C178 1.988 . S
C600 C518 1.988 . S
C605 C212 1.988 . S
C610 C416 1.988 . S
C615 C246 1.988 . S
C620 C450 1.988 . S
C625 C310 1.118 . S
C630 C8 1.178 . S
C635 C344 1.118 . S
C640 C42 1.177 . S
C645 C378 1.120 . S
C650 C76 1.179 . S
C655 C276 1.118 . S
C660 C110 1.178 . S
C665 C153 1.177 . S
C670 C455 1.118 . S
C675 C489 1.120 . S
C680 C187 1.179 . S
C685 C523 1.118 . S
C690 C221 1.177 . S
C695 C421 1.120 . S
C700 C255 1.179 . S
C705 C38 1.118 . S
C710 C280 1.178 . S
C715 C314 1.179 . S
C720 C72 1.120 . S
C725 C348 1.178 . S
C730 C106 1.119 . S
C735 C382 1.179 . S
C740 C4 1.121 . S
C745 C425 1.177 . S
C750 C183 1.118 . S
C755 C217 1.119 . S
C760 C459 1.178 . S
C765 C251 1.119 . S
C770 C493 1.178 . S
C775 C527 1.178 . S
C780 C149 1.118 . S
C785 C29 1.573 1_556 S
C790 C514 1.470 . S
C795 C63 1.574 . S
C800 C140 1.469 . S
C805 C446 1.468 . S
C810 C97 1.573 . S
C815 C208 1.468 . S
C820 C131 1.573 . S
C825 C136 1.573 1_554 S
C830 C387 1.470 . S
C835 C170 1.573 . S
C840 C13 1.470 . S
C845 C319 1.470 . S
C850 C204 1.573 . S
C855 C81 1.468 . S
C860 C238 1.573 . S
C865 C301 1.573 . S
C870 C242 1.470 . S
C875 C335 1.573 . S
C880 C412 1.471 . S
C885 C174 1.468 . S
C890 C369 1.573 1_556 S
C895 C480 1.468 . S
C900 C403 1.573 . S
C905 C408 1.573 . S
C910 C115 1.468 . S
C915 C442 1.574 . S
C920 C285 1.471 . S
C925 C476 1.575 1_554 S
C930 C47 1.472 . S
C935 C353 1.470 . S
C940 C510 1.573 . S
C945 C0 2.152 . S
C950 C437 2.152 . S
C955 C34 2.152 . S
C960 C199 2.152 . S
C965 C68 2.151 . S
C970 C505 2.151 . S
C975 C267 2.151 . S
C980 C102 2.151 . S
C985 C165 2.152 . S
C990 C272 2.152 . S
C995 C340 2.151 . S
C1000 C233 2.151 . S
C1005 C306 2.152 . S
C1010 C471 2.152 . S
C1015 C539 2.153 . S
C1020 C374 2.153 . S
