# Generated by pormake.
# Topology lta, (4)-cn, num edge types: 1
# Building blocks:
#     Node 0, Type 0, BuildingBlock: ICAMEG_clean_sbu_1, # of connection points: 4
#     Node 1, Type 0, BuildingBlock: ICAMEG_clean_sbu_1, # of connection points: 4
#     Node 2, Type 0, BuildingBlock: ICAMEG_clean_sbu_1, # of connection points: 4
#     Node 3, Type 0, BuildingBlock: ICAMEG_clean_sbu_1, # of connection points: 4
#     Node 4, Type 0, BuildingBlock: ICAMEG_clean_sbu_1, # of connection points: 4
#     Node 5, Type 0, BuildingBlock: ICAMEG_clean_sbu_1, # of connection points: 4
#     Node 6, Type 0, BuildingBlock: ICAMEG_clean_sbu_1, # of connection points: 4
#     Node 7, Type 0, BuildingBlock: ICAMEG_clean_sbu_1, # of connection points: 4
#     Node 8, Type 0, BuildingBlock: ICAMEG_clean_sbu_1, # of connection points: 4
#     Node 9, Type 0, BuildingBlock: ICAMEG_clean_sbu_1, # of connection points: 4
#     Node 10, Type 0, BuildingBlock: ICAMEG_clean_sbu_1, # of connection points: 4
#     Node 11, Type 0, BuildingBlock: ICAMEG_clean_sbu_1, # of connection points: 4
#     Node 12, Type 0, BuildingBlock: ICAMEG_clean_sbu_1, # of connection points: 4
#     Node 13, Type 0, BuildingBlock: ICAMEG_clean_sbu_1, # of connection points: 4
#     Node 14, Type 0, BuildingBlock: ICAMEG_clean_sbu_1, # of connection points: 4
#     Node 15, Type 0, BuildingBlock: ICAMEG_clean_sbu_1, # of connection points: 4
#     Node 16, Type 0, BuildingBlock: ICAMEG_clean_sbu_1, # of connection points: 4
#     Node 17, Type 0, BuildingBlock: ICAMEG_clean_sbu_1, # of connection points: 4
#     Node 18, Type 0, BuildingBlock: ICAMEG_clean_sbu_1, # of connection points: 4
#     Node 19, Type 0, BuildingBlock: ICAMEG_clean_sbu_1, # of connection points: 4
#     Node 20, Type 0, BuildingBlock: ICAMEG_clean_sbu_1, # of connection points: 4
#     Node 21, Type 0, BuildingBlock: ICAMEG_clean_sbu_1, # of connection points: 4
#     Node 22, Type 0, BuildingBlock: ICAMEG_clean_sbu_1, # of connection points: 4
#     Node 23, Type 0, BuildingBlock: ICAMEG_clean_sbu_1, # of connection points: 4
#     Edge 24, Type (0, 0), BuildingBlock: XUDNAN_clean_linker_2, # of connection points: 2
#     Edge 25, Type (0, 0), BuildingBlock: XUDNAN_clean_linker_2, # of connection points: 2
#     Edge 26, Type (0, 0), BuildingBlock: XUDNAN_clean_linker_2, # of connection points: 2
#     Edge 27, Type (0, 0), BuildingBlock: XUDNAN_clean_linker_2, # of connection points: 2
#     Edge 28, Type (0, 0), BuildingBlock: XUDNAN_clean_linker_2, # of connection points: 2
#     Edge 29, Type (0, 0), BuildingBlock: XUDNAN_clean_linker_2, # of connection points: 2
#     Edge 30, Type (0, 0), BuildingBlock: XUDNAN_clean_linker_2, # of connection points: 2
#     Edge 31, Type (0, 0), BuildingBlock: XUDNAN_clean_linker_2, # of connection points: 2
#     Edge 32, Type (0, 0), BuildingBlock: XUDNAN_clean_linker_2, # of connection points: 2
#     Edge 33, Type (0, 0), BuildingBlock: XUDNAN_clean_linker_2, # of connection points: 2
#     Edge 34, Type (0, 0), BuildingBlock: XUDNAN_clean_linker_2, # of connection points: 2
#     Edge 35, Type (0, 0), BuildingBlock: XUDNAN_clean_linker_2, # of connection points: 2
#     Edge 36, Type (0, 0), BuildingBlock: XUDNAN_clean_linker_2, # of connection points: 2
#     Edge 37, Type (0, 0), BuildingBlock: XUDNAN_clean_linker_2, # of connection points: 2
#     Edge 38, Type (0, 0), BuildingBlock: XUDNAN_clean_linker_2, # of connection points: 2
#     Edge 39, Type (0, 0), BuildingBlock: XUDNAN_clean_linker_2, # of connection points: 2
#     Edge 40, Type (0, 0), BuildingBlock: XUDNAN_clean_linker_2, # of connection points: 2
#     Edge 41, Type (0, 0), BuildingBlock: XUDNAN_clean_linker_2, # of connection points: 2
#     Edge 42, Type (0, 0), BuildingBlock: XUDNAN_clean_linker_2, # of connection points: 2
#     Edge 43, Type (0, 0), BuildingBlock: XUDNAN_clean_linker_2, # of connection points: 2
#     Edge 44, Type (0, 0), BuildingBlock: XUDNAN_clean_linker_2, # of connection points: 2
#     Edge 45, Type (0, 0), BuildingBlock: XUDNAN_clean_linker_2, # of connection points: 2
#     Edge 46, Type (0, 0), BuildingBlock: XUDNAN_clean_linker_2, # of connection points: 2
#     Edge 47, Type (0, 0), BuildingBlock: XUDNAN_clean_linker_2, # of connection points: 2
#     Edge 48, Type (0, 0), BuildingBlock: XUDNAN_clean_linker_2, # of connection points: 2
#     Edge 49, Type (0, 0), BuildingBlock: XUDNAN_clean_linker_2, # of connection points: 2
#     Edge 50, Type (0, 0), BuildingBlock: XUDNAN_clean_linker_2, # of connection points: 2
#     Edge 51, Type (0, 0), BuildingBlock: XUDNAN_clean_linker_2, # of connection points: 2
#     Edge 52, Type (0, 0), BuildingBlock: XUDNAN_clean_linker_2, # of connection points: 2
#     Edge 53, Type (0, 0), BuildingBlock: XUDNAN_clean_linker_2, # of connection points: 2
#     Edge 54, Type (0, 0), BuildingBlock: XUDNAN_clean_linker_2, # of connection points: 2
#     Edge 55, Type (0, 0), BuildingBlock: XUDNAN_clean_linker_2, # of connection points: 2
#     Edge 56, Type (0, 0), BuildingBlock: XUDNAN_clean_linker_2, # of connection points: 2
#     Edge 57, Type (0, 0), BuildingBlock: XUDNAN_clean_linker_2, # of connection points: 2
#     Edge 58, Type (0, 0), BuildingBlock: XUDNAN_clean_linker_2, # of connection points: 2
#     Edge 59, Type (0, 0), BuildingBlock: XUDNAN_clean_linker_2, # of connection points: 2
#     Edge 60, Type (0, 0), BuildingBlock: XUDNAN_clean_linker_2, # of connection points: 2
#     Edge 61, Type (0, 0), BuildingBlock: XUDNAN_clean_linker_2, # of connection points: 2
#     Edge 62, Type (0, 0), BuildingBlock: XUDNAN_clean_linker_2, # of connection points: 2
#     Edge 63, Type (0, 0), BuildingBlock: XUDNAN_clean_linker_2, # of connection points: 2
#     Edge 64, Type (0, 0), BuildingBlock: XUDNAN_clean_linker_2, # of connection points: 2
#     Edge 65, Type (0, 0), BuildingBlock: XUDNAN_clean_linker_2, # of connection points: 2
#     Edge 66, Type (0, 0), BuildingBlock: XUDNAN_clean_linker_2, # of connection points: 2
#     Edge 67, Type (0, 0), BuildingBlock: XUDNAN_clean_linker_2, # of connection points: 2
#     Edge 68, Type (0, 0), BuildingBlock: XUDNAN_clean_linker_2, # of connection points: 2
#     Edge 69, Type (0, 0), BuildingBlock: XUDNAN_clean_linker_2, # of connection points: 2
#     Edge 70, Type (0, 0), BuildingBlock: XUDNAN_clean_linker_2, # of connection points: 2
#     Edge 71, Type (0, 0), BuildingBlock: XUDNAN_clean_linker_2, # of connection points: 2
# Relax obj value: 0.361
# Max RMSD: 0.250
# Mean RMSD: 0.250
data_MOF--net-lta--node1-ICAMEG_clean_sbu_1--edge1-XUDNAN_clean_linker_2
_symmetry_space_group_name_H-M    P1
_symmetry_Int_Tables_number       1
_symmetry_cell_setting            triclinic
loop_
_symmetry_equiv_pos_as_xyz
'x, y, z'
_cell_length_a     59.796222
_cell_length_b     59.807912
_cell_length_c     59.76459
_cell_angle_alpha  90.003502
_cell_angle_beta   89.998005
_cell_angle_gamma 90.0144
loop_
_atom_site_label
_atom_site_type_symbol
_atom_site_fract_x
_atom_site_fract_y
_atom_site_fract_z
_atom_type_partial_charge
Co0 Co 0.12641 0.34765 0.4769 0.0
Co1 Co 0.12009 0.29359 0.4971 0.0
O2 O 0.13226 0.31551 0.47582 0.0
C3 C 0.12324 0.33541 0.42738 0.0
O4 O 0.12862 0.3144 0.43059 0.0
C5 C 0.16926 0.28914 0.50106 0.0
O6 O 0.17005 0.31102 0.50246 0.0
O7 O 0.12713 0.3129 0.52357 0.0
O8 O 0.13048 0.34766 0.50982 0.0
H9 H 0.07318 0.26753 0.56182 0.0
H10 H 0.16318 0.3282 0.44872 0.0
O11 O 0.12178 0.34913 0.44365 0.0
H12 H 0.1993 0.38523 0.49585 0.0
H13 H 0.13049 0.42717 0.44922 0.0
H14 H 0.10079 0.37706 0.50764 0.0
H15 H 0.1588 0.37847 0.49866 0.0
H16 H 0.13879 0.38681 0.44835 0.0
O17 O 0.15043 0.27924 0.49938 0.0
H18 H 0.08852 0.29523 0.53538 0.0
H19 H 0.12657 0.24456 0.50328 0.0
H20 H 0.09259 0.4174 0.50946 0.0
H21 H 0.20355 0.33462 0.44514 0.0
H22 H 0.10739 0.44275 0.48004 0.0
H23 H 0.222 0.36328 0.46886 0.0
O24 O 0.09373 0.34222 0.48076 0.0
H25 H 0.13674 0.2529 0.42538 0.0
H26 H 0.07931 0.26899 0.48235 0.0
H27 H 0.06982 0.24499 0.45018 0.0
H28 H 0.09868 0.23672 0.42145 0.0
H29 H 0.1454 0.27712 0.45762 0.0
H30 H 0.11182 0.21635 0.52953 0.0
H31 H 0.08484 0.22777 0.55899 0.0
O32 O 0.08972 0.30762 0.4951 0.0
C33 C 0.13033 0.33385 0.52601 0.0
C34 C 0.08489 0.26234 0.54903 0.0
C35 C 0.1066 0.23362 0.53092 0.0
N36 N 0.10833 0.2715 0.51774 0.0
C37 C 0.09358 0.27794 0.53397 0.0
C38 C 0.11495 0.24968 0.51615 0.0
C39 C 0.09145 0.24003 0.54744 0.0
C40 C 0.17078 0.34103 0.45875 0.0
N41 N 0.15833 0.35327 0.4735 0.0
C42 C 0.19381 0.34446 0.4568 0.0
C43 C 0.20417 0.36048 0.47016 0.0
C44 C 0.19145 0.37279 0.4853 0.0
C45 C 0.16847 0.36888 0.48681 0.0
C46 C 0.12397 0.4163 0.46215 0.0
C47 C 0.10751 0.38799 0.4949 0.0
C48 C 0.12851 0.3934 0.46169 0.0
N49 N 0.12035 0.37956 0.47798 0.0
C50 C 0.10272 0.41082 0.49597 0.0
C51 C 0.11101 0.42503 0.47945 0.0
C52 C 0.08175 0.32631 0.48852 0.0
C53 C 0.12402 0.25636 0.4378 0.0
C54 C 0.09188 0.26569 0.46979 0.0
C55 C 0.08645 0.25198 0.45168 0.0
C56 C 0.10266 0.24732 0.43558 0.0
N57 N 0.11287 0.27453 0.47183 0.0
C58 C 0.12885 0.27 0.45614 0.0
Co59 Co 0.6473 0.1319 0.48929 0.0
Co60 Co 0.70189 0.1232 0.50545 0.0
O61 O 0.67935 0.13754 0.48651 0.0
C62 C 0.65214 0.12306 0.44023 0.0
O63 O 0.66746 0.10791 0.44449 0.0
C64 C 0.71158 0.17154 0.50977 0.0
O65 O 0.69014 0.17421 0.51365 0.0
O66 O 0.68553 0.13181 0.53344 0.0
O67 O 0.64974 0.12909 0.52238 0.0
H68 H 0.72899 0.07326 0.56738 0.0
H69 H 0.66269 0.17158 0.4639 0.0
O70 O 0.64363 0.13448 0.45608 0.0
H71 H 0.61693 0.2015 0.52567 0.0
H72 H 0.56624 0.14425 0.47006 0.0
H73 H 0.61923 0.10027 0.51538 0.0
H74 H 0.62212 0.16083 0.52124 0.0
H75 H 0.60675 0.1515 0.4678 0.0
O76 O 0.71937 0.15198 0.50647 0.0
H77 H 0.70065 0.09161 0.54369 0.0
H78 H 0.75171 0.12489 0.50717 0.0
H79 H 0.57881 0.0927 0.51844 0.0
H80 H 0.65777 0.21238 0.46759 0.0
H81 H 0.552 0.11476 0.49564 0.0
H82 H 0.63481 0.22757 0.49871 0.0
O83 O 0.65219 0.09909 0.48681 0.0
H84 H 0.73485 0.1364 0.42924 0.0
H85 H 0.72217 0.08077 0.48879 0.0
H86 H 0.74147 0.06939 0.45416 0.0
H87 H 0.74798 0.09733 0.4241 0.0
H88 H 0.71541 0.14699 0.46407 0.0
H89 H 0.7806 0.10715 0.53068 0.0
H90 H 0.7693 0.08102 0.56095 0.0
O91 O 0.685 0.09412 0.50459 0.0
C92 C 0.66462 0.13065 0.53755 0.0
C93 C 0.73413 0.08458 0.55421 0.0
C94 C 0.76309 0.10362 0.53364 0.0
N95 N 0.72452 0.1092 0.52399 0.0
C96 C 0.71816 0.09497 0.5407 0.0
C97 C 0.74665 0.11368 0.52043 0.0
C98 C 0.75674 0.08895 0.55061 0.0
C99 C 0.65248 0.17807 0.47734 0.0
N100 N 0.64262 0.16385 0.49227 0.0
C101 C 0.64983 0.20118 0.4794 0.0
C102 C 0.63698 0.2097 0.49689 0.0
C103 C 0.62696 0.19508 0.51204 0.0
C104 C 0.63001 0.17207 0.50947 0.0
C105 C 0.57774 0.13458 0.48015 0.0
C106 C 0.60767 0.1101 0.5056 0.0
C107 C 0.60072 0.13856 0.47889 0.0
N108 N 0.61537 0.12644 0.4916 0.0
C109 C 0.5848 0.10567 0.50732 0.0
C110 C 0.56977 0.11803 0.4945 0.0
C111 C 0.66695 0.0866 0.49589 0.0
C112 C 0.73215 0.12408 0.44223 0.0
C113 C 0.72482 0.09299 0.47575 0.0
C114 C 0.73583 0.08647 0.4562 0.0
C115 C 0.73949 0.10215 0.43935 0.0
N116 N 0.71771 0.11453 0.47847 0.0
C117 C 0.72121 0.13 0.46202 0.0
Co118 Co 0.87961 0.65086 0.49019 0.0
Co119 Co 0.87814 0.70815 0.49918 0.0
O120 O 0.86839 0.6809 0.48383 0.0
C121 C 0.89645 0.6362 0.44615 0.0
O122 O 0.91568 0.63283 0.45623 0.0
C123 C 0.83468 0.72638 0.5156 0.0
O124 O 0.84236 0.72535 0.53616 0.0
O125 O 0.87448 0.69365 0.52923 0.0
O126 O 0.87888 0.6568 0.52282 0.0
H127 H 0.92179 0.75218 0.55592 0.0
H128 H 0.83957 0.65665 0.46146 0.0
O129 O 0.8801 0.64446 0.4571 0.0
H130 H 0.81445 0.61036 0.52497 0.0
H131 H 0.88299 0.56711 0.48075 0.0
H132 H 0.91384 0.63228 0.52081 0.0
H133 H 0.85362 0.62293 0.5224 0.0
H134 H 0.869 0.6051 0.47286 0.0
O135 O 0.84627 0.71869 0.49943 0.0
H136 H 0.90966 0.71812 0.53604 0.0
H137 H 0.86666 0.75672 0.49473 0.0
H138 H 0.92822 0.59458 0.52931 0.0
H139 H 0.80027 0.64415 0.46319 0.0
H140 H 0.91277 0.56167 0.50921 0.0
H141 H 0.78748 0.62088 0.49515 0.0
O142 O 0.9112 0.6617 0.48897 0.0
H143 H 0.85536 0.72727 0.42049 0.0
H144 H 0.91351 0.73651 0.47823 0.0
H145 H 0.91881 0.75378 0.44114 0.0
H146 H 0.88955 0.74928 0.41198 0.0
H147 H 0.85089 0.71004 0.4577 0.0
H148 H 0.87821 0.79116 0.51425 0.0
H149 H 0.906 0.78902 0.54506 0.0
O150 O 0.90998 0.69825 0.49804 0.0
C151 C 0.87616 0.67342 0.53583 0.0
C152 C 0.90967 0.75332 0.54252 0.0
C153 C 0.8852 0.7752 0.51914 0.0
N154 N 0.88746 0.7354 0.51426 0.0
C155 C 0.90276 0.7341 0.53119 0.0
C156 C 0.87869 0.75563 0.50819 0.0
C157 C 0.9008 0.77399 0.53643 0.0
C158 C 0.83415 0.64639 0.47533 0.0
N159 N 0.84889 0.64048 0.49177 0.0
C160 C 0.81187 0.63942 0.47626 0.0
C161 C 0.8047 0.62639 0.49421 0.0
C162 C 0.81981 0.62049 0.51095 0.0
C163 C 0.84195 0.62774 0.50945 0.0
C164 C 0.88984 0.58132 0.48964 0.0
C165 C 0.907 0.61804 0.51202 0.0
C166 C 0.88201 0.60287 0.48522 0.0
N167 N 0.89058 0.6209 0.49638 0.0
C168 C 0.91523 0.59673 0.51689 0.0
C169 C 0.90655 0.57827 0.5056 0.0
C170 C 0.92058 0.6804 0.49315 0.0
C171 C 0.86824 0.72933 0.43304 0.0
C172 C 0.90084 0.73425 0.46554 0.0
C173 C 0.90386 0.74418 0.44461 0.0
C174 C 0.88743 0.74167 0.42827 0.0
N175 N 0.88198 0.72216 0.47011 0.0
C176 C 0.8658 0.71963 0.45416 0.0
Co177 Co 0.34642 0.87656 0.48262 0.0
Co178 Co 0.29074 0.87383 0.49925 0.0
O179 O 0.31589 0.86459 0.48005 0.0
C180 C 0.33734 0.87578 0.43236 0.0
O181 O 0.31722 0.86727 0.43432 0.0
C182 C 0.29211 0.82407 0.50503 0.0
O183 O 0.31402 0.82463 0.50634 0.0
O184 O 0.30922 0.87122 0.52709 0.0
O185 O 0.34487 0.87392 0.51557 0.0
H186 H 0.25403 0.9185 0.56024 0.0
H187 H 0.33601 0.83584 0.45533 0.0
O188 O 0.34941 0.8798 0.44945 0.0
H189 H 0.39544 0.81284 0.50753 0.0
H190 H 0.42719 0.8859 0.46027 0.0
H191 H 0.36822 0.90902 0.51312 0.0
H192 H 0.38124 0.85147 0.5078 0.0
H193 H 0.38922 0.8701 0.45747 0.0
O194 O 0.28098 0.84206 0.50267 0.0
H195 H 0.28517 0.9068 0.53582 0.0
H196 H 0.24281 0.8601 0.50308 0.0
H197 H 0.4061 0.92493 0.51675 0.0
H198 H 0.34996 0.79723 0.45421 0.0
H199 H 0.43588 0.91341 0.49017 0.0
H200 H 0.37986 0.78539 0.4805 0.0
O201 O 0.33506 0.90794 0.48387 0.0
H202 H 0.25944 0.84712 0.42592 0.0
H203 H 0.2588 0.90787 0.48164 0.0
H204 H 0.23569 0.91129 0.44762 0.0
H205 H 0.23586 0.8807 0.4195 0.0
H206 H 0.28262 0.84465 0.45995 0.0
H207 H 0.21131 0.87108 0.52731 0.0
H208 H 0.21678 0.90056 0.55608 0.0
O209 O 0.29942 0.90581 0.49575 0.0
C210 C 0.3302 0.87174 0.53082 0.0
C211 C 0.25142 0.90566 0.54774 0.0
C212 C 0.22746 0.87902 0.52929 0.0
N213 N 0.26581 0.88284 0.518 0.0
C214 C 0.26897 0.89901 0.53383 0.0
C215 C 0.24539 0.8728 0.51568 0.0
C216 C 0.23054 0.89558 0.54541 0.0
C217 C 0.34925 0.83109 0.46656 0.0
N218 N 0.35794 0.84614 0.4814 0.0
C219 C 0.35699 0.80906 0.46596 0.0
C220 C 0.37373 0.80242 0.48075 0.0
C221 C 0.38246 0.81779 0.49591 0.0
C222 C 0.3743 0.83966 0.49602 0.0
C223 C 0.41437 0.89101 0.47199 0.0
C224 C 0.38114 0.90375 0.50163 0.0
C225 C 0.3928 0.88219 0.47044 0.0
N226 N 0.37653 0.88851 0.48524 0.0
C227 C 0.40254 0.91289 0.50371 0.0
C228 C 0.41924 0.90644 0.48877 0.0
C229 C 0.31654 0.91688 0.48948 0.0
C230 C 0.25929 0.8606 0.43799 0.0
C231 C 0.2593 0.89473 0.46926 0.0
C232 C 0.24602 0.89665 0.45014 0.0
C233 C 0.24608 0.87946 0.4344 0.0
N234 N 0.27236 0.87628 0.47259 0.0
C235 C 0.27236 0.85928 0.45732 0.0
Co236 Co 0.12298 0.65338 0.51728 0.0
Co237 Co 0.12947 0.70411 0.4912 0.0
O238 O 0.13567 0.68344 0.51579 0.0
C239 C 0.10386 0.65174 0.56272 0.0
O240 O 0.0845 0.648 0.55303 0.0
C241 C 0.1794 0.70524 0.4941 0.0
O242 O 0.17999 0.6833 0.49378 0.0
O243 O 0.13842 0.68125 0.46854 0.0
O244 O 0.12513 0.64985 0.48418 0.0
H245 H 0.09766 0.72687 0.41678 0.0
H246 H 0.16199 0.66504 0.54558 0.0
O247 O 0.12093 0.65626 0.55074 0.0
H248 H 0.18725 0.6022 0.49853 0.0
H249 H 0.11395 0.57595 0.5496 0.0
H250 H 0.08863 0.62866 0.4914 0.0
H251 H 0.14876 0.61655 0.49538 0.0
H252 H 0.13034 0.61371 0.54697 0.0
O253 O 0.16082 0.71554 0.49284 0.0
H254 H 0.10509 0.70106 0.44808 0.0
H255 H 0.14171 0.75163 0.482 0.0
H256 H 0.07202 0.59097 0.49325 0.0
H257 H 0.20057 0.65102 0.54949 0.0
H258 H 0.08461 0.56435 0.52257 0.0
H259 H 0.21345 0.61942 0.5258 0.0
O260 O 0.09216 0.66576 0.51365 0.0
H261 H 0.13824 0.74884 0.56185 0.0
H262 H 0.09046 0.73493 0.49608 0.0
H263 H 0.07877 0.76281 0.52411 0.0
H264 H 0.1028 0.77 0.55725 0.0
H265 H 0.14915 0.72089 0.53354 0.0
H266 H 0.13485 0.77791 0.45097 0.0
H267 H 0.11259 0.76561 0.4181 0.0
O268 O 0.09784 0.69365 0.48923 0.0
C269 C 0.13287 0.66067 0.4675 0.0
C270 C 0.10733 0.73245 0.43104 0.0
C271 C 0.12823 0.76109 0.45021 0.0
N272 N 0.12372 0.72485 0.4669 0.0
C273 C 0.11155 0.71792 0.44883 0.0
C274 C 0.13212 0.7461 0.4677 0.0
C275 C 0.11573 0.75418 0.43178 0.0
C276 C 0.1674 0.65115 0.53536 0.0
N277 N 0.15308 0.64159 0.52032 0.0
C278 C 0.1893 0.64334 0.53758 0.0
C279 C 0.19652 0.62563 0.52426 0.0
C280 C 0.18184 0.61598 0.50894 0.0
C281 C 0.16007 0.62424 0.50717 0.0
C282 C 0.10834 0.58739 0.53673 0.0
C283 C 0.09429 0.61714 0.50414 0.0
C284 C 0.11754 0.6088 0.53517 0.0
N285 N 0.11045 0.62341 0.51904 0.0
C286 C 0.08479 0.59583 0.50512 0.0
C287 C 0.09187 0.5809 0.52157 0.0
C288 C 0.08497 0.68043 0.49993 0.0
C289 C 0.12764 0.74588 0.54747 0.0
C290 C 0.10091 0.73781 0.51053 0.0
C291 C 0.09425 0.75369 0.52631 0.0
C292 C 0.10775 0.75773 0.54489 0.0
N293 N 0.12048 0.7263 0.51314 0.0
C294 C 0.13376 0.73011 0.53136 0.0
Co295 Co 0.34537 0.12071 0.5038 0.0
Co296 Co 0.28952 0.12522 0.48932 0.0
O297 O 0.31517 0.13291 0.50852 0.0
C298 C 0.33958 0.1211 0.55456 0.0
O299 O 0.31885 0.12819 0.55358 0.0
C300 C 0.28742 0.17523 0.48962 0.0
O301 O 0.30898 0.17619 0.48553 0.0
O302 O 0.30653 0.13329 0.46167 0.0
O303 O 0.34174 0.12365 0.47079 0.0
H304 H 0.25167 0.08898 0.42355 0.0
H305 H 0.33727 0.16111 0.53215 0.0
O306 O 0.35075 0.11742 0.53678 0.0
H307 H 0.39316 0.18429 0.47619 0.0
H308 H 0.42758 0.11103 0.51991 0.0
H309 H 0.36458 0.08801 0.47189 0.0
H310 H 0.37857 0.14579 0.47644 0.0
H311 H 0.38999 0.12692 0.52568 0.0
O312 O 0.2777 0.15642 0.49165 0.0
H313 H 0.28356 0.09853 0.4479 0.0
H314 H 0.24075 0.13595 0.49047 0.0
H315 H 0.40199 0.07191 0.46539 0.0
H316 H 0.35165 0.19963 0.53274 0.0
H317 H 0.43381 0.0834 0.48951 0.0
H318 H 0.37977 0.21153 0.50457 0.0
O319 O 0.33347 0.08947 0.50298 0.0
H320 H 0.25969 0.13788 0.56692 0.0
H321 H 0.26243 0.08558 0.50322 0.0
H322 H 0.24157 0.07509 0.5372 0.0
H323 H 0.24003 0.10138 0.56934 0.0
H324 H 0.28067 0.14755 0.53273 0.0
H325 H 0.20844 0.12701 0.46647 0.0
H326 H 0.21377 0.10328 0.43278 0.0
O327 O 0.30008 0.09381 0.48656 0.0
C328 C 0.32699 0.12987 0.45671 0.0
C329 C 0.24913 0.09933 0.43819 0.0
C330 C 0.22487 0.12069 0.46226 0.0
N331 N 0.26406 0.1178 0.47058 0.0
C332 C 0.26713 0.10478 0.45205 0.0
C333 C 0.24326 0.12577 0.47574 0.0
C334 C 0.22787 0.10736 0.44337 0.0
C335 C 0.34973 0.16594 0.52005 0.0
N336 N 0.35724 0.151 0.50447 0.0
C337 C 0.35772 0.18789 0.52038 0.0
C338 C 0.37347 0.19457 0.50454 0.0
C339 C 0.38098 0.17931 0.48863 0.0
C340 C 0.37261 0.15751 0.48883 0.0
C341 C 0.41386 0.1059 0.50928 0.0
C342 C 0.37837 0.09321 0.48236 0.0
C343 C 0.3925 0.11479 0.5125 0.0
N344 N 0.37511 0.10851 0.49903 0.0
C345 C 0.3995 0.08398 0.47864 0.0
C346 C 0.41734 0.09042 0.4922 0.0
C347 C 0.31599 0.08157 0.49365 0.0
C348 C 0.26024 0.12628 0.55303 0.0
C349 C 0.26209 0.097 0.51722 0.0
C350 C 0.25012 0.09102 0.53637 0.0
C351 C 0.24923 0.10579 0.55439 0.0
N352 N 0.27288 0.11711 0.51602 0.0
C353 C 0.27203 0.13169 0.53359 0.0
Co354 Co 0.8737 0.34701 0.51303 0.0
Co355 Co 0.88114 0.29065 0.50411 0.0
O356 O 0.86661 0.3158 0.51929 0.0
C357 C 0.87841 0.34738 0.56286 0.0
O358 O 0.89209 0.33024 0.56172 0.0
C359 C 0.83286 0.28285 0.4974 0.0
O360 O 0.832 0.30374 0.49073 0.0
O361 O 0.87499 0.30373 0.47387 0.0
O362 O 0.87852 0.34043 0.48083 0.0
H363 H 0.93355 0.25431 0.44937 0.0
H364 H 0.83181 0.33634 0.53726 0.0
O365 O 0.86917 0.35495 0.54522 0.0
H366 H 0.80798 0.37472 0.46823 0.0
H367 H 0.86339 0.43024 0.52076 0.0
H368 H 0.90827 0.37042 0.48605 0.0
H369 H 0.84802 0.36891 0.47622 0.0
H370 H 0.85427 0.39062 0.52752 0.0
O371 O 0.85157 0.27439 0.50318 0.0
H372 H 0.91511 0.28602 0.46823 0.0
H373 H 0.87721 0.24114 0.50819 0.0
H374 H 0.91789 0.40984 0.47871 0.0
H375 H 0.79158 0.342 0.53003 0.0
H376 H 0.89535 0.44007 0.49608 0.0
H377 H 0.77945 0.36124 0.49526 0.0
O378 O 0.90596 0.34127 0.51848 0.0
H379 H 0.86179 0.26734 0.58253 0.0
H380 H 0.92166 0.27142 0.52593 0.0
H381 H 0.93003 0.25603 0.56328 0.0
H382 H 0.89995 0.25387 0.59187 0.0
H383 H 0.8542 0.2828 0.54502 0.0
H384 H 0.89501 0.20893 0.48954 0.0
H385 H 0.92349 0.21543 0.45998 0.0
O386 O 0.91094 0.30652 0.50486 0.0
C387 C 0.87721 0.32394 0.46746 0.0
C388 C 0.9212 0.25126 0.46225 0.0
C389 C 0.89955 0.22579 0.48478 0.0
N390 N 0.89521 0.26543 0.48938 0.0
C391 C 0.91075 0.26915 0.47303 0.0
C392 C 0.88947 0.24409 0.49522 0.0
C393 C 0.91554 0.22945 0.4682 0.0
C394 C 0.82665 0.34496 0.52222 0.0
N395 N 0.84224 0.35237 0.50724 0.0
C396 C 0.80385 0.34802 0.51817 0.0
C397 C 0.79706 0.35878 0.49864 0.0
C398 C 0.81306 0.36633 0.48345 0.0
C399 C 0.83571 0.36294 0.48804 0.0
C400 C 0.87332 0.41721 0.51304 0.0
C401 C 0.89831 0.38346 0.49359 0.0
C402 C 0.86828 0.39473 0.51688 0.0
N403 N 0.88069 0.37818 0.50715 0.0
C404 C 0.90386 0.40576 0.4894 0.0
C405 C 0.89124 0.42272 0.49919 0.0
C406 C 0.91851 0.32526 0.51193 0.0
C407 C 0.87502 0.26814 0.5702 0.0
C408 C 0.9085 0.27061 0.5383 0.0
C409 C 0.91333 0.26183 0.55941 0.0
C410 C 0.89644 0.26061 0.57544 0.0
N411 N 0.88743 0.27791 0.53328 0.0
C412 C 0.8708 0.27681 0.54891 0.0
Co413 Co 0.64794 0.87736 0.52747 0.0
Co414 Co 0.70272 0.88859 0.5115 0.0
O415 O 0.68036 0.8737 0.53051 0.0
C416 C 0.65171 0.89176 0.57572 0.0
O417 O 0.66506 0.90842 0.57059 0.0
C418 C 0.71665 0.83995 0.51422 0.0
O419 O 0.699 0.83506 0.52621 0.0
O420 O 0.6858 0.88144 0.48348 0.0
O421 O 0.65034 0.87574 0.49445 0.0
H422 H 0.72798 0.94162 0.45134 0.0
H423 H 0.66444 0.84205 0.55827 0.0
O424 O 0.64449 0.87859 0.56066 0.0
H425 H 0.61935 0.8024 0.50173 0.0
H426 H 0.56743 0.86426 0.54876 0.0
H427 H 0.61848 0.90292 0.49676 0.0
H428 H 0.62368 0.84334 0.50017 0.0
H429 H 0.60822 0.85954 0.55212 0.0
O430 O 0.72025 0.85991 0.50754 0.0
H431 H 0.70039 0.9222 0.47505 0.0
H432 H 0.75251 0.88694 0.50802 0.0
H433 H 0.57776 0.90769 0.49249 0.0
H434 H 0.66008 0.80114 0.56087 0.0
H435 H 0.55192 0.88836 0.51868 0.0
H436 H 0.63756 0.781 0.53234 0.0
O437 O 0.6509 0.91061 0.52589 0.0
H438 H 0.73676 0.87333 0.58719 0.0
H439 H 0.72444 0.92994 0.52855 0.0
H440 H 0.74488 0.94033 0.56278 0.0
H441 H 0.75128 0.91189 0.59238 0.0
H442 H 0.71618 0.86376 0.55292 0.0
H443 H 0.78065 0.90577 0.48445 0.0
H444 H 0.76845 0.93343 0.45595 0.0
O445 O 0.68607 0.91737 0.51432 0.0
C446 C 0.66527 0.87737 0.47935 0.0
C447 C 0.73352 0.92963 0.46372 0.0
C448 C 0.76307 0.90948 0.48229 0.0
N449 N 0.72482 0.90351 0.49297 0.0
C450 C 0.71797 0.91862 0.47724 0.0
C451 C 0.74705 0.8988 0.49552 0.0
C452 C 0.75621 0.92501 0.46631 0.0
C453 C 0.65447 0.83345 0.54588 0.0
N454 N 0.64465 0.84507 0.52883 0.0
C455 C 0.65213 0.81026 0.5474 0.0
C456 C 0.63953 0.79897 0.53137 0.0
C457 C 0.62937 0.81095 0.51415 0.0
C458 C 0.63208 0.83412 0.51319 0.0
C459 C 0.57851 0.87277 0.53725 0.0
C460 C 0.60736 0.8943 0.50811 0.0
C461 C 0.60166 0.87025 0.53913 0.0
N462 N 0.61577 0.88091 0.52461 0.0
C463 C 0.58431 0.89713 0.50566 0.0
C464 C 0.56982 0.88628 0.52036 0.0
C465 C 0.66653 0.92388 0.51987 0.0
C466 C 0.73423 0.88584 0.57434 0.0
C467 C 0.72712 0.91744 0.54132 0.0
C468 C 0.73874 0.92344 0.56068 0.0
C469 C 0.74233 0.90748 0.57727 0.0
N470 N 0.7194 0.8961 0.53843 0.0
C471 C 0.72268 0.88045 0.55475 0.0
Co472 Co 0.48836 0.13058 0.34895 0.0
Co473 Co 0.50266 0.12722 0.2928 0.0
O474 O 0.4852 0.13984 0.31762 0.0
C475 C 0.43896 0.12318 0.3432 0.0
O476 O 0.44248 0.11008 0.32592 0.0
C477 C 0.50983 0.17644 0.28818 0.0
O478 O 0.51299 0.1779 0.30987 0.0
O479 O 0.53143 0.13114 0.30958 0.0
O480 O 0.5214 0.12928 0.34582 0.0
H481 H 0.56047 0.07691 0.25837 0.0
H482 H 0.46324 0.1716 0.33697 0.0
O483 O 0.45527 0.13243 0.35326 0.0
H484 H 0.5224 0.19652 0.38879 0.0
H485 H 0.46992 0.13243 0.43122 0.0
H486 H 0.51606 0.09704 0.3727 0.0
H487 H 0.51845 0.15665 0.37903 0.0
H488 H 0.46665 0.14434 0.39188 0.0
O489 O 0.50605 0.15756 0.27913 0.0
H490 H 0.53805 0.09276 0.28918 0.0
H491 H 0.50429 0.13538 0.24346 0.0
H492 H 0.52012 0.08487 0.41192 0.0
H493 H 0.46634 0.21163 0.34651 0.0
H494 H 0.49693 0.10259 0.44149 0.0
H495 H 0.49617 0.22433 0.3725 0.0
O496 O 0.48595 0.09824 0.3406 0.0
H497 H 0.42723 0.15123 0.26459 0.0
H498 H 0.48297 0.09052 0.26527 0.0
H499 H 0.44739 0.08516 0.24507 0.0
H500 H 0.41924 0.11569 0.24463 0.0
H501 H 0.46292 0.15576 0.28476 0.0
H502 H 0.52652 0.1202 0.21223 0.0
H503 H 0.55478 0.09066 0.21957 0.0
O504 O 0.499 0.09656 0.30528 0.0
C505 C 0.53606 0.13058 0.33043 0.0
C506 C 0.54818 0.08974 0.25495 0.0
C507 C 0.52915 0.11407 0.22906 0.0
N508 N 0.51983 0.11492 0.26813 0.0
C509 C 0.53539 0.09874 0.27232 0.0
C510 C 0.51668 0.12267 0.24684 0.0
C511 C 0.54499 0.09748 0.23319 0.0
C512 C 0.47619 0.177 0.34837 0.0
N513 N 0.4908 0.16185 0.35725 0.0
C514 C 0.47789 0.19968 0.35368 0.0
C515 C 0.49465 0.2068 0.36825 0.0
C516 C 0.50938 0.19122 0.37737 0.0
C517 C 0.50717 0.16869 0.37167 0.0
C518 C 0.48015 0.1246 0.41849 0.0
C519 C 0.50602 0.10494 0.38549 0.0
C520 C 0.4783 0.1312 0.39616 0.0
N521 N 0.49123 0.12146 0.38 0.0
C522 C 0.50834 0.09793 0.40767 0.0
C523 C 0.49531 0.10786 0.42425 0.0
C524 C 0.49173 0.08741 0.32313 0.0
C525 C 0.43934 0.13779 0.26471 0.0
C526 C 0.4707 0.10377 0.26534 0.0
C527 C 0.45064 0.1007 0.25378 0.0
C528 C 0.43486 0.11784 0.25351 0.0
N529 N 0.47494 0.12334 0.27636 0.0
C530 C 0.45959 0.14026 0.27609 0.0
Co531 Co 0.88684 0.47448 0.35118 0.0
Co532 Co 0.87541 0.49028 0.2967 0.0
O533 O 0.86986 0.47167 0.3232 0.0
C534 C 0.88116 0.42432 0.34428 0.0
O535 O 0.87192 0.42676 0.32455 0.0
C536 C 0.83101 0.50826 0.28489 0.0
O537 O 0.84042 0.52811 0.28485 0.0
O538 O 0.8729 0.5182 0.31508 0.0
O539 O 0.88744 0.50753 0.34805 0.0
H540 H 0.9112 0.55335 0.25417 0.0
H541 H 0.84357 0.4496 0.35022 0.0
O542 O 0.88735 0.44123 0.35569 0.0
H543 H 0.83373 0.50872 0.4068 0.0
H544 H 0.90634 0.45515 0.43091 0.0
H545 H 0.92523 0.50233 0.36596 0.0
H546 H 0.86932 0.50507 0.38635 0.0
H547 H 0.88462 0.45236 0.39597 0.0
O548 O 0.84229 0.49112 0.29074 0.0
H549 H 0.90395 0.52963 0.28715 0.0
H550 H 0.85862 0.49001 0.2494 0.0
H551 H 0.94725 0.50582 0.40064 0.0
H552 H 0.80784 0.45247 0.37046 0.0
H553 H 0.93785 0.48211 0.43345 0.0
H554 H 0.80271 0.48221 0.39901 0.0
O555 O 0.91572 0.4725 0.33484 0.0
H556 H 0.8495 0.41517 0.26921 0.0
H557 H 0.90827 0.4726 0.26338 0.0
H558 H 0.91154 0.43801 0.24123 0.0
H559 H 0.88192 0.40902 0.24398 0.0
H560 H 0.84722 0.44979 0.29147 0.0
H561 H 0.86527 0.51338 0.21609 0.0
H562 H 0.89175 0.54531 0.21834 0.0
O563 O 0.90849 0.4896 0.30212 0.0
C564 C 0.8805 0.52245 0.33456 0.0
C565 C 0.89964 0.53948 0.25298 0.0
C566 C 0.87388 0.51704 0.2316 0.0
N567 N 0.88087 0.50846 0.27025 0.0
C568 C 0.89547 0.52598 0.2716 0.0
C569 C 0.87019 0.50385 0.25052 0.0
C570 C 0.88872 0.53496 0.23288 0.0
C571 C 0.84166 0.46238 0.3628 0.0
N572 N 0.85874 0.47685 0.36735 0.0
C573 C 0.82129 0.46402 0.37413 0.0
C574 C 0.81841 0.48074 0.39011 0.0
C575 C 0.8358 0.49561 0.39449 0.0
C576 C 0.85592 0.49346 0.38283 0.0
C577 C 0.91057 0.46561 0.41675 0.0
C578 C 0.92093 0.49207 0.38019 0.0
C579 C 0.89838 0.46405 0.39688 0.0
N580 N 0.9036 0.47723 0.37891 0.0
C581 C 0.9335 0.49407 0.39978 0.0
C582 C 0.92825 0.48074 0.41816 0.0
C583 C 0.922 0.48135 0.31647 0.0
C584 C 0.86255 0.42764 0.26791 0.0
C585 C 0.89561 0.45988 0.26507 0.0
C586 C 0.89741 0.44042 0.25229 0.0
C587 C 0.88076 0.42419 0.25378 0.0
N588 N 0.87778 0.46312 0.27899 0.0
C589 C 0.86132 0.44733 0.28042 0.0
Co590 Co 0.51002 0.8881 0.35915 0.0
Co591 Co 0.50075 0.87769 0.30398 0.0
O592 O 0.51703 0.87195 0.33168 0.0
C593 C 0.56 0.89233 0.35839 0.0
O594 O 0.55932 0.902 0.33867 0.0
C595 C 0.4898 0.8315 0.28939 0.0
O596 O 0.46865 0.83741 0.28952 0.0
O597 O 0.47192 0.87076 0.31942 0.0
O598 O 0.47768 0.88979 0.35117 0.0
H599 H 0.43831 0.9094 0.25752 0.0
H600 H 0.53448 0.84502 0.36149 0.0
O601 O 0.54208 0.88636 0.36819 0.0
H602 H 0.46653 0.83408 0.40698 0.0
H603 H 0.51684 0.90448 0.44155 0.0
H604 H 0.4818 0.92734 0.37047 0.0
H605 H 0.47374 0.87018 0.38843 0.0
H606 H 0.5248 0.88391 0.40669 0.0
O607 O 0.50477 0.84533 0.29573 0.0
H608 H 0.4595 0.90251 0.29225 0.0
H609 H 0.50713 0.86399 0.25629 0.0
H610 H 0.4732 0.94821 0.40496 0.0
H611 H 0.52804 0.80871 0.37999 0.0
H612 H 0.49076 0.9368 0.44086 0.0
H613 H 0.49385 0.80306 0.4029 0.0
O614 O 0.51508 0.91716 0.34378 0.0
H615 H 0.58155 0.86473 0.28485 0.0
H616 H 0.5169 0.91489 0.27477 0.0
H617 H 0.55291 0.92442 0.25709 0.0
H618 H 0.58555 0.89921 0.26202 0.0
H619 H 0.54528 0.85595 0.30243 0.0
H620 H 0.4864 0.87038 0.22118 0.0
H621 H 0.45174 0.89327 0.22166 0.0
O622 O 0.49693 0.91015 0.31171 0.0
C623 C 0.46479 0.87999 0.33728 0.0
C624 C 0.4534 0.89942 0.2571 0.0
C625 C 0.48039 0.87752 0.2367 0.0
N626 N 0.48455 0.88291 0.2763 0.0
C627 C 0.46547 0.89547 0.27671 0.0
C628 C 0.49204 0.87395 0.25663 0.0
C629 C 0.46094 0.89036 0.23698 0.0
C630 C 0.51962 0.84273 0.37154 0.0
N631 N 0.50457 0.85974 0.37396 0.0
C632 C 0.51604 0.82211 0.38193 0.0
C633 C 0.49684 0.81895 0.39477 0.0
C634 C 0.4815 0.83634 0.39706 0.0
C635 C 0.48565 0.85673 0.38645 0.0
C636 C 0.50904 0.90958 0.42603 0.0
C637 C 0.48942 0.92218 0.38603 0.0
C638 C 0.51353 0.89804 0.40622 0.0
N639 N 0.50363 0.90429 0.38657 0.0
C640 C 0.48453 0.93411 0.40551 0.0
C641 C 0.4944 0.92771 0.42563 0.0
C642 C 0.50527 0.92373 0.32599 0.0
C643 C 0.56743 0.87581 0.28251 0.0
C644 C 0.53103 0.90387 0.27707 0.0
C645 C 0.55137 0.90933 0.26697 0.0
C646 C 0.56967 0.89517 0.26973 0.0
N647 N 0.52893 0.88478 0.28949 0.0
C648 C 0.54683 0.87088 0.29235 0.0
Co649 Co 0.12238 0.50002 0.34651 0.0
Co650 Co 0.13038 0.49119 0.29042 0.0
O651 O 0.13823 0.50642 0.31847 0.0
C652 C 0.12375 0.5503 0.34655 0.0
O653 O 0.11917 0.5511 0.32509 0.0
C654 C 0.1806 0.48835 0.29115 0.0
O655 O 0.1805 0.48409 0.31269 0.0
O656 O 0.13452 0.46122 0.30493 0.0
O657 O 0.11834 0.46821 0.33797 0.0
H658 H 0.09025 0.43393 0.24381 0.0
H659 H 0.16663 0.52224 0.34858 0.0
O660 O 0.12584 0.53164 0.35654 0.0
H661 H 0.17554 0.45193 0.39075 0.0
H662 H 0.10943 0.50543 0.42965 0.0
H663 H 0.08168 0.47422 0.35854 0.0
H664 H 0.13927 0.46172 0.37379 0.0
H665 H 0.12951 0.51261 0.39436 0.0
O666 O 0.16234 0.49123 0.28062 0.0
H667 H 0.10009 0.45379 0.27861 0.0
H668 H 0.14447 0.49604 0.24266 0.0
H669 H 0.06112 0.46654 0.39344 0.0
H670 H 0.20315 0.51324 0.36555 0.0
H671 H 0.07501 0.48216 0.42936 0.0
H672 H 0.20779 0.47783 0.38676 0.0
O673 O 0.09315 0.50726 0.3323 0.0
H674 H 0.15253 0.57034 0.27304 0.0
H675 H 0.09593 0.5118 0.26054 0.0
H676 H 0.09065 0.54897 0.24355 0.0
H677 H 0.11916 0.57855 0.2497 0.0
H678 H 0.15687 0.53301 0.29002 0.0
H679 H 0.13536 0.47644 0.20755 0.0
H680 H 0.10797 0.4452 0.20795 0.0
O681 O 0.09785 0.49116 0.2987 0.0
C682 C 0.12573 0.45472 0.32327 0.0
C683 C 0.10218 0.44753 0.24341 0.0
C684 C 0.12753 0.47136 0.22306 0.0
N685 N 0.12281 0.47608 0.26269 0.0
C686 C 0.10778 0.45887 0.26306 0.0
C687 C 0.1327 0.48233 0.24303 0.0
C688 C 0.11215 0.45385 0.2233 0.0
C689 C 0.16847 0.50691 0.35797 0.0
N690 N 0.15083 0.49258 0.36024 0.0
C691 C 0.18921 0.50185 0.36746 0.0
C692 C 0.19181 0.48196 0.37933 0.0
C693 C 0.17373 0.46742 0.38155 0.0
C694 C 0.15325 0.47302 0.37183 0.0
C695 C 0.10321 0.49852 0.41411 0.0
C696 C 0.08783 0.48109 0.37407 0.0
C697 C 0.11446 0.5026 0.39404 0.0
N698 N 0.10675 0.49389 0.37435 0.0
C699 C 0.07611 0.4767 0.3938 0.0
C700 C 0.0839 0.48547 0.41394 0.0
C701 C 0.08546 0.49961 0.31392 0.0
C702 C 0.13997 0.55761 0.27027 0.0
C703 C 0.10816 0.52466 0.2636 0.0
C704 C 0.10521 0.54564 0.25378 0.0
C705 C 0.12123 0.56221 0.2572 0.0
N706 N 0.12652 0.52028 0.27648 0.0
C707 C 0.14235 0.53642 0.27981 0.0
Co708 Co 0.48909 0.87667 0.64818 0.0
Co709 Co 0.49217 0.87062 0.70567 0.0
O710 O 0.4806 0.86238 0.67625 0.0
C711 C 0.43953 0.88222 0.64841 0.0
O712 O 0.44067 0.89105 0.66849 0.0
C713 C 0.51045 0.82762 0.72216 0.0
O714 O 0.52922 0.83834 0.72608 0.0
O715 O 0.52377 0.87026 0.69438 0.0
O716 O 0.52087 0.87707 0.65742 0.0
H717 H 0.54025 0.91368 0.75952 0.0
H718 H 0.4624 0.83485 0.64763 0.0
O719 O 0.45722 0.87611 0.63824 0.0
H720 H 0.53107 0.81752 0.60536 0.0
H721 H 0.48562 0.8882 0.56477 0.0
H722 H 0.52029 0.91305 0.63539 0.0
H723 H 0.52527 0.85507 0.62143 0.0
H724 H 0.47532 0.87047 0.60057 0.0
O725 O 0.49402 0.83788 0.71323 0.0
H726 H 0.52543 0.90328 0.72243 0.0
H727 H 0.48296 0.85479 0.75228 0.0
H728 H 0.53121 0.93112 0.59994 0.0
H729 H 0.46746 0.79714 0.63169 0.0
H730 H 0.51386 0.91867 0.56429 0.0
H731 H 0.50202 0.78828 0.61041 0.0
O732 O 0.48495 0.90716 0.66115 0.0
H733 H 0.41393 0.84088 0.71359 0.0
H734 H 0.46527 0.90225 0.73341 0.0
H735 H 0.42603 0.90379 0.74601 0.0
H736 H 0.40007 0.8729 0.73614 0.0
H737 H 0.45323 0.8402 0.70111 0.0
H738 H 0.49739 0.86458 0.78969 0.0
H739 H 0.52623 0.89424 0.79347 0.0
O740 O 0.49001 0.90312 0.69829 0.0
C741 C 0.53224 0.87386 0.67511 0.0
C742 C 0.52767 0.90074 0.75809 0.0
C743 C 0.50362 0.87318 0.77502 0.0
N744 N 0.50334 0.87847 0.73519 0.0
C745 C 0.51921 0.8948 0.73713 0.0
C746 C 0.49553 0.86771 0.7538 0.0
C747 C 0.51981 0.88982 0.77713 0.0
C748 C 0.47744 0.83115 0.6383 0.0
N749 N 0.49347 0.84716 0.6354 0.0
C750 C 0.48023 0.80976 0.62936 0.0
C751 C 0.49964 0.80479 0.61744 0.0
C752 C 0.51596 0.82119 0.61462 0.0
C753 C 0.5126 0.84239 0.62381 0.0
C754 C 0.49332 0.89375 0.58019 0.0
C755 C 0.51271 0.9075 0.61994 0.0
C756 C 0.4875 0.88383 0.60052 0.0
N757 N 0.49727 0.89066 0.62005 0.0
C758 C 0.51893 0.91782 0.59992 0.0
C759 C 0.50917 0.91084 0.57993 0.0
C760 C 0.4868 0.91511 0.6809 0.0
C761 C 0.42508 0.85445 0.718 0.0
C762 C 0.45402 0.8889 0.72885 0.0
C763 C 0.43185 0.88978 0.73614 0.0
C764 C 0.4173 0.87243 0.73062 0.0
N765 N 0.46153 0.87123 0.71645 0.0
C766 C 0.44737 0.85413 0.71103 0.0
Co767 Co 0.12738 0.49393 0.64399 0.0
Co768 Co 0.11859 0.50121 0.7004 0.0
O769 O 0.13359 0.48665 0.67521 0.0
C770 C 0.12221 0.44439 0.64382 0.0
O771 O 0.1091 0.44599 0.66138 0.0
C772 C 0.1585 0.51575 0.72673 0.0
O773 O 0.15138 0.53644 0.72492 0.0
O774 O 0.12633 0.5315 0.68846 0.0
O775 O 0.12342 0.52601 0.65141 0.0
H776 H 0.06766 0.55713 0.73698 0.0
H777 H 0.16834 0.46848 0.65536 0.0
O778 O 0.13112 0.46182 0.63545 0.0
H779 H 0.19488 0.53702 0.61792 0.0
H780 H 0.13883 0.48795 0.56069 0.0
H781 H 0.09481 0.52341 0.62077 0.0
H782 H 0.15453 0.5303 0.62322 0.0
H783 H 0.14667 0.47939 0.60028 0.0
O784 O 0.14766 0.49984 0.71747 0.0
H785 H 0.0866 0.53874 0.70528 0.0
H786 H 0.11953 0.49434 0.74989 0.0
H787 H 0.08666 0.53271 0.58143 0.0
H788 H 0.20886 0.47444 0.65022 0.0
H789 H 0.10874 0.51494 0.55106 0.0
H790 H 0.22235 0.50893 0.6314 0.0
O791 O 0.09482 0.48925 0.64872 0.0
H792 H 0.13399 0.42121 0.72107 0.0
H793 H 0.07659 0.48026 0.71741 0.0
H794 H 0.0662 0.44272 0.7309 0.0
H795 H 0.09504 0.41289 0.73287 0.0
H796 H 0.14359 0.45893 0.70743 0.0
H797 H 0.10111 0.5124 0.78211 0.0
H798 H 0.0749 0.54399 0.77574 0.0
O799 O 0.08941 0.50231 0.68361 0.0
C800 C 0.12493 0.53865 0.66843 0.0
C801 C 0.07903 0.54338 0.73997 0.0
C802 C 0.09782 0.51828 0.7653 0.0
N803 N 0.1041 0.51546 0.72573 0.0
C804 C 0.08978 0.53287 0.72209 0.0
C805 C 0.10823 0.50816 0.74701 0.0
C806 C 0.08311 0.536 0.76171 0.0
C807 C 0.1741 0.48346 0.64702 0.0
N808 N 0.1591 0.49894 0.63948 0.0
C809 C 0.19705 0.48677 0.64422 0.0
C810 C 0.20461 0.50614 0.63368 0.0
C811 C 0.18921 0.52191 0.62612 0.0
C812 C 0.16638 0.51803 0.62922 0.0
C813 C 0.1291 0.49583 0.57378 0.0
C814 C 0.10459 0.51567 0.60768 0.0
C815 C 0.1334 0.49096 0.59623 0.0
N816 N 0.12125 0.5009 0.61285 0.0
C817 C 0.09985 0.52097 0.58542 0.0
C818 C 0.11223 0.51097 0.56838 0.0
C819 C 0.08209 0.49587 0.66454 0.0
C820 C 0.12129 0.43408 0.72035 0.0
C821 C 0.0892 0.46735 0.71809 0.0
C822 C 0.08324 0.44613 0.72582 0.0
C823 C 0.09943 0.42942 0.72693 0.0
N824 N 0.11069 0.47182 0.71171 0.0
C825 C 0.12665 0.4555 0.71272 0.0
Co826 Co 0.5097 0.11551 0.65137 0.0
Co827 Co 0.48867 0.12487 0.70399 0.0
O828 O 0.51087 0.13123 0.68038 0.0
C829 C 0.55978 0.12263 0.65961 0.0
O830 O 0.55695 0.13203 0.67924 0.0
C831 C 0.49918 0.17458 0.70917 0.0
O832 O 0.51431 0.17445 0.69328 0.0
O833 O 0.4637 0.1318 0.68287 0.0
O834 O 0.47644 0.11416 0.65251 0.0
H835 H 0.41852 0.08976 0.73421 0.0
H836 H 0.53371 0.15923 0.6548 0.0
O837 O 0.54311 0.11575 0.64824 0.0
H838 H 0.47692 0.16993 0.59608 0.0
H839 H 0.53183 0.10019 0.5714 0.0
H840 H 0.48395 0.07664 0.6343 0.0
H841 H 0.48047 0.13372 0.61532 0.0
H842 H 0.53325 0.12022 0.60743 0.0
O843 O 0.48828 0.15697 0.71423 0.0
H844 H 0.44712 0.09783 0.70561 0.0
H845 H 0.48244 0.13889 0.75163 0.0
H846 H 0.482 0.05621 0.59856 0.0
H847 H 0.53094 0.19559 0.63581 0.0
H848 H 0.50604 0.06797 0.56677 0.0
H849 H 0.50234 0.20119 0.6062 0.0
O850 O 0.5115 0.08619 0.6669 0.0
H851 H 0.56354 0.13667 0.74134 0.0
H852 H 0.49683 0.08856 0.73707 0.0
H853 H 0.52715 0.07878 0.7631 0.0
H854 H 0.5608 0.10301 0.76551 0.0
H855 H 0.53312 0.14552 0.71533 0.0
H856 H 0.45409 0.13143 0.78064 0.0
H857 H 0.4219 0.10662 0.77204 0.0
O858 O 0.48776 0.09249 0.69521 0.0
C859 C 0.4607 0.12327 0.66356 0.0
C860 C 0.4325 0.10055 0.73818 0.0
C861 C 0.45245 0.12397 0.76422 0.0
N862 N 0.46652 0.1187 0.72696 0.0
C863 C 0.44879 0.10514 0.72206 0.0
C864 C 0.46841 0.12819 0.74769 0.0
C865 C 0.4344 0.11003 0.75939 0.0
C866 C 0.52143 0.16133 0.64181 0.0
N867 N 0.5075 0.14416 0.63608 0.0
C868 C 0.51984 0.18206 0.63116 0.0
C869 C 0.50377 0.18521 0.61458 0.0
C870 C 0.4895 0.16769 0.60891 0.0
C871 C 0.49158 0.14721 0.61992 0.0
C872 C 0.52128 0.09491 0.58513 0.0
C873 C 0.49444 0.08192 0.62056 0.0
C874 C 0.52203 0.10616 0.6056 0.0
N875 N 0.50857 0.09973 0.62295 0.0
C876 C 0.49328 0.07025 0.60035 0.0
C877 C 0.50679 0.07684 0.58253 0.0
C878 C 0.49887 0.07928 0.68263 0.0
C879 C 0.54891 0.12605 0.74056 0.0
C880 C 0.51141 0.09915 0.73785 0.0
C881 C 0.52853 0.09355 0.75272 0.0
C882 C 0.54739 0.10715 0.75408 0.0
N883 N 0.51287 0.11785 0.72474 0.0
C884 C 0.53144 0.1311 0.72589 0.0
Co885 Co 0.87132 0.52056 0.64979 0.0
Co886 Co 0.88417 0.5034 0.70389 0.0
O887 O 0.86849 0.52288 0.68244 0.0
C888 C 0.88554 0.56871 0.65415 0.0
O889 O 0.90192 0.5633 0.66774 0.0
C890 C 0.83614 0.50582 0.72027 0.0
O891 O 0.83005 0.5174 0.70271 0.0
O892 O 0.87611 0.47577 0.6867 0.0
O893 O 0.87007 0.48745 0.65153 0.0
H894 H 0.93757 0.44229 0.72571 0.0
H895 H 0.83628 0.55044 0.66823 0.0
O896 O 0.8722 0.55384 0.64682 0.0
H897 H 0.79573 0.49473 0.62292 0.0
H898 H 0.85566 0.54305 0.57004 0.0
H899 H 0.89674 0.49101 0.61909 0.0
H900 H 0.83682 0.49354 0.62582 0.0
H901 H 0.85182 0.54544 0.61101 0.0
O902 O 0.85635 0.49936 0.72266 0.0
H903 H 0.91729 0.46676 0.69944 0.0
H904 H 0.88463 0.49899 0.7537 0.0
H905 H 0.90066 0.4877 0.57816 0.0
H906 H 0.7952 0.55263 0.66538 0.0
H907 H 0.88011 0.51391 0.55332 0.0
H908 H 0.77462 0.52452 0.64273 0.0
O909 O 0.90468 0.51938 0.65177 0.0
H910 H 0.87051 0.57848 0.73968 0.0
H911 H 0.92635 0.5198 0.72464 0.0
H912 H 0.9376 0.55361 0.74529 0.0
H913 H 0.90954 0.58322 0.75306 0.0
H914 H 0.86009 0.5446 0.71884 0.0
H915 H 0.90434 0.47466 0.78054 0.0
H916 H 0.93113 0.44614 0.76659 0.0
O917 O 0.91232 0.50643 0.68626 0.0
C918 C 0.87178 0.47205 0.66612 0.0
C919 C 0.92598 0.45469 0.732 0.0
C920 C 0.9073 0.47282 0.76277 0.0
N921 N 0.89986 0.48436 0.72501 0.0
C922 C 0.91448 0.46863 0.71721 0.0
C923 C 0.89611 0.48649 0.74748 0.0
C924 C 0.92234 0.45684 0.75493 0.0
C925 C 0.82747 0.53823 0.65822 0.0
N926 N 0.83894 0.52163 0.64749 0.0
C927 C 0.80419 0.53952 0.65673 0.0
C928 C 0.79265 0.52373 0.64405 0.0
C929 C 0.80448 0.50697 0.63299 0.0
C930 C 0.82774 0.50622 0.63487 0.0
C931 C 0.8647 0.53152 0.58067 0.0
C932 C 0.88759 0.50236 0.60841 0.0
C933 C 0.86269 0.53287 0.60392 0.0
N934 N 0.87402 0.51835 0.61748 0.0
C935 C 0.88994 0.50045 0.58523 0.0
C936 C 0.87841 0.51517 0.57131 0.0
C937 C 0.91836 0.51283 0.66683 0.0
C938 C 0.88285 0.56563 0.73653 0.0
C939 C 0.91404 0.53259 0.72788 0.0
C940 C 0.92051 0.55171 0.73963 0.0
C941 C 0.90476 0.56831 0.74399 0.0
N942 N 0.89246 0.52995 0.72076 0.0
C943 C 0.877 0.54627 0.72483 0.0
Co944 Co 0.35878 0.49317 0.13188 0.0
Co945 Co 0.30371 0.50769 0.12917 0.0
O946 O 0.32801 0.48994 0.14209 0.0
C947 C 0.35451 0.44344 0.13011 0.0
O948 O 0.33649 0.44539 0.1177 0.0
C949 C 0.29777 0.51227 0.17828 0.0
O950 O 0.31909 0.51731 0.17965 0.0
O951 O 0.31993 0.53606 0.13598 0.0
O952 O 0.35448 0.52571 0.12589 0.0
H953 H 0.27038 0.5682 0.08133 0.0
H954 H 0.35035 0.47225 0.17599 0.0
O955 O 0.36437 0.46076 0.13759 0.0
H956 H 0.39717 0.53827 0.19182 0.0
H957 H 0.44177 0.4789 0.1345 0.0
H958 H 0.38057 0.51611 0.09362 0.0
H959 H 0.38637 0.52903 0.15309 0.0
H960 H 0.40283 0.47576 0.14768 0.0
O961 O 0.28887 0.50858 0.15926 0.0
H962 H 0.30095 0.54559 0.09727 0.0
H963 H 0.25418 0.50772 0.13503 0.0
H964 H 0.41933 0.5201 0.08011 0.0
H965 H 0.36098 0.48074 0.21497 0.0
H966 H 0.45026 0.50138 0.10058 0.0
H967 H 0.38449 0.51401 0.22308 0.0
O968 O 0.34928 0.48637 0.10081 0.0
H969 H 0.27417 0.43093 0.14642 0.0
H970 H 0.28061 0.48957 0.08877 0.0
H971 H 0.26136 0.45425 0.0797 0.0
H972 H 0.25799 0.42465 0.10866 0.0
H973 H 0.29346 0.46642 0.15472 0.0
H974 H 0.22311 0.53012 0.11972 0.0
H975 H 0.23112 0.56054 0.09258 0.0
O976 O 0.31787 0.50685 0.09856 0.0
C977 C 0.33996 0.54066 0.13034 0.0
C978 C 0.26667 0.55496 0.0931 0.0
C979 C 0.24014 0.5336 0.11467 0.0
N980 N 0.27935 0.52526 0.11694 0.0
C981 C 0.28391 0.54205 0.10213 0.0
C982 C 0.25781 0.52102 0.12334 0.0
C983 C 0.24465 0.55066 0.09944 0.0
C984 C 0.36078 0.48662 0.17938 0.0
N985 N 0.36778 0.50007 0.16229 0.0
C986 C 0.36666 0.4914 0.20149 0.0
C987 C 0.37982 0.51009 0.20603 0.0
C988 C 0.38692 0.52373 0.1885 0.0
C989 C 0.38069 0.51844 0.16661 0.0
C990 C 0.42845 0.4872 0.12547 0.0
C991 C 0.39395 0.50809 0.10274 0.0
C992 C 0.40635 0.48541 0.13281 0.0
N993 N 0.38944 0.49591 0.12155 0.0
C994 C 0.41586 0.51033 0.09496 0.0
C995 C 0.4332 0.49981 0.10644 0.0
C996 C 0.33383 0.49582 0.08956 0.0
C997 C 0.27547 0.44372 0.13368 0.0
C998 C 0.27928 0.47674 0.10145 0.0
C999 C 0.26832 0.45679 0.09622 0.0
C1000 C 0.26643 0.4402 0.11248 0.0
N1001 N 0.28806 0.4801 0.1223 0.0
C1002 C 0.28632 0.46388 0.13831 0.0
Co1003 Co 0.34433 0.53006 0.88507 0.0
Co1004 Co 0.29397 0.50204 0.88634 0.0
O1005 O 0.31265 0.52745 0.87669 0.0
C1006 C 0.34489 0.57661 0.90302 0.0
O1007 O 0.34688 0.56821 0.92321 0.0
C1008 C 0.27881 0.5128 0.83879 0.0
O1009 O 0.29344 0.52901 0.83676 0.0
O1010 O 0.31604 0.48041 0.87398 0.0
O1011 O 0.34832 0.49689 0.88359 0.0
H1012 H 0.28036 0.42723 0.92222 0.0
H1013 H 0.32808 0.55767 0.84722 0.0
O1014 O 0.34153 0.56369 0.88632 0.0
H1015 H 0.38746 0.51014 0.81539 0.0
H1016 H 0.42188 0.56331 0.8827 0.0
H1017 H 0.37365 0.50581 0.91688 0.0
H1018 H 0.37763 0.5075 0.85533 0.0
H1019 H 0.38239 0.55967 0.87144 0.0
O1020 O 0.27745 0.50146 0.85683 0.0
H1021 H 0.30301 0.45962 0.91053 0.0
H1022 H 0.24562 0.49028 0.88201 0.0
H1023 H 0.41313 0.50864 0.92839 0.0
H1024 H 0.33762 0.56115 0.80723 0.0
H1025 H 0.43752 0.53765 0.91135 0.0
H1026 H 0.36746 0.53722 0.79104 0.0
O1027 O 0.33616 0.52729 0.91722 0.0
H1028 H 0.2461 0.57145 0.88664 0.0
H1029 H 0.26959 0.50515 0.92962 0.0
H1030 H 0.24293 0.53171 0.94635 0.0
H1031 H 0.23088 0.56509 0.92477 0.0
H1032 H 0.27294 0.54471 0.87071 0.0
H1033 H 0.22239 0.45812 0.89326 0.0
H1034 H 0.23974 0.42633 0.91359 0.0
O1035 O 0.30954 0.50087 0.91604 0.0
C1036 C 0.33711 0.47987 0.87726 0.0
C1037 C 0.27259 0.441 0.91343 0.0
C1038 C 0.24006 0.45833 0.89714 0.0
N1039 N 0.27565 0.47689 0.89568 0.0
C1040 C 0.28533 0.45943 0.9068 0.0
C1041 C 0.25332 0.47647 0.89075 0.0
C1042 C 0.24981 0.4405 0.90856 0.0
C1043 C 0.34114 0.54725 0.84033 0.0
N1044 N 0.35215 0.53227 0.8536 0.0
C1045 C 0.34644 0.54927 0.81766 0.0
C1046 C 0.36316 0.53582 0.80858 0.0
C1047 C 0.37436 0.5206 0.82222 0.0
C1048 C 0.3686 0.51905 0.84481 0.0
C1049 C 0.41139 0.55069 0.89033 0.0
C1050 C 0.38413 0.51847 0.90935 0.0
C1051 C 0.38897 0.54863 0.8841 0.0
N1052 N 0.37561 0.5327 0.89362 0.0
C1053 C 0.40649 0.51999 0.91595 0.0
C1054 C 0.42017 0.53626 0.90638 0.0
C1055 C 0.32374 0.51277 0.92656 0.0
C1056 C 0.25107 0.55686 0.89614 0.0
C1057 C 0.26443 0.5196 0.92006 0.0
C1058 C 0.24932 0.53459 0.92965 0.0
C1059 C 0.24257 0.55331 0.91755 0.0
N1060 N 0.27252 0.52302 0.89891 0.0
C1061 C 0.26618 0.54151 0.88709 0.0
Co1062 Co 0.49698 0.35534 0.87199 0.0
Co1063 Co 0.49804 0.29801 0.8801 0.0
O1064 O 0.4863 0.32515 0.86594 0.0
C1065 C 0.44775 0.35894 0.87987 0.0
O1066 O 0.44756 0.33894 0.8889 0.0
C1067 C 0.51191 0.27334 0.83872 0.0
O1068 O 0.53231 0.27206 0.84676 0.0
O1069 O 0.5298 0.30731 0.87471 0.0
O1070 O 0.5283 0.34475 0.87189 0.0
H1071 H 0.54736 0.25345 0.93153 0.0
H1072 H 0.46657 0.34704 0.83375 0.0
O1073 O 0.46576 0.3672 0.87213 0.0
H1074 H 0.53453 0.38025 0.80082 0.0
H1075 H 0.49772 0.43912 0.8635 0.0
H1076 H 0.53187 0.37447 0.90165 0.0
H1077 H 0.53162 0.37445 0.84157 0.0
H1078 H 0.48472 0.40083 0.85548 0.0
O1079 O 0.49658 0.28313 0.8499 0.0
H1080 H 0.53289 0.2878 0.91388 0.0
H1081 H 0.48709 0.24957 0.87534 0.0
H1082 H 0.54571 0.41248 0.90979 0.0
H1083 H 0.46865 0.35276 0.7929 0.0
H1084 H 0.52841 0.4451 0.89081 0.0
H1085 H 0.50285 0.36944 0.77619 0.0
O1086 O 0.49511 0.3501 0.90486 0.0
H1087 H 0.41744 0.28504 0.8598 0.0
H1088 H 0.47357 0.28104 0.92011 0.0
H1089 H 0.43455 0.2703 0.92799 0.0
H1090 H 0.40618 0.2722 0.89768 0.0
H1091 H 0.45658 0.29589 0.85272 0.0
H1092 H 0.50119 0.21476 0.89243 0.0
H1093 H 0.5315 0.21659 0.92079 0.0
O1094 O 0.49913 0.31301 0.9101 0.0
C1095 C 0.53902 0.32642 0.87255 0.0
C1096 C 0.53416 0.25244 0.91919 0.0
C1097 C 0.50825 0.23072 0.89723 0.0
N1098 N 0.50918 0.27069 0.8936 0.0
C1099 C 0.52588 0.27183 0.90916 0.0
C1100 C 0.50037 0.25047 0.88757 0.0
C1101 C 0.52525 0.23176 0.91315 0.0
C1102 C 0.48145 0.35441 0.82659 0.0
N1103 N 0.49894 0.36042 0.84001 0.0
C1104 C 0.48256 0.35756 0.80346 0.0
C1105 C 0.50176 0.3669 0.79409 0.0
C1106 C 0.51954 0.37296 0.80789 0.0
C1107 C 0.51784 0.36955 0.83094 0.0
C1108 C 0.50536 0.42502 0.8719 0.0
C1109 C 0.52446 0.38858 0.89312 0.0
C1110 C 0.498 0.4033 0.8675 0.0
N1111 N 0.50758 0.38541 0.87804 0.0
C1112 C 0.53231 0.41006 0.89787 0.0
C1113 C 0.52262 0.42837 0.88719 0.0
C1114 C 0.49721 0.33298 0.91749 0.0
C1115 C 0.42966 0.28406 0.87312 0.0
C1116 C 0.46131 0.28202 0.90686 0.0
C1117 C 0.43925 0.27585 0.9114 0.0
C1118 C 0.42335 0.2769 0.89439 0.0
N1119 N 0.4674 0.28898 0.88594 0.0
C1120 C 0.45189 0.29008 0.86918 0.0
Co1121 Co 0.65129 0.47387 0.8777 0.0
Co1122 Co 0.70412 0.49538 0.88564 0.0
O1123 O 0.68345 0.47349 0.87286 0.0
C1124 C 0.65669 0.42582 0.89241 0.0
O1125 O 0.66719 0.43169 0.91078 0.0
C1126 C 0.72668 0.50972 0.84309 0.0
O1127 O 0.71975 0.53031 0.84632 0.0
O1128 O 0.68542 0.52106 0.8747 0.0
O1129 O 0.65073 0.50696 0.87661 0.0
H1130 H 0.72581 0.564 0.92903 0.0
H1131 H 0.6712 0.44718 0.84101 0.0
O1132 O 0.65073 0.44046 0.87815 0.0
H1133 H 0.61697 0.4973 0.80432 0.0
H1134 H 0.57215 0.44646 0.86757 0.0
H1135 H 0.62069 0.50151 0.90521 0.0
H1136 H 0.62205 0.49818 0.84522 0.0
H1137 H 0.61288 0.44634 0.86109 0.0
O1138 O 0.72132 0.49428 0.85679 0.0
H1139 H 0.69963 0.5363 0.91326 0.0
H1140 H 0.75376 0.50069 0.88417 0.0
H1141 H 0.58003 0.50254 0.91174 0.0
H1142 H 0.66648 0.4455 0.80004 0.0
H1143 H 0.55547 0.47499 0.89283 0.0
H1144 H 0.63924 0.47073 0.78142 0.0
O1145 O 0.65579 0.4754 0.91074 0.0
H1146 H 0.74262 0.42084 0.8799 0.0
H1147 H 0.72612 0.48482 0.92918 0.0
H1148 H 0.74802 0.45314 0.94382 0.0
H1149 H 0.75649 0.42086 0.91907 0.0
H1150 H 0.72051 0.45275 0.86604 0.0
H1151 H 0.78052 0.52813 0.89945 0.0
H1152 H 0.76658 0.56002 0.92213 0.0
O1153 O 0.68727 0.49578 0.91466 0.0
C1154 C 0.66417 0.52328 0.87422 0.0
C1155 C 0.73209 0.55017 0.91919 0.0
C1156 C 0.7628 0.53005 0.90257 0.0
N1157 N 0.72516 0.5169 0.89783 0.0
C1158 C 0.71735 0.53442 0.91024 0.0
C1159 C 0.74756 0.51461 0.8939 0.0
C1160 C 0.75496 0.54794 0.9153 0.0
C1161 C 0.65928 0.45819 0.83303 0.0
N1162 N 0.64699 0.47287 0.84551 0.0
C1163 C 0.6567 0.45718 0.80983 0.0
C1164 C 0.64142 0.47134 0.79939 0.0
C1165 C 0.62895 0.48627 0.81222 0.0
C1166 C 0.63199 0.48681 0.83538 0.0
C1167 C 0.58269 0.45863 0.87587 0.0
C1168 C 0.61013 0.48948 0.89682 0.0
C1169 C 0.60579 0.45856 0.87237 0.0
N1170 N 0.61919 0.47396 0.8827 0.0
C1171 C 0.58711 0.49011 0.90065 0.0
C1172 C 0.57334 0.47459 0.89005 0.0
C1173 C 0.6698 0.48636 0.92264 0.0
C1174 C 0.73905 0.43481 0.89084 0.0
C1175 C 0.72954 0.47077 0.91838 0.0
C1176 C 0.74205 0.45291 0.92673 0.0
C1177 C 0.74681 0.43482 0.91283 0.0
N1178 N 0.722 0.47067 0.89679 0.0
C1179 C 0.72658 0.45296 0.88308 0.0
Co1180 Co 0.50454 0.64564 0.88309 0.0
Co1181 Co 0.50338 0.70296 0.87618 0.0
O1182 O 0.51423 0.67315 0.86825 0.0
C1183 C 0.55436 0.6431 0.88659 0.0
O1184 O 0.55485 0.66381 0.89387 0.0
C1185 C 0.49228 0.70479 0.82714 0.0
O1186 O 0.47825 0.68802 0.82923 0.0
O1187 O 0.47144 0.69291 0.87429 0.0
O1188 O 0.4732 0.65658 0.88412 0.0
H1189 H 0.45591 0.7582 0.91812 0.0
H1190 H 0.53009 0.64356 0.84065 0.0
O1191 O 0.53578 0.63375 0.88195 0.0
H1192 H 0.45893 0.60489 0.82507 0.0
H1193 H 0.5027 0.56225 0.89484 0.0
H1194 H 0.47386 0.63508 0.92062 0.0
H1195 H 0.46645 0.6207 0.86246 0.0
H1196 H 0.51496 0.59722 0.87674 0.0
O1197 O 0.50337 0.71178 0.8439 0.0
H1198 H 0.46998 0.7207 0.90828 0.0
H1199 H 0.51376 0.74908 0.86001 0.0
H1200 H 0.46098 0.60049 0.93904 0.0
H1201 H 0.52323 0.62798 0.80306 0.0
H1202 H 0.47536 0.56374 0.9261 0.0
H1203 H 0.48742 0.60851 0.79508 0.0
O1204 O 0.51023 0.65861 0.91346 0.0
H1205 H 0.58297 0.70868 0.84983 0.0
H1206 H 0.52974 0.72984 0.90909 0.0
H1207 H 0.56918 0.74141 0.91225 0.0
H1208 H 0.59611 0.73086 0.88242 0.0
H1209 H 0.54342 0.69721 0.84754 0.0
H1210 H 0.49997 0.78683 0.86915 0.0
H1211 H 0.47091 0.79159 0.89847 0.0
O1212 O 0.50375 0.69528 0.9086 0.0
C1213 C 0.46235 0.67424 0.8793 0.0
C1214 C 0.46862 0.75635 0.90535 0.0
C1215 C 0.49332 0.77242 0.87785 0.0
N1216 N 0.49277 0.73269 0.88369 0.0
C1217 C 0.47669 0.73516 0.89976 0.0
C1218 C 0.50101 0.75098 0.8727 0.0
C1219 C 0.47703 0.77507 0.89431 0.0
C1220 C 0.5145 0.63503 0.83734 0.0
N1221 N 0.49874 0.63296 0.85376 0.0
C1222 C 0.51069 0.62629 0.816 0.0
C1223 C 0.49058 0.61539 0.81153 0.0
C1224 C 0.47457 0.61339 0.82835 0.0
C1225 C 0.47892 0.62239 0.84948 0.0
C1226 C 0.49628 0.57816 0.9006 0.0
C1227 C 0.48017 0.61914 0.91486 0.0
C1228 C 0.50324 0.59803 0.89048 0.0
N1229 N 0.49506 0.61817 0.89754 0.0
C1230 C 0.47284 0.59962 0.92539 0.0
C1231 C 0.48094 0.579 0.91814 0.0
C1232 C 0.50755 0.67839 0.92106 0.0
C1233 C 0.57141 0.71335 0.86295 0.0
C1234 C 0.54138 0.72495 0.89623 0.0
C1235 C 0.56368 0.73167 0.89801 0.0
C1236 C 0.57877 0.72577 0.88125 0.0
N1237 N 0.53429 0.71271 0.87828 0.0
C1238 C 0.54898 0.70695 0.86173 0.0
Co1239 Co 0.65152 0.50877 0.13208 0.0
Co1240 Co 0.7078 0.50178 0.12129 0.0
O1241 O 0.6829 0.51557 0.13727 0.0
C1242 C 0.65318 0.55799 0.126 0.0
O1243 O 0.67054 0.5553 0.11281 0.0
C1244 C 0.71681 0.49148 0.16868 0.0
O1245 O 0.69648 0.48322 0.16938 0.0
O1246 O 0.69543 0.47099 0.12565 0.0
O1247 O 0.65832 0.47652 0.12872 0.0
H1248 H 0.74405 0.45126 0.06473 0.0
H1249 H 0.66462 0.53513 0.172 0.0
O1250 O 0.64393 0.54114 0.13517 0.0
H1251 H 0.62747 0.46768 0.20155 0.0
H1252 H 0.56888 0.51719 0.14587 0.0
H1253 H 0.62662 0.4788 0.10121 0.0
H1254 H 0.63111 0.4735 0.16085 0.0
H1255 H 0.60888 0.52495 0.15224 0.0
O1256 O 0.72448 0.49949 0.15044 0.0
H1257 H 0.71237 0.46822 0.08499 0.0
H1258 H 0.75727 0.50655 0.12453 0.0
H1259 H 0.58681 0.47043 0.0944 0.0
H1260 H 0.66119 0.53006 0.21283 0.0
H1261 H 0.55763 0.48964 0.11686 0.0
H1262 H 0.64256 0.4961 0.22783 0.0
O1263 O 0.6552 0.51244 0.09919 0.0
H1264 H 0.7306 0.57914 0.14499 0.0
H1265 H 0.72546 0.52645 0.08174 0.0
H1266 H 0.74008 0.56447 0.07531 0.0
H1267 H 0.74277 0.5911 0.1071 0.0
H1268 H 0.71586 0.54104 0.15062 0.0
H1269 H 0.78946 0.48977 0.10489 0.0
H1270 H 0.78293 0.46201 0.07467 0.0
O1271 O 0.69122 0.50388 0.09216 0.0
C1272 C 0.67536 0.46392 0.12701 0.0
C1273 C 0.74711 0.46338 0.07783 0.0
C1274 C 0.7726 0.48497 0.1004 0.0
N1275 N 0.73298 0.48846 0.10582 0.0
C1276 C 0.72924 0.47309 0.08932 0.0
C1277 C 0.75432 0.49435 0.11151 0.0
C1278 C 0.76892 0.4694 0.08343 0.0
C1279 C 0.65629 0.52042 0.17841 0.0
N1280 N 0.64794 0.50471 0.16407 0.0
C1281 C 0.65449 0.51759 0.20154 0.0
C1282 C 0.64406 0.49852 0.20995 0.0
C1283 C 0.63559 0.48256 0.19521 0.0
C1284 C 0.63773 0.48594 0.17219 0.0
C1285 C 0.58144 0.50867 0.13601 0.0
C1286 C 0.61403 0.48718 0.11111 0.0
C1287 C 0.60412 0.51306 0.13949 0.0
N1288 N 0.62009 0.50231 0.12715 0.0
C1289 C 0.59151 0.48239 0.10715 0.0
C1290 C 0.57514 0.49321 0.11973 0.0
C1291 C 0.67133 0.50845 0.08575 0.0
C1292 C 0.72955 0.56768 0.13102 0.0
C1293 C 0.72649 0.53797 0.09563 0.0
C1294 C 0.73483 0.55946 0.0919 0.0
C1295 C 0.73635 0.57438 0.10975 0.0
N1296 N 0.71989 0.5315 0.11654 0.0
C1297 C 0.7213 0.54605 0.13412 0.0
Co1298 Co 0.49125 0.65436 0.12513 0.0
Co1299 Co 0.50838 0.7099 0.13011 0.0
O1300 O 0.48832 0.68473 0.13778 0.0
C1301 C 0.44124 0.66404 0.12298 0.0
O1302 O 0.44334 0.68451 0.13058 0.0
C1303 C 0.50343 0.71192 0.18068 0.0
O1304 O 0.49068 0.6941 0.18114 0.0
O1305 O 0.53565 0.69106 0.1343 0.0
O1306 O 0.52408 0.65563 0.12949 0.0
H1307 H 0.5722 0.74609 0.08906 0.0
H1308 H 0.46043 0.66224 0.16382 0.0
O1309 O 0.45825 0.65154 0.12022 0.0
H1310 H 0.51304 0.60411 0.18906 0.0
H1311 H 0.46972 0.57365 0.11356 0.0
H1312 H 0.52304 0.63329 0.09348 0.0
H1313 H 0.51591 0.61984 0.1511 0.0
H1314 H 0.46594 0.6114 0.1297 0.0
O1315 O 0.51104 0.71958 0.1623 0.0
H1316 H 0.54692 0.71516 0.09932 0.0
H1317 H 0.51211 0.75765 0.14438 0.0
H1318 H 0.52751 0.59571 0.07709 0.0
H1319 H 0.45657 0.64658 0.20166 0.0
H1320 H 0.50072 0.56558 0.08711 0.0
H1321 H 0.48309 0.61737 0.21463 0.0
O1322 O 0.49421 0.66637 0.0941 0.0
H1323 H 0.43345 0.74251 0.15105 0.0
H1324 H 0.49356 0.74159 0.09468 0.0
H1325 H 0.46056 0.76543 0.08865 0.0
H1326 H 0.43023 0.76613 0.11704 0.0
H1327 H 0.46642 0.71858 0.15613 0.0
H1328 H 0.53715 0.78897 0.13477 0.0
H1329 H 0.5674 0.78332 0.10685 0.0
O1330 O 0.50698 0.70142 0.09795 0.0
C1331 C 0.53922 0.67009 0.13321 0.0
C1332 C 0.55905 0.74877 0.10121 0.0
C1333 C 0.5394 0.77283 0.12689 0.0
N1334 N 0.52797 0.73461 0.12234 0.0
C1335 C 0.54465 0.73134 0.10705 0.0
C1336 C 0.52531 0.75501 0.13232 0.0
C1337 C 0.55636 0.76965 0.11121 0.0
C1338 C 0.47182 0.64934 0.16909 0.0
N1339 N 0.48836 0.64202 0.15512 0.0
C1340 C 0.46965 0.64061 0.19067 0.0
C1341 C 0.48456 0.62427 0.19795 0.0
C1342 C 0.50138 0.61685 0.18364 0.0
C1343 C 0.50302 0.62595 0.16219 0.0
C1344 C 0.48151 0.58664 0.10908 0.0
C1345 C 0.5114 0.62023 0.09803 0.0
C1346 C 0.47943 0.60807 0.11812 0.0
N1347 N 0.49437 0.62452 0.11266 0.0
C1348 C 0.51397 0.599 0.08865 0.0
C1349 C 0.49892 0.58212 0.09426 0.0
C1350 C 0.50118 0.68479 0.08595 0.0
C1351 C 0.4466 0.74244 0.13861 0.0
C1352 C 0.48039 0.74159 0.10703 0.0
C1353 C 0.46176 0.75524 0.10356 0.0
C1354 C 0.44478 0.75565 0.1195 0.0
N1355 N 0.48216 0.72874 0.12587 0.0
C1356 C 0.46548 0.72901 0.1415 0.0
Co1357 Co 0.52176 0.34704 0.12759 0.0
Co1358 Co 0.501 0.29365 0.11899 0.0
O1359 O 0.52264 0.31475 0.13153 0.0
C1360 C 0.56559 0.35591 0.10671 0.0
O1361 O 0.55434 0.36387 0.0896 0.0
C1362 C 0.49786 0.2883 0.16798 0.0
O1363 O 0.49642 0.31017 0.16886 0.0
O1364 O 0.4749 0.31309 0.12696 0.0
O1365 O 0.4889 0.34755 0.13227 0.0
H1366 H 0.43541 0.2699 0.0721 0.0
H1367 H 0.55286 0.32681 0.16047 0.0
O1368 O 0.5551 0.34705 0.12306 0.0
H1369 H 0.50481 0.37747 0.20435 0.0
H1370 H 0.54962 0.42593 0.13829 0.0
H1371 H 0.4921 0.37837 0.10316 0.0
H1372 H 0.50022 0.37434 0.16347 0.0
H1373 H 0.55018 0.38503 0.14355 0.0
O1374 O 0.49905 0.27849 0.14905 0.0
H1375 H 0.46247 0.29675 0.08787 0.0
H1376 H 0.49412 0.2446 0.12423 0.0
H1377 H 0.49072 0.41923 0.09776 0.0
H1378 H 0.55821 0.32959 0.2013 0.0
H1379 H 0.51968 0.44329 0.11533 0.0
H1380 H 0.534 0.35499 0.22354 0.0
O1381 O 0.51668 0.34327 0.09484 0.0
H1382 H 0.57312 0.25279 0.13298 0.0
H1383 H 0.51453 0.26968 0.07744 0.0
H1384 H 0.54635 0.24575 0.06669 0.0
H1385 H 0.57589 0.23709 0.0946 0.0
H1386 H 0.54114 0.27684 0.14294 0.0
H1387 H 0.46726 0.2172 0.10904 0.0
H1388 H 0.43771 0.2298 0.08269 0.0
O1389 O 0.50293 0.30868 0.08904 0.0
C1390 C 0.47262 0.33385 0.13137 0.0
C1391 C 0.44824 0.26419 0.08352 0.0
C1392 C 0.4661 0.23462 0.10428 0.0
N1393 N 0.47991 0.27222 0.10685 0.0
C1394 C 0.46364 0.27931 0.09246 0.0
C1395 C 0.48121 0.25022 0.11289 0.0
C1396 C 0.44953 0.2417 0.08949 0.0
C1397 C 0.54242 0.33807 0.17 0.0
N1398 N 0.52626 0.35042 0.15958 0.0
C1399 C 0.54546 0.33951 0.19313 0.0
C1400 C 0.53185 0.35373 0.2056 0.0
C1401 C 0.51546 0.36634 0.19485 0.0
C1402 C 0.51287 0.36443 0.1717 0.0
C1403 C 0.5369 0.41562 0.13056 0.0
C1404 C 0.50469 0.38874 0.11097 0.0
C1405 C 0.53716 0.39245 0.13344 0.0
N1406 N 0.52117 0.37931 0.12368 0.0
C1407 C 0.50385 0.41186 0.10781 0.0
C1408 C 0.5201 0.42535 0.11767 0.0
C1409 C 0.50923 0.32788 0.08203 0.0
C1410 C 0.56033 0.2564 0.12069 0.0
C1411 C 0.52738 0.2661 0.08963 0.0
C1412 C 0.54533 0.25248 0.08347 0.0
C1413 C 0.56188 0.24762 0.09914 0.0
N1414 N 0.52593 0.27459 0.11082 0.0
C1415 C 0.54215 0.26996 0.12625 0.0
H1416 H 0.09497 0.43606 0.35029 0.0
H1417 H 0.15351 0.41966 0.31088 0.0
H1418 H 0.15477 0.38224 0.32897 0.0
H1419 H 0.11614 0.41694 0.39863 0.0
H1420 H 0.09001 0.40735 0.41021 0.0
H1421 H 0.09015 0.42951 0.39002 0.0
H1422 H 0.06307 0.40717 0.36462 0.0
H1423 H 0.06264 0.3848 0.38483 0.0
H1424 H 0.07023 0.37912 0.35619 0.0
H1425 H 0.15309 0.34929 0.35669 0.0
H1426 H 0.15008 0.32634 0.3912 0.0
H1427 H 0.09438 0.36694 0.41325 0.0
C1428 C 0.10769 0.42439 0.34487 0.0
C1429 C 0.12411 0.43073 0.32914 0.0
C1430 C 0.14055 0.41501 0.32265 0.0
C1431 C 0.14139 0.39376 0.33292 0.0
C1432 C 0.1256 0.38861 0.34944 0.0
C1433 C 0.10898 0.40361 0.3552 0.0
C1434 C 0.09619 0.39622 0.37569 0.0
C1435 C 0.09828 0.41351 0.39475 0.0
C1436 C 0.07157 0.39154 0.36998 0.0
C1437 C 0.10853 0.37494 0.38117 0.0
C1438 C 0.12512 0.37039 0.36566 0.0
C1439 C 0.13986 0.35249 0.36861 0.0
C1440 C 0.13797 0.33947 0.38818 0.0
C1441 C 0.12182 0.34481 0.40463 0.0
C1442 C 0.10661 0.36232 0.40069 0.0
H1443 H 0.621 0.15338 0.42659 0.0
H1444 H 0.65939 0.09649 0.40312 0.0
H1445 H 0.63739 0.09636 0.368 0.0
H1446 H 0.5703 0.13387 0.40967 0.0
H1447 H 0.5589 0.16074 0.40215 0.0
H1448 H 0.58048 0.15894 0.42296 0.0
H1449 H 0.60487 0.18664 0.40007 0.0
H1450 H 0.58325 0.18842 0.37913 0.0
H1451 H 0.61126 0.18055 0.37123 0.0
H1452 H 0.60684 0.09896 0.33804 0.0
H1453 H 0.57084 0.10342 0.31774 0.0
H1454 H 0.5534 0.15848 0.36129 0.0
C1455 C 0.62528 0.14124 0.41385 0.0
C1456 C 0.642 0.12498 0.41763 0.0
C1457 C 0.6468 0.10925 0.40056 0.0
C1458 C 0.63438 0.10906 0.38053 0.0
C1459 C 0.61739 0.12486 0.37775 0.0
C1460 C 0.61303 0.14076 0.39398 0.0
C1461 C 0.59237 0.15425 0.38847 0.0
C1462 C 0.57447 0.15178 0.40689 0.0
C1463 C 0.5983 0.17893 0.38448 0.0
C1464 C 0.58523 0.14297 0.36701 0.0
C1465 C 0.59998 0.12629 0.36076 0.0
C1466 C 0.59548 0.11231 0.34254 0.0
C1467 C 0.5751 0.11501 0.33099 0.0
C1468 C 0.55951 0.13136 0.33797 0.0
C1469 C 0.56509 0.14592 0.35563 0.0
H1470 H 0.92385 0.60776 0.42338 0.0
H1471 H 0.85951 0.64096 0.41907 0.0
H1472 H 0.85082 0.61944 0.38479 0.0
H1473 H 0.93411 0.60078 0.36202 0.0
H1474 H 0.94611 0.57347 0.36629 0.0
H1475 H 0.94898 0.59467 0.38754 0.0
H1476 H 0.93129 0.56786 0.41677 0.0
H1477 H 0.9285 0.54672 0.39563 0.0
H1478 H 0.90427 0.55571 0.41113 0.0
H1479 H 0.84713 0.59017 0.35398 0.0
H1480 H 0.84817 0.55505 0.33179 0.0
H1481 H 0.91447 0.54122 0.35738 0.0
C1482 C 0.90824 0.61113 0.41484 0.0
C1483 C 0.89248 0.62625 0.42378 0.0
C1484 C 0.87195 0.62961 0.41241 0.0
C1485 C 0.8669 0.61751 0.39287 0.0
C1486 C 0.88257 0.60216 0.3849 0.0
C1487 C 0.90287 0.59903 0.39557 0.0
C1488 C 0.91566 0.57963 0.38565 0.0
C1489 C 0.93751 0.58763 0.37472 0.0
C1490 C 0.92017 0.56142 0.40335 0.0
C1491 C 0.8991 0.57176 0.36825 0.0
C1492 C 0.88028 0.58516 0.36763 0.0
C1493 C 0.86198 0.57984 0.35404 0.0
C1494 C 0.86271 0.55997 0.34141 0.0
C1495 C 0.88144 0.54562 0.34286 0.0
C1496 C 0.90004 0.55205 0.35586 0.0
H1497 H 0.36826 0.90636 0.42092 0.0
H1498 H 0.3324 0.84893 0.39524 0.0
H1499 H 0.35846 0.84724 0.36295 0.0
H1500 H 0.38572 0.93108 0.3654 0.0
H1501 H 0.41238 0.93909 0.37697 0.0
H1502 H 0.38785 0.93874 0.3945 0.0
H1503 H 0.4083 0.91238 0.42221 0.0
H1504 H 0.43266 0.9123 0.4047 0.0
H1505 H 0.41947 0.88625 0.41216 0.0
H1506 H 0.39338 0.84756 0.33793 0.0
H1507 H 0.43192 0.85075 0.32272 0.0
H1508 H 0.44349 0.90819 0.36546 0.0
C1509 C 0.36532 0.894 0.40799 0.0
C1510 C 0.34829 0.87791 0.41037 0.0
C1511 C 0.34514 0.86168 0.39344 0.0
C1512 C 0.35994 0.86055 0.37513 0.0
C1513 C 0.37742 0.87603 0.37393 0.0
C1514 C 0.37982 0.89272 0.38981 0.0
C1515 C 0.40129 0.9056 0.38672 0.0
C1516 C 0.39651 0.93008 0.38051 0.0
C1517 C 0.4163 0.90401 0.40767 0.0
C1518 C 0.4112 0.893 0.36724 0.0
C1519 C 0.39723 0.87618 0.35975 0.0
C1520 C 0.40419 0.86104 0.34333 0.0
C1521 C 0.42608 0.86294 0.33477 0.0
C1522 C 0.44071 0.87968 0.34294 0.0
C1523 C 0.43275 0.89521 0.35882 0.0
H1524 H 0.08874 0.55829 0.65144 0.0
H1525 H 0.15656 0.5715 0.67264 0.0
H1526 H 0.15543 0.60817 0.65323 0.0
H1527 H 0.0958 0.57462 0.5992 0.0
H1528 H 0.0685 0.58659 0.59476 0.0
H1529 H 0.0722 0.56523 0.61547 0.0
H1530 H 0.05578 0.59132 0.64599 0.0
H1531 H 0.05172 0.61283 0.62524 0.0
H1532 H 0.06763 0.61872 0.65017 0.0
H1533 H 0.15 0.63805 0.62407 0.0
H1534 H 0.14067 0.65854 0.58941 0.0
H1535 H 0.07593 0.6259 0.58775 0.0
C1536 C 0.10283 0.56958 0.65303 0.0
C1537 C 0.12249 0.56261 0.66396 0.0
C1538 C 0.14113 0.57705 0.66494 0.0
C1539 C 0.14061 0.5978 0.65385 0.0
C1540 C 0.12126 0.60375 0.64212 0.0
C1541 C 0.10254 0.59014 0.64201 0.0
C1542 C 0.08524 0.59818 0.62539 0.0
C1543 C 0.08017 0.58009 0.60768 0.0
C1544 C 0.06383 0.60572 0.63742 0.0
C1545 C 0.09749 0.61785 0.61529 0.0
C1546 C 0.11811 0.62106 0.62532 0.0
C1547 C 0.13362 0.63617 0.6166 0.0
C1548 C 0.12819 0.64773 0.59687 0.0
C1549 C 0.10743 0.64408 0.58602 0.0
C1550 C 0.09166 0.62959 0.59594 0.0
H1551 H 0.37876 0.09975 0.5627 0.0
H1552 H 0.32863 0.14121 0.59476 0.0
H1553 H 0.35285 0.1442 0.62838 0.0
H1554 H 0.39848 0.07048 0.61321 0.0
H1555 H 0.42699 0.07065 0.6034 0.0
H1556 H 0.40428 0.06963 0.58362 0.0
H1557 H 0.42007 0.10488 0.56391 0.0
H1558 H 0.44263 0.10615 0.58374 0.0
H1559 H 0.4246 0.13 0.57994 0.0
H1560 H 0.38546 0.14573 0.65706 0.0
H1561 H 0.42172 0.14456 0.6774 0.0
H1562 H 0.44888 0.1022 0.62504 0.0
C1563 C 0.37258 0.10911 0.57694 0.0
C1564 C 0.35179 0.12022 0.57612 0.0
C1565 C 0.34442 0.13236 0.59511 0.0
C1566 C 0.35812 0.13421 0.61423 0.0
C1567 C 0.37895 0.12362 0.61412 0.0
C1568 C 0.38592 0.11109 0.59596 0.0
C1569 C 0.40944 0.10248 0.59899 0.0
C1570 C 0.40981 0.07679 0.59987 0.0
C1571 C 0.42509 0.11143 0.58056 0.0
C1572 C 0.41495 0.11252 0.62147 0.0
C1573 C 0.39726 0.12455 0.63019 0.0
C1574 C 0.39929 0.13611 0.65044 0.0
C1575 C 0.41993 0.13539 0.66188 0.0
C1576 C 0.43826 0.12335 0.65288 0.0
C1577 C 0.43537 0.11161 0.63256 0.0
H1578 H 0.85065 0.45788 0.62845 0.0
H1579 H 0.89022 0.43369 0.68418 0.0
H1580 H 0.89292 0.39659 0.66575 0.0
H1581 H 0.8206 0.40519 0.61614 0.0
H1582 H 0.82174 0.41047 0.58646 0.0
H1583 H 0.82037 0.43352 0.60584 0.0
H1584 H 0.85635 0.45025 0.58831 0.0
H1585 H 0.85798 0.42721 0.56908 0.0
H1586 H 0.88134 0.43347 0.58707 0.0
H1587 H 0.8958 0.36384 0.63772 0.0
H1588 H 0.89698 0.33902 0.60447 0.0
H1589 H 0.85438 0.3856 0.5687 0.0
C1590 C 0.85939 0.44471 0.63718 0.0
C1591 C 0.87015 0.44874 0.65781 0.0
C1592 C 0.8816 0.43094 0.66848 0.0
C1593 C 0.88329 0.40984 0.65808 0.0
C1594 C 0.87311 0.40678 0.63724 0.0
C1595 C 0.86109 0.42375 0.62716 0.0
C1596 C 0.85311 0.41722 0.60409 0.0
C1597 C 0.82743 0.41655 0.60309 0.0
C1598 C 0.86278 0.43296 0.5861 0.0
C1599 C 0.86298 0.39406 0.60238 0.0
C1600 C 0.87442 0.38814 0.62158 0.0
C1601 C 0.88649 0.36817 0.6228 0.0
C1602 C 0.88709 0.35417 0.60383 0.0
C1603 C 0.8757 0.36025 0.58394 0.0
C1604 C 0.86312 0.38023 0.58361 0.0
H1605 H 0.557 0.84507 0.65134 0.0
H1606 H 0.56083 0.90614 0.68978 0.0
H1607 H 0.59792 0.91432 0.67311 0.0
H1608 H 0.62005 0.83243 0.64911 0.0
H1609 H 0.61714 0.8226 0.62074 0.0
H1610 H 0.59466 0.81863 0.64047 0.0
H1611 H 0.56767 0.83854 0.61315 0.0
H1612 H 0.58989 0.84312 0.59358 0.0
H1613 H 0.57393 0.86653 0.60387 0.0
H1614 H 0.62934 0.92018 0.64519 0.0
H1615 H 0.65232 0.92205 0.61072 0.0
H1616 H 0.62813 0.85642 0.59156 0.0
C1617 C 0.56636 0.85943 0.6572 0.0
C1618 C 0.55658 0.87467 0.67222 0.0
C1619 C 0.56856 0.89392 0.67885 0.0
C1620 C 0.58954 0.89873 0.66932 0.0
C1621 C 0.59827 0.88394 0.65347 0.0
C1622 C 0.5872 0.86437 0.64787 0.0
C1623 C 0.59803 0.85291 0.6281 0.0
C1624 C 0.60808 0.8303 0.63503 0.0
C1625 C 0.5814 0.85015 0.60854 0.0
C1626 C 0.61612 0.86964 0.62258 0.0
C1627 C 0.61635 0.8873 0.6375 0.0
C1628 C 0.62976 0.9061 0.63383 0.0
C1629 C 0.64278 0.90705 0.61419 0.0
C1630 C 0.64206 0.88939 0.59845 0.0
C1631 C 0.62921 0.87017 0.6033 0.0
H1632 H 0.36008 0.15696 0.4426 0.0
H1633 H 0.31281 0.10741 0.41938 0.0
H1634 H 0.3337 0.10428 0.38365 0.0
H1635 H 0.37397 0.18273 0.38664 0.0
H1636 H 0.40289 0.18574 0.39459 0.0
H1637 H 0.38124 0.18772 0.41549 0.0
H1638 H 0.40077 0.15661 0.43837 0.0
H1639 H 0.42221 0.15407 0.41751 0.0
H1640 H 0.40608 0.12989 0.42548 0.0
H1641 H 0.36434 0.10136 0.35389 0.0
H1642 H 0.40014 0.10013 0.33297 0.0
H1643 H 0.42683 0.15168 0.37653 0.0
C1644 C 0.3537 0.14609 0.42964 0.0
C1645 C 0.33478 0.13263 0.43352 0.0
C1646 C 0.32698 0.11827 0.41641 0.0
C1647 C 0.33886 0.1163 0.39616 0.0
C1648 C 0.35829 0.12901 0.39331 0.0
C1649 C 0.36537 0.14394 0.40953 0.0
C1650 C 0.38804 0.15364 0.404 0.0
C1651 C 0.38643 0.17896 0.39993 0.0
C1652 C 0.40527 0.14821 0.42242 0.0
C1653 C 0.39313 0.14122 0.38259 0.0
C1654 C 0.37576 0.12727 0.37641 0.0
C1655 C 0.37781 0.11262 0.3583 0.0
C1656 C 0.39821 0.112 0.34651 0.0
C1657 C 0.41632 0.12581 0.35305 0.0
C1658 C 0.41334 0.14096 0.37095 0.0
H1659 H 0.90743 0.35157 0.44936 0.0
H1660 H 0.8508 0.30987 0.43231 0.0
H1661 H 0.84975 0.32707 0.39442 0.0
H1662 H 0.88732 0.39888 0.428 0.0
H1663 H 0.91342 0.41011 0.41791 0.0
H1664 H 0.91338 0.39073 0.4408 0.0
H1665 H 0.94027 0.36443 0.41951 0.0
H1666 H 0.94085 0.38389 0.39648 0.0
H1667 H 0.93319 0.35513 0.39171 0.0
H1668 H 0.85093 0.35423 0.36121 0.0
H1669 H 0.8539 0.38784 0.33707 0.0
H1670 H 0.9093 0.41157 0.37733 0.0
C1671 C 0.8953 0.34551 0.43734 0.0
C1672 C 0.87929 0.32938 0.44352 0.0
C1673 C 0.86346 0.32195 0.42762 0.0
C1674 C 0.86274 0.3317 0.40615 0.0
C1675 C 0.87819 0.3485 0.40094 0.0
C1676 C 0.89439 0.35504 0.41611 0.0
C1677 C 0.90723 0.37525 0.40806 0.0
C1678 C 0.90518 0.39489 0.42466 0.0
C1679 C 0.93185 0.36931 0.40367 0.0
C1680 C 0.895 0.37995 0.3865 0.0
C1681 C 0.87864 0.36414 0.38226 0.0
C1682 C 0.86401 0.36638 0.36416 0.0
C1683 C 0.86583 0.38549 0.3505 0.0
C1684 C 0.88187 0.40223 0.35534 0.0
C1685 C 0.89698 0.39896 0.37314 0.0
H1686 H 0.56663 0.8658 0.39453 0.0
H1687 H 0.60152 0.91103 0.34978 0.0
H1688 H 0.63559 0.90761 0.37332 0.0
H1689 H 0.58671 0.88805 0.44339 0.0
H1690 H 0.58831 0.86176 0.45803 0.0
H1691 H 0.56848 0.86528 0.43574 0.0
H1692 H 0.58511 0.8307 0.41541 0.0
H1693 H 0.60512 0.82716 0.43769 0.0
H1694 H 0.6146 0.82986 0.40918 0.0
H1695 H 0.66422 0.90273 0.40532 0.0
H1696 H 0.68312 0.89789 0.44197 0.0
H1697 H 0.62851 0.8557 0.46409 0.0
C1698 C 0.58152 0.87472 0.38933 0.0
C1699 C 0.58141 0.88872 0.37032 0.0
C1700 C 0.60127 0.90009 0.36422 0.0
C1701 C 0.62069 0.89821 0.37749 0.0
C1702 C 0.61996 0.88467 0.39654 0.0
C1703 C 0.60082 0.87302 0.40225 0.0
C1704 C 0.60322 0.86122 0.42443 0.0
C1705 C 0.58565 0.86959 0.44138 0.0
C1706 C 0.60194 0.83572 0.42149 0.0
C1707 C 0.62649 0.86856 0.43082 0.0
C1708 C 0.63615 0.88183 0.41453 0.0
C1709 C 0.65692 0.89201 0.41796 0.0
C1710 C 0.66761 0.88909 0.43878 0.0
C1711 C 0.65731 0.87635 0.45591 0.0
C1712 C 0.63692 0.86541 0.45139 0.0
H1713 H 0.12724 0.61601 0.46101 0.0
H1714 H 0.14103 0.67753 0.425 0.0
H1715 H 0.14026 0.6564 0.38921 0.0
H1716 H 0.16073 0.57967 0.42692 0.0
H1717 H 0.1412 0.55685 0.42946 0.0
H1718 H 0.14362 0.57709 0.45163 0.0
H1719 H 0.10104 0.58495 0.44901 0.0
H1720 H 0.09854 0.56488 0.42672 0.0
H1721 H 0.08911 0.5932 0.42257 0.0
H1722 H 0.13612 0.62736 0.35685 0.0
H1723 H 0.13132 0.5939 0.33253 0.0
H1724 H 0.12076 0.55319 0.39165 0.0
C1725 C 0.13038 0.6252 0.44573 0.0
C1726 C 0.1343 0.64848 0.44591 0.0
C1727 C 0.13814 0.65965 0.42533 0.0
C1728 C 0.13764 0.6478 0.40493 0.0
C1729 C 0.1334 0.62482 0.40547 0.0
C1730 C 0.13004 0.61374 0.42549 0.0
C1731 C 0.1256 0.58917 0.42205 0.0
C1732 C 0.14388 0.57486 0.43317 0.0
C1733 C 0.10218 0.58268 0.43059 0.0
C1734 C 0.12692 0.58796 0.3969 0.0
C1735 C 0.13132 0.60857 0.38742 0.0
C1736 C 0.13281 0.61116 0.3642 0.0
C1737 C 0.12999 0.59213 0.35051 0.0
C1738 C 0.12589 0.57089 0.36017 0.0
C1739 C 0.12421 0.56905 0.38365 0.0
H1740 H 0.36653 0.84886 0.54425 0.0
H1741 H 0.31395 0.89204 0.56891 0.0
H1742 H 0.33424 0.89585 0.60502 0.0
H1743 H 0.38215 0.82207 0.59843 0.0
H1744 H 0.41134 0.82233 0.5909 0.0
H1745 H 0.39029 0.81951 0.56949 0.0
H1746 H 0.40697 0.85374 0.5488 0.0
H1747 H 0.42781 0.85697 0.5702 0.0
H1748 H 0.40958 0.87999 0.5634 0.0
H1749 H 0.36395 0.89941 0.63607 0.0
H1750 H 0.39882 0.90165 0.65853 0.0
H1751 H 0.43141 0.85689 0.61164 0.0
C1752 C 0.35898 0.85864 0.55745 0.0
C1753 C 0.33876 0.87016 0.55389 0.0
C1754 C 0.32932 0.88282 0.57151 0.0
C1755 C 0.3408 0.88514 0.59198 0.0
C1756 C 0.36144 0.87443 0.59449 0.0
C1757 C 0.3702 0.86116 0.57769 0.0
C1758 C 0.39359 0.85336 0.58306 0.0
C1759 C 0.39438 0.8278 0.58563 0.0
C1760 C 0.41046 0.86151 0.56532 0.0
C1761 C 0.39711 0.86492 0.6052 0.0
C1762 C 0.37838 0.87675 0.61184 0.0
C1763 C 0.37854 0.88989 0.63117 0.0
C1764 C 0.39841 0.89111 0.6438 0.0
C1765 C 0.41784 0.87951 0.6368 0.0
C1766 C 0.41687 0.86598 0.61749 0.0
H1767 H 0.14582 0.43705 0.60555 0.0
H1768 H 0.10478 0.403 0.6548 0.0
H1769 H 0.10692 0.36829 0.63222 0.0
H1770 H 0.11976 0.41477 0.55929 0.0
H1771 H 0.14473 0.41303 0.5425 0.0
H1772 H 0.14274 0.43366 0.56427 0.0
H1773 H 0.17924 0.41843 0.58215 0.0
H1774 H 0.18128 0.39765 0.56039 0.0
H1775 H 0.18121 0.38922 0.58935 0.0
H1776 H 0.1104 0.33839 0.60154 0.0
H1777 H 0.11312 0.31771 0.56566 0.0
H1778 H 0.15134 0.37244 0.5374 0.0
C1779 C 0.13764 0.42222 0.61195 0.0
C1780 C 0.12519 0.42277 0.63203 0.0
C1781 C 0.11452 0.40298 0.63952 0.0
C1782 C 0.11571 0.38317 0.62683 0.0
C1783 C 0.12771 0.38343 0.60678 0.0
C1784 C 0.13851 0.40253 0.59949 0.0
C1785 C 0.14843 0.39947 0.57645 0.0
C1786 C 0.1383 0.41621 0.55965 0.0
C1787 C 0.17406 0.4013 0.57714 0.0
C1788 C 0.14106 0.37583 0.57154 0.0
C1789 C 0.12944 0.3666 0.58927 0.0
C1790 C 0.11977 0.34538 0.58772 0.0
C1791 C 0.12147 0.33369 0.56732 0.0
C1792 C 0.13247 0.34346 0.54873 0.0
C1793 C 0.1429 0.36447 0.55127 0.0
H1794 H 0.57237 0.09715 0.62432 0.0
H1795 H 0.59644 0.14947 0.66837 0.0
H1796 H 0.62988 0.15416 0.6442 0.0
H1797 H 0.62792 0.07402 0.60781 0.0
H1798 H 0.61832 0.06914 0.57964 0.0
H1799 H 0.59896 0.06736 0.60268 0.0
H1800 H 0.57344 0.0964 0.58326 0.0
H1801 H 0.59272 0.09858 0.56035 0.0
H1802 H 0.58471 0.1233 0.57562 0.0
H1803 H 0.65815 0.15643 0.6114 0.0
H1804 H 0.67714 0.15595 0.57429 0.0
H1805 H 0.63325 0.10247 0.55295 0.0
C1806 C 0.58496 0.10919 0.6293 0.0
C1807 C 0.58184 0.12289 0.64827 0.0
C1808 C 0.59862 0.13859 0.65405 0.0
C1809 C 0.61764 0.14139 0.64037 0.0
C1810 C 0.6197 0.12817 0.62119 0.0
C1811 C 0.60382 0.11217 0.61591 0.0
C1812 C 0.60834 0.10153 0.59346 0.0
C1813 C 0.61371 0.07653 0.59607 0.0
C1814 C 0.58864 0.1052 0.57723 0.0
C1815 C 0.62874 0.11458 0.58638 0.0
C1816 C 0.63544 0.12964 0.6026 0.0
C1817 C 0.6532 0.14443 0.59879 0.0
C1818 C 0.66393 0.14405 0.57774 0.0
C1819 C 0.65652 0.12924 0.56084 0.0
C1820 C 0.63915 0.11404 0.56556 0.0
H1821 H 0.85275 0.58427 0.62676 0.0
H1822 H 0.91515 0.60407 0.65803 0.0
H1823 H 0.91512 0.63883 0.63546 0.0
H1824 H 0.86838 0.59782 0.57422 0.0
H1825 H 0.84118 0.60688 0.56493 0.0
H1826 H 0.84345 0.5869 0.58719 0.0
H1827 H 0.81987 0.61274 0.6129 0.0
H1828 H 0.81762 0.63291 0.59059 0.0
H1829 H 0.82859 0.64124 0.61742 0.0
H1830 H 0.91145 0.66802 0.60461 0.0
H1831 H 0.90581 0.68663 0.56793 0.0
H1832 H 0.84678 0.64641 0.55662 0.0
C1833 C 0.86615 0.59615 0.62942 0.0
C1834 C 0.88395 0.59141 0.64423 0.0
C1835 C 0.90121 0.6074 0.64696 0.0
C1836 C 0.9013 0.62722 0.6342 0.0
C1837 C 0.88393 0.63083 0.61896 0.0
C1838 C 0.86663 0.61567 0.61667 0.0
C1839 C 0.85172 0.62135 0.59704 0.0
C1840 C 0.85118 0.60211 0.57985 0.0
C1841 C 0.82804 0.62743 0.60497 0.0
C1842 C 0.86379 0.6416 0.58797 0.0
C1843 C 0.88203 0.64726 0.60108 0.0
C1844 C 0.8969 0.66408 0.59458 0.0
C1845 C 0.89352 0.6747 0.57383 0.0
C1846 C 0.87562 0.66816 0.55983 0.0
C1847 C 0.86025 0.65201 0.56736 0.0
H1848 H 0.39244 0.43515 0.1538 0.0
H1849 H 0.34267 0.4024 0.11236 0.0
H1850 H 0.36535 0.36771 0.11298 0.0
H1851 H 0.43766 0.41496 0.12554 0.0
H1852 H 0.45547 0.41228 0.1497 0.0
H1853 H 0.43334 0.43258 0.14963 0.0
H1854 H 0.41706 0.41528 0.18596 0.0
H1855 H 0.43926 0.39489 0.18619 0.0
H1856 H 0.4105 0.38586 0.1868 0.0
H1857 H 0.39641 0.33818 0.11426 0.0
H1858 H 0.43266 0.31806 0.11468 0.0
H1859 H 0.46157 0.37162 0.15409 0.0
C1860 C 0.38591 0.42058 0.14528 0.0
C1861 C 0.3657 0.42151 0.13308 0.0
C1862 C 0.35801 0.40204 0.12198 0.0
C1863 C 0.37079 0.38226 0.12227 0.0
C1864 C 0.3911 0.38224 0.13381 0.0
C1865 C 0.39849 0.40097 0.14519 0.0
C1866 C 0.42194 0.39792 0.15407 0.0
C1867 C 0.43803 0.41546 0.14413 0.0
C1868 C 0.42219 0.39852 0.17979 0.0
C1869 C 0.42697 0.37477 0.14539 0.0
C1870 C 0.40894 0.3657 0.1341 0.0
C1871 C 0.41048 0.34501 0.12337 0.0
C1872 C 0.4311 0.33365 0.12375 0.0
C1873 C 0.44994 0.34327 0.13444 0.0
C1874 C 0.44751 0.36376 0.14586 0.0
H1875 H 0.43583 0.65169 0.85069 0.0
H1876 H 0.43529 0.68949 0.9123 0.0
H1877 H 0.39812 0.67388 0.9216 0.0
H1878 H 0.37138 0.65185 0.84087 0.0
H1879 H 0.37295 0.62365 0.83031 0.0
H1880 H 0.3957 0.64287 0.82548 0.0
H1881 H 0.4229 0.61445 0.84313 0.0
H1882 H 0.40054 0.59534 0.84881 0.0
H1883 H 0.41821 0.60487 0.87134 0.0
H1884 H 0.36795 0.64615 0.92919 0.0
H1885 H 0.34591 0.61141 0.9328 0.0
H1886 H 0.36337 0.59344 0.86476 0.0
C1887 C 0.42711 0.65773 0.86537 0.0
C1888 C 0.43792 0.67224 0.88049 0.0
C1889 C 0.4268 0.67901 0.90019 0.0
C1890 C 0.40575 0.67008 0.90563 0.0
C1891 C 0.39598 0.65474 0.89096 0.0
C1892 C 0.40603 0.64911 0.87086 0.0
C1893 C 0.39394 0.62985 0.85964 0.0
C1894 C 0.38283 0.63752 0.83778 0.0
C1895 C 0.40984 0.60996 0.85552 0.0
C1896 C 0.37659 0.62441 0.87727 0.0
C1897 C 0.37781 0.6391 0.89511 0.0
C1898 C 0.36621 0.63507 0.91498 0.0
C1899 C 0.35374 0.61526 0.91691 0.0
C1900 C 0.35277 0.59977 0.89902 0.0
C1901 C 0.36342 0.6051 0.87861 0.0
H1902 H 0.44595 0.4042 0.87821 0.0
H1903 H 0.40362 0.34535 0.88051 0.0
H1904 H 0.37 0.36968 0.87825 0.0
H1905 H 0.41134 0.43834 0.91293 0.0
H1906 H 0.41764 0.46359 0.89771 0.0
H1907 H 0.43781 0.44128 0.89879 0.0
H1908 H 0.43905 0.44033 0.85544 0.0
H1909 H 0.41872 0.46252 0.85422 0.0
H1910 H 0.41347 0.43649 0.83994 0.0
H1911 H 0.34097 0.40149 0.87492 0.0
H1912 H 0.31975 0.43709 0.87446 0.0
H1913 H 0.38233 0.47389 0.87617 0.0
C1914 C 0.42963 0.39634 0.8781 0.0
C1915 C 0.42735 0.37288 0.87929 0.0
C1916 C 0.40569 0.36331 0.87958 0.0
C1917 C 0.38656 0.37699 0.87819 0.0
C1918 C 0.38947 0.40014 0.87681 0.0
C1919 C 0.41054 0.40965 0.87706 0.0
C1920 C 0.40947 0.43487 0.87641 0.0
C1921 C 0.41966 0.44511 0.89773 0.0
C1922 C 0.42085 0.44408 0.85524 0.0
C1923 C 0.38447 0.4382 0.87561 0.0
C1924 C 0.3731 0.41809 0.87564 0.0
C1925 C 0.34977 0.41731 0.87494 0.0
C1926 C 0.33785 0.43762 0.87459 0.0
C1927 C 0.34931 0.45837 0.87521 0.0
C1928 C 0.37293 0.45844 0.87553 0.0
H1929 H 0.63474 0.40956 0.85609 0.0
H1930 H 0.65744 0.39053 0.92232 0.0
H1931 H 0.63535 0.35563 0.91959 0.0
H1932 H 0.58116 0.39693 0.8654 0.0
H1933 H 0.57486 0.38768 0.8374 0.0
H1934 H 0.59714 0.40718 0.84197 0.0
H1935 H 0.62472 0.38037 0.82179 0.0
H1936 H 0.60235 0.36064 0.81732 0.0
H1937 H 0.62757 0.35193 0.83138 0.0
H1938 H 0.60467 0.32727 0.91293 0.0
H1939 H 0.56761 0.31085 0.90451 0.0
H1940 H 0.56447 0.3493 0.84334 0.0
C1941 C 0.63576 0.39774 0.86977 0.0
C1942 C 0.64789 0.4028 0.88942 0.0
C1943 C 0.64846 0.38695 0.907 0.0
C1944 C 0.63597 0.36703 0.90555 0.0
C1945 C 0.62316 0.36318 0.88636 0.0
C1946 C 0.62313 0.37816 0.86874 0.0
C1947 C 0.60519 0.37264 0.85178 0.0
C1948 C 0.58862 0.39225 0.84901 0.0
C1949 C 0.61559 0.36599 0.82923 0.0
C1950 C 0.59434 0.35279 0.86304 0.0
C1951 C 0.60525 0.3471 0.88267 0.0
C1952 C 0.59641 0.33114 0.89729 0.0
C1953 C 0.57544 0.32171 0.8923 0.0
C1954 C 0.56351 0.32859 0.87308 0.0
C1955 C 0.57361 0.34341 0.85782 0.0
H1956 H 0.62138 0.53229 0.86235 0.0
H1957 H 0.68267 0.56499 0.88317 0.0
H1958 H 0.66194 0.60089 0.88641 0.0
H1959 H 0.59729 0.57893 0.8306 0.0
H1960 H 0.56945 0.57191 0.83982 0.0
H1961 H 0.59011 0.55024 0.83649 0.0
H1962 H 0.58336 0.53785 0.87745 0.0
H1963 H 0.56307 0.55969 0.88119 0.0
H1964 H 0.58675 0.55785 0.89976 0.0
H1965 H 0.63221 0.63249 0.89121 0.0
H1966 H 0.59809 0.65581 0.89534 0.0
H1967 H 0.55784 0.60042 0.87128 0.0
C1968 C 0.63078 0.547 0.867 0.0
C1969 C 0.65374 0.54574 0.87238 0.0
C1970 C 0.66513 0.56554 0.87871 0.0
C1971 C 0.65344 0.58597 0.88069 0.0
C1972 C 0.6305 0.58627 0.87602 0.0
C1973 C 0.6195 0.56721 0.869 0.0
C1974 C 0.59469 0.57099 0.86636 0.0
C1975 C 0.58747 0.56784 0.84186 0.0
C1976 C 0.58119 0.5557 0.88213 0.0
C1977 C 0.59315 0.59513 0.87338 0.0
C1978 C 0.61386 0.60389 0.87882 0.0
C1979 C 0.61601 0.62578 0.88673 0.0
C1980 C 0.59654 0.63889 0.88908 0.0
C1981 C 0.57523 0.62999 0.88366 0.0
C1982 C 0.57378 0.60787 0.87556 0.0
H1983 H 0.61798 0.56838 0.15289 0.0
H1984 H 0.66413 0.59771 0.10516 0.0
H1985 H 0.643 0.6333 0.10691 0.0
H1986 H 0.57054 0.58976 0.12975 0.0
H1987 H 0.55605 0.59406 0.15583 0.0
H1988 H 0.57716 0.57282 0.15381 0.0
H1989 H 0.5984 0.59078 0.18719 0.0
H1990 H 0.57727 0.61218 0.18917 0.0
H1991 H 0.60625 0.61986 0.18592 0.0
H1992 H 0.61326 0.66383 0.10993 0.0
H1993 H 0.57752 0.68483 0.11263 0.0
H1994 H 0.55185 0.63488 0.1583 0.0
C1995 C 0.62406 0.58241 0.14318 0.0
C1996 C 0.64273 0.58025 0.1289 0.0
C1997 C 0.64992 0.599 0.11632 0.0
C1998 C 0.63806 0.6193 0.11727 0.0
C1999 C 0.61925 0.62061 0.13105 0.0
C2000 C 0.61243 0.6026 0.14387 0.0
C2001 C 0.5904 0.60708 0.15538 0.0
C2002 C 0.5725 0.58993 0.14825 0.0
C2003 C 0.59327 0.60751 0.18093 0.0
C2004 C 0.58533 0.63009 0.14636 0.0
C2005 C 0.60227 0.63793 0.1327 0.0
C2006 C 0.60013 0.65804 0.12096 0.0
C2007 C 0.57987 0.66993 0.12266 0.0
C2008 C 0.56209 0.66139 0.13571 0.0
C2009 C 0.56525 0.64174 0.14827 0.0
H2010 H 0.3718 0.55601 0.10232 0.0
H2011 H 0.3252 0.57806 0.15327 0.0
H2012 H 0.34245 0.61589 0.15231 0.0
H2013 H 0.41797 0.58101 0.12389 0.0
H2014 H 0.43036 0.58784 0.09726 0.0
H2015 H 0.41158 0.56454 0.09944 0.0
H2016 H 0.38686 0.58176 0.06814 0.0
H2017 H 0.40563 0.60527 0.06613 0.0
H2018 H 0.37627 0.60981 0.07128 0.0
H2019 H 0.36935 0.64937 0.14968 0.0
H2020 H 0.4027 0.67384 0.14637 0.0
H2021 H 0.43057 0.62875 0.09694 0.0
C2022 C 0.36486 0.56889 0.11298 0.0
C2023 C 0.34726 0.56414 0.12795 0.0
C2024 C 0.3386 0.58145 0.14156 0.0
C2025 C 0.34831 0.60294 0.14109 0.0
C2026 C 0.36629 0.6068 0.12662 0.0
C2027 C 0.37423 0.59018 0.11264 0.0
C2028 C 0.39502 0.59736 0.10027 0.0
C2029 C 0.41488 0.58177 0.10556 0.0
C2030 C 0.39067 0.59863 0.07495 0.0
C2031 C 0.39831 0.62032 0.11016 0.0
C2032 C 0.38144 0.62581 0.12503 0.0
C2033 C 0.38234 0.64542 0.13771 0.0
C2034 C 0.40128 0.65929 0.13566 0.0
C2035 C 0.4191 0.65322 0.12129 0.0
C2036 C 0.41707 0.63394 0.10787 0.0
H2037 H 0.65792 0.44537 0.09052 0.0
H2038 H 0.67907 0.4306 0.15803 0.0
H2039 H 0.65879 0.39446 0.15647 0.0
H2040 H 0.60563 0.43108 0.09793 0.0
H2041 H 0.60021 0.41957 0.07059 0.0
H2042 H 0.62193 0.4399 0.07413 0.0
H2043 H 0.65088 0.41248 0.05703 0.0
H2044 H 0.62906 0.39201 0.0532 0.0
H2045 H 0.65393 0.38483 0.06866 0.0
H2046 H 0.629 0.36558 0.15099 0.0
H2047 H 0.59317 0.347 0.14244 0.0
H2048 H 0.59104 0.38095 0.07834 0.0
C2049 C 0.65937 0.43377 0.10438 0.0
C2050 C 0.67055 0.44013 0.12408 0.0
C2051 C 0.67122 0.42544 0.14253 0.0
C2052 C 0.65965 0.40498 0.14177 0.0
C2053 C 0.64766 0.39962 0.1224 0.0
C2054 C 0.64775 0.41353 0.10388 0.0
C2055 C 0.63047 0.40642 0.08681 0.0
C2056 C 0.61358 0.42536 0.08212 0.0
C2057 C 0.64176 0.39845 0.06514 0.0
C2058 C 0.61966 0.38717 0.09911 0.0
C2059 C 0.63009 0.38311 0.11937 0.0
C2060 C 0.62113 0.36816 0.13489 0.0
C2061 C 0.6007 0.35768 0.12989 0.0
C2062 C 0.58932 0.36243 0.10964 0.0
C2063 C 0.59948 0.37664 0.09377 0.0
H2064 H 0.04774 0.29521 0.49167 0.0
H2065 H 0.06069 0.36666 0.4923 0.0
H2066 H 0.02082 0.37379 0.49986 0.0
H2067 H 0.99417 0.29931 0.46322 0.0
H2068 H 0.98178 0.2766 0.47869 0.0
H2069 H 0.0115 0.277 0.47374 0.0
H2070 H 0.01861 0.27386 0.51639 0.0
H2071 H 0.9889 0.27363 0.52148 0.0
H2072 H 0.00635 0.29416 0.53501 0.0
H2073 H 0.98009 0.37326 0.50925 0.0
H2074 H 0.94011 0.36552 0.51507 0.0
H2075 H 0.95252 0.29454 0.50568 0.0
C2076 C 0.04218 0.31236 0.49331 0.0
C2077 C 0.05744 0.33038 0.49146 0.0
C2078 C 0.04939 0.35257 0.49355 0.0
C2079 C 0.02677 0.3568 0.49799 0.0
C2080 C 0.01225 0.3387 0.49997 0.0
C2081 C 0.0195 0.31693 0.49731 0.0
C2082 C 1.00017 0.30059 0.49941 0.0
C2083 C 0.9967 0.28761 0.47746 0.0
C2084 C 0.00373 0.28462 0.51925 0.0
C2085 C 0.98098 0.3166 0.50381 0.0
C2086 C 0.98843 0.33846 0.50435 0.0
C2087 C 0.97401 0.35622 0.50865 0.0
C2088 C 0.95128 0.35161 0.51201 0.0
C2089 C 0.943 0.32941 0.5107 0.0
C2090 C 0.95821 0.31169 0.50673 0.0
H2091 H 0.69682 0.05296 0.50526 0.0
H2092 H 0.62663 0.06509 0.49114 0.0
H2093 H 0.61854 0.02511 0.49746 0.0
H2094 H 0.69938 0.99941 0.47705 0.0
H2095 H 0.71872 0.9877 0.49698 0.0
H2096 H 0.71875 0.01734 0.49164 0.0
H2097 H 0.71306 0.02489 0.53398 0.0
H2098 H 0.71277 0.99526 0.53941 0.0
H2099 H 0.6896 0.0124 0.54824 0.0
H2100 H 0.61792 0.9838 0.50705 0.0
H2101 H 0.62555 0.94385 0.51452 0.0
H2102 H 0.6964 0.95869 0.52009 0.0
C2103 C 0.67976 0.04725 0.50333 0.0
C2104 C 0.66236 0.06228 0.49779 0.0
C2105 C 0.64027 0.05397 0.49536 0.0
C2106 C 0.63548 0.03128 0.49902 0.0
C2107 C 0.65298 0.01701 0.50478 0.0
C2108 C 0.67474 0.02461 0.50653 0.0
C2109 C 0.69065 0.00574 0.51215 0.0
C2110 C 0.70789 0.00235 0.49334 0.0
C2111 C 0.7022 0.00982 0.53479 0.0
C2112 C 0.67444 0.98634 0.51344 0.0
C2113 C 0.65275 0.99319 0.50942 0.0
C2114 C 0.63486 0.97823 0.51008 0.0
C2115 C 0.63935 0.95559 0.51448 0.0
C2116 C 0.66157 0.94808 0.51784 0.0
C2117 C 0.67923 0.96382 0.51752 0.0
H2118 H 0.95341 0.65326 0.51102 0.0
H2119 H 0.94273 0.71164 0.46937 0.0
H2120 H 0.98335 0.71691 0.46593 0.0
H2121 H 0.99998 0.67569 0.54129 0.0
H2122 H 0.01529 0.64978 0.5428 0.0
H2123 H 0.98521 0.6494 0.54103 0.0
H2124 H 0.98743 0.62411 0.50594 0.0
H2125 H 0.01753 0.62435 0.50763 0.0
H2126 H 0.00379 0.63302 0.48222 0.0
H2127 H 0.02425 0.71663 0.46725 0.0
H2128 H 0.06428 0.71175 0.47405 0.0
H2129 H 0.05021 0.6541 0.51618 0.0
C2130 C 0.95976 0.66696 0.50102 0.0
C2131 C 0.94501 0.68221 0.49057 0.0
C2132 C 0.95375 0.70008 0.4778 0.0
C2133 C 0.97681 0.70308 0.4756 0.0
C2134 C 0.99095 0.6881 0.48638 0.0
C2135 C 0.98292 0.6704 0.49889 0.0
C2136 C 0.00208 0.65749 0.5095 0.0
C2137 C 1.00054 0.65814 0.53518 0.0
C2138 C 0.00274 0.63331 0.5008 0.0
C2139 C 0.02199 0.67087 0.50108 0.0
C2140 C 0.01502 0.68828 0.48761 0.0
C2141 C 0.02998 0.70309 0.47779 0.0
C2142 C 0.05278 0.70015 0.48186 0.0
C2143 C 0.06057 0.68264 0.49586 0.0
C2144 C 0.04486 0.66773 0.50552 0.0
H2145 H 0.34584 0.04738 0.50442 0.0
H2146 H 0.28013 0.05992 0.47574 0.0
H2147 H 0.27441 0.0198 0.47097 0.0
H2148 H 0.35954 1.00041 0.46763 0.0
H2149 H 0.37365 0.98467 0.48913 0.0
H2150 H 0.3733 0.01479 0.49029 0.0
H2151 H 0.35622 0.01312 0.53008 0.0
H2152 H 0.35651 0.98302 0.52902 0.0
H2153 H 0.33075 0.99763 0.53462 0.0
H2154 H 0.27432 0.97908 0.47034 0.0
H2155 H 0.28059 0.93862 0.473 0.0
H2156 H 0.34658 0.95031 0.50083 0.0
C2157 C 0.33028 0.04166 0.49712 0.0
C2158 C 0.3134 0.05702 0.49067 0.0
C2159 C 0.29334 0.04874 0.48104 0.0
C2160 C 0.28987 0.02586 0.47815 0.0
C2161 C 0.30665 0.01126 0.48476 0.0
C2162 C 0.32653 0.01865 0.49392 0.0
C2163 C 0.3416 0.99895 0.49959 0.0
C2164 C 0.36331 0.99976 0.48584 0.0
C2165 C 0.34655 0.99814 0.52483 0.0
C2166 C 0.32686 0.97949 0.49242 0.0
C2167 C 0.30679 0.98718 0.48395 0.0
C2168 C 0.28997 0.97278 0.47687 0.0
C2169 C 0.29362 0.9498 0.47862 0.0
C2170 C 0.31393 0.94133 0.48728 0.0
C2171 C 0.33094 0.95638 0.494 0.0
H2172 H 0.51712 0.95932 0.35339 0.0
H2173 H 0.48434 0.9432 0.29044 0.0
H2174 H 0.47531 0.98279 0.28499 0.0
H2175 H 0.47863 0.00291 0.37043 0.0
H2176 H 0.50001 0.02069 0.38208 0.0
H2177 H 0.50381 0.99079 0.38173 0.0
H2178 H 0.54119 0.9956 0.36034 0.0
H2179 H 0.53759 0.02549 0.36082 0.0
H2180 H 0.5416 0.01124 0.33455 0.0
H2181 H 0.46947 0.02336 0.28579 0.0
H2182 H 0.47006 0.06408 0.2913 0.0
H2183 H 0.50708 0.05567 0.35309 0.0
C2184 C 0.50814 0.96414 0.33841 0.0
C2185 C 0.50142 0.94798 0.32239 0.0
C2186 C 0.48968 0.95508 0.30303 0.0
C2187 C 0.48434 0.97759 0.29978 0.0
C2188 C 0.49087 0.99295 0.31597 0.0
C2189 C 0.5027 0.9867 0.3348 0.0
C2190 C 0.50821 0.00698 0.34914 0.0
C2191 C 0.49699 0.00523 0.37222 0.0
C2192 C 0.53366 0.01 0.35133 0.0
C2193 C 0.49783 0.02554 0.33521 0.0
C2194 C 0.48774 0.01686 0.31629 0.0
C2195 C 0.47738 0.03039 0.30048 0.0
C2196 C 0.4779 0.05351 0.30367 0.0
C2197 C 0.48878 0.06296 0.32243 0.0
C2198 C 0.49845 0.04879 0.33872 0.0
H2199 H 0.95663 0.48347 0.34686 0.0
H2200 H 0.94229 0.48469 0.27565 0.0
H2201 H 0.98224 0.48994 0.26765 0.0
H2202 H 0.99759 0.5276 0.34455 0.0
H2203 H 0.01532 0.51566 0.36582 0.0
H2204 H 0.98565 0.51037 0.36622 0.0
H2205 H 0.99307 0.46772 0.36602 0.0
H2206 H 0.02276 0.47286 0.36573 0.0
H2207 H 0.01023 0.45576 0.34429 0.0
H2208 H 0.02348 0.49342 0.26708 0.0
H2209 H 0.0637 0.49738 0.27388 0.0
H2210 H 0.05163 0.49909 0.34552 0.0
C2211 C 0.96191 0.48462 0.32958 0.0
C2212 C 0.94626 0.48328 0.31185 0.0
C2213 C 0.95387 0.48533 0.2895 0.0
C2214 C 0.97657 0.48841 0.28477 0.0
C2215 C 0.99146 0.48993 0.30259 0.0
C2216 C 0.98451 0.48835 0.32456 0.0
C2217 C 0.00397 0.49171 0.34054 0.0
C2218 C 1.00041 0.51258 0.35514 0.0
C2219 C 0.00773 0.47076 0.35499 0.0
C2220 C 0.02296 0.49509 0.32403 0.0
C2221 C 0.01529 0.49375 0.30226 0.0
C2222 C 0.02967 0.49491 0.28403 0.0
C2223 C 0.05256 0.49728 0.2881 0.0
C2224 C 0.06095 0.49901 0.31022 0.0
C2225 C 0.0458 0.4982 0.32841 0.0
H2226 H 0.50053 0.9484 0.65207 0.0
H2227 H 0.47055 0.93715 0.71724 0.0
H2228 H 0.4702 0.97765 0.7242 0.0
H2229 H 0.53701 0.9923 0.6699 0.0
H2230 H 0.53451 0.0085 0.64458 0.0
H2231 H 0.53108 0.97858 0.6437 0.0
H2232 H 0.49209 0.9834 0.62549 0.0
H2233 H 0.49543 0.01334 0.62621 0.0
H2234 H 0.47138 1.00056 0.63913 0.0
H2235 H 0.47281 0.0188 0.72438 0.0
H2236 H 0.47941 0.05881 0.7185 0.0
H2237 H 0.51032 0.04443 0.65426 0.0
C2238 C 0.49361 0.95453 0.66765 0.0
C2239 C 0.48541 0.93959 0.68409 0.0
C2240 C 0.47691 0.94821 0.70444 0.0
C2241 C 0.4766 0.97122 0.70853 0.0
C2242 C 0.48509 0.98546 0.6922 0.0
C2243 C 0.49353 0.97756 0.67219 0.0
C2244 C 0.50258 0.99663 0.65802 0.0
C2245 C 0.52779 0.99383 0.65381 0.0
C2246 C 0.48959 0.99859 0.6359 0.0
C2247 C 0.49789 0.01638 0.67328 0.0
C2248 C 0.4876 0.00946 0.69278 0.0
C2249 C 0.48104 0.02446 0.70928 0.0
C2250 C 0.48499 0.04723 0.70579 0.0
C2251 C 0.49577 0.0549 0.68609 0.0
C2252 C 0.50236 0.03915 0.66965 0.0
H2253 H 0.9534 0.51114 0.69636 0.0
H2254 H 0.93824 0.51173 0.62533 0.0
H2255 H 0.97848 0.50692 0.61689 0.0
H2256 H 0.00526 0.54239 0.69225 0.0
H2257 H 0.01858 0.52667 0.71425 0.0
H2258 H 0.98869 0.53042 0.71443 0.0
H2259 H 0.98334 0.48745 0.71621 0.0
H2260 H 0.0132 0.48355 0.71583 0.0
H2261 H 0.99599 0.47007 0.69507 0.0
H2262 H 0.02036 0.4998 0.61651 0.0
H2263 H 0.06065 0.49473 0.62392 0.0
H2264 H 0.04817 0.50085 0.69524 0.0
C2265 C 0.95847 0.51044 0.679 0.0
C2266 C 0.94258 0.51178 0.6615 0.0
C2267 C 0.95007 0.51085 0.63902 0.0
C2268 C 0.97288 0.50801 0.63408 0.0
C2269 C 0.98801 0.50642 0.65178 0.0
C2270 C 0.98112 0.50794 0.67379 0.0
C2271 C 1.00067 0.50607 0.68979 0.0
C2272 C 0.00346 0.52767 0.70348 0.0
C2273 C 0.99814 0.48556 0.70512 0.0
C2274 C 0.0197 0.50303 0.67337 0.0
C2275 C 0.01206 0.50308 0.65154 0.0
C2276 C 0.02653 0.49993 0.63353 0.0
C2277 C 0.04941 0.49696 0.63794 0.0
C2278 C 0.05769 0.49742 0.66018 0.0
C2279 C 0.04249 0.50044 0.67805 0.0
H2280 H 0.31396 0.53765 0.96382 0.0
H2281 H 0.34252 0.47483 0.94181 0.0
H2282 H 0.34922 0.46394 0.98123 0.0
H2283 H 0.35027 0.54659 0.0119 0.0
H2284 H 0.32824 0.5576 0.02929 0.0
H2285 H 0.32695 0.56102 0.99936 0.0
H2286 H 0.28796 0.54208 0.99884 0.0
H2287 H 0.28917 0.53856 0.02875 0.0
H2288 H 0.28466 0.51466 0.01093 0.0
H2289 H 0.35329 0.46018 0.02284 0.0
H2290 H 0.35193 0.46248 0.06413 0.0
H2291 H 0.31812 0.52651 0.05934 0.0
C2292 C 0.32181 0.52174 0.96745 0.0
C2293 C 0.32802 0.50709 0.95005 0.0
C2294 C 0.33785 0.48622 0.95513 0.0
C2295 C 0.34172 0.47994 0.97738 0.0
C2296 C 0.33534 0.49465 0.9943 0.0
C2297 C 0.3254 0.51503 0.98965 0.0
C2298 C 0.31915 0.52718 0.01102 0.0
C2299 C 0.33192 0.54941 0.01301 0.0
C2300 C 0.29372 0.53082 0.01246 0.0
C2301 C 0.32707 0.51044 0.02834 0.0
C2302 C 0.33664 0.49195 0.01834 0.0
C2303 C 0.34572 0.47451 0.03088 0.0
C2304 C 0.34491 0.47598 0.05429 0.0
C2305 C 0.33477 0.49456 0.06489 0.0
C2306 C 0.32572 0.51196 0.05168 0.0
H2307 H 0.49628 0.30133 0.95115 0.0
H2308 H 0.50078 0.37295 0.93966 0.0
H2309 H 0.50409 0.37917 0.98025 0.0
H2310 H 0.4631 0.30493 0.00195 0.0
H2311 H 0.477 0.28171 0.0152 0.0
H2312 H 0.47475 0.28277 0.98515 0.0
H2313 H 0.51778 0.279 0.98174 0.0
H2314 H 0.52017 0.278 0.01177 0.0
H2315 H 0.53555 0.29867 0.99611 0.0
H2316 H 0.50838 0.37774 0.02183 0.0
H2317 H 0.51149 0.36892 0.06193 0.0
H2318 H 0.50299 0.29832 0.047 0.0
C2319 C 0.49783 0.31834 0.95714 0.0
C2320 C 0.49823 0.33664 0.94208 0.0
C2321 C 0.50032 0.35862 0.95074 0.0
C2322 C 0.50227 0.36236 0.97381 0.0
C2323 C 0.50194 0.34398 0.98812 0.0
C2324 C 0.4996 0.32242 0.98018 0.0
C2325 C 0.49967 0.30564 0.99924 0.0
C2326 C 0.4773 0.29302 1.00045 0.0
C2327 C 0.51947 0.28937 0.99708 0.0
C2328 C 0.5026 0.32116 0.01911 0.0
C2329 C 0.50397 0.34319 0.01226 0.0
C2330 C 0.50721 0.36056 0.02741 0.0
C2331 C 0.50903 0.35535 0.0502 0.0
C2332 C 0.50746 0.33291 0.05775 0.0
C2333 C 0.50414 0.31564 0.04187 0.0
H2334 H 0.69986 0.49688 0.95577 0.0
H2335 H 0.62972 0.48181 0.94458 0.0
H2336 H 0.62217 0.48789 0.98479 0.0
H2337 H 0.70368 0.46807 0.00859 0.0
H2338 H 0.72301 0.48795 0.0204 0.0
H2339 H 0.72257 0.48325 0.99064 0.0
H2340 H 0.71626 0.52562 0.98407 0.0
H2341 H 0.71648 0.53042 0.01383 0.0
H2342 H 0.6929 0.53934 0.9973 0.0
H2343 H 0.62219 0.49683 0.02609 0.0
H2344 H 0.63028 0.50342 0.06599 0.0
H2345 H 0.70095 0.50993 0.0505 0.0
C2346 C 0.68291 0.49477 0.9617 0.0
C2347 C 0.66537 0.48892 0.94693 0.0
C2348 C 0.64345 0.48624 0.95553 0.0
C2349 C 0.63898 0.48977 0.97833 0.0
C2350 C 0.65666 0.49565 0.99237 0.0
C2351 C 0.67825 0.49776 0.98444 0.0
C2352 C 0.69446 0.50316 0.00317 0.0
C2353 C 0.71196 0.48449 0.00586 0.0
C2354 C 0.70568 0.52599 0.99936 0.0
C2355 C 0.6786 0.50387 0.02291 0.0
C2356 C 0.65683 0.49981 0.01627 0.0
C2357 C 0.63919 0.4999 0.03149 0.0
C2358 C 0.64397 0.50378 0.05414 0.0
C2359 C 0.66628 0.50715 0.06148 0.0
C2360 C 0.68373 0.50739 0.0455 0.0
H2361 H 0.5034 0.64801 0.95613 0.0
H2362 H 0.51316 0.71857 0.94166 0.0
H2363 H 0.5135 0.7269 0.98164 0.0
H2364 H 0.46543 0.65705 0.0018 0.0
H2365 H 0.47567 0.63423 0.01864 0.0
H2366 H 0.47776 0.63292 0.98859 0.0
H2367 H 0.52045 0.62647 0.99169 0.0
H2368 H 0.51848 0.62769 0.02177 0.0
H2369 H 0.53734 0.64611 0.00714 0.0
H2370 H 0.51262 0.72845 0.02242 0.0
H2371 H 0.50919 0.72329 0.06288 0.0
H2372 H 0.49768 0.65217 0.05295 0.0
C2373 C 0.50593 0.66514 0.96142 0.0
C2374 C 0.50866 0.68255 0.94554 0.0
C2375 C 0.51139 0.70482 0.95324 0.0
C2376 C 0.51154 0.70981 0.97604 0.0
C2377 C 0.50866 0.69243 0.99116 0.0
C2378 C 0.50578 0.67055 0.98435 0.0
C2379 C 0.50197 0.6554 0.00445 0.0
C2380 C 0.47883 0.64425 0.00329 0.0
C2381 C 0.52068 0.63788 0.00637 0.0
C2382 C 0.50317 0.6723 0.02344 0.0
C2383 C 0.50722 0.69348 0.01522 0.0
C2384 C 0.50934 0.71197 0.02914 0.0
C2385 C 0.5073 0.70882 0.05219 0.0
C2386 C 0.50291 0.68736 0.06128 0.0
C2387 C 0.50081 0.66883 0.04659 0.0
H2388 H 0.17361 0.2435 0.50082 0.0
H2389 H 0.21242 0.30483 0.49919 0.0
H2390 H 0.24723 0.28264 0.49651 0.0
H2391 H 0.21239 0.21148 0.53423 0.0
H2392 H 0.20716 0.18586 0.51924 0.0
H2393 H 0.18552 0.20669 0.52142 0.0
H2394 H 0.18203 0.20764 0.47819 0.0
H2395 H 0.20368 0.18686 0.47589 0.0
H2396 H 0.2065 0.21318 0.46147 0.0
H2397 H 0.27803 0.25314 0.49293 0.0
H2398 H 0.30162 0.21919 0.48966 0.0
H2399 H 0.24204 0.17794 0.49412 0.0
C2400 C 0.18941 0.25232 0.50001 0.0
C2401 C 0.19025 0.27593 0.50028 0.0
C2402 C 0.21133 0.28675 0.49914 0.0
C2403 C 0.2312 0.27429 0.49756 0.0
C2404 C 0.22974 0.25102 0.49723 0.0
C2405 C 0.20935 0.24018 0.49852 0.0
C2406 C 0.21219 0.21506 0.4977 0.0
C2407 C 0.20382 0.20414 0.51944 0.0
C2408 C 0.2004 0.20511 0.47708 0.0
C2409 C 0.23735 0.21341 0.49563 0.0
C2410 C 0.24727 0.23426 0.49535 0.0
C2411 C 0.2704 0.23673 0.49322 0.0
C2412 C 0.28368 0.21737 0.49133 0.0
C2413 C 0.27376 0.19586 0.49166 0.0
C2414 C 0.25027 0.19406 0.49388 0.0
H2415 H 0.75768 0.17232 0.50922 0.0
H2416 H 0.6994 0.21554 0.50682 0.0
H2417 H 0.72405 0.24847 0.50328 0.0
H2418 H 0.79214 0.20966 0.5422 0.0
H2419 H 0.81759 0.20256 0.5277 0.0
H2420 H 0.79538 0.18232 0.52991 0.0
H2421 H 0.79481 0.17813 0.48678 0.0
H2422 H 0.81699 0.19839 0.48443 0.0
H2423 H 0.7911 0.2026 0.46956 0.0
H2424 H 0.75495 0.27667 0.49888 0.0
H2425 H 0.78991 0.29836 0.49586 0.0
H2426 H 0.82842 0.23717 0.50244 0.0
C2427 C 0.7501 0.18872 0.50798 0.0
C2428 C 0.72655 0.19131 0.50829 0.0
C2429 C 0.71735 0.21309 0.50672 0.0
C2430 C 0.73122 0.23191 0.50464 0.0
C2431 C 0.75432 0.22877 0.50433 0.0
C2432 C 0.76372 0.20774 0.50612 0.0
C2433 C 0.78908 0.20904 0.50564 0.0
C2434 C 0.79914 0.20038 0.52768 0.0
C2435 C 0.79854 0.19628 0.48539 0.0
C2436 C 0.79246 0.23406 0.50316 0.0
C2437 C 0.77217 0.2451 0.50231 0.0
C2438 C 0.77093 0.26821 0.49963 0.0
C2439 C 0.79092 0.28039 0.49786 0.0
C2440 C 0.81195 0.26952 0.49894 0.0
C2441 C 0.81263 0.24601 0.50167 0.0
H2442 H 0.80177 0.74161 0.54422 0.0
H2443 H 0.82399 0.7445 0.47509 0.0
H2444 H 0.79516 0.77263 0.46693 0.0
H2445 H 0.74136 0.7485 0.53123 0.0
H2446 H 0.73637 0.76514 0.55588 0.0
H2447 H 0.75789 0.74405 0.55605 0.0
H2448 H 0.78695 0.7739 0.56798 0.0
H2449 H 0.7656 0.7951 0.56763 0.0
H2450 H 0.79055 0.7986 0.55108 0.0
H2451 H 0.76762 0.8041 0.46737 0.0
H2452 H 0.73923 0.83319 0.47529 0.0
H2453 H 0.7321 0.80786 0.54287 0.0
C2454 C 0.80026 0.74784 0.52727 0.0
C2455 C 0.81519 0.74079 0.51033 0.0
C2456 C 0.81271 0.74945 0.48837 0.0
C2457 C 0.79641 0.76555 0.48354 0.0
C2458 C 0.78235 0.77256 0.50071 0.0
C2459 C 0.78372 0.76366 0.52202 0.0
C2460 C 0.76664 0.77435 0.53743 0.0
C2461 C 0.74955 0.75697 0.54563 0.0
C2462 C 0.77813 0.78619 0.55719 0.0
C2463 C 0.75593 0.79104 0.52161 0.0
C2464 C 0.76541 0.78986 0.50056 0.0
C2465 C 0.75967 0.80484 0.48362 0.0
C2466 C 0.74366 0.82135 0.48826 0.0
C2467 C 0.7333 0.82242 0.5095 0.0
C2468 C 0.73943 0.80699 0.52631 0.0
H2469 H 0.18234 0.75051 0.49741 0.0
H2470 H 0.22333 0.69064 0.49619 0.0
H2471 H 0.25735 0.71418 0.49996 0.0
H2472 H 0.2184 0.78484 0.46519 0.0
H2473 H 0.21221 0.8097 0.48107 0.0
H2474 H 0.19163 0.78786 0.47873 0.0
H2475 H 0.18923 0.78542 0.522 0.0
H2476 H 0.20986 0.80722 0.52446 0.0
H2477 H 0.21434 0.78067 0.538 0.0
H2478 H 0.28716 0.7456 0.5032 0.0
H2479 H 0.30896 0.78091 0.50518 0.0
H2480 H 0.24695 0.8186 0.5045 0.0
C2481 C 0.19841 0.74218 0.49792 0.0
C2482 C 0.20013 0.71868 0.49642 0.0
C2483 C 0.22158 0.70862 0.49727 0.0
C2484 C 0.24098 0.72187 0.49943 0.0
C2485 C 0.23857 0.74507 0.50081 0.0
C2486 C 0.21772 0.75502 0.50009 0.0
C2487 C 0.21925 0.78016 0.50161 0.0
C2488 C 0.20982 0.79128 0.48039 0.0
C2489 C 0.20748 0.78887 0.52278 0.0
C2490 C 0.24427 0.78298 0.50318 0.0
C2491 C 0.25529 0.76268 0.50275 0.0
C2492 C 0.27862 0.76154 0.50363 0.0
C2493 C 0.29087 0.78166 0.5048 0.0
C2494 C 0.27972 0.80257 0.50504 0.0
C2495 C 0.25611 0.803 0.50439 0.0
H2496 H 0.50684 0.17809 0.24254 0.0
H2497 H 0.51152 0.22062 0.30123 0.0
H2498 H 0.50891 0.25405 0.27688 0.0
H2499 H 0.53957 0.21283 0.20569 0.0
H2500 H 0.52252 0.20668 0.18158 0.0
H2501 H 0.52521 0.18639 0.20369 0.0
H2502 H 0.4821 0.18518 0.20787 0.0
H2503 H 0.47926 0.20555 0.18586 0.0
H2504 H 0.46698 0.21077 0.2129 0.0
H2505 H 0.50479 0.28281 0.24578 0.0
H2506 H 0.5008 0.30444 0.21082 0.0
H2507 H 0.49898 0.24259 0.1728 0.0
C2508 C 0.50743 0.1944 0.25037 0.0
C2509 C 0.50941 0.19671 0.27386 0.0
C2510 C 0.51012 0.21842 0.2833 0.0
C2511 C 0.50858 0.23749 0.2696 0.0
C2512 C 0.50642 0.23454 0.24652 0.0
C2513 C 0.50598 0.21351 0.23701 0.0
C2514 C 0.50344 0.21473 0.21182 0.0
C2515 C 0.52391 0.20456 0.2 0.0
C2516 C 0.48165 0.20339 0.20417 0.0
C2517 C 0.50243 0.23979 0.20855 0.0
C2518 C 0.50414 0.25095 0.22875 0.0
C2519 C 0.50347 0.27421 0.2299 0.0
C2520 C 0.50112 0.28635 0.20992 0.0
C2521 C 0.4995 0.27523 0.18902 0.0
C2522 C 0.50014 0.25162 0.18846 0.0
H2523 H 0.81755 0.53 0.2473 0.0
H2524 H 0.79818 0.47756 0.29344 0.0
H2525 H 0.76527 0.46893 0.2697 0.0
H2526 H 0.76144 0.54817 0.23011 0.0
H2527 H 0.76977 0.55198 0.20137 0.0
H2528 H 0.78984 0.55585 0.22353 0.0
H2529 H 0.81601 0.52681 0.2048 0.0
H2530 H 0.79596 0.5227 0.18271 0.0
H2531 H 0.80557 0.49915 0.19889 0.0
H2532 H 0.73519 0.46543 0.24008 0.0
H2533 H 0.71176 0.46551 0.20599 0.0
H2534 H 0.75304 0.51811 0.17777 0.0
C2535 C 0.80597 0.51718 0.25276 0.0
C2536 C 0.80995 0.50482 0.2725 0.0
C2537 C 0.79509 0.48745 0.27858 0.0
C2538 C 0.77643 0.48245 0.26519 0.0
C2539 C 0.77318 0.49472 0.24559 0.0
C2540 C 0.78765 0.51162 0.23932 0.0
C2541 C 0.78173 0.52083 0.21646 0.0
C2542 C 0.77531 0.54568 0.21797 0.0
C2543 C 0.80096 0.51714 0.19973 0.0
C2544 C 0.76168 0.50646 0.21078 0.0
C2545 C 0.7568 0.49173 0.22793 0.0
C2546 C 0.73889 0.47687 0.22655 0.0
C2547 C 0.72568 0.47704 0.20713 0.0
C2548 C 0.73069 0.49169 0.18918 0.0
C2549 C 0.74893 0.50657 0.19112 0.0
H2550 H 0.47117 0.72679 0.20929 0.0
H2551 H 0.54238 0.72912 0.19628 0.0
H2552 H 0.54718 0.75637 0.22708 0.0
H2553 H 0.46555 0.78385 0.21624 0.0
H2554 H 0.44436 0.78268 0.23766 0.0
H2555 H 0.44702 0.76013 0.21794 0.0
H2556 H 0.45158 0.73194 0.25054 0.0
H2557 H 0.44885 0.75445 0.27042 0.0
H2558 H 0.47303 0.73648 0.27125 0.0
H2559 H 0.54381 0.78585 0.25642 0.0
H2560 H 0.53242 0.81764 0.27999 0.0
H2561 H 0.46284 0.79826 0.27237 0.0
C2562 C 0.48784 0.73244 0.21359 0.0
C2563 C 0.50655 0.72548 0.20099 0.0
C2564 C 0.52798 0.73399 0.20616 0.0
C2565 C 0.53084 0.74941 0.22361 0.0
C2566 C 0.51201 0.75637 0.23548 0.0
C2567 C 0.49089 0.74828 0.23062 0.0
C2568 C 0.47312 0.76075 0.24375 0.0
C2569 C 0.45655 0.77255 0.22795 0.0
C2570 C 0.46093 0.74496 0.25996 0.0
C2571 C 0.48749 0.77746 0.2563 0.0
C2572 C 0.5099 0.7743 0.25166 0.0
C2573 C 0.52632 0.78834 0.26037 0.0
C2574 C 0.51966 0.80639 0.27378 0.0
C2575 C 0.49671 0.81049 0.27811 0.0
C2576 C 0.48051 0.7955 0.26957 0.0
H2577 H 0.18552 0.49026 0.24588 0.0
H2578 H 0.22365 0.49242 0.30762 0.0
H2579 H 0.25828 0.499 0.28566 0.0
H2580 H 0.22674 0.46181 0.21264 0.0
H2581 H 0.22005 0.4774 0.18771 0.0
H2582 H 0.19882 0.4724 0.20849 0.0
H2583 H 0.19155 0.51502 0.21136 0.0
H2584 H 0.21285 0.52019 0.1907 0.0
H2585 H 0.21447 0.53357 0.21767 0.0
H2586 H 0.28868 0.50669 0.25608 0.0
H2587 H 0.3118 0.51283 0.22221 0.0
H2588 H 0.25266 0.50532 0.18077 0.0
C2589 C 0.20111 0.49204 0.25492 0.0
C2590 C 0.20183 0.49089 0.27853 0.0
C2591 C 0.22269 0.49317 0.28954 0.0
C2592 C 0.24241 0.49699 0.2772 0.0
C2593 C 0.24095 0.49836 0.2539 0.0
C2594 C 0.22077 0.49577 0.24294 0.0
C2595 C 0.22336 0.49797 0.21788 0.0
C2596 C 0.21687 0.47609 0.20599 0.0
C2597 C 0.20975 0.51787 0.20888 0.0
C2598 C 0.24819 0.50232 0.21629 0.0
C2599 C 0.25814 0.50255 0.23717 0.0
C2600 C 0.28102 0.50647 0.23968 0.0
C2601 C 0.294 0.51002 0.22035 0.0
C2602 C 0.28407 0.50958 0.1988 0.0
C2603 C 0.26083 0.50575 0.19694 0.0
H2604 H 0.52406 0.73553 0.81609 0.0
H2605 H 0.46393 0.70376 0.79075 0.0
H2606 H 0.4643 0.72946 0.75823 0.0
H2607 H 0.50888 0.78967 0.80385 0.0
H2608 H 0.53652 0.79901 0.79625 0.0
H2609 H 0.53318 0.7762 0.81555 0.0
H2610 H 0.55769 0.75094 0.79024 0.0
H2611 H 0.56122 0.77375 0.77084 0.0
H2612 H 0.55034 0.74734 0.7612 0.0
H2613 H 0.46856 0.76222 0.7314 0.0
H2614 H 0.47711 0.79775 0.71201 0.0
H2615 H 0.53496 0.80704 0.75482 0.0
C2616 C 0.5112 0.73359 0.80348 0.0
C2617 C 0.49395 0.7176 0.80597 0.0
C2618 C 0.4774 0.71575 0.78912 0.0
C2619 C 0.47747 0.73031 0.77061 0.0
C2620 C 0.49438 0.74636 0.76908 0.0
C2621 C 0.51109 0.74784 0.78497 0.0
C2622 C 0.52648 0.76743 0.78051 0.0
C2623 C 0.52623 0.78405 0.8002 0.0
C2624 C 0.55035 0.75937 0.77539 0.0
C2625 C 0.51549 0.77724 0.75994 0.0
C2626 C 0.49706 0.76483 0.75349 0.0
C2627 C 0.48321 0.77177 0.73604 0.0
C2628 C 0.48818 0.792 0.72515 0.0
C2629 C 0.50688 0.80503 0.73169 0.0
C2630 C 0.52086 0.79723 0.74905 0.0
H2631 H 0.26105 0.5428 0.80877 0.0
H2632 H 0.25891 0.4731 0.82871 0.0
H2633 H 0.22988 0.46582 0.80019 0.0
H2634 H 0.20245 0.54842 0.80205 0.0
H2635 H 0.20406 0.56712 0.77845 0.0
H2636 H 0.22639 0.56643 0.79865 0.0
H2637 H 0.25488 0.55822 0.76705 0.0
H2638 H 0.23262 0.55891 0.74672 0.0
H2639 H 0.25039 0.53465 0.74877 0.0
H2640 H 0.20039 0.46625 0.77034 0.0
H2641 H 0.17043 0.47482 0.74332 0.0
H2642 H 0.18979 0.5448 0.7442 0.0
C2643 C 0.25476 0.52593 0.80679 0.0
C2644 C 0.26245 0.50842 0.82071 0.0
C2645 C 0.25335 0.48671 0.81811 0.0
C2646 C 0.23692 0.4824 0.80192 0.0
C2647 C 0.2295 0.50005 0.78862 0.0
C2648 C 0.23797 0.52143 0.79099 0.0
C2649 C 0.22579 0.53774 0.77582 0.0
C2650 C 0.21397 0.556 0.78957 0.0
C2651 C 0.24188 0.54798 0.75857 0.0
C2652 C 0.20906 0.52223 0.76471 0.0
C2653 C 0.21174 0.5005 0.77209 0.0
C2654 C 0.19816 0.48319 0.76441 0.0
C2655 C 0.1812 0.48824 0.74899 0.0
C2656 C 0.1777 0.51049 0.7416 0.0
C2657 C 0.192 0.52763 0.74951 0.0
H2658 H 0.53276 0.19709 0.73051 0.0
H2659 H 0.46074 0.19383 0.72353 0.0
H2660 H 0.45648 0.2218 0.75372 0.0
H2661 H 0.53234 0.19773 0.78865 0.0
H2662 H 0.55589 0.21624 0.79209 0.0
H2663 H 0.55368 0.19918 0.76739 0.0
H2664 H 0.5564 0.23444 0.74237 0.0
H2665 H 0.55886 0.25164 0.76702 0.0
H2666 H 0.53723 0.25728 0.74678 0.0
H2667 H 0.45983 0.24741 0.78654 0.0
H2668 H 0.4702 0.26787 0.82074 0.0
H2669 H 0.54021 0.25292 0.8084 0.0
C2670 C 0.51618 0.203 0.7348 0.0
C2671 C 0.49705 0.19393 0.72431 0.0
C2672 C 0.47555 0.20105 0.73108 0.0
C2673 C 0.473 0.21688 0.74821 0.0
C2674 C 0.49214 0.22515 0.75864 0.0
C2675 C 0.51334 0.21845 0.75226 0.0
C2676 C 0.53095 0.22797 0.7679 0.0
C2677 C 0.54397 0.20916 0.7797 0.0
C2678 C 0.5468 0.24378 0.75526 0.0
C2679 C 0.51632 0.24073 0.78426 0.0
C2680 C 0.49403 0.23915 0.77836 0.0
C2681 C 0.47724 0.24892 0.79121 0.0
C2682 C 0.48334 0.26052 0.81067 0.0
C2683 C 0.50605 0.26207 0.81734 0.0
C2684 C 0.52272 0.25213 0.80378 0.0
H2685 H 0.73747 0.53517 0.80595 0.0
H2686 H 0.75268 0.47246 0.8393 0.0
H2687 H 0.78109 0.46412 0.81073 0.0
H2688 H 0.74426 0.51367 0.74885 0.0
H2689 H 0.75664 0.53917 0.73858 0.0
H2690 H 0.73689 0.54011 0.76133 0.0
H2691 H 0.76593 0.56098 0.7858 0.0
H2692 H 0.78577 0.56008 0.76315 0.0
H2693 H 0.79316 0.54876 0.79011 0.0
H2694 H 0.81001 0.46385 0.78063 0.0
H2695 H 0.83575 0.47046 0.74896 0.0
H2696 H 0.80061 0.53192 0.73321 0.0
C2697 C 0.74666 0.51961 0.80712 0.0
C2698 C 0.74278 0.50449 0.82492 0.0
C2699 C 0.75518 0.48429 0.82581 0.0
C2700 C 0.77144 0.47939 0.80967 0.0
C2701 C 0.77498 0.49469 0.79249 0.0
C2702 C 0.7628 0.51427 0.7909 0.0
C2703 C 0.7701 0.52783 0.7707 0.0
C2704 C 0.75082 0.53034 0.75387 0.0
C2705 C 0.77929 0.55077 0.77788 0.0
C2706 C 0.7885 0.51298 0.76147 0.0
C2707 C 0.79111 0.49402 0.77441 0.0
C2708 C 0.80791 0.47845 0.77014 0.0
C2709 C 0.82248 0.48235 0.75217 0.0
C2710 C 0.81995 0.5015 0.73848 0.0
C2711 C 0.8026 0.51689 0.74312 0.0
loop_
_geom_bond_atom_site_label_1
_geom_bond_atom_site_label_2
_geom_bond_distance
_geom_bond_site_symmetry_2
_ccdc_geom_bond_type
Co0 O2 2.143 . S
Co0 O8 2.074 . S
Co0 O11 2.093 . S
Co0 O24 2.097 . S
Co0 N41 2.151 . S
Co0 N49 2.214 . S
Co1 O2 2.160 . S
Co1 O7 2.058 . S
Co1 O17 2.057 . S
Co1 O32 2.037 . S
Co1 N36 2.145 . S
Co1 N57 2.257 . S
O2 Co0 2.143 . S
O2 Co1 2.160 . S
C3 O4 1.278 . S
C3 O11 1.224 . S
O4 C3 1.278 . S
C5 O6 1.245 . S
C5 O17 1.232 . S
O6 C5 1.245 . S
O7 Co1 2.058 . S
O7 C33 1.269 . S
O8 Co0 2.074 . S
O8 C33 1.257 . S
H9 C34 0.930 . S
H10 C40 0.930 . S
O11 Co0 2.093 . S
O11 C3 1.224 . S
H12 C44 0.929 . S
H13 C46 0.930 . S
H14 C47 0.930 . S
H15 C45 0.929 . S
H16 C48 0.928 . S
O17 Co1 2.057 . S
O17 C5 1.232 . S
H18 C37 0.929 . S
H19 C38 0.929 . S
H20 C50 0.931 . S
H21 C42 0.929 . S
H22 C51 0.930 . S
H23 C43 0.931 . S
O24 Co0 2.097 . S
O24 C52 1.214 . S
H25 C53 0.929 . S
H26 C54 0.929 . S
H27 C55 0.930 . S
H28 C56 0.929 . S
H29 C58 0.930 . S
H30 C35 0.930 . S
H31 C39 0.930 . S
O32 Co1 2.037 . S
O32 C52 1.234 . S
C33 O7 1.269 . S
C33 O8 1.257 . S
C34 H9 0.930 . S
C34 C37 1.388 . S
C34 C39 1.418 . S
C35 H30 0.930 . S
C35 C38 1.404 . S
C35 C39 1.353 . S
N36 Co1 2.145 . S
N36 C37 1.397 . S
N36 C38 1.334 . S
C37 H18 0.929 . S
C37 C34 1.388 . S
C37 N36 1.397 . S
C38 H19 0.929 . S
C38 C35 1.404 . S
C38 N36 1.334 . S
C39 H31 0.930 . S
C39 C34 1.418 . S
C39 C35 1.353 . S
C40 H10 0.930 . S
C40 N41 1.330 . S
C40 C42 1.446 . S
N41 Co0 2.151 . S
N41 C40 1.330 . S
N41 C45 1.418 . S
C42 H21 0.929 . S
C42 C40 1.446 . S
C42 C43 1.332 . S
C43 H23 0.931 . S
C43 C42 1.332 . S
C43 C44 1.267 . S
C44 H12 0.929 . S
C44 C43 1.267 . S
C44 C45 1.251 . S
C45 H15 0.929 . S
C45 N41 1.418 . S
C45 C44 1.251 . S
C46 H13 0.930 . S
C46 C48 1.406 . S
C46 C51 1.261 . S
C47 H14 0.930 . S
C47 N49 1.325 . S
C47 C50 1.357 . S
C48 H16 0.928 . S
C48 C46 1.406 . S
C48 N49 1.261 . S
N49 Co0 2.214 . S
N49 C47 1.325 . S
N49 C48 1.261 . S
C50 H20 0.931 . S
C50 C47 1.357 . S
C50 C51 1.312 . S
C51 H22 0.930 . S
C51 C46 1.261 . S
C51 C50 1.312 . S
C52 O24 1.214 . S
C52 O32 1.234 . S
C53 H25 0.929 . S
C53 C56 1.391 . S
C53 C58 1.391 . S
C54 H26 0.929 . S
C54 C55 1.390 . S
C54 N57 1.391 . S
C55 H27 0.930 . S
C55 C54 1.390 . S
C55 C56 1.392 . S
C56 H28 0.929 . S
C56 C53 1.391 . S
C56 C55 1.392 . S
N57 Co1 2.257 . S
N57 C54 1.391 . S
N57 C58 1.388 . S
C58 H29 0.930 . S
C58 C53 1.391 . S
C58 N57 1.388 . S
Co59 O61 2.143 . S
Co59 O67 2.074 . S
Co59 O70 2.093 . S
Co59 O83 2.097 . S
Co59 N100 2.151 . S
Co59 N108 2.214 . S
Co60 O61 2.160 . S
Co60 O66 2.058 . S
Co60 O76 2.057 . S
Co60 O91 2.037 . S
Co60 N95 2.145 . S
Co60 N116 2.257 . S
O61 Co59 2.143 . S
O61 Co60 2.160 . S
C62 O63 1.278 . S
C62 O70 1.224 . S
O63 C62 1.278 . S
C64 O65 1.245 . S
C64 O76 1.232 . S
O65 C64 1.245 . S
O66 Co60 2.058 . S
O66 C92 1.269 . S
O67 Co59 2.074 . S
O67 C92 1.257 . S
H68 C93 0.930 . S
H69 C99 0.930 . S
O70 Co59 2.093 . S
O70 C62 1.224 . S
H71 C103 0.929 . S
H72 C105 0.930 . S
H73 C106 0.930 . S
H74 C104 0.929 . S
H75 C107 0.928 . S
O76 Co60 2.057 . S
O76 C64 1.232 . S
H77 C96 0.929 . S
H78 C97 0.929 . S
H79 C109 0.931 . S
H80 C101 0.929 . S
H81 C110 0.930 . S
H82 C102 0.931 . S
O83 Co59 2.097 . S
O83 C111 1.214 . S
H84 C112 0.929 . S
H85 C113 0.929 . S
H86 C114 0.930 . S
H87 C115 0.929 . S
H88 C117 0.930 . S
H89 C94 0.930 . S
H90 C98 0.930 . S
O91 Co60 2.037 . S
O91 C111 1.234 . S
C92 O66 1.269 . S
C92 O67 1.257 . S
C93 H68 0.930 . S
C93 C96 1.388 . S
C93 C98 1.418 . S
C94 H89 0.930 . S
C94 C97 1.404 . S
C94 C98 1.353 . S
N95 Co60 2.145 . S
N95 C96 1.397 . S
N95 C97 1.334 . S
C96 H77 0.929 . S
C96 C93 1.388 . S
C96 N95 1.397 . S
C97 H78 0.929 . S
C97 C94 1.404 . S
C97 N95 1.334 . S
C98 H90 0.930 . S
C98 C93 1.418 . S
C98 C94 1.353 . S
C99 H69 0.930 . S
C99 N100 1.330 . S
C99 C101 1.446 . S
N100 Co59 2.151 . S
N100 C99 1.330 . S
N100 C104 1.418 . S
C101 H80 0.929 . S
C101 C99 1.446 . S
C101 C102 1.332 . S
C102 H82 0.931 . S
C102 C101 1.332 . S
C102 C103 1.267 . S
C103 H71 0.929 . S
C103 C102 1.267 . S
C103 C104 1.251 . S
C104 H74 0.929 . S
C104 N100 1.418 . S
C104 C103 1.251 . S
C105 H72 0.930 . S
C105 C107 1.406 . S
C105 C110 1.261 . S
C106 H73 0.930 . S
C106 N108 1.325 . S
C106 C109 1.357 . S
C107 H75 0.928 . S
C107 C105 1.406 . S
C107 N108 1.261 . S
N108 Co59 2.214 . S
N108 C106 1.325 . S
N108 C107 1.261 . S
C109 H79 0.931 . S
C109 C106 1.357 . S
C109 C110 1.312 . S
C110 H81 0.930 . S
C110 C105 1.261 . S
C110 C109 1.312 . S
C111 O83 1.214 . S
C111 O91 1.234 . S
C112 H84 0.929 . S
C112 C115 1.391 . S
C112 C117 1.391 . S
C113 H85 0.929 . S
C113 C114 1.390 . S
C113 N116 1.391 . S
C114 H86 0.930 . S
C114 C113 1.390 . S
C114 C115 1.392 . S
C115 H87 0.929 . S
C115 C112 1.391 . S
C115 C114 1.392 . S
N116 Co60 2.257 . S
N116 C113 1.391 . S
N116 C117 1.388 . S
C117 H88 0.930 . S
C117 C112 1.391 . S
C117 N116 1.388 . S
Co118 O120 2.143 . S
Co118 O126 2.074 . S
Co118 O129 2.093 . S
Co118 O142 2.097 . S
Co118 N159 2.151 . S
Co118 N167 2.214 . S
Co119 O120 2.160 . S
Co119 O125 2.058 . S
Co119 O135 2.057 . S
Co119 O150 2.037 . S
Co119 N154 2.145 . S
Co119 N175 2.257 . S
O120 Co118 2.143 . S
O120 Co119 2.160 . S
C121 O122 1.278 . S
C121 O129 1.224 . S
O122 C121 1.278 . S
C123 O124 1.245 . S
C123 O135 1.232 . S
O124 C123 1.245 . S
O125 Co119 2.058 . S
O125 C151 1.269 . S
O126 Co118 2.074 . S
O126 C151 1.257 . S
H127 C152 0.930 . S
H128 C158 0.930 . S
O129 Co118 2.093 . S
O129 C121 1.224 . S
H130 C162 0.929 . S
H131 C164 0.930 . S
H132 C165 0.930 . S
H133 C163 0.929 . S
H134 C166 0.928 . S
O135 Co119 2.057 . S
O135 C123 1.232 . S
H136 C155 0.929 . S
H137 C156 0.929 . S
H138 C168 0.931 . S
H139 C160 0.929 . S
H140 C169 0.930 . S
H141 C161 0.931 . S
O142 Co118 2.097 . S
O142 C170 1.214 . S
H143 C171 0.929 . S
H144 C172 0.929 . S
H145 C173 0.930 . S
H146 C174 0.929 . S
H147 C176 0.930 . S
H148 C153 0.930 . S
H149 C157 0.930 . S
O150 Co119 2.037 . S
O150 C170 1.234 . S
C151 O125 1.269 . S
C151 O126 1.257 . S
C152 H127 0.930 . S
C152 C155 1.388 . S
C152 C157 1.418 . S
C153 H148 0.930 . S
C153 C156 1.404 . S
C153 C157 1.353 . S
N154 Co119 2.145 . S
N154 C155 1.397 . S
N154 C156 1.334 . S
C155 H136 0.929 . S
C155 C152 1.388 . S
C155 N154 1.397 . S
C156 H137 0.929 . S
C156 C153 1.404 . S
C156 N154 1.334 . S
C157 H149 0.930 . S
C157 C152 1.418 . S
C157 C153 1.353 . S
C158 H128 0.930 . S
C158 N159 1.330 . S
C158 C160 1.446 . S
N159 Co118 2.151 . S
N159 C158 1.330 . S
N159 C163 1.418 . S
C160 H139 0.929 . S
C160 C158 1.446 . S
C160 C161 1.332 . S
C161 H141 0.931 . S
C161 C160 1.332 . S
C161 C162 1.267 . S
C162 H130 0.929 . S
C162 C161 1.267 . S
C162 C163 1.251 . S
C163 H133 0.929 . S
C163 N159 1.418 . S
C163 C162 1.251 . S
C164 H131 0.930 . S
C164 C166 1.406 . S
C164 C169 1.261 . S
C165 H132 0.930 . S
C165 N167 1.325 . S
C165 C168 1.357 . S
C166 H134 0.928 . S
C166 C164 1.406 . S
C166 N167 1.261 . S
N167 Co118 2.214 . S
N167 C165 1.325 . S
N167 C166 1.261 . S
C168 H138 0.931 . S
C168 C165 1.357 . S
C168 C169 1.312 . S
C169 H140 0.930 . S
C169 C164 1.261 . S
C169 C168 1.312 . S
C170 O142 1.214 . S
C170 O150 1.234 . S
C171 H143 0.929 . S
C171 C174 1.391 . S
C171 C176 1.391 . S
C172 H144 0.929 . S
C172 C173 1.390 . S
C172 N175 1.391 . S
C173 H145 0.930 . S
C173 C172 1.390 . S
C173 C174 1.392 . S
C174 H146 0.929 . S
C174 C171 1.391 . S
C174 C173 1.392 . S
N175 Co119 2.257 . S
N175 C172 1.391 . S
N175 C176 1.388 . S
C176 H147 0.930 . S
C176 C171 1.391 . S
C176 N175 1.388 . S
Co177 O179 2.143 . S
Co177 O185 2.074 . S
Co177 O188 2.093 . S
Co177 O201 2.097 . S
Co177 N218 2.151 . S
Co177 N226 2.214 . S
Co178 O179 2.160 . S
Co178 O184 2.058 . S
Co178 O194 2.057 . S
Co178 O209 2.037 . S
Co178 N213 2.145 . S
Co178 N234 2.257 . S
O179 Co177 2.143 . S
O179 Co178 2.160 . S
C180 O181 1.278 . S
C180 O188 1.224 . S
O181 C180 1.278 . S
C182 O183 1.245 . S
C182 O194 1.232 . S
O183 C182 1.245 . S
O184 Co178 2.058 . S
O184 C210 1.269 . S
O185 Co177 2.074 . S
O185 C210 1.257 . S
H186 C211 0.930 . S
H187 C217 0.930 . S
O188 Co177 2.093 . S
O188 C180 1.224 . S
H189 C221 0.929 . S
H190 C223 0.930 . S
H191 C224 0.930 . S
H192 C222 0.929 . S
H193 C225 0.928 . S
O194 Co178 2.057 . S
O194 C182 1.232 . S
H195 C214 0.929 . S
H196 C215 0.929 . S
H197 C227 0.931 . S
H198 C219 0.929 . S
H199 C228 0.930 . S
H200 C220 0.931 . S
O201 Co177 2.097 . S
O201 C229 1.214 . S
H202 C230 0.929 . S
H203 C231 0.929 . S
H204 C232 0.930 . S
H205 C233 0.929 . S
H206 C235 0.930 . S
H207 C212 0.930 . S
H208 C216 0.930 . S
O209 Co178 2.037 . S
O209 C229 1.234 . S
C210 O184 1.269 . S
C210 O185 1.257 . S
C211 H186 0.930 . S
C211 C214 1.388 . S
C211 C216 1.418 . S
C212 H207 0.930 . S
C212 C215 1.404 . S
C212 C216 1.353 . S
N213 Co178 2.145 . S
N213 C214 1.397 . S
N213 C215 1.334 . S
C214 H195 0.929 . S
C214 C211 1.388 . S
C214 N213 1.397 . S
C215 H196 0.929 . S
C215 C212 1.404 . S
C215 N213 1.334 . S
C216 H208 0.930 . S
C216 C211 1.418 . S
C216 C212 1.353 . S
C217 H187 0.930 . S
C217 N218 1.330 . S
C217 C219 1.446 . S
N218 Co177 2.151 . S
N218 C217 1.330 . S
N218 C222 1.418 . S
C219 H198 0.929 . S
C219 C217 1.446 . S
C219 C220 1.332 . S
C220 H200 0.931 . S
C220 C219 1.332 . S
C220 C221 1.267 . S
C221 H189 0.929 . S
C221 C220 1.267 . S
C221 C222 1.251 . S
C222 H192 0.929 . S
C222 N218 1.418 . S
C222 C221 1.251 . S
C223 H190 0.930 . S
C223 C225 1.406 . S
C223 C228 1.261 . S
C224 H191 0.930 . S
C224 N226 1.325 . S
C224 C227 1.357 . S
C225 H193 0.928 . S
C225 C223 1.406 . S
C225 N226 1.261 . S
N226 Co177 2.214 . S
N226 C224 1.325 . S
N226 C225 1.261 . S
C227 H197 0.931 . S
C227 C224 1.357 . S
C227 C228 1.312 . S
C228 H199 0.930 . S
C228 C223 1.261 . S
C228 C227 1.312 . S
C229 O201 1.214 . S
C229 O209 1.234 . S
C230 H202 0.929 . S
C230 C233 1.391 . S
C230 C235 1.391 . S
C231 H203 0.929 . S
C231 C232 1.390 . S
C231 N234 1.391 . S
C232 H204 0.930 . S
C232 C231 1.390 . S
C232 C233 1.392 . S
C233 H205 0.929 . S
C233 C230 1.391 . S
C233 C232 1.392 . S
N234 Co178 2.257 . S
N234 C231 1.391 . S
N234 C235 1.388 . S
C235 H206 0.930 . S
C235 C230 1.391 . S
C235 N234 1.388 . S
Co236 O238 2.143 . S
Co236 O244 2.074 . S
Co236 O247 2.093 . S
Co236 O260 2.097 . S
Co236 N277 2.151 . S
Co236 N285 2.214 . S
Co237 O238 2.160 . S
Co237 O243 2.058 . S
Co237 O253 2.057 . S
Co237 O268 2.037 . S
Co237 N272 2.145 . S
Co237 N293 2.257 . S
O238 Co236 2.143 . S
O238 Co237 2.160 . S
C239 O240 1.278 . S
C239 O247 1.224 . S
O240 C239 1.278 . S
C241 O242 1.245 . S
C241 O253 1.232 . S
O242 C241 1.245 . S
O243 Co237 2.058 . S
O243 C269 1.269 . S
O244 Co236 2.074 . S
O244 C269 1.257 . S
H245 C270 0.930 . S
H246 C276 0.930 . S
O247 Co236 2.093 . S
O247 C239 1.224 . S
H248 C280 0.929 . S
H249 C282 0.930 . S
H250 C283 0.930 . S
H251 C281 0.929 . S
H252 C284 0.928 . S
O253 Co237 2.057 . S
O253 C241 1.232 . S
H254 C273 0.929 . S
H255 C274 0.929 . S
H256 C286 0.931 . S
H257 C278 0.929 . S
H258 C287 0.930 . S
H259 C279 0.931 . S
O260 Co236 2.097 . S
O260 C288 1.214 . S
H261 C289 0.929 . S
H262 C290 0.929 . S
H263 C291 0.930 . S
H264 C292 0.929 . S
H265 C294 0.930 . S
H266 C271 0.930 . S
H267 C275 0.930 . S
O268 Co237 2.037 . S
O268 C288 1.234 . S
C269 O243 1.269 . S
C269 O244 1.257 . S
C270 H245 0.930 . S
C270 C273 1.388 . S
C270 C275 1.418 . S
C271 H266 0.930 . S
C271 C274 1.404 . S
C271 C275 1.353 . S
N272 Co237 2.145 . S
N272 C273 1.397 . S
N272 C274 1.334 . S
C273 H254 0.929 . S
C273 C270 1.388 . S
C273 N272 1.397 . S
C274 H255 0.929 . S
C274 C271 1.404 . S
C274 N272 1.334 . S
C275 H267 0.930 . S
C275 C270 1.418 . S
C275 C271 1.353 . S
C276 H246 0.930 . S
C276 N277 1.330 . S
C276 C278 1.446 . S
N277 Co236 2.151 . S
N277 C276 1.330 . S
N277 C281 1.418 . S
C278 H257 0.929 . S
C278 C276 1.446 . S
C278 C279 1.332 . S
C279 H259 0.931 . S
C279 C278 1.332 . S
C279 C280 1.267 . S
C280 H248 0.929 . S
C280 C279 1.267 . S
C280 C281 1.251 . S
C281 H251 0.929 . S
C281 N277 1.418 . S
C281 C280 1.251 . S
C282 H249 0.930 . S
C282 C284 1.406 . S
C282 C287 1.261 . S
C283 H250 0.930 . S
C283 N285 1.325 . S
C283 C286 1.357 . S
C284 H252 0.928 . S
C284 C282 1.406 . S
C284 N285 1.261 . S
N285 Co236 2.214 . S
N285 C283 1.325 . S
N285 C284 1.261 . S
C286 H256 0.931 . S
C286 C283 1.357 . S
C286 C287 1.312 . S
C287 H258 0.930 . S
C287 C282 1.261 . S
C287 C286 1.312 . S
C288 O260 1.214 . S
C288 O268 1.234 . S
C289 H261 0.929 . S
C289 C292 1.391 . S
C289 C294 1.391 . S
C290 H262 0.929 . S
C290 C291 1.390 . S
C290 N293 1.391 . S
C291 H263 0.930 . S
C291 C290 1.390 . S
C291 C292 1.392 . S
C292 H264 0.929 . S
C292 C289 1.391 . S
C292 C291 1.392 . S
N293 Co237 2.257 . S
N293 C290 1.391 . S
N293 C294 1.388 . S
C294 H265 0.930 . S
C294 C289 1.391 . S
C294 N293 1.388 . S
Co295 O297 2.143 . S
Co295 O303 2.074 . S
Co295 O306 2.093 . S
Co295 O319 2.097 . S
Co295 N336 2.151 . S
Co295 N344 2.214 . S
Co296 O297 2.160 . S
Co296 O302 2.058 . S
Co296 O312 2.057 . S
Co296 O327 2.037 . S
Co296 N331 2.145 . S
Co296 N352 2.257 . S
O297 Co295 2.143 . S
O297 Co296 2.160 . S
C298 O299 1.278 . S
C298 O306 1.224 . S
O299 C298 1.278 . S
C300 O301 1.245 . S
C300 O312 1.232 . S
O301 C300 1.245 . S
O302 Co296 2.058 . S
O302 C328 1.269 . S
O303 Co295 2.074 . S
O303 C328 1.257 . S
H304 C329 0.930 . S
H305 C335 0.930 . S
O306 Co295 2.093 . S
O306 C298 1.224 . S
H307 C339 0.929 . S
H308 C341 0.930 . S
H309 C342 0.930 . S
H310 C340 0.929 . S
H311 C343 0.928 . S
O312 Co296 2.057 . S
O312 C300 1.232 . S
H313 C332 0.929 . S
H314 C333 0.929 . S
H315 C345 0.931 . S
H316 C337 0.929 . S
H317 C346 0.930 . S
H318 C338 0.931 . S
O319 Co295 2.097 . S
O319 C347 1.214 . S
H320 C348 0.929 . S
H321 C349 0.929 . S
H322 C350 0.930 . S
H323 C351 0.929 . S
H324 C353 0.930 . S
H325 C330 0.930 . S
H326 C334 0.930 . S
O327 Co296 2.037 . S
O327 C347 1.234 . S
C328 O302 1.269 . S
C328 O303 1.257 . S
C329 H304 0.930 . S
C329 C332 1.388 . S
C329 C334 1.418 . S
C330 H325 0.930 . S
C330 C333 1.404 . S
C330 C334 1.353 . S
N331 Co296 2.145 . S
N331 C332 1.397 . S
N331 C333 1.334 . S
C332 H313 0.929 . S
C332 C329 1.388 . S
C332 N331 1.397 . S
C333 H314 0.929 . S
C333 C330 1.404 . S
C333 N331 1.334 . S
C334 H326 0.930 . S
C334 C329 1.418 . S
C334 C330 1.353 . S
C335 H305 0.930 . S
C335 N336 1.330 . S
C335 C337 1.446 . S
N336 Co295 2.151 . S
N336 C335 1.330 . S
N336 C340 1.418 . S
C337 H316 0.929 . S
C337 C335 1.446 . S
C337 C338 1.332 . S
C338 H318 0.931 . S
C338 C337 1.332 . S
C338 C339 1.267 . S
C339 H307 0.929 . S
C339 C338 1.267 . S
C339 C340 1.251 . S
C340 H310 0.929 . S
C340 N336 1.418 . S
C340 C339 1.251 . S
C341 H308 0.930 . S
C341 C343 1.406 . S
C341 C346 1.261 . S
C342 H309 0.930 . S
C342 N344 1.325 . S
C342 C345 1.357 . S
C343 H311 0.928 . S
C343 C341 1.406 . S
C343 N344 1.261 . S
N344 Co295 2.214 . S
N344 C342 1.325 . S
N344 C343 1.261 . S
C345 H315 0.931 . S
C345 C342 1.357 . S
C345 C346 1.312 . S
C346 H317 0.930 . S
C346 C341 1.261 . S
C346 C345 1.312 . S
C347 O319 1.214 . S
C347 O327 1.234 . S
C348 H320 0.929 . S
C348 C351 1.391 . S
C348 C353 1.391 . S
C349 H321 0.929 . S
C349 C350 1.390 . S
C349 N352 1.391 . S
C350 H322 0.930 . S
C350 C349 1.390 . S
C350 C351 1.392 . S
C351 H323 0.929 . S
C351 C348 1.391 . S
C351 C350 1.392 . S
N352 Co296 2.257 . S
N352 C349 1.391 . S
N352 C353 1.388 . S
C353 H324 0.930 . S
C353 C348 1.391 . S
C353 N352 1.388 . S
Co354 O356 2.143 . S
Co354 O362 2.074 . S
Co354 O365 2.093 . S
Co354 O378 2.097 . S
Co354 N395 2.151 . S
Co354 N403 2.214 . S
Co355 O356 2.160 . S
Co355 O361 2.058 . S
Co355 O371 2.057 . S
Co355 O386 2.037 . S
Co355 N390 2.145 . S
Co355 N411 2.257 . S
O356 Co354 2.143 . S
O356 Co355 2.160 . S
C357 O358 1.278 . S
C357 O365 1.224 . S
O358 C357 1.278 . S
C359 O360 1.245 . S
C359 O371 1.232 . S
O360 C359 1.245 . S
O361 Co355 2.058 . S
O361 C387 1.269 . S
O362 Co354 2.074 . S
O362 C387 1.257 . S
H363 C388 0.930 . S
H364 C394 0.930 . S
O365 Co354 2.093 . S
O365 C357 1.224 . S
H366 C398 0.929 . S
H367 C400 0.930 . S
H368 C401 0.930 . S
H369 C399 0.929 . S
H370 C402 0.928 . S
O371 Co355 2.057 . S
O371 C359 1.232 . S
H372 C391 0.929 . S
H373 C392 0.929 . S
H374 C404 0.931 . S
H375 C396 0.929 . S
H376 C405 0.930 . S
H377 C397 0.931 . S
O378 Co354 2.097 . S
O378 C406 1.214 . S
H379 C407 0.929 . S
H380 C408 0.929 . S
H381 C409 0.930 . S
H382 C410 0.929 . S
H383 C412 0.930 . S
H384 C389 0.930 . S
H385 C393 0.930 . S
O386 Co355 2.037 . S
O386 C406 1.234 . S
C387 O361 1.269 . S
C387 O362 1.257 . S
C388 H363 0.930 . S
C388 C391 1.388 . S
C388 C393 1.418 . S
C389 H384 0.930 . S
C389 C392 1.404 . S
C389 C393 1.353 . S
N390 Co355 2.145 . S
N390 C391 1.397 . S
N390 C392 1.334 . S
C391 H372 0.929 . S
C391 C388 1.388 . S
C391 N390 1.397 . S
C392 H373 0.929 . S
C392 C389 1.404 . S
C392 N390 1.334 . S
C393 H385 0.930 . S
C393 C388 1.418 . S
C393 C389 1.353 . S
C394 H364 0.930 . S
C394 N395 1.330 . S
C394 C396 1.446 . S
N395 Co354 2.151 . S
N395 C394 1.330 . S
N395 C399 1.418 . S
C396 H375 0.929 . S
C396 C394 1.446 . S
C396 C397 1.332 . S
C397 H377 0.931 . S
C397 C396 1.332 . S
C397 C398 1.267 . S
C398 H366 0.929 . S
C398 C397 1.267 . S
C398 C399 1.251 . S
C399 H369 0.929 . S
C399 N395 1.418 . S
C399 C398 1.251 . S
C400 H367 0.930 . S
C400 C402 1.406 . S
C400 C405 1.261 . S
C401 H368 0.930 . S
C401 N403 1.325 . S
C401 C404 1.357 . S
C402 H370 0.928 . S
C402 C400 1.406 . S
C402 N403 1.261 . S
N403 Co354 2.214 . S
N403 C401 1.325 . S
N403 C402 1.261 . S
C404 H374 0.931 . S
C404 C401 1.357 . S
C404 C405 1.312 . S
C405 H376 0.930 . S
C405 C400 1.261 . S
C405 C404 1.312 . S
C406 O378 1.214 . S
C406 O386 1.234 . S
C407 H379 0.929 . S
C407 C410 1.391 . S
C407 C412 1.391 . S
C408 H380 0.929 . S
C408 C409 1.390 . S
C408 N411 1.391 . S
C409 H381 0.930 . S
C409 C408 1.390 . S
C409 C410 1.392 . S
C410 H382 0.929 . S
C410 C407 1.391 . S
C410 C409 1.392 . S
N411 Co355 2.257 . S
N411 C408 1.391 . S
N411 C412 1.388 . S
C412 H383 0.930 . S
C412 C407 1.391 . S
C412 N411 1.388 . S
Co413 O415 2.143 . S
Co413 O421 2.074 . S
Co413 O424 2.093 . S
Co413 O437 2.097 . S
Co413 N454 2.151 . S
Co413 N462 2.214 . S
Co414 O415 2.160 . S
Co414 O420 2.058 . S
Co414 O430 2.057 . S
Co414 O445 2.037 . S
Co414 N449 2.145 . S
Co414 N470 2.257 . S
O415 Co413 2.143 . S
O415 Co414 2.160 . S
C416 O417 1.278 . S
C416 O424 1.224 . S
O417 C416 1.278 . S
C418 O419 1.245 . S
C418 O430 1.232 . S
O419 C418 1.245 . S
O420 Co414 2.058 . S
O420 C446 1.269 . S
O421 Co413 2.074 . S
O421 C446 1.257 . S
H422 C447 0.930 . S
H423 C453 0.930 . S
O424 Co413 2.093 . S
O424 C416 1.224 . S
H425 C457 0.929 . S
H426 C459 0.930 . S
H427 C460 0.930 . S
H428 C458 0.929 . S
H429 C461 0.928 . S
O430 Co414 2.057 . S
O430 C418 1.232 . S
H431 C450 0.929 . S
H432 C451 0.929 . S
H433 C463 0.931 . S
H434 C455 0.929 . S
H435 C464 0.930 . S
H436 C456 0.931 . S
O437 Co413 2.097 . S
O437 C465 1.214 . S
H438 C466 0.929 . S
H439 C467 0.929 . S
H440 C468 0.930 . S
H441 C469 0.929 . S
H442 C471 0.930 . S
H443 C448 0.930 . S
H444 C452 0.930 . S
O445 Co414 2.037 . S
O445 C465 1.234 . S
C446 O420 1.269 . S
C446 O421 1.257 . S
C447 H422 0.930 . S
C447 C450 1.388 . S
C447 C452 1.418 . S
C448 H443 0.930 . S
C448 C451 1.404 . S
C448 C452 1.353 . S
N449 Co414 2.145 . S
N449 C450 1.397 . S
N449 C451 1.334 . S
C450 H431 0.929 . S
C450 C447 1.388 . S
C450 N449 1.397 . S
C451 H432 0.929 . S
C451 C448 1.404 . S
C451 N449 1.334 . S
C452 H444 0.930 . S
C452 C447 1.418 . S
C452 C448 1.353 . S
C453 H423 0.930 . S
C453 N454 1.330 . S
C453 C455 1.446 . S
N454 Co413 2.151 . S
N454 C453 1.330 . S
N454 C458 1.418 . S
C455 H434 0.929 . S
C455 C453 1.446 . S
C455 C456 1.332 . S
C456 H436 0.931 . S
C456 C455 1.332 . S
C456 C457 1.267 . S
C457 H425 0.929 . S
C457 C456 1.267 . S
C457 C458 1.251 . S
C458 H428 0.929 . S
C458 N454 1.418 . S
C458 C457 1.251 . S
C459 H426 0.930 . S
C459 C461 1.406 . S
C459 C464 1.261 . S
C460 H427 0.930 . S
C460 N462 1.325 . S
C460 C463 1.357 . S
C461 H429 0.928 . S
C461 C459 1.406 . S
C461 N462 1.261 . S
N462 Co413 2.214 . S
N462 C460 1.325 . S
N462 C461 1.261 . S
C463 H433 0.931 . S
C463 C460 1.357 . S
C463 C464 1.312 . S
C464 H435 0.930 . S
C464 C459 1.261 . S
C464 C463 1.312 . S
C465 O437 1.214 . S
C465 O445 1.234 . S
C466 H438 0.929 . S
C466 C469 1.391 . S
C466 C471 1.391 . S
C467 H439 0.929 . S
C467 C468 1.390 . S
C467 N470 1.391 . S
C468 H440 0.930 . S
C468 C467 1.390 . S
C468 C469 1.392 . S
C469 H441 0.929 . S
C469 C466 1.391 . S
C469 C468 1.392 . S
N470 Co414 2.257 . S
N470 C467 1.391 . S
N470 C471 1.388 . S
C471 H442 0.930 . S
C471 C466 1.391 . S
C471 N470 1.388 . S
Co472 O474 2.143 . S
Co472 O480 2.074 . S
Co472 O483 2.093 . S
Co472 O496 2.097 . S
Co472 N513 2.151 . S
Co472 N521 2.214 . S
Co473 O474 2.160 . S
Co473 O479 2.058 . S
Co473 O489 2.057 . S
Co473 O504 2.037 . S
Co473 N508 2.145 . S
Co473 N529 2.257 . S
O474 Co472 2.143 . S
O474 Co473 2.160 . S
C475 O476 1.278 . S
C475 O483 1.224 . S
O476 C475 1.278 . S
C477 O478 1.245 . S
C477 O489 1.232 . S
O478 C477 1.245 . S
O479 Co473 2.058 . S
O479 C505 1.269 . S
O480 Co472 2.074 . S
O480 C505 1.257 . S
H481 C506 0.930 . S
H482 C512 0.930 . S
O483 Co472 2.093 . S
O483 C475 1.224 . S
H484 C516 0.929 . S
H485 C518 0.930 . S
H486 C519 0.930 . S
H487 C517 0.929 . S
H488 C520 0.928 . S
O489 Co473 2.057 . S
O489 C477 1.232 . S
H490 C509 0.929 . S
H491 C510 0.929 . S
H492 C522 0.931 . S
H493 C514 0.929 . S
H494 C523 0.930 . S
H495 C515 0.931 . S
O496 Co472 2.097 . S
O496 C524 1.214 . S
H497 C525 0.929 . S
H498 C526 0.929 . S
H499 C527 0.930 . S
H500 C528 0.929 . S
H501 C530 0.930 . S
H502 C507 0.930 . S
H503 C511 0.930 . S
O504 Co473 2.037 . S
O504 C524 1.234 . S
C505 O479 1.269 . S
C505 O480 1.257 . S
C506 H481 0.930 . S
C506 C509 1.388 . S
C506 C511 1.418 . S
C507 H502 0.930 . S
C507 C510 1.404 . S
C507 C511 1.353 . S
N508 Co473 2.145 . S
N508 C509 1.397 . S
N508 C510 1.334 . S
C509 H490 0.929 . S
C509 C506 1.388 . S
C509 N508 1.397 . S
C510 H491 0.929 . S
C510 C507 1.404 . S
C510 N508 1.334 . S
C511 H503 0.930 . S
C511 C506 1.418 . S
C511 C507 1.353 . S
C512 H482 0.930 . S
C512 N513 1.330 . S
C512 C514 1.446 . S
N513 Co472 2.151 . S
N513 C512 1.330 . S
N513 C517 1.418 . S
C514 H493 0.929 . S
C514 C512 1.446 . S
C514 C515 1.332 . S
C515 H495 0.931 . S
C515 C514 1.332 . S
C515 C516 1.267 . S
C516 H484 0.929 . S
C516 C515 1.267 . S
C516 C517 1.251 . S
C517 H487 0.929 . S
C517 N513 1.418 . S
C517 C516 1.251 . S
C518 H485 0.930 . S
C518 C520 1.406 . S
C518 C523 1.261 . S
C519 H486 0.930 . S
C519 N521 1.325 . S
C519 C522 1.357 . S
C520 H488 0.928 . S
C520 C518 1.406 . S
C520 N521 1.261 . S
N521 Co472 2.214 . S
N521 C519 1.325 . S
N521 C520 1.261 . S
C522 H492 0.931 . S
C522 C519 1.357 . S
C522 C523 1.312 . S
C523 H494 0.930 . S
C523 C518 1.261 . S
C523 C522 1.312 . S
C524 O496 1.214 . S
C524 O504 1.234 . S
C525 H497 0.929 . S
C525 C528 1.391 . S
C525 C530 1.391 . S
C526 H498 0.929 . S
C526 C527 1.390 . S
C526 N529 1.391 . S
C527 H499 0.930 . S
C527 C526 1.390 . S
C527 C528 1.392 . S
C528 H500 0.929 . S
C528 C525 1.391 . S
C528 C527 1.392 . S
N529 Co473 2.257 . S
N529 C526 1.391 . S
N529 C530 1.388 . S
C530 H501 0.930 . S
C530 C525 1.391 . S
C530 N529 1.388 . S
Co531 O533 2.143 . S
Co531 O539 2.074 . S
Co531 O542 2.093 . S
Co531 O555 2.097 . S
Co531 N572 2.151 . S
Co531 N580 2.214 . S
Co532 O533 2.160 . S
Co532 O538 2.058 . S
Co532 O548 2.057 . S
Co532 O563 2.037 . S
Co532 N567 2.145 . S
Co532 N588 2.257 . S
O533 Co531 2.143 . S
O533 Co532 2.160 . S
C534 O535 1.278 . S
C534 O542 1.224 . S
O535 C534 1.278 . S
C536 O537 1.245 . S
C536 O548 1.232 . S
O537 C536 1.245 . S
O538 Co532 2.058 . S
O538 C564 1.269 . S
O539 Co531 2.074 . S
O539 C564 1.257 . S
H540 C565 0.930 . S
H541 C571 0.930 . S
O542 Co531 2.093 . S
O542 C534 1.224 . S
H543 C575 0.929 . S
H544 C577 0.930 . S
H545 C578 0.930 . S
H546 C576 0.929 . S
H547 C579 0.928 . S
O548 Co532 2.057 . S
O548 C536 1.232 . S
H549 C568 0.929 . S
H550 C569 0.929 . S
H551 C581 0.931 . S
H552 C573 0.929 . S
H553 C582 0.930 . S
H554 C574 0.931 . S
O555 Co531 2.097 . S
O555 C583 1.214 . S
H556 C584 0.929 . S
H557 C585 0.929 . S
H558 C586 0.930 . S
H559 C587 0.929 . S
H560 C589 0.930 . S
H561 C566 0.930 . S
H562 C570 0.930 . S
O563 Co532 2.037 . S
O563 C583 1.234 . S
C564 O538 1.269 . S
C564 O539 1.257 . S
C565 H540 0.930 . S
C565 C568 1.388 . S
C565 C570 1.418 . S
C566 H561 0.930 . S
C566 C569 1.404 . S
C566 C570 1.353 . S
N567 Co532 2.145 . S
N567 C568 1.397 . S
N567 C569 1.334 . S
C568 H549 0.929 . S
C568 C565 1.388 . S
C568 N567 1.397 . S
C569 H550 0.929 . S
C569 C566 1.404 . S
C569 N567 1.334 . S
C570 H562 0.930 . S
C570 C565 1.418 . S
C570 C566 1.353 . S
C571 H541 0.930 . S
C571 N572 1.330 . S
C571 C573 1.446 . S
N572 Co531 2.151 . S
N572 C571 1.330 . S
N572 C576 1.418 . S
C573 H552 0.929 . S
C573 C571 1.446 . S
C573 C574 1.332 . S
C574 H554 0.931 . S
C574 C573 1.332 . S
C574 C575 1.267 . S
C575 H543 0.929 . S
C575 C574 1.267 . S
C575 C576 1.251 . S
C576 H546 0.929 . S
C576 N572 1.418 . S
C576 C575 1.251 . S
C577 H544 0.930 . S
C577 C579 1.406 . S
C577 C582 1.261 . S
C578 H545 0.930 . S
C578 N580 1.325 . S
C578 C581 1.357 . S
C579 H547 0.928 . S
C579 C577 1.406 . S
C579 N580 1.261 . S
N580 Co531 2.214 . S
N580 C578 1.325 . S
N580 C579 1.261 . S
C581 H551 0.931 . S
C581 C578 1.357 . S
C581 C582 1.312 . S
C582 H553 0.930 . S
C582 C577 1.261 . S
C582 C581 1.312 . S
C583 O555 1.214 . S
C583 O563 1.234 . S
C584 H556 0.929 . S
C584 C587 1.391 . S
C584 C589 1.391 . S
C585 H557 0.929 . S
C585 C586 1.390 . S
C585 N588 1.391 . S
C586 H558 0.930 . S
C586 C585 1.390 . S
C586 C587 1.392 . S
C587 H559 0.929 . S
C587 C584 1.391 . S
C587 C586 1.392 . S
N588 Co532 2.257 . S
N588 C585 1.391 . S
N588 C589 1.388 . S
C589 H560 0.930 . S
C589 C584 1.391 . S
C589 N588 1.388 . S
Co590 O592 2.143 . S
Co590 O598 2.074 . S
Co590 O601 2.093 . S
Co590 O614 2.097 . S
Co590 N631 2.151 . S
Co590 N639 2.214 . S
Co591 O592 2.160 . S
Co591 O597 2.058 . S
Co591 O607 2.057 . S
Co591 O622 2.037 . S
Co591 N626 2.145 . S
Co591 N647 2.257 . S
O592 Co590 2.143 . S
O592 Co591 2.160 . S
C593 O594 1.278 . S
C593 O601 1.224 . S
O594 C593 1.278 . S
C595 O596 1.245 . S
C595 O607 1.232 . S
O596 C595 1.245 . S
O597 Co591 2.058 . S
O597 C623 1.269 . S
O598 Co590 2.074 . S
O598 C623 1.257 . S
H599 C624 0.930 . S
H600 C630 0.930 . S
O601 Co590 2.093 . S
O601 C593 1.224 . S
H602 C634 0.929 . S
H603 C636 0.930 . S
H604 C637 0.930 . S
H605 C635 0.929 . S
H606 C638 0.928 . S
O607 Co591 2.057 . S
O607 C595 1.232 . S
H608 C627 0.929 . S
H609 C628 0.929 . S
H610 C640 0.931 . S
H611 C632 0.929 . S
H612 C641 0.930 . S
H613 C633 0.931 . S
O614 Co590 2.097 . S
O614 C642 1.214 . S
H615 C643 0.929 . S
H616 C644 0.929 . S
H617 C645 0.930 . S
H618 C646 0.929 . S
H619 C648 0.930 . S
H620 C625 0.930 . S
H621 C629 0.930 . S
O622 Co591 2.037 . S
O622 C642 1.234 . S
C623 O597 1.269 . S
C623 O598 1.257 . S
C624 H599 0.930 . S
C624 C627 1.388 . S
C624 C629 1.418 . S
C625 H620 0.930 . S
C625 C628 1.404 . S
C625 C629 1.353 . S
N626 Co591 2.145 . S
N626 C627 1.397 . S
N626 C628 1.334 . S
C627 H608 0.929 . S
C627 C624 1.388 . S
C627 N626 1.397 . S
C628 H609 0.929 . S
C628 C625 1.404 . S
C628 N626 1.334 . S
C629 H621 0.930 . S
C629 C624 1.418 . S
C629 C625 1.353 . S
C630 H600 0.930 . S
C630 N631 1.330 . S
C630 C632 1.446 . S
N631 Co590 2.151 . S
N631 C630 1.330 . S
N631 C635 1.418 . S
C632 H611 0.929 . S
C632 C630 1.446 . S
C632 C633 1.332 . S
C633 H613 0.931 . S
C633 C632 1.332 . S
C633 C634 1.267 . S
C634 H602 0.929 . S
C634 C633 1.267 . S
C634 C635 1.251 . S
C635 H605 0.929 . S
C635 N631 1.418 . S
C635 C634 1.251 . S
C636 H603 0.930 . S
C636 C638 1.406 . S
C636 C641 1.261 . S
C637 H604 0.930 . S
C637 N639 1.325 . S
C637 C640 1.357 . S
C638 H606 0.928 . S
C638 C636 1.406 . S
C638 N639 1.261 . S
N639 Co590 2.214 . S
N639 C637 1.325 . S
N639 C638 1.261 . S
C640 H610 0.931 . S
C640 C637 1.357 . S
C640 C641 1.312 . S
C641 H612 0.930 . S
C641 C636 1.261 . S
C641 C640 1.312 . S
C642 O614 1.214 . S
C642 O622 1.234 . S
C643 H615 0.929 . S
C643 C646 1.391 . S
C643 C648 1.391 . S
C644 H616 0.929 . S
C644 C645 1.390 . S
C644 N647 1.391 . S
C645 H617 0.930 . S
C645 C644 1.390 . S
C645 C646 1.392 . S
C646 H618 0.929 . S
C646 C643 1.391 . S
C646 C645 1.392 . S
N647 Co591 2.257 . S
N647 C644 1.391 . S
N647 C648 1.388 . S
C648 H619 0.930 . S
C648 C643 1.391 . S
C648 N647 1.388 . S
Co649 O651 2.143 . S
Co649 O657 2.074 . S
Co649 O660 2.093 . S
Co649 O673 2.097 . S
Co649 N690 2.151 . S
Co649 N698 2.214 . S
Co650 O651 2.160 . S
Co650 O656 2.058 . S
Co650 O666 2.057 . S
Co650 O681 2.037 . S
Co650 N685 2.145 . S
Co650 N706 2.257 . S
O651 Co649 2.143 . S
O651 Co650 2.160 . S
C652 O653 1.278 . S
C652 O660 1.224 . S
O653 C652 1.278 . S
C654 O655 1.245 . S
C654 O666 1.232 . S
O655 C654 1.245 . S
O656 Co650 2.058 . S
O656 C682 1.269 . S
O657 Co649 2.074 . S
O657 C682 1.257 . S
H658 C683 0.930 . S
H659 C689 0.930 . S
O660 Co649 2.093 . S
O660 C652 1.224 . S
H661 C693 0.929 . S
H662 C695 0.930 . S
H663 C696 0.930 . S
H664 C694 0.929 . S
H665 C697 0.928 . S
O666 Co650 2.057 . S
O666 C654 1.232 . S
H667 C686 0.929 . S
H668 C687 0.929 . S
H669 C699 0.931 . S
H670 C691 0.929 . S
H671 C700 0.930 . S
H672 C692 0.931 . S
O673 Co649 2.097 . S
O673 C701 1.214 . S
H674 C702 0.929 . S
H675 C703 0.929 . S
H676 C704 0.930 . S
H677 C705 0.929 . S
H678 C707 0.930 . S
H679 C684 0.930 . S
H680 C688 0.930 . S
O681 Co650 2.037 . S
O681 C701 1.234 . S
C682 O656 1.269 . S
C682 O657 1.257 . S
C683 H658 0.930 . S
C683 C686 1.388 . S
C683 C688 1.418 . S
C684 H679 0.930 . S
C684 C687 1.404 . S
C684 C688 1.353 . S
N685 Co650 2.145 . S
N685 C686 1.397 . S
N685 C687 1.334 . S
C686 H667 0.929 . S
C686 C683 1.388 . S
C686 N685 1.397 . S
C687 H668 0.929 . S
C687 C684 1.404 . S
C687 N685 1.334 . S
C688 H680 0.930 . S
C688 C683 1.418 . S
C688 C684 1.353 . S
C689 H659 0.930 . S
C689 N690 1.330 . S
C689 C691 1.446 . S
N690 Co649 2.151 . S
N690 C689 1.330 . S
N690 C694 1.418 . S
C691 H670 0.929 . S
C691 C689 1.446 . S
C691 C692 1.332 . S
C692 H672 0.931 . S
C692 C691 1.332 . S
C692 C693 1.267 . S
C693 H661 0.929 . S
C693 C692 1.267 . S
C693 C694 1.251 . S
C694 H664 0.929 . S
C694 N690 1.418 . S
C694 C693 1.251 . S
C695 H662 0.930 . S
C695 C697 1.406 . S
C695 C700 1.261 . S
C696 H663 0.930 . S
C696 N698 1.325 . S
C696 C699 1.357 . S
C697 H665 0.928 . S
C697 C695 1.406 . S
C697 N698 1.261 . S
N698 Co649 2.214 . S
N698 C696 1.325 . S
N698 C697 1.261 . S
C699 H669 0.931 . S
C699 C696 1.357 . S
C699 C700 1.312 . S
C700 H671 0.930 . S
C700 C695 1.261 . S
C700 C699 1.312 . S
C701 O673 1.214 . S
C701 O681 1.234 . S
C702 H674 0.929 . S
C702 C705 1.391 . S
C702 C707 1.391 . S
C703 H675 0.929 . S
C703 C704 1.390 . S
C703 N706 1.391 . S
C704 H676 0.930 . S
C704 C703 1.390 . S
C704 C705 1.392 . S
C705 H677 0.929 . S
C705 C702 1.391 . S
C705 C704 1.392 . S
N706 Co650 2.257 . S
N706 C703 1.391 . S
N706 C707 1.388 . S
C707 H678 0.930 . S
C707 C702 1.391 . S
C707 N706 1.388 . S
Co708 O710 2.143 . S
Co708 O716 2.074 . S
Co708 O719 2.093 . S
Co708 O732 2.097 . S
Co708 N749 2.151 . S
Co708 N757 2.214 . S
Co709 O710 2.160 . S
Co709 O715 2.058 . S
Co709 O725 2.057 . S
Co709 O740 2.037 . S
Co709 N744 2.145 . S
Co709 N765 2.257 . S
O710 Co708 2.143 . S
O710 Co709 2.160 . S
C711 O712 1.278 . S
C711 O719 1.224 . S
O712 C711 1.278 . S
C713 O714 1.245 . S
C713 O725 1.232 . S
O714 C713 1.245 . S
O715 Co709 2.058 . S
O715 C741 1.269 . S
O716 Co708 2.074 . S
O716 C741 1.257 . S
H717 C742 0.930 . S
H718 C748 0.930 . S
O719 Co708 2.093 . S
O719 C711 1.224 . S
H720 C752 0.929 . S
H721 C754 0.930 . S
H722 C755 0.930 . S
H723 C753 0.929 . S
H724 C756 0.928 . S
O725 Co709 2.057 . S
O725 C713 1.232 . S
H726 C745 0.929 . S
H727 C746 0.929 . S
H728 C758 0.931 . S
H729 C750 0.929 . S
H730 C759 0.930 . S
H731 C751 0.931 . S
O732 Co708 2.097 . S
O732 C760 1.214 . S
H733 C761 0.929 . S
H734 C762 0.929 . S
H735 C763 0.930 . S
H736 C764 0.929 . S
H737 C766 0.930 . S
H738 C743 0.930 . S
H739 C747 0.930 . S
O740 Co709 2.037 . S
O740 C760 1.234 . S
C741 O715 1.269 . S
C741 O716 1.257 . S
C742 H717 0.930 . S
C742 C745 1.388 . S
C742 C747 1.418 . S
C743 H738 0.930 . S
C743 C746 1.404 . S
C743 C747 1.353 . S
N744 Co709 2.145 . S
N744 C745 1.397 . S
N744 C746 1.334 . S
C745 H726 0.929 . S
C745 C742 1.388 . S
C745 N744 1.397 . S
C746 H727 0.929 . S
C746 C743 1.404 . S
C746 N744 1.334 . S
C747 H739 0.930 . S
C747 C742 1.418 . S
C747 C743 1.353 . S
C748 H718 0.930 . S
C748 N749 1.330 . S
C748 C750 1.446 . S
N749 Co708 2.151 . S
N749 C748 1.330 . S
N749 C753 1.418 . S
C750 H729 0.929 . S
C750 C748 1.446 . S
C750 C751 1.332 . S
C751 H731 0.931 . S
C751 C750 1.332 . S
C751 C752 1.267 . S
C752 H720 0.929 . S
C752 C751 1.267 . S
C752 C753 1.251 . S
C753 H723 0.929 . S
C753 N749 1.418 . S
C753 C752 1.251 . S
C754 H721 0.930 . S
C754 C756 1.406 . S
C754 C759 1.261 . S
C755 H722 0.930 . S
C755 N757 1.325 . S
C755 C758 1.357 . S
C756 H724 0.928 . S
C756 C754 1.406 . S
C756 N757 1.261 . S
N757 Co708 2.214 . S
N757 C755 1.325 . S
N757 C756 1.261 . S
C758 H728 0.931 . S
C758 C755 1.357 . S
C758 C759 1.312 . S
C759 H730 0.930 . S
C759 C754 1.261 . S
C759 C758 1.312 . S
C760 O732 1.214 . S
C760 O740 1.234 . S
C761 H733 0.929 . S
C761 C764 1.391 . S
C761 C766 1.391 . S
C762 H734 0.929 . S
C762 C763 1.390 . S
C762 N765 1.391 . S
C763 H735 0.930 . S
C763 C762 1.390 . S
C763 C764 1.392 . S
C764 H736 0.929 . S
C764 C761 1.391 . S
C764 C763 1.392 . S
N765 Co709 2.257 . S
N765 C762 1.391 . S
N765 C766 1.388 . S
C766 H737 0.930 . S
C766 C761 1.391 . S
C766 N765 1.388 . S
Co767 O769 2.143 . S
Co767 O775 2.074 . S
Co767 O778 2.093 . S
Co767 O791 2.097 . S
Co767 N808 2.151 . S
Co767 N816 2.214 . S
Co768 O769 2.160 . S
Co768 O774 2.058 . S
Co768 O784 2.057 . S
Co768 O799 2.037 . S
Co768 N803 2.145 . S
Co768 N824 2.257 . S
O769 Co767 2.143 . S
O769 Co768 2.160 . S
C770 O771 1.278 . S
C770 O778 1.224 . S
O771 C770 1.278 . S
C772 O773 1.245 . S
C772 O784 1.232 . S
O773 C772 1.245 . S
O774 Co768 2.058 . S
O774 C800 1.269 . S
O775 Co767 2.074 . S
O775 C800 1.257 . S
H776 C801 0.930 . S
H777 C807 0.930 . S
O778 Co767 2.093 . S
O778 C770 1.224 . S
H779 C811 0.929 . S
H780 C813 0.930 . S
H781 C814 0.930 . S
H782 C812 0.929 . S
H783 C815 0.928 . S
O784 Co768 2.057 . S
O784 C772 1.232 . S
H785 C804 0.929 . S
H786 C805 0.929 . S
H787 C817 0.931 . S
H788 C809 0.929 . S
H789 C818 0.930 . S
H790 C810 0.931 . S
O791 Co767 2.097 . S
O791 C819 1.214 . S
H792 C820 0.929 . S
H793 C821 0.929 . S
H794 C822 0.930 . S
H795 C823 0.929 . S
H796 C825 0.930 . S
H797 C802 0.930 . S
H798 C806 0.930 . S
O799 Co768 2.037 . S
O799 C819 1.234 . S
C800 O774 1.269 . S
C800 O775 1.257 . S
C801 H776 0.930 . S
C801 C804 1.388 . S
C801 C806 1.418 . S
C802 H797 0.930 . S
C802 C805 1.404 . S
C802 C806 1.353 . S
N803 Co768 2.145 . S
N803 C804 1.397 . S
N803 C805 1.334 . S
C804 H785 0.929 . S
C804 C801 1.388 . S
C804 N803 1.397 . S
C805 H786 0.929 . S
C805 C802 1.404 . S
C805 N803 1.334 . S
C806 H798 0.930 . S
C806 C801 1.418 . S
C806 C802 1.353 . S
C807 H777 0.930 . S
C807 N808 1.330 . S
C807 C809 1.446 . S
N808 Co767 2.151 . S
N808 C807 1.330 . S
N808 C812 1.418 . S
C809 H788 0.929 . S
C809 C807 1.446 . S
C809 C810 1.332 . S
C810 H790 0.931 . S
C810 C809 1.332 . S
C810 C811 1.267 . S
C811 H779 0.929 . S
C811 C810 1.267 . S
C811 C812 1.251 . S
C812 H782 0.929 . S
C812 N808 1.418 . S
C812 C811 1.251 . S
C813 H780 0.930 . S
C813 C815 1.406 . S
C813 C818 1.261 . S
C814 H781 0.930 . S
C814 N816 1.325 . S
C814 C817 1.357 . S
C815 H783 0.928 . S
C815 C813 1.406 . S
C815 N816 1.261 . S
N816 Co767 2.214 . S
N816 C814 1.325 . S
N816 C815 1.261 . S
C817 H787 0.931 . S
C817 C814 1.357 . S
C817 C818 1.312 . S
C818 H789 0.930 . S
C818 C813 1.261 . S
C818 C817 1.312 . S
C819 O791 1.214 . S
C819 O799 1.234 . S
C820 H792 0.929 . S
C820 C823 1.391 . S
C820 C825 1.391 . S
C821 H793 0.929 . S
C821 C822 1.390 . S
C821 N824 1.391 . S
C822 H794 0.930 . S
C822 C821 1.390 . S
C822 C823 1.392 . S
C823 H795 0.929 . S
C823 C820 1.391 . S
C823 C822 1.392 . S
N824 Co768 2.257 . S
N824 C821 1.391 . S
N824 C825 1.388 . S
C825 H796 0.930 . S
C825 C820 1.391 . S
C825 N824 1.388 . S
Co826 O828 2.143 . S
Co826 O834 2.074 . S
Co826 O837 2.093 . S
Co826 O850 2.097 . S
Co826 N867 2.151 . S
Co826 N875 2.214 . S
Co827 O828 2.160 . S
Co827 O833 2.058 . S
Co827 O843 2.057 . S
Co827 O858 2.037 . S
Co827 N862 2.145 . S
Co827 N883 2.257 . S
O828 Co826 2.143 . S
O828 Co827 2.160 . S
C829 O830 1.278 . S
C829 O837 1.224 . S
O830 C829 1.278 . S
C831 O832 1.245 . S
C831 O843 1.232 . S
O832 C831 1.245 . S
O833 Co827 2.058 . S
O833 C859 1.269 . S
O834 Co826 2.074 . S
O834 C859 1.257 . S
H835 C860 0.930 . S
H836 C866 0.930 . S
O837 Co826 2.093 . S
O837 C829 1.224 . S
H838 C870 0.929 . S
H839 C872 0.930 . S
H840 C873 0.930 . S
H841 C871 0.929 . S
H842 C874 0.928 . S
O843 Co827 2.057 . S
O843 C831 1.232 . S
H844 C863 0.929 . S
H845 C864 0.929 . S
H846 C876 0.931 . S
H847 C868 0.929 . S
H848 C877 0.930 . S
H849 C869 0.931 . S
O850 Co826 2.097 . S
O850 C878 1.214 . S
H851 C879 0.929 . S
H852 C880 0.929 . S
H853 C881 0.930 . S
H854 C882 0.929 . S
H855 C884 0.930 . S
H856 C861 0.930 . S
H857 C865 0.930 . S
O858 Co827 2.037 . S
O858 C878 1.234 . S
C859 O833 1.269 . S
C859 O834 1.257 . S
C860 H835 0.930 . S
C860 C863 1.388 . S
C860 C865 1.418 . S
C861 H856 0.930 . S
C861 C864 1.404 . S
C861 C865 1.353 . S
N862 Co827 2.145 . S
N862 C863 1.397 . S
N862 C864 1.334 . S
C863 H844 0.929 . S
C863 C860 1.388 . S
C863 N862 1.397 . S
C864 H845 0.929 . S
C864 C861 1.404 . S
C864 N862 1.334 . S
C865 H857 0.930 . S
C865 C860 1.418 . S
C865 C861 1.353 . S
C866 H836 0.930 . S
C866 N867 1.330 . S
C866 C868 1.446 . S
N867 Co826 2.151 . S
N867 C866 1.330 . S
N867 C871 1.418 . S
C868 H847 0.929 . S
C868 C866 1.446 . S
C868 C869 1.332 . S
C869 H849 0.931 . S
C869 C868 1.332 . S
C869 C870 1.267 . S
C870 H838 0.929 . S
C870 C869 1.267 . S
C870 C871 1.251 . S
C871 H841 0.929 . S
C871 N867 1.418 . S
C871 C870 1.251 . S
C872 H839 0.930 . S
C872 C874 1.406 . S
C872 C877 1.261 . S
C873 H840 0.930 . S
C873 N875 1.325 . S
C873 C876 1.357 . S
C874 H842 0.928 . S
C874 C872 1.406 . S
C874 N875 1.261 . S
N875 Co826 2.214 . S
N875 C873 1.325 . S
N875 C874 1.261 . S
C876 H846 0.931 . S
C876 C873 1.357 . S
C876 C877 1.312 . S
C877 H848 0.930 . S
C877 C872 1.261 . S
C877 C876 1.312 . S
C878 O850 1.214 . S
C878 O858 1.234 . S
C879 H851 0.929 . S
C879 C882 1.391 . S
C879 C884 1.391 . S
C880 H852 0.929 . S
C880 C881 1.390 . S
C880 N883 1.391 . S
C881 H853 0.930 . S
C881 C880 1.390 . S
C881 C882 1.392 . S
C882 H854 0.929 . S
C882 C879 1.391 . S
C882 C881 1.392 . S
N883 Co827 2.257 . S
N883 C880 1.391 . S
N883 C884 1.388 . S
C884 H855 0.930 . S
C884 C879 1.391 . S
C884 N883 1.388 . S
Co885 O887 2.143 . S
Co885 O893 2.074 . S
Co885 O896 2.093 . S
Co885 O909 2.097 . S
Co885 N926 2.151 . S
Co885 N934 2.214 . S
Co886 O887 2.160 . S
Co886 O892 2.058 . S
Co886 O902 2.057 . S
Co886 O917 2.037 . S
Co886 N921 2.145 . S
Co886 N942 2.257 . S
O887 Co885 2.143 . S
O887 Co886 2.160 . S
C888 O889 1.278 . S
C888 O896 1.224 . S
O889 C888 1.278 . S
C890 O891 1.245 . S
C890 O902 1.232 . S
O891 C890 1.245 . S
O892 Co886 2.058 . S
O892 C918 1.269 . S
O893 Co885 2.074 . S
O893 C918 1.257 . S
H894 C919 0.930 . S
H895 C925 0.930 . S
O896 Co885 2.093 . S
O896 C888 1.224 . S
H897 C929 0.929 . S
H898 C931 0.930 . S
H899 C932 0.930 . S
H900 C930 0.929 . S
H901 C933 0.928 . S
O902 Co886 2.057 . S
O902 C890 1.232 . S
H903 C922 0.929 . S
H904 C923 0.929 . S
H905 C935 0.931 . S
H906 C927 0.929 . S
H907 C936 0.930 . S
H908 C928 0.931 . S
O909 Co885 2.097 . S
O909 C937 1.214 . S
H910 C938 0.929 . S
H911 C939 0.929 . S
H912 C940 0.930 . S
H913 C941 0.929 . S
H914 C943 0.930 . S
H915 C920 0.930 . S
H916 C924 0.930 . S
O917 Co886 2.037 . S
O917 C937 1.234 . S
C918 O892 1.269 . S
C918 O893 1.257 . S
C919 H894 0.930 . S
C919 C922 1.388 . S
C919 C924 1.418 . S
C920 H915 0.930 . S
C920 C923 1.404 . S
C920 C924 1.353 . S
N921 Co886 2.145 . S
N921 C922 1.397 . S
N921 C923 1.334 . S
C922 H903 0.929 . S
C922 C919 1.388 . S
C922 N921 1.397 . S
C923 H904 0.929 . S
C923 C920 1.404 . S
C923 N921 1.334 . S
C924 H916 0.930 . S
C924 C919 1.418 . S
C924 C920 1.353 . S
C925 H895 0.930 . S
C925 N926 1.330 . S
C925 C927 1.446 . S
N926 Co885 2.151 . S
N926 C925 1.330 . S
N926 C930 1.418 . S
C927 H906 0.929 . S
C927 C925 1.446 . S
C927 C928 1.332 . S
C928 H908 0.931 . S
C928 C927 1.332 . S
C928 C929 1.267 . S
C929 H897 0.929 . S
C929 C928 1.267 . S
C929 C930 1.251 . S
C930 H900 0.929 . S
C930 N926 1.418 . S
C930 C929 1.251 . S
C931 H898 0.930 . S
C931 C933 1.406 . S
C931 C936 1.261 . S
C932 H899 0.930 . S
C932 N934 1.325 . S
C932 C935 1.357 . S
C933 H901 0.928 . S
C933 C931 1.406 . S
C933 N934 1.261 . S
N934 Co885 2.214 . S
N934 C932 1.325 . S
N934 C933 1.261 . S
C935 H905 0.931 . S
C935 C932 1.357 . S
C935 C936 1.312 . S
C936 H907 0.930 . S
C936 C931 1.261 . S
C936 C935 1.312 . S
C937 O909 1.214 . S
C937 O917 1.234 . S
C938 H910 0.929 . S
C938 C941 1.391 . S
C938 C943 1.391 . S
C939 H911 0.929 . S
C939 C940 1.390 . S
C939 N942 1.391 . S
C940 H912 0.930 . S
C940 C939 1.390 . S
C940 C941 1.392 . S
C941 H913 0.929 . S
C941 C938 1.391 . S
C941 C940 1.392 . S
N942 Co886 2.257 . S
N942 C939 1.391 . S
N942 C943 1.388 . S
C943 H914 0.930 . S
C943 C938 1.391 . S
C943 N942 1.388 . S
Co944 O946 2.143 . S
Co944 O952 2.074 . S
Co944 O955 2.093 . S
Co944 O968 2.097 . S
Co944 N985 2.151 . S
Co944 N993 2.214 . S
Co945 O946 2.160 . S
Co945 O951 2.058 . S
Co945 O961 2.057 . S
Co945 O976 2.037 . S
Co945 N980 2.145 . S
Co945 N1001 2.257 . S
O946 Co944 2.143 . S
O946 Co945 2.160 . S
C947 O948 1.278 . S
C947 O955 1.224 . S
O948 C947 1.278 . S
C949 O950 1.245 . S
C949 O961 1.232 . S
O950 C949 1.245 . S
O951 Co945 2.058 . S
O951 C977 1.269 . S
O952 Co944 2.074 . S
O952 C977 1.257 . S
H953 C978 0.930 . S
H954 C984 0.930 . S
O955 Co944 2.093 . S
O955 C947 1.224 . S
H956 C988 0.929 . S
H957 C990 0.930 . S
H958 C991 0.930 . S
H959 C989 0.929 . S
H960 C992 0.928 . S
O961 Co945 2.057 . S
O961 C949 1.232 . S
H962 C981 0.929 . S
H963 C982 0.929 . S
H964 C994 0.931 . S
H965 C986 0.929 . S
H966 C995 0.930 . S
H967 C987 0.931 . S
O968 Co944 2.097 . S
O968 C996 1.214 . S
H969 C997 0.929 . S
H970 C998 0.929 . S
H971 C999 0.930 . S
H972 C1000 0.929 . S
H973 C1002 0.930 . S
H974 C979 0.930 . S
H975 C983 0.930 . S
O976 Co945 2.037 . S
O976 C996 1.234 . S
C977 O951 1.269 . S
C977 O952 1.257 . S
C978 H953 0.930 . S
C978 C981 1.388 . S
C978 C983 1.418 . S
C979 H974 0.930 . S
C979 C982 1.404 . S
C979 C983 1.353 . S
N980 Co945 2.145 . S
N980 C981 1.397 . S
N980 C982 1.334 . S
C981 H962 0.929 . S
C981 C978 1.388 . S
C981 N980 1.397 . S
C982 H963 0.929 . S
C982 C979 1.404 . S
C982 N980 1.334 . S
C983 H975 0.930 . S
C983 C978 1.418 . S
C983 C979 1.353 . S
C984 H954 0.930 . S
C984 N985 1.330 . S
C984 C986 1.446 . S
N985 Co944 2.151 . S
N985 C984 1.330 . S
N985 C989 1.418 . S
C986 H965 0.929 . S
C986 C984 1.446 . S
C986 C987 1.332 . S
C987 H967 0.931 . S
C987 C986 1.332 . S
C987 C988 1.267 . S
C988 H956 0.929 . S
C988 C987 1.267 . S
C988 C989 1.251 . S
C989 H959 0.929 . S
C989 N985 1.418 . S
C989 C988 1.251 . S
C990 H957 0.930 . S
C990 C992 1.406 . S
C990 C995 1.261 . S
C991 H958 0.930 . S
C991 N993 1.325 . S
C991 C994 1.357 . S
C992 H960 0.928 . S
C992 C990 1.406 . S
C992 N993 1.261 . S
N993 Co944 2.214 . S
N993 C991 1.325 . S
N993 C992 1.261 . S
C994 H964 0.931 . S
C994 C991 1.357 . S
C994 C995 1.312 . S
C995 H966 0.930 . S
C995 C990 1.261 . S
C995 C994 1.312 . S
C996 O968 1.214 . S
C996 O976 1.234 . S
C997 H969 0.929 . S
C997 C1000 1.391 . S
C997 C1002 1.391 . S
C998 H970 0.929 . S
C998 C999 1.390 . S
C998 N1001 1.391 . S
C999 H971 0.930 . S
C999 C998 1.390 . S
C999 C1000 1.392 . S
C1000 H972 0.929 . S
C1000 C997 1.391 . S
C1000 C999 1.392 . S
N1001 Co945 2.257 . S
N1001 C998 1.391 . S
N1001 C1002 1.388 . S
C1002 H973 0.930 . S
C1002 C997 1.391 . S
C1002 N1001 1.388 . S
Co1003 O1005 2.143 . S
Co1003 O1011 2.074 . S
Co1003 O1014 2.093 . S
Co1003 O1027 2.097 . S
Co1003 N1044 2.151 . S
Co1003 N1052 2.214 . S
Co1004 O1005 2.160 . S
Co1004 O1010 2.058 . S
Co1004 O1020 2.057 . S
Co1004 O1035 2.037 . S
Co1004 N1039 2.145 . S
Co1004 N1060 2.257 . S
O1005 Co1003 2.143 . S
O1005 Co1004 2.160 . S
C1006 O1007 1.278 . S
C1006 O1014 1.224 . S
O1007 C1006 1.278 . S
C1008 O1009 1.245 . S
C1008 O1020 1.232 . S
O1009 C1008 1.245 . S
O1010 Co1004 2.058 . S
O1010 C1036 1.269 . S
O1011 Co1003 2.074 . S
O1011 C1036 1.257 . S
H1012 C1037 0.930 . S
H1013 C1043 0.930 . S
O1014 Co1003 2.093 . S
O1014 C1006 1.224 . S
H1015 C1047 0.929 . S
H1016 C1049 0.930 . S
H1017 C1050 0.930 . S
H1018 C1048 0.929 . S
H1019 C1051 0.928 . S
O1020 Co1004 2.057 . S
O1020 C1008 1.232 . S
H1021 C1040 0.929 . S
H1022 C1041 0.929 . S
H1023 C1053 0.931 . S
H1024 C1045 0.929 . S
H1025 C1054 0.930 . S
H1026 C1046 0.931 . S
O1027 Co1003 2.097 . S
O1027 C1055 1.214 . S
H1028 C1056 0.929 . S
H1029 C1057 0.929 . S
H1030 C1058 0.930 . S
H1031 C1059 0.929 . S
H1032 C1061 0.930 . S
H1033 C1038 0.930 . S
H1034 C1042 0.930 . S
O1035 Co1004 2.037 . S
O1035 C1055 1.234 . S
C1036 O1010 1.269 . S
C1036 O1011 1.257 . S
C1037 H1012 0.930 . S
C1037 C1040 1.388 . S
C1037 C1042 1.418 . S
C1038 H1033 0.930 . S
C1038 C1041 1.404 . S
C1038 C1042 1.353 . S
N1039 Co1004 2.145 . S
N1039 C1040 1.397 . S
N1039 C1041 1.334 . S
C1040 H1021 0.929 . S
C1040 C1037 1.388 . S
C1040 N1039 1.397 . S
C1041 H1022 0.929 . S
C1041 C1038 1.404 . S
C1041 N1039 1.334 . S
C1042 H1034 0.930 . S
C1042 C1037 1.418 . S
C1042 C1038 1.353 . S
C1043 H1013 0.930 . S
C1043 N1044 1.330 . S
C1043 C1045 1.446 . S
N1044 Co1003 2.151 . S
N1044 C1043 1.330 . S
N1044 C1048 1.418 . S
C1045 H1024 0.929 . S
C1045 C1043 1.446 . S
C1045 C1046 1.332 . S
C1046 H1026 0.931 . S
C1046 C1045 1.332 . S
C1046 C1047 1.267 . S
C1047 H1015 0.929 . S
C1047 C1046 1.267 . S
C1047 C1048 1.251 . S
C1048 H1018 0.929 . S
C1048 N1044 1.418 . S
C1048 C1047 1.251 . S
C1049 H1016 0.930 . S
C1049 C1051 1.406 . S
C1049 C1054 1.261 . S
C1050 H1017 0.930 . S
C1050 N1052 1.325 . S
C1050 C1053 1.357 . S
C1051 H1019 0.928 . S
C1051 C1049 1.406 . S
C1051 N1052 1.261 . S
N1052 Co1003 2.214 . S
N1052 C1050 1.325 . S
N1052 C1051 1.261 . S
C1053 H1023 0.931 . S
C1053 C1050 1.357 . S
C1053 C1054 1.312 . S
C1054 H1025 0.930 . S
C1054 C1049 1.261 . S
C1054 C1053 1.312 . S
C1055 O1027 1.214 . S
C1055 O1035 1.234 . S
C1056 H1028 0.929 . S
C1056 C1059 1.391 . S
C1056 C1061 1.391 . S
C1057 H1029 0.929 . S
C1057 C1058 1.390 . S
C1057 N1060 1.391 . S
C1058 H1030 0.930 . S
C1058 C1057 1.390 . S
C1058 C1059 1.392 . S
C1059 H1031 0.929 . S
C1059 C1056 1.391 . S
C1059 C1058 1.392 . S
N1060 Co1004 2.257 . S
N1060 C1057 1.391 . S
N1060 C1061 1.388 . S
C1061 H1032 0.930 . S
C1061 C1056 1.391 . S
C1061 N1060 1.388 . S
Co1062 O1064 2.143 . S
Co1062 O1070 2.074 . S
Co1062 O1073 2.093 . S
Co1062 O1086 2.097 . S
Co1062 N1103 2.151 . S
Co1062 N1111 2.214 . S
Co1063 O1064 2.160 . S
Co1063 O1069 2.058 . S
Co1063 O1079 2.057 . S
Co1063 O1094 2.037 . S
Co1063 N1098 2.145 . S
Co1063 N1119 2.257 . S
O1064 Co1062 2.143 . S
O1064 Co1063 2.160 . S
C1065 O1066 1.278 . S
C1065 O1073 1.224 . S
O1066 C1065 1.278 . S
C1067 O1068 1.245 . S
C1067 O1079 1.232 . S
O1068 C1067 1.245 . S
O1069 Co1063 2.058 . S
O1069 C1095 1.269 . S
O1070 Co1062 2.074 . S
O1070 C1095 1.257 . S
H1071 C1096 0.930 . S
H1072 C1102 0.930 . S
O1073 Co1062 2.093 . S
O1073 C1065 1.224 . S
H1074 C1106 0.929 . S
H1075 C1108 0.930 . S
H1076 C1109 0.930 . S
H1077 C1107 0.929 . S
H1078 C1110 0.928 . S
O1079 Co1063 2.057 . S
O1079 C1067 1.232 . S
H1080 C1099 0.929 . S
H1081 C1100 0.929 . S
H1082 C1112 0.931 . S
H1083 C1104 0.929 . S
H1084 C1113 0.930 . S
H1085 C1105 0.931 . S
O1086 Co1062 2.097 . S
O1086 C1114 1.214 . S
H1087 C1115 0.929 . S
H1088 C1116 0.929 . S
H1089 C1117 0.930 . S
H1090 C1118 0.929 . S
H1091 C1120 0.930 . S
H1092 C1097 0.930 . S
H1093 C1101 0.930 . S
O1094 Co1063 2.037 . S
O1094 C1114 1.234 . S
C1095 O1069 1.269 . S
C1095 O1070 1.257 . S
C1096 H1071 0.930 . S
C1096 C1099 1.388 . S
C1096 C1101 1.418 . S
C1097 H1092 0.930 . S
C1097 C1100 1.404 . S
C1097 C1101 1.353 . S
N1098 Co1063 2.145 . S
N1098 C1099 1.397 . S
N1098 C1100 1.334 . S
C1099 H1080 0.929 . S
C1099 C1096 1.388 . S
C1099 N1098 1.397 . S
C1100 H1081 0.929 . S
C1100 C1097 1.404 . S
C1100 N1098 1.334 . S
C1101 H1093 0.930 . S
C1101 C1096 1.418 . S
C1101 C1097 1.353 . S
C1102 H1072 0.930 . S
C1102 N1103 1.330 . S
C1102 C1104 1.446 . S
N1103 Co1062 2.151 . S
N1103 C1102 1.330 . S
N1103 C1107 1.418 . S
C1104 H1083 0.929 . S
C1104 C1102 1.446 . S
C1104 C1105 1.332 . S
C1105 H1085 0.931 . S
C1105 C1104 1.332 . S
C1105 C1106 1.267 . S
C1106 H1074 0.929 . S
C1106 C1105 1.267 . S
C1106 C1107 1.251 . S
C1107 H1077 0.929 . S
C1107 N1103 1.418 . S
C1107 C1106 1.251 . S
C1108 H1075 0.930 . S
C1108 C1110 1.406 . S
C1108 C1113 1.261 . S
C1109 H1076 0.930 . S
C1109 N1111 1.325 . S
C1109 C1112 1.357 . S
C1110 H1078 0.928 . S
C1110 C1108 1.406 . S
C1110 N1111 1.261 . S
N1111 Co1062 2.214 . S
N1111 C1109 1.325 . S
N1111 C1110 1.261 . S
C1112 H1082 0.931 . S
C1112 C1109 1.357 . S
C1112 C1113 1.312 . S
C1113 H1084 0.930 . S
C1113 C1108 1.261 . S
C1113 C1112 1.312 . S
C1114 O1086 1.214 . S
C1114 O1094 1.234 . S
C1115 H1087 0.929 . S
C1115 C1118 1.391 . S
C1115 C1120 1.391 . S
C1116 H1088 0.929 . S
C1116 C1117 1.390 . S
C1116 N1119 1.391 . S
C1117 H1089 0.930 . S
C1117 C1116 1.390 . S
C1117 C1118 1.392 . S
C1118 H1090 0.929 . S
C1118 C1115 1.391 . S
C1118 C1117 1.392 . S
N1119 Co1063 2.257 . S
N1119 C1116 1.391 . S
N1119 C1120 1.388 . S
C1120 H1091 0.930 . S
C1120 C1115 1.391 . S
C1120 N1119 1.388 . S
Co1121 O1123 2.143 . S
Co1121 O1129 2.074 . S
Co1121 O1132 2.093 . S
Co1121 O1145 2.097 . S
Co1121 N1162 2.151 . S
Co1121 N1170 2.214 . S
Co1122 O1123 2.160 . S
Co1122 O1128 2.058 . S
Co1122 O1138 2.057 . S
Co1122 O1153 2.037 . S
Co1122 N1157 2.145 . S
Co1122 N1178 2.257 . S
O1123 Co1121 2.143 . S
O1123 Co1122 2.160 . S
C1124 O1125 1.278 . S
C1124 O1132 1.224 . S
O1125 C1124 1.278 . S
C1126 O1127 1.245 . S
C1126 O1138 1.232 . S
O1127 C1126 1.245 . S
O1128 Co1122 2.058 . S
O1128 C1154 1.269 . S
O1129 Co1121 2.074 . S
O1129 C1154 1.257 . S
H1130 C1155 0.930 . S
H1131 C1161 0.930 . S
O1132 Co1121 2.093 . S
O1132 C1124 1.224 . S
H1133 C1165 0.929 . S
H1134 C1167 0.930 . S
H1135 C1168 0.930 . S
H1136 C1166 0.929 . S
H1137 C1169 0.928 . S
O1138 Co1122 2.057 . S
O1138 C1126 1.232 . S
H1139 C1158 0.929 . S
H1140 C1159 0.929 . S
H1141 C1171 0.931 . S
H1142 C1163 0.929 . S
H1143 C1172 0.930 . S
H1144 C1164 0.931 . S
O1145 Co1121 2.097 . S
O1145 C1173 1.214 . S
H1146 C1174 0.929 . S
H1147 C1175 0.929 . S
H1148 C1176 0.930 . S
H1149 C1177 0.929 . S
H1150 C1179 0.930 . S
H1151 C1156 0.930 . S
H1152 C1160 0.930 . S
O1153 Co1122 2.037 . S
O1153 C1173 1.234 . S
C1154 O1128 1.269 . S
C1154 O1129 1.257 . S
C1155 H1130 0.930 . S
C1155 C1158 1.388 . S
C1155 C1160 1.418 . S
C1156 H1151 0.930 . S
C1156 C1159 1.404 . S
C1156 C1160 1.353 . S
N1157 Co1122 2.145 . S
N1157 C1158 1.397 . S
N1157 C1159 1.334 . S
C1158 H1139 0.929 . S
C1158 C1155 1.388 . S
C1158 N1157 1.397 . S
C1159 H1140 0.929 . S
C1159 C1156 1.404 . S
C1159 N1157 1.334 . S
C1160 H1152 0.930 . S
C1160 C1155 1.418 . S
C1160 C1156 1.353 . S
C1161 H1131 0.930 . S
C1161 N1162 1.330 . S
C1161 C1163 1.446 . S
N1162 Co1121 2.151 . S
N1162 C1161 1.330 . S
N1162 C1166 1.418 . S
C1163 H1142 0.929 . S
C1163 C1161 1.446 . S
C1163 C1164 1.332 . S
C1164 H1144 0.931 . S
C1164 C1163 1.332 . S
C1164 C1165 1.267 . S
C1165 H1133 0.929 . S
C1165 C1164 1.267 . S
C1165 C1166 1.251 . S
C1166 H1136 0.929 . S
C1166 N1162 1.418 . S
C1166 C1165 1.251 . S
C1167 H1134 0.930 . S
C1167 C1169 1.406 . S
C1167 C1172 1.261 . S
C1168 H1135 0.930 . S
C1168 N1170 1.325 . S
C1168 C1171 1.357 . S
C1169 H1137 0.928 . S
C1169 C1167 1.406 . S
C1169 N1170 1.261 . S
N1170 Co1121 2.214 . S
N1170 C1168 1.325 . S
N1170 C1169 1.261 . S
C1171 H1141 0.931 . S
C1171 C1168 1.357 . S
C1171 C1172 1.312 . S
C1172 H1143 0.930 . S
C1172 C1167 1.261 . S
C1172 C1171 1.312 . S
C1173 O1145 1.214 . S
C1173 O1153 1.234 . S
C1174 H1146 0.929 . S
C1174 C1177 1.391 . S
C1174 C1179 1.391 . S
C1175 H1147 0.929 . S
C1175 C1176 1.390 . S
C1175 N1178 1.391 . S
C1176 H1148 0.930 . S
C1176 C1175 1.390 . S
C1176 C1177 1.392 . S
C1177 H1149 0.929 . S
C1177 C1174 1.391 . S
C1177 C1176 1.392 . S
N1178 Co1122 2.257 . S
N1178 C1175 1.391 . S
N1178 C1179 1.388 . S
C1179 H1150 0.930 . S
C1179 C1174 1.391 . S
C1179 N1178 1.388 . S
Co1180 O1182 2.143 . S
Co1180 O1188 2.074 . S
Co1180 O1191 2.093 . S
Co1180 O1204 2.097 . S
Co1180 N1221 2.151 . S
Co1180 N1229 2.214 . S
Co1181 O1182 2.160 . S
Co1181 O1187 2.058 . S
Co1181 O1197 2.057 . S
Co1181 O1212 2.037 . S
Co1181 N1216 2.145 . S
Co1181 N1237 2.257 . S
O1182 Co1180 2.143 . S
O1182 Co1181 2.160 . S
C1183 O1184 1.278 . S
C1183 O1191 1.224 . S
O1184 C1183 1.278 . S
C1185 O1186 1.245 . S
C1185 O1197 1.232 . S
O1186 C1185 1.245 . S
O1187 Co1181 2.058 . S
O1187 C1213 1.269 . S
O1188 Co1180 2.074 . S
O1188 C1213 1.257 . S
H1189 C1214 0.930 . S
H1190 C1220 0.930 . S
O1191 Co1180 2.093 . S
O1191 C1183 1.224 . S
H1192 C1224 0.929 . S
H1193 C1226 0.930 . S
H1194 C1227 0.930 . S
H1195 C1225 0.929 . S
H1196 C1228 0.928 . S
O1197 Co1181 2.057 . S
O1197 C1185 1.232 . S
H1198 C1217 0.929 . S
H1199 C1218 0.929 . S
H1200 C1230 0.931 . S
H1201 C1222 0.929 . S
H1202 C1231 0.930 . S
H1203 C1223 0.931 . S
O1204 Co1180 2.097 . S
O1204 C1232 1.214 . S
H1205 C1233 0.929 . S
H1206 C1234 0.929 . S
H1207 C1235 0.930 . S
H1208 C1236 0.929 . S
H1209 C1238 0.930 . S
H1210 C1215 0.930 . S
H1211 C1219 0.930 . S
O1212 Co1181 2.037 . S
O1212 C1232 1.234 . S
C1213 O1187 1.269 . S
C1213 O1188 1.257 . S
C1214 H1189 0.930 . S
C1214 C1217 1.388 . S
C1214 C1219 1.418 . S
C1215 H1210 0.930 . S
C1215 C1218 1.404 . S
C1215 C1219 1.353 . S
N1216 Co1181 2.145 . S
N1216 C1217 1.397 . S
N1216 C1218 1.334 . S
C1217 H1198 0.929 . S
C1217 C1214 1.388 . S
C1217 N1216 1.397 . S
C1218 H1199 0.929 . S
C1218 C1215 1.404 . S
C1218 N1216 1.334 . S
C1219 H1211 0.930 . S
C1219 C1214 1.418 . S
C1219 C1215 1.353 . S
C1220 H1190 0.930 . S
C1220 N1221 1.330 . S
C1220 C1222 1.446 . S
N1221 Co1180 2.151 . S
N1221 C1220 1.330 . S
N1221 C1225 1.418 . S
C1222 H1201 0.929 . S
C1222 C1220 1.446 . S
C1222 C1223 1.332 . S
C1223 H1203 0.931 . S
C1223 C1222 1.332 . S
C1223 C1224 1.267 . S
C1224 H1192 0.929 . S
C1224 C1223 1.267 . S
C1224 C1225 1.251 . S
C1225 H1195 0.929 . S
C1225 N1221 1.418 . S
C1225 C1224 1.251 . S
C1226 H1193 0.930 . S
C1226 C1228 1.406 . S
C1226 C1231 1.261 . S
C1227 H1194 0.930 . S
C1227 N1229 1.325 . S
C1227 C1230 1.357 . S
C1228 H1196 0.928 . S
C1228 C1226 1.406 . S
C1228 N1229 1.261 . S
N1229 Co1180 2.214 . S
N1229 C1227 1.325 . S
N1229 C1228 1.261 . S
C1230 H1200 0.931 . S
C1230 C1227 1.357 . S
C1230 C1231 1.312 . S
C1231 H1202 0.930 . S
C1231 C1226 1.261 . S
C1231 C1230 1.312 . S
C1232 O1204 1.214 . S
C1232 O1212 1.234 . S
C1233 H1205 0.929 . S
C1233 C1236 1.391 . S
C1233 C1238 1.391 . S
C1234 H1206 0.929 . S
C1234 C1235 1.390 . S
C1234 N1237 1.391 . S
C1235 H1207 0.930 . S
C1235 C1234 1.390 . S
C1235 C1236 1.392 . S
C1236 H1208 0.929 . S
C1236 C1233 1.391 . S
C1236 C1235 1.392 . S
N1237 Co1181 2.257 . S
N1237 C1234 1.391 . S
N1237 C1238 1.388 . S
C1238 H1209 0.930 . S
C1238 C1233 1.391 . S
C1238 N1237 1.388 . S
Co1239 O1241 2.143 . S
Co1239 O1247 2.074 . S
Co1239 O1250 2.093 . S
Co1239 O1263 2.097 . S
Co1239 N1280 2.151 . S
Co1239 N1288 2.214 . S
Co1240 O1241 2.160 . S
Co1240 O1246 2.058 . S
Co1240 O1256 2.057 . S
Co1240 O1271 2.037 . S
Co1240 N1275 2.145 . S
Co1240 N1296 2.257 . S
O1241 Co1239 2.143 . S
O1241 Co1240 2.160 . S
C1242 O1243 1.278 . S
C1242 O1250 1.224 . S
O1243 C1242 1.278 . S
C1244 O1245 1.245 . S
C1244 O1256 1.232 . S
O1245 C1244 1.245 . S
O1246 Co1240 2.058 . S
O1246 C1272 1.269 . S
O1247 Co1239 2.074 . S
O1247 C1272 1.257 . S
H1248 C1273 0.930 . S
H1249 C1279 0.930 . S
O1250 Co1239 2.093 . S
O1250 C1242 1.224 . S
H1251 C1283 0.929 . S
H1252 C1285 0.930 . S
H1253 C1286 0.930 . S
H1254 C1284 0.929 . S
H1255 C1287 0.928 . S
O1256 Co1240 2.057 . S
O1256 C1244 1.232 . S
H1257 C1276 0.929 . S
H1258 C1277 0.929 . S
H1259 C1289 0.931 . S
H1260 C1281 0.929 . S
H1261 C1290 0.930 . S
H1262 C1282 0.931 . S
O1263 Co1239 2.097 . S
O1263 C1291 1.214 . S
H1264 C1292 0.929 . S
H1265 C1293 0.929 . S
H1266 C1294 0.930 . S
H1267 C1295 0.929 . S
H1268 C1297 0.930 . S
H1269 C1274 0.930 . S
H1270 C1278 0.930 . S
O1271 Co1240 2.037 . S
O1271 C1291 1.234 . S
C1272 O1246 1.269 . S
C1272 O1247 1.257 . S
C1273 H1248 0.930 . S
C1273 C1276 1.388 . S
C1273 C1278 1.418 . S
C1274 H1269 0.930 . S
C1274 C1277 1.404 . S
C1274 C1278 1.353 . S
N1275 Co1240 2.145 . S
N1275 C1276 1.397 . S
N1275 C1277 1.334 . S
C1276 H1257 0.929 . S
C1276 C1273 1.388 . S
C1276 N1275 1.397 . S
C1277 H1258 0.929 . S
C1277 C1274 1.404 . S
C1277 N1275 1.334 . S
C1278 H1270 0.930 . S
C1278 C1273 1.418 . S
C1278 C1274 1.353 . S
C1279 H1249 0.930 . S
C1279 N1280 1.330 . S
C1279 C1281 1.446 . S
N1280 Co1239 2.151 . S
N1280 C1279 1.330 . S
N1280 C1284 1.418 . S
C1281 H1260 0.929 . S
C1281 C1279 1.446 . S
C1281 C1282 1.332 . S
C1282 H1262 0.931 . S
C1282 C1281 1.332 . S
C1282 C1283 1.267 . S
C1283 H1251 0.929 . S
C1283 C1282 1.267 . S
C1283 C1284 1.251 . S
C1284 H1254 0.929 . S
C1284 N1280 1.418 . S
C1284 C1283 1.251 . S
C1285 H1252 0.930 . S
C1285 C1287 1.406 . S
C1285 C1290 1.261 . S
C1286 H1253 0.930 . S
C1286 N1288 1.325 . S
C1286 C1289 1.357 . S
C1287 H1255 0.928 . S
C1287 C1285 1.406 . S
C1287 N1288 1.261 . S
N1288 Co1239 2.214 . S
N1288 C1286 1.325 . S
N1288 C1287 1.261 . S
C1289 H1259 0.931 . S
C1289 C1286 1.357 . S
C1289 C1290 1.312 . S
C1290 H1261 0.930 . S
C1290 C1285 1.261 . S
C1290 C1289 1.312 . S
C1291 O1263 1.214 . S
C1291 O1271 1.234 . S
C1292 H1264 0.929 . S
C1292 C1295 1.391 . S
C1292 C1297 1.391 . S
C1293 H1265 0.929 . S
C1293 C1294 1.390 . S
C1293 N1296 1.391 . S
C1294 H1266 0.930 . S
C1294 C1293 1.390 . S
C1294 C1295 1.392 . S
C1295 H1267 0.929 . S
C1295 C1292 1.391 . S
C1295 C1294 1.392 . S
N1296 Co1240 2.257 . S
N1296 C1293 1.391 . S
N1296 C1297 1.388 . S
C1297 H1268 0.930 . S
C1297 C1292 1.391 . S
C1297 N1296 1.388 . S
Co1298 O1300 2.143 . S
Co1298 O1306 2.074 . S
Co1298 O1309 2.093 . S
Co1298 O1322 2.097 . S
Co1298 N1339 2.151 . S
Co1298 N1347 2.214 . S
Co1299 O1300 2.160 . S
Co1299 O1305 2.058 . S
Co1299 O1315 2.057 . S
Co1299 O1330 2.037 . S
Co1299 N1334 2.145 . S
Co1299 N1355 2.257 . S
O1300 Co1298 2.143 . S
O1300 Co1299 2.160 . S
C1301 O1302 1.278 . S
C1301 O1309 1.224 . S
O1302 C1301 1.278 . S
C1303 O1304 1.245 . S
C1303 O1315 1.232 . S
O1304 C1303 1.245 . S
O1305 Co1299 2.058 . S
O1305 C1331 1.269 . S
O1306 Co1298 2.074 . S
O1306 C1331 1.257 . S
H1307 C1332 0.930 . S
H1308 C1338 0.930 . S
O1309 Co1298 2.093 . S
O1309 C1301 1.224 . S
H1310 C1342 0.929 . S
H1311 C1344 0.930 . S
H1312 C1345 0.930 . S
H1313 C1343 0.929 . S
H1314 C1346 0.928 . S
O1315 Co1299 2.057 . S
O1315 C1303 1.232 . S
H1316 C1335 0.929 . S
H1317 C1336 0.929 . S
H1318 C1348 0.931 . S
H1319 C1340 0.929 . S
H1320 C1349 0.930 . S
H1321 C1341 0.931 . S
O1322 Co1298 2.097 . S
O1322 C1350 1.214 . S
H1323 C1351 0.929 . S
H1324 C1352 0.929 . S
H1325 C1353 0.930 . S
H1326 C1354 0.929 . S
H1327 C1356 0.930 . S
H1328 C1333 0.930 . S
H1329 C1337 0.930 . S
O1330 Co1299 2.037 . S
O1330 C1350 1.234 . S
C1331 O1305 1.269 . S
C1331 O1306 1.257 . S
C1332 H1307 0.930 . S
C1332 C1335 1.388 . S
C1332 C1337 1.418 . S
C1333 H1328 0.930 . S
C1333 C1336 1.404 . S
C1333 C1337 1.353 . S
N1334 Co1299 2.145 . S
N1334 C1335 1.397 . S
N1334 C1336 1.334 . S
C1335 H1316 0.929 . S
C1335 C1332 1.388 . S
C1335 N1334 1.397 . S
C1336 H1317 0.929 . S
C1336 C1333 1.404 . S
C1336 N1334 1.334 . S
C1337 H1329 0.930 . S
C1337 C1332 1.418 . S
C1337 C1333 1.353 . S
C1338 H1308 0.930 . S
C1338 N1339 1.330 . S
C1338 C1340 1.446 . S
N1339 Co1298 2.151 . S
N1339 C1338 1.330 . S
N1339 C1343 1.418 . S
C1340 H1319 0.929 . S
C1340 C1338 1.446 . S
C1340 C1341 1.332 . S
C1341 H1321 0.931 . S
C1341 C1340 1.332 . S
C1341 C1342 1.267 . S
C1342 H1310 0.929 . S
C1342 C1341 1.267 . S
C1342 C1343 1.251 . S
C1343 H1313 0.929 . S
C1343 N1339 1.418 . S
C1343 C1342 1.251 . S
C1344 H1311 0.930 . S
C1344 C1346 1.406 . S
C1344 C1349 1.261 . S
C1345 H1312 0.930 . S
C1345 N1347 1.325 . S
C1345 C1348 1.357 . S
C1346 H1314 0.928 . S
C1346 C1344 1.406 . S
C1346 N1347 1.261 . S
N1347 Co1298 2.214 . S
N1347 C1345 1.325 . S
N1347 C1346 1.261 . S
C1348 H1318 0.931 . S
C1348 C1345 1.357 . S
C1348 C1349 1.312 . S
C1349 H1320 0.930 . S
C1349 C1344 1.261 . S
C1349 C1348 1.312 . S
C1350 O1322 1.214 . S
C1350 O1330 1.234 . S
C1351 H1323 0.929 . S
C1351 C1354 1.391 . S
C1351 C1356 1.391 . S
C1352 H1324 0.929 . S
C1352 C1353 1.390 . S
C1352 N1355 1.391 . S
C1353 H1325 0.930 . S
C1353 C1352 1.390 . S
C1353 C1354 1.392 . S
C1354 H1326 0.929 . S
C1354 C1351 1.391 . S
C1354 C1353 1.392 . S
N1355 Co1299 2.257 . S
N1355 C1352 1.391 . S
N1355 C1356 1.388 . S
C1356 H1327 0.930 . S
C1356 C1351 1.391 . S
C1356 N1355 1.388 . S
Co1357 O1359 2.143 . S
Co1357 O1365 2.074 . S
Co1357 O1368 2.093 . S
Co1357 O1381 2.097 . S
Co1357 N1398 2.151 . S
Co1357 N1406 2.214 . S
Co1358 O1359 2.160 . S
Co1358 O1364 2.058 . S
Co1358 O1374 2.057 . S
Co1358 O1389 2.037 . S
Co1358 N1393 2.145 . S
Co1358 N1414 2.257 . S
O1359 Co1357 2.143 . S
O1359 Co1358 2.160 . S
C1360 O1361 1.278 . S
C1360 O1368 1.224 . S
O1361 C1360 1.278 . S
C1362 O1363 1.245 . S
C1362 O1374 1.232 . S
O1363 C1362 1.245 . S
O1364 Co1358 2.058 . S
O1364 C1390 1.269 . S
O1365 Co1357 2.074 . S
O1365 C1390 1.257 . S
H1366 C1391 0.930 . S
H1367 C1397 0.930 . S
O1368 Co1357 2.093 . S
O1368 C1360 1.224 . S
H1369 C1401 0.929 . S
H1370 C1403 0.930 . S
H1371 C1404 0.930 . S
H1372 C1402 0.929 . S
H1373 C1405 0.928 . S
O1374 Co1358 2.057 . S
O1374 C1362 1.232 . S
H1375 C1394 0.929 . S
H1376 C1395 0.929 . S
H1377 C1407 0.931 . S
H1378 C1399 0.929 . S
H1379 C1408 0.930 . S
H1380 C1400 0.931 . S
O1381 Co1357 2.097 . S
O1381 C1409 1.214 . S
H1382 C1410 0.929 . S
H1383 C1411 0.929 . S
H1384 C1412 0.930 . S
H1385 C1413 0.929 . S
H1386 C1415 0.930 . S
H1387 C1392 0.930 . S
H1388 C1396 0.930 . S
O1389 Co1358 2.037 . S
O1389 C1409 1.234 . S
C1390 O1364 1.269 . S
C1390 O1365 1.257 . S
C1391 H1366 0.930 . S
C1391 C1394 1.388 . S
C1391 C1396 1.418 . S
C1392 H1387 0.930 . S
C1392 C1395 1.404 . S
C1392 C1396 1.353 . S
N1393 Co1358 2.145 . S
N1393 C1394 1.397 . S
N1393 C1395 1.334 . S
C1394 H1375 0.929 . S
C1394 C1391 1.388 . S
C1394 N1393 1.397 . S
C1395 H1376 0.929 . S
C1395 C1392 1.404 . S
C1395 N1393 1.334 . S
C1396 H1388 0.930 . S
C1396 C1391 1.418 . S
C1396 C1392 1.353 . S
C1397 H1367 0.930 . S
C1397 N1398 1.330 . S
C1397 C1399 1.446 . S
N1398 Co1357 2.151 . S
N1398 C1397 1.330 . S
N1398 C1402 1.418 . S
C1399 H1378 0.929 . S
C1399 C1397 1.446 . S
C1399 C1400 1.332 . S
C1400 H1380 0.931 . S
C1400 C1399 1.332 . S
C1400 C1401 1.267 . S
C1401 H1369 0.929 . S
C1401 C1400 1.267 . S
C1401 C1402 1.251 . S
C1402 H1372 0.929 . S
C1402 N1398 1.418 . S
C1402 C1401 1.251 . S
C1403 H1370 0.930 . S
C1403 C1405 1.406 . S
C1403 C1408 1.261 . S
C1404 H1371 0.930 . S
C1404 N1406 1.325 . S
C1404 C1407 1.357 . S
C1405 H1373 0.928 . S
C1405 C1403 1.406 . S
C1405 N1406 1.261 . S
N1406 Co1357 2.214 . S
N1406 C1404 1.325 . S
N1406 C1405 1.261 . S
C1407 H1377 0.931 . S
C1407 C1404 1.357 . S
C1407 C1408 1.312 . S
C1408 H1379 0.930 . S
C1408 C1403 1.261 . S
C1408 C1407 1.312 . S
C1409 O1381 1.214 . S
C1409 O1389 1.234 . S
C1410 H1382 0.929 . S
C1410 C1413 1.391 . S
C1410 C1415 1.391 . S
C1411 H1383 0.929 . S
C1411 C1412 1.390 . S
C1411 N1414 1.391 . S
C1412 H1384 0.930 . S
C1412 C1411 1.390 . S
C1412 C1413 1.392 . S
C1413 H1385 0.929 . S
C1413 C1410 1.391 . S
C1413 C1412 1.392 . S
N1414 Co1358 2.257 . S
N1414 C1411 1.391 . S
N1414 C1415 1.388 . S
C1415 H1386 0.930 . S
C1415 C1410 1.391 . S
C1415 N1414 1.388 . S
H1416 C1428 0.930 . S
H1417 C1430 0.930 . S
H1418 C1431 0.930 . S
H1419 C1435 0.959 . S
H1420 C1435 0.959 . S
H1421 C1435 0.961 . S
H1422 C1436 0.960 . S
H1423 C1436 0.961 . S
H1424 C1436 0.959 . S
H1425 C1439 0.929 . S
H1426 C1440 0.931 . S
H1427 C1442 0.930 . S
C1428 H1416 0.930 . S
C1428 C1429 1.399 . S
C1428 C1433 1.399 . S
C1429 C1428 1.399 . S
C1429 C1430 1.376 . S
C1430 H1417 0.930 . S
C1430 C1429 1.376 . S
C1430 C1431 1.388 . S
C1431 H1418 0.930 . S
C1431 C1430 1.388 . S
C1431 C1432 1.390 . S
C1432 C1431 1.390 . S
C1432 C1433 1.394 . S
C1432 C1438 1.465 . S
C1433 C1428 1.399 . S
C1433 C1432 1.394 . S
C1433 C1434 1.516 . S
C1434 C1433 1.516 . S
C1434 C1435 1.502 . S
C1434 C1436 1.561 . S
C1434 C1437 1.526 . S
C1435 H1419 0.959 . S
C1435 H1420 0.959 . S
C1435 H1421 0.961 . S
C1435 C1434 1.502 . S
C1436 H1422 0.960 . S
C1436 H1423 0.961 . S
C1436 H1424 0.959 . S
C1436 C1434 1.561 . S
C1437 C1434 1.526 . S
C1437 C1438 1.396 . S
C1437 C1442 1.390 . S
C1438 C1432 1.465 . S
C1438 C1437 1.396 . S
C1438 C1439 1.399 . S
C1439 H1425 0.929 . S
C1439 C1438 1.399 . S
C1439 C1440 1.385 . S
C1440 H1426 0.931 . S
C1440 C1439 1.385 . S
C1440 C1441 1.389 . S
C1441 C1440 1.389 . S
C1441 C1442 1.387 . S
C1442 H1427 0.930 . S
C1442 C1437 1.390 . S
C1442 C1441 1.387 . S
H1443 C1455 0.930 . S
H1444 C1457 0.930 . S
H1445 C1458 0.930 . S
H1446 C1462 0.959 . S
H1447 C1462 0.959 . S
H1448 C1462 0.961 . S
H1449 C1463 0.960 . S
H1450 C1463 0.961 . S
H1451 C1463 0.959 . S
H1452 C1466 0.929 . S
H1453 C1467 0.931 . S
H1454 C1469 0.930 . S
C1455 H1443 0.930 . S
C1455 C1456 1.399 . S
C1455 C1460 1.399 . S
C1456 C1455 1.399 . S
C1456 C1457 1.376 . S
C1457 H1444 0.930 . S
C1457 C1456 1.376 . S
C1457 C1458 1.388 . S
C1458 H1445 0.930 . S
C1458 C1457 1.388 . S
C1458 C1459 1.390 . S
C1459 C1458 1.390 . S
C1459 C1460 1.394 . S
C1459 C1465 1.465 . S
C1460 C1455 1.399 . S
C1460 C1459 1.394 . S
C1460 C1461 1.516 . S
C1461 C1460 1.516 . S
C1461 C1462 1.502 . S
C1461 C1463 1.561 . S
C1461 C1464 1.526 . S
C1462 H1446 0.959 . S
C1462 H1447 0.959 . S
C1462 H1448 0.961 . S
C1462 C1461 1.502 . S
C1463 H1449 0.960 . S
C1463 H1450 0.961 . S
C1463 H1451 0.959 . S
C1463 C1461 1.561 . S
C1464 C1461 1.526 . S
C1464 C1465 1.396 . S
C1464 C1469 1.390 . S
C1465 C1459 1.465 . S
C1465 C1464 1.396 . S
C1465 C1466 1.399 . S
C1466 H1452 0.929 . S
C1466 C1465 1.399 . S
C1466 C1467 1.385 . S
C1467 H1453 0.931 . S
C1467 C1466 1.385 . S
C1467 C1468 1.389 . S
C1468 C1467 1.389 . S
C1468 C1469 1.387 . S
C1469 H1454 0.930 . S
C1469 C1464 1.390 . S
C1469 C1468 1.387 . S
H1470 C1482 0.930 . S
H1471 C1484 0.930 . S
H1472 C1485 0.930 . S
H1473 C1489 0.959 . S
H1474 C1489 0.959 . S
H1475 C1489 0.961 . S
H1476 C1490 0.960 . S
H1477 C1490 0.961 . S
H1478 C1490 0.959 . S
H1479 C1493 0.929 . S
H1480 C1494 0.931 . S
H1481 C1496 0.930 . S
C1482 H1470 0.930 . S
C1482 C1483 1.399 . S
C1482 C1487 1.399 . S
C1483 C1482 1.399 . S
C1483 C1484 1.376 . S
C1484 H1471 0.930 . S
C1484 C1483 1.376 . S
C1484 C1485 1.388 . S
C1485 H1472 0.930 . S
C1485 C1484 1.388 . S
C1485 C1486 1.390 . S
C1486 C1485 1.390 . S
C1486 C1487 1.394 . S
C1486 C1492 1.465 . S
C1487 C1482 1.399 . S
C1487 C1486 1.394 . S
C1487 C1488 1.516 . S
C1488 C1487 1.516 . S
C1488 C1489 1.502 . S
C1488 C1490 1.561 . S
C1488 C1491 1.526 . S
C1489 H1473 0.959 . S
C1489 H1474 0.959 . S
C1489 H1475 0.961 . S
C1489 C1488 1.502 . S
C1490 H1476 0.960 . S
C1490 H1477 0.961 . S
C1490 H1478 0.959 . S
C1490 C1488 1.561 . S
C1491 C1488 1.526 . S
C1491 C1492 1.396 . S
C1491 C1496 1.390 . S
C1492 C1486 1.465 . S
C1492 C1491 1.396 . S
C1492 C1493 1.399 . S
C1493 H1479 0.929 . S
C1493 C1492 1.399 . S
C1493 C1494 1.385 . S
C1494 H1480 0.931 . S
C1494 C1493 1.385 . S
C1494 C1495 1.389 . S
C1495 C1494 1.389 . S
C1495 C1496 1.387 . S
C1496 H1481 0.930 . S
C1496 C1491 1.390 . S
C1496 C1495 1.387 . S
H1497 C1509 0.930 . S
H1498 C1511 0.930 . S
H1499 C1512 0.930 . S
H1500 C1516 0.959 . S
H1501 C1516 0.959 . S
H1502 C1516 0.961 . S
H1503 C1517 0.960 . S
H1504 C1517 0.961 . S
H1505 C1517 0.959 . S
H1506 C1520 0.929 . S
H1507 C1521 0.931 . S
H1508 C1523 0.930 . S
C1509 H1497 0.930 . S
C1509 C1510 1.399 . S
C1509 C1514 1.399 . S
C1510 C1509 1.399 . S
C1510 C1511 1.376 . S
C1511 H1498 0.930 . S
C1511 C1510 1.376 . S
C1511 C1512 1.388 . S
C1512 H1499 0.930 . S
C1512 C1511 1.388 . S
C1512 C1513 1.390 . S
C1513 C1512 1.390 . S
C1513 C1514 1.394 . S
C1513 C1519 1.465 . S
C1514 C1509 1.399 . S
C1514 C1513 1.394 . S
C1514 C1515 1.516 . S
C1515 C1514 1.516 . S
C1515 C1516 1.502 . S
C1515 C1517 1.561 . S
C1515 C1518 1.526 . S
C1516 H1500 0.959 . S
C1516 H1501 0.959 . S
C1516 H1502 0.961 . S
C1516 C1515 1.502 . S
C1517 H1503 0.960 . S
C1517 H1504 0.961 . S
C1517 H1505 0.959 . S
C1517 C1515 1.561 . S
C1518 C1515 1.526 . S
C1518 C1519 1.396 . S
C1518 C1523 1.390 . S
C1519 C1513 1.465 . S
C1519 C1518 1.396 . S
C1519 C1520 1.399 . S
C1520 H1506 0.929 . S
C1520 C1519 1.399 . S
C1520 C1521 1.385 . S
C1521 H1507 0.931 . S
C1521 C1520 1.385 . S
C1521 C1522 1.389 . S
C1522 C1521 1.389 . S
C1522 C1523 1.387 . S
C1523 H1508 0.930 . S
C1523 C1518 1.390 . S
C1523 C1522 1.387 . S
H1524 C1536 0.930 . S
H1525 C1538 0.930 . S
H1526 C1539 0.930 . S
H1527 C1543 0.959 . S
H1528 C1543 0.959 . S
H1529 C1543 0.961 . S
H1530 C1544 0.960 . S
H1531 C1544 0.961 . S
H1532 C1544 0.959 . S
H1533 C1547 0.929 . S
H1534 C1548 0.931 . S
H1535 C1550 0.930 . S
C1536 H1524 0.930 . S
C1536 C1537 1.399 . S
C1536 C1541 1.399 . S
C1537 C1536 1.399 . S
C1537 C1538 1.376 . S
C1538 H1525 0.930 . S
C1538 C1537 1.376 . S
C1538 C1539 1.388 . S
C1539 H1526 0.930 . S
C1539 C1538 1.388 . S
C1539 C1540 1.390 . S
C1540 C1539 1.390 . S
C1540 C1541 1.394 . S
C1540 C1546 1.465 . S
C1541 C1536 1.399 . S
C1541 C1540 1.394 . S
C1541 C1542 1.516 . S
C1542 C1541 1.516 . S
C1542 C1543 1.502 . S
C1542 C1544 1.561 . S
C1542 C1545 1.526 . S
C1543 H1527 0.959 . S
C1543 H1528 0.959 . S
C1543 H1529 0.961 . S
C1543 C1542 1.502 . S
C1544 H1530 0.960 . S
C1544 H1531 0.961 . S
C1544 H1532 0.959 . S
C1544 C1542 1.561 . S
C1545 C1542 1.526 . S
C1545 C1546 1.396 . S
C1545 C1550 1.390 . S
C1546 C1540 1.465 . S
C1546 C1545 1.396 . S
C1546 C1547 1.399 . S
C1547 H1533 0.929 . S
C1547 C1546 1.399 . S
C1547 C1548 1.385 . S
C1548 H1534 0.931 . S
C1548 C1547 1.385 . S
C1548 C1549 1.389 . S
C1549 C1548 1.389 . S
C1549 C1550 1.387 . S
C1550 H1535 0.930 . S
C1550 C1545 1.390 . S
C1550 C1549 1.387 . S
H1551 C1563 0.930 . S
H1552 C1565 0.930 . S
H1553 C1566 0.930 . S
H1554 C1570 0.959 . S
H1555 C1570 0.959 . S
H1556 C1570 0.961 . S
H1557 C1571 0.960 . S
H1558 C1571 0.961 . S
H1559 C1571 0.959 . S
H1560 C1574 0.929 . S
H1561 C1575 0.931 . S
H1562 C1577 0.930 . S
C1563 H1551 0.930 . S
C1563 C1564 1.399 . S
C1563 C1568 1.399 . S
C1564 C1563 1.399 . S
C1564 C1565 1.376 . S
C1565 H1552 0.930 . S
C1565 C1564 1.376 . S
C1565 C1566 1.388 . S
C1566 H1553 0.930 . S
C1566 C1565 1.388 . S
C1566 C1567 1.390 . S
C1567 C1566 1.390 . S
C1567 C1568 1.394 . S
C1567 C1573 1.465 . S
C1568 C1563 1.399 . S
C1568 C1567 1.394 . S
C1568 C1569 1.516 . S
C1569 C1568 1.516 . S
C1569 C1570 1.502 . S
C1569 C1571 1.561 . S
C1569 C1572 1.526 . S
C1570 H1554 0.959 . S
C1570 H1555 0.959 . S
C1570 H1556 0.961 . S
C1570 C1569 1.502 . S
C1571 H1557 0.960 . S
C1571 H1558 0.961 . S
C1571 H1559 0.959 . S
C1571 C1569 1.561 . S
C1572 C1569 1.526 . S
C1572 C1573 1.396 . S
C1572 C1577 1.390 . S
C1573 C1567 1.465 . S
C1573 C1572 1.396 . S
C1573 C1574 1.399 . S
C1574 H1560 0.929 . S
C1574 C1573 1.399 . S
C1574 C1575 1.385 . S
C1575 H1561 0.931 . S
C1575 C1574 1.385 . S
C1575 C1576 1.389 . S
C1576 C1575 1.389 . S
C1576 C1577 1.387 . S
C1577 H1562 0.930 . S
C1577 C1572 1.390 . S
C1577 C1576 1.387 . S
H1578 C1590 0.930 . S
H1579 C1592 0.930 . S
H1580 C1593 0.930 . S
H1581 C1597 0.959 . S
H1582 C1597 0.959 . S
H1583 C1597 0.961 . S
H1584 C1598 0.960 . S
H1585 C1598 0.961 . S
H1586 C1598 0.959 . S
H1587 C1601 0.929 . S
H1588 C1602 0.931 . S
H1589 C1604 0.930 . S
C1590 H1578 0.930 . S
C1590 C1591 1.399 . S
C1590 C1595 1.399 . S
C1591 C1590 1.399 . S
C1591 C1592 1.376 . S
C1592 H1579 0.930 . S
C1592 C1591 1.376 . S
C1592 C1593 1.388 . S
C1593 H1580 0.930 . S
C1593 C1592 1.388 . S
C1593 C1594 1.390 . S
C1594 C1593 1.390 . S
C1594 C1595 1.394 . S
C1594 C1600 1.465 . S
C1595 C1590 1.399 . S
C1595 C1594 1.394 . S
C1595 C1596 1.516 . S
C1596 C1595 1.516 . S
C1596 C1597 1.502 . S
C1596 C1598 1.561 . S
C1596 C1599 1.526 . S
C1597 H1581 0.959 . S
C1597 H1582 0.959 . S
C1597 H1583 0.961 . S
C1597 C1596 1.502 . S
C1598 H1584 0.960 . S
C1598 H1585 0.961 . S
C1598 H1586 0.959 . S
C1598 C1596 1.561 . S
C1599 C1596 1.526 . S
C1599 C1600 1.396 . S
C1599 C1604 1.390 . S
C1600 C1594 1.465 . S
C1600 C1599 1.396 . S
C1600 C1601 1.399 . S
C1601 H1587 0.929 . S
C1601 C1600 1.399 . S
C1601 C1602 1.385 . S
C1602 H1588 0.931 . S
C1602 C1601 1.385 . S
C1602 C1603 1.389 . S
C1603 C1602 1.389 . S
C1603 C1604 1.387 . S
C1604 H1589 0.930 . S
C1604 C1599 1.390 . S
C1604 C1603 1.387 . S
H1605 C1617 0.930 . S
H1606 C1619 0.930 . S
H1607 C1620 0.930 . S
H1608 C1624 0.959 . S
H1609 C1624 0.959 . S
H1610 C1624 0.961 . S
H1611 C1625 0.960 . S
H1612 C1625 0.961 . S
H1613 C1625 0.959 . S
H1614 C1628 0.929 . S
H1615 C1629 0.931 . S
H1616 C1631 0.930 . S
C1617 H1605 0.930 . S
C1617 C1618 1.399 . S
C1617 C1622 1.399 . S
C1618 C1617 1.399 . S
C1618 C1619 1.376 . S
C1619 H1606 0.930 . S
C1619 C1618 1.376 . S
C1619 C1620 1.388 . S
C1620 H1607 0.930 . S
C1620 C1619 1.388 . S
C1620 C1621 1.390 . S
C1621 C1620 1.390 . S
C1621 C1622 1.394 . S
C1621 C1627 1.465 . S
C1622 C1617 1.399 . S
C1622 C1621 1.394 . S
C1622 C1623 1.516 . S
C1623 C1622 1.516 . S
C1623 C1624 1.502 . S
C1623 C1625 1.561 . S
C1623 C1626 1.526 . S
C1624 H1608 0.959 . S
C1624 H1609 0.959 . S
C1624 H1610 0.961 . S
C1624 C1623 1.502 . S
C1625 H1611 0.960 . S
C1625 H1612 0.961 . S
C1625 H1613 0.959 . S
C1625 C1623 1.561 . S
C1626 C1623 1.526 . S
C1626 C1627 1.396 . S
C1626 C1631 1.390 . S
C1627 C1621 1.465 . S
C1627 C1626 1.396 . S
C1627 C1628 1.399 . S
C1628 H1614 0.929 . S
C1628 C1627 1.399 . S
C1628 C1629 1.385 . S
C1629 H1615 0.931 . S
C1629 C1628 1.385 . S
C1629 C1630 1.389 . S
C1630 C1629 1.389 . S
C1630 C1631 1.387 . S
C1631 H1616 0.930 . S
C1631 C1626 1.390 . S
C1631 C1630 1.387 . S
H1632 C1644 0.930 . S
H1633 C1646 0.930 . S
H1634 C1647 0.930 . S
H1635 C1651 0.959 . S
H1636 C1651 0.959 . S
H1637 C1651 0.961 . S
H1638 C1652 0.960 . S
H1639 C1652 0.961 . S
H1640 C1652 0.959 . S
H1641 C1655 0.929 . S
H1642 C1656 0.931 . S
H1643 C1658 0.930 . S
C1644 H1632 0.930 . S
C1644 C1645 1.399 . S
C1644 C1649 1.399 . S
C1645 C1644 1.399 . S
C1645 C1646 1.376 . S
C1646 H1633 0.930 . S
C1646 C1645 1.376 . S
C1646 C1647 1.388 . S
C1647 H1634 0.930 . S
C1647 C1646 1.388 . S
C1647 C1648 1.390 . S
C1648 C1647 1.390 . S
C1648 C1649 1.394 . S
C1648 C1654 1.465 . S
C1649 C1644 1.399 . S
C1649 C1648 1.394 . S
C1649 C1650 1.516 . S
C1650 C1649 1.516 . S
C1650 C1651 1.502 . S
C1650 C1652 1.561 . S
C1650 C1653 1.526 . S
C1651 H1635 0.959 . S
C1651 H1636 0.959 . S
C1651 H1637 0.961 . S
C1651 C1650 1.502 . S
C1652 H1638 0.960 . S
C1652 H1639 0.961 . S
C1652 H1640 0.959 . S
C1652 C1650 1.561 . S
C1653 C1650 1.526 . S
C1653 C1654 1.396 . S
C1653 C1658 1.390 . S
C1654 C1648 1.465 . S
C1654 C1653 1.396 . S
C1654 C1655 1.399 . S
C1655 H1641 0.929 . S
C1655 C1654 1.399 . S
C1655 C1656 1.385 . S
C1656 H1642 0.931 . S
C1656 C1655 1.385 . S
C1656 C1657 1.389 . S
C1657 C1656 1.389 . S
C1657 C1658 1.387 . S
C1658 H1643 0.930 . S
C1658 C1653 1.390 . S
C1658 C1657 1.387 . S
H1659 C1671 0.930 . S
H1660 C1673 0.930 . S
H1661 C1674 0.930 . S
H1662 C1678 0.959 . S
H1663 C1678 0.959 . S
H1664 C1678 0.961 . S
H1665 C1679 0.960 . S
H1666 C1679 0.961 . S
H1667 C1679 0.959 . S
H1668 C1682 0.929 . S
H1669 C1683 0.931 . S
H1670 C1685 0.930 . S
C1671 H1659 0.930 . S
C1671 C1672 1.399 . S
C1671 C1676 1.399 . S
C1672 C1671 1.399 . S
C1672 C1673 1.376 . S
C1673 H1660 0.930 . S
C1673 C1672 1.376 . S
C1673 C1674 1.388 . S
C1674 H1661 0.930 . S
C1674 C1673 1.388 . S
C1674 C1675 1.390 . S
C1675 C1674 1.390 . S
C1675 C1676 1.394 . S
C1675 C1681 1.465 . S
C1676 C1671 1.399 . S
C1676 C1675 1.394 . S
C1676 C1677 1.516 . S
C1677 C1676 1.516 . S
C1677 C1678 1.502 . S
C1677 C1679 1.561 . S
C1677 C1680 1.526 . S
C1678 H1662 0.959 . S
C1678 H1663 0.959 . S
C1678 H1664 0.961 . S
C1678 C1677 1.502 . S
C1679 H1665 0.960 . S
C1679 H1666 0.961 . S
C1679 H1667 0.959 . S
C1679 C1677 1.561 . S
C1680 C1677 1.526 . S
C1680 C1681 1.396 . S
C1680 C1685 1.390 . S
C1681 C1675 1.465 . S
C1681 C1680 1.396 . S
C1681 C1682 1.399 . S
C1682 H1668 0.929 . S
C1682 C1681 1.399 . S
C1682 C1683 1.385 . S
C1683 H1669 0.931 . S
C1683 C1682 1.385 . S
C1683 C1684 1.389 . S
C1684 C1683 1.389 . S
C1684 C1685 1.387 . S
C1685 H1670 0.930 . S
C1685 C1680 1.390 . S
C1685 C1684 1.387 . S
H1686 C1698 0.930 . S
H1687 C1700 0.930 . S
H1688 C1701 0.930 . S
H1689 C1705 0.959 . S
H1690 C1705 0.959 . S
H1691 C1705 0.961 . S
H1692 C1706 0.960 . S
H1693 C1706 0.961 . S
H1694 C1706 0.959 . S
H1695 C1709 0.929 . S
H1696 C1710 0.931 . S
H1697 C1712 0.930 . S
C1698 H1686 0.930 . S
C1698 C1699 1.399 . S
C1698 C1703 1.399 . S
C1699 C1698 1.399 . S
C1699 C1700 1.376 . S
C1700 H1687 0.930 . S
C1700 C1699 1.376 . S
C1700 C1701 1.388 . S
C1701 H1688 0.930 . S
C1701 C1700 1.388 . S
C1701 C1702 1.390 . S
C1702 C1701 1.390 . S
C1702 C1703 1.394 . S
C1702 C1708 1.465 . S
C1703 C1698 1.399 . S
C1703 C1702 1.394 . S
C1703 C1704 1.516 . S
C1704 C1703 1.516 . S
C1704 C1705 1.502 . S
C1704 C1706 1.561 . S
C1704 C1707 1.526 . S
C1705 H1689 0.959 . S
C1705 H1690 0.959 . S
C1705 H1691 0.961 . S
C1705 C1704 1.502 . S
C1706 H1692 0.960 . S
C1706 H1693 0.961 . S
C1706 H1694 0.959 . S
C1706 C1704 1.561 . S
C1707 C1704 1.526 . S
C1707 C1708 1.396 . S
C1707 C1712 1.390 . S
C1708 C1702 1.465 . S
C1708 C1707 1.396 . S
C1708 C1709 1.399 . S
C1709 H1695 0.929 . S
C1709 C1708 1.399 . S
C1709 C1710 1.385 . S
C1710 H1696 0.931 . S
C1710 C1709 1.385 . S
C1710 C1711 1.389 . S
C1711 C1710 1.389 . S
C1711 C1712 1.387 . S
C1712 H1697 0.930 . S
C1712 C1707 1.390 . S
C1712 C1711 1.387 . S
H1713 C1725 0.930 . S
H1714 C1727 0.930 . S
H1715 C1728 0.930 . S
H1716 C1732 0.959 . S
H1717 C1732 0.959 . S
H1718 C1732 0.961 . S
H1719 C1733 0.960 . S
H1720 C1733 0.961 . S
H1721 C1733 0.959 . S
H1722 C1736 0.929 . S
H1723 C1737 0.931 . S
H1724 C1739 0.930 . S
C1725 H1713 0.930 . S
C1725 C1726 1.399 . S
C1725 C1730 1.399 . S
C1726 C1725 1.399 . S
C1726 C1727 1.376 . S
C1727 H1714 0.930 . S
C1727 C1726 1.376 . S
C1727 C1728 1.388 . S
C1728 H1715 0.930 . S
C1728 C1727 1.388 . S
C1728 C1729 1.390 . S
C1729 C1728 1.390 . S
C1729 C1730 1.394 . S
C1729 C1735 1.465 . S
C1730 C1725 1.399 . S
C1730 C1729 1.394 . S
C1730 C1731 1.516 . S
C1731 C1730 1.516 . S
C1731 C1732 1.502 . S
C1731 C1733 1.561 . S
C1731 C1734 1.526 . S
C1732 H1716 0.959 . S
C1732 H1717 0.959 . S
C1732 H1718 0.961 . S
C1732 C1731 1.502 . S
C1733 H1719 0.960 . S
C1733 H1720 0.961 . S
C1733 H1721 0.959 . S
C1733 C1731 1.561 . S
C1734 C1731 1.526 . S
C1734 C1735 1.396 . S
C1734 C1739 1.390 . S
C1735 C1729 1.465 . S
C1735 C1734 1.396 . S
C1735 C1736 1.399 . S
C1736 H1722 0.929 . S
C1736 C1735 1.399 . S
C1736 C1737 1.385 . S
C1737 H1723 0.931 . S
C1737 C1736 1.385 . S
C1737 C1738 1.389 . S
C1738 C1737 1.389 . S
C1738 C1739 1.387 . S
C1739 H1724 0.930 . S
C1739 C1734 1.390 . S
C1739 C1738 1.387 . S
H1740 C1752 0.930 . S
H1741 C1754 0.930 . S
H1742 C1755 0.930 . S
H1743 C1759 0.959 . S
H1744 C1759 0.959 . S
H1745 C1759 0.961 . S
H1746 C1760 0.960 . S
H1747 C1760 0.961 . S
H1748 C1760 0.959 . S
H1749 C1763 0.929 . S
H1750 C1764 0.931 . S
H1751 C1766 0.930 . S
C1752 H1740 0.930 . S
C1752 C1753 1.399 . S
C1752 C1757 1.399 . S
C1753 C1752 1.399 . S
C1753 C1754 1.376 . S
C1754 H1741 0.930 . S
C1754 C1753 1.376 . S
C1754 C1755 1.388 . S
C1755 H1742 0.930 . S
C1755 C1754 1.388 . S
C1755 C1756 1.390 . S
C1756 C1755 1.390 . S
C1756 C1757 1.394 . S
C1756 C1762 1.465 . S
C1757 C1752 1.399 . S
C1757 C1756 1.394 . S
C1757 C1758 1.516 . S
C1758 C1757 1.516 . S
C1758 C1759 1.502 . S
C1758 C1760 1.561 . S
C1758 C1761 1.526 . S
C1759 H1743 0.959 . S
C1759 H1744 0.959 . S
C1759 H1745 0.961 . S
C1759 C1758 1.502 . S
C1760 H1746 0.960 . S
C1760 H1747 0.961 . S
C1760 H1748 0.959 . S
C1760 C1758 1.561 . S
C1761 C1758 1.526 . S
C1761 C1762 1.396 . S
C1761 C1766 1.390 . S
C1762 C1756 1.465 . S
C1762 C1761 1.396 . S
C1762 C1763 1.399 . S
C1763 H1749 0.929 . S
C1763 C1762 1.399 . S
C1763 C1764 1.385 . S
C1764 H1750 0.931 . S
C1764 C1763 1.385 . S
C1764 C1765 1.389 . S
C1765 C1764 1.389 . S
C1765 C1766 1.387 . S
C1766 H1751 0.930 . S
C1766 C1761 1.390 . S
C1766 C1765 1.387 . S
H1767 C1779 0.930 . S
H1768 C1781 0.930 . S
H1769 C1782 0.930 . S
H1770 C1786 0.959 . S
H1771 C1786 0.959 . S
H1772 C1786 0.961 . S
H1773 C1787 0.960 . S
H1774 C1787 0.961 . S
H1775 C1787 0.959 . S
H1776 C1790 0.929 . S
H1777 C1791 0.931 . S
H1778 C1793 0.930 . S
C1779 H1767 0.930 . S
C1779 C1780 1.399 . S
C1779 C1784 1.399 . S
C1780 C1779 1.399 . S
C1780 C1781 1.376 . S
C1781 H1768 0.930 . S
C1781 C1780 1.376 . S
C1781 C1782 1.388 . S
C1782 H1769 0.930 . S
C1782 C1781 1.388 . S
C1782 C1783 1.390 . S
C1783 C1782 1.390 . S
C1783 C1784 1.394 . S
C1783 C1789 1.465 . S
C1784 C1779 1.399 . S
C1784 C1783 1.394 . S
C1784 C1785 1.516 . S
C1785 C1784 1.516 . S
C1785 C1786 1.502 . S
C1785 C1787 1.561 . S
C1785 C1788 1.526 . S
C1786 H1770 0.959 . S
C1786 H1771 0.959 . S
C1786 H1772 0.961 . S
C1786 C1785 1.502 . S
C1787 H1773 0.960 . S
C1787 H1774 0.961 . S
C1787 H1775 0.959 . S
C1787 C1785 1.561 . S
C1788 C1785 1.526 . S
C1788 C1789 1.396 . S
C1788 C1793 1.390 . S
C1789 C1783 1.465 . S
C1789 C1788 1.396 . S
C1789 C1790 1.399 . S
C1790 H1776 0.929 . S
C1790 C1789 1.399 . S
C1790 C1791 1.385 . S
C1791 H1777 0.931 . S
C1791 C1790 1.385 . S
C1791 C1792 1.389 . S
C1792 C1791 1.389 . S
C1792 C1793 1.387 . S
C1793 H1778 0.930 . S
C1793 C1788 1.390 . S
C1793 C1792 1.387 . S
H1794 C1806 0.930 . S
H1795 C1808 0.930 . S
H1796 C1809 0.930 . S
H1797 C1813 0.959 . S
H1798 C1813 0.959 . S
H1799 C1813 0.961 . S
H1800 C1814 0.960 . S
H1801 C1814 0.961 . S
H1802 C1814 0.959 . S
H1803 C1817 0.929 . S
H1804 C1818 0.931 . S
H1805 C1820 0.930 . S
C1806 H1794 0.930 . S
C1806 C1807 1.399 . S
C1806 C1811 1.399 . S
C1807 C1806 1.399 . S
C1807 C1808 1.376 . S
C1808 H1795 0.930 . S
C1808 C1807 1.376 . S
C1808 C1809 1.388 . S
C1809 H1796 0.930 . S
C1809 C1808 1.388 . S
C1809 C1810 1.390 . S
C1810 C1809 1.390 . S
C1810 C1811 1.394 . S
C1810 C1816 1.465 . S
C1811 C1806 1.399 . S
C1811 C1810 1.394 . S
C1811 C1812 1.516 . S
C1812 C1811 1.516 . S
C1812 C1813 1.502 . S
C1812 C1814 1.561 . S
C1812 C1815 1.526 . S
C1813 H1797 0.959 . S
C1813 H1798 0.959 . S
C1813 H1799 0.961 . S
C1813 C1812 1.502 . S
C1814 H1800 0.960 . S
C1814 H1801 0.961 . S
C1814 H1802 0.959 . S
C1814 C1812 1.561 . S
C1815 C1812 1.526 . S
C1815 C1816 1.396 . S
C1815 C1820 1.390 . S
C1816 C1810 1.465 . S
C1816 C1815 1.396 . S
C1816 C1817 1.399 . S
C1817 H1803 0.929 . S
C1817 C1816 1.399 . S
C1817 C1818 1.385 . S
C1818 H1804 0.931 . S
C1818 C1817 1.385 . S
C1818 C1819 1.389 . S
C1819 C1818 1.389 . S
C1819 C1820 1.387 . S
C1820 H1805 0.930 . S
C1820 C1815 1.390 . S
C1820 C1819 1.387 . S
H1821 C1833 0.930 . S
H1822 C1835 0.930 . S
H1823 C1836 0.930 . S
H1824 C1840 0.959 . S
H1825 C1840 0.959 . S
H1826 C1840 0.961 . S
H1827 C1841 0.960 . S
H1828 C1841 0.961 . S
H1829 C1841 0.959 . S
H1830 C1844 0.929 . S
H1831 C1845 0.931 . S
H1832 C1847 0.930 . S
C1833 H1821 0.930 . S
C1833 C1834 1.399 . S
C1833 C1838 1.399 . S
C1834 C1833 1.399 . S
C1834 C1835 1.376 . S
C1835 H1822 0.930 . S
C1835 C1834 1.376 . S
C1835 C1836 1.388 . S
C1836 H1823 0.930 . S
C1836 C1835 1.388 . S
C1836 C1837 1.390 . S
C1837 C1836 1.390 . S
C1837 C1838 1.394 . S
C1837 C1843 1.465 . S
C1838 C1833 1.399 . S
C1838 C1837 1.394 . S
C1838 C1839 1.516 . S
C1839 C1838 1.516 . S
C1839 C1840 1.502 . S
C1839 C1841 1.561 . S
C1839 C1842 1.526 . S
C1840 H1824 0.959 . S
C1840 H1825 0.959 . S
C1840 H1826 0.961 . S
C1840 C1839 1.502 . S
C1841 H1827 0.960 . S
C1841 H1828 0.961 . S
C1841 H1829 0.959 . S
C1841 C1839 1.561 . S
C1842 C1839 1.526 . S
C1842 C1843 1.396 . S
C1842 C1847 1.390 . S
C1843 C1837 1.465 . S
C1843 C1842 1.396 . S
C1843 C1844 1.399 . S
C1844 H1830 0.929 . S
C1844 C1843 1.399 . S
C1844 C1845 1.385 . S
C1845 H1831 0.931 . S
C1845 C1844 1.385 . S
C1845 C1846 1.389 . S
C1846 C1845 1.389 . S
C1846 C1847 1.387 . S
C1847 H1832 0.930 . S
C1847 C1842 1.390 . S
C1847 C1846 1.387 . S
H1848 C1860 0.930 . S
H1849 C1862 0.930 . S
H1850 C1863 0.930 . S
H1851 C1867 0.959 . S
H1852 C1867 0.959 . S
H1853 C1867 0.961 . S
H1854 C1868 0.960 . S
H1855 C1868 0.961 . S
H1856 C1868 0.959 . S
H1857 C1871 0.929 . S
H1858 C1872 0.931 . S
H1859 C1874 0.930 . S
C1860 H1848 0.930 . S
C1860 C1861 1.399 . S
C1860 C1865 1.399 . S
C1861 C1860 1.399 . S
C1861 C1862 1.376 . S
C1862 H1849 0.930 . S
C1862 C1861 1.376 . S
C1862 C1863 1.388 . S
C1863 H1850 0.930 . S
C1863 C1862 1.388 . S
C1863 C1864 1.390 . S
C1864 C1863 1.390 . S
C1864 C1865 1.394 . S
C1864 C1870 1.465 . S
C1865 C1860 1.399 . S
C1865 C1864 1.394 . S
C1865 C1866 1.516 . S
C1866 C1865 1.516 . S
C1866 C1867 1.502 . S
C1866 C1868 1.561 . S
C1866 C1869 1.526 . S
C1867 H1851 0.959 . S
C1867 H1852 0.959 . S
C1867 H1853 0.961 . S
C1867 C1866 1.502 . S
C1868 H1854 0.960 . S
C1868 H1855 0.961 . S
C1868 H1856 0.959 . S
C1868 C1866 1.561 . S
C1869 C1866 1.526 . S
C1869 C1870 1.396 . S
C1869 C1874 1.390 . S
C1870 C1864 1.465 . S
C1870 C1869 1.396 . S
C1870 C1871 1.399 . S
C1871 H1857 0.929 . S
C1871 C1870 1.399 . S
C1871 C1872 1.385 . S
C1872 H1858 0.931 . S
C1872 C1871 1.385 . S
C1872 C1873 1.389 . S
C1873 C1872 1.389 . S
C1873 C1874 1.387 . S
C1874 H1859 0.930 . S
C1874 C1869 1.390 . S
C1874 C1873 1.387 . S
H1875 C1887 0.930 . S
H1876 C1889 0.930 . S
H1877 C1890 0.930 . S
H1878 C1894 0.959 . S
H1879 C1894 0.959 . S
H1880 C1894 0.961 . S
H1881 C1895 0.960 . S
H1882 C1895 0.961 . S
H1883 C1895 0.959 . S
H1884 C1898 0.929 . S
H1885 C1899 0.931 . S
H1886 C1901 0.930 . S
C1887 H1875 0.930 . S
C1887 C1888 1.399 . S
C1887 C1892 1.399 . S
C1888 C1887 1.399 . S
C1888 C1889 1.376 . S
C1889 H1876 0.930 . S
C1889 C1888 1.376 . S
C1889 C1890 1.388 . S
C1890 H1877 0.930 . S
C1890 C1889 1.388 . S
C1890 C1891 1.390 . S
C1891 C1890 1.390 . S
C1891 C1892 1.394 . S
C1891 C1897 1.465 . S
C1892 C1887 1.399 . S
C1892 C1891 1.394 . S
C1892 C1893 1.516 . S
C1893 C1892 1.516 . S
C1893 C1894 1.502 . S
C1893 C1895 1.561 . S
C1893 C1896 1.526 . S
C1894 H1878 0.959 . S
C1894 H1879 0.959 . S
C1894 H1880 0.961 . S
C1894 C1893 1.502 . S
C1895 H1881 0.960 . S
C1895 H1882 0.961 . S
C1895 H1883 0.959 . S
C1895 C1893 1.561 . S
C1896 C1893 1.526 . S
C1896 C1897 1.396 . S
C1896 C1901 1.390 . S
C1897 C1891 1.465 . S
C1897 C1896 1.396 . S
C1897 C1898 1.399 . S
C1898 H1884 0.929 . S
C1898 C1897 1.399 . S
C1898 C1899 1.385 . S
C1899 H1885 0.931 . S
C1899 C1898 1.385 . S
C1899 C1900 1.389 . S
C1900 C1899 1.389 . S
C1900 C1901 1.387 . S
C1901 H1886 0.930 . S
C1901 C1896 1.390 . S
C1901 C1900 1.387 . S
H1902 C1914 0.930 . S
H1903 C1916 0.930 . S
H1904 C1917 0.930 . S
H1905 C1921 0.959 . S
H1906 C1921 0.959 . S
H1907 C1921 0.961 . S
H1908 C1922 0.960 . S
H1909 C1922 0.961 . S
H1910 C1922 0.959 . S
H1911 C1925 0.929 . S
H1912 C1926 0.931 . S
H1913 C1928 0.930 . S
C1914 H1902 0.930 . S
C1914 C1915 1.399 . S
C1914 C1919 1.399 . S
C1915 C1914 1.399 . S
C1915 C1916 1.376 . S
C1916 H1903 0.930 . S
C1916 C1915 1.376 . S
C1916 C1917 1.388 . S
C1917 H1904 0.930 . S
C1917 C1916 1.388 . S
C1917 C1918 1.390 . S
C1918 C1917 1.390 . S
C1918 C1919 1.394 . S
C1918 C1924 1.465 . S
C1919 C1914 1.399 . S
C1919 C1918 1.394 . S
C1919 C1920 1.516 . S
C1920 C1919 1.516 . S
C1920 C1921 1.502 . S
C1920 C1922 1.561 . S
C1920 C1923 1.526 . S
C1921 H1905 0.959 . S
C1921 H1906 0.959 . S
C1921 H1907 0.961 . S
C1921 C1920 1.502 . S
C1922 H1908 0.960 . S
C1922 H1909 0.961 . S
C1922 H1910 0.959 . S
C1922 C1920 1.561 . S
C1923 C1920 1.526 . S
C1923 C1924 1.396 . S
C1923 C1928 1.390 . S
C1924 C1918 1.465 . S
C1924 C1923 1.396 . S
C1924 C1925 1.399 . S
C1925 H1911 0.929 . S
C1925 C1924 1.399 . S
C1925 C1926 1.385 . S
C1926 H1912 0.931 . S
C1926 C1925 1.385 . S
C1926 C1927 1.389 . S
C1927 C1926 1.389 . S
C1927 C1928 1.387 . S
C1928 H1913 0.930 . S
C1928 C1923 1.390 . S
C1928 C1927 1.387 . S
H1929 C1941 0.930 . S
H1930 C1943 0.930 . S
H1931 C1944 0.930 . S
H1932 C1948 0.959 . S
H1933 C1948 0.959 . S
H1934 C1948 0.961 . S
H1935 C1949 0.960 . S
H1936 C1949 0.961 . S
H1937 C1949 0.959 . S
H1938 C1952 0.929 . S
H1939 C1953 0.931 . S
H1940 C1955 0.930 . S
C1941 H1929 0.930 . S
C1941 C1942 1.399 . S
C1941 C1946 1.399 . S
C1942 C1941 1.399 . S
C1942 C1943 1.376 . S
C1943 H1930 0.930 . S
C1943 C1942 1.376 . S
C1943 C1944 1.388 . S
C1944 H1931 0.930 . S
C1944 C1943 1.388 . S
C1944 C1945 1.390 . S
C1945 C1944 1.390 . S
C1945 C1946 1.394 . S
C1945 C1951 1.465 . S
C1946 C1941 1.399 . S
C1946 C1945 1.394 . S
C1946 C1947 1.516 . S
C1947 C1946 1.516 . S
C1947 C1948 1.502 . S
C1947 C1949 1.561 . S
C1947 C1950 1.526 . S
C1948 H1932 0.959 . S
C1948 H1933 0.959 . S
C1948 H1934 0.961 . S
C1948 C1947 1.502 . S
C1949 H1935 0.960 . S
C1949 H1936 0.961 . S
C1949 H1937 0.959 . S
C1949 C1947 1.561 . S
C1950 C1947 1.526 . S
C1950 C1951 1.396 . S
C1950 C1955 1.390 . S
C1951 C1945 1.465 . S
C1951 C1950 1.396 . S
C1951 C1952 1.399 . S
C1952 H1938 0.929 . S
C1952 C1951 1.399 . S
C1952 C1953 1.385 . S
C1953 H1939 0.931 . S
C1953 C1952 1.385 . S
C1953 C1954 1.389 . S
C1954 C1953 1.389 . S
C1954 C1955 1.387 . S
C1955 H1940 0.930 . S
C1955 C1950 1.390 . S
C1955 C1954 1.387 . S
H1956 C1968 0.930 . S
H1957 C1970 0.930 . S
H1958 C1971 0.930 . S
H1959 C1975 0.959 . S
H1960 C1975 0.959 . S
H1961 C1975 0.961 . S
H1962 C1976 0.960 . S
H1963 C1976 0.961 . S
H1964 C1976 0.959 . S
H1965 C1979 0.929 . S
H1966 C1980 0.931 . S
H1967 C1982 0.930 . S
C1968 H1956 0.930 . S
C1968 C1969 1.399 . S
C1968 C1973 1.399 . S
C1969 C1968 1.399 . S
C1969 C1970 1.376 . S
C1970 H1957 0.930 . S
C1970 C1969 1.376 . S
C1970 C1971 1.388 . S
C1971 H1958 0.930 . S
C1971 C1970 1.388 . S
C1971 C1972 1.390 . S
C1972 C1971 1.390 . S
C1972 C1973 1.394 . S
C1972 C1978 1.465 . S
C1973 C1968 1.399 . S
C1973 C1972 1.394 . S
C1973 C1974 1.516 . S
C1974 C1973 1.516 . S
C1974 C1975 1.502 . S
C1974 C1976 1.561 . S
C1974 C1977 1.526 . S
C1975 H1959 0.959 . S
C1975 H1960 0.959 . S
C1975 H1961 0.961 . S
C1975 C1974 1.502 . S
C1976 H1962 0.960 . S
C1976 H1963 0.961 . S
C1976 H1964 0.959 . S
C1976 C1974 1.561 . S
C1977 C1974 1.526 . S
C1977 C1978 1.396 . S
C1977 C1982 1.390 . S
C1978 C1972 1.465 . S
C1978 C1977 1.396 . S
C1978 C1979 1.399 . S
C1979 H1965 0.929 . S
C1979 C1978 1.399 . S
C1979 C1980 1.385 . S
C1980 H1966 0.931 . S
C1980 C1979 1.385 . S
C1980 C1981 1.389 . S
C1981 C1980 1.389 . S
C1981 C1982 1.387 . S
C1982 H1967 0.930 . S
C1982 C1977 1.390 . S
C1982 C1981 1.387 . S
H1983 C1995 0.930 . S
H1984 C1997 0.930 . S
H1985 C1998 0.930 . S
H1986 C2002 0.959 . S
H1987 C2002 0.959 . S
H1988 C2002 0.961 . S
H1989 C2003 0.960 . S
H1990 C2003 0.961 . S
H1991 C2003 0.959 . S
H1992 C2006 0.929 . S
H1993 C2007 0.931 . S
H1994 C2009 0.930 . S
C1995 H1983 0.930 . S
C1995 C1996 1.399 . S
C1995 C2000 1.399 . S
C1996 C1995 1.399 . S
C1996 C1997 1.376 . S
C1997 H1984 0.930 . S
C1997 C1996 1.376 . S
C1997 C1998 1.388 . S
C1998 H1985 0.930 . S
C1998 C1997 1.388 . S
C1998 C1999 1.390 . S
C1999 C1998 1.390 . S
C1999 C2000 1.394 . S
C1999 C2005 1.465 . S
C2000 C1995 1.399 . S
C2000 C1999 1.394 . S
C2000 C2001 1.516 . S
C2001 C2000 1.516 . S
C2001 C2002 1.502 . S
C2001 C2003 1.561 . S
C2001 C2004 1.526 . S
C2002 H1986 0.959 . S
C2002 H1987 0.959 . S
C2002 H1988 0.961 . S
C2002 C2001 1.502 . S
C2003 H1989 0.960 . S
C2003 H1990 0.961 . S
C2003 H1991 0.959 . S
C2003 C2001 1.561 . S
C2004 C2001 1.526 . S
C2004 C2005 1.396 . S
C2004 C2009 1.390 . S
C2005 C1999 1.465 . S
C2005 C2004 1.396 . S
C2005 C2006 1.399 . S
C2006 H1992 0.929 . S
C2006 C2005 1.399 . S
C2006 C2007 1.385 . S
C2007 H1993 0.931 . S
C2007 C2006 1.385 . S
C2007 C2008 1.389 . S
C2008 C2007 1.389 . S
C2008 C2009 1.387 . S
C2009 H1994 0.930 . S
C2009 C2004 1.390 . S
C2009 C2008 1.387 . S
H2010 C2022 0.930 . S
H2011 C2024 0.930 . S
H2012 C2025 0.930 . S
H2013 C2029 0.959 . S
H2014 C2029 0.959 . S
H2015 C2029 0.961 . S
H2016 C2030 0.960 . S
H2017 C2030 0.961 . S
H2018 C2030 0.959 . S
H2019 C2033 0.929 . S
H2020 C2034 0.931 . S
H2021 C2036 0.930 . S
C2022 H2010 0.930 . S
C2022 C2023 1.399 . S
C2022 C2027 1.399 . S
C2023 C2022 1.399 . S
C2023 C2024 1.376 . S
C2024 H2011 0.930 . S
C2024 C2023 1.376 . S
C2024 C2025 1.388 . S
C2025 H2012 0.930 . S
C2025 C2024 1.388 . S
C2025 C2026 1.390 . S
C2026 C2025 1.390 . S
C2026 C2027 1.394 . S
C2026 C2032 1.465 . S
C2027 C2022 1.399 . S
C2027 C2026 1.394 . S
C2027 C2028 1.516 . S
C2028 C2027 1.516 . S
C2028 C2029 1.502 . S
C2028 C2030 1.561 . S
C2028 C2031 1.526 . S
C2029 H2013 0.959 . S
C2029 H2014 0.959 . S
C2029 H2015 0.961 . S
C2029 C2028 1.502 . S
C2030 H2016 0.960 . S
C2030 H2017 0.961 . S
C2030 H2018 0.959 . S
C2030 C2028 1.561 . S
C2031 C2028 1.526 . S
C2031 C2032 1.396 . S
C2031 C2036 1.390 . S
C2032 C2026 1.465 . S
C2032 C2031 1.396 . S
C2032 C2033 1.399 . S
C2033 H2019 0.929 . S
C2033 C2032 1.399 . S
C2033 C2034 1.385 . S
C2034 H2020 0.931 . S
C2034 C2033 1.385 . S
C2034 C2035 1.389 . S
C2035 C2034 1.389 . S
C2035 C2036 1.387 . S
C2036 H2021 0.930 . S
C2036 C2031 1.390 . S
C2036 C2035 1.387 . S
H2037 C2049 0.930 . S
H2038 C2051 0.930 . S
H2039 C2052 0.930 . S
H2040 C2056 0.959 . S
H2041 C2056 0.959 . S
H2042 C2056 0.961 . S
H2043 C2057 0.960 . S
H2044 C2057 0.961 . S
H2045 C2057 0.959 . S
H2046 C2060 0.929 . S
H2047 C2061 0.931 . S
H2048 C2063 0.930 . S
C2049 H2037 0.930 . S
C2049 C2050 1.399 . S
C2049 C2054 1.399 . S
C2050 C2049 1.399 . S
C2050 C2051 1.376 . S
C2051 H2038 0.930 . S
C2051 C2050 1.376 . S
C2051 C2052 1.388 . S
C2052 H2039 0.930 . S
C2052 C2051 1.388 . S
C2052 C2053 1.390 . S
C2053 C2052 1.390 . S
C2053 C2054 1.394 . S
C2053 C2059 1.465 . S
C2054 C2049 1.399 . S
C2054 C2053 1.394 . S
C2054 C2055 1.516 . S
C2055 C2054 1.516 . S
C2055 C2056 1.502 . S
C2055 C2057 1.561 . S
C2055 C2058 1.526 . S
C2056 H2040 0.959 . S
C2056 H2041 0.959 . S
C2056 H2042 0.961 . S
C2056 C2055 1.502 . S
C2057 H2043 0.960 . S
C2057 H2044 0.961 . S
C2057 H2045 0.959 . S
C2057 C2055 1.561 . S
C2058 C2055 1.526 . S
C2058 C2059 1.396 . S
C2058 C2063 1.390 . S
C2059 C2053 1.465 . S
C2059 C2058 1.396 . S
C2059 C2060 1.399 . S
C2060 H2046 0.929 . S
C2060 C2059 1.399 . S
C2060 C2061 1.385 . S
C2061 H2047 0.931 . S
C2061 C2060 1.385 . S
C2061 C2062 1.389 . S
C2062 C2061 1.389 . S
C2062 C2063 1.387 . S
C2063 H2048 0.930 . S
C2063 C2058 1.390 . S
C2063 C2062 1.387 . S
H2064 C2076 0.930 . S
H2065 C2078 0.930 . S
H2066 C2079 0.930 . S
H2067 C2083 0.959 . S
H2068 C2083 0.959 . S
H2069 C2083 0.961 1_455 S
H2070 C2084 0.960 . S
H2071 C2084 0.961 1_655 S
H2072 C2084 0.959 . S
H2073 C2087 0.929 . S
H2074 C2088 0.931 . S
H2075 C2090 0.930 . S
C2076 H2064 0.930 . S
C2076 C2077 1.399 . S
C2076 C2081 1.399 . S
C2077 C2076 1.399 . S
C2077 C2078 1.376 . S
C2078 H2065 0.930 . S
C2078 C2077 1.376 . S
C2078 C2079 1.388 . S
C2079 H2066 0.930 . S
C2079 C2078 1.388 . S
C2079 C2080 1.390 . S
C2080 C2079 1.390 . S
C2080 C2081 1.394 . S
C2080 C2086 1.465 1_455 S
C2081 C2076 1.399 . S
C2081 C2080 1.394 . S
C2081 C2082 1.528 . S
C2082 C2081 1.528 . S
C2082 C2083 1.500 1_455 S
C2082 C2084 1.563 . S
C2082 C2085 1.514 1_455 S
C2083 H2067 0.959 . S
C2083 H2068 0.959 . S
C2083 H2069 0.961 1_655 S
C2083 C2082 1.500 1_655 S
C2084 H2070 0.960 . S
C2084 H2071 0.961 1_455 S
C2084 H2072 0.959 . S
C2084 C2082 1.563 . S
C2085 C2082 1.514 1_655 S
C2085 C2086 1.396 . S
C2085 C2090 1.390 . S
C2086 C2080 1.465 1_655 S
C2086 C2085 1.396 . S
C2086 C2087 1.399 . S
C2087 H2073 0.929 . S
C2087 C2086 1.399 . S
C2087 C2088 1.385 . S
C2088 H2074 0.931 . S
C2088 C2087 1.385 . S
C2088 C2089 1.389 . S
C2089 C2088 1.389 . S
C2089 C2090 1.387 . S
C2090 H2075 0.930 . S
C2090 C2085 1.390 . S
C2090 C2089 1.387 . S
H2091 C2103 0.930 . S
H2092 C2105 0.930 . S
H2093 C2106 0.930 . S
H2094 C2110 0.966 . S
H2095 C2110 0.959 1_565 S
H2096 C2110 0.961 . S
H2097 C2111 0.960 . S
H2098 C2111 0.961 1_565 S
H2099 C2111 0.959 . S
H2100 C2114 0.929 . S
H2101 C2115 0.931 . S
H2102 C2117 0.930 . S
C2103 H2091 0.930 . S
C2103 C2104 1.399 . S
C2103 C2108 1.399 . S
C2104 C2103 1.399 . S
C2104 C2105 1.376 . S
C2105 H2092 0.930 . S
C2105 C2104 1.376 . S
C2105 C2106 1.388 . S
C2106 H2093 0.930 . S
C2106 C2105 1.388 . S
C2106 C2107 1.390 . S
C2107 C2106 1.390 . S
C2107 C2108 1.394 . S
C2107 C2113 1.465 1_545 S
C2108 C2103 1.399 . S
C2108 C2107 1.394 . S
C2108 C2109 1.516 . S
C2109 C2108 1.516 . S
C2109 C2110 1.502 . S
C2109 C2111 1.561 . S
C2109 C2112 1.526 1_545 S
C2110 H2094 0.966 . S
C2110 H2095 0.959 1_545 S
C2110 H2096 0.961 . S
C2110 C2109 1.502 . S
C2111 H2097 0.960 . S
C2111 H2098 0.961 1_545 S
C2111 H2099 0.959 . S
C2111 C2109 1.561 . S
C2112 C2109 1.526 1_565 S
C2112 C2113 1.396 . S
C2112 C2117 1.390 . S
C2113 C2107 1.465 1_565 S
C2113 C2112 1.396 . S
C2113 C2114 1.399 . S
C2114 H2100 0.929 . S
C2114 C2113 1.399 . S
C2114 C2115 1.385 . S
C2115 H2101 0.931 . S
C2115 C2114 1.385 . S
C2115 C2116 1.389 . S
C2116 C2115 1.389 . S
C2116 C2117 1.387 . S
C2117 H2102 0.930 . S
C2117 C2112 1.390 . S
C2117 C2116 1.387 . S
H2118 C2130 0.930 . S
H2119 C2132 0.930 . S
H2120 C2133 0.930 . S
H2121 C2137 0.959 . S
H2122 C2137 0.959 1_455 S
H2123 C2137 0.961 . S
H2124 C2138 0.960 1_655 S
H2125 C2138 0.961 . S
H2126 C2138 0.959 . S
H2127 C2141 0.929 . S
H2128 C2142 0.931 . S
H2129 C2144 0.930 . S
C2130 H2118 0.930 . S
C2130 C2131 1.399 . S
C2130 C2135 1.399 . S
C2131 C2130 1.399 . S
C2131 C2132 1.376 . S
C2132 H2119 0.930 . S
C2132 C2131 1.376 . S
C2132 C2133 1.388 . S
C2133 H2120 0.930 . S
C2133 C2132 1.388 . S
C2133 C2134 1.390 . S
C2134 C2133 1.390 . S
C2134 C2135 1.394 . S
C2134 C2140 1.465 1_655 S
C2135 C2130 1.399 . S
C2135 C2134 1.394 . S
C2135 C2136 1.541 . S
C2136 C2135 1.541 . S
C2136 C2137 1.505 . S
C2136 C2138 1.559 1_655 S
C2136 C2139 1.499 1_655 S
C2137 H2121 0.959 . S
C2137 H2122 0.959 1_655 S
C2137 H2123 0.961 . S
C2137 C2136 1.505 . S
C2138 H2124 0.960 1_455 S
C2138 H2125 0.961 . S
C2138 H2126 0.959 . S
C2138 C2136 1.559 1_455 S
C2139 C2136 1.499 1_455 S
C2139 C2140 1.396 . S
C2139 C2144 1.390 . S
C2140 C2134 1.465 1_455 S
C2140 C2139 1.396 . S
C2140 C2141 1.399 . S
C2141 H2127 0.929 . S
C2141 C2140 1.399 . S
C2141 C2142 1.385 . S
C2142 H2128 0.931 . S
C2142 C2141 1.385 . S
C2142 C2143 1.389 . S
C2143 C2142 1.389 . S
C2143 C2144 1.387 . S
C2144 H2129 0.930 . S
C2144 C2139 1.390 . S
C2144 C2143 1.387 . S
H2145 C2157 0.930 . S
H2146 C2159 0.930 . S
H2147 C2160 0.930 . S
H2148 C2164 0.959 . S
H2149 C2164 0.959 . S
H2150 C2164 0.961 1_545 S
H2151 C2165 0.960 1_545 S
H2152 C2165 0.961 . S
H2153 C2165 0.959 . S
H2154 C2168 0.929 . S
H2155 C2169 0.931 . S
H2156 C2171 0.930 . S
C2157 H2145 0.930 . S
C2157 C2158 1.399 . S
C2157 C2162 1.399 . S
C2158 C2157 1.399 . S
C2158 C2159 1.376 . S
C2159 H2146 0.930 . S
C2159 C2158 1.376 . S
C2159 C2160 1.388 . S
C2160 H2147 0.930 . S
C2160 C2159 1.388 . S
C2160 C2161 1.390 . S
C2161 C2160 1.390 . S
C2161 C2162 1.394 . S
C2161 C2167 1.465 1_545 S
C2162 C2157 1.399 . S
C2162 C2161 1.394 . S
C2162 C2163 1.516 1_545 S
C2163 C2162 1.516 1_565 S
C2163 C2164 1.502 . S
C2163 C2165 1.561 . S
C2163 C2166 1.526 . S
C2164 H2148 0.959 . S
C2164 H2149 0.959 . S
C2164 H2150 0.961 1_565 S
C2164 C2163 1.502 . S
C2165 H2151 0.960 1_565 S
C2165 H2152 0.961 . S
C2165 H2153 0.959 . S
C2165 C2163 1.561 . S
C2166 C2163 1.526 . S
C2166 C2167 1.396 . S
C2166 C2171 1.390 . S
C2167 C2161 1.465 1_565 S
C2167 C2166 1.396 . S
C2167 C2168 1.399 . S
C2168 H2154 0.929 . S
C2168 C2167 1.399 . S
C2168 C2169 1.385 . S
C2169 H2155 0.931 . S
C2169 C2168 1.385 . S
C2169 C2170 1.389 . S
C2170 C2169 1.389 . S
C2170 C2171 1.387 . S
C2171 H2156 0.930 . S
C2171 C2166 1.390 . S
C2171 C2170 1.387 . S
H2172 C2184 0.930 . S
H2173 C2186 0.930 . S
H2174 C2187 0.930 . S
H2175 C2191 0.959 . S
H2176 C2191 0.959 1_545 S
H2177 C2191 0.961 . S
H2178 C2192 0.916 1_565 S
H2179 C2192 1.000 . S
H2180 C2192 0.970 . S
H2181 C2195 0.929 . S
H2182 C2196 0.931 . S
H2183 C2198 0.930 . S
C2184 H2172 0.930 . S
C2184 C2185 1.399 . S
C2184 C2189 1.399 . S
C2185 C2184 1.399 . S
C2185 C2186 1.376 . S
C2186 H2173 0.930 . S
C2186 C2185 1.376 . S
C2186 C2187 1.388 . S
C2187 H2174 0.930 . S
C2187 C2186 1.388 . S
C2187 C2188 1.390 . S
C2188 C2187 1.390 . S
C2188 C2189 1.394 . S
C2188 C2194 1.465 1_565 S
C2189 C2184 1.399 . S
C2189 C2188 1.394 . S
C2189 C2190 1.549 . S
C2190 C2189 1.549 . S
C2190 C2191 1.506 . S
C2190 C2192 1.558 1_565 S
C2190 C2193 1.492 1_565 S
C2191 H2175 0.959 . S
C2191 H2176 0.959 1_565 S
C2191 H2177 0.961 . S
C2191 C2190 1.506 . S
C2192 H2178 0.916 1_545 S
C2192 H2179 1.000 . S
C2192 H2180 0.970 . S
C2192 C2190 1.558 1_545 S
C2193 C2190 1.492 1_545 S
C2193 C2194 1.396 . S
C2193 C2198 1.390 . S
C2194 C2188 1.465 1_545 S
C2194 C2193 1.396 . S
C2194 C2195 1.399 . S
C2195 H2181 0.929 . S
C2195 C2194 1.399 . S
C2195 C2196 1.385 . S
C2196 H2182 0.931 . S
C2196 C2195 1.385 . S
C2196 C2197 1.389 . S
C2197 C2196 1.389 . S
C2197 C2198 1.387 . S
C2198 H2183 0.930 . S
C2198 C2193 1.390 . S
C2198 C2197 1.387 . S
H2199 C2211 0.930 . S
H2200 C2213 0.930 . S
H2201 C2214 0.930 . S
H2202 C2218 0.959 . S
H2203 C2218 0.959 1_455 S
H2204 C2218 0.961 . S
H2205 C2219 0.960 1_655 S
H2206 C2219 0.961 . S
H2207 C2219 0.959 . S
H2208 C2222 0.929 . S
H2209 C2223 0.931 . S
H2210 C2225 0.930 . S
C2211 H2199 0.930 . S
C2211 C2212 1.399 . S
C2211 C2216 1.399 . S
C2212 C2211 1.399 . S
C2212 C2213 1.376 . S
C2213 H2200 0.930 . S
C2213 C2212 1.376 . S
C2213 C2214 1.388 . S
C2214 H2201 0.930 . S
C2214 C2213 1.388 . S
C2214 C2215 1.390 . S
C2215 C2214 1.390 . S
C2215 C2216 1.394 . S
C2215 C2221 1.465 1_655 S
C2216 C2211 1.399 . S
C2216 C2215 1.394 . S
C2216 C2217 1.548 . S
C2217 C2216 1.548 . S
C2217 C2218 1.506 . S
C2217 C2219 1.559 1_655 S
C2217 C2220 1.493 1_655 S
C2218 H2202 0.959 . S
C2218 H2203 0.959 1_655 S
C2218 H2204 0.961 . S
C2218 C2217 1.506 . S
C2219 H2205 0.960 1_455 S
C2219 H2206 0.961 . S
C2219 H2207 0.959 . S
C2219 C2217 1.559 1_455 S
C2220 C2217 1.493 1_455 S
C2220 C2221 1.396 . S
C2220 C2225 1.390 . S
C2221 C2215 1.465 1_455 S
C2221 C2220 1.396 . S
C2221 C2222 1.399 . S
C2222 H2208 0.929 . S
C2222 C2221 1.399 . S
C2222 C2223 1.385 . S
C2223 H2209 0.931 . S
C2223 C2222 1.385 . S
C2223 C2224 1.389 . S
C2224 C2223 1.389 . S
C2224 C2225 1.387 . S
C2225 H2210 0.930 . S
C2225 C2220 1.390 . S
C2225 C2224 1.387 . S
H2226 C2238 0.930 . S
H2227 C2240 0.930 . S
H2228 C2241 0.930 . S
H2229 C2245 0.959 . S
H2230 C2245 0.959 1_545 S
H2231 C2245 0.961 . S
H2232 C2246 0.960 1_565 S
H2233 C2246 0.961 . S
H2234 C2246 0.959 . S
H2235 C2249 0.929 . S
H2236 C2250 0.931 . S
H2237 C2252 0.930 . S
C2238 H2226 0.930 . S
C2238 C2239 1.399 . S
C2238 C2243 1.399 . S
C2239 C2238 1.399 . S
C2239 C2240 1.376 . S
C2240 H2227 0.930 . S
C2240 C2239 1.376 . S
C2240 C2241 1.388 . S
C2241 H2228 0.930 . S
C2241 C2240 1.388 . S
C2241 C2242 1.390 . S
C2242 C2241 1.390 . S
C2242 C2243 1.394 . S
C2242 C2248 1.465 1_565 S
C2243 C2238 1.399 . S
C2243 C2242 1.394 . S
C2243 C2244 1.543 . S
C2244 C2243 1.543 . S
C2244 C2245 1.505 . S
C2244 C2246 1.559 1_565 S
C2244 C2247 1.498 1_565 S
C2245 H2229 0.959 . S
C2245 H2230 0.959 1_565 S
C2245 H2231 0.961 . S
C2245 C2244 1.505 . S
C2246 H2232 0.960 1_545 S
C2246 H2233 0.961 . S
C2246 H2234 0.959 . S
C2246 C2244 1.559 1_545 S
C2247 C2244 1.498 1_545 S
C2247 C2248 1.396 . S
C2247 C2252 1.390 . S
C2248 C2242 1.465 1_545 S
C2248 C2247 1.396 . S
C2248 C2249 1.399 . S
C2249 H2235 0.929 . S
C2249 C2248 1.399 . S
C2249 C2250 1.385 . S
C2250 H2236 0.931 . S
C2250 C2249 1.385 . S
C2250 C2251 1.389 . S
C2251 C2250 1.389 . S
C2251 C2252 1.387 . S
C2252 H2237 0.930 . S
C2252 C2247 1.390 . S
C2252 C2251 1.387 . S
H2253 C2265 0.930 . S
H2254 C2267 0.930 . S
H2255 C2268 0.930 . S
H2256 C2272 0.959 . S
H2257 C2272 0.959 . S
H2258 C2272 0.961 1_655 S
H2259 C2273 0.962 1_655 S
H2260 C2273 0.959 . S
H2261 C2273 0.959 1_655 S
H2262 C2276 0.929 . S
H2263 C2277 0.931 . S
H2264 C2279 0.930 . S
C2265 H2253 0.930 . S
C2265 C2266 1.399 . S
C2265 C2270 1.399 . S
C2266 C2265 1.399 . S
C2266 C2267 1.376 . S
C2267 H2254 0.930 . S
C2267 C2266 1.376 . S
C2267 C2268 1.388 . S
C2268 H2255 0.930 . S
C2268 C2267 1.388 . S
C2268 C2269 1.390 . S
C2269 C2268 1.390 . S
C2269 C2270 1.394 . S
C2269 C2275 1.465 1_655 S
C2270 C2265 1.399 . S
C2270 C2269 1.394 . S
C2270 C2271 1.516 1_655 S
C2271 C2270 1.516 1_455 S
C2271 C2272 1.502 . S
C2271 C2273 1.561 . S
C2271 C2274 1.526 . S
C2272 H2256 0.959 . S
C2272 H2257 0.959 . S
C2272 H2258 0.961 1_455 S
C2272 C2271 1.502 . S
C2273 H2259 0.962 1_455 S
C2273 H2260 0.959 . S
C2273 H2261 0.959 1_455 S
C2273 C2271 1.561 . S
C2274 C2271 1.526 . S
C2274 C2275 1.396 . S
C2274 C2279 1.390 . S
C2275 C2269 1.465 1_455 S
C2275 C2274 1.396 . S
C2275 C2276 1.399 . S
C2276 H2262 0.929 . S
C2276 C2275 1.399 . S
C2276 C2277 1.385 . S
C2277 H2263 0.931 . S
C2277 C2276 1.385 . S
C2277 C2278 1.389 . S
C2278 C2277 1.389 . S
C2278 C2279 1.387 . S
C2279 H2264 0.930 . S
C2279 C2274 1.390 . S
C2279 C2278 1.387 . S
H2280 C2292 0.930 . S
H2281 C2294 0.930 . S
H2282 C2295 0.930 . S
H2283 C2299 0.959 . S
H2284 C2299 0.959 . S
H2285 C2299 0.961 1_556 S
H2286 C2300 0.960 1_556 S
H2287 C2300 0.961 . S
H2288 C2300 0.959 . S
H2289 C2303 0.929 . S
H2290 C2304 0.931 . S
H2291 C2306 0.930 . S
C2292 H2280 0.930 . S
C2292 C2293 1.399 . S
C2292 C2297 1.399 . S
C2293 C2292 1.399 . S
C2293 C2294 1.376 . S
C2294 H2281 0.930 . S
C2294 C2293 1.376 . S
C2294 C2295 1.388 . S
C2295 H2282 0.930 . S
C2295 C2294 1.388 . S
C2295 C2296 1.390 . S
C2296 C2295 1.390 . S
C2296 C2297 1.394 . S
C2296 C2302 1.465 1_556 S
C2297 C2292 1.399 . S
C2297 C2296 1.394 . S
C2297 C2298 1.516 1_556 S
C2298 C2297 1.516 1_554 S
C2298 C2299 1.502 . S
C2298 C2300 1.561 . S
C2298 C2301 1.526 . S
C2299 H2283 0.959 . S
C2299 H2284 0.959 . S
C2299 H2285 0.961 1_554 S
C2299 C2298 1.502 . S
C2300 H2286 0.960 1_554 S
C2300 H2287 0.961 . S
C2300 H2288 0.959 . S
C2300 C2298 1.561 . S
C2301 C2298 1.526 . S
C2301 C2302 1.396 . S
C2301 C2306 1.390 . S
C2302 C2296 1.465 1_554 S
C2302 C2301 1.396 . S
C2302 C2303 1.399 . S
C2303 H2289 0.929 . S
C2303 C2302 1.399 . S
C2303 C2304 1.385 . S
C2304 H2290 0.931 . S
C2304 C2303 1.385 . S
C2304 C2305 1.389 . S
C2305 C2304 1.389 . S
C2305 C2306 1.387 . S
C2306 H2291 0.930 . S
C2306 C2301 1.390 . S
C2306 C2305 1.387 . S
H2307 C2319 0.930 . S
H2308 C2321 0.930 . S
H2309 C2322 0.930 . S
H2310 C2326 0.959 . S
H2311 C2326 0.959 . S
H2312 C2326 0.961 1_556 S
H2313 C2327 0.993 . S
H2314 C2327 0.930 1_554 S
H2315 C2327 0.960 . S
H2316 C2330 0.929 . S
H2317 C2331 0.931 . S
H2318 C2333 0.930 . S
C2319 H2307 0.930 . S
C2319 C2320 1.399 . S
C2319 C2324 1.399 . S
C2320 C2319 1.399 . S
C2320 C2321 1.376 . S
C2321 H2308 0.930 . S
C2321 C2320 1.376 . S
C2321 C2322 1.388 . S
C2322 H2309 0.930 . S
C2322 C2321 1.388 . S
C2322 C2323 1.390 . S
C2323 C2322 1.390 . S
C2323 C2324 1.394 . S
C2323 C2329 1.465 1_556 S
C2324 C2319 1.399 . S
C2324 C2323 1.394 . S
C2324 C2325 1.477 1_556 S
C2325 C2324 1.477 1_554 S
C2325 C2326 1.509 . S
C2325 C2327 1.558 1_554 S
C2325 C2328 1.564 . S
C2326 H2310 0.959 . S
C2326 H2311 0.959 . S
C2326 H2312 0.961 1_554 S
C2326 C2325 1.509 . S
C2327 H2313 0.993 . S
C2327 H2314 0.930 1_556 S
C2327 H2315 0.960 . S
C2327 C2325 1.558 1_556 S
C2328 C2325 1.564 . S
C2328 C2329 1.396 . S
C2328 C2333 1.390 . S
C2329 C2323 1.465 1_554 S
C2329 C2328 1.396 . S
C2329 C2330 1.399 . S
C2330 H2316 0.929 . S
C2330 C2329 1.399 . S
C2330 C2331 1.385 . S
C2331 H2317 0.931 . S
C2331 C2330 1.385 . S
C2331 C2332 1.389 . S
C2332 C2331 1.389 . S
C2332 C2333 1.387 . S
C2333 H2318 0.930 . S
C2333 C2328 1.390 . S
C2333 C2332 1.387 . S
H2334 C2346 0.930 . S
H2335 C2348 0.930 . S
H2336 C2349 0.930 . S
H2337 C2353 0.963 . S
H2338 C2353 0.959 1_554 S
H2339 C2353 0.961 . S
H2340 C2354 0.960 . S
H2341 C2354 0.961 1_554 S
H2342 C2354 0.959 . S
H2343 C2357 0.929 . S
H2344 C2358 0.931 . S
H2345 C2360 0.930 . S
C2346 H2334 0.930 . S
C2346 C2347 1.399 . S
C2346 C2351 1.399 . S
C2347 C2346 1.399 . S
C2347 C2348 1.376 . S
C2348 H2335 0.930 . S
C2348 C2347 1.376 . S
C2348 C2349 1.388 . S
C2349 H2336 0.930 . S
C2349 C2348 1.388 . S
C2349 C2350 1.390 . S
C2350 C2349 1.390 . S
C2350 C2351 1.394 . S
C2350 C2356 1.465 1_556 S
C2351 C2346 1.399 . S
C2351 C2350 1.394 . S
C2351 C2352 1.516 . S
C2352 C2351 1.516 . S
C2352 C2353 1.502 . S
C2352 C2354 1.561 . S
C2352 C2355 1.526 1_556 S
C2353 H2337 0.963 . S
C2353 H2338 0.959 1_556 S
C2353 H2339 0.961 . S
C2353 C2352 1.502 . S
C2354 H2340 0.960 . S
C2354 H2341 0.961 1_556 S
C2354 H2342 0.959 . S
C2354 C2352 1.561 . S
C2355 C2352 1.526 1_554 S
C2355 C2356 1.396 . S
C2355 C2360 1.390 . S
C2356 C2350 1.465 1_554 S
C2356 C2355 1.396 . S
C2356 C2357 1.399 . S
C2357 H2343 0.929 . S
C2357 C2356 1.399 . S
C2357 C2358 1.385 . S
C2358 H2344 0.931 . S
C2358 C2357 1.385 . S
C2358 C2359 1.389 . S
C2359 C2358 1.389 . S
C2359 C2360 1.387 . S
C2360 H2345 0.930 . S
C2360 C2355 1.390 . S
C2360 C2359 1.387 . S
H2361 C2373 0.930 . S
H2362 C2375 0.930 . S
H2363 C2376 0.930 . S
H2364 C2380 0.959 . S
H2365 C2380 0.959 1_554 S
H2366 C2380 0.961 . S
H2367 C2381 0.960 1_556 S
H2368 C2381 0.961 . S
H2369 C2381 0.959 . S
H2370 C2384 0.929 . S
H2371 C2385 0.931 . S
H2372 C2387 0.930 . S
C2373 H2361 0.930 . S
C2373 C2374 1.399 . S
C2373 C2378 1.399 . S
C2374 C2373 1.399 . S
C2374 C2375 1.376 . S
C2375 H2362 0.930 . S
C2375 C2374 1.376 . S
C2375 C2376 1.388 . S
C2376 H2363 0.930 . S
C2376 C2375 1.388 . S
C2376 C2377 1.390 . S
C2377 C2376 1.390 . S
C2377 C2378 1.394 . S
C2377 C2383 1.465 1_556 S
C2378 C2373 1.399 . S
C2378 C2377 1.394 . S
C2378 C2379 1.537 . S
C2379 C2378 1.537 . S
C2379 C2380 1.504 . S
C2379 C2381 1.559 1_556 S
C2379 C2382 1.504 1_556 S
C2380 H2364 0.959 . S
C2380 H2365 0.959 1_556 S
C2380 H2366 0.961 . S
C2380 C2379 1.504 . S
C2381 H2367 0.960 1_554 S
C2381 H2368 0.961 . S
C2381 H2369 0.959 . S
C2381 C2379 1.559 1_554 S
C2382 C2379 1.504 1_554 S
C2382 C2383 1.396 . S
C2382 C2387 1.390 . S
C2383 C2377 1.465 1_554 S
C2383 C2382 1.396 . S
C2383 C2384 1.399 . S
C2384 H2370 0.929 . S
C2384 C2383 1.399 . S
C2384 C2385 1.385 . S
C2385 H2371 0.931 . S
C2385 C2384 1.385 . S
C2385 C2386 1.389 . S
C2386 C2385 1.389 . S
C2386 C2387 1.387 . S
C2387 H2372 0.930 . S
C2387 C2382 1.390 . S
C2387 C2386 1.387 . S
H2388 C2400 0.930 . S
H2389 C2402 0.930 . S
H2390 C2403 0.930 . S
H2391 C2407 0.959 . S
H2392 C2407 0.959 . S
H2393 C2407 0.961 . S
H2394 C2408 0.960 . S
H2395 C2408 0.961 . S
H2396 C2408 0.959 . S
H2397 C2411 0.929 . S
H2398 C2412 0.931 . S
H2399 C2414 0.930 . S
C2400 H2388 0.930 . S
C2400 C2401 1.399 . S
C2400 C2405 1.399 . S
C2401 C2400 1.399 . S
C2401 C2402 1.376 . S
C2402 H2389 0.930 . S
C2402 C2401 1.376 . S
C2402 C2403 1.388 . S
C2403 H2390 0.930 . S
C2403 C2402 1.388 . S
C2403 C2404 1.390 . S
C2404 C2403 1.390 . S
C2404 C2405 1.394 . S
C2404 C2410 1.465 . S
C2405 C2400 1.399 . S
C2405 C2404 1.394 . S
C2405 C2406 1.516 . S
C2406 C2405 1.516 . S
C2406 C2407 1.502 . S
C2406 C2408 1.561 . S
C2406 C2409 1.526 . S
C2407 H2391 0.959 . S
C2407 H2392 0.959 . S
C2407 H2393 0.961 . S
C2407 C2406 1.502 . S
C2408 H2394 0.960 . S
C2408 H2395 0.961 . S
C2408 H2396 0.959 . S
C2408 C2406 1.561 . S
C2409 C2406 1.526 . S
C2409 C2410 1.396 . S
C2409 C2414 1.390 . S
C2410 C2404 1.465 . S
C2410 C2409 1.396 . S
C2410 C2411 1.399 . S
C2411 H2397 0.929 . S
C2411 C2410 1.399 . S
C2411 C2412 1.385 . S
C2412 H2398 0.931 . S
C2412 C2411 1.385 . S
C2412 C2413 1.389 . S
C2413 C2412 1.389 . S
C2413 C2414 1.387 . S
C2414 H2399 0.930 . S
C2414 C2409 1.390 . S
C2414 C2413 1.387 . S
H2415 C2427 0.930 . S
H2416 C2429 0.930 . S
H2417 C2430 0.930 . S
H2418 C2434 0.959 . S
H2419 C2434 0.959 . S
H2420 C2434 0.961 . S
H2421 C2435 0.960 . S
H2422 C2435 0.961 . S
H2423 C2435 0.959 . S
H2424 C2438 0.929 . S
H2425 C2439 0.931 . S
H2426 C2441 0.930 . S
C2427 H2415 0.930 . S
C2427 C2428 1.399 . S
C2427 C2432 1.399 . S
C2428 C2427 1.399 . S
C2428 C2429 1.376 . S
C2429 H2416 0.930 . S
C2429 C2428 1.376 . S
C2429 C2430 1.388 . S
C2430 H2417 0.930 . S
C2430 C2429 1.388 . S
C2430 C2431 1.390 . S
C2431 C2430 1.390 . S
C2431 C2432 1.394 . S
C2431 C2437 1.465 . S
C2432 C2427 1.399 . S
C2432 C2431 1.394 . S
C2432 C2433 1.516 . S
C2433 C2432 1.516 . S
C2433 C2434 1.502 . S
C2433 C2435 1.561 . S
C2433 C2436 1.526 . S
C2434 H2418 0.959 . S
C2434 H2419 0.959 . S
C2434 H2420 0.961 . S
C2434 C2433 1.502 . S
C2435 H2421 0.960 . S
C2435 H2422 0.961 . S
C2435 H2423 0.959 . S
C2435 C2433 1.561 . S
C2436 C2433 1.526 . S
C2436 C2437 1.396 . S
C2436 C2441 1.390 . S
C2437 C2431 1.465 . S
C2437 C2436 1.396 . S
C2437 C2438 1.399 . S
C2438 H2424 0.929 . S
C2438 C2437 1.399 . S
C2438 C2439 1.385 . S
C2439 H2425 0.931 . S
C2439 C2438 1.385 . S
C2439 C2440 1.389 . S
C2440 C2439 1.389 . S
C2440 C2441 1.387 . S
C2441 H2426 0.930 . S
C2441 C2436 1.390 . S
C2441 C2440 1.387 . S
H2442 C2454 0.930 . S
H2443 C2456 0.930 . S
H2444 C2457 0.930 . S
H2445 C2461 0.959 . S
H2446 C2461 0.959 . S
H2447 C2461 0.961 . S
H2448 C2462 0.960 . S
H2449 C2462 0.961 . S
H2450 C2462 0.959 . S
H2451 C2465 0.929 . S
H2452 C2466 0.931 . S
H2453 C2468 0.930 . S
C2454 H2442 0.930 . S
C2454 C2455 1.399 . S
C2454 C2459 1.399 . S
C2455 C2454 1.399 . S
C2455 C2456 1.376 . S
C2456 H2443 0.930 . S
C2456 C2455 1.376 . S
C2456 C2457 1.388 . S
C2457 H2444 0.930 . S
C2457 C2456 1.388 . S
C2457 C2458 1.390 . S
C2458 C2457 1.390 . S
C2458 C2459 1.394 . S
C2458 C2464 1.465 . S
C2459 C2454 1.399 . S
C2459 C2458 1.394 . S
C2459 C2460 1.516 . S
C2460 C2459 1.516 . S
C2460 C2461 1.502 . S
C2460 C2462 1.561 . S
C2460 C2463 1.526 . S
C2461 H2445 0.959 . S
C2461 H2446 0.959 . S
C2461 H2447 0.961 . S
C2461 C2460 1.502 . S
C2462 H2448 0.960 . S
C2462 H2449 0.961 . S
C2462 H2450 0.959 . S
C2462 C2460 1.561 . S
C2463 C2460 1.526 . S
C2463 C2464 1.396 . S
C2463 C2468 1.390 . S
C2464 C2458 1.465 . S
C2464 C2463 1.396 . S
C2464 C2465 1.399 . S
C2465 H2451 0.929 . S
C2465 C2464 1.399 . S
C2465 C2466 1.385 . S
C2466 H2452 0.931 . S
C2466 C2465 1.385 . S
C2466 C2467 1.389 . S
C2467 C2466 1.389 . S
C2467 C2468 1.387 . S
C2468 H2453 0.930 . S
C2468 C2463 1.390 . S
C2468 C2467 1.387 . S
H2469 C2481 0.930 . S
H2470 C2483 0.930 . S
H2471 C2484 0.930 . S
H2472 C2488 0.959 . S
H2473 C2488 0.959 . S
H2474 C2488 0.961 . S
H2475 C2489 0.960 . S
H2476 C2489 0.961 . S
H2477 C2489 0.959 . S
H2478 C2492 0.929 . S
H2479 C2493 0.931 . S
H2480 C2495 0.930 . S
C2481 H2469 0.930 . S
C2481 C2482 1.399 . S
C2481 C2486 1.399 . S
C2482 C2481 1.399 . S
C2482 C2483 1.376 . S
C2483 H2470 0.930 . S
C2483 C2482 1.376 . S
C2483 C2484 1.388 . S
C2484 H2471 0.930 . S
C2484 C2483 1.388 . S
C2484 C2485 1.390 . S
C2485 C2484 1.390 . S
C2485 C2486 1.394 . S
C2485 C2491 1.465 . S
C2486 C2481 1.399 . S
C2486 C2485 1.394 . S
C2486 C2487 1.516 . S
C2487 C2486 1.516 . S
C2487 C2488 1.502 . S
C2487 C2489 1.561 . S
C2487 C2490 1.526 . S
C2488 H2472 0.959 . S
C2488 H2473 0.959 . S
C2488 H2474 0.961 . S
C2488 C2487 1.502 . S
C2489 H2475 0.960 . S
C2489 H2476 0.961 . S
C2489 H2477 0.959 . S
C2489 C2487 1.561 . S
C2490 C2487 1.526 . S
C2490 C2491 1.396 . S
C2490 C2495 1.390 . S
C2491 C2485 1.465 . S
C2491 C2490 1.396 . S
C2491 C2492 1.399 . S
C2492 H2478 0.929 . S
C2492 C2491 1.399 . S
C2492 C2493 1.385 . S
C2493 H2479 0.931 . S
C2493 C2492 1.385 . S
C2493 C2494 1.389 . S
C2494 C2493 1.389 . S
C2494 C2495 1.387 . S
C2495 H2480 0.930 . S
C2495 C2490 1.390 . S
C2495 C2494 1.387 . S
H2496 C2508 0.930 . S
H2497 C2510 0.930 . S
H2498 C2511 0.930 . S
H2499 C2515 0.959 . S
H2500 C2515 0.959 . S
H2501 C2515 0.961 . S
H2502 C2516 0.960 . S
H2503 C2516 0.961 . S
H2504 C2516 0.959 . S
H2505 C2519 0.929 . S
H2506 C2520 0.931 . S
H2507 C2522 0.930 . S
C2508 H2496 0.930 . S
C2508 C2509 1.399 . S
C2508 C2513 1.399 . S
C2509 C2508 1.399 . S
C2509 C2510 1.376 . S
C2510 H2497 0.930 . S
C2510 C2509 1.376 . S
C2510 C2511 1.388 . S
C2511 H2498 0.930 . S
C2511 C2510 1.388 . S
C2511 C2512 1.390 . S
C2512 C2511 1.390 . S
C2512 C2513 1.394 . S
C2512 C2518 1.465 . S
C2513 C2508 1.399 . S
C2513 C2512 1.394 . S
C2513 C2514 1.516 . S
C2514 C2513 1.516 . S
C2514 C2515 1.502 . S
C2514 C2516 1.561 . S
C2514 C2517 1.526 . S
C2515 H2499 0.959 . S
C2515 H2500 0.959 . S
C2515 H2501 0.961 . S
C2515 C2514 1.502 . S
C2516 H2502 0.960 . S
C2516 H2503 0.961 . S
C2516 H2504 0.959 . S
C2516 C2514 1.561 . S
C2517 C2514 1.526 . S
C2517 C2518 1.396 . S
C2517 C2522 1.390 . S
C2518 C2512 1.465 . S
C2518 C2517 1.396 . S
C2518 C2519 1.399 . S
C2519 H2505 0.929 . S
C2519 C2518 1.399 . S
C2519 C2520 1.385 . S
C2520 H2506 0.931 . S
C2520 C2519 1.385 . S
C2520 C2521 1.389 . S
C2521 C2520 1.389 . S
C2521 C2522 1.387 . S
C2522 H2507 0.930 . S
C2522 C2517 1.390 . S
C2522 C2521 1.387 . S
H2523 C2535 0.930 . S
H2524 C2537 0.930 . S
H2525 C2538 0.930 . S
H2526 C2542 0.959 . S
H2527 C2542 0.959 . S
H2528 C2542 0.961 . S
H2529 C2543 0.960 . S
H2530 C2543 0.961 . S
H2531 C2543 0.959 . S
H2532 C2546 0.929 . S
H2533 C2547 0.931 . S
H2534 C2549 0.930 . S
C2535 H2523 0.930 . S
C2535 C2536 1.399 . S
C2535 C2540 1.399 . S
C2536 C2535 1.399 . S
C2536 C2537 1.376 . S
C2537 H2524 0.930 . S
C2537 C2536 1.376 . S
C2537 C2538 1.388 . S
C2538 H2525 0.930 . S
C2538 C2537 1.388 . S
C2538 C2539 1.390 . S
C2539 C2538 1.390 . S
C2539 C2540 1.394 . S
C2539 C2545 1.465 . S
C2540 C2535 1.399 . S
C2540 C2539 1.394 . S
C2540 C2541 1.516 . S
C2541 C2540 1.516 . S
C2541 C2542 1.502 . S
C2541 C2543 1.561 . S
C2541 C2544 1.526 . S
C2542 H2526 0.959 . S
C2542 H2527 0.959 . S
C2542 H2528 0.961 . S
C2542 C2541 1.502 . S
C2543 H2529 0.960 . S
C2543 H2530 0.961 . S
C2543 H2531 0.959 . S
C2543 C2541 1.561 . S
C2544 C2541 1.526 . S
C2544 C2545 1.396 . S
C2544 C2549 1.390 . S
C2545 C2539 1.465 . S
C2545 C2544 1.396 . S
C2545 C2546 1.399 . S
C2546 H2532 0.929 . S
C2546 C2545 1.399 . S
C2546 C2547 1.385 . S
C2547 H2533 0.931 . S
C2547 C2546 1.385 . S
C2547 C2548 1.389 . S
C2548 C2547 1.389 . S
C2548 C2549 1.387 . S
C2549 H2534 0.930 . S
C2549 C2544 1.390 . S
C2549 C2548 1.387 . S
H2550 C2562 0.930 . S
H2551 C2564 0.930 . S
H2552 C2565 0.930 . S
H2553 C2569 0.959 . S
H2554 C2569 0.959 . S
H2555 C2569 0.961 . S
H2556 C2570 0.960 . S
H2557 C2570 0.961 . S
H2558 C2570 0.959 . S
H2559 C2573 0.929 . S
H2560 C2574 0.931 . S
H2561 C2576 0.930 . S
C2562 H2550 0.930 . S
C2562 C2563 1.399 . S
C2562 C2567 1.399 . S
C2563 C2562 1.399 . S
C2563 C2564 1.376 . S
C2564 H2551 0.930 . S
C2564 C2563 1.376 . S
C2564 C2565 1.388 . S
C2565 H2552 0.930 . S
C2565 C2564 1.388 . S
C2565 C2566 1.390 . S
C2566 C2565 1.390 . S
C2566 C2567 1.394 . S
C2566 C2572 1.465 . S
C2567 C2562 1.399 . S
C2567 C2566 1.394 . S
C2567 C2568 1.516 . S
C2568 C2567 1.516 . S
C2568 C2569 1.502 . S
C2568 C2570 1.561 . S
C2568 C2571 1.526 . S
C2569 H2553 0.959 . S
C2569 H2554 0.959 . S
C2569 H2555 0.961 . S
C2569 C2568 1.502 . S
C2570 H2556 0.960 . S
C2570 H2557 0.961 . S
C2570 H2558 0.959 . S
C2570 C2568 1.561 . S
C2571 C2568 1.526 . S
C2571 C2572 1.396 . S
C2571 C2576 1.390 . S
C2572 C2566 1.465 . S
C2572 C2571 1.396 . S
C2572 C2573 1.399 . S
C2573 H2559 0.929 . S
C2573 C2572 1.399 . S
C2573 C2574 1.385 . S
C2574 H2560 0.931 . S
C2574 C2573 1.385 . S
C2574 C2575 1.389 . S
C2575 C2574 1.389 . S
C2575 C2576 1.387 . S
C2576 H2561 0.930 . S
C2576 C2571 1.390 . S
C2576 C2575 1.387 . S
H2577 C2589 0.930 . S
H2578 C2591 0.930 . S
H2579 C2592 0.930 . S
H2580 C2596 0.959 . S
H2581 C2596 0.959 . S
H2582 C2596 0.961 . S
H2583 C2597 0.960 . S
H2584 C2597 0.961 . S
H2585 C2597 0.959 . S
H2586 C2600 0.929 . S
H2587 C2601 0.931 . S
H2588 C2603 0.930 . S
C2589 H2577 0.930 . S
C2589 C2590 1.399 . S
C2589 C2594 1.399 . S
C2590 C2589 1.399 . S
C2590 C2591 1.376 . S
C2591 H2578 0.930 . S
C2591 C2590 1.376 . S
C2591 C2592 1.388 . S
C2592 H2579 0.930 . S
C2592 C2591 1.388 . S
C2592 C2593 1.390 . S
C2593 C2592 1.390 . S
C2593 C2594 1.394 . S
C2593 C2599 1.465 . S
C2594 C2589 1.399 . S
C2594 C2593 1.394 . S
C2594 C2595 1.516 . S
C2595 C2594 1.516 . S
C2595 C2596 1.502 . S
C2595 C2597 1.561 . S
C2595 C2598 1.526 . S
C2596 H2580 0.959 . S
C2596 H2581 0.959 . S
C2596 H2582 0.961 . S
C2596 C2595 1.502 . S
C2597 H2583 0.960 . S
C2597 H2584 0.961 . S
C2597 H2585 0.959 . S
C2597 C2595 1.561 . S
C2598 C2595 1.526 . S
C2598 C2599 1.396 . S
C2598 C2603 1.390 . S
C2599 C2593 1.465 . S
C2599 C2598 1.396 . S
C2599 C2600 1.399 . S
C2600 H2586 0.929 . S
C2600 C2599 1.399 . S
C2600 C2601 1.385 . S
C2601 H2587 0.931 . S
C2601 C2600 1.385 . S
C2601 C2602 1.389 . S
C2602 C2601 1.389 . S
C2602 C2603 1.387 . S
C2603 H2588 0.930 . S
C2603 C2598 1.390 . S
C2603 C2602 1.387 . S
H2604 C2616 0.930 . S
H2605 C2618 0.930 . S
H2606 C2619 0.930 . S
H2607 C2623 0.959 . S
H2608 C2623 0.959 . S
H2609 C2623 0.961 . S
H2610 C2624 0.960 . S
H2611 C2624 0.961 . S
H2612 C2624 0.959 . S
H2613 C2627 0.929 . S
H2614 C2628 0.931 . S
H2615 C2630 0.930 . S
C2616 H2604 0.930 . S
C2616 C2617 1.399 . S
C2616 C2621 1.399 . S
C2617 C2616 1.399 . S
C2617 C2618 1.376 . S
C2618 H2605 0.930 . S
C2618 C2617 1.376 . S
C2618 C2619 1.388 . S
C2619 H2606 0.930 . S
C2619 C2618 1.388 . S
C2619 C2620 1.390 . S
C2620 C2619 1.390 . S
C2620 C2621 1.394 . S
C2620 C2626 1.465 . S
C2621 C2616 1.399 . S
C2621 C2620 1.394 . S
C2621 C2622 1.516 . S
C2622 C2621 1.516 . S
C2622 C2623 1.502 . S
C2622 C2624 1.561 . S
C2622 C2625 1.526 . S
C2623 H2607 0.959 . S
C2623 H2608 0.959 . S
C2623 H2609 0.961 . S
C2623 C2622 1.502 . S
C2624 H2610 0.960 . S
C2624 H2611 0.961 . S
C2624 H2612 0.959 . S
C2624 C2622 1.561 . S
C2625 C2622 1.526 . S
C2625 C2626 1.396 . S
C2625 C2630 1.390 . S
C2626 C2620 1.465 . S
C2626 C2625 1.396 . S
C2626 C2627 1.399 . S
C2627 H2613 0.929 . S
C2627 C2626 1.399 . S
C2627 C2628 1.385 . S
C2628 H2614 0.931 . S
C2628 C2627 1.385 . S
C2628 C2629 1.389 . S
C2629 C2628 1.389 . S
C2629 C2630 1.387 . S
C2630 H2615 0.930 . S
C2630 C2625 1.390 . S
C2630 C2629 1.387 . S
H2631 C2643 0.930 . S
H2632 C2645 0.930 . S
H2633 C2646 0.930 . S
H2634 C2650 0.959 . S
H2635 C2650 0.959 . S
H2636 C2650 0.961 . S
H2637 C2651 0.960 . S
H2638 C2651 0.961 . S
H2639 C2651 0.959 . S
H2640 C2654 0.929 . S
H2641 C2655 0.931 . S
H2642 C2657 0.930 . S
C2643 H2631 0.930 . S
C2643 C2644 1.399 . S
C2643 C2648 1.399 . S
C2644 C2643 1.399 . S
C2644 C2645 1.376 . S
C2645 H2632 0.930 . S
C2645 C2644 1.376 . S
C2645 C2646 1.388 . S
C2646 H2633 0.930 . S
C2646 C2645 1.388 . S
C2646 C2647 1.390 . S
C2647 C2646 1.390 . S
C2647 C2648 1.394 . S
C2647 C2653 1.465 . S
C2648 C2643 1.399 . S
C2648 C2647 1.394 . S
C2648 C2649 1.516 . S
C2649 C2648 1.516 . S
C2649 C2650 1.502 . S
C2649 C2651 1.561 . S
C2649 C2652 1.526 . S
C2650 H2634 0.959 . S
C2650 H2635 0.959 . S
C2650 H2636 0.961 . S
C2650 C2649 1.502 . S
C2651 H2637 0.960 . S
C2651 H2638 0.961 . S
C2651 H2639 0.959 . S
C2651 C2649 1.561 . S
C2652 C2649 1.526 . S
C2652 C2653 1.396 . S
C2652 C2657 1.390 . S
C2653 C2647 1.465 . S
C2653 C2652 1.396 . S
C2653 C2654 1.399 . S
C2654 H2640 0.929 . S
C2654 C2653 1.399 . S
C2654 C2655 1.385 . S
C2655 H2641 0.931 . S
C2655 C2654 1.385 . S
C2655 C2656 1.389 . S
C2656 C2655 1.389 . S
C2656 C2657 1.387 . S
C2657 H2642 0.930 . S
C2657 C2652 1.390 . S
C2657 C2656 1.387 . S
H2658 C2670 0.930 . S
H2659 C2672 0.930 . S
H2660 C2673 0.930 . S
H2661 C2677 0.959 . S
H2662 C2677 0.959 . S
H2663 C2677 0.961 . S
H2664 C2678 0.960 . S
H2665 C2678 0.961 . S
H2666 C2678 0.959 . S
H2667 C2681 0.929 . S
H2668 C2682 0.931 . S
H2669 C2684 0.930 . S
C2670 H2658 0.930 . S
C2670 C2671 1.399 . S
C2670 C2675 1.399 . S
C2671 C2670 1.399 . S
C2671 C2672 1.376 . S
C2672 H2659 0.930 . S
C2672 C2671 1.376 . S
C2672 C2673 1.388 . S
C2673 H2660 0.930 . S
C2673 C2672 1.388 . S
C2673 C2674 1.390 . S
C2674 C2673 1.390 . S
C2674 C2675 1.394 . S
C2674 C2680 1.465 . S
C2675 C2670 1.399 . S
C2675 C2674 1.394 . S
C2675 C2676 1.516 . S
C2676 C2675 1.516 . S
C2676 C2677 1.502 . S
C2676 C2678 1.561 . S
C2676 C2679 1.526 . S
C2677 H2661 0.959 . S
C2677 H2662 0.959 . S
C2677 H2663 0.961 . S
C2677 C2676 1.502 . S
C2678 H2664 0.960 . S
C2678 H2665 0.961 . S
C2678 H2666 0.959 . S
C2678 C2676 1.561 . S
C2679 C2676 1.526 . S
C2679 C2680 1.396 . S
C2679 C2684 1.390 . S
C2680 C2674 1.465 . S
C2680 C2679 1.396 . S
C2680 C2681 1.399 . S
C2681 H2667 0.929 . S
C2681 C2680 1.399 . S
C2681 C2682 1.385 . S
C2682 H2668 0.931 . S
C2682 C2681 1.385 . S
C2682 C2683 1.389 . S
C2683 C2682 1.389 . S
C2683 C2684 1.387 . S
C2684 H2669 0.930 . S
C2684 C2679 1.390 . S
C2684 C2683 1.387 . S
H2685 C2697 0.930 . S
H2686 C2699 0.930 . S
H2687 C2700 0.930 . S
H2688 C2704 0.959 . S
H2689 C2704 0.959 . S
H2690 C2704 0.961 . S
H2691 C2705 0.960 . S
H2692 C2705 0.961 . S
H2693 C2705 0.959 . S
H2694 C2708 0.929 . S
H2695 C2709 0.931 . S
H2696 C2711 0.930 . S
C2697 H2685 0.930 . S
C2697 C2698 1.399 . S
C2697 C2702 1.399 . S
C2698 C2697 1.399 . S
C2698 C2699 1.376 . S
C2699 H2686 0.930 . S
C2699 C2698 1.376 . S
C2699 C2700 1.388 . S
C2700 H2687 0.930 . S
C2700 C2699 1.388 . S
C2700 C2701 1.390 . S
C2701 C2700 1.390 . S
C2701 C2702 1.394 . S
C2701 C2707 1.465 . S
C2702 C2697 1.399 . S
C2702 C2701 1.394 . S
C2702 C2703 1.516 . S
C2703 C2702 1.516 . S
C2703 C2704 1.502 . S
C2703 C2705 1.561 . S
C2703 C2706 1.526 . S
C2704 H2688 0.959 . S
C2704 H2689 0.959 . S
C2704 H2690 0.961 . S
C2704 C2703 1.502 . S
C2705 H2691 0.960 . S
C2705 H2692 0.961 . S
C2705 H2693 0.959 . S
C2705 C2703 1.561 . S
C2706 C2703 1.526 . S
C2706 C2707 1.396 . S
C2706 C2711 1.390 . S
C2707 C2701 1.465 . S
C2707 C2706 1.396 . S
C2707 C2708 1.399 . S
C2708 H2694 0.929 . S
C2708 C2707 1.399 . S
C2708 C2709 1.385 . S
C2709 H2695 0.931 . S
C2709 C2708 1.385 . S
C2709 C2710 1.389 . S
C2710 C2709 1.389 . S
C2710 C2711 1.387 . S
C2711 H2696 0.930 . S
C2711 C2706 1.390 . S
C2711 C2710 1.387 . S
C1429 C682 1.585 . S
C1441 C3 1.545 . S
C1456 C62 1.521 . S
C1468 C505 1.575 . S
C1483 C121 1.458 . S
C1495 C564 1.542 . S
C1510 C180 1.496 . S
C1522 C623 1.558 . S
C1537 C800 1.552 . S
C1549 C239 1.483 . S
C1564 C298 1.514 . S
C1576 C859 1.567 . S
C1591 C918 1.542 . S
C1603 C357 1.462 . S
C1618 C741 1.544 . S
C1630 C416 1.461 . S
C1645 C328 1.545 . S
C1657 C475 1.464 . S
C1672 C387 1.555 . S
C1684 C534 1.491 . S
C1699 C593 1.513 . S
C1711 C446 1.572 . S
C1726 C269 1.585 . S
C1738 C652 1.543 . S
C1753 C210 1.546 . S
C1765 C711 1.465 . S
C1780 C770 1.545 . S
C1792 C33 1.584 . S
C1807 C829 1.488 . S
C1819 C92 1.554 . S
C1834 C888 1.471 . S
C1846 C151 1.551 . S
C1861 C947 1.503 . S
C1873 C1390 1.567 . S
C1888 C1213 1.570 . S
C1900 C1006 1.511 . S
C1915 C1065 1.537 . S
C1927 C1036 1.579 . S
C1942 C1124 1.524 . S
C1954 C1095 1.576 . S
C1969 C1154 1.577 . S
C1981 C1183 1.533 . S
C1996 C1242 1.502 . S
C2008 C1331 1.566 . S
C2023 C977 1.579 . S
C2035 C1301 1.537 . S
C2050 C1272 1.546 . S
C2062 C1360 1.470 . S
C2077 C52 1.641 . S
C2089 C406 1.640 . S
C2104 C111 1.638 . S
C2116 C465 1.643 . S
C2131 C170 1.639 . S
C2143 C288 1.642 . S
C2158 C347 1.643 . S
C2170 C229 1.639 . S
C2185 C642 1.639 . S
C2197 C524 1.642 . S
C2212 C583 1.639 . S
C2224 C701 1.642 . S
C2239 C760 1.639 . S
C2251 C878 1.642 . S
C2266 C937 1.642 . S
C2278 C819 1.639 . S
C2293 C1055 1.642 . S
C2305 C996 1.639 . S
C2320 C1114 1.642 . S
C2332 C1409 1.639 . S
C2347 C1173 1.639 . S
C2359 C1291 1.642 . S
C2374 C1232 1.639 . S
C2386 C1350 1.642 . S
C2401 C5 1.130 . S
C2413 C300 1.152 . S
C2428 C64 1.130 . S
C2440 C359 1.152 . S
C2455 C123 1.139 . S
C2467 C418 1.115 . S
C2482 C241 1.146 . S
C2494 C182 1.113 . S
C2509 C477 1.127 . S
C2521 C1362 1.153 . S
C2536 C536 1.122 . S
C2548 C1244 1.127 . S
C2563 C1303 1.113 . S
C2575 C595 1.143 . S
C2590 C654 1.146 . S
C2602 C949 1.113 . S
C2617 C1185 1.113 . S
C2629 C713 1.150 . S
C2644 C1008 1.117 . S
C2656 C772 1.153 . S
C2671 C831 1.116 . S
C2683 C1067 1.153 . S
C2698 C1126 1.149 . S
C2710 C890 1.114 . S
