# Generated by pormake.
# Topology ukj, (4)-cn, num edge types: 1
# Building blocks:
#     Node 0, Type 0, BuildingBlock: CEKHIL_clean_sbu_0, # of connection points: 4
#     Node 1, Type 0, BuildingBlock: CEKHIL_clean_sbu_0, # of connection points: 4
#     Node 2, Type 0, BuildingBlock: CEKHIL_clean_sbu_0, # of connection points: 4
#     Node 3, Type 0, BuildingBlock: CEKHIL_clean_sbu_0, # of connection points: 4
#     Node 4, Type 0, BuildingBlock: CEKHIL_clean_sbu_0, # of connection points: 4
#     Node 5, Type 0, BuildingBlock: CEKHIL_clean_sbu_0, # of connection points: 4
#     Node 6, Type 0, BuildingBlock: CEKHIL_clean_sbu_0, # of connection points: 4
#     Node 7, Type 0, BuildingBlock: CEKHIL_clean_sbu_0, # of connection points: 4
#     Node 8, Type 0, BuildingBlock: CEKHIL_clean_sbu_0, # of connection points: 4
#     Node 9, Type 0, BuildingBlock: CEKHIL_clean_sbu_0, # of connection points: 4
#     Node 10, Type 0, BuildingBlock: CEKHIL_clean_sbu_0, # of connection points: 4
#     Node 11, Type 0, BuildingBlock: CEKHIL_clean_sbu_0, # of connection points: 4
#     Node 12, Type 0, BuildingBlock: CEKHIL_clean_sbu_0, # of connection points: 4
#     Node 13, Type 0, BuildingBlock: CEKHIL_clean_sbu_0, # of connection points: 4
#     Node 14, Type 0, BuildingBlock: CEKHIL_clean_sbu_0, # of connection points: 4
#     Node 15, Type 0, BuildingBlock: CEKHIL_clean_sbu_0, # of connection points: 4
#     Node 16, Type 0, BuildingBlock: CEKHIL_clean_sbu_0, # of connection points: 4
#     Node 17, Type 0, BuildingBlock: CEKHIL_clean_sbu_0, # of connection points: 4
#     Node 18, Type 0, BuildingBlock: CEKHIL_clean_sbu_0, # of connection points: 4
#     Node 19, Type 0, BuildingBlock: CEKHIL_clean_sbu_0, # of connection points: 4
#     Node 20, Type 0, BuildingBlock: CEKHIL_clean_sbu_0, # of connection points: 4
#     Node 21, Type 0, BuildingBlock: CEKHIL_clean_sbu_0, # of connection points: 4
#     Node 22, Type 0, BuildingBlock: CEKHIL_clean_sbu_0, # of connection points: 4
#     Node 23, Type 0, BuildingBlock: CEKHIL_clean_sbu_0, # of connection points: 4
#     Node 24, Type 0, BuildingBlock: CEKHIL_clean_sbu_0, # of connection points: 4
#     Node 25, Type 0, BuildingBlock: CEKHIL_clean_sbu_0, # of connection points: 4
#     Node 26, Type 0, BuildingBlock: CEKHIL_clean_sbu_0, # of connection points: 4
#     Node 27, Type 0, BuildingBlock: CEKHIL_clean_sbu_0, # of connection points: 4
#     Node 28, Type 0, BuildingBlock: CEKHIL_clean_sbu_0, # of connection points: 4
#     Node 29, Type 0, BuildingBlock: CEKHIL_clean_sbu_0, # of connection points: 4
#     Node 30, Type 0, BuildingBlock: CEKHIL_clean_sbu_0, # of connection points: 4
#     Node 31, Type 0, BuildingBlock: CEKHIL_clean_sbu_0, # of connection points: 4
#     Edge 32, Type (0, 0), BuildingBlock: AJUNOK_clean_linker_0, # of connection points: 2
#     Edge 33, Type (0, 0), BuildingBlock: AJUNOK_clean_linker_0, # of connection points: 2
#     Edge 34, Type (0, 0), BuildingBlock: AJUNOK_clean_linker_0, # of connection points: 2
#     Edge 35, Type (0, 0), BuildingBlock: AJUNOK_clean_linker_0, # of connection points: 2
#     Edge 36, Type (0, 0), BuildingBlock: AJUNOK_clean_linker_0, # of connection points: 2
#     Edge 37, Type (0, 0), BuildingBlock: AJUNOK_clean_linker_0, # of connection points: 2
#     Edge 38, Type (0, 0), BuildingBlock: AJUNOK_clean_linker_0, # of connection points: 2
#     Edge 39, Type (0, 0), BuildingBlock: AJUNOK_clean_linker_0, # of connection points: 2
#     Edge 40, Type (0, 0), BuildingBlock: AJUNOK_clean_linker_0, # of connection points: 2
#     Edge 41, Type (0, 0), BuildingBlock: AJUNOK_clean_linker_0, # of connection points: 2
#     Edge 42, Type (0, 0), BuildingBlock: AJUNOK_clean_linker_0, # of connection points: 2
#     Edge 43, Type (0, 0), BuildingBlock: AJUNOK_clean_linker_0, # of connection points: 2
#     Edge 44, Type (0, 0), BuildingBlock: AJUNOK_clean_linker_0, # of connection points: 2
#     Edge 45, Type (0, 0), BuildingBlock: AJUNOK_clean_linker_0, # of connection points: 2
#     Edge 46, Type (0, 0), BuildingBlock: AJUNOK_clean_linker_0, # of connection points: 2
#     Edge 47, Type (0, 0), BuildingBlock: AJUNOK_clean_linker_0, # of connection points: 2
#     Edge 48, Type (0, 0), BuildingBlock: AJUNOK_clean_linker_0, # of connection points: 2
#     Edge 49, Type (0, 0), BuildingBlock: AJUNOK_clean_linker_0, # of connection points: 2
#     Edge 50, Type (0, 0), BuildingBlock: AJUNOK_clean_linker_0, # of connection points: 2
#     Edge 51, Type (0, 0), BuildingBlock: AJUNOK_clean_linker_0, # of connection points: 2
#     Edge 52, Type (0, 0), BuildingBlock: AJUNOK_clean_linker_0, # of connection points: 2
#     Edge 53, Type (0, 0), BuildingBlock: AJUNOK_clean_linker_0, # of connection points: 2
#     Edge 54, Type (0, 0), BuildingBlock: AJUNOK_clean_linker_0, # of connection points: 2
#     Edge 55, Type (0, 0), BuildingBlock: AJUNOK_clean_linker_0, # of connection points: 2
#     Edge 56, Type (0, 0), BuildingBlock: AJUNOK_clean_linker_0, # of connection points: 2
#     Edge 57, Type (0, 0), BuildingBlock: AJUNOK_clean_linker_0, # of connection points: 2
#     Edge 58, Type (0, 0), BuildingBlock: AJUNOK_clean_linker_0, # of connection points: 2
#     Edge 59, Type (0, 0), BuildingBlock: AJUNOK_clean_linker_0, # of connection points: 2
#     Edge 60, Type (0, 0), BuildingBlock: AJUNOK_clean_linker_0, # of connection points: 2
#     Edge 61, Type (0, 0), BuildingBlock: AJUNOK_clean_linker_0, # of connection points: 2
#     Edge 62, Type (0, 0), BuildingBlock: AJUNOK_clean_linker_0, # of connection points: 2
#     Edge 63, Type (0, 0), BuildingBlock: AJUNOK_clean_linker_0, # of connection points: 2
#     Edge 64, Type (0, 0), BuildingBlock: AJUNOK_clean_linker_0, # of connection points: 2
#     Edge 65, Type (0, 0), BuildingBlock: AJUNOK_clean_linker_0, # of connection points: 2
#     Edge 66, Type (0, 0), BuildingBlock: AJUNOK_clean_linker_0, # of connection points: 2
#     Edge 67, Type (0, 0), BuildingBlock: AJUNOK_clean_linker_0, # of connection points: 2
#     Edge 68, Type (0, 0), BuildingBlock: AJUNOK_clean_linker_0, # of connection points: 2
#     Edge 69, Type (0, 0), BuildingBlock: AJUNOK_clean_linker_0, # of connection points: 2
#     Edge 70, Type (0, 0), BuildingBlock: AJUNOK_clean_linker_0, # of connection points: 2
#     Edge 71, Type (0, 0), BuildingBlock: AJUNOK_clean_linker_0, # of connection points: 2
#     Edge 72, Type (0, 0), BuildingBlock: AJUNOK_clean_linker_0, # of connection points: 2
#     Edge 73, Type (0, 0), BuildingBlock: AJUNOK_clean_linker_0, # of connection points: 2
#     Edge 74, Type (0, 0), BuildingBlock: AJUNOK_clean_linker_0, # of connection points: 2
#     Edge 75, Type (0, 0), BuildingBlock: AJUNOK_clean_linker_0, # of connection points: 2
#     Edge 76, Type (0, 0), BuildingBlock: AJUNOK_clean_linker_0, # of connection points: 2
#     Edge 77, Type (0, 0), BuildingBlock: AJUNOK_clean_linker_0, # of connection points: 2
#     Edge 78, Type (0, 0), BuildingBlock: AJUNOK_clean_linker_0, # of connection points: 2
#     Edge 79, Type (0, 0), BuildingBlock: AJUNOK_clean_linker_0, # of connection points: 2
#     Edge 80, Type (0, 0), BuildingBlock: AJUNOK_clean_linker_0, # of connection points: 2
#     Edge 81, Type (0, 0), BuildingBlock: AJUNOK_clean_linker_0, # of connection points: 2
#     Edge 82, Type (0, 0), BuildingBlock: AJUNOK_clean_linker_0, # of connection points: 2
#     Edge 83, Type (0, 0), BuildingBlock: AJUNOK_clean_linker_0, # of connection points: 2
#     Edge 84, Type (0, 0), BuildingBlock: AJUNOK_clean_linker_0, # of connection points: 2
#     Edge 85, Type (0, 0), BuildingBlock: AJUNOK_clean_linker_0, # of connection points: 2
#     Edge 86, Type (0, 0), BuildingBlock: AJUNOK_clean_linker_0, # of connection points: 2
#     Edge 87, Type (0, 0), BuildingBlock: AJUNOK_clean_linker_0, # of connection points: 2
#     Edge 88, Type (0, 0), BuildingBlock: AJUNOK_clean_linker_0, # of connection points: 2
#     Edge 89, Type (0, 0), BuildingBlock: AJUNOK_clean_linker_0, # of connection points: 2
#     Edge 90, Type (0, 0), BuildingBlock: AJUNOK_clean_linker_0, # of connection points: 2
#     Edge 91, Type (0, 0), BuildingBlock: AJUNOK_clean_linker_0, # of connection points: 2
#     Edge 92, Type (0, 0), BuildingBlock: AJUNOK_clean_linker_0, # of connection points: 2
#     Edge 93, Type (0, 0), BuildingBlock: AJUNOK_clean_linker_0, # of connection points: 2
#     Edge 94, Type (0, 0), BuildingBlock: AJUNOK_clean_linker_0, # of connection points: 2
#     Edge 95, Type (0, 0), BuildingBlock: AJUNOK_clean_linker_0, # of connection points: 2
# Relax obj value: 0.079
# Max RMSD: 0.172
# Mean RMSD: 0.171
data_MOF--net-ukj--node1-CEKHIL_clean_sbu_0--edge1-AJUNOK_clean_linker_0
_symmetry_space_group_name_H-M    P1
_symmetry_Int_Tables_number       1
_symmetry_cell_setting            triclinic
loop_
_symmetry_equiv_pos_as_xyz
'x, y, z'
_cell_length_a     22.93106
_cell_length_b     47.429241
_cell_length_c     40.710754
_cell_angle_alpha  89.998341
_cell_angle_beta   90.001051
_cell_angle_gamma 90.010005
loop_
_atom_site_label
_atom_site_type_symbol
_atom_site_fract_x
_atom_site_fract_y
_atom_site_fract_z
_atom_type_partial_charge
Co0 Co 0.1335 0.34094 0.25345 0.0
O1 O 0.05522 0.32674 0.25428 0.0
O2 O 0.13075 0.30162 0.23849 0.0
C3 C 0.12978 0.35828 0.30461 0.0
O4 O 0.22126 0.35102 0.25134 0.0
Co5 Co 0.14485 0.40569 0.25736 0.0
O6 O 0.22802 0.39708 0.26463 0.0
C7 C 0.12271 0.37953 0.19311 0.0
C8 C 0.07492 0.30265 0.24487 0.0
C9 C 0.25165 0.37347 0.25788 0.0
O10 O 0.1229 0.35528 0.20726 0.0
O11 O 0.12757 0.40266 0.20906 0.0
O12 O 0.14217 0.33207 0.29942 0.0
O13 O 0.11383 0.37256 0.27895 0.0
Co14 Co 0.12611 0.90772 0.25115 0.0
O15 O 0.20329 0.92339 0.25054 0.0
O16 O 0.12451 0.94675 0.23579 0.0
C17 C 0.13333 0.89087 0.30233 0.0
O18 O 0.03905 0.89647 0.25054 0.0
Co19 Co 0.11783 0.84311 0.25537 0.0
O20 O 0.0347 0.85052 0.26439 0.0
C21 C 0.13548 0.8692 0.19072 0.0
C22 C 0.18062 0.94698 0.24135 0.0
C23 C 0.00984 0.87387 0.25789 0.0
O24 O 0.13529 0.89338 0.20495 0.0
O25 O 0.13206 0.84601 0.20668 0.0
O26 O 0.11908 0.91682 0.29698 0.0
O27 O 0.14908 0.87646 0.27666 0.0
Co28 Co 0.13778 0.91346 0.98941 0.0
O29 O 0.06123 0.92976 0.98983 0.0
O30 O 0.13991 0.95193 0.0069 0.0
C31 C 0.13113 0.89892 0.93712 0.0
O32 O 0.22433 0.9012 0.99066 0.0
Co33 Co 0.14197 0.84885 0.98111 0.0
O34 O 0.22643 0.8553 0.97606 0.0
C35 C 0.12377 0.87236 0.04717 0.0
C36 C 0.08408 0.95281 0.00055 0.0
C37 C 0.25225 0.87807 0.98399 0.0
O38 O 0.12586 0.8972 0.03457 0.0
O39 O 0.12627 0.84993 0.02975 0.0
O40 O 0.14713 0.92434 0.94411 0.0
O41 O 0.11418 0.88369 0.96183 0.0
Co42 Co 0.12402 0.33724 0.99056 0.0
O43 O 0.20143 0.32194 0.99219 0.0
O44 O 0.12294 0.29842 0.00697 0.0
C45 C 0.13274 0.3527 0.93885 0.0
O46 O 0.03679 0.34837 0.99004 0.0
Co47 Co 0.11671 0.40193 0.98375 0.0
O48 O 0.03298 0.39459 0.97677 0.0
C49 C 0.13336 0.37748 0.04945 0.0
C50 C 0.17915 0.29837 0.00167 0.0
C51 C 0.00804 0.3712 0.98301 0.0
O52 O 0.13219 0.35283 0.03632 0.0
O53 O 0.1312 0.40015 0.03246 0.0
O54 O 0.11814 0.32694 0.94498 0.0
O55 O 0.14746 0.36779 0.96415 0.0
Co56 Co 0.87086 0.66593 0.73823 0.0
O57 O 0.94896 0.68027 0.73847 0.0
O58 O 0.87295 0.70507 0.75407 0.0
C59 C 0.87683 0.6497 0.68666 0.0
O60 O 0.78322 0.65558 0.73934 0.0
Co61 Co 0.86103 0.60134 0.73306 0.0
O62 O 0.77789 0.60966 0.72528 0.0
C63 C 0.87847 0.62668 0.79804 0.0
C64 C 0.92896 0.7042 0.74818 0.0
C65 C 0.75352 0.63304 0.73226 0.0
O66 O 0.88001 0.65096 0.78411 0.0
O67 O 0.87466 0.60359 0.78189 0.0
O68 O 0.86335 0.67564 0.69258 0.0
O69 O 0.89207 0.63481 0.71202 0.0
Co70 Co 0.88983 0.08911 0.74125 0.0
O71 O 0.81238 0.07378 0.74212 0.0
O72 O 0.89043 0.05026 0.75756 0.0
C73 C 0.88206 0.10457 0.68944 0.0
O74 O 0.97711 0.10015 0.74167 0.0
Co75 Co 0.89857 0.15354 0.73447 0.0
O76 O 0.98182 0.14577 0.72641 0.0
C77 C 0.88004 0.12926 0.80013 0.0
C78 C 0.83439 0.0502 0.75171 0.0
C79 C 1.00651 0.12257 0.7338 0.0
O80 O 0.88035 0.10462 0.78696 0.0
O81 O 0.8837 0.15192 0.78317 0.0
O82 O 0.89703 0.0789 0.69574 0.0
O83 O 0.86686 0.11971 0.71462 0.0
Co84 Co 0.8791 0.09194 0.004 0.0
O85 O 0.9572 0.0775 0.00445 0.0
O86 O 0.8811 0.05272 0.98874 0.0
C87 C 0.88363 0.10897 0.05527 0.0
O88 O 0.79143 0.10213 0.00229 0.0
Co89 Co 0.86775 0.15657 0.00834 0.0
O90 O 0.78479 0.14798 0.0164 0.0
C91 C 0.88936 0.13077 0.94385 0.0
C92 C 0.93698 0.05351 0.99499 0.0
C93 C 0.76109 0.12444 0.00943 0.0
O94 O 0.88933 0.10647 0.95787 0.0
O95 O 0.88453 0.15383 0.95994 0.0
O96 O 0.87088 0.08283 0.04988 0.0
O97 O 0.89938 0.12343 0.02969 0.0
Co98 Co 0.88881 0.66236 0.00125 0.0
O99 O 0.81114 0.67712 0.00284 0.0
O100 O 0.88651 0.70158 0.98558 0.0
C101 C 0.88588 0.64586 0.05276 0.0
O102 O 0.97613 0.65146 -0.00175 0.0
Co103 Co 0.89628 0.59783 0.00493 0.0
O104 O 0.98052 0.60489 0.00957 0.0
C105 C 0.87181 0.62382 0.94126 0.0
C106 C 0.83082 0.70088 0.99242 0.0
C107 C 1.00515 0.62831 0.00322 0.0
O108 O 0.87523 0.64786 0.95557 0.0
O109 O 0.87651 0.60048 0.95681 0.0
O110 O 0.90006 0.6717 0.04667 0.0
O111 O 0.86823 0.63122 0.02768 0.0
Co112 Co 0.1343 0.84314 0.75129 0.0
O113 O 0.05693 0.82756 0.75117 0.0
O114 O 0.13517 0.80402 0.73604 0.0
C115 C 0.128 0.86017 0.80248 0.0
O116 O 0.22151 0.85422 0.75015 0.0
Co117 Co 0.14323 0.90779 0.75546 0.0
O118 O 0.22652 0.9002 0.7638 0.0
C119 C 0.12401 0.8817 0.69092 0.0
C120 C 0.07916 0.8039 0.74192 0.0
C121 C 0.25106 0.8768 0.7572 0.0
O122 O 0.12441 0.85747 0.70509 0.0
O123 O 0.12782 0.90486 0.70691 0.0
O124 O 0.14199 0.83416 0.79718 0.0
O125 O 0.11204 0.87449 0.77682 0.0
Co126 Co 0.12871 0.41165 0.75446 0.0
O127 O 0.20597 0.42703 0.75599 0.0
O128 O 0.12926 0.45122 0.74015 0.0
C129 C 0.1328 0.39368 0.80524 0.0
O130 O 0.04168 0.40012 0.75169 0.0
Co131 Co 0.12307 0.34672 0.75646 0.0
O132 O 0.03894 0.35343 0.76256 0.0
C133 C 0.14496 0.3744 0.69331 0.0
C134 C 0.18508 0.45089 0.74666 0.0
C135 C 0.01343 0.37672 0.75662 0.0
O136 O 0.14143 0.39822 0.70819 0.0
O137 O 0.14157 0.35077 0.70838 0.0
O138 O 0.1185 0.41972 0.80043 0.0
O139 O 0.15038 0.38001 0.77946 0.0
Co140 Co 0.1421 0.41575 0.48976 0.0
O141 O 0.06391 0.42992 0.48997 0.0
O142 O 0.13965 0.45502 0.50531 0.0
C143 C 0.13613 0.39931 0.4383 0.0
O144 O 0.2298 0.40534 0.49084 0.0
Co145 Co 0.15136 0.35117 0.48525 0.0
O146 O 0.23464 0.35918 0.47771 0.0
C147 C 0.1347 0.377 0.55001 0.0
C148 C 0.08359 0.45392 0.49959 0.0
C149 C 0.25923 0.3826 0.48422 0.0
O150 O 0.13304 0.40112 0.53575 0.0
O151 O 0.13843 0.35378 0.53412 0.0
O152 O 0.14962 0.42526 0.44411 0.0
O153 O 0.12074 0.38451 0.46372 0.0
Co154 Co 0.12368 0.83814 0.48937 0.0
O155 O 0.20088 0.82245 0.48992 0.0
O156 O 0.1227 0.79966 0.50668 0.0
C157 C 0.13023 0.85276 0.43718 0.0
O158 O 0.03661 0.84949 0.49045 0.0
Co159 Co 0.11514 0.90244 0.48125 0.0
O160 O 0.03148 0.89486 0.47432 0.0
C161 C 0.13475 0.87915 0.54731 0.0
C162 C 0.17858 0.7992 0.50042 0.0
C163 C 0.00698 0.87182 0.48254 0.0
O164 O 0.13464 0.85434 0.53459 0.0
O165 O 0.13043 0.90157 0.52997 0.0
O166 O 0.11507 0.82723 0.44414 0.0
O167 O 0.14628 0.86824 0.4619 0.0
Co168 Co 0.87137 0.16346 0.24159 0.0
O169 O 0.94819 0.17948 0.24217 0.0
O170 O 0.86962 0.20223 0.25827 0.0
C171 C 0.87874 0.14827 0.18965 0.0
O172 O 0.78461 0.15146 0.24245 0.0
Co173 Co 0.86571 0.09893 0.23458 0.0
O174 O 0.782 0.10585 0.22698 0.0
C175 C 0.88322 0.12326 0.30028 0.0
C176 C 0.92558 0.20278 0.25224 0.0
C177 C 0.75625 0.1287 0.23466 0.0
O178 O 0.88209 0.14789 0.28713 0.0
O179 O 0.88034 0.10057 0.28332 0.0
O180 O 0.863 0.17381 0.19616 0.0
O181 O 0.89509 0.13322 0.21467 0.0
Co182 Co 0.88363 0.58952 0.2384 0.0
O183 O 0.80671 0.5736 0.23847 0.0
O184 O 0.88527 0.55054 0.25417 0.0
C185 C 0.87748 0.60602 0.18692 0.0
O186 O 0.97041 0.60141 0.23972 0.0
Co187 Co 0.88861 0.65443 0.23316 0.0
O188 O 0.97245 0.64748 0.22597 0.0
C189 C 0.87019 0.62872 0.29803 0.0
C190 C 0.8293 0.55015 0.24814 0.0
C191 C 0.9984 0.62454 0.23307 0.0
O192 O 0.87273 0.60429 0.28439 0.0
O193 O 0.87227 0.65169 0.28157 0.0
O194 O 0.8921 0.58014 0.19252 0.0
O195 O 0.86069 0.62031 0.21239 0.0
Co196 Co 0.8735 0.59103 0.50199 0.0
O197 O 0.95147 0.57617 0.50128 0.0
O198 O 0.87375 0.55183 0.487 0.0
C199 C 0.88051 0.60833 0.55306 0.0
O200 O 0.78586 0.60138 0.50159 0.0
Co201 Co 0.86259 0.65579 0.50639 0.0
O202 O 0.77946 0.64756 0.51437 0.0
C203 C 0.88147 0.62974 0.44168 0.0
C204 C 0.92989 0.55224 0.49245 0.0
C205 C 0.75571 0.62384 0.50832 0.0
O206 O 0.88168 0.6054 0.45563 0.0
O207 O 0.87773 0.65279 0.45789 0.0
O208 O 0.86743 0.58217 0.54809 0.0
O209 O 0.89516 0.6226 0.52714 0.0
Co210 Co 0.88365 0.16045 0.50375 0.0
O211 O 0.8072 0.17698 0.5035 0.0
O212 O 0.88659 0.19942 0.48801 0.0
C213 C 0.87643 0.14391 0.55513 0.0
O214 O 0.97017 0.14804 0.50268 0.0
Co215 Co 0.88713 0.09555 0.50871 0.0
O216 O 0.97118 0.10183 0.51591 0.0
C217 C 0.8706 0.1215 0.44385 0.0
C218 C 0.8306 0.20026 0.49389 0.0
C219 C 0.9976 0.12471 0.5091 0.0
O220 O 0.87279 0.14584 0.45771 0.0
O221 O 0.87236 0.09843 0.46013 0.0
O222 O 0.89194 0.16968 0.54961 0.0
O223 O 0.85951 0.12972 0.52959 0.0
Co224 Co 0.63996 0.33996 0.74951 0.0
O225 O 0.5616 0.32602 0.74798 0.0
O226 O 0.63798 0.30085 0.73372 0.0
C227 C 0.63162 0.35613 0.80092 0.0
O228 O 0.72786 0.3499 0.74985 0.0
Co229 Co 0.65107 0.40445 0.75483 0.0
O230 O 0.73349 0.39572 0.76427 0.0
C231 C 0.63674 0.37918 0.68958 0.0
C232 C 0.58172 0.30197 0.73876 0.0
C233 C 0.7577 0.37224 0.75759 0.0
O234 O 0.63356 0.35494 0.70352 0.0
O235 O 0.64037 0.40227 0.70574 0.0
O236 O 0.6449 0.33015 0.79517 0.0
O237 O 0.61802 0.37118 0.77537 0.0
Co238 Co 0.62391 0.9134 0.75321 0.0
O239 O 0.70221 0.92747 0.75365 0.0
O240 O 0.62716 0.95225 0.73653 0.0
C241 C 0.62773 0.89807 0.80527 0.0
O242 O 0.53619 0.90315 0.75122 0.0
Co243 Co 0.61428 0.8487 0.76035 0.0
O244 O 0.53047 0.85704 0.7649 0.0
C245 C 0.63527 0.87277 0.69481 0.0
C246 C 0.68292 0.95128 0.74315 0.0
C247 C 0.50656 0.88037 0.75726 0.0
O248 O 0.63502 0.89747 0.70782 0.0
O249 O 0.63083 0.85018 0.71184 0.0
O250 O 0.61467 0.92394 0.79863 0.0
O251 O 0.64378 0.88283 0.7804 0.0
Co252 Co 0.6351 0.91001 0.49098 0.0
O253 O 0.55698 0.92428 0.49081 0.0
O254 O 0.63285 0.94934 0.50614 0.0
C255 C 0.63 0.89288 0.43972 0.0
O256 O 0.72272 0.8995 0.49239 0.0
Co257 Co 0.64315 0.84501 0.4868 0.0
O258 O 0.72682 0.85297 0.48052 0.0
C259 C 0.62404 0.87125 0.55124 0.0
C260 C 0.57684 0.94831 0.50026 0.0
C261 C 0.75159 0.8764 0.48681 0.0
O262 O 0.62536 0.89553 0.53717 0.0
O263 O 0.62694 0.84809 0.5352 0.0
O264 O 0.64289 0.91903 0.44495 0.0
O265 O 0.61423 0.87865 0.46542 0.0
Co266 Co 0.62896 0.34063 0.48795 0.0
O267 O 0.70571 0.32484 0.48644 0.0
O268 O 0.62944 0.30175 0.50489 0.0
C269 C 0.63184 0.3558 0.436 0.0
O270 O 0.5424 0.35305 0.49101 0.0
Co271 Co 0.62583 0.40524 0.48205 0.0
O272 O 0.54164 0.39883 0.47597 0.0
C273 C 0.64853 0.38039 0.54659 0.0
C274 C 0.685 0.30158 0.49766 0.0
C275 C 0.51504 0.37635 0.48411 0.0
O276 O 0.64408 0.35606 0.53303 0.0
O277 O 0.6448 0.40343 0.53035 0.0
O278 O 0.6165 0.33027 0.44289 0.0
O279 O 0.65079 0.37076 0.46051 0.0
Co280 Co 0.37166 0.66037 0.24095 0.0
O281 O 0.44938 0.67539 0.24173 0.0
O282 O 0.37144 0.6993 0.25671 0.0
C283 C 0.37855 0.6439 0.18955 0.0
O284 O 0.28423 0.64983 0.24141 0.0
Co285 Co 0.36146 0.5958 0.23562 0.0
O286 O 0.27835 0.60393 0.22741 0.0
C287 C 0.38095 0.621 0.30062 0.0
C288 C 0.42754 0.6991 0.2511 0.0
C289 C 0.25431 0.62745 0.23407 0.0
O290 O 0.38052 0.64545 0.28697 0.0
O291 O 0.37722 0.59809 0.28415 0.0
O292 O 0.36497 0.66991 0.19514 0.0
O293 O 0.39366 0.62923 0.2151 0.0
Co294 Co 0.38646 0.08567 0.23753 0.0
O295 O 0.30938 0.07035 0.23571 0.0
O296 O 0.38523 0.04662 0.25375 0.0
C297 C 0.38399 0.1017 0.18583 0.0
O298 O 0.47322 0.09746 0.24095 0.0
Co299 Co 0.39094 0.15041 0.23286 0.0
O300 O 0.47547 0.14392 0.22869 0.0
C301 C 0.36715 0.12466 0.29685 0.0
C302 C 0.32963 0.04688 0.24664 0.0
C303 C 0.50115 0.1209 0.23576 0.0
O304 O 0.37167 0.10049 0.28293 0.0
O305 O 0.37092 0.14788 0.28096 0.0
O306 O 0.39872 0.07598 0.19219 0.0
O307 O 0.36544 0.11633 0.2107 0.0
Co308 Co 0.36994 0.08642 0.50151 0.0
O309 O 0.44744 0.07113 0.50022 0.0
O310 O 0.36864 0.04699 0.48739 0.0
C311 C 0.37935 0.10446 0.55204 0.0
O312 O 0.28262 0.09725 0.50184 0.0
Co313 Co 0.36093 0.15122 0.50421 0.0
O314 O 0.27819 0.14353 0.51417 0.0
C315 C 0.37554 0.12388 0.44007 0.0
C316 C 0.42498 0.04719 0.49218 0.0
C317 C 0.2534 0.11995 0.50871 0.0
O318 O 0.37653 0.09993 0.45482 0.0
O319 O 0.37323 0.14739 0.45546 0.0
O320 O 0.36537 0.07831 0.54776 0.0
O321 O 0.39342 0.11829 0.52567 0.0
Co322 Co 0.38385 0.66034 0.50376 0.0
O323 O 0.30626 0.67522 0.50369 0.0
O324 O 0.38291 0.69953 0.48799 0.0
C325 C 0.37762 0.64403 0.55532 0.0
O326 O 0.47118 0.64913 0.50259 0.0
Co327 Co 0.39058 0.59554 0.50928 0.0
O328 O 0.47381 0.60333 0.51741 0.0
C329 C 0.37171 0.62087 0.44428 0.0
C330 C 0.3269 0.69901 0.49397 0.0
C331 C 0.49954 0.62623 0.50995 0.0
O332 O 0.37349 0.64534 0.45785 0.0
O333 O 0.37446 0.59796 0.46082 0.0
O334 O 0.39187 0.66993 0.54958 0.0
O335 O 0.36161 0.62951 0.52988 0.0
Co336 Co 0.63805 0.83594 0.25432 0.0
O337 O 0.56009 0.82158 0.25458 0.0
O338 O 0.6359 0.79679 0.23854 0.0
C339 C 0.63306 0.85223 0.30587 0.0
O340 O 0.72551 0.84656 0.2526 0.0
Co341 Co 0.64575 0.90062 0.25888 0.0
O342 O 0.72949 0.89293 0.26509 0.0
C343 C 0.62874 0.87477 0.19419 0.0
C344 C 0.57994 0.79772 0.24459 0.0
C345 C 0.75434 0.86963 0.25834 0.0
O346 O 0.6278 0.85066 0.20847 0.0
O347 O 0.6322 0.89802 0.21005 0.0
O348 O 0.6467 0.82632 0.2999 0.0
O349 O 0.61687 0.86701 0.2806 0.0
Co350 Co 0.62289 0.41161 0.25044 0.0
O351 O 0.70035 0.42661 0.25141 0.0
O352 O 0.62393 0.45101 0.23549 0.0
C353 C 0.62744 0.39429 0.30147 0.0
O354 O 0.53572 0.40025 0.24824 0.0
Co355 Co 0.61692 0.34683 0.2532 0.0
O356 O 0.53324 0.35388 0.26059 0.0
C357 C 0.63856 0.37383 0.18971 0.0
C358 C 0.67986 0.45043 0.2417 0.0
C359 C 0.50752 0.37702 0.2542 0.0
O360 O 0.63498 0.39772 0.20436 0.0
O361 O 0.63517 0.35031 0.205 0.0
O362 O 0.61329 0.42028 0.29626 0.0
O363 O 0.64464 0.38023 0.27586 0.0
Co364 Co 0.63984 0.41411 0.98551 0.0
O365 O 0.56356 0.4306 0.98636 0.0
O366 O 0.6433 0.45342 0.0004 0.0
C367 C 0.63048 0.39695 0.93456 0.0
O368 O 0.72619 0.40129 0.98579 0.0
Co369 Co 0.64133 0.34918 0.98207 0.0
O370 O 0.72483 0.35512 0.97269 0.0
C371 C 0.62893 0.37624 0.04644 0.0
C372 C 0.58706 0.45406 0.99521 0.0
C373 C 0.75257 0.37778 0.97873 0.0
O374 O 0.63068 0.40024 0.03187 0.0
O375 O 0.62903 0.3528 0.03083 0.0
O376 O 0.64656 0.42273 0.93945 0.0
O377 O 0.6142 0.38316 0.96054 0.0
Co378 Co 0.62427 0.83941 0.98976 0.0
O379 O 0.70159 0.82384 0.98904 0.0
O380 O 0.62366 0.80013 0.0044 0.0
C381 C 0.62917 0.85722 0.93901 0.0
O382 O 0.53713 0.85052 0.99168 0.0
Co383 Co 0.61589 0.90413 0.9874 0.0
O384 O 0.53261 0.89669 0.9789 0.0
C385 C 0.63793 0.87697 0.05083 0.0
C386 C 0.67958 0.80011 -0.00175 0.0
C387 C 0.50782 0.87324 0.98504 0.0
O388 O 0.63564 0.85308 0.03603 0.0
O389 O 0.63366 0.9005 0.03564 0.0
O390 O 0.61537 0.83111 0.94381 0.0
O391 O 0.64595 0.87113 0.96483 0.0
Co392 Co 0.37667 0.16309 0.7366 0.0
O393 O 0.45335 0.17923 0.73565 0.0
O394 O 0.37533 0.20216 0.75228 0.0
C395 C 0.38175 0.14671 0.68514 0.0
O396 O 0.29007 0.15087 0.73904 0.0
Co397 Co 0.37265 0.09835 0.73219 0.0
O398 O 0.28837 0.10461 0.72616 0.0
C399 C 0.39335 0.12447 0.79644 0.0
C400 C 0.43108 0.20263 0.74563 0.0
C401 C 0.26228 0.12752 0.73317 0.0
O402 O 0.38987 0.14862 0.78234 0.0
O403 O 0.39014 0.10122 0.78058 0.0
O404 O 0.36608 0.17237 0.69104 0.0
O405 O 0.39957 0.13231 0.71036 0.0
Co406 Co 0.38423 0.59153 0.74219 0.0
O407 O 0.30778 0.57504 0.74313 0.0
O408 O 0.38707 0.55293 0.75931 0.0
C409 C 0.37638 0.60625 0.69017 0.0
O410 O 0.47073 0.60407 0.74268 0.0
Co411 Co 0.38724 0.65616 0.73471 0.0
O412 O 0.47152 0.65007 0.72842 0.0
C413 C 0.37169 0.63211 0.80059 0.0
C414 C 0.33109 0.55196 0.7534 0.0
C415 C 0.49801 0.62735 0.7358 0.0
O416 O 0.37339 0.60746 0.78752 0.0
O417 O 0.37358 0.65477 0.78355 0.0
O418 O 0.3926 0.58083 0.69692 0.0
O419 O 0.35961 0.62141 0.71501 0.0
Co420 Co 0.37843 0.59153 0.00228 0.0
O421 O 0.45674 0.57736 0.00235 0.0
O422 O 0.38136 0.55298 0.98483 0.0
C423 C 0.38213 0.60622 0.0545 0.0
O424 O 0.29067 0.60171 0.00052 0.0
Co425 Co 0.36735 0.65581 0.00974 0.0
O426 O 0.28416 0.6471 0.01655 0.0
C427 C 0.38749 0.63238 0.944 0.0
C428 C 0.43718 0.55378 0.99126 0.0
C429 C 0.26037 0.62389 0.00828 0.0
O430 O 0.38918 0.60779 0.95717 0.0
O431 O 0.38183 0.65496 0.96091 0.0
O432 O 0.36928 0.58043 0.04737 0.0
O433 O 0.39826 0.62192 0.02996 0.0
Co434 Co 0.38893 0.16103 0.00157 0.0
O435 O 0.31075 0.17524 0.00167 0.0
O436 O 0.38687 0.20067 0.98757 0.0
C437 C 0.38313 0.14289 0.05224 0.0
O438 O 0.47661 0.15067 0.00041 0.0
Co439 Co 0.39731 0.09612 0.00345 0.0
O440 O 0.48074 0.10392 0.01086 0.0
C441 C 0.38137 0.12393 0.93978 0.0
C442 C 0.33077 0.19949 0.99311 0.0
C443 C 0.50553 0.1275 0.0055 0.0
O444 O 0.38043 0.14768 0.95493 0.0
O445 O 0.38422 0.10026 0.95479 0.0
O446 O 0.39586 0.16914 0.04772 0.0
O447 O 0.36766 0.12905 0.02615 0.0
C448 C 0.12594 0.35463 0.13889 0.0
C449 C 0.12253 0.38017 0.15646 0.0
C450 C 0.13087 0.35417 0.10465 0.0
C451 C 0.13238 0.37922 0.08606 0.0
H452 H 0.12558 0.33459 0.15164 0.0
H453 H 0.13315 0.33378 0.09273 0.0
S454 S 0.12387 0.45196 0.11978 0.0
N455 N 0.12047 0.4314 0.15242 0.0
N456 N 0.12939 0.43053 0.08799 0.0
C457 C 0.1287 0.40502 0.10319 0.0
C458 C 0.12376 0.40549 0.13828 0.0
C459 C 0.12033 0.89488 0.10272 0.0
C460 C 0.12374 0.87012 0.08374 0.0
C461 C 0.12555 0.89424 0.13693 0.0
C462 C 0.13416 0.86878 0.15409 0.0
H463 H 0.11411 0.91522 0.09112 0.0
H464 H 0.12218 0.91408 0.14997 0.0
S465 S 0.14629 0.79769 0.11634 0.0
N466 N 0.13648 0.81912 0.08488 0.0
N467 N 0.14577 0.81793 0.14932 0.0
C468 C 0.1373 0.84371 0.13556 0.0
C469 C 0.13212 0.84437 0.10048 0.0
C470 C 0.89132 0.60138 0.85203 0.0
C471 C 0.87558 0.62584 0.83454 0.0
C472 C 0.88775 0.60036 0.8865 0.0
C473 C 0.86785 0.62369 0.90479 0.0
H474 H 0.9075 0.58304 0.83906 0.0
H475 H 0.90232 0.58143 0.89891 0.0
S476 S 0.81387 0.69146 0.87053 0.0
N477 N 0.83439 0.6731 0.83813 0.0
N478 N 0.82724 0.67105 0.90244 0.0
C479 C 0.84965 0.64782 0.88745 0.0
C480 C 0.85369 0.64895 0.85251 0.0
C481 C 0.8837 0.10614 0.88955 0.0
C482 C 0.88946 0.13154 0.9072 0.0
C483 C 0.87911 0.10586 0.85528 0.0
C484 C 0.88034 0.13094 0.83676 0.0
H485 H 0.88195 0.08609 0.90223 0.0
H486 H 0.87498 0.08557 0.8433 0.0
S487 S 0.89558 0.20334 0.87075 0.0
N488 N 0.89653 0.18266 0.90335 0.0
N489 N 0.8883 0.18213 0.83887 0.0
C490 C 0.88623 0.1566 0.85399 0.0
C491 C 0.89079 0.15689 0.88911 0.0
C492 C 0.13289 0.85685 0.63695 0.0
C493 C 0.12474 0.88225 0.65428 0.0
C494 C 0.1379 0.85636 0.60273 0.0
C495 C 0.13469 0.88123 0.5839 0.0
H496 H 0.13615 0.83694 0.64987 0.0
H497 H 0.14382 0.83606 0.59101 0.0
S498 S 0.11319 0.95356 0.61699 0.0
N499 N 0.11363 0.93316 0.64984 0.0
N500 N 0.12255 0.93224 0.58537 0.0
C501 C 0.12663 0.90691 0.60081 0.0
C502 C 0.12168 0.90741 0.63591 0.0
C503 C 0.12569 0.35165 0.60416 0.0
C504 C 0.13776 0.37652 0.58654 0.0
C505 C 0.13019 0.35077 0.63859 0.0
C506 C 0.14731 0.37467 0.65677 0.0
H507 H 0.11194 0.33277 0.59134 0.0
H508 H 0.11872 0.33136 0.65103 0.0
S509 S 0.19019 0.44418 0.62221 0.0
N510 N 0.1718 0.42513 0.58994 0.0
N511 N 0.18062 0.42335 0.65419 0.0
C512 C 0.16143 0.39939 0.63933 0.0
C513 C 0.15649 0.40036 0.60441 0.0
C514 C 0.87473 0.14656 0.35523 0.0
C515 C 0.8822 0.12163 0.33688 0.0
C516 C 0.86926 0.14605 0.38943 0.0
C517 C 0.87124 0.1206 0.40721 0.0
H518 H 0.8724 0.16687 0.34314 0.0
H519 H 0.86388 0.16602 0.40198 0.0
S520 S 0.89073 0.04915 0.37123 0.0
N521 N 0.89148 0.07053 0.33925 0.0
N522 N 0.88165 0.06956 0.40367 0.0
C523 C 0.87867 0.09538 0.38928 0.0
C524 C 0.88414 0.09591 0.35421 0.0
C525 C 0.87888 0.605 0.35281 0.0
C526 C 0.87045 0.62997 0.33465 0.0
C527 C 0.88393 0.60537 0.38707 0.0
C528 C 0.88062 0.6307 0.40503 0.0
H529 H 0.88237 0.58482 0.34052 0.0
H530 H 0.89015 0.5854 0.39951 0.0
S531 S 0.85782 0.70213 0.36957 0.0
N532 N 0.85843 0.68092 0.33744 0.0
N533 N 0.86765 0.68162 0.40185 0.0
C534 C 0.87204 0.65592 0.38727 0.0
C535 C 0.86692 0.65554 0.35221 0.0
C536 C 0.63118 0.4047 0.60069 0.0
C537 C 0.65213 0.38122 0.58304 0.0
C538 C 0.62633 0.40407 0.63514 0.0
C539 C 0.64178 0.37985 0.65317 0.0
H540 H 0.61653 0.42337 0.58779 0.0
H541 H 0.60916 0.42244 0.64764 0.0
S542 S 0.7066 0.31422 0.619 0.0
N543 N 0.69393 0.33417 0.5866 0.0
N544 N 0.68442 0.33284 0.65086 0.0
C545 C 0.66507 0.3567 0.63585 0.0
C546 C 0.6704 0.35744 0.60097 0.0
C547 C 0.63992 0.89591 0.63961 0.0
C548 C 0.63526 0.87097 0.65822 0.0
C549 C 0.63472 0.89571 0.60538 0.0
C550 C 0.62489 0.87053 0.58786 0.0
H551 H 0.64714 0.91604 0.65151 0.0
H552 H 0.63915 0.91562 0.5926 0.0
S553 S 0.60902 0.79919 0.62457 0.0
N554 N 0.6199 0.82017 0.65634 0.0
N555 N 0.61061 0.81978 0.5919 0.0
C556 C 0.62039 0.84531 0.60603 0.0
C557 C 0.62556 0.84552 0.64111 0.0
C558 C 0.37425 0.645 0.35526 0.0
C559 C 0.38056 0.61983 0.33724 0.0
C560 C 0.36971 0.64489 0.38953 0.0
C561 C 0.37152 0.61962 0.40766 0.0
H562 H 0.37215 0.66519 0.34287 0.0
H563 H 0.36523 0.66503 0.40183 0.0
S564 S 0.38798 0.54766 0.3726 0.0
N565 N 0.3885 0.5687 0.34031 0.0
N566 N 0.38036 0.56848 0.40479 0.0
C567 C 0.37775 0.59417 0.39005 0.0
C568 C 0.38229 0.59428 0.35494 0.0
C569 C 0.38653 0.1484 0.38554 0.0
C570 C 0.37216 0.12402 0.40356 0.0
C571 C 0.38242 0.14894 0.3511 0.0
C572 C 0.36343 0.12517 0.33332 0.0
H573 H 0.40201 0.16711 0.39807 0.0
H574 H 0.39593 0.16788 0.33831 0.0
S575 S 0.31357 0.05718 0.36899 0.0
N576 N 0.33349 0.07621 0.40099 0.0
N577 N 0.32539 0.07734 0.33666 0.0
C578 C 0.34671 0.10104 0.35116 0.0
C579 C 0.35125 0.10041 0.38611 0.0
C580 C 0.61872 0.89994 0.13995 0.0
C581 C 0.63138 0.87518 0.15765 0.0
C582 C 0.62288 0.90071 0.1055 0.0
C583 C 0.64026 0.87681 0.08737 0.0
H584 H 0.60479 0.9188 0.15273 0.0
H585 H 0.61101 0.92004 0.09299 0.0
S586 S 0.6846 0.80759 0.12214 0.0
N587 N 0.66618 0.82668 0.15436 0.0
N588 N 0.6744 0.82828 0.0901 0.0
C589 C 0.65493 0.85222 0.10489 0.0
C590 C 0.65033 0.85135 0.13983 0.0
C591 C 0.6182 0.35121 0.10067 0.0
C592 C 0.63187 0.37587 0.08298 0.0
C593 C 0.6226 0.35029 0.13508 0.0
C594 C 0.64111 0.37397 0.15321 0.0
H595 H 0.60331 0.3325 0.08791 0.0
H596 H 0.60991 0.33109 0.14758 0.0
S597 S 0.68811 0.44283 0.11858 0.0
N598 N 0.66869 0.42401 0.08632 0.0
N599 N 0.67728 0.42217 0.15058 0.0
C600 C 0.65674 0.39846 0.13574 0.0
C601 C 0.65196 0.39946 0.10081 0.0
C602 C 0.378 0.09966 0.85041 0.0
C603 C 0.39529 0.12395 0.833 0.0
C604 C 0.37297 0.09982 0.88483 0.0
C605 C 0.38466 0.12433 0.90324 0.0
H606 H 0.36682 0.08051 0.83736 0.0
H607 H 0.35916 0.08065 0.89703 0.0
S608 S 0.43705 0.1928 0.86974 0.0
N609 N 0.42818 0.17262 0.83714 0.0
N610 N 0.41831 0.17306 0.90137 0.0
C611 C 0.40347 0.14856 0.88614 0.0
C612 C 0.40896 0.14832 0.85122 0.0
C613 C 0.37252 0.60851 0.85544 0.0
C614 C 0.373 0.63372 0.83719 0.0
C615 C 0.37896 0.6085 0.88955 0.0
C616 C 0.38576 0.63373 0.90741 0.0
H617 H 0.36768 0.58829 0.84336 0.0
H618 H 0.37776 0.5883 0.90195 0.0
S619 S 0.39007 0.70581 0.87176 0.0
N620 N 0.3812 0.68489 0.83973 0.0
N621 N 0.39254 0.68486 0.90413 0.0
C622 C 0.38605 0.65924 0.88965 0.0
C623 C 0.37975 0.65925 0.8546 0.0
C624 C 0.02298 0.22636 0.24699 0.0
C625 C 0.96226 0.22874 0.25245 0.0
C626 C 0.05889 0.25019 0.24356 0.0
C627 C 0.03575 0.27752 0.24543 0.0
H628 H 0.04324 0.2058 0.24508 0.0
H629 H 0.10523 0.24711 0.23984 0.0
S630 S 0.87937 0.29558 0.25872 0.0
N631 N 0.88071 0.26079 0.25916 0.0
N632 N 0.94749 0.3056 0.25275 0.0
C633 C 0.97497 0.28026 0.25083 0.0
C634 C 0.93849 0.25592 0.25441 0.0
C635 C 0.27833 0.97049 0.24571 0.0
C636 C 0.21735 0.97288 0.24126 0.0
C637 C 0.31434 0.99436 0.24865 0.0
C638 C 0.2909 0.02165 0.2473 0.0
H639 H 0.29871 0.94992 0.24703 0.0
H640 H 0.36091 0.99135 0.25139 0.0
S641 S 0.13369 0.03964 0.23759 0.0
N642 N 0.13523 0.00487 0.23663 0.0
N643 N 0.2021 0.04968 0.2423 0.0
C644 C 0.22982 0.02436 0.24327 0.0
C645 C 0.19331 1.00003 0.24013 0.0
C646 C 0.98738 0.97696 0.99492 0.0
C647 C 0.0479 0.97891 0.00125 0.0
C648 C 0.95208 0.00104 0.99201 0.0
C649 C 0.97564 0.0282 0.99528 0.0
H650 H 0.96683 0.95657 0.9919 0.0
H651 H 0.90587 0.99828 0.98752 0.0
S652 S 0.1317 0.04513 0.01155 0.0
N653 N 0.12971 0.01035 0.01046 0.0
N654 N 0.06406 0.05563 0.00503 0.0
C655 C 0.03621 0.0305 0.00163 0.0
C656 C 0.07207 0.0059 0.00467 0.0
C657 C 0.3141 0.25194 0.99419 0.0
C658 C 0.29129 0.22448 0.99377 0.0
C659 C 0.27748 0.27547 -0.00195 0.0
C660 C 0.21642 0.27264 0.0017 0.0
H661 H 0.36066 0.25531 0.99201 0.0
H662 H 0.29743 0.29618 -0.00207 0.0
S663 S 0.13423 0.20536 0.00126 0.0
N664 N 0.20299 0.19585 -0.00333 0.0
N665 N 0.13493 0.24008 0.00398 0.0
C666 C 0.193 0.24533 0.0013 0.0
C667 C 0.23017 0.22132 -0.00277 0.0
C668 C 0.94532 0.75668 0.75076 0.0
C669 C 0.96822 0.72931 0.74834 0.0
C670 C 0.98147 0.7805 0.7477 0.0
C671 C 0.04211 0.77805 0.74203 0.0
H672 H 0.89901 0.75979 0.75454 0.0
H673 H 0.96144 0.80109 0.74995 0.0
S674 S 0.12444 0.71112 0.73462 0.0
N675 N 0.05628 0.70117 0.74057 0.0
N676 N 0.12335 0.7459 0.73473 0.0
C677 C 0.06563 0.75083 0.73969 0.0
C678 C 0.02898 0.72654 0.74293 0.0
C679 C 0.69969 0.0037 0.74303 0.0
C680 C 0.72245 0.97624 0.74325 0.0
C681 C 0.73622 0.02726 0.74698 0.0
C682 C 0.79713 0.02445 0.75135 0.0
H683 H 0.65319 0.00705 0.74041 0.0
H684 H 0.7163 0.04796 0.74643 0.0
S685 S 0.87918 0.95715 0.75248 0.0
N686 N 0.81055 0.94761 0.74731 0.0
N687 N 0.87848 0.99189 0.75479 0.0
C688 C 0.82053 0.99714 0.75145 0.0
C689 C 0.78344 0.9731 0.7473 0.0
C690 C 0.77768 0.77703 0.99318 0.0
C691 C 0.71686 0.77436 -0.00191 0.0
C692 C 0.81417 0.75334 0.99023 0.0
C693 C 0.79144 0.72591 0.99202 0.0
H694 H 0.79757 0.7977 0.99152 0.0
H695 H 0.8606 0.75658 0.9871 0.0
S696 S 0.63487 0.70717 0.00317 0.0
N697 N 0.63563 0.74196 0.00371 0.0
N698 N 0.70338 0.69746 -0.00196 0.0
C699 C 0.73051 0.72292 -0.00345 0.0
C700 C 0.6935 0.74708 -0.00031 0.0
C701 C 0.23422 0.52766 0.74919 0.0
C702 C 0.29521 0.52574 0.75388 0.0
C703 C 0.19901 0.50355 0.74589 0.0
C704 C 0.22321 0.4764 0.74713 0.0
H705 H 0.2132 0.54808 0.74777 0.0
H706 H 0.15244 0.50626 0.74278 0.0
S707 S 0.38075 0.45956 0.75801 0.0
N708 N 0.37815 0.49432 0.75903 0.0
N709 N 0.31276 0.44902 0.75282 0.0
C710 C 0.28427 0.47414 0.75171 0.0
C711 C 0.32 0.49874 0.75517 0.0
C712 C 0.02882 0.5298 0.49652 0.0
C713 C 0.96783 0.52671 0.49276 0.0
C714 C 0.06597 0.50637 0.49994 0.0
C715 C 0.04373 0.4788 0.49984 0.0
H716 H 0.04832 0.5506 0.49691 0.0
H717 H 0.11248 0.50992 0.50207 0.0
S718 S 0.88702 0.45903 0.49233 0.0
N719 N 0.88703 0.49377 0.49011 0.0
N720 N 0.95598 0.4498 0.49671 0.0
C721 C 0.98265 0.47541 0.4965 0.0
C722 C 0.94499 0.49928 0.49285 0.0
C723 C 0.31185 0.7516 0.49259 0.0
C724 C 0.28826 0.72432 0.49395 0.0
C725 C 0.27609 0.77553 0.49587 0.0
C726 C 0.2152 0.77325 0.50075 0.0
H727 H 0.35836 0.75455 0.48945 0.0
H728 H 0.29657 0.79607 0.49438 0.0
S729 S 0.13115 0.70662 0.50514 0.0
N730 N 0.19933 0.69646 0.49979 0.0
N731 N 0.133 0.74139 0.50611 0.0
C732 C 0.19102 0.74613 0.5021 0.0
C733 C 0.22726 0.72173 0.49858 0.0
C734 C 0.73147 0.52674 0.24442 0.0
C735 C 0.79257 0.52425 0.24822 0.0
C736 C 0.69533 0.50296 0.24117 0.0
C737 C 0.71871 0.47563 0.24152 0.0
H738 H 0.71112 0.54734 0.24382 0.0
H739 H 0.6487 0.50605 0.23892 0.0
S740 S 0.87616 0.45741 0.24928 0.0
N741 N 0.87475 0.49216 0.25121 0.0
N742 N 0.8076 0.44748 0.24496 0.0
C743 C 0.7799 0.47282 0.24496 0.0
C744 C 0.81657 0.49707 0.24843 0.0
C745 C 0.69914 0.24905 0.50237 0.0
C746 C 0.72308 0.27607 0.49845 0.0
C747 C 0.73419 0.22481 0.49996 0.0
C748 C 0.79473 0.22648 0.4935 0.0
H749 H 0.65286 0.24653 0.50682 0.0
H750 H 0.71338 0.20451 0.50333 0.0
S751 S 0.87951 0.29228 0.4822 0.0
N752 N 0.81201 0.30307 0.48848 0.0
N753 N 0.87699 0.25754 0.48386 0.0
C754 C 0.81928 0.25335 0.4897 0.0
C755 C 0.78376 0.27807 0.49227 0.0
C756 C 0.52894 0.22585 0.74115 0.0
C757 C 0.468 0.22848 0.74556 0.0
C758 C 0.56528 0.24953 0.73778 0.0
C759 C 0.54231 0.27694 0.7386 0.0
H760 H 0.54904 0.2052 0.74017 0.0
H761 H 0.61179 0.24629 0.73506 0.0
S762 S 0.38539 0.29555 0.74839 0.0
N763 N 0.38639 0.26078 0.74984 0.0
N764 N 0.45391 0.30532 0.7434 0.0
C765 C 0.48126 0.2799 0.74272 0.0
C766 C 0.44438 0.25572 0.74631 0.0
C767 C 0.52336 0.02432 0.49661 0.0
C768 C 0.46234 0.02147 0.49271 0.0
C769 C 0.56003 0.00077 0.50025 0.0
C770 C 0.53732 0.97329 0.50019 0.0
H771 H 0.54326 0.04503 0.49698 0.0
H772 H 0.60657 0.00414 0.50254 0.0
S773 S 0.38039 0.95412 0.4921 0.0
N774 N 0.38099 0.98886 0.48983 0.0
N775 N 0.44914 0.94462 0.49677 0.0
C776 C 0.47623 0.97013 0.49663 0.0
C777 C 0.43901 0.99414 0.49279 0.0
C778 C 0.56299 0.7453 0.24407 0.0
C779 C 0.54039 0.77279 0.24423 0.0
C780 C 0.52614 0.72178 0.2474 0.0
C781 C 0.46511 0.72471 0.2511 0.0
H782 H 0.60955 0.74189 0.24197 0.0
H783 H 0.54588 0.70104 0.24696 0.0
S784 S 0.38347 0.79213 0.25162 0.0
N785 N 0.45234 0.80156 0.24734 0.0
N786 N 0.38387 0.75739 0.25376 0.0
C787 C 0.44191 0.75206 0.25109 0.0
C788 C 0.47929 0.77603 0.24753 0.0
C789 C 0.48955 0.47764 0.99117 0.0
C790 C 0.55055 0.48006 0.99556 0.0
C791 C 0.45338 0.50143 0.98853 0.0
C792 C 0.47652 0.52877 0.99021 0.0
H793 H 0.46919 0.45707 0.98964 0.0
H794 H 0.40683 0.49832 0.9858 0.0
S795 S 0.63356 0.54696 0.00027 0.0
N796 N 0.6324 0.51216 0.00064 0.0
N797 N 0.56505 0.55693 0.99573 0.0
C798 C 0.53759 0.53156 0.9943 0.0
C799 C 0.57437 0.50725 -0.00296 0.0
C800 C 0.13563 0.3603 0.39739 0.0
C801 C 0.13239 0.38916 0.40424 0.0
C802 C 0.13484 0.35065 0.36494 0.0
C803 C 0.12996 0.36953 0.33829 0.0
H804 H 0.13992 0.34512 0.41714 0.0
H805 H 0.13802 0.32814 0.36081 0.0
S806 S 0.11701 0.44723 0.34339 0.0
N807 N 0.12214 0.43666 0.38191 0.0
N808 N 0.1201 0.41828 0.32098 0.0
C809 C 0.12547 0.39841 0.34485 0.0
C810 C 0.12686 0.40829 0.37785 0.0
C811 C 0.13269 0.89967 0.36241 0.0
C812 C 0.13523 0.8802 0.33624 0.0
C813 C 0.13238 0.89073 0.3951 0.0
C814 C 0.13379 0.86198 0.40275 0.0
H815 H 0.13076 0.92213 0.3577 0.0
H816 H 0.12975 0.90639 0.41442 0.0
S817 S 0.14331 0.80249 0.34343 0.0
N818 N 0.14141 0.831 0.32021 0.0
N819 N 0.14022 0.8139 0.38171 0.0
C820 C 0.13731 0.84223 0.37687 0.0
C821 C 0.13826 0.85142 0.34357 0.0
C822 C 0.1284 0.85165 0.86264 0.0
C823 C 0.12647 0.871 0.83634 0.0
C824 C 0.12868 0.86076 0.89527 0.0
C825 C 0.12792 0.88956 0.90273 0.0
H826 H 0.12975 0.82916 0.85807 0.0
H827 H 0.13071 0.84518 0.9147 0.0
S828 S 0.12053 0.9488 0.843 0.0
N829 N 0.12178 0.92016 0.81998 0.0
N830 N 0.12305 0.93756 0.88136 0.0
C831 C 0.12519 0.90919 0.87672 0.0
C832 C 0.12421 0.89984 0.84347 0.0
C833 C 0.13038 0.40123 0.86555 0.0
C834 C 0.13463 0.38237 0.83885 0.0
C835 C 0.13128 0.39161 0.89798 0.0
C836 C 0.13561 0.36278 0.90478 0.0
H837 H 0.12633 0.42372 0.86148 0.0
H838 H 0.12726 0.40678 0.91775 0.0
S839 S 0.15013 0.3048 0.84382 0.0
N840 N 0.14526 0.3337 0.82141 0.0
N841 N 0.14635 0.31534 0.88241 0.0
C842 C 0.14068 0.34367 0.87836 0.0
C843 C 0.14038 0.35354 0.84534 0.0
C844 C 0.87685 0.61062 0.64586 0.0
C845 C 0.88004 0.63951 0.6526 0.0
C846 C 0.87713 0.60088 0.61345 0.0
C847 C 0.88141 0.61969 0.5867 0.0
H848 H 0.87297 0.59548 0.66568 0.0
H849 H 0.87393 0.57836 0.60942 0.0
S850 S 0.89416 0.69742 0.59147 0.0
N851 N 0.88972 0.68696 0.63005 0.0
N852 N 0.89083 0.66841 0.56918 0.0
C853 C 0.88595 0.64859 0.59314 0.0
C854 C 0.88507 0.65857 0.62611 0.0
C855 C 0.88059 0.14304 0.64791 0.0
C856 C 0.8776 0.11425 0.65524 0.0
C857 C 0.87981 0.15228 0.61532 0.0
C858 C 0.87516 0.13307 0.58898 0.0
H859 H 0.88491 0.15847 0.66739 0.0
H860 H 0.88305 0.17473 0.6108 0.0
S861 S 0.86226 0.05545 0.59541 0.0
N862 N 0.86735 0.06648 0.63375 0.0
N863 N 0.86524 0.08411 0.57249 0.0
C864 C 0.87049 0.10428 0.59602 0.0
C865 C 0.87194 0.0948 0.62919 0.0
C866 C 0.88066 0.10985 0.14808 0.0
C867 C 0.8825 0.13866 0.15539 0.0
C868 C 0.88114 0.10062 0.11548 0.0
C869 C 0.88431 0.11986 0.08911 0.0
H870 H 0.87762 0.09438 0.16759 0.0
H871 H 0.87899 0.07813 0.11101 0.0
S872 S 0.8934 0.19761 0.09544 0.0
N873 N 0.88976 0.18654 0.13382 0.0
N874 N 0.89129 0.16892 0.07255 0.0
C875 C 0.88757 0.1487 0.09612 0.0
C876 C 0.88645 0.15817 0.1293 0.0
C877 C 0.88319 0.60721 0.09412 0.0
C878 C 0.8817 0.63606 0.08696 0.0
C879 C 0.88156 0.59783 0.12668 0.0
C880 C 0.87749 0.61698 0.15311 0.0
H881 H 0.88675 0.59183 0.07455 0.0
H882 H 0.88352 0.57533 0.13108 0.0
S883 S 0.86897 0.69476 0.14717 0.0
N884 N 0.8739 0.68385 0.10878 0.0
N885 N 0.87013 0.66595 0.16988 0.0
C886 C 0.87457 0.64584 0.14623 0.0
C887 C 0.87692 0.65546 0.11314 0.0
C888 C 0.63305 0.40464 0.87426 0.0
C889 C 0.62768 0.38578 0.90091 0.0
C890 C 0.63265 0.39507 0.84181 0.0
C891 C 0.62763 0.36628 0.83494 0.0
H892 H 0.63793 0.42708 0.87842 0.0
H893 H 0.63779 0.41021 0.82209 0.0
S894 S 0.60913 0.30837 0.8957 0.0
N895 N 0.6146 0.33721 0.91818 0.0
N896 N 0.61427 0.31893 0.85717 0.0
C897 C 0.62095 0.3472 0.86129 0.0
C898 C 0.62083 0.35703 0.89433 0.0
C899 C 0.62766 0.84966 0.87872 0.0
C900 C 0.63016 0.86859 0.90542 0.0
C901 C 0.6277 0.85929 0.84631 0.0
C902 C 0.6294 0.88819 0.83947 0.0
H903 H 0.62584 0.82711 0.8828 0.0
H904 H 0.62551 0.84402 0.82655 0.0
S905 S 0.63755 0.94644 0.90048 0.0
N906 N 0.63563 0.91745 0.92287 0.0
N907 N 0.63501 0.93584 0.86189 0.0
C908 C 0.63226 0.90741 0.8659 0.0
C909 C 0.63289 0.89753 0.89893 0.0
C910 C 0.63417 0.90067 0.37939 0.0
C911 C 0.62928 0.88173 0.406 0.0
C912 C 0.6341 0.89112 0.3469 0.0
C913 C 0.62997 0.8623 0.33996 0.0
H914 H 0.63804 0.92314 0.3836 0.0
H915 H 0.63846 0.90633 0.32719 0.0
S916 S 0.61404 0.80415 0.40063 0.0
N917 N 0.61835 0.833 0.42315 0.0
N918 N 0.61877 0.8148 0.36213 0.0
C919 C 0.62437 0.84313 0.3663 0.0
C920 C 0.62386 0.85291 0.39934 0.0
C921 C 0.62981 0.39396 0.39421 0.0
C922 C 0.63341 0.36523 0.40167 0.0
C923 C 0.62785 0.40298 0.36157 0.0
C924 C 0.63034 0.38359 0.33531 0.0
H925 H 0.62719 0.4095 0.41366 0.0
H926 H 0.62442 0.42541 0.35698 0.0
S927 S 0.64348 0.30603 0.342 0.0
N928 N 0.64165 0.3173 0.38035 0.0
N929 N 0.63861 0.33455 0.31894 0.0
C930 C 0.63539 0.35485 0.34243 0.0
C931 C 0.63672 0.34559 0.37568 0.0
C932 C 0.37867 0.65298 0.12946 0.0
C933 C 0.38108 0.63344 0.15556 0.0
C934 C 0.38021 0.64414 0.09672 0.0
C935 C 0.38339 0.61544 0.08898 0.0
H936 H 0.37564 0.67539 0.13425 0.0
H937 H 0.37778 0.65983 0.07743 0.0
S938 S 0.39261 0.55584 0.14819 0.0
N939 N 0.38846 0.58425 0.17147 0.0
N940 N 0.39079 0.56735 0.10994 0.0
C941 C 0.38646 0.59564 0.11483 0.0
C942 C 0.38549 0.60471 0.14816 0.0
C943 C 0.38287 0.14061 0.14496 0.0
C944 C 0.38192 0.11169 0.15168 0.0
C945 C 0.38313 0.1503 0.11257 0.0
C946 C 0.38158 0.13142 0.08579 0.0
H947 H 0.3845 0.15583 0.16479 0.0
H948 H 0.38449 0.17288 0.10858 0.0
S949 S 0.37562 0.05354 0.09044 0.0
N950 N 0.37748 0.06407 0.12908 0.0
N951 N 0.37729 0.0826 0.06815 0.0
C952 C 0.37932 0.10247 0.09217 0.0
C953 C 0.37973 0.09252 0.12517 0.0
C954 C 0.38206 0.10738 0.64476 0.0
C955 C 0.38415 0.13634 0.65115 0.0
C956 C 0.38085 0.09742 0.61246 0.0
C957 C 0.38252 0.11609 0.58548 0.0
H958 H 0.38 0.09234 0.66477 0.0
H959 H 0.37843 0.07484 0.6087 0.0
S960 S 0.392 0.19394 0.5893 0.0
N961 N 0.39037 0.18372 0.62805 0.0
N962 N 0.3887 0.16474 0.56733 0.0
C963 C 0.38625 0.14506 0.59155 0.0
C964 C 0.38685 0.15526 0.62443 0.0
C965 C 0.37726 0.64428 0.64814 0.0
C966 C 0.37319 0.61561 0.65584 0.0
C967 C 0.37857 0.65313 0.6154 0.0
C968 C 0.375 0.63361 0.58931 0.0
H969 H 0.38093 0.65991 0.66745 0.0
H970 H 0.38253 0.67551 0.61059 0.0
S971 S 0.35979 0.55615 0.59676 0.0
N972 N 0.36296 0.56764 0.63499 0.0
N973 N 0.36484 0.58451 0.57344 0.0
C974 C 0.36926 0.60494 0.59672 0.0
C975 C 0.36854 0.59587 0.63004 0.0
C976 C 0.34794 0.39903 0.26049 0.0
C977 C 0.31693 0.37339 0.25636 0.0
C978 C 0.4091 0.40029 0.25896 0.0
C979 C 0.44238 0.37596 0.2535 0.0
H980 H 0.32491 0.41857 0.26503 0.0
H981 H 0.4304 0.42042 0.26276 0.0
S982 S 0.38351 0.30369 0.23925 0.0
N983 N 0.32502 0.32326 0.24532 0.0
N984 N 0.43951 0.32538 0.24234 0.0
C985 C 0.41208 0.3502 0.24875 0.0
C986 C 0.3497 0.34897 0.25021 0.0
C987 C 0.85297 0.84687 0.26464 0.0
C988 C 0.81925 0.87048 0.25645 0.0
C989 C 0.91417 0.84843 0.26534 0.0
C990 C 0.94456 0.87361 0.25756 0.0
H991 H 0.83198 0.82723 0.27132 0.0
H992 H 0.93774 0.82954 0.27219 0.0
S993 S 0.8762 0.94096 0.23186 0.0
N994 N 0.8207 0.91956 0.23855 0.0
N995 N 0.93523 0.92232 0.23991 0.0
C996 C 0.9112 0.89721 0.24861 0.0
C997 C 0.84887 0.89567 0.248 0.0
C998 C 0.35123 0.90078 0.98023 0.0
C999 C 0.31716 0.87674 0.98593 0.0
C1000 C 0.41239 0.8992 0.97984 0.0
C1001 C 0.44252 0.87354 0.98547 0.0
H1002 H 0.33056 0.92088 0.97529 0.0
H1003 H 0.43613 0.91849 0.97495 0.0
S1004 S 0.37327 0.80472 0.0042 0.0
N1005 N 0.318 0.82657 -0.00086 0.0
N1006 N 0.43259 0.82379 -0.00159 0.0
C1007 C 0.40885 0.84945 0.99197 0.0
C1008 C 0.34646 0.85102 0.99222 0.0
C1009 C 0.91333 0.39729 0.98864 0.0
C1010 C 0.94303 0.37165 0.98271 0.0
C1011 C 0.85225 0.39924 0.98706 0.0
C1012 C 0.81785 0.37568 0.97921 0.0
H1013 H 0.93753 0.41619 0.99475 0.0
H1014 H 0.83199 0.4194 0.99214 0.0
S1015 S 0.87451 0.3036 0.9605 0.0
N1016 N 0.93353 0.32234 0.96827 0.0
N1017 N 0.81921 0.32555 0.96484 0.0
C1018 C 0.84725 0.34981 0.97304 0.0
C1019 C 0.90951 0.34789 0.97499 0.0
C1020 C 0.65809 0.60694 0.72816 0.0
C1021 C 0.68823 0.63264 0.7336 0.0
C1022 C 0.59703 0.6051 0.72979 0.0
C1023 C 0.56299 0.62891 0.73659 0.0
H1024 H 0.68173 0.58778 0.72252 0.0
H1025 H 0.57637 0.58498 0.72496 0.0
S1026 S 0.61918 0.70097 0.75472 0.0
N1027 N 0.67839 0.6822 0.74747 0.0
N1028 N 0.56393 0.67896 0.75047 0.0
C1029 C 0.59231 0.6547 0.74263 0.0
C1030 C 0.65463 0.65652 0.74113 0.0
C1031 C 0.10197 0.14868 0.72964 0.0
C1032 C 0.07182 0.12289 0.73438 0.0
C1033 C 0.16315 0.15025 0.73005 0.0
C1034 C 0.19726 0.12609 0.73492 0.0
H1035 H 0.07822 0.16809 0.72549 0.0
H1036 H 0.18378 0.17048 0.72585 0.0
S1037 S 0.1409 0.05357 0.75046 0.0
N1038 N 0.08165 0.07282 0.74542 0.0
N1039 N 0.19621 0.07554 0.74627 0.0
C1040 C 0.16786 0.1002 0.74031 0.0
C1041 C 0.10546 0.09865 0.74002 0.0
C1042 C 0.60329 0.15036 0.01479 0.0
C1043 C 0.57054 0.12695 0.00476 0.0
C1044 C 0.66444 0.14901 0.01662 0.0
C1045 C 0.69581 0.12427 0.00818 0.0
H1046 H 0.58155 0.16966 0.02202 0.0
H1047 H 0.68717 0.16774 0.02484 0.0
S1048 S 0.63033 0.05765 0.97794 0.0
N1049 N 0.57403 0.07856 0.98459 0.0
N1050 N 0.6885 0.07622 0.98801 0.0
C1051 C 0.66346 0.10089 -0.00252 0.0
C1052 C 0.60115 0.1022 0.99573 0.0
C1053 C 0.16412 0.6488 0.01544 0.0
C1054 C 0.19513 0.62414 0.00625 0.0
C1055 C 0.10309 0.65058 0.01315 0.0
C1056 C 0.07006 0.62771 0.00187 0.0
H1057 H 0.18702 0.66709 0.02476 0.0
H1058 H 0.0816 0.6697 0.02122 0.0
S1059 S 0.12872 0.55904 0.97236 0.0
N1060 N 0.18715 0.57688 0.98371 0.0
N1061 N 0.07276 0.58005 0.97954 0.0
C1062 C 0.10025 0.60313 0.9919 0.0
C1063 C 0.1625 0.60136 0.9941 0.0
C1064 C 0.40829 0.9034 0.76391 0.0
C1065 C 0.4417 0.8799 0.75494 0.0
C1066 C 0.34707 0.90193 0.76481 0.0
C1067 C 0.31637 0.87696 0.75648 0.0
H1068 H 0.42954 0.92282 0.77117 0.0
H1069 H 0.32375 0.9207 0.77234 0.0
S1070 S 0.38397 0.81013 0.72842 0.0
N1071 N 0.43972 0.83127 0.73556 0.0
N1072 N 0.32514 0.82867 0.73725 0.0
C1073 C 0.34945 0.85353 0.74663 0.0
C1074 C 0.4118 0.85499 0.74582 0.0
C1075 C 0.85357 0.39744 0.76513 0.0
C1076 C 0.82305 0.37232 0.75723 0.0
C1077 C 0.91472 0.3991 0.76398 0.0
C1078 C 0.94842 0.37564 0.75521 0.0
H1079 H 0.83016 0.41628 0.77234 0.0
H1080 H 0.9357 0.41873 0.77072 0.0
S1081 S 0.8912 0.30524 0.73047 0.0
N1082 N 0.83222 0.32376 0.73907 0.0
N1083 N 0.94677 0.32665 0.73697 0.0
C1084 C 0.91871 0.35045 0.74681 0.0
C1085 C 0.85634 0.34883 0.74784 0.0
C1086 C 0.35411 0.35583 0.48401 0.0
C1087 C 0.32451 0.38207 0.48522 0.0
C1088 C 0.41526 0.35399 0.48441 0.0
C1089 C 0.44996 0.37829 0.48581 0.0
H1090 H 0.32993 0.33625 0.48266 0.0
H1091 H 0.43537 0.33336 0.48298 0.0
S1092 S 0.39495 0.4522 0.49126 0.0
N1093 N 0.33531 0.43282 0.48915 0.0
N1094 N 0.44981 0.42971 0.49007 0.0
C1095 C 0.42102 0.40472 0.48774 0.0
C1096 C 0.35863 0.40652 0.48743 0.0
C1097 C 0.91098 0.8972 0.47603 0.0
C1098 C 0.94173 0.87224 0.48431 0.0
C1099 C 0.84986 0.89891 0.47796 0.0
C1100 C 0.81656 0.87568 0.48798 0.0
H1101 H 0.93418 0.91577 0.46776 0.0
H1102 H 0.82855 0.91832 0.47071 0.0
S1103 S 0.87463 0.80603 0.51474 0.0
N1104 N 0.93323 0.82424 0.50455 0.0
N1105 N 0.81887 0.8273 0.5082 0.0
C1106 C 0.84657 0.85078 0.49704 0.0
C1107 C 0.90882 0.84908 0.49517 0.0
C1108 C 0.60088 0.09957 0.22873 0.0
C1109 C 0.56596 0.12245 0.23802 0.0
C1110 C 0.66192 0.10207 0.22751 0.0
C1111 C 0.69099 0.1275 0.23582 0.0
H1112 H 0.58092 0.07984 0.22142 0.0
H1113 H 0.68638 0.08372 0.21974 0.0
S1114 S 0.61917 0.19305 0.26462 0.0
N1115 N 0.56483 0.17102 0.25767 0.0
N1116 N 0.67914 0.17553 0.25539 0.0
C1117 C 0.65645 0.15031 0.24602 0.0
C1118 C 0.59424 0.14781 0.24716 0.0
C1119 C 0.09684 0.60093 0.23225 0.0
C1120 C 0.06354 0.62567 0.23427 0.0
C1121 C 0.15807 0.60192 0.23215 0.0
C1122 C 0.18907 0.6277 0.23435 0.0
H1123 H 0.07556 0.58061 0.23025 0.0
H1124 H 0.18118 0.58208 0.23038 0.0
S1125 S 0.12261 0.69867 0.24184 0.0
N1126 N 0.0665 0.67695 0.23978 0.0
N1127 N 0.18111 0.67853 0.23951 0.0
C1128 C 0.15633 0.65259 0.23695 0.0
C1129 C 0.09389 0.65164 0.23692 0.0
C1130 C 0.65922 0.6492 0.50743 0.0
C1131 C 0.69048 0.62344 0.50813 0.0
C1132 C 0.59795 0.65005 0.50769 0.0
C1133 C 0.56483 0.62519 0.50894 0.0
H1134 H 0.68221 0.66914 0.50657 0.0
H1135 H 0.5765 0.6704 0.50726 0.0
S1136 S 0.62496 0.55204 0.51028 0.0
N1137 N 0.68317 0.57246 0.50953 0.0
N1138 N 0.56858 0.57365 0.50997 0.0
C1139 C 0.59557 0.59918 0.50931 0.0
C1140 C 0.65803 0.59841 0.50888 0.0
C1141 C 0.09667 0.14737 0.51338 0.0
C1142 C 0.06264 0.12325 0.50803 0.0
C1143 C 0.15785 0.14583 0.51396 0.0
C1144 C 0.18808 0.12012 0.50886 0.0
H1145 H 0.07596 0.16756 0.51771 0.0
H1146 H 0.18152 0.16521 0.51838 0.0
S1147 S 0.11918 0.05089 0.49187 0.0
N1148 N 0.06381 0.07279 0.49622 0.0
N1149 N 0.17836 0.07012 0.49728 0.0
C1150 C 0.15449 0.09589 0.503 0.0
C1151 C 0.0921 0.0974 0.50257 0.0
loop_
_geom_bond_atom_site_label_1
_geom_bond_atom_site_label_2
_geom_bond_distance
_geom_bond_site_symmetry_2
_ccdc_geom_bond_type
Co0 O1 2.216 . S
Co0 O2 2.091 . S
Co0 O4 2.004 . S
Co0 O10 2.021 . S
Co0 O12 2.137 . S
Co0 O13 2.244 . S
O1 Co0 2.216 . S
O1 C8 1.247 . S
O2 Co0 2.091 . S
O2 C8 1.261 . S
C3 O12 1.247 . S
C3 O13 1.272 . S
O4 Co0 2.004 . S
O4 C9 1.259 . S
Co5 O6 2.061 . S
Co5 O11 2.052 . S
Co5 O13 2.135 . S
O6 Co5 2.061 . S
O6 C9 1.235 . S
C7 O10 1.238 . S
C7 O11 1.241 . S
C8 O1 1.247 . S
C8 O2 1.261 . S
C9 O4 1.259 . S
C9 O6 1.235 . S
O10 Co0 2.021 . S
O10 C7 1.238 . S
O11 Co5 2.052 . S
O11 C7 1.241 . S
O12 Co0 2.137 . S
O12 C3 1.247 . S
O13 Co0 2.244 . S
O13 C3 1.272 . S
O13 Co5 2.135 . S
Co14 O15 2.216 . S
Co14 O16 2.091 . S
Co14 O18 2.004 . S
Co14 O24 2.021 . S
Co14 O26 2.137 . S
Co14 O27 2.244 . S
O15 Co14 2.216 . S
O15 C22 1.247 . S
O16 Co14 2.091 . S
O16 C22 1.261 . S
C17 O26 1.247 . S
C17 O27 1.272 . S
O18 Co14 2.004 . S
O18 C23 1.250 1_455 S
Co19 O20 2.061 . S
Co19 O25 2.052 . S
Co19 O27 2.135 . S
O20 Co19 2.061 . S
O20 C23 1.229 1_455 S
C21 O24 1.238 . S
C21 O25 1.241 . S
C22 O15 1.247 . S
C22 O16 1.261 . S
C23 O18 1.250 1_655 S
C23 O20 1.229 1_655 S
O24 Co14 2.021 . S
O24 C21 1.238 . S
O25 Co19 2.052 . S
O25 C21 1.241 . S
O26 Co14 2.137 . S
O26 C17 1.247 . S
O27 Co14 2.244 . S
O27 C17 1.272 . S
O27 Co19 2.135 . S
Co28 O29 2.216 . S
Co28 O30 2.091 . S
Co28 O32 2.004 . S
Co28 O38 2.021 1_556 S
Co28 O40 2.137 . S
Co28 O41 2.244 . S
O29 Co28 2.216 . S
O29 C36 1.247 . S
O30 Co28 2.091 . S
O30 C36 1.261 . S
C31 O40 1.247 . S
C31 O41 1.272 . S
O32 Co28 2.004 . S
O32 C37 1.263 . S
Co33 O34 2.061 . S
Co33 O39 2.052 . S
Co33 O41 2.135 1_554 S
O34 Co33 2.061 . S
O34 C37 1.232 1_554 S
C35 O38 1.238 . S
C35 O39 1.241 . S
C36 O29 1.247 . S
C36 O30 1.261 . S
C37 O32 1.263 . S
C37 O34 1.232 1_556 S
O38 Co28 2.021 1_554 S
O38 C35 1.238 . S
O39 Co33 2.052 . S
O39 C35 1.241 . S
O40 Co28 2.137 . S
O40 C31 1.247 . S
O41 Co28 2.244 . S
O41 C31 1.272 . S
O41 Co33 2.135 1_556 S
Co42 O43 2.216 . S
Co42 O44 2.091 . S
Co42 O46 2.004 . S
Co42 O52 2.021 1_556 S
Co42 O54 2.137 . S
Co42 O55 2.244 . S
O43 Co42 2.216 . S
O43 C50 1.247 . S
O44 Co42 2.091 . S
O44 C50 1.261 . S
C45 O54 1.247 . S
C45 O55 1.272 . S
O46 Co42 2.004 . S
O46 C51 1.263 1_455 S
Co47 O48 2.061 . S
Co47 O53 2.052 . S
Co47 O55 2.135 1_554 S
O48 Co47 2.061 . S
O48 C51 1.232 1_454 S
C49 O52 1.238 . S
C49 O53 1.241 . S
C50 O43 1.247 . S
C50 O44 1.261 . S
C51 O46 1.263 1_655 S
C51 O48 1.232 1_656 S
O52 Co42 2.021 1_554 S
O52 C49 1.238 . S
O53 Co47 2.052 . S
O53 C49 1.241 . S
O54 Co42 2.137 . S
O54 C45 1.247 . S
O55 Co42 2.244 . S
O55 C45 1.272 . S
O55 Co47 2.135 1_556 S
Co56 O57 2.216 . S
Co56 O58 2.091 . S
Co56 O60 2.004 . S
Co56 O66 2.021 . S
Co56 O68 2.137 . S
Co56 O69 2.244 . S
O57 Co56 2.216 . S
O57 C64 1.247 . S
O58 Co56 2.091 . S
O58 C64 1.261 . S
C59 O68 1.247 . S
C59 O69 1.272 . S
O60 Co56 2.004 . S
O60 C65 1.259 . S
Co61 O62 2.061 . S
Co61 O67 2.052 . S
Co61 O69 2.135 . S
O62 Co61 2.061 . S
O62 C65 1.235 . S
C63 O66 1.238 . S
C63 O67 1.241 . S
C64 O57 1.247 . S
C64 O58 1.261 . S
C65 O60 1.259 . S
C65 O62 1.235 . S
O66 Co56 2.021 . S
O66 C63 1.238 . S
O67 Co61 2.052 . S
O67 C63 1.241 . S
O68 Co56 2.137 . S
O68 C59 1.247 . S
O69 Co56 2.244 . S
O69 C59 1.272 . S
O69 Co61 2.135 . S
Co70 O71 2.216 . S
Co70 O72 2.091 . S
Co70 O74 2.004 . S
Co70 O80 2.021 . S
Co70 O82 2.137 . S
Co70 O83 2.244 . S
O71 Co70 2.216 . S
O71 C78 1.247 . S
O72 Co70 2.091 . S
O72 C78 1.261 . S
C73 O82 1.247 . S
C73 O83 1.272 . S
O74 Co70 2.004 . S
O74 C79 1.250 1_655 S
Co75 O76 2.061 . S
Co75 O81 2.052 . S
Co75 O83 2.135 . S
O76 Co75 2.061 . S
O76 C79 1.229 1_655 S
C77 O80 1.238 . S
C77 O81 1.241 . S
C78 O71 1.247 . S
C78 O72 1.261 . S
C79 O74 1.250 1_455 S
C79 O76 1.229 1_455 S
O80 Co70 2.021 . S
O80 C77 1.238 . S
O81 Co75 2.052 . S
O81 C77 1.241 . S
O82 Co70 2.137 . S
O82 C73 1.247 . S
O83 Co70 2.244 . S
O83 C73 1.272 . S
O83 Co75 2.135 . S
Co84 O85 2.216 . S
Co84 O86 2.091 . S
Co84 O88 2.004 . S
Co84 O94 2.021 1_554 S
Co84 O96 2.137 . S
Co84 O97 2.244 . S
O85 Co84 2.216 . S
O85 C92 1.247 . S
O86 Co84 2.091 . S
O86 C92 1.261 . S
C87 O96 1.247 . S
C87 O97 1.272 . S
O88 Co84 2.004 . S
O88 C93 1.263 . S
Co89 O90 2.061 . S
Co89 O95 2.052 . S
Co89 O97 2.135 1_556 S
O90 Co89 2.061 . S
O90 C93 1.232 1_556 S
C91 O94 1.238 . S
C91 O95 1.241 . S
C92 O85 1.247 . S
C92 O86 1.261 . S
C93 O88 1.263 . S
C93 O90 1.232 1_554 S
O94 Co84 2.021 1_556 S
O94 C91 1.238 . S
O95 Co89 2.052 . S
O95 C91 1.241 . S
O96 Co84 2.137 . S
O96 C87 1.247 . S
O97 Co84 2.244 . S
O97 C87 1.272 . S
O97 Co89 2.135 1_554 S
Co98 O99 2.216 . S
Co98 O100 2.091 . S
Co98 O102 2.004 . S
Co98 O108 2.021 1_554 S
Co98 O110 2.137 . S
Co98 O111 2.244 . S
O99 Co98 2.216 . S
O99 C106 1.247 . S
O100 Co98 2.091 . S
O100 C106 1.261 . S
C101 O110 1.247 . S
C101 O111 1.272 . S
O102 Co98 2.004 . S
O102 C107 1.263 1_655 S
Co103 O104 2.061 . S
Co103 O109 2.052 . S
Co103 O111 2.135 1_556 S
O104 Co103 2.061 . S
O104 C107 1.232 1_656 S
C105 O108 1.238 . S
C105 O109 1.241 . S
C106 O99 1.247 . S
C106 O100 1.261 . S
C107 O102 1.263 1_455 S
C107 O104 1.232 1_454 S
O108 Co98 2.021 1_556 S
O108 C105 1.238 . S
O109 Co103 2.052 . S
O109 C105 1.241 . S
O110 Co98 2.137 . S
O110 C101 1.247 . S
O111 Co98 2.244 . S
O111 C101 1.272 . S
O111 Co103 2.135 1_554 S
Co112 O113 2.216 . S
Co112 O114 2.091 . S
Co112 O116 2.004 . S
Co112 O122 2.021 . S
Co112 O124 2.137 . S
Co112 O125 2.244 . S
O113 Co112 2.216 . S
O113 C120 1.247 . S
O114 Co112 2.091 . S
O114 C120 1.261 . S
C115 O124 1.247 . S
C115 O125 1.272 . S
O116 Co112 2.004 . S
O116 C121 1.259 . S
Co117 O118 2.061 . S
Co117 O123 2.052 . S
Co117 O125 2.135 . S
O118 Co117 2.061 . S
O118 C121 1.235 . S
C119 O122 1.238 . S
C119 O123 1.241 . S
C120 O113 1.247 . S
C120 O114 1.261 . S
C121 O116 1.259 . S
C121 O118 1.235 . S
O122 Co112 2.021 . S
O122 C119 1.238 . S
O123 Co117 2.052 . S
O123 C119 1.241 . S
O124 Co112 2.137 . S
O124 C115 1.247 . S
O125 Co112 2.244 . S
O125 C115 1.272 . S
O125 Co117 2.135 . S
Co126 O127 2.216 . S
Co126 O128 2.091 . S
Co126 O130 2.004 . S
Co126 O136 2.021 . S
Co126 O138 2.137 . S
Co126 O139 2.244 . S
O127 Co126 2.216 . S
O127 C134 1.247 . S
O128 Co126 2.091 . S
O128 C134 1.261 . S
C129 O138 1.247 . S
C129 O139 1.272 . S
O130 Co126 2.004 . S
O130 C135 1.249 1_455 S
Co131 O132 2.061 . S
Co131 O137 2.052 . S
Co131 O139 2.135 . S
O132 Co131 2.061 . S
O132 C135 1.228 1_455 S
C133 O136 1.238 . S
C133 O137 1.241 . S
C134 O127 1.247 . S
C134 O128 1.261 . S
C135 O130 1.249 1_655 S
C135 O132 1.228 1_655 S
O136 Co126 2.021 . S
O136 C133 1.238 . S
O137 Co131 2.052 . S
O137 C133 1.241 . S
O138 Co126 2.137 . S
O138 C129 1.247 . S
O139 Co126 2.244 . S
O139 C129 1.272 . S
O139 Co131 2.135 . S
Co140 O141 2.216 . S
Co140 O142 2.091 . S
Co140 O144 2.004 . S
Co140 O150 2.021 . S
Co140 O152 2.137 . S
Co140 O153 2.244 . S
O141 Co140 2.216 . S
O141 C148 1.247 . S
O142 Co140 2.091 . S
O142 C148 1.261 . S
C143 O152 1.247 . S
C143 O153 1.272 . S
O144 Co140 2.004 . S
O144 C149 1.259 . S
Co145 O146 2.061 . S
Co145 O151 2.052 . S
Co145 O153 2.135 . S
O146 Co145 2.061 . S
O146 C149 1.235 . S
C147 O150 1.238 . S
C147 O151 1.241 . S
C148 O141 1.247 . S
C148 O142 1.261 . S
C149 O144 1.259 . S
C149 O146 1.235 . S
O150 Co140 2.021 . S
O150 C147 1.238 . S
O151 Co145 2.052 . S
O151 C147 1.241 . S
O152 Co140 2.137 . S
O152 C143 1.247 . S
O153 Co140 2.244 . S
O153 C143 1.272 . S
O153 Co145 2.135 . S
Co154 O155 2.216 . S
Co154 O156 2.091 . S
Co154 O158 2.004 . S
Co154 O164 2.021 . S
Co154 O166 2.137 . S
Co154 O167 2.244 . S
O155 Co154 2.216 . S
O155 C162 1.247 . S
O156 Co154 2.091 . S
O156 C162 1.261 . S
C157 O166 1.247 . S
C157 O167 1.272 . S
O158 Co154 2.004 . S
O158 C163 1.259 1_455 S
Co159 O160 2.061 . S
Co159 O165 2.052 . S
Co159 O167 2.135 . S
O160 Co159 2.061 . S
O160 C163 1.235 1_455 S
C161 O164 1.238 . S
C161 O165 1.241 . S
C162 O155 1.247 . S
C162 O156 1.261 . S
C163 O158 1.259 1_655 S
C163 O160 1.235 1_655 S
O164 Co154 2.021 . S
O164 C161 1.238 . S
O165 Co159 2.052 . S
O165 C161 1.241 . S
O166 Co154 2.137 . S
O166 C157 1.247 . S
O167 Co154 2.244 . S
O167 C157 1.272 . S
O167 Co159 2.135 . S
Co168 O169 2.216 . S
Co168 O170 2.091 . S
Co168 O172 2.004 . S
Co168 O178 2.021 . S
Co168 O180 2.137 . S
Co168 O181 2.244 . S
O169 Co168 2.216 . S
O169 C176 1.247 . S
O170 Co168 2.091 . S
O170 C176 1.261 . S
C171 O180 1.247 . S
C171 O181 1.272 . S
O172 Co168 2.004 . S
O172 C177 1.259 . S
Co173 O174 2.061 . S
Co173 O179 2.052 . S
Co173 O181 2.135 . S
O174 Co173 2.061 . S
O174 C177 1.235 . S
C175 O178 1.238 . S
C175 O179 1.241 . S
C176 O169 1.247 . S
C176 O170 1.261 . S
C177 O172 1.259 . S
C177 O174 1.235 . S
O178 Co168 2.021 . S
O178 C175 1.238 . S
O179 Co173 2.052 . S
O179 C175 1.241 . S
O180 Co168 2.137 . S
O180 C171 1.247 . S
O181 Co168 2.244 . S
O181 C171 1.272 . S
O181 Co173 2.135 . S
Co182 O183 2.216 . S
Co182 O184 2.091 . S
Co182 O186 2.004 . S
Co182 O192 2.021 . S
Co182 O194 2.137 . S
Co182 O195 2.244 . S
O183 Co182 2.216 . S
O183 C190 1.247 . S
O184 Co182 2.091 . S
O184 C190 1.261 . S
C185 O194 1.247 . S
C185 O195 1.272 . S
O186 Co182 2.004 . S
O186 C191 1.249 1_655 S
Co187 O188 2.061 . S
Co187 O193 2.052 . S
Co187 O195 2.135 . S
O188 Co187 2.061 . S
O188 C191 1.228 1_655 S
C189 O192 1.238 . S
C189 O193 1.241 . S
C190 O183 1.247 . S
C190 O184 1.261 . S
C191 O186 1.249 1_455 S
C191 O188 1.228 1_455 S
O192 Co182 2.021 . S
O192 C189 1.238 . S
O193 Co187 2.052 . S
O193 C189 1.241 . S
O194 Co182 2.137 . S
O194 C185 1.247 . S
O195 Co182 2.244 . S
O195 C185 1.272 . S
O195 Co187 2.135 . S
Co196 O197 2.216 . S
Co196 O198 2.091 . S
Co196 O200 2.004 . S
Co196 O206 2.021 . S
Co196 O208 2.137 . S
Co196 O209 2.244 . S
O197 Co196 2.216 . S
O197 C204 1.247 . S
O198 Co196 2.091 . S
O198 C204 1.261 . S
C199 O208 1.247 . S
C199 O209 1.272 . S
O200 Co196 2.004 . S
O200 C205 1.259 . S
Co201 O202 2.061 . S
Co201 O207 2.052 . S
Co201 O209 2.135 . S
O202 Co201 2.061 . S
O202 C205 1.235 . S
C203 O206 1.238 . S
C203 O207 1.241 . S
C204 O197 1.247 . S
C204 O198 1.261 . S
C205 O200 1.259 . S
C205 O202 1.235 . S
O206 Co196 2.021 . S
O206 C203 1.238 . S
O207 Co201 2.052 . S
O207 C203 1.241 . S
O208 Co196 2.137 . S
O208 C199 1.247 . S
O209 Co196 2.244 . S
O209 C199 1.272 . S
O209 Co201 2.135 . S
Co210 O211 2.216 . S
Co210 O212 2.091 . S
Co210 O214 2.004 . S
Co210 O220 2.021 . S
Co210 O222 2.137 . S
Co210 O223 2.244 . S
O211 Co210 2.216 . S
O211 C218 1.247 . S
O212 Co210 2.091 . S
O212 C218 1.261 . S
C213 O222 1.247 . S
C213 O223 1.272 . S
O214 Co210 2.004 . S
O214 C219 1.259 1_655 S
Co215 O216 2.061 . S
Co215 O221 2.052 . S
Co215 O223 2.135 . S
O216 Co215 2.061 . S
O216 C219 1.235 1_655 S
C217 O220 1.238 . S
C217 O221 1.241 . S
C218 O211 1.247 . S
C218 O212 1.261 . S
C219 O214 1.259 1_455 S
C219 O216 1.235 1_455 S
O220 Co210 2.021 . S
O220 C217 1.238 . S
O221 Co215 2.052 . S
O221 C217 1.241 . S
O222 Co210 2.137 . S
O222 C213 1.247 . S
O223 Co210 2.244 . S
O223 C213 1.272 . S
O223 Co215 2.135 . S
Co224 O225 2.216 . S
Co224 O226 2.091 . S
Co224 O228 2.004 . S
Co224 O234 2.021 . S
Co224 O236 2.137 . S
Co224 O237 2.244 . S
O225 Co224 2.216 . S
O225 C232 1.247 . S
O226 Co224 2.091 . S
O226 C232 1.261 . S
C227 O236 1.247 . S
C227 O237 1.272 . S
O228 Co224 2.004 . S
O228 C233 1.259 . S
Co229 O230 2.061 . S
Co229 O235 2.052 . S
Co229 O237 2.135 . S
O230 Co229 2.061 . S
O230 C233 1.235 . S
C231 O234 1.238 . S
C231 O235 1.241 . S
C232 O225 1.247 . S
C232 O226 1.261 . S
C233 O228 1.259 . S
C233 O230 1.235 . S
O234 Co224 2.021 . S
O234 C231 1.238 . S
O235 Co229 2.052 . S
O235 C231 1.241 . S
O236 Co224 2.137 . S
O236 C227 1.247 . S
O237 Co224 2.244 . S
O237 C227 1.272 . S
O237 Co229 2.135 . S
Co238 O239 2.216 . S
Co238 O240 2.091 . S
Co238 O242 2.004 . S
Co238 O248 2.021 . S
Co238 O250 2.137 . S
Co238 O251 2.244 . S
O239 Co238 2.216 . S
O239 C246 1.247 . S
O240 Co238 2.091 . S
O240 C246 1.261 . S
C241 O250 1.247 . S
C241 O251 1.272 . S
O242 Co238 2.004 . S
O242 C247 1.259 . S
Co243 O244 2.061 . S
Co243 O249 2.052 . S
Co243 O251 2.135 . S
O244 Co243 2.061 . S
O244 C247 1.235 . S
C245 O248 1.238 . S
C245 O249 1.241 . S
C246 O239 1.247 . S
C246 O240 1.261 . S
C247 O242 1.259 . S
C247 O244 1.235 . S
O248 Co238 2.021 . S
O248 C245 1.238 . S
O249 Co243 2.052 . S
O249 C245 1.241 . S
O250 Co238 2.137 . S
O250 C241 1.247 . S
O251 Co238 2.244 . S
O251 C241 1.272 . S
O251 Co243 2.135 . S
Co252 O253 2.216 . S
Co252 O254 2.091 . S
Co252 O256 2.004 . S
Co252 O262 2.021 . S
Co252 O264 2.137 . S
Co252 O265 2.244 . S
O253 Co252 2.216 . S
O253 C260 1.247 . S
O254 Co252 2.091 . S
O254 C260 1.261 . S
C255 O264 1.247 . S
C255 O265 1.272 . S
O256 Co252 2.004 . S
O256 C261 1.259 . S
Co257 O258 2.061 . S
Co257 O263 2.052 . S
Co257 O265 2.135 . S
O258 Co257 2.061 . S
O258 C261 1.235 . S
C259 O262 1.238 . S
C259 O263 1.241 . S
C260 O253 1.247 . S
C260 O254 1.261 . S
C261 O256 1.259 . S
C261 O258 1.235 . S
O262 Co252 2.021 . S
O262 C259 1.238 . S
O263 Co257 2.052 . S
O263 C259 1.241 . S
O264 Co252 2.137 . S
O264 C255 1.247 . S
O265 Co252 2.244 . S
O265 C255 1.272 . S
O265 Co257 2.135 . S
Co266 O267 2.216 . S
Co266 O268 2.091 . S
Co266 O270 2.004 . S
Co266 O276 2.021 . S
Co266 O278 2.137 . S
Co266 O279 2.244 . S
O267 Co266 2.216 . S
O267 C274 1.247 . S
O268 Co266 2.091 . S
O268 C274 1.261 . S
C269 O278 1.247 . S
C269 O279 1.272 . S
O270 Co266 2.004 . S
O270 C275 1.259 . S
Co271 O272 2.061 . S
Co271 O277 2.052 . S
Co271 O279 2.135 . S
O272 Co271 2.061 . S
O272 C275 1.235 . S
C273 O276 1.238 . S
C273 O277 1.241 . S
C274 O267 1.247 . S
C274 O268 1.261 . S
C275 O270 1.259 . S
C275 O272 1.235 . S
O276 Co266 2.021 . S
O276 C273 1.238 . S
O277 Co271 2.052 . S
O277 C273 1.241 . S
O278 Co266 2.137 . S
O278 C269 1.247 . S
O279 Co266 2.244 . S
O279 C269 1.272 . S
O279 Co271 2.135 . S
Co280 O281 2.216 . S
Co280 O282 2.091 . S
Co280 O284 2.004 . S
Co280 O290 2.021 . S
Co280 O292 2.137 . S
Co280 O293 2.244 . S
O281 Co280 2.216 . S
O281 C288 1.247 . S
O282 Co280 2.091 . S
O282 C288 1.261 . S
C283 O292 1.247 . S
C283 O293 1.272 . S
O284 Co280 2.004 . S
O284 C289 1.259 . S
Co285 O286 2.061 . S
Co285 O291 2.052 . S
Co285 O293 2.135 . S
O286 Co285 2.061 . S
O286 C289 1.235 . S
C287 O290 1.238 . S
C287 O291 1.241 . S
C288 O281 1.247 . S
C288 O282 1.261 . S
C289 O284 1.259 . S
C289 O286 1.235 . S
O290 Co280 2.021 . S
O290 C287 1.238 . S
O291 Co285 2.052 . S
O291 C287 1.241 . S
O292 Co280 2.137 . S
O292 C283 1.247 . S
O293 Co280 2.244 . S
O293 C283 1.272 . S
O293 Co285 2.135 . S
Co294 O295 2.216 . S
Co294 O296 2.091 . S
Co294 O298 2.004 . S
Co294 O304 2.021 . S
Co294 O306 2.137 . S
Co294 O307 2.244 . S
O295 Co294 2.216 . S
O295 C302 1.247 . S
O296 Co294 2.091 . S
O296 C302 1.261 . S
C297 O306 1.247 . S
C297 O307 1.272 . S
O298 Co294 2.004 . S
O298 C303 1.259 . S
Co299 O300 2.061 . S
Co299 O305 2.052 . S
Co299 O307 2.135 . S
O300 Co299 2.061 . S
O300 C303 1.235 . S
C301 O304 1.238 . S
C301 O305 1.241 . S
C302 O295 1.247 . S
C302 O296 1.261 . S
C303 O298 1.259 . S
C303 O300 1.235 . S
O304 Co294 2.021 . S
O304 C301 1.238 . S
O305 Co299 2.052 . S
O305 C301 1.241 . S
O306 Co294 2.137 . S
O306 C297 1.247 . S
O307 Co294 2.244 . S
O307 C297 1.272 . S
O307 Co299 2.135 . S
Co308 O309 2.216 . S
Co308 O310 2.091 . S
Co308 O312 2.004 . S
Co308 O318 2.021 . S
Co308 O320 2.137 . S
Co308 O321 2.244 . S
O309 Co308 2.216 . S
O309 C316 1.247 . S
O310 Co308 2.091 . S
O310 C316 1.261 . S
C311 O320 1.247 . S
C311 O321 1.272 . S
O312 Co308 2.004 . S
O312 C317 1.259 . S
Co313 O314 2.061 . S
Co313 O319 2.052 . S
Co313 O321 2.135 . S
O314 Co313 2.061 . S
O314 C317 1.235 . S
C315 O318 1.238 . S
C315 O319 1.241 . S
C316 O309 1.247 . S
C316 O310 1.261 . S
C317 O312 1.259 . S
C317 O314 1.235 . S
O318 Co308 2.021 . S
O318 C315 1.238 . S
O319 Co313 2.052 . S
O319 C315 1.241 . S
O320 Co308 2.137 . S
O320 C311 1.247 . S
O321 Co308 2.244 . S
O321 C311 1.272 . S
O321 Co313 2.135 . S
Co322 O323 2.216 . S
Co322 O324 2.091 . S
Co322 O326 2.004 . S
Co322 O332 2.021 . S
Co322 O334 2.137 . S
Co322 O335 2.244 . S
O323 Co322 2.216 . S
O323 C330 1.247 . S
O324 Co322 2.091 . S
O324 C330 1.261 . S
C325 O334 1.247 . S
C325 O335 1.272 . S
O326 Co322 2.004 . S
O326 C331 1.259 . S
Co327 O328 2.061 . S
Co327 O333 2.052 . S
Co327 O335 2.135 . S
O328 Co327 2.061 . S
O328 C331 1.235 . S
C329 O332 1.238 . S
C329 O333 1.241 . S
C330 O323 1.247 . S
C330 O324 1.261 . S
C331 O326 1.259 . S
C331 O328 1.235 . S
O332 Co322 2.021 . S
O332 C329 1.238 . S
O333 Co327 2.052 . S
O333 C329 1.241 . S
O334 Co322 2.137 . S
O334 C325 1.247 . S
O335 Co322 2.244 . S
O335 C325 1.272 . S
O335 Co327 2.135 . S
Co336 O337 2.216 . S
Co336 O338 2.091 . S
Co336 O340 2.004 . S
Co336 O346 2.021 . S
Co336 O348 2.137 . S
Co336 O349 2.244 . S
O337 Co336 2.216 . S
O337 C344 1.247 . S
O338 Co336 2.091 . S
O338 C344 1.261 . S
C339 O348 1.247 . S
C339 O349 1.272 . S
O340 Co336 2.004 . S
O340 C345 1.259 . S
Co341 O342 2.061 . S
Co341 O347 2.052 . S
Co341 O349 2.135 . S
O342 Co341 2.061 . S
O342 C345 1.235 . S
C343 O346 1.238 . S
C343 O347 1.241 . S
C344 O337 1.247 . S
C344 O338 1.261 . S
C345 O340 1.259 . S
C345 O342 1.235 . S
O346 Co336 2.021 . S
O346 C343 1.238 . S
O347 Co341 2.052 . S
O347 C343 1.241 . S
O348 Co336 2.137 . S
O348 C339 1.247 . S
O349 Co336 2.244 . S
O349 C339 1.272 . S
O349 Co341 2.135 . S
Co350 O351 2.216 . S
Co350 O352 2.091 . S
Co350 O354 2.004 . S
Co350 O360 2.021 . S
Co350 O362 2.137 . S
Co350 O363 2.244 . S
O351 Co350 2.216 . S
O351 C358 1.247 . S
O352 Co350 2.091 . S
O352 C358 1.261 . S
C353 O362 1.247 . S
C353 O363 1.272 . S
O354 Co350 2.004 . S
O354 C359 1.259 . S
Co355 O356 2.061 . S
Co355 O361 2.052 . S
Co355 O363 2.135 . S
O356 Co355 2.061 . S
O356 C359 1.235 . S
C357 O360 1.238 . S
C357 O361 1.241 . S
C358 O351 1.247 . S
C358 O352 1.261 . S
C359 O354 1.259 . S
C359 O356 1.235 . S
O360 Co350 2.021 . S
O360 C357 1.238 . S
O361 Co355 2.052 . S
O361 C357 1.241 . S
O362 Co350 2.137 . S
O362 C353 1.247 . S
O363 Co350 2.244 . S
O363 C353 1.272 . S
O363 Co355 2.135 . S
Co364 O365 2.216 . S
Co364 O366 2.091 . S
Co364 O368 2.004 . S
Co364 O374 2.021 1_556 S
Co364 O376 2.137 . S
Co364 O377 2.244 . S
O365 Co364 2.216 . S
O365 C372 1.247 . S
O366 Co364 2.091 . S
O366 C372 1.261 . S
C367 O376 1.247 . S
C367 O377 1.272 . S
O368 Co364 2.004 . S
O368 C373 1.263 . S
Co369 O370 2.061 . S
Co369 O375 2.052 . S
Co369 O377 2.135 1_554 S
O370 Co369 2.061 . S
O370 C373 1.232 1_554 S
C371 O374 1.238 . S
C371 O375 1.241 . S
C372 O365 1.247 . S
C372 O366 1.261 . S
C373 O368 1.263 . S
C373 O370 1.232 1_556 S
O374 Co364 2.021 1_554 S
O374 C371 1.238 . S
O375 Co369 2.052 . S
O375 C371 1.241 . S
O376 Co364 2.137 . S
O376 C367 1.247 . S
O377 Co364 2.244 . S
O377 C367 1.272 . S
O377 Co369 2.135 1_556 S
Co378 O379 2.216 . S
Co378 O380 2.091 . S
Co378 O382 2.004 . S
Co378 O388 2.021 1_556 S
Co378 O390 2.137 . S
Co378 O391 2.244 . S
O379 Co378 2.216 . S
O379 C386 1.247 . S
O380 Co378 2.091 . S
O380 C386 1.261 . S
C381 O390 1.247 . S
C381 O391 1.272 . S
O382 Co378 2.004 . S
O382 C387 1.263 . S
Co383 O384 2.061 . S
Co383 O389 2.052 . S
Co383 O391 2.135 1_554 S
O384 Co383 2.061 . S
O384 C387 1.232 1_554 S
C385 O388 1.238 . S
C385 O389 1.241 . S
C386 O379 1.247 . S
C386 O380 1.261 . S
C387 O382 1.263 . S
C387 O384 1.232 1_556 S
O388 Co378 2.021 1_554 S
O388 C385 1.238 . S
O389 Co383 2.052 . S
O389 C385 1.241 . S
O390 Co378 2.137 . S
O390 C381 1.247 . S
O391 Co378 2.244 . S
O391 C381 1.272 . S
O391 Co383 2.135 1_556 S
Co392 O393 2.216 . S
Co392 O394 2.091 . S
Co392 O396 2.004 . S
Co392 O402 2.021 . S
Co392 O404 2.137 . S
Co392 O405 2.244 . S
O393 Co392 2.216 . S
O393 C400 1.247 . S
O394 Co392 2.091 . S
O394 C400 1.261 . S
C395 O404 1.247 . S
C395 O405 1.272 . S
O396 Co392 2.004 . S
O396 C401 1.259 . S
Co397 O398 2.061 . S
Co397 O403 2.052 . S
Co397 O405 2.135 . S
O398 Co397 2.061 . S
O398 C401 1.235 . S
C399 O402 1.238 . S
C399 O403 1.241 . S
C400 O393 1.247 . S
C400 O394 1.261 . S
C401 O396 1.259 . S
C401 O398 1.235 . S
O402 Co392 2.021 . S
O402 C399 1.238 . S
O403 Co397 2.052 . S
O403 C399 1.241 . S
O404 Co392 2.137 . S
O404 C395 1.247 . S
O405 Co392 2.244 . S
O405 C395 1.272 . S
O405 Co397 2.135 . S
Co406 O407 2.216 . S
Co406 O408 2.091 . S
Co406 O410 2.004 . S
Co406 O416 2.021 . S
Co406 O418 2.137 . S
Co406 O419 2.244 . S
O407 Co406 2.216 . S
O407 C414 1.247 . S
O408 Co406 2.091 . S
O408 C414 1.261 . S
C409 O418 1.247 . S
C409 O419 1.272 . S
O410 Co406 2.004 . S
O410 C415 1.259 . S
Co411 O412 2.061 . S
Co411 O417 2.052 . S
Co411 O419 2.135 . S
O412 Co411 2.061 . S
O412 C415 1.235 . S
C413 O416 1.238 . S
C413 O417 1.241 . S
C414 O407 1.247 . S
C414 O408 1.261 . S
C415 O410 1.259 . S
C415 O412 1.235 . S
O416 Co406 2.021 . S
O416 C413 1.238 . S
O417 Co411 2.052 . S
O417 C413 1.241 . S
O418 Co406 2.137 . S
O418 C409 1.247 . S
O419 Co406 2.244 . S
O419 C409 1.272 . S
O419 Co411 2.135 . S
Co420 O421 2.216 . S
Co420 O422 2.091 . S
Co420 O424 2.004 . S
Co420 O430 2.021 1_554 S
Co420 O432 2.137 . S
Co420 O433 2.244 . S
O421 Co420 2.216 . S
O421 C428 1.247 . S
O422 Co420 2.091 . S
O422 C428 1.261 . S
C423 O432 1.247 . S
C423 O433 1.272 . S
O424 Co420 2.004 . S
O424 C429 1.263 . S
Co425 O426 2.061 . S
Co425 O431 2.052 . S
Co425 O433 2.135 1_556 S
O426 Co425 2.061 . S
O426 C429 1.232 1_556 S
C427 O430 1.238 . S
C427 O431 1.241 . S
C428 O421 1.247 . S
C428 O422 1.261 . S
C429 O424 1.263 . S
C429 O426 1.232 1_554 S
O430 Co420 2.021 1_556 S
O430 C427 1.238 . S
O431 Co425 2.052 . S
O431 C427 1.241 . S
O432 Co420 2.137 . S
O432 C423 1.247 . S
O433 Co420 2.244 . S
O433 C423 1.272 . S
O433 Co425 2.135 1_554 S
Co434 O435 2.216 . S
Co434 O436 2.091 . S
Co434 O438 2.004 . S
Co434 O444 2.021 1_554 S
Co434 O446 2.137 . S
Co434 O447 2.244 . S
O435 Co434 2.216 . S
O435 C442 1.247 . S
O436 Co434 2.091 . S
O436 C442 1.261 . S
C437 O446 1.247 . S
C437 O447 1.272 . S
O438 Co434 2.004 . S
O438 C443 1.263 . S
Co439 O440 2.061 . S
Co439 O445 2.052 . S
Co439 O447 2.135 1_556 S
O440 Co439 2.061 . S
O440 C443 1.232 1_556 S
C441 O444 1.238 . S
C441 O445 1.241 . S
C442 O435 1.247 . S
C442 O436 1.261 . S
C443 O438 1.263 . S
C443 O440 1.232 1_554 S
O444 Co434 2.021 1_556 S
O444 C441 1.238 . S
O445 Co439 2.052 . S
O445 C441 1.241 . S
O446 Co434 2.137 . S
O446 C437 1.247 . S
O447 Co434 2.244 . S
O447 C437 1.272 . S
O447 Co439 2.135 1_554 S
C448 C449 1.369 . S
C448 C450 1.419 . S
C448 H452 0.930 . S
C449 C448 1.369 . S
C449 C458 1.429 . S
C450 C448 1.419 . S
C450 C451 1.363 . S
C450 H453 0.929 . S
C451 C450 1.363 . S
C451 C457 1.428 . S
H452 C448 0.930 . S
H453 C450 0.929 . S
S454 N455 1.613 . S
S454 N456 1.610 . S
N455 S454 1.613 . S
N455 C458 1.350 . S
N456 S454 1.610 . S
N456 C457 1.351 . S
C457 C451 1.428 . S
C457 N456 1.351 . S
C457 C458 1.434 . S
C458 C449 1.429 . S
C458 N455 1.350 . S
C458 C457 1.434 . S
C459 C460 1.369 . S
C459 C461 1.419 . S
C459 H463 0.930 . S
C460 C459 1.369 . S
C460 C469 1.429 . S
C461 C459 1.419 . S
C461 C462 1.363 . S
C461 H464 0.929 . S
C462 C461 1.363 . S
C462 C468 1.428 . S
H463 C459 0.930 . S
H464 C461 0.929 . S
S465 N466 1.613 . S
S465 N467 1.610 . S
N466 S465 1.613 . S
N466 C469 1.350 . S
N467 S465 1.610 . S
N467 C468 1.351 . S
C468 C462 1.428 . S
C468 N467 1.351 . S
C468 C469 1.434 . S
C469 C460 1.429 . S
C469 N466 1.350 . S
C469 C468 1.434 . S
C470 C471 1.369 . S
C470 C472 1.419 . S
C470 H474 0.930 . S
C471 C470 1.369 . S
C471 C480 1.429 . S
C472 C470 1.419 . S
C472 C473 1.363 . S
C472 H475 0.929 . S
C473 C472 1.363 . S
C473 C479 1.428 . S
H474 C470 0.930 . S
H475 C472 0.929 . S
S476 N477 1.613 . S
S476 N478 1.610 . S
N477 S476 1.613 . S
N477 C480 1.350 . S
N478 S476 1.610 . S
N478 C479 1.351 . S
C479 C473 1.428 . S
C479 N478 1.351 . S
C479 C480 1.434 . S
C480 C471 1.429 . S
C480 N477 1.350 . S
C480 C479 1.434 . S
C481 C482 1.369 . S
C481 C483 1.419 . S
C481 H485 0.930 . S
C482 C481 1.369 . S
C482 C491 1.429 . S
C483 C481 1.419 . S
C483 C484 1.363 . S
C483 H486 0.929 . S
C484 C483 1.363 . S
C484 C490 1.428 . S
H485 C481 0.930 . S
H486 C483 0.929 . S
S487 N488 1.613 . S
S487 N489 1.610 . S
N488 S487 1.613 . S
N488 C491 1.350 . S
N489 S487 1.610 . S
N489 C490 1.351 . S
C490 C484 1.428 . S
C490 N489 1.351 . S
C490 C491 1.434 . S
C491 C482 1.429 . S
C491 N488 1.350 . S
C491 C490 1.434 . S
C492 C493 1.369 . S
C492 C494 1.419 . S
C492 H496 0.930 . S
C493 C492 1.369 . S
C493 C502 1.429 . S
C494 C492 1.419 . S
C494 C495 1.363 . S
C494 H497 0.929 . S
C495 C494 1.363 . S
C495 C501 1.428 . S
H496 C492 0.930 . S
H497 C494 0.929 . S
S498 N499 1.613 1_655 S
S498 N500 1.610 1_655 S
N499 S498 1.613 1_455 S
N499 C502 1.350 . S
N500 S498 1.610 1_455 S
N500 C501 1.351 . S
C501 C495 1.428 . S
C501 N500 1.351 . S
C501 C502 1.434 . S
C502 C493 1.429 . S
C502 N499 1.350 . S
C502 C501 1.434 . S
C503 C504 1.369 . S
C503 C505 1.419 . S
C503 H507 0.930 . S
C504 C503 1.369 . S
C504 C513 1.429 . S
C505 C503 1.419 . S
C505 C506 1.363 . S
C505 H508 0.929 . S
C506 C505 1.363 . S
C506 C512 1.428 . S
H507 C503 0.930 . S
H508 C505 0.929 . S
S509 N510 1.613 . S
S509 N511 1.610 . S
N510 S509 1.613 . S
N510 C513 1.350 . S
N511 S509 1.610 . S
N511 C512 1.351 . S
C512 C506 1.428 . S
C512 N511 1.351 . S
C512 C513 1.434 . S
C513 C504 1.429 . S
C513 N510 1.350 . S
C513 C512 1.434 . S
C514 C515 1.369 . S
C514 C516 1.419 . S
C514 H518 0.930 . S
C515 C514 1.369 . S
C515 C524 1.429 . S
C516 C514 1.419 . S
C516 C517 1.363 . S
C516 H519 0.929 . S
C517 C516 1.363 . S
C517 C523 1.428 . S
H518 C514 0.930 . S
H519 C516 0.929 . S
S520 N521 1.613 . S
S520 N522 1.610 . S
N521 S520 1.613 . S
N521 C524 1.350 . S
N522 S520 1.610 . S
N522 C523 1.351 . S
C523 C517 1.428 . S
C523 N522 1.351 . S
C523 C524 1.434 . S
C524 C515 1.429 . S
C524 N521 1.350 . S
C524 C523 1.434 . S
C525 C526 1.369 . S
C525 C527 1.419 . S
C525 H529 0.930 . S
C526 C525 1.369 . S
C526 C535 1.429 . S
C527 C525 1.419 . S
C527 C528 1.363 . S
C527 H530 0.929 . S
C528 C527 1.363 . S
C528 C534 1.428 . S
H529 C525 0.930 . S
H530 C527 0.929 . S
S531 N532 1.613 . S
S531 N533 1.610 . S
N532 S531 1.613 . S
N532 C535 1.350 . S
N533 S531 1.610 . S
N533 C534 1.351 . S
C534 C528 1.428 . S
C534 N533 1.351 . S
C534 C535 1.434 . S
C535 C526 1.429 . S
C535 N532 1.350 . S
C535 C534 1.434 . S
C536 C537 1.369 . S
C536 C538 1.419 . S
C536 H540 0.930 . S
C537 C536 1.369 . S
C537 C546 1.429 . S
C538 C536 1.419 . S
C538 C539 1.363 . S
C538 H541 0.929 . S
C539 C538 1.363 . S
C539 C545 1.428 . S
H540 C536 0.930 . S
H541 C538 0.929 . S
S542 N543 1.613 . S
S542 N544 1.610 . S
N543 S542 1.613 . S
N543 C546 1.350 . S
N544 S542 1.610 . S
N544 C545 1.351 . S
C545 C539 1.428 . S
C545 N544 1.351 . S
C545 C546 1.434 . S
C546 C537 1.429 . S
C546 N543 1.350 . S
C546 C545 1.434 . S
C547 C548 1.369 . S
C547 C549 1.419 . S
C547 H551 0.930 . S
C548 C547 1.369 . S
C548 C557 1.429 . S
C549 C547 1.419 . S
C549 C550 1.363 . S
C549 H552 0.929 . S
C550 C549 1.363 . S
C550 C556 1.428 . S
H551 C547 0.930 . S
H552 C549 0.929 . S
S553 N554 1.613 . S
S553 N555 1.610 . S
N554 S553 1.613 . S
N554 C557 1.350 . S
N555 S553 1.610 . S
N555 C556 1.351 . S
C556 C550 1.428 . S
C556 N555 1.351 . S
C556 C557 1.434 . S
C557 C548 1.429 . S
C557 N554 1.350 . S
C557 C556 1.434 . S
C558 C559 1.369 . S
C558 C560 1.419 . S
C558 H562 0.930 . S
C559 C558 1.369 . S
C559 C568 1.429 . S
C560 C558 1.419 . S
C560 C561 1.363 . S
C560 H563 0.929 . S
C561 C560 1.363 . S
C561 C567 1.428 . S
H562 C558 0.930 . S
H563 C560 0.929 . S
S564 N565 1.613 . S
S564 N566 1.610 . S
N565 S564 1.613 . S
N565 C568 1.350 . S
N566 S564 1.610 . S
N566 C567 1.351 . S
C567 C561 1.428 . S
C567 N566 1.351 . S
C567 C568 1.434 . S
C568 C559 1.429 . S
C568 N565 1.350 . S
C568 C567 1.434 . S
C569 C570 1.369 . S
C569 C571 1.419 . S
C569 H573 0.930 . S
C570 C569 1.369 . S
C570 C579 1.429 . S
C571 C569 1.419 . S
C571 C572 1.363 . S
C571 H574 0.929 . S
C572 C571 1.363 . S
C572 C578 1.428 . S
H573 C569 0.930 . S
H574 C571 0.929 . S
S575 N576 1.613 . S
S575 N577 1.610 . S
N576 S575 1.613 . S
N576 C579 1.350 . S
N577 S575 1.610 . S
N577 C578 1.351 . S
C578 C572 1.428 . S
C578 N577 1.351 . S
C578 C579 1.434 . S
C579 C570 1.429 . S
C579 N576 1.350 . S
C579 C578 1.434 . S
C580 C581 1.369 . S
C580 C582 1.419 . S
C580 H584 0.930 . S
C581 C580 1.369 . S
C581 C590 1.429 . S
C582 C580 1.419 . S
C582 C583 1.363 . S
C582 H585 0.929 . S
C583 C582 1.363 . S
C583 C589 1.428 . S
H584 C580 0.930 . S
H585 C582 0.929 . S
S586 N587 1.613 . S
S586 N588 1.610 . S
N587 S586 1.613 . S
N587 C590 1.350 . S
N588 S586 1.610 . S
N588 C589 1.351 . S
C589 C583 1.428 . S
C589 N588 1.351 . S
C589 C590 1.434 . S
C590 C581 1.429 . S
C590 N587 1.350 . S
C590 C589 1.434 . S
C591 C592 1.369 . S
C591 C593 1.419 . S
C591 H595 0.930 . S
C592 C591 1.369 . S
C592 C601 1.429 . S
C593 C591 1.419 . S
C593 C594 1.363 . S
C593 H596 0.929 . S
C594 C593 1.363 . S
C594 C600 1.428 . S
H595 C591 0.930 . S
H596 C593 0.929 . S
S597 N598 1.613 . S
S597 N599 1.610 . S
N598 S597 1.613 . S
N598 C601 1.350 . S
N599 S597 1.610 . S
N599 C600 1.351 . S
C600 C594 1.428 . S
C600 N599 1.351 . S
C600 C601 1.434 . S
C601 C592 1.429 . S
C601 N598 1.350 . S
C601 C600 1.434 . S
C602 C603 1.369 . S
C602 C604 1.419 . S
C602 H606 0.930 . S
C603 C602 1.369 . S
C603 C612 1.429 . S
C604 C602 1.419 . S
C604 C605 1.363 . S
C604 H607 0.929 . S
C605 C604 1.363 . S
C605 C611 1.428 . S
H606 C602 0.930 . S
H607 C604 0.929 . S
S608 N609 1.613 . S
S608 N610 1.610 . S
N609 S608 1.613 . S
N609 C612 1.350 . S
N610 S608 1.610 . S
N610 C611 1.351 . S
C611 C605 1.428 . S
C611 N610 1.351 . S
C611 C612 1.434 . S
C612 C603 1.429 . S
C612 N609 1.350 . S
C612 C611 1.434 . S
C613 C614 1.369 . S
C613 C615 1.419 . S
C613 H617 0.930 . S
C614 C613 1.369 . S
C614 C623 1.429 . S
C615 C613 1.419 . S
C615 C616 1.363 . S
C615 H618 0.929 . S
C616 C615 1.363 . S
C616 C622 1.428 . S
H617 C613 0.930 . S
H618 C615 0.929 . S
S619 N620 1.613 . S
S619 N621 1.610 . S
N620 S619 1.613 . S
N620 C623 1.350 . S
N621 S619 1.610 . S
N621 C622 1.351 . S
C622 C616 1.428 . S
C622 N621 1.351 . S
C622 C623 1.434 . S
C623 C614 1.429 . S
C623 N620 1.350 . S
C623 C622 1.434 . S
C624 C625 1.369 1_455 S
C624 C626 1.419 . S
C624 H628 0.930 . S
C625 C624 1.369 1_655 S
C625 C634 1.429 . S
C626 C624 1.419 . S
C626 C627 1.363 . S
C626 H629 0.929 . S
C627 C626 1.363 . S
C627 C633 1.428 1_455 S
H628 C624 0.930 . S
H629 C626 0.929 . S
S630 N631 1.613 . S
S630 N632 1.610 . S
N631 S630 1.613 . S
N631 C634 1.350 . S
N632 S630 1.610 . S
N632 C633 1.351 . S
C633 C627 1.428 1_655 S
C633 N632 1.351 . S
C633 C634 1.434 . S
C634 C625 1.429 . S
C634 N631 1.350 . S
C634 C633 1.434 . S
C635 C636 1.369 . S
C635 C637 1.419 1_565 S
C635 H639 0.930 . S
C636 C635 1.369 . S
C636 C645 1.429 . S
C637 C635 1.419 1_545 S
C637 C638 1.363 . S
C637 H640 0.929 . S
C638 C637 1.363 . S
C638 C644 1.428 . S
H639 C635 0.930 . S
H640 C637 0.929 . S
S641 N642 1.613 1_545 S
S641 N643 1.610 . S
N642 S641 1.613 1_565 S
N642 C645 1.350 . S
N643 S641 1.610 . S
N643 C644 1.351 . S
C644 C638 1.428 . S
C644 N643 1.351 . S
C644 C645 1.434 1_545 S
C645 C636 1.429 . S
C645 N642 1.350 . S
C645 C644 1.434 1_565 S
C646 C647 1.369 . S
C646 C648 1.419 1_465 S
C646 H650 0.930 . S
C647 C646 1.369 . S
C647 C656 1.429 1_556 S
C648 C646 1.419 1_645 S
C648 C649 1.363 1_556 S
C648 H651 0.929 . S
C649 C648 1.363 1_554 S
C649 C655 1.428 . S
H650 C646 0.930 . S
H651 C648 0.929 . S
S652 N653 1.620 . S
S652 N654 1.604 1_465 S
N653 S652 1.620 . S
N653 C656 1.350 . S
N654 S652 1.604 1_645 S
N654 C655 1.351 . S
C655 C649 1.428 . S
C655 N654 1.351 . S
C655 C656 1.434 1_645 S
C656 C647 1.429 1_554 S
C656 N653 1.350 . S
C656 C655 1.434 1_465 S
C657 C658 1.369 1_556 S
C657 C659 1.419 . S
C657 H661 0.930 . S
C658 C657 1.369 1_554 S
C658 C667 1.429 . S
C659 C657 1.419 . S
C659 C660 1.363 . S
C659 H662 0.929 . S
C660 C659 1.363 . S
C660 C666 1.425 1_556 S
H661 C657 0.930 . S
H662 C659 0.929 . S
S663 N664 1.613 . S
S663 N665 1.613 . S
N664 S663 1.613 . S
N664 C667 1.350 . S
N665 S663 1.613 . S
N665 C666 1.351 . S
C666 C660 1.425 1_554 S
C666 N665 1.351 . S
C666 C667 1.437 . S
C667 C658 1.429 . S
C667 N664 1.350 . S
C667 C666 1.437 . S
C668 C669 1.369 . S
C668 C670 1.419 1_655 S
C668 H672 0.930 . S
C669 C668 1.369 . S
C669 C678 1.429 . S
C670 C668 1.419 1_455 S
C670 C671 1.363 . S
C670 H673 0.929 . S
C671 C670 1.363 . S
C671 C677 1.428 . S
H672 C668 0.930 . S
H673 C670 0.929 . S
S674 N675 1.613 . S
S674 N676 1.610 1_655 S
N675 S674 1.613 . S
N675 C678 1.350 . S
N676 S674 1.610 1_455 S
N676 C677 1.351 . S
C677 C671 1.428 . S
C677 N676 1.351 . S
C677 C678 1.434 1_455 S
C678 C669 1.429 . S
C678 N675 1.350 . S
C678 C677 1.434 1_655 S
C679 C680 1.369 . S
C679 C681 1.419 1_565 S
C679 H683 0.930 . S
C680 C679 1.369 . S
C680 C689 1.429 . S
C681 C679 1.419 1_545 S
C681 C682 1.363 . S
C681 H684 0.929 . S
C682 C681 1.363 . S
C682 C688 1.428 . S
H683 C679 0.930 . S
H684 C681 0.929 . S
S685 N686 1.613 . S
S685 N687 1.610 1_565 S
N686 S685 1.613 . S
N686 C689 1.350 . S
N687 S685 1.610 1_545 S
N687 C688 1.351 . S
C688 C682 1.428 . S
C688 N687 1.351 . S
C688 C689 1.434 1_545 S
C689 C680 1.429 . S
C689 N686 1.350 . S
C689 C688 1.434 1_565 S
C690 C691 1.369 . S
C690 C692 1.419 . S
C690 H694 0.930 . S
C691 C690 1.369 . S
C691 C700 1.429 1_556 S
C692 C690 1.419 . S
C692 C693 1.363 1_556 S
C692 H695 0.929 . S
C693 C692 1.363 1_554 S
C693 C699 1.428 . S
H694 C690 0.930 . S
H695 C692 0.929 . S
S696 N697 1.613 . S
S696 N698 1.610 . S
N697 S696 1.613 . S
N697 C700 1.350 . S
N698 S696 1.610 . S
N698 C699 1.351 . S
C699 C693 1.428 . S
C699 N698 1.351 . S
C699 C700 1.434 . S
C700 C691 1.429 1_554 S
C700 N697 1.350 . S
C700 C699 1.434 . S
C701 C702 1.369 . S
C701 C703 1.419 . S
C701 H705 0.930 . S
C702 C701 1.369 . S
C702 C711 1.429 . S
C703 C701 1.419 . S
C703 C704 1.363 . S
C703 H706 0.929 . S
C704 C703 1.363 . S
C704 C710 1.428 . S
H705 C701 0.930 . S
H706 C703 0.929 . S
S707 N708 1.613 . S
S707 N709 1.610 . S
N708 S707 1.613 . S
N708 C711 1.350 . S
N709 S707 1.610 . S
N709 C710 1.351 . S
C710 C704 1.428 . S
C710 N709 1.351 . S
C710 C711 1.434 . S
C711 C702 1.429 . S
C711 N708 1.350 . S
C711 C710 1.434 . S
C712 C713 1.369 1_455 S
C712 C714 1.419 . S
C712 H716 0.930 . S
C713 C712 1.369 1_655 S
C713 C722 1.429 . S
C714 C712 1.419 . S
C714 C715 1.363 . S
C714 H717 0.929 . S
C715 C714 1.363 . S
C715 C721 1.428 1_455 S
H716 C712 0.930 . S
H717 C714 0.929 . S
S718 N719 1.613 . S
S718 N720 1.610 . S
N719 S718 1.613 . S
N719 C722 1.350 . S
N720 S718 1.610 . S
N720 C721 1.351 . S
C721 C715 1.428 1_655 S
C721 N720 1.351 . S
C721 C722 1.434 . S
C722 C713 1.429 . S
C722 N719 1.350 . S
C722 C721 1.434 . S
C723 C724 1.369 . S
C723 C725 1.419 . S
C723 H727 0.930 . S
C724 C723 1.369 . S
C724 C733 1.429 . S
C725 C723 1.419 . S
C725 C726 1.363 . S
C725 H728 0.929 . S
C726 C725 1.363 . S
C726 C732 1.428 . S
H727 C723 0.930 . S
H728 C725 0.929 . S
S729 N730 1.613 . S
S729 N731 1.610 . S
N730 S729 1.613 . S
N730 C733 1.350 . S
N731 S729 1.610 . S
N731 C732 1.351 . S
C732 C726 1.428 . S
C732 N731 1.351 . S
C732 C733 1.434 . S
C733 C724 1.429 . S
C733 N730 1.350 . S
C733 C732 1.434 . S
C734 C735 1.369 . S
C734 C736 1.419 . S
C734 H738 0.930 . S
C735 C734 1.369 . S
C735 C744 1.429 . S
C736 C734 1.419 . S
C736 C737 1.363 . S
C736 H739 0.929 . S
C737 C736 1.363 . S
C737 C743 1.428 . S
H738 C734 0.930 . S
H739 C736 0.929 . S
S740 N741 1.613 . S
S740 N742 1.610 . S
N741 S740 1.613 . S
N741 C744 1.350 . S
N742 S740 1.610 . S
N742 C743 1.351 . S
C743 C737 1.428 . S
C743 N742 1.351 . S
C743 C744 1.434 . S
C744 C735 1.429 . S
C744 N741 1.350 . S
C744 C743 1.434 . S
C745 C746 1.369 . S
C745 C747 1.419 . S
C745 H749 0.930 . S
C746 C745 1.369 . S
C746 C755 1.429 . S
C747 C745 1.419 . S
C747 C748 1.363 . S
C747 H750 0.929 . S
C748 C747 1.363 . S
C748 C754 1.428 . S
H749 C745 0.930 . S
H750 C747 0.929 . S
S751 N752 1.613 . S
S751 N753 1.610 . S
N752 S751 1.613 . S
N752 C755 1.350 . S
N753 S751 1.610 . S
N753 C754 1.351 . S
C754 C748 1.428 . S
C754 N753 1.351 . S
C754 C755 1.434 . S
C755 C746 1.429 . S
C755 N752 1.350 . S
C755 C754 1.434 . S
C756 C757 1.369 . S
C756 C758 1.419 . S
C756 H760 0.930 . S
C757 C756 1.369 . S
C757 C766 1.429 . S
C758 C756 1.419 . S
C758 C759 1.363 . S
C758 H761 0.929 . S
C759 C758 1.363 . S
C759 C765 1.428 . S
H760 C756 0.930 . S
H761 C758 0.929 . S
S762 N763 1.613 . S
S762 N764 1.610 . S
N763 S762 1.613 . S
N763 C766 1.350 . S
N764 S762 1.610 . S
N764 C765 1.351 . S
C765 C759 1.428 . S
C765 N764 1.351 . S
C765 C766 1.434 . S
C766 C757 1.429 . S
C766 N763 1.350 . S
C766 C765 1.434 . S
C767 C768 1.369 . S
C767 C769 1.422 . S
C767 H771 0.930 . S
C768 C767 1.369 . S
C768 C777 1.429 1_545 S
C769 C767 1.422 . S
C769 C770 1.359 1_545 S
C769 H772 0.929 . S
C770 C769 1.359 1_565 S
C770 C776 1.428 . S
H771 C767 0.930 . S
H772 C769 0.929 . S
S773 N774 1.613 . S
S773 N775 1.610 . S
N774 S773 1.613 . S
N774 C777 1.350 . S
N775 S773 1.610 . S
N775 C776 1.351 . S
C776 C770 1.428 . S
C776 N775 1.351 . S
C776 C777 1.434 . S
C777 C768 1.429 1_565 S
C777 N774 1.350 . S
C777 C776 1.434 . S
C778 C779 1.369 . S
C778 C780 1.419 . S
C778 H782 0.930 . S
C779 C778 1.369 . S
C779 C788 1.429 . S
C780 C778 1.419 . S
C780 C781 1.363 . S
C780 H783 0.929 . S
C781 C780 1.363 . S
C781 C787 1.428 . S
H782 C778 0.930 . S
H783 C780 0.929 . S
S784 N785 1.613 . S
S784 N786 1.610 . S
N785 S784 1.613 . S
N785 C788 1.350 . S
N786 S784 1.610 . S
N786 C787 1.351 . S
C787 C781 1.428 . S
C787 N786 1.351 . S
C787 C788 1.434 . S
C788 C779 1.429 . S
C788 N785 1.350 . S
C788 C787 1.434 . S
C789 C790 1.369 1_554 S
C789 C791 1.419 . S
C789 H793 0.930 . S
C790 C789 1.369 1_556 S
C790 C799 1.429 . S
C791 C789 1.419 . S
C791 C792 1.363 . S
C791 H794 0.929 . S
C792 C791 1.363 . S
C792 C798 1.428 1_554 S
H793 C789 0.930 . S
H794 C791 0.929 . S
S795 N796 1.613 . S
S795 N797 1.610 . S
N796 S795 1.613 . S
N796 C799 1.350 . S
N797 S795 1.610 . S
N797 C798 1.351 . S
C798 C792 1.428 1_556 S
C798 N797 1.351 . S
C798 C799 1.434 . S
C799 C790 1.429 . S
C799 N796 1.350 . S
C799 C798 1.434 . S
C800 C801 1.369 . S
C800 C802 1.419 . S
C800 H804 0.930 . S
C801 C800 1.369 . S
C801 C810 1.429 . S
C802 C800 1.419 . S
C802 C803 1.363 . S
C802 H805 0.929 . S
C803 C802 1.363 . S
C803 C809 1.428 . S
H804 C800 0.930 . S
H805 C802 0.929 . S
S806 N807 1.613 . S
S806 N808 1.610 . S
N807 S806 1.613 . S
N807 C810 1.350 . S
N808 S806 1.610 . S
N808 C809 1.351 . S
C809 C803 1.428 . S
C809 N808 1.351 . S
C809 C810 1.434 . S
C810 C801 1.429 . S
C810 N807 1.350 . S
C810 C809 1.434 . S
C811 C812 1.369 . S
C811 C813 1.419 . S
C811 H815 0.930 . S
C812 C811 1.369 . S
C812 C821 1.429 . S
C813 C811 1.419 . S
C813 C814 1.363 . S
C813 H816 0.929 . S
C814 C813 1.363 . S
C814 C820 1.428 . S
H815 C811 0.930 . S
H816 C813 0.929 . S
S817 N818 1.613 . S
S817 N819 1.610 . S
N818 S817 1.613 . S
N818 C821 1.350 . S
N819 S817 1.610 . S
N819 C820 1.351 . S
C820 C814 1.428 . S
C820 N819 1.351 . S
C820 C821 1.434 . S
C821 C812 1.429 . S
C821 N818 1.350 . S
C821 C820 1.434 . S
C822 C823 1.369 . S
C822 C824 1.419 . S
C822 H826 0.930 . S
C823 C822 1.369 . S
C823 C832 1.429 . S
C824 C822 1.419 . S
C824 C825 1.363 . S
C824 H827 0.929 . S
C825 C824 1.363 . S
C825 C831 1.428 . S
H826 C822 0.930 . S
H827 C824 0.929 . S
S828 N829 1.613 . S
S828 N830 1.610 . S
N829 S828 1.613 . S
N829 C832 1.350 . S
N830 S828 1.610 . S
N830 C831 1.351 . S
C831 C825 1.428 . S
C831 N830 1.351 . S
C831 C832 1.434 . S
C832 C823 1.429 . S
C832 N829 1.350 . S
C832 C831 1.434 . S
C833 C834 1.369 . S
C833 C835 1.419 . S
C833 H837 0.930 . S
C834 C833 1.369 . S
C834 C843 1.429 . S
C835 C833 1.419 . S
C835 C836 1.363 . S
C835 H838 0.929 . S
C836 C835 1.363 . S
C836 C842 1.428 . S
H837 C833 0.930 . S
H838 C835 0.929 . S
S839 N840 1.613 . S
S839 N841 1.610 . S
N840 S839 1.613 . S
N840 C843 1.350 . S
N841 S839 1.610 . S
N841 C842 1.351 . S
C842 C836 1.428 . S
C842 N841 1.351 . S
C842 C843 1.434 . S
C843 C834 1.429 . S
C843 N840 1.350 . S
C843 C842 1.434 . S
C844 C845 1.369 . S
C844 C846 1.419 . S
C844 H848 0.930 . S
C845 C844 1.369 . S
C845 C854 1.429 . S
C846 C844 1.419 . S
C846 C847 1.363 . S
C846 H849 0.929 . S
C847 C846 1.363 . S
C847 C853 1.428 . S
H848 C844 0.930 . S
H849 C846 0.929 . S
S850 N851 1.613 . S
S850 N852 1.610 . S
N851 S850 1.613 . S
N851 C854 1.350 . S
N852 S850 1.610 . S
N852 C853 1.351 . S
C853 C847 1.428 . S
C853 N852 1.351 . S
C853 C854 1.434 . S
C854 C845 1.429 . S
C854 N851 1.350 . S
C854 C853 1.434 . S
C855 C856 1.369 . S
C855 C857 1.419 . S
C855 H859 0.930 . S
C856 C855 1.369 . S
C856 C865 1.429 . S
C857 C855 1.419 . S
C857 C858 1.363 . S
C857 H860 0.929 . S
C858 C857 1.363 . S
C858 C864 1.428 . S
H859 C855 0.930 . S
H860 C857 0.929 . S
S861 N862 1.613 . S
S861 N863 1.610 . S
N862 S861 1.613 . S
N862 C865 1.350 . S
N863 S861 1.610 . S
N863 C864 1.351 . S
C864 C858 1.428 . S
C864 N863 1.351 . S
C864 C865 1.434 . S
C865 C856 1.429 . S
C865 N862 1.350 . S
C865 C864 1.434 . S
C866 C867 1.369 . S
C866 C868 1.419 . S
C866 H870 0.930 . S
C867 C866 1.369 . S
C867 C876 1.429 . S
C868 C866 1.419 . S
C868 C869 1.363 . S
C868 H871 0.929 . S
C869 C868 1.363 . S
C869 C875 1.428 . S
H870 C866 0.930 . S
H871 C868 0.929 . S
S872 N873 1.613 . S
S872 N874 1.610 . S
N873 S872 1.613 . S
N873 C876 1.350 . S
N874 S872 1.610 . S
N874 C875 1.351 . S
C875 C869 1.428 . S
C875 N874 1.351 . S
C875 C876 1.434 . S
C876 C867 1.429 . S
C876 N873 1.350 . S
C876 C875 1.434 . S
C877 C878 1.369 . S
C877 C879 1.419 . S
C877 H881 0.930 . S
C878 C877 1.369 . S
C878 C887 1.429 . S
C879 C877 1.419 . S
C879 C880 1.363 . S
C879 H882 0.929 . S
C880 C879 1.363 . S
C880 C886 1.428 . S
H881 C877 0.930 . S
H882 C879 0.929 . S
S883 N884 1.613 . S
S883 N885 1.610 . S
N884 S883 1.613 . S
N884 C887 1.350 . S
N885 S883 1.610 . S
N885 C886 1.351 . S
C886 C880 1.428 . S
C886 N885 1.351 . S
C886 C887 1.434 . S
C887 C878 1.429 . S
C887 N884 1.350 . S
C887 C886 1.434 . S
C888 C889 1.369 . S
C888 C890 1.419 . S
C888 H892 0.930 . S
C889 C888 1.369 . S
C889 C898 1.429 . S
C890 C888 1.419 . S
C890 C891 1.363 . S
C890 H893 0.929 . S
C891 C890 1.363 . S
C891 C897 1.428 . S
H892 C888 0.930 . S
H893 C890 0.929 . S
S894 N895 1.613 . S
S894 N896 1.610 . S
N895 S894 1.613 . S
N895 C898 1.350 . S
N896 S894 1.610 . S
N896 C897 1.351 . S
C897 C891 1.428 . S
C897 N896 1.351 . S
C897 C898 1.434 . S
C898 C889 1.429 . S
C898 N895 1.350 . S
C898 C897 1.434 . S
C899 C900 1.369 . S
C899 C901 1.419 . S
C899 H903 0.930 . S
C900 C899 1.369 . S
C900 C909 1.429 . S
C901 C899 1.419 . S
C901 C902 1.363 . S
C901 H904 0.929 . S
C902 C901 1.363 . S
C902 C908 1.428 . S
H903 C899 0.930 . S
H904 C901 0.929 . S
S905 N906 1.613 . S
S905 N907 1.610 . S
N906 S905 1.613 . S
N906 C909 1.350 . S
N907 S905 1.610 . S
N907 C908 1.351 . S
C908 C902 1.428 . S
C908 N907 1.351 . S
C908 C909 1.434 . S
C909 C900 1.429 . S
C909 N906 1.350 . S
C909 C908 1.434 . S
C910 C911 1.369 . S
C910 C912 1.419 . S
C910 H914 0.930 . S
C911 C910 1.369 . S
C911 C920 1.429 . S
C912 C910 1.419 . S
C912 C913 1.363 . S
C912 H915 0.929 . S
C913 C912 1.363 . S
C913 C919 1.428 . S
H914 C910 0.930 . S
H915 C912 0.929 . S
S916 N917 1.613 . S
S916 N918 1.610 . S
N917 S916 1.613 . S
N917 C920 1.350 . S
N918 S916 1.610 . S
N918 C919 1.351 . S
C919 C913 1.428 . S
C919 N918 1.351 . S
C919 C920 1.434 . S
C920 C911 1.429 . S
C920 N917 1.350 . S
C920 C919 1.434 . S
C921 C922 1.369 . S
C921 C923 1.419 . S
C921 H925 0.930 . S
C922 C921 1.369 . S
C922 C931 1.429 . S
C923 C921 1.419 . S
C923 C924 1.363 . S
C923 H926 0.929 . S
C924 C923 1.363 . S
C924 C930 1.428 . S
H925 C921 0.930 . S
H926 C923 0.929 . S
S927 N928 1.613 . S
S927 N929 1.610 . S
N928 S927 1.613 . S
N928 C931 1.350 . S
N929 S927 1.610 . S
N929 C930 1.351 . S
C930 C924 1.428 . S
C930 N929 1.351 . S
C930 C931 1.434 . S
C931 C922 1.429 . S
C931 N928 1.350 . S
C931 C930 1.434 . S
C932 C933 1.369 . S
C932 C934 1.419 . S
C932 H936 0.930 . S
C933 C932 1.369 . S
C933 C942 1.429 . S
C934 C932 1.419 . S
C934 C935 1.363 . S
C934 H937 0.929 . S
C935 C934 1.363 . S
C935 C941 1.428 . S
H936 C932 0.930 . S
H937 C934 0.929 . S
S938 N939 1.613 . S
S938 N940 1.610 . S
N939 S938 1.613 . S
N939 C942 1.350 . S
N940 S938 1.610 . S
N940 C941 1.351 . S
C941 C935 1.428 . S
C941 N940 1.351 . S
C941 C942 1.434 . S
C942 C933 1.429 . S
C942 N939 1.350 . S
C942 C941 1.434 . S
C943 C944 1.369 . S
C943 C945 1.419 . S
C943 H947 0.930 . S
C944 C943 1.369 . S
C944 C953 1.429 . S
C945 C943 1.419 . S
C945 C946 1.363 . S
C945 H948 0.929 . S
C946 C945 1.363 . S
C946 C952 1.428 . S
H947 C943 0.930 . S
H948 C945 0.929 . S
S949 N950 1.613 . S
S949 N951 1.610 . S
N950 S949 1.613 . S
N950 C953 1.350 . S
N951 S949 1.610 . S
N951 C952 1.351 . S
C952 C946 1.428 . S
C952 N951 1.351 . S
C952 C953 1.434 . S
C953 C944 1.429 . S
C953 N950 1.350 . S
C953 C952 1.434 . S
C954 C955 1.369 . S
C954 C956 1.419 . S
C954 H958 0.930 . S
C955 C954 1.369 . S
C955 C964 1.429 . S
C956 C954 1.419 . S
C956 C957 1.363 . S
C956 H959 0.929 . S
C957 C956 1.363 . S
C957 C963 1.428 . S
H958 C954 0.930 . S
H959 C956 0.929 . S
S960 N961 1.613 . S
S960 N962 1.610 . S
N961 S960 1.613 . S
N961 C964 1.350 . S
N962 S960 1.610 . S
N962 C963 1.351 . S
C963 C957 1.428 . S
C963 N962 1.351 . S
C963 C964 1.434 . S
C964 C955 1.429 . S
C964 N961 1.350 . S
C964 C963 1.434 . S
C965 C966 1.369 . S
C965 C967 1.419 . S
C965 H969 0.930 . S
C966 C965 1.369 . S
C966 C975 1.429 . S
C967 C965 1.419 . S
C967 C968 1.363 . S
C967 H970 0.929 . S
C968 C967 1.363 . S
C968 C974 1.428 . S
H969 C965 0.930 . S
H970 C967 0.929 . S
S971 N972 1.613 . S
S971 N973 1.610 . S
N972 S971 1.613 . S
N972 C975 1.350 . S
N973 S971 1.610 . S
N973 C974 1.351 . S
C974 C968 1.428 . S
C974 N973 1.351 . S
C974 C975 1.434 . S
C975 C966 1.429 . S
C975 N972 1.350 . S
C975 C974 1.434 . S
C976 C977 1.369 . S
C976 C978 1.419 . S
C976 H980 0.930 . S
C977 C976 1.369 . S
C977 C986 1.429 . S
C978 C976 1.419 . S
C978 C979 1.363 . S
C978 H981 0.929 . S
C979 C978 1.363 . S
C979 C985 1.428 . S
H980 C976 0.930 . S
H981 C978 0.929 . S
S982 N983 1.613 . S
S982 N984 1.610 . S
N983 S982 1.613 . S
N983 C986 1.350 . S
N984 S982 1.610 . S
N984 C985 1.351 . S
C985 C979 1.428 . S
C985 N984 1.351 . S
C985 C986 1.434 . S
C986 C977 1.429 . S
C986 N983 1.350 . S
C986 C985 1.434 . S
C987 C988 1.369 . S
C987 C989 1.419 . S
C987 H991 0.930 . S
C988 C987 1.369 . S
C988 C997 1.429 . S
C989 C987 1.419 . S
C989 C990 1.363 . S
C989 H992 0.929 . S
C990 C989 1.363 . S
C990 C996 1.428 . S
H991 C987 0.930 . S
H992 C989 0.929 . S
S993 N994 1.613 . S
S993 N995 1.610 . S
N994 S993 1.613 . S
N994 C997 1.350 . S
N995 S993 1.610 . S
N995 C996 1.351 . S
C996 C990 1.428 . S
C996 N995 1.351 . S
C996 C997 1.434 . S
C997 C988 1.429 . S
C997 N994 1.350 . S
C997 C996 1.434 . S
C998 C999 1.365 1_556 S
C998 C1000 1.419 . S
C998 H1002 0.930 . S
C999 C998 1.365 1_554 S
C999 C1008 1.433 . S
C1000 C998 1.419 . S
C1000 C1001 1.361 1_556 S
C1000 H1003 0.929 . S
C1001 C1000 1.361 1_554 S
C1001 C1007 1.431 . S
H1002 C998 0.930 . S
H1003 C1000 0.929 . S
S1004 N1005 1.613 . S
S1004 N1006 1.610 . S
N1005 S1004 1.613 . S
N1005 C1008 1.350 . S
N1006 S1004 1.610 . S
N1006 C1007 1.351 . S
C1007 C1001 1.431 . S
C1007 N1006 1.351 . S
C1007 C1008 1.434 . S
C1008 C999 1.433 . S
C1008 N1005 1.350 . S
C1008 C1007 1.434 . S
C1009 C1010 1.362 1_554 S
C1009 C1011 1.419 . S
C1009 H1013 0.930 . S
C1010 C1009 1.362 1_556 S
C1010 C1019 1.436 . S
C1011 C1009 1.419 . S
C1011 C1012 1.358 1_554 S
C1011 H1014 0.929 . S
C1012 C1011 1.358 1_556 S
C1012 C1018 1.433 . S
H1013 C1009 0.930 . S
H1014 C1011 0.929 . S
S1015 N1016 1.613 . S
S1015 N1017 1.610 . S
N1016 S1015 1.613 . S
N1016 C1019 1.350 . S
N1017 S1015 1.610 . S
N1017 C1018 1.351 . S
C1018 C1012 1.433 . S
C1018 N1017 1.351 . S
C1018 C1019 1.434 . S
C1019 C1010 1.436 . S
C1019 N1016 1.350 . S
C1019 C1018 1.434 . S
C1020 C1021 1.369 . S
C1020 C1022 1.419 . S
C1020 H1024 0.930 . S
C1021 C1020 1.369 . S
C1021 C1030 1.429 . S
C1022 C1020 1.419 . S
C1022 C1023 1.363 . S
C1022 H1025 0.929 . S
C1023 C1022 1.363 . S
C1023 C1029 1.428 . S
H1024 C1020 0.930 . S
H1025 C1022 0.929 . S
S1026 N1027 1.613 . S
S1026 N1028 1.610 . S
N1027 S1026 1.613 . S
N1027 C1030 1.350 . S
N1028 S1026 1.610 . S
N1028 C1029 1.351 . S
C1029 C1023 1.428 . S
C1029 N1028 1.351 . S
C1029 C1030 1.434 . S
C1030 C1021 1.429 . S
C1030 N1027 1.350 . S
C1030 C1029 1.434 . S
C1031 C1032 1.369 . S
C1031 C1033 1.419 . S
C1031 H1035 0.930 . S
C1032 C1031 1.369 . S
C1032 C1041 1.429 . S
C1033 C1031 1.419 . S
C1033 C1034 1.363 . S
C1033 H1036 0.929 . S
C1034 C1033 1.363 . S
C1034 C1040 1.428 . S
H1035 C1031 0.930 . S
H1036 C1033 0.929 . S
S1037 N1038 1.613 . S
S1037 N1039 1.610 . S
N1038 S1037 1.613 . S
N1038 C1041 1.350 . S
N1039 S1037 1.610 . S
N1039 C1040 1.351 . S
C1040 C1034 1.428 . S
C1040 N1039 1.351 . S
C1040 C1041 1.434 . S
C1041 C1032 1.429 . S
C1041 N1038 1.350 . S
C1041 C1040 1.434 . S
C1042 C1043 1.367 1_554 S
C1042 C1044 1.419 . S
C1042 H1046 0.930 . S
C1043 C1042 1.367 1_556 S
C1043 C1052 1.431 . S
C1044 C1042 1.419 . S
C1044 C1045 1.361 1_554 S
C1044 H1047 0.929 . S
C1045 C1044 1.361 1_556 S
C1045 C1051 1.430 . S
H1046 C1042 0.930 . S
H1047 C1044 0.929 . S
S1048 N1049 1.613 . S
S1048 N1050 1.610 . S
N1049 S1048 1.613 . S
N1049 C1052 1.350 . S
N1050 S1048 1.610 . S
N1050 C1051 1.351 . S
C1051 C1045 1.430 . S
C1051 N1050 1.351 . S
C1051 C1052 1.434 . S
C1052 C1043 1.431 . S
C1052 N1049 1.350 . S
C1052 C1051 1.434 . S
C1053 C1054 1.358 1_554 S
C1053 C1055 1.419 . S
C1053 H1057 0.930 . S
C1054 C1053 1.358 1_556 S
C1054 C1063 1.440 . S
C1055 C1053 1.419 . S
C1055 C1056 1.355 1_554 S
C1055 H1058 0.929 . S
C1056 C1055 1.355 1_556 S
C1056 C1062 1.437 . S
H1057 C1053 0.930 . S
H1058 C1055 0.929 . S
S1059 N1060 1.613 . S
S1059 N1061 1.610 . S
N1060 S1059 1.613 . S
N1060 C1063 1.350 . S
N1061 S1059 1.610 . S
N1061 C1062 1.351 . S
C1062 C1056 1.437 . S
C1062 N1061 1.351 . S
C1062 C1063 1.434 . S
C1063 C1054 1.440 . S
C1063 N1060 1.350 . S
C1063 C1062 1.434 . S
C1064 C1065 1.369 . S
C1064 C1066 1.419 . S
C1064 H1068 0.930 . S
C1065 C1064 1.369 . S
C1065 C1074 1.429 . S
C1066 C1064 1.419 . S
C1066 C1067 1.363 . S
C1066 H1069 0.929 . S
C1067 C1066 1.363 . S
C1067 C1073 1.428 . S
H1068 C1064 0.930 . S
H1069 C1066 0.929 . S
S1070 N1071 1.613 . S
S1070 N1072 1.610 . S
N1071 S1070 1.613 . S
N1071 C1074 1.350 . S
N1072 S1070 1.610 . S
N1072 C1073 1.351 . S
C1073 C1067 1.428 . S
C1073 N1072 1.351 . S
C1073 C1074 1.434 . S
C1074 C1065 1.429 . S
C1074 N1071 1.350 . S
C1074 C1073 1.434 . S
C1075 C1076 1.369 . S
C1075 C1077 1.419 . S
C1075 H1079 0.930 . S
C1076 C1075 1.369 . S
C1076 C1085 1.429 . S
C1077 C1075 1.419 . S
C1077 C1078 1.363 . S
C1077 H1080 0.929 . S
C1078 C1077 1.363 . S
C1078 C1084 1.428 . S
H1079 C1075 0.930 . S
H1080 C1077 0.929 . S
S1081 N1082 1.613 . S
S1081 N1083 1.610 . S
N1082 S1081 1.613 . S
N1082 C1085 1.350 . S
N1083 S1081 1.610 . S
N1083 C1084 1.351 . S
C1084 C1078 1.428 . S
C1084 N1083 1.351 . S
C1084 C1085 1.434 . S
C1085 C1076 1.429 . S
C1085 N1082 1.350 . S
C1085 C1084 1.434 . S
C1086 C1087 1.369 . S
C1086 C1088 1.419 . S
C1086 H1090 0.930 . S
C1087 C1086 1.369 . S
C1087 C1096 1.429 . S
C1088 C1086 1.419 . S
C1088 C1089 1.363 . S
C1088 H1091 0.929 . S
C1089 C1088 1.363 . S
C1089 C1095 1.428 . S
H1090 C1086 0.930 . S
H1091 C1088 0.929 . S
S1092 N1093 1.613 . S
S1092 N1094 1.610 . S
N1093 S1092 1.613 . S
N1093 C1096 1.350 . S
N1094 S1092 1.610 . S
N1094 C1095 1.351 . S
C1095 C1089 1.428 . S
C1095 N1094 1.351 . S
C1095 C1096 1.434 . S
C1096 C1087 1.429 . S
C1096 N1093 1.350 . S
C1096 C1095 1.434 . S
C1097 C1098 1.369 . S
C1097 C1099 1.419 . S
C1097 H1101 0.930 . S
C1098 C1097 1.369 . S
C1098 C1107 1.429 . S
C1099 C1097 1.419 . S
C1099 C1100 1.363 . S
C1099 H1102 0.929 . S
C1100 C1099 1.363 . S
C1100 C1106 1.428 . S
H1101 C1097 0.930 . S
H1102 C1099 0.929 . S
S1103 N1104 1.613 . S
S1103 N1105 1.610 . S
N1104 S1103 1.613 . S
N1104 C1107 1.350 . S
N1105 S1103 1.610 . S
N1105 C1106 1.351 . S
C1106 C1100 1.428 . S
C1106 N1105 1.351 . S
C1106 C1107 1.434 . S
C1107 C1098 1.429 . S
C1107 N1104 1.350 . S
C1107 C1106 1.434 . S
C1108 C1109 1.369 . S
C1108 C1110 1.419 . S
C1108 H1112 0.930 . S
C1109 C1108 1.369 . S
C1109 C1118 1.429 . S
C1110 C1108 1.419 . S
C1110 C1111 1.363 . S
C1110 H1113 0.929 . S
C1111 C1110 1.363 . S
C1111 C1117 1.428 . S
H1112 C1108 0.930 . S
H1113 C1110 0.929 . S
S1114 N1115 1.613 . S
S1114 N1116 1.610 . S
N1115 S1114 1.613 . S
N1115 C1118 1.350 . S
N1116 S1114 1.610 . S
N1116 C1117 1.351 . S
C1117 C1111 1.428 . S
C1117 N1116 1.351 . S
C1117 C1118 1.434 . S
C1118 C1109 1.429 . S
C1118 N1115 1.350 . S
C1118 C1117 1.434 . S
C1119 C1120 1.369 . S
C1119 C1121 1.419 . S
C1119 H1123 0.930 . S
C1120 C1119 1.369 . S
C1120 C1129 1.429 . S
C1121 C1119 1.419 . S
C1121 C1122 1.363 . S
C1121 H1124 0.929 . S
C1122 C1121 1.363 . S
C1122 C1128 1.428 . S
H1123 C1119 0.930 . S
H1124 C1121 0.929 . S
S1125 N1126 1.613 . S
S1125 N1127 1.610 . S
N1126 S1125 1.613 . S
N1126 C1129 1.350 . S
N1127 S1125 1.610 . S
N1127 C1128 1.351 . S
C1128 C1122 1.428 . S
C1128 N1127 1.351 . S
C1128 C1129 1.434 . S
C1129 C1120 1.429 . S
C1129 N1126 1.350 . S
C1129 C1128 1.434 . S
C1130 C1131 1.369 . S
C1130 C1132 1.419 . S
C1130 H1134 0.930 . S
C1131 C1130 1.369 . S
C1131 C1140 1.429 . S
C1132 C1130 1.419 . S
C1132 C1133 1.363 . S
C1132 H1135 0.929 . S
C1133 C1132 1.363 . S
C1133 C1139 1.428 . S
H1134 C1130 0.930 . S
H1135 C1132 0.929 . S
S1136 N1137 1.613 . S
S1136 N1138 1.610 . S
N1137 S1136 1.613 . S
N1137 C1140 1.350 . S
N1138 S1136 1.610 . S
N1138 C1139 1.351 . S
C1139 C1133 1.428 . S
C1139 N1138 1.351 . S
C1139 C1140 1.434 . S
C1140 C1131 1.429 . S
C1140 N1137 1.350 . S
C1140 C1139 1.434 . S
C1141 C1142 1.369 . S
C1141 C1143 1.419 . S
C1141 H1145 0.930 . S
C1142 C1141 1.369 . S
C1142 C1151 1.429 . S
C1143 C1141 1.419 . S
C1143 C1144 1.363 . S
C1143 H1146 0.929 . S
C1144 C1143 1.363 . S
C1144 C1150 1.428 . S
H1145 C1141 0.930 . S
H1146 C1143 0.929 . S
S1147 N1148 1.613 . S
S1147 N1149 1.610 . S
N1148 S1147 1.613 . S
N1148 C1151 1.350 . S
N1149 S1147 1.610 . S
N1149 C1150 1.351 . S
C1150 C1144 1.428 . S
C1150 N1149 1.351 . S
C1150 C1151 1.434 . S
C1151 C1142 1.429 . S
C1151 N1148 1.350 . S
C1151 C1150 1.434 . S
C449 C7 1.312 . S
C451 C49 1.313 . S
C460 C35 1.308 . S
C462 C21 1.316 . S
C471 C63 1.308 . S
C473 C105 1.318 . S
C482 C91 1.311 . S
C484 C77 1.313 . S
C493 C119 1.302 . S
C495 C161 1.292 . S
C504 C147 1.293 . S
C506 C133 1.299 . S
C515 C175 1.296 . S
C517 C217 1.295 . S
C526 C189 1.301 . S
C528 C203 1.292 . S
C537 C273 1.300 . S
C539 C231 1.294 . S
C548 C245 1.291 . S
C550 C259 1.299 . S
C559 C287 1.297 . S
C561 C329 1.294 . S
C570 C315 1.295 . S
C572 C301 1.298 . S
C581 C343 1.307 . S
C583 C385 1.318 . S
C592 C371 1.308 . S
C594 C357 1.318 . S
C603 C399 1.316 . S
C605 C441 1.311 . S
C614 C413 1.307 . S
C616 C427 1.317 . S
C625 C176 1.521 . S
C627 C8 1.522 . S
C636 C22 1.522 . S
C638 C302 1.522 . S
C647 C36 1.514 . S
C649 C92 1.515 . S
C658 C442 1.514 . S
C660 C50 1.515 . S
C669 C64 1.522 . S
C671 C120 1.522 . S
C680 C246 1.522 . S
C682 C78 1.522 . S
C691 C386 1.514 . S
C693 C106 1.515 . S
C702 C414 1.522 . S
C704 C134 1.522 . S
C713 C204 1.515 . S
C715 C148 1.514 . S
C724 C330 1.515 . S
C726 C162 1.514 . S
C735 C190 1.522 . S
C737 C358 1.522 . S
C746 C274 1.515 . S
C748 C218 1.515 . S
C757 C400 1.522 . S
C759 C232 1.522 . S
C768 C316 1.514 . S
C770 C260 1.515 . S
C779 C344 1.522 . S
C781 C288 1.522 . S
C790 C372 1.514 . S
C792 C428 1.515 . S
C801 C143 1.482 . S
C803 C3 1.491 . S
C812 C17 1.492 . S
C814 C157 1.483 . S
C823 C115 1.477 . S
C825 C31 1.465 . S
C834 C129 1.477 . S
C836 C45 1.465 . S
C845 C59 1.480 . S
C847 C199 1.490 . S
C856 C73 1.480 . S
C858 C213 1.492 . S
C867 C171 1.465 . S
C869 C87 1.473 . S
C878 C101 1.468 . S
C880 C185 1.467 . S
C889 C367 1.477 . S
C891 C227 1.462 . S
C900 C381 1.478 . S
C902 C241 1.463 . S
C911 C255 1.493 . S
C913 C339 1.484 . S
C922 C269 1.482 . S
C924 C353 1.491 . S
C933 C283 1.475 . S
C935 C423 1.464 . S
C944 C297 1.468 . S
C946 C437 1.472 . S
C955 C395 1.480 . S
C957 C311 1.491 . S
C966 C409 1.482 . S
C968 C325 1.492 . S
C977 C9 1.468 . S
C979 C359 1.464 . S
C988 C345 1.464 . S
C990 C23 1.485 . S
C999 C37 1.455 1_554 S
C1001 C387 1.458 1_554 S
C1010 C51 1.458 . S
C1012 C373 1.456 . S
C1021 C65 1.469 . S
C1023 C415 1.464 . S
C1032 C79 1.486 . S
C1034 C401 1.464 . S
C1043 C443 1.454 1_556 S
C1045 C93 1.459 1_556 S
C1054 C429 1.456 1_556 S
C1056 C107 1.457 1_556 S
C1065 C247 1.463 . S
C1067 C121 1.467 . S
C1076 C233 1.468 . S
C1078 C135 1.482 . S
C1087 C149 1.459 . S
C1089 C275 1.456 . S
C1098 C163 1.460 . S
C1100 C261 1.455 . S
C1109 C303 1.462 . S
C1111 C177 1.467 . S
C1120 C191 1.481 . S
C1122 C289 1.467 . S
C1131 C205 1.460 . S
C1133 C331 1.455 . S
C1142 C219 1.455 . S
C1144 C317 1.459 . S
