# Generated by pormake.
# Topology ukg, (4)-cn, num edge types: 1
# Building blocks:
#     Node 0, Type 0, BuildingBlock: NAWXER_clean_sbu_0, # of connection points: 4
#     Node 1, Type 0, BuildingBlock: NAWXER_clean_sbu_0, # of connection points: 4
#     Node 2, Type 0, BuildingBlock: NAWXER_clean_sbu_0, # of connection points: 4
#     Node 3, Type 0, BuildingBlock: NAWXER_clean_sbu_0, # of connection points: 4
#     Node 4, Type 0, BuildingBlock: NAWXER_clean_sbu_0, # of connection points: 4
#     Node 5, Type 0, BuildingBlock: NAWXER_clean_sbu_0, # of connection points: 4
#     Node 6, Type 0, BuildingBlock: NAWXER_clean_sbu_0, # of connection points: 4
#     Node 7, Type 0, BuildingBlock: NAWXER_clean_sbu_0, # of connection points: 4
#     Edge 8, Type (0, 0), BuildingBlock: FUNLAD_clean_linker_1, # of connection points: 2
#     Edge 9, Type (0, 0), BuildingBlock: FUNLAD_clean_linker_1, # of connection points: 2
#     Edge 10, Type (0, 0), BuildingBlock: FUNLAD_clean_linker_1, # of connection points: 2
#     Edge 11, Type (0, 0), BuildingBlock: FUNLAD_clean_linker_1, # of connection points: 2
#     Edge 12, Type (0, 0), BuildingBlock: FUNLAD_clean_linker_1, # of connection points: 2
#     Edge 13, Type (0, 0), BuildingBlock: FUNLAD_clean_linker_1, # of connection points: 2
#     Edge 14, Type (0, 0), BuildingBlock: FUNLAD_clean_linker_1, # of connection points: 2
#     Edge 15, Type (0, 0), BuildingBlock: FUNLAD_clean_linker_1, # of connection points: 2
#     Edge 16, Type (0, 0), BuildingBlock: FUNLAD_clean_linker_1, # of connection points: 2
#     Edge 17, Type (0, 0), BuildingBlock: FUNLAD_clean_linker_1, # of connection points: 2
#     Edge 18, Type (0, 0), BuildingBlock: FUNLAD_clean_linker_1, # of connection points: 2
#     Edge 19, Type (0, 0), BuildingBlock: FUNLAD_clean_linker_1, # of connection points: 2
#     Edge 20, Type (0, 0), BuildingBlock: FUNLAD_clean_linker_1, # of connection points: 2
#     Edge 21, Type (0, 0), BuildingBlock: FUNLAD_clean_linker_1, # of connection points: 2
#     Edge 22, Type (0, 0), BuildingBlock: FUNLAD_clean_linker_1, # of connection points: 2
#     Edge 23, Type (0, 0), BuildingBlock: FUNLAD_clean_linker_1, # of connection points: 2
# Relax obj value: 0.100
# Max RMSD: 0.242
# Mean RMSD: 0.242
data_MOF--net-ukg--node1-NAWXER_clean_sbu_0--edge1-FUNLAD_clean_linker_1
_symmetry_space_group_name_H-M    P1
_symmetry_Int_Tables_number       1
_symmetry_cell_setting            triclinic
loop_
_symmetry_equiv_pos_as_xyz
'x, y, z'
_cell_length_a     31.48622
_cell_length_b     31.951725
_cell_length_c     40.039255
_cell_angle_alpha  90.11234
_cell_angle_beta   90.133858
_cell_angle_gamma 89.559913
loop_
_atom_site_label
_atom_site_type_symbol
_atom_site_fract_x
_atom_site_fract_y
_atom_site_fract_z
_atom_type_partial_charge
C0 C 0.13072 0.67875 0.16158 0.0
C1 C 0.99305 0.62352 0.19242 0.0
O2 O 0.12115 0.65371 0.18481 0.0
Zn3 Zn 0.06143 0.6503 0.17613 0.0
O4 O 0.10173 0.69196 0.14152 0.0
Zn5 Zn 0.03422 0.68197 0.1355 0.0
O6 O 1.01041 0.7371 0.13968 0.0
O7 O 0.0367 0.71244 0.18698 0.0
O8 O 0.99068 0.6464 0.16619 0.0
O9 O 0.02876 0.61719 0.20646 0.0
O10 O 0.05725 0.61392 0.13083 0.0
O11 O 0.02866 0.65524 0.0927 0.0
C12 C 0.0176 0.74162 0.17065 0.0
C13 C 0.04369 0.61978 0.10099 0.0
C14 C 0.34662 0.62378 0.66484 0.0
C15 C 0.41118 0.49136 0.69617 0.0
O16 O 0.37334 0.6155 0.68761 0.0
Zn17 Zn 0.37962 0.55693 0.67896 0.0
O18 O 0.33435 0.5946 0.64501 0.0
Zn19 Zn 0.34828 0.5282 0.63937 0.0
O20 O 0.29337 0.50424 0.6431 0.0
O21 O 0.31729 0.53082 0.69053 0.0
O22 O 0.38637 0.48661 0.67095 0.0
O23 O 0.41694 0.52747 0.70844 0.0
O24 O 0.41554 0.55417 0.63334 0.0
O25 O 0.37475 0.52282 0.59634 0.0
C26 C 0.28825 0.51164 0.67395 0.0
C27 C 0.40979 0.53975 0.60383 0.0
C28 C 0.5307 0.76255 0.15835 0.0
C29 C 0.51041 0.87178 0.07619 0.0
O30 O 0.53872 0.76219 0.12734 0.0
Zn31 Zn 0.51695 0.81659 0.11781 0.0
O32 O 0.51261 0.79472 0.17164 0.0
Zn33 Zn 0.49106 0.85609 0.15381 0.0
O34 O 0.43132 0.85729 0.16225 0.0
O35 O 0.44908 0.80929 0.12511 0.0
O36 O 0.49751 0.88415 0.10497 0.0
O37 O 0.52314 0.8344 0.07241 0.0
O38 O 0.56218 0.85508 0.14529 0.0
O39 O 0.5243 0.89264 0.18095 0.0
C40 C 0.42073 0.82765 0.14303 0.0
C41 C 0.56012 0.88239 0.16881 0.0
C42 C 0.13279 0.99671 0.59944 0.0
C43 C 0.22809 1.00554 0.69453 0.0
O44 O 0.17003 0.01126 0.60105 0.0
Zn45 Zn 0.18149 0.9977 0.64711 0.0
O46 O 0.11681 0.97881 0.62509 0.0
Zn47 Zn 0.13691 0.96556 0.67538 0.0
O48 O 0.09278 0.99271 0.70019 0.0
O49 O 0.13651 0.03648 0.6752 0.0
O50 O 0.19399 0.98589 0.70219 0.0
O51 O 0.234 0.01731 0.66463 0.0
O52 O 0.19113 0.93053 0.64802 0.0
O53 O 0.13832 0.90562 0.6778 0.0
C54 C 0.10445 0.02986 0.69425 0.0
C55 C 0.17167 0.89932 0.66087 0.0
C56 C 0.04116 0.40087 0.81834 0.0
C57 C 0.90174 0.3485 0.8481 0.0
O58 O 0.04263 0.37779 0.84449 0.0
Zn59 Zn 0.99792 0.34346 0.87491 0.0
O60 O 1.00577 0.40815 0.8041 0.0
Zn61 Zn 0.97175 0.37575 0.83414 0.0
O62 O 0.97614 0.41193 0.87947 0.0
O63 O 1.00354 0.37008 0.91775 0.0
O64 O 0.91197 0.37366 0.82511 0.0
O65 O 0.93031 0.33468 0.86828 0.0
O66 O 0.02034 0.28781 0.87099 0.0
O67 O 0.99458 0.31277 0.82358 0.0
C68 C 0.98927 0.40581 0.90939 0.0
C69 C 1.01278 0.28317 0.84007 0.0
C70 C 0.74885 0.51778 0.34171 0.0
C71 C 0.628 0.49001 0.41262 0.0
O72 O 0.72234 0.49341 0.32697 0.0
Zn73 Zn 0.66215 0.46381 0.34026 0.0
O74 O 0.74192 0.52982 0.37141 0.0
Zn75 Zn 0.68948 0.50158 0.37689 0.0
O76 O 0.71033 0.43679 0.37795 0.0
O77 O 0.67454 0.40496 0.33806 0.0
O78 O 0.66112 0.511 0.41871 0.0
O79 O 0.62451 0.47068 0.38472 0.0
O80 O 0.62361 0.48519 0.30727 0.0
O81 O 0.64942 0.53404 0.34066 0.0
C82 C 0.70164 0.40343 0.36151 0.0
C83 C 0.62615 0.52337 0.31571 0.0
C84 C 0.53052 0.12779 0.91786 0.0
C85 C 0.50537 0.23861 0.83829 0.0
O86 O 0.54681 0.1179 0.88954 0.0
Zn87 Zn 0.55446 0.14923 0.84201 0.0
O88 O 0.51414 0.1637 0.92186 0.0
Zn89 Zn 0.52201 0.18401 0.87742 0.0
O90 O 0.48326 0.14262 0.84619 0.0
O91 O 0.52833 0.11076 0.81218 0.0
O92 O 0.49555 0.23637 0.8689 0.0
O93 O 0.52759 0.2092 0.82472 0.0
O94 O 0.61442 0.15425 0.83665 0.0
O95 O 0.58919 0.19879 0.87382 0.0
C96 C 0.49062 0.11674 0.8222 0.0
C97 C 0.62053 0.18399 0.85693 0.0
C98 C 0.88976 0.00853 0.42244 0.0
C99 C 0.78273 0.99098 0.33666 0.0
O100 O 0.90014 0.02858 0.39601 0.0
Zn101 Zn 0.87136 0.04029 0.34792 0.0
O102 O 0.85438 0.99009 0.42357 0.0
Zn103 Zn 0.83523 1.00281 0.37916 0.0
O104 O 0.87966 0.96968 0.34639 0.0
O105 O 0.91427 0.01863 0.31878 0.0
O106 O 0.78296 0.97801 0.36657 0.0
O107 O 0.81305 0.01426 0.32608 0.0
O108 O 0.86238 0.09988 0.34657 0.0
O109 O 0.81756 0.06829 0.38011 0.0
C110 C 0.90778 0.98027 0.32484 0.0
C111 C 0.83097 0.10182 0.36629 0.0
H112 H 0.97597 0.47081 0.92496 0.0
C113 C 0.99008 0.4413 0.93293 0.0
H114 H 0.02434 0.41001 0.97104 0.0
H115 H 0.07064 0.60908 1.0002 0.0
H116 H 0.11013 0.60519 0.94831 0.0
H117 H 0.10705 0.5421 0.91279 0.0
H118 H 0.06434 0.48271 0.9288 0.0
C119 C 1.01037 0.43927 0.96244 0.0
C120 C 1.0139 0.47672 0.98438 0.0
C121 C 0.03961 0.51097 0.97481 0.0
C122 C 0.042 0.54705 0.99556 0.0
C123 C 0.06771 0.58089 0.98538 0.0
C124 C 0.09062 0.57904 0.95569 0.0
C125 C 0.08884 0.54355 0.93567 0.0
C126 C 0.06389 0.50976 0.94506 0.0
H127 H 0.0577 0.55491 0.08545 0.0
C128 C 0.04323 0.58425 0.07747 0.0
H129 H 1.00852 0.61511 0.03939 0.0
H130 H 0.96282 0.41608 0.01036 0.0
H131 H 0.9234 0.41994 0.06228 0.0
H132 H 0.92652 0.483 0.09782 0.0
H133 H 0.96921 0.54241 0.0818 0.0
C134 C 0.02283 0.58601 0.04801 0.0
C135 C 0.01952 0.54846 0.02615 0.0
C136 C 0.99386 0.51419 0.03575 0.0
C137 C 0.99145 0.47811 0.01499 0.0
C138 C 0.96576 0.44426 0.02518 0.0
C139 C 0.94289 0.44609 0.05489 0.0
C140 C 0.9447 0.48157 0.07492 0.0
C141 C 0.96963 0.51537 0.06552 0.0
H142 H 0.47403 0.55673 0.58706 0.0
C143 C 0.44516 0.54057 0.57982 0.0
H144 H 0.41545 0.50329 0.54298 0.0
H145 H 0.54214 0.55964 0.42863 0.0
H146 H 0.47808 0.59671 0.41196 0.0
H147 H 0.41496 0.59784 0.44835 0.0
H148 H 0.41561 0.56199 0.50173 0.0
C149 C 0.4441 0.51933 0.55085 0.0
C150 C 0.48181 0.5173 0.52858 0.0
C151 C 0.48064 0.53779 0.49723 0.0
C152 C 0.51687 0.53673 0.4761 0.0
C153 C 0.51527 0.55862 0.44538 0.0
C154 C 0.47875 0.58024 0.43557 0.0
C155 C 0.44323 0.58091 0.45606 0.0
C156 C 0.44401 0.56013 0.48661 0.0
H157 H 0.56455 0.47108 0.42995 0.0
C158 C 0.59227 0.48957 0.43632 0.0
H159 H 0.61938 0.53147 0.47121 0.0
H160 H 0.49318 0.47067 0.58547 0.0
H161 H 0.55723 0.43363 0.60206 0.0
H162 H 0.62069 0.43347 0.56604 0.0
H163 H 0.62027 0.47014 0.51301 0.0
C164 C 0.59185 0.51315 0.46412 0.0
C165 C 0.55398 0.51463 0.48619 0.0
C166 C 0.55511 0.49398 0.51745 0.0
C167 C 0.5188 0.49482 0.53851 0.0
C168 C 0.52021 0.47227 0.56894 0.0
C169 C 0.55672 0.45057 0.57867 0.0
C170 C 0.59242 0.45043 0.55837 0.0
C171 C 0.59177 0.47167 0.52803 0.0
H172 H 0.5247 0.8888 0.02412 0.0
C173 C 0.51295 0.90093 0.04779 0.0
H174 H 0.49381 0.95484 0.07452 0.0
H175 H 0.59842 0.07801 0.98352 0.0
H176 H 0.63771 0.08132 0.0356 0.0
H177 H 0.62031 0.03442 0.0824 0.0
H178 H 0.56368 0.98385 0.07736 0.0
C179 C 0.50382 0.94191 0.05066 0.0
C180 C 0.51256 0.97139 0.02277 0.0
C181 C 0.54536 1.00128 0.02636 0.0
C182 C 0.55506 0.0287 0.99953 0.0
C183 C 0.58895 0.05722 1.00339 0.0
C184 C 0.61199 0.05924 0.03308 0.0
C185 C 0.60223 0.03281 0.05941 0.0
C186 C 0.56951 1.00398 0.05619 0.0
H187 H 0.51573 0.10832 0.96921 0.0
C188 C 0.5286 0.0975 0.9455 0.0
H189 H 0.55034 0.04513 0.91798 0.0
H190 H 0.44525 0.92036 0.00863 0.0
H191 H 0.4061 0.91704 0.9565 0.0
H192 H 0.42391 0.96361 0.90958 0.0
H193 H 0.4808 0.01394 0.91461 0.0
C194 C 0.53942 0.05702 0.94194 0.0
C195 C 0.53145 0.02667 0.96936 0.0
C196 C 0.49881 0.99666 0.9657 0.0
C197 C 0.48901 0.9693 0.99256 0.0
C198 C 0.45494 0.94098 0.98872 0.0
C199 C 0.43196 0.93897 0.959 0.0
C200 C 0.44193 0.96523 0.9326 0.0
C201 C 0.47477 0.99393 0.93582 0.0
H202 H 0.90798 0.98868 0.4732 0.0
C203 C 0.91912 1.00486 0.45105 0.0
H204 H 0.97105 0.03518 0.42835 0.0
H205 H 0.05848 0.07209 0.56889 0.0
H206 H 0.03665 0.14192 0.55233 0.0
H207 H 0.99294 0.1531 0.50189 0.0
H208 H 0.97057 0.09438 0.46778 0.0
C209 C 0.9594 0.01839 0.45 0.0
C210 C 0.98875 0.01168 0.47878 0.0
C211 C 1.00246 0.04639 0.49797 0.0
C212 C 0.02822 0.03996 0.5268 0.0
C213 C 0.03986 0.07512 0.54629 0.0
C214 C 0.02732 0.11542 0.53719 0.0
C215 C 1.00266 0.12172 0.50881 0.0
C216 C 0.99011 0.08773 0.48942 0.0
H217 H 0.12265 0.01699 0.54727 0.0
C218 C 0.10762 1.00225 0.5686 0.0
H219 H 0.05118 0.97609 0.58762 0.0
H220 H 0.97313 0.93875 0.44485 0.0
H221 H 0.99563 0.86894 0.46099 0.0
H222 H 0.03891 0.85766 0.51167 0.0
H223 H 0.06022 0.91623 0.54635 0.0
C224 C 0.06649 0.99154 0.56676 0.0
C225 C 0.04088 0.99882 0.53599 0.0
C226 C 0.02799 0.96422 0.51635 0.0
C227 C 1.00235 0.97066 0.48749 0.0
C228 C 0.9914 0.93561 0.46761 0.0
C229 C 1.00441 0.89535 0.47645 0.0
C230 C 0.02882 0.889 0.50495 0.0
C231 C 0.04072 0.92291 0.52468 0.0
H232 H 0.19915 0.67589 0.17287 0.0
C233 C 0.17514 0.69246 0.15835 0.0
H234 H 0.16289 0.7421 0.12492 0.0
H235 H 0.35426 0.77271 0.19649 0.0
H236 H 0.31669 0.7757 0.24914 0.0
H237 H 0.23915 0.76559 0.25129 0.0
H238 H 0.19916 0.75076 0.20096 0.0
C239 C 0.18652 0.72553 0.13978 0.0
C240 C 0.23169 0.73935 0.13794 0.0
C241 C 0.25394 0.75145 0.16728 0.0
C242 C 0.29797 0.76095 0.16565 0.0
C243 C 0.32027 0.76827 0.19586 0.0
C244 C 0.29916 0.76962 0.22637 0.0
C245 C 0.25558 0.76366 0.22761 0.0
C246 C 0.23308 0.75471 0.19852 0.0
H247 H 0.35253 0.83528 0.15348 0.0
C248 C 0.37603 0.81428 0.14253 0.0
H249 H 0.3871 0.75496 0.12084 0.0
H250 H 0.19882 0.71788 0.0769 0.0
H251 H 0.23525 0.72003 0.0237 0.0
H252 H 0.30988 0.74249 0.02025 0.0
H253 H 0.34873 0.76239 0.07006 0.0
C254 C 0.36397 0.77626 0.13186 0.0
C255 C 0.31879 0.76257 0.13422 0.0
C256 C 0.29622 0.75174 0.10478 0.0
C257 C 0.25282 0.73971 0.10668 0.0
C258 C 0.23153 0.72797 0.07692 0.0
C259 C 0.25209 0.72898 0.04618 0.0
C260 C 0.29413 0.74157 0.04424 0.0
C261 C 0.31608 0.75286 0.07308 0.0
H262 H 0.34352 0.69053 0.67827 0.0
C263 C 0.32913 0.66664 0.66261 0.0
H264 H 0.28013 0.65331 0.62814 0.0
H265 H 0.22718 0.82916 0.71135 0.0
H266 H 0.22463 0.78522 0.76046 0.0
H267 H 0.24255 0.71004 0.75697 0.0
H268 H 0.26467 0.67887 0.70457 0.0
C269 C 0.29473 0.67657 0.64423 0.0
C270 C 0.2762 0.71974 0.64507 0.0
C271 C 0.26021 0.73672 0.67539 0.0
C272 C 0.24653 0.77925 0.67681 0.0
C273 C 0.23506 0.79641 0.70822 0.0
C274 C 0.2339 0.77161 0.73676 0.0
C275 C 0.24424 0.72938 0.73485 0.0
C276 C 0.25728 0.71198 0.70462 0.0
H277 H 0.16758 0.83072 0.66481 0.0
C278 C 0.18817 0.85619 0.65734 0.0
H279 H 0.24914 0.87271 0.64024 0.0
H280 H 0.30377 0.69683 0.58286 0.0
H281 H 0.30175 0.7394 0.53279 0.0
H282 H 0.27309 0.81145 0.53429 0.0
H283 H 0.24671 0.84157 0.58592 0.0
C284 C 0.22828 0.84759 0.64795 0.0
C285 C 0.24514 0.80373 0.64721 0.0
C286 C 0.25981 0.78629 0.61669 0.0
C287 C 0.27563 0.74441 0.61567 0.0
C288 C 0.29094 0.72823 0.58499 0.0
C289 C 0.29 0.75234 0.55605 0.0
C290 C 0.27391 0.79292 0.5569 0.0
C291 C 0.25893 0.80985 0.58675 0.0
H292 H 0.68966 0.18288 0.84969 0.0
C293 C 0.66357 0.20148 0.85973 0.0
H294 H 0.6456 0.25946 0.88099 0.0
H295 H 0.82917 0.30972 0.93075 0.0
H296 H 0.79019 0.30582 0.98277 0.0
H297 H 0.71682 0.27936 0.98392 0.0
H298 H 0.68176 0.25714 0.93299 0.0
C299 C 0.67127 0.24038 0.87092 0.0
C300 C 0.71508 0.25808 0.86991 0.0
C301 C 0.73537 0.27044 0.89997 0.0
C302 C 0.77806 0.28488 0.8994 0.0
C303 C 0.79711 0.29785 0.92975 0.0
C304 C 0.77506 0.29586 0.95982 0.0
C305 C 0.73374 0.28101 0.96046 0.0
C306 C 0.71397 0.26838 0.931 0.0
H307 H 0.8336 0.35111 0.83556 0.0
C308 C 0.85725 0.33471 0.85054 0.0
H309 H 0.86887 0.28481 0.88389 0.0
H310 H 0.68315 0.24654 0.80669 0.0
H311 H 0.72324 0.24599 0.75513 0.0
H312 H 0.8001 0.26039 0.75526 0.0
H313 H 0.83679 0.27706 0.80671 0.0
C314 C 0.84561 0.30124 0.86857 0.0
C315 C 0.80078 0.28621 0.86885 0.0
C316 C 0.78064 0.27323 0.83881 0.0
C317 C 0.7372 0.26127 0.83913 0.0
C318 C 0.71677 0.25289 0.80827 0.0
C319 C 0.73931 0.25291 0.7784 0.0
C320 C 0.7825 0.26128 0.77845 0.0
C321 C 0.80308 0.27128 0.80819 0.0
H322 H 0.75403 0.36627 0.38358 0.0
C323 C 0.72542 0.36435 0.36843 0.0
H324 H 0.68561 0.32568 0.33968 0.0
H325 H 0.81588 0.18829 0.29669 0.0
H326 H 0.79726 0.22054 0.24399 0.0
H327 H 0.75423 0.28529 0.24224 0.0
H328 H 0.72901 0.31778 0.29316 0.0
C329 C 0.7139 0.32739 0.35522 0.0
C330 C 0.74177 0.28942 0.35711 0.0
C331 C 0.75732 0.27138 0.32706 0.0
C332 C 0.78331 0.23478 0.32811 0.0
C333 C 0.79697 0.21666 0.29757 0.0
C334 C 0.7864 0.23477 0.26703 0.0
C335 C 0.76209 0.27115 0.26604 0.0
C336 C 0.74767 0.28939 0.29556 0.0
H337 H 0.77694 0.14044 0.3837 0.0
C338 C 0.80767 0.1416 0.37143 0.0
H339 H 0.85231 0.17934 0.3468 0.0
H340 H 0.71299 0.31216 0.41923 0.0
H341 H 0.73526 0.28255 0.47218 0.0
H342 H 0.78688 0.22414 0.47424 0.0
H343 H 0.81557 0.19424 0.42331 0.0
C344 C 0.82199 0.17828 0.35968 0.0
C345 C 0.7948 0.21678 0.35926 0.0
C346 C 0.78022 0.23546 0.38938 0.0
C347 C 0.75254 0.27093 0.38827 0.0
C348 C 0.73585 0.28676 0.41862 0.0
C349 C 0.74809 0.26981 0.44922 0.0
C350 C 0.77699 0.23679 0.45038 0.0
C351 C 0.79298 0.21971 0.42091 0.0
H352 H 0.80965 0.55102 0.33904 0.0
C353 C 0.78724 0.53256 0.32461 0.0
H354 H 0.77341 0.50609 0.27745 0.0
H355 H 0.91858 0.656 0.25338 0.0
H356 H 0.86327 0.70465 0.27032 0.0
H357 H 0.79327 0.67919 0.28848 0.0
H358 H 0.77857 0.60486 0.29049 0.0
C359 C 0.79491 0.52519 0.29216 0.0
C360 C 0.83433 0.54093 0.27617 0.0
C361 C 0.84153 0.58461 0.27342 0.0
C362 C 0.88102 0.59934 0.26116 0.0
C363 C 0.88849 0.64304 0.26097 0.0
C364 C 0.85711 0.67137 0.27089 0.0
C365 C 0.81777 0.65703 0.28124 0.0
C366 C 0.80987 0.61423 0.28252 0.0
H367 H 0.92416 0.61212 0.19312 0.0
C368 C 0.95373 0.60626 0.20646 0.0
H369 H 0.98218 0.57859 0.24899 0.0
H370 H 0.83019 0.45532 0.27705 0.0
H371 H 0.88412 0.40673 0.25729 0.0
H372 H 0.95125 0.43238 0.23349 0.0
H373 H 0.96501 0.50682 0.22957 0.0
C374 C 0.95292 0.58557 0.2356 0.0
C375 C 0.91223 0.57041 0.24976 0.0
C376 C 0.90452 0.52683 0.25157 0.0
C377 C 0.86556 0.51206 0.26486 0.0
C378 C 0.85901 0.46832 0.26687 0.0
C379 C 0.88972 0.44005 0.25564 0.0
C380 C 0.92753 0.45449 0.24226 0.0
C381 C 0.93503 0.49731 0.24019 0.0
H382 H 0.46703 0.45955 0.71747 0.0
C383 C 0.43385 0.45545 0.71077 0.0
H384 H 0.38024 0.41677 0.71302 0.0
H385 H 0.46483 0.24195 0.73877 0.0
H386 H 0.42241 0.22975 0.68921 0.0
H387 H 0.3875 0.2884 0.65977 0.0
H388 H 0.39381 0.35945 0.6802 0.0
C389 C 0.41368 0.42013 0.71921 0.0
C390 C 0.43595 0.38488 0.73673 0.0
C391 C 0.43358 0.34367 0.72348 0.0
C392 C 0.45502 0.30996 0.73977 0.0
C393 C 0.4501 0.26886 0.72702 0.0
C394 C 0.42579 0.26136 0.69857 0.0
C395 C 0.40605 0.29437 0.68205 0.0
C396 C 0.40987 0.33508 0.69416 0.0
H397 H 0.46715 0.29558 0.83134 0.0
C398 C 0.48921 0.27441 0.81885 0.0
H399 H 0.52097 0.26044 0.77377 0.0
H400 H 0.43775 0.4565 0.77528 0.0
H401 H 0.48424 0.4697 0.82229 0.0
H402 H 0.5328 0.41465 0.84317 0.0
H403 H 0.53323 0.34544 0.81817 0.0
C404 C 0.4999 0.28185 0.78697 0.0
C405 C 0.48028 0.31769 0.76846 0.0
C406 C 0.48401 0.35913 0.78091 0.0
C407 C 0.45957 0.39208 0.76651 0.0
C408 C 0.45878 0.43142 0.78296 0.0
C409 C 0.48485 0.43925 0.81038 0.0
C410 C 0.51193 0.4082 0.82229 0.0
C411 C 0.51157 0.36851 0.80789 0.0
H412 H 0.62973 0.889 0.17238 0.0
C413 C 0.59966 0.89955 0.18285 0.0
H414 H 0.56984 0.93674 0.21985 0.0
H415 H 0.75873 0.9015 0.28765 0.0
H416 H 0.73672 0.82906 0.29103 0.0
H417 H 0.66902 0.80633 0.26598 0.0
H418 H 0.62371 0.85555 0.23656 0.0
C419 C 0.59958 0.92522 0.20947 0.0
C420 C 0.63971 0.93887 0.22568 0.0
C421 C 0.66489 0.90985 0.24399 0.0
C422 C 0.70257 0.92345 0.26022 0.0
C423 C 0.72862 0.89333 0.27643 0.0
C424 C 0.71657 0.85155 0.2783 0.0
C425 C 0.67857 0.83871 0.26405 0.0
C426 C 0.65295 0.86734 0.24705 0.0
H427 H 0.72075 0.96278 0.32596 0.0
C428 C 0.74781 0.97806 0.31452 0.0
H429 H 0.77569 0.99747 0.26921 0.0
H430 H 0.5999 1.00173 0.19118 0.0
H431 H 0.6209 0.07463 0.18921 0.0
H432 H 0.68418 0.09896 0.21985 0.0
H433 H 0.72707 0.05054 0.25239 0.0
C434 C 0.74913 0.98201 0.28115 0.0
C435 C 0.71347 0.96652 0.26002 0.0
C436 C 0.6888 0.99528 0.24112 0.0
C437 C 0.65196 0.98138 0.22384 0.0
C438 C 0.62792 0.01072 0.20507 0.0
C439 C 0.63964 0.05263 0.20369 0.0
C440 C 0.6753 0.06632 0.22091 0.0
C441 C 0.69966 0.03816 0.2395 0.0
H442 H 0.0494 0.22435 0.83651 0.0
C443 C 0.02786 0.245 0.82297 0.0
H444 H 0.99658 0.2571 0.77736 0.0
H445 H 0.12039 0.16039 0.68199 0.0
H446 H 0.1258 0.23176 0.66236 0.0
H447 H 0.0923 0.28992 0.69344 0.0
H448 H 0.05242 0.27695 0.74389 0.0
C449 C 0.01745 0.23609 0.79117 0.0
C450 C 0.03784 0.20057 0.77283 0.0
C451 C 0.0619 0.20884 0.74367 0.0
C452 C 0.08254 0.17546 0.72639 0.0
C453 C 0.10499 0.18454 0.69666 0.0
C454 C 0.10827 0.22543 0.685 0.0
C455 C 0.08932 0.25815 0.70244 0.0
C456 C 0.06636 0.25017 0.73139 0.0
H457 H 0.04851 0.061 0.71637 0.0
C458 C 0.08189 0.06493 0.71035 0.0
H459 H 0.13603 0.10277 0.71503 0.0
H460 H 0.98803 0.17207 0.82404 0.0
H461 H 0.98889 0.10216 0.84742 0.0
H462 H 0.0349 0.04697 0.8235 0.0
H463 H 0.07867 0.0609 0.77524 0.0
C464 C 0.10245 0.09937 0.72059 0.0
C465 C 0.08051 0.13402 0.73898 0.0
C466 C 0.05806 0.12613 0.76907 0.0
C467 C 0.03475 0.15893 0.78485 0.0
C468 C 1.00873 0.1491 0.81252 0.0
C469 C 1.0086 0.10897 0.82602 0.0
C470 C 0.03426 0.07784 0.81242 0.0
C471 C 0.05883 0.08616 0.78436 0.0
H472 H 0.11054 0.40907 0.81743 0.0
C473 C 0.08109 0.41742 0.80476 0.0
H474 H 0.05344 0.45073 0.76453 0.0
H475 H 0.21303 0.5685 0.74616 0.0
H476 H 0.1633 0.61692 0.77203 0.0
H477 H 0.09515 0.59212 0.79462 0.0
H478 H 0.07617 0.51876 0.79122 0.0
C479 C 0.08249 0.441 0.77708 0.0
C480 C 0.12375 0.45567 0.76359 0.0
C481 C 0.13448 0.49857 0.76597 0.0
C482 C 0.17401 0.51276 0.75334 0.0
C483 C 0.18363 0.55591 0.75563 0.0
C484 C 0.15535 0.58408 0.77041 0.0
C485 C 0.11697 0.57012 0.7831 0.0
C486 C 0.10646 0.52792 0.78096 0.0
H487 H 0.22484 0.48322 0.67447 0.0
C488 C 0.24909 0.49726 0.6902 0.0
H489 H 0.26625 0.51419 0.73944 0.0
H490 H 0.11156 0.37185 0.75239 0.0
H491 H 0.16263 0.32283 0.72909 0.0
H492 H 0.23348 0.34646 0.71133 0.0
H493 H 0.25327 0.41941 0.71612 0.0
C494 C 0.24286 0.49951 0.72332 0.0
C495 C 0.20277 0.48398 0.73842 0.0
C496 C 0.19255 0.4408 0.73693 0.0
C497 C 0.15254 0.42681 0.74873 0.0
C498 C 0.14212 0.38397 0.74505 0.0
C499 C 0.17106 0.35548 0.73153 0.0
C500 C 0.21087 0.36881 0.72141 0.0
C501 C 0.22169 0.41089 0.72406 0.0
H502 H 0.57067 0.54707 0.28782 0.0
C503 C 0.60217 0.55511 0.2968 0.0
H504 H 0.65142 0.5991 0.29716 0.0
H505 H 0.50731 0.65327 0.17888 0.0
H506 H 0.51602 0.58332 0.15611 0.0
H507 H 0.56549 0.53283 0.1823 0.0
H508 H 0.60449 0.55121 0.2323 0.0
C509 C 0.61955 0.59191 0.28846 0.0
C510 C 0.59616 0.62431 0.26854 0.0
C511 C 0.57718 0.61423 0.23729 0.0
C512 C 0.55248 0.64478 0.22003 0.0
C513 C 0.52922 0.6323 0.19141 0.0
C514 C 0.53359 0.59212 0.17827 0.0
C515 C 0.56117 0.56362 0.19316 0.0
C516 C 0.58289 0.57441 0.22223 0.0
H517 H 0.56859 0.70588 0.16786 0.0
C518 C 0.5454 0.72713 0.17891 0.0
H519 H 0.50953 0.74215 0.2217 0.0
H520 H 0.62691 0.65447 0.32808 0.0
H521 H 0.62481 0.72636 0.34712 0.0
H522 H 0.59073 0.78142 0.31306 0.0
H523 H 0.55748 0.7647 0.26024 0.0
C524 C 0.53232 0.72072 0.2104 0.0
C525 C 0.55169 0.68691 0.23138 0.0
C526 C 0.57197 0.69745 0.26192 0.0
C527 C 0.59326 0.66595 0.2809 0.0
C528 C 0.61152 0.67717 0.31203 0.0
C529 C 0.61041 0.71838 0.32339 0.0
C530 C 0.59112 0.74935 0.30427 0.0
C531 C 0.57204 0.73922 0.27394 0.0
H532 H 0.4642 0.07374 0.78471 0.0
C533 C 0.45578 0.09535 0.8047 0.0
H534 H 0.40557 0.12668 0.82945 0.0
H535 H 0.28604 0.11414 0.70228 0.0
H536 H 0.30024 0.18853 0.70443 0.0
H537 H 0.35193 0.21713 0.74467 0.0
H538 H 0.38921 0.17157 0.78336 0.0
C539 C 0.41465 0.1037 0.81069 0.0
C540 C 0.38126 0.08644 0.78831 0.0
C541 C 0.35965 0.11354 0.76591 0.0
C542 C 0.33065 0.09689 0.74217 0.0
C543 C 0.30913 0.12485 0.72036 0.0
C544 C 0.31684 0.16771 0.7214 0.0
C545 C 0.34587 0.18383 0.74409 0.0
C546 C 0.36705 0.15726 0.76618 0.0
H547 H 0.25049 0.01034 0.74676 0.0
C548 C 0.25881 0.01667 0.72094 0.0
H549 H 0.30325 0.04356 0.68819 0.0
H550 H 0.41301 0.02683 0.83067 0.0
H551 H 0.40163 0.9519 0.82707 0.0
H552 H 0.35613 0.92219 0.78287 0.0
H553 H 0.32106 0.96715 0.74255 0.0
C554 C 0.29544 0.03613 0.71393 0.0
C555 C 0.32376 0.05306 0.74051 0.0
C556 C 0.34519 0.02596 0.76315 0.0
C557 C 0.37313 0.04285 0.78761 0.0
C558 C 0.39269 0.01544 0.81086 0.0
C559 C 0.38627 0.97241 0.80918 0.0
C560 C 0.36053 0.95571 0.78437 0.0
C561 C 0.34026 0.98198 0.76151 0.0
H562 H 0.97808 0.79858 0.17466 0.0
C563 C 1.00034 0.77863 0.18815 0.0
H564 H 0.03049 0.76619 0.23415 0.0
H565 H 0.93522 0.95635 0.24182 0.0
H566 H 0.97899 0.97612 0.19487 0.0
H567 H 0.02913 0.92557 0.1696 0.0
H568 H 0.03418 0.85444 0.19022 0.0
C569 C 1.00898 0.78666 0.22043 0.0
C570 C 0.98536 0.8196 0.23945 0.0
C571 C 0.98589 0.86206 0.22911 0.0
C572 C 0.96012 0.89229 0.24579 0.0
C573 C 0.95695 0.93305 0.23205 0.0
C574 C 0.98149 0.94469 0.20476 0.0
C575 C 1.00948 0.91616 0.19039 0.0
C576 C 1.01177 0.87529 0.20229 0.0
H577 H 0.96502 0.95491 0.30033 0.0
C578 C 0.93218 0.94825 0.30654 0.0
H579 H 0.8806 0.90743 0.30073 0.0
H580 H 0.97437 0.7405 0.26457 0.0
H581 H 0.9341 0.72173 0.31359 0.0
H582 H 0.89646 0.77562 0.34657 0.0
H583 H 0.89814 0.84847 0.33028 0.0
C584 C 0.91377 0.91327 0.29498 0.0
C585 C 0.9377 0.88113 0.27522 0.0
C586 C 0.93788 0.8388 0.28595 0.0
C587 C 0.96095 0.80791 0.26766 0.0
C588 C 0.95861 0.76555 0.27799 0.0
C589 C 0.93544 0.75424 0.30609 0.0
C590 C 0.91415 0.78455 0.32459 0.0
C591 C 0.9153 0.82634 0.31483 0.0
loop_
_geom_bond_atom_site_label_1
_geom_bond_atom_site_label_2
_geom_bond_distance
_geom_bond_site_symmetry_2
_ccdc_geom_bond_type
C0 O2 1.247 . S
C0 O4 1.258 . S
C1 O8 1.247 . S
C1 O9 1.258 . S
O2 C0 1.247 . S
O2 Zn3 2.028 . S
Zn3 O2 2.028 . S
Zn3 O7 2.035 . S
Zn3 O9 2.035 1_455 S
Zn3 O10 2.028 . S
O4 C0 1.258 . S
O4 Zn5 2.035 1_455 S
Zn5 O4 2.035 1_655 S
Zn5 O6 2.028 . S
Zn5 O8 2.028 . S
Zn5 O11 2.042 . S
O6 Zn5 2.028 . S
O6 C12 1.247 . S
O7 Zn3 2.035 . S
O7 C12 1.258 1_455 S
O8 C1 1.247 . S
O8 Zn5 2.028 . S
O9 C1 1.258 . S
O9 Zn3 2.035 1_655 S
O10 Zn3 2.028 . S
O10 C13 1.247 . S
O11 Zn5 2.042 . S
O11 C13 1.244 1_655 S
C12 O6 1.247 . S
C12 O7 1.258 1_655 S
C13 O10 1.247 . S
C13 O11 1.244 1_455 S
C14 O16 1.247 . S
C14 O18 1.258 . S
C15 O22 1.247 . S
C15 O23 1.258 . S
O16 C14 1.247 . S
O16 Zn17 2.028 . S
Zn17 O16 2.028 . S
Zn17 O21 2.035 . S
Zn17 O23 2.035 . S
Zn17 O24 2.028 . S
O18 C14 1.258 . S
O18 Zn19 2.035 . S
Zn19 O18 2.035 . S
Zn19 O20 2.028 . S
Zn19 O22 2.028 . S
Zn19 O25 2.035 . S
O20 Zn19 2.028 . S
O20 C26 1.247 . S
O21 Zn17 2.035 . S
O21 C26 1.258 . S
O22 C15 1.247 . S
O22 Zn19 2.028 . S
O23 C15 1.258 . S
O23 Zn17 2.035 . S
O24 Zn17 2.028 . S
O24 C27 1.247 . S
O25 Zn19 2.035 . S
O25 C27 1.258 . S
C26 O20 1.247 . S
C26 O21 1.258 . S
C27 O24 1.247 . S
C27 O25 1.258 . S
C28 O30 1.247 . S
C28 O32 1.258 . S
C29 O36 1.247 . S
C29 O37 1.258 . S
O30 C28 1.247 . S
O30 Zn31 2.028 . S
Zn31 O30 2.028 . S
Zn31 O35 2.035 . S
Zn31 O37 2.035 . S
Zn31 O38 2.028 . S
O32 C28 1.258 . S
O32 Zn33 2.035 . S
Zn33 O32 2.035 . S
Zn33 O34 2.028 . S
Zn33 O36 2.028 . S
Zn33 O39 2.035 . S
O34 Zn33 2.028 . S
O34 C40 1.247 . S
O35 Zn31 2.035 . S
O35 C40 1.258 . S
O36 C29 1.247 . S
O36 Zn33 2.028 . S
O37 C29 1.258 . S
O37 Zn31 2.035 . S
O38 Zn31 2.028 . S
O38 C41 1.247 . S
O39 Zn33 2.035 . S
O39 C41 1.258 . S
C40 O34 1.247 . S
C40 O35 1.258 . S
C41 O38 1.247 . S
C41 O39 1.258 . S
C42 O44 1.247 1_565 S
C42 O46 1.258 . S
C43 O50 1.247 1_545 S
C43 O51 1.258 . S
O44 C42 1.247 1_545 S
O44 Zn45 2.028 . S
Zn45 O44 2.028 . S
Zn45 O49 2.035 . S
Zn45 O51 2.035 . S
Zn45 O52 2.028 1_545 S
O46 C42 1.258 . S
O46 Zn47 2.035 . S
Zn47 O46 2.035 . S
Zn47 O48 2.028 1_565 S
Zn47 O50 2.028 . S
Zn47 O53 2.035 . S
O48 Zn47 2.028 1_545 S
O48 C54 1.247 . S
O49 Zn45 2.035 . S
O49 C54 1.258 . S
O50 C43 1.247 1_565 S
O50 Zn47 2.028 . S
O51 C43 1.258 . S
O51 Zn45 2.035 . S
O52 Zn45 2.028 1_565 S
O52 C55 1.247 . S
O53 Zn47 2.035 . S
O53 C55 1.258 . S
C54 O48 1.247 . S
C54 O49 1.258 . S
C55 O52 1.247 . S
C55 O53 1.258 . S
C56 O58 1.247 . S
C56 O60 1.258 . S
C57 O64 1.247 . S
C57 O65 1.258 . S
O58 C56 1.247 . S
O58 Zn59 2.028 . S
Zn59 O58 2.028 . S
Zn59 O63 2.042 . S
Zn59 O65 2.035 1_455 S
Zn59 O66 2.028 . S
O60 C56 1.258 . S
O60 Zn61 2.035 1_455 S
Zn61 O60 2.035 1_655 S
Zn61 O62 2.028 . S
Zn61 O64 2.028 . S
Zn61 O67 2.035 . S
O62 Zn61 2.028 . S
O62 C68 1.247 . S
O63 Zn59 2.042 . S
O63 C68 1.244 1_455 S
O64 C57 1.247 . S
O64 Zn61 2.028 . S
O65 C57 1.258 . S
O65 Zn59 2.035 1_655 S
O66 Zn59 2.028 . S
O66 C69 1.247 . S
O67 Zn61 2.035 . S
O67 C69 1.258 1_655 S
C68 O62 1.247 . S
C68 O63 1.244 1_655 S
C69 O66 1.247 . S
C69 O67 1.258 1_455 S
C70 O72 1.247 . S
C70 O74 1.258 . S
C71 O78 1.247 . S
C71 O79 1.258 . S
O72 C70 1.247 . S
O72 Zn73 2.028 . S
Zn73 O72 2.028 . S
Zn73 O77 2.035 . S
Zn73 O79 2.035 . S
Zn73 O80 2.028 . S
O74 C70 1.258 . S
O74 Zn75 2.035 . S
Zn75 O74 2.035 . S
Zn75 O76 2.028 . S
Zn75 O78 2.028 . S
Zn75 O81 2.035 . S
O76 Zn75 2.028 . S
O76 C82 1.247 . S
O77 Zn73 2.035 . S
O77 C82 1.258 . S
O78 C71 1.247 . S
O78 Zn75 2.028 . S
O79 C71 1.258 . S
O79 Zn73 2.035 . S
O80 Zn73 2.028 . S
O80 C83 1.247 . S
O81 Zn75 2.035 . S
O81 C83 1.258 . S
C82 O76 1.247 . S
C82 O77 1.258 . S
C83 O80 1.247 . S
C83 O81 1.258 . S
C84 O86 1.247 . S
C84 O88 1.258 . S
C85 O92 1.247 . S
C85 O93 1.258 . S
O86 C84 1.247 . S
O86 Zn87 2.028 . S
Zn87 O86 2.028 . S
Zn87 O91 2.035 . S
Zn87 O93 2.035 . S
Zn87 O94 2.028 . S
O88 C84 1.258 . S
O88 Zn89 2.035 . S
Zn89 O88 2.035 . S
Zn89 O90 2.028 . S
Zn89 O92 2.028 . S
Zn89 O95 2.035 . S
O90 Zn89 2.028 . S
O90 C96 1.247 . S
O91 Zn87 2.035 . S
O91 C96 1.258 . S
O92 C85 1.247 . S
O92 Zn89 2.028 . S
O93 C85 1.258 . S
O93 Zn87 2.035 . S
O94 Zn87 2.028 . S
O94 C97 1.247 . S
O95 Zn89 2.035 . S
O95 C97 1.258 . S
C96 O90 1.247 . S
C96 O91 1.258 . S
C97 O94 1.247 . S
C97 O95 1.258 . S
C98 O100 1.247 . S
C98 O102 1.244 1_545 S
C99 O106 1.247 . S
C99 O107 1.258 1_565 S
O100 C98 1.247 . S
O100 Zn101 2.028 . S
Zn101 O100 2.028 . S
Zn101 O105 2.035 1_545 S
Zn101 O107 2.035 . S
Zn101 O108 2.028 . S
O102 C98 1.244 1_565 S
O102 Zn103 2.042 . S
Zn103 O102 2.042 . S
Zn103 O104 2.028 . S
Zn103 O106 2.028 . S
Zn103 O109 2.035 1_565 S
O104 Zn103 2.028 . S
O104 C110 1.247 . S
O105 Zn101 2.035 1_565 S
O105 C110 1.258 . S
O106 C99 1.247 . S
O106 Zn103 2.028 . S
O107 C99 1.258 1_545 S
O107 Zn101 2.035 . S
O108 Zn101 2.028 . S
O108 C111 1.247 . S
O109 Zn103 2.035 1_545 S
O109 C111 1.258 . S
C110 O104 1.247 . S
C110 O105 1.258 . S
C111 O108 1.247 . S
C111 O109 1.258 . S
H112 C113 0.951 . S
C113 H112 0.951 . S
C113 C119 1.265 1_655 S
H114 C119 0.950 . S
H115 C123 0.949 1_554 S
H116 C124 0.950 . S
H117 C125 0.951 . S
H118 C126 0.951 . S
C119 C113 1.265 1_455 S
C119 H114 0.950 . S
C119 C120 1.478 . S
C120 C119 1.478 . S
C120 C121 1.397 . S
C120 C137 1.394 1_456 S
C121 C120 1.397 . S
C121 C122 1.438 . S
C121 C126 1.429 . S
C122 C121 1.438 . S
C122 C123 1.428 . S
C122 C135 1.394 1_456 S
C123 H115 0.949 1_556 S
C123 C122 1.428 . S
C123 C124 1.345 . S
C124 H116 0.950 . S
C124 C123 1.345 . S
C124 C125 1.424 . S
C125 H117 0.951 . S
C125 C124 1.424 . S
C125 C126 1.347 . S
C126 H118 0.951 . S
C126 C121 1.429 . S
C126 C125 1.347 . S
H127 C128 0.951 . S
C128 H127 0.951 . S
C128 C134 1.265 1_455 S
H129 C134 0.950 . S
H130 C138 0.949 1_556 S
H131 C139 0.950 . S
H132 C140 0.951 . S
H133 C141 0.951 . S
C134 C128 1.265 1_655 S
C134 H129 0.950 . S
C134 C135 1.478 . S
C135 C122 1.394 1_654 S
C135 C134 1.478 . S
C135 C136 1.397 . S
C136 C135 1.397 . S
C136 C137 1.438 . S
C136 C141 1.429 . S
C137 C120 1.394 1_654 S
C137 C136 1.438 . S
C137 C138 1.428 . S
C138 H130 0.949 1_554 S
C138 C137 1.428 . S
C138 C139 1.345 . S
C139 H131 0.950 . S
C139 C138 1.345 . S
C139 C140 1.424 . S
C140 H132 0.951 . S
C140 C139 1.424 . S
C140 C141 1.347 . S
C141 H133 0.951 . S
C141 C136 1.429 . S
C141 C140 1.347 . S
H142 C143 0.951 . S
C143 H142 0.951 . S
C143 C149 1.265 . S
H144 C149 0.950 . S
H145 C153 0.949 . S
H146 C154 0.950 . S
H147 C155 0.951 . S
H148 C156 0.951 . S
C149 C143 1.265 . S
C149 H144 0.950 . S
C149 C150 1.478 . S
C150 C149 1.478 . S
C150 C151 1.397 . S
C150 C167 1.394 . S
C151 C150 1.397 . S
C151 C152 1.438 . S
C151 C156 1.429 . S
C152 C151 1.438 . S
C152 C153 1.428 . S
C152 C165 1.394 . S
C153 H145 0.949 . S
C153 C152 1.428 . S
C153 C154 1.345 . S
C154 H146 0.950 . S
C154 C153 1.345 . S
C154 C155 1.424 . S
C155 H147 0.951 . S
C155 C154 1.424 . S
C155 C156 1.347 . S
C156 H148 0.951 . S
C156 C151 1.429 . S
C156 C155 1.347 . S
H157 C158 0.951 . S
C158 H157 0.951 . S
C158 C164 1.265 . S
H159 C164 0.950 . S
H160 C168 0.949 . S
H161 C169 0.950 . S
H162 C170 0.951 . S
H163 C171 0.951 . S
C164 C158 1.265 . S
C164 H159 0.950 . S
C164 C165 1.478 . S
C165 C152 1.394 . S
C165 C164 1.478 . S
C165 C166 1.397 . S
C166 C165 1.397 . S
C166 C167 1.438 . S
C166 C171 1.429 . S
C167 C150 1.394 . S
C167 C166 1.438 . S
C167 C168 1.428 . S
C168 H160 0.949 . S
C168 C167 1.428 . S
C168 C169 1.345 . S
C169 H161 0.950 . S
C169 C168 1.345 . S
C169 C170 1.424 . S
C170 H162 0.951 . S
C170 C169 1.424 . S
C170 C171 1.347 . S
C171 H163 0.951 . S
C171 C166 1.429 . S
C171 C170 1.347 . S
H172 C173 0.951 . S
C173 H172 0.951 . S
C173 C179 1.265 . S
H174 C179 0.950 . S
H175 C183 0.949 1_556 S
H176 C184 0.950 . S
H177 C185 0.951 . S
H178 C186 0.951 . S
C179 C173 1.265 . S
C179 H174 0.950 . S
C179 C180 1.478 . S
C180 C179 1.478 . S
C180 C181 1.397 1_565 S
C180 C197 1.394 1_554 S
C181 C180 1.397 1_545 S
C181 C182 1.438 . S
C181 C186 1.429 . S
C182 C181 1.438 . S
C182 C183 1.428 . S
C182 C195 1.394 1_554 S
C183 H175 0.949 1_554 S
C183 C182 1.428 . S
C183 C184 1.345 . S
C184 H176 0.950 . S
C184 C183 1.345 . S
C184 C185 1.424 . S
C185 H177 0.951 . S
C185 C184 1.424 . S
C185 C186 1.347 . S
C186 H178 0.951 . S
C186 C181 1.429 . S
C186 C185 1.347 . S
H187 C188 0.951 . S
C188 H187 0.951 . S
C188 C194 1.265 . S
H189 C194 0.950 . S
H190 C198 0.949 1_554 S
H191 C199 0.950 . S
H192 C200 0.951 . S
H193 C201 0.951 . S
C194 C188 1.265 . S
C194 H189 0.950 . S
C194 C195 1.478 . S
C195 C182 1.394 1_556 S
C195 C194 1.478 . S
C195 C196 1.397 1_545 S
C196 C195 1.397 1_565 S
C196 C197 1.438 . S
C196 C201 1.429 . S
C197 C180 1.394 1_556 S
C197 C196 1.438 . S
C197 C198 1.428 . S
C198 H190 0.949 1_556 S
C198 C197 1.428 . S
C198 C199 1.345 . S
C199 H191 0.950 . S
C199 C198 1.345 . S
C199 C200 1.424 . S
C200 H192 0.951 . S
C200 C199 1.424 . S
C200 C201 1.347 . S
C201 H193 0.951 . S
C201 C196 1.429 . S
C201 C200 1.347 . S
H202 C203 0.951 . S
C203 H202 0.951 . S
C203 C209 1.265 . S
H204 C209 0.950 . S
H205 C213 0.949 . S
H206 C214 0.950 . S
H207 C215 0.951 . S
H208 C216 0.951 1_655 S
C209 C203 1.265 . S
C209 H204 0.950 . S
C209 C210 1.478 . S
C210 C209 1.478 . S
C210 C211 1.397 1_655 S
C210 C227 1.394 1_545 S
C211 C210 1.397 1_455 S
C211 C212 1.438 . S
C211 C216 1.429 . S
C212 C211 1.438 . S
C212 C213 1.428 . S
C212 C225 1.394 1_545 S
C213 H205 0.949 . S
C213 C212 1.428 . S
C213 C214 1.345 . S
C214 H206 0.950 . S
C214 C213 1.345 . S
C214 C215 1.424 . S
C215 H207 0.951 . S
C215 C214 1.424 . S
C215 C216 1.347 . S
C216 H208 0.951 1_455 S
C216 C211 1.429 . S
C216 C215 1.347 . S
H217 C218 0.951 . S
C218 H217 0.951 . S
C218 C224 1.265 . S
H219 C224 0.950 . S
H220 C228 0.949 . S
H221 C229 0.950 . S
H222 C230 0.951 . S
H223 C231 0.951 1_455 S
C224 C218 1.265 . S
C224 H219 0.950 . S
C224 C225 1.478 . S
C225 C212 1.394 1_565 S
C225 C224 1.478 . S
C225 C226 1.397 1_455 S
C226 C225 1.397 1_655 S
C226 C227 1.438 . S
C226 C231 1.429 . S
C227 C210 1.394 1_565 S
C227 C226 1.438 . S
C227 C228 1.428 . S
C228 H220 0.949 . S
C228 C227 1.428 . S
C228 C229 1.345 . S
C229 H221 0.950 . S
C229 C228 1.345 . S
C229 C230 1.424 . S
C230 H222 0.951 . S
C230 C229 1.424 . S
C230 C231 1.347 . S
C231 H223 0.951 1_655 S
C231 C226 1.429 . S
C231 C230 1.347 . S
H232 C233 0.951 . S
C233 H232 0.951 . S
C233 C239 1.265 . S
H234 C239 0.950 . S
H235 C243 0.949 . S
H236 C244 0.950 . S
H237 C245 0.951 . S
H238 C246 0.951 . S
C239 C233 1.265 . S
C239 H234 0.950 . S
C239 C240 1.478 . S
C240 C239 1.478 . S
C240 C241 1.397 . S
C240 C257 1.394 . S
C241 C240 1.397 . S
C241 C242 1.438 . S
C241 C246 1.429 . S
C242 C241 1.438 . S
C242 C243 1.428 . S
C242 C255 1.394 . S
C243 H235 0.949 . S
C243 C242 1.428 . S
C243 C244 1.345 . S
C244 H236 0.950 . S
C244 C243 1.345 . S
C244 C245 1.424 . S
C245 H237 0.951 . S
C245 C244 1.424 . S
C245 C246 1.347 . S
C246 H238 0.951 . S
C246 C241 1.429 . S
C246 C245 1.347 . S
H247 C248 0.951 . S
C248 H247 0.951 . S
C248 C254 1.265 . S
H249 C254 0.950 . S
H250 C258 0.949 . S
H251 C259 0.950 . S
H252 C260 0.951 . S
H253 C261 0.951 . S
C254 C248 1.265 . S
C254 H249 0.950 . S
C254 C255 1.478 . S
C255 C242 1.394 . S
C255 C254 1.478 . S
C255 C256 1.397 . S
C256 C255 1.397 . S
C256 C257 1.438 . S
C256 C261 1.429 . S
C257 C240 1.394 . S
C257 C256 1.438 . S
C257 C258 1.428 . S
C258 H250 0.949 . S
C258 C257 1.428 . S
C258 C259 1.345 . S
C259 H251 0.950 . S
C259 C258 1.345 . S
C259 C260 1.424 . S
C260 H252 0.951 . S
C260 C259 1.424 . S
C260 C261 1.347 . S
C261 H253 0.951 . S
C261 C256 1.429 . S
C261 C260 1.347 . S
H262 C263 0.951 . S
C263 H262 0.951 . S
C263 C269 1.265 . S
H264 C269 0.950 . S
H265 C273 0.949 . S
H266 C274 0.950 . S
H267 C275 0.951 . S
H268 C276 0.951 . S
C269 C263 1.265 . S
C269 H264 0.950 . S
C269 C270 1.478 . S
C270 C269 1.478 . S
C270 C271 1.397 . S
C270 C287 1.394 . S
C271 C270 1.397 . S
C271 C272 1.438 . S
C271 C276 1.429 . S
C272 C271 1.438 . S
C272 C273 1.428 . S
C272 C285 1.394 . S
C273 H265 0.949 . S
C273 C272 1.428 . S
C273 C274 1.345 . S
C274 H266 0.950 . S
C274 C273 1.345 . S
C274 C275 1.424 . S
C275 H267 0.951 . S
C275 C274 1.424 . S
C275 C276 1.347 . S
C276 H268 0.951 . S
C276 C271 1.429 . S
C276 C275 1.347 . S
H277 C278 0.951 . S
C278 H277 0.951 . S
C278 C284 1.265 . S
H279 C284 0.950 . S
H280 C288 0.949 . S
H281 C289 0.950 . S
H282 C290 0.951 . S
H283 C291 0.951 . S
C284 C278 1.265 . S
C284 H279 0.950 . S
C284 C285 1.478 . S
C285 C272 1.394 . S
C285 C284 1.478 . S
C285 C286 1.397 . S
C286 C285 1.397 . S
C286 C287 1.438 . S
C286 C291 1.429 . S
C287 C270 1.394 . S
C287 C286 1.438 . S
C287 C288 1.428 . S
C288 H280 0.949 . S
C288 C287 1.428 . S
C288 C289 1.345 . S
C289 H281 0.950 . S
C289 C288 1.345 . S
C289 C290 1.424 . S
C290 H282 0.951 . S
C290 C289 1.424 . S
C290 C291 1.347 . S
C291 H283 0.951 . S
C291 C286 1.429 . S
C291 C290 1.347 . S
H292 C293 0.951 . S
C293 H292 0.951 . S
C293 C299 1.265 . S
H294 C299 0.950 . S
H295 C303 0.949 . S
H296 C304 0.950 . S
H297 C305 0.951 . S
H298 C306 0.951 . S
C299 C293 1.265 . S
C299 H294 0.950 . S
C299 C300 1.478 . S
C300 C299 1.478 . S
C300 C301 1.397 . S
C300 C317 1.394 . S
C301 C300 1.397 . S
C301 C302 1.438 . S
C301 C306 1.429 . S
C302 C301 1.438 . S
C302 C303 1.428 . S
C302 C315 1.394 . S
C303 H295 0.949 . S
C303 C302 1.428 . S
C303 C304 1.345 . S
C304 H296 0.950 . S
C304 C303 1.345 . S
C304 C305 1.424 . S
C305 H297 0.951 . S
C305 C304 1.424 . S
C305 C306 1.347 . S
C306 H298 0.951 . S
C306 C301 1.429 . S
C306 C305 1.347 . S
H307 C308 0.951 . S
C308 H307 0.951 . S
C308 C314 1.265 . S
H309 C314 0.950 . S
H310 C318 0.949 . S
H311 C319 0.950 . S
H312 C320 0.951 . S
H313 C321 0.951 . S
C314 C308 1.265 . S
C314 H309 0.950 . S
C314 C315 1.478 . S
C315 C302 1.394 . S
C315 C314 1.478 . S
C315 C316 1.397 . S
C316 C315 1.397 . S
C316 C317 1.438 . S
C316 C321 1.429 . S
C317 C300 1.394 . S
C317 C316 1.438 . S
C317 C318 1.428 . S
C318 H310 0.949 . S
C318 C317 1.428 . S
C318 C319 1.345 . S
C319 H311 0.950 . S
C319 C318 1.345 . S
C319 C320 1.424 . S
C320 H312 0.951 . S
C320 C319 1.424 . S
C320 C321 1.347 . S
C321 H313 0.951 . S
C321 C316 1.429 . S
C321 C320 1.347 . S
H322 C323 0.951 . S
C323 H322 0.951 . S
C323 C329 1.265 . S
H324 C329 0.950 . S
H325 C333 0.949 . S
H326 C334 0.950 . S
H327 C335 0.951 . S
H328 C336 0.951 . S
C329 C323 1.265 . S
C329 H324 0.950 . S
C329 C330 1.478 . S
C330 C329 1.478 . S
C330 C331 1.397 . S
C330 C347 1.394 . S
C331 C330 1.397 . S
C331 C332 1.438 . S
C331 C336 1.429 . S
C332 C331 1.438 . S
C332 C333 1.428 . S
C332 C345 1.394 . S
C333 H325 0.949 . S
C333 C332 1.428 . S
C333 C334 1.345 . S
C334 H326 0.950 . S
C334 C333 1.345 . S
C334 C335 1.424 . S
C335 H327 0.951 . S
C335 C334 1.424 . S
C335 C336 1.347 . S
C336 H328 0.951 . S
C336 C331 1.429 . S
C336 C335 1.347 . S
H337 C338 0.951 . S
C338 H337 0.951 . S
C338 C344 1.265 . S
H339 C344 0.950 . S
H340 C348 0.949 . S
H341 C349 0.950 . S
H342 C350 0.951 . S
H343 C351 0.951 . S
C344 C338 1.265 . S
C344 H339 0.950 . S
C344 C345 1.478 . S
C345 C332 1.394 . S
C345 C344 1.478 . S
C345 C346 1.397 . S
C346 C345 1.397 . S
C346 C347 1.438 . S
C346 C351 1.429 . S
C347 C330 1.394 . S
C347 C346 1.438 . S
C347 C348 1.428 . S
C348 H340 0.949 . S
C348 C347 1.428 . S
C348 C349 1.345 . S
C349 H341 0.950 . S
C349 C348 1.345 . S
C349 C350 1.424 . S
C350 H342 0.951 . S
C350 C349 1.424 . S
C350 C351 1.347 . S
C351 H343 0.951 . S
C351 C346 1.429 . S
C351 C350 1.347 . S
H352 C353 0.951 . S
C353 H352 0.951 . S
C353 C359 1.265 . S
H354 C359 0.950 . S
H355 C363 0.949 . S
H356 C364 0.950 . S
H357 C365 0.951 . S
H358 C366 0.951 . S
C359 C353 1.265 . S
C359 H354 0.950 . S
C359 C360 1.478 . S
C360 C359 1.478 . S
C360 C361 1.397 . S
C360 C377 1.394 . S
C361 C360 1.397 . S
C361 C362 1.438 . S
C361 C366 1.429 . S
C362 C361 1.438 . S
C362 C363 1.428 . S
C362 C375 1.394 . S
C363 H355 0.949 . S
C363 C362 1.428 . S
C363 C364 1.345 . S
C364 H356 0.950 . S
C364 C363 1.345 . S
C364 C365 1.424 . S
C365 H357 0.951 . S
C365 C364 1.424 . S
C365 C366 1.347 . S
C366 H358 0.951 . S
C366 C361 1.429 . S
C366 C365 1.347 . S
H367 C368 0.951 . S
C368 H367 0.951 . S
C368 C374 1.265 . S
H369 C374 0.950 . S
H370 C378 0.949 . S
H371 C379 0.950 . S
H372 C380 0.951 . S
H373 C381 0.951 . S
C374 C368 1.265 . S
C374 H369 0.950 . S
C374 C375 1.478 . S
C375 C362 1.394 . S
C375 C374 1.478 . S
C375 C376 1.397 . S
C376 C375 1.397 . S
C376 C377 1.438 . S
C376 C381 1.429 . S
C377 C360 1.394 . S
C377 C376 1.438 . S
C377 C378 1.428 . S
C378 H370 0.949 . S
C378 C377 1.428 . S
C378 C379 1.345 . S
C379 H371 0.950 . S
C379 C378 1.345 . S
C379 C380 1.424 . S
C380 H372 0.951 . S
C380 C379 1.424 . S
C380 C381 1.347 . S
C381 H373 0.951 . S
C381 C376 1.429 . S
C381 C380 1.347 . S
H382 C383 0.951 . S
C383 H382 0.951 . S
C383 C389 1.265 . S
H384 C389 0.950 . S
H385 C393 0.949 . S
H386 C394 0.950 . S
H387 C395 0.951 . S
H388 C396 0.951 . S
C389 C383 1.265 . S
C389 H384 0.950 . S
C389 C390 1.478 . S
C390 C389 1.478 . S
C390 C391 1.397 . S
C390 C407 1.394 . S
C391 C390 1.397 . S
C391 C392 1.438 . S
C391 C396 1.429 . S
C392 C391 1.438 . S
C392 C393 1.428 . S
C392 C405 1.394 . S
C393 H385 0.949 . S
C393 C392 1.428 . S
C393 C394 1.345 . S
C394 H386 0.950 . S
C394 C393 1.345 . S
C394 C395 1.424 . S
C395 H387 0.951 . S
C395 C394 1.424 . S
C395 C396 1.347 . S
C396 H388 0.951 . S
C396 C391 1.429 . S
C396 C395 1.347 . S
H397 C398 0.951 . S
C398 H397 0.951 . S
C398 C404 1.265 . S
H399 C404 0.950 . S
H400 C408 0.949 . S
H401 C409 0.950 . S
H402 C410 0.951 . S
H403 C411 0.951 . S
C404 C398 1.265 . S
C404 H399 0.950 . S
C404 C405 1.478 . S
C405 C392 1.394 . S
C405 C404 1.478 . S
C405 C406 1.397 . S
C406 C405 1.397 . S
C406 C407 1.438 . S
C406 C411 1.429 . S
C407 C390 1.394 . S
C407 C406 1.438 . S
C407 C408 1.428 . S
C408 H400 0.949 . S
C408 C407 1.428 . S
C408 C409 1.345 . S
C409 H401 0.950 . S
C409 C408 1.345 . S
C409 C410 1.424 . S
C410 H402 0.951 . S
C410 C409 1.424 . S
C410 C411 1.347 . S
C411 H403 0.951 . S
C411 C406 1.429 . S
C411 C410 1.347 . S
H412 C413 0.951 . S
C413 H412 0.951 . S
C413 C419 1.265 . S
H414 C419 0.950 . S
H415 C423 0.949 . S
H416 C424 0.950 . S
H417 C425 0.951 . S
H418 C426 0.951 . S
C419 C413 1.265 . S
C419 H414 0.950 . S
C419 C420 1.478 . S
C420 C419 1.478 . S
C420 C421 1.397 . S
C420 C437 1.394 . S
C421 C420 1.397 . S
C421 C422 1.438 . S
C421 C426 1.429 . S
C422 C421 1.438 . S
C422 C423 1.428 . S
C422 C435 1.394 . S
C423 H415 0.949 . S
C423 C422 1.428 . S
C423 C424 1.345 . S
C424 H416 0.950 . S
C424 C423 1.345 . S
C424 C425 1.424 . S
C425 H417 0.951 . S
C425 C424 1.424 . S
C425 C426 1.347 . S
C426 H418 0.951 . S
C426 C421 1.429 . S
C426 C425 1.347 . S
H427 C428 0.951 . S
C428 H427 0.951 . S
C428 C434 1.265 . S
H429 C434 0.950 . S
H430 C438 0.949 . S
H431 C439 0.950 . S
H432 C440 0.951 . S
H433 C441 0.948 1_545 S
C434 C428 1.265 . S
C434 H429 0.950 . S
C434 C435 1.478 . S
C435 C422 1.394 . S
C435 C434 1.478 . S
C435 C436 1.397 . S
C436 C435 1.397 . S
C436 C437 1.438 . S
C436 C441 1.429 . S
C437 C420 1.394 . S
C437 C436 1.438 . S
C437 C438 1.428 . S
C438 H430 0.949 . S
C438 C437 1.428 . S
C438 C439 1.345 . S
C439 H431 0.950 . S
C439 C438 1.345 . S
C439 C440 1.424 1_565 S
C440 H432 0.951 . S
C440 C439 1.424 1_545 S
C440 C441 1.347 1_545 S
C441 H433 0.948 1_565 S
C441 C436 1.429 . S
C441 C440 1.347 1_565 S
H442 C443 0.951 . S
C443 H442 0.951 . S
C443 C449 1.265 . S
H444 C449 0.950 . S
H445 C453 0.949 . S
H446 C454 0.950 . S
H447 C455 0.951 . S
H448 C456 0.951 . S
C449 C443 1.265 . S
C449 H444 0.950 . S
C449 C450 1.478 . S
C450 C449 1.478 . S
C450 C451 1.397 . S
C450 C467 1.394 . S
C451 C450 1.397 . S
C451 C452 1.438 . S
C451 C456 1.429 . S
C452 C451 1.438 . S
C452 C453 1.428 . S
C452 C465 1.394 . S
C453 H445 0.949 . S
C453 C452 1.428 . S
C453 C454 1.345 . S
C454 H446 0.950 . S
C454 C453 1.345 . S
C454 C455 1.424 . S
C455 H447 0.951 . S
C455 C454 1.424 . S
C455 C456 1.347 . S
C456 H448 0.951 . S
C456 C451 1.429 . S
C456 C455 1.347 . S
H457 C458 0.951 . S
C458 H457 0.951 . S
C458 C464 1.265 . S
H459 C464 0.950 . S
H460 C468 0.949 . S
H461 C469 0.950 . S
H462 C470 0.951 . S
H463 C471 0.951 . S
C464 C458 1.265 . S
C464 H459 0.950 . S
C464 C465 1.478 . S
C465 C452 1.394 . S
C465 C464 1.478 . S
C465 C466 1.397 . S
C466 C465 1.397 . S
C466 C467 1.438 . S
C466 C471 1.429 . S
C467 C450 1.394 . S
C467 C466 1.438 . S
C467 C468 1.428 . S
C468 H460 0.949 . S
C468 C467 1.428 . S
C468 C469 1.345 . S
C469 H461 0.950 . S
C469 C468 1.345 . S
C469 C470 1.424 . S
C470 H462 0.951 . S
C470 C469 1.424 . S
C470 C471 1.347 . S
C471 H463 0.951 . S
C471 C466 1.429 . S
C471 C470 1.347 . S
H472 C473 0.951 . S
C473 H472 0.951 . S
C473 C479 1.265 . S
H474 C479 0.950 . S
H475 C483 0.949 . S
H476 C484 0.950 . S
H477 C485 0.951 . S
H478 C486 0.951 . S
C479 C473 1.265 . S
C479 H474 0.950 . S
C479 C480 1.478 . S
C480 C479 1.478 . S
C480 C481 1.397 . S
C480 C497 1.394 . S
C481 C480 1.397 . S
C481 C482 1.438 . S
C481 C486 1.429 . S
C482 C481 1.438 . S
C482 C483 1.428 . S
C482 C495 1.394 . S
C483 H475 0.949 . S
C483 C482 1.428 . S
C483 C484 1.345 . S
C484 H476 0.950 . S
C484 C483 1.345 . S
C484 C485 1.424 . S
C485 H477 0.951 . S
C485 C484 1.424 . S
C485 C486 1.347 . S
C486 H478 0.951 . S
C486 C481 1.429 . S
C486 C485 1.347 . S
H487 C488 0.951 . S
C488 H487 0.951 . S
C488 C494 1.265 . S
H489 C494 0.950 . S
H490 C498 0.949 . S
H491 C499 0.950 . S
H492 C500 0.951 . S
H493 C501 0.951 . S
C494 C488 1.265 . S
C494 H489 0.950 . S
C494 C495 1.478 . S
C495 C482 1.394 . S
C495 C494 1.478 . S
C495 C496 1.397 . S
C496 C495 1.397 . S
C496 C497 1.438 . S
C496 C501 1.429 . S
C497 C480 1.394 . S
C497 C496 1.438 . S
C497 C498 1.428 . S
C498 H490 0.949 . S
C498 C497 1.428 . S
C498 C499 1.345 . S
C499 H491 0.950 . S
C499 C498 1.345 . S
C499 C500 1.424 . S
C500 H492 0.951 . S
C500 C499 1.424 . S
C500 C501 1.347 . S
C501 H493 0.951 . S
C501 C496 1.429 . S
C501 C500 1.347 . S
H502 C503 0.951 . S
C503 H502 0.951 . S
C503 C509 1.265 . S
H504 C509 0.950 . S
H505 C513 0.949 . S
H506 C514 0.950 . S
H507 C515 0.951 . S
H508 C516 0.951 . S
C509 C503 1.265 . S
C509 H504 0.950 . S
C509 C510 1.478 . S
C510 C509 1.478 . S
C510 C511 1.397 . S
C510 C527 1.394 . S
C511 C510 1.397 . S
C511 C512 1.438 . S
C511 C516 1.429 . S
C512 C511 1.438 . S
C512 C513 1.428 . S
C512 C525 1.394 . S
C513 H505 0.949 . S
C513 C512 1.428 . S
C513 C514 1.345 . S
C514 H506 0.950 . S
C514 C513 1.345 . S
C514 C515 1.424 . S
C515 H507 0.951 . S
C515 C514 1.424 . S
C515 C516 1.347 . S
C516 H508 0.951 . S
C516 C511 1.429 . S
C516 C515 1.347 . S
H517 C518 0.951 . S
C518 H517 0.951 . S
C518 C524 1.265 . S
H519 C524 0.950 . S
H520 C528 0.949 . S
H521 C529 0.950 . S
H522 C530 0.951 . S
H523 C531 0.951 . S
C524 C518 1.265 . S
C524 H519 0.950 . S
C524 C525 1.478 . S
C525 C512 1.394 . S
C525 C524 1.478 . S
C525 C526 1.397 . S
C526 C525 1.397 . S
C526 C527 1.438 . S
C526 C531 1.429 . S
C527 C510 1.394 . S
C527 C526 1.438 . S
C527 C528 1.428 . S
C528 H520 0.949 . S
C528 C527 1.428 . S
C528 C529 1.345 . S
C529 H521 0.950 . S
C529 C528 1.345 . S
C529 C530 1.424 . S
C530 H522 0.951 . S
C530 C529 1.424 . S
C530 C531 1.347 . S
C531 H523 0.951 . S
C531 C526 1.429 . S
C531 C530 1.347 . S
H532 C533 0.951 . S
C533 H532 0.951 . S
C533 C539 1.265 . S
H534 C539 0.950 . S
H535 C543 0.949 . S
H536 C544 0.950 . S
H537 C545 0.951 . S
H538 C546 0.951 . S
C539 C533 1.265 . S
C539 H534 0.950 . S
C539 C540 1.478 . S
C540 C539 1.478 . S
C540 C541 1.397 . S
C540 C557 1.394 . S
C541 C540 1.397 . S
C541 C542 1.438 . S
C541 C546 1.429 . S
C542 C541 1.438 . S
C542 C543 1.428 . S
C542 C555 1.394 . S
C543 H535 0.949 . S
C543 C542 1.428 . S
C543 C544 1.345 . S
C544 H536 0.950 . S
C544 C543 1.345 . S
C544 C545 1.424 . S
C545 H537 0.951 . S
C545 C544 1.424 . S
C545 C546 1.347 . S
C546 H538 0.951 . S
C546 C541 1.429 . S
C546 C545 1.347 . S
H547 C548 0.951 . S
C548 H547 0.951 . S
C548 C554 1.265 . S
H549 C554 0.950 . S
H550 C558 0.949 . S
H551 C559 0.950 . S
H552 C560 0.951 . S
H553 C561 0.951 . S
C554 C548 1.265 . S
C554 H549 0.950 . S
C554 C555 1.478 . S
C555 C542 1.394 . S
C555 C554 1.478 . S
C555 C556 1.397 . S
C556 C555 1.397 . S
C556 C557 1.438 . S
C556 C561 1.429 1_545 S
C557 C540 1.394 . S
C557 C556 1.438 . S
C557 C558 1.428 . S
C558 H550 0.949 . S
C558 C557 1.428 . S
C558 C559 1.345 1_545 S
C559 H551 0.950 . S
C559 C558 1.345 1_565 S
C559 C560 1.424 . S
C560 H552 0.951 . S
C560 C559 1.424 . S
C560 C561 1.347 . S
C561 H553 0.951 . S
C561 C556 1.429 1_565 S
C561 C560 1.347 . S
H562 C563 0.951 . S
C563 H562 0.951 . S
C563 C569 1.265 . S
H564 C569 0.950 1_455 S
H565 C573 0.949 . S
H566 C574 0.950 . S
H567 C575 0.951 1_455 S
H568 C576 0.951 1_455 S
C569 C563 1.265 . S
C569 H564 0.950 1_655 S
C569 C570 1.478 . S
C570 C569 1.478 . S
C570 C571 1.397 . S
C570 C587 1.394 . S
C571 C570 1.397 . S
C571 C572 1.438 . S
C571 C576 1.429 . S
C572 C571 1.438 . S
C572 C573 1.428 . S
C572 C585 1.394 . S
C573 H565 0.949 . S
C573 C572 1.428 . S
C573 C574 1.345 . S
C574 H566 0.950 . S
C574 C573 1.345 . S
C574 C575 1.424 . S
C575 H567 0.951 1_655 S
C575 C574 1.424 . S
C575 C576 1.347 . S
C576 H568 0.951 1_655 S
C576 C571 1.429 . S
C576 C575 1.347 . S
H577 C578 0.951 . S
C578 H577 0.951 . S
C578 C584 1.265 . S
H579 C584 0.950 . S
H580 C588 0.949 . S
H581 C589 0.950 . S
H582 C590 0.951 . S
H583 C591 0.951 . S
C584 C578 1.265 . S
C584 H579 0.950 . S
C584 C585 1.478 . S
C585 C572 1.394 . S
C585 C584 1.478 . S
C585 C586 1.397 . S
C586 C585 1.397 . S
C586 C587 1.438 . S
C586 C591 1.429 . S
C587 C570 1.394 . S
C587 C586 1.438 . S
C587 C588 1.428 . S
C588 H580 0.949 . S
C588 C587 1.428 . S
C588 C589 1.345 . S
C589 H581 0.950 . S
C589 C588 1.345 . S
C589 C590 1.424 . S
C590 H582 0.951 . S
C590 C589 1.424 . S
C590 C591 1.347 . S
C591 H583 0.951 . S
C591 C586 1.429 . S
C591 C590 1.347 . S
C113 C68 1.789 . S
C128 C13 1.789 . S
C143 C27 1.775 . S
C158 C71 1.774 . S
C173 C29 1.725 . S
C188 C84 1.725 . S
C203 C98 1.751 . S
C218 C42 1.749 . S
C233 C0 2.137 . S
C248 C40 2.136 . S
C263 C14 2.131 . S
C278 C55 2.145 . S
C293 C97 2.139 . S
C308 C57 2.135 . S
C323 C82 2.146 . S
C338 C111 2.143 . S
C353 C70 1.392 . S
C368 C1 1.401 . S
C383 C15 1.348 . S
C398 C85 1.367 . S
C413 C41 1.401 . S
C428 C99 1.392 . S
C443 C69 1.372 . S
C458 C54 1.373 . S
C473 C56 1.394 . S
C488 C26 1.401 . S
C503 C83 1.352 . S
C518 C28 1.368 . S
C533 C96 1.325 . S
C548 C43 1.377 . S
C563 C12 1.368 . S
C578 C110 1.357 . S
