# Generated by pormake.
# Topology xff, (7)-cn, num edge types: 1
# Building blocks:
#     Node 0, Type 0, BuildingBlock: HICVOG_clean_sbu_0, # of connection points: 7
#     Node 1, Type 0, BuildingBlock: HICVOG_clean_sbu_0, # of connection points: 7
#     Node 2, Type 0, BuildingBlock: HICVOG_clean_sbu_0, # of connection points: 7
#     Node 3, Type 0, BuildingBlock: HICVOG_clean_sbu_0, # of connection points: 7
#     Node 4, Type 0, BuildingBlock: HICVOG_clean_sbu_0, # of connection points: 7
#     Node 5, Type 0, BuildingBlock: HICVOG_clean_sbu_0, # of connection points: 7
#     Node 6, Type 0, BuildingBlock: HICVOG_clean_sbu_0, # of connection points: 7
#     Node 7, Type 0, BuildingBlock: HICVOG_clean_sbu_0, # of connection points: 7
#     Node 8, Type 0, BuildingBlock: HICVOG_clean_sbu_0, # of connection points: 7
#     Node 9, Type 0, BuildingBlock: HICVOG_clean_sbu_0, # of connection points: 7
#     Node 10, Type 0, BuildingBlock: HICVOG_clean_sbu_0, # of connection points: 7
#     Node 11, Type 0, BuildingBlock: HICVOG_clean_sbu_0, # of connection points: 7
#     Node 12, Type 0, BuildingBlock: HICVOG_clean_sbu_0, # of connection points: 7
#     Node 13, Type 0, BuildingBlock: HICVOG_clean_sbu_0, # of connection points: 7
#     Node 14, Type 0, BuildingBlock: HICVOG_clean_sbu_0, # of connection points: 7
#     Node 15, Type 0, BuildingBlock: HICVOG_clean_sbu_0, # of connection points: 7
#     Edge 16, Type (0, 0), BuildingBlock: ZUJKAS_clean_linker_0, # of connection points: 2
#     Edge 17, Type (0, 0), BuildingBlock: ZUJKAS_clean_linker_0, # of connection points: 2
#     Edge 18, Type (0, 0), BuildingBlock: ZUJKAS_clean_linker_0, # of connection points: 2
#     Edge 19, Type (0, 0), BuildingBlock: ZUJKAS_clean_linker_0, # of connection points: 2
#     Edge 20, Type (0, 0), BuildingBlock: ZUJKAS_clean_linker_0, # of connection points: 2
#     Edge 21, Type (0, 0), BuildingBlock: ZUJKAS_clean_linker_0, # of connection points: 2
#     Edge 22, Type (0, 0), BuildingBlock: ZUJKAS_clean_linker_0, # of connection points: 2
#     Edge 23, Type (0, 0), BuildingBlock: ZUJKAS_clean_linker_0, # of connection points: 2
#     Edge 24, Type (0, 0), BuildingBlock: ZUJKAS_clean_linker_0, # of connection points: 2
#     Edge 25, Type (0, 0), BuildingBlock: ZUJKAS_clean_linker_0, # of connection points: 2
#     Edge 26, Type (0, 0), BuildingBlock: ZUJKAS_clean_linker_0, # of connection points: 2
#     Edge 27, Type (0, 0), BuildingBlock: ZUJKAS_clean_linker_0, # of connection points: 2
#     Edge 28, Type (0, 0), BuildingBlock: ZUJKAS_clean_linker_0, # of connection points: 2
#     Edge 29, Type (0, 0), BuildingBlock: ZUJKAS_clean_linker_0, # of connection points: 2
#     Edge 30, Type (0, 0), BuildingBlock: ZUJKAS_clean_linker_0, # of connection points: 2
#     Edge 31, Type (0, 0), BuildingBlock: ZUJKAS_clean_linker_0, # of connection points: 2
#     Edge 32, Type (0, 0), BuildingBlock: ZUJKAS_clean_linker_0, # of connection points: 2
#     Edge 33, Type (0, 0), BuildingBlock: ZUJKAS_clean_linker_0, # of connection points: 2
#     Edge 34, Type (0, 0), BuildingBlock: ZUJKAS_clean_linker_0, # of connection points: 2
#     Edge 35, Type (0, 0), BuildingBlock: ZUJKAS_clean_linker_0, # of connection points: 2
#     Edge 36, Type (0, 0), BuildingBlock: ZUJKAS_clean_linker_0, # of connection points: 2
#     Edge 37, Type (0, 0), BuildingBlock: ZUJKAS_clean_linker_0, # of connection points: 2
#     Edge 38, Type (0, 0), BuildingBlock: ZUJKAS_clean_linker_0, # of connection points: 2
#     Edge 39, Type (0, 0), BuildingBlock: ZUJKAS_clean_linker_0, # of connection points: 2
#     Edge 40, Type (0, 0), BuildingBlock: ZUJKAS_clean_linker_0, # of connection points: 2
#     Edge 41, Type (0, 0), BuildingBlock: ZUJKAS_clean_linker_0, # of connection points: 2
#     Edge 42, Type (0, 0), BuildingBlock: ZUJKAS_clean_linker_0, # of connection points: 2
#     Edge 43, Type (0, 0), BuildingBlock: ZUJKAS_clean_linker_0, # of connection points: 2
#     Edge 44, Type (0, 0), BuildingBlock: ZUJKAS_clean_linker_0, # of connection points: 2
#     Edge 45, Type (0, 0), BuildingBlock: ZUJKAS_clean_linker_0, # of connection points: 2
#     Edge 46, Type (0, 0), BuildingBlock: ZUJKAS_clean_linker_0, # of connection points: 2
#     Edge 47, Type (0, 0), BuildingBlock: ZUJKAS_clean_linker_0, # of connection points: 2
#     Edge 48, Type (0, 0), BuildingBlock: ZUJKAS_clean_linker_0, # of connection points: 2
#     Edge 49, Type (0, 0), BuildingBlock: ZUJKAS_clean_linker_0, # of connection points: 2
#     Edge 50, Type (0, 0), BuildingBlock: ZUJKAS_clean_linker_0, # of connection points: 2
#     Edge 51, Type (0, 0), BuildingBlock: ZUJKAS_clean_linker_0, # of connection points: 2
#     Edge 52, Type (0, 0), BuildingBlock: ZUJKAS_clean_linker_0, # of connection points: 2
#     Edge 53, Type (0, 0), BuildingBlock: ZUJKAS_clean_linker_0, # of connection points: 2
#     Edge 54, Type (0, 0), BuildingBlock: ZUJKAS_clean_linker_0, # of connection points: 2
#     Edge 55, Type (0, 0), BuildingBlock: ZUJKAS_clean_linker_0, # of connection points: 2
#     Edge 56, Type (0, 0), BuildingBlock: ZUJKAS_clean_linker_0, # of connection points: 2
#     Edge 57, Type (0, 0), BuildingBlock: ZUJKAS_clean_linker_0, # of connection points: 2
#     Edge 58, Type (0, 0), BuildingBlock: ZUJKAS_clean_linker_0, # of connection points: 2
#     Edge 59, Type (0, 0), BuildingBlock: ZUJKAS_clean_linker_0, # of connection points: 2
#     Edge 60, Type (0, 0), BuildingBlock: ZUJKAS_clean_linker_0, # of connection points: 2
#     Edge 61, Type (0, 0), BuildingBlock: ZUJKAS_clean_linker_0, # of connection points: 2
#     Edge 62, Type (0, 0), BuildingBlock: ZUJKAS_clean_linker_0, # of connection points: 2
#     Edge 63, Type (0, 0), BuildingBlock: ZUJKAS_clean_linker_0, # of connection points: 2
#     Edge 64, Type (0, 0), BuildingBlock: ZUJKAS_clean_linker_0, # of connection points: 2
#     Edge 65, Type (0, 0), BuildingBlock: ZUJKAS_clean_linker_0, # of connection points: 2
#     Edge 66, Type (0, 0), BuildingBlock: ZUJKAS_clean_linker_0, # of connection points: 2
#     Edge 67, Type (0, 0), BuildingBlock: ZUJKAS_clean_linker_0, # of connection points: 2
#     Edge 68, Type (0, 0), BuildingBlock: ZUJKAS_clean_linker_0, # of connection points: 2
#     Edge 69, Type (0, 0), BuildingBlock: ZUJKAS_clean_linker_0, # of connection points: 2
#     Edge 70, Type (0, 0), BuildingBlock: ZUJKAS_clean_linker_0, # of connection points: 2
#     Edge 71, Type (0, 0), BuildingBlock: ZUJKAS_clean_linker_0, # of connection points: 2
# Relax obj value: 0.320
# Max RMSD: 0.249
# Mean RMSD: 0.249
data_MOF--net-xff--node1-HICVOG_clean_sbu_0--edge1-ZUJKAS_clean_linker_0
_symmetry_space_group_name_H-M    P1
_symmetry_Int_Tables_number       1
_symmetry_cell_setting            triclinic
loop_
_symmetry_equiv_pos_as_xyz
'x, y, z'
_cell_length_a     37.957227
_cell_length_b     38.018214
_cell_length_c     84.032127
_cell_angle_alpha  90.064492
_cell_angle_beta   89.993119
_cell_angle_gamma 89.969542
loop_
_atom_site_label
_atom_site_type_symbol
_atom_site_fract_x
_atom_site_fract_y
_atom_site_fract_z
_atom_type_partial_charge
Zn0 Zn 0.20686 0.1049 0.04616 0.0
C1 C 0.22971 0.19022 0.01918 0.0
N2 N 0.21307 0.2059 0.03139 0.0
C3 C 0.20712 0.1791 0.0413 0.0
N4 N 0.21917 0.14833 0.03554 0.0
N5 N 0.23354 0.15495 0.02145 0.0
C6 C 0.21687 0.13204 0.97964 0.0
O7 O 0.19079 0.13168 0.98993 0.0
O8 O 0.22938 0.10286 0.06785 0.0
Zn9 Zn 0.25629 0.11955 0.00799 0.0
N10 N 0.15633 0.10737 0.04864 0.0
C11 C 0.1013 0.11539 0.03563 0.0
C12 C 0.13729 0.10839 0.03497 0.0
C13 C 0.14078 0.11254 0.06306 0.0
N14 N 0.08586 0.1214 0.04994 0.0
C15 C 0.10453 0.12012 0.06376 0.0
O16 O 0.24067 0.06781 0.01077 0.0
C17 C 0.22915 0.04736 0.02162 0.0
O18 O 0.21829 0.05924 0.0349 0.0
H19 H 0.15031 0.10489 0.02362 0.0
H20 H 0.15681 0.11271 0.07371 0.0
C21 C 0.33019 0.14148 0.00603 0.0
C22 C 0.36631 0.13702 0.0094 0.0
C23 C 0.35252 0.08775 0.02557 0.0
C24 C 0.31697 0.0922 0.02222 0.0
N25 N 0.3064 0.11875 0.0125 0.0
N26 N 0.37626 0.11009 0.01908 0.0
H27 H 0.32118 0.16204 0.99813 0.0
C28 C 0.26261 0.10033 0.06922 0.0
O29 O 0.28208 0.09954 0.05631 0.0
O30 O 0.24829 0.12973 0.98478 0.0
H31 H 0.29792 0.07428 0.02722 0.0
H32 H 0.08585 0.11669 0.02483 0.0
H33 H 0.36125 0.06663 0.03324 0.0
Zn34 Zn 0.66159 0.44787 0.29317 0.0
C35 C 0.57373 0.46056 0.26639 0.0
N36 N 0.56123 0.43838 0.27751 0.0
C37 C 0.58905 0.43375 0.28708 0.0
N38 N 0.61715 0.45236 0.28222 0.0
N39 N 0.60788 0.46947 0.26916 0.0
C40 C 0.63453 0.47323 0.22893 0.0
O41 O 0.64167 0.44675 0.23844 0.0
O42 O 0.66002 0.47052 0.31505 0.0
Zn43 Zn 0.63711 0.50478 0.25872 0.0
N44 N 0.66826 0.39792 0.29536 0.0
C45 C 0.67654 0.34328 0.28215 0.0
C46 C 0.67366 0.37975 0.28167 0.0
C47 C 0.66549 0.38122 0.30961 0.0
N48 N 0.67359 0.32648 0.29632 0.0
C49 C 0.66793 0.34425 0.31018 0.0
O50 O 0.69113 0.49928 0.26092 0.0
C51 C 0.71388 0.48423 0.2698 0.0
O52 O 0.70443 0.46541 0.28153 0.0
H53 H 0.67533 0.39359 0.27045 0.0
H54 H 0.66143 0.39679 0.32022 0.0
C55 C 0.61688 0.57896 0.25996 0.0
C56 C 0.60882 0.60999 0.26842 0.0
C57 C 0.61736 0.57925 0.29276 0.0
C58 C 0.62489 0.54871 0.28435 0.0
N59 N 0.6248 0.54917 0.2682 0.0
N60 N 0.6095 0.60899 0.28463 0.0
H61 H 0.61732 0.57836 0.2471 0.0
C62 C 0.67512 0.49979 0.31776 0.0
O63 O 0.69171 0.51569 0.30609 0.0
O64 O 0.62868 0.50329 0.23506 0.0
H65 H 0.63086 0.52463 0.29061 0.0
H66 H 0.68085 0.32838 0.27135 0.0
H67 H 0.61757 0.57935 0.30563 0.0
Zn68 Zn 0.31219 0.91173 0.54356 0.0
C69 C 0.29898 0.82561 0.51561 0.0
N70 N 0.31746 0.81131 0.52762 0.0
C71 C 0.32154 0.83843 0.5376 0.0
N72 N 0.30612 0.86792 0.53217 0.0
N73 N 0.29197 0.86029 0.51815 0.0
C74 C 0.30144 0.8916 0.47635 0.0
O75 O 0.32684 0.89955 0.48635 0.0
O76 O 0.28827 0.90994 0.56514 0.0
Zn77 Zn 0.26449 0.89336 0.50542 0.0
N78 N 0.36249 0.91555 0.54637 0.0
C79 C 0.41763 0.92144 0.53328 0.0
C80 C 0.38104 0.92041 0.53274 0.0
C81 C 0.379 0.91151 0.56065 0.0
N82 N 0.4342 0.91733 0.54745 0.0
C83 C 0.41614 0.91221 0.56128 0.0
O84 O 0.27558 0.94629 0.50814 0.0
C85 C 0.28577 0.96743 0.51901 0.0
O86 O 0.29755 0.95631 0.53224 0.0
H87 H 0.36735 0.92309 0.52152 0.0
H88 H 0.36323 0.90783 0.57123 0.0
C89 C 0.19248 0.86678 0.50392 0.0
C90 C 0.15697 0.86652 0.50881 0.0
C91 C 0.17025 0.90963 0.52841 0.0
C92 C 0.20526 0.90973 0.52356 0.0
N93 N 0.21564 0.88864 0.51137 0.0
N94 N 0.14702 0.88819 0.52093 0.0
H95 H 0.20154 0.85045 0.49418 0.0
C96 C 0.26186 0.92928 0.56839 0.0
O97 O 0.24959 0.95062 0.55743 0.0
O98 O 0.27105 0.88468 0.48191 0.0
H99 H 0.22407 0.92674 0.52936 0.0
H100 H 0.43281 0.92528 0.52253 0.0
H101 H 0.16156 0.92645 0.53803 0.0
Zn102 Zn 0.85743 0.56749 0.79469 0.0
C103 C 0.94499 0.55107 0.76851 0.0
N104 N 0.95931 0.56694 0.78127 0.0
C105 C 0.93184 0.57012 0.79113 0.0
N106 N 0.90207 0.557 0.78481 0.0
N107 N 0.91 0.54465 0.77049 0.0
C108 C 0.89088 0.55345 0.72829 0.0
O109 O 0.89012 0.58049 0.73804 0.0
O110 O 0.85418 0.54498 0.81645 0.0
Zn111 Zn 0.87742 0.51745 0.75734 0.0
N112 N 0.85751 0.61805 0.79668 0.0
C113 C 0.8614 0.67241 0.7829 0.0
C114 C 0.85902 0.63593 0.78272 0.0
C115 C 0.85837 0.63511 0.81092 0.0
N116 N 0.86233 0.68955 0.79705 0.0
C117 C 0.861 0.67217 0.81122 0.0
O118 O 0.82437 0.52888 0.75925 0.0
C119 C 0.80284 0.54168 0.76939 0.0
O120 O 0.8137 0.5551 0.78234 0.0
H121 H 0.85878 0.62174 0.77155 0.0
H122 H 0.85687 0.61974 0.8217 0.0
C123 C 0.90045 0.44403 0.75637 0.0
C124 C 0.90058 0.40935 0.76232 0.0
C125 C 0.86209 0.4272 0.78313 0.0
C126 C 0.86229 0.46138 0.77729 0.0
N127 N 0.88117 0.46909 0.76403 0.0
N128 N 0.88113 0.40212 0.77554 0.0
H129 H 0.91499 0.45104 0.74577 0.0
C130 C 0.83272 0.52005 0.81924 0.0
O131 O 0.81191 0.509 0.80781 0.0
O132 O 0.88842 0.52262 0.73403 0.0
H133 H 0.84736 0.48174 0.7832 0.0
H134 H 0.86267 0.68705 0.77188 0.0
H135 H 0.84701 0.42063 0.79364 0.0
Zn136 Zn 0.75678 0.90419 0.99162 0.0
C137 C 0.80724 0.84664 0.95808 0.0
N138 N 0.80104 0.81927 0.96766 0.0
C139 C 0.78501 0.83441 0.98018 0.0
N140 N 0.78141 0.86981 0.97832 0.0
N141 N 0.79549 0.87712 0.96426 0.0
C142 C 0.75227 0.92192 0.93025 0.0
O143 O 0.73212 0.91634 0.94269 0.0
O144 O 0.76378 0.89423 0.01494 0.0
Zn145 Zn 0.80736 0.92112 0.95404 0.0
N146 N 0.70736 0.90293 0.98615 0.0
C147 C 0.66156 0.9301 0.97128 0.0
C148 C 0.69649 0.92883 0.97615 0.0
C149 C 0.68453 0.87806 0.99159 0.0
N150 N 0.63881 0.90534 0.97659 0.0
C151 C 0.64905 0.87919 0.98665 0.0
O152 O 0.79574 0.96611 0.96571 0.0
C153 C 0.78322 0.97745 0.97878 0.0
O154 O 0.77054 0.95639 0.98911 0.0
H155 H 0.71491 0.94823 0.97185 0.0
H156 H 0.69417 0.85748 -0.00067 0.0
C157 C 0.87416 0.91569 0.93758 0.0
C158 C 0.91098 0.91121 0.93706 0.0
C159 C 0.9128 0.91466 0.96529 0.0
C160 C 0.87642 0.91914 0.96572 0.0
N161 N 0.85787 0.91949 0.95191 0.0
N162 N 0.92915 0.91074 0.95104 0.0
H163 H 0.85842 0.91498 0.92686 0.0
C164 C 0.795 0.89682 0.0203 0.0
O165 O 0.82096 0.90147 0.01017 0.0
O166 O 0.7854 0.92433 0.93219 0.0
H167 H 0.86282 0.92159 0.97699 0.0
H168 H 0.65259 0.95047 0.96327 0.0
H169 H 0.92795 0.91407 0.97619 0.0
Zn170 Zn 0.35911 0.56127 0.7017 0.0
C171 C 0.44554 0.54484 0.72888 0.0
N172 N 0.46066 0.5603 0.71622 0.0
C173 C 0.4335 0.56436 0.70625 0.0
N174 N 0.4032 0.55195 0.71235 0.0
N175 N 0.4104 0.53963 0.72674 0.0
C176 C 0.39016 0.55159 0.769 0.0
O177 O 0.38926 0.57844 0.75917 0.0
O178 O 0.35715 0.53696 0.68025 0.0
Zn179 Zn 0.37638 0.51501 0.74007 0.0
N180 N 0.35948 0.61155 0.69875 0.0
C181 C 0.36336 0.66713 0.71162 0.0
C182 C 0.35913 0.63081 0.71237 0.0
C183 C 0.36362 0.62711 0.68429 0.0
N184 N 0.36784 0.68273 0.69725 0.0
C185 C 0.36799 0.66384 0.68347 0.0
O186 O 0.32405 0.52938 0.73809 0.0
C187 C 0.30316 0.53982 0.72718 0.0
O188 O 0.31454 0.54996 0.71372 0.0
H189 H 0.35645 0.6178 0.72375 0.0
H190 H 0.36483 0.61093 0.6737 0.0
C191 C 0.39663 0.44094 0.74151 0.0
C192 C 0.39328 0.40562 0.73667 0.0
C193 C 0.35187 0.42294 0.717 0.0
C194 C 0.35522 0.45775 0.72182 0.0
N195 N 0.37711 0.46606 0.73404 0.0
N196 N 0.37078 0.39775 0.72456 0.0
H197 H 0.41382 0.44829 0.75123 0.0
C198 C 0.33585 0.51193 0.67738 0.0
O199 O 0.31428 0.50144 0.68862 0.0
O200 O 0.38763 0.52065 0.76335 0.0
H201 H 0.34017 0.47809 0.716 0.0
H202 H 0.36345 0.6828 0.72237 0.0
H203 H 0.33431 0.41592 0.70737 0.0
Zn204 Zn 0.76213 0.12093 0.49225 0.0
C205 C 0.70869 0.17513 0.45856 0.0
N206 N 0.7106 0.20215 0.46871 0.0
C207 C 0.72761 0.18809 0.48121 0.0
N208 N 0.73579 0.15363 0.47881 0.0
N209 N 0.7238 0.14585 0.46441 0.0
C210 C 0.76867 0.08131 0.42948 0.0
O211 O 0.7812 0.0617 0.44102 0.0
O212 O 0.75498 0.13195 0.51545 0.0
Zn213 Zn 0.71795 0.10128 0.4537 0.0
N214 N 0.81133 0.12456 0.48668 0.0
C215 C 0.85741 0.10191 0.47047 0.0
C216 C 0.82224 0.10219 0.47507 0.0
C217 C 0.83417 0.14722 0.49383 0.0
N218 N 0.88025 0.1244 0.47755 0.0
C219 C 0.86978 0.14734 0.48909 0.0
O220 O 0.73221 0.05768 0.46562 0.0
C221 C 0.74219 0.04665 0.47915 0.0
O222 O 0.75062 0.06789 0.49028 0.0
H223 H 0.80373 0.08452 0.4695 0.0
H224 H 0.82476 0.16445 0.50316 0.0
C225 C 0.65165 0.10313 0.43674 0.0
C226 C 0.61462 0.10148 0.4358 0.0
C227 C 0.61244 0.08765 0.46338 0.0
C228 C 0.64901 0.08922 0.46419 0.0
N229 N 0.66782 0.09688 0.45089 0.0
N230 N 0.59619 0.09381 0.44928 0.0
H231 H 0.66755 0.11023 0.42656 0.0
C232 C 0.72371 0.13436 0.52078 0.0
O233 O 0.69731 0.1335 0.51067 0.0
O234 O 0.74199 0.10069 0.43215 0.0
H235 H 0.66244 0.08486 0.47537 0.0
H236 H 0.86652 0.08409 0.46131 0.0
H237 H 0.59704 0.08173 0.47387 0.0
Zn238 Zn 0.1588 0.45132 0.2037 0.0
C239 C 0.07097 0.47439 0.22922 0.0
N240 N 0.05654 0.45503 0.21753 0.0
C241 C 0.08419 0.44791 0.20818 0.0
N242 N 0.11418 0.46231 0.21373 0.0
N243 N 0.10616 0.47916 0.22708 0.0
C244 C 0.13772 0.4714 0.26818 0.0
O245 O 0.14708 0.44688 0.25798 0.0
O246 O 0.16212 0.4741 0.18195 0.0
Zn247 Zn 0.13894 0.50766 0.23945 0.0
N248 N 0.15775 0.40093 0.20124 0.0
C249 C 0.15113 0.34564 0.21409 0.0
C250 C 0.15643 0.38185 0.21489 0.0
C251 C 0.15437 0.3853 0.18676 0.0
N252 N 0.14725 0.33001 0.19967 0.0
C253 C 0.14885 0.34877 0.1859 0.0
O254 O 0.1919 0.4963 0.23705 0.0
C255 C 0.21364 0.48005 0.22808 0.0
O256 O 0.20313 0.46316 0.21591 0.0
H257 H 0.1585 0.39493 0.22629 0.0
H258 H 0.15447 0.40135 0.17613 0.0
C259 C 0.10921 0.57863 0.23867 0.0
C260 C 0.10742 0.61303 0.23247 0.0
C261 C 0.15521 0.59975 0.21517 0.0
C262 C 0.15683 0.56592 0.22132 0.0
N263 N 0.13387 0.55595 0.23285 0.0
N264 N 0.13064 0.62236 0.22084 0.0
H265 H 0.09101 0.56967 0.2477 0.0
C266 C 0.18018 0.50175 0.17956 0.0
O267 O 0.19769 0.51572 0.19145 0.0
O268 O 0.12972 0.5017 0.26288 0.0
H269 H 0.17618 0.54755 0.21691 0.0
H270 H 0.14965 0.33012 0.22485 0.0
H271 H 0.17325 0.60802 0.20594 0.0
Zn272 Zn 0.71671 0.60256 0.54477 0.0
C273 C 0.73934 0.68878 0.51873 0.0
N274 N 0.72756 0.70429 0.5321 0.0
C275 C 0.72196 0.6769 0.54172 0.0
N276 N 0.7298 0.64607 0.53472 0.0
N277 N 0.74097 0.65314 0.52012 0.0
C278 C 0.71995 0.62234 0.47777 0.0
O279 O 0.69541 0.61444 0.48821 0.0
O280 O 0.7367 0.60086 0.56696 0.0
Zn281 Zn 0.76144 0.61801 0.50581 0.0
N282 N 0.66597 0.60369 0.54561 0.0
C283 C 0.61256 0.60883 0.53108 0.0
C284 C 0.64909 0.60598 0.53141 0.0
C285 C 0.6479 0.60414 0.55959 0.0
N286 N 0.59442 0.60952 0.54499 0.0
C287 C 0.61085 0.60742 0.55938 0.0
O288 O 0.74701 0.56598 0.50887 0.0
C289 C 0.73881 0.54547 0.5203 0.0
O290 O 0.73017 0.55731 0.5339 0.0
H291 H 0.66407 0.6059 0.52046 0.0
H292 H 0.6625 0.60187 0.57057 0.0
C293 C 0.83502 0.6397 0.50202 0.0
C294 C 0.87137 0.63575 0.50491 0.0
C295 C 0.85915 0.58842 0.52245 0.0
C296 C 0.82331 0.59251 0.51965 0.0
N297 N 0.81188 0.61763 0.50936 0.0
N298 N 0.88226 0.60997 0.51501 0.0
H299 H 0.82532 0.6595 0.49388 0.0
C300 C 0.76982 0.60332 0.56888 0.0
O301 O 0.79003 0.60762 0.55634 0.0
O302 O 0.75107 0.62819 0.48272 0.0
H303 H 0.80472 0.57555 0.52559 0.0
H304 H 0.59868 0.61069 0.51987 0.0
H305 H 0.86859 0.56832 0.53049 0.0
Zn306 Zn 0.14514 1.00889 0.75672 0.0
C307 C 0.08709 0.96754 0.79237 0.0
N308 N 0.05945 0.97606 0.78329 0.0
C309 C 0.0749 0.98853 0.77005 0.0
N310 N 0.11065 0.9879 0.77104 0.0
N311 N 0.11798 0.97456 0.78523 0.0
C312 C 0.1566 0.01366 0.82004 0.0
O313 O 0.14834 0.03397 0.80796 0.0
O314 O 0.13497 0.99731 0.73374 0.0
Zn315 Zn 0.16184 0.96183 0.79522 0.0
N316 N 0.14404 0.05924 0.76012 0.0
C317 C 0.17231 0.10733 0.77299 0.0
C318 C 0.16912 0.07142 0.77028 0.0
C319 C 0.12099 0.08163 0.75289 0.0
N320 N 0.14992 0.12972 0.7656 0.0
C321 C 0.12412 0.11805 0.75566 0.0
O322 O 0.20689 0.97659 0.78447 0.0
C323 C 0.21837 0.98676 0.77104 0.0
O324 O 0.19755 0.99582 0.75985 0.0
H325 H 0.18675 0.05335 0.77617 0.0
H326 H 0.10108 0.07131 0.74494 0.0
C327 C 0.1651 0.89312 0.8099 0.0
C328 C 0.16388 0.85608 0.80969 0.0
C329 C 0.15757 0.85759 0.78155 0.0
C330 C 0.15849 0.89418 0.78186 0.0
N331 N 0.16226 0.91117 0.79598 0.0
N332 N 0.16031 0.83949 0.7954 0.0
H333 H 0.16846 0.90762 0.82087 0.0
C334 C 0.14379 0.96659 0.72923 0.0
O335 O 0.15463 0.94399 0.74 0.0
O336 O 0.16305 0.98132 0.81751 0.0
H337 H 0.15608 0.90909 0.77096 0.0
H338 H 0.19238 0.11737 0.78092 0.0
H339 H 0.15464 0.84365 0.77041 0.0
Zn340 Zn 0.75573 0.40373 0.00765 0.0
C341 C 0.80812 0.34689 0.04076 0.0
N342 N 0.80024 0.31923 0.0316 0.0
C343 C 0.78319 0.33421 0.01933 0.0
N344 N 0.78058 0.36975 0.02096 0.0
N345 N 0.79653 0.37736 0.03457 0.0
C346 C 0.75624 0.43063 0.06859 0.0
O347 O 0.73702 0.43753 0.05598 0.0
O348 O 0.76507 0.39387 0.98454 0.0
Zn349 Zn 0.80913 0.42122 0.04465 0.0
N350 N 0.70579 0.40076 0.01207 0.0
C351 C 0.65731 0.42766 0.02526 0.0
C352 C 0.69307 0.4264 0.02178 0.0
C353 C 0.68406 0.3759 0.00572 0.0
N354 N 0.63559 0.40317 0.01889 0.0
C355 C 0.64773 0.3771 0.00919 0.0
O356 O 0.79564 0.46624 0.03347 0.0
C357 C 0.78129 0.47753 0.02079 0.0
O358 O 0.7679 0.45637 0.01066 0.0
H359 H 0.71056 0.44599 0.02668 0.0
H360 H 0.6949 0.35611 0.99785 0.0
C361 C 0.8764 0.41682 0.06044 0.0
C362 C 0.91331 0.41255 0.06089 0.0
C363 C 0.91473 0.41772 0.03267 0.0
C364 C 0.87822 0.42108 0.03233 0.0
N365 N 0.85985 0.42051 0.04618 0.0
N366 N 0.93129 0.4134 0.04685 0.0
H367 H 0.86062 0.41678 0.07113 0.0
C368 C 0.79566 0.40181 0.97956 0.0
O369 O 0.81934 0.41247 0.98991 0.0
O370 O 0.78849 0.42269 0.06674 0.0
H371 H 0.86445 0.42364 0.02112 0.0
H372 H 0.64683 0.44802 0.03292 0.0
H373 H 0.9298 0.41809 0.02175 0.0
Zn374 Zn 0.38032 0.01671 0.25708 0.0
C375 C 0.43618 0.07229 0.28956 0.0
N376 N 0.46382 0.06465 0.2803 0.0
C377 C 0.44906 0.04666 0.26827 0.0
N378 N 0.41361 0.04321 0.27011 0.0
N379 N 0.40577 0.05954 0.28363 0.0
C380 C 0.34438 0.0199 0.31691 0.0
O381 O 0.3363 1.00138 0.30424 0.0
O382 O 0.39103 0.02335 0.23385 0.0
Zn383 Zn 0.36095 0.07253 0.2932 0.0
N384 N 0.38354 0.96772 0.26284 0.0
C385 C 0.35802 0.92122 0.2778 0.0
C386 C 0.35733 0.95574 0.27242 0.0
C387 C 0.41031 0.94626 0.2581 0.0
N388 N 0.38484 0.89992 0.27329 0.0
C389 C 0.41113 0.91125 0.26352 0.0
O390 O 0.31674 0.0609 0.2809 0.0
C391 C 0.30611 0.04504 0.26847 0.0
O392 O 0.3277 0.02931 0.25926 0.0
H393 H 0.3361 0.97297 0.27592 0.0
H394 H 0.43085 0.95659 0.2505 0.0
C395 C 0.36873 0.13916 0.30936 0.0
C396 C 0.37326 0.1759 0.30987 0.0
C397 C 0.36572 0.17812 0.28182 0.0
C398 C 0.36125 0.14177 0.2814 0.0
N399 N 0.36291 0.12306 0.29513 0.0
N400 N 0.37171 0.19426 0.29598 0.0
H401 H 0.37096 0.1233 0.31999 0.0
C402 C 0.38599 0.05414 0.22842 0.0
O403 O 0.3779 0.07946 0.23844 0.0
O404 O 0.35528 0.05127 0.31515 0.0
H405 H 0.35718 0.12835 0.27018 0.0
H406 H 0.33747 0.9114 0.28553 0.0
H407 H 0.36472 0.19339 0.27098 0.0
Zn408 Zn 0.2678 0.39176 0.48865 0.0
C409 C 0.32884 0.34005 0.45682 0.0
N410 N 0.32625 0.31278 0.46677 0.0
C411 C 0.30661 0.32591 0.47871 0.0
N412 N 0.29754 0.36012 0.47614 0.0
N413 N 0.31176 0.36865 0.46225 0.0
C414 C 0.2677 0.43682 0.42723 0.0
O415 O 0.26067 0.46112 0.43788 0.0
O416 O 0.2724 0.38117 0.51201 0.0
Zn417 Zn 0.31675 0.41335 0.45147 0.0
N418 N 0.22005 0.38684 0.4813 0.0
C419 C 0.179 0.40518 0.46162 0.0
C420 C 0.21316 0.40437 0.46757 0.0
C421 C 0.19423 0.36927 0.48925 0.0
N422 N 0.15307 0.38821 0.46962 0.0
C423 C 0.15962 0.37006 0.48326 0.0
O424 O 0.30322 0.45659 0.46394 0.0
C425 C 0.28981 0.46707 0.47695 0.0
O426 O 0.27781 0.44518 0.4871 0.0
H427 H 0.23411 0.41807 0.46146 0.0
H428 H 0.20042 0.35568 0.50021 0.0
C429 C 0.38224 0.41071 0.43358 0.0
C430 C 0.41923 0.40913 0.43266 0.0
C431 C 0.42281 0.42438 0.46003 0.0
C432 C 0.38622 0.42504 0.46098 0.0
N433 N 0.3667 0.41792 0.44782 0.0
N434 N 0.4384 0.4161 0.44599 0.0
H435 H 0.36595 0.40423 0.42343 0.0
C436 C 0.30305 0.38643 0.51763 0.0
O437 O 0.32873 0.39406 0.50773 0.0
O438 O 0.29063 0.41343 0.4304 0.0
H439 H 0.37332 0.43021 0.47222 0.0
H440 H 0.17305 0.41931 0.45078 0.0
H441 H 0.43873 0.42969 0.47043 0.0
Zn442 Zn 0.88292 0.01883 0.23814 0.0
C443 C 0.93187 0.08938 0.20976 0.0
N444 N 0.95922 0.08495 0.21962 0.0
C445 C 0.94639 0.06255 0.23055 0.0
N446 N 0.91246 0.05341 0.22744 0.0
N447 N 0.90361 0.07049 0.2143 0.0
C448 C 0.84217 0.0224 0.1796 0.0
O449 O 0.82436 1.00839 0.1914 0.0
O450 O 0.8916 0.02125 0.26177 0.0
Zn451 Zn 0.8589 0.07524 0.20345 0.0
N452 N 0.89462 0.97372 0.2292 0.0
C453 C 0.89884 0.94098 0.20519 0.0
C454 C 0.8922 0.97239 0.2131 0.0
C455 C 0.90416 0.94498 0.23785 0.0
N456 N 0.90816 0.91222 0.21373 0.0
C457 C 0.91126 0.91311 0.22988 0.0
O458 O 0.81572 0.05962 0.21554 0.0
C459 C 0.80628 0.04076 0.22727 0.0
O460 O 0.82901 0.02502 0.23592 0.0
H461 H 0.88503 0.9957 0.20651 0.0
H462 H 0.90567 0.94696 0.25067 0.0
C463 C 0.8597 0.14094 0.18619 0.0
C464 C 0.8605 0.17788 0.18534 0.0
C465 C 0.84822 0.18093 0.21302 0.0
C466 C 0.84785 0.14436 0.21383 0.0
N467 N 0.85377 0.12516 0.20046 0.0
N468 N 0.85476 0.19678 0.19887 0.0
H469 H 0.86536 0.12488 0.17586 0.0
C470 C 0.88269 0.05062 0.26784 0.0
O471 O 0.87221 0.07589 0.25828 0.0
O472 O 0.85915 0.05077 0.18198 0.0
H473 H 0.84383 0.13123 0.2251 0.0
H474 H 0.89675 0.93944 0.19237 0.0
H475 H 0.84387 0.19661 0.22359 0.0
Zn476 Zn 0.26076 0.61976 0.99162 0.0
C477 C 0.22111 0.67808 0.95579 0.0
N478 N 0.22467 0.70558 0.96559 0.0
C479 C 0.23618 0.69047 0.97909 0.0
N480 N 0.23957 0.65492 0.97759 0.0
N481 N 0.22988 0.64757 0.9628 0.0
C482 C 0.27168 0.60384 0.92871 0.0
O483 O 0.29199 0.60854 0.94119 0.0
O484 O 0.25359 0.6314 0.01477 0.0
Zn485 Zn 0.21812 0.60351 0.95282 0.0
N486 N 0.31067 0.61809 0.98672 0.0
C487 C 0.35587 0.58885 0.97221 0.0
C488 C 0.32079 0.59192 0.97667 0.0
C489 C 0.33447 0.64172 0.99248 0.0
N490 N 0.37952 0.61241 0.97782 0.0
C491 C 0.37009 0.639 0.98784 0.0
O492 O 0.23121 0.5585 0.96402 0.0
C493 C 0.23759 0.54709 0.97794 0.0
O494 O 0.2442 0.568 0.98946 0.0
H495 H 0.30173 0.5737 0.97195 0.0
H496 H 0.32546 0.66265 0.00019 0.0
C497 C 0.14971 0.60348 0.93762 0.0
C498 C 0.11262 0.60581 0.93768 0.0
C499 C 0.11369 0.60841 0.96596 0.0
C500 C 0.15028 0.60638 0.96578 0.0
N501 N 0.16748 0.60392 0.95167 0.0
N502 N 0.09583 0.60808 0.95198 0.0
H503 H 0.16451 0.60113 0.92669 0.0
C504 C 0.22254 0.62845 0.02029 0.0
O505 O 0.19649 0.62269 0.01032 0.0
O506 O 0.23858 0.60137 0.93071 0.0
H507 H 0.16503 0.60699 0.9768 0.0
H508 H 0.36422 0.56816 0.96421 0.0
H509 H 0.09955 0.61037 0.9771 0.0
Zn510 Zn 0.66316 0.95983 0.70372 0.0
C511 C 0.57615 0.97912 0.73001 0.0
N512 N 0.5614 0.96273 0.7175 0.0
C513 C 0.58879 0.95804 0.70773 0.0
N514 N 0.61892 0.97084 0.71383 0.0
N515 N 0.61135 0.98431 0.728 0.0
C516 C 0.63322 0.97075 0.77029 0.0
O517 O 0.6345 0.94409 0.76033 0.0
O518 O 0.66608 0.98111 0.6818 0.0
Zn519 Zn 0.64517 1.00924 0.74152 0.0
N520 N 0.66329 0.90931 0.70211 0.0
C521 C 0.65949 0.85506 0.716 0.0
C522 C 0.6609 0.89162 0.71609 0.0
C523 C 0.66411 0.89202 0.68793 0.0
N524 N 0.6605 0.83768 0.7019 0.0
C525 C 0.66264 0.85499 0.68774 0.0
O526 O 0.69781 0.99685 0.73901 0.0
C527 C 0.71896 0.98525 0.72842 0.0
O528 O 0.70763 0.97296 0.71532 0.0
H529 H 0.65988 0.90598 0.72721 0.0
H530 H 0.66625 0.90705 0.67705 0.0
C531 C 0.61975 0.08143 0.74344 0.0
C532 C 0.62066 0.11729 0.73923 0.0
C533 C 0.66801 0.10544 0.72152 0.0
C534 C 0.66681 0.07007 0.72562 0.0
N535 N 0.64286 0.05873 0.73647 0.0
N536 N 0.64501 0.12811 0.72838 0.0
H537 H 0.60146 0.07167 0.75226 0.0
C538 C 0.6614 0.01386 0.67964 0.0
O539 O 0.65307 0.03379 0.69185 0.0
O540 O 0.63482 1.00184 0.76478 0.0
H541 H 0.685 0.05173 0.72023 0.0
H542 H 0.65762 0.84056 0.72704 0.0
H543 H 0.687 0.11486 0.71292 0.0
H544 H 0.18486 0.35998 0.15817 0.0
H545 H 0.18118 0.32579 0.13365 0.0
H546 H 0.09944 0.2615 0.1543 0.0
H547 H 0.10403 0.29496 0.17915 0.0
H548 H 0.14538 0.2212 0.14042 0.0
H549 H 0.11197 0.32688 0.09839 0.0
H550 H 0.15241 0.33787 0.10814 0.0
H551 H 0.11241 0.33431 0.11959 0.0
C552 C 0.16564 0.33901 0.15738 0.0
C553 C 0.14453 0.33029 0.17052 0.0
C554 C 0.16344 0.31951 0.14332 0.0
C555 C 0.13948 0.29147 0.14196 0.0
C556 C 0.11798 0.2831 0.15501 0.0
H557 H 0.14032 0.20125 0.04619 0.0
H558 H 0.11487 0.22163 0.07141 0.0
C559 C 0.12062 0.30222 0.16919 0.0
C560 C 0.13883 0.26955 0.1273 0.0
H561 H 0.14109 0.27548 0.08684 0.0
C562 C 0.14374 0.23301 0.1287 0.0
C563 C 0.13576 0.28459 0.11197 0.0
C564 C 0.12743 0.32302 0.10948 0.0
C565 C 0.14828 0.21163 0.1152 0.0
C566 C 0.14878 0.22736 0.09997 0.0
C567 C 0.14126 0.26339 0.09853 0.0
C568 C 0.16063 0.20817 0.08554 0.0
C569 C 0.15313 0.17257 0.11744 0.0
C570 C 0.19441 0.19297 0.08515 0.0
C571 C 0.20873 0.18112 0.0708 0.0
C572 C 0.18948 0.18415 0.05665 0.0
C573 C 0.1553 0.19816 0.05707 0.0
C574 C 0.14084 0.2098 0.07143 0.0
H575 H 0.1383 0.16314 0.12801 0.0
H576 H 0.1443 0.15753 0.10684 0.0
H577 H 0.18145 0.1669 0.1195 0.0
H578 H 0.2107 0.19248 0.09573 0.0
H579 H 0.23576 0.17203 0.07058 0.0
H580 H 0.40187 0.42525 0.40174 0.0
H581 H 0.43685 0.41368 0.37793 0.0
H582 H 0.51404 0.35883 0.40629 0.0
H583 H 0.47942 0.3709 0.43021 0.0
H584 H 0.54519 0.40546 0.38857 0.0
H585 H 0.45513 0.33015 0.35013 0.0
H586 H 0.43397 0.36975 0.35664 0.0
H587 H 0.4466 0.33691 0.37103 0.0
C588 C 0.42586 0.41003 0.40287 0.0
C589 C 0.43793 0.39906 0.41787 0.0
C590 C 0.44581 0.40326 0.38921 0.0
C591 C 0.47794 0.38498 0.39026 0.0
C592 C 0.48935 0.37292 0.40517 0.0
H593 H 0.57554 0.3662 0.29607 0.0
H594 H 0.55663 0.34669 0.32262 0.0
C595 C 0.4696 0.37996 0.41883 0.0
C596 C 0.50134 0.38206 0.37614 0.0
H597 H 0.50043 0.36402 0.33643 0.0
C598 C 0.53566 0.39568 0.37723 0.0
C599 C 0.4895 0.36839 0.36144 0.0
C600 C 0.45442 0.3501 0.3598 0.0
C601 C 0.55739 0.39851 0.36379 0.0
C602 C 0.54401 0.38849 0.34871 0.0
C603 C 0.51071 0.37232 0.34787 0.0
C604 C 0.56192 0.3981 0.33356 0.0
C605 C 0.59411 0.41295 0.366 0.0
C606 C 0.5721 0.43315 0.33091 0.0
C607 C 0.5837 0.4439 0.31595 0.0
C608 C 0.58481 0.42001 0.30326 0.0
C609 C 0.57546 0.38482 0.30584 0.0
C610 C 0.5645 0.37381 0.32095 0.0
H611 H 0.60556 0.40356 0.3774 0.0
H612 H 0.61206 0.40534 0.35619 0.0
H613 H 0.59285 0.44209 0.36665 0.0
H614 H 0.5691 0.45283 0.34013 0.0
H615 H 0.5894 0.47149 0.31401 0.0
H616 H 0.38903 0.8234 0.54582 0.0
H617 H 0.40917 0.80132 0.57174 0.0
H618 H 0.30461 0.81649 0.59076 0.0
H619 H 0.28506 0.83961 0.5651 0.0
H620 H 0.35333 0.82913 0.61305 0.0
H621 H 0.38274 0.7022 0.58287 0.0
H622 H 0.40823 0.73884 0.57595 0.0
H623 H 0.36134 0.73813 0.57279 0.0
C624 C 0.37083 0.82299 0.55575 0.0
C625 C 0.33574 0.83361 0.55367 0.0
C626 C 0.38217 0.81003 0.57046 0.0
C627 C 0.35814 0.80629 0.58307 0.0
C628 C 0.32363 0.81905 0.58122 0.0
H629 H 0.33609 0.65018 0.65481 0.0
H630 H 0.33894 0.68581 0.63066 0.0
C631 C 0.3125 0.83252 0.56661 0.0
C632 C 0.36741 0.78616 0.59762 0.0
H633 H 0.38992 0.70394 0.61055 0.0
C634 C 0.36163 0.80184 0.61253 0.0
C635 C 0.37784 0.75037 0.5969 0.0
C636 C 0.38263 0.73122 0.58129 0.0
C637 C 0.36468 0.78246 0.62669 0.0
C638 C 0.37501 0.74665 0.62595 0.0
C639 C 0.3821 0.73138 0.61109 0.0
C640 C 0.37579 0.72378 0.64028 0.0
C641 C 0.35493 0.8001 0.64218 0.0
C642 C 0.3964 0.73256 0.65356 0.0
C643 C 0.39449 0.71242 0.66745 0.0
C644 C 0.37261 0.68262 0.66818 0.0
C645 C 0.35346 0.67277 0.65459 0.0
C646 C 0.35497 0.69323 0.64079 0.0
H647 H 0.33913 0.82433 0.64023 0.0
H648 H 0.33961 0.78207 0.64992 0.0
H649 H 0.37932 0.80773 0.64858 0.0
H650 H 0.41351 0.75533 0.65331 0.0
H651 H 0.4099 0.72037 0.67769 0.0
H652 H 0.04343 0.58793 0.93473 0.0
H653 H 1.0075 0.58637 0.91068 0.0
H654 H 0.09624 0.62139 0.88294 0.0
H655 H 0.13239 0.62386 0.90691 0.0
H656 H 0.99211 0.64146 0.88813 0.0
H657 H 0.06395 0.52839 0.86137 0.0
H658 H 0.06768 0.5398 0.88217 0.0
H659 H 0.09094 0.56487 0.86743 0.0
C660 C 0.05545 0.59547 0.92355 0.0
C661 C 0.0912 0.60532 0.92283 0.0
C662 C 0.03478 0.59456 0.90982 0.0
C663 C 0.04937 0.60335 0.89504 0.0
C664 C 0.08471 0.61394 0.89423 0.0
H665 H 0.95649 0.63248 0.80217 0.0
H666 H 0.9799 0.64356 0.82896 0.0
C667 C 0.10544 0.61502 0.90799 0.0
C668 C 0.0277 0.6007 0.88045 0.0
H669 H 0.02004 0.55526 0.8456 0.0
C670 C 0.99818 0.6227 0.87879 0.0
C671 C 0.03547 0.5758 0.86845 0.0
C672 C 0.06604 0.55062 0.86992 0.0
C673 C 0.97651 0.62077 0.86526 0.0
C674 C 0.98464 0.59625 0.85317 0.0
C675 C 0.01393 0.57405 0.85492 0.0
C676 C 0.96364 0.59318 0.8384 0.0
C677 C 0.94461 0.64419 0.86408 0.0
C678 C 0.94602 0.56162 0.835 0.0
C679 C 0.93252 0.55544 0.81979 0.0
C680 C 0.93644 0.58073 0.8078 0.0
C681 C 0.95247 0.61301 0.8114 0.0
C682 C 0.96579 0.61932 0.82666 0.0
H683 H 0.93989 0.65928 0.87521 0.0
H684 H 0.94815 0.66311 0.85416 0.0
H685 H 0.92096 0.62806 0.86142 0.0
H686 H 0.9446 0.54094 0.84384 0.0
H687 H 0.92165 0.52978 0.81707 0.0
H688 H 0.87757 0.65054 0.842 0.0
H689 H 0.87518 0.68559 0.86628 0.0
H690 H 0.84542 0.77685 0.83907 0.0
H691 H 0.84694 0.74212 0.8147 0.0
H692 H 0.89786 0.78962 0.86385 0.0
H693 H 0.77894 0.71791 0.88494 0.0
H694 H 0.81608 0.69085 0.87978 0.0
H695 H 0.79398 0.71569 0.86459 0.0
C696 C 0.8701 0.67787 0.84106 0.0
C697 C 0.86157 0.69307 0.82626 0.0
C698 C 0.86914 0.698 0.85501 0.0
C699 C 0.85986 0.7337 0.85446 0.0
C700 C 0.8527 0.74932 0.83974 0.0
H701 H 0.76948 0.85195 0.93116 0.0
H702 H 0.78626 0.83114 0.9047 0.0
C703 C 0.85349 0.72927 0.82581 0.0
C704 C 0.85521 0.75424 0.8693 0.0
H705 H 0.80302 0.7603 0.90221 0.0
C706 C 0.87721 0.78326 0.87229 0.0
C707 C 0.82794 0.7461 0.88013 0.0
C708 C 0.80263 0.71614 0.87721 0.0
C709 C 0.87274 0.8042 0.88597 0.0
C710 C 0.84566 0.79571 0.89685 0.0
C711 C 0.82372 0.76677 0.89381 0.0
C712 C 0.83911 0.81612 0.91159 0.0
C713 C 0.89643 0.83554 0.88857 0.0
C714 C 0.86367 0.81573 0.92409 0.0
C715 C 0.85419 0.82834 0.93915 0.0
C716 C 0.82027 0.84183 0.9418 0.0
C717 C 0.79635 0.84357 0.92914 0.0
C718 C 0.80578 0.83113 0.91411 0.0
H719 H 0.91083 0.84293 0.87756 0.0
H720 H 0.88098 0.85857 0.89276 0.0
H721 H 0.91614 0.82916 0.89788 0.0
H722 H 0.88923 0.80357 0.92251 0.0
H723 H 0.87266 0.82594 0.94892 0.0
H724 H 0.42442 0.52581 0.67962 0.0
H725 H 0.44658 0.53977 0.65299 0.0
H726 H 0.48051 0.64155 0.66969 0.0
H727 H 0.45762 0.62777 0.69634 0.0
H728 H 0.4523 0.63704 0.63571 0.0
H729 H 0.558 0.5421 0.65186 0.0
H730 H 0.51362 0.5261 0.65373 0.0
H731 H 0.52862 0.56102 0.66643 0.0
C732 C 0.43485 0.55184 0.67736 0.0
C733 C 0.43854 0.57613 0.6898 0.0
C734 C 0.4479 0.55963 0.66223 0.0
C735 C 0.46528 0.59159 0.65945 0.0
C736 C 0.46699 0.61683 0.67162 0.0
H737 H 0.63107 0.62399 0.59031 0.0
H738 H 0.5947 0.62293 0.61414 0.0
C739 C 0.45399 0.60897 0.68678 0.0
C740 C 0.48618 0.59631 0.64476 0.0
H741 H 0.55951 0.56536 0.62589 0.0
C742 C 0.47574 0.62144 0.6335 0.0
C743 C 0.51708 0.57633 0.64214 0.0
C744 C 0.5303 0.55004 0.65421 0.0
C745 C 0.49517 0.62655 0.61943 0.0
C746 C 0.52552 0.60576 0.61661 0.0
C747 C 0.53617 0.58114 0.62805 0.0
C748 C 0.54676 0.60867 0.60186 0.0
C749 C 0.48338 0.65443 0.60783 0.0
C750 C 0.53195 0.60057 0.58703 0.0
C751 C 0.55283 0.60047 0.57334 0.0
C752 C 0.5891 0.60825 0.57416 0.0
C753 C 0.60365 0.61691 0.58908 0.0
C754 C 0.58274 0.61682 0.60277 0.0
H755 H 0.46553 0.67391 0.61353 0.0
H756 H 0.50634 0.66854 0.60272 0.0
H757 H 0.46881 0.64177 0.59792 0.0
H758 H 0.50441 0.59339 0.5861 0.0
H759 H 0.54057 0.59357 0.56212 0.0
H760 H 0.64398 0.19653 0.44898 0.0
H761 H 0.62853 0.2192 0.4225 0.0
H762 H 0.73169 0.19064 0.4053 0.0
H763 H 0.74721 0.16851 0.43174 0.0
H764 H 0.7099 0.26641 0.4045 0.0
H765 H 0.6132 0.17557 0.37612 0.0
H766 H 0.61008 0.18429 0.39717 0.0
H767 H 0.64686 0.15989 0.38959 0.0
C768 C 0.66273 0.1939 0.43933 0.0
C769 C 0.69635 0.17985 0.44215 0.0
C770 C 0.65392 0.2068 0.42426 0.0
C771 C 0.67888 0.20625 0.41195 0.0
C772 C 0.71191 0.19073 0.4146 0.0
H773 H 0.69454 0.27914 0.31628 0.0
H774 H 0.69258 0.24613 0.34114 0.0
C775 C 0.72061 0.17767 0.42962 0.0
C776 C 0.67284 0.22667 0.39724 0.0
H777 H 0.62826 0.22701 0.36196 0.0
C778 C 0.69192 0.25794 0.39522 0.0
C779 C 0.64921 0.21555 0.38529 0.0
C780 C 0.62858 0.18196 0.38699 0.0
C781 C 0.68843 0.27816 0.38138 0.0
C782 C 0.66524 0.26678 0.36929 0.0
C783 C 0.6458 0.23571 0.37136 0.0
C784 C 0.66307 0.28565 0.35397 0.0
C785 C 0.71025 0.31108 0.37954 0.0
C786 C 0.64655 0.31856 0.35294 0.0
C787 C 0.64751 0.33757 0.3387 0.0
C788 C 0.6653 0.3241 0.3253 0.0
C789 C 0.68077 0.29052 0.32634 0.0
C790 C 0.67964 0.2715 0.34053 0.0
H791 H 0.72982 0.31417 0.38927 0.0
H792 H 0.7244 0.31072 0.36797 0.0
H793 H 0.69264 0.3344 0.37958 0.0
H794 H 0.63331 0.32971 0.3632 0.0
H795 H 0.63421 0.36265 0.33826 0.0
H796 H 0.98364 0.4226 0.06588 0.0
H797 H 0.01674 0.41614 0.09055 0.0
H798 H 0.92228 0.38359 0.11488 0.0
H799 H 0.88899 0.3893 0.09029 0.0
H800 H 0.95769 0.43964 0.1294 0.0
H801 H 0.04722 0.32854 0.11676 0.0
H802 H 0.05069 0.36246 0.10195 0.0
H803 H 1.00992 0.33889 0.10432 0.0
C804 C 0.9698 0.41368 0.07639 0.0
C805 C 0.93325 0.40724 0.076 0.0
C806 C 0.98893 0.40977 0.09049 0.0
C807 C 0.97203 0.39916 0.10451 0.0
C808 C 0.93583 0.39183 0.10417 0.0
H809 H 0.05771 0.3837 0.20064 0.0
H810 H 0.03434 0.36603 0.17453 0.0
C811 C 0.91669 0.39559 0.09005 0.0
C812 C 0.99144 0.39935 0.11981 0.0
H813 H 0.06403 0.36641 0.1388 0.0
C814 C 0.98066 0.42332 0.13152 0.0
C815 C 0.02125 0.37781 0.1226 0.0
C816 C 0.03275 0.35023 0.11079 0.0
C817 C 0.99967 0.42739 0.14568 0.0
C818 C 0.03054 0.40726 0.14812 0.0
C819 C 0.04067 0.3822 0.13674 0.0
C820 C 0.05237 0.4129 0.16246 0.0
C821 C 0.98691 0.45365 0.15789 0.0
C822 C 0.07143 0.4443 0.16406 0.0
C823 C 0.08461 0.45437 0.17889 0.0
C824 C 0.0795 0.43286 0.19223 0.0
C825 C 0.06253 0.4003 0.19039 0.0
C826 C 0.04926 0.39021 0.17553 0.0
H827 H 0.95941 0.46222 0.15556 0.0
H828 H 0.9883 0.4423 0.17005 0.0
H829 H 1.00413 0.47722 0.1576 0.0
H830 H 0.07365 0.46233 0.15413 0.0
H831 H 0.09586 0.48036 0.1802 0.0
H832 H 0.68861 0.78889 0.68415 0.0
H833 H 0.69359 0.75427 0.65981 0.0
H834 H 0.64537 0.83831 0.63315 0.0
H835 H 0.63984 0.87321 0.65751 0.0
H836 H 0.64081 0.73198 0.63768 0.0
H837 H 0.74108 0.82021 0.61056 0.0
H838 H 0.72999 0.82195 0.63143 0.0
H839 H 0.70094 0.84102 0.61695 0.0
C840 C 0.67889 0.80007 0.67315 0.0
C841 C 0.66456 0.83421 0.67279 0.0
C842 C 0.68175 0.78018 0.65924 0.0
C843 C 0.67035 0.79394 0.64467 0.0
C844 C 0.655 0.82754 0.64426 0.0
H845 H 0.656 0.68865 0.55296 0.0
H846 H 0.64108 0.71277 0.57926 0.0
C847 C 0.65211 0.84755 0.6582 0.0
C848 C 0.67558 0.77327 0.62991 0.0
H849 H 0.72204 0.77199 0.59516 0.0
C850 C 0.65847 0.74071 0.62834 0.0
C851 C 0.69898 0.7846 0.61788 0.0
C852 C 0.71909 0.81871 0.61925 0.0
C853 C 0.66407 0.7192 0.61496 0.0
C854 C 0.68721 0.73068 0.60287 0.0
C855 C 0.70431 0.76324 0.60447 0.0
C856 C 0.69436 0.70965 0.58837 0.0
C857 C 0.64573 0.68415 0.61396 0.0
C858 C 0.72899 0.69911 0.58493 0.0
C859 C 0.7374 0.68537 0.56999 0.0
C860 C 0.71126 0.68162 0.55834 0.0
C861 C 0.67631 0.69047 0.56199 0.0
C862 C 0.66783 0.70424 0.57697 0.0
H863 H 0.63479 0.67591 0.62563 0.0
H864 H 0.62365 0.68616 0.60536 0.0
H865 H 0.66412 0.66351 0.60964 0.0
H866 H 0.74987 0.70332 0.59352 0.0
H867 H 0.76472 0.67987 0.5672 0.0
H868 H 0.08625 0.89971 0.8026 0.0
H869 H 0.06509 0.87899 0.82862 0.0
H870 H 0.053 0.98666 0.84404 0.0
H871 H 0.07498 1.00711 0.81829 0.0
H872 H 0.07586 0.94294 0.86824 0.0
H873 H 0.95935 0.88725 0.83684 0.0
H874 H 1.00148 0.87 0.83098 0.0
H875 H 0.9909 0.91521 0.827 0.0
C876 C 0.08031 0.91874 0.81182 0.0
C877 C 0.08277 0.95488 0.80871 0.0
C878 C 0.06779 0.90697 0.82656 0.0
C879 C 0.0568 0.93132 0.83815 0.0
C880 C 0.0613 0.96742 0.83529 0.0
H881 H 0.89585 0.94038 0.90783 0.0
H882 H 0.93257 0.93911 0.884 0.0
C883 C 0.07394 0.9791 0.82063 0.0
C884 C 0.03739 0.92 0.85258 0.0
H885 H 0.95854 0.88594 0.86472 0.0
C886 C 0.05045 0.92998 0.86753 0.0
C887 C 1.00397 0.90357 0.85154 0.0
C888 C 0.98783 0.89357 0.83575 0.0
C889 C 0.03053 0.92507 0.88144 0.0
C890 C 0.99692 0.90906 0.88037 0.0
C891 C 0.98438 0.89801 0.86549 0.0
C892 C 0.97319 0.90636 0.89435 0.0
C893 C 0.04487 0.9388 0.89701 0.0
C894 C 0.98322 0.88734 0.90789 0.0
C895 C 0.96228 0.88805 0.92157 0.0
C896 C 0.93066 0.90738 0.9219 0.0
C897 C 0.91978 0.9249 0.908 0.0
C898 C 0.94087 0.92435 0.89436 0.0
H899 H 0.06738 0.95705 0.89521 0.0
H900 H 0.02407 0.95276 0.90383 0.0
H901 H 0.05428 0.91637 0.9043 0.0
H902 H 1.00763 0.87258 0.90801 0.0
H903 H 0.97117 0.87389 0.93201 0.0
H904 H 0.83951 0.16002 0.15514 0.0
H905 H 0.84545 0.19524 0.13107 0.0
H906 H 0.90324 0.27389 0.15735 0.0
H907 H 0.89655 0.23907 0.18162 0.0
H908 H 0.85329 0.30382 0.14126 0.0
H909 H 0.92283 0.21458 0.10028 0.0
H910 H 0.885 0.19272 0.10828 0.0
H911 H 0.92019 0.20608 0.12137 0.0
C912 C 0.85425 0.18436 0.15573 0.0
C913 C 0.86761 0.19676 0.17028 0.0
C914 C 0.85778 0.20447 0.14191 0.0
C915 C 0.8753 0.23703 0.1423 0.0
C916 C 0.88972 0.24884 0.15673 0.0
H917 H 0.8764 0.3326 0.04766 0.0
H918 H 0.89997 0.31396 0.07351 0.0
C919 C 0.88581 0.22896 0.17059 0.0
C920 C 0.8751 0.26022 0.12809 0.0
H921 H 0.88535 0.25871 0.08784 0.0
C922 C 0.86103 0.29425 0.12961 0.0
C923 C 0.88607 0.24829 0.11294 0.0
C924 C 0.90475 0.21357 0.11067 0.0
C925 C 0.8552 0.31562 0.11626 0.0
C926 C 0.86254 0.30212 0.10089 0.0
C927 C 0.87907 0.2691 0.09952 0.0
C928 C 0.8504 0.31983 0.08607 0.0
C929 C 0.84065 0.35212 0.11894 0.0
C930 C 0.81503 0.3304 0.08454 0.0
C931 C 0.80202 0.34208 0.06993 0.0
C932 C 0.82392 0.34275 0.05654 0.0
C933 C 0.85934 0.33287 0.05799 0.0
C934 C 0.87264 0.32201 0.07271 0.0
H935 H 0.8519 0.36382 0.12994 0.0
H936 H 0.84622 0.37003 0.10886 0.0
H937 H 0.81169 0.35048 0.12064 0.0
H938 H 0.79683 0.32775 0.09438 0.0
H939 H 0.77429 0.34843 0.06887 0.0
H940 H 0.63742 0.09152 0.40485 0.0
H941 H 0.60302 0.09733 0.3806 0.0
H942 H 0.512 0.12741 0.40818 0.0
H943 H 0.5467 0.1235 0.43251 0.0
H944 H 0.54975 0.05916 0.3728 0.0
H945 H 0.50415 0.1975 0.37305 0.0
H946 H 0.53931 0.18205 0.38571 0.0
H947 H 0.49405 0.17512 0.39126 0.0
C948 C 0.61046 0.10049 0.40583 0.0
C949 C 0.59505 0.10746 0.42073 0.0
C950 C 0.59065 0.10348 0.39189 0.0
C951 C 0.55503 0.11343 0.39249 0.0
C952 C 0.53968 0.12081 0.40731 0.0
H953 H 0.41917 0.04086 0.31724 0.0
H954 H 0.44021 0.05658 0.34372 0.0
C955 C 0.55952 0.11805 0.42125 0.0
C956 C 0.53318 0.1122 0.37785 0.0
H957 H 0.47428 0.15837 0.35521 0.0
C958 C 0.53348 0.08101 0.36893 0.0
C959 C 0.51215 0.1408 0.37268 0.0
C960 C 0.51263 0.17589 0.38107 0.0
C961 C 0.51338 0.07742 0.35507 0.0
C962 C 0.49089 0.10527 0.35034 0.0
C963 C 0.49084 0.13675 0.35909 0.0
C964 C 0.46909 0.10239 0.33576 0.0
C965 C 0.51737 0.04408 0.34542 0.0
C966 C 0.47547 0.12484 0.32282 0.0
C967 C 0.46162 0.11687 0.30782 0.0
C968 C 0.44109 0.08656 0.30564 0.0
C969 C 0.43275 0.0656 0.31881 0.0
C970 C 0.44579 0.07402 0.33385 0.0
H971 H 0.54244 0.03026 0.34817 0.0
H972 H 0.49542 0.0259 0.34829 0.0
H973 H 0.51672 0.04969 0.33246 0.0
H974 H 0.49333 0.1469 0.32402 0.0
H975 H 0.46895 0.13297 0.29772 0.0
H976 H 0.41162 0.23577 0.31413 0.0
H977 H 0.41854 0.27031 0.33854 0.0
H978 H 0.35439 0.19535 0.36388 0.0
H979 H 0.34786 0.16054 0.33972 0.0
H980 H 0.36981 0.30327 0.35525 0.0
H981 H 0.43399 0.20683 0.39463 0.0
H982 H 0.4312 0.20048 0.37337 0.0
H983 H 0.39503 0.18811 0.3861 0.0
C984 C 0.39939 0.22641 0.32497 0.0
C985 C 0.37953 0.19515 0.32499 0.0
C986 C 0.40341 0.24617 0.33891 0.0
C987 C 0.38756 0.23513 0.35313 0.0
C988 C 0.36787 0.20384 0.35319 0.0
H989 H 0.29393 0.34397 0.42896 0.0
H990 H 0.31518 0.32525 0.40291 0.0
C991 C 0.3641 0.18392 0.33932 0.0
C992 C 0.38905 0.25747 0.36764 0.0
H993 H 0.40019 0.25251 0.40779 0.0
C994 C 0.37709 0.2924 0.36671 0.0
C995 C 0.39965 0.24387 0.38254 0.0
C996 C 0.41609 0.2079 0.38418 0.0
C997 C 0.37283 0.31307 0.38045 0.0
C998 C 0.3797 0.29804 0.39555 0.0
C999 C 0.39428 0.26407 0.39631 0.0
C1000 C 0.36874 0.31521 0.41069 0.0
C1001 C 0.36054 0.35059 0.37857 0.0
C1002 C 0.39146 0.31559 0.42391 0.0
C1003 C 0.37892 0.32547 0.43892 0.0
C1004 C 0.34382 0.33619 0.44083 0.0
C1005 C 0.3215 0.33728 0.42758 0.0
C1006 C 0.33374 0.32661 0.41266 0.0
H1007 H 0.37104 0.36222 0.36741 0.0
H1008 H 0.33137 0.35105 0.37771 0.0
H1009 H 0.36877 0.36731 0.38873 0.0
H1010 H 0.41849 0.30679 0.42276 0.0
H1011 H 0.39634 0.32391 0.44911 0.0
H1012 H 0.92671 0.05577 0.18165 0.0
H1013 H 0.94918 0.07596 0.15602 0.0
H1014 H 0.97357 0.17702 0.17668 0.0
H1015 H 0.95144 0.15635 0.20254 0.0
H1016 H 0.93923 0.12946 0.13472 0.0
H1017 H 0.07004 0.14102 0.16423 0.0
H1018 H 0.03249 0.12195 0.1741 0.0
H1019 H 0.03591 0.16888 0.172 0.0
C1020 C 0.9353 0.08281 0.18051 0.0
C1021 C 0.93672 0.1048 0.19389 0.0
C1022 C 0.94855 0.09425 0.16591 0.0
C1023 C 0.96377 0.12777 0.1645 0.0
C1024 C 0.96269 0.15078 0.17759 0.0
H1025 H 0.05479 0.17006 0.06949 0.0
H1026 H 0.02095 0.17938 0.09396 0.0
C1027 C 0.94979 0.13913 0.19228 0.0
C1028 C 0.98424 0.13637 0.14994 0.0
H1029 H 0.06851 0.14808 0.13663 0.0
C1030 C 0.96744 0.13398 0.1351 0.0
C1031 C 0.02113 0.142 0.15049 0.0
C1032 C 0.04113 0.14337 0.16602 0.0
C1033 C 0.98667 0.13528 0.12082 0.0
C1034 C 0.0237 0.14008 0.12139 0.0
C1035 C 0.04019 0.14433 0.13622 0.0
C1036 C 0.04629 0.13726 0.10697 0.0
C1037 C 0.96733 0.12934 0.10535 0.0
C1038 C 0.07323 0.11188 0.10641 0.0
C1039 C 0.09312 0.10707 0.09257 0.0
C1040 C 0.08628 0.12741 0.07899 0.0
C1041 C 0.06022 0.15365 0.07974 0.0
C1042 C 0.04072 0.15886 0.09367 0.0
H1043 H 0.94069 0.11802 0.10728 0.0
H1044 H 0.96401 0.15487 0.09914 0.0
H1045 H 0.98236 0.1114 0.09742 0.0
H1046 H 0.0782 0.09501 0.11655 0.0
H1047 H 0.1129 0.08653 0.09233 0.0
H1048 H 0.15614 0.69059 0.9436 0.0
H1049 H 0.14323 0.7134 0.91689 0.0
H1050 H 0.25266 0.70132 0.90408 0.0
H1051 H 0.26552 0.67937 0.93085 0.0
H1052 H 0.22693 0.76979 0.90123 0.0
H1053 H 0.13804 0.67491 0.87093 0.0
H1054 H 0.12614 0.6861 0.89102 0.0
H1055 H 0.16634 0.66251 0.88728 0.0
C1056 C 0.17702 0.69161 0.93482 0.0
C1057 C 0.21159 0.68243 0.939 0.0
C1058 C 0.16968 0.70456 0.91959 0.0
C1059 C 0.19695 0.7088 0.90845 0.0
C1060 C 0.23119 0.69796 0.91244 0.0
H1061 H 0.18945 0.78945 0.81218 0.0
H1062 H 0.1959 0.75363 0.83611 0.0
C1063 C 0.23848 0.68507 0.92764 0.0
C1064 C 0.19101 0.72924 0.89367 0.0
H1065 H 0.14462 0.73105 0.85886 0.0
C1066 C 0.20905 0.76124 0.89193 0.0
C1067 C 0.16772 0.71801 0.88158 0.0
C1068 C 0.1486 0.68337 0.88266 0.0
C1069 C 0.20425 0.78247 0.87847 0.0
C1070 C 0.18038 0.77165 0.86652 0.0
C1071 C 0.16262 0.73944 0.86815 0.0
C1072 C 0.17456 0.79297 0.85201 0.0
C1073 C 0.2252 0.81605 0.87702 0.0
C1074 C 0.15983 0.82678 0.853 0.0
C1075 C 0.15609 0.84744 0.83933 0.0
C1076 C 0.16708 0.8346 0.8244 0.0
C1077 C 0.18088 0.80028 0.82346 0.0
C1078 C 0.18457 0.7797 0.83712 0.0
H1079 H 0.24785 0.81663 0.88539 0.0
H1080 H 0.23528 0.81943 0.86472 0.0
H1081 H 0.20789 0.83877 0.87981 0.0
H1082 H 0.15126 0.8372 0.86436 0.0
H1083 H 0.14422 0.8732 0.8405 0.0
H1084 H 0.48215 0.93628 0.56735 0.0
H1085 H 0.51599 0.93194 0.59183 0.0
H1086 H 0.43098 0.87495 0.61399 0.0
H1087 H 0.39672 0.87886 0.58944 0.0
H1088 H 0.45439 0.93116 0.63182 0.0
H1089 H 0.56823 0.85052 0.61269 0.0
H1090 H 0.56032 0.88701 0.59964 0.0
H1091 H 0.52776 0.85283 0.60141 0.0
C1092 C 0.47063 0.92241 0.57733 0.0
C1093 C 0.43637 0.90838 0.57636 0.0
C1094 C 0.49024 0.91973 0.59131 0.0
C1095 C 0.47631 0.90262 0.60466 0.0
C1096 C 0.44232 0.88812 0.60378 0.0
H1097 H 0.57233 0.89105 0.69946 0.0
H1098 H 0.54854 0.87196 0.67361 0.0
C1099 C 0.42258 0.89077 0.58974 0.0
C1100 C 0.49605 0.9031 0.6199 0.0
H1101 H 0.57652 0.88537 0.63644 0.0
C1102 C 0.48083 0.92058 0.6329 0.0
C1103 C 0.53057 0.88921 0.62133 0.0
C1104 C 0.54756 0.86852 0.60807 0.0
C1105 C 0.49979 0.92606 0.647 0.0
C1106 C 0.5349 0.91391 0.6481 0.0
C1107 C 0.54971 0.89501 0.63543 0.0
C1108 C 0.55656 0.92228 0.66221 0.0
C1109 C 0.48257 0.94577 0.66053 0.0
C1110 C 0.57008 0.95637 0.66405 0.0
C1111 C 0.58363 0.96716 0.6787 0.0
C1112 C 0.58432 0.94388 0.69161 0.0
C1113 C 0.57273 0.90913 0.6895 0.0
C1114 C 0.55916 0.89826 0.67481 0.0
H1115 H 0.45378 0.94911 0.65868 0.0
H1116 H 0.48693 0.93174 0.67195 0.0
H1117 H 0.4947 0.97223 0.66161 0.0
H1118 H 0.56782 0.97534 0.65449 0.0
H1119 H 0.59079 0.99449 0.6803 0.0
H1120 H 0.24138 0.99773 0.04437 0.0
H1121 H 0.24861 0.93434 0.04103 0.0
H1122 H 0.22712 0.94488 0.99082 0.0
H1123 H 0.22256 1.00881 0.99401 0.0
H1124 H 0.21077 0.88384 0.0341 0.0
H1125 H 0.31048 0.88597 0.98646 0.0
H1126 H 0.29683 0.92553 0.99652 0.0
H1127 H 0.27167 0.90852 0.97998 0.0
C1128 C 0.23835 0.98656 0.03258 0.0
C1129 C 0.23156 1.00845 0.01943 0.0
C1130 C 0.24249 0.95012 0.03067 0.0
C1131 C 0.23931 0.93428 0.01558 0.0
C1132 C 0.23125 0.95612 0.00251 0.0
H1133 H 0.18644 0.71756 0.99804 0.0
H1134 H 0.18994 0.77607 0.0095 0.0
C1135 C 0.22816 0.99278 0.00435 0.0
C1136 C 0.24349 0.89503 0.01374 0.0
H1137 H 0.28005 0.83132 0.99013 0.0
C1138 C 0.22636 0.87251 0.02457 0.0
C1139 C 0.2646 0.87951 0.00167 0.0
C1140 C 0.28724 0.90119 0.99064 0.0
C1141 C 0.22874 0.83555 0.02338 0.0
C1142 C 0.24731 0.8201 0.01048 0.0
C1143 C 0.2654 0.8426 -3e-05 0.0
C1144 C 0.24652 0.78123 0.00691 0.0
C1145 C 0.2118 0.8137 0.03625 0.0
C1146 C 0.27711 0.76328 0.00187 0.0
C1147 C 0.27489 0.72961 0.99496 0.0
C1148 C 0.24214 0.71282 0.99322 0.0
C1149 C 0.21225 0.72914 -0.00022 0.0
C1150 C 0.21426 0.76304 0.00629 0.0
H1151 H 0.21268 0.82762 0.04788 0.0
H1152 H 0.18364 0.80945 0.03328 0.0
H1153 H 0.22493 0.78779 0.03764 0.0
H1154 H 0.30246 0.77633 0.00217 0.0
H1155 H 0.29817 0.71848 0.98945 0.0
H1156 H 0.04467 0.44499 0.25595 0.0
H1157 H 0.98516 0.45714 0.26581 0.0
H1158 H 0.98106 0.55091 0.23713 0.0
H1159 H 0.04057 0.53862 0.22723 0.0
H1160 H 0.94352 0.51649 0.27938 0.0
H1161 H 0.90756 0.48138 0.21717 0.0
H1162 H 0.95082 0.47304 0.22523 0.0
H1163 H 0.93841 0.51685 0.21959 0.0
C1164 C 0.03199 0.4694 0.25255 0.0
C1165 C 0.04764 0.4912 0.24105 0.0
C1166 C 0.99766 0.47605 0.258 0.0
C1167 C 0.97822 0.50449 0.25193 0.0
C1168 C 0.99532 0.52855 0.24185 0.0
H1169 H 0.74702 0.52859 0.24844 0.0
H1170 H 0.8106 0.53698 0.24458 0.0
C1171 C 0.0297 0.52192 0.23644 0.0
C1172 C 0.93919 0.50593 0.25432 0.0
H1173 H 0.86106 0.49284 0.23482 0.0
C1174 C 0.92547 0.51157 0.26963 0.0
C1175 C 0.91551 0.49946 0.2416 0.0
C1176 C 0.92862 0.49207 0.22497 0.0
C1177 C 0.88885 0.51098 0.27255 0.0
C1178 C 0.86516 0.5035 0.2599 0.0
C1179 C 0.87896 0.49857 0.24454 0.0
C1180 C 0.82628 0.49906 0.26243 0.0
C1181 C 0.87595 0.51884 0.28915 0.0
C1182 C 0.81357 0.47445 0.27349 0.0
C1183 C 0.77731 0.4697 0.27575 0.0
C1184 C 0.7525 0.48908 0.26686 0.0
C1185 C 0.7652 0.51322 0.25553 0.0
C1186 C 0.80164 0.5181 0.25333 0.0
H1187 H 0.89513 0.53533 0.2958 0.0
H1188 H 0.85015 0.53261 0.28896 0.0
H1189 H 0.87282 0.49379 0.29576 0.0
H1190 H 0.83174 0.45849 0.28031 0.0
H1191 H 0.76876 0.45059 0.28448 0.0
H1192 H 0.34918 0.29149 0.49868 0.0
H1193 H 0.3376 0.23293 0.5089 0.0
H1194 H 0.22734 0.24507 0.49761 0.0
H1195 H 0.23981 0.30324 0.48617 0.0
H1196 H 0.30517 0.19711 0.52872 0.0
H1197 H 0.24525 0.16292 0.47054 0.0
H1198 H 0.26418 0.20546 0.47435 0.0
H1199 H 0.22052 0.19515 0.48138 0.0
C1200 C 0.32215 0.28235 0.49901 0.0
C1201 C 0.29543 0.30213 0.49168 0.0
C1202 C 0.31553 0.24844 0.50471 0.0
C1203 C 0.2818 0.23344 0.50344 0.0
C1204 C 0.25398 0.25512 0.4981 0.0
H1205 H 0.26581 0.01637 0.54089 0.0
H1206 H 0.26076 0.07997 0.5376 0.0
C1207 C 0.26084 0.28899 0.49203 0.0
C1208 C 0.27731 0.19462 0.50644 0.0
H1209 H 0.2495 0.11755 0.48935 0.0
C1210 C 0.29289 0.17982 0.52008 0.0
C1211 C 0.262 0.17145 0.49509 0.0
C1212 C 0.24737 0.18443 0.47945 0.0
C1213 C 0.29455 0.14314 0.52248 0.0
C1214 C 0.27826 0.12005 0.51139 0.0
C1215 C 0.26188 0.13487 0.49795 0.0
C1216 C 0.27895 0.08061 0.51316 0.0
C1217 C 0.31563 0.12979 0.53646 0.0
C1218 C 0.28851 0.05878 0.50026 0.0
C1219 C 0.28989 0.02199 0.50194 0.0
C1220 C 0.28253 1.00615 0.51668 0.0
C1221 C 0.27235 0.02781 0.52946 0.0
C1222 C 0.26983 0.06439 0.52763 0.0
H1223 H 0.33579 0.14923 0.54029 0.0
H1224 H 0.29773 0.1254 0.54671 0.0
H1225 H 0.32928 0.10474 0.53361 0.0
H1226 H 0.29547 0.07022 0.48889 0.0
H1227 H 0.29771 1.00602 0.49186 0.0
H1228 H 0.76713 0.5217 0.74216 0.0
H1229 H 0.70309 0.51695 0.73841 0.0
H1230 H 0.68639 0.55043 0.78683 0.0
H1231 H 0.74996 0.55546 0.79068 0.0
H1232 H 0.64493 0.4884 0.77644 0.0
H1233 H 0.6341 0.60362 0.73597 0.0
H1234 H 0.66689 0.57124 0.73097 0.0
H1235 H 0.6717 0.59688 0.74878 0.0
C1236 C 0.74986 0.52817 0.752 0.0
C1237 C 0.76394 0.53925 0.76669 0.0
C1238 C 0.71321 0.52543 0.74984 0.0
C1239 C 0.68983 0.53344 0.76233 0.0
C1240 C 0.7038 0.54407 0.77702 0.0
H1241 H 0.46915 0.5853 0.75292 0.0
H1242 H 0.52849 0.57938 0.76392 0.0
C1243 C 0.7403 0.54713 0.77915 0.0
C1244 C 0.65081 0.53156 0.76008 0.0
H1245 H 0.58225 0.57133 0.7408 0.0
C1246 C 0.63119 0.50647 0.76862 0.0
C1247 C 0.63279 0.55537 0.75004 0.0
C1248 C 0.65225 0.58353 0.74096 0.0
C1249 C 0.59416 0.50435 0.76721 0.0
C1250 C 0.57622 0.528 0.75705 0.0
C1251 C 0.59589 0.55323 0.74864 0.0
C1252 C 0.53719 0.52707 0.75459 0.0
C1253 C 0.57442 0.4772 0.77674 0.0
C1254 C 0.52119 0.4987 0.74663 0.0
C1255 C 0.48683 0.50192 0.74055 0.0
C1256 C 0.46799 0.53356 0.74226 0.0
C1257 C 0.48254 0.56024 0.75179 0.0
C1258 C 0.51683 0.55712 0.75783 0.0
H1259 H 0.59079 0.46622 0.78651 0.0
H1260 H 0.55006 0.48869 0.78192 0.0
H1261 H 0.56656 0.45526 0.76878 0.0
H1262 H 0.53634 0.47539 0.74378 0.0
H1263 H 0.47683 0.48137 0.73283 0.0
H1264 H 0.72074 0.30005 0.01845 0.0
H1265 H 0.71496 0.2405 0.00755 0.0
H1266 H 0.81285 0.25357 0.98233 0.0
H1267 H 0.81842 0.3132 0.9931 0.0
H1268 H 0.7275 0.20255 0.97329 0.0
H1269 H 0.82387 0.17916 0.02213 0.0
H1270 H 0.79501 0.21694 0.02197 0.0
H1271 H 0.83212 0.21528 0.00879 0.0
C1272 C 0.7397 0.29117 0.00967 0.0
C1273 C 0.76972 0.31162 0.00641 0.0
C1274 C 0.7367 0.25682 0.00365 0.0
C1275 C 0.76376 0.24231 0.99432 0.0
C1276 C 0.79164 0.26415 0.98952 0.0
H1277 H 0.7997 0.03021 0.95778 0.0
H1278 H 0.79357 0.09369 0.9614 0.0
C1279 C 0.7945 0.29855 0.99546 0.0
C1280 C 0.76608 0.20342 0.99201 0.0
H1281 H 0.8079 0.13034 0.00651 0.0
C1282 C 0.74511 0.18674 0.98051 0.0
C1283 C 0.78868 0.1827 0.0016 0.0
C1284 C 0.81116 0.19918 0.01441 0.0
C1285 C 0.74661 0.14996 0.97819 0.0
C1286 C 0.76978 0.1293 0.98758 0.0
C1287 C 0.79025 0.14604 -0.00074 0.0
C1288 C 0.77341 0.09037 0.98542 0.0
C1289 C 0.72298 0.13337 0.96587 0.0
C1290 C 0.76508 0.06709 0.99787 0.0
C1291 C 0.76861 0.03053 0.99585 0.0
C1292 C 0.78103 0.01637 0.9814 0.0
C1293 C 0.79004 0.03992 0.96909 0.0
C1294 C 0.78625 0.07637 0.97108 0.0
H1295 H 0.70098 0.15112 0.96244 0.0
H1296 H 0.73862 0.12753 0.95503 0.0
H1297 H 0.7118 0.10825 0.97031 0.0
H1298 H 0.75541 0.0772 0.00911 0.0
H1299 H 0.76142 0.01338 0.00561 0.0
H1300 H 0.96916 0.48598 0.75964 0.0
H1301 H 0.02752 0.47662 0.74775 0.0
H1302 H 0.03506 0.58783 0.73808 0.0
H1303 H 0.97614 0.59637 0.74871 0.0
H1304 H 0.07264 0.55814 0.7179 0.0
H1305 H 0.10828 0.49643 0.77544 0.0
H1306 H 0.07713 0.47101 0.7643 0.0
H1307 H 0.06502 0.51388 0.77172 0.0
C1308 C 0.98238 0.50791 0.75399 0.0
C1309 C 0.9679 0.54186 0.75494 0.0
C1310 C 0.01637 0.50282 0.74767 0.0
C1311 C 0.03686 0.5318 0.74274 0.0
C1312 C 0.02046 0.56493 0.74197 0.0
H1313 H 0.26464 0.55165 0.75446 0.0
H1314 H 0.20032 0.54932 0.75753 0.0
C1315 C 0.98635 0.56979 0.74787 0.0
C1316 C 0.07587 0.52904 0.73981 0.0
H1317 H 0.15369 0.50259 0.75668 0.0
C1318 C 0.09028 0.54589 0.72641 0.0
C1319 C 0.09943 0.51389 0.75104 0.0
C1320 C 0.08678 0.49812 0.7665 0.0
C1321 C 0.12695 0.54874 0.72408 0.0
C1322 C 0.15043 0.53242 0.73498 0.0
C1323 C 0.13605 0.51496 0.74822 0.0
C1324 C 0.18984 0.53381 0.73313 0.0
C1325 C 0.13983 0.57093 0.71038 0.0
C1326 C 0.20596 0.5254 0.71855 0.0
C1327 C 0.24254 0.52798 0.71667 0.0
C1328 C 0.26433 0.53755 0.72951 0.0
C1329 C 0.24857 0.5444 0.74433 0.0
C1330 C 0.21173 0.54293 0.74607 0.0
H1331 H 0.11995 0.59097 0.70689 0.0
H1332 H 0.16471 0.58477 0.71336 0.0
H1333 H 0.14442 0.55383 0.69987 0.0
H1334 H 0.19031 0.51668 0.70853 0.0
H1335 H 0.25387 0.52178 0.70518 0.0
H1336 H 0.76228 0.99816 0.45716 0.0
H1337 H 0.76767 0.93464 0.46021 0.0
H1338 H 0.73335 0.94332 0.50902 0.0
H1339 H 0.73049 1.00758 0.50626 0.0
H1340 H 0.7807 0.89704 0.50817 0.0
H1341 H 0.69331 0.86411 0.45784 0.0
H1342 H 0.73041 0.88902 0.4511 0.0
H1343 H 0.69908 0.90866 0.46462 0.0
C1344 C 0.75585 0.98655 0.46856 0.0
C1345 C 0.7456 1.00795 0.48143 0.0
C1346 C 0.75857 0.95 0.47025 0.0
C1347 C 0.74973 0.93352 0.48468 0.0
C1348 C 0.74007 0.95503 0.49767 0.0
H1349 H 0.69228 0.71711 0.49874 0.0
H1350 H 0.69831 0.7766 0.48844 0.0
C1351 C 0.73837 0.99184 0.49611 0.0
C1352 C 0.75129 0.89415 0.48631 0.0
H1353 H 0.72667 0.81674 0.46859 0.0
C1354 C 0.76867 0.87956 0.49953 0.0
C1355 C 0.7353 0.87088 0.47521 0.0
C1356 C 0.71316 0.88399 0.46152 0.0
C1357 C 0.77024 0.84293 0.50205 0.0
C1358 C 0.75568 0.81961 0.49056 0.0
C1359 C 0.73858 0.83421 0.47727 0.0
C1360 C 0.75435 0.78044 0.49303 0.0
C1361 C 0.78594 0.82999 0.51749 0.0
C1362 C 0.78425 0.76099 0.4977 0.0
C1363 C 0.7806 0.72677 0.50382 0.0
C1364 C 0.74726 0.71089 0.50478 0.0
C1365 C 0.71847 0.7283 0.49784 0.0
C1366 C 0.72186 0.76276 0.49216 0.0
H1367 H 0.78663 0.85103 0.52667 0.0
H1368 H 0.77072 0.80751 0.52235 0.0
H1369 H 0.81347 0.82136 0.51538 0.0
H1370 H 0.81 0.77317 0.49782 0.0
H1371 H 0.80313 0.71445 0.50943 0.0
H1372 H 0.24868 0.52177 0.24984 0.0
H1373 H 0.31248 0.52767 0.2536 0.0
H1374 H 0.33034 0.4492 0.21742 0.0
H1375 H 0.26695 0.4438 0.21332 0.0
H1376 H 0.36188 0.48245 0.26296 0.0
H1377 H 0.39548 0.52439 0.20187 0.0
H1378 H 0.35063 0.52272 0.20894 0.0
H1379 H 0.37222 0.48338 0.20198 0.0
C1380 C 0.26616 0.50577 0.24266 0.0
C1381 C 0.25241 0.48245 0.23119 0.0
C1382 C 0.30275 0.50924 0.2448 0.0
C1383 C 0.32657 0.48958 0.23552 0.0
C1384 C 0.31283 0.46561 0.22438 0.0
H1385 H 0.54386 0.43117 0.24046 0.0
H1386 H 0.48404 0.44446 0.23135 0.0
C1387 C 0.27636 0.46227 0.22217 0.0
C1388 C 0.36563 0.49301 0.23787 0.0
H1389 H 0.4438 0.50481 0.21808 0.0
C1390 C 0.37967 0.48787 0.25317 0.0
C1391 C 0.38918 0.50018 0.22514 0.0
C1392 C 0.37609 0.50835 0.2086 0.0
C1393 C 0.41629 0.48826 0.25596 0.0
C1394 C 0.43982 0.49436 0.24315 0.0
C1395 C 0.42587 0.5002 0.22791 0.0
C1396 C 0.47888 0.49196 0.24533 0.0
C1397 C 0.42964 0.48072 0.27253 0.0
C1398 C 0.49702 0.51564 0.25526 0.0
C1399 C 0.53167 0.50843 0.26019 0.0
C1400 C 0.54869 0.47739 0.2553 0.0
C1401 C 0.53181 0.45577 0.24407 0.0
C1402 C 0.49734 0.46309 0.23905 0.0
H1403 H 0.40852 0.47069 0.28047 0.0
H1404 H 0.45131 0.46109 0.27216 0.0
H1405 H 0.44027 0.50528 0.27781 0.0
H1406 H 0.4835 0.53831 0.26015 0.0
H1407 H 0.54357 0.52503 0.2692 0.0
H1408 H 0.75773 0.49726 0.54266 0.0
H1409 H 0.76409 0.43372 0.53967 0.0
H1410 H 0.73057 0.44168 0.49072 0.0
H1411 H 0.72672 0.50578 0.49343 0.0
H1412 H 0.72329 0.38401 0.53528 0.0
H1413 H 0.81154 0.38063 0.48325 0.0
H1414 H 0.80118 0.42112 0.49336 0.0
H1415 H 0.772 0.40381 0.4783 0.0
C1416 C 0.75198 0.48549 0.5312 0.0
C1417 C 0.74187 0.50665 0.51825 0.0
C1418 C 0.7556 0.44899 0.52949 0.0
C1419 C 0.74858 0.43239 0.51486 0.0
C1420 C 0.73758 0.45354 0.50199 0.0
H1421 H 0.6834 0.21919 0.50164 0.0
H1422 H 0.69259 0.27756 0.51256 0.0
C1423 C 0.73496 0.49028 0.50358 0.0
C1424 C 0.75146 0.39303 0.51337 0.0
H1425 H 0.78048 0.32703 0.48896 0.0
C1426 C 0.73629 0.3717 0.52523 0.0
C1427 C 0.76926 0.37628 0.50058 0.0
C1428 C 0.78976 0.3967 0.48828 0.0
C1429 C 0.7372 0.33467 0.52436 0.0
C1430 C 0.75216 0.31803 0.51083 0.0
C1431 C 0.76856 0.33931 0.49929 0.0
C1432 C 0.74862 0.27925 0.50763 0.0
C1433 C 0.72251 0.314 0.53816 0.0
C1434 C 0.77702 0.25948 0.50149 0.0
C1435 C 0.77148 0.22586 0.49494 0.0
C1436 C 0.73756 0.21113 0.49462 0.0
C1437 C 0.71007 0.2293 0.50223 0.0
C1438 C 0.71536 0.26305 0.50844 0.0
H1439 H 0.72674 0.32826 0.54955 0.0
H1440 H 0.69364 0.31091 0.53661 0.0
H1441 H 0.73476 0.28758 0.53913 0.0
H1442 H 0.80302 0.27108 0.50066 0.0
H1443 H 0.79283 0.21328 0.48856 0.0
H1444 H 0.25763 0.9732 0.74424 0.0
H1445 H 0.32189 0.97652 0.74135 0.0
H1446 H 0.33031 0.01447 0.78963 0.0
H1447 H 0.26667 1.00845 0.79286 0.0
H1448 H 0.3672 0.02407 0.74122 0.0
H1449 H 0.40257 0.9423 0.79308 0.0
H1450 H 0.35773 0.94676 0.78642 0.0
H1451 H 0.37727 0.97972 0.79914 0.0
C1452 C 0.27334 0.98191 0.75426 0.0
C1453 C 0.25714 0.99 0.76884 0.0
C1454 C 0.31014 0.98391 0.75262 0.0
C1455 C 0.3316 0.99482 0.76542 0.0
C1456 C 0.31502 1.00442 0.77976 0.0
H1457 H 0.55041 0.04424 0.73733 0.0
H1458 H 0.49229 0.05354 0.74936 0.0
C1459 C 0.27844 1.00132 0.78155 0.0
C1460 C 0.371 0.99686 0.7636 0.0
H1461 H 0.44928 0.97447 0.7812 0.0
C1462 C 0.38507 0.013 0.74996 0.0
C1463 C 0.39478 0.98222 0.77485 0.0
C1464 C 0.3823 0.96146 0.78908 0.0
C1465 C 0.42164 0.01432 0.74707 0.0
C1466 C 0.44549 1.00093 0.75863 0.0
C1467 C 0.43141 0.98539 0.77242 0.0
C1468 C 0.48458 0.99883 0.75576 0.0
C1469 C 0.43391 0.02836 0.7312 0.0
C1470 C 0.50194 0.96631 0.75732 0.0
C1471 C 0.53613 0.9617 0.75142 0.0
C1472 C 0.55364 0.98922 0.74358 0.0
C1473 C 0.53811 0.02277 0.74371 0.0
C1474 C 0.50417 0.02771 0.75006 0.0
H1475 H 0.41238 0.0283 0.72224 0.0
H1476 H 0.44281 0.05596 0.73267 0.0
H1477 H 0.45607 0.01251 0.7264 0.0
H1478 H 0.48802 0.94353 0.76181 0.0
H1479 H 0.54707 0.93536 0.7512 0.0
H1480 H 0.72207 0.80134 0.98226 0.0
H1481 H 0.71588 0.74214 0.99333 0.0
H1482 H 0.81643 0.75311 0.01661 0.0
H1483 H 0.82248 0.81231 0.00553 0.0
H1484 H 0.81362 0.69825 0.99409 0.0
H1485 H 0.70041 0.68909 0.03571 0.0
H1486 H 0.69161 0.71178 0.01737 0.0
H1487 H 0.72225 0.73021 0.03136 0.0
C1488 C 0.74163 0.79211 0.99067 0.0
C1489 C 0.7724 0.8119 0.9933 0.0
C1490 C 0.73834 0.75791 0.99682 0.0
C1491 C 0.76581 0.74284 0.00575 0.0
C1492 C 0.79483 0.76402 0.00978 0.0
H1493 H 0.79454 0.53007 0.04236 0.0
H1494 H 0.78947 0.59369 0.03868 0.0
C1495 C 0.79798 0.79824 0.00369 0.0
C1496 C 0.76711 0.70394 0.00854 0.0
H1497 H 0.72476 0.63499 0.02648 0.0
C1498 C 0.79424 0.68452 0.00125 0.0
C1499 C 0.74179 0.6858 0.01779 0.0
C1500 C 0.71247 0.70521 0.02613 0.0
C1501 C 0.79655 0.6477 0.00281 0.0
C1502 C 0.77109 0.62952 0.01191 0.0
C1503 C 0.74415 0.64887 0.01939 0.0
C1504 C 0.77287 0.59053 0.01413 0.0
C1505 C 0.82645 0.62839 0.99482 0.0
C1506 C 0.76512 0.56735 0.00155 0.0
C1507 C 0.76781 0.53073 0.00362 0.0
C1508 C 0.77867 0.51645 0.0183 0.0
C1509 C 0.78635 0.5399 0.03085 0.0
C1510 C 0.78328 0.5764 0.02881 0.0
H1511 H 0.84672 0.64664 0.99006 0.0
H1512 H 0.83922 0.61004 0.00332 0.0
H1513 H 0.81592 0.61252 0.9848 0.0
H1514 H 0.75697 0.57761 0.99011 0.0
H1515 H 0.76158 0.51363 0.9937 0.0
H1516 H 0.9755 0.09229 0.25655 0.0
H1517 H 0.03532 0.07948 0.26577 0.0
H1518 H 0.03657 0.98523 0.23726 0.0
H1519 H 0.97646 0.99799 0.22812 0.0
H1520 H 0.07643 0.01846 0.27901 0.0
H1521 H 0.11025 0.05506 0.21673 0.0
H1522 H 0.06762 0.06429 0.2253 0.0
H1523 H 0.07865 0.0203 0.21935 0.0
C1524 C 0.98768 0.06768 0.25305 0.0
C1525 C 0.97102 0.04584 0.24184 0.0
C1526 C 0.02215 0.06064 0.25814 0.0
C1527 C 0.04081 0.0318 0.25195 0.0
C1528 C 0.02286 1.00784 0.24209 0.0
H1529 H 0.27091 1.00425 0.24644 0.0
H1530 H 0.2071 0.99825 0.24285 0.0
C1531 C 0.98819 0.01476 0.23711 0.0
C1532 C 0.07989 0.02989 0.25401 0.0
H1533 H 0.1573 0.04355 0.23403 0.0
C1534 C 0.09414 0.02367 0.26916 0.0
C1535 C 0.1031 0.0368 0.24117 0.0
C1536 C 0.08934 0.04474 0.22471 0.0
C1537 C 0.13087 0.02404 0.27181 0.0
C1538 C 0.1541 0.03197 0.25905 0.0
C1539 C 0.13975 0.03754 0.24384 0.0
C1540 C 0.19316 0.0356 0.26127 0.0
C1541 C 0.14435 0.01541 0.28823 0.0
C1542 C 0.20698 0.05924 0.27253 0.0
C1543 C 0.24347 0.06265 0.27464 0.0
C1544 C 0.26733 0.04288 0.26539 0.0
C1545 C 0.25349 0.01996 0.25379 0.0
C1546 C 0.2169 0.01641 0.25175 0.0
H1547 H 0.12522 0.999 0.29493 0.0
H1548 H 0.16991 1.00125 0.28769 0.0
H1549 H 0.14819 0.04019 0.295 0.0
H1550 H 0.18951 0.0753 0.27968 0.0
H1551 H 0.25297 0.08081 0.28361 0.0
H1552 H 0.33593 0.79936 0.491 0.0
H1553 H 0.32758 0.73955 0.48099 0.0
H1554 H 0.22594 0.73522 0.50373 0.0
H1555 H 0.2344 0.79522 0.51375 0.0
H1556 H 0.32093 0.68725 0.5051 0.0
H1557 H 0.21086 0.67879 0.46164 0.0
H1558 H 0.23501 0.71904 0.46513 0.0
H1559 H 0.20283 0.70443 0.47929 0.0
C1560 C 0.31078 0.78659 0.49294 0.0
C1561 C 0.28555 0.80236 0.5029 0.0
C1562 C 0.30629 0.75203 0.48746 0.0
C1563 C 0.27627 0.73255 0.4917 0.0
C1564 C 0.24919 0.74966 0.50014 0.0
H1565 H 0.27069 0.50234 0.50447 0.0
H1566 H 0.26564 0.56625 0.50844 0.0
C1567 C 0.25379 0.7843 0.50566 0.0
C1568 C 0.27618 0.69343 0.48962 0.0
H1569 H 0.23425 0.62486 0.47115 0.0
C1570 C 0.30194 0.67366 0.49767 0.0
C1571 C 0.25138 0.67555 0.47998 0.0
C1572 C 0.22353 0.6954 0.4709 0.0
C1573 C 0.30364 0.63676 0.49634 0.0
C1574 C 0.27885 0.61882 0.48674 0.0
C1575 C 0.25309 0.63853 0.47863 0.0
C1576 C 0.28061 0.57984 0.48437 0.0
C1577 C 0.33244 0.6172 0.50498 0.0
C1578 C 0.29047 0.56607 0.46954 0.0
C1579 C 0.29373 0.52968 0.46728 0.0
C1580 C 0.28679 0.50587 0.47977 0.0
C1581 C 0.27639 0.51972 0.4946 0.0
C1582 C 0.27348 0.5563 0.49689 0.0
H1583 H 0.35285 0.63523 0.50981 0.0
H1584 H 0.32081 0.60233 0.51505 0.0
H1585 H 0.34534 0.59796 0.49691 0.0
H1586 H 0.29617 0.58358 0.4597 0.0
H1587 H 0.30154 0.52022 0.45564 0.0
H1588 H 0.75144 0.07745 0.21406 0.0
H1589 H 0.68837 0.06996 0.21854 0.0
H1590 H 0.70976 0.98564 0.25142 0.0
H1591 H 0.77319 0.99371 0.24735 0.0
H1592 H 0.64429 0.01672 0.21314 0.0
H1593 H 0.64491 0.04428 0.27794 0.0
H1594 H 0.68284 0.05214 0.26553 0.0
H1595 H 0.67311 1.0084 0.27245 0.0
C1596 C 0.74288 0.05742 0.22235 0.0
C1597 C 0.7677 0.0364 0.23044 0.0
C1598 C 0.70661 0.05307 0.22486 0.0
C1599 C 0.69394 0.02755 0.23551 0.0
C1600 C 0.71862 1.00616 0.24345 0.0
H1601 H 0.48182 0.98386 0.2704 0.0
H1602 H 0.54116 0.97335 0.26003 0.0
C1603 C 0.75502 1.0107 0.24105 0.0
C1604 C 0.655 0.02351 0.23814 0.0
H1605 H 0.59105 0.02511 0.26687 0.0
C1606 C 0.63273 0.01852 0.22491 0.0
C1607 C 0.63953 0.0259 0.25347 0.0
C1608 C 0.66125 0.03332 0.26814 0.0
C1609 C 0.59581 0.01584 0.22659 0.0
C1610 C 0.58046 0.01834 0.24189 0.0
C1611 C 0.60271 0.02279 0.25513 0.0
C1612 C 0.54143 0.01879 0.24457 0.0
C1613 C 0.57351 1.01015 0.21197 0.0
C1614 C 0.5207 0.04649 0.23861 0.0
C1615 C 0.48641 0.05215 0.24438 0.0
C1616 C 0.47216 0.03027 0.25622 0.0
C1617 C 0.49152 1.00049 0.2609 0.0
C1618 C 0.52582 0.99487 0.25519 0.0
H1619 H 0.5892 0.99911 0.20198 0.0
H1620 H 0.55117 0.99216 0.21453 0.0
H1621 H 0.56249 0.03576 0.20806 0.0
H1622 H 0.53212 0.06571 0.23062 0.0
H1623 H 0.47274 0.07601 0.24098 0.0
H1624 H 0.29499 0.21606 0.01224 0.0
H1625 H 0.30369 0.27441 0.00049 0.0
H1626 H 0.19431 0.27645 0.98658 0.0
H1627 H 0.18671 0.21732 0.99706 0.0
H1628 H 0.22595 0.31626 0.96771 0.0
H1629 H 0.2744 0.35316 0.02763 0.0
H1630 H 0.30351 0.32339 0.01761 0.0
H1631 H 0.25976 0.30932 0.02305 0.0
C1632 C 0.27357 0.22796 0.00564 0.0
C1633 C 0.24027 0.21183 0.0054 0.0
C1634 C 0.27815 0.262 -0.00058 0.0
C1635 C 0.24917 0.28103 0.9934 0.0
C1636 C 0.21713 0.263 0.99136 0.0
H1637 H 0.22065 0.5081 0.00449 0.0
H1638 H 0.22343 0.44392 0.00752 0.0
C1639 C 0.21288 0.22872 0.99715 0.0
C1640 C 0.25063 0.32016 0.9907 0.0
H1641 H 0.27129 0.39846 0.00868 0.0
C1642 C 0.23595 0.33415 0.9767 0.0
C1643 C 0.2627 0.34404 0.00254 0.0
C1644 C 0.27561 0.33179 0.01861 0.0
C1645 C 0.23262 0.37072 0.97427 0.0
C1646 C 0.24611 0.39455 0.9858 0.0
C1647 C 0.26116 0.38057 -0.00028 0.0
C1648 C 0.24422 0.43389 0.9839 0.0
C1649 C 0.21301 0.38311 0.95969 0.0
C1650 C 0.25539 0.45027 0.96977 0.0
C1651 C 0.25272 0.4868 0.96788 0.0
C1652 C 0.24011 0.5083 0.98028 0.0
C1653 C 0.23032 0.49228 0.99469 0.0
C1654 C 0.23202 0.45551 0.99642 0.0
H1655 H 0.19424 0.36281 0.95536 0.0
H1656 H 0.19802 0.40762 0.96208 0.0
H1657 H 0.23212 0.38813 0.94996 0.0
H1658 H 0.26644 0.43486 0.96016 0.0
H1659 H 0.26122 0.49835 0.95674 0.0
H1660 H 0.05534 0.94917 0.74484 0.0
H1661 H 0.99647 0.953 0.73304 0.0
H1662 H 0.98144 0.05423 0.75516 0.0
H1663 H 0.0402 0.05021 0.76697 0.0
H1664 H 0.94071 0.95547 0.75517 0.0
H1665 H 0.92956 0.06579 0.71226 0.0
H1666 H 0.97119 0.04532 0.7171 0.0
H1667 H 0.95164 0.07641 0.73057 0.0
C1668 C 0.04046 0.9733 0.74626 0.0
C1669 C 0.0527 0.99969 0.75658 0.0
C1670 C 1.00645 0.9752 0.73976 0.0
C1671 C 0.98424 1.0038 0.74328 0.0
C1672 C 0.99804 0.03207 0.75207 0.0
H1673 H 0.75537 1.00277 0.75576 0.0
H1674 H 0.81944 1.00766 0.75921 0.0
C1675 C 0.03195 0.03001 0.75866 0.0
C1676 C 0.94549 1.00125 0.74025 0.0
H1677 H 0.87572 0.04149 0.72194 0.0
C1678 C 0.92659 0.97417 0.7478 0.0
C1679 C 0.9269 0.0257 0.73073 0.0
C1680 C 0.9458 0.05482 0.72207 0.0
C1681 C 0.88978 0.97116 0.74627 0.0
C1682 C 0.8711 0.99592 0.73698 0.0
C1683 C 0.88998 0.02268 0.72919 0.0
C1684 C 0.83207 0.99369 0.73491 0.0
C1685 C 0.87108 0.94129 0.75451 0.0
C1686 C 0.81776 0.98437 0.72011 0.0
C1687 C 0.78123 0.98121 0.71814 0.0
C1688 C 0.75792 0.98771 0.73089 0.0
C1689 C 0.77237 0.99742 0.7457 0.0
C1690 C 0.80904 1.00023 0.74769 0.0
H1691 H 0.88975 0.92101 0.75892 0.0
H1692 H 0.85613 0.95177 0.76483 0.0
H1693 H 0.85195 0.92859 0.74632 0.0
H1694 H 0.83494 0.97916 0.71008 0.0
H1695 H 0.77126 0.97393 0.70652 0.0
H1696 H 0.15331 0.13802 0.96452 0.0
H1697 H 0.14006 0.1238 0.93676 0.0
H1698 H 0.2501 0.10289 0.92812 0.0
H1699 H 0.26372 0.11793 0.95571 0.0
H1700 H 0.21938 0.13667 0.90314 0.0
H1701 H 0.13794 0.02251 0.92164 0.0
H1702 H 0.12318 0.06389 0.9295 0.0
H1703 H 0.16528 0.04656 0.93542 0.0
C1704 C 0.17477 0.13087 0.95666 0.0
C1705 C 0.20952 0.12868 0.96239 0.0
C1706 C 0.1671 0.12249 0.94082 0.0
C1707 C 0.19395 0.11134 0.93048 0.0
C1708 C 0.22891 0.11112 0.93593 0.0
H1709 H 0.179 0.98037 0.84704 0.0
H1710 H 0.18677 1.00577 0.87353 0.0
C1711 C 0.23665 0.11977 0.95172 0.0
C1712 C 0.18565 0.09838 0.91423 0.0
H1713 H 0.14043 0.03462 0.89412 0.0
C1714 C 0.20202 0.11444 0.90114 0.0
C1715 C 0.16342 0.06899 0.91168 0.0
C1716 C 0.14668 0.04922 0.9253 0.0
C1717 C 0.19689 0.10188 0.88558 0.0
C1718 C 0.17411 0.07293 0.88301 0.0
C1719 C 0.15762 0.05699 0.8961 0.0
C1720 C 0.16833 0.05765 0.86695 0.0
C1721 C 0.21689 0.11897 0.87213 0.0
C1722 C 0.15468 0.07815 0.8545 0.0
C1723 C 0.15049 0.06376 0.83929 0.0
C1724 C 0.15947 0.02847 0.83629 0.0
C1725 C 0.17202 1.00769 0.84891 0.0
C1726 C 0.17644 0.02216 0.86408 0.0
H1727 H 0.23984 0.13428 0.87654 0.0
H1728 H 0.22647 0.09902 0.86349 0.0
H1729 H 0.19915 0.13737 0.86575 0.0
H1730 H 0.14735 0.10531 0.85654 0.0
H1731 H 0.14037 0.08037 0.82988 0.0
H1732 H 0.78674 0.4128 0.09701 0.0
H1733 H 0.76146 0.41901 0.12367 0.0
H1734 H 0.66598 0.46103 0.10334 0.0
H1735 H 0.69076 0.45444 0.07667 0.0
H1736 H 0.73906 0.48028 0.13833 0.0
H1737 H 0.6288 0.38516 0.13321 0.0
H1738 H 0.66489 0.38632 0.11922 0.0
H1739 H 0.62962 0.41773 0.11775 0.0
C1740 C 0.76028 0.42318 0.0982 0.0
C1741 C 0.74075 0.43316 0.08472 0.0
C1742 C 0.74588 0.4267 0.11344 0.0
C1743 C 0.71168 0.44011 0.11548 0.0
C1744 C 0.69212 0.44996 0.10204 0.0
H1745 H 0.63291 0.5242 0.20578 0.0
H1746 H 0.64856 0.51724 0.17765 0.0
C1747 C 0.70643 0.44635 0.0868 0.0
C1748 C 0.69706 0.4452 0.13169 0.0
H1749 H 0.62914 0.42176 0.15615 0.0
C1750 C 0.71504 0.46747 0.14224 0.0
C1751 C 0.66585 0.42825 0.13678 0.0
C1752 C 0.64629 0.40276 0.12622 0.0
C1753 C 0.70263 0.47339 0.15775 0.0
C1754 C 0.67099 0.45708 0.16274 0.0
C1755 C 0.65309 0.43464 0.15221 0.0
C1756 C 0.65749 0.46111 0.1792 0.0
C1757 C 0.72403 0.49628 0.16881 0.0
C1758 C 0.65563 0.43164 0.18918 0.0
C1759 C 0.64646 0.43547 0.20517 0.0
C1760 C 0.63887 0.46888 0.21152 0.0
C1761 C 0.6388 0.49814 0.20129 0.0
C1762 C 0.64799 0.49425 0.18524 0.0
H1763 H 0.7513 0.50025 0.16436 0.0
H1764 H 0.7113 0.52246 0.16982 0.0
H1765 H 0.72538 0.48456 0.18089 0.0
H1766 H 0.66261 0.40579 0.18473 0.0
H1767 H 0.64653 0.41233 0.21268 0.0
H1768 H 0.36071 0.05005 0.34562 0.0
H1769 H 0.35462 0.024 0.37212 0.0
H1770 H 0.31434 0.92861 0.35113 0.0
H1771 H 0.32059 0.95423 0.32462 0.0
H1772 H 0.29299 0.99911 0.3866 0.0
H1773 H 0.39261 0.8929 0.38075 0.0
H1774 H 0.39051 0.92975 0.36724 0.0
H1775 H 0.36019 0.89375 0.36518 0.0
C1776 C 0.35065 0.02348 0.34663 0.0
C1777 C 0.34111 1.00423 0.33299 0.0
C1778 C 0.34721 1.00864 0.36179 0.0
C1779 C 0.33443 0.97421 0.36359 0.0
C1780 C 0.32487 0.95496 0.35001 0.0
H1781 H 0.2522 0.8877 0.45248 0.0
H1782 H 0.2598 0.90492 0.42461 0.0
C1783 C 0.32827 0.96977 0.33486 0.0
C1784 C 0.32993 0.95892 0.37971 0.0
H1785 H 0.35648 0.89155 0.40381 0.0
C1786 C 0.30686 0.9756 0.39037 0.0
C1787 C 0.34829 0.92841 0.38464 0.0
C1788 C 0.37455 0.91026 0.37393 0.0
C1789 C 0.30145 0.96248 0.4058 0.0
C1790 C 0.3192 0.93151 0.41061 0.0
C1791 C 0.34253 0.91499 0.40001 0.0
C1792 C 0.31524 0.91711 0.42693 0.0
C1793 C 0.27742 0.98236 0.41694 0.0
C1794 C 0.34424 0.91665 0.43727 0.0
C1795 C 0.34005 0.90664 0.45316 0.0
C1796 C 0.30676 0.89677 0.45902 0.0
C1797 C 0.27815 0.89534 0.44839 0.0
C1798 C 0.28238 0.9054 0.43248 0.0
H1799 H 0.2721 1.0095 0.41267 0.0
H1800 H 0.25186 0.96834 0.41782 0.0
H1801 H 0.28899 0.9839 0.42906 0.0
H1802 H 0.36988 0.92535 0.4332 0.0
H1803 H 0.36269 0.90787 0.46098 0.0
H1804 H 0.73635 0.58913 0.59698 0.0
H1805 H 0.76273 0.58375 0.62339 0.0
H1806 H 0.86477 0.60852 0.60378 0.0
H1807 H 0.83875 0.61296 0.57724 0.0
H1808 H 0.8686 0.5532 0.62338 0.0
H1809 H 0.7948 0.66011 0.65319 0.0
H1810 H 0.76596 0.62849 0.64419 0.0
H1811 H 0.79473 0.65447 0.63187 0.0
C1812 C 0.76438 0.59361 0.59829 0.0
C1813 C 0.78546 0.60144 0.585 0.0
C1814 C 0.77939 0.59079 0.61343 0.0
C1815 C 0.81566 0.59631 0.61563 0.0
C1816 C 0.83672 0.60429 0.60238 0.0
H1817 H 0.89983 0.61499 0.71201 0.0
H1818 H 0.88697 0.62609 0.68394 0.0
C1819 C 0.82178 0.60685 0.58722 0.0
C1820 C 0.8318 0.59236 0.63163 0.0
H1821 H 0.82456 0.61931 0.67024 0.0
C1822 C 0.85922 0.56792 0.63361 0.0
C1823 C 0.82006 0.61203 0.64492 0.0
C1824 C 0.79254 0.64051 0.64342 0.0
C1825 C 0.87435 0.56171 0.6486 0.0
C1826 C 0.86109 0.57981 0.66206 0.0
C1827 C 0.83452 0.60514 0.65997 0.0
C1828 C 0.8733 0.57213 0.6785 0.0
C1829 C 0.90452 0.536 0.64982 0.0
C1830 C 0.8706 0.53798 0.68474 0.0
C1831 C 0.87834 0.53148 0.70073 0.0
C1832 C 0.88832 0.55915 0.71089 0.0
C1833 C 0.89215 0.5931 0.70451 0.0
C1834 C 0.88472 0.59952 0.68847 0.0
H1835 H 0.919 0.53385 0.63837 0.0
H1836 H 0.9234 0.54381 0.65928 0.0
H1837 H 0.89398 0.50956 0.65272 0.0
H1838 H 0.86105 0.51655 0.67742 0.0
H1839 H 0.87484 0.50507 0.70529 0.0
H1840 H 0.74608 0.90052 0.04426 0.0
H1841 H 0.75643 0.91715 0.07202 0.0
H1842 H 0.86828 0.92037 0.06327 0.0
H1843 H 0.8583 0.90361 0.03552 0.0
H1844 H 0.84749 0.88912 0.09347 0.0
H1845 H 0.78727 0.02016 0.08236 0.0
H1846 H 0.76052 0.98299 0.07698 0.0
H1847 H 0.80086 0.99122 0.06645 0.0
C1848 C 0.77294 0.90417 0.04828 0.0
C1849 C 0.80135 0.90112 0.03761 0.0
C1850 C 0.77877 0.91386 0.06413 0.0
C1851 C 0.81306 0.9206 0.06959 0.0
C1852 C 0.8416 0.9155 0.05925 0.0
H1853 H 0.87147 0.04688 0.15192 0.0
H1854 H 0.86693 0.02083 0.12531 0.0
C1855 C 0.83581 0.90593 0.04338 0.0
C1856 C 0.81904 0.93502 0.08576 0.0
H1857 H 0.80377 1.00741 0.10885 0.0
C1858 C 0.83795 0.91495 0.09687 0.0
C1859 C 0.8071 0.969 0.09003 0.0
C1860 C 0.78806 0.99233 0.07833 0.0
C1861 C 0.84459 0.92774 0.11229 0.0
C1862 C 0.83176 0.96133 0.11669 0.0
C1863 C 0.81344 0.98161 0.10547 0.0
C1864 C 0.83645 0.97582 0.13296 0.0
C1865 C 0.86565 0.90543 0.12368 0.0
C1866 C 0.82081 0.95917 0.14606 0.0
C1867 C 0.82325 0.97401 0.16124 0.0
C1868 C 0.84128 1.00591 0.16362 0.0
C1869 C 0.85739 0.0223 0.1505 0.0
C1870 C 0.85481 1.00746 0.13529 0.0
H1871 H 0.88108 0.88489 0.11734 0.0
H1872 H 0.88401 0.92188 0.13079 0.0
H1873 H 0.8474 0.89205 0.13202 0.0
H1874 H 0.80598 0.93508 0.14448 0.0
H1875 H 0.81053 0.96069 0.17107 0.0
H1876 H 0.39934 0.61341 0.7851 0.0
H1877 H 0.38701 0.62497 0.81319 0.0
H1878 H 0.36126 0.51553 0.82007 0.0
H1879 H 0.37454 0.5036 0.79218 0.0
H1880 H 0.32494 0.61846 0.82718 0.0
H1881 H 0.41991 0.5334 0.85885 0.0
H1882 H 0.4239 0.543 0.8379 0.0
H1883 H 0.3946 0.50888 0.84466 0.0
C1884 C 0.39181 0.59165 0.79268 0.0
C1885 C 0.38788 0.55759 0.78639 0.0
C1886 C 0.38468 0.59832 0.80873 0.0
C1887 C 0.37347 0.5711 0.81882 0.0
C1888 C 0.37066 0.53684 0.81267 0.0
H1889 H 0.23786 0.58926 0.90073 0.0
H1890 H 0.26389 0.58353 0.87427 0.0
C1891 C 0.37811 0.53008 0.79666 0.0
C1892 C 0.36159 0.57904 0.83529 0.0
H1893 H 0.36976 0.55293 0.87398 0.0
C1894 C 0.33508 0.60442 0.83744 0.0
C1895 C 0.37507 0.56111 0.84873 0.0
C1896 C 0.4052 0.53537 0.84745 0.0
C1897 C 0.32089 0.61152 0.85253 0.0
C1898 C 0.33284 0.59201 0.86581 0.0
C1899 C 0.36021 0.56753 0.86377 0.0
C1900 C 0.31693 0.59614 0.88186 0.0
C1901 C 0.29341 0.64004 0.85408 0.0
C1902 C 0.33818 0.60424 0.89503 0.0
C1903 C 0.32344 0.607 0.91024 0.0
C1904 C 0.28714 0.60167 0.91256 0.0
C1905 C 0.26588 0.59369 0.89934 0.0
C1906 C 0.28069 0.59067 0.88417 0.0
H1907 H 0.29555 0.65953 0.84428 0.0
H1908 H 0.26681 0.62804 0.85341 0.0
H1909 H 0.29578 0.65412 0.86561 0.0
H1910 H 0.36621 0.60843 0.89355 0.0
H1911 H 0.34055 0.61322 0.92016 0.0
H1912 H 0.68392 0.98116 0.65249 0.0
H1913 H 0.69304 1.00738 0.62628 0.0
H1914 H 0.65637 0.10739 0.64405 0.0
H1915 H 0.64808 0.08161 0.67044 0.0
H1916 H 0.64739 0.03783 0.60604 0.0
H1917 H 0.74919 0.13478 0.62399 0.0
H1918 H 0.73508 0.09955 0.63687 0.0
H1919 H 0.70869 0.1386 0.63488 0.0
C1920 C 0.67788 1.00877 0.65085 0.0
C1921 C 0.66558 0.02938 0.6636 0.0
C1922 C 0.68308 0.02372 0.63585 0.0
C1923 C 0.67604 0.05952 0.63327 0.0
C1924 C 0.66288 0.07995 0.64586 0.0
H1925 H 0.66085 0.14215 0.53629 0.0
H1926 H 0.64806 0.12819 0.56411 0.0
C1927 C 0.65791 0.06509 0.66092 0.0
C1928 C 0.68204 0.0751 0.6173 0.0
H1929 H 0.72831 0.13848 0.59746 0.0
C1930 C 0.66503 0.05988 0.60416 0.0
C1931 C 0.70538 0.10364 0.61486 0.0
C1932 C 0.72592 0.11992 0.62836 0.0
C1933 C 0.67085 0.0722 0.58865 0.0
C1934 C 0.6936 0.10122 0.58623 0.0
C1935 C 0.71052 0.11656 0.59937 0.0
C1936 C 0.70183 0.11448 0.57004 0.0
C1937 C 0.65353 0.05313 0.57496 0.0
C1938 C 0.73663 0.11355 0.56441 0.0
C1939 C 0.74412 0.12207 0.54858 0.0
C1940 C 0.71687 0.13151 0.53808 0.0
C1941 C 0.68236 0.13454 0.54402 0.0
C1942 C 0.67496 0.12633 0.55989 0.0
H1943 H 0.64437 0.02648 0.57845 0.0
H1944 H 0.63022 0.06833 0.57094 0.0
H1945 H 0.6719 0.05042 0.56474 0.0
H1946 H 0.75783 0.10477 0.57207 0.0
H1947 H 0.77102 0.11958 0.54442 0.0
H1948 H 0.22022 0.48524 0.4166 0.0
H1949 H 0.19267 0.48854 0.39039 0.0
H1950 H 0.24724 0.39421 0.37603 0.0
H1951 H 0.27514 0.39062 0.4023 0.0
H1952 H 0.23193 0.49228 0.36067 0.0
H1953 H 0.14122 0.37761 0.36359 0.0
H1954 H 0.15903 0.39839 0.38119 0.0
H1955 H 0.1862 0.36985 0.3694 0.0
C1956 C 0.22623 0.46499 0.40794 0.0
C1957 C 0.24993 0.43767 0.41155 0.0
C1958 C 0.21042 0.46694 0.39297 0.0
C1959 C 0.21765 0.44146 0.38136 0.0
C1960 C 0.24092 0.41385 0.38493 0.0
H1961 H 0.16405 0.41284 0.28266 0.0
H1962 H 0.18049 0.40606 0.31054 0.0
C1963 C 0.25695 0.41195 0.39991 0.0
C1964 C 0.20239 0.4451 0.36523 0.0
H1965 H 0.14563 0.40698 0.33884 0.0
C1966 C 0.21291 0.47378 0.3559 0.0
C1967 C 0.17774 0.42079 0.35908 0.0
C1968 C 0.16507 0.39 0.36883 0.0
C1969 C 0.20004 0.47844 0.34039 0.0
C1970 C 0.17513 0.45427 0.33422 0.0
C1971 C 0.16448 0.42563 0.34362 0.0
C1972 C 0.16141 0.45729 0.31774 0.0
C1973 C 0.21425 0.50851 0.33058 0.0
C1974 C 0.14392 0.48783 0.31261 0.0
C1975 C 0.13472 0.49197 0.29659 0.0
C1976 C 0.14245 0.4654 0.28547 0.0
C1977 C 0.15788 0.43393 0.29087 0.0
C1978 C 0.1673 0.42997 0.30683 0.0
H1979 H 0.23941 0.51879 0.33548 0.0
H1980 H 0.21874 0.5003 0.31806 0.0
H1981 H 0.19487 0.53037 0.33061 0.0
H1982 H 0.13824 0.50888 0.32092 0.0
H1983 H 0.12255 0.51637 0.29285 0.0
H1984 H 0.70238 0.56305 0.32693 0.0
H1985 H 0.70648 0.58701 0.35386 0.0
H1986 H 0.65257 0.49592 0.37226 0.0
H1987 H 0.64843 0.47152 0.3453 0.0
H1988 H 0.65245 0.60217 0.37699 0.0
H1989 H 0.7473 0.49996 0.39719 0.0
H1990 H 0.73797 0.50773 0.37642 0.0
H1991 H 0.70714 0.48387 0.38849 0.0
C1992 C 0.69126 0.5481 0.33668 0.0
C1993 C 0.67544 0.51517 0.33398 0.0
C1994 C 0.69354 0.56192 0.35206 0.0
C1995 C 0.68026 0.54305 0.36506 0.0
C1996 C 0.66346 0.51066 0.3624 0.0
H1997 H 0.65655 0.6102 0.46333 0.0
H1998 H 0.64618 0.59411 0.43554 0.0
C1999 C 0.66103 0.49682 0.34698 0.0
C2000 C 0.6851 0.55691 0.38143 0.0
H2001 H 0.72798 0.54099 0.41641 0.0
C2002 C 0.66888 0.5888 0.38564 0.0
C2003 C 0.70697 0.53965 0.39259 0.0
C2004 C 0.72614 0.50605 0.38848 0.0
C2005 C 0.67363 0.60366 0.40082 0.0
C2006 C 0.69505 0.58608 0.41205 0.0
C2007 C 0.71152 0.55438 0.40777 0.0
C2008 C 0.70062 0.59979 0.4284 0.0
C2009 C 0.65621 0.63831 0.40467 0.0
C2010 C 0.73463 0.60869 0.43358 0.0
C2011 C 0.74067 0.61799 0.44946 0.0
C2012 C 0.71283 0.61811 0.46052 0.0
C2013 C 0.67857 0.61043 0.45514 0.0
C2014 C 0.67255 0.60132 0.43924 0.0
H2015 H 0.64735 0.65222 0.39376 0.0
H2016 H 0.63279 0.63347 0.41226 0.0
H2017 H 0.67447 0.6557 0.41136 0.0
H2018 H 0.75667 0.60759 0.4254 0.0
H2019 H 0.76739 0.62366 0.45319 0.0
H2020 H 0.27814 0.8863 0.59355 0.0
H2021 H 0.25267 0.88752 0.62033 0.0
H2022 H 0.18505 0.97345 0.60653 0.0
H2023 H 0.20961 0.97183 0.57972 0.0
H2024 H 0.25452 0.94037 0.64164 0.0
H2025 H 0.1152 0.9096 0.628 0.0
H2026 H 0.15012 0.90334 0.61369 0.0
H2027 H 0.1313 0.9463 0.61676 0.0
C2028 C 0.25755 0.90518 0.59617 0.0
C2029 C 0.24583 0.9289 0.58447 0.0
C2030 C 0.24302 0.90585 0.61148 0.0
C2031 C 0.21646 0.93016 0.61538 0.0
C2032 C 0.20476 0.9538 0.60371 0.0
H2033 H 0.12861 1.00864 0.70357 0.0
H2034 H 0.14393 0.99763 0.67565 0.0
C2035 C 0.21909 0.95303 0.5884 0.0
C2036 C 0.20264 0.93241 0.6319 0.0
H2037 H 0.12683 0.93324 0.65394 0.0
C2038 C 0.22664 0.93841 0.64433 0.0
C2039 C 0.16621 0.92993 0.63543 0.0
C2040 C 0.13926 0.92158 0.62278 0.0
C2041 C 0.21517 0.94285 0.66008 0.0
C2042 C 0.17877 0.94107 0.66352 0.0
C2043 C 0.15472 0.93476 0.65119 0.0
C2044 C 0.16554 0.94588 0.67996 0.0
C2045 C 0.24196 0.95015 0.67293 0.0
C2046 C 0.1716 0.91992 0.69146 0.0
C2047 C 0.16276 0.92601 0.70737 0.0
C2048 C 0.14783 0.95828 0.71208 0.0
C2049 C 0.14016 0.98356 0.70036 0.0
C2050 C 0.14889 0.97734 0.68441 0.0
H2051 H 0.26842 0.95607 0.66796 0.0
H2052 H 0.23336 0.97266 0.68042 0.0
H2053 H 0.24427 0.92677 0.68076 0.0
H2054 H 0.18419 0.89537 0.6882 0.0
H2055 H 0.16892 0.90589 0.71605 0.0
H2056 H 0.75262 0.38286 0.95482 0.0
H2057 H 0.76146 0.39532 0.92653 0.0
H2058 H 0.86272 0.4412 0.93709 0.0
H2059 H 0.85454 0.42808 0.96523 0.0
H2060 H 0.76765 0.46034 0.91439 0.0
H2061 H 0.88649 0.38366 0.89835 0.0
H2062 H 0.86202 0.37574 0.91642 0.0
H2063 H 0.89351 0.41108 0.91543 0.0
C2064 C 0.77711 0.39489 0.95107 0.0
C2065 C 0.80282 0.40458 0.96229 0.0
C2066 C 0.7821 0.40204 0.9349 0.0
C2067 C 0.8129 0.4189 0.92965 0.0
C2068 C 0.83911 0.42744 0.94077 0.0
H2069 H 0.87337 0.53456 0.84541 0.0
H2070 H 0.86886 0.50822 0.87194 0.0
C2071 C 0.83426 0.42012 0.95691 0.0
C2072 C 0.81604 0.43085 0.9129 0.0
H2073 H 0.87016 0.42999 0.88039 0.0
C2074 C 0.78984 0.45331 0.90689 0.0
C2075 C 0.84512 0.42185 0.90316 0.0
C2076 C 0.87319 0.39648 0.90861 0.0
C2077 C 0.79236 0.46768 0.89157 0.0
C2078 C 0.82173 0.45922 0.88199 0.0
C2079 C 0.84779 0.43653 0.88786 0.0
C2080 C 0.8256 0.4738 0.86578 0.0
C2081 C 0.76403 0.49249 0.88585 0.0
C2082 C 0.80305 0.46276 0.85356 0.0
C2083 C 0.80562 0.4776 0.83841 0.0
C2084 C 0.83078 0.50383 0.83522 0.0
C2085 C 0.85371 0.51446 0.84747 0.0
C2086 C 0.85123 0.49942 0.86262 0.0
H2087 H 0.74631 0.50102 0.89565 0.0
H2088 H 0.77598 0.51617 0.88031 0.0
H2089 H 0.74785 0.47912 0.87666 0.0
H2090 H 0.78328 0.44282 0.85578 0.0
H2091 H 0.78765 0.4687 0.82924 0.0
H2092 H 0.39578 1.00654 0.20428 0.0
H2093 H 0.38268 0.01492 0.17602 0.0
H2094 H 0.35548 0.12324 0.18515 0.0
H2095 H 0.36911 0.11534 0.21327 0.0
H2096 H 0.31803 0.03168 0.16466 0.0
H2097 H 0.41413 0.13223 0.14514 0.0
H2098 H 0.41914 0.10797 0.16346 0.0
H2099 H 0.39021 0.14544 0.16256 0.0
C2100 C 0.38776 0.03236 0.20022 0.0
C2101 C 0.38335 0.06024 0.21105 0.0
C2102 C 0.38022 0.03708 0.18406 0.0
C2103 C 0.36836 0.06978 0.17843 0.0
C2104 C 0.36528 0.09798 0.18913 0.0
H2105 H 0.23104 0.10803 0.09829 0.0
H2106 H 0.25798 0.10064 0.12452 0.0
C2107 C 0.37289 0.09333 0.20525 0.0
C2108 C 0.35577 0.07351 0.1618 0.0
H2109 H 0.36382 0.12359 0.12827 0.0
C2110 C 0.32832 0.05154 0.15665 0.0
C2111 C 0.36935 0.09923 0.15131 0.0
C2112 C 0.40008 0.12232 0.15583 0.0
C2113 C 0.31341 0.05521 0.14146 0.0
C2114 C 0.32581 0.08208 0.13127 0.0
C2115 C 0.35399 0.10336 0.13621 0.0
C2116 C 0.30989 0.08829 0.1154 0.0
C2117 C 0.28467 0.03012 0.13645 0.0
C2118 C 0.33042 0.08508 0.10159 0.0
C2119 C 0.31517 0.08953 0.08659 0.0
C2120 C 0.27908 0.09733 0.08512 0.0
C2121 C 0.2588 0.10154 0.099 0.0
C2122 C 0.27412 0.09721 0.114 0.0
H2123 H 0.28503 1.00563 0.14366 0.0
H2124 H 0.25868 0.04293 0.13819 0.0
H2125 H 0.28726 0.02293 0.12369 0.0
H2126 H 0.35812 0.07844 0.10242 0.0
H2127 H 0.33156 0.08626 0.07613 0.0
H2128 H 0.25423 0.38027 0.54158 0.0
H2129 H 0.26216 0.39607 0.56966 0.0
H2130 H 0.37186 0.41792 0.56097 0.0
H2131 H 0.36442 0.4021 0.53298 0.0
H2132 H 0.32781 0.37125 0.59393 0.0
H2133 H 0.31092 0.51227 0.57738 0.0
H2134 H 0.29031 0.4774 0.56611 0.0
H2135 H 0.33695 0.48398 0.56477 0.0
C2136 C 0.28021 0.38775 0.5457 0.0
C2137 C 0.30862 0.39023 0.535 0.0
C2138 C 0.28466 0.39675 0.56173 0.0
C2139 C 0.31752 0.40832 0.56727 0.0
C2140 C 0.3463 0.40907 0.55685 0.0
H2141 H 0.37853 0.52492 0.65175 0.0
H2142 H 0.37588 0.49756 0.62541 0.0
C2143 C 0.34194 0.40002 0.54086 0.0
C2144 C 0.32119 0.4225 0.58355 0.0
H2145 H 0.32243 0.49973 0.60424 0.0
C2146 C 0.32659 0.39929 0.59626 0.0
C2147 C 0.31991 0.45908 0.58641 0.0
C2148 C 0.31411 0.48486 0.57302 0.0
C2149 C 0.33096 0.41188 0.61188 0.0
C2150 C 0.32907 0.44855 0.6148 0.0
C2151 C 0.32387 0.47166 0.602 0.0
C2152 C 0.33183 0.46364 0.63106 0.0
C2153 C 0.33832 0.38585 0.625 0.0
C2154 C 0.30783 0.45385 0.64296 0.0
C2155 C 0.30946 0.46924 0.65805 0.0
C2156 C 0.33483 0.49511 0.66148 0.0
C2157 C 0.35877 0.50499 0.64952 0.0
C2158 C 0.35726 0.4894 0.63446 0.0
H2159 H 0.34938 0.3609 0.62025 0.0
H2160 H 0.35701 0.39684 0.63387 0.0
H2161 H 0.3133 0.37949 0.6312 0.0
H2162 H 0.28738 0.43475 0.6405 0.0
H2163 H 0.29046 0.46119 0.66694 0.0
H2164 H 0.75247 0.12108 0.40326 0.0
H2165 H 0.77791 0.11627 0.3765 0.0
H2166 H 0.84599 0.0328 0.39257 0.0
H2167 H 0.82108 0.03749 0.41933 0.0
H2168 H 0.8604 0.11608 0.36839 0.0
H2169 H 0.78248 0.99694 0.35239 0.0
H2170 H 0.76722 0.02827 0.36704 0.0
H2171 H 0.80276 0.99904 0.37176 0.0
C2172 C 0.77299 0.10183 0.40113 0.0
C2173 C 0.78468 0.0796 0.41342 0.0
C2174 C 0.7875 0.09918 0.38586 0.0
C2175 C 0.81365 0.07408 0.38262 0.0
C2176 C 0.82572 0.05223 0.39487 0.0
H2177 H 0.89796 1.00285 0.29137 0.0
H2178 H 0.88602 1.00891 0.31992 0.0
C2179 C 0.81145 0.055 0.41015 0.0
C2180 C 0.82777 0.07007 0.36633 0.0
H2181 H 0.82216 0.01833 0.33324 0.0
C2182 C 0.85217 0.09473 0.36067 0.0
C2183 C 0.81721 0.04192 0.35645 0.0
C2184 C 0.79087 0.01497 0.36209 0.0
C2185 C 0.86627 0.09203 0.34525 0.0
C2186 C 0.85491 0.06441 0.33515 0.0
C2187 C 0.83092 0.03943 0.34098 0.0
C2188 C 0.86581 0.06202 0.3182 0.0
C2189 C 0.89349 0.11852 0.34004 0.0
C2190 C 0.85872 0.08993 0.30777 0.0
C2191 C 0.86573 0.08664 0.29153 0.0
C2192 C 0.87951 0.05515 0.2853 0.0
C2193 C 0.8874 0.02747 0.2958 0.0
C2194 C 0.88052 0.03087 0.3121 0.0
H2195 H 0.90775 0.12981 0.3504 0.0
H2196 H 0.91301 0.10657 0.3318 0.0
H2197 H 0.88015 0.1405 0.33378 0.0
H2198 H 0.84655 0.11387 0.31209 0.0
H2199 H 0.85915 0.10844 0.28379 0.0
H2200 H 0.27218 0.62673 0.04397 0.0
H2201 H 0.26313 0.60996 0.07178 0.0
H2202 H 0.15118 0.60348 0.06372 0.0
H2203 H 0.15986 0.62031 0.0359 0.0
H2204 H 0.17276 0.63553 0.09402 0.0
H2205 H 0.23482 0.50569 0.08184 0.0
H2206 H 0.26036 0.54354 0.07624 0.0
H2207 H 0.21965 0.53442 0.06617 0.0
C2208 C 0.24555 0.62237 0.04815 0.0
C2209 C 0.21677 0.62446 0.03764 0.0
C2210 C 0.24047 0.61262 0.06404 0.0
C2211 C 0.20657 0.6049 0.06969 0.0
C2212 C 0.17758 0.60913 0.05953 0.0
H2213 H 0.15083 0.47751 0.15183 0.0
H2214 H 0.15527 0.50376 0.12529 0.0
C2215 C 0.18262 0.61875 0.04364 0.0
C2216 C 0.20153 0.59018 0.08586 0.0
H2217 H 0.21883 0.51761 0.10848 0.0
C2218 C 0.18283 0.60979 0.09722 0.0
C2219 C 0.2142 0.55632 0.08987 0.0
C2220 C 0.23314 0.53353 0.07789 0.0
C2221 C 0.17707 0.59665 0.11264 0.0
C2222 C 0.19055 0.56316 0.11676 0.0
C2223 C 0.20869 0.54334 0.1053 0.0
C2224 C 0.1865 0.54825 0.13295 0.0
C2225 C 0.15623 0.61844 0.12433 0.0
C2226 C 0.20274 0.56448 0.14603 0.0
C2227 C 0.20041 0.5495 0.16117 0.0
C2228 C 0.18185 0.51791 0.16353 0.0
C2229 C 0.16535 0.50183 0.15042 0.0
C2230 C 0.16784 0.51679 0.13525 0.0
H2231 H 0.14068 0.63928 0.11828 0.0
H2232 H 0.13801 0.60164 0.13133 0.0
H2233 H 0.17463 0.63138 0.13276 0.0
H2234 H 0.21777 0.58845 0.14446 0.0
H2235 H 0.21343 0.56258 0.171 0.0
H2236 H 0.6837 0.91077 0.92158 0.0
H2237 H 0.65813 0.91486 0.89492 0.0
H2238 H 0.75967 0.94364 0.87592 0.0
H2239 H 0.78563 0.93857 0.90241 0.0
H2240 H 0.65242 0.9697 0.87529 0.0
H2241 H 0.73177 0.86641 0.84583 0.0
H2242 H 0.73104 0.87195 0.86715 0.0
H2243 H 0.75902 0.89916 0.855 0.0
C2244 C 0.70066 0.91774 0.9117 0.0
C2245 C 0.73675 0.92423 0.91411 0.0
C2246 C 0.68598 0.92009 0.89647 0.0
C2247 C 0.70706 0.92897 0.88335 0.0
C2248 C 0.74303 0.93582 0.88576 0.0
H2249 H 0.64666 0.01907 0.79365 0.0
H2250 H 0.66023 1.00749 0.82152 0.0
C2251 C 0.7578 0.93318 0.90096 0.0
C2252 C 0.69125 0.93234 0.86724 0.0
H2253 H 0.70106 0.90622 0.82862 0.0
C2254 C 0.66282 0.95554 0.86511 0.0
C2255 C 0.70429 0.91335 0.85399 0.0
C2256 C 0.73295 0.88605 0.85562 0.0
C2257 C 0.64796 0.96124 0.85001 0.0
C2258 C 0.66253 0.94397 0.83661 0.0
C2259 C 0.6901 0.9198 0.83884 0.0
C2260 C 0.65066 0.95143 0.82008 0.0
C2261 C 0.61668 0.98555 0.84864 0.0
C2262 C 0.64093 0.92379 0.80989 0.0
C2263 C 0.63364 0.93028 0.79383 0.0
C2264 C 0.63594 0.96457 0.78766 0.0
C2265 C 0.64436 0.99239 0.79803 0.0
C2266 C 0.65195 0.98583 0.81403 0.0
H2267 H 0.60164 0.98675 0.85997 0.0
H2268 H 0.62608 0.01253 0.84595 0.0
H2269 H 0.59858 0.97709 0.83899 0.0
H2270 H 0.63982 0.89702 0.81426 0.0
H2271 H 0.62722 0.90827 0.78617 0.0
H2272 H 0.65782 0.30649 0.00269 0.0
H2273 H 0.61223 0.26316 0.99627 0.0
H2274 H 0.5338 0.34527 0.99617 0.0
H2275 H 0.57902 0.38864 0.0022 0.0
H2276 H 0.5571 0.2505 0.01651 0.0
H2277 H 0.50456 0.28826 0.95755 0.0
H2278 H 0.54665 0.30358 0.96481 0.0
H2279 H 0.50653 0.32473 0.97108 0.0
C2280 C 0.6311 0.31551 0.00077 0.0
C2281 C 0.62208 0.3511 0.00294 0.0
C2282 C 0.60503 0.29066 0.99718 0.0
C2283 C 0.56965 0.30103 0.99552 0.0
C2284 C 0.56096 0.33671 0.99701 0.0
H2285 H 0.36381 0.20882 0.00481 0.0
H2286 H 0.41398 0.24753 -0.0009 0.0
C2287 C 0.58686 0.36145 0.00065 0.0
C2288 C 0.54114 0.27446 0.99447 0.0
H2289 H 0.46675 0.25223 0.97383 0.0
C2290 C 0.53772 0.25044 0.00702 0.0
C2291 C 0.5156 0.27475 0.98218 0.0
C2292 C 0.51867 0.29901 0.96807 0.0
C2293 C 0.5088 0.22762 0.00798 0.0
C2294 C 0.4829 0.22833 0.99587 0.0
C2295 C 0.48661 0.25182 0.98311 0.0
C2296 C 0.45161 0.20509 0.99658 0.0
C2297 C 0.50552 0.20389 0.02231 0.0
C2298 C 0.45592 0.1685 0.99635 0.0
C2299 C 0.42751 0.14646 -0.00032 0.0
C2300 C 0.39407 0.16054 0.00307 0.0
C2301 C 0.38916 0.19715 0.00213 0.0
C2302 C 0.41782 0.21929 -0.00108 0.0
H2303 H 0.52298 0.21238 0.03221 0.0
H2304 H 0.47795 0.20327 0.02672 0.0
H2305 H 0.51313 0.17673 0.0189 0.0
H2306 H 0.48165 0.15702 0.99427 0.0
H2307 H 0.43201 0.11833 0.00013 0.0
H2308 H 0.61671 0.67594 0.28017 0.0
H2309 H 0.59027 0.72995 0.2704 0.0
H2310 H 0.55186 0.67511 0.22894 0.0
H2311 H 0.57684 0.62018 0.23903 0.0
H2312 H 0.59236 0.77178 0.24386 0.0
H2313 H 0.46153 0.70645 0.25017 0.0
H2314 H 0.50149 0.68615 0.2572 0.0
H2315 H 0.49182 0.68714 0.23626 0.0
C2316 C 0.60298 0.67527 0.26887 0.0
C2317 C 0.59851 0.64345 0.26056 0.0
C2318 C 0.58814 0.70635 0.26322 0.0
C2319 C 0.5685 0.70647 0.24909 0.0
C2320 C 0.56637 0.67545 0.24003 0.0
H2321 H 0.44789 0.90532 0.23517 0.0
H2322 H 0.48877 0.85786 0.22769 0.0
C2323 C 0.58104 0.64408 0.24576 0.0
C2324 C 0.54696 0.73795 0.24531 0.0
H2325 H 0.46202 0.76719 0.24707 0.0
C2326 C 0.56381 0.77079 0.24414 0.0
C2327 C 0.50968 0.73656 0.24577 0.0
C2328 C 0.48991 0.7023 0.24751 0.0
C2329 C 0.54446 0.80233 0.24457 0.0
C2330 C 0.50746 0.8008 0.24605 0.0
C2331 C 0.49048 0.76806 0.24593 0.0
C2332 C 0.4863 0.83192 0.25056 0.0
C2333 C 0.56366 0.83703 0.24467 0.0
C2334 C 0.47201 0.83323 0.26592 0.0
C2335 C 0.44883 0.85998 0.27019 0.0
C2336 C 0.43943 0.88616 0.2592 0.0
C2337 C 0.45495 0.88577 0.24397 0.0
C2338 C 0.47818 0.85866 0.23965 0.0
H2339 H 0.59268 0.83368 0.24383 0.0
H2340 H 0.55465 0.85332 0.2345 0.0
H2341 H 0.5574 0.85166 0.25577 0.0
H2342 H 0.47811 0.81289 0.27452 0.0
H2343 H 0.43762 0.85969 0.28204 0.0
H2344 H 0.16495 0.79904 0.49723 0.0
H2345 H 0.11781 0.75866 0.48928 0.0
H2346 H 0.04095 0.84053 0.49693 0.0
H2347 H 0.0877 0.88103 0.50463 0.0
H2348 H 0.06489 0.74123 0.51065 0.0
H2349 H 1.00587 0.79556 0.45567 0.0
H2350 H 0.04945 0.80751 0.46244 0.0
H2351 H 1.01115 0.8278 0.47111 0.0
C2352 C 0.13817 0.80879 0.4967 0.0
C2353 C 0.13005 0.84329 0.50154 0.0
C2354 C 0.11124 0.78563 0.49221 0.0
C2355 C 0.0759 0.79673 0.4923 0.0
C2356 C 0.06803 0.83159 0.49641 0.0
H2357 H 0.86955 0.70762 0.50161 0.0
H2358 H 0.91998 0.74588 0.49576 0.0
C2359 C 0.09479 0.85461 0.50098 0.0
C2360 C 0.04688 0.77096 0.49046 0.0
H2361 H 0.96987 0.75527 0.4706 0.0
C2362 C 0.04446 0.74386 0.50171 0.0
C2363 C 0.02 0.77483 0.47893 0.0
C2364 C 0.02184 0.80282 0.46625 0.0
C2365 C 0.01523 0.72139 0.50217 0.0
C2366 C 0.98803 0.72551 0.49078 0.0
C2367 C 0.99076 0.75213 0.47929 0.0
C2368 C 0.95615 0.703 0.49117 0.0
C2369 C 0.01302 0.69448 0.51535 0.0
C2370 C 0.95936 0.6664 0.48972 0.0
C2371 C 0.93084 0.64462 0.49322 0.0
C2372 C 0.89835 0.65905 0.49788 0.0
C2373 C 0.89421 0.69579 0.49794 0.0
C2374 C 0.92302 0.71765 0.49464 0.0
H2375 H 0.03144 0.70054 0.52525 0.0
H2376 H 0.98589 0.69298 0.52025 0.0
H2377 H 0.0201 0.66821 0.51055 0.0
H2378 H 0.98448 0.6546 0.48671 0.0
H2379 H 0.93462 0.61637 0.49295 0.0
H2380 H 0.05201 0.1156 0.75341 0.0
H2381 H 0.01297 0.16539 0.74767 0.0
H2382 H 0.10331 0.22975 0.73661 0.0
H2383 H 0.14225 0.18052 0.74281 0.0
H2384 H 0.06456 0.25808 0.75949 0.0
H2385 H 0.9762 0.22006 0.70995 0.0
H2386 H 0.97697 0.18828 0.72572 0.0
H2387 H 0.01634 0.19647 0.71438 0.0
C2388 C 0.06337 0.14002 0.74922 0.0
C2389 C 0.10011 0.14433 0.74859 0.0
C2390 C 0.04105 0.16847 0.74589 0.0
C2391 C 0.05518 0.20134 0.74162 0.0
C2392 C 0.09179 0.2047 0.73988 0.0
H2393 H 0.96417 0.41343 0.74629 0.0
H2394 H 1.00162 0.36421 0.7381 0.0
C2395 C 0.11401 0.17657 0.74341 0.0
C2396 C 0.03278 0.2334 0.74141 0.0
H2397 H 0.95787 0.26947 0.72584 0.0
C2398 C 0.04158 0.2608 0.75191 0.0
C2399 C 1.00263 0.23682 0.73164 0.0
C2400 C 0.99263 0.20897 0.71968 0.0
C2401 C 0.02055 0.29094 0.75331 0.0
C2402 C 0.99005 0.29412 0.74377 0.0
C2403 C 0.98144 0.26706 0.73305 0.0
C2404 C 0.9653 0.32392 0.74593 0.0
C2405 C 0.03032 0.3184 0.76554 0.0
C2406 C 0.93185 0.31754 0.75234 0.0
C2407 C 0.91028 0.34552 0.7569 0.0
C2408 C 0.92161 0.38053 0.75507 0.0
C2409 C 0.95435 0.3869 0.74774 0.0
C2410 C 0.97596 0.35877 0.74318 0.0
H2411 H 0.05061 0.30872 0.77401 0.0
H2412 H 0.04109 0.34188 0.75941 0.0
H2413 H 1.0068 0.32675 0.77244 0.0
H2414 H 0.92309 0.29086 0.75455 0.0
H2415 H 0.88511 0.33967 0.76237 0.0
H2416 H 0.64509 0.84075 0.0147 0.0
H2417 H 0.59814 0.79991 0.02253 0.0
H2418 H 0.54573 0.81788 0.97774 0.0
H2419 H 0.59203 0.85834 0.96984 0.0
H2420 H 0.50109 0.82315 0.00457 0.0
H2421 H 0.58095 0.69997 0.00456 0.0
H2422 H 0.59601 0.73644 0.01642 0.0
H2423 H 0.59643 0.73969 0.99513 0.0
C2424 C 0.62387 0.83558 0.00642 0.0
C2425 C 0.62247 0.85273 0.99157 0.0
C2426 C 0.59697 0.81237 0.01096 0.0
C2427 C 0.5685 0.8059 0.0007 0.0
C2428 C 0.56733 0.82273 0.98589 0.0
H2429 H 0.42906 0.65603 0.97152 0.0
H2430 H 0.47592 0.69604 0.97912 0.0
C2431 C 0.59391 0.84584 0.98139 0.0
C2432 C 0.53955 0.78155 0.00494 0.0
H2433 H 0.51966 0.69414 0.00625 0.0
C2434 C 0.50506 0.79494 0.00533 0.0
C2435 C 0.54501 0.74486 0.00596 0.0
C2436 C 0.58151 0.72913 0.00544 0.0
C2437 C 0.47573 0.77248 0.00545 0.0
C2438 C 0.48118 0.73571 0.0054 0.0
C2439 C 0.51567 0.7224 0.00629 0.0
C2440 C 0.45231 0.71093 0.00156 0.0
C2441 C 0.43928 0.78816 0.00433 0.0
C2442 C 0.42324 0.70607 0.01167 0.0
C2443 C 0.39597 0.68309 0.0073 0.0
C2444 C 0.39758 0.66457 0.99278 0.0
C2445 C 0.42692 0.6696 0.98282 0.0
C2446 C 0.45387 0.69246 0.98715 0.0
H2447 H 0.43991 0.81714 0.00269 0.0
H2448 H 0.42461 0.77627 0.99423 0.0
H2449 H 0.42449 0.78235 0.01541 0.0
H2450 H 0.42176 0.71982 0.02294 0.0
H2451 H 0.37418 0.67938 0.01543 0.0
H2452 H 0.55156 0.10793 0.74883 0.0
H2453 H 0.50902 0.15412 0.75539 0.0
H2454 H 0.59012 0.23262 0.75018 0.0
H2455 H 0.63295 0.18678 0.74398 0.0
H2456 H 0.5411 0.2461 0.77577 0.0
H2457 H 0.47654 0.21649 0.71775 0.0
H2458 H 0.48045 0.18049 0.73148 0.0
H2459 H 0.51938 0.19939 0.72288 0.0
C2460 C 0.56065 0.13486 0.74954 0.0
C2461 C 0.59569 0.14367 0.74576 0.0
C2462 C 0.5362 0.16127 0.75317 0.0
C2463 C 0.54638 0.19678 0.75304 0.0
C2464 C 0.58173 0.20538 0.75031 0.0
H2465 H 0.46272 0.40532 0.74593 0.0
H2466 H 0.49784 0.35369 0.75314 0.0
C2467 C 0.60611 0.17912 0.74666 0.0
C2468 C 0.51993 0.22536 0.75392 0.0
H2469 H 0.45487 0.26431 0.73222 0.0
C2470 C 0.52188 0.24993 0.76638 0.0
C2471 C 0.49512 0.23035 0.74158 0.0
C2472 C 0.49273 0.20552 0.72758 0.0
C2473 C 0.49978 0.27963 0.76674 0.0
C2474 C 0.4757 0.28514 0.75413 0.0
C2475 C 0.47323 0.26002 0.74192 0.0
C2476 C 0.45385 0.31739 0.75272 0.0
C2477 C 0.50244 0.30474 0.78059 0.0
C2478 C 0.41745 0.31431 0.7502 0.0
C2479 C 0.39755 0.34359 0.74582 0.0
C2480 C 0.41354 0.37666 0.74403 0.0
C2481 C 0.44959 0.38027 0.74748 0.0
C2482 C 0.46966 0.35076 0.75166 0.0
H2483 H 0.51296 0.29142 0.79135 0.0
H2484 H 0.52081 0.32635 0.77747 0.0
H2485 H 0.47641 0.31643 0.78352 0.0
H2486 H 0.40468 0.28888 0.75092 0.0
H2487 H 0.36977 0.3401 0.7433 0.0
H2488 H 0.0939 0.39523 0.48823 0.0
H2489 H 0.04198 0.36236 0.4968 0.0
H2490 H 0.10613 0.26966 0.50312 0.0
H2491 H 0.15844 0.30301 0.49519 0.0
H2492 H 0.01689 0.31062 0.48025 0.0
H2493 H 0.04259 0.2601 0.54079 0.0
H2494 H 0.06881 0.29459 0.53197 0.0
H2495 H 0.07767 0.24913 0.52738 0.0
C2496 C 0.09703 0.36809 0.49191 0.0
C2497 C 0.1301 0.35164 0.49109 0.0
C2498 C 0.06737 0.34934 0.4968 0.0
C2499 C 0.07005 0.31356 0.50074 0.0
C2500 C 0.10343 0.29744 0.50058 0.0
H2501 H 0.93945 0.13518 0.49352 0.0
H2502 H 0.98528 0.17816 0.49956 0.0
C2503 C 0.13332 0.31645 0.49596 0.0
C2504 C 0.03751 0.29223 0.50265 0.0
H2505 H 0.99805 0.22932 0.52556 0.0
C2506 C 0.01246 0.29344 0.49035 0.0
C2507 C 0.03172 0.26964 0.51577 0.0
C2508 C 0.05648 0.26854 0.52979 0.0
C2509 C 0.98269 0.27169 0.49045 0.0
C2510 C 0.97759 0.24817 0.50325 0.0
C2511 C 1.00201 0.24753 0.5158 0.0
C2512 C 0.94916 0.22158 0.50275 0.0
C2513 C 0.9578 0.27275 0.47643 0.0
C2514 C 0.91354 0.23155 0.50313 0.0
C2515 C 0.88715 0.20699 0.49964 0.0
C2516 C 0.89613 0.17212 0.4957 0.0
C2517 C 0.93171 0.16189 0.49636 0.0
C2518 C 0.95794 0.18634 0.49992 0.0
H2519 H 0.96836 0.28868 0.46643 0.0
H2520 H 0.95243 0.24573 0.47201 0.0
H2521 H 0.93237 0.28447 0.48022 0.0
H2522 H 0.90629 0.25868 0.50536 0.0
H2523 H 0.86007 0.21588 0.49909 0.0
H2524 H 0.08009 0.66611 0.21501 0.0
H2525 H 0.04274 0.71426 0.22386 0.0
H2526 H 0.03784 0.66935 0.27088 0.0
H2527 H 0.07598 0.62071 0.26216 0.0
H2528 H 0.9697 0.69753 0.25626 0.0
H2529 H 0.08117 0.79131 0.25591 0.0
H2530 H 0.07939 0.76442 0.23833 0.0
H2531 H 0.08722 0.74424 0.25736 0.0
C2532 C 0.07107 0.66621 0.22724 0.0
C2533 C 0.0813 0.63957 0.23787 0.0
C2534 C 0.04969 0.69379 0.23226 0.0
C2535 C 0.03808 0.69559 0.24806 0.0
C2536 C 0.04677 0.66841 0.25864 0.0
H2537 H 0.95075 0.90684 0.25743 0.0
H2538 H 0.97696 0.85295 0.26808 0.0
C2539 C 0.06837 0.64054 0.25359 0.0
C2540 C 0.01775 0.7268 0.25318 0.0
H2541 H 0.02332 0.81617 0.25211 0.0
C2542 C 0.98144 0.72352 0.25583 0.0
C2543 C 0.03326 0.76058 0.253 0.0
C2544 C 0.07249 0.76543 0.25116 0.0
C2545 C 0.95973 0.75343 0.25672 0.0
C2546 C 0.97477 0.7872 0.25455 0.0
C2547 C 1.01156 0.79038 0.25358 0.0
C2548 C 0.95318 0.81857 0.25056 0.0
C2549 C 0.92076 0.74844 0.25932 0.0
C2550 C 0.93057 0.81718 0.23737 0.0
C2551 C 0.91545 0.8478 0.23133 0.0
C2552 C 0.92276 0.88069 0.23824 0.0
C2553 C 0.94405 0.88196 0.25194 0.0
C2554 C 0.95921 0.85115 0.25802 0.0
H2555 H 0.91575 0.72545 0.26715 0.0
H2556 H 0.90844 0.77211 0.26472 0.0
H2557 H 0.90784 0.74305 0.24772 0.0
H2558 H 0.92625 0.79268 0.23108 0.0
H2559 H 0.89913 0.84583 0.22079 0.0
loop_
_geom_bond_atom_site_label_1
_geom_bond_atom_site_label_2
_geom_bond_distance
_geom_bond_site_symmetry_2
_ccdc_geom_bond_type
Zn0 N4 2.020 . S
Zn0 O8 2.019 . S
Zn0 N10 2.119 . S
Zn0 O18 1.975 . S
C1 N2 1.334 . S
C1 N5 1.336 . S
N2 C1 1.334 . S
N2 C3 1.334 . S
C3 N2 1.334 . S
C3 N4 1.336 . S
N4 Zn0 2.020 . S
N4 C3 1.336 . S
N4 N5 1.354 . S
N5 C1 1.336 . S
N5 N4 1.354 . S
N5 Zn9 2.020 . S
C6 O7 1.244 . S
C6 O30 1.257 . S
O7 C6 1.244 . S
O8 Zn0 2.019 . S
O8 C28 1.257 . S
Zn9 N5 2.020 . S
Zn9 O16 1.975 . S
Zn9 N25 2.119 . S
Zn9 O30 2.019 1_554 S
N10 Zn0 2.119 . S
N10 C12 1.334 . S
N10 C13 1.328 . S
C11 C12 1.391 . S
C11 N14 1.329 . S
C11 H32 0.930 . S
C12 N10 1.334 . S
C12 C11 1.391 . S
C12 H19 0.930 . S
C13 N10 1.328 . S
C13 C15 1.392 . S
C13 H20 0.930 . S
N14 C11 1.329 . S
N14 C15 1.331 . S
C15 C13 1.392 . S
C15 N14 1.331 . S
O16 Zn9 1.975 . S
O16 C17 1.252 . S
C17 O16 1.252 . S
C17 O18 1.252 . S
O18 Zn0 1.975 . S
O18 C17 1.252 . S
H19 C12 0.930 . S
H20 C13 0.930 . S
C21 C22 1.392 . S
C21 N25 1.328 . S
C21 H27 0.930 1_554 S
C22 C21 1.392 . S
C22 N26 1.331 . S
C23 C24 1.391 . S
C23 N26 1.329 . S
C23 H33 0.930 . S
C24 C23 1.391 . S
C24 N25 1.334 . S
C24 H31 0.930 . S
N25 Zn9 2.119 . S
N25 C21 1.328 . S
N25 C24 1.334 . S
N26 C22 1.331 . S
N26 C23 1.329 . S
H27 C21 0.930 1_556 S
C28 O8 1.257 . S
C28 O29 1.244 . S
O29 C28 1.244 . S
O30 C6 1.257 . S
O30 Zn9 2.019 1_556 S
H31 C24 0.930 . S
H32 C11 0.930 . S
H33 C23 0.930 . S
Zn34 N38 2.020 . S
Zn34 O42 2.019 . S
Zn34 N44 2.119 . S
Zn34 O52 1.975 . S
C35 N36 1.334 . S
C35 N39 1.336 . S
N36 C35 1.334 . S
N36 C37 1.334 . S
C37 N36 1.334 . S
C37 N38 1.336 . S
N38 Zn34 2.020 . S
N38 C37 1.336 . S
N38 N39 1.354 . S
N39 C35 1.336 . S
N39 N38 1.354 . S
N39 Zn43 2.020 . S
C40 O41 1.244 . S
C40 O64 1.257 . S
O41 C40 1.244 . S
O42 Zn34 2.019 . S
O42 C62 1.257 . S
Zn43 N39 2.020 . S
Zn43 O50 1.975 . S
Zn43 N59 2.119 . S
Zn43 O64 2.019 . S
N44 Zn34 2.119 . S
N44 C46 1.334 . S
N44 C47 1.328 . S
C45 C46 1.391 . S
C45 N48 1.329 . S
C45 H66 0.930 . S
C46 N44 1.334 . S
C46 C45 1.391 . S
C46 H53 0.930 . S
C47 N44 1.328 . S
C47 C49 1.392 . S
C47 H54 0.930 . S
N48 C45 1.329 . S
N48 C49 1.331 . S
C49 C47 1.392 . S
C49 N48 1.331 . S
O50 Zn43 1.975 . S
O50 C51 1.252 . S
C51 O50 1.252 . S
C51 O52 1.252 . S
O52 Zn34 1.975 . S
O52 C51 1.252 . S
H53 C46 0.930 . S
H54 C47 0.930 . S
C55 C56 1.392 . S
C55 N59 1.328 . S
C55 H61 0.930 . S
C56 C55 1.392 . S
C56 N60 1.331 . S
C57 C58 1.391 . S
C57 N60 1.329 . S
C57 H67 0.930 . S
C58 C57 1.391 . S
C58 N59 1.334 . S
C58 H65 0.930 . S
N59 Zn43 2.119 . S
N59 C55 1.328 . S
N59 C58 1.334 . S
N60 C56 1.331 . S
N60 C57 1.329 . S
H61 C55 0.930 . S
C62 O42 1.257 . S
C62 O63 1.244 . S
O63 C62 1.244 . S
O64 C40 1.257 . S
O64 Zn43 2.019 . S
H65 C58 0.930 . S
H66 C45 0.930 . S
H67 C57 0.930 . S
Zn68 N72 2.020 . S
Zn68 O76 2.019 . S
Zn68 N78 2.119 . S
Zn68 O86 1.975 . S
C69 N70 1.334 . S
C69 N73 1.336 . S
N70 C69 1.334 . S
N70 C71 1.334 . S
C71 N70 1.334 . S
C71 N72 1.336 . S
N72 Zn68 2.020 . S
N72 C71 1.336 . S
N72 N73 1.354 . S
N73 C69 1.336 . S
N73 N72 1.354 . S
N73 Zn77 2.020 . S
C74 O75 1.244 . S
C74 O98 1.257 . S
O75 C74 1.244 . S
O76 Zn68 2.019 . S
O76 C96 1.257 . S
Zn77 N73 2.020 . S
Zn77 O84 1.975 . S
Zn77 N93 2.119 . S
Zn77 O98 2.019 . S
N78 Zn68 2.119 . S
N78 C80 1.334 . S
N78 C81 1.328 . S
C79 C80 1.391 . S
C79 N82 1.329 . S
C79 H100 0.930 . S
C80 N78 1.334 . S
C80 C79 1.391 . S
C80 H87 0.930 . S
C81 N78 1.328 . S
C81 C83 1.392 . S
C81 H88 0.930 . S
N82 C79 1.329 . S
N82 C83 1.331 . S
C83 C81 1.392 . S
C83 N82 1.331 . S
O84 Zn77 1.975 . S
O84 C85 1.252 . S
C85 O84 1.252 . S
C85 O86 1.252 . S
O86 Zn68 1.975 . S
O86 C85 1.252 . S
H87 C80 0.930 . S
H88 C81 0.930 . S
C89 C90 1.392 . S
C89 N93 1.328 . S
C89 H95 0.930 . S
C90 C89 1.392 . S
C90 N94 1.331 . S
C91 C92 1.391 . S
C91 N94 1.329 . S
C91 H101 0.930 . S
C92 C91 1.391 . S
C92 N93 1.334 . S
C92 H99 0.930 . S
N93 Zn77 2.119 . S
N93 C89 1.328 . S
N93 C92 1.334 . S
N94 C90 1.331 . S
N94 C91 1.329 . S
H95 C89 0.930 . S
C96 O76 1.257 . S
C96 O97 1.244 . S
O97 C96 1.244 . S
O98 C74 1.257 . S
O98 Zn77 2.019 . S
H99 C92 0.930 . S
H100 C79 0.930 . S
H101 C91 0.930 . S
Zn102 N106 2.020 . S
Zn102 O110 2.019 . S
Zn102 N112 2.119 . S
Zn102 O120 1.975 . S
C103 N104 1.334 . S
C103 N107 1.336 . S
N104 C103 1.334 . S
N104 C105 1.334 . S
C105 N104 1.334 . S
C105 N106 1.336 . S
N106 Zn102 2.020 . S
N106 C105 1.336 . S
N106 N107 1.354 . S
N107 C103 1.336 . S
N107 N106 1.354 . S
N107 Zn111 2.020 . S
C108 O109 1.244 . S
C108 O132 1.257 . S
O109 C108 1.244 . S
O110 Zn102 2.019 . S
O110 C130 1.257 . S
Zn111 N107 2.020 . S
Zn111 O118 1.975 . S
Zn111 N127 2.119 . S
Zn111 O132 2.019 . S
N112 Zn102 2.119 . S
N112 C114 1.334 . S
N112 C115 1.328 . S
C113 C114 1.391 . S
C113 N116 1.329 . S
C113 H134 0.930 . S
C114 N112 1.334 . S
C114 C113 1.391 . S
C114 H121 0.930 . S
C115 N112 1.328 . S
C115 C117 1.392 . S
C115 H122 0.930 . S
N116 C113 1.329 . S
N116 C117 1.331 . S
C117 C115 1.392 . S
C117 N116 1.331 . S
O118 Zn111 1.975 . S
O118 C119 1.252 . S
C119 O118 1.252 . S
C119 O120 1.252 . S
O120 Zn102 1.975 . S
O120 C119 1.252 . S
H121 C114 0.930 . S
H122 C115 0.930 . S
C123 C124 1.392 . S
C123 N127 1.328 . S
C123 H129 0.930 . S
C124 C123 1.392 . S
C124 N128 1.331 . S
C125 C126 1.391 . S
C125 N128 1.329 . S
C125 H135 0.930 . S
C126 C125 1.391 . S
C126 N127 1.334 . S
C126 H133 0.930 . S
N127 Zn111 2.119 . S
N127 C123 1.328 . S
N127 C126 1.334 . S
N128 C124 1.331 . S
N128 C125 1.329 . S
H129 C123 0.930 . S
C130 O110 1.257 . S
C130 O131 1.244 . S
O131 C130 1.244 . S
O132 C108 1.257 . S
O132 Zn111 2.019 . S
H133 C126 0.930 . S
H134 C113 0.930 . S
H135 C125 0.930 . S
Zn136 N140 2.020 . S
Zn136 O144 2.019 1_556 S
Zn136 N146 2.119 . S
Zn136 O154 1.975 . S
C137 N138 1.334 . S
C137 N141 1.336 . S
N138 C137 1.334 . S
N138 C139 1.334 . S
C139 N138 1.334 . S
C139 N140 1.336 . S
N140 Zn136 2.020 . S
N140 C139 1.336 . S
N140 N141 1.354 . S
N141 C137 1.336 . S
N141 N140 1.354 . S
N141 Zn145 2.020 . S
C142 O143 1.244 . S
C142 O166 1.257 . S
O143 C142 1.244 . S
O144 Zn136 2.019 1_554 S
O144 C164 1.257 . S
Zn145 N141 2.020 . S
Zn145 O152 1.975 . S
Zn145 N161 2.119 . S
Zn145 O166 2.019 . S
N146 Zn136 2.119 . S
N146 C148 1.334 . S
N146 C149 1.328 . S
C147 C148 1.391 . S
C147 N150 1.329 . S
C147 H168 0.930 . S
C148 N146 1.334 . S
C148 C147 1.391 . S
C148 H155 0.930 . S
C149 N146 1.328 . S
C149 C151 1.392 . S
C149 H156 0.930 1_556 S
N150 C147 1.329 . S
N150 C151 1.331 . S
C151 C149 1.392 . S
C151 N150 1.331 . S
O152 Zn145 1.975 . S
O152 C153 1.252 . S
C153 O152 1.252 . S
C153 O154 1.252 . S
O154 Zn136 1.975 . S
O154 C153 1.252 . S
H155 C148 0.930 . S
H156 C149 0.930 1_554 S
C157 C158 1.392 . S
C157 N161 1.328 . S
C157 H163 0.930 . S
C158 C157 1.392 . S
C158 N162 1.331 . S
C159 C160 1.391 . S
C159 N162 1.329 . S
C159 H169 0.930 . S
C160 C159 1.391 . S
C160 N161 1.334 . S
C160 H167 0.930 . S
N161 Zn145 2.119 . S
N161 C157 1.328 . S
N161 C160 1.334 . S
N162 C158 1.331 . S
N162 C159 1.329 . S
H163 C157 0.930 . S
C164 O144 1.257 . S
C164 O165 1.244 . S
O165 C164 1.244 . S
O166 C142 1.257 . S
O166 Zn145 2.019 . S
H167 C160 0.930 . S
H168 C147 0.930 . S
H169 C159 0.930 . S
Zn170 N174 2.020 . S
Zn170 O178 2.019 . S
Zn170 N180 2.119 . S
Zn170 O188 1.975 . S
C171 N172 1.334 . S
C171 N175 1.336 . S
N172 C171 1.334 . S
N172 C173 1.334 . S
C173 N172 1.334 . S
C173 N174 1.336 . S
N174 Zn170 2.020 . S
N174 C173 1.336 . S
N174 N175 1.354 . S
N175 C171 1.336 . S
N175 N174 1.354 . S
N175 Zn179 2.020 . S
C176 O177 1.244 . S
C176 O200 1.257 . S
O177 C176 1.244 . S
O178 Zn170 2.019 . S
O178 C198 1.257 . S
Zn179 N175 2.020 . S
Zn179 O186 1.975 . S
Zn179 N195 2.119 . S
Zn179 O200 2.019 . S
N180 Zn170 2.119 . S
N180 C182 1.334 . S
N180 C183 1.328 . S
C181 C182 1.391 . S
C181 N184 1.329 . S
C181 H202 0.930 . S
C182 N180 1.334 . S
C182 C181 1.391 . S
C182 H189 0.930 . S
C183 N180 1.328 . S
C183 C185 1.392 . S
C183 H190 0.930 . S
N184 C181 1.329 . S
N184 C185 1.331 . S
C185 C183 1.392 . S
C185 N184 1.331 . S
O186 Zn179 1.975 . S
O186 C187 1.252 . S
C187 O186 1.252 . S
C187 O188 1.252 . S
O188 Zn170 1.975 . S
O188 C187 1.252 . S
H189 C182 0.930 . S
H190 C183 0.930 . S
C191 C192 1.392 . S
C191 N195 1.328 . S
C191 H197 0.930 . S
C192 C191 1.392 . S
C192 N196 1.331 . S
C193 C194 1.391 . S
C193 N196 1.329 . S
C193 H203 0.930 . S
C194 C193 1.391 . S
C194 N195 1.334 . S
C194 H201 0.930 . S
N195 Zn179 2.119 . S
N195 C191 1.328 . S
N195 C194 1.334 . S
N196 C192 1.331 . S
N196 C193 1.329 . S
H197 C191 0.930 . S
C198 O178 1.257 . S
C198 O199 1.244 . S
O199 C198 1.244 . S
O200 C176 1.257 . S
O200 Zn179 2.019 . S
H201 C194 0.930 . S
H202 C181 0.930 . S
H203 C193 0.930 . S
Zn204 N208 2.020 . S
Zn204 O212 2.019 . S
Zn204 N214 2.119 . S
Zn204 O222 1.975 . S
C205 N206 1.334 . S
C205 N209 1.336 . S
N206 C205 1.334 . S
N206 C207 1.334 . S
C207 N206 1.334 . S
C207 N208 1.336 . S
N208 Zn204 2.020 . S
N208 C207 1.336 . S
N208 N209 1.354 . S
N209 C205 1.336 . S
N209 N208 1.354 . S
N209 Zn213 2.020 . S
C210 O211 1.244 . S
C210 O234 1.257 . S
O211 C210 1.244 . S
O212 Zn204 2.019 . S
O212 C232 1.257 . S
Zn213 N209 2.020 . S
Zn213 O220 1.975 . S
Zn213 N229 2.119 . S
Zn213 O234 2.019 . S
N214 Zn204 2.119 . S
N214 C216 1.334 . S
N214 C217 1.328 . S
C215 C216 1.391 . S
C215 N218 1.329 . S
C215 H236 0.930 . S
C216 N214 1.334 . S
C216 C215 1.391 . S
C216 H223 0.930 . S
C217 N214 1.328 . S
C217 C219 1.392 . S
C217 H224 0.930 . S
N218 C215 1.329 . S
N218 C219 1.331 . S
C219 C217 1.392 . S
C219 N218 1.331 . S
O220 Zn213 1.975 . S
O220 C221 1.252 . S
C221 O220 1.252 . S
C221 O222 1.252 . S
O222 Zn204 1.975 . S
O222 C221 1.252 . S
H223 C216 0.930 . S
H224 C217 0.930 . S
C225 C226 1.392 . S
C225 N229 1.328 . S
C225 H231 0.930 . S
C226 C225 1.392 . S
C226 N230 1.331 . S
C227 C228 1.391 . S
C227 N230 1.329 . S
C227 H237 0.930 . S
C228 C227 1.391 . S
C228 N229 1.334 . S
C228 H235 0.930 . S
N229 Zn213 2.119 . S
N229 C225 1.328 . S
N229 C228 1.334 . S
N230 C226 1.331 . S
N230 C227 1.329 . S
H231 C225 0.930 . S
C232 O212 1.257 . S
C232 O233 1.244 . S
O233 C232 1.244 . S
O234 C210 1.257 . S
O234 Zn213 2.019 . S
H235 C228 0.930 . S
H236 C215 0.930 . S
H237 C227 0.930 . S
Zn238 N242 2.020 . S
Zn238 O246 2.019 . S
Zn238 N248 2.119 . S
Zn238 O256 1.975 . S
C239 N240 1.334 . S
C239 N243 1.336 . S
N240 C239 1.334 . S
N240 C241 1.334 . S
C241 N240 1.334 . S
C241 N242 1.336 . S
N242 Zn238 2.020 . S
N242 C241 1.336 . S
N242 N243 1.354 . S
N243 C239 1.336 . S
N243 N242 1.354 . S
N243 Zn247 2.020 . S
C244 O245 1.244 . S
C244 O268 1.257 . S
O245 C244 1.244 . S
O246 Zn238 2.019 . S
O246 C266 1.257 . S
Zn247 N243 2.020 . S
Zn247 O254 1.975 . S
Zn247 N263 2.119 . S
Zn247 O268 2.019 . S
N248 Zn238 2.119 . S
N248 C250 1.334 . S
N248 C251 1.328 . S
C249 C250 1.391 . S
C249 N252 1.329 . S
C249 H270 0.930 . S
C250 N248 1.334 . S
C250 C249 1.391 . S
C250 H257 0.930 . S
C251 N248 1.328 . S
C251 C253 1.392 . S
C251 H258 0.930 . S
N252 C249 1.329 . S
N252 C253 1.331 . S
C253 C251 1.392 . S
C253 N252 1.331 . S
O254 Zn247 1.975 . S
O254 C255 1.252 . S
C255 O254 1.252 . S
C255 O256 1.252 . S
O256 Zn238 1.975 . S
O256 C255 1.252 . S
H257 C250 0.930 . S
H258 C251 0.930 . S
C259 C260 1.392 . S
C259 N263 1.328 . S
C259 H265 0.930 . S
C260 C259 1.392 . S
C260 N264 1.331 . S
C261 C262 1.391 . S
C261 N264 1.329 . S
C261 H271 0.930 . S
C262 C261 1.391 . S
C262 N263 1.334 . S
C262 H269 0.930 . S
N263 Zn247 2.119 . S
N263 C259 1.328 . S
N263 C262 1.334 . S
N264 C260 1.331 . S
N264 C261 1.329 . S
H265 C259 0.930 . S
C266 O246 1.257 . S
C266 O267 1.244 . S
O267 C266 1.244 . S
O268 C244 1.257 . S
O268 Zn247 2.019 . S
H269 C262 0.930 . S
H270 C249 0.930 . S
H271 C261 0.930 . S
Zn272 N276 2.020 . S
Zn272 O280 2.019 . S
Zn272 N282 2.119 . S
Zn272 O290 1.975 . S
C273 N274 1.334 . S
C273 N277 1.336 . S
N274 C273 1.334 . S
N274 C275 1.334 . S
C275 N274 1.334 . S
C275 N276 1.336 . S
N276 Zn272 2.020 . S
N276 C275 1.336 . S
N276 N277 1.354 . S
N277 C273 1.336 . S
N277 N276 1.354 . S
N277 Zn281 2.020 . S
C278 O279 1.244 . S
C278 O302 1.257 . S
O279 C278 1.244 . S
O280 Zn272 2.019 . S
O280 C300 1.257 . S
Zn281 N277 2.020 . S
Zn281 O288 1.975 . S
Zn281 N297 2.119 . S
Zn281 O302 2.019 . S
N282 Zn272 2.119 . S
N282 C284 1.334 . S
N282 C285 1.328 . S
C283 C284 1.391 . S
C283 N286 1.329 . S
C283 H304 0.930 . S
C284 N282 1.334 . S
C284 C283 1.391 . S
C284 H291 0.930 . S
C285 N282 1.328 . S
C285 C287 1.392 . S
C285 H292 0.930 . S
N286 C283 1.329 . S
N286 C287 1.331 . S
C287 C285 1.392 . S
C287 N286 1.331 . S
O288 Zn281 1.975 . S
O288 C289 1.252 . S
C289 O288 1.252 . S
C289 O290 1.252 . S
O290 Zn272 1.975 . S
O290 C289 1.252 . S
H291 C284 0.930 . S
H292 C285 0.930 . S
C293 C294 1.392 . S
C293 N297 1.328 . S
C293 H299 0.930 . S
C294 C293 1.392 . S
C294 N298 1.331 . S
C295 C296 1.391 . S
C295 N298 1.329 . S
C295 H305 0.930 . S
C296 C295 1.391 . S
C296 N297 1.334 . S
C296 H303 0.930 . S
N297 Zn281 2.119 . S
N297 C293 1.328 . S
N297 C296 1.334 . S
N298 C294 1.331 . S
N298 C295 1.329 . S
H299 C293 0.930 . S
C300 O280 1.257 . S
C300 O301 1.244 . S
O301 C300 1.244 . S
O302 C278 1.257 . S
O302 Zn281 2.019 . S
H303 C296 0.930 . S
H304 C283 0.930 . S
H305 C295 0.930 . S
Zn306 N310 2.020 . S
Zn306 O314 2.019 . S
Zn306 N316 2.119 . S
Zn306 O324 1.975 . S
C307 N308 1.334 . S
C307 N311 1.336 . S
N308 C307 1.334 . S
N308 C309 1.334 . S
C309 N308 1.334 . S
C309 N310 1.336 . S
N310 Zn306 2.020 . S
N310 C309 1.336 . S
N310 N311 1.354 . S
N311 C307 1.336 . S
N311 N310 1.354 . S
N311 Zn315 2.020 . S
C312 O313 1.244 . S
C312 O336 1.257 . S
O313 C312 1.244 . S
O314 Zn306 2.019 . S
O314 C334 1.257 . S
Zn315 N311 2.020 . S
Zn315 O322 1.975 . S
Zn315 N331 2.119 1_545 S
Zn315 O336 2.019 . S
N316 Zn306 2.119 . S
N316 C318 1.334 . S
N316 C319 1.328 . S
C317 C318 1.391 . S
C317 N320 1.329 . S
C317 H338 0.930 . S
C318 N316 1.334 . S
C318 C317 1.391 . S
C318 H325 0.930 . S
C319 N316 1.328 . S
C319 C321 1.392 . S
C319 H326 0.930 . S
N320 C317 1.329 . S
N320 C321 1.331 . S
C321 C319 1.392 . S
C321 N320 1.331 . S
O322 Zn315 1.975 . S
O322 C323 1.252 . S
C323 O322 1.252 . S
C323 O324 1.252 . S
O324 Zn306 1.975 . S
O324 C323 1.252 . S
H325 C318 0.930 . S
H326 C319 0.930 . S
C327 C328 1.392 . S
C327 N331 1.328 . S
C327 H333 0.930 . S
C328 C327 1.392 . S
C328 N332 1.331 . S
C329 C330 1.391 . S
C329 N332 1.329 . S
C329 H339 0.930 . S
C330 C329 1.391 . S
C330 N331 1.334 . S
C330 H337 0.930 . S
N331 Zn315 2.119 1_565 S
N331 C327 1.328 . S
N331 C330 1.334 . S
N332 C328 1.331 . S
N332 C329 1.329 . S
H333 C327 0.930 . S
C334 O314 1.257 . S
C334 O335 1.244 1_545 S
O335 C334 1.244 1_565 S
O336 C312 1.257 . S
O336 Zn315 2.019 . S
H337 C330 0.930 . S
H338 C317 0.930 . S
H339 C329 0.930 . S
Zn340 N344 2.020 . S
Zn340 O348 2.019 1_554 S
Zn340 N350 2.119 . S
Zn340 O358 1.975 . S
C341 N342 1.334 . S
C341 N345 1.336 . S
N342 C341 1.334 . S
N342 C343 1.334 . S
C343 N342 1.334 . S
C343 N344 1.336 . S
N344 Zn340 2.020 . S
N344 C343 1.336 . S
N344 N345 1.354 . S
N345 C341 1.336 . S
N345 N344 1.354 . S
N345 Zn349 2.020 . S
C346 O347 1.244 . S
C346 O370 1.257 . S
O347 C346 1.244 . S
O348 Zn340 2.019 1_556 S
O348 C368 1.257 . S
Zn349 N345 2.020 . S
Zn349 O356 1.975 . S
Zn349 N365 2.119 . S
Zn349 O370 2.019 . S
N350 Zn340 2.119 . S
N350 C352 1.334 . S
N350 C353 1.328 . S
C351 C352 1.391 . S
C351 N354 1.329 . S
C351 H372 0.930 . S
C352 N350 1.334 . S
C352 C351 1.391 . S
C352 H359 0.930 . S
C353 N350 1.328 . S
C353 C355 1.392 . S
C353 H360 0.930 1_554 S
N354 C351 1.329 . S
N354 C355 1.331 . S
C355 C353 1.392 . S
C355 N354 1.331 . S
O356 Zn349 1.975 . S
O356 C357 1.252 . S
C357 O356 1.252 . S
C357 O358 1.252 . S
O358 Zn340 1.975 . S
O358 C357 1.252 . S
H359 C352 0.930 . S
H360 C353 0.930 1_556 S
C361 C362 1.392 . S
C361 N365 1.328 . S
C361 H367 0.930 . S
C362 C361 1.392 . S
C362 N366 1.331 . S
C363 C364 1.391 . S
C363 N366 1.329 . S
C363 H373 0.930 . S
C364 C363 1.391 . S
C364 N365 1.334 . S
C364 H371 0.930 . S
N365 Zn349 2.119 . S
N365 C361 1.328 . S
N365 C364 1.334 . S
N366 C362 1.331 . S
N366 C363 1.329 . S
H367 C361 0.930 . S
C368 O348 1.257 . S
C368 O369 1.244 . S
O369 C368 1.244 . S
O370 C346 1.257 . S
O370 Zn349 2.019 . S
H371 C364 0.930 . S
H372 C351 0.930 . S
H373 C363 0.930 . S
Zn374 N378 2.020 . S
Zn374 O382 2.019 . S
Zn374 N384 2.119 . S
Zn374 O392 1.975 . S
C375 N376 1.334 . S
C375 N379 1.336 . S
N376 C375 1.334 . S
N376 C377 1.334 . S
C377 N376 1.334 . S
C377 N378 1.336 . S
N378 Zn374 2.020 . S
N378 C377 1.336 . S
N378 N379 1.354 . S
N379 C375 1.336 . S
N379 N378 1.354 . S
N379 Zn383 2.020 . S
C380 O381 1.244 . S
C380 O404 1.257 . S
O381 C380 1.244 . S
O382 Zn374 2.019 . S
O382 C402 1.257 . S
Zn383 N379 2.020 . S
Zn383 O390 1.975 . S
Zn383 N399 2.119 1_565 S
Zn383 O404 2.019 . S
N384 Zn374 2.119 . S
N384 C386 1.334 . S
N384 C387 1.328 . S
C385 C386 1.391 . S
C385 N388 1.329 . S
C385 H406 0.930 . S
C386 N384 1.334 . S
C386 C385 1.391 . S
C386 H393 0.930 . S
C387 N384 1.328 . S
C387 C389 1.392 . S
C387 H394 0.930 . S
N388 C385 1.329 . S
N388 C389 1.331 . S
C389 C387 1.392 . S
C389 N388 1.331 . S
O390 Zn383 1.975 . S
O390 C391 1.252 . S
C391 O390 1.252 . S
C391 O392 1.252 . S
O392 Zn374 1.975 . S
O392 C391 1.252 . S
H393 C386 0.930 . S
H394 C387 0.930 . S
C395 C396 1.392 . S
C395 N399 1.328 . S
C395 H401 0.930 . S
C396 C395 1.392 . S
C396 N400 1.331 . S
C397 C398 1.391 . S
C397 N400 1.329 . S
C397 H407 0.930 . S
C398 C397 1.391 . S
C398 N399 1.334 . S
C398 H405 0.930 . S
N399 Zn383 2.119 1_545 S
N399 C395 1.328 . S
N399 C398 1.334 . S
N400 C396 1.331 . S
N400 C397 1.329 . S
H401 C395 0.930 . S
C402 O382 1.257 . S
C402 O403 1.244 1_565 S
O403 C402 1.244 1_545 S
O404 C380 1.257 . S
O404 Zn383 2.019 . S
H405 C398 0.930 . S
H406 C385 0.930 . S
H407 C397 0.930 . S
Zn408 N412 2.020 . S
Zn408 O416 2.019 . S
Zn408 N418 2.119 . S
Zn408 O426 1.975 . S
C409 N410 1.334 . S
C409 N413 1.336 . S
N410 C409 1.334 . S
N410 C411 1.334 . S
C411 N410 1.334 . S
C411 N412 1.336 . S
N412 Zn408 2.020 . S
N412 C411 1.336 . S
N412 N413 1.354 . S
N413 C409 1.336 . S
N413 N412 1.354 . S
N413 Zn417 2.020 . S
C414 O415 1.244 . S
C414 O438 1.257 . S
O415 C414 1.244 . S
O416 Zn408 2.019 . S
O416 C436 1.257 . S
Zn417 N413 2.020 . S
Zn417 O424 1.975 . S
Zn417 N433 2.119 . S
Zn417 O438 2.019 . S
N418 Zn408 2.119 . S
N418 C420 1.334 . S
N418 C421 1.328 . S
C419 C420 1.391 . S
C419 N422 1.329 . S
C419 H440 0.930 . S
C420 N418 1.334 . S
C420 C419 1.391 . S
C420 H427 0.930 . S
C421 N418 1.328 . S
C421 C423 1.392 . S
C421 H428 0.930 . S
N422 C419 1.329 . S
N422 C423 1.331 . S
C423 C421 1.392 . S
C423 N422 1.331 . S
O424 Zn417 1.975 . S
O424 C425 1.252 . S
C425 O424 1.252 . S
C425 O426 1.252 . S
O426 Zn408 1.975 . S
O426 C425 1.252 . S
H427 C420 0.930 . S
H428 C421 0.930 . S
C429 C430 1.392 . S
C429 N433 1.328 . S
C429 H435 0.930 . S
C430 C429 1.392 . S
C430 N434 1.331 . S
C431 C432 1.391 . S
C431 N434 1.329 . S
C431 H441 0.930 . S
C432 C431 1.391 . S
C432 N433 1.334 . S
C432 H439 0.930 . S
N433 Zn417 2.119 . S
N433 C429 1.328 . S
N433 C432 1.334 . S
N434 C430 1.331 . S
N434 C431 1.329 . S
H435 C429 0.930 . S
C436 O416 1.257 . S
C436 O437 1.244 . S
O437 C436 1.244 . S
O438 C414 1.257 . S
O438 Zn417 2.019 . S
H439 C432 0.930 . S
H440 C419 0.930 . S
H441 C431 0.930 . S
Zn442 N446 2.020 . S
Zn442 O450 2.019 . S
Zn442 N452 2.119 . S
Zn442 O460 1.975 . S
C443 N444 1.334 . S
C443 N447 1.336 . S
N444 C443 1.334 . S
N444 C445 1.334 . S
C445 N444 1.334 . S
C445 N446 1.336 . S
N446 Zn442 2.020 . S
N446 C445 1.336 . S
N446 N447 1.354 . S
N447 C443 1.336 . S
N447 N446 1.354 . S
N447 Zn451 2.020 . S
C448 O449 1.244 . S
C448 O472 1.257 . S
O449 C448 1.244 . S
O450 Zn442 2.019 . S
O450 C470 1.257 . S
Zn451 N447 2.020 . S
Zn451 O458 1.975 . S
Zn451 N467 2.119 1_565 S
Zn451 O472 2.019 . S
N452 Zn442 2.119 . S
N452 C454 1.334 . S
N452 C455 1.328 . S
C453 C454 1.391 . S
C453 N456 1.329 . S
C453 H474 0.930 . S
C454 N452 1.334 . S
C454 C453 1.391 . S
C454 H461 0.930 . S
C455 N452 1.328 . S
C455 C457 1.392 . S
C455 H462 0.930 . S
N456 C453 1.329 . S
N456 C457 1.331 . S
C457 C455 1.392 . S
C457 N456 1.331 . S
O458 Zn451 1.975 . S
O458 C459 1.252 . S
C459 O458 1.252 . S
C459 O460 1.252 . S
O460 Zn442 1.975 . S
O460 C459 1.252 . S
H461 C454 0.930 . S
H462 C455 0.930 . S
C463 C464 1.392 . S
C463 N467 1.328 . S
C463 H469 0.930 . S
C464 C463 1.392 . S
C464 N468 1.331 . S
C465 C466 1.391 . S
C465 N468 1.329 . S
C465 H475 0.930 . S
C466 C465 1.391 . S
C466 N467 1.334 . S
C466 H473 0.930 . S
N467 Zn451 2.119 1_545 S
N467 C463 1.328 . S
N467 C466 1.334 . S
N468 C464 1.331 . S
N468 C465 1.329 . S
H469 C463 0.930 . S
C470 O450 1.257 . S
C470 O471 1.244 1_565 S
O471 C470 1.244 1_545 S
O472 C448 1.257 . S
O472 Zn451 2.019 . S
H473 C466 0.930 . S
H474 C453 0.930 . S
H475 C465 0.930 . S
Zn476 N480 2.020 . S
Zn476 O484 2.019 1_556 S
Zn476 N486 2.119 . S
Zn476 O494 1.975 . S
C477 N478 1.334 . S
C477 N481 1.336 . S
N478 C477 1.334 . S
N478 C479 1.334 . S
C479 N478 1.334 . S
C479 N480 1.336 . S
N480 Zn476 2.020 . S
N480 C479 1.336 . S
N480 N481 1.354 . S
N481 C477 1.336 . S
N481 N480 1.354 . S
N481 Zn485 2.020 . S
C482 O483 1.244 . S
C482 O506 1.257 . S
O483 C482 1.244 . S
O484 Zn476 2.019 1_554 S
O484 C504 1.257 . S
Zn485 N481 2.020 . S
Zn485 O492 1.975 . S
Zn485 N501 2.119 . S
Zn485 O506 2.019 . S
N486 Zn476 2.119 . S
N486 C488 1.334 . S
N486 C489 1.328 . S
C487 C488 1.391 . S
C487 N490 1.329 . S
C487 H508 0.930 . S
C488 N486 1.334 . S
C488 C487 1.391 . S
C488 H495 0.930 . S
C489 N486 1.328 . S
C489 C491 1.392 . S
C489 H496 0.930 1_556 S
N490 C487 1.329 . S
N490 C491 1.331 . S
C491 C489 1.392 . S
C491 N490 1.331 . S
O492 Zn485 1.975 . S
O492 C493 1.252 . S
C493 O492 1.252 . S
C493 O494 1.252 . S
O494 Zn476 1.975 . S
O494 C493 1.252 . S
H495 C488 0.930 . S
H496 C489 0.930 1_554 S
C497 C498 1.392 . S
C497 N501 1.328 . S
C497 H503 0.930 . S
C498 C497 1.392 . S
C498 N502 1.331 . S
C499 C500 1.391 . S
C499 N502 1.329 . S
C499 H509 0.930 . S
C500 C499 1.391 . S
C500 N501 1.334 . S
C500 H507 0.930 . S
N501 Zn485 2.119 . S
N501 C497 1.328 . S
N501 C500 1.334 . S
N502 C498 1.331 . S
N502 C499 1.329 . S
H503 C497 0.930 . S
C504 O484 1.257 . S
C504 O505 1.244 . S
O505 C504 1.244 . S
O506 C482 1.257 . S
O506 Zn485 2.019 . S
H507 C500 0.930 . S
H508 C487 0.930 . S
H509 C499 0.930 . S
Zn510 N514 2.020 . S
Zn510 O518 2.019 . S
Zn510 N520 2.119 1_545 S
Zn510 O528 1.975 . S
C511 N512 1.334 . S
C511 N515 1.336 . S
N512 C511 1.334 . S
N512 C513 1.334 . S
C513 N512 1.334 . S
C513 N514 1.336 . S
N514 Zn510 2.020 . S
N514 C513 1.336 . S
N514 N515 1.354 . S
N515 C511 1.336 . S
N515 N514 1.354 . S
N515 Zn519 2.020 . S
C516 O517 1.244 1_545 S
C516 O540 1.257 . S
O517 C516 1.244 1_565 S
O518 Zn510 2.019 . S
O518 C538 1.257 . S
Zn519 N515 2.020 . S
Zn519 O526 1.975 . S
Zn519 N535 2.119 . S
Zn519 O540 2.019 . S
N520 Zn510 2.119 1_565 S
N520 C522 1.334 . S
N520 C523 1.328 . S
C521 C522 1.391 . S
C521 N524 1.329 . S
C521 H542 0.930 . S
C522 N520 1.334 . S
C522 C521 1.391 . S
C522 H529 0.930 . S
C523 N520 1.328 . S
C523 C525 1.392 . S
C523 H530 0.930 . S
N524 C521 1.329 . S
N524 C525 1.331 . S
C525 C523 1.392 . S
C525 N524 1.331 . S
O526 Zn519 1.975 . S
O526 C527 1.252 . S
C527 O526 1.252 . S
C527 O528 1.252 . S
O528 Zn510 1.975 . S
O528 C527 1.252 . S
H529 C522 0.930 . S
H530 C523 0.930 . S
C531 C532 1.392 . S
C531 N535 1.328 . S
C531 H537 0.930 . S
C532 C531 1.392 . S
C532 N536 1.331 . S
C533 C534 1.391 . S
C533 N536 1.329 . S
C533 H543 0.930 . S
C534 C533 1.391 . S
C534 N535 1.334 . S
C534 H541 0.930 . S
N535 Zn519 2.119 . S
N535 C531 1.328 . S
N535 C534 1.334 . S
N536 C532 1.331 . S
N536 C533 1.329 . S
H537 C531 0.930 . S
C538 O518 1.257 . S
C538 O539 1.244 . S
O539 C538 1.244 . S
O540 C516 1.257 . S
O540 Zn519 2.019 . S
H541 C534 0.930 . S
H542 C521 0.930 . S
H543 C533 0.930 . S
H544 C552 0.929 . S
H545 C554 0.930 . S
H546 C556 0.930 . S
H547 C559 0.929 . S
H548 C562 0.930 . S
H549 C564 0.960 . S
H550 C564 0.960 . S
H551 C564 0.960 . S
C552 H544 0.929 . S
C552 C553 1.377 . S
C552 C554 1.384 . S
C553 C552 1.377 . S
C553 C559 1.390 . S
C554 H545 0.930 . S
C554 C552 1.384 . S
C554 C555 1.372 . S
C555 C554 1.372 . S
C555 C556 1.400 . S
C555 C560 1.490 . S
C556 H546 0.930 . S
C556 C555 1.400 . S
C556 C559 1.386 . S
H557 C573 0.930 . S
H558 C574 0.931 . S
C559 H547 0.929 . S
C559 C553 1.390 . S
C559 C556 1.386 . S
C560 C555 1.490 . S
C560 C562 1.395 . S
C560 C563 1.403 . S
H561 C567 0.930 . S
C562 H548 0.930 . S
C562 C560 1.395 . S
C562 C565 1.403 . S
C563 C560 1.403 . S
C563 C564 1.524 . S
C563 C567 1.400 . S
C564 H549 0.960 . S
C564 H550 0.960 . S
C564 H551 0.960 . S
C564 C563 1.524 . S
C565 C562 1.403 . S
C565 C566 1.392 . S
C565 C569 1.495 . S
C566 C565 1.392 . S
C566 C567 1.385 . S
C566 C568 1.478 . S
C567 H561 0.930 . S
C567 C563 1.400 . S
C567 C566 1.385 . S
C568 C566 1.478 . S
C568 C570 1.381 . S
C568 C574 1.383 . S
C569 C565 1.495 . S
C569 H575 0.959 . S
C569 H576 0.961 . S
C569 H577 0.960 . S
C570 C568 1.381 . S
C570 C571 1.394 . S
C570 H578 0.930 . S
C571 C570 1.394 . S
C571 C572 1.383 . S
C571 H579 0.929 . S
C572 C571 1.383 . S
C572 C573 1.377 . S
C573 H557 0.930 . S
C573 C572 1.377 . S
C573 C574 1.379 . S
C574 H558 0.931 . S
C574 C568 1.383 . S
C574 C573 1.379 . S
H575 C569 0.959 . S
H576 C569 0.961 . S
H577 C569 0.960 . S
H578 C570 0.930 . S
H579 C571 0.929 . S
H580 C588 0.929 . S
H581 C590 0.930 . S
H582 C592 0.930 . S
H583 C595 0.929 . S
H584 C598 0.930 . S
H585 C600 0.960 . S
H586 C600 0.960 . S
H587 C600 0.960 . S
C588 H580 0.929 . S
C588 C589 1.377 . S
C588 C590 1.384 . S
C589 C588 1.377 . S
C589 C595 1.390 . S
C590 H581 0.930 . S
C590 C588 1.384 . S
C590 C591 1.372 . S
C591 C590 1.372 . S
C591 C592 1.400 . S
C591 C596 1.490 . S
C592 H582 0.930 . S
C592 C591 1.400 . S
C592 C595 1.386 . S
H593 C609 0.930 . S
H594 C610 0.931 . S
C595 H583 0.929 . S
C595 C589 1.390 . S
C595 C592 1.386 . S
C596 C591 1.490 . S
C596 C598 1.395 . S
C596 C599 1.403 . S
H597 C603 0.930 . S
C598 H584 0.930 . S
C598 C596 1.395 . S
C598 C601 1.403 . S
C599 C596 1.403 . S
C599 C600 1.524 . S
C599 C603 1.400 . S
C600 H585 0.960 . S
C600 H586 0.960 . S
C600 H587 0.960 . S
C600 C599 1.524 . S
C601 C598 1.403 . S
C601 C602 1.392 . S
C601 C605 1.495 . S
C602 C601 1.392 . S
C602 C603 1.385 . S
C602 C604 1.478 . S
C603 H597 0.930 . S
C603 C599 1.400 . S
C603 C602 1.385 . S
C604 C602 1.478 . S
C604 C606 1.381 . S
C604 C610 1.383 . S
C605 C601 1.495 . S
C605 H611 0.959 . S
C605 H612 0.961 . S
C605 H613 0.960 . S
C606 C604 1.381 . S
C606 C607 1.394 . S
C606 H614 0.930 . S
C607 C606 1.394 . S
C607 C608 1.383 . S
C607 H615 0.929 . S
C608 C607 1.383 . S
C608 C609 1.377 . S
C609 H593 0.930 . S
C609 C608 1.377 . S
C609 C610 1.379 . S
C610 H594 0.931 . S
C610 C604 1.383 . S
C610 C609 1.379 . S
H611 C605 0.959 . S
H612 C605 0.961 . S
H613 C605 0.960 . S
H614 C606 0.930 . S
H615 C607 0.929 . S
H616 C624 0.929 . S
H617 C626 0.930 . S
H618 C628 0.930 . S
H619 C631 0.929 . S
H620 C634 0.930 . S
H621 C636 0.960 . S
H622 C636 0.960 . S
H623 C636 0.960 . S
C624 H616 0.929 . S
C624 C625 1.377 . S
C624 C626 1.384 . S
C625 C624 1.377 . S
C625 C631 1.390 . S
C626 H617 0.930 . S
C626 C624 1.384 . S
C626 C627 1.372 . S
C627 C626 1.372 . S
C627 C628 1.400 . S
C627 C632 1.490 . S
C628 H618 0.930 . S
C628 C627 1.400 . S
C628 C631 1.386 . S
H629 C645 0.930 . S
H630 C646 0.931 . S
C631 H619 0.929 . S
C631 C625 1.390 . S
C631 C628 1.386 . S
C632 C627 1.490 . S
C632 C634 1.395 . S
C632 C635 1.403 . S
H633 C639 0.930 . S
C634 H620 0.930 . S
C634 C632 1.395 . S
C634 C637 1.403 . S
C635 C632 1.403 . S
C635 C636 1.524 . S
C635 C639 1.400 . S
C636 H621 0.960 . S
C636 H622 0.960 . S
C636 H623 0.960 . S
C636 C635 1.524 . S
C637 C634 1.403 . S
C637 C638 1.392 . S
C637 C641 1.495 . S
C638 C637 1.392 . S
C638 C639 1.385 . S
C638 C640 1.478 . S
C639 H633 0.930 . S
C639 C635 1.400 . S
C639 C638 1.385 . S
C640 C638 1.478 . S
C640 C642 1.381 . S
C640 C646 1.383 . S
C641 C637 1.495 . S
C641 H647 0.959 . S
C641 H648 0.961 . S
C641 H649 0.960 . S
C642 C640 1.381 . S
C642 C643 1.394 . S
C642 H650 0.930 . S
C643 C642 1.394 . S
C643 C644 1.383 . S
C643 H651 0.929 . S
C644 C643 1.383 . S
C644 C645 1.377 . S
C645 H629 0.930 . S
C645 C644 1.377 . S
C645 C646 1.379 . S
C646 H630 0.931 . S
C646 C640 1.383 . S
C646 C645 1.379 . S
H647 C641 0.959 . S
H648 C641 0.961 . S
H649 C641 0.960 . S
H650 C642 0.930 . S
H651 C643 0.929 . S
H652 C660 0.929 . S
H653 C662 0.930 . S
H654 C664 0.930 . S
H655 C667 0.929 . S
H656 C670 0.930 . S
H657 C672 0.960 . S
H658 C672 0.960 . S
H659 C672 0.960 . S
C660 H652 0.929 . S
C660 C661 1.377 . S
C660 C662 1.384 . S
C661 C660 1.377 . S
C661 C667 1.390 . S
C662 H653 0.930 . S
C662 C660 1.384 . S
C662 C663 1.372 . S
C663 C662 1.372 . S
C663 C664 1.400 . S
C663 C668 1.490 . S
C664 H654 0.930 . S
C664 C663 1.400 . S
C664 C667 1.386 . S
H665 C681 0.930 . S
H666 C682 0.931 1_455 S
C667 H655 0.929 . S
C667 C661 1.390 . S
C667 C664 1.386 . S
C668 C663 1.490 . S
C668 C670 1.395 . S
C668 C671 1.403 . S
H669 C675 0.930 . S
C670 H656 0.930 . S
C670 C668 1.395 . S
C670 C673 1.403 . S
C671 C668 1.403 . S
C671 C672 1.524 . S
C671 C675 1.400 . S
C672 H657 0.960 . S
C672 H658 0.960 . S
C672 H659 0.960 . S
C672 C671 1.524 . S
C673 C670 1.403 . S
C673 C674 1.392 . S
C673 C677 1.495 1_455 S
C674 C673 1.392 . S
C674 C675 1.385 . S
C674 C676 1.478 1_455 S
C675 H669 0.930 . S
C675 C671 1.400 . S
C675 C674 1.385 . S
C676 C674 1.478 1_655 S
C676 C678 1.381 . S
C676 C682 1.383 . S
C677 C673 1.495 1_655 S
C677 H683 0.959 . S
C677 H684 0.961 . S
C677 H685 0.960 . S
C678 C676 1.381 . S
C678 C679 1.394 . S
C678 H686 0.930 . S
C679 C678 1.394 . S
C679 C680 1.383 . S
C679 H687 0.929 . S
C680 C679 1.383 . S
C680 C681 1.377 . S
C681 H665 0.930 . S
C681 C680 1.377 . S
C681 C682 1.379 . S
C682 H666 0.931 1_655 S
C682 C676 1.383 . S
C682 C681 1.379 . S
H683 C677 0.959 . S
H684 C677 0.961 . S
H685 C677 0.960 . S
H686 C678 0.930 . S
H687 C679 0.929 . S
H688 C696 0.929 . S
H689 C698 0.930 . S
H690 C700 0.930 . S
H691 C703 0.929 . S
H692 C706 0.930 . S
H693 C708 0.960 . S
H694 C708 0.960 . S
H695 C708 0.960 . S
C696 H688 0.929 . S
C696 C697 1.377 . S
C696 C698 1.384 . S
C697 C696 1.377 . S
C697 C703 1.390 . S
C698 H689 0.930 . S
C698 C696 1.384 . S
C698 C699 1.372 . S
C699 C698 1.372 . S
C699 C700 1.400 . S
C699 C704 1.490 . S
C700 H690 0.930 . S
C700 C699 1.400 . S
C700 C703 1.386 . S
H701 C717 0.930 . S
H702 C718 0.931 . S
C703 H691 0.929 . S
C703 C697 1.390 . S
C703 C700 1.386 . S
C704 C699 1.490 . S
C704 C706 1.395 . S
C704 C707 1.403 . S
H705 C711 0.930 . S
C706 H692 0.930 . S
C706 C704 1.395 . S
C706 C709 1.403 . S
C707 C704 1.403 . S
C707 C708 1.524 . S
C707 C711 1.400 . S
C708 H693 0.960 . S
C708 H694 0.960 . S
C708 H695 0.960 . S
C708 C707 1.524 . S
C709 C706 1.403 . S
C709 C710 1.392 . S
C709 C713 1.495 . S
C710 C709 1.392 . S
C710 C711 1.385 . S
C710 C712 1.478 . S
C711 H705 0.930 . S
C711 C707 1.400 . S
C711 C710 1.385 . S
C712 C710 1.478 . S
C712 C714 1.381 . S
C712 C718 1.383 . S
C713 C709 1.495 . S
C713 H719 0.959 . S
C713 H720 0.961 . S
C713 H721 0.960 . S
C714 C712 1.381 . S
C714 C715 1.394 . S
C714 H722 0.930 . S
C715 C714 1.394 . S
C715 C716 1.383 . S
C715 H723 0.929 . S
C716 C715 1.383 . S
C716 C717 1.377 . S
C717 H701 0.930 . S
C717 C716 1.377 . S
C717 C718 1.379 . S
C718 H702 0.931 . S
C718 C712 1.383 . S
C718 C717 1.379 . S
H719 C713 0.959 . S
H720 C713 0.961 . S
H721 C713 0.960 . S
H722 C714 0.930 . S
H723 C715 0.929 . S
H724 C732 0.929 . S
H725 C734 0.930 . S
H726 C736 0.930 . S
H727 C739 0.929 . S
H728 C742 0.930 . S
H729 C744 0.960 . S
H730 C744 0.960 . S
H731 C744 0.960 . S
C732 H724 0.929 . S
C732 C733 1.377 . S
C732 C734 1.384 . S
C733 C732 1.377 . S
C733 C739 1.390 . S
C734 H725 0.930 . S
C734 C732 1.384 . S
C734 C735 1.372 . S
C735 C734 1.372 . S
C735 C736 1.400 . S
C735 C740 1.490 . S
C736 H726 0.930 . S
C736 C735 1.400 . S
C736 C739 1.386 . S
H737 C753 0.930 . S
H738 C754 0.931 . S
C739 H727 0.929 . S
C739 C733 1.390 . S
C739 C736 1.386 . S
C740 C735 1.490 . S
C740 C742 1.395 . S
C740 C743 1.403 . S
H741 C747 0.930 . S
C742 H728 0.930 . S
C742 C740 1.395 . S
C742 C745 1.403 . S
C743 C740 1.403 . S
C743 C744 1.524 . S
C743 C747 1.400 . S
C744 H729 0.960 . S
C744 H730 0.960 . S
C744 H731 0.960 . S
C744 C743 1.524 . S
C745 C742 1.403 . S
C745 C746 1.392 . S
C745 C749 1.495 . S
C746 C745 1.392 . S
C746 C747 1.385 . S
C746 C748 1.478 . S
C747 H741 0.930 . S
C747 C743 1.400 . S
C747 C746 1.385 . S
C748 C746 1.478 . S
C748 C750 1.381 . S
C748 C754 1.383 . S
C749 C745 1.495 . S
C749 H755 0.959 . S
C749 H756 0.961 . S
C749 H757 0.960 . S
C750 C748 1.381 . S
C750 C751 1.394 . S
C750 H758 0.930 . S
C751 C750 1.394 . S
C751 C752 1.383 . S
C751 H759 0.929 . S
C752 C751 1.383 . S
C752 C753 1.377 . S
C753 H737 0.930 . S
C753 C752 1.377 . S
C753 C754 1.379 . S
C754 H738 0.931 . S
C754 C748 1.383 . S
C754 C753 1.379 . S
H755 C749 0.959 . S
H756 C749 0.961 . S
H757 C749 0.960 . S
H758 C750 0.930 . S
H759 C751 0.929 . S
H760 C768 0.929 . S
H761 C770 0.930 . S
H762 C772 0.930 . S
H763 C775 0.929 . S
H764 C778 0.930 . S
H765 C780 0.960 . S
H766 C780 0.960 . S
H767 C780 0.960 . S
C768 H760 0.929 . S
C768 C769 1.377 . S
C768 C770 1.384 . S
C769 C768 1.377 . S
C769 C775 1.390 . S
C770 H761 0.930 . S
C770 C768 1.384 . S
C770 C771 1.372 . S
C771 C770 1.372 . S
C771 C772 1.400 . S
C771 C776 1.490 . S
C772 H762 0.930 . S
C772 C771 1.400 . S
C772 C775 1.386 . S
H773 C789 0.930 . S
H774 C790 0.931 . S
C775 H763 0.929 . S
C775 C769 1.390 . S
C775 C772 1.386 . S
C776 C771 1.490 . S
C776 C778 1.395 . S
C776 C779 1.403 . S
H777 C783 0.930 . S
C778 H764 0.930 . S
C778 C776 1.395 . S
C778 C781 1.403 . S
C779 C776 1.403 . S
C779 C780 1.524 . S
C779 C783 1.400 . S
C780 H765 0.960 . S
C780 H766 0.960 . S
C780 H767 0.960 . S
C780 C779 1.524 . S
C781 C778 1.403 . S
C781 C782 1.392 . S
C781 C785 1.495 . S
C782 C781 1.392 . S
C782 C783 1.385 . S
C782 C784 1.478 . S
C783 H777 0.930 . S
C783 C779 1.400 . S
C783 C782 1.385 . S
C784 C782 1.478 . S
C784 C786 1.381 . S
C784 C790 1.383 . S
C785 C781 1.495 . S
C785 H791 0.959 . S
C785 H792 0.961 . S
C785 H793 0.960 . S
C786 C784 1.381 . S
C786 C787 1.394 . S
C786 H794 0.930 . S
C787 C786 1.394 . S
C787 C788 1.383 . S
C787 H795 0.929 . S
C788 C787 1.383 . S
C788 C789 1.377 . S
C789 H773 0.930 . S
C789 C788 1.377 . S
C789 C790 1.379 . S
C790 H774 0.931 . S
C790 C784 1.383 . S
C790 C789 1.379 . S
H791 C785 0.959 . S
H792 C785 0.961 . S
H793 C785 0.960 . S
H794 C786 0.930 . S
H795 C787 0.929 . S
H796 C804 0.929 . S
H797 C806 0.930 . S
H798 C808 0.930 . S
H799 C811 0.929 . S
H800 C814 0.930 . S
H801 C816 0.960 1_455 S
H802 C816 0.960 . S
H803 C816 0.960 . S
C804 H796 0.929 . S
C804 C805 1.377 . S
C804 C806 1.384 . S
C805 C804 1.377 . S
C805 C811 1.390 . S
C806 H797 0.930 . S
C806 C804 1.384 . S
C806 C807 1.372 . S
C807 C806 1.372 . S
C807 C808 1.400 . S
C807 C812 1.490 . S
C808 H798 0.930 . S
C808 C807 1.400 . S
C808 C811 1.386 . S
H809 C825 0.930 . S
H810 C826 0.931 1_655 S
C811 H799 0.929 . S
C811 C805 1.390 . S
C811 C808 1.386 . S
C812 C807 1.490 . S
C812 C814 1.395 . S
C812 C815 1.403 . S
H813 C819 0.930 1_455 S
C814 H800 0.930 . S
C814 C812 1.395 . S
C814 C817 1.403 . S
C815 C812 1.403 . S
C815 C816 1.524 . S
C815 C819 1.400 . S
C816 H801 0.960 1_655 S
C816 H802 0.960 . S
C816 H803 0.960 . S
C816 C815 1.524 . S
C817 C814 1.403 . S
C817 C818 1.392 . S
C817 C821 1.495 . S
C818 C817 1.392 . S
C818 C819 1.385 . S
C818 C820 1.478 . S
C819 H813 0.930 1_655 S
C819 C815 1.400 . S
C819 C818 1.385 . S
C820 C818 1.478 . S
C820 C822 1.381 1_655 S
C820 C826 1.383 1_655 S
C821 C817 1.495 . S
C821 H827 0.959 . S
C821 H828 0.961 . S
C821 H829 0.960 . S
C822 C820 1.381 1_455 S
C822 C823 1.394 . S
C822 H830 0.930 . S
C823 C822 1.394 . S
C823 C824 1.383 . S
C823 H831 0.929 . S
C824 C823 1.383 . S
C824 C825 1.377 . S
C825 H809 0.930 . S
C825 C824 1.377 . S
C825 C826 1.379 . S
C826 H810 0.931 1_455 S
C826 C820 1.383 1_455 S
C826 C825 1.379 . S
H827 C821 0.959 . S
H828 C821 0.961 . S
H829 C821 0.960 . S
H830 C822 0.930 . S
H831 C823 0.929 . S
H832 C840 0.929 . S
H833 C842 0.930 . S
H834 C844 0.930 . S
H835 C847 0.929 . S
H836 C850 0.930 . S
H837 C852 0.960 . S
H838 C852 0.960 . S
H839 C852 0.960 . S
C840 H832 0.929 . S
C840 C841 1.377 . S
C840 C842 1.384 . S
C841 C840 1.377 . S
C841 C847 1.390 . S
C842 H833 0.930 . S
C842 C840 1.384 . S
C842 C843 1.372 . S
C843 C842 1.372 . S
C843 C844 1.400 . S
C843 C848 1.490 . S
C844 H834 0.930 . S
C844 C843 1.400 . S
C844 C847 1.386 . S
H845 C861 0.930 . S
H846 C862 0.931 . S
C847 H835 0.929 . S
C847 C841 1.390 . S
C847 C844 1.386 . S
C848 C843 1.490 . S
C848 C850 1.395 . S
C848 C851 1.403 . S
H849 C855 0.930 . S
C850 H836 0.930 . S
C850 C848 1.395 . S
C850 C853 1.403 . S
C851 C848 1.403 . S
C851 C852 1.524 . S
C851 C855 1.400 . S
C852 H837 0.960 . S
C852 H838 0.960 . S
C852 H839 0.960 . S
C852 C851 1.524 . S
C853 C850 1.403 . S
C853 C854 1.392 . S
C853 C857 1.495 . S
C854 C853 1.392 . S
C854 C855 1.385 . S
C854 C856 1.478 . S
C855 H849 0.930 . S
C855 C851 1.400 . S
C855 C854 1.385 . S
C856 C854 1.478 . S
C856 C858 1.381 . S
C856 C862 1.383 . S
C857 C853 1.495 . S
C857 H863 0.959 . S
C857 H864 0.961 . S
C857 H865 0.960 . S
C858 C856 1.381 . S
C858 C859 1.394 . S
C858 H866 0.930 . S
C859 C858 1.394 . S
C859 C860 1.383 . S
C859 H867 0.929 . S
C860 C859 1.383 . S
C860 C861 1.377 . S
C861 H845 0.930 . S
C861 C860 1.377 . S
C861 C862 1.379 . S
C862 H846 0.931 . S
C862 C856 1.383 . S
C862 C861 1.379 . S
H863 C857 0.959 . S
H864 C857 0.961 . S
H865 C857 0.960 . S
H866 C858 0.930 . S
H867 C859 0.929 . S
H868 C876 0.929 . S
H869 C878 0.930 . S
H870 C880 0.930 1_655 S
H871 C883 0.929 . S
H872 C886 0.930 1_455 S
H873 C888 0.960 . S
H874 C888 0.960 . S
H875 C888 0.960 1_545 S
C876 H868 0.929 . S
C876 C877 1.377 . S
C876 C878 1.384 . S
C877 C876 1.377 . S
C877 C883 1.390 1_565 S
C878 H869 0.930 . S
C878 C876 1.384 . S
C878 C879 1.372 . S
C879 C878 1.372 . S
C879 C880 1.400 1_565 S
C879 C884 1.490 1_455 S
C880 H870 0.930 1_455 S
C880 C879 1.400 1_545 S
C880 C883 1.386 . S
H881 C897 0.930 . S
H882 C898 0.931 . S
C883 H871 0.929 . S
C883 C877 1.390 1_545 S
C883 C880 1.386 . S
C884 C879 1.490 1_655 S
C884 C886 1.395 . S
C884 C887 1.403 . S
H885 C891 0.930 . S
C886 H872 0.930 1_655 S
C886 C884 1.395 . S
C886 C889 1.403 . S
C887 C884 1.403 . S
C887 C888 1.524 . S
C887 C891 1.400 . S
C888 H873 0.960 . S
C888 H874 0.960 . S
C888 H875 0.960 1_565 S
C888 C887 1.524 . S
C889 C886 1.403 . S
C889 C890 1.392 . S
C889 C893 1.495 . S
C890 C889 1.392 . S
C890 C891 1.385 . S
C890 C892 1.478 . S
C891 H885 0.930 . S
C891 C887 1.400 . S
C891 C890 1.385 . S
C892 C890 1.478 . S
C892 C894 1.381 . S
C892 C898 1.383 . S
C893 C889 1.495 . S
C893 H899 0.959 1_655 S
C893 H900 0.961 . S
C893 H901 0.960 . S
C894 C892 1.381 . S
C894 C895 1.394 . S
C894 H902 0.930 . S
C895 C894 1.394 . S
C895 C896 1.383 . S
C895 H903 0.929 . S
C896 C895 1.383 . S
C896 C897 1.377 . S
C897 H881 0.930 . S
C897 C896 1.377 . S
C897 C898 1.379 . S
C898 H882 0.931 . S
C898 C892 1.383 . S
C898 C897 1.379 . S
H899 C893 0.959 1_455 S
H900 C893 0.961 . S
H901 C893 0.960 . S
H902 C894 0.930 . S
H903 C895 0.929 . S
H904 C912 0.929 . S
H905 C914 0.930 . S
H906 C916 0.930 . S
H907 C919 0.929 . S
H908 C922 0.930 . S
H909 C924 0.960 . S
H910 C924 0.960 . S
H911 C924 0.960 . S
C912 H904 0.929 . S
C912 C913 1.377 . S
C912 C914 1.384 . S
C913 C912 1.377 . S
C913 C919 1.390 . S
C914 H905 0.930 . S
C914 C912 1.384 . S
C914 C915 1.372 . S
C915 C914 1.372 . S
C915 C916 1.400 . S
C915 C920 1.490 . S
C916 H906 0.930 . S
C916 C915 1.400 . S
C916 C919 1.386 . S
H917 C933 0.930 . S
H918 C934 0.931 . S
C919 H907 0.929 . S
C919 C913 1.390 . S
C919 C916 1.386 . S
C920 C915 1.490 . S
C920 C922 1.395 . S
C920 C923 1.403 . S
H921 C927 0.930 . S
C922 H908 0.930 . S
C922 C920 1.395 . S
C922 C925 1.403 . S
C923 C920 1.403 . S
C923 C924 1.524 . S
C923 C927 1.400 . S
C924 H909 0.960 . S
C924 H910 0.960 . S
C924 H911 0.960 . S
C924 C923 1.524 . S
C925 C922 1.403 . S
C925 C926 1.392 . S
C925 C929 1.495 . S
C926 C925 1.392 . S
C926 C927 1.385 . S
C926 C928 1.478 . S
C927 H921 0.930 . S
C927 C923 1.400 . S
C927 C926 1.385 . S
C928 C926 1.478 . S
C928 C930 1.381 . S
C928 C934 1.383 . S
C929 C925 1.495 . S
C929 H935 0.959 . S
C929 H936 0.961 . S
C929 H937 0.960 . S
C930 C928 1.381 . S
C930 C931 1.394 . S
C930 H938 0.930 . S
C931 C930 1.394 . S
C931 C932 1.383 . S
C931 H939 0.929 . S
C932 C931 1.383 . S
C932 C933 1.377 . S
C933 H917 0.930 . S
C933 C932 1.377 . S
C933 C934 1.379 . S
C934 H918 0.931 . S
C934 C928 1.383 . S
C934 C933 1.379 . S
H935 C929 0.959 . S
H936 C929 0.961 . S
H937 C929 0.960 . S
H938 C930 0.930 . S
H939 C931 0.929 . S
H940 C948 0.929 . S
H941 C950 0.930 . S
H942 C952 0.930 . S
H943 C955 0.929 . S
H944 C958 0.930 . S
H945 C960 0.960 . S
H946 C960 0.960 . S
H947 C960 0.960 . S
C948 H940 0.929 . S
C948 C949 1.377 . S
C948 C950 1.384 . S
C949 C948 1.377 . S
C949 C955 1.390 . S
C950 H941 0.930 . S
C950 C948 1.384 . S
C950 C951 1.372 . S
C951 C950 1.372 . S
C951 C952 1.400 . S
C951 C956 1.490 . S
C952 H942 0.930 . S
C952 C951 1.400 . S
C952 C955 1.386 . S
H953 C969 0.930 . S
H954 C970 0.931 . S
C955 H943 0.929 . S
C955 C949 1.390 . S
C955 C952 1.386 . S
C956 C951 1.490 . S
C956 C958 1.395 . S
C956 C959 1.403 . S
H957 C963 0.930 . S
C958 H944 0.930 . S
C958 C956 1.395 . S
C958 C961 1.403 . S
C959 C956 1.403 . S
C959 C960 1.524 . S
C959 C963 1.400 . S
C960 H945 0.960 . S
C960 H946 0.960 . S
C960 H947 0.960 . S
C960 C959 1.524 . S
C961 C958 1.403 . S
C961 C962 1.392 . S
C961 C965 1.495 . S
C962 C961 1.392 . S
C962 C963 1.385 . S
C962 C964 1.478 . S
C963 H957 0.930 . S
C963 C959 1.400 . S
C963 C962 1.385 . S
C964 C962 1.478 . S
C964 C966 1.381 . S
C964 C970 1.383 1_545 S
C965 C961 1.495 . S
C965 H971 0.961 . S
C965 H972 0.961 1_545 S
C965 H973 0.960 . S
C966 C964 1.381 . S
C966 C967 1.394 . S
C966 H974 0.930 . S
C967 C966 1.394 . S
C967 C968 1.383 . S
C967 H975 0.929 . S
C968 C967 1.383 . S
C968 C969 1.377 1_545 S
C969 H953 0.930 . S
C969 C968 1.377 1_565 S
C969 C970 1.379 . S
C970 H954 0.931 . S
C970 C964 1.383 1_565 S
C970 C969 1.379 . S
H971 C965 0.961 . S
H972 C965 0.961 1_565 S
H973 C965 0.960 . S
H974 C966 0.930 . S
H975 C967 0.929 . S
H976 C984 0.929 . S
H977 C986 0.930 . S
H978 C988 0.930 . S
H979 C991 0.929 . S
H980 C994 0.930 . S
H981 C996 0.960 . S
H982 C996 0.960 . S
H983 C996 0.960 . S
C984 H976 0.929 . S
C984 C985 1.377 . S
C984 C986 1.384 . S
C985 C984 1.377 . S
C985 C991 1.390 . S
C986 H977 0.930 . S
C986 C984 1.384 . S
C986 C987 1.372 . S
C987 C986 1.372 . S
C987 C988 1.400 . S
C987 C992 1.490 . S
C988 H978 0.930 . S
C988 C987 1.400 . S
C988 C991 1.386 . S
H989 C1005 0.930 . S
H990 C1006 0.931 . S
C991 H979 0.929 . S
C991 C985 1.390 . S
C991 C988 1.386 . S
C992 C987 1.490 . S
C992 C994 1.395 . S
C992 C995 1.403 . S
H993 C999 0.930 . S
C994 H980 0.930 . S
C994 C992 1.395 . S
C994 C997 1.403 . S
C995 C992 1.403 . S
C995 C996 1.524 . S
C995 C999 1.400 . S
C996 H981 0.960 . S
C996 H982 0.960 . S
C996 H983 0.960 . S
C996 C995 1.524 . S
C997 C994 1.403 . S
C997 C998 1.392 . S
C997 C1001 1.495 . S
C998 C997 1.392 . S
C998 C999 1.385 . S
C998 C1000 1.478 . S
C999 H993 0.930 . S
C999 C995 1.400 . S
C999 C998 1.385 . S
C1000 C998 1.478 . S
C1000 C1002 1.381 . S
C1000 C1006 1.383 . S
C1001 C997 1.495 . S
C1001 H1007 0.959 . S
C1001 H1008 0.961 . S
C1001 H1009 0.960 . S
C1002 C1000 1.381 . S
C1002 C1003 1.394 . S
C1002 H1010 0.930 . S
C1003 C1002 1.394 . S
C1003 C1004 1.383 . S
C1003 H1011 0.929 . S
C1004 C1003 1.383 . S
C1004 C1005 1.377 . S
C1005 H989 0.930 . S
C1005 C1004 1.377 . S
C1005 C1006 1.379 . S
C1006 H990 0.931 . S
C1006 C1000 1.383 . S
C1006 C1005 1.379 . S
H1007 C1001 0.959 . S
H1008 C1001 0.961 . S
H1009 C1001 0.960 . S
H1010 C1002 0.930 . S
H1011 C1003 0.929 . S
H1012 C1020 0.929 . S
H1013 C1022 0.921 1_455 S
H1014 C1024 0.930 . S
H1015 C1027 0.929 . S
H1016 C1030 0.930 1_655 S
H1017 C1032 0.960 . S
H1018 C1032 0.960 . S
H1019 C1032 0.960 . S
C1020 H1012 0.929 . S
C1020 C1021 1.377 1_565 S
C1020 C1022 1.384 . S
C1021 C1020 1.377 1_545 S
C1021 C1027 1.390 . S
C1022 H1013 0.921 1_655 S
C1022 C1020 1.384 . S
C1022 C1023 1.372 1_565 S
C1023 C1022 1.372 1_545 S
C1023 C1024 1.400 . S
C1023 C1028 1.490 1_655 S
C1024 H1014 0.930 . S
C1024 C1023 1.400 . S
C1024 C1027 1.386 . S
H1025 C1041 0.930 . S
H1026 C1042 0.931 . S
C1027 H1015 0.929 . S
C1027 C1021 1.390 . S
C1027 C1024 1.386 . S
C1028 C1023 1.490 1_455 S
C1028 C1030 1.395 . S
C1028 C1031 1.403 . S
H1029 C1035 0.930 . S
C1030 H1016 0.930 1_455 S
C1030 C1028 1.395 . S
C1030 C1033 1.403 . S
C1031 C1028 1.403 . S
C1031 C1032 1.524 . S
C1031 C1035 1.400 . S
C1032 H1017 0.960 . S
C1032 H1018 0.960 . S
C1032 H1019 0.960 . S
C1032 C1031 1.524 . S
C1033 C1030 1.403 . S
C1033 C1034 1.392 . S
C1033 C1037 1.495 . S
C1034 C1033 1.392 . S
C1034 C1035 1.385 . S
C1034 C1036 1.478 . S
C1035 H1029 0.930 . S
C1035 C1031 1.400 . S
C1035 C1034 1.385 . S
C1036 C1034 1.478 . S
C1036 C1038 1.381 . S
C1036 C1042 1.383 . S
C1037 C1033 1.495 . S
C1037 H1043 0.959 1_445 S
C1037 H1044 0.961 . S
C1037 H1045 0.960 1_545 S
C1038 C1036 1.381 . S
C1038 C1039 1.394 . S
C1038 H1046 0.930 . S
C1039 C1038 1.394 . S
C1039 C1040 1.383 . S
C1039 H1047 0.929 . S
C1040 C1039 1.383 . S
C1040 C1041 1.377 . S
C1041 H1025 0.930 . S
C1041 C1040 1.377 . S
C1041 C1042 1.379 . S
C1042 H1026 0.931 . S
C1042 C1036 1.383 . S
C1042 C1041 1.379 . S
H1043 C1037 0.959 1_665 S
H1044 C1037 0.961 . S
H1045 C1037 0.960 1_565 S
H1046 C1038 0.930 . S
H1047 C1039 0.929 . S
H1048 C1056 0.929 . S
H1049 C1058 0.930 . S
H1050 C1060 0.930 . S
H1051 C1063 0.929 . S
H1052 C1066 0.930 . S
H1053 C1068 0.960 . S
H1054 C1068 0.960 . S
H1055 C1068 0.960 . S
C1056 H1048 0.929 . S
C1056 C1057 1.377 . S
C1056 C1058 1.384 . S
C1057 C1056 1.377 . S
C1057 C1063 1.390 . S
C1058 H1049 0.930 . S
C1058 C1056 1.384 . S
C1058 C1059 1.372 . S
C1059 C1058 1.372 . S
C1059 C1060 1.400 . S
C1059 C1064 1.490 . S
C1060 H1050 0.930 . S
C1060 C1059 1.400 . S
C1060 C1063 1.386 . S
H1061 C1077 0.930 . S
H1062 C1078 0.931 . S
C1063 H1051 0.929 . S
C1063 C1057 1.390 . S
C1063 C1060 1.386 . S
C1064 C1059 1.490 . S
C1064 C1066 1.395 . S
C1064 C1067 1.403 . S
H1065 C1071 0.930 . S
C1066 H1052 0.930 . S
C1066 C1064 1.395 . S
C1066 C1069 1.403 . S
C1067 C1064 1.403 . S
C1067 C1068 1.524 . S
C1067 C1071 1.400 . S
C1068 H1053 0.960 . S
C1068 H1054 0.960 . S
C1068 H1055 0.960 . S
C1068 C1067 1.524 . S
C1069 C1066 1.403 . S
C1069 C1070 1.392 . S
C1069 C1073 1.495 . S
C1070 C1069 1.392 . S
C1070 C1071 1.385 . S
C1070 C1072 1.478 . S
C1071 H1065 0.930 . S
C1071 C1067 1.400 . S
C1071 C1070 1.385 . S
C1072 C1070 1.478 . S
C1072 C1074 1.381 . S
C1072 C1078 1.383 . S
C1073 C1069 1.495 . S
C1073 H1079 0.959 . S
C1073 H1080 0.961 . S
C1073 H1081 0.960 . S
C1074 C1072 1.381 . S
C1074 C1075 1.394 . S
C1074 H1082 0.930 . S
C1075 C1074 1.394 . S
C1075 C1076 1.383 . S
C1075 H1083 0.929 . S
C1076 C1075 1.383 . S
C1076 C1077 1.377 . S
C1077 H1061 0.930 . S
C1077 C1076 1.377 . S
C1077 C1078 1.379 . S
C1078 H1062 0.931 . S
C1078 C1072 1.383 . S
C1078 C1077 1.379 . S
H1079 C1073 0.959 . S
H1080 C1073 0.961 . S
H1081 C1073 0.960 . S
H1082 C1074 0.930 . S
H1083 C1075 0.929 . S
H1084 C1092 0.929 . S
H1085 C1094 0.930 . S
H1086 C1096 0.930 . S
H1087 C1099 0.929 . S
H1088 C1102 0.930 . S
H1089 C1104 0.960 . S
H1090 C1104 0.960 . S
H1091 C1104 0.960 . S
C1092 H1084 0.929 . S
C1092 C1093 1.377 . S
C1092 C1094 1.384 . S
C1093 C1092 1.377 . S
C1093 C1099 1.390 . S
C1094 H1085 0.930 . S
C1094 C1092 1.384 . S
C1094 C1095 1.372 . S
C1095 C1094 1.372 . S
C1095 C1096 1.400 . S
C1095 C1100 1.490 . S
C1096 H1086 0.930 . S
C1096 C1095 1.400 . S
C1096 C1099 1.386 . S
H1097 C1113 0.930 . S
H1098 C1114 0.931 . S
C1099 H1087 0.929 . S
C1099 C1093 1.390 . S
C1099 C1096 1.386 . S
C1100 C1095 1.490 . S
C1100 C1102 1.395 . S
C1100 C1103 1.403 . S
H1101 C1107 0.930 . S
C1102 H1088 0.930 . S
C1102 C1100 1.395 . S
C1102 C1105 1.403 . S
C1103 C1100 1.403 . S
C1103 C1104 1.524 . S
C1103 C1107 1.400 . S
C1104 H1089 0.960 . S
C1104 H1090 0.960 . S
C1104 H1091 0.960 . S
C1104 C1103 1.524 . S
C1105 C1102 1.403 . S
C1105 C1106 1.392 . S
C1105 C1109 1.495 1_565 S
C1106 C1105 1.392 . S
C1106 C1107 1.385 . S
C1106 C1108 1.478 . S
C1107 H1101 0.930 . S
C1107 C1103 1.400 . S
C1107 C1106 1.385 . S
C1108 C1106 1.478 . S
C1108 C1110 1.381 1_565 S
C1108 C1114 1.383 . S
C1109 C1105 1.495 1_545 S
C1109 H1115 0.959 . S
C1109 H1116 0.961 1_545 S
C1109 H1117 0.960 . S
C1110 C1108 1.381 1_545 S
C1110 C1111 1.394 . S
C1110 H1118 0.930 . S
C1111 C1110 1.394 . S
C1111 C1112 1.383 1_545 S
C1111 H1119 0.929 . S
C1112 C1111 1.383 1_565 S
C1112 C1113 1.377 . S
C1113 H1097 0.930 . S
C1113 C1112 1.377 . S
C1113 C1114 1.379 . S
C1114 H1098 0.931 . S
C1114 C1108 1.383 . S
C1114 C1113 1.379 . S
H1115 C1109 0.959 . S
H1116 C1109 0.961 1_565 S
H1117 C1109 0.960 . S
H1118 C1110 0.930 . S
H1119 C1111 0.929 . S
H1120 C1128 0.929 . S
H1121 C1130 0.930 . S
H1122 C1132 0.930 . S
H1123 C1135 0.929 . S
H1124 C1138 0.930 . S
H1125 C1140 0.960 . S
H1126 C1140 0.960 . S
H1127 C1140 0.960 . S
C1128 H1120 0.929 . S
C1128 C1129 1.377 . S
C1128 C1130 1.384 1_545 S
C1129 C1128 1.377 . S
C1129 C1135 1.390 . S
C1130 H1121 0.930 . S
C1130 C1128 1.384 1_565 S
C1130 C1131 1.372 . S
C1131 C1130 1.372 . S
C1131 C1132 1.400 . S
C1131 C1136 1.490 . S
C1132 H1122 0.930 . S
C1132 C1131 1.400 . S
C1132 C1135 1.386 1_565 S
H1133 C1149 0.930 . S
H1134 C1150 0.931 . S
C1135 H1123 0.929 . S
C1135 C1129 1.390 . S
C1135 C1132 1.386 1_545 S
C1136 C1131 1.490 . S
C1136 C1138 1.395 . S
C1136 C1139 1.403 1_554 S
H1137 C1143 0.930 . S
C1138 H1124 0.930 . S
C1138 C1136 1.395 . S
C1138 C1141 1.403 . S
C1139 C1136 1.403 1_556 S
C1139 C1140 1.524 . S
C1139 C1143 1.400 . S
C1140 H1125 0.960 . S
C1140 H1126 0.960 . S
C1140 H1127 0.960 . S
C1140 C1139 1.524 . S
C1141 C1138 1.403 . S
C1141 C1142 1.411 . S
C1141 C1145 1.495 . S
C1142 C1141 1.411 . S
C1142 C1143 1.372 1_554 S
C1142 C1144 1.471 1_554 S
C1143 H1137 0.930 . S
C1143 C1139 1.400 . S
C1143 C1142 1.372 1_556 S
C1144 C1142 1.471 1_556 S
C1144 C1146 1.381 . S
C1144 C1150 1.383 . S
C1145 C1141 1.495 . S
C1145 H1151 0.959 . S
C1145 H1152 0.961 . S
C1145 H1153 0.960 . S
C1146 C1144 1.381 . S
C1146 C1147 1.394 . S
C1146 H1154 0.930 . S
C1147 C1146 1.394 . S
C1147 C1148 1.383 . S
C1147 H1155 0.929 . S
C1148 C1147 1.383 . S
C1148 C1149 1.377 . S
C1149 H1133 0.930 . S
C1149 C1148 1.377 . S
C1149 C1150 1.379 . S
C1150 H1134 0.931 . S
C1150 C1144 1.383 . S
C1150 C1149 1.379 . S
H1151 C1145 0.959 . S
H1152 C1145 0.961 . S
H1153 C1145 0.960 . S
H1154 C1146 0.930 . S
H1155 C1147 0.929 . S
H1156 C1164 0.929 1_455 S
H1157 C1166 0.930 . S
H1158 C1168 0.930 . S
H1159 C1171 0.929 . S
H1160 C1174 0.930 . S
H1161 C1176 0.960 . S
H1162 C1176 0.960 . S
H1163 C1176 0.960 . S
C1164 H1156 0.929 1_655 S
C1164 C1165 1.377 1_655 S
C1164 C1166 1.384 . S
C1165 C1164 1.377 1_455 S
C1165 C1171 1.390 1_455 S
C1166 H1157 0.930 . S
C1166 C1164 1.384 . S
C1166 C1167 1.372 . S
C1167 C1166 1.372 . S
C1167 C1168 1.400 . S
C1167 C1172 1.490 . S
C1168 H1158 0.930 . S
C1168 C1167 1.400 . S
C1168 C1171 1.386 . S
H1169 C1185 0.930 . S
H1170 C1186 0.931 . S
C1171 H1159 0.929 . S
C1171 C1165 1.390 1_655 S
C1171 C1168 1.386 . S
C1172 C1167 1.490 . S
C1172 C1174 1.395 . S
C1172 C1175 1.403 . S
H1173 C1179 0.930 . S
C1174 H1160 0.930 . S
C1174 C1172 1.395 . S
C1174 C1177 1.403 . S
C1175 C1172 1.403 . S
C1175 C1176 1.524 . S
C1175 C1179 1.400 . S
C1176 H1161 0.960 . S
C1176 H1162 0.960 . S
C1176 H1163 0.960 . S
C1176 C1175 1.524 . S
C1177 C1174 1.403 . S
C1177 C1178 1.392 . S
C1177 C1181 1.495 . S
C1178 C1177 1.392 . S
C1178 C1179 1.385 . S
C1178 C1180 1.478 . S
C1179 H1173 0.930 . S
C1179 C1175 1.400 . S
C1179 C1178 1.385 . S
C1180 C1178 1.478 . S
C1180 C1182 1.381 . S
C1180 C1186 1.383 . S
C1181 C1177 1.495 . S
C1181 H1187 0.959 . S
C1181 H1188 0.961 . S
C1181 H1189 0.960 . S
C1182 C1180 1.381 . S
C1182 C1183 1.394 . S
C1182 H1190 0.930 . S
C1183 C1182 1.394 . S
C1183 C1184 1.383 . S
C1183 H1191 0.929 . S
C1184 C1183 1.383 . S
C1184 C1185 1.377 . S
C1185 H1169 0.930 . S
C1185 C1184 1.377 . S
C1185 C1186 1.379 . S
C1186 H1170 0.931 . S
C1186 C1180 1.383 . S
C1186 C1185 1.379 . S
H1187 C1181 0.959 . S
H1188 C1181 0.961 . S
H1189 C1181 0.960 . S
H1190 C1182 0.930 . S
H1191 C1183 0.929 . S
H1192 C1200 0.929 . S
H1193 C1202 0.930 . S
H1194 C1204 0.930 . S
H1195 C1207 0.929 . S
H1196 C1210 0.930 . S
H1197 C1212 0.960 . S
H1198 C1212 0.960 . S
H1199 C1212 0.960 . S
C1200 H1192 0.929 . S
C1200 C1201 1.377 . S
C1200 C1202 1.384 . S
C1201 C1200 1.377 . S
C1201 C1207 1.390 . S
C1202 H1193 0.930 . S
C1202 C1200 1.384 . S
C1202 C1203 1.372 . S
C1203 C1202 1.372 . S
C1203 C1204 1.400 . S
C1203 C1208 1.490 . S
C1204 H1194 0.930 . S
C1204 C1203 1.400 . S
C1204 C1207 1.386 . S
H1205 C1221 0.935 . S
H1206 C1222 0.931 . S
C1207 H1195 0.929 . S
C1207 C1201 1.390 . S
C1207 C1204 1.386 . S
C1208 C1203 1.490 . S
C1208 C1210 1.395 . S
C1208 C1211 1.403 . S
H1209 C1215 0.930 . S
C1210 H1196 0.930 . S
C1210 C1208 1.395 . S
C1210 C1213 1.403 . S
C1211 C1208 1.403 . S
C1211 C1212 1.524 . S
C1211 C1215 1.400 . S
C1212 H1197 0.960 . S
C1212 H1198 0.960 . S
C1212 H1199 0.960 . S
C1212 C1211 1.524 . S
C1213 C1210 1.403 . S
C1213 C1214 1.392 . S
C1213 C1217 1.495 . S
C1214 C1213 1.392 . S
C1214 C1215 1.385 . S
C1214 C1216 1.478 . S
C1215 H1209 0.930 . S
C1215 C1211 1.400 . S
C1215 C1214 1.385 . S
C1216 C1214 1.478 . S
C1216 C1218 1.381 . S
C1216 C1222 1.383 . S
C1217 C1213 1.495 . S
C1217 H1223 0.959 . S
C1217 H1224 0.961 . S
C1217 H1225 0.960 . S
C1218 C1216 1.381 . S
C1218 C1219 1.394 1_545 S
C1218 H1226 0.930 . S
C1219 C1218 1.394 1_565 S
C1219 C1220 1.383 . S
C1219 H1227 0.929 . S
C1220 C1219 1.383 . S
C1220 C1221 1.377 1_565 S
C1221 H1205 0.935 . S
C1221 C1220 1.377 1_545 S
C1221 C1222 1.379 . S
C1222 H1206 0.931 . S
C1222 C1216 1.383 . S
C1222 C1221 1.379 . S
H1223 C1217 0.959 . S
H1224 C1217 0.961 . S
H1225 C1217 0.960 . S
H1226 C1218 0.930 . S
H1227 C1219 0.929 . S
H1228 C1236 0.929 . S
H1229 C1238 0.930 . S
H1230 C1240 0.930 . S
H1231 C1243 0.929 . S
H1232 C1246 0.930 . S
H1233 C1248 0.960 . S
H1234 C1248 0.960 . S
H1235 C1248 0.960 . S
C1236 H1228 0.929 . S
C1236 C1237 1.377 . S
C1236 C1238 1.384 . S
C1237 C1236 1.377 . S
C1237 C1243 1.390 . S
C1238 H1229 0.930 . S
C1238 C1236 1.384 . S
C1238 C1239 1.372 . S
C1239 C1238 1.372 . S
C1239 C1240 1.400 . S
C1239 C1244 1.490 . S
C1240 H1230 0.930 . S
C1240 C1239 1.400 . S
C1240 C1243 1.386 . S
H1241 C1257 0.930 . S
H1242 C1258 0.931 . S
C1243 H1231 0.929 . S
C1243 C1237 1.390 . S
C1243 C1240 1.386 . S
C1244 C1239 1.490 . S
C1244 C1246 1.395 . S
C1244 C1247 1.403 . S
H1245 C1251 0.930 . S
C1246 H1232 0.930 . S
C1246 C1244 1.395 . S
C1246 C1249 1.403 . S
C1247 C1244 1.403 . S
C1247 C1248 1.524 . S
C1247 C1251 1.400 . S
C1248 H1233 0.960 . S
C1248 H1234 0.960 . S
C1248 H1235 0.960 . S
C1248 C1247 1.524 . S
C1249 C1246 1.403 . S
C1249 C1250 1.392 . S
C1249 C1253 1.495 . S
C1250 C1249 1.392 . S
C1250 C1251 1.385 . S
C1250 C1252 1.478 . S
C1251 H1245 0.930 . S
C1251 C1247 1.400 . S
C1251 C1250 1.385 . S
C1252 C1250 1.478 . S
C1252 C1254 1.381 . S
C1252 C1258 1.383 . S
C1253 C1249 1.495 . S
C1253 H1259 0.959 . S
C1253 H1260 0.961 . S
C1253 H1261 0.960 . S
C1254 C1252 1.381 . S
C1254 C1255 1.394 . S
C1254 H1262 0.930 . S
C1255 C1254 1.394 . S
C1255 C1256 1.383 . S
C1255 H1263 0.929 . S
C1256 C1255 1.383 . S
C1256 C1257 1.377 . S
C1257 H1241 0.930 . S
C1257 C1256 1.377 . S
C1257 C1258 1.379 . S
C1258 H1242 0.931 . S
C1258 C1252 1.383 . S
C1258 C1257 1.379 . S
H1259 C1253 0.959 . S
H1260 C1253 0.961 . S
H1261 C1253 0.960 . S
H1262 C1254 0.930 . S
H1263 C1255 0.929 . S
H1264 C1272 0.929 . S
H1265 C1274 0.930 . S
H1266 C1276 0.930 . S
H1267 C1279 0.929 . S
H1268 C1282 0.930 . S
H1269 C1284 0.960 . S
H1270 C1284 0.960 . S
H1271 C1284 0.960 . S
C1272 H1264 0.929 . S
C1272 C1273 1.377 . S
C1272 C1274 1.384 . S
C1273 C1272 1.377 . S
C1273 C1279 1.390 . S
C1274 H1265 0.930 . S
C1274 C1272 1.384 . S
C1274 C1275 1.372 . S
C1275 C1274 1.372 . S
C1275 C1276 1.400 . S
C1275 C1280 1.490 . S
C1276 H1266 0.930 . S
C1276 C1275 1.400 . S
C1276 C1279 1.386 . S
H1277 C1293 0.930 . S
H1278 C1294 0.931 . S
C1279 H1267 0.929 . S
C1279 C1273 1.390 . S
C1279 C1276 1.386 . S
C1280 C1275 1.490 . S
C1280 C1282 1.395 1_554 S
C1280 C1283 1.403 . S
H1281 C1287 0.930 . S
C1282 H1268 0.930 . S
C1282 C1280 1.395 1_556 S
C1282 C1285 1.403 . S
C1283 C1280 1.403 . S
C1283 C1284 1.524 . S
C1283 C1287 1.400 . S
C1284 H1269 0.960 . S
C1284 H1270 0.960 . S
C1284 H1271 0.960 . S
C1284 C1283 1.524 . S
C1285 C1282 1.403 . S
C1285 C1286 1.392 . S
C1285 C1289 1.495 . S
C1286 C1285 1.392 . S
C1286 C1287 1.385 1_556 S
C1286 C1288 1.478 . S
C1287 H1281 0.930 . S
C1287 C1283 1.400 . S
C1287 C1286 1.385 1_554 S
C1288 C1286 1.478 . S
C1288 C1290 1.381 . S
C1288 C1294 1.383 . S
C1289 C1285 1.495 . S
C1289 H1295 0.959 . S
C1289 H1296 0.961 . S
C1289 H1297 0.960 . S
C1290 C1288 1.381 . S
C1290 C1291 1.394 1_545 S
C1290 H1298 0.930 . S
C1291 C1290 1.394 1_565 S
C1291 C1292 1.383 . S
C1291 H1299 0.929 . S
C1292 C1291 1.383 . S
C1292 C1293 1.378 . S
C1293 H1277 0.930 . S
C1293 C1292 1.378 . S
C1293 C1294 1.377 1_565 S
C1294 H1278 0.931 . S
C1294 C1288 1.383 . S
C1294 C1293 1.377 1_545 S
H1295 C1289 0.959 . S
H1296 C1289 0.961 . S
H1297 C1289 0.960 . S
H1298 C1290 0.930 . S
H1299 C1291 0.929 . S
H1300 C1308 0.929 1_655 S
H1301 C1310 0.930 . S
H1302 C1312 0.930 . S
H1303 C1315 0.929 . S
H1304 C1318 0.930 . S
H1305 C1320 0.960 . S
H1306 C1320 0.960 . S
H1307 C1320 0.960 . S
C1308 H1300 0.929 1_455 S
C1308 C1309 1.377 1_455 S
C1308 C1310 1.384 . S
C1309 C1308 1.377 1_655 S
C1309 C1315 1.390 1_655 S
C1310 H1301 0.930 . S
C1310 C1308 1.384 . S
C1310 C1311 1.372 . S
C1311 C1310 1.372 . S
C1311 C1312 1.400 . S
C1311 C1316 1.490 . S
C1312 H1302 0.930 . S
C1312 C1311 1.400 . S
C1312 C1315 1.386 . S
H1313 C1329 0.930 . S
H1314 C1330 0.931 . S
C1315 H1303 0.929 . S
C1315 C1309 1.390 1_455 S
C1315 C1312 1.386 . S
C1316 C1311 1.490 . S
C1316 C1318 1.395 . S
C1316 C1319 1.403 . S
H1317 C1323 0.930 . S
C1318 H1304 0.930 . S
C1318 C1316 1.395 . S
C1318 C1321 1.403 . S
C1319 C1316 1.403 . S
C1319 C1320 1.524 . S
C1319 C1323 1.400 . S
C1320 H1305 0.960 . S
C1320 H1306 0.960 . S
C1320 H1307 0.960 . S
C1320 C1319 1.524 . S
C1321 C1318 1.403 . S
C1321 C1322 1.392 . S
C1321 C1325 1.495 . S
C1322 C1321 1.392 . S
C1322 C1323 1.385 . S
C1322 C1324 1.478 . S
C1323 H1317 0.930 . S
C1323 C1319 1.400 . S
C1323 C1322 1.385 . S
C1324 C1322 1.478 . S
C1324 C1326 1.381 . S
C1324 C1330 1.383 . S
C1325 C1321 1.495 . S
C1325 H1331 0.959 . S
C1325 H1332 0.961 . S
C1325 H1333 0.960 . S
C1326 C1324 1.381 . S
C1326 C1327 1.394 . S
C1326 H1334 0.930 . S
C1327 C1326 1.394 . S
C1327 C1328 1.383 . S
C1327 H1335 0.929 . S
C1328 C1327 1.383 . S
C1328 C1329 1.377 . S
C1329 H1313 0.930 . S
C1329 C1328 1.377 . S
C1329 C1330 1.379 . S
C1330 H1314 0.931 . S
C1330 C1324 1.383 . S
C1330 C1329 1.379 . S
H1331 C1325 0.959 . S
H1332 C1325 0.961 . S
H1333 C1325 0.960 . S
H1334 C1326 0.930 . S
H1335 C1327 0.929 . S
H1336 C1344 0.919 1_545 S
H1337 C1346 0.930 . S
H1338 C1348 0.930 . S
H1339 C1351 0.929 . S
H1340 C1354 0.930 . S
H1341 C1356 0.960 . S
H1342 C1356 0.960 . S
H1343 C1356 0.960 . S
C1344 H1336 0.919 1_565 S
C1344 C1345 1.357 1_565 S
C1344 C1346 1.415 . S
C1345 C1344 1.357 1_545 S
C1345 C1351 1.390 . S
C1346 H1337 0.930 . S
C1346 C1344 1.415 . S
C1346 C1347 1.372 . S
C1347 C1346 1.372 . S
C1347 C1348 1.400 . S
C1347 C1352 1.490 . S
C1348 H1338 0.930 . S
C1348 C1347 1.400 . S
C1348 C1351 1.386 1_565 S
H1349 C1365 0.930 . S
H1350 C1366 0.931 . S
C1351 H1339 0.929 . S
C1351 C1345 1.390 . S
C1351 C1348 1.386 1_545 S
C1352 C1347 1.490 . S
C1352 C1354 1.395 . S
C1352 C1355 1.403 . S
H1353 C1359 0.930 . S
C1354 H1340 0.930 . S
C1354 C1352 1.395 . S
C1354 C1357 1.403 . S
C1355 C1352 1.403 . S
C1355 C1356 1.524 . S
C1355 C1359 1.400 . S
C1356 H1341 0.960 . S
C1356 H1342 0.960 . S
C1356 H1343 0.960 . S
C1356 C1355 1.524 . S
C1357 C1354 1.403 . S
C1357 C1358 1.392 . S
C1357 C1361 1.495 . S
C1358 C1357 1.392 . S
C1358 C1359 1.385 . S
C1358 C1360 1.478 . S
C1359 H1353 0.930 . S
C1359 C1355 1.400 . S
C1359 C1358 1.385 . S
C1360 C1358 1.478 . S
C1360 C1362 1.381 . S
C1360 C1366 1.383 . S
C1361 C1357 1.495 . S
C1361 H1367 0.959 . S
C1361 H1368 0.961 . S
C1361 H1369 0.960 . S
C1362 C1360 1.381 . S
C1362 C1363 1.394 . S
C1362 H1370 0.930 . S
C1363 C1362 1.394 . S
C1363 C1364 1.383 . S
C1363 H1371 0.929 . S
C1364 C1363 1.383 . S
C1364 C1365 1.377 . S
C1365 H1349 0.930 . S
C1365 C1364 1.377 . S
C1365 C1366 1.379 . S
C1366 H1350 0.931 . S
C1366 C1360 1.383 . S
C1366 C1365 1.379 . S
H1367 C1361 0.959 . S
H1368 C1361 0.961 . S
H1369 C1361 0.960 . S
H1370 C1362 0.930 . S
H1371 C1363 0.929 . S
H1372 C1380 0.929 . S
H1373 C1382 0.930 . S
H1374 C1384 0.930 . S
H1375 C1387 0.929 . S
H1376 C1390 0.930 . S
H1377 C1392 0.960 . S
H1378 C1392 0.960 . S
H1379 C1392 0.960 . S
C1380 H1372 0.929 . S
C1380 C1381 1.377 . S
C1380 C1382 1.384 . S
C1381 C1380 1.377 . S
C1381 C1387 1.390 . S
C1382 H1373 0.930 . S
C1382 C1380 1.384 . S
C1382 C1383 1.372 . S
C1383 C1382 1.372 . S
C1383 C1384 1.400 . S
C1383 C1388 1.490 . S
C1384 H1374 0.930 . S
C1384 C1383 1.400 . S
C1384 C1387 1.386 . S
H1385 C1401 0.930 . S
H1386 C1402 0.931 . S
C1387 H1375 0.929 . S
C1387 C1381 1.390 . S
C1387 C1384 1.386 . S
C1388 C1383 1.490 . S
C1388 C1390 1.395 . S
C1388 C1391 1.403 . S
H1389 C1395 0.930 . S
C1390 H1376 0.930 . S
C1390 C1388 1.395 . S
C1390 C1393 1.403 . S
C1391 C1388 1.403 . S
C1391 C1392 1.524 . S
C1391 C1395 1.400 . S
C1392 H1377 0.960 . S
C1392 H1378 0.960 . S
C1392 H1379 0.960 . S
C1392 C1391 1.524 . S
C1393 C1390 1.403 . S
C1393 C1394 1.392 . S
C1393 C1397 1.495 . S
C1394 C1393 1.392 . S
C1394 C1395 1.385 . S
C1394 C1396 1.478 . S
C1395 H1389 0.930 . S
C1395 C1391 1.400 . S
C1395 C1394 1.385 . S
C1396 C1394 1.478 . S
C1396 C1398 1.381 . S
C1396 C1402 1.383 . S
C1397 C1393 1.495 . S
C1397 H1403 0.959 . S
C1397 H1404 0.961 . S
C1397 H1405 0.960 . S
C1398 C1396 1.381 . S
C1398 C1399 1.394 . S
C1398 H1406 0.930 . S
C1399 C1398 1.394 . S
C1399 C1400 1.383 . S
C1399 H1407 0.929 . S
C1400 C1399 1.383 . S
C1400 C1401 1.377 . S
C1401 H1385 0.930 . S
C1401 C1400 1.377 . S
C1401 C1402 1.379 . S
C1402 H1386 0.931 . S
C1402 C1396 1.383 . S
C1402 C1401 1.379 . S
H1403 C1397 0.959 . S
H1404 C1397 0.961 . S
H1405 C1397 0.960 . S
H1406 C1398 0.930 . S
H1407 C1399 0.929 . S
H1408 C1416 0.929 . S
H1409 C1418 0.930 . S
H1410 C1420 0.930 . S
H1411 C1423 0.929 . S
H1412 C1426 0.930 . S
H1413 C1428 0.960 . S
H1414 C1428 0.960 . S
H1415 C1428 0.960 . S
C1416 H1408 0.929 . S
C1416 C1417 1.377 . S
C1416 C1418 1.384 . S
C1417 C1416 1.377 . S
C1417 C1423 1.390 . S
C1418 H1409 0.930 . S
C1418 C1416 1.384 . S
C1418 C1419 1.372 . S
C1419 C1418 1.372 . S
C1419 C1420 1.400 . S
C1419 C1424 1.490 . S
C1420 H1410 0.930 . S
C1420 C1419 1.400 . S
C1420 C1423 1.386 . S
H1421 C1437 0.930 . S
H1422 C1438 0.931 . S
C1423 H1411 0.929 . S
C1423 C1417 1.390 . S
C1423 C1420 1.386 . S
C1424 C1419 1.490 . S
C1424 C1426 1.395 . S
C1424 C1427 1.403 . S
H1425 C1431 0.930 . S
C1426 H1412 0.930 . S
C1426 C1424 1.395 . S
C1426 C1429 1.403 . S
C1427 C1424 1.403 . S
C1427 C1428 1.524 . S
C1427 C1431 1.400 . S
C1428 H1413 0.960 . S
C1428 H1414 0.960 . S
C1428 H1415 0.960 . S
C1428 C1427 1.524 . S
C1429 C1426 1.403 . S
C1429 C1430 1.392 . S
C1429 C1433 1.495 . S
C1430 C1429 1.392 . S
C1430 C1431 1.385 . S
C1430 C1432 1.478 . S
C1431 H1425 0.930 . S
C1431 C1427 1.400 . S
C1431 C1430 1.385 . S
C1432 C1430 1.478 . S
C1432 C1434 1.381 . S
C1432 C1438 1.383 . S
C1433 C1429 1.495 . S
C1433 H1439 0.959 . S
C1433 H1440 0.961 . S
C1433 H1441 0.960 . S
C1434 C1432 1.381 . S
C1434 C1435 1.394 . S
C1434 H1442 0.930 . S
C1435 C1434 1.394 . S
C1435 C1436 1.383 . S
C1435 H1443 0.929 . S
C1436 C1435 1.383 . S
C1436 C1437 1.377 . S
C1437 H1421 0.930 . S
C1437 C1436 1.377 . S
C1437 C1438 1.379 . S
C1438 H1422 0.931 . S
C1438 C1432 1.383 . S
C1438 C1437 1.379 . S
H1439 C1433 0.959 . S
H1440 C1433 0.961 . S
H1441 C1433 0.960 . S
H1442 C1434 0.930 . S
H1443 C1435 0.929 . S
H1444 C1452 0.929 1_565 S
H1445 C1454 0.930 1_565 S
H1446 C1456 0.930 . S
H1447 C1459 0.929 . S
H1448 C1462 0.930 . S
H1449 C1464 0.960 . S
H1450 C1464 0.960 . S
H1451 C1464 0.960 . S
C1452 H1444 0.929 1_545 S
C1452 C1453 1.377 . S
C1452 C1454 1.384 . S
C1453 C1452 1.377 . S
C1453 C1459 1.390 . S
C1454 H1445 0.930 1_545 S
C1454 C1452 1.384 . S
C1454 C1455 1.372 . S
C1455 C1454 1.372 . S
C1455 C1456 1.400 . S
C1455 C1460 1.490 . S
C1456 H1446 0.930 . S
C1456 C1455 1.400 . S
C1456 C1459 1.386 . S
H1457 C1473 0.930 . S
H1458 C1474 0.931 . S
C1459 H1447 0.929 . S
C1459 C1453 1.390 . S
C1459 C1456 1.386 . S
C1460 C1455 1.490 . S
C1460 C1462 1.395 . S
C1460 C1463 1.403 . S
H1461 C1467 0.930 . S
C1462 H1448 0.930 . S
C1462 C1460 1.395 . S
C1462 C1465 1.403 . S
C1463 C1460 1.403 . S
C1463 C1464 1.524 . S
C1463 C1467 1.400 . S
C1464 H1449 0.960 . S
C1464 H1450 0.960 . S
C1464 H1451 0.960 . S
C1464 C1463 1.524 . S
C1465 C1462 1.403 . S
C1465 C1466 1.392 . S
C1465 C1469 1.495 . S
C1466 C1465 1.392 . S
C1466 C1467 1.385 . S
C1466 C1468 1.478 . S
C1467 H1461 0.930 . S
C1467 C1463 1.400 . S
C1467 C1466 1.385 . S
C1468 C1466 1.478 . S
C1468 C1470 1.381 1_545 S
C1468 C1474 1.383 . S
C1469 C1465 1.495 . S
C1469 H1475 0.959 . S
C1469 H1476 0.961 . S
C1469 H1477 0.931 1_545 S
C1470 C1468 1.381 1_565 S
C1470 C1471 1.394 . S
C1470 H1478 0.930 . S
C1471 C1470 1.394 . S
C1471 C1472 1.383 1_565 S
C1471 H1479 0.929 . S
C1472 C1471 1.383 1_545 S
C1472 C1473 1.377 . S
C1473 H1457 0.930 . S
C1473 C1472 1.377 . S
C1473 C1474 1.379 . S
C1474 H1458 0.931 . S
C1474 C1468 1.383 . S
C1474 C1473 1.379 . S
H1475 C1469 0.959 . S
H1476 C1469 0.961 . S
H1477 C1469 0.931 1_565 S
H1478 C1470 0.930 . S
H1479 C1471 0.929 . S
H1480 C1488 0.929 . S
H1481 C1490 0.930 . S
H1482 C1492 0.930 . S
H1483 C1495 0.929 1_554 S
H1484 C1498 0.930 . S
H1485 C1500 0.960 . S
H1486 C1500 0.960 . S
H1487 C1500 0.960 . S
C1488 H1480 0.929 . S
C1488 C1489 1.377 . S
C1488 C1490 1.384 . S
C1489 C1488 1.377 . S
C1489 C1495 1.390 . S
C1490 H1481 0.930 . S
C1490 C1488 1.384 . S
C1490 C1491 1.372 . S
C1491 C1490 1.372 . S
C1491 C1492 1.400 1_556 S
C1491 C1496 1.490 . S
C1492 H1482 0.930 . S
C1492 C1491 1.400 1_554 S
C1492 C1495 1.386 1_554 S
H1493 C1509 0.930 . S
H1494 C1510 0.931 . S
C1495 H1483 0.929 1_556 S
C1495 C1489 1.390 . S
C1495 C1492 1.386 1_556 S
C1496 C1491 1.490 . S
C1496 C1498 1.395 . S
C1496 C1499 1.403 1_556 S
H1497 C1503 0.930 . S
C1498 H1484 0.930 . S
C1498 C1496 1.395 . S
C1498 C1501 1.403 . S
C1499 C1496 1.403 1_554 S
C1499 C1500 1.524 . S
C1499 C1503 1.400 . S
C1500 H1485 0.960 . S
C1500 H1486 0.960 . S
C1500 H1487 0.960 . S
C1500 C1499 1.524 . S
C1501 C1498 1.403 . S
C1501 C1502 1.392 1_556 S
C1501 C1505 1.495 . S
C1502 C1501 1.392 1_554 S
C1502 C1503 1.385 . S
C1502 C1504 1.478 . S
C1503 H1497 0.930 . S
C1503 C1499 1.400 . S
C1503 C1502 1.385 . S
C1504 C1502 1.478 . S
C1504 C1506 1.381 . S
C1504 C1510 1.383 . S
C1505 C1501 1.495 . S
C1505 H1511 0.959 . S
C1505 H1512 0.961 . S
C1505 H1513 0.960 . S
C1506 C1504 1.381 . S
C1506 C1507 1.394 . S
C1506 H1514 0.930 1_554 S
C1507 C1506 1.394 . S
C1507 C1508 1.383 . S
C1507 H1515 0.929 . S
C1508 C1507 1.383 . S
C1508 C1509 1.377 . S
C1509 H1493 0.930 . S
C1509 C1508 1.377 . S
C1509 C1510 1.379 . S
C1510 H1494 0.931 . S
C1510 C1504 1.383 . S
C1510 C1509 1.379 . S
H1511 C1505 0.959 . S
H1512 C1505 0.961 . S
H1513 C1505 0.960 . S
H1514 C1506 0.930 1_556 S
H1515 C1507 0.929 . S
H1516 C1524 0.929 1_655 S
H1517 C1526 0.930 . S
H1518 C1528 0.930 . S
H1519 C1531 0.929 . S
H1520 C1534 0.930 . S
H1521 C1536 0.960 . S
H1522 C1536 0.960 . S
H1523 C1536 0.960 . S
C1524 H1516 0.929 1_455 S
C1524 C1525 1.377 1_455 S
C1524 C1526 1.384 . S
C1525 C1524 1.377 1_655 S
C1525 C1531 1.390 1_655 S
C1526 H1517 0.930 . S
C1526 C1524 1.384 . S
C1526 C1527 1.372 . S
C1527 C1526 1.372 . S
C1527 C1528 1.400 . S
C1527 C1532 1.490 . S
C1528 H1518 0.930 . S
C1528 C1527 1.400 . S
C1528 C1531 1.386 . S
H1529 C1545 0.930 . S
H1530 C1546 0.931 . S
C1531 H1519 0.929 . S
C1531 C1525 1.390 1_455 S
C1531 C1528 1.386 . S
C1532 C1527 1.490 . S
C1532 C1534 1.395 . S
C1532 C1535 1.403 . S
H1533 C1539 0.930 1_545 S
C1534 H1520 0.930 . S
C1534 C1532 1.395 . S
C1534 C1537 1.403 . S
C1535 C1532 1.403 . S
C1535 C1536 1.524 1_565 S
C1535 C1539 1.400 . S
C1536 H1521 0.960 . S
C1536 H1522 0.960 . S
C1536 H1523 0.960 . S
C1536 C1535 1.524 1_545 S
C1537 C1534 1.403 . S
C1537 C1538 1.392 . S
C1537 C1541 1.495 . S
C1538 C1537 1.392 . S
C1538 C1539 1.385 . S
C1538 C1540 1.478 . S
C1539 H1533 0.930 1_565 S
C1539 C1535 1.400 . S
C1539 C1538 1.385 . S
C1540 C1538 1.478 . S
C1540 C1542 1.381 . S
C1540 C1546 1.383 . S
C1541 C1537 1.495 . S
C1541 H1547 0.959 . S
C1541 H1548 0.961 . S
C1541 H1549 0.960 . S
C1542 C1540 1.381 . S
C1542 C1543 1.394 . S
C1542 H1550 0.930 . S
C1543 C1542 1.394 . S
C1543 C1544 1.383 . S
C1543 H1551 0.929 . S
C1544 C1543 1.383 . S
C1544 C1545 1.377 . S
C1545 H1529 0.930 . S
C1545 C1544 1.377 . S
C1545 C1546 1.379 . S
C1546 H1530 0.931 . S
C1546 C1540 1.383 . S
C1546 C1545 1.379 . S
H1547 C1541 0.959 . S
H1548 C1541 0.961 . S
H1549 C1541 0.960 . S
H1550 C1542 0.930 . S
H1551 C1543 0.929 . S
H1552 C1560 0.929 . S
H1553 C1562 0.930 . S
H1554 C1564 0.930 . S
H1555 C1567 0.929 . S
H1556 C1570 0.930 . S
H1557 C1572 0.960 . S
H1558 C1572 0.960 . S
H1559 C1572 0.960 . S
C1560 H1552 0.929 . S
C1560 C1561 1.377 . S
C1560 C1562 1.384 . S
C1561 C1560 1.377 . S
C1561 C1567 1.390 . S
C1562 H1553 0.930 . S
C1562 C1560 1.384 . S
C1562 C1563 1.372 . S
C1563 C1562 1.372 . S
C1563 C1564 1.400 . S
C1563 C1568 1.490 . S
C1564 H1554 0.930 . S
C1564 C1563 1.400 . S
C1564 C1567 1.386 . S
H1565 C1581 0.930 . S
H1566 C1582 0.931 . S
C1567 H1555 0.929 . S
C1567 C1561 1.390 . S
C1567 C1564 1.386 . S
C1568 C1563 1.490 . S
C1568 C1570 1.395 . S
C1568 C1571 1.403 . S
H1569 C1575 0.930 . S
C1570 H1556 0.930 . S
C1570 C1568 1.395 . S
C1570 C1573 1.403 . S
C1571 C1568 1.403 . S
C1571 C1572 1.524 . S
C1571 C1575 1.400 . S
C1572 H1557 0.960 . S
C1572 H1558 0.960 . S
C1572 H1559 0.960 . S
C1572 C1571 1.524 . S
C1573 C1570 1.403 . S
C1573 C1574 1.392 . S
C1573 C1577 1.495 . S
C1574 C1573 1.392 . S
C1574 C1575 1.385 . S
C1574 C1576 1.478 . S
C1575 H1569 0.930 . S
C1575 C1571 1.400 . S
C1575 C1574 1.385 . S
C1576 C1574 1.478 . S
C1576 C1578 1.381 . S
C1576 C1582 1.383 . S
C1577 C1573 1.495 . S
C1577 H1583 0.959 . S
C1577 H1584 0.961 . S
C1577 H1585 0.960 . S
C1578 C1576 1.381 . S
C1578 C1579 1.394 . S
C1578 H1586 0.930 . S
C1579 C1578 1.394 . S
C1579 C1580 1.383 . S
C1579 H1587 0.929 . S
C1580 C1579 1.383 . S
C1580 C1581 1.377 . S
C1581 H1565 0.930 . S
C1581 C1580 1.377 . S
C1581 C1582 1.379 . S
C1582 H1566 0.931 . S
C1582 C1576 1.383 . S
C1582 C1581 1.379 . S
H1583 C1577 0.959 . S
H1584 C1577 0.961 . S
H1585 C1577 0.960 . S
H1586 C1578 0.930 . S
H1587 C1579 0.929 . S
H1588 C1596 0.929 1_545 S
H1589 C1598 0.930 1_545 S
H1590 C1600 0.930 . S
H1591 C1603 0.929 . S
H1592 C1606 0.930 . S
H1593 C1608 0.960 . S
H1594 C1608 0.960 1_545 S
H1595 C1608 0.960 . S
C1596 H1588 0.929 1_565 S
C1596 C1597 1.377 . S
C1596 C1598 1.384 . S
C1597 C1596 1.377 . S
C1597 C1603 1.390 . S
C1598 H1589 0.930 1_565 S
C1598 C1596 1.384 . S
C1598 C1599 1.372 . S
C1599 C1598 1.372 . S
C1599 C1600 1.400 . S
C1599 C1604 1.490 . S
C1600 H1590 0.930 . S
C1600 C1599 1.400 . S
C1600 C1603 1.386 . S
H1601 C1617 0.930 . S
H1602 C1618 0.931 . S
C1603 H1591 0.929 . S
C1603 C1597 1.390 . S
C1603 C1600 1.386 . S
C1604 C1599 1.490 . S
C1604 C1606 1.395 . S
C1604 C1607 1.403 . S
H1605 C1611 0.930 . S
C1606 H1592 0.930 . S
C1606 C1604 1.395 . S
C1606 C1609 1.403 . S
C1607 C1604 1.403 . S
C1607 C1608 1.524 . S
C1607 C1611 1.400 . S
C1608 H1593 0.960 . S
C1608 H1594 0.960 1_565 S
C1608 H1595 0.960 . S
C1608 C1607 1.524 . S
C1609 C1606 1.403 . S
C1609 C1610 1.392 . S
C1609 C1613 1.495 . S
C1610 C1609 1.392 . S
C1610 C1611 1.385 . S
C1610 C1612 1.478 . S
C1611 H1605 0.930 . S
C1611 C1607 1.400 . S
C1611 C1610 1.385 . S
C1612 C1610 1.478 . S
C1612 C1614 1.381 1_565 S
C1612 C1618 1.383 . S
C1613 C1609 1.495 . S
C1613 H1619 0.959 . S
C1613 H1620 0.961 . S
C1613 H1621 0.960 . S
C1614 C1612 1.381 1_545 S
C1614 C1615 1.394 . S
C1614 H1622 0.930 . S
C1615 C1614 1.394 . S
C1615 C1616 1.383 1_545 S
C1615 H1623 0.929 . S
C1616 C1615 1.383 1_565 S
C1616 C1617 1.377 . S
C1617 H1601 0.930 . S
C1617 C1616 1.377 . S
C1617 C1618 1.379 . S
C1618 H1602 0.931 . S
C1618 C1612 1.383 . S
C1618 C1617 1.379 . S
H1619 C1613 0.959 . S
H1620 C1613 0.961 . S
H1621 C1613 0.960 . S
H1622 C1614 0.930 . S
H1623 C1615 0.929 . S
H1624 C1632 0.929 . S
H1625 C1634 0.930 . S
H1626 C1636 0.930 . S
H1627 C1639 0.929 . S
H1628 C1642 0.930 . S
H1629 C1644 0.960 . S
H1630 C1644 0.960 . S
H1631 C1644 0.960 . S
C1632 H1624 0.929 . S
C1632 C1633 1.377 . S
C1632 C1634 1.384 . S
C1633 C1632 1.377 . S
C1633 C1639 1.390 . S
C1634 H1625 0.930 . S
C1634 C1632 1.384 . S
C1634 C1635 1.372 . S
C1635 C1634 1.372 . S
C1635 C1636 1.400 . S
C1635 C1640 1.490 . S
C1636 H1626 0.930 . S
C1636 C1635 1.400 . S
C1636 C1639 1.386 . S
H1637 C1653 0.930 . S
H1638 C1654 0.931 . S
C1639 H1627 0.929 . S
C1639 C1633 1.390 . S
C1639 C1636 1.386 . S
C1640 C1635 1.490 . S
C1640 C1642 1.395 1_554 S
C1640 C1643 1.403 . S
H1641 C1647 0.930 . S
C1642 H1628 0.930 . S
C1642 C1640 1.395 1_556 S
C1642 C1645 1.403 . S
C1643 C1640 1.403 . S
C1643 C1644 1.524 . S
C1643 C1647 1.400 . S
C1644 H1629 0.960 . S
C1644 H1630 0.960 . S
C1644 H1631 0.960 . S
C1644 C1643 1.524 . S
C1645 C1642 1.403 . S
C1645 C1646 1.392 . S
C1645 C1649 1.495 . S
C1646 C1645 1.392 . S
C1646 C1647 1.385 1_556 S
C1646 C1648 1.478 . S
C1647 H1641 0.930 . S
C1647 C1643 1.400 . S
C1647 C1646 1.385 1_554 S
C1648 C1646 1.478 . S
C1648 C1650 1.381 . S
C1648 C1654 1.383 . S
C1649 C1645 1.495 . S
C1649 H1655 0.959 . S
C1649 H1656 0.961 . S
C1649 H1657 0.960 . S
C1650 C1648 1.381 . S
C1650 C1651 1.394 . S
C1650 H1658 0.930 . S
C1651 C1650 1.394 . S
C1651 C1652 1.383 . S
C1651 H1659 0.929 . S
C1652 C1651 1.383 . S
C1652 C1653 1.377 . S
C1653 H1637 0.930 . S
C1653 C1652 1.377 . S
C1653 C1654 1.379 . S
C1654 H1638 0.931 . S
C1654 C1648 1.383 . S
C1654 C1653 1.379 . S
H1655 C1649 0.959 . S
H1656 C1649 0.961 . S
H1657 C1649 0.960 . S
H1658 C1650 0.930 . S
H1659 C1651 0.929 . S
H1660 C1668 0.929 . S
H1661 C1670 0.930 . S
H1662 C1672 0.930 . S
H1663 C1675 0.929 . S
H1664 C1678 0.930 1_565 S
H1665 C1680 0.960 . S
H1666 C1680 0.960 . S
H1667 C1680 0.960 . S
C1668 H1660 0.929 . S
C1668 C1669 1.377 1_665 S
C1668 C1670 1.384 . S
C1669 C1668 1.377 1_445 S
C1669 C1675 1.390 1_455 S
C1670 H1661 0.930 . S
C1670 C1668 1.384 . S
C1670 C1671 1.372 1_565 S
C1671 C1670 1.372 1_545 S
C1671 C1672 1.400 . S
C1671 C1676 1.490 . S
C1672 H1662 0.930 . S
C1672 C1671 1.400 . S
C1672 C1675 1.386 . S
H1673 C1689 0.930 . S
H1674 C1690 0.931 . S
C1675 H1663 0.929 . S
C1675 C1669 1.390 1_655 S
C1675 C1672 1.386 . S
C1676 C1671 1.490 . S
C1676 C1678 1.395 . S
C1676 C1679 1.403 . S
H1677 C1683 0.930 . S
C1678 H1664 0.930 1_545 S
C1678 C1676 1.395 . S
C1678 C1681 1.403 . S
C1679 C1676 1.403 . S
C1679 C1680 1.524 . S
C1679 C1683 1.400 . S
C1680 H1665 0.960 . S
C1680 H1666 0.960 . S
C1680 H1667 0.960 . S
C1680 C1679 1.524 . S
C1681 C1678 1.403 . S
C1681 C1682 1.392 . S
C1681 C1685 1.495 1_545 S
C1682 C1681 1.392 . S
C1682 C1683 1.385 . S
C1682 C1684 1.478 . S
C1683 H1677 0.930 . S
C1683 C1679 1.400 . S
C1683 C1682 1.385 . S
C1684 C1682 1.478 . S
C1684 C1686 1.355 1_545 S
C1684 C1690 1.383 . S
C1685 C1681 1.495 1_565 S
C1685 H1691 0.959 . S
C1685 H1692 0.961 1_565 S
C1685 H1693 0.960 . S
C1686 C1684 1.355 1_565 S
C1686 C1687 1.392 1_565 S
C1686 H1694 0.960 . S
C1687 C1686 1.392 1_545 S
C1687 C1688 1.383 . S
C1687 H1695 0.929 1_545 S
C1688 C1687 1.383 . S
C1688 C1689 1.377 . S
C1689 H1673 0.930 . S
C1689 C1688 1.377 . S
C1689 C1690 1.379 . S
C1690 H1674 0.931 . S
C1690 C1684 1.383 . S
C1690 C1689 1.379 . S
H1691 C1685 0.959 . S
H1692 C1685 0.961 1_545 S
H1693 C1685 0.960 . S
H1694 C1686 0.960 . S
H1695 C1687 0.929 1_565 S
H1696 C1704 0.929 . S
H1697 C1706 0.930 . S
H1698 C1708 0.930 . S
H1699 C1711 0.929 . S
H1700 C1714 0.930 . S
H1701 C1716 0.960 . S
H1702 C1716 0.960 . S
H1703 C1716 0.960 . S
C1704 H1696 0.929 . S
C1704 C1705 1.377 . S
C1704 C1706 1.384 . S
C1705 C1704 1.377 . S
C1705 C1711 1.390 . S
C1706 H1697 0.930 . S
C1706 C1704 1.384 . S
C1706 C1707 1.372 . S
C1707 C1706 1.372 . S
C1707 C1708 1.400 . S
C1707 C1712 1.490 . S
C1708 H1698 0.930 . S
C1708 C1707 1.400 . S
C1708 C1711 1.386 . S
H1709 C1725 0.930 . S
H1710 C1726 0.931 . S
C1711 H1699 0.929 . S
C1711 C1705 1.390 . S
C1711 C1708 1.386 . S
C1712 C1707 1.490 . S
C1712 C1714 1.395 . S
C1712 C1715 1.403 . S
H1713 C1719 0.930 . S
C1714 H1700 0.930 . S
C1714 C1712 1.395 . S
C1714 C1717 1.403 . S
C1715 C1712 1.403 . S
C1715 C1716 1.524 . S
C1715 C1719 1.400 . S
C1716 H1701 0.960 . S
C1716 H1702 0.960 . S
C1716 H1703 0.960 . S
C1716 C1715 1.524 . S
C1717 C1714 1.403 . S
C1717 C1718 1.392 . S
C1717 C1721 1.495 . S
C1718 C1717 1.392 . S
C1718 C1719 1.385 . S
C1718 C1720 1.478 . S
C1719 H1713 0.930 . S
C1719 C1715 1.400 . S
C1719 C1718 1.385 . S
C1720 C1718 1.478 . S
C1720 C1722 1.381 . S
C1720 C1726 1.383 . S
C1721 C1717 1.495 . S
C1721 H1727 0.959 . S
C1721 H1728 0.961 . S
C1721 H1729 0.960 . S
C1722 C1720 1.381 . S
C1722 C1723 1.394 . S
C1722 H1730 0.930 . S
C1723 C1722 1.394 . S
C1723 C1724 1.383 . S
C1723 H1731 0.929 . S
C1724 C1723 1.383 . S
C1724 C1725 1.377 . S
C1725 H1709 0.930 . S
C1725 C1724 1.377 . S
C1725 C1726 1.379 . S
C1726 H1710 0.931 . S
C1726 C1720 1.383 . S
C1726 C1725 1.379 . S
H1727 C1721 0.959 . S
H1728 C1721 0.961 . S
H1729 C1721 0.960 . S
H1730 C1722 0.930 . S
H1731 C1723 0.929 . S
H1732 C1740 0.929 . S
H1733 C1742 0.930 . S
H1734 C1744 0.930 . S
H1735 C1747 0.929 . S
H1736 C1750 0.930 . S
H1737 C1752 0.960 . S
H1738 C1752 0.960 . S
H1739 C1752 0.960 . S
C1740 H1732 0.929 . S
C1740 C1741 1.377 . S
C1740 C1742 1.384 . S
C1741 C1740 1.377 . S
C1741 C1747 1.390 . S
C1742 H1733 0.930 . S
C1742 C1740 1.384 . S
C1742 C1743 1.372 . S
C1743 C1742 1.372 . S
C1743 C1744 1.400 . S
C1743 C1748 1.490 . S
C1744 H1734 0.930 . S
C1744 C1743 1.400 . S
C1744 C1747 1.386 . S
H1745 C1761 0.930 . S
H1746 C1762 0.931 . S
C1747 H1735 0.929 . S
C1747 C1741 1.390 . S
C1747 C1744 1.386 . S
C1748 C1743 1.490 . S
C1748 C1750 1.395 . S
C1748 C1751 1.403 . S
H1749 C1755 0.930 . S
C1750 H1736 0.930 . S
C1750 C1748 1.395 . S
C1750 C1753 1.403 . S
C1751 C1748 1.403 . S
C1751 C1752 1.524 . S
C1751 C1755 1.400 . S
C1752 H1737 0.960 . S
C1752 H1738 0.960 . S
C1752 H1739 0.960 . S
C1752 C1751 1.524 . S
C1753 C1750 1.403 . S
C1753 C1754 1.392 . S
C1753 C1757 1.495 . S
C1754 C1753 1.392 . S
C1754 C1755 1.385 . S
C1754 C1756 1.478 . S
C1755 H1749 0.930 . S
C1755 C1751 1.400 . S
C1755 C1754 1.385 . S
C1756 C1754 1.478 . S
C1756 C1758 1.381 . S
C1756 C1762 1.383 . S
C1757 C1753 1.495 . S
C1757 H1763 0.959 . S
C1757 H1764 0.961 . S
C1757 H1765 0.960 . S
C1758 C1756 1.381 . S
C1758 C1759 1.394 . S
C1758 H1766 0.930 . S
C1759 C1758 1.394 . S
C1759 C1760 1.383 . S
C1759 H1767 0.929 . S
C1760 C1759 1.383 . S
C1760 C1761 1.377 . S
C1761 H1745 0.930 . S
C1761 C1760 1.377 . S
C1761 C1762 1.379 . S
C1762 H1746 0.931 . S
C1762 C1756 1.383 . S
C1762 C1761 1.379 . S
H1763 C1757 0.959 . S
H1764 C1757 0.961 . S
H1765 C1757 0.960 . S
H1766 C1758 0.930 . S
H1767 C1759 0.929 . S
H1768 C1776 0.929 . S
H1769 C1778 0.930 . S
H1770 C1780 0.930 . S
H1771 C1783 0.929 . S
H1772 C1786 0.930 . S
H1773 C1788 0.960 . S
H1774 C1788 0.960 . S
H1775 C1788 0.960 . S
C1776 H1768 0.929 . S
C1776 C1777 1.377 . S
C1776 C1778 1.384 . S
C1777 C1776 1.377 . S
C1777 C1783 1.390 . S
C1778 H1769 0.930 . S
C1778 C1776 1.384 . S
C1778 C1779 1.372 . S
C1779 C1778 1.372 . S
C1779 C1780 1.400 . S
C1779 C1784 1.490 . S
C1780 H1770 0.930 . S
C1780 C1779 1.400 . S
C1780 C1783 1.386 . S
H1781 C1797 0.930 . S
H1782 C1798 0.931 . S
C1783 H1771 0.929 . S
C1783 C1777 1.390 . S
C1783 C1780 1.386 . S
C1784 C1779 1.490 . S
C1784 C1786 1.395 . S
C1784 C1787 1.403 . S
H1785 C1791 0.930 . S
C1786 H1772 0.930 . S
C1786 C1784 1.395 . S
C1786 C1789 1.403 . S
C1787 C1784 1.403 . S
C1787 C1788 1.524 . S
C1787 C1791 1.400 . S
C1788 H1773 0.960 . S
C1788 H1774 0.960 . S
C1788 H1775 0.960 . S
C1788 C1787 1.524 . S
C1789 C1786 1.403 . S
C1789 C1790 1.392 . S
C1789 C1793 1.495 . S
C1790 C1789 1.392 . S
C1790 C1791 1.385 . S
C1790 C1792 1.478 . S
C1791 H1785 0.930 . S
C1791 C1787 1.400 . S
C1791 C1790 1.385 . S
C1792 C1790 1.478 . S
C1792 C1794 1.381 . S
C1792 C1798 1.383 . S
C1793 C1789 1.495 . S
C1793 H1799 0.959 . S
C1793 H1800 0.961 . S
C1793 H1801 0.960 . S
C1794 C1792 1.381 . S
C1794 C1795 1.394 . S
C1794 H1802 0.930 . S
C1795 C1794 1.394 . S
C1795 C1796 1.383 . S
C1795 H1803 0.929 . S
C1796 C1795 1.383 . S
C1796 C1797 1.377 . S
C1797 H1781 0.930 . S
C1797 C1796 1.377 . S
C1797 C1798 1.379 . S
C1798 H1782 0.931 . S
C1798 C1792 1.383 . S
C1798 C1797 1.379 . S
H1799 C1793 0.959 . S
H1800 C1793 0.961 . S
H1801 C1793 0.960 . S
H1802 C1794 0.930 . S
H1803 C1795 0.929 . S
H1804 C1812 0.929 . S
H1805 C1814 0.930 . S
H1806 C1816 0.930 . S
H1807 C1819 0.929 . S
H1808 C1822 0.930 . S
H1809 C1824 0.960 . S
H1810 C1824 0.960 . S
H1811 C1824 0.960 . S
C1812 H1804 0.929 . S
C1812 C1813 1.377 . S
C1812 C1814 1.384 . S
C1813 C1812 1.377 . S
C1813 C1819 1.390 . S
C1814 H1805 0.930 . S
C1814 C1812 1.384 . S
C1814 C1815 1.372 . S
C1815 C1814 1.372 . S
C1815 C1816 1.400 . S
C1815 C1820 1.490 . S
C1816 H1806 0.930 . S
C1816 C1815 1.400 . S
C1816 C1819 1.386 . S
H1817 C1833 0.930 . S
H1818 C1834 0.931 . S
C1819 H1807 0.929 . S
C1819 C1813 1.390 . S
C1819 C1816 1.386 . S
C1820 C1815 1.490 . S
C1820 C1822 1.395 . S
C1820 C1823 1.403 . S
H1821 C1827 0.930 . S
C1822 H1808 0.930 . S
C1822 C1820 1.395 . S
C1822 C1825 1.403 . S
C1823 C1820 1.403 . S
C1823 C1824 1.524 . S
C1823 C1827 1.400 . S
C1824 H1809 0.960 . S
C1824 H1810 0.960 . S
C1824 H1811 0.960 . S
C1824 C1823 1.524 . S
C1825 C1822 1.403 . S
C1825 C1826 1.392 . S
C1825 C1829 1.495 . S
C1826 C1825 1.392 . S
C1826 C1827 1.385 . S
C1826 C1828 1.478 . S
C1827 H1821 0.930 . S
C1827 C1823 1.400 . S
C1827 C1826 1.385 . S
C1828 C1826 1.478 . S
C1828 C1830 1.381 . S
C1828 C1834 1.383 . S
C1829 C1825 1.495 . S
C1829 H1835 0.959 . S
C1829 H1836 0.961 . S
C1829 H1837 0.960 . S
C1830 C1828 1.381 . S
C1830 C1831 1.394 . S
C1830 H1838 0.930 . S
C1831 C1830 1.394 . S
C1831 C1832 1.383 . S
C1831 H1839 0.929 . S
C1832 C1831 1.383 . S
C1832 C1833 1.377 . S
C1833 H1817 0.930 . S
C1833 C1832 1.377 . S
C1833 C1834 1.379 . S
C1834 H1818 0.931 . S
C1834 C1828 1.383 . S
C1834 C1833 1.379 . S
H1835 C1829 0.959 . S
H1836 C1829 0.961 . S
H1837 C1829 0.960 . S
H1838 C1830 0.930 . S
H1839 C1831 0.929 . S
H1840 C1848 0.929 . S
H1841 C1850 0.930 . S
H1842 C1852 0.930 . S
H1843 C1855 0.929 . S
H1844 C1858 0.930 . S
H1845 C1860 0.960 . S
H1846 C1860 0.960 . S
H1847 C1860 0.960 . S
C1848 H1840 0.929 . S
C1848 C1849 1.377 . S
C1848 C1850 1.384 . S
C1849 C1848 1.377 . S
C1849 C1855 1.390 . S
C1850 H1841 0.930 . S
C1850 C1848 1.384 . S
C1850 C1851 1.372 . S
C1851 C1850 1.372 . S
C1851 C1852 1.400 . S
C1851 C1856 1.490 . S
C1852 H1842 0.930 . S
C1852 C1851 1.400 . S
C1852 C1855 1.386 . S
H1853 C1869 0.930 . S
H1854 C1870 0.931 . S
C1855 H1843 0.929 . S
C1855 C1849 1.390 . S
C1855 C1852 1.386 . S
C1856 C1851 1.490 . S
C1856 C1858 1.395 . S
C1856 C1859 1.403 . S
H1857 C1863 0.930 . S
C1858 H1844 0.930 . S
C1858 C1856 1.395 . S
C1858 C1861 1.403 . S
C1859 C1856 1.403 . S
C1859 C1860 1.524 . S
C1859 C1863 1.400 . S
C1860 H1845 0.960 . S
C1860 H1846 0.960 . S
C1860 H1847 0.960 . S
C1860 C1859 1.524 . S
C1861 C1858 1.403 . S
C1861 C1862 1.392 . S
C1861 C1865 1.495 . S
C1862 C1861 1.392 . S
C1862 C1863 1.385 . S
C1862 C1864 1.478 . S
C1863 H1857 0.930 . S
C1863 C1859 1.400 . S
C1863 C1862 1.385 . S
C1864 C1862 1.478 . S
C1864 C1866 1.381 . S
C1864 C1870 1.383 . S
C1865 C1861 1.495 . S
C1865 H1871 0.959 . S
C1865 H1872 0.961 . S
C1865 H1873 0.960 . S
C1866 C1864 1.381 . S
C1866 C1867 1.394 . S
C1866 H1874 0.930 . S
C1867 C1866 1.394 . S
C1867 C1868 1.383 . S
C1867 H1875 0.929 . S
C1868 C1867 1.383 . S
C1868 C1869 1.377 . S
C1869 H1853 0.930 . S
C1869 C1868 1.377 . S
C1869 C1870 1.379 . S
C1870 H1854 0.931 . S
C1870 C1864 1.383 . S
C1870 C1869 1.379 . S
H1871 C1865 0.959 . S
H1872 C1865 0.961 . S
H1873 C1865 0.960 . S
H1874 C1866 0.930 . S
H1875 C1867 0.929 . S
H1876 C1884 0.929 . S
H1877 C1886 0.930 . S
H1878 C1888 0.930 . S
H1879 C1891 0.929 . S
H1880 C1894 0.930 . S
H1881 C1896 0.960 . S
H1882 C1896 0.960 . S
H1883 C1896 0.960 . S
C1884 H1876 0.929 . S
C1884 C1885 1.377 . S
C1884 C1886 1.384 . S
C1885 C1884 1.377 . S
C1885 C1891 1.390 . S
C1886 H1877 0.930 . S
C1886 C1884 1.384 . S
C1886 C1887 1.372 . S
C1887 C1886 1.372 . S
C1887 C1888 1.400 . S
C1887 C1892 1.490 . S
C1888 H1878 0.930 . S
C1888 C1887 1.400 . S
C1888 C1891 1.386 . S
H1889 C1905 0.930 . S
H1890 C1906 0.931 . S
C1891 H1879 0.929 . S
C1891 C1885 1.390 . S
C1891 C1888 1.386 . S
C1892 C1887 1.490 . S
C1892 C1894 1.395 . S
C1892 C1895 1.403 . S
H1893 C1899 0.930 . S
C1894 H1880 0.930 . S
C1894 C1892 1.395 . S
C1894 C1897 1.403 . S
C1895 C1892 1.403 . S
C1895 C1896 1.524 . S
C1895 C1899 1.400 . S
C1896 H1881 0.960 . S
C1896 H1882 0.960 . S
C1896 H1883 0.960 . S
C1896 C1895 1.524 . S
C1897 C1894 1.403 . S
C1897 C1898 1.392 . S
C1897 C1901 1.495 . S
C1898 C1897 1.392 . S
C1898 C1899 1.385 . S
C1898 C1900 1.478 . S
C1899 H1893 0.930 . S
C1899 C1895 1.400 . S
C1899 C1898 1.385 . S
C1900 C1898 1.478 . S
C1900 C1902 1.381 . S
C1900 C1906 1.383 . S
C1901 C1897 1.495 . S
C1901 H1907 0.959 . S
C1901 H1908 0.961 . S
C1901 H1909 0.960 . S
C1902 C1900 1.381 . S
C1902 C1903 1.394 . S
C1902 H1910 0.930 . S
C1903 C1902 1.394 . S
C1903 C1904 1.383 . S
C1903 H1911 0.929 . S
C1904 C1903 1.383 . S
C1904 C1905 1.377 . S
C1905 H1889 0.930 . S
C1905 C1904 1.377 . S
C1905 C1906 1.379 . S
C1906 H1890 0.931 . S
C1906 C1900 1.383 . S
C1906 C1905 1.379 . S
H1907 C1901 0.959 . S
H1908 C1901 0.961 . S
H1909 C1901 0.960 . S
H1910 C1902 0.930 . S
H1911 C1903 0.929 . S
H1912 C1920 0.929 . S
H1913 C1922 0.930 . S
H1914 C1924 0.930 . S
H1915 C1927 0.929 . S
H1916 C1930 0.930 . S
H1917 C1932 0.960 . S
H1918 C1932 0.960 . S
H1919 C1932 0.960 . S
C1920 H1912 0.929 . S
C1920 C1921 1.377 . S
C1920 C1922 1.384 . S
C1921 C1920 1.377 . S
C1921 C1927 1.390 . S
C1922 H1913 0.930 . S
C1922 C1920 1.384 . S
C1922 C1923 1.372 . S
C1923 C1922 1.372 . S
C1923 C1924 1.400 . S
C1923 C1928 1.490 . S
C1924 H1914 0.930 . S
C1924 C1923 1.400 . S
C1924 C1927 1.386 . S
H1925 C1941 0.930 . S
H1926 C1942 0.931 . S
C1927 H1915 0.929 . S
C1927 C1921 1.390 . S
C1927 C1924 1.386 . S
C1928 C1923 1.490 . S
C1928 C1930 1.395 . S
C1928 C1931 1.403 . S
H1929 C1935 0.930 . S
C1930 H1916 0.930 . S
C1930 C1928 1.395 . S
C1930 C1933 1.403 . S
C1931 C1928 1.403 . S
C1931 C1932 1.524 . S
C1931 C1935 1.400 . S
C1932 H1917 0.960 . S
C1932 H1918 0.960 . S
C1932 H1919 0.960 . S
C1932 C1931 1.524 . S
C1933 C1930 1.403 . S
C1933 C1934 1.392 . S
C1933 C1937 1.495 . S
C1934 C1933 1.392 . S
C1934 C1935 1.385 . S
C1934 C1936 1.478 . S
C1935 H1929 0.930 . S
C1935 C1931 1.400 . S
C1935 C1934 1.385 . S
C1936 C1934 1.478 . S
C1936 C1938 1.381 . S
C1936 C1942 1.383 . S
C1937 C1933 1.495 . S
C1937 H1943 0.959 . S
C1937 H1944 0.961 . S
C1937 H1945 0.960 . S
C1938 C1936 1.381 . S
C1938 C1939 1.394 . S
C1938 H1946 0.930 . S
C1939 C1938 1.394 . S
C1939 C1940 1.383 . S
C1939 H1947 0.929 . S
C1940 C1939 1.383 . S
C1940 C1941 1.377 . S
C1941 H1925 0.930 . S
C1941 C1940 1.377 . S
C1941 C1942 1.379 . S
C1942 H1926 0.931 . S
C1942 C1936 1.383 . S
C1942 C1941 1.379 . S
H1943 C1937 0.959 . S
H1944 C1937 0.961 . S
H1945 C1937 0.960 . S
H1946 C1938 0.930 . S
H1947 C1939 0.929 . S
H1948 C1956 0.929 . S
H1949 C1958 0.930 . S
H1950 C1960 0.930 . S
H1951 C1963 0.929 . S
H1952 C1966 0.930 . S
H1953 C1968 0.960 . S
H1954 C1968 0.960 . S
H1955 C1968 0.960 . S
C1956 H1948 0.929 . S
C1956 C1957 1.377 . S
C1956 C1958 1.384 . S
C1957 C1956 1.377 . S
C1957 C1963 1.390 . S
C1958 H1949 0.930 . S
C1958 C1956 1.384 . S
C1958 C1959 1.372 . S
C1959 C1958 1.372 . S
C1959 C1960 1.400 . S
C1959 C1964 1.490 . S
C1960 H1950 0.930 . S
C1960 C1959 1.400 . S
C1960 C1963 1.386 . S
H1961 C1977 0.930 . S
H1962 C1978 0.931 . S
C1963 H1951 0.929 . S
C1963 C1957 1.390 . S
C1963 C1960 1.386 . S
C1964 C1959 1.490 . S
C1964 C1966 1.395 . S
C1964 C1967 1.403 . S
H1965 C1971 0.930 . S
C1966 H1952 0.930 . S
C1966 C1964 1.395 . S
C1966 C1969 1.403 . S
C1967 C1964 1.403 . S
C1967 C1968 1.524 . S
C1967 C1971 1.400 . S
C1968 H1953 0.960 . S
C1968 H1954 0.960 . S
C1968 H1955 0.960 . S
C1968 C1967 1.524 . S
C1969 C1966 1.403 . S
C1969 C1970 1.392 . S
C1969 C1973 1.495 . S
C1970 C1969 1.392 . S
C1970 C1971 1.385 . S
C1970 C1972 1.478 . S
C1971 H1965 0.930 . S
C1971 C1967 1.400 . S
C1971 C1970 1.385 . S
C1972 C1970 1.478 . S
C1972 C1974 1.381 . S
C1972 C1978 1.383 . S
C1973 C1969 1.495 . S
C1973 H1979 0.959 . S
C1973 H1980 0.961 . S
C1973 H1981 0.960 . S
C1974 C1972 1.381 . S
C1974 C1975 1.394 . S
C1974 H1982 0.930 . S
C1975 C1974 1.394 . S
C1975 C1976 1.383 . S
C1975 H1983 0.929 . S
C1976 C1975 1.383 . S
C1976 C1977 1.377 . S
C1977 H1961 0.930 . S
C1977 C1976 1.377 . S
C1977 C1978 1.379 . S
C1978 H1962 0.931 . S
C1978 C1972 1.383 . S
C1978 C1977 1.379 . S
H1979 C1973 0.959 . S
H1980 C1973 0.961 . S
H1981 C1973 0.960 . S
H1982 C1974 0.930 . S
H1983 C1975 0.929 . S
H1984 C1992 0.929 . S
H1985 C1994 0.930 . S
H1986 C1996 0.930 . S
H1987 C1999 0.929 . S
H1988 C2002 0.930 . S
H1989 C2004 0.960 . S
H1990 C2004 0.960 . S
H1991 C2004 0.960 . S
C1992 H1984 0.929 . S
C1992 C1993 1.377 . S
C1992 C1994 1.384 . S
C1993 C1992 1.377 . S
C1993 C1999 1.390 . S
C1994 H1985 0.930 . S
C1994 C1992 1.384 . S
C1994 C1995 1.372 . S
C1995 C1994 1.372 . S
C1995 C1996 1.400 . S
C1995 C2000 1.490 . S
C1996 H1986 0.930 . S
C1996 C1995 1.400 . S
C1996 C1999 1.386 . S
H1997 C2013 0.930 . S
H1998 C2014 0.931 . S
C1999 H1987 0.929 . S
C1999 C1993 1.390 . S
C1999 C1996 1.386 . S
C2000 C1995 1.490 . S
C2000 C2002 1.395 . S
C2000 C2003 1.403 . S
H2001 C2007 0.930 . S
C2002 H1988 0.930 . S
C2002 C2000 1.395 . S
C2002 C2005 1.403 . S
C2003 C2000 1.403 . S
C2003 C2004 1.524 . S
C2003 C2007 1.400 . S
C2004 H1989 0.960 . S
C2004 H1990 0.960 . S
C2004 H1991 0.960 . S
C2004 C2003 1.524 . S
C2005 C2002 1.403 . S
C2005 C2006 1.392 . S
C2005 C2009 1.495 . S
C2006 C2005 1.392 . S
C2006 C2007 1.385 . S
C2006 C2008 1.478 . S
C2007 H2001 0.930 . S
C2007 C2003 1.400 . S
C2007 C2006 1.385 . S
C2008 C2006 1.478 . S
C2008 C2010 1.381 . S
C2008 C2014 1.383 . S
C2009 C2005 1.495 . S
C2009 H2015 0.959 . S
C2009 H2016 0.961 . S
C2009 H2017 0.960 . S
C2010 C2008 1.381 . S
C2010 C2011 1.394 . S
C2010 H2018 0.930 . S
C2011 C2010 1.394 . S
C2011 C2012 1.383 . S
C2011 H2019 0.929 . S
C2012 C2011 1.383 . S
C2012 C2013 1.377 . S
C2013 H1997 0.930 . S
C2013 C2012 1.377 . S
C2013 C2014 1.379 . S
C2014 H1998 0.931 . S
C2014 C2008 1.383 . S
C2014 C2013 1.379 . S
H2015 C2009 0.959 . S
H2016 C2009 0.961 . S
H2017 C2009 0.960 . S
H2018 C2010 0.930 . S
H2019 C2011 0.929 . S
H2020 C2028 0.929 . S
H2021 C2030 0.930 . S
H2022 C2032 0.930 . S
H2023 C2035 0.929 . S
H2024 C2038 0.930 . S
H2025 C2040 0.960 . S
H2026 C2040 0.960 . S
H2027 C2040 0.960 . S
C2028 H2020 0.929 . S
C2028 C2029 1.377 . S
C2028 C2030 1.384 . S
C2029 C2028 1.377 . S
C2029 C2035 1.390 . S
C2030 H2021 0.930 . S
C2030 C2028 1.384 . S
C2030 C2031 1.372 . S
C2031 C2030 1.372 . S
C2031 C2032 1.400 . S
C2031 C2036 1.490 . S
C2032 H2022 0.930 . S
C2032 C2031 1.400 . S
C2032 C2035 1.386 . S
H2033 C2049 0.930 . S
H2034 C2050 0.931 . S
C2035 H2023 0.929 . S
C2035 C2029 1.390 . S
C2035 C2032 1.386 . S
C2036 C2031 1.490 . S
C2036 C2038 1.395 . S
C2036 C2039 1.403 . S
H2037 C2043 0.930 . S
C2038 H2024 0.930 . S
C2038 C2036 1.395 . S
C2038 C2041 1.403 . S
C2039 C2036 1.403 . S
C2039 C2040 1.524 . S
C2039 C2043 1.400 . S
C2040 H2025 0.960 . S
C2040 H2026 0.960 . S
C2040 H2027 0.960 . S
C2040 C2039 1.524 . S
C2041 C2038 1.403 . S
C2041 C2042 1.392 . S
C2041 C2045 1.495 . S
C2042 C2041 1.392 . S
C2042 C2043 1.385 . S
C2042 C2044 1.478 . S
C2043 H2037 0.930 . S
C2043 C2039 1.400 . S
C2043 C2042 1.385 . S
C2044 C2042 1.478 . S
C2044 C2046 1.381 . S
C2044 C2050 1.383 1_565 S
C2045 C2041 1.495 . S
C2045 H2051 0.959 . S
C2045 H2052 0.961 1_565 S
C2045 H2053 0.960 . S
C2046 C2044 1.381 . S
C2046 C2047 1.394 . S
C2046 H2054 0.930 . S
C2047 C2046 1.394 . S
C2047 C2048 1.383 1_565 S
C2047 H2055 0.929 . S
C2048 C2047 1.383 1_545 S
C2048 C2049 1.377 . S
C2049 H2033 0.930 . S
C2049 C2048 1.377 . S
C2049 C2050 1.379 . S
C2050 H2034 0.931 . S
C2050 C2044 1.383 1_545 S
C2050 C2049 1.379 . S
H2051 C2045 0.959 . S
H2052 C2045 0.961 1_545 S
H2053 C2045 0.960 . S
H2054 C2046 0.930 . S
H2055 C2047 0.929 . S
H2056 C2064 0.929 . S
H2057 C2066 0.930 . S
H2058 C2068 0.930 . S
H2059 C2071 0.929 . S
H2060 C2074 0.930 . S
H2061 C2076 0.960 . S
H2062 C2076 0.960 . S
H2063 C2076 0.960 . S
C2064 H2056 0.929 . S
C2064 C2065 1.377 . S
C2064 C2066 1.384 . S
C2065 C2064 1.377 . S
C2065 C2071 1.390 . S
C2066 H2057 0.930 . S
C2066 C2064 1.384 . S
C2066 C2067 1.372 . S
C2067 C2066 1.372 . S
C2067 C2068 1.400 . S
C2067 C2072 1.490 . S
C2068 H2058 0.930 . S
C2068 C2067 1.400 . S
C2068 C2071 1.386 . S
H2069 C2085 0.930 . S
H2070 C2086 0.931 . S
C2071 H2059 0.929 . S
C2071 C2065 1.390 . S
C2071 C2068 1.386 . S
C2072 C2067 1.490 . S
C2072 C2074 1.395 . S
C2072 C2075 1.403 . S
H2073 C2079 0.930 . S
C2074 H2060 0.930 . S
C2074 C2072 1.395 . S
C2074 C2077 1.403 . S
C2075 C2072 1.403 . S
C2075 C2076 1.524 . S
C2075 C2079 1.400 . S
C2076 H2061 0.960 . S
C2076 H2062 0.960 . S
C2076 H2063 0.960 . S
C2076 C2075 1.524 . S
C2077 C2074 1.403 . S
C2077 C2078 1.392 . S
C2077 C2081 1.495 . S
C2078 C2077 1.392 . S
C2078 C2079 1.385 . S
C2078 C2080 1.478 . S
C2079 H2073 0.930 . S
C2079 C2075 1.400 . S
C2079 C2078 1.385 . S
C2080 C2078 1.478 . S
C2080 C2082 1.381 . S
C2080 C2086 1.383 . S
C2081 C2077 1.495 . S
C2081 H2087 0.959 . S
C2081 H2088 0.961 . S
C2081 H2089 0.960 . S
C2082 C2080 1.381 . S
C2082 C2083 1.394 . S
C2082 H2090 0.930 . S
C2083 C2082 1.394 . S
C2083 C2084 1.383 . S
C2083 H2091 0.929 . S
C2084 C2083 1.383 . S
C2084 C2085 1.377 . S
C2085 H2069 0.930 . S
C2085 C2084 1.377 . S
C2085 C2086 1.379 . S
C2086 H2070 0.931 . S
C2086 C2080 1.383 . S
C2086 C2085 1.379 . S
H2087 C2081 0.959 . S
H2088 C2081 0.961 . S
H2089 C2081 0.960 . S
H2090 C2082 0.930 . S
H2091 C2083 0.929 . S
H2092 C2100 0.929 . S
H2093 C2102 0.930 1_565 S
H2094 C2104 0.930 . S
H2095 C2107 0.929 . S
H2096 C2110 0.930 1_565 S
H2097 C2112 0.960 . S
H2098 C2112 0.960 . S
H2099 C2112 0.960 . S
C2100 H2092 0.929 . S
C2100 C2101 1.380 . S
C2100 C2102 1.384 1_565 S
C2101 C2100 1.380 . S
C2101 C2107 1.383 1_565 S
C2102 H2093 0.930 1_545 S
C2102 C2100 1.384 1_545 S
C2102 C2103 1.372 . S
C2103 C2102 1.372 . S
C2103 C2104 1.400 . S
C2103 C2108 1.490 . S
C2104 H2094 0.930 . S
C2104 C2103 1.400 . S
C2104 C2107 1.386 . S
H2105 C2121 0.930 . S
H2106 C2122 0.931 . S
C2107 H2095 0.929 . S
C2107 C2101 1.383 1_545 S
C2107 C2104 1.386 . S
C2108 C2103 1.490 . S
C2108 C2110 1.395 . S
C2108 C2111 1.403 . S
H2109 C2115 0.930 . S
C2110 H2096 0.930 1_545 S
C2110 C2108 1.395 . S
C2110 C2113 1.403 . S
C2111 C2108 1.403 . S
C2111 C2112 1.524 . S
C2111 C2115 1.400 . S
C2112 H2097 0.960 . S
C2112 H2098 0.960 . S
C2112 H2099 0.960 . S
C2112 C2111 1.524 . S
C2113 C2110 1.403 . S
C2113 C2114 1.392 . S
C2113 C2117 1.495 1_545 S
C2114 C2113 1.392 . S
C2114 C2115 1.385 . S
C2114 C2116 1.478 . S
C2115 H2109 0.930 . S
C2115 C2111 1.400 . S
C2115 C2114 1.385 . S
C2116 C2114 1.478 . S
C2116 C2118 1.381 . S
C2116 C2122 1.383 . S
C2117 C2113 1.495 1_565 S
C2117 H2123 0.959 . S
C2117 H2124 0.961 . S
C2117 H2125 0.960 . S
C2118 C2116 1.381 . S
C2118 C2119 1.394 . S
C2118 H2126 0.930 . S
C2119 C2118 1.394 . S
C2119 C2120 1.383 . S
C2119 H2127 0.929 . S
C2120 C2119 1.383 . S
C2120 C2121 1.377 . S
C2121 H2105 0.930 . S
C2121 C2120 1.377 . S
C2121 C2122 1.379 . S
C2122 H2106 0.931 . S
C2122 C2116 1.383 . S
C2122 C2121 1.379 . S
H2123 C2117 0.959 . S
H2124 C2117 0.961 . S
H2125 C2117 0.960 . S
H2126 C2118 0.930 . S
H2127 C2119 0.929 . S
H2128 C2136 0.929 . S
H2129 C2138 0.930 . S
H2130 C2140 0.930 . S
H2131 C2143 0.929 . S
H2132 C2146 0.930 . S
H2133 C2148 0.960 . S
H2134 C2148 0.960 . S
H2135 C2148 0.960 . S
C2136 H2128 0.929 . S
C2136 C2137 1.377 . S
C2136 C2138 1.384 . S
C2137 C2136 1.377 . S
C2137 C2143 1.390 . S
C2138 H2129 0.930 . S
C2138 C2136 1.384 . S
C2138 C2139 1.372 . S
C2139 C2138 1.372 . S
C2139 C2140 1.400 . S
C2139 C2144 1.490 . S
C2140 H2130 0.930 . S
C2140 C2139 1.400 . S
C2140 C2143 1.386 . S
H2141 C2157 0.930 . S
H2142 C2158 0.931 . S
C2143 H2131 0.929 . S
C2143 C2137 1.390 . S
C2143 C2140 1.386 . S
C2144 C2139 1.490 . S
C2144 C2146 1.395 . S
C2144 C2147 1.403 . S
H2145 C2151 0.930 . S
C2146 H2132 0.930 . S
C2146 C2144 1.395 . S
C2146 C2149 1.403 . S
C2147 C2144 1.403 . S
C2147 C2148 1.524 . S
C2147 C2151 1.400 . S
C2148 H2133 0.960 . S
C2148 H2134 0.960 . S
C2148 H2135 0.960 . S
C2148 C2147 1.524 . S
C2149 C2146 1.403 . S
C2149 C2150 1.392 . S
C2149 C2153 1.495 . S
C2150 C2149 1.392 . S
C2150 C2151 1.385 . S
C2150 C2152 1.478 . S
C2151 H2145 0.930 . S
C2151 C2147 1.400 . S
C2151 C2150 1.385 . S
C2152 C2150 1.478 . S
C2152 C2154 1.381 . S
C2152 C2158 1.383 . S
C2153 C2149 1.495 . S
C2153 H2159 0.959 . S
C2153 H2160 0.961 . S
C2153 H2161 0.960 . S
C2154 C2152 1.381 . S
C2154 C2155 1.394 . S
C2154 H2162 0.930 . S
C2155 C2154 1.394 . S
C2155 C2156 1.383 . S
C2155 H2163 0.929 . S
C2156 C2155 1.383 . S
C2156 C2157 1.377 . S
C2157 H2141 0.930 . S
C2157 C2156 1.377 . S
C2157 C2158 1.379 . S
C2158 H2142 0.931 . S
C2158 C2152 1.383 . S
C2158 C2157 1.379 . S
H2159 C2153 0.959 . S
H2160 C2153 0.961 . S
H2161 C2153 0.960 . S
H2162 C2154 0.930 . S
H2163 C2155 0.929 . S
H2164 C2172 0.929 . S
H2165 C2174 0.930 . S
H2166 C2176 0.930 . S
H2167 C2179 0.929 . S
H2168 C2182 0.930 . S
H2169 C2184 0.979 . S
H2170 C2184 0.952 1_545 S
H2171 C2184 0.964 . S
C2172 H2164 0.929 . S
C2172 C2173 1.377 . S
C2172 C2174 1.384 . S
C2173 C2172 1.377 . S
C2173 C2179 1.390 . S
C2174 H2165 0.930 . S
C2174 C2172 1.384 . S
C2174 C2175 1.372 . S
C2175 C2174 1.372 . S
C2175 C2176 1.400 . S
C2175 C2180 1.490 . S
C2176 H2166 0.930 . S
C2176 C2175 1.400 . S
C2176 C2179 1.386 . S
H2177 C2193 0.930 . S
H2178 C2194 0.931 1_565 S
C2179 H2167 0.929 . S
C2179 C2173 1.390 . S
C2179 C2176 1.386 . S
C2180 C2175 1.490 . S
C2180 C2182 1.395 . S
C2180 C2183 1.403 . S
H2181 C2187 0.930 1_565 S
C2182 H2168 0.930 . S
C2182 C2180 1.395 . S
C2182 C2185 1.403 . S
C2183 C2180 1.403 . S
C2183 C2184 1.509 1_545 S
C2183 C2187 1.400 . S
C2184 H2169 0.979 . S
C2184 H2170 0.952 1_565 S
C2184 H2171 0.964 . S
C2184 C2183 1.509 1_565 S
C2185 C2182 1.403 . S
C2185 C2186 1.392 . S
C2185 C2189 1.495 . S
C2186 C2185 1.392 . S
C2186 C2187 1.385 . S
C2186 C2188 1.478 . S
C2187 H2181 0.930 1_545 S
C2187 C2183 1.400 . S
C2187 C2186 1.385 . S
C2188 C2186 1.478 . S
C2188 C2190 1.381 . S
C2188 C2194 1.383 . S
C2189 C2185 1.495 . S
C2189 H2195 0.959 . S
C2189 H2196 0.961 . S
C2189 H2197 0.960 . S
C2190 C2188 1.381 . S
C2190 C2191 1.394 . S
C2190 H2198 0.930 . S
C2191 C2190 1.394 . S
C2191 C2192 1.383 . S
C2191 H2199 0.929 . S
C2192 C2191 1.383 . S
C2192 C2193 1.377 1_545 S
C2193 H2177 0.930 . S
C2193 C2192 1.377 1_565 S
C2193 C2194 1.379 1_565 S
C2194 H2178 0.931 1_545 S
C2194 C2188 1.383 . S
C2194 C2193 1.379 1_545 S
H2195 C2189 0.959 . S
H2196 C2189 0.961 . S
H2197 C2189 0.960 . S
H2198 C2190 0.930 . S
H2199 C2191 0.929 . S
H2200 C2208 0.929 . S
H2201 C2210 0.930 . S
H2202 C2212 0.930 . S
H2203 C2215 0.929 . S
H2204 C2218 0.930 . S
H2205 C2220 0.960 . S
H2206 C2220 0.960 . S
H2207 C2220 0.960 . S
C2208 H2200 0.929 . S
C2208 C2209 1.377 . S
C2208 C2210 1.384 . S
C2209 C2208 1.377 . S
C2209 C2215 1.390 . S
C2210 H2201 0.930 . S
C2210 C2208 1.384 . S
C2210 C2211 1.372 . S
C2211 C2210 1.372 . S
C2211 C2212 1.400 . S
C2211 C2216 1.490 . S
C2212 H2202 0.930 . S
C2212 C2211 1.400 . S
C2212 C2215 1.386 . S
H2213 C2229 0.930 . S
H2214 C2230 0.931 . S
C2215 H2203 0.929 . S
C2215 C2209 1.390 . S
C2215 C2212 1.386 . S
C2216 C2211 1.490 . S
C2216 C2218 1.395 . S
C2216 C2219 1.403 . S
H2217 C2223 0.930 . S
C2218 H2204 0.930 . S
C2218 C2216 1.395 . S
C2218 C2221 1.403 . S
C2219 C2216 1.403 . S
C2219 C2220 1.524 . S
C2219 C2223 1.400 . S
C2220 H2205 0.960 . S
C2220 H2206 0.960 . S
C2220 H2207 0.960 . S
C2220 C2219 1.524 . S
C2221 C2218 1.403 . S
C2221 C2222 1.392 . S
C2221 C2225 1.495 . S
C2222 C2221 1.392 . S
C2222 C2223 1.385 . S
C2222 C2224 1.478 . S
C2223 H2217 0.930 . S
C2223 C2219 1.400 . S
C2223 C2222 1.385 . S
C2224 C2222 1.478 . S
C2224 C2226 1.381 . S
C2224 C2230 1.383 . S
C2225 C2221 1.495 . S
C2225 H2231 0.959 . S
C2225 H2232 0.961 . S
C2225 H2233 0.960 . S
C2226 C2224 1.381 . S
C2226 C2227 1.394 . S
C2226 H2234 0.930 . S
C2227 C2226 1.394 . S
C2227 C2228 1.383 . S
C2227 H2235 0.929 . S
C2228 C2227 1.383 . S
C2228 C2229 1.377 . S
C2229 H2213 0.930 . S
C2229 C2228 1.377 . S
C2229 C2230 1.379 . S
C2230 H2214 0.931 . S
C2230 C2224 1.383 . S
C2230 C2229 1.379 . S
H2231 C2225 0.959 . S
H2232 C2225 0.961 . S
H2233 C2225 0.960 . S
H2234 C2226 0.930 . S
H2235 C2227 0.929 . S
H2236 C2244 0.929 . S
H2237 C2246 0.930 . S
H2238 C2248 0.930 . S
H2239 C2251 0.929 . S
H2240 C2254 0.930 . S
H2241 C2256 0.960 . S
H2242 C2256 0.960 . S
H2243 C2256 0.960 . S
C2244 H2236 0.929 . S
C2244 C2245 1.377 . S
C2244 C2246 1.384 . S
C2245 C2244 1.377 . S
C2245 C2251 1.390 . S
C2246 H2237 0.930 . S
C2246 C2244 1.384 . S
C2246 C2247 1.372 . S
C2247 C2246 1.372 . S
C2247 C2248 1.400 . S
C2247 C2252 1.490 . S
C2248 H2238 0.930 . S
C2248 C2247 1.400 . S
C2248 C2251 1.386 . S
H2249 C2265 0.930 . S
H2250 C2266 0.931 . S
C2251 H2239 0.929 . S
C2251 C2245 1.390 . S
C2251 C2248 1.386 . S
C2252 C2247 1.490 . S
C2252 C2254 1.395 . S
C2252 C2255 1.403 . S
H2253 C2259 0.930 . S
C2254 H2240 0.930 . S
C2254 C2252 1.395 . S
C2254 C2257 1.403 . S
C2255 C2252 1.403 . S
C2255 C2256 1.524 . S
C2255 C2259 1.400 . S
C2256 H2241 0.960 . S
C2256 H2242 0.960 . S
C2256 H2243 0.960 . S
C2256 C2255 1.524 . S
C2257 C2254 1.403 . S
C2257 C2258 1.392 . S
C2257 C2261 1.495 . S
C2258 C2257 1.392 . S
C2258 C2259 1.385 . S
C2258 C2260 1.478 . S
C2259 H2253 0.930 . S
C2259 C2255 1.400 . S
C2259 C2258 1.385 . S
C2260 C2258 1.478 . S
C2260 C2262 1.381 . S
C2260 C2266 1.383 1_565 S
C2261 C2257 1.495 . S
C2261 H2267 0.959 . S
C2261 H2268 0.961 . S
C2261 H2269 0.960 . S
C2262 C2260 1.381 . S
C2262 C2263 1.394 . S
C2262 H2270 0.930 . S
C2263 C2262 1.394 . S
C2263 C2264 1.387 1_565 S
C2263 H2271 0.929 . S
C2264 C2263 1.387 1_545 S
C2264 C2265 1.375 . S
C2265 H2249 0.930 . S
C2265 C2264 1.375 . S
C2265 C2266 1.379 . S
C2266 H2250 0.931 . S
C2266 C2260 1.383 1_545 S
C2266 C2265 1.379 . S
H2267 C2261 0.959 . S
H2268 C2261 0.961 . S
H2269 C2261 0.960 . S
H2270 C2262 0.930 . S
H2271 C2263 0.929 . S
H2272 C2280 0.929 . S
H2273 C2282 0.930 . S
H2274 C2284 0.930 . S
H2275 C2287 0.929 . S
H2276 C2290 0.930 . S
H2277 C2292 0.960 . S
H2278 C2292 0.960 . S
H2279 C2292 0.960 . S
C2280 H2272 0.929 . S
C2280 C2281 1.377 . S
C2280 C2282 1.384 . S
C2281 C2280 1.377 . S
C2281 C2287 1.390 1_556 S
C2282 H2273 0.930 . S
C2282 C2280 1.384 . S
C2282 C2283 1.372 . S
C2283 C2282 1.372 . S
C2283 C2284 1.400 1_556 S
C2283 C2288 1.490 . S
C2284 H2274 0.930 . S
C2284 C2283 1.400 1_554 S
C2284 C2287 1.386 . S
H2285 C2301 0.930 . S
H2286 C2302 0.931 . S
C2287 H2275 0.929 . S
C2287 C2281 1.390 1_554 S
C2287 C2284 1.386 . S
C2288 C2283 1.490 . S
C2288 C2290 1.395 1_556 S
C2288 C2291 1.403 . S
H2289 C2295 0.930 . S
C2290 H2276 0.930 . S
C2290 C2288 1.395 1_554 S
C2290 C2293 1.403 . S
C2291 C2288 1.403 . S
C2291 C2292 1.524 . S
C2291 C2295 1.400 . S
C2292 H2277 0.960 . S
C2292 H2278 0.960 . S
C2292 H2279 0.960 . S
C2292 C2291 1.524 . S
C2293 C2290 1.403 . S
C2293 C2294 1.400 . S
C2293 C2297 1.495 . S
C2294 C2293 1.400 . S
C2294 C2295 1.376 1_554 S
C2294 C2296 1.477 . S
C2295 H2289 0.930 . S
C2295 C2291 1.400 . S
C2295 C2294 1.376 1_556 S
C2296 C2294 1.477 . S
C2296 C2298 1.357 1_554 S
C2296 C2302 1.407 . S
C2297 C2293 1.495 . S
C2297 H2303 0.959 . S
C2297 H2304 0.961 . S
C2297 H2305 0.960 . S
C2298 C2296 1.357 1_556 S
C2298 C2299 1.394 . S
C2298 H2306 0.930 . S
C2299 C2298 1.394 . S
C2299 C2300 1.392 . S
C2299 H2307 0.929 . S
C2300 C2299 1.392 . S
C2300 C2301 1.368 1_556 S
C2301 H2285 0.930 . S
C2301 C2300 1.368 1_554 S
C2301 C2302 1.379 . S
C2302 H2286 0.931 . S
C2302 C2296 1.407 . S
C2302 C2301 1.379 . S
H2303 C2297 0.959 . S
H2304 C2297 0.961 . S
H2305 C2297 0.960 . S
H2306 C2298 0.930 . S
H2307 C2299 0.929 . S
H2308 C2316 0.929 . S
H2309 C2318 0.930 . S
H2310 C2320 0.930 . S
H2311 C2323 0.929 . S
H2312 C2326 0.930 . S
H2313 C2328 0.960 . S
H2314 C2328 0.960 . S
H2315 C2328 0.960 . S
C2316 H2308 0.929 . S
C2316 C2317 1.377 . S
C2316 C2318 1.384 . S
C2317 C2316 1.377 . S
C2317 C2323 1.390 . S
C2318 H2309 0.930 . S
C2318 C2316 1.384 . S
C2318 C2319 1.372 . S
C2319 C2318 1.372 . S
C2319 C2320 1.400 . S
C2319 C2324 1.490 . S
C2320 H2310 0.930 . S
C2320 C2319 1.400 . S
C2320 C2323 1.386 . S
H2321 C2337 0.930 . S
H2322 C2338 0.931 . S
C2323 H2311 0.929 . S
C2323 C2317 1.390 . S
C2323 C2320 1.386 . S
C2324 C2319 1.490 . S
C2324 C2326 1.395 . S
C2324 C2327 1.403 . S
H2325 C2331 0.930 . S
C2326 H2312 0.930 . S
C2326 C2324 1.395 . S
C2326 C2329 1.403 . S
C2327 C2324 1.403 . S
C2327 C2328 1.524 . S
C2327 C2331 1.400 . S
C2328 H2313 0.960 . S
C2328 H2314 0.960 . S
C2328 H2315 0.960 . S
C2328 C2327 1.524 . S
C2329 C2326 1.403 . S
C2329 C2330 1.392 . S
C2329 C2333 1.495 . S
C2330 C2329 1.392 . S
C2330 C2331 1.385 . S
C2330 C2332 1.478 . S
C2331 H2325 0.930 . S
C2331 C2327 1.400 . S
C2331 C2330 1.385 . S
C2332 C2330 1.478 . S
C2332 C2334 1.381 . S
C2332 C2338 1.383 . S
C2333 C2329 1.495 . S
C2333 H2339 0.959 . S
C2333 H2340 0.961 . S
C2333 H2341 0.960 . S
C2334 C2332 1.381 . S
C2334 C2335 1.394 . S
C2334 H2342 0.930 . S
C2335 C2334 1.394 . S
C2335 C2336 1.383 . S
C2335 H2343 0.929 . S
C2336 C2335 1.383 . S
C2336 C2337 1.377 . S
C2337 H2321 0.930 . S
C2337 C2336 1.377 . S
C2337 C2338 1.379 . S
C2338 H2322 0.931 . S
C2338 C2332 1.383 . S
C2338 C2337 1.379 . S
H2339 C2333 0.959 . S
H2340 C2333 0.961 . S
H2341 C2333 0.960 . S
H2342 C2334 0.930 . S
H2343 C2335 0.929 . S
H2344 C2352 0.929 . S
H2345 C2354 0.930 . S
H2346 C2356 0.930 . S
H2347 C2359 0.929 . S
H2348 C2362 0.930 . S
H2349 C2364 0.960 . S
H2350 C2364 0.960 . S
H2351 C2364 0.960 . S
C2352 H2344 0.929 . S
C2352 C2353 1.377 . S
C2352 C2354 1.384 . S
C2353 C2352 1.377 . S
C2353 C2359 1.390 . S
C2354 H2345 0.930 . S
C2354 C2352 1.384 . S
C2354 C2355 1.372 . S
C2355 C2354 1.372 . S
C2355 C2356 1.400 . S
C2355 C2360 1.490 . S
C2356 H2346 0.930 . S
C2356 C2355 1.400 . S
C2356 C2359 1.386 . S
H2357 C2373 0.930 . S
H2358 C2374 0.931 . S
C2359 H2347 0.929 . S
C2359 C2353 1.390 . S
C2359 C2356 1.386 . S
C2360 C2355 1.490 . S
C2360 C2362 1.395 . S
C2360 C2363 1.403 1_455 S
H2361 C2367 0.930 . S
C2362 H2348 0.930 . S
C2362 C2360 1.395 . S
C2362 C2365 1.403 . S
C2363 C2360 1.403 1_655 S
C2363 C2364 1.524 . S
C2363 C2367 1.400 . S
C2364 H2349 0.960 . S
C2364 H2350 0.960 . S
C2364 H2351 0.960 . S
C2364 C2363 1.524 . S
C2365 C2362 1.403 . S
C2365 C2366 1.392 1_455 S
C2365 C2369 1.495 . S
C2366 C2365 1.392 1_655 S
C2366 C2367 1.385 . S
C2366 C2368 1.478 . S
C2367 H2361 0.930 . S
C2367 C2363 1.400 . S
C2367 C2366 1.385 . S
C2368 C2366 1.478 . S
C2368 C2370 1.381 . S
C2368 C2374 1.383 . S
C2369 C2365 1.495 . S
C2369 H2375 0.959 . S
C2369 H2376 0.961 . S
C2369 H2377 0.960 . S
C2370 C2368 1.381 . S
C2370 C2371 1.394 . S
C2370 H2378 0.930 . S
C2371 C2370 1.394 . S
C2371 C2372 1.383 . S
C2371 H2379 0.929 . S
C2372 C2371 1.383 . S
C2372 C2373 1.377 . S
C2373 H2357 0.930 . S
C2373 C2372 1.377 . S
C2373 C2374 1.379 . S
C2374 H2358 0.931 . S
C2374 C2368 1.383 . S
C2374 C2373 1.379 . S
H2375 C2369 0.959 . S
H2376 C2369 0.961 . S
H2377 C2369 0.960 . S
H2378 C2370 0.930 . S
H2379 C2371 0.929 . S
H2380 C2388 0.929 . S
H2381 C2390 0.930 . S
H2382 C2392 0.930 . S
H2383 C2395 0.929 . S
H2384 C2398 0.930 . S
H2385 C2400 0.960 1_655 S
H2386 C2400 0.960 1_655 S
H2387 C2400 0.960 . S
C2388 H2380 0.929 . S
C2388 C2389 1.377 . S
C2388 C2390 1.384 . S
C2389 C2388 1.377 . S
C2389 C2395 1.390 . S
C2390 H2381 0.930 . S
C2390 C2388 1.384 . S
C2390 C2391 1.372 . S
C2391 C2390 1.372 . S
C2391 C2392 1.400 . S
C2391 C2396 1.490 . S
C2392 H2382 0.930 . S
C2392 C2391 1.400 . S
C2392 C2395 1.386 . S
H2393 C2409 0.930 . S
H2394 C2410 0.931 . S
C2395 H2383 0.929 . S
C2395 C2389 1.390 . S
C2395 C2392 1.386 . S
C2396 C2391 1.490 . S
C2396 C2398 1.395 . S
C2396 C2399 1.403 . S
H2397 C2403 0.930 . S
C2398 H2384 0.930 . S
C2398 C2396 1.395 . S
C2398 C2401 1.403 1_455 S
C2399 C2396 1.403 . S
C2399 C2400 1.524 . S
C2399 C2403 1.400 1_455 S
C2400 H2385 0.960 1_455 S
C2400 H2386 0.960 1_455 S
C2400 H2387 0.960 . S
C2400 C2399 1.524 . S
C2401 C2398 1.403 1_655 S
C2401 C2402 1.392 . S
C2401 C2405 1.495 . S
C2402 C2401 1.392 . S
C2402 C2403 1.385 . S
C2402 C2404 1.478 . S
C2403 H2397 0.930 . S
C2403 C2399 1.400 1_655 S
C2403 C2402 1.385 . S
C2404 C2402 1.478 . S
C2404 C2406 1.381 . S
C2404 C2410 1.383 . S
C2405 C2401 1.495 . S
C2405 H2411 0.959 1_655 S
C2405 H2412 0.963 . S
C2405 H2413 0.960 . S
C2406 C2404 1.381 . S
C2406 C2407 1.394 . S
C2406 H2414 0.930 . S
C2407 C2406 1.394 . S
C2407 C2408 1.383 . S
C2407 H2415 0.929 . S
C2408 C2407 1.383 . S
C2408 C2409 1.377 . S
C2409 H2393 0.930 . S
C2409 C2408 1.377 . S
C2409 C2410 1.379 . S
C2410 H2394 0.931 . S
C2410 C2404 1.383 . S
C2410 C2409 1.379 . S
H2411 C2405 0.959 1_455 S
H2412 C2405 0.963 . S
H2413 C2405 0.960 . S
H2414 C2406 0.930 . S
H2415 C2407 0.929 . S
H2416 C2424 0.929 . S
H2417 C2426 0.930 . S
H2418 C2428 0.930 . S
H2419 C2431 0.929 . S
H2420 C2434 0.930 . S
H2421 C2436 0.968 . S
H2422 C2436 0.911 1_554 S
H2423 C2436 1.009 . S
C2424 H2416 0.929 . S
C2424 C2425 1.377 . S
C2424 C2426 1.384 . S
C2425 C2424 1.377 . S
C2425 C2431 1.390 1_554 S
C2426 H2417 0.930 . S
C2426 C2424 1.384 . S
C2426 C2427 1.372 . S
C2427 C2426 1.372 . S
C2427 C2428 1.400 1_554 S
C2427 C2432 1.490 . S
C2428 H2418 0.930 . S
C2428 C2427 1.400 1_556 S
C2428 C2431 1.386 . S
H2429 C2445 0.930 . S
H2430 C2446 0.931 . S
C2431 H2419 0.929 . S
C2431 C2425 1.390 1_556 S
C2431 C2428 1.386 . S
C2432 C2427 1.490 . S
C2432 C2434 1.395 . S
C2432 C2435 1.405 . S
H2433 C2439 0.929 1_556 S
C2434 H2420 0.930 . S
C2434 C2432 1.395 . S
C2434 C2437 1.403 . S
C2435 C2432 1.405 . S
C2435 C2436 1.520 1_554 S
C2435 C2439 1.400 . S
C2436 H2421 0.968 . S
C2436 H2422 0.911 1_556 S
C2436 H2423 1.009 . S
C2436 C2435 1.520 1_556 S
C2437 C2434 1.403 . S
C2437 C2438 1.392 . S
C2437 C2441 1.495 . S
C2438 C2437 1.392 . S
C2438 C2439 1.386 . S
C2438 C2440 1.478 . S
C2439 H2433 0.929 1_554 S
C2439 C2435 1.400 . S
C2439 C2438 1.386 . S
C2440 C2438 1.478 . S
C2440 C2442 1.381 . S
C2440 C2446 1.383 1_554 S
C2441 C2437 1.495 . S
C2441 H2447 0.959 . S
C2441 H2448 0.961 1_554 S
C2441 H2449 0.960 . S
C2442 C2440 1.381 . S
C2442 C2443 1.394 . S
C2442 H2450 0.930 . S
C2443 C2442 1.394 . S
C2443 C2444 1.383 . S
C2443 H2451 0.929 . S
C2444 C2443 1.383 . S
C2444 C2445 1.377 1_554 S
C2445 H2429 0.930 . S
C2445 C2444 1.377 1_556 S
C2445 C2446 1.379 . S
C2446 H2430 0.931 . S
C2446 C2440 1.383 1_556 S
C2446 C2445 1.379 . S
H2447 C2441 0.959 . S
H2448 C2441 0.961 1_556 S
H2449 C2441 0.960 . S
H2450 C2442 0.930 . S
H2451 C2443 0.929 . S
H2452 C2460 0.929 . S
H2453 C2462 0.930 . S
H2454 C2464 0.930 . S
H2455 C2467 0.929 . S
H2456 C2470 0.930 . S
H2457 C2472 0.960 . S
H2458 C2472 0.960 . S
H2459 C2472 0.960 . S
C2460 H2452 0.929 . S
C2460 C2461 1.377 . S
C2460 C2462 1.384 . S
C2461 C2460 1.377 . S
C2461 C2467 1.390 . S
C2462 H2453 0.930 . S
C2462 C2460 1.384 . S
C2462 C2463 1.372 . S
C2463 C2462 1.372 . S
C2463 C2464 1.400 . S
C2463 C2468 1.490 . S
C2464 H2454 0.930 . S
C2464 C2463 1.400 . S
C2464 C2467 1.386 . S
H2465 C2481 0.930 . S
H2466 C2482 0.931 . S
C2467 H2455 0.929 . S
C2467 C2461 1.390 . S
C2467 C2464 1.386 . S
C2468 C2463 1.490 . S
C2468 C2470 1.395 . S
C2468 C2471 1.403 . S
H2469 C2475 0.930 . S
C2470 H2456 0.930 . S
C2470 C2468 1.395 . S
C2470 C2473 1.403 . S
C2471 C2468 1.403 . S
C2471 C2472 1.524 . S
C2471 C2475 1.400 . S
C2472 H2457 0.960 . S
C2472 H2458 0.960 . S
C2472 H2459 0.960 . S
C2472 C2471 1.524 . S
C2473 C2470 1.403 . S
C2473 C2474 1.392 . S
C2473 C2477 1.495 . S
C2474 C2473 1.392 . S
C2474 C2475 1.385 . S
C2474 C2476 1.478 . S
C2475 H2469 0.930 . S
C2475 C2471 1.400 . S
C2475 C2474 1.385 . S
C2476 C2474 1.478 . S
C2476 C2478 1.381 . S
C2476 C2482 1.383 . S
C2477 C2473 1.495 . S
C2477 H2483 0.959 . S
C2477 H2484 0.961 . S
C2477 H2485 0.960 . S
C2478 C2476 1.381 . S
C2478 C2479 1.394 . S
C2478 H2486 0.930 . S
C2479 C2478 1.394 . S
C2479 C2480 1.383 . S
C2479 H2487 0.929 . S
C2480 C2479 1.383 . S
C2480 C2481 1.377 . S
C2481 H2465 0.930 . S
C2481 C2480 1.377 . S
C2481 C2482 1.379 . S
C2482 H2466 0.931 . S
C2482 C2476 1.383 . S
C2482 C2481 1.379 . S
H2483 C2477 0.959 . S
H2484 C2477 0.961 . S
H2485 C2477 0.960 . S
H2486 C2478 0.930 . S
H2487 C2479 0.929 . S
H2488 C2496 0.929 . S
H2489 C2498 0.930 . S
H2490 C2500 0.930 . S
H2491 C2503 0.929 . S
H2492 C2506 0.930 . S
H2493 C2508 0.960 . S
H2494 C2508 0.960 . S
H2495 C2508 0.960 . S
C2496 H2488 0.929 . S
C2496 C2497 1.377 . S
C2496 C2498 1.384 . S
C2497 C2496 1.377 . S
C2497 C2503 1.390 . S
C2498 H2489 0.930 . S
C2498 C2496 1.384 . S
C2498 C2499 1.372 . S
C2499 C2498 1.372 . S
C2499 C2500 1.400 . S
C2499 C2504 1.490 . S
C2500 H2490 0.930 . S
C2500 C2499 1.400 . S
C2500 C2503 1.386 . S
H2501 C2517 0.930 . S
H2502 C2518 0.931 . S
C2503 H2491 0.929 . S
C2503 C2497 1.390 . S
C2503 C2500 1.386 . S
C2504 C2499 1.490 . S
C2504 C2506 1.395 . S
C2504 C2507 1.403 . S
H2505 C2511 0.930 . S
C2506 H2492 0.930 . S
C2506 C2504 1.395 . S
C2506 C2509 1.403 1_455 S
C2507 C2504 1.403 . S
C2507 C2508 1.524 . S
C2507 C2511 1.400 1_455 S
C2508 H2493 0.960 . S
C2508 H2494 0.960 . S
C2508 H2495 0.960 . S
C2508 C2507 1.524 . S
C2509 C2506 1.403 1_655 S
C2509 C2510 1.392 . S
C2509 C2513 1.495 . S
C2510 C2509 1.392 . S
C2510 C2511 1.385 . S
C2510 C2512 1.478 . S
C2511 H2505 0.930 . S
C2511 C2507 1.400 1_655 S
C2511 C2510 1.385 . S
C2512 C2510 1.478 . S
C2512 C2514 1.381 . S
C2512 C2518 1.383 . S
C2513 C2509 1.495 . S
C2513 H2519 0.959 . S
C2513 H2520 0.961 . S
C2513 H2521 0.960 . S
C2514 C2512 1.381 . S
C2514 C2515 1.394 . S
C2514 H2522 0.930 . S
C2515 C2514 1.394 . S
C2515 C2516 1.383 . S
C2515 H2523 0.929 . S
C2516 C2515 1.383 . S
C2516 C2517 1.377 . S
C2517 H2501 0.930 . S
C2517 C2516 1.377 . S
C2517 C2518 1.379 . S
C2518 H2502 0.931 . S
C2518 C2512 1.383 . S
C2518 C2517 1.379 . S
H2519 C2513 0.959 . S
H2520 C2513 0.961 . S
H2521 C2513 0.960 . S
H2522 C2514 0.930 . S
H2523 C2515 0.929 . S
H2524 C2532 0.929 . S
H2525 C2534 0.930 . S
H2526 C2536 0.930 . S
H2527 C2539 0.929 . S
H2528 C2542 0.930 . S
H2529 C2544 0.960 . S
H2530 C2544 0.960 . S
H2531 C2544 0.960 . S
C2532 H2524 0.929 . S
C2532 C2533 1.377 . S
C2532 C2534 1.384 . S
C2533 C2532 1.377 . S
C2533 C2539 1.390 . S
C2534 H2525 0.930 . S
C2534 C2532 1.384 . S
C2534 C2535 1.372 . S
C2535 C2534 1.372 . S
C2535 C2536 1.400 . S
C2535 C2540 1.490 . S
C2536 H2526 0.930 . S
C2536 C2535 1.400 . S
C2536 C2539 1.386 . S
H2537 C2553 0.930 . S
H2538 C2554 0.931 . S
C2539 H2527 0.929 . S
C2539 C2533 1.390 . S
C2539 C2536 1.386 . S
C2540 C2535 1.490 . S
C2540 C2542 1.395 1_455 S
C2540 C2543 1.403 . S
H2541 C2547 0.930 . S
C2542 H2528 0.930 . S
C2542 C2540 1.395 1_655 S
C2542 C2545 1.403 . S
C2543 C2540 1.403 . S
C2543 C2544 1.524 . S
C2543 C2547 1.400 . S
C2544 H2529 0.960 . S
C2544 H2530 0.960 . S
C2544 H2531 0.960 . S
C2544 C2543 1.524 . S
C2545 C2542 1.403 . S
C2545 C2546 1.392 . S
C2545 C2549 1.495 . S
C2546 C2545 1.392 . S
C2546 C2547 1.385 1_655 S
C2546 C2548 1.478 . S
C2547 H2541 0.930 . S
C2547 C2543 1.400 . S
C2547 C2546 1.385 1_455 S
C2548 C2546 1.478 . S
C2548 C2550 1.381 . S
C2548 C2554 1.383 . S
C2549 C2545 1.495 . S
C2549 H2555 0.959 . S
C2549 H2556 0.961 . S
C2549 H2557 0.960 . S
C2550 C2548 1.381 . S
C2550 C2551 1.394 . S
C2550 H2558 0.930 . S
C2551 C2550 1.394 . S
C2551 C2552 1.383 . S
C2551 H2559 0.929 . S
C2552 C2551 1.383 . S
C2552 C2553 1.377 . S
C2553 H2537 0.930 . S
C2553 C2552 1.377 . S
C2553 C2554 1.379 . S
C2554 H2538 0.931 . S
C2554 C2548 1.383 . S
C2554 C2553 1.379 . S
H2555 C2549 0.959 . S
H2556 C2549 0.961 . S
H2557 C2549 0.960 . S
H2558 C2550 0.930 . S
H2559 C2551 0.929 . S
C553 C253 1.424 . S
C572 C3 1.359 . S
C589 C430 1.424 . S
C608 C37 1.347 . S
C625 C71 1.358 . S
C644 C185 1.417 . S
C661 C498 1.424 . S
C680 C105 1.387 . S
C697 C117 1.425 . S
C716 C137 1.376 . S
C733 C173 1.355 . S
C752 C287 1.415 . S
C769 C205 1.361 . S
C788 C49 1.427 . S
C805 C362 1.423 . S
C824 C241 1.325 . S
C841 C525 1.424 . S
C860 C275 1.382 . S
C877 C307 1.356 1_565 S
C896 C158 1.414 . S
C913 C464 1.424 . S
C932 C341 1.364 . S
C949 C226 1.422 . S
C968 C375 1.325 1_545 S
C985 C396 1.422 . S
C1004 C409 1.364 . S
C1021 C443 1.352 1_545 S
C1040 C15 1.418 . S
C1057 C477 1.362 . S
C1076 C328 1.426 . S
C1093 C83 1.423 . S
C1112 C513 1.324 1_565 S
C1129 C17 2.067 . S
C1148 C479 1.987 . S
C1165 C239 1.962 . S
C1184 C51 2.066 . S
C1201 C411 1.961 . S
C1220 C85 2.054 . S
C1237 C119 2.066 . S
C1256 C171 1.985 . S
C1273 C343 1.961 . S
C1292 C153 2.071 . S
C1309 C103 1.965 . S
C1328 C187 2.065 . S
C1345 C221 2.067 . S
C1364 C273 1.949 . S
C1381 C255 2.068 . S
C1400 C35 1.937 . S
C1417 C289 2.066 . S
C1436 C207 1.987 . S
C1453 C323 2.065 . S
C1472 C511 1.937 . S
C1489 C139 1.965 . S
C1508 C357 2.052 . S
C1525 C445 1.967 . S
C1544 C391 2.072 . S
C1561 C69 1.970 . S
C1580 C425 2.052 . S
C1597 C459 2.064 . S
C1616 C377 1.987 . S
C1633 C1 1.963 . S
C1652 C493 2.068 . S
C1669 C309 1.969 . S
C1688 C527 2.053 . S
C1705 C6 1.298 . S
C1724 C312 1.311 . S
C1741 C346 1.320 . S
C1760 C40 1.296 . S
C1777 C380 1.320 . S
C1796 C74 1.289 . S
C1813 C300 1.320 . S
C1832 C108 1.303 . S
C1849 C164 1.299 . S
C1868 C448 1.314 . S
C1885 C176 1.303 . S
C1904 C482 1.321 . S
C1921 C538 1.318 . S
C1940 C232 1.278 . S
C1957 C414 1.319 . S
C1976 C244 1.307 . S
C1993 C62 1.318 . S
C2012 C278 1.296 . S
C2029 C96 1.320 . S
C2048 C334 1.279 . S
C2065 C368 1.303 . S
C2084 C130 1.314 . S
C2101 C402 1.306 . S
C2120 C28 1.312 . S
C2137 C436 1.299 . S
C2156 C198 1.314 . S
C2173 C210 1.320 . S
C2192 C470 1.300 1_545 S
C2209 C504 1.299 . S
C2228 C266 1.314 . S
C2245 C142 1.320 . S
C2264 C516 1.313 . S
C2281 C355 0.647 1_556 S
C2300 C22 0.578 1_556 S
C2317 C56 0.607 . S
C2336 C389 0.625 . S
C2353 C90 0.648 . S
C2372 C294 0.605 . S
C2389 C321 0.624 . S
C2408 C124 0.531 . S
C2425 C151 0.643 1_554 S
C2444 C491 0.614 1_554 S
C2461 C532 0.618 . S
C2480 C192 0.719 . S
C2497 C423 0.647 . S
C2516 C219 0.530 . S
C2533 C260 0.610 . S
C2552 C457 0.680 . S
