# Generated by pormake.
# Topology wlh, (5)-cn, num edge types: 1
# Building blocks:
#     Node 0, Type 0, BuildingBlock: XOMCOT_clean_sbu_0, # of connection points: 5
#     Node 1, Type 0, BuildingBlock: XOMCOT_clean_sbu_0, # of connection points: 5
#     Node 2, Type 0, BuildingBlock: XOMCOT_clean_sbu_0, # of connection points: 5
#     Node 3, Type 0, BuildingBlock: XOMCOT_clean_sbu_0, # of connection points: 5
#     Node 4, Type 0, BuildingBlock: XOMCOT_clean_sbu_0, # of connection points: 5
#     Node 5, Type 0, BuildingBlock: XOMCOT_clean_sbu_0, # of connection points: 5
#     Node 6, Type 0, BuildingBlock: XOMCOT_clean_sbu_0, # of connection points: 5
#     Node 7, Type 0, BuildingBlock: XOMCOT_clean_sbu_0, # of connection points: 5
#     Node 8, Type 0, BuildingBlock: XOMCOT_clean_sbu_0, # of connection points: 5
#     Node 9, Type 0, BuildingBlock: XOMCOT_clean_sbu_0, # of connection points: 5
#     Node 10, Type 0, BuildingBlock: XOMCOT_clean_sbu_0, # of connection points: 5
#     Node 11, Type 0, BuildingBlock: XOMCOT_clean_sbu_0, # of connection points: 5
#     Node 12, Type 0, BuildingBlock: XOMCOT_clean_sbu_0, # of connection points: 5
#     Node 13, Type 0, BuildingBlock: XOMCOT_clean_sbu_0, # of connection points: 5
#     Node 14, Type 0, BuildingBlock: XOMCOT_clean_sbu_0, # of connection points: 5
#     Node 15, Type 0, BuildingBlock: XOMCOT_clean_sbu_0, # of connection points: 5
#     Node 16, Type 0, BuildingBlock: XOMCOT_clean_sbu_0, # of connection points: 5
#     Node 17, Type 0, BuildingBlock: XOMCOT_clean_sbu_0, # of connection points: 5
#     Node 18, Type 0, BuildingBlock: XOMCOT_clean_sbu_0, # of connection points: 5
#     Node 19, Type 0, BuildingBlock: XOMCOT_clean_sbu_0, # of connection points: 5
#     Node 20, Type 0, BuildingBlock: XOMCOT_clean_sbu_0, # of connection points: 5
#     Node 21, Type 0, BuildingBlock: XOMCOT_clean_sbu_0, # of connection points: 5
#     Node 22, Type 0, BuildingBlock: XOMCOT_clean_sbu_0, # of connection points: 5
#     Node 23, Type 0, BuildingBlock: XOMCOT_clean_sbu_0, # of connection points: 5
#     Node 24, Type 0, BuildingBlock: XOMCOT_clean_sbu_0, # of connection points: 5
#     Node 25, Type 0, BuildingBlock: XOMCOT_clean_sbu_0, # of connection points: 5
#     Node 26, Type 0, BuildingBlock: XOMCOT_clean_sbu_0, # of connection points: 5
#     Node 27, Type 0, BuildingBlock: XOMCOT_clean_sbu_0, # of connection points: 5
#     Node 28, Type 0, BuildingBlock: XOMCOT_clean_sbu_0, # of connection points: 5
#     Node 29, Type 0, BuildingBlock: XOMCOT_clean_sbu_0, # of connection points: 5
#     Node 30, Type 0, BuildingBlock: XOMCOT_clean_sbu_0, # of connection points: 5
#     Node 31, Type 0, BuildingBlock: XOMCOT_clean_sbu_0, # of connection points: 5
#     Node 32, Type 0, BuildingBlock: XOMCOT_clean_sbu_0, # of connection points: 5
#     Node 33, Type 0, BuildingBlock: XOMCOT_clean_sbu_0, # of connection points: 5
#     Node 34, Type 0, BuildingBlock: XOMCOT_clean_sbu_0, # of connection points: 5
#     Node 35, Type 0, BuildingBlock: XOMCOT_clean_sbu_0, # of connection points: 5
#     Edge 36, Type (0, 0), BuildingBlock: KIFKEQ_clean_linker_1, # of connection points: 2
#     Edge 37, Type (0, 0), BuildingBlock: KIFKEQ_clean_linker_1, # of connection points: 2
#     Edge 38, Type (0, 0), BuildingBlock: KIFKEQ_clean_linker_1, # of connection points: 2
#     Edge 39, Type (0, 0), BuildingBlock: KIFKEQ_clean_linker_1, # of connection points: 2
#     Edge 40, Type (0, 0), BuildingBlock: KIFKEQ_clean_linker_1, # of connection points: 2
#     Edge 41, Type (0, 0), BuildingBlock: KIFKEQ_clean_linker_1, # of connection points: 2
#     Edge 42, Type (0, 0), BuildingBlock: KIFKEQ_clean_linker_1, # of connection points: 2
#     Edge 43, Type (0, 0), BuildingBlock: KIFKEQ_clean_linker_1, # of connection points: 2
#     Edge 44, Type (0, 0), BuildingBlock: KIFKEQ_clean_linker_1, # of connection points: 2
#     Edge 45, Type (0, 0), BuildingBlock: KIFKEQ_clean_linker_1, # of connection points: 2
#     Edge 46, Type (0, 0), BuildingBlock: KIFKEQ_clean_linker_1, # of connection points: 2
#     Edge 47, Type (0, 0), BuildingBlock: KIFKEQ_clean_linker_1, # of connection points: 2
#     Edge 48, Type (0, 0), BuildingBlock: KIFKEQ_clean_linker_1, # of connection points: 2
#     Edge 49, Type (0, 0), BuildingBlock: KIFKEQ_clean_linker_1, # of connection points: 2
#     Edge 50, Type (0, 0), BuildingBlock: KIFKEQ_clean_linker_1, # of connection points: 2
#     Edge 51, Type (0, 0), BuildingBlock: KIFKEQ_clean_linker_1, # of connection points: 2
#     Edge 52, Type (0, 0), BuildingBlock: KIFKEQ_clean_linker_1, # of connection points: 2
#     Edge 53, Type (0, 0), BuildingBlock: KIFKEQ_clean_linker_1, # of connection points: 2
#     Edge 54, Type (0, 0), BuildingBlock: KIFKEQ_clean_linker_1, # of connection points: 2
#     Edge 55, Type (0, 0), BuildingBlock: KIFKEQ_clean_linker_1, # of connection points: 2
#     Edge 56, Type (0, 0), BuildingBlock: KIFKEQ_clean_linker_1, # of connection points: 2
#     Edge 57, Type (0, 0), BuildingBlock: KIFKEQ_clean_linker_1, # of connection points: 2
#     Edge 58, Type (0, 0), BuildingBlock: KIFKEQ_clean_linker_1, # of connection points: 2
#     Edge 59, Type (0, 0), BuildingBlock: KIFKEQ_clean_linker_1, # of connection points: 2
#     Edge 60, Type (0, 0), BuildingBlock: KIFKEQ_clean_linker_1, # of connection points: 2
#     Edge 61, Type (0, 0), BuildingBlock: KIFKEQ_clean_linker_1, # of connection points: 2
#     Edge 62, Type (0, 0), BuildingBlock: KIFKEQ_clean_linker_1, # of connection points: 2
#     Edge 63, Type (0, 0), BuildingBlock: KIFKEQ_clean_linker_1, # of connection points: 2
#     Edge 64, Type (0, 0), BuildingBlock: KIFKEQ_clean_linker_1, # of connection points: 2
#     Edge 65, Type (0, 0), BuildingBlock: KIFKEQ_clean_linker_1, # of connection points: 2
#     Edge 66, Type (0, 0), BuildingBlock: KIFKEQ_clean_linker_1, # of connection points: 2
#     Edge 67, Type (0, 0), BuildingBlock: KIFKEQ_clean_linker_1, # of connection points: 2
#     Edge 68, Type (0, 0), BuildingBlock: KIFKEQ_clean_linker_1, # of connection points: 2
#     Edge 69, Type (0, 0), BuildingBlock: KIFKEQ_clean_linker_1, # of connection points: 2
#     Edge 70, Type (0, 0), BuildingBlock: KIFKEQ_clean_linker_1, # of connection points: 2
#     Edge 71, Type (0, 0), BuildingBlock: KIFKEQ_clean_linker_1, # of connection points: 2
#     Edge 72, Type (0, 0), BuildingBlock: KIFKEQ_clean_linker_1, # of connection points: 2
#     Edge 73, Type (0, 0), BuildingBlock: KIFKEQ_clean_linker_1, # of connection points: 2
#     Edge 74, Type (0, 0), BuildingBlock: KIFKEQ_clean_linker_1, # of connection points: 2
#     Edge 75, Type (0, 0), BuildingBlock: KIFKEQ_clean_linker_1, # of connection points: 2
#     Edge 76, Type (0, 0), BuildingBlock: KIFKEQ_clean_linker_1, # of connection points: 2
#     Edge 77, Type (0, 0), BuildingBlock: KIFKEQ_clean_linker_1, # of connection points: 2
#     Edge 78, Type (0, 0), BuildingBlock: KIFKEQ_clean_linker_1, # of connection points: 2
#     Edge 79, Type (0, 0), BuildingBlock: KIFKEQ_clean_linker_1, # of connection points: 2
#     Edge 80, Type (0, 0), BuildingBlock: KIFKEQ_clean_linker_1, # of connection points: 2
#     Edge 81, Type (0, 0), BuildingBlock: KIFKEQ_clean_linker_1, # of connection points: 2
#     Edge 82, Type (0, 0), BuildingBlock: KIFKEQ_clean_linker_1, # of connection points: 2
#     Edge 83, Type (0, 0), BuildingBlock: KIFKEQ_clean_linker_1, # of connection points: 2
#     Edge 84, Type (0, 0), BuildingBlock: KIFKEQ_clean_linker_1, # of connection points: 2
#     Edge 85, Type (0, 0), BuildingBlock: KIFKEQ_clean_linker_1, # of connection points: 2
#     Edge 86, Type (0, 0), BuildingBlock: KIFKEQ_clean_linker_1, # of connection points: 2
#     Edge 87, Type (0, 0), BuildingBlock: KIFKEQ_clean_linker_1, # of connection points: 2
#     Edge 88, Type (0, 0), BuildingBlock: KIFKEQ_clean_linker_1, # of connection points: 2
#     Edge 89, Type (0, 0), BuildingBlock: KIFKEQ_clean_linker_1, # of connection points: 2
#     Edge 90, Type (0, 0), BuildingBlock: KIFKEQ_clean_linker_1, # of connection points: 2
#     Edge 91, Type (0, 0), BuildingBlock: KIFKEQ_clean_linker_1, # of connection points: 2
#     Edge 92, Type (0, 0), BuildingBlock: KIFKEQ_clean_linker_1, # of connection points: 2
#     Edge 93, Type (0, 0), BuildingBlock: KIFKEQ_clean_linker_1, # of connection points: 2
#     Edge 94, Type (0, 0), BuildingBlock: KIFKEQ_clean_linker_1, # of connection points: 2
#     Edge 95, Type (0, 0), BuildingBlock: KIFKEQ_clean_linker_1, # of connection points: 2
#     Edge 96, Type (0, 0), BuildingBlock: KIFKEQ_clean_linker_1, # of connection points: 2
#     Edge 97, Type (0, 0), BuildingBlock: KIFKEQ_clean_linker_1, # of connection points: 2
#     Edge 98, Type (0, 0), BuildingBlock: KIFKEQ_clean_linker_1, # of connection points: 2
#     Edge 99, Type (0, 0), BuildingBlock: KIFKEQ_clean_linker_1, # of connection points: 2
#     Edge 100, Type (0, 0), BuildingBlock: KIFKEQ_clean_linker_1, # of connection points: 2
#     Edge 101, Type (0, 0), BuildingBlock: KIFKEQ_clean_linker_1, # of connection points: 2
#     Edge 102, Type (0, 0), BuildingBlock: KIFKEQ_clean_linker_1, # of connection points: 2
#     Edge 103, Type (0, 0), BuildingBlock: KIFKEQ_clean_linker_1, # of connection points: 2
#     Edge 104, Type (0, 0), BuildingBlock: KIFKEQ_clean_linker_1, # of connection points: 2
#     Edge 105, Type (0, 0), BuildingBlock: KIFKEQ_clean_linker_1, # of connection points: 2
#     Edge 106, Type (0, 0), BuildingBlock: KIFKEQ_clean_linker_1, # of connection points: 2
#     Edge 107, Type (0, 0), BuildingBlock: KIFKEQ_clean_linker_1, # of connection points: 2
#     Edge 108, Type (0, 0), BuildingBlock: KIFKEQ_clean_linker_1, # of connection points: 2
#     Edge 109, Type (0, 0), BuildingBlock: KIFKEQ_clean_linker_1, # of connection points: 2
#     Edge 110, Type (0, 0), BuildingBlock: KIFKEQ_clean_linker_1, # of connection points: 2
#     Edge 111, Type (0, 0), BuildingBlock: KIFKEQ_clean_linker_1, # of connection points: 2
#     Edge 112, Type (0, 0), BuildingBlock: KIFKEQ_clean_linker_1, # of connection points: 2
#     Edge 113, Type (0, 0), BuildingBlock: KIFKEQ_clean_linker_1, # of connection points: 2
#     Edge 114, Type (0, 0), BuildingBlock: KIFKEQ_clean_linker_1, # of connection points: 2
#     Edge 115, Type (0, 0), BuildingBlock: KIFKEQ_clean_linker_1, # of connection points: 2
#     Edge 116, Type (0, 0), BuildingBlock: KIFKEQ_clean_linker_1, # of connection points: 2
#     Edge 117, Type (0, 0), BuildingBlock: KIFKEQ_clean_linker_1, # of connection points: 2
#     Edge 118, Type (0, 0), BuildingBlock: KIFKEQ_clean_linker_1, # of connection points: 2
#     Edge 119, Type (0, 0), BuildingBlock: KIFKEQ_clean_linker_1, # of connection points: 2
#     Edge 120, Type (0, 0), BuildingBlock: KIFKEQ_clean_linker_1, # of connection points: 2
#     Edge 121, Type (0, 0), BuildingBlock: KIFKEQ_clean_linker_1, # of connection points: 2
#     Edge 122, Type (0, 0), BuildingBlock: KIFKEQ_clean_linker_1, # of connection points: 2
#     Edge 123, Type (0, 0), BuildingBlock: KIFKEQ_clean_linker_1, # of connection points: 2
#     Edge 124, Type (0, 0), BuildingBlock: KIFKEQ_clean_linker_1, # of connection points: 2
#     Edge 125, Type (0, 0), BuildingBlock: KIFKEQ_clean_linker_1, # of connection points: 2
# Relax obj value: 0.366
# Max RMSD: 0.249
# Mean RMSD: 0.249
data_MOF--net-wlh--node1-XOMCOT_clean_sbu_0--edge1-KIFKEQ_clean_linker_1
_symmetry_space_group_name_H-M    P1
_symmetry_Int_Tables_number       1
_symmetry_cell_setting            triclinic
loop_
_symmetry_equiv_pos_as_xyz
'x, y, z'
_cell_length_a     40.219979
_cell_length_b     40.23444
_cell_length_c     153.28505
_cell_angle_alpha  89.999297
_cell_angle_beta   90.014402
_cell_angle_gamma 119.99222
loop_
_atom_site_label
_atom_site_type_symbol
_atom_site_fract_x
_atom_site_fract_y
_atom_site_fract_z
_atom_type_partial_charge
Co0 Co 0.07063 0.26326 0.19366 0.0
C1 C 0.04735 0.31687 0.18637 0.0
C2 C 0.01484 0.25992 0.18107 0.0
C3 C 0.00442 0.28329 0.17677 0.0
N4 N 0.04172 0.28094 0.18706 0.0
N5 N 0.02492 0.31903 0.18008 0.0
H6 H 0.06867 0.34117 0.19005 0.0
H7 H 0.00469 0.23001 0.17967 0.0
C8 C 0.01397 0.1869 0.20087 0.0
O9 O 0.03379 0.19747 0.20816 0.0
N10 N 0.10004 0.24419 0.19992 0.0
C11 C 0.1186 0.25379 0.20769 0.0
C12 C 0.13429 0.2307 0.20918 0.0
C13 C 0.10545 0.21584 0.19681 0.0
N14 N 0.12609 0.20712 0.2023 0.0
C15 C 0.0848 0.31002 0.20902 0.0
C16 C 0.0102 0.27179 0.21515 0.0
C17 C 0.03938 0.2979 0.22067 0.0
C18 C 0.07686 0.31852 0.21735 0.0
C19 C 0.0196 0.26392 0.20692 0.0
N20 N 0.05705 0.28023 0.20434 0.0
H21 H 0.11392 0.32555 0.2066 0.0
H22 H 0.99672 0.24363 0.20278 0.0
H23 H 0.12085 0.27544 0.21214 0.0
H24 H 0.09368 0.20113 0.1907 0.0
O25 O 0.11828 0.30945 0.19069 0.0
O26 O 0.09086 0.2559 0.18291 0.0
O27 O 0.02358 0.21035 0.19447 0.0
C28 C 0.11957 0.29051 0.18393 0.0
H29 H 0.98389 0.27484 0.17149 0.0
H30 H 0.15081 0.23145 0.21483 0.0
H31 H 0.98064 0.25605 0.21732 0.0
H32 H 0.10003 0.34011 0.22126 0.0
Co33 Co 0.73252 0.80497 0.19289 0.0
C34 C 0.67867 0.72339 0.18744 0.0
C35 C 0.73617 0.74494 0.18289 0.0
C36 C 0.71392 0.70846 0.17973 0.0
N37 N 0.71468 0.75399 0.18806 0.0
N38 N 0.67777 0.69485 0.18259 0.0
H39 H 0.65333 0.72247 0.19007 0.0
H40 H 0.76578 0.76419 0.18114 0.0
C41 C 0.79782 0.79212 0.19688 0.0
O42 O 0.77247 0.75868 0.20015 0.0
N43 N 0.75069 0.85634 0.19718 0.0
C44 C 0.73076 0.86892 0.20185 0.0
C45 C 0.75343 0.90799 0.203 0.0
C46 C 0.78498 0.88763 0.19554 0.0
N47 N 0.78747 0.91958 0.19905 0.0
C48 C 0.68822 0.75751 0.20775 0.0
C49 C 0.74726 0.79505 0.21962 0.0
C50 C 0.71258 0.76413 0.22253 0.0
C51 C 0.68266 0.74524 0.21648 0.0
C52 C 0.75163 0.80606 0.21091 0.0
N53 N 0.72295 0.7866 0.20497 0.0
H54 H 0.66432 0.74419 0.20334 0.0
H55 H 0.7786 0.83043 0.20894 0.0
H56 H 0.7017 0.85099 0.20416 0.0
H57 H 0.80728 0.88719 0.19168 0.0
O58 O 0.68392 0.80151 0.19008 0.0
O59 O 0.73425 0.82347 0.18125 0.0
O60 O 0.78673 0.81412 0.19355 0.0
C61 C 0.69968 0.81726 0.18264 0.0
H62 H 0.72319 0.6938 0.17528 0.0
H63 H 0.74563 0.92638 0.20653 0.0
H64 H 0.77125 0.81055 0.22402 0.0
H65 H 0.65503 0.72186 0.21852 0.0
Co66 Co 0.18958 0.92902 0.19251 0.0
C67 C 0.26929 0.95446 0.18608 0.0
C68 C 0.24496 0.98625 0.18046 0.0
C69 C 0.28049 0.99908 0.17684 0.0
N70 N 0.2384 0.95939 0.18655 0.0
N71 N 0.29572 0.97906 0.18037 0.0
H72 H 0.27199 0.93248 0.18948 0.0
H73 H 0.22468 0.99508 0.17854 0.0
C74 C 0.20536 0.00931 0.19475 0.0
O75 O 0.24074 0.01912 0.1969 0.0
N76 N 0.14028 0.89833 0.19798 0.0
C77 C 0.13081 0.87058 0.20398 0.0
C78 C 0.0922 0.85416 0.20575 0.0
C79 C 0.10756 0.89831 0.19611 0.0
N80 N 0.0776 0.87158 0.20079 0.0
C81 C 0.23997 0.93343 0.2068 0.0
C82 C 0.21106 0.96458 0.21857 0.0
C83 C 0.24001 0.9574 0.22134 0.0
C84 C 0.25468 0.94168 0.21533 0.0
C85 C 0.19755 0.95627 0.21006 0.0
N86 N 0.21281 0.94218 0.20413 0.0
H87 H 0.24931 0.91858 0.20251 0.0
H88 H 0.17383 0.96035 0.20831 0.0
H89 H 0.15047 0.86245 0.20674 0.0
H90 H 0.10581 0.91732 0.19138 0.0
O91 O 0.19128 0.88249 0.19019 0.0
O92 O 0.16645 0.90828 0.1814 0.0
O93 O 0.18122 0.97458 0.19271 0.0
C94 C 0.1732 0.88042 0.18296 0.0
H95 H 0.29349 0.02032 0.17172 0.0
H96 H 0.07597 0.83042 0.21015 0.0
H97 H 0.19858 0.97637 0.22299 0.0
H98 H 0.27624 0.93456 0.21731 0.0
Co99 Co 0.26582 0.07342 0.31172 0.0
C100 C 0.31996 0.04891 0.3185 0.0
C101 C 0.26261 0.01431 0.32328 0.0
C102 C 0.28588 0.00399 0.32762 0.0
N103 N 0.28358 0.04183 0.31737 0.0
N104 N 0.32188 0.0258 0.32462 0.0
H105 H 0.34505 0.07275 0.31562 0.0
H106 H 0.23289 0.00429 0.32484 0.0
C107 C 0.20109 0.99427 0.30864 0.0
O108 O 0.22675 0.98547 0.30593 0.0
N109 N 0.24781 0.10535 0.30664 0.0
C110 C 0.26676 0.13458 0.30102 0.0
C111 C 0.24553 0.15245 0.29978 0.0
C112 C 0.21567 0.1059 0.30881 0.0
N113 N 0.21344 0.13446 0.30471 0.0
C114 C 0.3108 0.06694 0.29746 0.0
C115 C 0.25224 0.04267 0.28534 0.0
C116 C 0.28732 0.04661 0.28271 0.0
C117 C 0.31693 0.05883 0.28888 0.0
C118 C 0.24727 0.05063 0.2939 0.0
N119 N 0.27584 0.06158 0.29996 0.0
H120 H 0.33448 0.07847 0.30194 0.0
H121 H 0.2201 0.04816 0.29565 0.0
H122 H 0.29456 0.14294 0.29823 0.0
H123 H 0.19482 0.08614 0.31343 0.0
O124 O 0.31424 0.11936 0.31427 0.0
O125 O 0.26352 0.09275 0.32302 0.0
O126 O 0.21177 0.02825 0.31132 0.0
C127 C 0.29821 0.12065 0.32156 0.0
H128 H 0.27733 0.98326 0.33286 0.0
H129 H 0.25393 0.17768 0.29582 0.0
H130 H 0.22853 0.03331 0.28081 0.0
H131 H 0.34479 0.06308 0.28704 0.0
Co132 Co 0.93336 0.19645 0.31196 0.0
C133 C 0.95942 0.27729 0.31807 0.0
C134 C 0.98324 0.24861 0.32535 0.0
C135 C 0.99668 0.28439 0.32886 0.0
N136 N 0.96083 0.24436 0.3184 0.0
N137 N 0.98172 0.30237 0.3243 0.0
H138 H 0.94218 0.28288 0.31358 0.0
H139 H 0.98895 0.22674 0.3278 0.0
C140 C 0.01503 0.21509 0.31129 0.0
O141 O 0.02431 0.25051 0.30934 0.0
N142 N 0.90595 0.1478 0.30604 0.0
C143 C 0.88267 0.13864 0.29907 0.0
C144 C 0.86655 0.09985 0.29753 0.0
C145 C 0.90351 0.11477 0.3087 0.0
N146 N 0.87954 0.08477 0.30362 0.0
C147 C 0.93569 0.24503 0.2977 0.0
C148 C 0.97974 0.22808 0.28672 0.0
C149 C 0.96806 0.25359 0.28386 0.0
C150 C 0.94504 0.26149 0.28935 0.0
C151 C 0.96897 0.21162 0.29497 0.0
N152 N 0.94916 0.22181 0.3006 0.0
H153 H 0.91635 0.24976 0.30168 0.0
H154 H 0.97574 0.18968 0.2967 0.0
H155 H 0.8772 0.15855 0.29548 0.0
H156 H 0.91789 0.11273 0.31446 0.0
O157 O 0.88555 0.19634 0.31349 0.0
O158 O 0.90931 0.17117 0.32274 0.0
O159 O 0.97989 0.1898 0.3126 0.0
C160 C 0.88151 0.17738 0.32068 0.0
H161 H 0.01511 0.29594 0.33452 0.0
H162 H 0.8465 0.0841 0.29235 0.0
H163 H 0.99599 0.21989 0.28248 0.0
H164 H 0.93419 0.27991 0.28718 0.0
Co165 Co 0.80971 0.73957 0.3132 0.0
C166 C 0.72979 0.68474 0.31951 0.0
C167 C 0.75514 0.73967 0.32576 0.0
C168 C 0.71953 0.71675 0.32933 0.0
N169 N 0.76115 0.72033 0.31933 0.0
N170 N 0.70366 0.68226 0.3254 0.0
H171 H 0.72645 0.66067 0.31572 0.0
H172 H 0.77579 0.76826 0.32793 0.0
C173 C 0.79472 0.80498 0.31197 0.0
O174 O 0.7593 0.77986 0.30974 0.0
N175 N 0.8587 0.75883 0.30753 0.0
C176 C 0.86772 0.74127 0.30126 0.0
C177 C 0.9063 0.76338 0.29947 0.0
C178 C 0.89163 0.79103 0.30953 0.0
N179 N 0.92133 0.79464 0.30468 0.0
C180 C 0.75913 0.69682 0.29865 0.0
C181 C 0.78829 0.75923 0.28753 0.0
C182 C 0.75976 0.72362 0.2844 0.0
C183 C 0.7449 0.69205 0.29008 0.0
C184 C 0.80153 0.76266 0.29604 0.0
N185 N 0.78617 0.73214 0.30165 0.0
H186 H 0.74967 0.67179 0.30267 0.0
H187 H 0.82526 0.79005 0.29801 0.0
H188 H 0.84779 0.71395 0.29834 0.0
H189 H 0.89372 0.8111 0.3145 0.0
O190 O 0.80759 0.69075 0.31472 0.0
O191 O 0.83323 0.7392 0.32411 0.0
O192 O 0.81862 0.79373 0.31376 0.0
C193 C 0.82625 0.70499 0.32199 0.0
H194 H 0.70685 0.7243 0.33465 0.0
H195 H 0.9222 0.75625 0.29487 0.0
H196 H 0.80088 0.78444 0.2834 0.0
H197 H 0.72367 0.66374 0.28783 0.0
Co198 Co 0.92817 0.73693 0.81273 0.0
C199 C 0.95442 0.68279 0.81908 0.0
C200 C 0.98654 0.73937 0.82445 0.0
C201 C 1.00021 0.71725 0.82799 0.0
N202 N 0.95885 0.71844 0.81857 0.0
N203 N 0.9801 0.68172 0.82461 0.0
H204 H 0.93221 0.65779 0.81581 0.0
H205 H 0.99546 0.76858 0.82629 0.0
C206 C 0.00818 0.80098 0.80993 0.0
O207 O 0.0169 0.775 0.80744 0.0
N208 N 0.89744 0.75595 0.80741 0.0
C209 C 0.87181 0.7398 0.80087 0.0
C210 C 0.85728 0.76349 0.79888 0.0
C211 C 0.89747 0.78851 0.80948 0.0
N212 N 0.87333 0.79383 0.80434 0.0
C213 C 0.93217 0.69074 0.79843 0.0
C214 C 0.96149 0.75027 0.78651 0.0
C215 C 0.95464 0.71423 0.78378 0.0
C216 C 0.93989 0.6841 0.78985 0.0
C217 C 0.9538 0.75566 0.79505 0.0
N218 N 0.94055 0.72659 0.80104 0.0
H219 H 0.91807 0.66673 0.80279 0.0
H220 H 0.95774 0.78341 0.79679 0.0
H221 H 0.86471 0.71304 0.7977 0.0
H222 H 0.91533 0.80825 0.81451 0.0
O223 O 0.88155 0.68897 0.81512 0.0
O224 O 0.90806 0.73956 0.82391 0.0
O225 O 0.97403 0.79069 0.81244 0.0
C226 C 0.87979 0.70517 0.82234 0.0
H227 H 0.02224 0.72617 0.83294 0.0
H228 H 0.83643 0.75878 0.79387 0.0
H229 H 0.97256 0.77431 0.78203 0.0
H230 H 0.93311 0.65551 0.78791 0.0
Co231 Co 0.26012 0.1908 0.81088 0.0
C232 C 0.31538 0.26956 0.81777 0.0
C233 C 0.26249 0.24024 0.82489 0.0
C234 C 0.28646 0.27373 0.82918 0.0
N235 N 0.28022 0.23764 0.81767 0.0
N236 N 0.31968 0.29206 0.82472 0.0
H237 H 0.33832 0.27524 0.81331 0.0
H238 H 0.23448 0.21828 0.8271 0.0
C239 C 0.19808 0.21127 0.81013 0.0
O240 O 0.22467 0.24736 0.80905 0.0
N241 N 0.23932 0.1432 0.80458 0.0
C242 C 0.25603 0.13376 0.79819 0.0
C243 C 0.23347 0.09505 0.79651 0.0
C244 C 0.20719 0.11052 0.80672 0.0
N245 N 0.20287 0.08043 0.80194 0.0
C246 C 0.31021 0.24025 0.79716 0.0
C247 C 0.25176 0.22825 0.78581 0.0
C248 C 0.2897 0.25271 0.78327 0.0
C249 C 0.31932 0.25811 0.78894 0.0
C250 C 0.24404 0.21036 0.79392 0.0
N251 N 0.27285 0.21808 0.79973 0.0
H252 H 0.33319 0.24311 0.80129 0.0
H253 H 0.21469 0.1892 0.79535 0.0
H254 H 0.28347 0.15322 0.79525 0.0
H255 H 0.18816 0.10881 0.81191 0.0
O256 O 0.30669 0.1887 0.81302 0.0
O257 O 0.25523 0.16342 0.82152 0.0
O258 O 0.20746 0.1854 0.81095 0.0
C259 C 0.28938 0.1689 0.81998 0.0
H260 H 0.28037 0.28341 0.83525 0.0
H261 H 0.24022 0.07868 0.79197 0.0
H262 H 0.22821 0.22195 0.78141 0.0
H263 H 0.34908 0.27566 0.78702 0.0
Co264 Co 0.80834 0.07422 0.81111 0.0
C265 C 0.73085 0.04732 0.81851 0.0
C266 C 0.75576 0.01392 0.82298 0.0
C267 C 0.72012 0.99951 0.82671 0.0
N268 N 0.7623 0.04359 0.81779 0.0
N269 N 0.70453 0.02051 0.82391 0.0
H270 H 0.7272 0.06886 0.81511 0.0
H271 H 0.77565 0.00366 0.82406 0.0
C272 C 0.82908 0.01879 0.80368 0.0
O273 O 0.8348 0.03697 0.79622 0.0
N274 N 0.85606 0.10518 0.80478 0.0
C275 C 0.86578 0.13206 0.79851 0.0
C276 C 0.90469 0.14933 0.79701 0.0
C277 C 0.88946 0.10738 0.80711 0.0
N278 N 0.91964 0.13384 0.80246 0.0
C279 C 0.77454 0.085 0.79549 0.0
C280 C 0.73923 0.00954 0.79 0.0
C281 C 0.74165 0.03756 0.78417 0.0
C282 C 0.75786 0.07546 0.78719 0.0
C283 C 0.75648 0.02053 0.79821 0.0
N284 N 0.77733 0.05843 0.80047 0.0
H285 H 0.78597 0.11399 0.79782 0.0
H286 H 0.75445 0.99856 0.80259 0.0
H287 H 0.84707 0.1404 0.79542 0.0
H288 H 0.89157 0.09083 0.81242 0.0
O289 O 0.80656 0.12024 0.81387 0.0
O290 O 0.83608 0.09658 0.82178 0.0
O291 O 0.81755 0.02921 0.81037 0.0
C292 C 0.82786 0.12369 0.82059 0.0
H293 H 0.70695 0.97586 0.83127 0.0
H294 H 0.92066 0.17211 0.79238 0.0
H295 H 0.72586 0.97967 0.78809 0.0
H296 H 0.75834 0.09767 0.78311 0.0
Co297 Co 0.74279 0.9315 0.69347 0.0
C298 C 0.68821 0.95538 0.68641 0.0
C299 C 0.74317 0.98299 0.68013 0.0
C300 C 0.71954 0.99274 0.67574 0.0
N301 N 0.72395 0.96012 0.68693 0.0
N302 N 0.68499 0.9753 0.67968 0.0
H303 H 0.66416 0.93563 0.69034 0.0
H304 H 0.77194 0.99048 0.67819 0.0
C305 C 0.80605 0.013 0.69507 0.0
O306 O 0.77987 0.02284 0.69647 0.0
N307 N 0.76205 0.90269 0.69953 0.0
C308 C 0.74308 0.87431 0.70536 0.0
C309 C 0.76455 0.85693 0.70698 0.0
C310 C 0.79465 0.90242 0.69769 0.0
N311 N 0.79687 0.87467 0.70214 0.0
C312 C 0.69308 0.93206 0.70719 0.0
C313 C 0.75162 0.97319 0.71898 0.0
C314 C 0.71402 0.96205 0.72137 0.0
C315 C 0.68428 0.94053 0.71547 0.0
C316 C 0.759 0.96353 0.71077 0.0
N317 N 0.7303 0.94514 0.70477 0.0
H318 H 0.66987 0.91376 0.7029 0.0
H319 H 0.78793 0.97007 0.70938 0.0
H320 H 0.71489 0.86578 0.70794 0.0
H321 H 0.81509 0.92052 0.69279 0.0
O322 O 0.69556 0.88393 0.69105 0.0
O323 O 0.74736 0.90999 0.68265 0.0
O324 O 0.79606 0.97788 0.69372 0.0
C325 C 0.7128 0.88176 0.68404 0.0
H326 H 0.72683 0.01033 0.66994 0.0
H327 H 0.75654 0.83248 0.71119 0.0
H328 H 0.7751 0.98838 0.72353 0.0
H329 H 0.65465 0.93012 0.71727 0.0
Co330 Co 0.07514 0.80873 0.69343 0.0
C331 C 0.04943 0.72847 0.68712 0.0
C332 C 0.01828 0.75323 0.68136 0.0
C333 C 0.00498 0.71748 0.67783 0.0
N334 N 0.04506 0.75975 0.68747 0.0
N335 N 0.0245 0.70191 0.68145 0.0
H336 H 0.07111 0.7255 0.69059 0.0
H337 H 0.00977 0.77365 0.67935 0.0
C338 C 0.9952 0.79351 0.69546 0.0
O339 O 0.98637 0.75894 0.69809 0.0
N340 N 0.10545 0.85827 0.69886 0.0
C341 C 0.13 0.86725 0.70561 0.0
C342 C 0.14495 0.90554 0.70756 0.0
C343 C 0.10646 0.89117 0.69664 0.0
N344 N 0.13022 0.92039 0.70189 0.0
C345 C 0.06774 0.75799 0.70789 0.0
C346 C 0.03742 0.78878 0.71939 0.0
C347 C 0.04339 0.75923 0.7223 0.0
C348 C 0.05867 0.74361 0.71644 0.0
C349 C 0.0466 0.80201 0.71087 0.0
N350 N 0.06033 0.78588 0.70508 0.0
H351 H 0.08216 0.74778 0.70371 0.0
H352 H 0.04335 0.8261 0.70899 0.0
H353 H 0.13618 0.84723 0.70893 0.0
H354 H 0.08968 0.89351 0.69141 0.0
O355 O 0.12149 0.8063 0.69174 0.0
O356 O 0.09805 0.83142 0.68237 0.0
O357 O 0.0296 0.81737 0.69309 0.0
C358 C 0.12533 0.82435 0.68442 0.0
H359 H 0.98363 0.7045 0.67273 0.0
H360 H 0.16525 0.92138 0.7127 0.0
H361 H 0.02591 0.80194 0.72369 0.0
H362 H 0.06483 0.72153 0.71853 0.0
Co363 Co 0.19514 0.26529 0.69391 0.0
C364 C 0.27095 0.3174 0.68597 0.0
C365 C 0.24444 0.26032 0.68068 0.0
C366 C 0.27775 0.28303 0.67615 0.0
N367 N 0.24021 0.28185 0.68681 0.0
N368 N 0.2943 0.31887 0.67946 0.0
H369 H 0.27519 0.34192 0.68977 0.0
H370 H 0.22397 0.23049 0.67938 0.0
C371 C 0.17916 0.19121 0.70173 0.0
O372 O 0.1738 0.20399 0.70918 0.0
N373 N 0.1482 0.24726 0.70066 0.0
C374 C 0.13872 0.26378 0.70712 0.0
C375 C 0.1001 0.24138 0.70886 0.0
C376 C 0.11493 0.21553 0.69849 0.0
N377 N 0.08504 0.21107 0.70339 0.0
C378 C 0.23006 0.31318 0.70904 0.0
C379 C 0.26825 0.27606 0.71469 0.0
C380 C 0.26483 0.3014 0.7204 0.0
C381 C 0.24729 0.32173 0.71729 0.0
C382 C 0.25035 0.26832 0.70653 0.0
N383 N 0.22798 0.28367 0.70424 0.0
H384 H 0.21712 0.32933 0.70666 0.0
H385 H 0.25293 0.2484 0.70225 0.0
H386 H 0.15729 0.29086 0.7102 0.0
H387 H 0.11262 0.19712 0.69311 0.0
O388 O 0.19336 0.31116 0.69082 0.0
O389 O 0.16512 0.25636 0.68349 0.0
O390 O 0.18915 0.21243 0.69492 0.0
C391 C 0.1716 0.29126 0.68432 0.0
H392 H 0.28871 0.27403 0.67074 0.0
H393 H 0.08436 0.24772 0.71366 0.0
H394 H 0.28268 0.26065 0.71667 0.0
H395 H 0.24594 0.34323 0.72128 0.0
Co396 Co 0.73595 0.59352 0.5255 0.0
C397 C 0.70908 0.64755 0.51941 0.0
C398 C 0.67943 0.59214 0.51338 0.0
C399 C 0.66583 0.61435 0.50986 0.0
N400 N 0.70544 0.61219 0.51964 0.0
N401 N 0.68443 0.64916 0.51364 0.0
H402 H 0.73011 0.67209 0.52302 0.0
H403 H 0.6717 0.56353 0.51127 0.0
C404 C 0.65579 0.52883 0.5275 0.0
O405 O 0.64608 0.55434 0.52976 0.0
N406 N 0.76659 0.57434 0.53079 0.0
C407 C 0.79688 0.59322 0.53617 0.0
C408 C 0.81269 0.57023 0.53772 0.0
C409 C 0.76428 0.54038 0.52913 0.0
N410 N 0.79204 0.53706 0.5333 0.0
C411 C 0.73087 0.63768 0.54005 0.0
C412 C 0.70097 0.57697 0.55166 0.0
C413 C 0.70843 0.61293 0.55461 0.0
C414 C 0.72337 0.64359 0.54869 0.0
C415 C 0.7085 0.57229 0.54303 0.0
N416 N 0.72218 0.60203 0.53721 0.0
H417 H 0.74538 0.66215 0.53582 0.0
H418 H 0.7044 0.54466 0.54112 0.0
H419 H 0.80712 0.62189 0.53865 0.0
H420 H 0.74353 0.51907 0.52473 0.0
O421 O 0.78207 0.64224 0.52357 0.0
O422 O 0.75804 0.59316 0.51436 0.0
O423 O 0.6905 0.53948 0.52541 0.0
C424 C 0.78543 0.62765 0.51626 0.0
H425 H 0.64504 0.60611 0.50464 0.0
H426 H 0.8374 0.57733 0.54177 0.0
H427 H 0.68995 0.55259 0.55603 0.0
H428 H 0.73079 0.67216 0.55081 0.0
Co429 Co 0.40468 0.14093 0.52764 0.0
C430 C 0.35243 0.06431 0.52012 0.0
C431 C 0.40997 0.08925 0.51516 0.0
C432 C 0.38718 0.05572 0.51072 0.0
N433 N 0.38821 0.09461 0.52103 0.0
N434 N 0.35106 0.0402 0.51381 0.0
H435 H 0.32767 0.06108 0.52365 0.0
H436 H 0.43997 0.10922 0.5139 0.0
C437 C 0.48155 0.16249 0.53484 0.0
O438 O 0.47066 0.17156 0.5421 0.0
N439 N 0.42256 0.18916 0.53389 0.0
C440 C 0.41258 0.19787 0.54163 0.0
C441 C 0.43505 0.2368 0.54308 0.0
C442 C 0.45041 0.2231 0.53074 0.0
N443 N 0.45851 0.25241 0.53619 0.0
C444 C 0.35864 0.10691 0.54309 0.0
C445 C 0.39902 0.07225 0.54887 0.0
C446 C 0.37198 0.07325 0.55449 0.0
C447 C 0.3503 0.08928 0.55131 0.0
C448 C 0.40616 0.08998 0.54073 0.0
N449 N 0.38878 0.1103 0.53831 0.0
H450 H 0.34223 0.11976 0.54079 0.0
H451 H 0.4267 0.08829 0.53649 0.0
H452 H 0.39108 0.17816 0.54607 0.0
H453 H 0.46523 0.2262 0.52464 0.0
O454 O 0.35756 0.14072 0.52475 0.0
O455 O 0.41096 0.16818 0.51689 0.0
O456 O 0.45826 0.14844 0.52841 0.0
C457 C 0.37595 0.16112 0.51795 0.0
H458 H 0.39626 0.04408 0.50546 0.0
H459 H 0.43393 0.2525 0.5487 0.0
H460 H 0.41598 0.05947 0.55085 0.0
H461 H 0.32775 0.08909 0.5552 0.0
Co462 Co 0.86006 0.25891 0.52614 0.0
C463 C 0.93905 0.28622 0.51979 0.0
C464 C 0.91651 0.32157 0.51524 0.0
C465 C 0.95305 0.33603 0.512 0.0
N466 N 0.90792 0.2906 0.52017 0.0
N467 N 0.96714 0.31377 0.51485 0.0
H468 H 0.94115 0.26355 0.52309 0.0
H469 H 0.8974 0.33265 0.51398 0.0
C470 C 0.8375 0.31334 0.53352 0.0
O471 O 0.82899 0.29319 0.54076 0.0
N472 N 0.81075 0.22643 0.53176 0.0
C473 C 0.79833 0.1935 0.5363 0.0
C474 C 0.75931 0.17685 0.53764 0.0
C475 C 0.77866 0.2281 0.53008 0.0
N476 N 0.74722 0.19894 0.53377 0.0
C477 C 0.88819 0.2454 0.54239 0.0
C478 C 0.92411 0.32067 0.54804 0.0
C479 C 0.92024 0.2922 0.55392 0.0
C480 C 0.90369 0.25433 0.55081 0.0
C481 C 0.90873 0.31046 0.53965 0.0
N482 N 0.88787 0.27279 0.53722 0.0
H483 H 0.87644 0.21643 0.54006 0.0
H484 H 0.91227 0.33293 0.53524 0.0
H485 H 0.81535 0.18071 0.53808 0.0
H486 H 0.77802 0.24946 0.5259 0.0
O487 O 0.86272 0.21349 0.52328 0.0
O488 O 0.83507 0.2383 0.5151 0.0
O489 O 0.8511 0.30422 0.52697 0.0
C490 C 0.84286 0.21089 0.51634 0.0
H491 H 0.96779 0.3605 0.5077 0.0
H492 H 0.74118 0.15026 0.54107 0.0
H493 H 0.93734 0.35049 0.54995 0.0
H494 H 0.9022 0.23161 0.55487 0.0
Co495 Co 0.9328 0.40616 0.64518 0.0
C496 C 0.98227 0.37651 0.65181 0.0
C497 C 0.92405 0.34331 0.65633 0.0
C498 C 0.94498 0.32803 0.6598 0.0
N499 N 0.94733 0.37343 0.65127 0.0
N500 N 0.98155 0.34891 0.65698 0.0
H501 H 0.00756 0.39842 0.64851 0.0
H502 H 0.89409 0.33354 0.65755 0.0
C503 C 0.85632 0.35333 0.63746 0.0
O504 O 0.86879 0.3741 0.63032 0.0
N505 N 0.91736 0.43969 0.63952 0.0
C506 C 0.93898 0.473 0.63521 0.0
C507 C 0.91816 0.49144 0.63419 0.0
C508 C 0.88447 0.43956 0.6414 0.0
N509 N 0.88386 0.47037 0.63812 0.0
C510 C 0.97257 0.41812 0.62854 0.0
C511 C 0.93297 0.34164 0.62378 0.0
C512 C 0.95522 0.36901 0.61748 0.0
C513 C 0.97686 0.40755 0.62007 0.0
C514 C 0.9297 0.35346 0.63212 0.0
N515 N 0.94651 0.39157 0.63416 0.0
H516 H 0.98993 0.44756 0.6305 0.0
H517 H 0.91192 0.33181 0.63682 0.0
H518 H 0.96895 0.48545 0.63364 0.0
H519 H 0.86211 0.41803 0.64546 0.0
O520 O 0.98128 0.45099 0.64829 0.0
O521 O 0.92791 0.42629 0.65617 0.0
O522 O 0.87829 0.36175 0.64413 0.0
C523 C 0.96347 0.4532 0.65519 0.0
H524 H 0.93435 0.30408 0.66428 0.0
H525 H 0.92866 0.51957 0.63135 0.0
H526 H 0.91726 0.31135 0.6222 0.0
H527 H 0.99568 0.4295 0.61551 0.0
Co528 Co 0.59895 0.52545 0.64549 0.0
C529 C 0.62415 0.60581 0.65186 0.0
C530 C 0.64756 0.57676 0.65914 0.0
C531 C 0.66065 0.61228 0.66277 0.0
N532 N 0.62573 0.57295 0.6521 0.0
N533 N 0.64593 0.63047 0.6582 0.0
H534 H 0.60715 0.61163 0.64734 0.0
H535 H 0.65317 0.55479 0.66156 0.0
C536 C 0.68064 0.54446 0.64518 0.0
O537 O 0.68953 0.57984 0.6433 0.0
N538 N 0.57199 0.47717 0.63939 0.0
C539 C 0.54924 0.46869 0.63234 0.0
C540 C 0.53315 0.43006 0.63063 0.0
C541 C 0.56922 0.44385 0.64193 0.0
N542 N 0.54558 0.41436 0.63669 0.0
C543 C 0.60493 0.57601 0.63119 0.0
C544 C 0.6484 0.55686 0.62058 0.0
C545 C 0.63933 0.58422 0.61762 0.0
C546 C 0.61642 0.59314 0.62292 0.0
C547 C 0.63576 0.54004 0.62873 0.0
N548 N 0.61635 0.55129 0.6342 0.0
H549 H 0.58572 0.58154 0.635 0.0
H550 H 0.64097 0.51711 0.63053 0.0
H551 H 0.54415 0.48899 0.62881 0.0
H552 H 0.58313 0.44125 0.64772 0.0
O553 O 0.55099 0.52538 0.6467 0.0
O554 O 0.57361 0.49968 0.65611 0.0
O555 O 0.64551 0.51878 0.64638 0.0
C556 C 0.5461 0.50607 0.65388 0.0
H557 H 0.67875 0.62356 0.66848 0.0
H558 H 0.51353 0.41486 0.62534 0.0
H559 H 0.66423 0.54757 0.6165 0.0
H560 H 0.60742 0.61296 0.62069 0.0
Co561 Co 0.4779 0.06969 0.6454 0.0
C562 C 0.39995 0.01437 0.65259 0.0
C563 C 0.42464 0.07056 0.65817 0.0
C564 C 0.39134 0.04686 0.66257 0.0
N565 N 0.42978 0.05067 0.65173 0.0
N566 N 0.37586 0.01158 0.65905 0.0
H567 H 0.39743 0.98974 0.64919 0.0
H568 H 0.44495 0.09987 0.65994 0.0
C569 C 0.46167 0.13409 0.64366 0.0
O570 O 0.42622 0.10847 0.64158 0.0
N571 N 0.52673 0.08919 0.63964 0.0
C572 C 0.53771 0.07049 0.6341 0.0
C573 C 0.57622 0.09385 0.63228 0.0
C574 C 0.55832 0.12337 0.64113 0.0
N575 N 0.58893 0.12704 0.6367 0.0
C576 C 0.42503 0.02433 0.63152 0.0
C577 C 0.45313 0.08356 0.61951 0.0
C578 C 0.42295 0.04763 0.61708 0.0
C579 C 0.4088 0.01765 0.62315 0.0
C580 C 0.46801 0.08913 0.62793 0.0
N581 N 0.45325 0.06012 0.63396 0.0
H582 H 0.41589 1.00036 0.63585 0.0
H583 H 0.49219 0.11686 0.62954 0.0
H584 H 0.51923 0.04166 0.6317 0.0
H585 H 0.55926 0.14454 0.64564 0.0
O586 O 0.47658 0.02147 0.64725 0.0
O587 O 0.50251 0.07114 0.6563 0.0
O588 O 0.48588 0.12343 0.64556 0.0
C589 C 0.4956 0.03672 0.65442 0.0
H590 H 0.38003 0.05465 0.66812 0.0
H591 H 0.59355 0.08697 0.62807 0.0
H592 H 0.46538 0.10711 0.6149 0.0
H593 H 0.38634 0.98912 0.62135 0.0
Co594 Co 0.59442 0.06732 0.1458 0.0
C595 C 0.61932 0.01184 0.15174 0.0
C596 C 0.64886 0.06619 0.15825 0.0
C597 C 0.66163 0.04299 0.16162 0.0
N598 N 0.62338 0.04735 0.15181 0.0
N599 N 0.64303 0.00887 0.15753 0.0
H600 H 0.59881 0.98818 0.14783 0.0
H601 H 0.65695 0.0947 0.16051 0.0
C602 C 0.67577 0.13116 0.14427 0.0
O603 O 0.68549 0.10549 0.14216 0.0
N604 N 0.56527 0.0875 0.14025 0.0
C605 C 0.53565 0.06898 0.13468 0.0
C606 C 0.52044 0.09229 0.13293 0.0
C607 C 0.56783 0.12164 0.14181 0.0
N608 N 0.5408 0.12533 0.13741 0.0
C609 C 0.59711 0.02129 0.13139 0.0
C610 C 0.63769 0.08304 0.12036 0.0
C611 C 0.62973 0.04668 0.11762 0.0
C612 C 0.608 0.0152 0.12309 0.0
C613 C 0.62571 0.08764 0.12855 0.0
N614 N 0.60816 0.05756 0.13423 0.0
H615 H 0.57903 0.99681 0.13538 0.0
H616 H 0.63054 0.11572 0.13028 0.0
H617 H 0.5254 0.04026 0.13222 0.0
H618 H 0.58811 0.14274 0.14632 0.0
O619 O 0.54702 0.01954 0.14787 0.0
O620 O 0.57307 0.06955 0.15683 0.0
O621 O 0.64078 0.12073 0.14598 0.0
C622 C 0.54479 0.03537 0.15511 0.0
H623 H 0.68196 0.0501 0.1669 0.0
H624 H 0.49627 0.08548 0.12871 0.0
H625 H 0.65263 0.10778 0.11613 0.0
H626 H 0.59979 0.98637 0.12102 0.0
Co627 Co 0.92858 0.52371 0.14548 0.0
C628 C 0.9837 0.60413 0.15158 0.0
C629 C 0.929 0.57866 0.15795 0.0
C630 C 0.95176 0.61448 0.16141 0.0
N631 N 0.94826 0.57254 0.15152 0.0
N632 N 0.98609 0.63044 0.15741 0.0
H633 H 0.00772 0.6076 0.14775 0.0
H634 H 0.90051 0.55795 0.16017 0.0
C635 C 0.86439 0.54017 0.14406 0.0
O636 O 0.89032 0.57497 0.14162 0.0
N637 N 0.90867 0.47431 0.13996 0.0
C638 C 0.92423 0.46514 0.13328 0.0
C639 C 0.9024 0.42628 0.1318 0.0
C640 C 0.87807 0.44113 0.14255 0.0
N641 N 0.87341 0.41107 0.13767 0.0
C642 C 0.97192 0.57329 0.13088 0.0
C643 C 0.90972 0.54485 0.1197 0.0
C644 C 0.94561 0.57288 0.11658 0.0
C645 C 0.97707 0.58735 0.12229 0.0
C646 C 0.90589 0.53178 0.12823 0.0
N647 N 0.93634 0.54683 0.13387 0.0
H648 H 0.99683 0.58234 0.13492 0.0
H649 H 0.87828 0.50843 0.13021 0.0
H650 H 0.94993 0.48523 0.1298 0.0
H651 H 0.86055 0.43912 0.14809 0.0
O652 O 0.97716 0.52539 0.14703 0.0
O653 O 0.92891 0.50062 0.15647 0.0
O654 O 0.87466 0.51566 0.14602 0.0
C655 C 0.96304 0.50728 0.15436 0.0
H656 H 0.94421 0.62731 0.1667 0.0
H657 H 0.90784 0.41064 0.1268 0.0
H658 H 0.88459 0.53255 0.11554 0.0
H659 H 0.00557 0.60812 0.12005 0.0
Co660 Co 0.47285 0.40256 0.14485 0.0
C661 C 0.39372 0.3742 0.15138 0.0
C662 C 0.41704 0.33909 0.1556 0.0
C663 C 0.38076 0.32425 0.159 0.0
N664 N 0.42501 0.37014 0.15077 0.0
N665 N 0.36613 0.34632 0.15636 0.0
H666 H 0.39126 0.39699 0.14824 0.0
H667 H 0.43651 0.32834 0.15673 0.0
C668 C 0.49614 0.34945 0.13708 0.0
O669 O 0.50544 0.37067 0.13 0.0
N670 N 0.52227 0.43554 0.13931 0.0
C671 C 0.53399 0.46718 0.13434 0.0
C672 C 0.57314 0.4848 0.13323 0.0
C673 C 0.5549 0.43551 0.14141 0.0
N674 N 0.58629 0.46484 0.13769 0.0
C675 C 0.44405 0.41783 0.1289 0.0
C676 C 0.40796 0.3432 0.12281 0.0
C677 C 0.41164 0.37234 0.1172 0.0
C678 C 0.42861 0.4099 0.12046 0.0
C679 C 0.4242 0.35256 0.13113 0.0
N680 N 0.44493 0.38997 0.13379 0.0
H681 H 0.45527 0.44636 0.13147 0.0
H682 H 0.42099 0.32963 0.13535 0.0
H683 H 0.51652 0.47885 0.13216 0.0
H684 H 0.55555 0.41477 0.14579 0.0
O685 O 0.47046 0.44784 0.14816 0.0
O686 O 0.49766 0.42138 0.15595 0.0
O687 O 0.48174 0.35747 0.14364 0.0
C688 C 0.48994 0.44899 0.15506 0.0
H689 H 0.36666 0.29974 0.16331 0.0
H690 H 0.59075 0.51153 0.12982 0.0
H691 H 0.39413 0.31359 0.12067 0.0
H692 H 0.43019 0.43297 0.11651 0.0
Co693 Co 0.40629 0.26426 0.02646 0.0
C694 C 0.35012 0.28668 0.0197 0.0
C695 C 0.40301 0.31138 0.01256 0.0
C696 C 0.37848 0.32029 0.00832 0.0
N697 N 0.38566 0.29082 0.01978 0.0
N698 N 0.34523 0.30465 0.01278 0.0
H699 H 0.32733 0.26881 0.02414 0.0
H700 H 0.4311 0.31791 0.01029 0.0
C701 C 0.46873 0.34652 0.02685 0.0
O702 O 0.4425 0.35631 0.02819 0.0
N703 N 0.42741 0.23749 0.03266 0.0
C704 C 0.41099 0.2117 0.03912 0.0
C705 C 0.4335 0.19549 0.04078 0.0
C706 C 0.45934 0.23665 0.03044 0.0
N707 N 0.46382 0.21107 0.03527 0.0
C708 C 0.35808 0.2653 0.04046 0.0
C709 C 0.41814 0.31156 0.05147 0.0
C710 C 0.38063 0.29886 0.05423 0.0
C711 C 0.35018 0.27473 0.04873 0.0
C712 C 0.42466 0.30071 0.04331 0.0
N713 N 0.39507 0.27969 0.03767 0.0
H714 H 0.33448 0.24526 0.03646 0.0
H715 H 0.45371 0.30832 0.04171 0.0
H716 H 0.38378 0.20404 0.04214 0.0
H717 H 0.47813 0.25368 0.0252 0.0
O718 O 0.35932 0.21565 0.02458 0.0
O719 O 0.40989 0.24123 0.0158 0.0
O720 O 0.45905 0.31119 0.02606 0.0
C721 C 0.37582 0.21282 0.01752 0.0
H722 H 0.38424 0.33612 1.00227 0.0
H723 H 0.42691 0.17263 0.04538 0.0
H724 H 0.4423 0.32868 0.05572 0.0
H725 H 0.32071 0.26311 0.05083 0.0
Co726 Co 0.7382 0.14095 0.02645 0.0
C727 C 0.71537 0.0622 0.01973 0.0
C728 C 0.68433 0.08674 0.01381 0.0
C729 C 0.67481 0.05316 0.00956 0.0
N730 N 0.70907 0.09222 0.02035 0.0
N731 N 0.69432 0.03778 0.01328 0.0
H732 H 0.73726 0.05978 0.02326 0.0
H733 H 0.6756 0.10705 0.01186 0.0
C734 C 0.65787 0.12502 0.02802 0.0
O735 O 0.64862 0.0901 0.03045 0.0
N736 N 0.76763 0.19037 0.03198 0.0
C737 C 0.79465 0.20037 0.03819 0.0
C738 C 0.81095 0.23916 0.03974 0.0
C739 C 0.76799 0.22294 0.02977 0.0
N740 N 0.79423 0.25337 0.03442 0.0
C741 C 0.73004 0.08966 0.04079 0.0
C742 C 0.69977 0.12032 0.05235 0.0
C743 C 0.70614 0.09101 0.05524 0.0
C744 C 0.72121 0.07533 0.04934 0.0
C745 C 0.70861 0.13344 0.0438 0.0
N746 N 0.72266 0.1176 0.03802 0.0
H747 H 0.74441 0.07946 0.03659 0.0
H748 H 0.70509 0.15737 0.04191 0.0
H749 H 0.80253 0.181 0.04122 0.0
H750 H 0.7497 0.22425 0.02477 0.0
O751 O 0.78499 0.13913 0.02494 0.0
O752 O 0.76186 0.16424 0.01549 0.0
O753 O 0.69256 0.14909 0.02593 0.0
C754 C 0.78918 0.15738 0.01763 0.0
H755 H 0.65613 0.04165 0.00395 0.0
H756 H 0.83429 0.25575 0.04421 0.0
H757 H 0.68855 0.13354 0.05671 0.0
H758 H 0.72769 0.05346 0.05142 0.0
Co759 Co 0.86184 0.59847 0.02528 0.0
C760 C 0.94216 0.65231 0.01907 0.0
C761 C 0.91922 0.59519 0.01413 0.0
C762 C 0.95508 0.61754 0.01064 0.0
N763 N 0.91151 0.61638 0.01973 0.0
N764 N 0.96951 0.65343 0.01375 0.0
H765 H 0.94399 0.67747 0.02205 0.0
H766 H 0.89947 0.56571 0.01238 0.0
C767 C 0.87572 0.53317 0.02837 0.0
O768 O 0.91012 0.55866 0.03115 0.0
N769 N 0.8118 0.58054 0.03032 0.0
C770 C 0.80228 0.59833 0.03643 0.0
C771 C 0.76324 0.57744 0.03772 0.0
C772 C 0.77863 0.54955 0.02788 0.0
N773 N 0.74826 0.54679 0.03231 0.0
C774 C 0.91183 0.64324 0.0398 0.0
C775 C 0.87776 0.58373 0.05168 0.0
C776 C 0.90777 0.61909 0.05452 0.0
C777 C 0.92512 0.64918 0.04847 0.0
C778 C 0.86571 0.579 0.04305 0.0
N779 N 0.88327 0.60804 0.0371 0.0
H780 H 0.92359 0.66729 0.03542 0.0
H781 H 0.84143 0.55175 0.0412 0.0
H782 H 0.82231 0.62486 0.03964 0.0
H783 H 0.77691 0.53032 0.02274 0.0
O784 O 0.86431 0.64696 0.02279 0.0
O785 O 0.84046 0.59654 0.01396 0.0
O786 O 0.85269 0.54414 0.02562 0.0
C787 C 0.84683 0.63103 0.01549 0.0
H788 H 0.96883 0.60854 0.00587 0.0
H789 H 0.74734 0.58459 0.0423 0.0
H790 H 0.86339 0.55967 0.05611 0.0
H791 H 0.94778 0.67727 0.05048 0.0
Co792 Co 0.40194 0.92598 0.85909 0.0
C793 C 0.37642 0.98013 0.85225 0.0
C794 C 0.35256 0.92667 0.84535 0.0
C795 C 0.33945 0.94872 0.84151 0.0
N796 N 0.37473 0.94563 0.85227 0.0
N797 N 0.35446 0.98226 0.84583 0.0
H798 H 0.3936 0.00348 0.85662 0.0
H799 H 0.34673 0.89872 0.84316 0.0
C800 C 0.31999 0.86296 0.85984 0.0
O801 O 0.31018 0.88919 0.86116 0.0
N802 N 0.4292 0.90557 0.86542 0.0
C803 C 0.45062 0.91948 0.87269 0.0
C804 C 0.46498 0.89583 0.87489 0.0
C805 C 0.4314 0.87436 0.86318 0.0
N806 N 0.453 0.86774 0.86886 0.0
C807 C 0.39833 0.97391 0.87294 0.0
C808 C 0.35381 0.9135 0.88401 0.0
C809 C 0.36403 0.95065 0.88663 0.0
C810 C 0.38749 0.98136 0.88111 0.0
C811 C 0.36586 0.90752 0.87596 0.0
N812 N 0.38582 0.93711 0.87026 0.0
H813 H 0.41783 0.99777 0.86893 0.0
H814 H 0.35991 0.87886 0.87447 0.0
H815 H 0.45549 0.94499 0.87614 0.0
H816 H 0.41727 0.85673 0.85753 0.0
O817 O 0.45018 0.97327 0.85723 0.0
O818 O 0.42546 0.92253 0.8485 0.0
O819 O 0.3553 0.87281 0.85881 0.0
C820 C 0.45357 0.95677 0.85022 0.0
H821 H 0.32115 0.94117 0.83582 0.0
H822 H 0.48338 0.89935 0.88039 0.0
H823 H 0.33753 0.88919 0.88828 0.0
H824 H 0.39736 0.01068 0.88309 0.0
Co825 Co 0.06915 0.4733 0.86084 0.0
C826 C 0.0181 0.39569 0.85364 0.0
C827 C 0.07513 0.42214 0.84831 0.0
C828 C 0.05272 0.38806 0.84402 0.0
N829 N 0.05343 0.42691 0.8543 0.0
N830 N 0.01694 0.37157 0.84736 0.0
H831 H 0.9934 0.39177 0.85732 0.0
H832 H 0.10475 0.44286 0.84687 0.0
C833 C 0.14573 0.49556 0.86831 0.0
O834 O 0.13391 0.50416 0.87551 0.0
N835 N 0.08609 0.52149 0.86698 0.0
C836 C 0.07012 0.53138 0.87349 0.0
C837 C 0.09182 0.57042 0.87482 0.0
C838 C 0.11661 0.55482 0.86437 0.0
N839 N 0.12109 0.58517 0.86906 0.0
C840 C 0.02356 0.4398 0.8764 0.0
C841 C 0.06453 0.40581 0.88221 0.0
C842 C 0.03778 0.4071 0.88787 0.0
C843 C 0.01577 0.42275 0.88468 0.0
C844 C 0.07107 0.42293 0.874 0.0
N845 N 0.05347 0.44301 0.87156 0.0
H846 H 0.00612 0.45126 0.87398 0.0
H847 H 0.09143 0.42105 0.86974 0.0
H848 H 0.04406 0.51257 0.87692 0.0
H849 H 0.13443 0.55668 0.85889 0.0
O850 O 0.02173 0.47223 0.85781 0.0
O851 O 0.07541 0.50043 0.85006 0.0
O852 O 0.12306 0.48159 0.86177 0.0
C853 C 0.0402 0.49287 0.85105 0.0
H854 H 0.06174 0.37669 0.8387 0.0
H855 H 0.08599 0.58659 0.87962 0.0
H856 H 0.08169 0.39327 0.88418 0.0
H857 H 0.99319 0.42246 0.88858 0.0
Co858 Co 0.52396 0.59175 0.85979 0.0
C859 C 0.6019 0.61866 0.8528 0.0
C860 C 0.57756 0.65203 0.84797 0.0
C861 C 0.61364 0.66632 0.84446 0.0
N862 N 0.57044 0.62246 0.85325 0.0
N863 N 0.62883 0.6453 0.84749 0.0
H864 H 0.60513 0.5972 0.85636 0.0
H865 H 0.55782 0.66233 0.84671 0.0
C866 C 0.50735 0.64945 0.86765 0.0
O867 O 0.50292 0.63158 0.87511 0.0
N868 N 0.47571 0.56012 0.86594 0.0
C869 C 0.46232 0.52484 0.86945 0.0
C870 C 0.42359 0.50869 0.87107 0.0
C871 C 0.44425 0.56385 0.86514 0.0
N872 N 0.4124 0.53342 0.86837 0.0
C873 C 0.5509 0.58039 0.87654 0.0
C874 C 0.59623 0.65764 0.88024 0.0
C875 C 0.5892 0.63089 0.88685 0.0
C876 C 0.56774 0.59173 0.8848 0.0
C877 C 0.57906 0.64503 0.87209 0.0
N878 N 0.55414 0.60696 0.87055 0.0
H879 H 0.53479 0.5503 0.87506 0.0
H880 H 0.58394 0.66624 0.86717 0.0
H881 H 0.47826 0.50993 0.87006 0.0
H882 H 0.44386 0.5869 0.8616 0.0
O883 O 0.52629 0.54621 0.85694 0.0
O884 O 0.49677 0.56999 0.84904 0.0
O885 O 0.51561 0.63735 0.86071 0.0
C886 C 0.50538 0.54307 0.85016 0.0
H887 H 0.62736 0.68988 0.83989 0.0
H888 H 0.40484 0.48029 0.87366 0.0
H889 H 0.61384 0.68815 0.88144 0.0
H890 H 0.56251 0.57004 0.88964 0.0
Co891 Co 0.60138 0.74002 0.97774 0.0
C892 C 0.65325 0.71361 0.98445 0.0
C893 C 0.59509 0.67746 0.98875 0.0
C894 C 0.61737 0.6635 0.99214 0.0
N895 N 0.61753 0.70865 0.98389 0.0
N896 N 0.65389 0.68628 0.98946 0.0
H897 H 0.67812 0.73655 0.98125 0.0
H898 H 0.56474 0.66588 0.98986 0.0
C899 C 0.52245 0.68746 0.97108 0.0
O900 O 0.53294 0.70773 0.96385 0.0
N901 N 0.58452 0.77203 0.97188 0.0
C902 C 0.59526 0.79149 0.96424 0.0
C903 C 0.57325 0.80845 0.96283 0.0
C904 C 0.55689 0.77843 0.97506 0.0
N905 N 0.54935 0.80023 0.96965 0.0
C906 C 0.64583 0.75067 0.96215 0.0
C907 C 0.60132 0.67702 0.9558 0.0
C908 C 0.6298 0.70476 0.95038 0.0
C909 C 0.6535 0.74157 0.95386 0.0
C910 C 0.59509 0.68732 0.96408 0.0
N911 N 0.6147 0.72464 0.9668 0.0
H912 H 0.66384 0.77935 0.96465 0.0
H913 H 0.57369 0.66519 0.96818 0.0
H914 H 0.61695 0.79337 0.95985 0.0
H915 H 0.54158 0.76615 0.98108 0.0
O916 O 0.64985 0.78561 0.98033 0.0
O917 O 0.5981 0.76195 0.9887 0.0
O918 O 0.54666 0.69536 0.97727 0.0
C919 C 0.6333 0.78895 0.9873 0.0
H920 H 0.60762 0.63901 0.99644 0.0
H921 H 0.57475 0.8256 0.95724 0.0
H922 H 0.58279 0.64787 0.9536 0.0
H923 H 0.67724 0.76352 0.95015 0.0
Co924 Co 0.26807 0.86007 0.97813 0.0
C925 C 0.2934 0.93944 0.98493 0.0
C926 C 0.32375 0.91369 0.99062 0.0
C927 C 0.33652 0.94878 0.99445 0.0
N928 N 0.29785 0.90827 0.98437 0.0
N929 N 0.31743 0.96491 0.99088 0.0
H930 H 0.27223 0.94304 0.9814 0.0
H931 H 0.33193 0.89288 0.99251 0.0
C932 C 0.34872 0.87644 0.9762 0.0
O933 O 0.35851 0.91197 0.97422 0.0
N934 N 0.23805 0.81121 0.97244 0.0
C935 C 0.21266 0.80235 0.9659 0.0
C936 C 0.19554 0.76354 0.96431 0.0
C937 C 0.23579 0.77795 0.97481 0.0
N938 N 0.20995 0.74808 0.96995 0.0
C939 C 0.27249 0.9111 0.96404 0.0
C940 C 0.30439 0.88352 0.95211 0.0
C941 C 0.29582 0.91157 0.94941 0.0
C942 C 0.27996 0.92575 0.95549 0.0
C943 C 0.29694 0.87012 0.96065 0.0
N944 N 0.28207 0.88444 0.96662 0.0
H945 H 0.25723 0.91977 0.96838 0.0
H946 H 0.30167 0.84676 0.96233 0.0
H947 H 0.20663 0.82256 0.96263 0.0
H948 H 0.25187 0.77579 0.98022 0.0
O949 O 0.2211 0.86119 0.98036 0.0
O950 O 0.2465 0.83592 0.98912 0.0
O951 O 0.31381 0.85194 0.97801 0.0
C952 C 0.21857 0.84253 0.98752 0.0
H953 H 0.35709 0.96087 0.99973 0.0
H954 H 0.17389 0.74811 0.9594 0.0
H955 H 0.31602 0.87129 0.94757 0.0
H956 H 0.27173 0.94652 0.95355 0.0
Co957 Co 0.14247 0.40372 0.97907 0.0
C958 C 0.06423 0.34824 0.98606 0.0
C959 C 0.08772 0.40476 0.99138 0.0
C960 C 0.05429 0.38101 0.99573 0.0
N961 N 0.09369 0.3847 0.98512 0.0
N962 N 0.03958 0.34551 0.99238 0.0
H963 H 0.06248 0.32351 0.98286 0.0
H964 H 0.10761 0.43425 0.9931 0.0
C965 C 0.1266 0.46805 0.97694 0.0
O966 O 0.09144 0.44241 0.97466 0.0
N967 N 0.19204 0.42331 0.97362 0.0
C968 C 0.20364 0.4049 0.96816 0.0
C969 C 0.24241 0.42825 0.96661 0.0
C970 C 0.22355 0.45728 0.97536 0.0
N971 N 0.25472 0.46114 0.97114 0.0
C972 C 0.09001 0.35916 0.96504 0.0
C973 C 0.12075 0.41812 0.95296 0.0
C974 C 0.08977 0.3827 0.95052 0.0
C975 C 0.07427 0.35286 0.95662 0.0
C976 C 0.13504 0.42338 0.96144 0.0
N977 N 0.11906 0.39451 0.96748 0.0
H978 H 0.07961 0.33523 0.96942 0.0
H979 H 0.15954 0.45081 0.9631 0.0
H980 H 0.18537 0.37629 0.96562 0.0
H981 H 0.22396 0.47816 0.97987 0.0
O982 O 0.14061 0.35536 0.98098 0.0
O983 O 0.16578 0.40474 0.99012 0.0
O984 O 0.15057 0.45746 0.97913 0.0
C985 C 0.15878 0.37026 0.98825 0.0
H986 H 0.04244 0.38891 1.00115 0.0
H987 H 0.26016 0.42157 0.9625 0.0
H988 H 0.13391 0.44157 0.94834 0.0
H989 H 0.05106 0.3247 0.95483 0.0
Co990 Co 0.26441 0.40477 0.47945 0.0
C991 C 0.29137 0.35112 0.48564 0.0
C992 C 0.32388 0.40786 0.4909 0.0
C993 C 0.33766 0.3858 0.49442 0.0
N994 N 0.29589 0.38678 0.4851 0.0
N995 N 0.31728 0.35016 0.49111 0.0
H996 H 0.26881 0.326 0.48248 0.0
H997 H 0.33282 0.43707 0.49275 0.0
C998 C 0.34394 0.46917 0.47647 0.0
O999 O 0.35248 0.44316 0.47388 0.0
N1000 N 0.23274 0.4231 0.47435 0.0
C1001 C 0.20551 0.40576 0.46821 0.0
C1002 C 0.18764 0.42699 0.46697 0.0
C1003 C 0.23085 0.45416 0.47687 0.0
N1004 N 0.20346 0.45739 0.47246 0.0
C1005 C 0.26864 0.35924 0.46501 0.0
C1006 C 0.29594 0.41879 0.45311 0.0
C1007 C 0.28988 0.38309 0.45032 0.0
C1008 C 0.27613 0.35296 0.45638 0.0
C1009 C 0.28844 0.42382 0.4617 0.0
N1010 N 0.2762 0.39478 0.46767 0.0
H1011 H 0.25544 0.33519 0.46938 0.0
H1012 H 0.29189 0.45132 0.4635 0.0
H1013 H 0.19878 0.37927 0.46495 0.0
H1014 H 0.24831 0.47305 0.48206 0.0
O1015 O 0.21827 0.35647 0.48194 0.0
O1016 O 0.24488 0.40698 0.49075 0.0
O1017 O 0.30989 0.45884 0.47907 0.0
C1018 C 0.21674 0.37247 0.48922 0.0
H1019 H 0.35983 0.3948 0.49934 0.0
H1020 H 0.16462 0.42022 0.4624 0.0
H1021 H 0.30631 0.44286 0.44866 0.0
H1022 H 0.27 0.32461 0.45441 0.0
Co1023 Co 0.59787 0.8593 0.47734 0.0
C1024 C 0.64944 0.93715 0.48436 0.0
C1025 C 0.59293 0.9108 0.48998 0.0
C1026 C 0.61567 0.94515 0.49414 0.0
N1027 N 0.61411 0.90581 0.48388 0.0
N1028 N 0.65112 0.9616 0.49062 0.0
H1029 H 0.67376 0.94102 0.48054 0.0
H1030 H 0.56344 0.89012 0.49154 0.0
C1031 C 0.52305 0.84058 0.46946 0.0
O1032 O 0.53579 0.8334 0.46222 0.0
N1033 N 0.58068 0.81088 0.47122 0.0
C1034 C 0.60162 0.79843 0.46688 0.0
C1035 C 0.57948 0.75953 0.4655 0.0
C1036 C 0.54676 0.7787 0.47278 0.0
N1037 N 0.54499 0.74713 0.46925 0.0
C1038 C 0.63924 0.88795 0.46096 0.0
C1039 C 0.60533 0.93074 0.45659 0.0
C1040 C 0.62661 0.92455 0.45019 0.0
C1041 C 0.6452 0.90424 0.45263 0.0
C1042 C 0.59956 0.91326 0.46475 0.0
N1043 N 0.61379 0.8895 0.46658 0.0
H1044 H 0.6549 0.87391 0.46283 0.0
H1045 H 0.58223 0.91766 0.46948 0.0
H1046 H 0.63194 0.81487 0.46558 0.0
H1047 H 0.52452 0.77821 0.47684 0.0
O1048 O 0.64494 0.85989 0.48046 0.0
O1049 O 0.59084 0.8319 0.48808 0.0
O1050 O 0.54447 0.8522 0.47625 0.0
C1051 C 0.62601 0.83917 0.48718 0.0
H1052 H 0.60708 0.9568 0.49949 0.0
H1053 H 0.5892 0.74136 0.46259 0.0
H1054 H 0.5923 0.94814 0.45527 0.0
H1055 H 0.66311 0.89964 0.4481 0.0
Co1056 Co 0.14252 0.73877 0.4789 0.0
C1057 C 0.06339 0.7152 0.48562 0.0
C1058 C 0.09348 0.69383 0.49321 0.0
C1059 C 0.05979 0.68442 0.49739 0.0
N1060 N 0.09572 0.71264 0.48575 0.0
N1061 N 0.04094 0.69796 0.49264 0.0
H1062 H 0.05731 0.73129 0.48089 0.0
H1063 H 0.11577 0.68869 0.49563 0.0
C1064 C 0.12375 0.65685 0.47919 0.0
O1065 O 0.08752 0.64656 0.47795 0.0
N1066 N 0.19003 0.76519 0.47251 0.0
C1067 C 0.19986 0.79295 0.46649 0.0
C1068 C 0.23819 0.80802 0.4645 0.0
C1069 C 0.22212 0.76357 0.4741 0.0
N1070 N 0.25197 0.78942 0.46928 0.0
C1071 C 0.09267 0.7354 0.46484 0.0
C1072 C 0.10639 0.68812 0.45417 0.0
C1073 C 0.08168 0.7007 0.45124 0.0
C1074 C 0.07536 0.72527 0.45658 0.0
C1075 C 0.1238 0.69973 0.46232 0.0
N1076 N 0.11531 0.72134 0.46779 0.0
H1077 H 0.08911 0.75582 0.46869 0.0
H1078 H 0.14529 0.69232 0.46403 0.0
H1079 H 0.18087 0.80242 0.46396 0.0
H1080 H 0.22409 0.74521 0.47898 0.0
O1081 O 0.14307 0.78693 0.48026 0.0
O1082 O 0.16971 0.76421 0.48939 0.0
O1083 O 0.14918 0.69236 0.47973 0.0
C1084 C 0.16307 0.7917 0.48732 0.0
H1085 H 0.05029 0.66956 0.50357 0.0
H1086 H 0.25476 0.83115 0.45997 0.0
H1087 H 0.11343 0.67065 0.45004 0.0
H1088 H 0.05757 0.73677 0.45435 0.0
Co1089 Co 0.07131 0.59827 0.36091 0.0
C1090 C 0.01933 0.62368 0.35375 0.0
C1091 C 0.07693 0.65701 0.34887 0.0
C1092 C 0.0541 0.66825 0.3446 0.0
N1093 N 0.05513 0.62909 0.35457 0.0
N1094 N 0.01793 0.64721 0.34765 0.0
H1095 H 0.99456 0.60165 0.35718 0.0
H1096 H 0.10698 0.66727 0.34761 0.0
C1097 C 0.14728 0.65204 0.36869 0.0
O1098 O 0.13519 0.63091 0.37577 0.0
N1099 N 0.08859 0.56679 0.36688 0.0
C1100 C 0.07319 0.54132 0.37348 0.0
C1101 C 0.09502 0.52415 0.37478 0.0
C1102 C 0.11903 0.56391 0.36419 0.0
N1103 N 0.12389 0.53829 0.36891 0.0
C1104 C 0.02448 0.58348 0.37635 0.0
C1105 C 0.06363 0.65766 0.3827 0.0
C1106 C 0.03717 0.6284 0.38814 0.0
C1107 C 0.01618 0.59114 0.38473 0.0
C1108 C 0.07134 0.64851 0.37443 0.0
N1109 N 0.05452 0.61119 0.37171 0.0
H1110 H 0.00769 0.55489 0.37371 0.0
H1111 H 0.09187 0.67148 0.37035 0.0
H1112 H 0.04754 0.53429 0.37705 0.0
H1113 H 0.13664 0.57984 0.3587 0.0
O1114 O 0.02452 0.55192 0.35759 0.0
O1115 O 0.0787 0.57903 0.35002 0.0
O1116 O 0.12485 0.64421 0.36213 0.0
C1117 C 0.04361 0.55092 0.35082 0.0
H1118 H 0.0632 0.68966 0.3395 0.0
H1119 H 0.08955 0.50259 0.37966 0.0
H1120 H 0.07965 0.68709 0.38495 0.0
H1121 H 0.99412 0.56802 0.38856 0.0
Co1122 Co 0.40319 0.47407 0.35935 0.0
C1123 C 0.37871 0.39387 0.35341 0.0
C1124 C 0.34709 0.41747 0.34735 0.0
C1125 C 0.33455 0.38164 0.34394 0.0
N1126 N 0.37366 0.42472 0.35356 0.0
N1127 N 0.35444 0.36687 0.34775 0.0
H1128 H 0.40048 0.39153 0.35701 0.0
H1129 H 0.33824 0.43746 0.34519 0.0
C1130 C 0.32238 0.45754 0.36118 0.0
O1131 O 0.313 0.42253 0.36356 0.0
N1132 N 0.43299 0.52397 0.36463 0.0
C1133 C 0.45696 0.53381 0.37152 0.0
C1134 C 0.47373 0.57283 0.3728 0.0
C1135 C 0.43607 0.55692 0.3617 0.0
N1136 N 0.46069 0.58714 0.36658 0.0
C1137 C 0.39925 0.42555 0.374 0.0
C1138 C 0.36578 0.45377 0.38532 0.0
C1139 C 0.37424 0.4261 0.38839 0.0
C1140 C 0.39107 0.41171 0.38261 0.0
C1141 C 0.37419 0.46653 0.37675 0.0
N1142 N 0.38952 0.45165 0.37106 0.0
H1143 H 0.41492 0.41655 0.36988 0.0
H1144 H 0.36945 0.48961 0.37481 0.0
H1145 H 0.46222 0.5141 0.37526 0.0
H1146 H 0.42085 0.55877 0.35606 0.0
O1147 O 0.45038 0.47314 0.35737 0.0
O1148 O 0.42437 0.49639 0.34821 0.0
O1149 O 0.35714 0.48174 0.35915 0.0
C1150 C 0.45265 0.49061 0.35003 0.0
H1151 H 0.31358 0.36808 0.33879 0.0
H1152 H 0.49475 0.58959 0.37774 0.0
H1153 H 0.3531 0.466 0.38955 0.0
H1154 H 0.39917 0.39117 0.38481 0.0
Co1155 Co 0.52752 0.92936 0.35901 0.0
C1156 C 0.60593 0.98423 0.35193 0.0
C1157 C 0.57566 0.93197 0.34463 0.0
C1158 C 0.60885 0.95609 0.34026 0.0
N1159 N 0.57392 0.94913 0.35204 0.0
N1160 N 0.62779 0.98898 0.34482 0.0
H1161 H 0.61201 0.00688 0.35652 0.0
H1162 H 0.55326 0.90434 0.34234 0.0
C1163 C 0.54445 0.8649 0.35863 0.0
O1164 O 0.58106 0.89007 0.35963 0.0
N1165 N 0.48033 0.90914 0.36549 0.0
C1166 C 0.47098 0.92736 0.37154 0.0
C1167 C 0.43271 0.90438 0.37363 0.0
C1168 C 0.44801 0.87556 0.36398 0.0
N1169 N 0.41849 0.87189 0.36887 0.0
C1170 C 0.57851 0.97536 0.37294 0.0
C1171 C 0.563 0.91426 0.38375 0.0
C1172 C 0.58818 0.95148 0.38668 0.0
C1173 C 0.59556 0.9824 0.38122 0.0
C1174 C 0.546 0.9086 0.37556 0.0
N1175 N 0.55511 0.93872 0.37005 0.0
H1176 H 0.58272 0.99945 0.36904 0.0
H1177 H 0.52409 0.87986 0.37387 0.0
H1178 H 0.49029 0.95579 0.37404 0.0
H1179 H 0.44566 0.85504 0.3591 0.0
O1180 O 0.52811 0.97751 0.35771 0.0
O1181 O 0.50021 0.92822 0.34859 0.0
O1182 O 0.51966 0.87586 0.3582 0.0
C1183 C 0.50777 0.96263 0.35068 0.0
H1184 H 0.61783 0.95028 0.33407 0.0
H1185 H 0.4165 0.91118 0.37821 0.0
H1186 H 0.55499 0.8897 0.38793 0.0
H1187 H 0.61379 0.01168 0.38339 0.0
H1188 H 0.12451 0.15734 0.21428 0.0
H1189 H 0.15216 0.19249 0.18744 0.0
H1190 H 0.14258 0.10794 0.21204 0.0
H1191 H 0.17128 0.14384 0.18526 0.0
H1192 H 0.24916 0.08666 0.19263 0.0
H1193 H 0.22891 0.13462 0.19415 0.0
H1194 H 0.11365 0.04484 0.2 0.0
H1195 H 0.13345 0.99662 0.19823 0.0
C1196 C 0.13468 0.15454 0.20794 0.0
C1197 C 0.137 0.17851 0.20103 0.0
C1198 C 0.14475 0.1263 0.20665 0.0
C1199 C 0.15819 0.1223 0.19849 0.0
C1200 C 0.16095 0.14652 0.1916 0.0
C1201 C 0.14996 0.17411 0.19283 0.0
C1202 C 0.21945 0.07718 0.19418 0.0
C1203 C 0.19283 0.038 0.1953 0.0
C1204 C 0.20793 0.10454 0.19502 0.0
C1205 C 0.16985 0.09321 0.19721 0.0
C1206 C 0.14319 0.0541 0.19833 0.0
C1207 C 0.15448 0.02663 0.19727 0.0
H1208 H 0.99801 0.12527 0.21102 0.0
H1209 H 0.95441 0.16 0.18918 0.0
H1210 H 0.94313 0.06046 0.21003 0.0
H1211 H 0.89904 0.09482 0.18827 0.0
H1212 H 0.78578 0.9859 0.19827 0.0
H1213 H 0.84099 0.0512 0.19821 0.0
H1214 H 0.91762 0.00522 0.19901 0.0
H1215 H 0.86248 0.94005 0.19908 0.0
C1216 C 0.97664 0.11909 0.20602 0.0
C1217 C 0.98047 0.14775 0.20019 0.0
C1218 C 0.94537 0.0819 0.20543 0.0
C1219 C 0.91694 0.07264 0.19907 0.0
C1220 C 0.92052 0.1013 0.19326 0.0
C1221 C 0.95223 0.13847 0.19376 0.0
C1222 C 0.81443 0.98983 0.19843 0.0
C1223 C 0.81987 0.95795 0.19871 0.0
C1224 C 0.84597 0.02711 0.19832 0.0
C1225 C 0.88351 0.0332 0.19862 0.0
C1226 C 0.88895 0.00132 0.19882 0.0
C1227 C 0.85746 0.96407 0.1988 0.0
H1228 H 0.83078 0.75264 0.2036 0.0
H1229 H 0.85857 0.85993 0.19117 0.0
H1230 H 0.89876 0.7732 0.20452 0.0
H1231 H 0.92681 0.8807 0.19222 0.0
H1232 H 0.04166 0.88328 0.18711 0.0
H1233 H 0.97421 0.86522 0.18615 0.0
H1234 H 0.95597 0.8203 0.21238 0.0
H1235 H 0.02339 0.83851 0.21337 0.0
C1236 C 0.85137 0.78065 0.20107 0.0
C1237 C 0.8392 0.80461 0.1973 0.0
C1238 C 0.89039 0.79253 0.20166 0.0
C1239 C 0.91821 0.82865 0.19848 0.0
C1240 C 0.90606 0.85256 0.19465 0.0
C1241 C 0.86697 0.84069 0.19408 0.0
C1242 C 0.02344 0.87002 0.19271 0.0
C1243 C 0.03801 0.8622 0.2003 0.0
C1244 C 0.98473 0.85963 0.19216 0.0
C1245 C 0.95968 0.84112 0.19917 0.0
C1246 C 0.97437 0.83388 0.2068 0.0
C1247 C 0.01304 0.84431 0.20737 0.0
H1248 H 0.00658 0.14482 0.31514 0.0
H1249 H 0.09029 0.25898 0.30658 0.0
H1250 H 0.05448 0.1248 0.31365 0.0
H1251 H 0.13805 0.23893 0.30516 0.0
H1252 H 0.19597 0.17559 0.29346 0.0
H1253 H 0.14828 0.19532 0.29545 0.0
H1254 H 0.11635 0.13698 0.32028 0.0
H1255 H 0.16445 0.11772 0.3184 0.0
C1256 C 0.03525 0.16572 0.31301 0.0
C1257 C 0.04459 0.20349 0.31096 0.0
C1258 C 0.06269 0.15427 0.31219 0.0
C1259 C 0.09993 0.18025 0.30924 0.0
C1260 C 0.10942 0.21814 0.30733 0.0
C1261 C 0.0821 0.22967 0.3082 0.0
C1262 C 0.17911 0.16722 0.29939 0.0
C1263 C 0.18431 0.14511 0.30577 0.0
C1264 C 0.15173 0.17852 0.30052 0.0
C1265 C 0.1287 0.16782 0.30803 0.0
C1266 C 0.13343 0.14533 0.31437 0.0
C1267 C 0.161 0.1342 0.31327 0.0
H1268 H 0.75042 0.83865 0.3114 0.0
H1269 H 0.86854 0.86501 0.31135 0.0
H1270 H 0.77144 0.90645 0.30969 0.0
H1271 H 0.88965 0.93278 0.30929 0.0
H1272 H 0.91636 0.05586 0.31322 0.0
H1273 H 0.8957 0.98883 0.31587 0.0
H1274 H 0.79778 0.95529 0.29903 0.0
H1275 H 0.817 0.02212 0.29682 0.0
C1276 C 0.78092 0.85896 0.31101 0.0
C1277 C 0.8078 0.84645 0.3115 0.0
C1278 C 0.793 0.89787 0.30996 0.0
C1279 C 0.83228 0.92522 0.30926 0.0
C1280 C 0.8592 0.91269 0.30991 0.0
C1281 C 0.8471 0.87378 0.31106 0.0
C1282 C 0.89016 0.03433 0.31015 0.0
C1283 C 0.86831 0.04483 0.30484 0.0
C1284 C 0.87854 0.99571 0.31159 0.0
C1285 C 0.84493 0.96646 0.3077 0.0
C1286 C 0.82344 0.97693 0.30228 0.0
C1287 C 0.83485 0.01551 0.3009 0.0
H1288 H 0.16843 0.9214 0.30219 0.0
H1289 H 0.14027 0.00139 0.31422 0.0
H1290 H 0.10042 0.87383 0.30128 0.0
H1291 H 0.07208 0.95373 0.31323 0.0
H1292 H 0.9757 0.81593 0.29211 0.0
H1293 H 0.04324 0.86458 0.29319 0.0
H1294 H 0.02507 0.89036 0.31951 0.0
H1295 H 0.95755 0.84136 0.3185 0.0
C1296 C 0.14776 0.92886 0.30465 0.0
C1297 C 0.15979 0.9652 0.30828 0.0
C1298 C 0.10877 0.90166 0.30407 0.0
C1299 C 0.08091 0.9101 0.30715 0.0
C1300 C 0.09291 0.9463 0.31087 0.0
C1301 C 0.13195 0.97362 0.3114 0.0
C1302 C 0.98605 0.83169 0.29816 0.0
C1303 C 0.96106 0.82447 0.30523 0.0
C1304 C 0.0248 0.85963 0.29877 0.0
C1305 C 0.0395 0.88117 0.30645 0.0
C1306 C 0.01448 0.87449 0.31347 0.0
C1307 C 0.97572 0.8464 0.31288 0.0
H1308 H 0.81139 0.96504 0.79117 0.0
H1309 H 0.85774 0.99648 0.81716 0.0
H1310 H 0.82008 0.90952 0.79159 0.0
H1311 H 0.86963 0.94268 0.81741 0.0
H1312 H 0.85909 0.82494 0.81838 0.0
H1313 H 0.84609 0.87809 0.8185 0.0
H1314 H 0.86367 0.88976 0.79053 0.0
H1315 H 0.87347 0.83476 0.7905 0.0
C1316 C 0.82393 0.96017 0.79694 0.0
C1317 C 0.83398 0.98492 0.80412 0.0
C1318 C 0.82934 0.92851 0.79717 0.0
C1319 C 0.84613 0.92147 0.80449 0.0
C1320 C 0.85604 0.94645 0.81171 0.0
C1321 C 0.84951 0.97753 0.81156 0.0
C1322 C 0.85995 0.83904 0.8123 0.0
C1323 C 0.86695 0.82586 0.80443 0.0
C1324 C 0.85281 0.8697 0.81234 0.0
C1325 C 0.85359 0.88855 0.80452 0.0
C1326 C 0.86157 0.87557 0.79667 0.0
C1327 C 0.86757 0.84424 0.79663 0.0
H1328 H 0.18069 0.02303 0.79007 0.0
H1329 H 0.15923 0.04678 0.81633 0.0
H1330 H 0.13345 0.95538 0.79211 0.0
H1331 H 0.11175 0.97948 0.81828 0.0
H1332 H 1.00102 0.86259 0.81479 0.0
H1333 H 0.04755 0.93054 0.81273 0.0
H1334 H 0.12667 0.90057 0.801 0.0
H1335 H 0.08022 0.83272 0.803 0.0
C1336 C 0.16608 0.01395 0.79628 0.0
C1337 C 0.17393 0.04059 0.80302 0.0
C1338 C 0.13898 0.97516 0.79744 0.0
C1339 C 0.11893 0.96214 0.80536 0.0
C1340 C 0.12637 0.98874 0.81206 0.0
C1341 C 0.1536 0.02745 0.81092 0.0
C1342 C 0.02841 0.87049 0.81181 0.0
C1343 C 0.03692 0.84222 0.80907 0.0
C1344 C 0.05508 0.90941 0.81065 0.0
C1345 C 0.09069 0.92086 0.80667 0.0
C1346 C 0.09927 0.8926 0.80398 0.0
C1347 C 0.07274 0.85373 0.80519 0.0
H1348 H 0.16625 0.25739 0.81096 0.0
H1349 H 0.13719 0.13928 0.80758 0.0
H1350 H 0.0988 0.23862 0.80934 0.0
H1351 H 0.07016 0.12071 0.80559 0.0
H1352 H 0.94819 0.09296 0.81046 0.0
H1353 H 0.01499 0.11235 0.81284 0.0
H1354 H 0.04941 0.21779 0.79879 0.0
H1355 H 0.98257 0.19964 0.79692 0.0
C1356 C 0.14546 0.22744 0.80984 0.0
C1357 C 0.15705 0.19984 0.80942 0.0
C1358 C 0.1068 0.21668 0.80884 0.0
C1359 C 0.07889 0.17812 0.80729 0.0
C1360 C 0.09062 0.15055 0.80692 0.0
C1361 C 0.12917 0.16124 0.80802 0.0
C1362 C 0.96982 0.12055 0.80797 0.0
C1363 C 0.95956 0.14475 0.80354 0.0
C1364 C 0.00835 0.13146 0.80924 0.0
C1365 C 0.03779 0.16669 0.80601 0.0
C1366 C 0.0276 0.19072 0.8015 0.0
C1367 C 0.98905 0.17998 0.80031 0.0
H1368 H 0.92978 0.76024 0.70509 0.0
H1369 H 0.99545 0.85472 0.68752 0.0
H1370 H 0.88294 0.78087 0.70681 0.0
H1371 H 0.94726 0.87447 0.68885 0.0
H1372 H 0.87305 0.92148 0.69982 0.0
H1373 H 0.9217 0.90251 0.69812 0.0
H1374 H 0.83298 0.7832 0.69988 0.0
H1375 H 0.78516 0.8026 0.70198 0.0
C1376 C 0.93387 0.78514 0.70147 0.0
C1377 C 0.9662 0.80572 0.69613 0.0
C1378 C 0.90681 0.79692 0.70242 0.0
C1379 C 0.91092 0.82924 0.69792 0.0
C1380 C 0.9433 0.84977 0.69252 0.0
C1381 C 0.9708 0.83831 0.6917 0.0
C1382 C 0.86421 0.89126 0.69986 0.0
C1383 C 0.8255 0.86351 0.70113 0.0
C1384 C 0.89197 0.88029 0.69883 0.0
C1385 C 0.88148 0.84123 0.69889 0.0
C1386 C 0.84248 0.81356 0.70001 0.0
C1387 C 0.81493 0.82459 0.7012 0.0
H1388 H 0.14557 0.96524 0.68769 0.0
H1389 H 0.13133 0.9626 0.71556 0.0
H1390 H 0.16025 0.03192 0.68735 0.0
H1391 H 0.14297 0.02803 0.71531 0.0
H1392 H 0.19736 0.15564 0.7143 0.0
H1393 H 0.18786 0.09108 0.71405 0.0
H1394 H 0.13758 0.07385 0.68829 0.0
H1395 H 0.15017 0.13977 0.68837 0.0
C1396 C 0.14511 0.97901 0.69373 0.0
C1397 C 0.13761 0.95917 0.70166 0.0
C1398 C 0.15325 0.01713 0.69356 0.0
C1399 C 0.15304 0.03591 0.70131 0.0
C1400 C 0.14463 0.01535 0.70922 0.0
C1401 C 0.13759 0.97766 0.70939 0.0
C1402 C 0.18456 0.138 0.70857 0.0
C1403 C 0.17445 0.15251 0.70136 0.0
C1404 C 0.17868 0.10074 0.70844 0.0
C1405 C 0.16136 0.07656 0.7012 0.0
C1406 C 0.15155 0.09149 0.69394 0.0
C1407 C 0.15851 0.12924 0.69398 0.0
H1408 H 0.8662 1.00029 0.69721 0.0
H1409 H 0.83891 0.09105 0.69501 0.0
H1410 H 0.93346 0.04767 0.69946 0.0
H1411 H 0.90648 0.13865 0.6969 0.0
H1412 H 0.02229 0.21294 0.70948 0.0
H1413 H 0.95544 0.16469 0.70753 0.0
H1414 H 0.98929 0.09543 0.69257 0.0
H1415 H 0.05621 0.14239 0.69501 0.0
C1416 C 0.87466 0.03043 0.69709 0.0
C1417 C 0.84722 0.04194 0.69594 0.0
C1418 C 0.91333 0.05767 0.69834 0.0
C1419 C 0.92558 0.09712 0.69839 0.0
C1420 C 0.89809 0.10856 0.69708 0.0
C1421 C 0.85934 0.08128 0.69593 0.0
C1422 C 0.01573 0.18727 0.70588 0.0
C1423 C 0.04511 0.18195 0.70239 0.0
C1424 C 0.97714 0.15971 0.70465 0.0
C1425 C 0.96676 0.12618 0.69982 0.0
C1426 C 0.99607 0.12067 0.69639 0.0
C1427 C 0.03467 0.14803 0.6977 0.0
H1428 H 0.73831 0.46205 0.53217 0.0
H1429 H 0.86056 0.53965 0.53354 0.0
H1430 H 0.74921 0.40742 0.53172 0.0
H1431 H 0.87152 0.48499 0.53307 0.0
H1432 H 0.8714 0.37559 0.52261 0.0
H1433 H 0.86044 0.43034 0.5222 0.0
H1434 H 0.77658 0.37902 0.54278 0.0
H1435 H 0.78775 0.32477 0.54328 0.0
C1436 C 0.7675 0.46738 0.53231 0.0
C1437 C 0.79859 0.50503 0.53292 0.0
C1438 C 0.77372 0.43618 0.53211 0.0
C1439 C 0.8112 0.44204 0.53236 0.0
C1440 C 0.84236 0.47972 0.53281 0.0
C1441 C 0.83609 0.51091 0.53316 0.0
C1442 C 0.85057 0.37603 0.52702 0.0
C1443 C 0.83055 0.34604 0.533 0.0
C1444 C 0.84446 0.40738 0.52681 0.0
C1445 C 0.81765 0.40884 0.53245 0.0
C1446 C 0.79721 0.3785 0.53832 0.0
C1447 C 0.80381 0.3476 0.53864 0.0
H1448 H 0.5085 0.30161 0.54802 0.0
H1449 H 0.47185 0.29227 0.52125 0.0
H1450 H 0.55784 0.36894 0.54551 0.0
H1451 H 0.52037 0.3598 0.5188 0.0
H1452 H 0.57841 0.49524 0.5255 0.0
H1453 H 0.53038 0.42729 0.52739 0.0
H1454 H 0.62032 0.40201 0.53326 0.0
H1455 H 0.66861 0.46978 0.53111 0.0
C1456 C 0.5109 0.31416 0.54164 0.0
C1457 C 0.48659 0.29204 0.53483 0.0
C1458 C 0.53912 0.35237 0.5402 0.0
C1459 C 0.54272 0.3692 0.53197 0.0
C1460 C 0.51802 0.34728 0.52519 0.0
C1461 C 0.49048 0.30883 0.52658 0.0
C1462 C 0.58791 0.4751 0.52712 0.0
C1463 C 0.62715 0.48764 0.52814 0.0
C1464 C 0.56051 0.43637 0.52818 0.0
C1465 C 0.57186 0.40977 0.53049 0.0
C1466 C 0.61104 0.42219 0.5315 0.0
C1467 C 0.63855 0.46078 0.53022 0.0
H1468 H 0.68049 0.13104 0.53315 0.0
H1469 H 0.72738 0.25372 0.53388 0.0
H1470 H 0.61534 0.12164 0.53299 0.0
H1471 H 0.66254 0.24441 0.5337 0.0
H1472 H 0.54272 0.20723 0.54518 0.0
H1473 H 0.60695 0.21545 0.54458 0.0
H1474 H 0.57282 0.13704 0.52281 0.0
H1475 H 0.50821 0.12891 0.52336 0.0
C1476 C 0.67681 0.15591 0.53328 0.0
C1477 C 0.7089 0.19309 0.53353 0.0
C1478 C 0.63966 0.15057 0.53312 0.0
C1479 C 0.634 0.18231 0.53335 0.0
C1480 C 0.66611 0.21945 0.53357 0.0
C1481 C 0.70316 0.22478 0.53361 0.0
C1482 C 0.54884 0.19171 0.54026 0.0
C1483 C 0.52044 0.16742 0.53432 0.0
C1484 C 0.58567 0.19659 0.53989 0.0
C1485 C 0.5948 0.17692 0.53364 0.0
C1486 C 0.5664 0.15237 0.52772 0.0
C1487 C 0.52958 0.14791 0.528 0.0
H1488 H 0.75687 0.59093 0.64171 0.0
H1489 H 0.67258 0.47335 0.64773 0.0
H1490 H 0.80587 0.57269 0.6402 0.0
H1491 H 0.72174 0.45508 0.64611 0.0
H1492 H 0.83049 0.44682 0.65108 0.0
H1493 H 0.78128 0.46443 0.65307 0.0
H1494 H 0.82109 0.53507 0.62996 0.0
H1495 H 0.87017 0.51717 0.62789 0.0
C1496 C 0.74879 0.5612 0.64275 0.0
C1497 C 0.71076 0.53359 0.64483 0.0
C1498 C 0.77686 0.55072 0.64181 0.0
C1499 C 0.76764 0.51241 0.64297 0.0
C1500 C 0.7298 0.4849 0.64524 0.0
C1501 C 0.70163 0.49536 0.64615 0.0
C1502 C 0.82857 0.46571 0.64634 0.0
C1503 C 0.85442 0.48052 0.6393 0.0
C1504 C 0.80033 0.47587 0.64751 0.0
C1505 C 0.79734 0.50121 0.64169 0.0
C1506 C 0.82305 0.51594 0.63464 0.0
C1507 C 0.8512 0.50569 0.63345 0.0
H1508 H 0.53518 0.19457 0.6432 0.0
H1509 H 0.41672 0.1671 0.64289 0.0
H1510 H 0.55586 0.26232 0.64146 0.0
H1511 H 0.43731 0.23497 0.64149 0.0
H1512 H 0.48363 0.35253 0.62946 0.0
H1513 H 0.46443 0.28548 0.63123 0.0
H1514 H 0.56076 0.31704 0.64846 0.0
H1515 H 0.58147 0.38435 0.64625 0.0
C1516 C 0.51355 0.20307 0.64288 0.0
C1517 C 0.47429 0.17545 0.64316 0.0
C1518 C 0.52541 0.24199 0.64192 0.0
C1519 C 0.49829 0.25427 0.6413 0.0
C1520 C 0.45903 0.22659 0.64176 0.0
C1521 C 0.44718 0.18765 0.64263 0.0
C1522 C 0.50116 0.34545 0.63354 0.0
C1523 C 0.53422 0.3743 0.63771 0.0
C1524 C 0.48974 0.30673 0.63466 0.0
C1525 C 0.51082 0.29564 0.64005 0.0
C1526 C 0.54396 0.32442 0.64419 0.0
C1527 C 0.55559 0.36319 0.64301 0.0
H1528 H 0.60928 0.20174 0.63776 0.0
H1529 H 0.65526 0.1253 0.63623 0.0
H1530 H 0.67449 0.25688 0.63825 0.0
H1531 H 0.72062 0.18052 0.63678 0.0
H1532 H 0.82752 0.29054 0.64818 0.0
H1533 H 0.76232 0.23495 0.64812 0.0
H1534 H 0.73124 0.28606 0.62722 0.0
H1535 H 0.79625 0.34119 0.62716 0.0
C1536 C 0.63338 0.1968 0.63757 0.0
C1537 C 0.62732 0.15934 0.63693 0.0
C1538 C 0.6706 0.22827 0.63781 0.0
C1539 C 0.70248 0.22285 0.63757 0.0
C1540 C 0.69647 0.18539 0.63703 0.0
C1541 C 0.6592 0.15391 0.63664 0.0
C1542 C 0.80669 0.28989 0.64359 0.0
C1543 C 0.81693 0.32014 0.63767 0.0
C1544 C 0.76955 0.25805 0.64353 0.0
C1545 C 0.74187 0.25634 0.63767 0.0
C1546 C 0.752 0.28682 0.63184 0.0
C1547 C 0.78924 0.31824 0.63178 0.0
H1548 H 0.59462 0.20029 0.13857 0.0
H1549 H 0.47244 0.12285 0.13684 0.0
H1550 H 0.5838 0.25504 0.1388 0.0
H1551 H 0.46155 0.17756 0.13713 0.0
H1552 H 0.46191 0.28679 0.14782 0.0
H1553 H 0.47273 0.232 0.14815 0.0
H1554 H 0.55629 0.28335 0.12752 0.0
H1555 H 0.54524 0.33773 0.12709 0.0
C1556 C 0.56548 0.19504 0.1383 0.0
C1557 C 0.53436 0.15742 0.13766 0.0
C1558 C 0.55931 0.22628 0.13838 0.0
C1559 C 0.52185 0.22043 0.13798 0.0
C1560 C 0.49068 0.18279 0.13749 0.0
C1561 C 0.49691 0.15159 0.13725 0.0
C1562 C 0.48261 0.28635 0.14337 0.0
C1563 C 0.50266 0.31646 0.13741 0.0
C1564 C 0.48865 0.25498 0.14353 0.0
C1565 C 0.51538 0.25358 0.13787 0.0
C1566 C 0.53573 0.28389 0.132 0.0
C1567 C 0.52921 0.31486 0.13172 0.0
H1568 H 0.80661 0.38137 0.1469 0.0
H1569 H 0.87448 0.34888 0.13094 0.0
H1570 H 0.75977 0.31417 0.14911 0.0
H1571 H 0.82643 0.282 0.13268 0.0
H1572 H 0.75373 0.16374 0.14411 0.0
H1573 H 0.80148 0.23157 0.14292 0.0
H1574 H 0.71078 0.25955 0.14195 0.0
H1575 H 0.66322 0.19187 0.1435 0.0
C1576 C 0.81172 0.36012 0.14384 0.0
C1577 C 0.84476 0.37104 0.13876 0.0
C1578 C 0.78444 0.3214 0.14502 0.0
C1579 C 0.78922 0.29248 0.14109 0.0
C1580 C 0.82202 0.30336 0.13595 0.0
C1581 C 0.84946 0.34202 0.13484 0.0
C1582 C 0.74404 0.18444 0.14369 0.0
C1583 C 0.70474 0.17245 0.1439 0.0
C1584 C 0.7714 0.22335 0.14295 0.0
C1585 C 0.76008 0.25118 0.14227 0.0
C1586 C 0.72067 0.2391 0.14258 0.0
C1587 C 0.69334 0.20021 0.14343 0.0
H1588 H 0.64551 0.50715 0.12673 0.0
H1589 H 0.61721 0.44425 0.15101 0.0
H1590 H 0.71243 0.52475 0.12859 0.0
H1591 H 0.68416 0.4616 0.15281 0.0
H1592 H 0.80195 0.46963 0.14767 0.0
H1593 H 0.73412 0.45041 0.14621 0.0
H1594 H 0.7661 0.56561 0.13829 0.0
H1595 H 0.83356 0.58472 0.13964 0.0
C1596 C 0.65351 0.49725 0.13249 0.0
C1597 C 0.62581 0.4744 0.13872 0.0
C1598 C 0.69192 0.50732 0.13355 0.0
C1599 C 0.70365 0.49473 0.14087 0.0
C1600 C 0.67596 0.47142 0.14705 0.0
C1601 C 0.6375 0.46144 0.146 0.0
C1602 C 0.79447 0.49089 0.14567 0.0
C1603 C 0.82321 0.52868 0.14375 0.0
C1604 C 0.75562 0.4799 0.14486 0.0
C1605 C 0.74475 0.50643 0.14207 0.0
C1606 C 0.77352 0.54433 0.14031 0.0
C1607 C 0.81224 0.55533 0.14114 0.0
H1608 H 0.66585 0.19403 0.02305 0.0
H1609 H 0.58482 0.08452 0.03437 0.0
H1610 H 0.61935 0.21574 0.02483 0.0
H1611 H 0.53849 0.10624 0.03609 0.0
H1612 H 0.48558 0.17549 0.04715 0.0
H1613 H 0.53244 0.15463 0.04513 0.0
H1614 H 0.5552 0.20106 0.01903 0.0
H1615 H 0.50794 0.22129 0.02093 0.0
C1616 C 0.63806 0.1745 0.02586 0.0
C1617 C 0.62905 0.13754 0.02857 0.0
C1618 C 0.61143 0.18692 0.02685 0.0
C1619 C 0.57538 0.16275 0.03064 0.0
C1620 C 0.56624 0.12568 0.03326 0.0
C1621 C 0.59271 0.11315 0.03221 0.0
C1622 C 0.50028 0.18105 0.04095 0.0
C1623 C 0.49272 0.20007 0.03421 0.0
C1624 C 0.52719 0.1691 0.03981 0.0
C1625 C 0.54739 0.17613 0.03191 0.0
C1626 C 0.54037 0.19563 0.02522 0.0
C1627 C 0.51327 0.20734 0.02634 0.0
H1628 H 0.80693 0.47197 0.02319 0.0
H1629 H 0.91586 0.50056 0.03488 0.0
H1630 H 0.78579 0.40373 0.02468 0.0
H1631 H 0.89485 0.43264 0.03628 0.0
H1632 H 0.78184 0.28738 0.0204 0.0
H1633 H 0.80037 0.35471 0.01884 0.0
H1634 H 0.84777 0.37723 0.04486 0.0
H1635 H 0.82888 0.3099 0.04649 0.0
C1636 C 0.82644 0.46375 0.02603 0.0
C1637 C 0.86309 0.49175 0.02892 0.0
C1638 C 0.81436 0.42466 0.02685 0.0
C1639 C 0.83857 0.41278 0.03064 0.0
C1640 C 0.87529 0.44083 0.03346 0.0
C1641 C 0.88743 0.47981 0.0326 0.0
C1642 C 0.79573 0.30645 0.02584 0.0
C1643 C 0.80399 0.29302 0.03357 0.0
C1644 C 0.8064 0.34514 0.02493 0.0
C1645 C 0.82575 0.37136 0.0317 0.0
C1646 C 0.8335 0.35788 0.03946 0.0
C1647 C 0.82269 0.31922 0.04039 0.0
H1648 H 0.68593 0.55042 0.038 0.0
H1649 H 0.71866 0.47741 0.02418 0.0
H1650 H 0.61904 0.50197 0.0365 0.0
H1651 H 0.6515 0.43007 0.02217 0.0
H1652 H 0.52991 0.33534 0.02874 0.0
H1653 H 0.59738 0.38381 0.02992 0.0
H1654 H 0.56829 0.47288 0.02635 0.0
H1655 H 0.50053 0.42427 0.02554 0.0
C1656 C 0.67912 0.5242 0.03463 0.0
C1657 C 0.70821 0.51812 0.03125 0.0
C1658 C 0.64046 0.4965 0.03364 0.0
C1659 C 0.62968 0.46206 0.02918 0.0
C1660 C 0.65866 0.45602 0.02575 0.0
C1661 C 0.69737 0.48356 0.02681 0.0
C1662 C 0.53793 0.36528 0.02817 0.0
C1663 C 0.50987 0.37601 0.02707 0.0
C1664 C 0.57671 0.39312 0.0288 0.0
C1665 C 0.58844 0.43237 0.02825 0.0
C1666 C 0.56032 0.44299 0.02698 0.0
C1667 C 0.52147 0.41513 0.02645 0.0
H1668 H 0.47815 0.67242 0.85437 0.0
H1669 H 0.52459 0.70213 0.8804 0.0
H1670 H 0.46465 0.72519 0.85457 0.0
H1671 H 0.51387 0.75643 0.88045 0.0
H1672 H 0.45385 0.82536 0.88234 0.0
H1673 H 0.46715 0.77263 0.8818 0.0
H1674 H 0.48756 0.7903 0.85401 0.0
H1675 H 0.4716 0.84135 0.8546 0.0
C1676 C 0.48611 0.69079 0.86007 0.0
C1677 C 0.50211 0.68315 0.86739 0.0
C1678 C 0.4786 0.72122 0.86019 0.0
C1679 C 0.48782 0.74523 0.86756 0.0
C1680 C 0.50519 0.73811 0.87475 0.0
C1681 C 0.51174 0.70716 0.87471 0.0
C1682 C 0.46122 0.81779 0.87614 0.0
C1683 C 0.4617 0.83721 0.86852 0.0
C1684 C 0.46916 0.78775 0.87581 0.0
C1685 C 0.47881 0.77705 0.86786 0.0
C1686 C 0.47959 0.79698 0.86023 0.0
C1687 C 0.47069 0.82641 0.86055 0.0
H1688 H 0.24199 0.83057 0.85944 0.0
H1689 H 0.33207 0.80257 0.86225 0.0
H1690 H 0.19391 0.76326 0.8615 0.0
H1691 H 0.28421 0.73562 0.86466 0.0
H1692 H 0.18941 0.61305 0.86062 0.0
H1693 H 0.23638 0.67961 0.85785 0.0
H1694 H 0.16735 0.71513 0.87237 0.0
H1695 H 0.11899 0.6484 0.87464 0.0
C1696 C 0.25151 0.81003 0.86051 0.0
C1697 C 0.2908 0.82187 0.86066 0.0
C1698 C 0.22395 0.77145 0.86177 0.0
C1699 C 0.23507 0.74388 0.8633 0.0
C1700 C 0.27447 0.75583 0.86336 0.0
C1701 C 0.30199 0.79431 0.86201 0.0
C1702 C 0.18379 0.63487 0.86313 0.0
C1703 C 0.14996 0.62497 0.8678 0.0
C1704 C 0.21116 0.67326 0.86164 0.0
C1705 C 0.20577 0.70293 0.86487 0.0
C1706 C 0.17224 0.69311 0.86965 0.0
C1707 C 0.14464 0.65467 0.87107 0.0
H1708 H 0.34575 0.46603 0.86637 0.0
H1709 H 0.39226 0.58782 0.86987 0.0
H1710 H 0.28078 0.45674 0.86603 0.0
H1711 H 0.32748 0.57863 0.86945 0.0
H1712 H 0.20488 0.53805 0.87938 0.0
H1713 H 0.26934 0.54687 0.87916 0.0
H1714 H 0.24013 0.47451 0.85637 0.0
H1715 H 0.17523 0.46561 0.85656 0.0
C1716 C 0.34206 0.49075 0.8671 0.0
C1717 C 0.37405 0.52765 0.86818 0.0
C1718 C 0.30496 0.4855 0.86681 0.0
C1719 C 0.29911 0.51696 0.86771 0.0
C1720 C 0.33111 0.55382 0.8688 0.0
C1721 C 0.36817 0.55911 0.86898 0.0
C1722 C 0.21212 0.52398 0.87431 0.0
C1723 C 0.18494 0.50109 0.86799 0.0
C1724 C 0.24914 0.52924 0.87417 0.0
C1725 C 0.25976 0.51142 0.86775 0.0
C1726 C 0.2326 0.48837 0.86143 0.0
C1727 C 0.19558 0.48348 0.86151 0.0
H1728 H 0.42576 0.92072 0.97879 0.0
H1729 H 0.33722 0.80503 0.97263 0.0
H1730 H 0.47444 0.90127 0.97756 0.0
H1731 H 0.3862 0.78606 0.97114 0.0
H1732 H 0.50088 0.79948 0.95742 0.0
H1733 H 0.45078 0.81673 0.95944 0.0
H1734 H 0.4834 0.84322 0.98646 0.0
H1735 H 0.53278 0.82488 0.98449 0.0
C1736 C 0.41676 0.89118 0.97718 0.0
C1737 C 0.37779 0.86435 0.97581 0.0
C1738 C 0.44452 0.88011 0.97651 0.0
C1739 C 0.43386 0.84229 0.97424 0.0
C1740 C 0.39495 0.81541 0.97288 0.0
C1741 C 0.36705 0.82623 0.97377 0.0
C1742 C 0.49727 0.80904 0.96377 0.0
C1743 C 0.52054 0.81098 0.9708 0.0
C1744 C 0.4686 0.81863 0.96493 0.0
C1745 C 0.46344 0.83118 0.9731 0.0
C1746 C 0.48698 0.83358 0.98011 0.0
C1747 C 0.515 0.82306 0.979 0.0
H1748 H 0.14745 0.68603 0.96288 0.0
H1749 H 0.24656 0.71798 0.97927 0.0
H1750 H 0.12846 0.61912 0.96461 0.0
H1751 H 0.22596 0.65085 0.98146 0.0
H1752 H 0.20001 0.52844 0.97633 0.0
H1753 H 0.22058 0.59613 0.97452 0.0
H1754 H 0.102 0.5687 0.97482 0.0
H1755 H 0.08153 0.50088 0.97625 0.0
C1756 C 0.16529 0.67909 0.96687 0.0
C1757 C 0.19866 0.708 0.97094 0.0
C1758 C 0.15398 0.64039 0.96797 0.0
C1759 C 0.17544 0.62937 0.97324 0.0
C1760 C 0.20887 0.65817 0.97728 0.0
C1761 C 0.22045 0.69691 0.9761 0.0
C1762 C 0.17837 0.53693 0.97606 0.0
C1763 C 0.13914 0.50934 0.97641 0.0
C1764 C 0.19016 0.5758 0.97505 0.0
C1765 C 0.16299 0.58804 0.97449 0.0
C1766 C 0.12375 0.56036 0.97504 0.0
C1767 C 0.11197 0.52146 0.97593 0.0
H1768 H 0.46 0.67633 0.9619 0.0
H1769 H 0.49574 0.62413 0.98166 0.0
H1770 H 0.39511 0.62135 0.9624 0.0
H1771 H 0.43042 0.56863 0.98209 0.0
H1772 H 0.32127 0.45967 0.9705 0.0
H1773 H 0.38656 0.51491 0.97113 0.0
H1774 H 0.34018 0.59084 0.97344 0.0
H1775 H 0.27509 0.53573 0.97281 0.0
C1776 C 0.45397 0.65309 0.96636 0.0
C1777 C 0.48297 0.6545 0.97173 0.0
C1778 C 0.41675 0.62173 0.96667 0.0
C1779 C 0.40777 0.59076 0.97228 0.0
C1780 C 0.43669 0.59208 0.97767 0.0
C1781 C 0.47392 0.62387 0.97747 0.0
C1782 C 0.32512 0.48819 0.97112 0.0
C1783 C 0.29315 0.49345 0.97158 0.0
C1784 C 0.36239 0.5197 0.97157 0.0
C1785 C 0.36837 0.5571 0.97234 0.0
C1786 C 0.33639 0.56233 0.97281 0.0
C1787 C 0.29918 0.53082 0.9725 0.0
H1788 H 0.07853 0.57911 0.48072 0.0
H1789 H 0.19621 0.66858 0.47693 0.0
H1790 H 0.09799 0.53083 0.47957 0.0
H1791 H 0.21549 0.62042 0.47543 0.0
H1792 H 0.24417 0.52681 0.48051 0.0
H1793 H 0.22449 0.57408 0.48287 0.0
H1794 H 0.11864 0.50219 0.46904 0.0
H1795 H 0.13705 0.45382 0.46717 0.0
C1796 C 0.10855 0.58845 0.47963 0.0
C1797 C 0.13579 0.62764 0.47892 0.0
C1798 C 0.1197 0.56077 0.4789 0.0
C1799 C 0.15831 0.57161 0.47734 0.0
C1800 C 0.18561 0.61093 0.47675 0.0
C1801 C 0.17452 0.63861 0.47758 0.0
C1802 C 0.21645 0.52067 0.47806 0.0
C1803 C 0.19227 0.48612 0.47366 0.0
C1804 C 0.20535 0.54816 0.47933 0.0
C1805 C 0.16993 0.54207 0.47615 0.0
C1806 C 0.14585 0.50768 0.47171 0.0
C1807 C 0.15677 0.48004 0.47051 0.0
H1808 H 0.52861 0.68806 0.45834 0.0
H1809 H 0.49256 0.71667 0.48236 0.0
H1810 H 0.47927 0.62106 0.46019 0.0
H1811 H 0.44324 0.64971 0.48421 0.0
H1812 H 0.4187 0.50025 0.47146 0.0
H1813 H 0.46633 0.56775 0.46975 0.0
H1814 H 0.38294 0.59912 0.47797 0.0
H1815 H 0.33522 0.53135 0.47983 0.0
C1816 C 0.51028 0.68005 0.46403 0.0
C1817 C 0.51469 0.7078 0.4702 0.0
C1818 C 0.48201 0.64164 0.4651 0.0
C1819 C 0.45745 0.62998 0.47238 0.0
C1820 C 0.46139 0.6578 0.47848 0.0
C1821 C 0.48968 0.69626 0.47741 0.0
C1822 C 0.41047 0.52148 0.47294 0.0
C1823 C 0.37312 0.51037 0.47578 0.0
C1824 C 0.43775 0.56021 0.4719 0.0
C1825 C 0.42838 0.58884 0.47366 0.0
C1826 C 0.39117 0.57779 0.47662 0.0
C1827 C 0.3638 0.53895 0.47766 0.0
H1828 H 0.31673 0.8586 0.46836 0.0
H1829 H 0.27503 0.73732 0.47101 0.0
H1830 H 0.38306 0.87136 0.4689 0.0
H1831 H 0.34131 0.74997 0.47142 0.0
H1832 H 0.46323 0.79187 0.45924 0.0
H1833 H 0.39725 0.77936 0.45961 0.0
H1834 H 0.42687 0.86074 0.48063 0.0
H1835 H 0.49309 0.87281 0.4804 0.0
C1836 C 0.32183 0.83473 0.46902 0.0
C1837 C 0.29088 0.79697 0.46961 0.0
C1838 C 0.35965 0.84203 0.4694 0.0
C1839 C 0.36714 0.81162 0.47021 0.0
C1840 C 0.33621 0.77387 0.47078 0.0
C1841 C 0.29842 0.76665 0.47058 0.0
C1842 C 0.45572 0.80712 0.46394 0.0
C1843 C 0.48328 0.83339 0.46978 0.0
C1844 C 0.41794 0.79977 0.46418 0.0
C1845 C 0.4071 0.81908 0.47015 0.0
C1846 C 0.43465 0.8456 0.47595 0.0
C1847 C 0.47237 0.85237 0.47584 0.0
H1848 H 0.24454 0.41201 0.36161 0.0
H1849 H 0.33468 0.53074 0.36183 0.0
H1850 H 0.19667 0.43178 0.36308 0.0
H1851 H 0.28699 0.55063 0.36369 0.0
H1852 H 0.19025 0.57598 0.35952 0.0
H1853 H 0.23721 0.55608 0.357 0.0
H1854 H 0.1722 0.45695 0.37344 0.0
H1855 H 0.12389 0.47528 0.37548 0.0
C1856 C 0.25412 0.44237 0.362 0.0
C1857 C 0.29336 0.4698 0.36161 0.0
C1858 C 0.22668 0.45374 0.36291 0.0
C1859 C 0.23784 0.49285 0.36359 0.0
C1860 C 0.27718 0.5203 0.36307 0.0
C1861 C 0.3046 0.50891 0.36204 0.0
C1862 C 0.18547 0.54963 0.36251 0.0
C1863 C 0.15274 0.52723 0.36767 0.0
C1864 C 0.21287 0.53846 0.36115 0.0
C1865 C 0.20861 0.5048 0.36499 0.0
C1866 C 0.1762 0.48267 0.37023 0.0
C1867 C 0.1486 0.49359 0.37151 0.0
H1868 H 0.5844 0.82881 0.35437 0.0
H1869 H 0.47485 0.80781 0.36419 0.0
H1870 H 0.56313 0.76032 0.35594 0.0
H1871 H 0.45429 0.73977 0.36599 0.0
H1872 H 0.47036 0.63907 0.37886 0.0
H1873 H 0.48989 0.70681 0.37649 0.0
H1874 H 0.49762 0.6923 0.34882 0.0
H1875 H 0.47703 0.62428 0.35117 0.0
C1876 C 0.55584 0.80957 0.35683 0.0
C1877 C 0.53125 0.82353 0.35914 0.0
C1878 C 0.54371 0.77055 0.35771 0.0
C1879 C 0.50722 0.74516 0.3611 0.0
C1880 C 0.48259 0.759 0.36337 0.0
C1881 C 0.49431 0.79779 0.36231 0.0
C1882 C 0.47622 0.65049 0.37229 0.0
C1883 C 0.47214 0.62671 0.36519 0.0
C1884 C 0.48718 0.68896 0.37093 0.0
C1885 C 0.49516 0.70442 0.36248 0.0
C1886 C 0.49159 0.68083 0.35539 0.0
C1887 C 0.47969 0.6421 0.35672 0.0
H1888 H 0.39514 0.79676 0.36692 0.0
H1889 H 0.35382 0.8764 0.37023 0.0
H1890 H 0.32888 0.74333 0.36653 0.0
H1891 H 0.28744 0.82297 0.36975 0.0
H1892 H 0.17652 0.71608 0.35831 0.0
H1893 H 0.24268 0.77023 0.35816 0.0
H1894 H 0.27367 0.715 0.37813 0.0
H1895 H 0.20781 0.66145 0.37841 0.0
C1896 C 0.37184 0.80277 0.36752 0.0
C1897 C 0.37951 0.8406 0.36865 0.0
C1898 C 0.33403 0.77229 0.36733 0.0
C1899 C 0.30315 0.77914 0.36809 0.0
C1900 C 0.31077 0.81701 0.36909 0.0
C1901 C 0.34864 0.84745 0.36945 0.0
C1902 C 0.19752 0.71559 0.36266 0.0
C1903 C 0.18703 0.68466 0.36839 0.0
C1904 C 0.23522 0.74656 0.36259 0.0
C1905 C 0.26316 0.74665 0.36812 0.0
C1906 C 0.25272 0.7155 0.37376 0.0
C1907 C 0.21499 0.685 0.37395 0.0
H1908 H 0.30122 0.27935 0.15935 0.0
H1909 H 0.34765 0.40195 0.15899 0.0
H1910 H 0.24061 0.27031 0.16486 0.0
H1911 H 0.28622 0.39294 0.16439 0.0
H1912 H 0.19016 0.35468 0.18626 0.0
H1913 H 0.24922 0.37154 0.17829 0.0
H1914 H 0.18525 0.27608 0.16082 0.0
H1915 H 0.12662 0.25889 0.16885 0.0
C1916 C 0.29831 0.30438 0.16039 0.0
C1917 C 0.32928 0.34135 0.15879 0.0
C1918 C 0.2634 0.29922 0.16346 0.0
C1919 C 0.25849 0.33091 0.16505 0.0
C1920 C 0.28918 0.36796 0.16327 0.0
C1921 C 0.32419 0.37311 0.16011 0.0
C1922 C 0.18863 0.33781 0.18061 0.0
C1923 C 0.15383 0.30519 0.17825 0.0
C1924 C 0.22245 0.34753 0.17602 0.0
C1925 C 0.22203 0.3248 0.169 0.0
C1926 C 0.18669 0.29372 0.16631 0.0
C1927 C 0.15304 0.28399 0.17089 0.0
H1928 H 0.63424 0.82117 0.18517 0.0
H1929 H 0.72755 0.85265 0.16704 0.0
H1930 H 0.61606 0.86275 0.17737 0.0
H1931 H 0.70933 0.894 0.15928 0.0
H1932 H 0.70902 0.0099 0.16083 0.0
H1933 H 0.71694 0.95602 0.16519 0.0
H1934 H 0.59463 0.87967 0.16289 0.0
H1935 H 0.58686 0.93419 0.15844 0.0
C1936 C 0.65012 0.83598 0.17937 0.0
C1937 C 0.68267 0.83406 0.1768 0.0
C1938 C 0.63966 0.85976 0.1749 0.0
C1939 C 0.66169 0.88207 0.16781 0.0
C1940 C 0.69221 0.87757 0.16481 0.0
C1941 C 0.70252 0.85375 0.16924 0.0
C1942 C 0.68391 0.98154 0.16117 0.0
C1943 C 0.64737 0.97615 0.15933 0.0
C1944 C 0.68842 0.95063 0.16359 0.0
C1945 C 0.6564 0.91358 0.16434 0.0
C1946 C 0.61978 0.90793 0.16235 0.0
C1947 C 0.61536 0.93895 0.15977 0.0
H1948 H 0.13819 0.8714 0.16726 0.0
H1949 H 0.16878 0.81112 0.18604 0.0
H1950 H 0.09833 0.81152 0.15951 0.0
H1951 H 0.12852 0.7509 0.17824 0.0
H1952 H 0.06089 0.64987 0.15898 0.0
H1953 H 0.11414 0.71243 0.16378 0.0
H1954 H 0.03611 0.75673 0.16503 0.0
H1955 H 0.9836 0.69475 0.16032 0.0
C1956 C 0.13707 0.8455 0.16964 0.0
C1957 C 0.15618 0.84588 0.17734 0.0
C1958 C 0.11415 0.81119 0.16519 0.0
C1959 C 0.10986 0.77648 0.16834 0.0
C1960 C 0.1314 0.77726 0.17565 0.0
C1961 C 0.15437 0.81172 0.18013 0.0
C1962 C 0.05555 0.67333 0.16015 0.0
C1963 C 0.01828 0.66767 0.15932 0.0
C1964 C 0.08581 0.70891 0.16294 0.0
C1965 C 0.07929 0.73947 0.16474 0.0
C1966 C 0.0422 0.73394 0.16359 0.0
C1967 C 0.01206 0.69843 0.16096 0.0
H1968 H 0.28878 0.30107 0.345 0.0
H1969 H 0.41168 0.35028 0.34585 0.0
H1970 H 0.28147 0.24005 0.34021 0.0
H1971 H 0.40454 0.28871 0.34097 0.0
H1972 H 0.36197 0.19082 0.31854 0.0
H1973 H 0.38069 0.25029 0.32654 0.0
H1974 H 0.29177 0.18674 0.3455 0.0
H1975 H 0.27296 0.12758 0.33753 0.0
C1976 C 0.3142 0.29856 0.34424 0.0
C1977 C 0.35073 0.33025 0.34576 0.0
C1978 C 0.31007 0.26359 0.34157 0.0
C1979 C 0.34245 0.25956 0.34025 0.0
C1980 C 0.37912 0.29107 0.34194 0.0
C1981 C 0.3832 0.32609 0.34477 0.0
C1982 C 0.34719 0.18942 0.32455 0.0
C1983 C 0.31561 0.15465 0.32733 0.0
C1984 C 0.35796 0.22346 0.32914 0.0
C1985 C 0.33725 0.22317 0.33656 0.0
C1986 C 0.30783 0.18788 0.33972 0.0
C1987 C 0.29714 0.15399 0.33516 0.0
H1988 H 0.64894 0.01461 0.32837 0.0
H1989 H 0.68531 0.03992 0.35521 0.0
H1990 H 0.71036 0.06742 0.32359 0.0
H1991 H 0.74721 0.09369 0.35043 0.0
H1992 H 0.81486 0.1766 0.31669 0.0
H1993 H 0.75213 0.13747 0.32351 0.0
H1994 H 0.80309 0.09735 0.34258 0.0
H1995 H 0.86577 0.13677 0.33585 0.0
C1996 C 0.67006 0.03175 0.33326 0.0
C1997 C 0.66257 0.02284 0.34216 0.0
C1998 C 0.70511 0.06237 0.33053 0.0
C1999 C 0.73372 0.08479 0.33662 0.0
C2000 C 0.72579 0.07677 0.34557 0.0
C2001 C 0.69038 0.04622 0.34831 0.0
C2002 C 0.81281 0.16009 0.32245 0.0
C2003 C 0.84517 0.15942 0.32567 0.0
C2004 C 0.77685 0.13753 0.32633 0.0
C2005 C 0.77255 0.11395 0.33352 0.0
C2006 C 0.80542 0.11536 0.33709 0.0
C2007 C 0.84134 0.1378 0.33319 0.0
H2008 H 0.85766 0.7228 0.33828 0.0
H2009 H 0.83649 0.64594 0.31665 0.0
H2010 H 0.89856 0.70131 0.34508 0.0
H2011 H 0.8776 0.62458 0.32345 0.0
H2012 H 0.957 0.6387 0.357 0.0
H2013 H 0.90271 0.64463 0.35152 0.0
H2014 H 0.94975 0.66282 0.3255 0.0
H2015 H 0.00355 0.65704 0.33097 0.0
C2016 C 0.861 0.70064 0.33508 0.0
C2017 C 0.84409 0.68626 0.3269 0.0
C2018 C 0.88432 0.68823 0.339 0.0
C2019 C 0.89158 0.66156 0.33476 0.0
C2020 C 0.87278 0.64546 0.32683 0.0
C2021 C 0.84905 0.65751 0.32296 0.0
C2022 C 0.95529 0.64348 0.3501 0.0
C2023 C 0.9846 0.64781 0.34442 0.0
C2024 C 0.92442 0.647 0.34697 0.0
C2025 C 0.92195 0.65407 0.33807 0.0
C2026 C 0.95059 0.65694 0.33236 0.0
C2027 C 0.98163 0.65408 0.33551 0.0
H2028 H 0.81021 0.64077 0.81921 0.0
H2029 H 0.87014 0.73265 0.83778 0.0
H2030 H 0.74958 0.62231 0.82666 0.0
H2031 H 0.80982 0.71409 0.8452 0.0
H2032 H 0.6936 0.71233 0.84452 0.0
H2033 H 0.75541 0.72151 0.83977 0.0
H2034 H 0.71028 0.59905 0.8407 0.0
H2035 H 0.6479 0.58991 0.84546 0.0
C2036 C 0.81062 0.65633 0.82501 0.0
C2037 C 0.84487 0.68847 0.82784 0.0
C2038 C 0.7759 0.64573 0.82928 0.0
C2039 C 0.77491 0.66718 0.83642 0.0
C2040 C 0.80962 0.69747 0.83962 0.0
C2041 C 0.8442 0.70796 0.83538 0.0
C2042 C 0.69692 0.68739 0.84375 0.0
C2043 C 0.66594 0.65043 0.84531 0.0
C2044 C 0.73241 0.69264 0.84112 0.0
C2045 C 0.73776 0.66099 0.8399 0.0
C2046 C 0.70694 0.62394 0.84158 0.0
C2047 C 0.67141 0.61873 0.84435 0.0
H2048 H 0.25873 0.12773 0.8348 0.0
H2049 H 0.35557 0.16607 0.81739 0.0
H2050 H 0.27816 0.08713 0.84242 0.0
H2051 H 0.37504 0.12509 0.8251 0.0
H2052 H 0.40716 0.05821 0.84522 0.0
H2053 H 0.39607 0.10997 0.8401 0.0
H2054 H 0.27591 0.0273 0.83652 0.0
H2055 H 0.28716 0.97626 0.84152 0.0
C2056 C 0.28458 0.12803 0.83268 0.0
C2057 C 0.30535 0.14976 0.82541 0.0
C2058 C 0.29564 0.10469 0.83706 0.0
C2059 C 0.32783 0.10262 0.83429 0.0
C2060 C 0.35018 0.12628 0.82739 0.0
C2061 C 0.33896 0.14961 0.82296 0.0
C2062 C 0.37839 0.0515 0.84346 0.0
C2063 C 0.34796 0.01339 0.84374 0.0
C2064 C 0.3721 0.08091 0.84048 0.0
C2065 C 0.33511 0.07265 0.83794 0.0
C2066 C 0.30463 0.03466 0.83852 0.0
C2067 C 0.31105 0.0054 0.84133 0.0
H2068 H 0.83241 0.19228 0.81701 0.0
H2069 H 0.86609 0.13543 0.83603 0.0
H2070 H 0.87297 0.25362 0.8243 0.0
H2071 H 0.90636 0.1968 0.84335 0.0
H2072 H 0.96012 0.31533 0.85693 0.0
H2073 H 0.90691 0.25439 0.8514 0.0
H2074 H 0.94668 0.29034 0.82506 0.0
H2075 H 0.99959 0.35046 0.83059 0.0
C2076 C 0.84769 0.1927 0.82287 0.0
C2077 C 0.84632 0.1591 0.82591 0.0
C2078 C 0.87102 0.22784 0.82701 0.0
C2079 C 0.89299 0.22996 0.83434 0.0
C2080 C 0.88956 0.19596 0.83774 0.0
C2081 C 0.86663 0.16088 0.83353 0.0
C2082 C 0.957 0.31017 0.84997 0.0
C2083 C 0.98399 0.33728 0.84418 0.0
C2084 C 0.92678 0.27541 0.84681 0.0
C2085 C 0.92264 0.26775 0.8378 0.0
C2086 C 0.94889 0.2956 0.83202 0.0
C2087 C 0.97937 0.32983 0.83518 0.0
H2088 H 0.59322 0.6537 0.65877 0.0
H2089 H 0.71357 0.69225 0.66199 0.0
H2090 H 0.60455 0.71686 0.66371 0.0
H2091 H 0.72509 0.75486 0.66681 0.0
H2092 H 0.74259 0.87205 0.66898 0.0
H2093 H 0.72254 0.81237 0.66114 0.0
H2094 H 0.62618 0.75305 0.67859 0.0
H2095 H 0.64623 0.8131 0.68649 0.0
C2096 C 0.62212 0.67597 0.66037 0.0
C2097 C 0.65258 0.66835 0.66003 0.0
C2098 C 0.62856 0.71185 0.66325 0.0
C2099 C 0.66572 0.74079 0.66562 0.0
C2100 C 0.69624 0.73336 0.66493 0.0
C2101 C 0.68968 0.69752 0.66223 0.0
C2102 C 0.7167 0.84649 0.67106 0.0
C2103 C 0.69628 0.84718 0.67844 0.0
C2104 C 0.70527 0.8123 0.66657 0.0
C2105 C 0.67309 0.77799 0.66931 0.0
C2106 C 0.65101 0.77912 0.6763 0.0
C2107 C 0.66257 0.81345 0.68084 0.0
H2108 H 0.19286 0.8283 0.68898 0.0
H2109 H 0.13972 0.85951 0.66852 0.0
H2110 H 0.2554 0.86728 0.68208 0.0
H2111 H 0.20227 0.89844 0.66163 0.0
H2112 H 0.32153 0.95419 0.64926 0.0
H2113 H 0.26049 0.90031 0.65448 0.0
H2114 H 0.29344 0.93933 0.68099 0.0
H2115 H 0.35385 0.9927 0.67577 0.0
C2116 C 0.19436 0.84269 0.6829 0.0
C2117 C 0.16142 0.84117 0.67935 0.0
C2118 C 0.23021 0.86516 0.67897 0.0
C2119 C 0.23377 0.88622 0.67137 0.0
C2120 C 0.20042 0.88238 0.66746 0.0
C2121 C 0.16461 0.86021 0.67143 0.0
C2122 C 0.3158 0.95067 0.6562 0.0
C2123 C 0.34211 0.9777 0.66211 0.0
C2124 C 0.28093 0.92007 0.65918 0.0
C2125 C 0.27222 0.91561 0.66814 0.0
C2126 C 0.29945 0.94171 0.67406 0.0
C2127 C 0.33386 0.9725 0.67107 0.0
H2128 H 0.13038 0.25785 0.66964 0.0
H2129 H 0.16679 0.35643 0.68638 0.0
H2130 H 0.08886 0.27512 0.66167 0.0
H2131 H 0.12452 0.37341 0.67847 0.0
H2132 H 0.05641 0.40347 0.65911 0.0
H2133 H 0.10831 0.39356 0.66446 0.0
H2134 H 0.02888 0.27159 0.66592 0.0
H2135 H 0.97777 0.28148 0.66045 0.0
C2136 C 0.12991 0.28353 0.67154 0.0
C2137 C 0.15154 0.30555 0.6787 0.0
C2138 C 0.10595 0.29333 0.667 0.0
C2139 C 0.1029 0.32529 0.66952 0.0
C2140 C 0.12634 0.34871 0.67634 0.0
C2141 C 0.15047 0.33892 0.68089 0.0
C2142 C 0.05036 0.37456 0.66044 0.0
C2143 C 0.01299 0.34325 0.65941 0.0
C2144 C 0.07994 0.3689 0.66357 0.0
C2145 C 0.07275 0.33179 0.66561 0.0
C2146 C 0.0356 0.30051 0.66431 0.0
C2147 C 0.00614 0.30618 0.66127 0.0
H2148 H 0.85047 0.69575 0.51969 0.0
H2149 H 0.80178 0.60213 0.50123 0.0
H2150 H 0.91326 0.72041 0.51286 0.0
H2151 H 0.86466 0.62655 0.49447 0.0
H2152 H 0.98317 0.68852 0.48194 0.0
H2153 H 0.92024 0.67888 0.4864 0.0
H2154 H 0.95637 0.69364 0.51335 0.0
H2155 H 0.01868 0.70357 0.50888 0.0
C2156 C 0.85297 0.68088 0.51406 0.0
C2157 C 0.82125 0.64672 0.51107 0.0
C2158 C 0.889 0.6949 0.51018 0.0
C2159 C 0.89406 0.67513 0.5032 0.0
C2160 C 0.86172 0.64258 0.4998 0.0
C2161 C 0.82569 0.62848 0.5037 0.0
C2162 C 0.97768 0.69034 0.48878 0.0
C2163 C 0.00556 0.69634 0.49507 0.0
C2164 C 0.9417 0.68462 0.49135 0.0
C2165 C 0.9333 0.68548 0.50024 0.0
C2166 C 0.96196 0.69323 0.50645 0.0
C2167 C 0.99754 0.69846 0.5039 0.0
H2168 H 0.26163 0.2756 0.49318 0.0
H2169 H 0.38401 0.35249 0.49427 0.0
H2170 H 0.27074 0.22279 0.49833 0.0
H2171 H 0.39318 0.30055 0.49946 0.0
H2172 H 0.40596 0.199 0.50273 0.0
H2173 H 0.38745 0.23955 0.49476 0.0
H2174 H 0.29259 0.20707 0.51246 0.0
H2175 H 0.31084 0.16581 0.52041 0.0
C2176 C 0.29043 0.28101 0.4944 0.0
C2177 C 0.32214 0.31812 0.49337 0.0
C2178 C 0.29563 0.25096 0.4974 0.0
C2179 C 0.33268 0.25747 0.49928 0.0
C2180 C 0.36431 0.29437 0.49797 0.0
C2181 C 0.35907 0.32427 0.49508 0.0
C2182 C 0.38069 0.19986 0.50483 0.0
C2183 C 0.36016 0.17961 0.51227 0.0
C2184 C 0.37017 0.22322 0.50028 0.0
C2185 C 0.33896 0.22702 0.50307 0.0
C2186 C 0.31671 0.20463 0.51013 0.0
C2187 C 0.32723 0.1811 0.5147 0.0
H2188 H 0.70695 0.01709 0.48068 0.0
H2189 H 0.67 0.98441 0.50727 0.0
H2190 H 0.76077 0.07846 0.48585 0.0
H2191 H 0.72351 0.04496 0.51243 0.0
H2192 H 0.83863 0.14245 0.51987 0.0
H2193 H 0.79724 0.08091 0.51278 0.0
H2194 H 0.76303 0.13727 0.4938 0.0
H2195 H 0.80421 0.19894 0.50092 0.0
C2196 C 0.71072 0.02288 0.48762 0.0
C2197 C 0.68428 0.99629 0.49358 0.0
C2198 C 0.74129 0.0579 0.49057 0.0
C2199 C 0.74637 0.06636 0.49954 0.0
C2200 C 0.72059 0.03908 0.50549 0.0
C2201 C 0.68976 0.00461 0.50254 0.0
C2202 C 0.82305 0.14192 0.51406 0.0
C2203 C 0.82445 0.17552 0.511 0.0
C2204 C 0.79921 0.10664 0.51003 0.0
C2205 C 0.77667 0.10429 0.5028 0.0
C2206 C 0.78022 0.13826 0.49934 0.0
C2207 C 0.80371 0.17354 0.50344 0.0
H2208 H 0.93491 0.46142 0.6706 0.0
H2209 H 0.02927 0.52231 0.65268 0.0
H2210 H 0.9542 0.5208 0.67851 0.0
H2211 H 0.04838 0.58208 0.66059 0.0
H2212 H 0.07993 0.6825 0.67974 0.0
H2213 H 0.07067 0.62018 0.67481 0.0
H2214 H 0.94837 0.57606 0.67342 0.0
H2215 H 0.95773 0.63765 0.67833 0.0
C2216 C 0.96026 0.48735 0.66845 0.0
C2217 C 0.98028 0.48727 0.66095 0.0
C2218 C 0.97122 0.52141 0.67297 0.0
C2219 C 0.0024 0.55623 0.67008 0.0
C2220 C 0.0243 0.55568 0.66299 0.0
C2221 C 0.01331 0.52146 0.65845 0.0
C2222 C 0.05113 0.65914 0.67851 0.0
C2223 C 0.01952 0.66481 0.67937 0.0
C2224 C 0.04584 0.62367 0.67563 0.0
C2225 C 0.00878 0.59317 0.67376 0.0
C2226 C 0.97724 0.59872 0.67492 0.0
C2227 C 0.98257 0.63409 0.67765 0.0
H2228 H 0.53129 0.47195 0.66987 0.0
H2229 H 0.47759 0.49837 0.64867 0.0
H2230 H 0.46864 0.43237 0.67665 0.0
H2231 H 0.41483 0.45869 0.65547 0.0
H2232 H 0.31685 0.33466 0.66269 0.0
H2233 H 0.37729 0.38707 0.65722 0.0
H2234 H 0.41016 0.4305 0.68344 0.0
H2235 H 0.34917 0.37753 0.68893 0.0
C2236 C 0.50619 0.46995 0.66675 0.0
C2237 C 0.50932 0.48799 0.6587 0.0
C2238 C 0.47032 0.44743 0.67066 0.0
C2239 C 0.43679 0.44216 0.66655 0.0
C2240 C 0.44017 0.46194 0.65874 0.0
C2241 C 0.47611 0.48481 0.65487 0.0
C2242 C 0.33688 0.35553 0.66728 0.0
C2243 C 0.32855 0.35185 0.67624 0.0
C2244 C 0.37131 0.3858 0.66414 0.0
C2245 C 0.39848 0.41295 0.6699 0.0
C2246 C 0.38978 0.40991 0.67886 0.0
C2247 C 0.35491 0.37981 0.68199 0.0
H2248 H 0.4994 0.97275 0.65018 0.0
H2249 H 0.53283 0.05988 0.67005 0.0
H2250 H 0.5391 0.95012 0.65713 0.0
H2251 H 0.57259 0.03732 0.67696 0.0
H2252 H 0.62973 0.97589 0.68965 0.0
H2253 H 0.57571 0.98299 0.6845 0.0
H2254 H 0.61058 0.98278 0.65786 0.0
H2255 H 0.66393 0.9756 0.663 0.0
C2256 C 0.5145 0.9865 0.65614 0.0
C2257 C 0.51331 0.01836 0.65951 0.0
C2258 C 0.53739 0.97367 0.66009 0.0
C2259 C 0.55929 0.99221 0.66754 0.0
C2260 C 0.5559 0.02229 0.67127 0.0
C2261 C 0.53326 0.03533 0.66727 0.0
C2262 C 0.6253 0.97676 0.68271 0.0
C2263 C 0.65117 0.97564 0.67672 0.0
C2264 C 0.5946 0.981 0.67976 0.0
C2265 C 0.5889 0.98343 0.67078 0.0
C2266 C 0.61389 0.98058 0.66482 0.0
C2267 C 0.64473 0.97692 0.66776 0.0
H2268 H 0.36091 0.04489 0.17719 0.0
H2269 H 0.31287 0.92221 0.17843 0.0
H2270 H 0.4221 0.05252 0.1724 0.0
H2271 H 0.3746 0.92974 0.17356 0.0
H2272 H 0.47464 0.97225 0.1516 0.0
H2273 H 0.41406 0.95379 0.15911 0.0
H2274 H 0.47526 0.04246 0.17827 0.0
H2275 H 0.53549 0.06091 0.17082 0.0
C2276 C 0.36365 0.01958 0.17648 0.0
C2277 C 0.33227 0.98301 0.17815 0.0
C2278 C 0.39871 0.02392 0.17381 0.0
C2279 C 0.40316 0.99172 0.17266 0.0
C2280 C 0.3719 0.95501 0.17441 0.0
C2281 C 0.33679 0.95073 0.17724 0.0
C2282 C 0.47524 0.98706 0.15755 0.0
C2283 C 0.50973 0.01839 0.16055 0.0
C2284 C 0.44058 0.97645 0.16185 0.0
C2285 C 0.43997 0.99712 0.16918 0.0
C2286 C 0.47486 0.02644 0.17255 0.0
C2287 C 0.50935 0.03691 0.16829 0.0
H2288 H 0.0248 0.5006 0.1495 0.0
H2289 H 0.94338 0.47378 0.17044 0.0
H2290 H 0.04763 0.46104 0.15644 0.0
H2291 H 0.96627 0.43428 0.17736 0.0
H2292 H 0.02969 0.3778 0.18968 0.0
H2293 H 0.02269 0.4316 0.18429 0.0
H2294 H 0.01226 0.38911 0.15798 0.0
H2295 H 0.01911 0.33586 0.16336 0.0
C2296 C 0.01243 0.48706 0.15569 0.0
C2297 C 0.98204 0.49001 0.15938 0.0
C2298 C 0.02538 0.46424 0.15964 0.0
C2299 C 0.00847 0.44426 0.1674 0.0
C2300 C 0.98001 0.44949 0.17141 0.0
C2301 C 0.96679 0.47198 0.16742 0.0
C2302 C 0.02648 0.38049 0.18275 0.0
C2303 C 0.02455 0.35257 0.17694 0.0
C2304 C 0.02232 0.41106 0.17967 0.0
C2305 C 0.017 0.41459 0.17071 0.0
C2306 C 0.01674 0.38747 0.1649 0.0
C2307 C 0.02024 0.35674 0.16798 0.0
H2308 H 0.49547 0.51904 0.15266 0.0
H2309 H 0.52491 0.45521 0.17066 0.0
H2310 H 0.53602 0.57784 0.16085 0.0
H2311 H 0.56462 0.51364 0.17894 0.0
H2312 H 0.6783 0.6289 0.1804 0.0
H2313 H 0.62628 0.56811 0.17514 0.0
H2314 H 0.55107 0.6159 0.17452 0.0
H2315 H 0.60407 0.67757 0.17967 0.0
C2316 C 0.5097 0.51736 0.15851 0.0
C2317 C 0.50744 0.48261 0.16095 0.0
C2318 C 0.53286 0.55106 0.16322 0.0
C2319 C 0.55408 0.55056 0.17047 0.0
C2320 C 0.54932 0.51516 0.17328 0.0
C2321 C 0.52639 0.48162 0.16856 0.0
C2322 C 0.65061 0.62639 0.17919 0.0
C2323 C 0.64536 0.65805 0.18038 0.0
C2324 C 0.62059 0.59138 0.17627 0.0
C2325 C 0.58439 0.58702 0.17443 0.0
C2326 C 0.57868 0.6184 0.17584 0.0
C2327 C 0.60886 0.65357 0.17886 0.0
H2328 H 0.38363 0.02915 0.99432 0.0
H2329 H 0.26117 0.98278 0.99307 0.0
H2330 H 0.39206 0.08995 0.99963 0.0
H2331 H 0.26948 0.04416 0.99849 0.0
H2332 H 0.3129 0.14229 0.02099 0.0
H2333 H 0.29399 0.08208 0.01322 0.0
H2334 H 0.38291 0.14412 0.99417 0.0
H2335 H 0.40181 0.20385 1.00186 0.0
C2336 C 0.35855 0.03221 0.99513 0.0
C2337 C 0.32181 0.00141 0.9933 0.0
C2338 C 0.36333 0.06704 0.99811 0.0
C2339 C 0.33142 0.07183 0.99944 0.0
C2340 C 0.29453 0.04117 0.99752 0.0
C2341 C 0.2898 0.00629 0.99437 0.0
C2342 C 0.32773 0.14312 0.01503 0.0
C2343 C 0.3592 0.17768 0.01211 0.0
C2344 C 0.31685 0.1087 0.01057 0.0
C2345 C 0.33737 0.10844 0.00317 0.0
C2346 C 0.36698 0.14343 0.99994 0.0
C2347 C 0.37774 0.17764 0.00435 0.0
H2348 H 0.80383 0.19171 1.00164 0.0
H2349 H 0.85699 0.16274 0.02252 0.0
H2350 H 0.86653 0.23086 0.99483 0.0
H2351 H 0.9197 0.20197 0.0157 0.0
H2352 H 0.01717 0.32764 0.0091 0.0
H2353 H 0.95697 0.27408 0.01436 0.0
H2354 H 0.92538 0.23286 0.98795 0.0
H2355 H 0.98621 0.28692 0.98268 0.0
C2356 C 0.82878 0.19296 0.00467 0.0
C2357 C 0.82553 0.17447 0.01266 0.0
C2358 C 0.86467 0.21524 1.00074 0.0
C2359 C 0.89805 0.21976 0.00478 0.0
C2360 C 0.89448 0.19929 0.01249 0.0
C2361 C 0.85854 0.17669 0.01637 0.0
C2362 C 0.99753 0.30691 0.00444 0.0
C2363 C 0.00607 0.31153 0.99549 0.0
C2364 C 0.96325 0.27603 0.00745 0.0
C2365 C 0.93645 0.24925 1.00156 0.0
C2366 C 0.94549 0.25314 0.99262 0.0
C2367 C 0.98024 0.28384 0.98962 0.0
H2368 H 0.83892 0.69373 0.01886 0.0
H2369 H 0.81288 0.60536 0.99968 0.0
H2370 H 0.79645 0.71138 0.01125 0.0
H2371 H 0.77086 0.62314 0.99209 0.0
H2372 H 0.6542 0.62017 0.9919 0.0
H2373 H 0.70742 0.61257 0.99694 0.0
H2374 H 0.781 0.73572 0.99737 0.0
H2375 H 0.72711 0.74324 0.99234 0.0
C2376 C 0.82507 0.67885 0.01289 0.0
C2377 C 0.8289 0.64785 0.00993 0.0
C2378 C 0.80074 0.68896 0.00853 0.0
C2379 C 0.7798 0.66818 1.00116 0.0
C2380 C 0.78604 0.63919 0.99785 0.0
C2381 C 0.8103 0.62916 1.00218 0.0
C2382 C 0.68176 0.64561 0.99303 0.0
C2383 C 0.68645 0.68227 0.99177 0.0
C2384 C 0.7124 0.6413 0.99583 0.0
C2385 C 0.74851 0.67357 0.99752 0.0
C2386 C 0.75348 0.71035 0.99614 0.0
C2387 C 0.72279 0.71465 0.99321 0.0
H2388 H 0.64034 0.95304 0.82679 0.0
H2389 H 0.68527 0.07538 0.82674 0.0
H2390 H 0.57898 0.94283 0.83214 0.0
H2391 H 0.62322 0.06522 0.83211 0.0
H2392 H 0.52357 0.02015 0.85383 0.0
H2393 H 0.58437 0.03975 0.84628 0.0
H2394 H 0.52425 0.95042 0.82719 0.0
H2395 H 0.46395 0.93074 0.8347 0.0
C2396 C 0.63693 0.97775 0.82788 0.0
C2397 C 0.66756 0.01497 0.82638 0.0
C2398 C 0.60168 0.97193 0.83087 0.0
C2399 C 0.59621 0.00323 0.83252 0.0
C2400 C 0.62667 0.04058 0.83092 0.0
C2401 C 0.66199 0.04638 0.82779 0.0
C2402 C 0.5233 0.00531 0.84792 0.0
C2403 C 0.48908 0.97358 0.84493 0.0
C2404 C 0.55807 0.01658 0.84358 0.0
C2405 C 0.5591 0.99621 0.83622 0.0
C2406 C 0.52444 0.96621 0.83294 0.0
C2407 C 0.48987 0.95503 0.83723 0.0
H2408 H 0.04704 0.68449 0.82778 0.0
H2409 H 0.92485 0.60688 0.82649 0.0
H2410 H 0.05663 0.63264 0.83284 0.0
H2411 H 0.93438 0.55416 0.83153 0.0
H2412 H 0.97461 0.49672 0.85346 0.0
H2413 H 0.9561 0.53797 0.84561 0.0
H2414 H 0.05165 0.5721 0.82802 0.0
H2415 H 0.07041 0.53153 0.83591 0.0
C2416 C 0.02223 0.65613 0.82852 0.0
C2417 C 0.98522 0.64975 0.8268 0.0
C2418 C 0.02771 0.62628 0.83133 0.0
C2419 C 0.99627 0.58919 0.83256 0.0
C2420 C 0.95915 0.58247 0.83067 0.0
C2421 C 0.9537 0.61248 0.82773 0.0
C2422 C 0.99109 0.51235 0.84779 0.0
C2423 C 0.02427 0.5113 0.84538 0.0
C2424 C 0.98043 0.5359 0.84328 0.0
C2425 C 0.00278 0.55876 0.83628 0.0
C2426 C 0.03427 0.55541 0.83349 0.0
C2427 C 0.04493 0.53202 0.838 0.0
H2428 H 0.46136 0.52892 0.83554 0.0
H2429 H 0.50894 0.47774 0.85258 0.0
H2430 H 0.42278 0.46723 0.82826 0.0
H2431 H 0.47044 0.41615 0.84527 0.0
H2432 H 0.34657 0.3118 0.84108 0.0
H2433 H 0.39911 0.37336 0.84597 0.0
H2434 H 0.42172 0.41325 0.8193 0.0
H2435 H 0.36859 0.35095 0.8144 0.0
C2436 C 0.46427 0.50474 0.83759 0.0
C2437 C 0.48784 0.50808 0.8447 0.0
C2438 C 0.44231 0.46945 0.83339 0.0
C2439 C 0.44332 0.4368 0.83626 0.0
C2440 C 0.46878 0.44076 0.84299 0.0
C2441 C 0.49093 0.47608 0.84715 0.0
C2442 C 0.36302 0.33359 0.83626 0.0
C2443 C 0.3534 0.32688 0.82738 0.0
C2444 C 0.39335 0.3687 0.83904 0.0
C2445 C 0.41456 0.39814 0.83302 0.0
C2446 C 0.40575 0.39108 0.82409 0.0
C2447 C 0.37561 0.35552 0.82128 0.0
H2448 H 0.60729 0.80223 0.00264 0.0
H2449 H 0.69942 0.85601 0.98389 0.0
H2450 H 0.63011 0.86404 0.00985 0.0
H2451 H 0.72207 0.9178 0.9911 0.0
H2452 H 0.69578 0.01762 0.99662 0.0
H2453 H 0.68873 0.95717 0.9914 0.0
H2454 H 0.68583 0.92052 0.01801 0.0
H2455 H 0.69327 0.98175 0.02322 0.0
C2456 C 0.63294 0.82705 1.00019 0.0
C2457 C 0.65134 0.82432 0.99265 0.0
C2458 C 0.6461 0.86242 0.00434 0.0
C2459 C 0.67766 0.89578 1.00099 0.0
C2460 C 0.69746 0.89259 0.99378 0.0
C2461 C 0.68457 0.85717 0.98968 0.0
C2462 C 0.69412 0.99682 1.00134 0.0
C2463 C 0.69476 0.00409 0.01031 0.0
C2464 C 0.69044 0.96238 0.99836 0.0
C2465 C 0.68675 0.93411 0.0043 0.0
C2466 C 0.68855 0.9418 0.01329 0.0
C2467 C 0.69298 0.97675 0.01628 0.0
H2468 H 0.98661 0.72702 0.01089 0.0
H2469 H 0.03515 0.6527 0.0113 0.0
H2470 H 0.04838 0.78024 0.00574 0.0
H2471 H 0.09622 0.70512 0.00619 0.0
H2472 H 0.20958 0.80866 0.00335 0.0
H2473 H 0.14967 0.76819 0.01104 0.0
H2474 H 0.08801 0.79439 0.99172 0.0
H2475 H 0.14834 0.83543 0.98402 0.0
C2476 C 0.01063 0.72229 0.01 0.0
C2477 C 0.00618 0.68578 0.01145 0.0
C2478 C 0.0458 0.75256 0.00701 0.0
C2479 C 0.0772 0.74691 0.0056 0.0
C2480 C 0.07282 0.71063 0.00732 0.0
C2481 C 0.03775 0.68047 0.01017 0.0
C2482 C 0.18341 0.80649 1.00083 0.0
C2483 C 0.18362 0.82483 0.99301 0.0
C2484 C 0.14905 0.78318 0.00522 0.0
C2485 C 0.11405 0.77758 1.0019 0.0
C2486 C 0.11455 0.79823 0.99445 0.0
C2487 C 0.14908 0.82167 0.99003 0.0
H2488 H 0.15728 0.303 0.98473 0.0
H2489 H 0.19872 0.39521 0.00353 0.0
H2490 H 0.19537 0.27873 0.99177 0.0
H2491 H 0.23706 0.37115 0.0105 0.0
H2492 H 0.29405 0.31033 0.02324 0.0
H2493 H 0.23993 0.31815 0.01851 0.0
H2494 H 0.26598 0.30778 0.99165 0.0
H2495 H 0.31926 0.29976 0.99638 0.0
C2496 C 0.17384 0.3176 0.99048 0.0
C2497 C 0.17542 0.35131 0.9935 0.0
C2498 C 0.19578 0.30379 0.99448 0.0
C2499 C 0.2196 0.32333 1.00161 0.0
C2500 C 0.21885 0.35533 0.00505 0.0
C2501 C 0.19703 0.36924 1.00102 0.0
C2502 C 0.28757 0.30905 0.01636 0.0
C2503 C 0.31101 0.30492 0.01017 0.0
C2504 C 0.25684 0.3137 0.01364 0.0
C2505 C 0.24871 0.3136 0.00471 0.0
C2506 C 0.27114 0.30757 0.99858 0.0
C2507 C 0.30197 0.30343 1.00128 0.0
H2508 H 0.03308 0.38047 0.51255 0.0
H2509 H 0.98477 0.25762 0.51223 0.0
H2510 H 0.0945 0.38909 0.50769 0.0
H2511 H 0.04681 0.26617 0.5074 0.0
H2512 H 0.14668 0.30891 0.48598 0.0
H2513 H 0.08644 0.29051 0.49358 0.0
H2514 H 0.14813 0.38003 0.51255 0.0
H2515 H 0.20806 0.39862 0.50494 0.0
C2516 C 0.03575 0.3553 0.5115 0.0
C2517 C 0.00412 0.31841 0.51273 0.0
C2518 C 0.07105 0.36021 0.5088 0.0
C2519 C 0.07558 0.3283 0.50719 0.0
C2520 C 0.04414 0.29128 0.50857 0.0
C2521 C 0.00878 0.28639 0.51139 0.0
C2522 C 0.14749 0.32396 0.4919 0.0
C2523 C 0.18205 0.35553 0.49479 0.0
C2524 C 0.11298 0.31339 0.49627 0.0
C2525 C 0.11248 0.33426 0.50358 0.0
C2526 C 0.1475 0.36388 0.50683 0.0
C2527 C 0.18188 0.37438 0.50249 0.0
H2528 H 0.59422 0.79928 0.50211 0.0
H2529 H 0.69189 0.83557 0.48507 0.0
H2530 H 0.61227 0.75821 0.51002 0.0
H2531 H 0.70976 0.79392 0.49297 0.0
H2532 H 0.73937 0.72435 0.51234 0.0
H2533 H 0.73001 0.77719 0.5073 0.0
H2534 H 0.60824 0.69802 0.50499 0.0
H2535 H 0.61768 0.64599 0.51002 0.0
C2536 C 0.61996 0.79902 0.50014 0.0
C2537 C 0.64137 0.82032 0.49289 0.0
C2538 C 0.63021 0.77536 0.50466 0.0
C2539 C 0.66209 0.77236 0.50204 0.0
C2540 C 0.68513 0.79573 0.49518 0.0
C2541 C 0.67484 0.81951 0.49063 0.0
C2542 C 0.71063 0.71862 0.51088 0.0
C2543 C 0.67923 0.68113 0.51153 0.0
C2544 C 0.7053 0.74869 0.50794 0.0
C2545 C 0.66837 0.7418 0.50577 0.0
C2546 C 0.63698 0.70447 0.50671 0.0
C2547 C 0.64238 0.67456 0.50952 0.0
H2548 H 0.17179 0.86071 0.48224 0.0
H2549 H 0.19612 0.80517 0.50341 0.0
H2550 H 0.21147 0.92295 0.48928 0.0
H2551 H 0.23563 0.86728 0.51042 0.0
H2552 H 0.3364 0.01856 0.49699 0.0
H2553 H 0.28345 0.95904 0.49127 0.0
H2554 H 0.23735 0.92596 0.51729 0.0
H2555 H 0.29083 0.98609 0.52302 0.0
C2556 C 0.18487 0.86169 0.48849 0.0
C2557 C 0.18118 0.82816 0.49224 0.0
C2558 C 0.2077 0.89731 0.49249 0.0
C2559 C 0.22686 0.89996 0.50036 0.0
C2560 C 0.22103 0.86611 0.50439 0.0
C2561 C 0.19858 0.83058 0.50034 0.0
C2562 C 0.31481 0.99869 0.50147 0.0
C2563 C 0.31785 0.00663 0.51045 0.0
C2564 C 0.28425 0.96483 0.49819 0.0
C2565 C 0.25623 0.93787 0.50383 0.0
C2566 C 0.25863 0.94623 0.5128 0.0
C2567 C 0.28902 0.98057 0.51607 0.0
H2568 H 0.04889 0.36408 0.32852 0.0
H2569 H 0.92907 0.32578 0.32436 0.0
H2570 H 0.05971 0.42637 0.33335 0.0
H2571 H 0.93974 0.38869 0.32926 0.0
H2572 H 0.97599 0.48251 0.35218 0.0
H2573 H 0.95776 0.42356 0.34401 0.0
H2574 H 0.05911 0.48455 0.32804 0.0
H2575 H 0.07745 0.54315 0.3362 0.0
C2576 C 0.02497 0.36932 0.32855 0.0
C2577 C 0.98819 0.34024 0.3261 0.0
C2578 C 0.03116 0.40504 0.33125 0.0
C2579 C 1.00058 0.41248 0.33167 0.0
C2580 C 0.96381 0.3837 0.32901 0.0
C2581 C 0.95774 0.34793 0.32616 0.0
C2582 C 0.99387 0.48351 0.34679 0.0
C2583 C 0.02843 0.51735 0.34492 0.0
C2584 C 0.98335 0.44978 0.34209 0.0
C2585 C 0.00729 0.44935 0.33546 0.0
C2586 C 0.0404 0.48388 0.3332 0.0
C2587 C 0.05083 0.51748 0.33787 0.0
H2588 H 0.52231 0.49628 0.35353 0.0
H2589 H 0.46287 0.52649 0.33443 0.0
H2590 H 0.58325 0.53811 0.34612 0.0
H2591 H 0.52346 0.56803 0.32709 0.0
H2592 H 0.68508 0.60766 0.32682 0.0
H2593 H 0.6228 0.55371 0.33153 0.0
H2594 H 0.5773 0.63059 0.33327 0.0
H2595 H 0.63907 0.68389 0.32868 0.0
C2596 C 0.52208 0.51095 0.34763 0.0
C2597 C 0.48786 0.5085 0.34463 0.0
C2598 C 0.55694 0.53483 0.34338 0.0
C2599 C 0.55809 0.55671 0.33611 0.0
C2600 C 0.52347 0.5519 0.33276 0.0
C2601 C 0.48875 0.52801 0.33695 0.0
C2602 C 0.66146 0.61265 0.3281 0.0
C2603 C 0.66671 0.64982 0.32742 0.0
C2604 C 0.62605 0.58198 0.33084 0.0
C2605 C 0.5952 0.58796 0.33272 0.0
C2606 C 0.60036 0.62498 0.33177 0.0
C2607 C 0.63574 0.65554 0.3292 0.0
H2608 H 0.38237 0.03323 0.31536 0.0
H2609 H 0.33719 0.01957 0.34144 0.0
H2610 H 0.43601 0.02654 0.32098 0.0
H2611 H 0.39038 0.01307 0.34706 0.0
H2612 H 0.47438 0.94395 0.33462 0.0
H2613 H 0.43608 0.96824 0.32771 0.0
H2614 H 0.46276 0.04829 0.34892 0.0
H2615 H 0.50127 0.02408 0.35585 0.0
C2616 C 0.3844 0.02952 0.3223 0.0
C2617 C 0.35558 0.02646 0.32797 0.0
C2618 C 0.41486 0.02555 0.3255 0.0
C2619 C 0.41732 0.01929 0.33445 0.0
C2620 C 0.38948 0.01825 0.34015 0.0
C2621 C 0.35883 0.02156 0.33693 0.0
C2622 C 0.47275 0.9673 0.33772 0.0
C2623 C 0.49046 0.98186 0.34582 0.0
C2624 C 0.45103 0.98137 0.33373 0.0
C2625 C 0.44626 0.00996 0.33781 0.0
C2626 C 0.46577 0.02603 0.34567 0.0
C2627 C 0.4879 0.01228 0.34961 0.0
H2628 H 0.92033 0.23946 0.27003 0.0
H2629 H 0.03929 0.30245 0.27766 0.0
H2630 H 0.93874 0.2563 0.25478 0.0
H2631 H 0.05803 0.32148 0.26254 0.0
H2632 H 0.08044 0.29726 0.23467 0.0
H2633 H 0.06363 0.29279 0.24998 0.0
H2634 H 0.96315 0.30036 0.24327 0.0
H2635 H 0.97952 0.30327 0.22782 0.0
C2636 C 0.95036 0.25796 0.26843 0.0
C2637 C 0.97845 0.26967 0.27496 0.0
C2638 C 0.96104 0.26779 0.2597 0.0
C2639 C 1.00005 0.28996 0.25734 0.0
C2640 C 0.02783 0.30354 0.26402 0.0
C2641 C 0.01717 0.29309 0.27271 0.0
C2642 C 0.05517 0.29876 0.23647 0.0
C2643 C 0.03135 0.30065 0.23003 0.0
C2644 C 0.04548 0.29629 0.24529 0.0
C2645 C 0.01189 0.29617 0.24795 0.0
C2646 C 0.98883 0.29963 0.2415 0.0
C2647 C 0.9983 0.30156 0.23264 0.0
H2648 H 0.73511 0.81072 0.23677 0.0
H2649 H 0.68179 0.69133 0.22937 0.0
H2650 H 0.74112 0.79389 0.25173 0.0
H2651 H 0.6871 0.67444 0.24455 0.0
H2652 H 0.68636 0.68553 0.27763 0.0
H2653 H 0.66712 0.68944 0.26256 0.0
H2654 H 0.78624 0.7588 0.25538 0.0
H2655 H 0.80549 0.75416 0.27018 0.0
C2656 C 0.72409 0.78078 0.23837 0.0
C2657 C 0.70869 0.75244 0.23185 0.0
C2658 C 0.72738 0.77119 0.24693 0.0
C2659 C 0.71491 0.73299 0.24922 0.0
C2660 C 0.69681 0.70409 0.24291 0.0
C2661 C 0.69373 0.71376 0.23425 0.0
C2662 C 0.70835 0.70078 0.27277 0.0
C2663 C 0.74742 0.72022 0.27513 0.0
C2664 C 0.69733 0.70306 0.26418 0.0
C2665 C 0.72528 0.72489 0.25791 0.0
C2666 C 0.7642 0.74223 0.26015 0.0
C2667 C 0.77515 0.7397 0.26863 0.0
H2668 H 0.3141 0.99601 0.22757 0.0
H2669 H 0.19565 0.93766 0.23588 0.0
H2670 H 0.3343 0.01918 0.2426 0.0
H2671 H 0.2158 0.96122 0.25069 0.0
H2672 H 0.2678 0.07121 0.26812 0.0
H2673 H 0.26274 0.04738 0.25327 0.0
H2674 H 0.31201 0.9788 0.26148 0.0
H2675 H 0.31662 0.00228 0.27653 0.0
C2676 C 0.29255 0.98738 0.23263 0.0
C2677 C 0.25328 0.96556 0.23054 0.0
C2678 C 0.3041 0.00065 0.24119 0.0
C2679 C 0.27647 0.99209 0.24771 0.0
C2680 C 0.23752 0.96826 0.24573 0.0
C2681 C 0.22606 0.95498 0.23726 0.0
C2682 C 0.27816 0.05153 0.26676 0.0
C2683 C 0.29203 0.03811 0.27351 0.0
C2684 C 0.27541 0.03809 0.25826 0.0
C2685 C 0.28682 0.01123 0.2563 0.0
C2686 C 0.30327 0.99972 0.26287 0.0
C2687 C 0.30594 0.01317 0.27144 0.0
H2688 H 0.93159 0.73632 0.76938 0.0
H2689 H 0.99528 0.68125 0.77736 0.0
H2690 H 0.95474 0.7409 0.75448 0.0
H2691 H 0.0181 0.68539 0.76225 0.0
H2692 H 0.0042 0.68537 0.72868 0.0
H2693 H 0.98063 0.66578 0.74371 0.0
H2694 H 0.03826 0.78458 0.75155 0.0
H2695 H 0.06232 0.80413 0.73676 0.0
C2696 C 0.94993 0.72447 0.7679 0.0
C2697 C 0.96217 0.70901 0.77455 0.0
C2698 C 0.96302 0.72699 0.75938 0.0
C2699 C 0.98834 0.71377 0.75729 0.0
C2700 C 0.99843 0.69562 0.76375 0.0
C2701 C 0.98536 0.69321 0.77235 0.0
C2702 C 0.01262 0.70714 0.73368 0.0
C2703 C 0.03451 0.74631 0.73152 0.0
C2704 C 0.99912 0.69592 0.74224 0.0
C2705 C 0.00743 0.7238 0.74869 0.0
C2706 C 0.03129 0.76266 0.74664 0.0
C2707 C 0.04485 0.77379 0.73818 0.0
H2708 H 0.32262 0.23781 0.76942 0.0
H2709 H 0.27192 0.30535 0.77734 0.0
H2710 H 0.32233 0.25617 0.75423 0.0
H2711 H 0.27338 0.32566 0.76228 0.0
H2712 H 0.22442 0.30167 0.73458 0.0
H2713 H 0.23731 0.29684 0.74982 0.0
H2714 H 0.34355 0.30131 0.74275 0.0
H2715 H 0.32976 0.30501 0.72736 0.0
C2716 C 0.31266 0.25768 0.76791 0.0
C2717 C 0.29728 0.27021 0.77449 0.0
C2718 C 0.31251 0.26833 0.75921 0.0
C2719 C 0.29729 0.29205 0.75695 0.0
C2720 C 0.28437 0.30658 0.76369 0.0
C2721 C 0.28393 0.29538 0.77235 0.0
C2722 C 0.25097 0.30249 0.73628 0.0
C2723 C 0.27605 0.30377 0.72974 0.0
C2724 C 0.25849 0.29978 0.74506 0.0
C2725 C 0.29158 0.29869 0.7476 0.0
C2726 C 0.31747 0.30143 0.74106 0.0
C2727 C 0.30969 0.30374 0.73224 0.0
H2728 H 0.67782 0.97434 0.77745 0.0
H2729 H 0.78029 0.07842 0.76983 0.0
H2730 H 0.66343 0.95601 0.76212 0.0
H2731 H 0.76669 0.05994 0.75462 0.0
H2732 H 0.72893 0.03166 0.72723 0.0
H2733 H 0.72839 0.05064 0.74235 0.0
H2734 H 0.68607 0.9334 0.75057 0.0
H2735 H 0.68501 0.91456 0.73537 0.0
C2736 C 0.69715 0.99339 0.7725 0.0
C2737 C 0.73017 0.02788 0.77487 0.0
C2738 C 0.689 0.98284 0.76371 0.0
C2739 C 0.71386 0.00638 0.75707 0.0
C2740 C 0.74631 0.04135 0.75948 0.0
C2741 C 0.75423 0.052 0.76824 0.0
C2742 C 0.7185 0.00992 0.73228 0.0
C2743 C 0.70673 0.9717 0.73019 0.0
C2744 C 0.71861 0.02077 0.74096 0.0
C2745 C 0.70777 0.99373 0.74775 0.0
C2746 C 0.69422 0.95502 0.74555 0.0
C2747 C 0.69362 0.94412 0.73685 0.0
H2748 H 0.71192 0.61821 0.61127 0.0
H2749 H 0.59626 0.58724 0.60409 0.0
H2750 H 0.73216 0.63411 0.59612 0.0
H2751 H 0.61627 0.6024 0.58881 0.0
H2752 H 0.67066 0.64746 0.56181 0.0
H2753 H 0.65646 0.64976 0.57734 0.0
H2754 H 0.71863 0.59128 0.58386 0.0
H2755 H 0.73308 0.58964 0.56855 0.0
C2756 C 0.69098 0.61545 0.60644 0.0
C2757 C 0.65247 0.60111 0.60882 0.0
C2758 C 0.70249 0.62436 0.59776 0.0
C2759 C 0.67568 0.61879 0.59122 0.0
C2760 C 0.63768 0.60714 0.59369 0.0
C2761 C 0.62618 0.59844 0.60243 0.0
C2762 C 0.68173 0.63574 0.56662 0.0
C2763 C 0.70273 0.61814 0.56398 0.0
C2764 C 0.67339 0.63678 0.57548 0.0
C2765 C 0.68646 0.62077 0.58185 0.0
C2766 C 0.70855 0.60439 0.57918 0.0
C2767 C 0.71654 0.60309 0.57038 0.0
H2768 H 0.45839 0.04371 0.60245 0.0
H2769 H 0.35514 0.03995 0.61152 0.0
H2770 H 0.43831 0.04243 0.58731 0.0
H2771 H 0.33502 0.03923 0.59633 0.0
H2772 H 0.37908 0.01326 0.56107 0.0
H2773 H 0.38578 1.00045 0.57634 0.0
H2774 H 0.36378 0.09055 0.58426 0.0
H2775 H 0.35858 0.1046 0.56903 0.0
C2776 C 0.43102 0.04185 0.60116 0.0
C2777 C 0.4081 0.04166 0.60807 0.0
C2778 C 0.41946 0.04102 0.59252 0.0
C2779 C 0.38506 0.04067 0.59064 0.0
C2780 C 0.36168 0.03955 0.5976 0.0
C2781 C 0.373 0.03975 0.60625 0.0
C2782 C 0.37556 0.03037 0.56604 0.0
C2783 C 0.36889 0.06045 0.56375 0.0
C2784 C 0.37921 0.02282 0.57479 0.0
C2785 C 0.3756 0.04469 0.58148 0.0
C2786 C 0.36639 0.073 0.57925 0.0
C2787 C 0.36327 0.08093 0.57049 0.0
H2788 H 0.89138 0.32191 0.6082 0.0
H2789 H 0.01457 0.39019 0.6058 0.0
H2790 H 0.88649 0.30265 0.59306 0.0
H2791 H 0.00997 0.3699 0.59055 0.0
H2792 H 0.97928 0.35875 0.56109 0.0
H2793 H 0.98968 0.37686 0.57641 0.0
H2794 H 0.89767 0.26407 0.58347 0.0
H2795 H 0.88522 0.24704 0.5682 0.0
C2796 C 0.91756 0.33228 0.60445 0.0
C2797 C 0.9534 0.35726 0.60822 0.0
C2798 C 0.9148 0.32108 0.59575 0.0
C2799 C 0.94786 0.3342 0.59056 0.0
C2800 C 0.98384 0.3594 0.59432 0.0
C2801 C 0.98655 0.37098 0.60305 0.0
C2802 C 0.96104 0.33783 0.56589 0.0
C2803 C 0.93093 0.30154 0.56331 0.0
C2804 C 0.96743 0.34809 0.57472 0.0
C2805 C 0.94415 0.3222 0.58122 0.0
C2806 C 0.91559 0.28519 0.57866 0.0
C2807 C 0.90888 0.27513 0.56985 0.0
H2808 H 0.66626 0.01803 0.06201 0.0
H2809 H 0.73004 0.13741 0.06942 0.0
H2810 H 0.65011 1.00003 0.07741 0.0
H2811 H 0.71368 0.11985 0.08461 0.0
H2812 H 0.703 0.0837 0.1118 0.0
H2813 H 0.72498 0.08847 0.09679 0.0
H2814 H 0.60923 0.00733 0.08871 0.0
H2815 H 0.58751 0.00191 0.10387 0.0
C2816 C 0.6772 0.04029 0.06694 0.0
C2817 C 0.69915 0.07911 0.06453 0.0
C2818 C 0.66776 0.03006 0.07573 0.0
C2819 C 0.68067 0.05848 0.08225 0.0
C2820 C 0.7037 0.09713 0.0798 0.0
C2821 C 0.71278 0.10728 0.07108 0.0
C2822 C 0.68249 0.06618 0.10684 0.0
C2823 C 0.64356 0.04273 0.10895 0.0
C2824 C 0.69498 0.06905 0.09824 0.0
C2825 C 0.66873 0.04889 0.09152 0.0
C2826 C 0.63021 0.02314 0.09374 0.0
C2827 C 0.61773 0.02003 0.1024 0.0
H2828 H 0.86099 0.59757 0.06866 0.0
H2829 H 0.98052 0.65012 0.06144 0.0
H2830 H 0.87732 0.59193 0.08368 0.0
H2831 H 0.99697 0.64503 0.07669 0.0
H2832 H 0.98491 0.6461 0.10976 0.0
H2833 H 0.98194 0.66532 0.09463 0.0
H2834 H 0.91128 0.5463 0.08751 0.0
H2835 H 0.91491 0.52706 0.10238 0.0
C2836 C 0.89088 0.60858 0.07032 0.0
C2837 C 0.9194 0.62362 0.06384 0.0
C2838 C 0.90019 0.60545 0.07892 0.0
C2839 C 0.93827 0.61766 0.08128 0.0
C2840 C 0.96739 0.63549 0.075 0.0
C2841 C 0.95799 0.63845 0.0663 0.0
C2842 C 0.96957 0.62411 0.1049 0.0
C2843 C 0.94947 0.5851 0.1073 0.0
C2844 C 0.96784 0.63512 0.09628 0.0
C2845 C 0.94594 0.60722 0.09 0.0
C2846 C 0.92793 0.56831 0.09229 0.0
C2847 C 0.92987 0.55737 0.1008 0.0
H2848 H 0.40164 0.37 0.06026 0.0
H2849 H 0.34741 0.25145 0.06812 0.0
H2850 H 0.40223 0.38925 0.07538 0.0
H2851 H 0.34976 0.27041 0.08335 0.0
H2852 H 0.34574 0.31239 0.11033 0.0
H2853 H 0.33078 0.2954 0.09496 0.0
H2854 H 0.43833 0.39527 0.08773 0.0
H2855 H 0.45228 0.41265 0.103 0.0
C2856 C 0.38931 0.34806 0.06526 0.0
C2857 C 0.37435 0.30931 0.06307 0.0
C2858 C 0.39006 0.35903 0.07394 0.0
C2859 C 0.37672 0.33154 0.08068 0.0
C2860 C 0.35995 0.29246 0.07839 0.0
C2861 C 0.3586 0.28148 0.06966 0.0
C2862 C 0.36587 0.33088 0.10542 0.0
C2863 C 0.40018 0.36388 0.10788 0.0
C2864 C 0.35742 0.32107 0.0966 0.0
C2865 C 0.38333 0.34379 0.09003 0.0
C2866 C 0.41715 0.37737 0.09253 0.0
C2867 C 0.42532 0.38738 0.10132 0.0
H2868 H 0.33537 0.98427 0.94248 0.0
H2869 H 0.26854 0.86477 0.93537 0.0
H2870 H 0.34964 0.00149 0.92697 0.0
H2871 H 0.28278 0.88152 0.92006 0.0
H2872 H 0.29125 0.91653 0.89283 0.0
H2873 H 0.27114 0.91336 0.90796 0.0
H2874 H 0.38849 0.99212 0.91538 0.0
H2875 H 0.4084 0.99584 0.90012 0.0
C2876 C 0.32326 0.96185 0.93759 0.0
C2877 C 0.30102 0.9232 0.9401 0.0
C2878 C 0.33162 0.97162 0.92874 0.0
C2879 C 0.31729 0.94291 0.92227 0.0
C2880 C 0.29385 0.90447 0.92483 0.0
C2881 C 0.2859 0.89477 0.93361 0.0
C2882 C 0.31255 0.93393 0.89767 0.0
C2883 C 0.3514 0.95614 0.89534 0.0
C2884 C 0.30111 0.93197 0.90634 0.0
C2885 C 0.32831 0.95186 0.91291 0.0
C2886 C 0.36679 0.97653 0.91048 0.0
C2887 C 0.37824 0.9787 0.90175 0.0
H2888 H 0.04556 0.34764 0.89454 0.0
H2889 H 0.02454 0.43879 0.90238 0.0
H2890 H 0.0528 0.33548 0.90982 0.0
H2891 H 0.0302 0.4253 0.91763 0.0
H2892 H 0.12602 0.38037 0.93585 0.0
H2893 H 0.10585 0.37893 0.92072 0.0
H2894 H 0.00142 0.37327 0.92974 0.0
H2895 H 0.02155 0.374 0.94493 0.0
C2896 C 0.04206 0.36486 0.89949 0.0
C2897 C 0.03509 0.39471 0.89716 0.0
C2898 C 0.046 0.35766 0.90825 0.0
C2899 C 0.04235 0.37963 0.9149 0.0
C2900 C 0.03285 0.4077 0.91264 0.0
C2901 C 0.02947 0.4153 0.90387 0.0
C2902 C 0.09842 0.378 0.93457 0.0
C2903 C 0.07516 0.37708 0.94149 0.0
C2904 C 0.08681 0.37707 0.92594 0.0
C2905 C 0.05203 0.37594 0.92406 0.0
C2906 C 0.02836 0.37418 0.93101 0.0
C2907 C 0.03971 0.3744 0.93967 0.0
H2908 H 0.64924 0.75325 0.93634 0.0
H2909 H 0.61655 0.63642 0.94305 0.0
H2910 H 0.64664 0.7377 0.921 0.0
H2911 H 0.61081 0.62013 0.92765 0.0
H2912 H 0.62263 0.60495 0.89867 0.0
H2913 H 0.6394 0.62497 0.91387 0.0
H2914 H 0.59778 0.70477 0.9108 0.0
H2915 H 0.58237 0.68565 0.89568 0.0
C2916 C 0.64195 0.72432 0.93458 0.0
C2917 C 0.6327 0.69606 0.94102 0.0
C2918 C 0.63977 0.7152 0.92573 0.0
C2919 C 0.62767 0.67742 0.92302 0.0
C2920 C 0.62029 0.64957 0.92944 0.0
C2921 C 0.62301 0.65882 0.93832 0.0
C2922 C 0.61742 0.62698 0.90126 0.0
C2923 C 0.60148 0.64395 0.89596 0.0
C2924 C 0.62688 0.63838 0.90998 0.0
C2925 C 0.62017 0.66669 0.91361 0.0
C2926 C 0.60439 0.68367 0.90823 0.0
C2927 C 0.59538 0.6726 0.89954 0.0
H2928 H 0.39183 0.47247 0.40253 0.0
H2929 H 0.33913 0.35301 0.39526 0.0
H2930 H 0.36915 0.45401 0.41744 0.0
H2931 H 0.31697 0.33451 0.41042 0.0
H2932 H 0.33042 0.35034 0.44366 0.0
H2933 H 0.35245 0.35455 0.42848 0.0
H2934 H 0.28881 0.41025 0.42107 0.0
H2935 H 0.26637 0.40552 0.43603 0.0
C2936 C 0.37584 0.44223 0.40415 0.0
C2937 C 0.36656 0.41417 0.39769 0.0
C2938 C 0.36303 0.43172 0.41269 0.0
C2939 C 0.34102 0.39292 0.415 0.0
C2940 C 0.33396 0.36463 0.40875 0.0
C2941 C 0.34667 0.37521 0.40011 0.0
C2942 C 0.32031 0.36242 0.43872 0.0
C2943 C 0.29724 0.37822 0.44104 0.0
C2944 C 0.33294 0.36487 0.43007 0.0
C2945 C 0.32261 0.38314 0.42369 0.0
C2946 C 0.29742 0.39638 0.42591 0.0
C2947 C 0.28472 0.39377 0.43447 0.0
H2948 H 0.62475 0.91755 0.39436 0.0
H2949 H 0.58479 0.99728 0.39938 0.0
H2950 H 0.6402 0.91849 0.40983 0.0
H2951 H 0.60001 0.99806 0.41489 0.0
H2952 H 0.56943 0.92849 0.44131 0.0
H2953 H 0.56775 0.94361 0.42607 0.0
H2954 H 0.68194 0.96157 0.42247 0.0
H2955 H 0.68476 0.94825 0.43793 0.0
C2956 C 0.62002 0.93586 0.39876 0.0
C2957 C 0.60351 0.95727 0.39569 0.0
C2958 C 0.62902 0.93655 0.40759 0.0
C2959 C 0.62113 0.9582 0.41356 0.0
C2960 C 0.60621 0.98097 0.41043 0.0
C2961 C 0.59777 0.98075 0.40156 0.0
C2962 C 0.59483 0.93683 0.43741 0.0
C2963 C 0.62729 0.93708 0.44096 0.0
C2964 C 0.5937 0.94536 0.42862 0.0
C2965 C 0.6247 0.9538 0.42308 0.0
C2966 C 0.65752 0.95491 0.4266 0.0
C2967 C 0.65895 0.94699 0.43545 0.0
H2968 H 0.03296 0.62915 0.44514 0.0
H2969 H 0.0948 0.74792 0.43736 0.0
H2970 H 0.01364 0.60994 0.43005 0.0
H2971 H 0.07772 0.72906 0.42215 0.0
H2972 H 0.03123 0.68792 0.39525 0.0
H2973 H 0.03382 0.70428 0.41068 0.0
H2974 H 0.04185 0.60414 0.41746 0.0
H2975 H 0.03753 0.58727 0.40215 0.0
C2976 C 0.042 0.65113 0.44017 0.0
C2977 C 0.06521 0.68994 0.44237 0.0
C2978 C 0.03138 0.6402 0.43149 0.0
C2979 C 0.04459 0.6678 0.42478 0.0
C2980 C 0.0665 0.70688 0.4271 0.0
C2981 C 0.07646 0.71782 0.43581 0.0
C2982 C 0.03295 0.66919 0.40008 0.0
C2983 C 0.03408 0.63626 0.39749 0.0
C2984 C 0.03471 0.67867 0.40893 0.0
C2985 C 0.03829 0.65576 0.4154 0.0
C2986 C 0.0383 0.62221 0.41276 0.0
C2987 C 0.03594 0.61248 0.40394 0.0
loop_
_geom_bond_atom_site_label_1
_geom_bond_atom_site_label_2
_geom_bond_distance
_geom_bond_site_symmetry_2
_ccdc_geom_bond_type
Co0 N4 2.148 . S
Co0 N10 2.128 . S
Co0 N20 2.194 . S
Co0 O25 2.351 . S
Co0 O26 2.155 . S
Co0 O27 2.096 . S
C1 N4 1.301 . S
C1 N5 1.328 . S
C1 H6 0.930 . S
C2 C3 1.333 . S
C2 N4 1.317 . S
C2 H7 0.930 1_455 S
C3 C2 1.333 . S
C3 N5 1.350 . S
C3 H29 0.931 1_455 S
N4 Co0 2.148 . S
N4 C1 1.301 . S
N4 C2 1.317 . S
N5 C1 1.328 . S
N5 C3 1.350 . S
H6 C1 0.930 . S
H7 C2 0.930 1_655 S
C8 O9 1.224 . S
C8 O27 1.247 . S
O9 C8 1.224 . S
N10 Co0 2.128 . S
N10 C11 1.355 . S
N10 C13 1.311 . S
C11 N10 1.355 . S
C11 C12 1.363 . S
C11 H23 0.929 . S
C12 C11 1.363 . S
C12 N14 1.375 . S
C12 H30 0.931 . S
C13 N10 1.311 . S
C13 N14 1.347 . S
C13 H24 0.929 . S
N14 C12 1.375 . S
N14 C13 1.347 . S
C15 C18 1.365 . S
C15 N20 1.328 . S
C15 H21 0.929 . S
C16 C17 1.362 . S
C16 C19 1.378 . S
C16 H31 0.929 . S
C17 C16 1.362 . S
C17 C18 1.366 . S
C18 C15 1.365 . S
C18 C17 1.366 . S
C18 H32 0.930 . S
C19 C16 1.378 . S
C19 N20 1.315 . S
C19 H22 0.930 . S
N20 Co0 2.194 . S
N20 C15 1.328 . S
N20 C19 1.315 . S
H21 C15 0.929 . S
H22 C19 0.930 . S
H23 C11 0.929 . S
H24 C13 0.929 . S
O25 Co0 2.351 . S
O25 C28 1.244 . S
O26 Co0 2.155 . S
O26 C28 1.240 . S
O27 Co0 2.096 . S
O27 C8 1.247 . S
C28 O25 1.244 . S
C28 O26 1.240 . S
H29 C3 0.931 1_655 S
H30 C12 0.931 . S
H31 C16 0.929 . S
H32 C18 0.930 . S
Co33 N37 2.148 . S
Co33 N43 2.128 . S
Co33 N53 2.194 . S
Co33 O58 2.351 . S
Co33 O59 2.155 . S
Co33 O60 2.096 . S
C34 N37 1.301 . S
C34 N38 1.328 . S
C34 H39 0.930 . S
C35 C36 1.333 . S
C35 N37 1.317 . S
C35 H40 0.930 . S
C36 C35 1.333 . S
C36 N38 1.350 . S
C36 H62 0.931 . S
N37 Co33 2.148 . S
N37 C34 1.301 . S
N37 C35 1.317 . S
N38 C34 1.328 . S
N38 C36 1.350 . S
H39 C34 0.930 . S
H40 C35 0.930 . S
C41 O42 1.224 . S
C41 O60 1.247 . S
O42 C41 1.224 . S
N43 Co33 2.128 . S
N43 C44 1.355 . S
N43 C46 1.311 . S
C44 N43 1.355 . S
C44 C45 1.363 . S
C44 H56 0.929 . S
C45 C44 1.363 . S
C45 N47 1.375 . S
C45 H63 0.931 . S
C46 N43 1.311 . S
C46 N47 1.347 . S
C46 H57 0.929 . S
N47 C45 1.375 . S
N47 C46 1.347 . S
C48 C51 1.365 . S
C48 N53 1.328 . S
C48 H54 0.929 . S
C49 C50 1.362 . S
C49 C52 1.378 . S
C49 H64 0.929 . S
C50 C49 1.362 . S
C50 C51 1.366 . S
C51 C48 1.365 . S
C51 C50 1.366 . S
C51 H65 0.930 . S
C52 C49 1.378 . S
C52 N53 1.315 . S
C52 H55 0.930 . S
N53 Co33 2.194 . S
N53 C48 1.328 . S
N53 C52 1.315 . S
H54 C48 0.929 . S
H55 C52 0.930 . S
H56 C44 0.929 . S
H57 C46 0.929 . S
O58 Co33 2.351 . S
O58 C61 1.244 . S
O59 Co33 2.155 . S
O59 C61 1.240 . S
O60 Co33 2.096 . S
O60 C41 1.247 . S
C61 O58 1.244 . S
C61 O59 1.240 . S
H62 C36 0.931 . S
H63 C45 0.931 . S
H64 C49 0.929 . S
H65 C51 0.930 . S
Co66 N70 2.148 . S
Co66 N76 2.128 . S
Co66 N86 2.194 . S
Co66 O91 2.351 . S
Co66 O92 2.155 . S
Co66 O93 2.096 . S
C67 N70 1.301 . S
C67 N71 1.328 . S
C67 H72 0.930 . S
C68 C69 1.333 . S
C68 N70 1.317 . S
C68 H73 0.930 1_565 S
C69 C68 1.333 . S
C69 N71 1.350 . S
C69 H95 0.931 1_565 S
N70 Co66 2.148 . S
N70 C67 1.301 . S
N70 C68 1.317 . S
N71 C67 1.328 . S
N71 C69 1.350 . S
H72 C67 0.930 . S
H73 C68 0.930 1_545 S
C74 O75 1.224 . S
C74 O93 1.247 . S
O75 C74 1.224 . S
N76 Co66 2.128 . S
N76 C77 1.355 . S
N76 C79 1.311 . S
C77 N76 1.355 . S
C77 C78 1.363 . S
C77 H89 0.929 . S
C78 C77 1.363 . S
C78 N80 1.375 . S
C78 H96 0.931 . S
C79 N76 1.311 . S
C79 N80 1.347 . S
C79 H90 0.929 . S
N80 C78 1.375 . S
N80 C79 1.347 . S
C81 C84 1.365 . S
C81 N86 1.328 . S
C81 H87 0.929 . S
C82 C83 1.362 . S
C82 C85 1.378 . S
C82 H97 0.929 . S
C83 C82 1.362 . S
C83 C84 1.366 . S
C84 C81 1.365 . S
C84 C83 1.366 . S
C84 H98 0.930 . S
C85 C82 1.378 . S
C85 N86 1.315 . S
C85 H88 0.930 . S
N86 Co66 2.194 . S
N86 C81 1.328 . S
N86 C85 1.315 . S
H87 C81 0.929 . S
H88 C85 0.930 . S
H89 C77 0.929 . S
H90 C79 0.929 . S
O91 Co66 2.351 . S
O91 C94 1.244 . S
O92 Co66 2.155 . S
O92 C94 1.240 . S
O93 Co66 2.096 . S
O93 C74 1.247 . S
C94 O91 1.244 . S
C94 O92 1.240 . S
H95 C69 0.931 1_545 S
H96 C78 0.931 . S
H97 C82 0.929 . S
H98 C84 0.930 . S
Co99 N103 2.148 . S
Co99 N109 2.128 . S
Co99 N119 2.194 . S
Co99 O124 2.351 . S
Co99 O125 2.155 . S
Co99 O126 2.096 . S
C100 N103 1.301 . S
C100 N104 1.328 . S
C100 H105 0.930 . S
C101 C102 1.333 . S
C101 N103 1.317 . S
C101 H106 0.930 1_545 S
C102 C101 1.333 . S
C102 N104 1.350 . S
C102 H128 0.931 1_545 S
N103 Co99 2.148 . S
N103 C100 1.301 . S
N103 C101 1.317 . S
N104 C100 1.328 . S
N104 C102 1.350 . S
H105 C100 0.930 . S
H106 C101 0.930 1_565 S
C107 O108 1.224 . S
C107 O126 1.247 . S
O108 C107 1.224 . S
N109 Co99 2.128 . S
N109 C110 1.355 . S
N109 C112 1.311 . S
C110 N109 1.355 . S
C110 C111 1.363 . S
C110 H122 0.929 . S
C111 C110 1.363 . S
C111 N113 1.375 . S
C111 H129 0.931 . S
C112 N109 1.311 . S
C112 N113 1.347 . S
C112 H123 0.929 . S
N113 C111 1.375 . S
N113 C112 1.347 . S
C114 C117 1.365 . S
C114 N119 1.328 . S
C114 H120 0.929 . S
C115 C116 1.362 . S
C115 C118 1.378 . S
C115 H130 0.929 . S
C116 C115 1.362 . S
C116 C117 1.366 . S
C117 C114 1.365 . S
C117 C116 1.366 . S
C117 H131 0.930 . S
C118 C115 1.378 . S
C118 N119 1.315 . S
C118 H121 0.930 . S
N119 Co99 2.194 . S
N119 C114 1.328 . S
N119 C118 1.315 . S
H120 C114 0.929 . S
H121 C118 0.930 . S
H122 C110 0.929 . S
H123 C112 0.929 . S
O124 Co99 2.351 . S
O124 C127 1.244 . S
O125 Co99 2.155 . S
O125 C127 1.240 . S
O126 Co99 2.096 . S
O126 C107 1.247 . S
C127 O124 1.244 . S
C127 O125 1.240 . S
H128 C102 0.931 1_565 S
H129 C111 0.931 . S
H130 C115 0.929 . S
H131 C117 0.930 . S
Co132 N136 2.148 . S
Co132 N142 2.128 . S
Co132 N152 2.194 . S
Co132 O157 2.351 . S
Co132 O158 2.155 . S
Co132 O159 2.096 . S
C133 N136 1.301 . S
C133 N137 1.328 . S
C133 H138 0.930 . S
C134 C135 1.333 . S
C134 N136 1.317 . S
C134 H139 0.930 1_655 S
C135 C134 1.333 . S
C135 N137 1.350 . S
C135 H161 0.931 1_655 S
N136 Co132 2.148 . S
N136 C133 1.301 . S
N136 C134 1.317 . S
N137 C133 1.328 . S
N137 C135 1.350 . S
H138 C133 0.930 . S
H139 C134 0.930 1_455 S
C140 O141 1.224 . S
C140 O159 1.247 . S
O141 C140 1.224 . S
N142 Co132 2.128 . S
N142 C143 1.355 . S
N142 C145 1.311 . S
C143 N142 1.355 . S
C143 C144 1.363 . S
C143 H155 0.929 . S
C144 C143 1.363 . S
C144 N146 1.375 . S
C144 H162 0.931 . S
C145 N142 1.311 . S
C145 N146 1.347 . S
C145 H156 0.929 . S
N146 C144 1.375 . S
N146 C145 1.347 . S
C147 C150 1.365 . S
C147 N152 1.328 . S
C147 H153 0.929 . S
C148 C149 1.362 . S
C148 C151 1.378 . S
C148 H163 0.929 . S
C149 C148 1.362 . S
C149 C150 1.366 . S
C150 C147 1.365 . S
C150 C149 1.366 . S
C150 H164 0.930 . S
C151 C148 1.378 . S
C151 N152 1.315 . S
C151 H154 0.930 . S
N152 Co132 2.194 . S
N152 C147 1.328 . S
N152 C151 1.315 . S
H153 C147 0.929 . S
H154 C151 0.930 . S
H155 C143 0.929 . S
H156 C145 0.929 . S
O157 Co132 2.351 . S
O157 C160 1.244 . S
O158 Co132 2.155 . S
O158 C160 1.240 . S
O159 Co132 2.096 . S
O159 C140 1.247 . S
C160 O157 1.244 . S
C160 O158 1.240 . S
H161 C135 0.931 1_455 S
H162 C144 0.931 . S
H163 C148 0.929 . S
H164 C150 0.930 . S
Co165 N169 2.148 . S
Co165 N175 2.128 . S
Co165 N185 2.194 . S
Co165 O190 2.351 . S
Co165 O191 2.155 . S
Co165 O192 2.096 . S
C166 N169 1.301 . S
C166 N170 1.328 . S
C166 H171 0.930 . S
C167 C168 1.333 . S
C167 N169 1.317 . S
C167 H172 0.930 . S
C168 C167 1.333 . S
C168 N170 1.350 . S
C168 H194 0.931 . S
N169 Co165 2.148 . S
N169 C166 1.301 . S
N169 C167 1.317 . S
N170 C166 1.328 . S
N170 C168 1.350 . S
H171 C166 0.930 . S
H172 C167 0.930 . S
C173 O174 1.224 . S
C173 O192 1.247 . S
O174 C173 1.224 . S
N175 Co165 2.128 . S
N175 C176 1.355 . S
N175 C178 1.311 . S
C176 N175 1.355 . S
C176 C177 1.363 . S
C176 H188 0.929 . S
C177 C176 1.363 . S
C177 N179 1.375 . S
C177 H195 0.931 . S
C178 N175 1.311 . S
C178 N179 1.347 . S
C178 H189 0.929 . S
N179 C177 1.375 . S
N179 C178 1.347 . S
C180 C183 1.365 . S
C180 N185 1.328 . S
C180 H186 0.929 . S
C181 C182 1.362 . S
C181 C184 1.378 . S
C181 H196 0.929 . S
C182 C181 1.362 . S
C182 C183 1.366 . S
C183 C180 1.365 . S
C183 C182 1.366 . S
C183 H197 0.930 . S
C184 C181 1.378 . S
C184 N185 1.315 . S
C184 H187 0.930 . S
N185 Co165 2.194 . S
N185 C180 1.328 . S
N185 C184 1.315 . S
H186 C180 0.929 . S
H187 C184 0.930 . S
H188 C176 0.929 . S
H189 C178 0.929 . S
O190 Co165 2.351 . S
O190 C193 1.244 . S
O191 Co165 2.155 . S
O191 C193 1.240 . S
O192 Co165 2.096 . S
O192 C173 1.247 . S
C193 O190 1.244 . S
C193 O191 1.240 . S
H194 C168 0.931 . S
H195 C177 0.931 . S
H196 C181 0.929 . S
H197 C183 0.930 . S
Co198 N202 2.148 . S
Co198 N208 2.128 . S
Co198 N218 2.194 . S
Co198 O223 2.351 . S
Co198 O224 2.155 . S
Co198 O225 2.096 . S
C199 N202 1.301 . S
C199 N203 1.328 . S
C199 H204 0.930 . S
C200 C201 1.333 . S
C200 N202 1.317 . S
C200 H205 0.930 1_655 S
C201 C200 1.333 . S
C201 N203 1.350 . S
C201 H227 0.931 1_655 S
N202 Co198 2.148 . S
N202 C199 1.301 . S
N202 C200 1.317 . S
N203 C199 1.328 . S
N203 C201 1.350 . S
H204 C199 0.930 . S
H205 C200 0.930 1_455 S
C206 O207 1.224 . S
C206 O225 1.247 . S
O207 C206 1.224 . S
N208 Co198 2.128 . S
N208 C209 1.355 . S
N208 C211 1.311 . S
C209 N208 1.355 . S
C209 C210 1.363 . S
C209 H221 0.929 . S
C210 C209 1.363 . S
C210 N212 1.375 . S
C210 H228 0.931 . S
C211 N208 1.311 . S
C211 N212 1.347 . S
C211 H222 0.929 . S
N212 C210 1.375 . S
N212 C211 1.347 . S
C213 C216 1.365 . S
C213 N218 1.328 . S
C213 H219 0.929 . S
C214 C215 1.362 . S
C214 C217 1.378 . S
C214 H229 0.929 . S
C215 C214 1.362 . S
C215 C216 1.366 . S
C216 C213 1.365 . S
C216 C215 1.366 . S
C216 H230 0.930 . S
C217 C214 1.378 . S
C217 N218 1.315 . S
C217 H220 0.930 . S
N218 Co198 2.194 . S
N218 C213 1.328 . S
N218 C217 1.315 . S
H219 C213 0.929 . S
H220 C217 0.930 . S
H221 C209 0.929 . S
H222 C211 0.929 . S
O223 Co198 2.351 . S
O223 C226 1.244 . S
O224 Co198 2.155 . S
O224 C226 1.240 . S
O225 Co198 2.096 . S
O225 C206 1.247 . S
C226 O223 1.244 . S
C226 O224 1.240 . S
H227 C201 0.931 1_455 S
H228 C210 0.931 . S
H229 C214 0.929 . S
H230 C216 0.930 . S
Co231 N235 2.148 . S
Co231 N241 2.128 . S
Co231 N251 2.194 . S
Co231 O256 2.351 . S
Co231 O257 2.155 . S
Co231 O258 2.096 . S
C232 N235 1.301 . S
C232 N236 1.328 . S
C232 H237 0.930 . S
C233 C234 1.333 . S
C233 N235 1.317 . S
C233 H238 0.930 . S
C234 C233 1.333 . S
C234 N236 1.350 . S
C234 H260 0.931 . S
N235 Co231 2.148 . S
N235 C232 1.301 . S
N235 C233 1.317 . S
N236 C232 1.328 . S
N236 C234 1.350 . S
H237 C232 0.930 . S
H238 C233 0.930 . S
C239 O240 1.224 . S
C239 O258 1.247 . S
O240 C239 1.224 . S
N241 Co231 2.128 . S
N241 C242 1.355 . S
N241 C244 1.311 . S
C242 N241 1.355 . S
C242 C243 1.363 . S
C242 H254 0.929 . S
C243 C242 1.363 . S
C243 N245 1.375 . S
C243 H261 0.931 . S
C244 N241 1.311 . S
C244 N245 1.347 . S
C244 H255 0.929 . S
N245 C243 1.375 . S
N245 C244 1.347 . S
C246 C249 1.365 . S
C246 N251 1.328 . S
C246 H252 0.929 . S
C247 C248 1.362 . S
C247 C250 1.378 . S
C247 H262 0.929 . S
C248 C247 1.362 . S
C248 C249 1.366 . S
C249 C246 1.365 . S
C249 C248 1.366 . S
C249 H263 0.930 . S
C250 C247 1.378 . S
C250 N251 1.315 . S
C250 H253 0.930 . S
N251 Co231 2.194 . S
N251 C246 1.328 . S
N251 C250 1.315 . S
H252 C246 0.929 . S
H253 C250 0.930 . S
H254 C242 0.929 . S
H255 C244 0.929 . S
O256 Co231 2.351 . S
O256 C259 1.244 . S
O257 Co231 2.155 . S
O257 C259 1.240 . S
O258 Co231 2.096 . S
O258 C239 1.247 . S
C259 O256 1.244 . S
C259 O257 1.240 . S
H260 C234 0.931 . S
H261 C243 0.931 . S
H262 C247 0.929 . S
H263 C249 0.930 . S
Co264 N268 2.148 . S
Co264 N274 2.128 . S
Co264 N284 2.194 . S
Co264 O289 2.351 . S
Co264 O290 2.155 . S
Co264 O291 2.096 . S
C265 N268 1.301 . S
C265 N269 1.328 . S
C265 H270 0.930 . S
C266 C267 1.333 . S
C266 N268 1.317 . S
C266 H271 0.930 1_545 S
C267 C266 1.333 . S
C267 N269 1.350 . S
C267 H293 0.931 1_545 S
N268 Co264 2.148 . S
N268 C265 1.301 . S
N268 C266 1.317 . S
N269 C265 1.328 . S
N269 C267 1.350 . S
H270 C265 0.930 . S
H271 C266 0.930 1_565 S
C272 O273 1.224 . S
C272 O291 1.247 . S
O273 C272 1.224 . S
N274 Co264 2.128 . S
N274 C275 1.355 . S
N274 C277 1.311 . S
C275 N274 1.355 . S
C275 C276 1.363 . S
C275 H287 0.929 . S
C276 C275 1.363 . S
C276 N278 1.375 . S
C276 H294 0.931 . S
C277 N274 1.311 . S
C277 N278 1.347 . S
C277 H288 0.929 . S
N278 C276 1.375 . S
N278 C277 1.347 . S
C279 C282 1.365 . S
C279 N284 1.328 . S
C279 H285 0.929 . S
C280 C281 1.362 . S
C280 C283 1.378 . S
C280 H295 0.929 . S
C281 C280 1.362 . S
C281 C282 1.366 . S
C282 C279 1.365 . S
C282 C281 1.366 . S
C282 H296 0.930 . S
C283 C280 1.378 . S
C283 N284 1.315 . S
C283 H286 0.930 . S
N284 Co264 2.194 . S
N284 C279 1.328 . S
N284 C283 1.315 . S
H285 C279 0.929 . S
H286 C283 0.930 . S
H287 C275 0.929 . S
H288 C277 0.929 . S
O289 Co264 2.351 . S
O289 C292 1.244 . S
O290 Co264 2.155 . S
O290 C292 1.240 . S
O291 Co264 2.096 . S
O291 C272 1.247 . S
C292 O289 1.244 . S
C292 O290 1.240 . S
H293 C267 0.931 1_565 S
H294 C276 0.931 . S
H295 C280 0.929 . S
H296 C282 0.930 . S
Co297 N301 2.148 . S
Co297 N307 2.128 . S
Co297 N317 2.194 . S
Co297 O322 2.351 . S
Co297 O323 2.155 . S
Co297 O324 2.096 . S
C298 N301 1.301 . S
C298 N302 1.328 . S
C298 H303 0.930 . S
C299 C300 1.333 . S
C299 N301 1.317 . S
C299 H304 0.930 1_565 S
C300 C299 1.333 . S
C300 N302 1.350 . S
C300 H326 0.931 1_565 S
N301 Co297 2.148 . S
N301 C298 1.301 . S
N301 C299 1.317 . S
N302 C298 1.328 . S
N302 C300 1.350 . S
H303 C298 0.930 . S
H304 C299 0.930 1_545 S
C305 O306 1.224 . S
C305 O324 1.247 . S
O306 C305 1.224 . S
N307 Co297 2.128 . S
N307 C308 1.355 . S
N307 C310 1.311 . S
C308 N307 1.355 . S
C308 C309 1.363 . S
C308 H320 0.929 . S
C309 C308 1.363 . S
C309 N311 1.375 . S
C309 H327 0.931 . S
C310 N307 1.311 . S
C310 N311 1.347 . S
C310 H321 0.929 . S
N311 C309 1.375 . S
N311 C310 1.347 . S
C312 C315 1.365 . S
C312 N317 1.328 . S
C312 H318 0.929 . S
C313 C314 1.362 . S
C313 C316 1.378 . S
C313 H328 0.929 . S
C314 C313 1.362 . S
C314 C315 1.366 . S
C315 C312 1.365 . S
C315 C314 1.366 . S
C315 H329 0.930 . S
C316 C313 1.378 . S
C316 N317 1.315 . S
C316 H319 0.930 . S
N317 Co297 2.194 . S
N317 C312 1.328 . S
N317 C316 1.315 . S
H318 C312 0.929 . S
H319 C316 0.930 . S
H320 C308 0.929 . S
H321 C310 0.929 . S
O322 Co297 2.351 . S
O322 C325 1.244 . S
O323 Co297 2.155 . S
O323 C325 1.240 . S
O324 Co297 2.096 . S
O324 C305 1.247 . S
C325 O322 1.244 . S
C325 O323 1.240 . S
H326 C300 0.931 1_545 S
H327 C309 0.931 . S
H328 C313 0.929 . S
H329 C315 0.930 . S
Co330 N334 2.148 . S
Co330 N340 2.128 . S
Co330 N350 2.194 . S
Co330 O355 2.351 . S
Co330 O356 2.155 . S
Co330 O357 2.096 . S
C331 N334 1.301 . S
C331 N335 1.328 . S
C331 H336 0.930 . S
C332 C333 1.333 . S
C332 N334 1.317 . S
C332 H337 0.930 1_455 S
C333 C332 1.333 . S
C333 N335 1.350 . S
C333 H359 0.931 1_455 S
N334 Co330 2.148 . S
N334 C331 1.301 . S
N334 C332 1.317 . S
N335 C331 1.328 . S
N335 C333 1.350 . S
H336 C331 0.930 . S
H337 C332 0.930 1_655 S
C338 O339 1.224 . S
C338 O357 1.247 . S
O339 C338 1.224 . S
N340 Co330 2.128 . S
N340 C341 1.355 . S
N340 C343 1.311 . S
C341 N340 1.355 . S
C341 C342 1.363 . S
C341 H353 0.929 . S
C342 C341 1.363 . S
C342 N344 1.375 . S
C342 H360 0.931 . S
C343 N340 1.311 . S
C343 N344 1.347 . S
C343 H354 0.929 . S
N344 C342 1.375 . S
N344 C343 1.347 . S
C345 C348 1.365 . S
C345 N350 1.328 . S
C345 H351 0.929 . S
C346 C347 1.362 . S
C346 C349 1.378 . S
C346 H361 0.929 . S
C347 C346 1.362 . S
C347 C348 1.366 . S
C348 C345 1.365 . S
C348 C347 1.366 . S
C348 H362 0.930 . S
C349 C346 1.378 . S
C349 N350 1.315 . S
C349 H352 0.930 . S
N350 Co330 2.194 . S
N350 C345 1.328 . S
N350 C349 1.315 . S
H351 C345 0.929 . S
H352 C349 0.930 . S
H353 C341 0.929 . S
H354 C343 0.929 . S
O355 Co330 2.351 . S
O355 C358 1.244 . S
O356 Co330 2.155 . S
O356 C358 1.240 . S
O357 Co330 2.096 . S
O357 C338 1.247 . S
C358 O355 1.244 . S
C358 O356 1.240 . S
H359 C333 0.931 1_655 S
H360 C342 0.931 . S
H361 C346 0.929 . S
H362 C348 0.930 . S
Co363 N367 2.148 . S
Co363 N373 2.128 . S
Co363 N383 2.194 . S
Co363 O388 2.351 . S
Co363 O389 2.155 . S
Co363 O390 2.096 . S
C364 N367 1.301 . S
C364 N368 1.328 . S
C364 H369 0.930 . S
C365 C366 1.333 . S
C365 N367 1.317 . S
C365 H370 0.930 . S
C366 C365 1.333 . S
C366 N368 1.350 . S
C366 H392 0.931 . S
N367 Co363 2.148 . S
N367 C364 1.301 . S
N367 C365 1.317 . S
N368 C364 1.328 . S
N368 C366 1.350 . S
H369 C364 0.930 . S
H370 C365 0.930 . S
C371 O372 1.224 . S
C371 O390 1.247 . S
O372 C371 1.224 . S
N373 Co363 2.128 . S
N373 C374 1.355 . S
N373 C376 1.311 . S
C374 N373 1.355 . S
C374 C375 1.363 . S
C374 H386 0.929 . S
C375 C374 1.363 . S
C375 N377 1.375 . S
C375 H393 0.931 . S
C376 N373 1.311 . S
C376 N377 1.347 . S
C376 H387 0.929 . S
N377 C375 1.375 . S
N377 C376 1.347 . S
C378 C381 1.365 . S
C378 N383 1.328 . S
C378 H384 0.929 . S
C379 C380 1.362 . S
C379 C382 1.378 . S
C379 H394 0.929 . S
C380 C379 1.362 . S
C380 C381 1.366 . S
C381 C378 1.365 . S
C381 C380 1.366 . S
C381 H395 0.930 . S
C382 C379 1.378 . S
C382 N383 1.315 . S
C382 H385 0.930 . S
N383 Co363 2.194 . S
N383 C378 1.328 . S
N383 C382 1.315 . S
H384 C378 0.929 . S
H385 C382 0.930 . S
H386 C374 0.929 . S
H387 C376 0.929 . S
O388 Co363 2.351 . S
O388 C391 1.244 . S
O389 Co363 2.155 . S
O389 C391 1.240 . S
O390 Co363 2.096 . S
O390 C371 1.247 . S
C391 O388 1.244 . S
C391 O389 1.240 . S
H392 C366 0.931 . S
H393 C375 0.931 . S
H394 C379 0.929 . S
H395 C381 0.930 . S
Co396 N400 2.148 . S
Co396 N406 2.128 . S
Co396 N416 2.194 . S
Co396 O421 2.351 . S
Co396 O422 2.155 . S
Co396 O423 2.096 . S
C397 N400 1.301 . S
C397 N401 1.328 . S
C397 H402 0.930 . S
C398 C399 1.333 . S
C398 N400 1.317 . S
C398 H403 0.930 . S
C399 C398 1.333 . S
C399 N401 1.350 . S
C399 H425 0.931 . S
N400 Co396 2.148 . S
N400 C397 1.301 . S
N400 C398 1.317 . S
N401 C397 1.328 . S
N401 C399 1.350 . S
H402 C397 0.930 . S
H403 C398 0.930 . S
C404 O405 1.224 . S
C404 O423 1.247 . S
O405 C404 1.224 . S
N406 Co396 2.128 . S
N406 C407 1.355 . S
N406 C409 1.311 . S
C407 N406 1.355 . S
C407 C408 1.363 . S
C407 H419 0.929 . S
C408 C407 1.363 . S
C408 N410 1.375 . S
C408 H426 0.931 . S
C409 N406 1.311 . S
C409 N410 1.347 . S
C409 H420 0.929 . S
N410 C408 1.375 . S
N410 C409 1.347 . S
C411 C414 1.365 . S
C411 N416 1.328 . S
C411 H417 0.929 . S
C412 C413 1.362 . S
C412 C415 1.378 . S
C412 H427 0.929 . S
C413 C412 1.362 . S
C413 C414 1.366 . S
C414 C411 1.365 . S
C414 C413 1.366 . S
C414 H428 0.930 . S
C415 C412 1.378 . S
C415 N416 1.315 . S
C415 H418 0.930 . S
N416 Co396 2.194 . S
N416 C411 1.328 . S
N416 C415 1.315 . S
H417 C411 0.929 . S
H418 C415 0.930 . S
H419 C407 0.929 . S
H420 C409 0.929 . S
O421 Co396 2.351 . S
O421 C424 1.244 . S
O422 Co396 2.155 . S
O422 C424 1.240 . S
O423 Co396 2.096 . S
O423 C404 1.247 . S
C424 O421 1.244 . S
C424 O422 1.240 . S
H425 C399 0.931 . S
H426 C408 0.931 . S
H427 C412 0.929 . S
H428 C414 0.930 . S
Co429 N433 2.148 . S
Co429 N439 2.128 . S
Co429 N449 2.194 . S
Co429 O454 2.351 . S
Co429 O455 2.155 . S
Co429 O456 2.096 . S
C430 N433 1.301 . S
C430 N434 1.328 . S
C430 H435 0.930 . S
C431 C432 1.333 . S
C431 N433 1.317 . S
C431 H436 0.930 . S
C432 C431 1.333 . S
C432 N434 1.350 . S
C432 H458 0.931 . S
N433 Co429 2.148 . S
N433 C430 1.301 . S
N433 C431 1.317 . S
N434 C430 1.328 . S
N434 C432 1.350 . S
H435 C430 0.930 . S
H436 C431 0.930 . S
C437 O438 1.224 . S
C437 O456 1.247 . S
O438 C437 1.224 . S
N439 Co429 2.128 . S
N439 C440 1.355 . S
N439 C442 1.311 . S
C440 N439 1.355 . S
C440 C441 1.363 . S
C440 H452 0.929 . S
C441 C440 1.363 . S
C441 N443 1.375 . S
C441 H459 0.931 . S
C442 N439 1.311 . S
C442 N443 1.347 . S
C442 H453 0.929 . S
N443 C441 1.375 . S
N443 C442 1.347 . S
C444 C447 1.365 . S
C444 N449 1.328 . S
C444 H450 0.929 . S
C445 C446 1.362 . S
C445 C448 1.378 . S
C445 H460 0.929 . S
C446 C445 1.362 . S
C446 C447 1.366 . S
C447 C444 1.365 . S
C447 C446 1.366 . S
C447 H461 0.930 . S
C448 C445 1.378 . S
C448 N449 1.315 . S
C448 H451 0.930 . S
N449 Co429 2.194 . S
N449 C444 1.328 . S
N449 C448 1.315 . S
H450 C444 0.929 . S
H451 C448 0.930 . S
H452 C440 0.929 . S
H453 C442 0.929 . S
O454 Co429 2.351 . S
O454 C457 1.244 . S
O455 Co429 2.155 . S
O455 C457 1.240 . S
O456 Co429 2.096 . S
O456 C437 1.247 . S
C457 O454 1.244 . S
C457 O455 1.240 . S
H458 C432 0.931 . S
H459 C441 0.931 . S
H460 C445 0.929 . S
H461 C447 0.930 . S
Co462 N466 2.148 . S
Co462 N472 2.128 . S
Co462 N482 2.194 . S
Co462 O487 2.351 . S
Co462 O488 2.155 . S
Co462 O489 2.096 . S
C463 N466 1.301 . S
C463 N467 1.328 . S
C463 H468 0.930 . S
C464 C465 1.333 . S
C464 N466 1.317 . S
C464 H469 0.930 . S
C465 C464 1.333 . S
C465 N467 1.350 . S
C465 H491 0.931 . S
N466 Co462 2.148 . S
N466 C463 1.301 . S
N466 C464 1.317 . S
N467 C463 1.328 . S
N467 C465 1.350 . S
H468 C463 0.930 . S
H469 C464 0.930 . S
C470 O471 1.224 . S
C470 O489 1.247 . S
O471 C470 1.224 . S
N472 Co462 2.128 . S
N472 C473 1.355 . S
N472 C475 1.311 . S
C473 N472 1.355 . S
C473 C474 1.363 . S
C473 H485 0.929 . S
C474 C473 1.363 . S
C474 N476 1.375 . S
C474 H492 0.931 . S
C475 N472 1.311 . S
C475 N476 1.347 . S
C475 H486 0.929 . S
N476 C474 1.375 . S
N476 C475 1.347 . S
C477 C480 1.365 . S
C477 N482 1.328 . S
C477 H483 0.929 . S
C478 C479 1.362 . S
C478 C481 1.378 . S
C478 H493 0.929 . S
C479 C478 1.362 . S
C479 C480 1.366 . S
C480 C477 1.365 . S
C480 C479 1.366 . S
C480 H494 0.930 . S
C481 C478 1.378 . S
C481 N482 1.315 . S
C481 H484 0.930 . S
N482 Co462 2.194 . S
N482 C477 1.328 . S
N482 C481 1.315 . S
H483 C477 0.929 . S
H484 C481 0.930 . S
H485 C473 0.929 . S
H486 C475 0.929 . S
O487 Co462 2.351 . S
O487 C490 1.244 . S
O488 Co462 2.155 . S
O488 C490 1.240 . S
O489 Co462 2.096 . S
O489 C470 1.247 . S
C490 O487 1.244 . S
C490 O488 1.240 . S
H491 C465 0.931 . S
H492 C474 0.931 . S
H493 C478 0.929 . S
H494 C480 0.930 . S
Co495 N499 2.148 . S
Co495 N505 2.128 . S
Co495 N515 2.194 . S
Co495 O520 2.351 . S
Co495 O521 2.155 . S
Co495 O522 2.096 . S
C496 N499 1.301 . S
C496 N500 1.328 . S
C496 H501 0.930 1_655 S
C497 C498 1.333 . S
C497 N499 1.317 . S
C497 H502 0.930 . S
C498 C497 1.333 . S
C498 N500 1.350 . S
C498 H524 0.931 . S
N499 Co495 2.148 . S
N499 C496 1.301 . S
N499 C497 1.317 . S
N500 C496 1.328 . S
N500 C498 1.350 . S
H501 C496 0.930 1_455 S
H502 C497 0.930 . S
C503 O504 1.224 . S
C503 O522 1.247 . S
O504 C503 1.224 . S
N505 Co495 2.128 . S
N505 C506 1.355 . S
N505 C508 1.311 . S
C506 N505 1.355 . S
C506 C507 1.363 . S
C506 H518 0.929 . S
C507 C506 1.363 . S
C507 N509 1.375 . S
C507 H525 0.931 . S
C508 N505 1.311 . S
C508 N509 1.347 . S
C508 H519 0.929 . S
N509 C507 1.375 . S
N509 C508 1.347 . S
C510 C513 1.365 . S
C510 N515 1.328 . S
C510 H516 0.929 . S
C511 C512 1.362 . S
C511 C514 1.378 . S
C511 H526 0.929 . S
C512 C511 1.362 . S
C512 C513 1.366 . S
C513 C510 1.365 . S
C513 C512 1.366 . S
C513 H527 0.930 1_655 S
C514 C511 1.378 . S
C514 N515 1.315 . S
C514 H517 0.930 . S
N515 Co495 2.194 . S
N515 C510 1.328 . S
N515 C514 1.315 . S
H516 C510 0.929 . S
H517 C514 0.930 . S
H518 C506 0.929 . S
H519 C508 0.929 . S
O520 Co495 2.351 . S
O520 C523 1.244 . S
O521 Co495 2.155 . S
O521 C523 1.240 . S
O522 Co495 2.096 . S
O522 C503 1.247 . S
C523 O520 1.244 . S
C523 O521 1.240 . S
H524 C498 0.931 . S
H525 C507 0.931 . S
H526 C511 0.929 . S
H527 C513 0.930 1_455 S
Co528 N532 2.148 . S
Co528 N538 2.128 . S
Co528 N548 2.194 . S
Co528 O553 2.351 . S
Co528 O554 2.155 . S
Co528 O555 2.096 . S
C529 N532 1.301 . S
C529 N533 1.328 . S
C529 H534 0.930 . S
C530 C531 1.333 . S
C530 N532 1.317 . S
C530 H535 0.930 . S
C531 C530 1.333 . S
C531 N533 1.350 . S
C531 H557 0.931 . S
N532 Co528 2.148 . S
N532 C529 1.301 . S
N532 C530 1.317 . S
N533 C529 1.328 . S
N533 C531 1.350 . S
H534 C529 0.930 . S
H535 C530 0.930 . S
C536 O537 1.224 . S
C536 O555 1.247 . S
O537 C536 1.224 . S
N538 Co528 2.128 . S
N538 C539 1.355 . S
N538 C541 1.311 . S
C539 N538 1.355 . S
C539 C540 1.363 . S
C539 H551 0.929 . S
C540 C539 1.363 . S
C540 N542 1.375 . S
C540 H558 0.931 . S
C541 N538 1.311 . S
C541 N542 1.347 . S
C541 H552 0.929 . S
N542 C540 1.375 . S
N542 C541 1.347 . S
C543 C546 1.365 . S
C543 N548 1.328 . S
C543 H549 0.929 . S
C544 C545 1.362 . S
C544 C547 1.378 . S
C544 H559 0.929 . S
C545 C544 1.362 . S
C545 C546 1.366 . S
C546 C543 1.365 . S
C546 C545 1.366 . S
C546 H560 0.930 . S
C547 C544 1.378 . S
C547 N548 1.315 . S
C547 H550 0.930 . S
N548 Co528 2.194 . S
N548 C543 1.328 . S
N548 C547 1.315 . S
H549 C543 0.929 . S
H550 C547 0.930 . S
H551 C539 0.929 . S
H552 C541 0.929 . S
O553 Co528 2.351 . S
O553 C556 1.244 . S
O554 Co528 2.155 . S
O554 C556 1.240 . S
O555 Co528 2.096 . S
O555 C536 1.247 . S
C556 O553 1.244 . S
C556 O554 1.240 . S
H557 C531 0.931 . S
H558 C540 0.931 . S
H559 C544 0.929 . S
H560 C546 0.930 . S
Co561 N565 2.148 . S
Co561 N571 2.128 . S
Co561 N581 2.194 . S
Co561 O586 2.351 . S
Co561 O587 2.155 . S
Co561 O588 2.096 . S
C562 N565 1.301 . S
C562 N566 1.328 . S
C562 H567 0.930 1_545 S
C563 C564 1.333 . S
C563 N565 1.317 . S
C563 H568 0.930 . S
C564 C563 1.333 . S
C564 N566 1.350 . S
C564 H590 0.931 . S
N565 Co561 2.148 . S
N565 C562 1.301 . S
N565 C563 1.317 . S
N566 C562 1.328 . S
N566 C564 1.350 . S
H567 C562 0.930 1_565 S
H568 C563 0.930 . S
C569 O570 1.224 . S
C569 O588 1.247 . S
O570 C569 1.224 . S
N571 Co561 2.128 . S
N571 C572 1.355 . S
N571 C574 1.311 . S
C572 N571 1.355 . S
C572 C573 1.363 . S
C572 H584 0.929 . S
C573 C572 1.363 . S
C573 N575 1.375 . S
C573 H591 0.931 . S
C574 N571 1.311 . S
C574 N575 1.347 . S
C574 H585 0.929 . S
N575 C573 1.375 . S
N575 C574 1.347 . S
C576 C579 1.365 . S
C576 N581 1.328 . S
C576 H582 0.929 . S
C577 C578 1.362 . S
C577 C580 1.378 . S
C577 H592 0.929 . S
C578 C577 1.362 . S
C578 C579 1.366 . S
C579 C576 1.365 . S
C579 C578 1.366 . S
C579 H593 0.930 1_545 S
C580 C577 1.378 . S
C580 N581 1.315 . S
C580 H583 0.930 . S
N581 Co561 2.194 . S
N581 C576 1.328 . S
N581 C580 1.315 . S
H582 C576 0.929 . S
H583 C580 0.930 . S
H584 C572 0.929 . S
H585 C574 0.929 . S
O586 Co561 2.351 . S
O586 C589 1.244 . S
O587 Co561 2.155 . S
O587 C589 1.240 . S
O588 Co561 2.096 . S
O588 C569 1.247 . S
C589 O586 1.244 . S
C589 O587 1.240 . S
H590 C564 0.931 . S
H591 C573 0.931 . S
H592 C577 0.929 . S
H593 C579 0.930 1_565 S
Co594 N598 2.148 . S
Co594 N604 2.128 . S
Co594 N614 2.194 . S
Co594 O619 2.351 . S
Co594 O620 2.155 . S
Co594 O621 2.096 . S
C595 N598 1.301 . S
C595 N599 1.328 . S
C595 H600 0.930 1_545 S
C596 C597 1.333 . S
C596 N598 1.317 . S
C596 H601 0.930 . S
C597 C596 1.333 . S
C597 N599 1.350 . S
C597 H623 0.931 . S
N598 Co594 2.148 . S
N598 C595 1.301 . S
N598 C596 1.317 . S
N599 C595 1.328 . S
N599 C597 1.350 . S
H600 C595 0.930 1_565 S
H601 C596 0.930 . S
C602 O603 1.224 . S
C602 O621 1.247 . S
O603 C602 1.224 . S
N604 Co594 2.128 . S
N604 C605 1.355 . S
N604 C607 1.311 . S
C605 N604 1.355 . S
C605 C606 1.363 . S
C605 H617 0.929 . S
C606 C605 1.363 . S
C606 N608 1.375 . S
C606 H624 0.931 . S
C607 N604 1.311 . S
C607 N608 1.347 . S
C607 H618 0.929 . S
N608 C606 1.375 . S
N608 C607 1.347 . S
C609 C612 1.365 . S
C609 N614 1.328 . S
C609 H615 0.929 . S
C610 C611 1.362 . S
C610 C613 1.378 . S
C610 H625 0.929 . S
C611 C610 1.362 . S
C611 C612 1.366 . S
C612 C609 1.365 . S
C612 C611 1.366 . S
C612 H626 0.930 1_545 S
C613 C610 1.378 . S
C613 N614 1.315 . S
C613 H616 0.930 . S
N614 Co594 2.194 . S
N614 C609 1.328 . S
N614 C613 1.315 . S
H615 C609 0.929 . S
H616 C613 0.930 . S
H617 C605 0.929 . S
H618 C607 0.929 . S
O619 Co594 2.351 . S
O619 C622 1.244 . S
O620 Co594 2.155 . S
O620 C622 1.240 . S
O621 Co594 2.096 . S
O621 C602 1.247 . S
C622 O619 1.244 . S
C622 O620 1.240 . S
H623 C597 0.931 . S
H624 C606 0.931 . S
H625 C610 0.929 . S
H626 C612 0.930 1_565 S
Co627 N631 2.148 . S
Co627 N637 2.128 . S
Co627 N647 2.194 . S
Co627 O652 2.351 . S
Co627 O653 2.155 . S
Co627 O654 2.096 . S
C628 N631 1.301 . S
C628 N632 1.328 . S
C628 H633 0.930 1_655 S
C629 C630 1.333 . S
C629 N631 1.317 . S
C629 H634 0.930 . S
C630 C629 1.333 . S
C630 N632 1.350 . S
C630 H656 0.931 . S
N631 Co627 2.148 . S
N631 C628 1.301 . S
N631 C629 1.317 . S
N632 C628 1.328 . S
N632 C630 1.350 . S
H633 C628 0.930 1_455 S
H634 C629 0.930 . S
C635 O636 1.224 . S
C635 O654 1.247 . S
O636 C635 1.224 . S
N637 Co627 2.128 . S
N637 C638 1.355 . S
N637 C640 1.311 . S
C638 N637 1.355 . S
C638 C639 1.363 . S
C638 H650 0.929 . S
C639 C638 1.363 . S
C639 N641 1.375 . S
C639 H657 0.931 . S
C640 N637 1.311 . S
C640 N641 1.347 . S
C640 H651 0.929 . S
N641 C639 1.375 . S
N641 C640 1.347 . S
C642 C645 1.365 . S
C642 N647 1.328 . S
C642 H648 0.929 . S
C643 C644 1.362 . S
C643 C646 1.378 . S
C643 H658 0.929 . S
C644 C643 1.362 . S
C644 C645 1.366 . S
C645 C642 1.365 . S
C645 C644 1.366 . S
C645 H659 0.930 1_655 S
C646 C643 1.378 . S
C646 N647 1.315 . S
C646 H649 0.930 . S
N647 Co627 2.194 . S
N647 C642 1.328 . S
N647 C646 1.315 . S
H648 C642 0.929 . S
H649 C646 0.930 . S
H650 C638 0.929 . S
H651 C640 0.929 . S
O652 Co627 2.351 . S
O652 C655 1.244 . S
O653 Co627 2.155 . S
O653 C655 1.240 . S
O654 Co627 2.096 . S
O654 C635 1.247 . S
C655 O652 1.244 . S
C655 O653 1.240 . S
H656 C630 0.931 . S
H657 C639 0.931 . S
H658 C643 0.929 . S
H659 C645 0.930 1_455 S
Co660 N664 2.148 . S
Co660 N670 2.128 . S
Co660 N680 2.194 . S
Co660 O685 2.351 . S
Co660 O686 2.155 . S
Co660 O687 2.096 . S
C661 N664 1.301 . S
C661 N665 1.328 . S
C661 H666 0.930 . S
C662 C663 1.333 . S
C662 N664 1.317 . S
C662 H667 0.930 . S
C663 C662 1.333 . S
C663 N665 1.350 . S
C663 H689 0.931 . S
N664 Co660 2.148 . S
N664 C661 1.301 . S
N664 C662 1.317 . S
N665 C661 1.328 . S
N665 C663 1.350 . S
H666 C661 0.930 . S
H667 C662 0.930 . S
C668 O669 1.224 . S
C668 O687 1.247 . S
O669 C668 1.224 . S
N670 Co660 2.128 . S
N670 C671 1.355 . S
N670 C673 1.311 . S
C671 N670 1.355 . S
C671 C672 1.363 . S
C671 H683 0.929 . S
C672 C671 1.363 . S
C672 N674 1.375 . S
C672 H690 0.931 . S
C673 N670 1.311 . S
C673 N674 1.347 . S
C673 H684 0.929 . S
N674 C672 1.375 . S
N674 C673 1.347 . S
C675 C678 1.365 . S
C675 N680 1.328 . S
C675 H681 0.929 . S
C676 C677 1.362 . S
C676 C679 1.378 . S
C676 H691 0.929 . S
C677 C676 1.362 . S
C677 C678 1.366 . S
C678 C675 1.365 . S
C678 C677 1.366 . S
C678 H692 0.930 . S
C679 C676 1.378 . S
C679 N680 1.315 . S
C679 H682 0.930 . S
N680 Co660 2.194 . S
N680 C675 1.328 . S
N680 C679 1.315 . S
H681 C675 0.929 . S
H682 C679 0.930 . S
H683 C671 0.929 . S
H684 C673 0.929 . S
O685 Co660 2.351 . S
O685 C688 1.244 . S
O686 Co660 2.155 . S
O686 C688 1.240 . S
O687 Co660 2.096 . S
O687 C668 1.247 . S
C688 O685 1.244 . S
C688 O686 1.240 . S
H689 C663 0.931 . S
H690 C672 0.931 . S
H691 C676 0.929 . S
H692 C678 0.930 . S
Co693 N697 2.148 . S
Co693 N703 2.128 . S
Co693 N713 2.194 . S
Co693 O718 2.351 . S
Co693 O719 2.155 . S
Co693 O720 2.096 . S
C694 N697 1.301 . S
C694 N698 1.328 . S
C694 H699 0.930 . S
C695 C696 1.333 . S
C695 N697 1.317 . S
C695 H700 0.930 . S
C696 C695 1.333 . S
C696 N698 1.350 . S
C696 H722 0.931 . S
N697 Co693 2.148 . S
N697 C694 1.301 . S
N697 C695 1.317 . S
N698 C694 1.328 . S
N698 C696 1.350 . S
H699 C694 0.930 . S
H700 C695 0.930 . S
C701 O702 1.224 . S
C701 O720 1.247 . S
O702 C701 1.224 . S
N703 Co693 2.128 . S
N703 C704 1.355 . S
N703 C706 1.311 . S
C704 N703 1.355 . S
C704 C705 1.363 . S
C704 H716 0.929 . S
C705 C704 1.363 . S
C705 N707 1.375 . S
C705 H723 0.931 . S
C706 N703 1.311 . S
C706 N707 1.347 . S
C706 H717 0.929 . S
N707 C705 1.375 . S
N707 C706 1.347 . S
C708 C711 1.365 . S
C708 N713 1.328 . S
C708 H714 0.929 . S
C709 C710 1.362 . S
C709 C712 1.378 . S
C709 H724 0.929 . S
C710 C709 1.362 . S
C710 C711 1.366 . S
C711 C708 1.365 . S
C711 C710 1.366 . S
C711 H725 0.930 . S
C712 C709 1.378 . S
C712 N713 1.315 . S
C712 H715 0.930 . S
N713 Co693 2.194 . S
N713 C708 1.328 . S
N713 C712 1.315 . S
H714 C708 0.929 . S
H715 C712 0.930 . S
H716 C704 0.929 . S
H717 C706 0.929 . S
O718 Co693 2.351 . S
O718 C721 1.244 . S
O719 Co693 2.155 . S
O719 C721 1.240 . S
O720 Co693 2.096 . S
O720 C701 1.247 . S
C721 O718 1.244 . S
C721 O719 1.240 . S
H722 C696 0.931 . S
H723 C705 0.931 . S
H724 C709 0.929 . S
H725 C711 0.930 . S
Co726 N730 2.148 . S
Co726 N736 2.128 . S
Co726 N746 2.194 . S
Co726 O751 2.351 . S
Co726 O752 2.155 . S
Co726 O753 2.096 . S
C727 N730 1.301 . S
C727 N731 1.328 . S
C727 H732 0.930 . S
C728 C729 1.333 . S
C728 N730 1.317 . S
C728 H733 0.930 . S
C729 C728 1.333 . S
C729 N731 1.350 . S
C729 H755 0.931 . S
N730 Co726 2.148 . S
N730 C727 1.301 . S
N730 C728 1.317 . S
N731 C727 1.328 . S
N731 C729 1.350 . S
H732 C727 0.930 . S
H733 C728 0.930 . S
C734 O735 1.224 . S
C734 O753 1.247 . S
O735 C734 1.224 . S
N736 Co726 2.128 . S
N736 C737 1.355 . S
N736 C739 1.311 . S
C737 N736 1.355 . S
C737 C738 1.363 . S
C737 H749 0.929 . S
C738 C737 1.363 . S
C738 N740 1.375 . S
C738 H756 0.931 . S
C739 N736 1.311 . S
C739 N740 1.347 . S
C739 H750 0.929 . S
N740 C738 1.375 . S
N740 C739 1.347 . S
C741 C744 1.365 . S
C741 N746 1.328 . S
C741 H747 0.929 . S
C742 C743 1.362 . S
C742 C745 1.378 . S
C742 H757 0.929 . S
C743 C742 1.362 . S
C743 C744 1.366 . S
C744 C741 1.365 . S
C744 C743 1.366 . S
C744 H758 0.930 . S
C745 C742 1.378 . S
C745 N746 1.315 . S
C745 H748 0.930 . S
N746 Co726 2.194 . S
N746 C741 1.328 . S
N746 C745 1.315 . S
H747 C741 0.929 . S
H748 C745 0.930 . S
H749 C737 0.929 . S
H750 C739 0.929 . S
O751 Co726 2.351 . S
O751 C754 1.244 . S
O752 Co726 2.155 . S
O752 C754 1.240 . S
O753 Co726 2.096 . S
O753 C734 1.247 . S
C754 O751 1.244 . S
C754 O752 1.240 . S
H755 C729 0.931 . S
H756 C738 0.931 . S
H757 C742 0.929 . S
H758 C744 0.930 . S
Co759 N763 2.148 . S
Co759 N769 2.128 . S
Co759 N779 2.194 . S
Co759 O784 2.351 . S
Co759 O785 2.155 . S
Co759 O786 2.096 . S
C760 N763 1.301 . S
C760 N764 1.328 . S
C760 H765 0.930 . S
C761 C762 1.333 . S
C761 N763 1.317 . S
C761 H766 0.930 . S
C762 C761 1.333 . S
C762 N764 1.350 . S
C762 H788 0.931 . S
N763 Co759 2.148 . S
N763 C760 1.301 . S
N763 C761 1.317 . S
N764 C760 1.328 . S
N764 C762 1.350 . S
H765 C760 0.930 . S
H766 C761 0.930 . S
C767 O768 1.224 . S
C767 O786 1.247 . S
O768 C767 1.224 . S
N769 Co759 2.128 . S
N769 C770 1.355 . S
N769 C772 1.311 . S
C770 N769 1.355 . S
C770 C771 1.363 . S
C770 H782 0.929 . S
C771 C770 1.363 . S
C771 N773 1.375 . S
C771 H789 0.931 . S
C772 N769 1.311 . S
C772 N773 1.347 . S
C772 H783 0.929 . S
N773 C771 1.375 . S
N773 C772 1.347 . S
C774 C777 1.365 . S
C774 N779 1.328 . S
C774 H780 0.929 . S
C775 C776 1.362 . S
C775 C778 1.378 . S
C775 H790 0.929 . S
C776 C775 1.362 . S
C776 C777 1.366 . S
C777 C774 1.365 . S
C777 C776 1.366 . S
C777 H791 0.930 . S
C778 C775 1.378 . S
C778 N779 1.315 . S
C778 H781 0.930 . S
N779 Co759 2.194 . S
N779 C774 1.328 . S
N779 C778 1.315 . S
H780 C774 0.929 . S
H781 C778 0.930 . S
H782 C770 0.929 . S
H783 C772 0.929 . S
O784 Co759 2.351 . S
O784 C787 1.244 . S
O785 Co759 2.155 . S
O785 C787 1.240 . S
O786 Co759 2.096 . S
O786 C767 1.247 . S
C787 O784 1.244 . S
C787 O785 1.240 . S
H788 C762 0.931 . S
H789 C771 0.931 . S
H790 C775 0.929 . S
H791 C777 0.930 . S
Co792 N796 2.148 . S
Co792 N802 2.128 . S
Co792 N812 2.194 . S
Co792 O817 2.351 . S
Co792 O818 2.155 . S
Co792 O819 2.096 . S
C793 N796 1.301 . S
C793 N797 1.328 . S
C793 H798 0.930 1_565 S
C794 C795 1.333 . S
C794 N796 1.317 . S
C794 H799 0.930 . S
C795 C794 1.333 . S
C795 N797 1.350 . S
C795 H821 0.931 . S
N796 Co792 2.148 . S
N796 C793 1.301 . S
N796 C794 1.317 . S
N797 C793 1.328 . S
N797 C795 1.350 . S
H798 C793 0.930 1_545 S
H799 C794 0.930 . S
C800 O801 1.224 . S
C800 O819 1.247 . S
O801 C800 1.224 . S
N802 Co792 2.128 . S
N802 C803 1.355 . S
N802 C805 1.311 . S
C803 N802 1.355 . S
C803 C804 1.363 . S
C803 H815 0.929 . S
C804 C803 1.363 . S
C804 N806 1.375 . S
C804 H822 0.931 . S
C805 N802 1.311 . S
C805 N806 1.347 . S
C805 H816 0.929 . S
N806 C804 1.375 . S
N806 C805 1.347 . S
C807 C810 1.365 . S
C807 N812 1.328 . S
C807 H813 0.929 . S
C808 C809 1.362 . S
C808 C811 1.378 . S
C808 H823 0.929 . S
C809 C808 1.362 . S
C809 C810 1.366 . S
C810 C807 1.365 . S
C810 C809 1.366 . S
C810 H824 0.930 1_565 S
C811 C808 1.378 . S
C811 N812 1.315 . S
C811 H814 0.930 . S
N812 Co792 2.194 . S
N812 C807 1.328 . S
N812 C811 1.315 . S
H813 C807 0.929 . S
H814 C811 0.930 . S
H815 C803 0.929 . S
H816 C805 0.929 . S
O817 Co792 2.351 . S
O817 C820 1.244 . S
O818 Co792 2.155 . S
O818 C820 1.240 . S
O819 Co792 2.096 . S
O819 C800 1.247 . S
C820 O817 1.244 . S
C820 O818 1.240 . S
H821 C795 0.931 . S
H822 C804 0.931 . S
H823 C808 0.929 . S
H824 C810 0.930 1_545 S
Co825 N829 2.148 . S
Co825 N835 2.128 . S
Co825 N845 2.194 . S
Co825 O850 2.351 . S
Co825 O851 2.155 . S
Co825 O852 2.096 . S
C826 N829 1.301 . S
C826 N830 1.328 . S
C826 H831 0.930 1_455 S
C827 C828 1.333 . S
C827 N829 1.317 . S
C827 H832 0.930 . S
C828 C827 1.333 . S
C828 N830 1.350 . S
C828 H854 0.931 . S
N829 Co825 2.148 . S
N829 C826 1.301 . S
N829 C827 1.317 . S
N830 C826 1.328 . S
N830 C828 1.350 . S
H831 C826 0.930 1_655 S
H832 C827 0.930 . S
C833 O834 1.224 . S
C833 O852 1.247 . S
O834 C833 1.224 . S
N835 Co825 2.128 . S
N835 C836 1.355 . S
N835 C838 1.311 . S
C836 N835 1.355 . S
C836 C837 1.363 . S
C836 H848 0.929 . S
C837 C836 1.363 . S
C837 N839 1.375 . S
C837 H855 0.931 . S
C838 N835 1.311 . S
C838 N839 1.347 . S
C838 H849 0.929 . S
N839 C837 1.375 . S
N839 C838 1.347 . S
C840 C843 1.365 . S
C840 N845 1.328 . S
C840 H846 0.929 . S
C841 C842 1.362 . S
C841 C844 1.378 . S
C841 H856 0.929 . S
C842 C841 1.362 . S
C842 C843 1.366 . S
C843 C840 1.365 . S
C843 C842 1.366 . S
C843 H857 0.930 1_455 S
C844 C841 1.378 . S
C844 N845 1.315 . S
C844 H847 0.930 . S
N845 Co825 2.194 . S
N845 C840 1.328 . S
N845 C844 1.315 . S
H846 C840 0.929 . S
H847 C844 0.930 . S
H848 C836 0.929 . S
H849 C838 0.929 . S
O850 Co825 2.351 . S
O850 C853 1.244 . S
O851 Co825 2.155 . S
O851 C853 1.240 . S
O852 Co825 2.096 . S
O852 C833 1.247 . S
C853 O850 1.244 . S
C853 O851 1.240 . S
H854 C828 0.931 . S
H855 C837 0.931 . S
H856 C841 0.929 . S
H857 C843 0.930 1_655 S
Co858 N862 2.148 . S
Co858 N868 2.128 . S
Co858 N878 2.194 . S
Co858 O883 2.351 . S
Co858 O884 2.155 . S
Co858 O885 2.096 . S
C859 N862 1.301 . S
C859 N863 1.328 . S
C859 H864 0.930 . S
C860 C861 1.333 . S
C860 N862 1.317 . S
C860 H865 0.930 . S
C861 C860 1.333 . S
C861 N863 1.350 . S
C861 H887 0.931 . S
N862 Co858 2.148 . S
N862 C859 1.301 . S
N862 C860 1.317 . S
N863 C859 1.328 . S
N863 C861 1.350 . S
H864 C859 0.930 . S
H865 C860 0.930 . S
C866 O867 1.224 . S
C866 O885 1.247 . S
O867 C866 1.224 . S
N868 Co858 2.128 . S
N868 C869 1.355 . S
N868 C871 1.311 . S
C869 N868 1.355 . S
C869 C870 1.363 . S
C869 H881 0.929 . S
C870 C869 1.363 . S
C870 N872 1.375 . S
C870 H888 0.931 . S
C871 N868 1.311 . S
C871 N872 1.347 . S
C871 H882 0.929 . S
N872 C870 1.375 . S
N872 C871 1.347 . S
C873 C876 1.365 . S
C873 N878 1.328 . S
C873 H879 0.929 . S
C874 C875 1.362 . S
C874 C877 1.378 . S
C874 H889 0.929 . S
C875 C874 1.362 . S
C875 C876 1.366 . S
C876 C873 1.365 . S
C876 C875 1.366 . S
C876 H890 0.930 . S
C877 C874 1.378 . S
C877 N878 1.315 . S
C877 H880 0.930 . S
N878 Co858 2.194 . S
N878 C873 1.328 . S
N878 C877 1.315 . S
H879 C873 0.929 . S
H880 C877 0.930 . S
H881 C869 0.929 . S
H882 C871 0.929 . S
O883 Co858 2.351 . S
O883 C886 1.244 . S
O884 Co858 2.155 . S
O884 C886 1.240 . S
O885 Co858 2.096 . S
O885 C866 1.247 . S
C886 O883 1.244 . S
C886 O884 1.240 . S
H887 C861 0.931 . S
H888 C870 0.931 . S
H889 C874 0.929 . S
H890 C876 0.930 . S
Co891 N895 2.148 . S
Co891 N901 2.128 . S
Co891 N911 2.194 . S
Co891 O916 2.351 . S
Co891 O917 2.155 . S
Co891 O918 2.096 . S
C892 N895 1.301 . S
C892 N896 1.328 . S
C892 H897 0.930 . S
C893 C894 1.333 . S
C893 N895 1.317 . S
C893 H898 0.930 . S
C894 C893 1.333 . S
C894 N896 1.350 . S
C894 H920 0.931 . S
N895 Co891 2.148 . S
N895 C892 1.301 . S
N895 C893 1.317 . S
N896 C892 1.328 . S
N896 C894 1.350 . S
H897 C892 0.930 . S
H898 C893 0.930 . S
C899 O900 1.224 . S
C899 O918 1.247 . S
O900 C899 1.224 . S
N901 Co891 2.128 . S
N901 C902 1.355 . S
N901 C904 1.311 . S
C902 N901 1.355 . S
C902 C903 1.363 . S
C902 H914 0.929 . S
C903 C902 1.363 . S
C903 N905 1.375 . S
C903 H921 0.931 . S
C904 N901 1.311 . S
C904 N905 1.347 . S
C904 H915 0.929 . S
N905 C903 1.375 . S
N905 C904 1.347 . S
C906 C909 1.365 . S
C906 N911 1.328 . S
C906 H912 0.929 . S
C907 C908 1.362 . S
C907 C910 1.378 . S
C907 H922 0.929 . S
C908 C907 1.362 . S
C908 C909 1.366 . S
C909 C906 1.365 . S
C909 C908 1.366 . S
C909 H923 0.930 . S
C910 C907 1.378 . S
C910 N911 1.315 . S
C910 H913 0.930 . S
N911 Co891 2.194 . S
N911 C906 1.328 . S
N911 C910 1.315 . S
H912 C906 0.929 . S
H913 C910 0.930 . S
H914 C902 0.929 . S
H915 C904 0.929 . S
O916 Co891 2.351 . S
O916 C919 1.244 . S
O917 Co891 2.155 . S
O917 C919 1.240 . S
O918 Co891 2.096 . S
O918 C899 1.247 . S
C919 O916 1.244 . S
C919 O917 1.240 . S
H920 C894 0.931 . S
H921 C903 0.931 . S
H922 C907 0.929 . S
H923 C909 0.930 . S
Co924 N928 2.148 . S
Co924 N934 2.128 . S
Co924 N944 2.194 . S
Co924 O949 2.351 . S
Co924 O950 2.155 . S
Co924 O951 2.096 . S
C925 N928 1.301 . S
C925 N929 1.328 . S
C925 H930 0.930 . S
C926 C927 1.333 . S
C926 N928 1.317 . S
C926 H931 0.930 . S
C927 C926 1.333 . S
C927 N929 1.350 . S
C927 H953 0.931 . S
N928 Co924 2.148 . S
N928 C925 1.301 . S
N928 C926 1.317 . S
N929 C925 1.328 . S
N929 C927 1.350 . S
H930 C925 0.930 . S
H931 C926 0.930 . S
C932 O933 1.224 . S
C932 O951 1.247 . S
O933 C932 1.224 . S
N934 Co924 2.128 . S
N934 C935 1.355 . S
N934 C937 1.311 . S
C935 N934 1.355 . S
C935 C936 1.363 . S
C935 H947 0.929 . S
C936 C935 1.363 . S
C936 N938 1.375 . S
C936 H954 0.931 . S
C937 N934 1.311 . S
C937 N938 1.347 . S
C937 H948 0.929 . S
N938 C936 1.375 . S
N938 C937 1.347 . S
C939 C942 1.365 . S
C939 N944 1.328 . S
C939 H945 0.929 . S
C940 C941 1.362 . S
C940 C943 1.378 . S
C940 H955 0.929 . S
C941 C940 1.362 . S
C941 C942 1.366 . S
C942 C939 1.365 . S
C942 C941 1.366 . S
C942 H956 0.930 . S
C943 C940 1.378 . S
C943 N944 1.315 . S
C943 H946 0.930 . S
N944 Co924 2.194 . S
N944 C939 1.328 . S
N944 C943 1.315 . S
H945 C939 0.929 . S
H946 C943 0.930 . S
H947 C935 0.929 . S
H948 C937 0.929 . S
O949 Co924 2.351 . S
O949 C952 1.244 . S
O950 Co924 2.155 . S
O950 C952 1.240 . S
O951 Co924 2.096 . S
O951 C932 1.247 . S
C952 O949 1.244 . S
C952 O950 1.240 . S
H953 C927 0.931 . S
H954 C936 0.931 . S
H955 C940 0.929 . S
H956 C942 0.930 . S
Co957 N961 2.148 . S
Co957 N967 2.128 . S
Co957 N977 2.194 . S
Co957 O982 2.351 . S
Co957 O983 2.155 . S
Co957 O984 2.096 . S
C958 N961 1.301 . S
C958 N962 1.328 . S
C958 H963 0.930 . S
C959 C960 1.333 . S
C959 N961 1.317 . S
C959 H964 0.930 . S
C960 C959 1.333 . S
C960 N962 1.350 . S
C960 H986 0.931 . S
N961 Co957 2.148 . S
N961 C958 1.301 . S
N961 C959 1.317 . S
N962 C958 1.328 . S
N962 C960 1.350 . S
H963 C958 0.930 . S
H964 C959 0.930 . S
C965 O966 1.224 . S
C965 O984 1.247 . S
O966 C965 1.224 . S
N967 Co957 2.128 . S
N967 C968 1.355 . S
N967 C970 1.311 . S
C968 N967 1.355 . S
C968 C969 1.363 . S
C968 H980 0.929 . S
C969 C968 1.363 . S
C969 N971 1.375 . S
C969 H987 0.931 . S
C970 N967 1.311 . S
C970 N971 1.347 . S
C970 H981 0.929 . S
N971 C969 1.375 . S
N971 C970 1.347 . S
C972 C975 1.365 . S
C972 N977 1.328 . S
C972 H978 0.929 . S
C973 C974 1.362 . S
C973 C976 1.378 . S
C973 H988 0.929 . S
C974 C973 1.362 . S
C974 C975 1.366 . S
C975 C972 1.365 . S
C975 C974 1.366 . S
C975 H989 0.930 . S
C976 C973 1.378 . S
C976 N977 1.315 . S
C976 H979 0.930 . S
N977 Co957 2.194 . S
N977 C972 1.328 . S
N977 C976 1.315 . S
H978 C972 0.929 . S
H979 C976 0.930 . S
H980 C968 0.929 . S
H981 C970 0.929 . S
O982 Co957 2.351 . S
O982 C985 1.244 . S
O983 Co957 2.155 . S
O983 C985 1.240 . S
O984 Co957 2.096 . S
O984 C965 1.247 . S
C985 O982 1.244 . S
C985 O983 1.240 . S
H986 C960 0.931 . S
H987 C969 0.931 . S
H988 C973 0.929 . S
H989 C975 0.930 . S
Co990 N994 2.148 . S
Co990 N1000 2.128 . S
Co990 N1010 2.194 . S
Co990 O1015 2.351 . S
Co990 O1016 2.155 . S
Co990 O1017 2.096 . S
C991 N994 1.301 . S
C991 N995 1.328 . S
C991 H996 0.930 . S
C992 C993 1.333 . S
C992 N994 1.317 . S
C992 H997 0.930 . S
C993 C992 1.333 . S
C993 N995 1.350 . S
C993 H1019 0.931 . S
N994 Co990 2.148 . S
N994 C991 1.301 . S
N994 C992 1.317 . S
N995 C991 1.328 . S
N995 C993 1.350 . S
H996 C991 0.930 . S
H997 C992 0.930 . S
C998 O999 1.224 . S
C998 O1017 1.247 . S
O999 C998 1.224 . S
N1000 Co990 2.128 . S
N1000 C1001 1.355 . S
N1000 C1003 1.311 . S
C1001 N1000 1.355 . S
C1001 C1002 1.363 . S
C1001 H1013 0.929 . S
C1002 C1001 1.363 . S
C1002 N1004 1.375 . S
C1002 H1020 0.931 . S
C1003 N1000 1.311 . S
C1003 N1004 1.347 . S
C1003 H1014 0.929 . S
N1004 C1002 1.375 . S
N1004 C1003 1.347 . S
C1005 C1008 1.365 . S
C1005 N1010 1.328 . S
C1005 H1011 0.929 . S
C1006 C1007 1.362 . S
C1006 C1009 1.378 . S
C1006 H1021 0.929 . S
C1007 C1006 1.362 . S
C1007 C1008 1.366 . S
C1008 C1005 1.365 . S
C1008 C1007 1.366 . S
C1008 H1022 0.930 . S
C1009 C1006 1.378 . S
C1009 N1010 1.315 . S
C1009 H1012 0.930 . S
N1010 Co990 2.194 . S
N1010 C1005 1.328 . S
N1010 C1009 1.315 . S
H1011 C1005 0.929 . S
H1012 C1009 0.930 . S
H1013 C1001 0.929 . S
H1014 C1003 0.929 . S
O1015 Co990 2.351 . S
O1015 C1018 1.244 . S
O1016 Co990 2.155 . S
O1016 C1018 1.240 . S
O1017 Co990 2.096 . S
O1017 C998 1.247 . S
C1018 O1015 1.244 . S
C1018 O1016 1.240 . S
H1019 C993 0.931 . S
H1020 C1002 0.931 . S
H1021 C1006 0.929 . S
H1022 C1008 0.930 . S
Co1023 N1027 2.148 . S
Co1023 N1033 2.128 . S
Co1023 N1043 2.194 . S
Co1023 O1048 2.351 . S
Co1023 O1049 2.155 . S
Co1023 O1050 2.096 . S
C1024 N1027 1.301 . S
C1024 N1028 1.328 . S
C1024 H1029 0.930 . S
C1025 C1026 1.333 . S
C1025 N1027 1.317 . S
C1025 H1030 0.930 . S
C1026 C1025 1.333 . S
C1026 N1028 1.350 . S
C1026 H1052 0.931 . S
N1027 Co1023 2.148 . S
N1027 C1024 1.301 . S
N1027 C1025 1.317 . S
N1028 C1024 1.328 . S
N1028 C1026 1.350 . S
H1029 C1024 0.930 . S
H1030 C1025 0.930 . S
C1031 O1032 1.224 . S
C1031 O1050 1.247 . S
O1032 C1031 1.224 . S
N1033 Co1023 2.128 . S
N1033 C1034 1.355 . S
N1033 C1036 1.311 . S
C1034 N1033 1.355 . S
C1034 C1035 1.363 . S
C1034 H1046 0.929 . S
C1035 C1034 1.363 . S
C1035 N1037 1.375 . S
C1035 H1053 0.931 . S
C1036 N1033 1.311 . S
C1036 N1037 1.347 . S
C1036 H1047 0.929 . S
N1037 C1035 1.375 . S
N1037 C1036 1.347 . S
C1038 C1041 1.365 . S
C1038 N1043 1.328 . S
C1038 H1044 0.929 . S
C1039 C1040 1.362 . S
C1039 C1042 1.378 . S
C1039 H1054 0.929 . S
C1040 C1039 1.362 . S
C1040 C1041 1.366 . S
C1041 C1038 1.365 . S
C1041 C1040 1.366 . S
C1041 H1055 0.930 . S
C1042 C1039 1.378 . S
C1042 N1043 1.315 . S
C1042 H1045 0.930 . S
N1043 Co1023 2.194 . S
N1043 C1038 1.328 . S
N1043 C1042 1.315 . S
H1044 C1038 0.929 . S
H1045 C1042 0.930 . S
H1046 C1034 0.929 . S
H1047 C1036 0.929 . S
O1048 Co1023 2.351 . S
O1048 C1051 1.244 . S
O1049 Co1023 2.155 . S
O1049 C1051 1.240 . S
O1050 Co1023 2.096 . S
O1050 C1031 1.247 . S
C1051 O1048 1.244 . S
C1051 O1049 1.240 . S
H1052 C1026 0.931 . S
H1053 C1035 0.931 . S
H1054 C1039 0.929 . S
H1055 C1041 0.930 . S
Co1056 N1060 2.148 . S
Co1056 N1066 2.128 . S
Co1056 N1076 2.194 . S
Co1056 O1081 2.351 . S
Co1056 O1082 2.155 . S
Co1056 O1083 2.096 . S
C1057 N1060 1.301 . S
C1057 N1061 1.328 . S
C1057 H1062 0.930 . S
C1058 C1059 1.333 . S
C1058 N1060 1.317 . S
C1058 H1063 0.930 . S
C1059 C1058 1.333 . S
C1059 N1061 1.350 . S
C1059 H1085 0.931 . S
N1060 Co1056 2.148 . S
N1060 C1057 1.301 . S
N1060 C1058 1.317 . S
N1061 C1057 1.328 . S
N1061 C1059 1.350 . S
H1062 C1057 0.930 . S
H1063 C1058 0.930 . S
C1064 O1065 1.224 . S
C1064 O1083 1.247 . S
O1065 C1064 1.224 . S
N1066 Co1056 2.128 . S
N1066 C1067 1.355 . S
N1066 C1069 1.311 . S
C1067 N1066 1.355 . S
C1067 C1068 1.363 . S
C1067 H1079 0.929 . S
C1068 C1067 1.363 . S
C1068 N1070 1.375 . S
C1068 H1086 0.931 . S
C1069 N1066 1.311 . S
C1069 N1070 1.347 . S
C1069 H1080 0.929 . S
N1070 C1068 1.375 . S
N1070 C1069 1.347 . S
C1071 C1074 1.365 . S
C1071 N1076 1.328 . S
C1071 H1077 0.929 . S
C1072 C1073 1.362 . S
C1072 C1075 1.378 . S
C1072 H1087 0.929 . S
C1073 C1072 1.362 . S
C1073 C1074 1.366 . S
C1074 C1071 1.365 . S
C1074 C1073 1.366 . S
C1074 H1088 0.930 . S
C1075 C1072 1.378 . S
C1075 N1076 1.315 . S
C1075 H1078 0.930 . S
N1076 Co1056 2.194 . S
N1076 C1071 1.328 . S
N1076 C1075 1.315 . S
H1077 C1071 0.929 . S
H1078 C1075 0.930 . S
H1079 C1067 0.929 . S
H1080 C1069 0.929 . S
O1081 Co1056 2.351 . S
O1081 C1084 1.244 . S
O1082 Co1056 2.155 . S
O1082 C1084 1.240 . S
O1083 Co1056 2.096 . S
O1083 C1064 1.247 . S
C1084 O1081 1.244 . S
C1084 O1082 1.240 . S
H1085 C1059 0.931 . S
H1086 C1068 0.931 . S
H1087 C1072 0.929 . S
H1088 C1074 0.930 . S
Co1089 N1093 2.148 . S
Co1089 N1099 2.128 . S
Co1089 N1109 2.194 . S
Co1089 O1114 2.351 . S
Co1089 O1115 2.155 . S
Co1089 O1116 2.096 . S
C1090 N1093 1.301 . S
C1090 N1094 1.328 . S
C1090 H1095 0.930 1_455 S
C1091 C1092 1.333 . S
C1091 N1093 1.317 . S
C1091 H1096 0.930 . S
C1092 C1091 1.333 . S
C1092 N1094 1.350 . S
C1092 H1118 0.931 . S
N1093 Co1089 2.148 . S
N1093 C1090 1.301 . S
N1093 C1091 1.317 . S
N1094 C1090 1.328 . S
N1094 C1092 1.350 . S
H1095 C1090 0.930 1_655 S
H1096 C1091 0.930 . S
C1097 O1098 1.224 . S
C1097 O1116 1.247 . S
O1098 C1097 1.224 . S
N1099 Co1089 2.128 . S
N1099 C1100 1.355 . S
N1099 C1102 1.311 . S
C1100 N1099 1.355 . S
C1100 C1101 1.363 . S
C1100 H1112 0.929 . S
C1101 C1100 1.363 . S
C1101 N1103 1.375 . S
C1101 H1119 0.931 . S
C1102 N1099 1.311 . S
C1102 N1103 1.347 . S
C1102 H1113 0.929 . S
N1103 C1101 1.375 . S
N1103 C1102 1.347 . S
C1104 C1107 1.365 . S
C1104 N1109 1.328 . S
C1104 H1110 0.929 . S
C1105 C1106 1.362 . S
C1105 C1108 1.378 . S
C1105 H1120 0.929 . S
C1106 C1105 1.362 . S
C1106 C1107 1.366 . S
C1107 C1104 1.365 . S
C1107 C1106 1.366 . S
C1107 H1121 0.930 1_455 S
C1108 C1105 1.378 . S
C1108 N1109 1.315 . S
C1108 H1111 0.930 . S
N1109 Co1089 2.194 . S
N1109 C1104 1.328 . S
N1109 C1108 1.315 . S
H1110 C1104 0.929 . S
H1111 C1108 0.930 . S
H1112 C1100 0.929 . S
H1113 C1102 0.929 . S
O1114 Co1089 2.351 . S
O1114 C1117 1.244 . S
O1115 Co1089 2.155 . S
O1115 C1117 1.240 . S
O1116 Co1089 2.096 . S
O1116 C1097 1.247 . S
C1117 O1114 1.244 . S
C1117 O1115 1.240 . S
H1118 C1092 0.931 . S
H1119 C1101 0.931 . S
H1120 C1105 0.929 . S
H1121 C1107 0.930 1_655 S
Co1122 N1126 2.148 . S
Co1122 N1132 2.128 . S
Co1122 N1142 2.194 . S
Co1122 O1147 2.351 . S
Co1122 O1148 2.155 . S
Co1122 O1149 2.096 . S
C1123 N1126 1.301 . S
C1123 N1127 1.328 . S
C1123 H1128 0.930 . S
C1124 C1125 1.333 . S
C1124 N1126 1.317 . S
C1124 H1129 0.930 . S
C1125 C1124 1.333 . S
C1125 N1127 1.350 . S
C1125 H1151 0.931 . S
N1126 Co1122 2.148 . S
N1126 C1123 1.301 . S
N1126 C1124 1.317 . S
N1127 C1123 1.328 . S
N1127 C1125 1.350 . S
H1128 C1123 0.930 . S
H1129 C1124 0.930 . S
C1130 O1131 1.224 . S
C1130 O1149 1.247 . S
O1131 C1130 1.224 . S
N1132 Co1122 2.128 . S
N1132 C1133 1.355 . S
N1132 C1135 1.311 . S
C1133 N1132 1.355 . S
C1133 C1134 1.363 . S
C1133 H1145 0.929 . S
C1134 C1133 1.363 . S
C1134 N1136 1.375 . S
C1134 H1152 0.931 . S
C1135 N1132 1.311 . S
C1135 N1136 1.347 . S
C1135 H1146 0.929 . S
N1136 C1134 1.375 . S
N1136 C1135 1.347 . S
C1137 C1140 1.365 . S
C1137 N1142 1.328 . S
C1137 H1143 0.929 . S
C1138 C1139 1.362 . S
C1138 C1141 1.378 . S
C1138 H1153 0.929 . S
C1139 C1138 1.362 . S
C1139 C1140 1.366 . S
C1140 C1137 1.365 . S
C1140 C1139 1.366 . S
C1140 H1154 0.930 . S
C1141 C1138 1.378 . S
C1141 N1142 1.315 . S
C1141 H1144 0.930 . S
N1142 Co1122 2.194 . S
N1142 C1137 1.328 . S
N1142 C1141 1.315 . S
H1143 C1137 0.929 . S
H1144 C1141 0.930 . S
H1145 C1133 0.929 . S
H1146 C1135 0.929 . S
O1147 Co1122 2.351 . S
O1147 C1150 1.244 . S
O1148 Co1122 2.155 . S
O1148 C1150 1.240 . S
O1149 Co1122 2.096 . S
O1149 C1130 1.247 . S
C1150 O1147 1.244 . S
C1150 O1148 1.240 . S
H1151 C1125 0.931 . S
H1152 C1134 0.931 . S
H1153 C1138 0.929 . S
H1154 C1140 0.930 . S
Co1155 N1159 2.148 . S
Co1155 N1165 2.128 . S
Co1155 N1175 2.194 . S
Co1155 O1180 2.351 . S
Co1155 O1181 2.155 . S
Co1155 O1182 2.096 . S
C1156 N1159 1.301 . S
C1156 N1160 1.328 . S
C1156 H1161 0.930 1_565 S
C1157 C1158 1.333 . S
C1157 N1159 1.317 . S
C1157 H1162 0.930 . S
C1158 C1157 1.333 . S
C1158 N1160 1.350 . S
C1158 H1184 0.931 . S
N1159 Co1155 2.148 . S
N1159 C1156 1.301 . S
N1159 C1157 1.317 . S
N1160 C1156 1.328 . S
N1160 C1158 1.350 . S
H1161 C1156 0.930 1_545 S
H1162 C1157 0.930 . S
C1163 O1164 1.224 . S
C1163 O1182 1.247 . S
O1164 C1163 1.224 . S
N1165 Co1155 2.128 . S
N1165 C1166 1.355 . S
N1165 C1168 1.311 . S
C1166 N1165 1.355 . S
C1166 C1167 1.363 . S
C1166 H1178 0.929 . S
C1167 C1166 1.363 . S
C1167 N1169 1.375 . S
C1167 H1185 0.931 . S
C1168 N1165 1.311 . S
C1168 N1169 1.347 . S
C1168 H1179 0.929 . S
N1169 C1167 1.375 . S
N1169 C1168 1.347 . S
C1170 C1173 1.365 . S
C1170 N1175 1.328 . S
C1170 H1176 0.929 . S
C1171 C1172 1.362 . S
C1171 C1174 1.378 . S
C1171 H1186 0.929 . S
C1172 C1171 1.362 . S
C1172 C1173 1.366 . S
C1173 C1170 1.365 . S
C1173 C1172 1.366 . S
C1173 H1187 0.930 1_565 S
C1174 C1171 1.378 . S
C1174 N1175 1.315 . S
C1174 H1177 0.930 . S
N1175 Co1155 2.194 . S
N1175 C1170 1.328 . S
N1175 C1174 1.315 . S
H1176 C1170 0.929 . S
H1177 C1174 0.930 . S
H1178 C1166 0.929 . S
H1179 C1168 0.929 . S
O1180 Co1155 2.351 . S
O1180 C1183 1.244 . S
O1181 Co1155 2.155 . S
O1181 C1183 1.240 . S
O1182 Co1155 2.096 . S
O1182 C1163 1.247 . S
C1183 O1180 1.244 . S
C1183 O1181 1.240 . S
H1184 C1158 0.931 . S
H1185 C1167 0.931 . S
H1186 C1171 0.929 . S
H1187 C1173 0.930 1_545 S
H1188 C1196 0.950 . S
H1189 C1201 0.950 . S
H1190 C1198 0.950 . S
H1191 C1200 0.950 . S
H1192 C1202 0.950 . S
H1193 C1204 0.950 . S
H1194 C1206 0.950 . S
H1195 C1207 0.950 . S
C1196 H1188 0.950 . S
C1196 C1197 1.386 . S
C1196 C1198 1.391 . S
C1197 C1196 1.386 . S
C1197 C1201 1.393 . S
C1198 H1190 0.950 . S
C1198 C1196 1.391 . S
C1198 C1199 1.400 . S
C1199 C1198 1.400 . S
C1199 C1200 1.398 . S
C1199 C1205 1.491 . S
C1200 H1191 0.950 . S
C1200 C1199 1.398 . S
C1200 C1201 1.391 . S
C1201 H1189 0.950 . S
C1201 C1197 1.393 . S
C1201 C1200 1.391 . S
C1202 H1192 0.950 . S
C1202 C1203 1.386 . S
C1202 C1204 1.391 . S
C1203 C1202 1.386 . S
C1203 C1207 1.393 . S
C1204 H1193 0.950 . S
C1204 C1202 1.391 . S
C1204 C1205 1.400 . S
C1205 C1199 1.491 . S
C1205 C1204 1.400 . S
C1205 C1206 1.398 . S
C1206 H1194 0.950 . S
C1206 C1205 1.398 . S
C1206 C1207 1.391 . S
C1207 H1195 0.950 . S
C1207 C1203 1.393 . S
C1207 C1206 1.391 . S
H1208 C1216 0.950 1_455 S
H1209 C1221 0.950 . S
H1210 C1218 0.950 . S
H1211 C1220 0.950 . S
H1212 C1222 0.950 . S
H1213 C1224 0.950 . S
H1214 C1226 0.950 . S
H1215 C1227 0.950 . S
C1216 H1208 0.950 1_655 S
C1216 C1217 1.386 . S
C1216 C1218 1.391 . S
C1217 C1216 1.386 . S
C1217 C1221 1.393 . S
C1218 H1210 0.950 . S
C1218 C1216 1.391 . S
C1218 C1219 1.400 . S
C1219 C1218 1.400 . S
C1219 C1220 1.398 . S
C1219 C1225 1.491 . S
C1220 H1211 0.950 . S
C1220 C1219 1.398 . S
C1220 C1221 1.391 . S
C1221 H1209 0.950 . S
C1221 C1217 1.393 . S
C1221 C1220 1.391 . S
C1222 H1212 0.950 . S
C1222 C1223 1.386 . S
C1222 C1224 1.391 1_565 S
C1223 C1222 1.386 . S
C1223 C1227 1.393 . S
C1224 H1213 0.950 . S
C1224 C1222 1.391 1_545 S
C1224 C1225 1.400 . S
C1225 C1219 1.491 . S
C1225 C1224 1.400 . S
C1225 C1226 1.398 . S
C1226 H1214 0.950 . S
C1226 C1225 1.398 . S
C1226 C1227 1.391 1_545 S
C1227 H1215 0.950 . S
C1227 C1223 1.393 . S
C1227 C1226 1.391 1_565 S
H1228 C1236 0.950 . S
H1229 C1241 0.950 . S
H1230 C1238 0.950 . S
H1231 C1240 0.950 . S
H1232 C1242 0.950 . S
H1233 C1244 0.950 . S
H1234 C1246 0.950 . S
H1235 C1247 0.950 . S
C1236 H1228 0.950 . S
C1236 C1237 1.386 . S
C1236 C1238 1.391 . S
C1237 C1236 1.386 . S
C1237 C1241 1.393 . S
C1238 H1230 0.950 . S
C1238 C1236 1.391 . S
C1238 C1239 1.400 . S
C1239 C1238 1.400 . S
C1239 C1240 1.398 . S
C1239 C1245 1.491 . S
C1240 H1231 0.950 . S
C1240 C1239 1.398 . S
C1240 C1241 1.391 . S
C1241 H1229 0.950 . S
C1241 C1237 1.393 . S
C1241 C1240 1.391 . S
C1242 H1232 0.950 . S
C1242 C1243 1.386 . S
C1242 C1244 1.391 1_455 S
C1243 C1242 1.386 . S
C1243 C1247 1.393 . S
C1244 H1233 0.950 . S
C1244 C1242 1.391 1_655 S
C1244 C1245 1.400 . S
C1245 C1239 1.491 . S
C1245 C1244 1.400 . S
C1245 C1246 1.398 . S
C1246 H1234 0.950 . S
C1246 C1245 1.398 . S
C1246 C1247 1.391 1_655 S
C1247 H1235 0.950 . S
C1247 C1243 1.393 . S
C1247 C1246 1.391 1_455 S
H1248 C1256 0.950 . S
H1249 C1261 0.950 . S
H1250 C1258 0.950 . S
H1251 C1260 0.950 . S
H1252 C1262 0.950 . S
H1253 C1264 0.950 . S
H1254 C1266 0.950 . S
H1255 C1267 0.950 . S
C1256 H1248 0.950 . S
C1256 C1257 1.386 . S
C1256 C1258 1.391 . S
C1257 C1256 1.386 . S
C1257 C1261 1.393 . S
C1258 H1250 0.950 . S
C1258 C1256 1.391 . S
C1258 C1259 1.400 . S
C1259 C1258 1.400 . S
C1259 C1260 1.398 . S
C1259 C1265 1.491 . S
C1260 H1251 0.950 . S
C1260 C1259 1.398 . S
C1260 C1261 1.391 . S
C1261 H1249 0.950 . S
C1261 C1257 1.393 . S
C1261 C1260 1.391 . S
C1262 H1252 0.950 . S
C1262 C1263 1.386 . S
C1262 C1264 1.391 . S
C1263 C1262 1.386 . S
C1263 C1267 1.393 . S
C1264 H1253 0.950 . S
C1264 C1262 1.391 . S
C1264 C1265 1.400 . S
C1265 C1259 1.491 . S
C1265 C1264 1.400 . S
C1265 C1266 1.398 . S
C1266 H1254 0.950 . S
C1266 C1265 1.398 . S
C1266 C1267 1.391 . S
C1267 H1255 0.950 . S
C1267 C1263 1.393 . S
C1267 C1266 1.391 . S
H1268 C1276 0.950 . S
H1269 C1281 0.950 . S
H1270 C1278 0.950 . S
H1271 C1280 0.950 . S
H1272 C1282 0.950 . S
H1273 C1284 0.950 . S
H1274 C1286 0.950 . S
H1275 C1287 0.950 . S
C1276 H1268 0.950 . S
C1276 C1277 1.386 . S
C1276 C1278 1.391 . S
C1277 C1276 1.386 . S
C1277 C1281 1.393 . S
C1278 H1270 0.950 . S
C1278 C1276 1.391 . S
C1278 C1279 1.400 . S
C1279 C1278 1.400 . S
C1279 C1280 1.398 . S
C1279 C1285 1.491 . S
C1280 H1271 0.950 . S
C1280 C1279 1.398 . S
C1280 C1281 1.391 . S
C1281 H1269 0.950 . S
C1281 C1277 1.393 . S
C1281 C1280 1.391 . S
C1282 H1272 0.950 . S
C1282 C1283 1.386 . S
C1282 C1284 1.391 1_545 S
C1283 C1282 1.386 . S
C1283 C1287 1.393 . S
C1284 H1273 0.950 . S
C1284 C1282 1.391 1_565 S
C1284 C1285 1.400 . S
C1285 C1279 1.491 . S
C1285 C1284 1.400 . S
C1285 C1286 1.398 . S
C1286 H1274 0.950 . S
C1286 C1285 1.398 . S
C1286 C1287 1.391 1_565 S
C1287 H1275 0.950 . S
C1287 C1283 1.393 . S
C1287 C1286 1.391 1_545 S
H1288 C1296 0.950 . S
H1289 C1301 0.950 1_545 S
H1290 C1298 0.950 . S
H1291 C1300 0.950 . S
H1292 C1302 0.950 . S
H1293 C1304 0.950 . S
H1294 C1306 0.950 . S
H1295 C1307 0.950 . S
C1296 H1288 0.950 . S
C1296 C1297 1.386 . S
C1296 C1298 1.391 . S
C1297 C1296 1.386 . S
C1297 C1301 1.393 . S
C1298 H1290 0.950 . S
C1298 C1296 1.391 . S
C1298 C1299 1.400 . S
C1299 C1298 1.400 . S
C1299 C1300 1.398 . S
C1299 C1305 1.491 . S
C1300 H1291 0.950 . S
C1300 C1299 1.398 . S
C1300 C1301 1.391 . S
C1301 H1289 0.950 1_565 S
C1301 C1297 1.393 . S
C1301 C1300 1.391 . S
C1302 H1292 0.950 . S
C1302 C1303 1.386 . S
C1302 C1304 1.391 1_655 S
C1303 C1302 1.386 . S
C1303 C1307 1.393 . S
C1304 H1293 0.950 . S
C1304 C1302 1.391 1_455 S
C1304 C1305 1.400 . S
C1305 C1299 1.491 . S
C1305 C1304 1.400 . S
C1305 C1306 1.398 . S
C1306 H1294 0.950 . S
C1306 C1305 1.398 . S
C1306 C1307 1.391 1_455 S
C1307 H1295 0.950 . S
C1307 C1303 1.393 . S
C1307 C1306 1.391 1_655 S
H1308 C1316 0.950 . S
H1309 C1321 0.950 . S
H1310 C1318 0.950 . S
H1311 C1320 0.950 . S
H1312 C1322 0.950 . S
H1313 C1324 0.950 . S
H1314 C1326 0.950 . S
H1315 C1327 0.950 . S
C1316 H1308 0.950 . S
C1316 C1317 1.386 . S
C1316 C1318 1.391 . S
C1317 C1316 1.386 . S
C1317 C1321 1.393 . S
C1318 H1310 0.950 . S
C1318 C1316 1.391 . S
C1318 C1319 1.400 . S
C1319 C1318 1.400 . S
C1319 C1320 1.398 . S
C1319 C1325 1.491 . S
C1320 H1311 0.950 . S
C1320 C1319 1.398 . S
C1320 C1321 1.391 . S
C1321 H1309 0.950 . S
C1321 C1317 1.393 . S
C1321 C1320 1.391 . S
C1322 H1312 0.950 . S
C1322 C1323 1.386 . S
C1322 C1324 1.391 . S
C1323 C1322 1.386 . S
C1323 C1327 1.393 . S
C1324 H1313 0.950 . S
C1324 C1322 1.391 . S
C1324 C1325 1.400 . S
C1325 C1319 1.491 . S
C1325 C1324 1.400 . S
C1325 C1326 1.398 . S
C1326 H1314 0.950 . S
C1326 C1325 1.398 . S
C1326 C1327 1.391 . S
C1327 H1315 0.950 . S
C1327 C1323 1.393 . S
C1327 C1326 1.391 . S
H1328 C1336 0.950 . S
H1329 C1341 0.950 . S
H1330 C1338 0.950 . S
H1331 C1340 0.950 . S
H1332 C1342 0.950 . S
H1333 C1344 0.950 . S
H1334 C1346 0.950 . S
H1335 C1347 0.950 . S
C1336 H1328 0.950 . S
C1336 C1337 1.386 . S
C1336 C1338 1.391 1_545 S
C1337 C1336 1.386 . S
C1337 C1341 1.393 . S
C1338 H1330 0.950 . S
C1338 C1336 1.391 1_565 S
C1338 C1339 1.400 . S
C1339 C1338 1.400 . S
C1339 C1340 1.398 . S
C1339 C1345 1.491 . S
C1340 H1331 0.950 . S
C1340 C1339 1.398 . S
C1340 C1341 1.391 1_565 S
C1341 H1329 0.950 . S
C1341 C1337 1.393 . S
C1341 C1340 1.391 1_545 S
C1342 H1332 0.950 . S
C1342 C1343 1.386 . S
C1342 C1344 1.391 . S
C1343 C1342 1.386 . S
C1343 C1347 1.393 . S
C1344 H1333 0.950 . S
C1344 C1342 1.391 . S
C1344 C1345 1.400 . S
C1345 C1339 1.491 . S
C1345 C1344 1.400 . S
C1345 C1346 1.398 . S
C1346 H1334 0.950 . S
C1346 C1345 1.398 . S
C1346 C1347 1.391 . S
C1347 H1335 0.950 . S
C1347 C1343 1.393 . S
C1347 C1346 1.391 . S
H1348 C1356 0.950 . S
H1349 C1361 0.950 . S
H1350 C1358 0.950 . S
H1351 C1360 0.950 . S
H1352 C1362 0.950 . S
H1353 C1364 0.950 . S
H1354 C1366 0.950 . S
H1355 C1367 0.950 . S
C1356 H1348 0.950 . S
C1356 C1357 1.386 . S
C1356 C1358 1.391 . S
C1357 C1356 1.386 . S
C1357 C1361 1.393 . S
C1358 H1350 0.950 . S
C1358 C1356 1.391 . S
C1358 C1359 1.400 . S
C1359 C1358 1.400 . S
C1359 C1360 1.398 . S
C1359 C1365 1.491 . S
C1360 H1351 0.950 . S
C1360 C1359 1.398 . S
C1360 C1361 1.391 . S
C1361 H1349 0.950 . S
C1361 C1357 1.393 . S
C1361 C1360 1.391 . S
C1362 H1352 0.950 . S
C1362 C1363 1.386 . S
C1362 C1364 1.391 1_655 S
C1363 C1362 1.386 . S
C1363 C1367 1.393 . S
C1364 H1353 0.950 . S
C1364 C1362 1.391 1_455 S
C1364 C1365 1.400 . S
C1365 C1359 1.491 . S
C1365 C1364 1.400 . S
C1365 C1366 1.398 . S
C1366 H1354 0.950 . S
C1366 C1365 1.398 . S
C1366 C1367 1.391 1_455 S
C1367 H1355 0.950 . S
C1367 C1363 1.393 . S
C1367 C1366 1.391 1_655 S
H1368 C1376 0.950 . S
H1369 C1381 0.950 . S
H1370 C1378 0.950 . S
H1371 C1380 0.950 . S
H1372 C1382 0.950 . S
H1373 C1384 0.950 . S
H1374 C1386 0.950 . S
H1375 C1387 0.950 . S
C1376 H1368 0.950 . S
C1376 C1377 1.386 . S
C1376 C1378 1.391 . S
C1377 C1376 1.386 . S
C1377 C1381 1.393 . S
C1378 H1370 0.950 . S
C1378 C1376 1.391 . S
C1378 C1379 1.400 . S
C1379 C1378 1.400 . S
C1379 C1380 1.398 . S
C1379 C1385 1.491 . S
C1380 H1371 0.950 . S
C1380 C1379 1.398 . S
C1380 C1381 1.391 . S
C1381 H1369 0.950 . S
C1381 C1377 1.393 . S
C1381 C1380 1.391 . S
C1382 H1372 0.950 . S
C1382 C1383 1.386 . S
C1382 C1384 1.391 . S
C1383 C1382 1.386 . S
C1383 C1387 1.393 . S
C1384 H1373 0.950 . S
C1384 C1382 1.391 . S
C1384 C1385 1.400 . S
C1385 C1379 1.491 . S
C1385 C1384 1.400 . S
C1385 C1386 1.398 . S
C1386 H1374 0.950 . S
C1386 C1385 1.398 . S
C1386 C1387 1.391 . S
C1387 H1375 0.950 . S
C1387 C1383 1.393 . S
C1387 C1386 1.391 . S
H1388 C1396 0.950 . S
H1389 C1401 0.950 . S
H1390 C1398 0.950 . S
H1391 C1400 0.950 . S
H1392 C1402 0.950 . S
H1393 C1404 0.950 . S
H1394 C1406 0.950 . S
H1395 C1407 0.950 . S
C1396 H1388 0.950 . S
C1396 C1397 1.386 . S
C1396 C1398 1.391 1_565 S
C1397 C1396 1.386 . S
C1397 C1401 1.393 . S
C1398 H1390 0.950 . S
C1398 C1396 1.391 1_545 S
C1398 C1399 1.400 . S
C1399 C1398 1.400 . S
C1399 C1400 1.398 . S
C1399 C1405 1.491 . S
C1400 H1391 0.950 . S
C1400 C1399 1.398 . S
C1400 C1401 1.391 1_545 S
C1401 H1389 0.950 . S
C1401 C1397 1.393 . S
C1401 C1400 1.391 1_565 S
C1402 H1392 0.950 . S
C1402 C1403 1.386 . S
C1402 C1404 1.391 . S
C1403 C1402 1.386 . S
C1403 C1407 1.393 . S
C1404 H1393 0.950 . S
C1404 C1402 1.391 . S
C1404 C1405 1.400 . S
C1405 C1399 1.491 . S
C1405 C1404 1.400 . S
C1405 C1406 1.398 . S
C1406 H1394 0.950 . S
C1406 C1405 1.398 . S
C1406 C1407 1.391 . S
C1407 H1395 0.950 . S
C1407 C1403 1.393 . S
C1407 C1406 1.391 . S
H1408 C1416 0.950 1_565 S
H1409 C1421 0.950 . S
H1410 C1418 0.950 . S
H1411 C1420 0.950 . S
H1412 C1422 0.950 . S
H1413 C1424 0.950 . S
H1414 C1426 0.950 . S
H1415 C1427 0.950 . S
C1416 H1408 0.950 1_545 S
C1416 C1417 1.386 . S
C1416 C1418 1.391 . S
C1417 C1416 1.386 . S
C1417 C1421 1.393 . S
C1418 H1410 0.950 . S
C1418 C1416 1.391 . S
C1418 C1419 1.400 . S
C1419 C1418 1.400 . S
C1419 C1420 1.398 . S
C1419 C1425 1.491 . S
C1420 H1411 0.950 . S
C1420 C1419 1.398 . S
C1420 C1421 1.391 . S
C1421 H1409 0.950 . S
C1421 C1417 1.393 . S
C1421 C1420 1.391 . S
C1422 H1412 0.950 . S
C1422 C1423 1.386 . S
C1422 C1424 1.391 1_455 S
C1423 C1422 1.386 . S
C1423 C1427 1.393 . S
C1424 H1413 0.950 . S
C1424 C1422 1.391 1_655 S
C1424 C1425 1.400 . S
C1425 C1419 1.491 . S
C1425 C1424 1.400 . S
C1425 C1426 1.398 . S
C1426 H1414 0.950 . S
C1426 C1425 1.398 . S
C1426 C1427 1.391 1_655 S
C1427 H1415 0.950 . S
C1427 C1423 1.393 . S
C1427 C1426 1.391 1_455 S
H1428 C1436 0.950 . S
H1429 C1441 0.950 . S
H1430 C1438 0.950 . S
H1431 C1440 0.950 . S
H1432 C1442 0.950 . S
H1433 C1444 0.950 . S
H1434 C1446 0.950 . S
H1435 C1447 0.950 . S
C1436 H1428 0.950 . S
C1436 C1437 1.386 . S
C1436 C1438 1.391 . S
C1437 C1436 1.386 . S
C1437 C1441 1.393 . S
C1438 H1430 0.950 . S
C1438 C1436 1.391 . S
C1438 C1439 1.400 . S
C1439 C1438 1.400 . S
C1439 C1440 1.398 . S
C1439 C1445 1.491 . S
C1440 H1431 0.950 . S
C1440 C1439 1.398 . S
C1440 C1441 1.391 . S
C1441 H1429 0.950 . S
C1441 C1437 1.393 . S
C1441 C1440 1.391 . S
C1442 H1432 0.950 . S
C1442 C1443 1.386 . S
C1442 C1444 1.391 . S
C1443 C1442 1.386 . S
C1443 C1447 1.393 . S
C1444 H1433 0.950 . S
C1444 C1442 1.391 . S
C1444 C1445 1.400 . S
C1445 C1439 1.491 . S
C1445 C1444 1.400 . S
C1445 C1446 1.398 . S
C1446 H1434 0.950 . S
C1446 C1445 1.398 . S
C1446 C1447 1.391 . S
C1447 H1435 0.950 . S
C1447 C1443 1.393 . S
C1447 C1446 1.391 . S
H1448 C1456 0.950 . S
H1449 C1461 0.950 . S
H1450 C1458 0.950 . S
H1451 C1460 0.950 . S
H1452 C1462 0.950 . S
H1453 C1464 0.950 . S
H1454 C1466 0.950 . S
H1455 C1467 0.950 . S
C1456 H1448 0.950 . S
C1456 C1457 1.386 . S
C1456 C1458 1.391 . S
C1457 C1456 1.386 . S
C1457 C1461 1.393 . S
C1458 H1450 0.950 . S
C1458 C1456 1.391 . S
C1458 C1459 1.400 . S
C1459 C1458 1.400 . S
C1459 C1460 1.398 . S
C1459 C1465 1.491 . S
C1460 H1451 0.950 . S
C1460 C1459 1.398 . S
C1460 C1461 1.391 . S
C1461 H1449 0.950 . S
C1461 C1457 1.393 . S
C1461 C1460 1.391 . S
C1462 H1452 0.950 . S
C1462 C1463 1.386 . S
C1462 C1464 1.391 . S
C1463 C1462 1.386 . S
C1463 C1467 1.393 . S
C1464 H1453 0.950 . S
C1464 C1462 1.391 . S
C1464 C1465 1.400 . S
C1465 C1459 1.491 . S
C1465 C1464 1.400 . S
C1465 C1466 1.398 . S
C1466 H1454 0.950 . S
C1466 C1465 1.398 . S
C1466 C1467 1.391 . S
C1467 H1455 0.950 . S
C1467 C1463 1.393 . S
C1467 C1466 1.391 . S
H1468 C1476 0.950 . S
H1469 C1481 0.950 . S
H1470 C1478 0.950 . S
H1471 C1480 0.950 . S
H1472 C1482 0.950 . S
H1473 C1484 0.950 . S
H1474 C1486 0.950 . S
H1475 C1487 0.950 . S
C1476 H1468 0.950 . S
C1476 C1477 1.386 . S
C1476 C1478 1.391 . S
C1477 C1476 1.386 . S
C1477 C1481 1.393 . S
C1478 H1470 0.950 . S
C1478 C1476 1.391 . S
C1478 C1479 1.400 . S
C1479 C1478 1.400 . S
C1479 C1480 1.398 . S
C1479 C1485 1.491 . S
C1480 H1471 0.950 . S
C1480 C1479 1.398 . S
C1480 C1481 1.391 . S
C1481 H1469 0.950 . S
C1481 C1477 1.393 . S
C1481 C1480 1.391 . S
C1482 H1472 0.950 . S
C1482 C1483 1.386 . S
C1482 C1484 1.391 . S
C1483 C1482 1.386 . S
C1483 C1487 1.393 . S
C1484 H1473 0.950 . S
C1484 C1482 1.391 . S
C1484 C1485 1.400 . S
C1485 C1479 1.491 . S
C1485 C1484 1.400 . S
C1485 C1486 1.398 . S
C1486 H1474 0.950 . S
C1486 C1485 1.398 . S
C1486 C1487 1.391 . S
C1487 H1475 0.950 . S
C1487 C1483 1.393 . S
C1487 C1486 1.391 . S
H1488 C1496 0.950 . S
H1489 C1501 0.950 . S
H1490 C1498 0.950 . S
H1491 C1500 0.950 . S
H1492 C1502 0.950 . S
H1493 C1504 0.950 . S
H1494 C1506 0.950 . S
H1495 C1507 0.950 . S
C1496 H1488 0.950 . S
C1496 C1497 1.386 . S
C1496 C1498 1.391 . S
C1497 C1496 1.386 . S
C1497 C1501 1.393 . S
C1498 H1490 0.950 . S
C1498 C1496 1.391 . S
C1498 C1499 1.400 . S
C1499 C1498 1.400 . S
C1499 C1500 1.398 . S
C1499 C1505 1.491 . S
C1500 H1491 0.950 . S
C1500 C1499 1.398 . S
C1500 C1501 1.391 . S
C1501 H1489 0.950 . S
C1501 C1497 1.393 . S
C1501 C1500 1.391 . S
C1502 H1492 0.950 . S
C1502 C1503 1.386 . S
C1502 C1504 1.391 . S
C1503 C1502 1.386 . S
C1503 C1507 1.393 . S
C1504 H1493 0.950 . S
C1504 C1502 1.391 . S
C1504 C1505 1.400 . S
C1505 C1499 1.491 . S
C1505 C1504 1.400 . S
C1505 C1506 1.398 . S
C1506 H1494 0.950 . S
C1506 C1505 1.398 . S
C1506 C1507 1.391 . S
C1507 H1495 0.950 . S
C1507 C1503 1.393 . S
C1507 C1506 1.391 . S
H1508 C1516 0.950 . S
H1509 C1521 0.950 . S
H1510 C1518 0.950 . S
H1511 C1520 0.950 . S
H1512 C1522 0.950 . S
H1513 C1524 0.950 . S
H1514 C1526 0.950 . S
H1515 C1527 0.950 . S
C1516 H1508 0.950 . S
C1516 C1517 1.386 . S
C1516 C1518 1.391 . S
C1517 C1516 1.386 . S
C1517 C1521 1.393 . S
C1518 H1510 0.950 . S
C1518 C1516 1.391 . S
C1518 C1519 1.400 . S
C1519 C1518 1.400 . S
C1519 C1520 1.398 . S
C1519 C1525 1.491 . S
C1520 H1511 0.950 . S
C1520 C1519 1.398 . S
C1520 C1521 1.391 . S
C1521 H1509 0.950 . S
C1521 C1517 1.393 . S
C1521 C1520 1.391 . S
C1522 H1512 0.950 . S
C1522 C1523 1.386 . S
C1522 C1524 1.391 . S
C1523 C1522 1.386 . S
C1523 C1527 1.393 . S
C1524 H1513 0.950 . S
C1524 C1522 1.391 . S
C1524 C1525 1.400 . S
C1525 C1519 1.491 . S
C1525 C1524 1.400 . S
C1525 C1526 1.398 . S
C1526 H1514 0.950 . S
C1526 C1525 1.398 . S
C1526 C1527 1.391 . S
C1527 H1515 0.950 . S
C1527 C1523 1.393 . S
C1527 C1526 1.391 . S
H1528 C1536 0.950 . S
H1529 C1541 0.950 . S
H1530 C1538 0.950 . S
H1531 C1540 0.950 . S
H1532 C1542 0.950 . S
H1533 C1544 0.950 . S
H1534 C1546 0.950 . S
H1535 C1547 0.950 . S
C1536 H1528 0.950 . S
C1536 C1537 1.386 . S
C1536 C1538 1.391 . S
C1537 C1536 1.386 . S
C1537 C1541 1.393 . S
C1538 H1530 0.950 . S
C1538 C1536 1.391 . S
C1538 C1539 1.400 . S
C1539 C1538 1.400 . S
C1539 C1540 1.398 . S
C1539 C1545 1.491 . S
C1540 H1531 0.950 . S
C1540 C1539 1.398 . S
C1540 C1541 1.391 . S
C1541 H1529 0.950 . S
C1541 C1537 1.393 . S
C1541 C1540 1.391 . S
C1542 H1532 0.950 . S
C1542 C1543 1.386 . S
C1542 C1544 1.391 . S
C1543 C1542 1.386 . S
C1543 C1547 1.393 . S
C1544 H1533 0.950 . S
C1544 C1542 1.391 . S
C1544 C1545 1.400 . S
C1545 C1539 1.491 . S
C1545 C1544 1.400 . S
C1545 C1546 1.398 . S
C1546 H1534 0.950 . S
C1546 C1545 1.398 . S
C1546 C1547 1.391 . S
C1547 H1535 0.950 . S
C1547 C1543 1.393 . S
C1547 C1546 1.391 . S
H1548 C1556 0.950 . S
H1549 C1561 0.950 . S
H1550 C1558 0.950 . S
H1551 C1560 0.950 . S
H1552 C1562 0.950 . S
H1553 C1564 0.950 . S
H1554 C1566 0.950 . S
H1555 C1567 0.950 . S
C1556 H1548 0.950 . S
C1556 C1557 1.386 . S
C1556 C1558 1.391 . S
C1557 C1556 1.386 . S
C1557 C1561 1.393 . S
C1558 H1550 0.950 . S
C1558 C1556 1.391 . S
C1558 C1559 1.400 . S
C1559 C1558 1.400 . S
C1559 C1560 1.398 . S
C1559 C1565 1.491 . S
C1560 H1551 0.950 . S
C1560 C1559 1.398 . S
C1560 C1561 1.391 . S
C1561 H1549 0.950 . S
C1561 C1557 1.393 . S
C1561 C1560 1.391 . S
C1562 H1552 0.950 . S
C1562 C1563 1.386 . S
C1562 C1564 1.391 . S
C1563 C1562 1.386 . S
C1563 C1567 1.393 . S
C1564 H1553 0.950 . S
C1564 C1562 1.391 . S
C1564 C1565 1.400 . S
C1565 C1559 1.491 . S
C1565 C1564 1.400 . S
C1565 C1566 1.398 . S
C1566 H1554 0.950 . S
C1566 C1565 1.398 . S
C1566 C1567 1.391 . S
C1567 H1555 0.950 . S
C1567 C1563 1.393 . S
C1567 C1566 1.391 . S
H1568 C1576 0.950 . S
H1569 C1581 0.950 . S
H1570 C1578 0.950 . S
H1571 C1580 0.950 . S
H1572 C1582 0.950 . S
H1573 C1584 0.950 . S
H1574 C1586 0.950 . S
H1575 C1587 0.950 . S
C1576 H1568 0.950 . S
C1576 C1577 1.386 . S
C1576 C1578 1.391 . S
C1577 C1576 1.386 . S
C1577 C1581 1.393 . S
C1578 H1570 0.950 . S
C1578 C1576 1.391 . S
C1578 C1579 1.400 . S
C1579 C1578 1.400 . S
C1579 C1580 1.398 . S
C1579 C1585 1.491 . S
C1580 H1571 0.950 . S
C1580 C1579 1.398 . S
C1580 C1581 1.391 . S
C1581 H1569 0.950 . S
C1581 C1577 1.393 . S
C1581 C1580 1.391 . S
C1582 H1572 0.950 . S
C1582 C1583 1.386 . S
C1582 C1584 1.391 . S
C1583 C1582 1.386 . S
C1583 C1587 1.393 . S
C1584 H1573 0.950 . S
C1584 C1582 1.391 . S
C1584 C1585 1.400 . S
C1585 C1579 1.491 . S
C1585 C1584 1.400 . S
C1585 C1586 1.398 . S
C1586 H1574 0.950 . S
C1586 C1585 1.398 . S
C1586 C1587 1.391 . S
C1587 H1575 0.950 . S
C1587 C1583 1.393 . S
C1587 C1586 1.391 . S
H1588 C1596 0.950 . S
H1589 C1601 0.950 . S
H1590 C1598 0.950 . S
H1591 C1600 0.950 . S
H1592 C1602 0.950 . S
H1593 C1604 0.950 . S
H1594 C1606 0.950 . S
H1595 C1607 0.950 . S
C1596 H1588 0.950 . S
C1596 C1597 1.386 . S
C1596 C1598 1.391 . S
C1597 C1596 1.386 . S
C1597 C1601 1.393 . S
C1598 H1590 0.950 . S
C1598 C1596 1.391 . S
C1598 C1599 1.400 . S
C1599 C1598 1.400 . S
C1599 C1600 1.398 . S
C1599 C1605 1.491 . S
C1600 H1591 0.950 . S
C1600 C1599 1.398 . S
C1600 C1601 1.391 . S
C1601 H1589 0.950 . S
C1601 C1597 1.393 . S
C1601 C1600 1.391 . S
C1602 H1592 0.950 . S
C1602 C1603 1.386 . S
C1602 C1604 1.391 . S
C1603 C1602 1.386 . S
C1603 C1607 1.393 . S
C1604 H1593 0.950 . S
C1604 C1602 1.391 . S
C1604 C1605 1.400 . S
C1605 C1599 1.491 . S
C1605 C1604 1.400 . S
C1605 C1606 1.398 . S
C1606 H1594 0.950 . S
C1606 C1605 1.398 . S
C1606 C1607 1.391 . S
C1607 H1595 0.950 . S
C1607 C1603 1.393 . S
C1607 C1606 1.391 . S
H1608 C1616 0.950 . S
H1609 C1621 0.950 . S
H1610 C1618 0.950 . S
H1611 C1620 0.950 . S
H1612 C1622 0.950 . S
H1613 C1624 0.950 . S
H1614 C1626 0.950 . S
H1615 C1627 0.950 . S
C1616 H1608 0.950 . S
C1616 C1617 1.386 . S
C1616 C1618 1.391 . S
C1617 C1616 1.386 . S
C1617 C1621 1.393 . S
C1618 H1610 0.950 . S
C1618 C1616 1.391 . S
C1618 C1619 1.400 . S
C1619 C1618 1.400 . S
C1619 C1620 1.398 . S
C1619 C1625 1.491 . S
C1620 H1611 0.950 . S
C1620 C1619 1.398 . S
C1620 C1621 1.391 . S
C1621 H1609 0.950 . S
C1621 C1617 1.393 . S
C1621 C1620 1.391 . S
C1622 H1612 0.950 . S
C1622 C1623 1.386 . S
C1622 C1624 1.391 . S
C1623 C1622 1.386 . S
C1623 C1627 1.393 . S
C1624 H1613 0.950 . S
C1624 C1622 1.391 . S
C1624 C1625 1.400 . S
C1625 C1619 1.491 . S
C1625 C1624 1.400 . S
C1625 C1626 1.398 . S
C1626 H1614 0.950 . S
C1626 C1625 1.398 . S
C1626 C1627 1.391 . S
C1627 H1615 0.950 . S
C1627 C1623 1.393 . S
C1627 C1626 1.391 . S
H1628 C1636 0.950 . S
H1629 C1641 0.950 . S
H1630 C1638 0.950 . S
H1631 C1640 0.950 . S
H1632 C1642 0.950 . S
H1633 C1644 0.950 . S
H1634 C1646 0.950 . S
H1635 C1647 0.950 . S
C1636 H1628 0.950 . S
C1636 C1637 1.386 . S
C1636 C1638 1.391 . S
C1637 C1636 1.386 . S
C1637 C1641 1.393 . S
C1638 H1630 0.950 . S
C1638 C1636 1.391 . S
C1638 C1639 1.400 . S
C1639 C1638 1.400 . S
C1639 C1640 1.398 . S
C1639 C1645 1.491 . S
C1640 H1631 0.950 . S
C1640 C1639 1.398 . S
C1640 C1641 1.391 . S
C1641 H1629 0.950 . S
C1641 C1637 1.393 . S
C1641 C1640 1.391 . S
C1642 H1632 0.950 . S
C1642 C1643 1.386 . S
C1642 C1644 1.391 . S
C1643 C1642 1.386 . S
C1643 C1647 1.393 . S
C1644 H1633 0.950 . S
C1644 C1642 1.391 . S
C1644 C1645 1.400 . S
C1645 C1639 1.491 . S
C1645 C1644 1.400 . S
C1645 C1646 1.398 . S
C1646 H1634 0.950 . S
C1646 C1645 1.398 . S
C1646 C1647 1.391 . S
C1647 H1635 0.950 . S
C1647 C1643 1.393 . S
C1647 C1646 1.391 . S
H1648 C1656 0.950 . S
H1649 C1661 0.950 . S
H1650 C1658 0.950 . S
H1651 C1660 0.950 . S
H1652 C1662 0.950 . S
H1653 C1664 0.950 . S
H1654 C1666 0.950 . S
H1655 C1667 0.950 . S
C1656 H1648 0.950 . S
C1656 C1657 1.386 . S
C1656 C1658 1.391 . S
C1657 C1656 1.386 . S
C1657 C1661 1.393 . S
C1658 H1650 0.950 . S
C1658 C1656 1.391 . S
C1658 C1659 1.400 . S
C1659 C1658 1.400 . S
C1659 C1660 1.398 . S
C1659 C1665 1.491 . S
C1660 H1651 0.950 . S
C1660 C1659 1.398 . S
C1660 C1661 1.391 . S
C1661 H1649 0.950 . S
C1661 C1657 1.393 . S
C1661 C1660 1.391 . S
C1662 H1652 0.950 . S
C1662 C1663 1.386 . S
C1662 C1664 1.391 . S
C1663 C1662 1.386 . S
C1663 C1667 1.393 . S
C1664 H1653 0.950 . S
C1664 C1662 1.391 . S
C1664 C1665 1.400 . S
C1665 C1659 1.491 . S
C1665 C1664 1.400 . S
C1665 C1666 1.398 . S
C1666 H1654 0.950 . S
C1666 C1665 1.398 . S
C1666 C1667 1.391 . S
C1667 H1655 0.950 . S
C1667 C1663 1.393 . S
C1667 C1666 1.391 . S
H1668 C1676 0.950 . S
H1669 C1681 0.950 . S
H1670 C1678 0.950 . S
H1671 C1680 0.950 . S
H1672 C1682 0.950 . S
H1673 C1684 0.950 . S
H1674 C1686 0.950 . S
H1675 C1687 0.950 . S
C1676 H1668 0.950 . S
C1676 C1677 1.386 . S
C1676 C1678 1.391 . S
C1677 C1676 1.386 . S
C1677 C1681 1.393 . S
C1678 H1670 0.950 . S
C1678 C1676 1.391 . S
C1678 C1679 1.400 . S
C1679 C1678 1.400 . S
C1679 C1680 1.398 . S
C1679 C1685 1.491 . S
C1680 H1671 0.950 . S
C1680 C1679 1.398 . S
C1680 C1681 1.391 . S
C1681 H1669 0.950 . S
C1681 C1677 1.393 . S
C1681 C1680 1.391 . S
C1682 H1672 0.950 . S
C1682 C1683 1.386 . S
C1682 C1684 1.391 . S
C1683 C1682 1.386 . S
C1683 C1687 1.393 . S
C1684 H1673 0.950 . S
C1684 C1682 1.391 . S
C1684 C1685 1.400 . S
C1685 C1679 1.491 . S
C1685 C1684 1.400 . S
C1685 C1686 1.398 . S
C1686 H1674 0.950 . S
C1686 C1685 1.398 . S
C1686 C1687 1.391 . S
C1687 H1675 0.950 . S
C1687 C1683 1.393 . S
C1687 C1686 1.391 . S
H1688 C1696 0.950 . S
H1689 C1701 0.950 . S
H1690 C1698 0.950 . S
H1691 C1700 0.950 . S
H1692 C1702 0.950 . S
H1693 C1704 0.950 . S
H1694 C1706 0.950 . S
H1695 C1707 0.950 . S
C1696 H1688 0.950 . S
C1696 C1697 1.386 . S
C1696 C1698 1.391 . S
C1697 C1696 1.386 . S
C1697 C1701 1.393 . S
C1698 H1690 0.950 . S
C1698 C1696 1.391 . S
C1698 C1699 1.400 . S
C1699 C1698 1.400 . S
C1699 C1700 1.398 . S
C1699 C1705 1.491 . S
C1700 H1691 0.950 . S
C1700 C1699 1.398 . S
C1700 C1701 1.391 . S
C1701 H1689 0.950 . S
C1701 C1697 1.393 . S
C1701 C1700 1.391 . S
C1702 H1692 0.950 . S
C1702 C1703 1.386 . S
C1702 C1704 1.391 . S
C1703 C1702 1.386 . S
C1703 C1707 1.393 . S
C1704 H1693 0.950 . S
C1704 C1702 1.391 . S
C1704 C1705 1.400 . S
C1705 C1699 1.491 . S
C1705 C1704 1.400 . S
C1705 C1706 1.398 . S
C1706 H1694 0.950 . S
C1706 C1705 1.398 . S
C1706 C1707 1.391 . S
C1707 H1695 0.950 . S
C1707 C1703 1.393 . S
C1707 C1706 1.391 . S
H1708 C1716 0.950 . S
H1709 C1721 0.950 . S
H1710 C1718 0.950 . S
H1711 C1720 0.950 . S
H1712 C1722 0.950 . S
H1713 C1724 0.950 . S
H1714 C1726 0.950 . S
H1715 C1727 0.950 . S
C1716 H1708 0.950 . S
C1716 C1717 1.386 . S
C1716 C1718 1.391 . S
C1717 C1716 1.386 . S
C1717 C1721 1.393 . S
C1718 H1710 0.950 . S
C1718 C1716 1.391 . S
C1718 C1719 1.400 . S
C1719 C1718 1.400 . S
C1719 C1720 1.398 . S
C1719 C1725 1.491 . S
C1720 H1711 0.950 . S
C1720 C1719 1.398 . S
C1720 C1721 1.391 . S
C1721 H1709 0.950 . S
C1721 C1717 1.393 . S
C1721 C1720 1.391 . S
C1722 H1712 0.950 . S
C1722 C1723 1.386 . S
C1722 C1724 1.391 . S
C1723 C1722 1.386 . S
C1723 C1727 1.393 . S
C1724 H1713 0.950 . S
C1724 C1722 1.391 . S
C1724 C1725 1.400 . S
C1725 C1719 1.491 . S
C1725 C1724 1.400 . S
C1725 C1726 1.398 . S
C1726 H1714 0.950 . S
C1726 C1725 1.398 . S
C1726 C1727 1.391 . S
C1727 H1715 0.950 . S
C1727 C1723 1.393 . S
C1727 C1726 1.391 . S
H1728 C1736 0.950 . S
H1729 C1741 0.950 . S
H1730 C1738 0.950 . S
H1731 C1740 0.950 . S
H1732 C1742 0.950 . S
H1733 C1744 0.950 . S
H1734 C1746 0.950 . S
H1735 C1747 0.950 . S
C1736 H1728 0.950 . S
C1736 C1737 1.386 . S
C1736 C1738 1.391 . S
C1737 C1736 1.386 . S
C1737 C1741 1.393 . S
C1738 H1730 0.950 . S
C1738 C1736 1.391 . S
C1738 C1739 1.400 . S
C1739 C1738 1.400 . S
C1739 C1740 1.398 . S
C1739 C1745 1.491 . S
C1740 H1731 0.950 . S
C1740 C1739 1.398 . S
C1740 C1741 1.391 . S
C1741 H1729 0.950 . S
C1741 C1737 1.393 . S
C1741 C1740 1.391 . S
C1742 H1732 0.950 . S
C1742 C1743 1.386 . S
C1742 C1744 1.391 . S
C1743 C1742 1.386 . S
C1743 C1747 1.393 . S
C1744 H1733 0.950 . S
C1744 C1742 1.391 . S
C1744 C1745 1.400 . S
C1745 C1739 1.491 . S
C1745 C1744 1.400 . S
C1745 C1746 1.398 . S
C1746 H1734 0.950 . S
C1746 C1745 1.398 . S
C1746 C1747 1.391 . S
C1747 H1735 0.950 . S
C1747 C1743 1.393 . S
C1747 C1746 1.391 . S
H1748 C1756 0.950 . S
H1749 C1761 0.950 . S
H1750 C1758 0.950 . S
H1751 C1760 0.950 . S
H1752 C1762 0.950 . S
H1753 C1764 0.950 . S
H1754 C1766 0.950 . S
H1755 C1767 0.950 . S
C1756 H1748 0.950 . S
C1756 C1757 1.386 . S
C1756 C1758 1.391 . S
C1757 C1756 1.386 . S
C1757 C1761 1.393 . S
C1758 H1750 0.950 . S
C1758 C1756 1.391 . S
C1758 C1759 1.400 . S
C1759 C1758 1.400 . S
C1759 C1760 1.398 . S
C1759 C1765 1.491 . S
C1760 H1751 0.950 . S
C1760 C1759 1.398 . S
C1760 C1761 1.391 . S
C1761 H1749 0.950 . S
C1761 C1757 1.393 . S
C1761 C1760 1.391 . S
C1762 H1752 0.950 . S
C1762 C1763 1.386 . S
C1762 C1764 1.391 . S
C1763 C1762 1.386 . S
C1763 C1767 1.393 . S
C1764 H1753 0.950 . S
C1764 C1762 1.391 . S
C1764 C1765 1.400 . S
C1765 C1759 1.491 . S
C1765 C1764 1.400 . S
C1765 C1766 1.398 . S
C1766 H1754 0.950 . S
C1766 C1765 1.398 . S
C1766 C1767 1.391 . S
C1767 H1755 0.950 . S
C1767 C1763 1.393 . S
C1767 C1766 1.391 . S
H1768 C1776 0.950 . S
H1769 C1781 0.950 . S
H1770 C1778 0.950 . S
H1771 C1780 0.950 . S
H1772 C1782 0.950 . S
H1773 C1784 0.950 . S
H1774 C1786 0.950 . S
H1775 C1787 0.950 . S
C1776 H1768 0.950 . S
C1776 C1777 1.386 . S
C1776 C1778 1.391 . S
C1777 C1776 1.386 . S
C1777 C1781 1.393 . S
C1778 H1770 0.950 . S
C1778 C1776 1.391 . S
C1778 C1779 1.400 . S
C1779 C1778 1.400 . S
C1779 C1780 1.398 . S
C1779 C1785 1.491 . S
C1780 H1771 0.950 . S
C1780 C1779 1.398 . S
C1780 C1781 1.391 . S
C1781 H1769 0.950 . S
C1781 C1777 1.393 . S
C1781 C1780 1.391 . S
C1782 H1772 0.950 . S
C1782 C1783 1.386 . S
C1782 C1784 1.391 . S
C1783 C1782 1.386 . S
C1783 C1787 1.393 . S
C1784 H1773 0.950 . S
C1784 C1782 1.391 . S
C1784 C1785 1.400 . S
C1785 C1779 1.491 . S
C1785 C1784 1.400 . S
C1785 C1786 1.398 . S
C1786 H1774 0.950 . S
C1786 C1785 1.398 . S
C1786 C1787 1.391 . S
C1787 H1775 0.950 . S
C1787 C1783 1.393 . S
C1787 C1786 1.391 . S
H1788 C1796 0.950 . S
H1789 C1801 0.950 . S
H1790 C1798 0.950 . S
H1791 C1800 0.950 . S
H1792 C1802 0.950 . S
H1793 C1804 0.950 . S
H1794 C1806 0.950 . S
H1795 C1807 0.950 . S
C1796 H1788 0.950 . S
C1796 C1797 1.386 . S
C1796 C1798 1.391 . S
C1797 C1796 1.386 . S
C1797 C1801 1.393 . S
C1798 H1790 0.950 . S
C1798 C1796 1.391 . S
C1798 C1799 1.400 . S
C1799 C1798 1.400 . S
C1799 C1800 1.398 . S
C1799 C1805 1.491 . S
C1800 H1791 0.950 . S
C1800 C1799 1.398 . S
C1800 C1801 1.391 . S
C1801 H1789 0.950 . S
C1801 C1797 1.393 . S
C1801 C1800 1.391 . S
C1802 H1792 0.950 . S
C1802 C1803 1.386 . S
C1802 C1804 1.391 . S
C1803 C1802 1.386 . S
C1803 C1807 1.393 . S
C1804 H1793 0.950 . S
C1804 C1802 1.391 . S
C1804 C1805 1.400 . S
C1805 C1799 1.491 . S
C1805 C1804 1.400 . S
C1805 C1806 1.398 . S
C1806 H1794 0.950 . S
C1806 C1805 1.398 . S
C1806 C1807 1.391 . S
C1807 H1795 0.950 . S
C1807 C1803 1.393 . S
C1807 C1806 1.391 . S
H1808 C1816 0.950 . S
H1809 C1821 0.950 . S
H1810 C1818 0.950 . S
H1811 C1820 0.950 . S
H1812 C1822 0.950 . S
H1813 C1824 0.950 . S
H1814 C1826 0.950 . S
H1815 C1827 0.950 . S
C1816 H1808 0.950 . S
C1816 C1817 1.386 . S
C1816 C1818 1.391 . S
C1817 C1816 1.386 . S
C1817 C1821 1.393 . S
C1818 H1810 0.950 . S
C1818 C1816 1.391 . S
C1818 C1819 1.400 . S
C1819 C1818 1.400 . S
C1819 C1820 1.398 . S
C1819 C1825 1.491 . S
C1820 H1811 0.950 . S
C1820 C1819 1.398 . S
C1820 C1821 1.391 . S
C1821 H1809 0.950 . S
C1821 C1817 1.393 . S
C1821 C1820 1.391 . S
C1822 H1812 0.950 . S
C1822 C1823 1.386 . S
C1822 C1824 1.391 . S
C1823 C1822 1.386 . S
C1823 C1827 1.393 . S
C1824 H1813 0.950 . S
C1824 C1822 1.391 . S
C1824 C1825 1.400 . S
C1825 C1819 1.491 . S
C1825 C1824 1.400 . S
C1825 C1826 1.398 . S
C1826 H1814 0.950 . S
C1826 C1825 1.398 . S
C1826 C1827 1.391 . S
C1827 H1815 0.950 . S
C1827 C1823 1.393 . S
C1827 C1826 1.391 . S
H1828 C1836 0.950 . S
H1829 C1841 0.950 . S
H1830 C1838 0.950 . S
H1831 C1840 0.950 . S
H1832 C1842 0.950 . S
H1833 C1844 0.950 . S
H1834 C1846 0.950 . S
H1835 C1847 0.950 . S
C1836 H1828 0.950 . S
C1836 C1837 1.386 . S
C1836 C1838 1.391 . S
C1837 C1836 1.386 . S
C1837 C1841 1.393 . S
C1838 H1830 0.950 . S
C1838 C1836 1.391 . S
C1838 C1839 1.400 . S
C1839 C1838 1.400 . S
C1839 C1840 1.398 . S
C1839 C1845 1.491 . S
C1840 H1831 0.950 . S
C1840 C1839 1.398 . S
C1840 C1841 1.391 . S
C1841 H1829 0.950 . S
C1841 C1837 1.393 . S
C1841 C1840 1.391 . S
C1842 H1832 0.950 . S
C1842 C1843 1.386 . S
C1842 C1844 1.391 . S
C1843 C1842 1.386 . S
C1843 C1847 1.393 . S
C1844 H1833 0.950 . S
C1844 C1842 1.391 . S
C1844 C1845 1.400 . S
C1845 C1839 1.491 . S
C1845 C1844 1.400 . S
C1845 C1846 1.398 . S
C1846 H1834 0.950 . S
C1846 C1845 1.398 . S
C1846 C1847 1.391 . S
C1847 H1835 0.950 . S
C1847 C1843 1.393 . S
C1847 C1846 1.391 . S
H1848 C1856 0.950 . S
H1849 C1861 0.950 . S
H1850 C1858 0.950 . S
H1851 C1860 0.950 . S
H1852 C1862 0.950 . S
H1853 C1864 0.950 . S
H1854 C1866 0.950 . S
H1855 C1867 0.950 . S
C1856 H1848 0.950 . S
C1856 C1857 1.386 . S
C1856 C1858 1.391 . S
C1857 C1856 1.386 . S
C1857 C1861 1.393 . S
C1858 H1850 0.950 . S
C1858 C1856 1.391 . S
C1858 C1859 1.400 . S
C1859 C1858 1.400 . S
C1859 C1860 1.398 . S
C1859 C1865 1.491 . S
C1860 H1851 0.950 . S
C1860 C1859 1.398 . S
C1860 C1861 1.391 . S
C1861 H1849 0.950 . S
C1861 C1857 1.393 . S
C1861 C1860 1.391 . S
C1862 H1852 0.950 . S
C1862 C1863 1.386 . S
C1862 C1864 1.391 . S
C1863 C1862 1.386 . S
C1863 C1867 1.393 . S
C1864 H1853 0.950 . S
C1864 C1862 1.391 . S
C1864 C1865 1.400 . S
C1865 C1859 1.491 . S
C1865 C1864 1.400 . S
C1865 C1866 1.398 . S
C1866 H1854 0.950 . S
C1866 C1865 1.398 . S
C1866 C1867 1.391 . S
C1867 H1855 0.950 . S
C1867 C1863 1.393 . S
C1867 C1866 1.391 . S
H1868 C1876 0.950 . S
H1869 C1881 0.950 . S
H1870 C1878 0.950 . S
H1871 C1880 0.950 . S
H1872 C1882 0.950 . S
H1873 C1884 0.950 . S
H1874 C1886 0.950 . S
H1875 C1887 0.950 . S
C1876 H1868 0.950 . S
C1876 C1877 1.386 . S
C1876 C1878 1.391 . S
C1877 C1876 1.386 . S
C1877 C1881 1.393 . S
C1878 H1870 0.950 . S
C1878 C1876 1.391 . S
C1878 C1879 1.400 . S
C1879 C1878 1.400 . S
C1879 C1880 1.398 . S
C1879 C1885 1.491 . S
C1880 H1871 0.950 . S
C1880 C1879 1.398 . S
C1880 C1881 1.391 . S
C1881 H1869 0.950 . S
C1881 C1877 1.393 . S
C1881 C1880 1.391 . S
C1882 H1872 0.950 . S
C1882 C1883 1.386 . S
C1882 C1884 1.391 . S
C1883 C1882 1.386 . S
C1883 C1887 1.393 . S
C1884 H1873 0.950 . S
C1884 C1882 1.391 . S
C1884 C1885 1.400 . S
C1885 C1879 1.491 . S
C1885 C1884 1.400 . S
C1885 C1886 1.398 . S
C1886 H1874 0.950 . S
C1886 C1885 1.398 . S
C1886 C1887 1.391 . S
C1887 H1875 0.950 . S
C1887 C1883 1.393 . S
C1887 C1886 1.391 . S
H1888 C1896 0.950 . S
H1889 C1901 0.950 . S
H1890 C1898 0.950 . S
H1891 C1900 0.950 . S
H1892 C1902 0.950 . S
H1893 C1904 0.950 . S
H1894 C1906 0.950 . S
H1895 C1907 0.950 . S
C1896 H1888 0.950 . S
C1896 C1897 1.386 . S
C1896 C1898 1.391 . S
C1897 C1896 1.386 . S
C1897 C1901 1.393 . S
C1898 H1890 0.950 . S
C1898 C1896 1.391 . S
C1898 C1899 1.400 . S
C1899 C1898 1.400 . S
C1899 C1900 1.398 . S
C1899 C1905 1.491 . S
C1900 H1891 0.950 . S
C1900 C1899 1.398 . S
C1900 C1901 1.391 . S
C1901 H1889 0.950 . S
C1901 C1897 1.393 . S
C1901 C1900 1.391 . S
C1902 H1892 0.950 . S
C1902 C1903 1.386 . S
C1902 C1904 1.391 . S
C1903 C1902 1.386 . S
C1903 C1907 1.393 . S
C1904 H1893 0.950 . S
C1904 C1902 1.391 . S
C1904 C1905 1.400 . S
C1905 C1899 1.491 . S
C1905 C1904 1.400 . S
C1905 C1906 1.398 . S
C1906 H1894 0.950 . S
C1906 C1905 1.398 . S
C1906 C1907 1.391 . S
C1907 H1895 0.950 . S
C1907 C1903 1.393 . S
C1907 C1906 1.391 . S
H1908 C1916 0.950 . S
H1909 C1921 0.950 . S
H1910 C1918 0.950 . S
H1911 C1920 0.950 . S
H1912 C1922 0.950 . S
H1913 C1924 0.950 . S
H1914 C1926 0.950 . S
H1915 C1927 0.950 . S
C1916 H1908 0.950 . S
C1916 C1917 1.386 . S
C1916 C1918 1.391 . S
C1917 C1916 1.386 . S
C1917 C1921 1.393 . S
C1918 H1910 0.950 . S
C1918 C1916 1.391 . S
C1918 C1919 1.400 . S
C1919 C1918 1.400 . S
C1919 C1920 1.398 . S
C1919 C1925 1.491 . S
C1920 H1911 0.950 . S
C1920 C1919 1.398 . S
C1920 C1921 1.391 . S
C1921 H1909 0.950 . S
C1921 C1917 1.393 . S
C1921 C1920 1.391 . S
C1922 H1912 0.950 . S
C1922 C1923 1.386 . S
C1922 C1924 1.391 . S
C1923 C1922 1.386 . S
C1923 C1927 1.393 . S
C1924 H1913 0.950 . S
C1924 C1922 1.391 . S
C1924 C1925 1.400 . S
C1925 C1919 1.491 . S
C1925 C1924 1.400 . S
C1925 C1926 1.398 . S
C1926 H1914 0.950 . S
C1926 C1925 1.398 . S
C1926 C1927 1.391 . S
C1927 H1915 0.950 . S
C1927 C1923 1.393 . S
C1927 C1926 1.391 . S
H1928 C1936 0.950 . S
H1929 C1941 0.950 . S
H1930 C1938 0.950 . S
H1931 C1940 0.950 . S
H1932 C1942 0.950 . S
H1933 C1944 0.950 . S
H1934 C1946 0.950 . S
H1935 C1947 0.950 . S
C1936 H1928 0.950 . S
C1936 C1937 1.386 . S
C1936 C1938 1.391 . S
C1937 C1936 1.386 . S
C1937 C1941 1.393 . S
C1938 H1930 0.950 . S
C1938 C1936 1.391 . S
C1938 C1939 1.400 . S
C1939 C1938 1.400 . S
C1939 C1940 1.398 . S
C1939 C1945 1.491 . S
C1940 H1931 0.950 . S
C1940 C1939 1.398 . S
C1940 C1941 1.391 . S
C1941 H1929 0.950 . S
C1941 C1937 1.393 . S
C1941 C1940 1.391 . S
C1942 H1932 0.950 . S
C1942 C1943 1.386 . S
C1942 C1944 1.391 . S
C1943 C1942 1.386 . S
C1943 C1947 1.393 . S
C1944 H1933 0.950 . S
C1944 C1942 1.391 . S
C1944 C1945 1.400 . S
C1945 C1939 1.491 . S
C1945 C1944 1.400 . S
C1945 C1946 1.398 . S
C1946 H1934 0.950 . S
C1946 C1945 1.398 . S
C1946 C1947 1.391 . S
C1947 H1935 0.950 . S
C1947 C1943 1.393 . S
C1947 C1946 1.391 . S
H1948 C1956 0.950 . S
H1949 C1961 0.950 . S
H1950 C1958 0.950 . S
H1951 C1960 0.950 . S
H1952 C1962 0.950 . S
H1953 C1964 0.950 . S
H1954 C1966 0.950 . S
H1955 C1967 0.950 . S
C1956 H1948 0.950 . S
C1956 C1957 1.386 . S
C1956 C1958 1.391 . S
C1957 C1956 1.386 . S
C1957 C1961 1.393 . S
C1958 H1950 0.950 . S
C1958 C1956 1.391 . S
C1958 C1959 1.400 . S
C1959 C1958 1.400 . S
C1959 C1960 1.398 . S
C1959 C1965 1.491 . S
C1960 H1951 0.950 . S
C1960 C1959 1.398 . S
C1960 C1961 1.391 . S
C1961 H1949 0.950 . S
C1961 C1957 1.393 . S
C1961 C1960 1.391 . S
C1962 H1952 0.950 . S
C1962 C1963 1.386 . S
C1962 C1964 1.391 . S
C1963 C1962 1.386 . S
C1963 C1967 1.393 . S
C1964 H1953 0.950 . S
C1964 C1962 1.391 . S
C1964 C1965 1.400 . S
C1965 C1959 1.491 . S
C1965 C1964 1.400 . S
C1965 C1966 1.398 . S
C1966 H1954 0.950 . S
C1966 C1965 1.398 . S
C1966 C1967 1.391 . S
C1967 H1955 0.950 . S
C1967 C1963 1.393 . S
C1967 C1966 1.391 . S
H1968 C1976 0.950 . S
H1969 C1981 0.950 . S
H1970 C1978 0.950 . S
H1971 C1980 0.950 . S
H1972 C1982 0.950 . S
H1973 C1984 0.950 . S
H1974 C1986 0.950 . S
H1975 C1987 0.950 . S
C1976 H1968 0.950 . S
C1976 C1977 1.386 . S
C1976 C1978 1.391 . S
C1977 C1976 1.386 . S
C1977 C1981 1.393 . S
C1978 H1970 0.950 . S
C1978 C1976 1.391 . S
C1978 C1979 1.400 . S
C1979 C1978 1.400 . S
C1979 C1980 1.398 . S
C1979 C1985 1.491 . S
C1980 H1971 0.950 . S
C1980 C1979 1.398 . S
C1980 C1981 1.391 . S
C1981 H1969 0.950 . S
C1981 C1977 1.393 . S
C1981 C1980 1.391 . S
C1982 H1972 0.950 . S
C1982 C1983 1.386 . S
C1982 C1984 1.391 . S
C1983 C1982 1.386 . S
C1983 C1987 1.393 . S
C1984 H1973 0.950 . S
C1984 C1982 1.391 . S
C1984 C1985 1.400 . S
C1985 C1979 1.491 . S
C1985 C1984 1.400 . S
C1985 C1986 1.398 . S
C1986 H1974 0.950 . S
C1986 C1985 1.398 . S
C1986 C1987 1.391 . S
C1987 H1975 0.950 . S
C1987 C1983 1.393 . S
C1987 C1986 1.391 . S
H1988 C1996 0.950 1_565 S
H1989 C2001 0.950 . S
H1990 C1998 0.950 . S
H1991 C2000 0.950 . S
H1992 C2002 0.950 . S
H1993 C2004 0.950 . S
H1994 C2006 0.950 . S
H1995 C2007 0.950 . S
C1996 H1988 0.950 1_545 S
C1996 C1997 1.386 . S
C1996 C1998 1.391 . S
C1997 C1996 1.386 . S
C1997 C2001 1.393 . S
C1998 H1990 0.950 . S
C1998 C1996 1.391 . S
C1998 C1999 1.400 . S
C1999 C1998 1.400 . S
C1999 C2000 1.398 . S
C1999 C2005 1.491 . S
C2000 H1991 0.950 . S
C2000 C1999 1.398 . S
C2000 C2001 1.391 . S
C2001 H1989 0.950 . S
C2001 C1997 1.393 . S
C2001 C2000 1.391 . S
C2002 H1992 0.950 . S
C2002 C2003 1.386 . S
C2002 C2004 1.391 . S
C2003 C2002 1.386 . S
C2003 C2007 1.393 . S
C2004 H1993 0.950 . S
C2004 C2002 1.391 . S
C2004 C2005 1.400 . S
C2005 C1999 1.491 . S
C2005 C2004 1.400 . S
C2005 C2006 1.398 . S
C2006 H1994 0.950 . S
C2006 C2005 1.398 . S
C2006 C2007 1.391 . S
C2007 H1995 0.950 . S
C2007 C2003 1.393 . S
C2007 C2006 1.391 . S
H2008 C2016 0.950 . S
H2009 C2021 0.950 . S
H2010 C2018 0.950 . S
H2011 C2020 0.950 . S
H2012 C2022 0.950 . S
H2013 C2024 0.950 . S
H2014 C2026 0.950 . S
H2015 C2027 0.950 1_455 S
C2016 H2008 0.950 . S
C2016 C2017 1.386 . S
C2016 C2018 1.391 . S
C2017 C2016 1.386 . S
C2017 C2021 1.393 . S
C2018 H2010 0.950 . S
C2018 C2016 1.391 . S
C2018 C2019 1.400 . S
C2019 C2018 1.400 . S
C2019 C2020 1.398 . S
C2019 C2025 1.491 . S
C2020 H2011 0.950 . S
C2020 C2019 1.398 . S
C2020 C2021 1.391 . S
C2021 H2009 0.950 . S
C2021 C2017 1.393 . S
C2021 C2020 1.391 . S
C2022 H2012 0.950 . S
C2022 C2023 1.386 . S
C2022 C2024 1.391 . S
C2023 C2022 1.386 . S
C2023 C2027 1.393 . S
C2024 H2013 0.950 . S
C2024 C2022 1.391 . S
C2024 C2025 1.400 . S
C2025 C2019 1.491 . S
C2025 C2024 1.400 . S
C2025 C2026 1.398 . S
C2026 H2014 0.950 . S
C2026 C2025 1.398 . S
C2026 C2027 1.391 . S
C2027 H2015 0.950 1_655 S
C2027 C2023 1.393 . S
C2027 C2026 1.391 . S
H2028 C2036 0.950 . S
H2029 C2041 0.950 . S
H2030 C2038 0.950 . S
H2031 C2040 0.950 . S
H2032 C2042 0.950 . S
H2033 C2044 0.950 . S
H2034 C2046 0.950 . S
H2035 C2047 0.950 . S
C2036 H2028 0.950 . S
C2036 C2037 1.386 . S
C2036 C2038 1.391 . S
C2037 C2036 1.386 . S
C2037 C2041 1.393 . S
C2038 H2030 0.950 . S
C2038 C2036 1.391 . S
C2038 C2039 1.400 . S
C2039 C2038 1.400 . S
C2039 C2040 1.398 . S
C2039 C2045 1.491 . S
C2040 H2031 0.950 . S
C2040 C2039 1.398 . S
C2040 C2041 1.391 . S
C2041 H2029 0.950 . S
C2041 C2037 1.393 . S
C2041 C2040 1.391 . S
C2042 H2032 0.950 . S
C2042 C2043 1.386 . S
C2042 C2044 1.391 . S
C2043 C2042 1.386 . S
C2043 C2047 1.393 . S
C2044 H2033 0.950 . S
C2044 C2042 1.391 . S
C2044 C2045 1.400 . S
C2045 C2039 1.491 . S
C2045 C2044 1.400 . S
C2045 C2046 1.398 . S
C2046 H2034 0.950 . S
C2046 C2045 1.398 . S
C2046 C2047 1.391 . S
C2047 H2035 0.950 . S
C2047 C2043 1.393 . S
C2047 C2046 1.391 . S
H2048 C2056 0.950 . S
H2049 C2061 0.950 . S
H2050 C2058 0.950 . S
H2051 C2060 0.950 . S
H2052 C2062 0.950 1_565 S
H2053 C2064 0.950 . S
H2054 C2066 0.950 . S
H2055 C2067 0.950 . S
C2056 H2048 0.950 . S
C2056 C2057 1.386 . S
C2056 C2058 1.391 . S
C2057 C2056 1.386 . S
C2057 C2061 1.393 . S
C2058 H2050 0.950 . S
C2058 C2056 1.391 . S
C2058 C2059 1.400 . S
C2059 C2058 1.400 . S
C2059 C2060 1.398 . S
C2059 C2065 1.491 . S
C2060 H2051 0.950 . S
C2060 C2059 1.398 . S
C2060 C2061 1.391 . S
C2061 H2049 0.950 . S
C2061 C2057 1.393 . S
C2061 C2060 1.391 . S
C2062 H2052 0.950 1_545 S
C2062 C2063 1.386 . S
C2062 C2064 1.391 . S
C2063 C2062 1.386 . S
C2063 C2067 1.393 . S
C2064 H2053 0.950 . S
C2064 C2062 1.391 . S
C2064 C2065 1.400 . S
C2065 C2059 1.491 . S
C2065 C2064 1.400 . S
C2065 C2066 1.398 . S
C2066 H2054 0.950 . S
C2066 C2065 1.398 . S
C2066 C2067 1.391 . S
C2067 H2055 0.950 . S
C2067 C2063 1.393 . S
C2067 C2066 1.391 . S
H2068 C2076 0.950 . S
H2069 C2081 0.950 . S
H2070 C2078 0.950 . S
H2071 C2080 0.950 . S
H2072 C2082 0.950 . S
H2073 C2084 0.950 . S
H2074 C2086 0.950 . S
H2075 C2087 0.950 1_455 S
C2076 H2068 0.950 . S
C2076 C2077 1.386 . S
C2076 C2078 1.391 . S
C2077 C2076 1.386 . S
C2077 C2081 1.393 . S
C2078 H2070 0.950 . S
C2078 C2076 1.391 . S
C2078 C2079 1.400 . S
C2079 C2078 1.400 . S
C2079 C2080 1.398 . S
C2079 C2085 1.491 . S
C2080 H2071 0.950 . S
C2080 C2079 1.398 . S
C2080 C2081 1.391 . S
C2081 H2069 0.950 . S
C2081 C2077 1.393 . S
C2081 C2080 1.391 . S
C2082 H2072 0.950 . S
C2082 C2083 1.386 . S
C2082 C2084 1.391 . S
C2083 C2082 1.386 . S
C2083 C2087 1.393 . S
C2084 H2073 0.950 . S
C2084 C2082 1.391 . S
C2084 C2085 1.400 . S
C2085 C2079 1.491 . S
C2085 C2084 1.400 . S
C2085 C2086 1.398 . S
C2086 H2074 0.950 . S
C2086 C2085 1.398 . S
C2086 C2087 1.391 . S
C2087 H2075 0.950 1_655 S
C2087 C2083 1.393 . S
C2087 C2086 1.391 . S
H2088 C2096 0.950 . S
H2089 C2101 0.950 . S
H2090 C2098 0.950 . S
H2091 C2100 0.950 . S
H2092 C2102 0.950 . S
H2093 C2104 0.950 . S
H2094 C2106 0.950 . S
H2095 C2107 0.950 . S
C2096 H2088 0.950 . S
C2096 C2097 1.386 . S
C2096 C2098 1.391 . S
C2097 C2096 1.386 . S
C2097 C2101 1.393 . S
C2098 H2090 0.950 . S
C2098 C2096 1.391 . S
C2098 C2099 1.400 . S
C2099 C2098 1.400 . S
C2099 C2100 1.398 . S
C2099 C2105 1.491 . S
C2100 H2091 0.950 . S
C2100 C2099 1.398 . S
C2100 C2101 1.391 . S
C2101 H2089 0.950 . S
C2101 C2097 1.393 . S
C2101 C2100 1.391 . S
C2102 H2092 0.950 . S
C2102 C2103 1.386 . S
C2102 C2104 1.391 . S
C2103 C2102 1.386 . S
C2103 C2107 1.393 . S
C2104 H2093 0.950 . S
C2104 C2102 1.391 . S
C2104 C2105 1.400 . S
C2105 C2099 1.491 . S
C2105 C2104 1.400 . S
C2105 C2106 1.398 . S
C2106 H2094 0.950 . S
C2106 C2105 1.398 . S
C2106 C2107 1.391 . S
C2107 H2095 0.950 . S
C2107 C2103 1.393 . S
C2107 C2106 1.391 . S
H2108 C2116 0.950 . S
H2109 C2121 0.950 . S
H2110 C2118 0.950 . S
H2111 C2120 0.950 . S
H2112 C2122 0.950 1_545 S
H2113 C2124 0.950 . S
H2114 C2126 0.950 . S
H2115 C2127 0.950 . S
C2116 H2108 0.950 . S
C2116 C2117 1.386 . S
C2116 C2118 1.391 . S
C2117 C2116 1.386 . S
C2117 C2121 1.393 . S
C2118 H2110 0.950 . S
C2118 C2116 1.391 . S
C2118 C2119 1.400 . S
C2119 C2118 1.400 . S
C2119 C2120 1.398 . S
C2119 C2125 1.491 . S
C2120 H2111 0.950 . S
C2120 C2119 1.398 . S
C2120 C2121 1.391 . S
C2121 H2109 0.950 . S
C2121 C2117 1.393 . S
C2121 C2120 1.391 . S
C2122 H2112 0.950 1_565 S
C2122 C2123 1.386 . S
C2122 C2124 1.391 . S
C2123 C2122 1.386 . S
C2123 C2127 1.393 . S
C2124 H2113 0.950 . S
C2124 C2122 1.391 . S
C2124 C2125 1.400 . S
C2125 C2119 1.491 . S
C2125 C2124 1.400 . S
C2125 C2126 1.398 . S
C2126 H2114 0.950 . S
C2126 C2125 1.398 . S
C2126 C2127 1.391 . S
C2127 H2115 0.950 . S
C2127 C2123 1.393 . S
C2127 C2126 1.391 . S
H2128 C2136 0.950 . S
H2129 C2141 0.950 . S
H2130 C2138 0.950 . S
H2131 C2140 0.950 . S
H2132 C2142 0.950 . S
H2133 C2144 0.950 . S
H2134 C2146 0.950 . S
H2135 C2147 0.950 . S
C2136 H2128 0.950 . S
C2136 C2137 1.386 . S
C2136 C2138 1.391 . S
C2137 C2136 1.386 . S
C2137 C2141 1.393 . S
C2138 H2130 0.950 . S
C2138 C2136 1.391 . S
C2138 C2139 1.400 . S
C2139 C2138 1.400 . S
C2139 C2140 1.398 . S
C2139 C2145 1.491 . S
C2140 H2131 0.950 . S
C2140 C2139 1.398 . S
C2140 C2141 1.391 . S
C2141 H2129 0.950 . S
C2141 C2137 1.393 . S
C2141 C2140 1.391 . S
C2142 H2132 0.950 . S
C2142 C2143 1.386 . S
C2142 C2144 1.391 . S
C2143 C2142 1.386 . S
C2143 C2147 1.393 . S
C2144 H2133 0.950 . S
C2144 C2142 1.391 . S
C2144 C2145 1.400 . S
C2145 C2139 1.491 . S
C2145 C2144 1.400 . S
C2145 C2146 1.398 . S
C2146 H2134 0.950 . S
C2146 C2145 1.398 . S
C2146 C2147 1.391 . S
C2147 H2135 0.950 . S
C2147 C2143 1.393 . S
C2147 C2146 1.391 . S
H2148 C2156 0.950 . S
H2149 C2161 0.950 . S
H2150 C2158 0.950 . S
H2151 C2160 0.950 . S
H2152 C2162 0.950 . S
H2153 C2164 0.950 . S
H2154 C2166 0.950 . S
H2155 C2167 0.950 1_455 S
C2156 H2148 0.950 . S
C2156 C2157 1.386 . S
C2156 C2158 1.391 . S
C2157 C2156 1.386 . S
C2157 C2161 1.393 . S
C2158 H2150 0.950 . S
C2158 C2156 1.391 . S
C2158 C2159 1.400 . S
C2159 C2158 1.400 . S
C2159 C2160 1.398 . S
C2159 C2165 1.491 . S
C2160 H2151 0.950 . S
C2160 C2159 1.398 . S
C2160 C2161 1.391 . S
C2161 H2149 0.950 . S
C2161 C2157 1.393 . S
C2161 C2160 1.391 . S
C2162 H2152 0.950 . S
C2162 C2163 1.386 1_655 S
C2162 C2164 1.391 . S
C2163 C2162 1.386 1_455 S
C2163 C2167 1.393 1_455 S
C2164 H2153 0.950 . S
C2164 C2162 1.391 . S
C2164 C2165 1.400 . S
C2165 C2159 1.491 . S
C2165 C2164 1.400 . S
C2165 C2166 1.398 . S
C2166 H2154 0.950 . S
C2166 C2165 1.398 . S
C2166 C2167 1.391 . S
C2167 H2155 0.950 1_655 S
C2167 C2163 1.393 1_655 S
C2167 C2166 1.391 . S
H2168 C2176 0.950 . S
H2169 C2181 0.950 . S
H2170 C2178 0.950 . S
H2171 C2180 0.950 . S
H2172 C2182 0.950 . S
H2173 C2184 0.950 . S
H2174 C2186 0.950 . S
H2175 C2187 0.950 . S
C2176 H2168 0.950 . S
C2176 C2177 1.386 . S
C2176 C2178 1.391 . S
C2177 C2176 1.386 . S
C2177 C2181 1.393 . S
C2178 H2170 0.950 . S
C2178 C2176 1.391 . S
C2178 C2179 1.400 . S
C2179 C2178 1.400 . S
C2179 C2180 1.398 . S
C2179 C2185 1.491 . S
C2180 H2171 0.950 . S
C2180 C2179 1.398 . S
C2180 C2181 1.391 . S
C2181 H2169 0.950 . S
C2181 C2177 1.393 . S
C2181 C2180 1.391 . S
C2182 H2172 0.950 . S
C2182 C2183 1.386 . S
C2182 C2184 1.391 . S
C2183 C2182 1.386 . S
C2183 C2187 1.393 . S
C2184 H2173 0.950 . S
C2184 C2182 1.391 . S
C2184 C2185 1.400 . S
C2185 C2179 1.491 . S
C2185 C2184 1.400 . S
C2185 C2186 1.398 . S
C2186 H2174 0.950 . S
C2186 C2185 1.398 . S
C2186 C2187 1.391 . S
C2187 H2175 0.950 . S
C2187 C2183 1.393 . S
C2187 C2186 1.391 . S
H2188 C2196 0.950 . S
H2189 C2201 0.950 1_565 S
H2190 C2198 0.950 . S
H2191 C2200 0.950 . S
H2192 C2202 0.950 . S
H2193 C2204 0.950 . S
H2194 C2206 0.950 . S
H2195 C2207 0.950 . S
C2196 H2188 0.950 . S
C2196 C2197 1.386 1_545 S
C2196 C2198 1.391 . S
C2197 C2196 1.386 1_565 S
C2197 C2201 1.393 1_565 S
C2198 H2190 0.950 . S
C2198 C2196 1.391 . S
C2198 C2199 1.400 . S
C2199 C2198 1.400 . S
C2199 C2200 1.398 . S
C2199 C2205 1.491 . S
C2200 H2191 0.950 . S
C2200 C2199 1.398 . S
C2200 C2201 1.391 . S
C2201 H2189 0.950 1_545 S
C2201 C2197 1.393 1_545 S
C2201 C2200 1.391 . S
C2202 H2192 0.950 . S
C2202 C2203 1.386 . S
C2202 C2204 1.391 . S
C2203 C2202 1.386 . S
C2203 C2207 1.393 . S
C2204 H2193 0.950 . S
C2204 C2202 1.391 . S
C2204 C2205 1.400 . S
C2205 C2199 1.491 . S
C2205 C2204 1.400 . S
C2205 C2206 1.398 . S
C2206 H2194 0.950 . S
C2206 C2205 1.398 . S
C2206 C2207 1.391 . S
C2207 H2195 0.950 . S
C2207 C2203 1.393 . S
C2207 C2206 1.391 . S
H2208 C2216 0.945 1_455 S
H2209 C2221 0.950 . S
H2210 C2218 0.950 . S
H2211 C2220 0.950 . S
H2212 C2222 0.950 . S
H2213 C2224 0.950 . S
H2214 C2226 0.950 . S
H2215 C2227 0.950 . S
C2216 H2208 0.945 1_655 S
C2216 C2217 1.388 . S
C2216 C2218 1.393 1_655 S
C2217 C2216 1.388 . S
C2217 C2221 1.393 . S
C2218 H2210 0.950 . S
C2218 C2216 1.393 1_455 S
C2218 C2219 1.400 . S
C2219 C2218 1.400 . S
C2219 C2220 1.398 1_455 S
C2219 C2225 1.491 . S
C2220 H2211 0.950 . S
C2220 C2219 1.398 1_655 S
C2220 C2221 1.391 . S
C2221 H2209 0.950 . S
C2221 C2217 1.393 . S
C2221 C2220 1.391 . S
C2222 H2212 0.950 . S
C2222 C2223 1.386 . S
C2222 C2224 1.391 . S
C2223 C2222 1.386 . S
C2223 C2227 1.393 . S
C2224 H2213 0.950 . S
C2224 C2222 1.391 . S
C2224 C2225 1.400 . S
C2225 C2219 1.491 . S
C2225 C2224 1.400 . S
C2225 C2226 1.398 . S
C2226 H2214 0.950 . S
C2226 C2225 1.398 . S
C2226 C2227 1.391 . S
C2227 H2215 0.950 . S
C2227 C2223 1.393 . S
C2227 C2226 1.391 . S
H2228 C2236 0.950 . S
H2229 C2241 0.950 . S
H2230 C2238 0.950 . S
H2231 C2240 0.950 . S
H2232 C2242 0.950 . S
H2233 C2244 0.950 . S
H2234 C2246 0.950 . S
H2235 C2247 0.950 . S
C2236 H2228 0.950 . S
C2236 C2237 1.386 . S
C2236 C2238 1.391 . S
C2237 C2236 1.386 . S
C2237 C2241 1.393 . S
C2238 H2230 0.950 . S
C2238 C2236 1.391 . S
C2238 C2239 1.400 . S
C2239 C2238 1.400 . S
C2239 C2240 1.398 . S
C2239 C2245 1.491 . S
C2240 H2231 0.950 . S
C2240 C2239 1.398 . S
C2240 C2241 1.391 . S
C2241 H2229 0.950 . S
C2241 C2237 1.393 . S
C2241 C2240 1.391 . S
C2242 H2232 0.950 . S
C2242 C2243 1.386 . S
C2242 C2244 1.391 . S
C2243 C2242 1.386 . S
C2243 C2247 1.393 . S
C2244 H2233 0.950 . S
C2244 C2242 1.391 . S
C2244 C2245 1.400 . S
C2245 C2239 1.491 . S
C2245 C2244 1.400 . S
C2245 C2246 1.398 . S
C2246 H2234 0.950 . S
C2246 C2245 1.398 . S
C2246 C2247 1.391 . S
C2247 H2235 0.950 . S
C2247 C2243 1.393 . S
C2247 C2246 1.391 . S
H2248 C2256 0.950 . S
H2249 C2261 0.950 . S
H2250 C2258 0.950 . S
H2251 C2260 0.950 . S
H2252 C2262 0.950 . S
H2253 C2264 0.950 . S
H2254 C2266 0.950 . S
H2255 C2267 0.950 . S
C2256 H2248 0.950 . S
C2256 C2257 1.386 1_565 S
C2256 C2258 1.391 . S
C2257 C2256 1.386 1_545 S
C2257 C2261 1.393 . S
C2258 H2250 0.950 . S
C2258 C2256 1.391 . S
C2258 C2259 1.400 . S
C2259 C2258 1.400 . S
C2259 C2260 1.398 1_565 S
C2259 C2265 1.491 . S
C2260 H2251 0.950 . S
C2260 C2259 1.398 1_545 S
C2260 C2261 1.391 . S
C2261 H2249 0.950 . S
C2261 C2257 1.393 . S
C2261 C2260 1.391 . S
C2262 H2252 0.950 . S
C2262 C2263 1.386 1_545 S
C2262 C2264 1.391 . S
C2263 C2262 1.386 1_565 S
C2263 C2267 1.393 . S
C2264 H2253 0.950 . S
C2264 C2262 1.391 . S
C2264 C2265 1.400 1_545 S
C2265 C2259 1.491 . S
C2265 C2264 1.400 1_565 S
C2265 C2266 1.398 . S
C2266 H2254 0.950 . S
C2266 C2265 1.398 . S
C2266 C2267 1.391 . S
C2267 H2255 0.950 . S
C2267 C2263 1.393 . S
C2267 C2266 1.391 . S
H2268 C2276 0.950 . S
H2269 C2281 0.950 . S
H2270 C2278 0.950 . S
H2271 C2280 0.950 . S
H2272 C2282 0.949 1_565 S
H2273 C2284 0.950 . S
H2274 C2286 0.950 . S
H2275 C2287 0.950 . S
C2276 H2268 0.950 . S
C2276 C2277 1.386 . S
C2276 C2278 1.391 . S
C2277 C2276 1.386 . S
C2277 C2281 1.393 . S
C2278 H2270 0.950 . S
C2278 C2276 1.391 . S
C2278 C2279 1.400 . S
C2279 C2278 1.400 . S
C2279 C2280 1.398 . S
C2279 C2285 1.491 . S
C2280 H2271 0.950 . S
C2280 C2279 1.398 . S
C2280 C2281 1.391 . S
C2281 H2269 0.950 . S
C2281 C2277 1.393 . S
C2281 C2280 1.391 . S
C2282 H2272 0.949 1_545 S
C2282 C2283 1.385 . S
C2282 C2284 1.392 1_545 S
C2283 C2282 1.385 . S
C2283 C2287 1.393 . S
C2284 H2273 0.950 . S
C2284 C2282 1.392 1_565 S
C2284 C2285 1.400 . S
C2285 C2279 1.491 . S
C2285 C2284 1.400 . S
C2285 C2286 1.398 1_565 S
C2286 H2274 0.950 . S
C2286 C2285 1.398 1_545 S
C2286 C2287 1.391 . S
C2287 H2275 0.950 . S
C2287 C2283 1.393 . S
C2287 C2286 1.391 . S
H2288 C2296 0.950 . S
H2289 C2301 0.950 . S
H2290 C2298 0.950 . S
H2291 C2300 0.950 . S
H2292 C2302 0.950 . S
H2293 C2304 0.950 1_655 S
H2294 C2306 0.950 . S
H2295 C2307 0.950 . S
C2296 H2288 0.950 . S
C2296 C2297 1.386 1_455 S
C2296 C2298 1.391 . S
C2297 C2296 1.386 1_655 S
C2297 C2301 1.393 . S
C2298 H2290 0.950 . S
C2298 C2296 1.391 . S
C2298 C2299 1.400 . S
C2299 C2298 1.400 . S
C2299 C2300 1.398 1_455 S
C2299 C2305 1.491 . S
C2300 H2291 0.950 . S
C2300 C2299 1.398 1_655 S
C2300 C2301 1.391 . S
C2301 H2289 0.950 . S
C2301 C2297 1.393 . S
C2301 C2300 1.391 . S
C2302 H2292 0.950 . S
C2302 C2303 1.386 . S
C2302 C2304 1.391 . S
C2303 C2302 1.386 . S
C2303 C2307 1.393 . S
C2304 H2293 0.950 1_455 S
C2304 C2302 1.391 . S
C2304 C2305 1.400 . S
C2305 C2299 1.491 . S
C2305 C2304 1.400 . S
C2305 C2306 1.398 . S
C2306 H2294 0.950 . S
C2306 C2305 1.398 . S
C2306 C2307 1.391 . S
C2307 H2295 0.950 . S
C2307 C2303 1.393 . S
C2307 C2306 1.391 . S
H2308 C2316 0.950 . S
H2309 C2321 0.950 . S
H2310 C2318 0.950 . S
H2311 C2320 0.950 . S
H2312 C2322 0.950 . S
H2313 C2324 0.950 . S
H2314 C2326 0.950 . S
H2315 C2327 0.950 . S
C2316 H2308 0.950 . S
C2316 C2317 1.386 . S
C2316 C2318 1.391 . S
C2317 C2316 1.386 . S
C2317 C2321 1.393 . S
C2318 H2310 0.950 . S
C2318 C2316 1.391 . S
C2318 C2319 1.400 . S
C2319 C2318 1.400 . S
C2319 C2320 1.398 . S
C2319 C2325 1.491 . S
C2320 H2311 0.950 . S
C2320 C2319 1.398 . S
C2320 C2321 1.391 . S
C2321 H2309 0.950 . S
C2321 C2317 1.393 . S
C2321 C2320 1.391 . S
C2322 H2312 0.950 . S
C2322 C2323 1.386 . S
C2322 C2324 1.391 . S
C2323 C2322 1.386 . S
C2323 C2327 1.393 . S
C2324 H2313 0.950 . S
C2324 C2322 1.391 . S
C2324 C2325 1.400 . S
C2325 C2319 1.491 . S
C2325 C2324 1.400 . S
C2325 C2326 1.398 . S
C2326 H2314 0.950 . S
C2326 C2325 1.398 . S
C2326 C2327 1.391 . S
C2327 H2315 0.950 . S
C2327 C2323 1.393 . S
C2327 C2326 1.391 . S
H2328 C2336 0.950 . S
H2329 C2341 0.950 . S
H2330 C2338 0.950 . S
H2331 C2340 0.893 1_554 S
H2332 C2342 0.950 . S
H2333 C2344 0.950 . S
H2334 C2346 0.950 . S
H2335 C2347 0.950 . S
C2336 H2328 0.950 . S
C2336 C2337 1.386 1_545 S
C2336 C2338 1.391 . S
C2337 C2336 1.386 1_565 S
C2337 C2341 1.393 . S
C2338 H2330 0.950 . S
C2338 C2336 1.391 . S
C2338 C2339 1.400 . S
C2339 C2338 1.400 . S
C2339 C2340 1.422 . S
C2339 C2345 1.491 1_556 S
C2340 H2331 0.893 1_556 S
C2340 C2339 1.422 . S
C2340 C2341 1.427 1_545 S
C2341 H2329 0.950 . S
C2341 C2337 1.393 . S
C2341 C2340 1.427 1_565 S
C2342 H2332 0.950 . S
C2342 C2343 1.386 . S
C2342 C2344 1.391 . S
C2343 C2342 1.386 . S
C2343 C2347 1.393 . S
C2344 H2333 0.950 . S
C2344 C2342 1.391 . S
C2344 C2345 1.400 . S
C2345 C2339 1.491 1_554 S
C2345 C2344 1.400 . S
C2345 C2346 1.398 1_554 S
C2346 H2334 0.950 . S
C2346 C2345 1.398 1_556 S
C2346 C2347 1.391 1_556 S
C2347 H2335 0.950 . S
C2347 C2343 1.393 . S
C2347 C2346 1.391 1_554 S
H2348 C2356 0.950 . S
H2349 C2361 0.950 . S
H2350 C2358 0.950 . S
H2351 C2360 0.950 . S
H2352 C2362 0.957 . S
H2353 C2364 0.950 . S
H2354 C2366 0.950 . S
H2355 C2367 0.950 . S
C2356 H2348 0.950 . S
C2356 C2357 1.386 . S
C2356 C2358 1.391 . S
C2357 C2356 1.386 . S
C2357 C2361 1.393 . S
C2358 H2350 0.950 . S
C2358 C2356 1.391 . S
C2358 C2359 1.400 . S
C2359 C2358 1.400 . S
C2359 C2360 1.398 . S
C2359 C2365 1.491 1_554 S
C2360 H2351 0.950 . S
C2360 C2359 1.398 . S
C2360 C2361 1.391 . S
C2361 H2349 0.950 . S
C2361 C2357 1.393 . S
C2361 C2360 1.391 . S
C2362 H2352 0.957 . S
C2362 C2363 1.383 . S
C2362 C2364 1.387 1_455 S
C2363 C2362 1.383 . S
C2363 C2367 1.393 1_455 S
C2364 H2353 0.950 . S
C2364 C2362 1.387 1_655 S
C2364 C2365 1.400 . S
C2365 C2359 1.491 1_556 S
C2365 C2364 1.400 . S
C2365 C2366 1.398 . S
C2366 H2354 0.950 . S
C2366 C2365 1.398 . S
C2366 C2367 1.391 . S
C2367 H2355 0.950 . S
C2367 C2363 1.393 1_655 S
C2367 C2366 1.391 . S
H2368 C2376 0.950 . S
H2369 C2381 0.950 . S
H2370 C2378 0.950 . S
H2371 C2380 0.882 1_556 S
H2372 C2382 0.950 . S
H2373 C2384 0.950 . S
H2374 C2386 0.950 1_554 S
H2375 C2387 0.950 . S
C2376 H2368 0.950 . S
C2376 C2377 1.386 . S
C2376 C2378 1.391 . S
C2377 C2376 1.386 . S
C2377 C2381 1.393 . S
C2378 H2370 0.950 . S
C2378 C2376 1.391 . S
C2378 C2379 1.400 . S
C2379 C2378 1.400 . S
C2379 C2380 1.412 . S
C2379 C2385 1.491 1_554 S
C2380 H2371 0.882 1_554 S
C2380 C2379 1.412 . S
C2380 C2381 1.457 . S
C2381 H2369 0.950 . S
C2381 C2377 1.393 . S
C2381 C2380 1.457 . S
C2382 H2372 0.950 . S
C2382 C2383 1.386 . S
C2382 C2384 1.391 . S
C2383 C2382 1.386 . S
C2383 C2387 1.393 . S
C2384 H2373 0.950 . S
C2384 C2382 1.391 . S
C2384 C2385 1.400 . S
C2385 C2379 1.491 1_556 S
C2385 C2384 1.400 . S
C2385 C2386 1.398 . S
C2386 H2374 0.950 1_556 S
C2386 C2385 1.398 . S
C2386 C2387 1.391 . S
C2387 H2375 0.950 . S
C2387 C2383 1.393 . S
C2387 C2386 1.391 . S
H2388 C2396 0.950 1_565 S
H2389 C2401 0.950 . S
H2390 C2398 0.950 . S
H2391 C2400 0.950 . S
H2392 C2402 0.950 . S
H2393 C2404 0.950 . S
H2394 C2406 0.950 . S
H2395 C2407 0.950 . S
C2396 H2388 0.950 1_545 S
C2396 C2397 1.386 . S
C2396 C2398 1.391 1_545 S
C2397 C2396 1.386 . S
C2397 C2401 1.393 . S
C2398 H2390 0.950 . S
C2398 C2396 1.391 1_565 S
C2398 C2399 1.400 1_565 S
C2399 C2398 1.400 1_545 S
C2399 C2400 1.398 . S
C2399 C2405 1.491 . S
C2400 H2391 0.950 . S
C2400 C2399 1.398 . S
C2400 C2401 1.391 . S
C2401 H2389 0.950 . S
C2401 C2397 1.393 . S
C2401 C2400 1.391 . S
C2402 H2392 0.950 . S
C2402 C2403 1.386 1_545 S
C2402 C2404 1.391 . S
C2403 C2402 1.386 1_565 S
C2403 C2407 1.393 . S
C2404 H2393 0.950 . S
C2404 C2402 1.391 . S
C2404 C2405 1.400 . S
C2405 C2399 1.491 . S
C2405 C2404 1.400 . S
C2405 C2406 1.398 1_545 S
C2406 H2394 0.950 . S
C2406 C2405 1.398 1_565 S
C2406 C2407 1.391 . S
C2407 H2395 0.950 . S
C2407 C2403 1.393 . S
C2407 C2406 1.391 . S
H2408 C2416 0.950 . S
H2409 C2421 0.950 . S
H2410 C2418 0.950 . S
H2411 C2420 0.950 1_455 S
H2412 C2422 0.950 . S
H2413 C2424 0.950 . S
H2414 C2426 0.950 . S
H2415 C2427 0.950 . S
C2416 H2408 0.950 . S
C2416 C2417 1.386 . S
C2416 C2418 1.391 . S
C2417 C2416 1.386 . S
C2417 C2421 1.393 . S
C2418 H2410 0.950 . S
C2418 C2416 1.391 . S
C2418 C2419 1.400 . S
C2419 C2418 1.400 . S
C2419 C2420 1.398 . S
C2419 C2425 1.491 . S
C2420 H2411 0.950 1_655 S
C2420 C2419 1.398 . S
C2420 C2421 1.391 . S
C2421 H2409 0.950 . S
C2421 C2417 1.393 . S
C2421 C2420 1.391 . S
C2422 H2412 0.950 . S
C2422 C2423 1.386 . S
C2422 C2424 1.391 . S
C2423 C2422 1.386 . S
C2423 C2427 1.393 1_455 S
C2424 H2413 0.950 . S
C2424 C2422 1.391 . S
C2424 C2425 1.400 1_455 S
C2425 C2419 1.491 . S
C2425 C2424 1.400 1_655 S
C2425 C2426 1.398 . S
C2426 H2414 0.950 . S
C2426 C2425 1.398 . S
C2426 C2427 1.391 . S
C2427 H2415 0.950 . S
C2427 C2423 1.393 1_655 S
C2427 C2426 1.391 . S
H2428 C2436 0.950 . S
H2429 C2441 0.950 . S
H2430 C2438 0.950 . S
H2431 C2440 0.950 . S
H2432 C2442 0.950 . S
H2433 C2444 0.950 . S
H2434 C2446 0.950 . S
H2435 C2447 0.950 . S
C2436 H2428 0.950 . S
C2436 C2437 1.386 . S
C2436 C2438 1.391 . S
C2437 C2436 1.386 . S
C2437 C2441 1.393 . S
C2438 H2430 0.950 . S
C2438 C2436 1.391 . S
C2438 C2439 1.400 . S
C2439 C2438 1.400 . S
C2439 C2440 1.398 . S
C2439 C2445 1.491 . S
C2440 H2431 0.950 . S
C2440 C2439 1.398 . S
C2440 C2441 1.391 . S
C2441 H2429 0.950 . S
C2441 C2437 1.393 . S
C2441 C2440 1.391 . S
C2442 H2432 0.950 . S
C2442 C2443 1.386 . S
C2442 C2444 1.391 . S
C2443 C2442 1.386 . S
C2443 C2447 1.393 . S
C2444 H2433 0.950 . S
C2444 C2442 1.391 . S
C2444 C2445 1.400 . S
C2445 C2439 1.491 . S
C2445 C2444 1.400 . S
C2445 C2446 1.398 . S
C2446 H2434 0.950 . S
C2446 C2445 1.398 . S
C2446 C2447 1.391 . S
C2447 H2435 0.950 . S
C2447 C2443 1.393 . S
C2447 C2446 1.391 . S
H2448 C2456 0.950 . S
H2449 C2461 0.950 . S
H2450 C2458 0.900 1_554 S
H2451 C2460 0.950 . S
H2452 C2462 0.950 . S
H2453 C2464 1.006 . S
H2454 C2466 0.950 . S
H2455 C2467 0.950 . S
C2456 H2448 0.950 . S
C2456 C2457 1.386 . S
C2456 C2458 1.391 . S
C2457 C2456 1.386 . S
C2457 C2461 1.393 . S
C2458 H2450 0.900 1_556 S
C2458 C2456 1.391 . S
C2458 C2459 1.400 . S
C2459 C2458 1.400 . S
C2459 C2460 1.398 . S
C2459 C2465 1.491 1_556 S
C2460 H2451 0.950 . S
C2460 C2459 1.398 . S
C2460 C2461 1.391 . S
C2461 H2449 0.950 . S
C2461 C2457 1.393 . S
C2461 C2460 1.391 . S
C2462 H2452 0.950 . S
C2462 C2463 1.386 . S
C2462 C2464 1.391 1_545 S
C2463 C2462 1.386 . S
C2463 C2467 1.393 1_545 S
C2464 H2453 1.006 . S
C2464 C2462 1.391 1_565 S
C2464 C2465 1.400 . S
C2465 C2459 1.491 1_554 S
C2465 C2464 1.400 . S
C2465 C2466 1.398 . S
C2466 H2454 0.950 . S
C2466 C2465 1.398 . S
C2466 C2467 1.391 . S
C2467 H2455 0.950 . S
C2467 C2463 1.393 1_565 S
C2467 C2466 1.391 . S
H2468 C2476 0.950 . S
H2469 C2481 0.950 . S
H2470 C2478 0.972 . S
H2471 C2480 0.950 . S
H2472 C2482 0.953 . S
H2473 C2484 0.950 . S
H2474 C2486 0.950 . S
H2475 C2487 0.950 . S
C2476 H2468 0.950 . S
C2476 C2477 1.386 . S
C2476 C2478 1.379 1_654 S
C2477 C2476 1.386 . S
C2477 C2481 1.393 1_655 S
C2478 H2470 0.972 . S
C2478 C2476 1.379 1_456 S
C2478 C2479 1.391 1_556 S
C2479 C2478 1.391 1_554 S
C2479 C2480 1.398 . S
C2479 C2485 1.491 1_554 S
C2480 H2471 0.950 . S
C2480 C2479 1.398 . S
C2480 C2481 1.391 . S
C2481 H2469 0.950 . S
C2481 C2477 1.393 1_455 S
C2481 C2480 1.391 . S
C2482 H2472 0.953 . S
C2482 C2483 1.386 . S
C2482 C2484 1.391 1_556 S
C2483 C2482 1.386 . S
C2483 C2487 1.393 . S
C2484 H2473 0.950 . S
C2484 C2482 1.391 1_554 S
C2484 C2485 1.400 1_554 S
C2485 C2479 1.491 1_556 S
C2485 C2484 1.400 1_556 S
C2485 C2486 1.398 . S
C2486 H2474 0.950 . S
C2486 C2485 1.398 . S
C2486 C2487 1.391 . S
C2487 H2475 0.950 . S
C2487 C2483 1.393 . S
C2487 C2486 1.391 . S
H2488 C2496 0.950 . S
H2489 C2501 0.950 . S
H2490 C2498 0.950 . S
H2491 C2500 0.950 1_554 S
H2492 C2502 0.950 . S
H2493 C2504 0.950 . S
H2494 C2506 0.961 . S
H2495 C2507 0.950 . S
C2496 H2488 0.950 . S
C2496 C2497 1.386 . S
C2496 C2498 1.391 . S
C2497 C2496 1.386 . S
C2497 C2501 1.393 . S
C2498 H2490 0.950 . S
C2498 C2496 1.391 . S
C2498 C2499 1.400 . S
C2499 C2498 1.400 . S
C2499 C2500 1.398 . S
C2499 C2505 1.491 1_556 S
C2500 H2491 0.950 1_556 S
C2500 C2499 1.398 . S
C2500 C2501 1.391 . S
C2501 H2489 0.950 . S
C2501 C2497 1.393 . S
C2501 C2500 1.391 . S
C2502 H2492 0.950 . S
C2502 C2503 1.386 . S
C2502 C2504 1.391 . S
C2503 C2502 1.386 . S
C2503 C2507 1.393 . S
C2504 H2493 0.950 . S
C2504 C2502 1.391 . S
C2504 C2505 1.400 . S
C2505 C2499 1.491 1_554 S
C2505 C2504 1.400 . S
C2505 C2506 1.398 . S
C2506 H2494 0.961 . S
C2506 C2505 1.398 . S
C2506 C2507 1.391 . S
C2507 H2495 0.950 . S
C2507 C2503 1.393 . S
C2507 C2506 1.391 . S
H2508 C2516 0.950 . S
H2509 C2521 0.950 . S
H2510 C2518 0.950 . S
H2511 C2520 0.950 . S
H2512 C2522 0.950 . S
H2513 C2524 0.950 . S
H2514 C2526 0.950 . S
H2515 C2527 0.950 . S
C2516 H2508 0.950 . S
C2516 C2517 1.386 1_455 S
C2516 C2518 1.391 . S
C2517 C2516 1.386 1_655 S
C2517 C2521 1.393 . S
C2518 H2510 0.950 . S
C2518 C2516 1.391 . S
C2518 C2519 1.400 . S
C2519 C2518 1.400 . S
C2519 C2520 1.398 . S
C2519 C2525 1.491 . S
C2520 H2511 0.950 . S
C2520 C2519 1.398 . S
C2520 C2521 1.391 1_455 S
C2521 H2509 0.950 . S
C2521 C2517 1.393 . S
C2521 C2520 1.391 1_655 S
C2522 H2512 0.950 . S
C2522 C2523 1.386 . S
C2522 C2524 1.391 . S
C2523 C2522 1.386 . S
C2523 C2527 1.393 . S
C2524 H2513 0.950 . S
C2524 C2522 1.391 . S
C2524 C2525 1.400 . S
C2525 C2519 1.491 . S
C2525 C2524 1.400 . S
C2525 C2526 1.398 . S
C2526 H2514 0.950 . S
C2526 C2525 1.398 . S
C2526 C2527 1.391 . S
C2527 H2515 0.950 . S
C2527 C2523 1.393 . S
C2527 C2526 1.391 . S
H2528 C2536 0.950 . S
H2529 C2541 0.950 . S
H2530 C2538 0.950 . S
H2531 C2540 0.950 . S
H2532 C2542 0.950 . S
H2533 C2544 0.950 . S
H2534 C2546 0.950 . S
H2535 C2547 0.950 . S
C2536 H2528 0.950 . S
C2536 C2537 1.386 . S
C2536 C2538 1.391 . S
C2537 C2536 1.386 . S
C2537 C2541 1.393 . S
C2538 H2530 0.950 . S
C2538 C2536 1.391 . S
C2538 C2539 1.400 . S
C2539 C2538 1.400 . S
C2539 C2540 1.398 . S
C2539 C2545 1.491 . S
C2540 H2531 0.950 . S
C2540 C2539 1.398 . S
C2540 C2541 1.391 . S
C2541 H2529 0.950 . S
C2541 C2537 1.393 . S
C2541 C2540 1.391 . S
C2542 H2532 0.950 . S
C2542 C2543 1.386 . S
C2542 C2544 1.391 . S
C2543 C2542 1.386 . S
C2543 C2547 1.393 . S
C2544 H2533 0.950 . S
C2544 C2542 1.391 . S
C2544 C2545 1.400 . S
C2545 C2539 1.491 . S
C2545 C2544 1.400 . S
C2545 C2546 1.398 . S
C2546 H2534 0.950 . S
C2546 C2545 1.398 . S
C2546 C2547 1.391 . S
C2547 H2535 0.950 . S
C2547 C2543 1.393 . S
C2547 C2546 1.391 . S
H2548 C2556 0.950 . S
H2549 C2561 0.950 . S
H2550 C2558 0.950 . S
H2551 C2560 0.950 . S
H2552 C2562 0.950 1_545 S
H2553 C2564 0.950 . S
H2554 C2566 0.950 . S
H2555 C2567 0.950 . S
C2556 H2548 0.950 . S
C2556 C2557 1.386 . S
C2556 C2558 1.391 . S
C2557 C2556 1.386 . S
C2557 C2561 1.393 . S
C2558 H2550 0.950 . S
C2558 C2556 1.391 . S
C2558 C2559 1.400 . S
C2559 C2558 1.400 . S
C2559 C2560 1.398 . S
C2559 C2565 1.491 . S
C2560 H2551 0.950 . S
C2560 C2559 1.398 . S
C2560 C2561 1.391 . S
C2561 H2549 0.950 . S
C2561 C2557 1.393 . S
C2561 C2560 1.391 . S
C2562 H2552 0.950 1_565 S
C2562 C2563 1.386 1_565 S
C2562 C2564 1.391 . S
C2563 C2562 1.386 1_545 S
C2563 C2567 1.393 1_545 S
C2564 H2553 0.950 . S
C2564 C2562 1.391 . S
C2564 C2565 1.400 . S
C2565 C2559 1.491 . S
C2565 C2564 1.400 . S
C2565 C2566 1.398 . S
C2566 H2554 0.950 . S
C2566 C2565 1.398 . S
C2566 C2567 1.391 . S
C2567 H2555 0.950 . S
C2567 C2563 1.393 1_565 S
C2567 C2566 1.391 . S
H2568 C2576 0.950 . S
H2569 C2581 0.950 . S
H2570 C2578 0.950 . S
H2571 C2580 0.950 . S
H2572 C2582 0.950 . S
H2573 C2584 0.950 . S
H2574 C2586 0.950 . S
H2575 C2587 0.950 . S
C2576 H2568 0.950 . S
C2576 C2577 1.386 . S
C2576 C2578 1.391 . S
C2577 C2576 1.386 . S
C2577 C2581 1.393 . S
C2578 H2570 0.950 . S
C2578 C2576 1.391 . S
C2578 C2579 1.400 . S
C2579 C2578 1.400 . S
C2579 C2580 1.398 . S
C2579 C2585 1.491 . S
C2580 H2571 0.950 . S
C2580 C2579 1.398 . S
C2580 C2581 1.391 . S
C2581 H2569 0.950 . S
C2581 C2577 1.393 . S
C2581 C2580 1.391 . S
C2582 H2572 0.950 . S
C2582 C2583 1.386 1_655 S
C2582 C2584 1.390 . S
C2583 C2582 1.386 1_455 S
C2583 C2587 1.393 . S
C2584 H2573 0.950 . S
C2584 C2582 1.390 . S
C2584 C2585 1.400 . S
C2585 C2579 1.491 . S
C2585 C2584 1.400 . S
C2585 C2586 1.398 1_655 S
C2586 H2574 0.950 . S
C2586 C2585 1.398 1_455 S
C2586 C2587 1.391 . S
C2587 H2575 0.950 . S
C2587 C2583 1.393 . S
C2587 C2586 1.391 . S
H2588 C2596 0.950 . S
H2589 C2601 0.950 . S
H2590 C2598 0.950 . S
H2591 C2600 0.950 . S
H2592 C2602 0.950 . S
H2593 C2604 0.950 . S
H2594 C2606 0.950 . S
H2595 C2607 0.950 . S
C2596 H2588 0.950 . S
C2596 C2597 1.386 . S
C2596 C2598 1.391 . S
C2597 C2596 1.386 . S
C2597 C2601 1.393 . S
C2598 H2590 0.950 . S
C2598 C2596 1.391 . S
C2598 C2599 1.400 . S
C2599 C2598 1.400 . S
C2599 C2600 1.398 . S
C2599 C2605 1.491 . S
C2600 H2591 0.950 . S
C2600 C2599 1.398 . S
C2600 C2601 1.391 . S
C2601 H2589 0.950 . S
C2601 C2597 1.393 . S
C2601 C2600 1.391 . S
C2602 H2592 0.950 . S
C2602 C2603 1.386 . S
C2602 C2604 1.391 . S
C2603 C2602 1.386 . S
C2603 C2607 1.393 . S
C2604 H2593 0.950 . S
C2604 C2602 1.391 . S
C2604 C2605 1.400 . S
C2605 C2599 1.491 . S
C2605 C2604 1.400 . S
C2605 C2606 1.398 . S
C2606 H2594 0.950 . S
C2606 C2605 1.398 . S
C2606 C2607 1.391 . S
C2607 H2595 0.950 . S
C2607 C2603 1.393 . S
C2607 C2606 1.391 . S
H2608 C2616 0.950 . S
H2609 C2621 0.950 1_565 S
H2610 C2618 0.950 . S
H2611 C2620 0.939 1_565 S
H2612 C2622 0.950 . S
H2613 C2624 0.950 . S
H2614 C2626 0.950 . S
H2615 C2627 0.950 . S
C2616 H2608 0.950 . S
C2616 C2617 1.386 . S
C2616 C2618 1.391 . S
C2617 C2616 1.386 . S
C2617 C2621 1.393 . S
C2618 H2610 0.950 . S
C2618 C2616 1.391 . S
C2618 C2619 1.400 . S
C2619 C2618 1.400 . S
C2619 C2620 1.396 . S
C2619 C2625 1.491 . S
C2620 H2611 0.939 1_545 S
C2620 C2619 1.396 . S
C2620 C2621 1.405 . S
C2621 H2609 0.950 1_545 S
C2621 C2617 1.393 . S
C2621 C2620 1.405 . S
C2622 H2612 0.950 . S
C2622 C2623 1.386 . S
C2622 C2624 1.391 . S
C2623 C2622 1.386 . S
C2623 C2627 1.393 1_565 S
C2624 H2613 0.950 . S
C2624 C2622 1.391 . S
C2624 C2625 1.400 1_565 S
C2625 C2619 1.491 . S
C2625 C2624 1.400 1_545 S
C2625 C2626 1.398 . S
C2626 H2614 0.950 . S
C2626 C2625 1.398 . S
C2626 C2627 1.391 . S
C2627 H2615 0.950 . S
C2627 C2623 1.393 1_545 S
C2627 C2626 1.391 . S
H2628 C2636 0.950 . S
H2629 C2641 0.950 . S
H2630 C2638 0.950 . S
H2631 C2640 0.950 . S
H2632 C2642 0.950 . S
H2633 C2644 0.950 . S
H2634 C2646 0.950 . S
H2635 C2647 0.950 . S
C2636 H2628 0.950 . S
C2636 C2637 1.386 . S
C2636 C2638 1.391 . S
C2637 C2636 1.386 . S
C2637 C2641 1.393 . S
C2638 H2630 0.950 . S
C2638 C2636 1.391 . S
C2638 C2639 1.400 . S
C2639 C2638 1.400 . S
C2639 C2640 1.398 1_655 S
C2639 C2645 1.491 1_655 S
C2640 H2631 0.950 . S
C2640 C2639 1.398 1_455 S
C2640 C2641 1.391 1_455 S
C2641 H2629 0.950 . S
C2641 C2637 1.393 . S
C2641 C2640 1.391 1_655 S
C2642 H2632 0.950 . S
C2642 C2643 1.386 . S
C2642 C2644 1.391 . S
C2643 C2642 1.386 . S
C2643 C2647 1.393 . S
C2644 H2633 0.950 . S
C2644 C2642 1.391 . S
C2644 C2645 1.400 . S
C2645 C2639 1.491 1_455 S
C2645 C2644 1.400 . S
C2645 C2646 1.398 1_455 S
C2646 H2634 0.950 . S
C2646 C2645 1.398 1_655 S
C2646 C2647 1.391 1_655 S
C2647 H2635 0.950 . S
C2647 C2643 1.393 . S
C2647 C2646 1.391 1_455 S
H2648 C2656 0.950 . S
H2649 C2661 0.950 . S
H2650 C2658 0.950 . S
H2651 C2660 0.950 . S
H2652 C2662 0.950 . S
H2653 C2664 0.950 . S
H2654 C2666 0.950 . S
H2655 C2667 0.950 . S
C2656 H2648 0.950 . S
C2656 C2657 1.386 . S
C2656 C2658 1.391 . S
C2657 C2656 1.386 . S
C2657 C2661 1.393 . S
C2658 H2650 0.950 . S
C2658 C2656 1.391 . S
C2658 C2659 1.400 . S
C2659 C2658 1.400 . S
C2659 C2660 1.398 . S
C2659 C2665 1.491 . S
C2660 H2651 0.950 . S
C2660 C2659 1.398 . S
C2660 C2661 1.391 . S
C2661 H2649 0.950 . S
C2661 C2657 1.393 . S
C2661 C2660 1.391 . S
C2662 H2652 0.950 . S
C2662 C2663 1.386 . S
C2662 C2664 1.391 . S
C2663 C2662 1.386 . S
C2663 C2667 1.393 . S
C2664 H2653 0.950 . S
C2664 C2662 1.391 . S
C2664 C2665 1.400 . S
C2665 C2659 1.491 . S
C2665 C2664 1.400 . S
C2665 C2666 1.398 . S
C2666 H2654 0.950 . S
C2666 C2665 1.398 . S
C2666 C2667 1.391 . S
C2667 H2655 0.950 . S
C2667 C2663 1.393 . S
C2667 C2666 1.391 . S
H2668 C2676 0.950 . S
H2669 C2681 0.950 . S
H2670 C2678 0.950 . S
H2671 C2680 0.950 1_545 S
H2672 C2682 0.950 . S
H2673 C2684 0.950 . S
H2674 C2686 0.950 1_565 S
H2675 C2687 0.950 . S
C2676 H2668 0.950 . S
C2676 C2677 1.386 . S
C2676 C2678 1.391 . S
C2677 C2676 1.386 . S
C2677 C2681 1.393 . S
C2678 H2670 0.950 . S
C2678 C2676 1.391 . S
C2678 C2679 1.400 . S
C2679 C2678 1.400 . S
C2679 C2680 1.398 . S
C2679 C2685 1.491 1_565 S
C2680 H2671 0.950 1_565 S
C2680 C2679 1.398 . S
C2680 C2681 1.391 . S
C2681 H2669 0.950 . S
C2681 C2677 1.393 . S
C2681 C2680 1.391 . S
C2682 H2672 0.950 . S
C2682 C2683 1.386 . S
C2682 C2684 1.391 . S
C2683 C2682 1.386 . S
C2683 C2687 1.393 . S
C2684 H2673 0.950 . S
C2684 C2682 1.391 . S
C2684 C2685 1.400 . S
C2685 C2679 1.491 1_545 S
C2685 C2684 1.400 . S
C2685 C2686 1.398 . S
C2686 H2674 0.950 1_545 S
C2686 C2685 1.398 . S
C2686 C2687 1.391 . S
C2687 H2675 0.950 . S
C2687 C2683 1.393 . S
C2687 C2686 1.391 . S
H2688 C2696 0.950 . S
H2689 C2701 0.950 . S
H2690 C2698 0.960 . S
H2691 C2700 0.950 . S
H2692 C2702 0.950 . S
H2693 C2704 0.964 . S
H2694 C2706 0.950 . S
H2695 C2707 0.950 . S
C2696 H2688 0.950 . S
C2696 C2697 1.386 . S
C2696 C2698 1.382 1_655 S
C2697 C2696 1.386 . S
C2697 C2701 1.393 . S
C2698 H2690 0.960 . S
C2698 C2696 1.382 1_455 S
C2698 C2699 1.400 1_455 S
C2699 C2698 1.400 1_655 S
C2699 C2700 1.398 . S
C2699 C2705 1.491 1_655 S
C2700 H2691 0.950 . S
C2700 C2699 1.398 . S
C2700 C2701 1.391 . S
C2701 H2689 0.950 . S
C2701 C2697 1.393 . S
C2701 C2700 1.391 . S
C2702 H2692 0.950 . S
C2702 C2703 1.386 . S
C2702 C2704 1.378 1_455 S
C2703 C2702 1.386 . S
C2703 C2707 1.393 . S
C2704 H2693 0.964 . S
C2704 C2702 1.378 1_655 S
C2704 C2705 1.400 1_655 S
C2705 C2699 1.491 1_455 S
C2705 C2704 1.400 1_455 S
C2705 C2706 1.398 . S
C2706 H2694 0.950 . S
C2706 C2705 1.398 . S
C2706 C2707 1.391 . S
C2707 H2695 0.950 . S
C2707 C2703 1.393 . S
C2707 C2706 1.391 . S
H2708 C2716 0.950 . S
H2709 C2721 0.950 . S
H2710 C2718 0.950 . S
H2711 C2720 0.950 . S
H2712 C2722 0.950 . S
H2713 C2724 0.950 . S
H2714 C2726 0.950 . S
H2715 C2727 0.950 . S
C2716 H2708 0.950 . S
C2716 C2717 1.386 . S
C2716 C2718 1.391 . S
C2717 C2716 1.386 . S
C2717 C2721 1.393 . S
C2718 H2710 0.950 . S
C2718 C2716 1.391 . S
C2718 C2719 1.400 . S
C2719 C2718 1.400 . S
C2719 C2720 1.398 . S
C2719 C2725 1.491 . S
C2720 H2711 0.950 . S
C2720 C2719 1.398 . S
C2720 C2721 1.391 . S
C2721 H2709 0.950 . S
C2721 C2717 1.393 . S
C2721 C2720 1.391 . S
C2722 H2712 0.950 . S
C2722 C2723 1.386 . S
C2722 C2724 1.391 . S
C2723 C2722 1.386 . S
C2723 C2727 1.393 . S
C2724 H2713 0.950 . S
C2724 C2722 1.391 . S
C2724 C2725 1.400 . S
C2725 C2719 1.491 . S
C2725 C2724 1.400 . S
C2725 C2726 1.398 . S
C2726 H2714 0.950 . S
C2726 C2725 1.398 . S
C2726 C2727 1.391 . S
C2727 H2715 0.950 . S
C2727 C2723 1.393 . S
C2727 C2726 1.391 . S
H2728 C2736 0.950 . S
H2729 C2741 0.950 . S
H2730 C2738 0.950 . S
H2731 C2740 0.950 . S
H2732 C2742 0.950 . S
H2733 C2744 0.950 . S
H2734 C2746 0.950 . S
H2735 C2747 0.950 . S
C2736 H2728 0.950 . S
C2736 C2737 1.386 . S
C2736 C2738 1.391 1_545 S
C2737 C2736 1.386 . S
C2737 C2741 1.393 . S
C2738 H2730 0.950 . S
C2738 C2736 1.391 1_565 S
C2738 C2739 1.400 1_565 S
C2739 C2738 1.400 1_545 S
C2739 C2740 1.398 . S
C2739 C2745 1.491 1_545 S
C2740 H2731 0.950 . S
C2740 C2739 1.398 . S
C2740 C2741 1.391 . S
C2741 H2729 0.950 . S
C2741 C2737 1.393 . S
C2741 C2740 1.391 . S
C2742 H2732 0.950 . S
C2742 C2743 1.386 . S
C2742 C2744 1.391 1_565 S
C2743 C2742 1.386 . S
C2743 C2747 1.393 . S
C2744 H2733 0.950 . S
C2744 C2742 1.391 1_545 S
C2744 C2745 1.400 1_545 S
C2745 C2739 1.491 1_565 S
C2745 C2744 1.400 1_565 S
C2745 C2746 1.398 . S
C2746 H2734 0.950 . S
C2746 C2745 1.398 . S
C2746 C2747 1.391 . S
C2747 H2735 0.950 . S
C2747 C2743 1.393 . S
C2747 C2746 1.391 . S
H2748 C2756 0.950 . S
H2749 C2761 0.950 . S
H2750 C2758 0.950 . S
H2751 C2760 0.950 . S
H2752 C2762 0.950 . S
H2753 C2764 0.950 . S
H2754 C2766 0.950 . S
H2755 C2767 0.950 . S
C2756 H2748 0.950 . S
C2756 C2757 1.386 . S
C2756 C2758 1.391 . S
C2757 C2756 1.386 . S
C2757 C2761 1.393 . S
C2758 H2750 0.950 . S
C2758 C2756 1.391 . S
C2758 C2759 1.400 . S
C2759 C2758 1.400 . S
C2759 C2760 1.398 . S
C2759 C2765 1.491 . S
C2760 H2751 0.950 . S
C2760 C2759 1.398 . S
C2760 C2761 1.391 . S
C2761 H2749 0.950 . S
C2761 C2757 1.393 . S
C2761 C2760 1.391 . S
C2762 H2752 0.950 . S
C2762 C2763 1.386 . S
C2762 C2764 1.391 . S
C2763 C2762 1.386 . S
C2763 C2767 1.393 . S
C2764 H2753 0.950 . S
C2764 C2762 1.391 . S
C2764 C2765 1.400 . S
C2765 C2759 1.491 . S
C2765 C2764 1.400 . S
C2765 C2766 1.398 . S
C2766 H2754 0.950 . S
C2766 C2765 1.398 . S
C2766 C2767 1.391 . S
C2767 H2755 0.950 . S
C2767 C2763 1.393 . S
C2767 C2766 1.391 . S
H2768 C2776 0.950 . S
H2769 C2781 0.950 1_565 S
H2770 C2778 0.950 . S
H2771 C2780 0.950 . S
H2772 C2782 0.950 . S
H2773 C2784 0.950 . S
H2774 C2786 0.950 . S
H2775 C2787 0.950 . S
C2776 H2768 0.950 . S
C2776 C2777 1.386 . S
C2776 C2778 1.391 . S
C2777 C2776 1.386 . S
C2777 C2781 1.393 . S
C2778 H2770 0.950 . S
C2778 C2776 1.391 . S
C2778 C2779 1.400 . S
C2779 C2778 1.400 . S
C2779 C2780 1.398 . S
C2779 C2785 1.491 . S
C2780 H2771 0.950 . S
C2780 C2779 1.398 . S
C2780 C2781 1.391 . S
C2781 H2769 0.950 1_545 S
C2781 C2777 1.393 . S
C2781 C2780 1.391 . S
C2782 H2772 0.950 . S
C2782 C2783 1.386 . S
C2782 C2784 1.391 . S
C2783 C2782 1.386 . S
C2783 C2787 1.393 . S
C2784 H2773 0.950 . S
C2784 C2782 1.391 . S
C2784 C2785 1.400 . S
C2785 C2779 1.491 . S
C2785 C2784 1.400 . S
C2785 C2786 1.398 . S
C2786 H2774 0.950 . S
C2786 C2785 1.398 . S
C2786 C2787 1.391 . S
C2787 H2775 0.950 . S
C2787 C2783 1.393 . S
C2787 C2786 1.391 . S
H2788 C2796 0.950 . S
H2789 C2801 0.950 1_455 S
H2790 C2798 0.950 . S
H2791 C2800 0.950 . S
H2792 C2802 0.950 . S
H2793 C2804 0.950 . S
H2794 C2806 0.950 . S
H2795 C2807 0.950 . S
C2796 H2788 0.950 . S
C2796 C2797 1.386 . S
C2796 C2798 1.391 . S
C2797 C2796 1.386 . S
C2797 C2801 1.393 . S
C2798 H2790 0.950 . S
C2798 C2796 1.391 . S
C2798 C2799 1.400 . S
C2799 C2798 1.400 . S
C2799 C2800 1.398 . S
C2799 C2805 1.491 . S
C2800 H2791 0.950 . S
C2800 C2799 1.398 . S
C2800 C2801 1.391 . S
C2801 H2789 0.950 1_655 S
C2801 C2797 1.393 . S
C2801 C2800 1.391 . S
C2802 H2792 0.950 . S
C2802 C2803 1.386 . S
C2802 C2804 1.391 . S
C2803 C2802 1.386 . S
C2803 C2807 1.393 . S
C2804 H2793 0.950 . S
C2804 C2802 1.391 . S
C2804 C2805 1.400 . S
C2805 C2799 1.491 . S
C2805 C2804 1.400 . S
C2805 C2806 1.398 . S
C2806 H2794 0.950 . S
C2806 C2805 1.398 . S
C2806 C2807 1.391 . S
C2807 H2795 0.950 . S
C2807 C2803 1.393 . S
C2807 C2806 1.391 . S
H2808 C2816 0.950 . S
H2809 C2821 0.950 . S
H2810 C2818 0.950 . S
H2811 C2820 0.950 . S
H2812 C2822 0.950 . S
H2813 C2824 0.950 . S
H2814 C2826 0.950 . S
H2815 C2827 0.950 . S
C2816 H2808 0.950 . S
C2816 C2817 1.386 . S
C2816 C2818 1.391 . S
C2817 C2816 1.386 . S
C2817 C2821 1.393 . S
C2818 H2810 0.950 . S
C2818 C2816 1.391 . S
C2818 C2819 1.400 . S
C2819 C2818 1.400 . S
C2819 C2820 1.398 . S
C2819 C2825 1.491 . S
C2820 H2811 0.950 . S
C2820 C2819 1.398 . S
C2820 C2821 1.391 . S
C2821 H2809 0.950 . S
C2821 C2817 1.393 . S
C2821 C2820 1.391 . S
C2822 H2812 0.950 . S
C2822 C2823 1.386 . S
C2822 C2824 1.391 . S
C2823 C2822 1.386 . S
C2823 C2827 1.393 . S
C2824 H2813 0.950 . S
C2824 C2822 1.391 . S
C2824 C2825 1.400 . S
C2825 C2819 1.491 . S
C2825 C2824 1.400 . S
C2825 C2826 1.398 . S
C2826 H2814 0.950 . S
C2826 C2825 1.398 . S
C2826 C2827 1.391 . S
C2827 H2815 0.950 . S
C2827 C2823 1.393 . S
C2827 C2826 1.391 . S
H2828 C2836 0.950 . S
H2829 C2841 0.950 . S
H2830 C2838 0.950 . S
H2831 C2840 0.950 . S
H2832 C2842 0.950 . S
H2833 C2844 0.950 . S
H2834 C2846 0.950 . S
H2835 C2847 0.950 . S
C2836 H2828 0.950 . S
C2836 C2837 1.386 . S
C2836 C2838 1.391 . S
C2837 C2836 1.386 . S
C2837 C2841 1.393 . S
C2838 H2830 0.950 . S
C2838 C2836 1.391 . S
C2838 C2839 1.400 . S
C2839 C2838 1.400 . S
C2839 C2840 1.398 . S
C2839 C2845 1.491 . S
C2840 H2831 0.950 . S
C2840 C2839 1.398 . S
C2840 C2841 1.391 . S
C2841 H2829 0.950 . S
C2841 C2837 1.393 . S
C2841 C2840 1.391 . S
C2842 H2832 0.950 . S
C2842 C2843 1.386 . S
C2842 C2844 1.391 . S
C2843 C2842 1.386 . S
C2843 C2847 1.393 . S
C2844 H2833 0.950 . S
C2844 C2842 1.391 . S
C2844 C2845 1.400 . S
C2845 C2839 1.491 . S
C2845 C2844 1.400 . S
C2845 C2846 1.398 . S
C2846 H2834 0.950 . S
C2846 C2845 1.398 . S
C2846 C2847 1.391 . S
C2847 H2835 0.950 . S
C2847 C2843 1.393 . S
C2847 C2846 1.391 . S
H2848 C2856 0.950 . S
H2849 C2861 0.950 . S
H2850 C2858 0.950 . S
H2851 C2860 0.950 . S
H2852 C2862 0.950 . S
H2853 C2864 0.950 . S
H2854 C2866 0.950 . S
H2855 C2867 0.950 . S
C2856 H2848 0.950 . S
C2856 C2857 1.386 . S
C2856 C2858 1.391 . S
C2857 C2856 1.386 . S
C2857 C2861 1.393 . S
C2858 H2850 0.950 . S
C2858 C2856 1.391 . S
C2858 C2859 1.400 . S
C2859 C2858 1.400 . S
C2859 C2860 1.398 . S
C2859 C2865 1.491 . S
C2860 H2851 0.950 . S
C2860 C2859 1.398 . S
C2860 C2861 1.391 . S
C2861 H2849 0.950 . S
C2861 C2857 1.393 . S
C2861 C2860 1.391 . S
C2862 H2852 0.950 . S
C2862 C2863 1.386 . S
C2862 C2864 1.391 . S
C2863 C2862 1.386 . S
C2863 C2867 1.393 . S
C2864 H2853 0.950 . S
C2864 C2862 1.391 . S
C2864 C2865 1.400 . S
C2865 C2859 1.491 . S
C2865 C2864 1.400 . S
C2865 C2866 1.398 . S
C2866 H2854 0.950 . S
C2866 C2865 1.398 . S
C2866 C2867 1.391 . S
C2867 H2855 0.950 . S
C2867 C2863 1.393 . S
C2867 C2866 1.391 . S
H2868 C2876 0.950 . S
H2869 C2881 0.950 . S
H2870 C2878 0.950 . S
H2871 C2880 0.950 . S
H2872 C2882 0.950 . S
H2873 C2884 0.950 . S
H2874 C2886 0.950 . S
H2875 C2887 0.950 . S
C2876 H2868 0.950 . S
C2876 C2877 1.386 . S
C2876 C2878 1.391 . S
C2877 C2876 1.386 . S
C2877 C2881 1.393 . S
C2878 H2870 0.950 . S
C2878 C2876 1.391 . S
C2878 C2879 1.400 . S
C2879 C2878 1.400 . S
C2879 C2880 1.398 . S
C2879 C2885 1.491 . S
C2880 H2871 0.950 . S
C2880 C2879 1.398 . S
C2880 C2881 1.391 . S
C2881 H2869 0.950 . S
C2881 C2877 1.393 . S
C2881 C2880 1.391 . S
C2882 H2872 0.950 . S
C2882 C2883 1.386 . S
C2882 C2884 1.391 . S
C2883 C2882 1.386 . S
C2883 C2887 1.393 . S
C2884 H2873 0.950 . S
C2884 C2882 1.391 . S
C2884 C2885 1.400 . S
C2885 C2879 1.491 . S
C2885 C2884 1.400 . S
C2885 C2886 1.398 . S
C2886 H2874 0.950 . S
C2886 C2885 1.398 . S
C2886 C2887 1.391 . S
C2887 H2875 0.950 . S
C2887 C2883 1.393 . S
C2887 C2886 1.391 . S
H2888 C2896 0.950 . S
H2889 C2901 0.950 . S
H2890 C2898 0.950 . S
H2891 C2900 0.950 . S
H2892 C2902 0.950 . S
H2893 C2904 0.950 . S
H2894 C2906 0.950 . S
H2895 C2907 0.950 . S
C2896 H2888 0.950 . S
C2896 C2897 1.386 . S
C2896 C2898 1.391 . S
C2897 C2896 1.386 . S
C2897 C2901 1.393 . S
C2898 H2890 0.950 . S
C2898 C2896 1.391 . S
C2898 C2899 1.400 . S
C2899 C2898 1.400 . S
C2899 C2900 1.398 . S
C2899 C2905 1.491 . S
C2900 H2891 0.950 . S
C2900 C2899 1.398 . S
C2900 C2901 1.391 . S
C2901 H2889 0.950 . S
C2901 C2897 1.393 . S
C2901 C2900 1.391 . S
C2902 H2892 0.950 . S
C2902 C2903 1.386 . S
C2902 C2904 1.391 . S
C2903 C2902 1.386 . S
C2903 C2907 1.393 . S
C2904 H2893 0.950 . S
C2904 C2902 1.391 . S
C2904 C2905 1.400 . S
C2905 C2899 1.491 . S
C2905 C2904 1.400 . S
C2905 C2906 1.398 . S
C2906 H2894 0.950 . S
C2906 C2905 1.398 . S
C2906 C2907 1.391 . S
C2907 H2895 0.950 . S
C2907 C2903 1.393 . S
C2907 C2906 1.391 . S
H2908 C2916 0.950 . S
H2909 C2921 0.950 . S
H2910 C2918 0.950 . S
H2911 C2920 0.950 . S
H2912 C2922 0.950 . S
H2913 C2924 0.950 . S
H2914 C2926 0.950 . S
H2915 C2927 0.950 . S
C2916 H2908 0.950 . S
C2916 C2917 1.386 . S
C2916 C2918 1.391 . S
C2917 C2916 1.386 . S
C2917 C2921 1.393 . S
C2918 H2910 0.950 . S
C2918 C2916 1.391 . S
C2918 C2919 1.400 . S
C2919 C2918 1.400 . S
C2919 C2920 1.398 . S
C2919 C2925 1.491 . S
C2920 H2911 0.950 . S
C2920 C2919 1.398 . S
C2920 C2921 1.391 . S
C2921 H2909 0.950 . S
C2921 C2917 1.393 . S
C2921 C2920 1.391 . S
C2922 H2912 0.950 . S
C2922 C2923 1.386 . S
C2922 C2924 1.391 . S
C2923 C2922 1.386 . S
C2923 C2927 1.393 . S
C2924 H2913 0.950 . S
C2924 C2922 1.391 . S
C2924 C2925 1.400 . S
C2925 C2919 1.491 . S
C2925 C2924 1.400 . S
C2925 C2926 1.398 . S
C2926 H2914 0.950 . S
C2926 C2925 1.398 . S
C2926 C2927 1.391 . S
C2927 H2915 0.950 . S
C2927 C2923 1.393 . S
C2927 C2926 1.391 . S
H2928 C2936 0.950 . S
H2929 C2941 0.950 . S
H2930 C2938 0.950 . S
H2931 C2940 0.950 . S
H2932 C2942 0.950 . S
H2933 C2944 0.950 . S
H2934 C2946 0.950 . S
H2935 C2947 0.950 . S
C2936 H2928 0.950 . S
C2936 C2937 1.386 . S
C2936 C2938 1.391 . S
C2937 C2936 1.386 . S
C2937 C2941 1.393 . S
C2938 H2930 0.950 . S
C2938 C2936 1.391 . S
C2938 C2939 1.400 . S
C2939 C2938 1.400 . S
C2939 C2940 1.398 . S
C2939 C2945 1.491 . S
C2940 H2931 0.950 . S
C2940 C2939 1.398 . S
C2940 C2941 1.391 . S
C2941 H2929 0.950 . S
C2941 C2937 1.393 . S
C2941 C2940 1.391 . S
C2942 H2932 0.950 . S
C2942 C2943 1.386 . S
C2942 C2944 1.391 . S
C2943 C2942 1.386 . S
C2943 C2947 1.393 . S
C2944 H2933 0.950 . S
C2944 C2942 1.391 . S
C2944 C2945 1.400 . S
C2945 C2939 1.491 . S
C2945 C2944 1.400 . S
C2945 C2946 1.398 . S
C2946 H2934 0.950 . S
C2946 C2945 1.398 . S
C2946 C2947 1.391 . S
C2947 H2935 0.950 . S
C2947 C2943 1.393 . S
C2947 C2946 1.391 . S
H2948 C2956 0.950 . S
H2949 C2961 0.950 . S
H2950 C2958 0.950 . S
H2951 C2960 0.950 . S
H2952 C2962 0.950 . S
H2953 C2964 0.950 . S
H2954 C2966 0.950 . S
H2955 C2967 0.950 . S
C2956 H2948 0.950 . S
C2956 C2957 1.386 . S
C2956 C2958 1.391 . S
C2957 C2956 1.386 . S
C2957 C2961 1.393 . S
C2958 H2950 0.950 . S
C2958 C2956 1.391 . S
C2958 C2959 1.400 . S
C2959 C2958 1.400 . S
C2959 C2960 1.398 . S
C2959 C2965 1.491 . S
C2960 H2951 0.950 . S
C2960 C2959 1.398 . S
C2960 C2961 1.391 . S
C2961 H2949 0.950 . S
C2961 C2957 1.393 . S
C2961 C2960 1.391 . S
C2962 H2952 0.950 . S
C2962 C2963 1.386 . S
C2962 C2964 1.391 . S
C2963 C2962 1.386 . S
C2963 C2967 1.393 . S
C2964 H2953 0.950 . S
C2964 C2962 1.391 . S
C2964 C2965 1.400 . S
C2965 C2959 1.491 . S
C2965 C2964 1.400 . S
C2965 C2966 1.398 . S
C2966 H2954 0.950 . S
C2966 C2965 1.398 . S
C2966 C2967 1.391 . S
C2967 H2955 0.950 . S
C2967 C2963 1.393 . S
C2967 C2966 1.391 . S
H2968 C2976 0.950 . S
H2969 C2981 0.950 . S
H2970 C2978 0.950 . S
H2971 C2980 0.950 . S
H2972 C2982 0.950 . S
H2973 C2984 0.950 . S
H2974 C2986 0.950 . S
H2975 C2987 0.953 . S
C2976 H2968 0.950 . S
C2976 C2977 1.386 . S
C2976 C2978 1.391 . S
C2977 C2976 1.386 . S
C2977 C2981 1.393 . S
C2978 H2970 0.950 . S
C2978 C2976 1.391 . S
C2978 C2979 1.400 . S
C2979 C2978 1.400 . S
C2979 C2980 1.398 . S
C2979 C2985 1.491 . S
C2980 H2971 0.950 . S
C2980 C2979 1.398 . S
C2980 C2981 1.391 . S
C2981 H2969 0.950 . S
C2981 C2977 1.393 . S
C2981 C2980 1.391 . S
C2982 H2972 0.950 . S
C2982 C2983 1.386 . S
C2982 C2984 1.391 . S
C2983 C2982 1.386 . S
C2983 C2987 1.393 . S
C2984 H2973 0.950 . S
C2984 C2982 1.391 . S
C2984 C2985 1.400 . S
C2985 C2979 1.491 . S
C2985 C2984 1.400 . S
C2985 C2986 1.398 . S
C2986 H2974 0.950 . S
C2986 C2985 1.398 . S
C2986 C2987 1.391 . S
C2987 H2975 0.953 . S
C2987 C2983 1.393 . S
C2987 C2986 1.391 . S
C1197 N14 1.202 . S
C1203 C74 1.162 1_545 S
C1217 C8 1.139 1_655 S
C1223 N47 1.181 . S
C1237 C41 1.169 . S
C1243 N80 1.206 . S
C1257 C140 1.147 1_455 S
C1263 N113 1.178 . S
C1277 C173 1.173 . S
C1283 N146 1.196 . S
C1297 C107 1.159 1_565 S
C1303 N179 1.184 . S
C1317 C272 1.145 1_565 S
C1323 N212 1.177 . S
C1337 N245 1.178 . S
C1343 C206 1.146 1_455 S
C1357 C239 1.141 . S
C1363 N278 1.185 . S
C1377 C338 1.153 1_655 S
C1383 N311 1.180 . S
C1397 N344 1.208 . S
C1403 C371 1.177 . S
C1417 C305 1.178 1_545 S
C1423 N377 1.202 . S
C1437 N410 1.178 . S
C1443 C470 1.138 . S
C1457 N443 1.194 . S
C1463 C404 1.150 . S
C1477 N476 1.208 . S
C1483 C437 1.177 . S
C1497 C536 1.173 . S
C1503 N509 1.208 . S
C1517 C569 1.147 . S
C1523 N542 1.191 . S
C1537 N575 1.178 . S
C1543 C503 1.138 . S
C1557 N608 1.204 . S
C1563 C668 1.179 . S
C1577 N641 1.199 . S
C1583 C602 1.176 . S
C1597 N674 1.178 . S
C1603 C635 1.147 . S
C1617 C734 1.168 . S
C1623 N707 1.206 . S
C1637 C767 1.170 . S
C1643 N740 1.193 . S
C1657 N773 1.186 . S
C1663 C701 1.142 . S
C1677 C866 1.140 . S
C1683 N806 1.177 . S
C1697 C800 1.173 . S
C1703 N839 1.195 . S
C1717 N872 1.208 . S
C1723 C833 1.179 . S
C1737 C932 1.163 . S
C1743 N905 1.187 . S
C1757 N938 1.197 . S
C1763 C965 1.174 . S
C1777 C899 1.139 . S
C1783 N971 1.177 . S
C1797 C1064 1.142 . S
C1803 N1004 1.187 . S
C1817 N1037 1.179 . S
C1823 C998 1.150 . S
C1837 N1070 1.177 . S
C1843 C1031 1.139 . S
C1857 C1130 1.142 . S
C1863 N1103 1.186 . S
C1877 C1163 1.145 . S
C1883 N1136 1.190 . S
C1897 N1169 1.205 . S
C1903 C1097 1.180 . S
C1917 N665 1.321 . S
C1923 C28 1.343 . S
C1937 C61 1.319 . S
C1943 N599 1.347 1_565 S
C1957 C94 1.345 . S
C1963 N632 1.321 1_455 S
C1977 N1127 1.321 . S
C1983 C127 1.341 . S
C1997 N1160 1.337 1_545 S
C2003 C160 1.323 . S
C2017 C193 1.327 . S
C2023 N1094 1.332 1_655 S
C2037 C226 1.342 . S
C2043 N863 1.321 . S
C2057 C259 1.321 . S
C2063 N797 1.340 1_545 S
C2077 C292 1.339 . S
C2083 N830 1.336 1_655 S
C2097 N533 1.332 . S
C2103 C325 1.341 . S
C2117 C358 1.331 . S
C2123 N566 1.329 1_565 S
C2137 C391 1.318 . S
C2143 N500 1.344 1_455 S
C2157 C424 1.329 . S
C2163 N1061 1.344 . S
C2177 N995 1.345 . S
C2183 C457 1.319 . S
C2197 N1028 1.335 . S
C2203 C490 1.338 . S
C2217 C523 1.343 . S
C2223 N335 1.330 . S
C2237 C556 1.341 . S
C2243 N368 1.321 . S
C2257 C589 1.324 . S
C2263 N302 1.347 . S
C2277 N71 1.343 . S
C2283 C622 1.319 . S
C2297 C655 1.346 . S
C2303 N5 1.322 . S
C2317 C688 1.345 . S
C2323 N38 1.321 . S
C2337 N929 1.347 . S
C2343 C721 1.319 . S
C2357 C754 1.329 . S
C2363 N962 1.343 . S
C2377 C787 1.340 . S
C2383 N896 1.322 . S
C2397 N269 1.321 . S
C2403 C820 1.344 . S
C2417 N203 1.329 . S
C2423 C853 1.343 . S
C2437 C886 1.338 . S
C2443 N236 1.323 . S
C2457 C919 1.341 . S
C2463 N731 1.322 . S
C2477 N764 1.347 . S
C2483 C952 1.319 . S
C2497 C985 1.323 . S
C2503 N698 1.347 . S
C2517 N467 1.348 . S
C2523 C1018 1.320 . S
C2537 C1051 1.321 . S
C2543 N401 1.348 . S
C2557 C1084 1.326 . S
C2563 N434 1.333 . S
C2577 N137 1.344 . S
C2583 C1117 1.319 . S
C2597 C1150 1.337 . S
C2603 N170 1.337 . S
C2617 N104 1.332 . S
C2623 C1183 1.327 . S
C2637 C149 1.555 . S
C2643 C17 1.545 . S
C2657 C50 1.568 . S
C2663 C182 1.561 . S
C2677 C83 1.549 . S
C2683 C116 1.543 . S
C2697 C215 1.554 . S
C2703 C347 1.545 . S
C2717 C248 1.553 . S
C2723 C380 1.563 . S
C2737 C281 1.567 . S
C2743 C314 1.559 . S
C2757 C545 1.558 . S
C2763 C413 1.567 . S
C2777 C578 1.564 . S
C2783 C446 1.569 . S
C2797 C512 1.568 . S
C2803 C479 1.567 . S
C2817 C743 1.564 . S
C2823 C611 1.554 . S
C2837 C776 1.551 . S
C2843 C644 1.543 . S
C2857 C710 1.558 . S
C2863 C677 1.548 . S
C2877 C941 1.549 . S
C2883 C809 1.560 . S
C2897 C842 1.542 . S
C2903 C974 1.548 . S
C2917 C908 1.568 . S
C2923 C875 1.560 . S
C2937 C1139 1.552 . S
C2943 C1007 1.544 . S
C2957 C1172 1.569 . S
C2963 C1040 1.564 . S
C2977 C1073 1.567 . S
C2983 C1106 1.558 . S
