# Generated by pormake.
# Topology tfs, (6)-cn, num edge types: 1
# Building blocks:
#     Node 0, Type 0, BuildingBlock: LEVNOQ01_clean_sbu_1, # of connection points: 6
#     Node 1, Type 0, BuildingBlock: LEVNOQ01_clean_sbu_1, # of connection points: 6
#     Node 2, Type 0, BuildingBlock: LEVNOQ01_clean_sbu_1, # of connection points: 6
#     Node 3, Type 0, BuildingBlock: LEVNOQ01_clean_sbu_1, # of connection points: 6
#     Node 4, Type 0, BuildingBlock: LEVNOQ01_clean_sbu_1, # of connection points: 6
#     Node 5, Type 0, BuildingBlock: LEVNOQ01_clean_sbu_1, # of connection points: 6
#     Edge 6, Type (0, 0), BuildingBlock: FUNLAD_clean_linker_0, # of connection points: 2
#     Edge 7, Type (0, 0), BuildingBlock: FUNLAD_clean_linker_0, # of connection points: 2
#     Edge 8, Type (0, 0), BuildingBlock: FUNLAD_clean_linker_0, # of connection points: 2
#     Edge 9, Type (0, 0), BuildingBlock: FUNLAD_clean_linker_0, # of connection points: 2
#     Edge 10, Type (0, 0), BuildingBlock: FUNLAD_clean_linker_0, # of connection points: 2
#     Edge 11, Type (0, 0), BuildingBlock: FUNLAD_clean_linker_0, # of connection points: 2
#     Edge 12, Type (0, 0), BuildingBlock: FUNLAD_clean_linker_0, # of connection points: 2
#     Edge 13, Type (0, 0), BuildingBlock: FUNLAD_clean_linker_0, # of connection points: 2
#     Edge 14, Type (0, 0), BuildingBlock: FUNLAD_clean_linker_0, # of connection points: 2
#     Edge 15, Type (0, 0), BuildingBlock: FUNLAD_clean_linker_0, # of connection points: 2
#     Edge 16, Type (0, 0), BuildingBlock: FUNLAD_clean_linker_0, # of connection points: 2
#     Edge 17, Type (0, 0), BuildingBlock: FUNLAD_clean_linker_0, # of connection points: 2
#     Edge 18, Type (0, 0), BuildingBlock: FUNLAD_clean_linker_0, # of connection points: 2
#     Edge 19, Type (0, 0), BuildingBlock: FUNLAD_clean_linker_0, # of connection points: 2
#     Edge 20, Type (0, 0), BuildingBlock: FUNLAD_clean_linker_0, # of connection points: 2
#     Edge 21, Type (0, 0), BuildingBlock: FUNLAD_clean_linker_0, # of connection points: 2
#     Edge 22, Type (0, 0), BuildingBlock: FUNLAD_clean_linker_0, # of connection points: 2
#     Edge 23, Type (0, 0), BuildingBlock: FUNLAD_clean_linker_0, # of connection points: 2
# Relax obj value: 0.217
# Max RMSD: 0.175
# Mean RMSD: 0.175
data_MOF--net-tfs--node1-LEVNOQ01_clean_sbu_1--edge1-FUNLAD_clean_linker_0
_symmetry_space_group_name_H-M    P1
_symmetry_Int_Tables_number       1
_symmetry_cell_setting            triclinic
loop_
_symmetry_equiv_pos_as_xyz
'x, y, z'
_cell_length_a     48.21915
_cell_length_b     48.317062
_cell_length_c     18.579987
_cell_angle_alpha  90.05406
_cell_angle_beta   89.897248
_cell_angle_gamma 120.11504
loop_
_atom_site_label
_atom_site_type_symbol
_atom_site_fract_x
_atom_site_fract_y
_atom_site_fract_z
_atom_type_partial_charge
O0 O 0.29031 0.46308 0.05367 0.0
Mg1 Mg 0.2581 0.41451 0.07142 0.0
O2 O 0.2532 0.46885 -0.00216 0.0
Mg3 Mg 0.20528 0.41856 -0.0035 0.0
O4 O 0.22946 0.38683 0.98931 0.0
O5 O 0.27086 0.38334 0.03482 0.0
O6 O 0.15618 0.36939 -0.00374 0.0
O7 O 0.2077 0.41979 0.87182 0.0
Mg8 Mg 0.14549 0.42502 0.92751 0.0
O9 O 0.18153 0.44876 -0.00185 0.0
O10 O 0.1165 0.37813 0.96572 0.0
O11 O 0.16987 0.4293 0.82991 0.0
O12 O 0.14701 0.46492 0.9747 0.0
C13 C 0.2105 0.40782 0.1754 0.0
C14 C 0.28167 0.48072 0.02236 0.0
C15 C 0.2464 0.37268 -0.00744 0.0
C16 C 0.12637 0.35962 0.98675 0.0
C17 C 0.19361 0.42512 0.82003 0.0
C18 C 0.17293 0.46991 0.00608 0.0
O19 O 0.23308 0.40195 0.16789 0.0
O20 O 0.20021 0.41677 0.12219 0.0
O21 O 0.82482 0.28727 0.98992 0.0
Mg22 Mg 0.83528 0.25755 0.0505 0.0
O23 O 0.77618 0.24593 -0.0033 0.0
Mg24 Mg 0.78079 0.19904 0.00481 0.0
O25 O 0.83724 0.22153 -0.00327 0.0
O26 O 0.88041 0.26718 0.03443 0.0
O27 O 0.78267 0.1509 0.00989 0.0
O28 O 0.77878 0.19608 0.88119 0.0
Mg29 Mg 0.71557 0.13483 0.9584 0.0
O30 O 0.72648 0.17557 0.01099 0.0
O31 O 0.73313 0.10983 0.01752 0.0
O32 O 0.73455 0.15055 0.85218 0.0
O33 O 0.67609 0.13738 -0.00488 0.0
C34 C 0.79685 0.22096 0.17711 0.0
C35 C 0.79498 0.27567 0.98457 0.0
C36 C 0.86826 0.23994 0.00213 0.0
C37 C 0.76312 0.12111 0.02074 0.0
C38 C 0.76003 0.17617 0.83421 0.0
C39 C 0.69626 0.16574 0.01757 0.0
O40 O 0.82023 0.2479 0.15909 0.0
O41 O 0.78071 0.20005 0.12941 0.0
O42 O 0.53162 0.82773 0.98706 0.0
Mg43 Mg 0.57724 0.84487 0.03056 0.0
O44 O 0.52948 0.78129 0.97921 0.0
Mg45 Mg 0.58067 0.78672 0.98314 0.0
O46 O 0.61198 0.84249 0.97168 0.0
O47 O 0.61212 0.88812 -0.00478 0.0
O48 O 0.63045 0.78869 0.98845 0.0
O49 O 0.5807 0.7831 0.85941 0.0
Mg50 Mg 0.57709 0.71851 0.9344 0.0
O51 O 0.55142 0.73318 0.99161 0.0
O52 O 0.62221 0.73896 0.98511 0.0
O53 O 0.57781 0.73698 0.82932 0.0
O54 O 0.53436 0.68182 0.98034 0.0
C55 C 0.57984 0.80737 0.15588 0.0
C56 C 0.5156 0.79782 0.97825 0.0
C57 C 0.62615 0.8736 0.96876 0.0
C58 C 0.64055 0.76882 -0.00607 0.0
C59 C 0.57956 0.76334 0.81203 0.0
C60 C 0.5293 0.70408 0.0031 0.0
O61 O 0.57881 0.83226 0.13879 0.0
O62 O 0.58064 0.78893 0.10768 0.0
O63 O 0.72301 0.5601 0.07972 0.0
Mg64 Mg 0.76231 0.60726 0.07831 0.0
O65 O 0.74685 0.54681 -0.00305 0.0
Mg66 Mg 0.79865 0.591 0.99108 0.0
O67 O 0.78324 0.63072 0.9847 0.0
O68 O 0.74951 0.63942 0.05282 0.0
O69 O 0.85058 0.63567 0.98743 0.0
O70 O 0.79013 0.59118 0.86427 0.0
Mg71 Mg 0.83467 0.57638 0.90511 0.0
O72 O 0.81338 0.55058 -0.00381 0.0
O73 O 0.87302 0.6237 0.89939 0.0
O74 O 0.80473 0.55879 0.81737 0.0
O75 O 0.85124 0.54721 0.93174 0.0
C76 C 0.8067 0.60711 0.17104 0.0
C77 C 0.72268 0.53955 0.03706 0.0
C78 C 0.76882 0.64686 -0.00112 0.0
C79 C 0.87403 0.64365 0.94459 0.0
C80 C 0.79078 0.57474 0.81099 0.0
C81 C 0.82987 0.53651 0.98195 0.0
O82 O 0.79302 0.62334 0.16515 0.0
O83 O 0.80709 0.59066 0.11757 0.0
O84 O 0.16693 0.70397 0.02037 0.0
Mg85 Mg 0.15548 0.73499 0.07363 0.0
O86 O 0.21409 0.74405 0.98639 0.0
Mg87 Mg 0.21483 0.79331 -0.00144 0.0
O88 O 0.16011 0.77107 0.00865 0.0
O89 O 0.11306 0.73333 0.05277 0.0
O90 O 0.21591 0.8426 0.0132 0.0
O91 O 0.21027 0.79564 0.87424 0.0
Mg92 Mg 0.27956 0.8573 0.93955 0.0
O93 O 0.26805 0.81513 0.98462 0.0
O94 O 0.26685 0.88151 0.01475 0.0
O95 O 0.25232 0.84277 0.84185 0.0
O96 O 0.31809 0.84915 0.95522 0.0
C97 C 0.2062 0.7776 0.17848 0.0
C98 C 0.19462 0.71401 -0.00584 0.0
C99 C 0.1293 0.75866 0.01412 0.0
C100 C 0.23745 0.87154 0.02655 0.0
C101 C 0.22641 0.81704 0.82684 0.0
C102 C 0.29723 0.8214 0.97938 0.0
O103 O 0.17862 0.7531 0.17251 0.0
O104 O 0.22196 0.79396 0.12372 0.0
O105 O 0.45378 0.16634 0.93023 0.0
Mg106 Mg 0.41817 0.15873 0.00723 0.0
O107 O 0.46529 0.21063 0.98451 0.0
Mg108 Mg 0.41531 0.209 0.98579 0.0
O109 O 0.37475 0.1536 0.98051 0.0
O110 O 0.38303 0.11265 0.00498 0.0
O111 O 0.36986 0.21462 0.98555 0.0
O112 O 0.4124 0.20031 0.85698 0.0
Mg113 Mg 0.43239 0.25232 0.90455 0.0
O114 O 0.4535 0.26573 0.0023 0.0
O115 O 0.38426 0.23958 0.88218 0.0
O116 O 0.45759 0.24194 0.82719 0.0
O117 O 0.45626 0.29982 0.91668 0.0
C118 C 0.42599 0.19331 0.14716 0.0
C119 C 0.47466 0.19377 0.95129 0.0
C120 C 0.36405 0.12306 0.98754 0.0
C121 C 0.36312 0.22559 0.93012 0.0
C122 C 0.43451 0.21498 0.81045 0.0
C123 C 0.46541 0.29486 0.97798 0.0
O124 O 0.43228 0.17381 0.11546 0.0
O125 O 0.41546 0.20864 0.11115 0.0
C126 C 0.31591 0.22769 0.98117 0.0
C127 C 0.33228 0.22482 0.92172 0.0
C128 C 0.29135 0.23483 0.97087 0.0
C129 C 0.28258 0.23878 0.90073 0.0
C130 C 0.29707 0.23288 0.84179 0.0
C131 C 0.32166 0.22608 0.85208 0.0
C132 C 0.26343 0.2546 0.8863 0.0
C133 C 0.2463 0.25969 0.93638 0.0
C134 C 0.23887 0.28603 0.93039 0.0
C135 C 0.21542 0.28581 0.97574 0.0
C136 C 0.21438 0.3139 0.98759 0.0
C137 C 0.23708 0.34263 0.95494 0.0
H138 H 0.27802 0.31574 0.85715 0.0
C139 C 0.25832 0.34221 0.90414 0.0
C140 C 0.25913 0.31414 0.89149 0.0
H141 H 0.27658 0.36433 0.87991 0.0
H142 H 0.32373 0.22695 0.03539 0.0
H143 H 0.28118 0.23953 0.018 0.0
H144 H 0.29087 0.23565 0.78727 0.0
H145 H 0.33362 0.22359 0.80518 0.0
H146 H 0.26641 0.26548 0.83357 0.0
H147 H 0.24043 0.24668 0.9869 0.0
H148 H 0.19966 0.26463 0.00667 0.0
H149 H 0.19832 0.31393 0.02845 0.0
C150 C 0.08857 0.30564 0.93998 0.0
C151 C 0.10171 0.32616 -0.00072 0.0
C152 C 0.05775 0.27885 0.94405 0.0
C153 C 0.03939 0.27259 0.00733 0.0
C154 C 0.05415 0.29118 0.06883 0.0
C155 C 0.08495 0.31794 0.06466 0.0
C156 C 0.00401 0.25037 0.009 0.0
C157 C 0.98525 0.24424 0.95033 0.0
C158 C 0.95055 0.23406 0.95526 0.0
C159 C 0.93759 0.24512 0.90242 0.0
C160 C 0.90809 0.24343 0.91354 0.0
C161 C 0.89071 0.22993 0.97685 0.0
H162 H 0.94008 0.20768 0.05584 0.0
C163 C 0.90181 0.21565 0.02595 0.0
C164 C 0.93145 0.2175 0.01514 0.0
H165 H 0.88894 0.20555 0.07576 0.0
H166 H 0.10102 0.31182 0.88873 0.0
H167 H 0.04775 0.26439 0.89629 0.0
H168 H 0.04079 0.28679 0.11854 0.0
H169 H 0.09442 0.33379 0.11064 0.0
H170 H 0.99293 0.24412 0.06186 0.0
H171 H 0.99643 0.25264 0.89808 0.0
H172 H 0.95158 0.25771 0.85543 0.0
H173 H 0.90026 0.25516 0.87572 0.0
C174 C 0.75942 0.07107 0.06525 0.0
C175 C 0.77397 0.09753 0.01894 0.0
C176 C 0.75808 0.04237 0.04675 0.0
C177 C 0.77079 0.03947 0.98065 0.0
C178 C 0.78837 0.06703 0.93837 0.0
C179 C 0.79029 0.09599 0.95778 0.0
C180 C 0.75941 0.00744 0.94747 0.0
C181 C 0.74741 0.98027 0.9863 0.0
C182 C 0.72119 0.94883 0.95975 0.0
C183 C 0.71384 0.92094 -0.00162 0.0
C184 C 0.68357 0.8934 -0.00789 0.0
C185 C 0.66004 0.89368 0.94827 0.0
H186 H 0.70331 0.96825 0.8782 0.0
C187 C 0.66859 0.92008 0.90338 0.0
C188 C 0.69897 0.94733 0.90847 0.0
H189 H 0.65065 0.92099 0.87001 0.0
H190 H 0.74631 0.07158 0.11218 0.0
H191 H 0.74392 0.02175 0.08055 0.0
H192 H 0.79824 0.0655 0.88707 0.0
H193 H 0.80119 0.1159 0.92051 0.0
H194 H 0.75629 0.00587 0.88942 0.0
H195 H 0.75317 0.9818 0.04321 0.0
H196 H 0.73038 0.92139 0.03841 0.0
H197 H 0.67735 0.87352 0.02825 0.0
C198 C 0.79594 0.70545 0.98903 0.0
C199 C 0.77542 0.67546 0.95815 0.0
C200 C 0.79261 0.73181 0.97209 0.0
C201 C 0.76843 0.72835 0.92445 0.0
C202 C 0.75079 0.69935 0.88691 0.0
C203 C 0.75399 0.67293 0.9043 0.0
C204 C 0.75718 0.7519 0.92184 0.0
C205 C 0.75588 0.76708 0.98175 0.0
C206 C 0.7317 0.7773 0.99018 0.0
C207 C 0.71468 0.77032 0.05538 0.0
C208 C 0.68616 0.7711 0.05967 0.0
C209 C 0.67489 0.77998 -0.0004 0.0
H210 H 0.73508 0.79544 0.88184 0.0
C211 C 0.69383 0.79067 0.93717 0.0
C212 C 0.72205 0.78924 0.93228 0.0
H213 H 0.68522 0.79712 0.88982 0.0
H214 H 0.81234 0.70774 0.03151 0.0
H215 H 0.80725 0.75411 0.00037 0.0
H216 H 0.73217 0.69611 0.84953 0.0
H217 H 0.73752 0.64984 0.88094 0.0
H218 H 0.7433 0.75101 0.87498 0.0
H219 H 0.76718 0.76538 0.03077 0.0
H220 H 0.72171 0.76124 0.10092 0.0
H221 H 0.6716 0.76227 0.10787 0.0
C222 C 0.10054 0.76373 0.90987 0.0
C223 C 0.11195 0.77278 0.98019 0.0
C224 C 0.07321 0.76441 0.88746 0.0
C225 C 0.05681 0.7737 0.93556 0.0
C226 C 0.071 0.78696 0.00233 0.0
C227 C 0.09822 0.78615 0.02472 0.0
C228 C 0.02285 0.76373 0.91966 0.0
C229 C 1.00024 0.75244 0.97194 0.0
C230 C 0.96546 0.72945 0.95984 0.0
C231 C 0.94504 0.71801 0.02024 0.0
C232 C 0.9142 0.6913 0.0148 0.0
C233 C 0.90338 0.67533 0.94887 0.0
H234 H 0.96753 0.72279 0.84411 0.0
C235 C 0.92266 0.68817 0.88742 0.0
C236 C 0.95325 0.71501 0.89256 0.0
H237 H 0.9146 0.67659 0.83556 0.0
H238 H 0.11056 0.75292 0.87514 0.0
H239 H 0.06301 0.75444 0.83536 0.0
H240 H 0.05974 0.79555 0.03961 0.0
H241 H 0.10666 0.79311 0.07941 0.0
H242 H 0.01594 0.76008 0.86352 0.0
H243 H 0.00788 0.75614 0.02778 0.0
H244 H 0.95362 0.72858 0.07279 0.0
H245 H 0.89977 0.68194 0.063 0.0
C246 C 0.21143 0.90357 -0.00135 0.0
C247 C 0.22889 0.89574 0.04665 0.0
C248 C 0.21302 0.93329 0.0038 0.0
C249 C 0.23195 0.95533 0.05744 0.0
C250 C 0.24605 0.9456 0.11031 0.0
C251 C 0.24497 0.91629 0.10432 0.0
C252 C 0.24191 0.98987 0.05436 0.0
C253 C 0.24767 0.00575 0.99133 0.0
C254 C 0.27226 0.04028 0.98447 0.0
C255 C 0.29083 0.05031 0.92129 0.0
C256 C 0.31965 0.07947 0.91933 0.0
C257 C 0.3299 0.09944 0.97981 0.0
H258 H 0.2667 0.05556 0.09101 0.0
C259 C 0.3097 0.09128 0.04003 0.0
C260 C 0.28093 0.06195 0.04232 0.0
H261 H 0.31741 0.10632 0.08755 0.0
H262 H 0.19909 0.88812 0.95337 0.0
H263 H 0.20109 0.93968 0.96334 0.0
H264 H 0.26052 0.96191 0.1526 0.0
H265 H 0.25874 0.91074 0.14168 0.0
H266 H 0.25165 0.00337 0.10367 0.0
H267 H 0.23991 0.99211 0.94163 0.0
H268 H 0.28463 0.03431 0.87564 0.0
H269 H 0.33512 0.08521 0.87271 0.0
C270 C 0.18244 0.65748 0.98898 0.0
C271 C 0.20514 0.69025 0.983 0.0
C272 C 0.19215 0.63485 -0.00686 0.0
C273 C 0.22478 0.64427 0.99056 0.0
C274 C 0.24753 0.67663 0.97934 0.0
C275 C 0.23776 0.69955 0.97641 0.0
C276 C 0.23424 0.61972 0.00022 0.0
C277 C 0.22352 0.60031 0.05816 0.0
C278 C 0.21825 0.56724 0.05936 0.0
C279 C 0.19328 0.54473 0.10304 0.0
C280 C 0.18073 0.51204 0.0919 0.0
C281 C 0.19361 0.50133 0.03851 0.0
H282 H 0.2534 0.57314 0.9783 0.0
C283 C 0.22121 0.52363 0.00126 0.0
C284 C 0.2335 0.5565 0.01141 0.0
H285 H 0.23111 0.51577 0.95885 0.0
H286 H 0.15707 0.64928 -0.00647 0.0
H287 H 0.1741 0.60988 -0.0001 0.0
H288 H 0.27282 0.68431 0.97624 0.0
H289 H 0.25575 0.72454 0.97257 0.0
H290 H 0.24554 0.61494 0.95515 0.0
H291 H 0.21241 0.60663 0.10133 0.0
H292 H 0.18127 0.55227 0.14095 0.0
H293 H 0.15915 0.4952 0.12044 0.0
C294 C 0.53059 0.22634 -0.00152 0.0
C295 C 0.50905 0.2036 0.94919 0.0
C296 C 0.56209 0.23236 0.0037 0.0
C297 C 0.57274 0.21613 0.95885 0.0
C298 C 0.55184 0.19499 0.90656 0.0
C299 C 0.52017 0.18846 0.90232 0.0
C300 C 0.60475 0.21921 0.96767 0.0
C301 C 0.61776 0.22096 0.03285 0.0
C302 C 0.64385 0.2135 0.04157 0.0
C303 C 0.67026 0.22593 -0.00554 0.0
C304 C 0.69046 0.21291 -0.00679 0.0
C305 C 0.68409 0.18702 0.03805 0.0
H306 H 0.61967 0.18028 0.12877 0.0
C307 C 0.65943 0.17654 0.08921 0.0
C308 C 0.63982 0.19013 0.09187 0.0
H309 H 0.65386 0.15626 0.1235 0.0
H310 H 0.52275 0.23847 0.03522 0.0
H311 H 0.57788 0.24928 0.04356 0.0
H312 H 0.55957 0.18235 0.87107 0.0
H313 H 0.50419 0.17101 0.86352 0.0
H314 H 0.61535 0.21476 0.92053 0.0
H315 H 0.60529 0.22162 0.08102 0.0
H316 H 0.67408 0.24429 0.9558 0.0
H317 H 0.70904 0.22098 0.95249 0.0
C318 C 0.47523 0.69663 0.98296 0.0
C319 C 0.4973 0.69531 0.03002 0.0
C320 C 0.44223 0.6779 -0.00392 0.0
C321 C 0.43105 0.65787 0.05691 0.0
C322 C 0.45338 0.65952 0.10773 0.0
C323 C 0.48624 0.67763 0.09376 0.0
C324 C 0.39715 0.63196 0.06508 0.0
C325 C 0.37904 0.61468 0.00873 0.0
C326 C 0.35156 0.58144 0.01692 0.0
C327 C 0.32747 0.5681 0.964 0.0
C328 C 0.3039 0.53551 0.96616 0.0
C329 C 0.30459 0.51561 0.02037 0.0
H330 H 0.37008 0.5703 0.11257 0.0
C331 C 0.32835 0.52914 0.07373 0.0
C332 C 0.35145 0.5615 0.07215 0.0
H333 H 0.32947 0.51454 0.11659 0.0
H334 H 0.48334 0.70983 0.9329 0.0
H335 H 0.42563 0.67779 0.95678 0.0
H336 H 0.44541 0.64451 0.15527 0.0
H337 H 0.50287 0.67595 0.13014 0.0
H338 H 0.38909 0.6233 0.11937 0.0
H339 H 0.3866 0.62326 0.95419 0.0
H340 H 0.32729 0.58277 0.92014 0.0
H341 H 0.28597 0.52569 0.92414 0.0
C342 C 0.78946 0.48041 0.01602 0.0
C343 C 0.82154 0.50533 0.01362 0.0
C344 C 0.78221 0.44848 0.02201 0.0
C345 C 0.80706 0.44122 0.02654 0.0
C346 C 0.83886 0.46657 0.03116 0.0
C347 C 0.84604 0.49818 0.02421 0.0
C348 C 0.8021 0.40833 0.0191 0.0
C349 C 0.77401 0.38125 0.00665 0.0
C350 C 0.77399 0.35121 0.98931 0.0
C351 C 0.7536 0.32256 0.0257 0.0
C352 C 0.75818 0.29615 0.01905 0.0
C353 C 0.78306 0.29822 0.97551 0.0
H354 H 0.8118 0.37332 0.90955 0.0
C355 C 0.80108 0.32573 0.93362 0.0
C356 C 0.79649 0.35187 0.94014 0.0
H357 H 0.82016 0.32778 0.89909 0.0
H358 H 0.77015 0.48533 0.0069 0.0
H359 H 0.75737 0.42978 0.01905 0.0
H360 H 0.85856 0.46189 0.03529 0.0
H361 H 0.87097 0.51695 0.0221 0.0
H362 H 0.82373 0.40654 0.0197 0.0
H363 H 0.7513 0.38073 0.00971 0.0
H364 H 0.7358 0.32139 0.06315 0.0
H365 H 0.74415 0.27529 0.05239 0.0
C366 C 0.32122 0.79431 0.04674 0.0
C367 C 0.30604 0.7966 0.98486 0.0
C368 C 0.33816 0.77782 0.04461 0.0
C369 C 0.34037 0.76359 0.97996 0.0
C370 C 0.32305 0.76407 0.91978 0.0
C371 C 0.30618 0.78058 0.92207 0.0
C372 C 0.36519 0.75424 0.96882 0.0
C373 C 0.3815 0.75048 0.0229 0.0
C374 C 0.4149 0.75746 0.01292 0.0
C375 C 0.43723 0.77604 0.06573 0.0
C376 C 0.46984 0.78855 0.05379 0.0
C377 C 0.48082 0.78205 0.98959 0.0
H378 H 0.40886 0.73467 0.90875 0.0
C379 C 0.45859 0.76148 0.93862 0.0
C380 C 0.42568 0.74949 0.94983 0.0
H381 H 0.46669 0.75579 0.88932 0.0
H382 H 0.322 0.80726 0.09507 0.0
H383 H 0.35158 0.77887 0.09203 0.0
H384 H 0.3244 0.75357 0.86927 0.0
H385 H 0.29501 0.78261 0.87333 0.0
H386 H 0.37362 0.75559 0.91394 0.0
H387 H 0.37324 0.74888 0.0779 0.0
H388 H 0.4296 0.78248 0.11475 0.0
H389 H 0.48666 0.80392 0.09442 0.0
C390 C 0.67121 0.49686 0.09037 0.0
C391 C 0.69399 0.5072 0.03448 0.0
C392 C 0.64313 0.46711 0.08677 0.0
C393 C 0.6371 0.44716 0.0268 0.0
C394 C 0.66016 0.45717 0.9717 0.0
C395 C 0.68852 0.48675 0.97583 0.0
C396 C 0.60558 0.4178 0.01624 0.0
C397 C 0.58605 0.40005 0.0703 0.0
C398 C 0.55309 0.37377 0.05501 0.0
C399 C 0.54072 0.3438 0.08852 0.0
C400 C 0.51089 0.31811 0.06737 0.0
C401 C 0.49293 0.32239 0.01344 0.0
H402 H 0.54259 0.40168 0.98031 0.0
C403 C 0.50432 0.35322 0.98497 0.0
C404 C 0.53407 0.37851 0.00516 0.0
H405 H 0.49097 0.3576 0.94413 0.0
H406 H 0.67481 0.51199 0.13656 0.0
H407 H 0.62561 0.46052 0.12943 0.0
H408 H 0.65592 0.44232 0.92462 0.0
H409 H 0.70563 0.49401 0.93203 0.0
H410 H 0.5978 0.41079 0.96096 0.0
H411 H 0.5943 0.40445 0.1257 0.0
H412 H 0.55483 0.33984 0.1281 0.0
H413 H 0.50277 0.29468 0.09039 0.0
C414 C 0.20311 0.44663 0.69644 0.0
C415 C 0.20344 0.42484 0.74564 0.0
C416 C 0.20575 0.44278 0.62307 0.0
C417 C 0.20804 0.41661 0.5977 0.0
C418 C 0.21099 0.39631 0.64727 0.0
C419 C 0.20871 0.4004 0.72111 0.0
C420 C 0.20655 0.40957 0.52004 0.0
C421 C 0.18944 0.41653 0.47362 0.0
C422 C 0.18901 0.41063 0.39561 0.0
C423 C 0.18737 0.43205 0.34713 0.0
C424 C 0.19184 0.42979 0.27348 0.0
C425 C 0.19798 0.40605 0.24809 0.0
H426 H 0.19159 0.36715 0.40458 0.0
C427 C 0.19662 0.38291 0.29577 0.0
C428 C 0.19189 0.385 0.36892 0.0
H429 H 0.20061 0.36397 0.2768 0.0
H430 H 0.19967 0.46601 0.71466 0.0
H431 H 0.20515 0.45987 0.58641 0.0
H432 H 0.21338 0.37633 0.62879 0.0
H433 H 0.20896 0.38331 0.75845 0.0
H434 H 0.21926 0.39768 0.5013 0.0
H435 H 0.17672 0.42841 0.49237 0.0
H436 H 0.18459 0.45167 0.36663 0.0
H437 H 0.19278 0.44785 0.23739 0.0
C438 C 0.7495 0.16016 0.70462 0.0
C439 C 0.76769 0.1832 0.75694 0.0
C440 C 0.75609 0.16696 0.63156 0.0
C441 C 0.78087 0.19716 0.60912 0.0
C442 C 0.7995 0.21992 0.66143 0.0
C443 C 0.79297 0.21308 0.73458 0.0
C444 C 0.78847 0.20558 0.53202 0.0
C445 C 0.76703 0.19129 0.47862 0.0
C446 C 0.77481 0.19973 0.40162 0.0
C447 C 0.75708 0.17665 0.34913 0.0
C448 C 0.76402 0.18351 0.27609 0.0
C449 C 0.78872 0.21377 0.25412 0.0
H450 H 0.81234 0.24916 0.41805 0.0
C451 C 0.8059 0.23715 0.30662 0.0
C452 C 0.79897 0.23028 0.37953 0.0
H453 H 0.82478 0.26086 0.2915 0.0
H454 H 0.73016 0.13673 0.72 0.0
H455 H 0.74197 0.14828 0.59325 0.0
H456 H 0.81894 0.24324 0.64565 0.0
H457 H 0.80752 0.23136 0.77348 0.0
H458 H 0.81259 0.2246 0.51948 0.0
H459 H 0.74292 0.17222 0.49091 0.0
H460 H 0.7381 0.15305 0.3647 0.0
H461 H 0.75019 0.16502 0.23698 0.0
C462 C 0.58056 0.75041 0.68204 0.0
C463 C 0.58088 0.7714 0.73491 0.0
C464 C 0.5823 0.75807 0.60922 0.0
C465 C 0.58411 0.78682 0.58755 0.0
C466 C 0.58483 0.80796 0.64036 0.0
C467 C 0.58311 0.80032 0.7133 0.0
C468 C 0.58613 0.79599 0.51077 0.0
C469 C 0.57531 0.77465 0.45642 0.0
C470 C 0.5771 0.78392 0.37979 0.0
C471 C 0.57709 0.76328 0.32656 0.0
C472 C 0.57836 0.77098 0.25374 0.0
C473 C 0.57935 0.7994 0.23277 0.0
H474 H 0.57661 0.82819 0.39782 0.0
C475 C 0.57901 0.81988 0.28607 0.0
C476 C 0.57777 0.8122 0.35874 0.0
H477 H 0.57939 0.8418 0.27179 0.0
H478 H 0.57925 0.7281 0.69678 0.0
H479 H 0.58287 0.74161 0.57058 0.0
H480 H 0.58652 0.8304 0.62514 0.0
H481 H 0.58362 0.81713 0.75262 0.0
H482 H 0.59655 0.82131 0.4993 0.0
H483 H 0.56495 0.74933 0.46766 0.0
H484 H 0.57624 0.74118 0.34135 0.0
H485 H 0.57832 0.75455 0.214 0.0
C486 C 0.77209 0.55359 0.68869 0.0
C487 C 0.78187 0.57885 0.7379 0.0
C488 C 0.77389 0.55938 0.61497 0.0
C489 C 0.78582 0.59066 0.58925 0.0
C490 C 0.79208 0.61524 0.63841 0.0
C491 C 0.79019 0.60941 0.71254 0.0
C492 C 0.79351 0.59852 0.51215 0.0
C493 C 0.80394 0.58291 0.46961 0.0
C494 C 0.81164 0.59081 0.39253 0.0
C495 C 0.80512 0.56622 0.3432 0.0
C496 C 0.80702 0.57215 0.26911 0.0
C497 C 0.81562 0.60281 0.24398 0.0
H498 H 0.83066 0.64195 0.40376 0.0
C499 C 0.82568 0.62806 0.29336 0.0
C500 C 0.82384 0.62216 0.36704 0.0
H501 H 0.83283 0.65201 0.27502 0.0
H502 H 0.76516 0.52971 0.70721 0.0
H503 H 0.76725 0.53957 0.57842 0.0
H504 H 0.80064 0.63943 0.61964 0.0
H505 H 0.79797 0.6293 0.74951 0.0
H506 H 0.79183 0.61858 0.49102 0.0
H507 H 0.80562 0.56285 0.49068 0.0
H508 H 0.79634 0.54197 0.36182 0.0
H509 H 0.79902 0.55227 0.23203 0.0
C510 C 0.21945 0.81337 0.28444 0.0
C511 C 0.21909 0.78712 0.25132 0.0
C512 C 0.22337 0.81744 0.35905 0.0
C513 C 0.22704 0.79526 0.40128 0.0
C514 C 0.22926 0.77059 0.36684 0.0
C515 C 0.22482 0.76625 0.29259 0.0
C516 C 0.22741 0.79622 0.48117 0.0
C517 C 0.21197 0.80791 0.52007 0.0
C518 C 0.21177 0.80776 0.59986 0.0
C519 C 0.21289 0.83369 0.63648 0.0
C520 C 0.21593 0.83586 0.7113 0.0
C521 C 0.21671 0.81155 0.75089 0.0
H522 H 0.20908 0.7618 0.61323 0.0
C523 C 0.21316 0.78441 0.71502 0.0
C524 C 0.21094 0.7826 0.63988 0.0
H525 H 0.21397 0.76552 0.74463 0.0
H526 H 0.21474 0.82952 0.25335 0.0
H527 H 0.2227 0.83744 0.38345 0.0
H528 H 0.23258 0.7535 0.39791 0.0
H529 H 0.22435 0.74569 0.26784 0.0
H530 H 0.23945 0.78538 0.50876 0.0
H531 H 0.19996 0.81893 0.49325 0.0
H532 H 0.21303 0.85307 0.6069 0.0
H533 H 0.21868 0.85701 0.73812 0.0
C534 C 0.4572 0.21872 0.68815 0.0
C535 C 0.43055 0.20481 0.73438 0.0
C536 C 0.45326 0.21452 0.61386 0.0
C537 C 0.42248 0.19608 0.58388 0.0
C538 C 0.39594 0.18104 0.63039 0.0
C539 C 0.39993 0.18514 0.70506 0.0
C540 C 0.41723 0.19416 0.50463 0.0
C541 C 0.44013 0.19861 0.45678 0.0
C542 C 0.4359 0.198 0.37759 0.0
C543 C 0.4536 0.18863 0.33445 0.0
C544 C 0.45068 0.18778 0.25978 0.0
C545 C 0.43038 0.19688 0.22611 0.0
H546 H 0.40271 0.21604 0.37592 0.0
C547 C 0.41339 0.20737 0.26894 0.0
C548 C 0.41598 0.20777 0.34421 0.0
H549 H 0.39762 0.21456 0.24446 0.0
H550 H 0.48109 0.23411 0.70921 0.0
H551 H 0.47433 0.2272 0.58033 0.0
H552 H 0.37196 0.1668 0.60881 0.0
H553 H 0.3789 0.17438 0.73935 0.0
H554 H 0.39365 0.18836 0.4854 0.0
H555 H 0.46259 0.20124 0.47592 0.0
H556 H 0.46944 0.18143 0.35866 0.0
H557 H 0.46432 0.17981 0.22835 0.0
loop_
_geom_bond_atom_site_label_1
_geom_bond_atom_site_label_2
_geom_bond_distance
_geom_bond_site_symmetry_2
_ccdc_geom_bond_type
O0 Mg1 1.990 . S
O0 C14 1.253 . S
Mg1 O0 1.990 . S
Mg1 O4 2.180 . S
Mg1 O5 2.117 . S
Mg1 O19 2.030 . S
O2 Mg3 2.072 . S
O2 C14 1.260 . S
Mg3 O2 2.072 . S
Mg3 O4 2.099 . S
Mg3 O6 2.079 . S
Mg3 O7 2.072 1_554 S
Mg3 O9 2.099 1_554 S
Mg3 O20 2.079 . S
O4 Mg1 2.180 . S
O4 Mg3 2.099 . S
O4 C15 1.279 . S
O5 Mg1 2.117 . S
O5 C15 1.250 . S
O6 Mg3 2.079 . S
O6 C16 1.264 1_554 S
O7 Mg3 2.072 1_556 S
O7 C17 1.260 . S
Mg8 O9 2.180 . S
Mg8 O10 2.030 . S
Mg8 O11 1.990 . S
Mg8 O12 2.117 . S
O9 Mg3 2.099 1_556 S
O9 Mg8 2.180 . S
O9 C18 1.279 . S
O10 Mg8 2.030 . S
O10 C16 1.248 . S
O11 Mg8 1.990 . S
O11 C17 1.253 . S
O12 Mg8 2.117 . S
O12 C18 1.250 . S
C13 O19 1.248 . S
C13 O20 1.264 . S
C14 O0 1.253 . S
C14 O2 1.260 . S
C15 O4 1.279 . S
C15 O5 1.250 . S
C16 O6 1.264 1_556 S
C16 O10 1.248 . S
C17 O7 1.260 . S
C17 O11 1.253 . S
C18 O9 1.279 . S
C18 O12 1.250 . S
O19 Mg1 2.030 . S
O19 C13 1.248 . S
O20 Mg3 2.079 . S
O20 C13 1.264 . S
O21 Mg22 1.990 . S
O21 C35 1.253 . S
Mg22 O21 1.990 . S
Mg22 O25 2.180 . S
Mg22 O26 2.117 . S
Mg22 O40 2.030 . S
O23 Mg24 2.072 . S
O23 C35 1.260 . S
Mg24 O23 2.072 . S
Mg24 O25 2.099 . S
Mg24 O27 2.079 . S
Mg24 O28 2.072 1_554 S
Mg24 O30 2.099 1_554 S
Mg24 O41 2.079 . S
O25 Mg22 2.180 . S
O25 Mg24 2.099 . S
O25 C36 1.279 . S
O26 Mg22 2.117 . S
O26 C36 1.250 . S
O27 Mg24 2.079 . S
O27 C37 1.264 1_554 S
O28 Mg24 2.072 1_556 S
O28 C38 1.260 . S
Mg29 O30 2.180 . S
Mg29 O31 2.030 . S
Mg29 O32 1.990 . S
Mg29 O33 2.117 . S
O30 Mg24 2.099 1_556 S
O30 Mg29 2.180 . S
O30 C39 1.279 . S
O31 Mg29 2.030 . S
O31 C37 1.248 . S
O32 Mg29 1.990 . S
O32 C38 1.253 . S
O33 Mg29 2.117 . S
O33 C39 1.250 . S
C34 O40 1.248 . S
C34 O41 1.264 . S
C35 O21 1.253 . S
C35 O23 1.260 . S
C36 O25 1.279 . S
C36 O26 1.250 . S
C37 O27 1.264 1_556 S
C37 O31 1.248 . S
C38 O28 1.260 . S
C38 O32 1.253 . S
C39 O30 1.279 . S
C39 O33 1.250 . S
O40 Mg22 2.030 . S
O40 C34 1.248 . S
O41 Mg24 2.079 . S
O41 C34 1.264 . S
O42 Mg43 1.990 . S
O42 C56 1.253 . S
Mg43 O42 1.990 . S
Mg43 O46 2.180 . S
Mg43 O47 2.117 . S
Mg43 O61 2.030 . S
O44 Mg45 2.072 . S
O44 C56 1.260 . S
Mg45 O44 2.072 . S
Mg45 O46 2.099 . S
Mg45 O48 2.079 . S
Mg45 O49 2.072 1_554 S
Mg45 O51 2.099 1_554 S
Mg45 O62 2.079 . S
O46 Mg43 2.180 . S
O46 Mg45 2.099 . S
O46 C57 1.279 . S
O47 Mg43 2.117 . S
O47 C57 1.250 . S
O48 Mg45 2.079 . S
O48 C58 1.264 1_554 S
O49 Mg45 2.072 1_556 S
O49 C59 1.260 . S
Mg50 O51 2.180 . S
Mg50 O52 2.030 . S
Mg50 O53 1.990 . S
Mg50 O54 2.117 . S
O51 Mg45 2.099 1_556 S
O51 Mg50 2.180 . S
O51 C60 1.279 . S
O52 Mg50 2.030 . S
O52 C58 1.248 . S
O53 Mg50 1.990 . S
O53 C59 1.253 . S
O54 Mg50 2.117 . S
O54 C60 1.250 . S
C55 O61 1.248 . S
C55 O62 1.264 . S
C56 O42 1.253 . S
C56 O44 1.260 . S
C57 O46 1.279 . S
C57 O47 1.250 . S
C58 O48 1.264 1_556 S
C58 O52 1.248 . S
C59 O49 1.260 . S
C59 O53 1.253 . S
C60 O51 1.279 . S
C60 O54 1.250 . S
O61 Mg43 2.030 . S
O61 C55 1.248 . S
O62 Mg45 2.079 . S
O62 C55 1.264 . S
O63 Mg64 1.990 . S
O63 C77 1.253 . S
Mg64 O63 1.990 . S
Mg64 O67 2.180 . S
Mg64 O68 2.117 . S
Mg64 O82 2.030 . S
O65 Mg66 2.072 . S
O65 C77 1.260 . S
Mg66 O65 2.072 . S
Mg66 O67 2.099 . S
Mg66 O69 2.079 . S
Mg66 O70 2.072 1_554 S
Mg66 O72 2.099 1_554 S
Mg66 O83 2.079 . S
O67 Mg64 2.180 . S
O67 Mg66 2.099 . S
O67 C78 1.279 . S
O68 Mg64 2.117 . S
O68 C78 1.250 . S
O69 Mg66 2.079 . S
O69 C79 1.264 1_554 S
O70 Mg66 2.072 1_556 S
O70 C80 1.260 . S
Mg71 O72 2.180 . S
Mg71 O73 2.030 . S
Mg71 O74 1.990 . S
Mg71 O75 2.117 . S
O72 Mg66 2.099 1_556 S
O72 Mg71 2.180 . S
O72 C81 1.279 . S
O73 Mg71 2.030 . S
O73 C79 1.248 . S
O74 Mg71 1.990 . S
O74 C80 1.253 . S
O75 Mg71 2.117 . S
O75 C81 1.250 . S
C76 O82 1.248 . S
C76 O83 1.264 . S
C77 O63 1.253 . S
C77 O65 1.260 . S
C78 O67 1.279 . S
C78 O68 1.250 . S
C79 O69 1.264 1_556 S
C79 O73 1.248 . S
C80 O70 1.260 . S
C80 O74 1.253 . S
C81 O72 1.279 . S
C81 O75 1.250 . S
O82 Mg64 2.030 . S
O82 C76 1.248 . S
O83 Mg66 2.079 . S
O83 C76 1.264 . S
O84 Mg85 1.990 . S
O84 C98 1.253 . S
Mg85 O84 1.990 . S
Mg85 O88 2.180 . S
Mg85 O89 2.117 . S
Mg85 O103 2.030 . S
O86 Mg87 2.072 . S
O86 C98 1.260 . S
Mg87 O86 2.072 . S
Mg87 O88 2.099 . S
Mg87 O90 2.079 . S
Mg87 O91 2.072 1_554 S
Mg87 O93 2.099 1_554 S
Mg87 O104 2.079 . S
O88 Mg85 2.180 . S
O88 Mg87 2.099 . S
O88 C99 1.279 . S
O89 Mg85 2.117 . S
O89 C99 1.250 . S
O90 Mg87 2.079 . S
O90 C100 1.264 1_554 S
O91 Mg87 2.072 1_556 S
O91 C101 1.260 . S
Mg92 O93 2.180 . S
Mg92 O94 2.030 . S
Mg92 O95 1.990 . S
Mg92 O96 2.117 . S
O93 Mg87 2.099 1_556 S
O93 Mg92 2.180 . S
O93 C102 1.279 . S
O94 Mg92 2.030 . S
O94 C100 1.248 . S
O95 Mg92 1.990 . S
O95 C101 1.253 . S
O96 Mg92 2.117 . S
O96 C102 1.250 . S
C97 O103 1.248 . S
C97 O104 1.264 . S
C98 O84 1.253 . S
C98 O86 1.260 . S
C99 O88 1.279 . S
C99 O89 1.250 . S
C100 O90 1.264 1_556 S
C100 O94 1.248 . S
C101 O91 1.260 . S
C101 O95 1.253 . S
C102 O93 1.279 . S
C102 O96 1.250 . S
O103 Mg85 2.030 . S
O103 C97 1.248 . S
O104 Mg87 2.079 . S
O104 C97 1.264 . S
O105 Mg106 1.990 . S
O105 C119 1.253 . S
Mg106 O105 1.990 . S
Mg106 O109 2.180 . S
Mg106 O110 2.117 . S
Mg106 O124 2.030 . S
O107 Mg108 2.072 . S
O107 C119 1.260 . S
Mg108 O107 2.072 . S
Mg108 O109 2.099 . S
Mg108 O111 2.079 . S
Mg108 O112 2.072 1_554 S
Mg108 O114 2.099 1_554 S
Mg108 O125 2.079 . S
O109 Mg106 2.180 . S
O109 Mg108 2.099 . S
O109 C120 1.279 . S
O110 Mg106 2.117 . S
O110 C120 1.250 . S
O111 Mg108 2.079 . S
O111 C121 1.264 1_554 S
O112 Mg108 2.072 1_556 S
O112 C122 1.260 . S
Mg113 O114 2.180 . S
Mg113 O115 2.030 . S
Mg113 O116 1.990 . S
Mg113 O117 2.117 . S
O114 Mg108 2.099 1_556 S
O114 Mg113 2.180 . S
O114 C123 1.279 . S
O115 Mg113 2.030 . S
O115 C121 1.248 . S
O116 Mg113 1.990 . S
O116 C122 1.253 . S
O117 Mg113 2.117 . S
O117 C123 1.250 . S
C118 O124 1.248 . S
C118 O125 1.264 . S
C119 O105 1.253 . S
C119 O107 1.260 . S
C120 O109 1.279 . S
C120 O110 1.250 . S
C121 O111 1.264 1_556 S
C121 O115 1.248 . S
C122 O112 1.260 . S
C122 O116 1.253 . S
C123 O114 1.279 . S
C123 O117 1.250 . S
O124 Mg106 2.030 . S
O124 C118 1.248 . S
O125 Mg108 2.079 . S
O125 C118 1.264 . S
C126 C127 1.386 1_554 S
C126 C128 1.383 . S
C126 H142 0.951 . S
C127 C126 1.386 1_556 S
C127 C131 1.383 . S
C128 C126 1.383 . S
C128 C129 1.402 1_554 S
C128 H143 0.951 . S
C129 C128 1.402 1_556 S
C129 C130 1.375 . S
C129 C132 1.481 . S
C130 C129 1.375 . S
C130 C131 1.367 . S
C130 H144 0.951 . S
C131 C127 1.383 . S
C131 C130 1.367 . S
C131 H145 0.950 . S
C132 C129 1.481 . S
C132 C133 1.287 1_556 S
C132 H146 0.950 . S
C133 C132 1.287 1_554 S
C133 C134 1.478 1_554 S
C133 H147 0.963 . S
C134 C133 1.478 1_556 S
C134 C135 1.375 1_556 S
C134 C140 1.404 . S
C135 C134 1.375 1_554 S
C135 C136 1.369 . S
C135 H148 0.950 . S
C136 C135 1.369 . S
C136 C137 1.392 1_554 S
C136 H149 0.951 . S
C137 C136 1.392 1_556 S
C137 C139 1.384 . S
H138 C140 0.949 . S
C139 C137 1.384 . S
C139 C140 1.385 . S
C139 H141 0.950 . S
C140 C134 1.404 . S
C140 H138 0.949 . S
C140 C139 1.385 . S
H141 C139 0.950 . S
H142 C126 0.951 . S
H143 C128 0.951 . S
H144 C130 0.951 . S
H145 C131 0.950 . S
H146 C132 0.950 . S
H147 C133 0.963 . S
H148 C135 0.950 . S
H149 C136 0.951 . S
C150 C151 1.386 . S
C150 C152 1.383 . S
C150 H166 0.951 . S
C151 C150 1.386 . S
C151 C155 1.383 1_556 S
C152 C150 1.383 . S
C152 C153 1.402 1_556 S
C152 H167 0.951 . S
C153 C152 1.402 1_554 S
C153 C154 1.375 . S
C153 C156 1.481 . S
C154 C153 1.375 . S
C154 C155 1.367 . S
C154 H168 0.951 . S
C155 C151 1.383 1_554 S
C155 C154 1.367 . S
C155 H169 0.950 . S
C156 C153 1.481 . S
C156 C157 1.297 1_454 S
C156 H170 0.950 1_455 S
C157 C156 1.297 1_656 S
C157 C158 1.479 . S
C157 H171 0.950 . S
C158 C157 1.479 . S
C158 C159 1.375 . S
C158 C164 1.404 1_556 S
C159 C158 1.375 . S
C159 C160 1.369 . S
C159 H172 0.950 . S
C160 C159 1.369 . S
C160 C161 1.392 . S
C160 H173 0.951 . S
C161 C160 1.392 . S
C161 C163 1.384 1_556 S
H162 C164 0.949 . S
C163 C161 1.384 1_554 S
C163 C164 1.385 . S
C163 H165 0.950 . S
C164 C158 1.404 1_554 S
C164 H162 0.949 . S
C164 C163 1.385 . S
H165 C163 0.950 . S
H166 C150 0.951 . S
H167 C152 0.951 . S
H168 C154 0.951 . S
H169 C155 0.950 . S
H170 C156 0.950 1_655 S
H171 C157 0.950 . S
H172 C159 0.950 . S
H173 C160 0.951 . S
C174 C175 1.386 1_554 S
C174 C176 1.383 . S
C174 H190 0.951 . S
C175 C174 1.386 1_556 S
C175 C179 1.383 . S
C176 C174 1.383 . S
C176 C177 1.402 1_554 S
C176 H191 0.951 . S
C177 C176 1.402 1_556 S
C177 C178 1.375 . S
C177 C180 1.481 . S
C178 C177 1.375 . S
C178 C179 1.367 . S
C178 H192 0.951 . S
C179 C175 1.383 . S
C179 C178 1.367 . S
C179 H193 0.950 . S
C180 C177 1.481 . S
C180 C181 1.297 1_545 S
C180 H194 0.950 1_545 S
C181 C180 1.297 1_565 S
C181 C182 1.479 . S
C181 H195 0.950 1_556 S
C182 C181 1.479 . S
C182 C183 1.375 1_556 S
C182 C188 1.404 . S
C183 C182 1.375 1_554 S
C183 C184 1.369 . S
C183 H196 0.950 . S
C184 C183 1.369 . S
C184 C185 1.392 1_554 S
C184 H197 0.951 . S
C185 C184 1.392 1_556 S
C185 C187 1.384 . S
H186 C188 0.949 . S
C187 C185 1.384 . S
C187 C188 1.385 . S
C187 H189 0.950 . S
C188 C182 1.404 . S
C188 H186 0.949 . S
C188 C187 1.385 . S
H189 C187 0.950 . S
H190 C174 0.951 . S
H191 C176 0.951 . S
H192 C178 0.951 . S
H193 C179 0.950 . S
H194 C180 0.950 1_565 S
H195 C181 0.950 1_554 S
H196 C183 0.950 . S
H197 C184 0.951 . S
C198 C199 1.386 1_554 S
C198 C200 1.383 . S
C198 H214 0.951 . S
C199 C198 1.386 1_556 S
C199 C203 1.383 . S
C200 C198 1.383 . S
C200 C201 1.402 1_554 S
C200 H215 0.951 . S
C201 C200 1.402 1_556 S
C201 C202 1.375 . S
C201 C204 1.481 . S
C202 C201 1.375 . S
C202 C203 1.367 . S
C202 H216 0.951 . S
C203 C199 1.383 . S
C203 C202 1.367 . S
C203 H217 0.950 . S
C204 C201 1.481 . S
C204 C205 1.297 . S
C204 H218 0.950 . S
C205 C204 1.297 . S
C205 C206 1.479 . S
C205 H219 0.950 1_556 S
C206 C205 1.479 . S
C206 C207 1.375 1_556 S
C206 C212 1.404 . S
C207 C206 1.375 1_554 S
C207 C208 1.369 . S
C207 H220 0.950 . S
C208 C207 1.369 . S
C208 C209 1.392 1_554 S
C208 H221 0.951 . S
C209 C208 1.392 1_556 S
C209 C211 1.384 . S
H210 C212 0.949 . S
C211 C209 1.384 . S
C211 C212 1.385 . S
C211 H213 0.950 . S
C212 C206 1.404 . S
C212 H210 0.949 . S
C212 C211 1.385 . S
H213 C211 0.950 . S
H214 C198 0.951 . S
H215 C200 0.951 . S
H216 C202 0.951 . S
H217 C203 0.950 . S
H218 C204 0.950 . S
H219 C205 0.950 1_554 S
H220 C207 0.950 . S
H221 C208 0.951 . S
C222 C223 1.386 . S
C222 C224 1.383 . S
C222 H238 0.951 . S
C223 C222 1.386 . S
C223 C227 1.383 . S
C224 C222 1.383 . S
C224 C225 1.402 . S
C224 H239 0.951 . S
C225 C224 1.402 . S
C225 C226 1.375 . S
C225 C228 1.481 1_556 S
C226 C225 1.375 . S
C226 C227 1.368 . S
C226 H240 0.950 1_556 S
C227 C223 1.383 . S
C227 C226 1.368 . S
C227 H241 0.950 . S
C228 C225 1.481 1_554 S
C228 C229 1.297 1_455 S
C228 H242 0.950 . S
C229 C228 1.297 1_655 S
C229 C230 1.479 . S
C229 H243 0.950 1_655 S
C230 C229 1.479 . S
C230 C231 1.375 1_554 S
C230 C236 1.404 . S
C231 C230 1.375 1_556 S
C231 C232 1.369 . S
C231 H244 0.950 . S
C232 C231 1.369 . S
C232 C233 1.392 . S
C232 H245 0.951 . S
C233 C232 1.392 . S
C233 C235 1.384 1_556 S
H234 C236 0.949 . S
C235 C233 1.384 1_554 S
C235 C236 1.385 . S
C235 H237 0.950 . S
C236 C230 1.404 . S
C236 H234 0.949 . S
C236 C235 1.385 . S
H237 C235 0.950 . S
H238 C222 0.951 . S
H239 C224 0.951 . S
H240 C226 0.950 1_554 S
H241 C227 0.950 . S
H242 C228 0.950 . S
H243 C229 0.950 1_455 S
H244 C231 0.950 . S
H245 C232 0.951 . S
C246 C247 1.386 . S
C246 C248 1.383 . S
C246 H262 0.951 . S
C247 C246 1.386 . S
C247 C251 1.383 1_556 S
C248 C246 1.383 . S
C248 C249 1.402 1_556 S
C248 H263 0.951 . S
C249 C248 1.402 1_554 S
C249 C250 1.375 . S
C249 C252 1.481 . S
C250 C249 1.375 . S
C250 C251 1.367 . S
C250 H264 0.951 . S
C251 C247 1.383 1_554 S
C251 C250 1.367 . S
C251 H265 0.950 . S
C252 C249 1.481 . S
C252 C253 1.295 1_564 S
C252 H266 0.950 1_565 S
C253 C252 1.295 1_546 S
C253 C254 1.479 1_556 S
C253 H267 0.952 . S
C254 C253 1.479 1_554 S
C254 C255 1.369 1_554 S
C254 C260 1.409 . S
C255 C254 1.369 1_556 S
C255 C256 1.369 . S
C255 H268 0.950 . S
C256 C255 1.369 . S
C256 C257 1.392 . S
C256 H269 0.951 . S
C257 C256 1.392 . S
C257 C259 1.384 1_556 S
H258 C260 0.949 . S
C259 C257 1.384 1_554 S
C259 C260 1.385 . S
C259 H261 0.950 . S
C260 C254 1.409 . S
C260 H258 0.949 . S
C260 C259 1.385 . S
H261 C259 0.950 . S
H262 C246 0.951 . S
H263 C248 0.951 . S
H264 C250 0.951 . S
H265 C251 0.950 . S
H266 C252 0.950 1_545 S
H267 C253 0.952 . S
H268 C255 0.950 . S
H269 C256 0.951 . S
C270 C271 1.386 . S
C270 C272 1.383 . S
C270 H286 0.951 . S
C271 C270 1.386 . S
C271 C275 1.383 . S
C272 C270 1.383 . S
C272 C273 1.402 1_554 S
C272 H287 0.951 . S
C273 C272 1.402 1_556 S
C273 C274 1.375 1_556 S
C273 C276 1.481 . S
C274 C273 1.375 1_554 S
C274 C275 1.367 . S
C274 H288 0.951 1_554 S
C275 C271 1.383 . S
C275 C274 1.367 . S
C275 H289 0.950 . S
C276 C273 1.481 . S
C276 C277 1.297 . S
C276 H290 0.950 . S
C277 C276 1.297 . S
C277 C278 1.479 . S
C277 H291 0.950 . S
C278 C277 1.479 . S
C278 C279 1.375 . S
C278 C284 1.404 . S
C279 C278 1.375 . S
C279 C280 1.369 . S
C279 H292 0.950 . S
C280 C279 1.369 . S
C280 C281 1.392 . S
C280 H293 0.951 1_556 S
C281 C280 1.392 . S
C281 C283 1.384 . S
H282 C284 0.949 . S
C283 C281 1.384 . S
C283 C284 1.385 . S
C283 H285 0.950 . S
C284 C278 1.404 . S
C284 H282 0.949 . S
C284 C283 1.385 . S
H285 C283 0.950 . S
H286 C270 0.951 . S
H287 C272 0.951 . S
H288 C274 0.951 1_556 S
H289 C275 0.950 . S
H290 C276 0.950 . S
H291 C277 0.950 . S
H292 C279 0.950 . S
H293 C280 0.951 1_554 S
C294 C295 1.386 . S
C294 C296 1.383 . S
C294 H310 0.951 . S
C295 C294 1.386 . S
C295 C299 1.383 . S
C296 C294 1.383 . S
C296 C297 1.402 . S
C296 H311 0.951 . S
C297 C296 1.402 . S
C297 C298 1.375 . S
C297 C300 1.481 . S
C298 C297 1.375 . S
C298 C299 1.367 . S
C298 H312 0.951 1_554 S
C299 C295 1.383 . S
C299 C298 1.367 . S
C299 H313 0.950 1_554 S
C300 C297 1.481 . S
C300 C301 1.297 . S
C300 H314 0.950 . S
C301 C300 1.297 . S
C301 C302 1.479 . S
C301 H315 0.950 . S
C302 C301 1.479 . S
C302 C303 1.375 . S
C302 C308 1.404 . S
C303 C302 1.375 . S
C303 C304 1.369 . S
C303 H316 0.950 . S
C304 C303 1.369 . S
C304 C305 1.392 . S
C304 H317 0.951 . S
C305 C304 1.392 . S
C305 C307 1.384 . S
H306 C308 0.949 . S
C307 C305 1.384 . S
C307 C308 1.385 . S
C307 H309 0.950 1_554 S
C308 C302 1.404 . S
C308 H306 0.949 . S
C308 C307 1.385 . S
H309 C307 0.950 1_556 S
H310 C294 0.951 . S
H311 C296 0.951 . S
H312 C298 0.951 1_556 S
H313 C299 0.950 1_556 S
H314 C300 0.950 . S
H315 C301 0.950 . S
H316 C303 0.950 . S
H317 C304 0.951 . S
C318 C319 1.386 1_556 S
C318 C320 1.383 . S
C318 H334 0.951 . S
C319 C318 1.386 1_554 S
C319 C323 1.383 . S
C320 C318 1.383 . S
C320 C321 1.402 1_556 S
C320 H335 0.951 . S
C321 C320 1.402 1_554 S
C321 C322 1.375 . S
C321 C324 1.481 . S
C322 C321 1.375 . S
C322 C323 1.367 . S
C322 H336 0.951 . S
C323 C319 1.383 . S
C323 C322 1.367 . S
C323 H337 0.950 . S
C324 C321 1.481 . S
C324 C325 1.297 1_554 S
C324 H338 0.950 . S
C325 C324 1.297 1_556 S
C325 C326 1.479 . S
C325 H339 0.950 . S
C326 C325 1.479 . S
C326 C327 1.375 . S
C326 C332 1.404 1_556 S
C327 C326 1.375 . S
C327 C328 1.369 . S
C327 H340 0.950 . S
C328 C327 1.369 . S
C328 C329 1.392 1_556 S
C328 H341 0.951 . S
C329 C328 1.392 1_554 S
C329 C331 1.384 . S
H330 C332 0.949 . S
C331 C329 1.384 . S
C331 C332 1.385 . S
C331 H333 0.950 . S
C332 C326 1.404 1_554 S
C332 H330 0.949 . S
C332 C331 1.385 . S
H333 C331 0.950 . S
H334 C318 0.951 . S
H335 C320 0.951 . S
H336 C322 0.951 . S
H337 C323 0.950 . S
H338 C324 0.950 . S
H339 C325 0.950 . S
H340 C327 0.950 . S
H341 C328 0.951 . S
C342 C343 1.384 1_554 S
C342 C344 1.383 . S
C342 H358 0.951 . S
C343 C342 1.384 1_556 S
C343 C347 1.385 . S
C344 C342 1.383 . S
C344 C345 1.402 1_554 S
C344 H359 0.951 . S
C345 C344 1.402 1_556 S
C345 C346 1.375 . S
C345 C348 1.481 . S
C346 C345 1.375 . S
C346 C347 1.367 . S
C346 H360 0.951 . S
C347 C343 1.385 . S
C347 C346 1.367 . S
C347 H361 0.950 . S
C348 C345 1.481 . S
C348 C349 1.297 1_556 S
C348 H362 0.950 . S
C349 C348 1.297 1_554 S
C349 C350 1.479 . S
C349 H363 0.950 . S
C350 C349 1.479 . S
C350 C351 1.375 . S
C350 C356 1.404 1_554 S
C351 C350 1.375 . S
C351 C352 1.369 . S
C351 H364 0.950 . S
C352 C351 1.369 . S
C352 C353 1.392 . S
C352 H365 0.951 . S
C353 C352 1.392 . S
C353 C355 1.384 1_554 S
H354 C356 0.949 . S
C355 C353 1.384 1_556 S
C355 C356 1.385 . S
C355 H357 0.950 . S
C356 C350 1.404 1_556 S
C356 H354 0.949 . S
C356 C355 1.385 . S
H357 C355 0.950 . S
H358 C342 0.951 . S
H359 C344 0.951 . S
H360 C346 0.951 . S
H361 C347 0.950 . S
H362 C348 0.950 . S
H363 C349 0.950 . S
H364 C351 0.950 . S
H365 C352 0.951 . S
C366 C367 1.386 . S
C366 C368 1.383 . S
C366 H382 0.951 . S
C367 C366 1.386 . S
C367 C371 1.383 1_554 S
C368 C366 1.383 . S
C368 C369 1.402 . S
C368 H383 0.951 . S
C369 C368 1.402 . S
C369 C370 1.375 1_554 S
C369 C372 1.481 . S
C370 C369 1.375 1_556 S
C370 C371 1.367 . S
C370 H384 0.951 . S
C371 C367 1.383 1_556 S
C371 C370 1.367 . S
C371 H385 0.950 . S
C372 C369 1.481 . S
C372 C373 1.303 . S
C372 H386 0.943 1_554 S
C373 C372 1.303 . S
C373 C374 1.479 . S
C373 H387 0.950 . S
C374 C373 1.479 . S
C374 C375 1.375 . S
C374 C380 1.404 1_554 S
C375 C374 1.375 . S
C375 C376 1.369 . S
C375 H388 0.950 . S
C376 C375 1.369 . S
C376 C377 1.392 . S
C376 H389 0.951 . S
C377 C376 1.392 . S
C377 C379 1.384 1_554 S
H378 C380 0.949 . S
C379 C377 1.384 1_556 S
C379 C380 1.385 . S
C379 H381 0.950 . S
C380 C374 1.404 1_556 S
C380 H378 0.949 . S
C380 C379 1.385 . S
H381 C379 0.950 . S
H382 C366 0.951 . S
H383 C368 0.951 . S
H384 C370 0.951 . S
H385 C371 0.950 . S
H386 C372 0.943 1_556 S
H387 C373 0.950 . S
H388 C375 0.950 . S
H389 C376 0.951 . S
C390 C391 1.386 . S
C390 C392 1.383 . S
C390 H406 0.951 . S
C391 C390 1.386 . S
C391 C395 1.383 1_554 S
C392 C390 1.383 . S
C392 C393 1.402 1_554 S
C392 H407 0.951 . S
C393 C392 1.402 1_556 S
C393 C394 1.375 . S
C393 C396 1.481 . S
C394 C393 1.375 . S
C394 C395 1.367 . S
C394 H408 0.951 . S
C395 C391 1.383 1_556 S
C395 C394 1.367 . S
C395 H409 0.950 . S
C396 C393 1.481 . S
C396 C397 1.297 1_556 S
C396 H410 0.950 . S
C397 C396 1.297 1_554 S
C397 C398 1.479 . S
C397 H411 0.950 . S
C398 C397 1.479 . S
C398 C399 1.375 . S
C398 C404 1.404 1_554 S
C399 C398 1.375 . S
C399 C400 1.369 . S
C399 H412 0.950 . S
C400 C399 1.369 . S
C400 C401 1.392 . S
C400 H413 0.951 . S
C401 C400 1.392 . S
C401 C403 1.384 1_554 S
H402 C404 0.949 . S
C403 C401 1.384 1_556 S
C403 C404 1.385 . S
C403 H405 0.950 . S
C404 C398 1.404 1_556 S
C404 H402 0.949 . S
C404 C403 1.385 . S
H405 C403 0.950 . S
H406 C390 0.951 . S
H407 C392 0.951 . S
H408 C394 0.951 . S
H409 C395 0.950 . S
H410 C396 0.950 . S
H411 C397 0.950 . S
H412 C399 0.950 . S
H413 C400 0.951 . S
C414 C415 1.386 . S
C414 C416 1.383 . S
C414 H430 0.951 . S
C415 C414 1.386 . S
C415 C419 1.383 . S
C416 C414 1.383 . S
C416 C417 1.402 . S
C416 H431 0.951 . S
C417 C416 1.402 . S
C417 C418 1.375 . S
C417 C420 1.481 . S
C418 C417 1.375 . S
C418 C419 1.367 . S
C418 H432 0.951 . S
C419 C415 1.383 . S
C419 C418 1.367 . S
C419 H433 0.950 . S
C420 C417 1.481 . S
C420 C421 1.297 . S
C420 H434 0.950 . S
C421 C420 1.297 . S
C421 C422 1.479 . S
C421 H435 0.950 . S
C422 C421 1.479 . S
C422 C423 1.375 . S
C422 C428 1.404 . S
C423 C422 1.375 . S
C423 C424 1.369 . S
C423 H436 0.950 . S
C424 C423 1.369 . S
C424 C425 1.392 . S
C424 H437 0.951 . S
C425 C424 1.392 . S
C425 C427 1.384 . S
H426 C428 0.949 . S
C427 C425 1.384 . S
C427 C428 1.385 . S
C427 H429 0.950 . S
C428 C422 1.404 . S
C428 H426 0.949 . S
C428 C427 1.385 . S
H429 C427 0.950 . S
H430 C414 0.951 . S
H431 C416 0.951 . S
H432 C418 0.951 . S
H433 C419 0.950 . S
H434 C420 0.950 . S
H435 C421 0.950 . S
H436 C423 0.950 . S
H437 C424 0.951 . S
C438 C439 1.386 . S
C438 C440 1.383 . S
C438 H454 0.951 . S
C439 C438 1.386 . S
C439 C443 1.383 . S
C440 C438 1.383 . S
C440 C441 1.402 . S
C440 H455 0.951 . S
C441 C440 1.402 . S
C441 C442 1.375 . S
C441 C444 1.481 . S
C442 C441 1.375 . S
C442 C443 1.367 . S
C442 H456 0.951 . S
C443 C439 1.383 . S
C443 C442 1.367 . S
C443 H457 0.950 . S
C444 C441 1.481 . S
C444 C445 1.297 . S
C444 H458 0.950 . S
C445 C444 1.297 . S
C445 C446 1.479 . S
C445 H459 0.950 . S
C446 C445 1.479 . S
C446 C447 1.375 . S
C446 C452 1.404 . S
C447 C446 1.375 . S
C447 C448 1.369 . S
C447 H460 0.950 . S
C448 C447 1.369 . S
C448 C449 1.392 . S
C448 H461 0.951 . S
C449 C448 1.392 . S
C449 C451 1.384 . S
H450 C452 0.949 . S
C451 C449 1.384 . S
C451 C452 1.385 . S
C451 H453 0.950 . S
C452 C446 1.404 . S
C452 H450 0.949 . S
C452 C451 1.385 . S
H453 C451 0.950 . S
H454 C438 0.951 . S
H455 C440 0.951 . S
H456 C442 0.951 . S
H457 C443 0.950 . S
H458 C444 0.950 . S
H459 C445 0.950 . S
H460 C447 0.950 . S
H461 C448 0.951 . S
C462 C463 1.386 . S
C462 C464 1.383 . S
C462 H478 0.951 . S
C463 C462 1.386 . S
C463 C467 1.383 . S
C464 C462 1.383 . S
C464 C465 1.402 . S
C464 H479 0.951 . S
C465 C464 1.402 . S
C465 C466 1.375 . S
C465 C468 1.481 . S
C466 C465 1.375 . S
C466 C467 1.367 . S
C466 H480 0.951 . S
C467 C463 1.383 . S
C467 C466 1.367 . S
C467 H481 0.950 . S
C468 C465 1.481 . S
C468 C469 1.297 . S
C468 H482 0.950 . S
C469 C468 1.297 . S
C469 C470 1.479 . S
C469 H483 0.950 . S
C470 C469 1.479 . S
C470 C471 1.375 . S
C470 C476 1.404 . S
C471 C470 1.375 . S
C471 C472 1.369 . S
C471 H484 0.950 . S
C472 C471 1.369 . S
C472 C473 1.392 . S
C472 H485 0.951 . S
C473 C472 1.392 . S
C473 C475 1.384 . S
H474 C476 0.949 . S
C475 C473 1.384 . S
C475 C476 1.385 . S
C475 H477 0.950 . S
C476 C470 1.404 . S
C476 H474 0.949 . S
C476 C475 1.385 . S
H477 C475 0.950 . S
H478 C462 0.951 . S
H479 C464 0.951 . S
H480 C466 0.951 . S
H481 C467 0.950 . S
H482 C468 0.950 . S
H483 C469 0.950 . S
H484 C471 0.950 . S
H485 C472 0.951 . S
C486 C487 1.386 . S
C486 C488 1.383 . S
C486 H502 0.951 . S
C487 C486 1.386 . S
C487 C491 1.383 . S
C488 C486 1.383 . S
C488 C489 1.402 . S
C488 H503 0.951 . S
C489 C488 1.402 . S
C489 C490 1.375 . S
C489 C492 1.481 . S
C490 C489 1.375 . S
C490 C491 1.367 . S
C490 H504 0.951 . S
C491 C487 1.383 . S
C491 C490 1.367 . S
C491 H505 0.950 . S
C492 C489 1.481 . S
C492 C493 1.297 . S
C492 H506 0.950 . S
C493 C492 1.297 . S
C493 C494 1.479 . S
C493 H507 0.950 . S
C494 C493 1.479 . S
C494 C495 1.375 . S
C494 C500 1.404 . S
C495 C494 1.375 . S
C495 C496 1.369 . S
C495 H508 0.950 . S
C496 C495 1.369 . S
C496 C497 1.392 . S
C496 H509 0.951 . S
C497 C496 1.392 . S
C497 C499 1.384 . S
H498 C500 0.949 . S
C499 C497 1.384 . S
C499 C500 1.385 . S
C499 H501 0.950 . S
C500 C494 1.404 . S
C500 H498 0.949 . S
C500 C499 1.385 . S
H501 C499 0.950 . S
H502 C486 0.951 . S
H503 C488 0.951 . S
H504 C490 0.951 . S
H505 C491 0.950 . S
H506 C492 0.950 . S
H507 C493 0.950 . S
H508 C495 0.950 . S
H509 C496 0.951 . S
C510 C511 1.386 . S
C510 C512 1.383 . S
C510 H526 0.951 . S
C511 C510 1.386 . S
C511 C515 1.383 . S
C512 C510 1.383 . S
C512 C513 1.402 . S
C512 H527 0.951 . S
C513 C512 1.402 . S
C513 C514 1.375 . S
C513 C516 1.481 . S
C514 C513 1.375 . S
C514 C515 1.367 . S
C514 H528 0.951 . S
C515 C511 1.383 . S
C515 C514 1.367 . S
C515 H529 0.950 . S
C516 C513 1.481 . S
C516 C517 1.297 . S
C516 H530 0.950 . S
C517 C516 1.297 . S
C517 C518 1.479 . S
C517 H531 0.950 . S
C518 C517 1.479 . S
C518 C519 1.375 . S
C518 C524 1.404 . S
C519 C518 1.375 . S
C519 C520 1.369 . S
C519 H532 0.950 . S
C520 C519 1.369 . S
C520 C521 1.392 . S
C520 H533 0.951 . S
C521 C520 1.392 . S
C521 C523 1.384 . S
H522 C524 0.949 . S
C523 C521 1.384 . S
C523 C524 1.385 . S
C523 H525 0.950 . S
C524 C518 1.404 . S
C524 H522 0.949 . S
C524 C523 1.385 . S
H525 C523 0.950 . S
H526 C510 0.951 . S
H527 C512 0.951 . S
H528 C514 0.951 . S
H529 C515 0.950 . S
H530 C516 0.950 . S
H531 C517 0.950 . S
H532 C519 0.950 . S
H533 C520 0.951 . S
C534 C535 1.386 . S
C534 C536 1.383 . S
C534 H550 0.951 . S
C535 C534 1.386 . S
C535 C539 1.383 . S
C536 C534 1.383 . S
C536 C537 1.402 . S
C536 H551 0.951 . S
C537 C536 1.402 . S
C537 C538 1.375 . S
C537 C540 1.481 . S
C538 C537 1.375 . S
C538 C539 1.367 . S
C538 H552 0.951 . S
C539 C535 1.383 . S
C539 C538 1.367 . S
C539 H553 0.950 . S
C540 C537 1.481 . S
C540 C541 1.297 . S
C540 H554 0.950 . S
C541 C540 1.297 . S
C541 C542 1.479 . S
C541 H555 0.950 . S
C542 C541 1.479 . S
C542 C543 1.375 . S
C542 C548 1.404 . S
C543 C542 1.375 . S
C543 C544 1.369 . S
C543 H556 0.950 . S
C544 C543 1.369 . S
C544 C545 1.392 . S
C544 H557 0.951 . S
C545 C544 1.392 . S
C545 C547 1.384 . S
H546 C548 0.949 . S
C547 C545 1.384 . S
C547 C548 1.385 . S
C547 H549 0.950 . S
C548 C542 1.404 . S
C548 H546 0.949 . S
C548 C547 1.385 . S
H549 C547 0.950 . S
H550 C534 0.951 . S
H551 C536 0.951 . S
H552 C538 0.951 . S
H553 C539 0.950 . S
H554 C540 0.950 . S
H555 C541 0.950 . S
H556 C543 0.950 . S
H557 C544 0.951 . S
C127 C121 1.221 . S
C137 C15 0.953 1_556 S
C151 C16 1.280 . S
C161 C36 1.113 1_556 S
C175 C37 1.248 . S
C185 C57 1.037 1_556 S
C199 C78 1.140 1_556 S
C209 C58 1.324 . S
C223 C99 1.078 1_556 S
C233 C79 1.266 . S
C247 C100 1.259 . S
C257 C120 1.053 1_556 S
C271 C98 1.543 . S
C281 C18 1.311 . S
C295 C119 1.512 . S
C305 C39 1.429 1_554 S
C319 C60 1.377 1_554 S
C329 C14 1.496 . S
C343 C81 1.367 . S
C353 C35 1.552 . S
C367 C102 1.409 1_554 S
C377 C56 1.543 . S
C391 C77 1.523 . S
C401 C123 1.319 1_554 S
C415 C17 1.495 . S
C425 C13 1.431 . S
C439 C38 1.447 . S
C449 C34 1.524 . S
C463 C59 1.483 . S
C473 C55 1.480 . S
C487 C80 1.489 . S
C497 C76 1.428 . S
C511 C97 1.474 . S
C521 C101 1.507 . S
C535 C122 1.474 . S
C545 C118 1.436 . S
