# Generated by pormake.
# Topology upa, (4)-cn, num edge types: 1
# Building blocks:
#     Node 0, Type 0, BuildingBlock: QUQFOY_clean_sbu_1, # of connection points: 4
#     Node 1, Type 0, BuildingBlock: QUQFOY_clean_sbu_1, # of connection points: 4
#     Node 2, Type 0, BuildingBlock: QUQFOY_clean_sbu_1, # of connection points: 4
#     Node 3, Type 0, BuildingBlock: QUQFOY_clean_sbu_1, # of connection points: 4
#     Node 4, Type 0, BuildingBlock: QUQFOY_clean_sbu_1, # of connection points: 4
#     Node 5, Type 0, BuildingBlock: QUQFOY_clean_sbu_1, # of connection points: 4
#     Node 6, Type 0, BuildingBlock: QUQFOY_clean_sbu_1, # of connection points: 4
#     Node 7, Type 0, BuildingBlock: QUQFOY_clean_sbu_1, # of connection points: 4
#     Edge 8, Type (0, 0), BuildingBlock: FUNLAD_clean_linker_0, # of connection points: 2
#     Edge 9, Type (0, 0), BuildingBlock: FUNLAD_clean_linker_0, # of connection points: 2
#     Edge 10, Type (0, 0), BuildingBlock: FUNLAD_clean_linker_0, # of connection points: 2
#     Edge 11, Type (0, 0), BuildingBlock: FUNLAD_clean_linker_0, # of connection points: 2
#     Edge 12, Type (0, 0), BuildingBlock: FUNLAD_clean_linker_0, # of connection points: 2
#     Edge 13, Type (0, 0), BuildingBlock: FUNLAD_clean_linker_0, # of connection points: 2
#     Edge 14, Type (0, 0), BuildingBlock: FUNLAD_clean_linker_0, # of connection points: 2
#     Edge 15, Type (0, 0), BuildingBlock: FUNLAD_clean_linker_0, # of connection points: 2
#     Edge 16, Type (0, 0), BuildingBlock: FUNLAD_clean_linker_0, # of connection points: 2
#     Edge 17, Type (0, 0), BuildingBlock: FUNLAD_clean_linker_0, # of connection points: 2
#     Edge 18, Type (0, 0), BuildingBlock: FUNLAD_clean_linker_0, # of connection points: 2
#     Edge 19, Type (0, 0), BuildingBlock: FUNLAD_clean_linker_0, # of connection points: 2
#     Edge 20, Type (0, 0), BuildingBlock: FUNLAD_clean_linker_0, # of connection points: 2
#     Edge 21, Type (0, 0), BuildingBlock: FUNLAD_clean_linker_0, # of connection points: 2
#     Edge 22, Type (0, 0), BuildingBlock: FUNLAD_clean_linker_0, # of connection points: 2
#     Edge 23, Type (0, 0), BuildingBlock: FUNLAD_clean_linker_0, # of connection points: 2
# Relax obj value: 0.125
# Max RMSD: 0.092
# Mean RMSD: 0.092
data_MOF--net-upa--node1-QUQFOY_clean_sbu_1--edge1-FUNLAD_clean_linker_0
_symmetry_space_group_name_H-M    P1
_symmetry_Int_Tables_number       1
_symmetry_cell_setting            triclinic
loop_
_symmetry_equiv_pos_as_xyz
'x, y, z'
_cell_length_a     33.895737
_cell_length_b     33.929596
_cell_length_c     49.377065
_cell_angle_alpha  90.093292
_cell_angle_beta   90.130344
_cell_angle_gamma 90.254727
loop_
_atom_site_label
_atom_site_type_symbol
_atom_site_fract_x
_atom_site_fract_y
_atom_site_fract_z
_atom_type_partial_charge
O0 O 0.19608 0.21118 0.36659 0.0
Cd1 Cd 0.19289 0.19341 0.32655 0.0
Cd2 Cd 0.11278 0.23511 0.33515 0.0
O3 O 0.13899 0.24171 0.37283 0.0
O4 O 0.24666 0.1721 0.31898 0.0
O5 O 0.2222 0.22364 0.29762 0.0
C6 C 0.25108 0.19945 0.30117 0.0
C7 C 0.06122 0.27693 0.3218 0.0
C8 C 0.17214 0.22975 0.38171 0.0
C9 C 0.1175 0.14885 0.31524 0.0
O10 O 0.09888 0.17964 0.32198 0.0
O11 O 0.15497 0.14778 0.316 0.0
O12 O 0.05798 0.25377 0.34225 0.0
O13 O 0.09519 0.27903 0.31009 0.0
O14 O 0.30078 0.69851 0.87182 0.0
Cd15 Cd 0.32001 0.68994 0.83237 0.0
Cd16 Cd 0.27477 0.61847 0.84375 0.0
O17 O 0.25745 0.65023 0.87728 0.0
O18 O 0.34677 0.74115 0.82416 0.0
O19 O 0.29432 0.72024 0.80177 0.0
C20 C 0.32073 0.74725 0.80565 0.0
C21 C 0.23465 0.57123 0.82231 0.0
C22 C 0.27476 0.68108 0.88606 0.0
C23 C 0.36284 0.61315 0.83396 0.0
O24 O 0.33161 0.59863 0.84399 0.0
O25 O 0.36358 0.64845 0.82538 0.0
O26 O 0.2465 0.56692 0.84691 0.0
O27 O 0.24254 0.60429 0.81052 0.0
O28 O 0.8176 0.80193 0.37259 0.0
Cd29 Cd 0.82473 0.82032 0.33284 0.0
Cd30 Cd 0.89647 0.77031 0.34378 0.0
O31 O 0.86396 0.75673 0.37779 0.0
O32 O 0.7742 0.84878 0.32555 0.0
O33 O 0.79151 0.79524 0.30324 0.0
C34 C 0.76584 0.82257 0.30752 0.0
C35 C 0.94607 0.72849 0.32733 0.0
C36 C 0.83434 0.77554 0.38682 0.0
C37 C 0.90464 0.85836 0.33111 0.0
O38 O 0.91789 0.82648 0.34082 0.0
O39 O 0.86858 0.86136 0.32428 0.0
O40 O 0.94765 0.74344 0.35124 0.0
O41 O 0.91422 0.734 0.31348 0.0
O42 O 0.71542 0.30407 0.8739 0.0
Cd43 Cd 0.6918 0.31506 0.83574 0.0
Cd44 Cd 0.73487 0.38465 0.84821 0.0
O45 O 0.76076 0.35072 0.87767 0.0
O46 O 0.66234 0.26494 0.82851 0.0
O47 O 0.71245 0.28448 0.80345 0.0
C48 C 0.68574 0.25828 0.80855 0.0
C49 C 0.76739 0.43109 0.82132 0.0
C50 C 0.74412 0.31978 0.8867 0.0
C51 C 0.64787 0.38999 0.84469 0.0
O52 O 0.67869 0.4027 0.85643 0.0
O53 O 0.64835 0.35765 0.83166 0.0
O54 O 0.76445 0.43561 0.84716 0.0
O55 O 0.75489 0.39831 0.81096 0.0
O56 O 0.70134 0.29407 0.1379 0.0
Cd57 Cd 0.68842 0.31343 0.17688 0.0
Cd58 Cd 0.61949 0.27205 0.1618 0.0
O59 O 0.65439 0.24964 0.13154 0.0
O60 O 0.73883 0.33913 0.18861 0.0
O61 O 0.71421 0.28659 0.20884 0.0
C62 C 0.742 0.31264 0.20711 0.0
C63 C 0.57154 0.23583 0.18512 0.0
C64 C 0.68578 0.26676 0.12367 0.0
C65 C 0.61434 0.35892 0.1692 0.0
O66 O 0.60141 0.32898 0.15657 0.0
O67 O 0.6468 0.35746 0.18207 0.0
O68 O 0.56808 0.24338 0.15967 0.0
O69 O 0.60409 0.24597 0.19697 0.0
O70 O 0.19326 0.19514 0.64019 0.0
Cd71 Cd 0.17883 0.19345 0.68091 0.0
Cd72 Cd 0.21849 0.112 0.67148 0.0
O73 O 0.22413 0.13827 0.6339 0.0
O74 O 0.15903 0.24776 0.68877 0.0
O75 O 0.21173 0.22285 0.7086 0.0
C76 C 0.18772 0.25203 0.70569 0.0
C77 C 0.25843 0.05772 0.68263 0.0
C78 C 0.21123 0.17093 0.62489 0.0
C79 C 0.13308 0.11927 0.69311 0.0
O80 O 0.16289 0.10001 0.6852 0.0
O81 O 0.13325 0.15674 0.69317 0.0
O82 O 0.23405 0.0567 0.66269 0.0
O83 O 0.26271 0.09084 0.69521 0.0
O84 O 0.31382 0.7123 0.14029 0.0
Cd85 Cd 0.31945 0.691 0.17946 0.0
Cd86 Cd 0.39686 0.73639 0.16865 0.0
O87 O 0.36502 0.75233 0.13471 0.0
O88 O 0.26764 0.66346 0.18438 0.0
O89 O 0.28603 0.71398 0.2096 0.0
C90 C 0.25962 0.68784 0.20356 0.0
C91 C 0.45023 0.77479 0.18449 0.0
C92 C 0.33311 0.7369 0.126 0.0
C93 C 0.39639 0.64736 0.18056 0.0
O94 O 0.41268 0.67852 0.17177 0.0
O95 O 0.36008 0.64684 0.18695 0.0
O96 O 0.45028 0.75885 0.16085 0.0
O97 O 0.41824 0.77197 0.1985 0.0
O98 O 0.80162 0.81013 0.64405 0.0
Cd99 Cd 0.81616 0.81269 0.68476 0.0
Cd100 Cd 0.77084 0.89253 0.67417 0.0
O101 O 0.76407 0.86281 0.63776 0.0
O102 O 0.84303 0.76138 0.69198 0.0
O103 O 0.78645 0.77762 0.71094 0.0
C104 C 0.81447 0.75231 0.70796 0.0
C105 C 0.72959 0.94581 0.68493 0.0
C106 C 0.77999 0.8314 0.6289 0.0
C107 C 0.8563 0.89059 0.69658 0.0
O108 O 0.82615 0.90788 0.6872 0.0
O109 O 0.85776 0.85325 0.69799 0.0
O110 O 0.75254 0.9465 0.66426 0.0
O111 O 0.72713 0.91324 0.69831 0.0
C112 C 0.10914 0.07558 0.311 0.0
C113 C 0.09418 0.11374 0.3075 0.0
C114 C 0.08451 0.04276 0.30737 0.0
C115 C 0.04465 0.04772 0.29998 0.0
C116 C 0.03072 0.08566 0.29453 0.0
C117 C 0.05507 0.11838 0.2985 0.0
C118 C 0.01624 0.0144 0.29924 0.0
C119 C 0.01828 0.98447 0.317 0.0
C120 C 0.9882 0.95273 0.31938 0.0
C121 C 0.99903 0.91803 0.33272 0.0
C122 C 0.97177 0.88776 0.33654 0.0
C123 C 0.93267 0.89147 0.32728 0.0
H124 H 0.93904 0.98356 0.30055 0.0
C125 C 0.9215 0.92637 0.31411 0.0
C126 C 0.94898 0.9568 0.31021 0.0
H127 H 0.89159 0.9302 0.30684 0.0
H128 H 0.13924 0.07115 0.3177 0.0
H129 H 0.0965 0.01369 0.31085 0.0
H130 H 1.00032 0.0902 0.28847 0.0
H131 H 0.04288 0.14745 0.29521 0.0
H132 H 0.99154 0.01649 0.28531 0.0
H133 H 0.04296 0.98332 0.33106 0.0
H134 H 0.02883 0.91422 0.34025 0.0
H135 H 0.98153 0.86137 0.34685 0.0
C136 C 0.39938 0.55259 0.8471 0.0
C137 C 0.39813 0.58787 0.83223 0.0
C138 C 0.43178 0.52768 0.8453 0.0
C139 C 0.46376 0.53738 0.82852 0.0
C140 C 0.46243 0.57227 0.8133 0.0
C141 C 0.43004 0.59759 0.81534 0.0
C142 C 0.49825 0.51094 0.82644 0.0
C143 C 0.51176 0.49086 0.84798 0.0
C144 C 0.54617 0.46441 0.84663 0.0
C145 C 0.57213 0.4631 0.86872 0.0
C146 C 0.60502 0.4386 0.8681 0.0
C147 C 0.61185 0.41404 0.84569 0.0
H148 H 0.53253 0.43946 0.8072 0.0
C149 C 0.58514 0.41428 0.82392 0.0
C150 C 0.55269 0.43962 0.82425 0.0
H151 H 0.58986 0.39567 0.80639 0.0
H152 H 0.37522 0.54406 0.8602 0.0
H153 H 0.43141 0.50048 0.85674 0.0
H154 H 0.48666 0.58013 0.80005 0.0
H155 H 0.42974 0.62439 0.80345 0.0
H156 H 0.51389 0.50944 0.80727 0.0
H157 H 0.49869 0.49576 0.86778 0.0
H158 H 0.56737 0.48165 0.88629 0.0
H159 H 0.6251 0.4388 0.88521 0.0
C160 C 0.58963 0.4201 0.19176 0.0
C161 C 0.59065 0.39515 0.16906 0.0
C162 C 0.56474 0.45289 0.192 0.0
C163 C 0.54126 0.46154 0.16927 0.0
C164 C 0.54327 0.43726 0.14635 0.0
C165 C 0.56724 0.404 0.14639 0.0
C166 C 0.51584 0.49671 0.16833 0.0
C167 C 0.4945 0.50915 0.18959 0.0
C168 C 0.46936 0.5446 0.18765 0.0
C169 C 0.43258 0.54564 0.20065 0.0
C170 C 0.40827 0.57876 0.19819 0.0
C171 C 0.42089 0.61161 0.18314 0.0
H172 H 0.51072 0.57813 0.16326 0.0
C173 C 0.45816 0.61068 0.17071 0.0
C174 C 0.48206 0.57762 0.17291 0.0
H175 H 0.46899 0.63552 0.1591 0.0
H176 H 0.60734 0.41376 0.2095 0.0
H177 H 0.56431 0.47174 0.20972 0.0
H178 H 0.52574 0.44369 0.12853 0.0
H179 H 0.56766 0.38529 0.12859 0.0
H180 H 0.51286 0.51148 0.14891 0.0
H181 H 0.49396 0.49206 0.20818 0.0
H182 H 0.42239 0.52059 0.21232 0.0
H183 H 0.37987 0.57878 0.2082 0.0
C184 C 0.10004 0.05571 0.70458 0.0
C185 C 0.09756 0.09679 0.70129 0.0
C186 C 0.06639 0.03318 0.70951 0.0
C187 C 0.02923 0.0512 0.7115 0.0
C188 C 0.02688 0.09243 0.70911 0.0
C189 C 0.06075 0.11509 0.70421 0.0
C190 C 0.99218 0.02771 0.71309 0.0
C191 C 0.99064 0.98973 0.72117 0.0
C192 C 0.9551 0.96439 0.71772 0.0
C193 C 0.95994 0.9234 0.71524 0.0
C194 C 0.92775 0.89895 0.70918 0.0
C195 C 0.89008 0.91514 0.7055 0.0
H196 H 0.9115 0.01126 0.71862 0.0
C197 C 0.88491 0.95586 0.70945 0.0
C198 C 0.91693 0.98017 0.71567 0.0
H199 H 0.85606 0.96918 0.70742 0.0
H200 H 0.12797 0.04058 0.70255 0.0
H201 H 0.06974 1.00155 0.71041 0.0
H202 H 0.9986 0.10708 0.71035 0.0
H203 H 0.05784 0.14666 0.70175 0.0
H204 H 0.96572 0.04198 0.70565 0.0
H205 H 0.01704 0.97549 0.72872 0.0
H206 H 0.98897 0.9104 0.71704 0.0
H207 H 0.93261 0.86766 0.70649 0.0
C208 C 0.15141 0.23172 0.43019 0.0
C209 C 0.1816 0.23409 0.4108 0.0
C210 C 0.16056 0.23051 0.45779 0.0
C211 C 0.19999 0.23269 0.46651 0.0
C212 C 0.23002 0.23725 0.44727 0.0
C213 C 0.22098 0.23723 0.41959 0.0
C214 C 0.21003 0.22888 0.49558 0.0
C215 C 0.19624 0.19841 0.51019 0.0
C216 C 0.20529 0.19267 0.53929 0.0
C217 C 0.20935 0.1542 0.54922 0.0
C218 C 0.21378 0.14739 0.57695 0.0
C219 C 0.21301 0.17892 0.59544 0.0
H220 H 0.20274 0.25442 0.55052 0.0
C221 C 0.20985 0.21759 0.58545 0.0
C222 C 0.20643 0.22445 0.55758 0.0
H223 H 0.20904 0.24245 0.59923 0.0
H224 H 0.12083 0.22902 0.424 0.0
H225 H 0.13687 0.22744 0.47234 0.0
H226 H 0.26059 0.23916 0.45362 0.0
H227 H 0.24479 0.23916 0.40504 0.0
H228 H 0.2309 0.2496 0.50447 0.0
H229 H 0.17871 0.17576 0.50013 0.0
H230 H 0.20834 0.12924 0.5355 0.0
H231 H 0.21577 0.11724 0.58399 0.0
C232 C 0.28465 0.73012 0.92358 0.0
C233 C 0.26797 0.69455 0.91427 0.0
C234 C 0.28334 0.74019 0.95105 0.0
C235 C 0.26574 0.71457 0.96998 0.0
C236 C 0.24697 0.68025 0.96035 0.0
C237 C 0.24804 0.67032 0.93286 0.0
C238 C 0.26766 0.72128 0.99986 0.0
C239 C 0.29384 0.74573 0.01206 0.0
C240 C 0.30056 0.74736 0.04194 0.0
C241 C 0.33601 0.76394 0.05158 0.0
C242 C 0.34576 0.76243 0.0791 0.0
C243 C 0.32022 0.74424 0.09771 0.0
H244 H 0.24544 0.7199 0.0547 0.0
C245 C 0.28367 0.7298 0.08837 0.0
C246 C 0.2738 0.73155 0.06087 0.0
H247 H 0.26299 0.71616 0.10221 0.0
H248 H 0.29969 0.74981 0.90974 0.0
H249 H 0.29674 0.76775 0.9572 0.0
H250 H 0.23269 0.66015 0.97431 0.0
H251 H 0.23471 0.64278 0.92642 0.0
H252 H 0.24918 0.70233 0.01217 0.0
H253 H 0.31409 0.76276 0.99973 0.0
H254 H 0.35704 0.7768 0.03763 0.0
H255 H 0.37409 0.77401 0.08555 0.0
C256 C 0.78986 0.78457 0.59007 0.0
C257 C 0.77553 0.8207 0.59988 0.0
C258 C 0.78902 0.77598 0.56234 0.0
C259 C 0.77422 0.80363 0.54366 0.0
C260 C 0.75837 0.83897 0.55369 0.0
C261 C 0.75897 0.84742 0.58141 0.0
C262 C 0.77575 0.79783 0.51369 0.0
C263 C 0.79741 0.76993 0.50113 0.0
C264 C 0.8033 0.76819 0.4712 0.0
C265 C 0.83606 0.74765 0.46111 0.0
C266 C 0.84513 0.74837 0.4335 0.0
C267 C 0.82158 0.7697 0.41526 0.0
H268 H 0.75177 0.80217 0.45923 0.0
C269 C 0.78748 0.78832 0.42508 0.0
C270 C 0.77826 0.78738 0.45267 0.0
H271 H 0.7683 0.80449 0.41153 0.0
H272 H 0.80234 0.76304 0.60377 0.0
H273 H 0.80035 0.74779 0.5559 0.0
H274 H 0.74639 0.86073 0.53994 0.0
H275 H 0.7475 0.87549 0.58821 0.0
H276 H 0.76069 0.81977 0.50157 0.0
H277 H 0.81454 0.74942 0.51309 0.0
H278 H 0.85562 0.73212 0.47477 0.0
H279 H 0.87153 0.73352 0.42666 0.0
C280 C 0.73839 0.269 0.92331 0.0
C281 C 0.7543 0.30485 0.91405 0.0
C282 C 0.74182 0.25817 0.95052 0.0
C283 C 0.76077 0.28333 0.96923 0.0
C284 C 0.77925 0.31765 0.95949 0.0
C285 C 0.77609 0.32833 0.93223 0.0
C286 C 0.75987 0.2765 0.99909 0.0
C287 C 0.73233 0.25395 0.01147 0.0
C288 C 0.72508 0.25313 0.04132 0.0
C289 C 0.69171 0.23259 0.05076 0.0
C290 C 0.68016 0.23512 0.07786 0.0
C291 C 0.70169 0.25839 0.09629 0.0
H292 H 0.77467 0.28978 0.05441 0.0
C293 C 0.7365 0.27689 0.08735 0.0
C294 C 0.7482 0.27421 0.06025 0.0
H295 H 0.75409 0.29467 0.10109 0.0
H296 H 0.72205 0.24985 0.90971 0.0
H297 H 0.72875 0.23052 0.95674 0.0
H298 H 0.79458 0.33736 0.97328 0.0
H299 H 0.7889 0.35606 0.92578 0.0
H300 H 0.78014 0.29404 0.0111 0.0
H301 H 0.71126 0.23779 0.99913 0.0
H302 H 0.67343 0.21576 0.03687 0.0
H303 H 0.65328 0.22029 0.08402 0.0
C304 C 0.50097 0.21414 0.18741 0.0
C305 C 0.53725 0.22065 0.20061 0.0
C306 C 0.4668 0.20612 0.20224 0.0
C307 C 0.46806 0.20446 0.23069 0.0
C308 C 0.50472 0.20851 0.24378 0.0
C309 C 0.53895 0.21679 0.22893 0.0
C310 C 0.43172 0.19888 0.24718 0.0
C311 C 0.39596 0.21193 0.23916 0.0
C312 C 0.35938 0.20837 0.25569 0.0
C313 C 0.32779 0.23399 0.25042 0.0
C314 C 0.29269 0.23134 0.26521 0.0
C315 C 0.28822 0.20268 0.28548 0.0
H316 H 0.37782 0.1584 0.28008 0.0
C317 C 0.31965 0.17675 0.29059 0.0
C318 C 0.35477 0.17948 0.27587 0.0
H319 H 0.31711 0.15411 0.30593 0.0
H320 H 0.4986 0.21654 0.16559 0.0
H321 H 0.4394 0.20163 0.19133 0.0
H322 H 0.50666 0.20675 0.26565 0.0
H323 H 0.56641 0.22154 0.23973 0.0
H324 H 0.43526 0.1863 0.26723 0.0
H325 H 0.39354 0.22792 0.22019 0.0
H326 H 0.33033 0.25633 0.23485 0.0
H327 H 0.26904 0.25167 0.26068 0.0
C328 C 0.29177 0.79241 0.7705 0.0
C329 C 0.32071 0.78473 0.7902 0.0
C330 C 0.29088 0.82878 0.7571 0.0
C331 C 0.31909 0.85825 0.76305 0.0
C332 C 0.34807 0.85033 0.78261 0.0
C333 C 0.34903 0.81402 0.79591 0.0
C334 C 0.31782 0.89832 0.75069 0.0
C335 C 0.3005 0.90609 0.72669 0.0
C336 C 0.29593 0.94638 0.71494 0.0
C337 C 0.28286 0.94952 0.68803 0.0
C338 C 0.27319 0.98611 0.67699 0.0
C339 C 0.27636 0.02068 0.69258 0.0
H340 H 0.31044 0.98056 0.75108 0.0
C341 C 0.29152 0.01804 0.71902 0.0
C342 C 0.30102 0.98129 0.73018 0.0
H343 H 0.29394 0.04407 0.73164 0.0
H344 H 0.26934 0.7706 0.76578 0.0
H345 H 0.26729 0.83398 0.74277 0.0
H346 H 0.36997 0.87247 0.7878 0.0
H347 H 0.3717 0.80921 0.81103 0.0
H348 H 0.33246 0.92184 0.76176 0.0
H349 H 0.28883 0.88171 0.71482 0.0
H350 H 0.2787 0.92335 0.67572 0.0
H351 H 0.26164 0.98707 0.65653 0.0
C352 C 0.71837 0.79592 0.27263 0.0
C353 C 0.72734 0.82337 0.29311 0.0
C354 C 0.68124 0.79589 0.26004 0.0
C355 C 0.65223 0.82338 0.2677 0.0
C356 C 0.66132 0.85075 0.28814 0.0
C357 C 0.69845 0.85096 0.30055 0.0
C358 C 0.61159 0.82295 0.25603 0.0
C359 C 0.60312 0.80921 0.23104 0.0
C360 C 0.56245 0.80634 0.21948 0.0
C361 C 0.55834 0.80085 0.19142 0.0
C362 C 0.5214 0.79324 0.17988 0.0
C363 C 0.48748 0.79069 0.19613 0.0
H364 H 0.5299 0.80906 0.2574 0.0
C365 C 0.4911 0.7981 0.22405 0.0
C366 C 0.52819 0.8057 0.23565 0.0
H367 H 0.46563 0.79595 0.23717 0.0
H368 H 0.73983 0.77408 0.26656 0.0
H369 H 0.67509 0.77356 0.24493 0.0
H370 H 0.63954 0.87203 0.29463 0.0
H371 H 0.70422 0.87242 0.31635 0.0
H372 H 0.58829 0.83559 0.26828 0.0
H373 H 0.6272 0.79991 0.21807 0.0
H374 H 0.58404 0.80119 0.17841 0.0
H375 H 0.51976 0.78768 0.1583 0.0
C376 C 0.70888 0.21248 0.77175 0.0
C377 C 0.68265 0.22096 0.79296 0.0
C378 C 0.70712 0.17608 0.75831 0.0
C379 C 0.6789 0.14741 0.76575 0.0
C380 C 0.65253 0.1562 0.78675 0.0
C381 C 0.65421 0.19253 0.80009 0.0
C382 C 0.67777 0.10718 0.75353 0.0
C383 C 0.69219 0.09863 0.72879 0.0
C384 C 0.6949 0.058 0.71724 0.0
C385 C 0.70502 0.05398 0.68981 0.0
C386 C 0.71343 0.01701 0.67879 0.0
C387 C 0.71193 0.98296 0.69494 0.0
H388 H 0.68402 0.02495 0.75434 0.0
C389 C 0.69942 0.98645 0.72194 0.0
C390 C 0.69119 0.02356 0.73306 0.0
H391 H 0.69835 0.96084 0.73499 0.0
H392 H 0.73132 0.23361 0.7659 0.0
H393 H 0.72877 0.17017 0.74279 0.0
H394 H 0.63072 0.13469 0.79309 0.0
H395 H 0.63358 0.19798 0.81638 0.0
H396 H 0.66392 0.08415 0.76544 0.0
H397 H 0.70299 0.12255 0.71621 0.0
H398 H 0.70802 0.07976 0.67704 0.0
H399 H 0.72295 0.01539 0.65789 0.0
C400 C 0.98931 0.29269 0.32383 0.0
C401 C 0.02559 0.29571 0.3102 0.0
C402 C 0.95412 0.30318 0.31098 0.0
C403 C 0.95435 0.31665 0.28405 0.0
C404 C 0.99086 0.3224 0.27115 0.0
C405 C 0.02615 0.31192 0.28404 0.0
C406 C 0.91724 0.32386 0.26858 0.0
C407 C 0.88292 0.30501 0.27395 0.0
C408 C 0.84641 0.30867 0.2572 0.0
C409 C 0.81708 0.2794 0.25939 0.0
C410 C 0.78286 0.28087 0.2435 0.0
C411 C 0.77711 0.31182 0.22508 0.0
H412 H 0.86105 0.3642 0.23755 0.0
C413 C 0.8059 0.3417 0.22339 0.0
C414 C 0.84004 0.34029 0.23932 0.0
H415 H 0.8022 0.36623 0.20962 0.0
H416 H 0.98786 0.28079 0.34415 0.0
H417 H 0.92683 0.29997 0.3221 0.0
H418 H 0.99201 0.33335 0.25057 0.0
H419 H 0.05358 0.31469 0.27298 0.0
H420 H 0.91949 0.34262 0.25088 0.0
H421 H 0.88201 0.28365 0.29028 0.0
H422 H 0.8209 0.25486 0.27315 0.0
H423 H 0.76122 0.25746 0.24538 0.0
C424 C 0.16632 0.32075 0.71712 0.0
C425 C 0.19251 0.28924 0.72123 0.0
C426 C 0.17031 0.3558 0.73187 0.0
C427 C 0.20077 0.36027 0.75107 0.0
C428 C 0.22674 0.32863 0.75528 0.0
C429 C 0.2228 0.2936 0.74047 0.0
C430 C 0.20571 0.39668 0.76773 0.0
C431 C 0.19145 0.4324 0.76076 0.0
C432 C 0.19842 0.46852 0.77736 0.0
C433 C 0.20053 0.50543 0.76455 0.0
C434 C 0.21022 0.53945 0.77932 0.0
C435 C 0.21749 0.53727 0.80732 0.0
H436 H 0.20039 0.43919 0.81641 0.0
C437 C 0.21281 0.50073 0.82039 0.0
C438 C 0.20335 0.46679 0.80562 0.0
H439 H 0.21782 0.49799 0.84198 0.0
H440 H 0.14245 0.31829 0.70259 0.0
H441 H 0.14896 0.37887 0.72849 0.0
H442 H 0.25031 0.33105 0.77006 0.0
H443 H 0.24339 0.26989 0.74422 0.0
H444 H 0.22367 0.39416 0.78588 0.0
H445 H 0.1767 0.43614 0.74141 0.0
H446 H 0.19623 0.50774 0.74286 0.0
H447 H 0.21352 0.56711 0.76863 0.0
C448 C 0.2125 0.71082 0.23958 0.0
C449 C 0.22085 0.68619 0.21743 0.0
C450 C 0.17529 0.70979 0.25191 0.0
C451 C 0.14561 0.68406 0.24229 0.0
C452 C 0.15404 0.6596 0.22014 0.0
C453 C 0.19124 0.6604 0.20799 0.0
C454 C 0.10498 0.68354 0.25378 0.0
C455 C 0.09691 0.69336 0.27964 0.0
C456 C 0.05632 0.69573 0.29119 0.0
C457 C 0.05229 0.69768 0.31945 0.0
C458 C 0.0157 0.70531 0.33127 0.0
C459 C 0.98209 0.71139 0.3151 0.0
H460 H 0.02383 0.69895 0.25314 0.0
C461 C 0.98545 0.70715 0.28688 0.0
C462 C 0.02219 0.69957 0.275 0.0
H463 H 0.96022 0.71208 0.27384 0.0
H464 H 0.23455 0.73121 0.24722 0.0
H465 H 0.16963 0.72995 0.26843 0.0
H466 H 0.13171 0.63978 0.21214 0.0
H467 H 0.19654 0.64114 0.19088 0.0
H468 H 0.08135 0.67356 0.24056 0.0
H469 H 0.12127 0.69989 0.29328 0.0
H470 H 0.07788 0.69476 0.33247 0.0
H471 H 0.0142 0.70837 0.35308 0.0
C472 C 0.79795 0.4979 0.81576 0.0
C473 C 0.77951 0.46474 0.8041 0.0
C474 C 0.80286 0.53263 0.80088 0.0
C475 C 0.7891 0.53507 0.77403 0.0
C476 C 0.77199 0.50149 0.76208 0.0
C477 C 0.76763 0.46653 0.77684 0.0
C478 C 0.78902 0.573 0.75894 0.0
C479 C 0.81621 0.60154 0.76278 0.0
C480 C 0.81485 0.63991 0.74838 0.0
C481 C 0.85026 0.65779 0.74026 0.0
C482 C 0.84998 0.69415 0.72698 0.0
C483 C 0.8143 0.71401 0.72228 0.0
H484 H 0.75132 0.64702 0.75027 0.0
C485 C 0.77885 0.69662 0.73098 0.0
C486 C 0.77906 0.6597 0.74368 0.0
H487 H 0.75093 0.71127 0.72764 0.0
H488 H 0.80717 0.49755 0.83678 0.0
H489 H 0.81549 0.55808 0.81097 0.0
H490 H 0.76102 0.5026 0.74147 0.0
H491 H 0.75293 0.44167 0.76735 0.0
H492 H 0.76619 0.5772 0.74372 0.0
H493 H 0.84136 0.59607 0.77591 0.0
H494 H 0.87822 0.64335 0.74391 0.0
H495 H 0.8778 0.70695 0.72067 0.0
loop_
_geom_bond_atom_site_label_1
_geom_bond_atom_site_label_2
_geom_bond_distance
_geom_bond_site_symmetry_2
_ccdc_geom_bond_type
O0 Cd1 2.223 . S
O0 C8 1.315 . S
Cd1 O0 2.223 . S
Cd1 O4 2.297 . S
Cd1 O5 2.439 . S
Cd1 O11 2.240 . S
Cd2 O3 2.240 . S
Cd2 O10 2.223 . S
Cd2 O12 2.297 1_455 S
Cd2 O13 2.439 . S
O3 Cd2 2.240 . S
O3 C8 1.279 . S
O4 Cd1 2.297 . S
O4 C6 1.247 . S
O5 Cd1 2.439 . S
O5 C6 1.208 . S
C6 O4 1.247 . S
C6 O5 1.208 . S
C7 O12 1.247 1_455 S
C7 O13 1.208 . S
C8 O0 1.315 . S
C8 O3 1.279 . S
C9 O10 1.315 . S
C9 O11 1.279 . S
O10 Cd2 2.223 . S
O10 C9 1.315 . S
O11 Cd1 2.240 . S
O11 C9 1.279 . S
O12 Cd2 2.297 1_655 S
O12 C7 1.247 1_655 S
O13 Cd2 2.439 . S
O13 C7 1.208 . S
O14 Cd15 2.223 . S
O14 C22 1.315 . S
Cd15 O14 2.223 . S
Cd15 O18 2.297 . S
Cd15 O19 2.439 . S
Cd15 O25 2.240 . S
Cd16 O17 2.240 . S
Cd16 O24 2.223 . S
Cd16 O26 2.297 . S
Cd16 O27 2.439 . S
O17 Cd16 2.240 . S
O17 C22 1.279 . S
O18 Cd15 2.297 . S
O18 C20 1.247 . S
O19 Cd15 2.439 . S
O19 C20 1.208 . S
C20 O18 1.247 . S
C20 O19 1.208 . S
C21 O26 1.247 . S
C21 O27 1.208 . S
C22 O14 1.315 . S
C22 O17 1.279 . S
C23 O24 1.315 . S
C23 O25 1.279 . S
O24 Cd16 2.223 . S
O24 C23 1.315 . S
O25 Cd15 2.240 . S
O25 C23 1.279 . S
O26 Cd16 2.297 . S
O26 C21 1.247 . S
O27 Cd16 2.439 . S
O27 C21 1.208 . S
O28 Cd29 2.223 . S
O28 C36 1.315 . S
Cd29 O28 2.223 . S
Cd29 O32 2.297 . S
Cd29 O33 2.439 . S
Cd29 O39 2.240 . S
Cd30 O31 2.240 . S
Cd30 O38 2.223 . S
Cd30 O40 2.297 1_655 S
Cd30 O41 2.439 . S
O31 Cd30 2.240 . S
O31 C36 1.279 . S
O32 Cd29 2.297 . S
O32 C34 1.247 . S
O33 Cd29 2.439 . S
O33 C34 1.208 . S
C34 O32 1.247 . S
C34 O33 1.208 . S
C35 O40 1.247 1_655 S
C35 O41 1.208 . S
C36 O28 1.315 . S
C36 O31 1.279 . S
C37 O38 1.315 . S
C37 O39 1.279 . S
O38 Cd30 2.223 . S
O38 C37 1.315 . S
O39 Cd29 2.240 . S
O39 C37 1.279 . S
O40 Cd30 2.297 1_455 S
O40 C35 1.247 1_455 S
O41 Cd30 2.439 . S
O41 C35 1.208 . S
O42 Cd43 2.223 . S
O42 C50 1.315 . S
Cd43 O42 2.223 . S
Cd43 O46 2.297 . S
Cd43 O47 2.439 . S
Cd43 O53 2.240 . S
Cd44 O45 2.240 . S
Cd44 O52 2.223 . S
Cd44 O54 2.297 . S
Cd44 O55 2.439 . S
O45 Cd44 2.240 . S
O45 C50 1.279 . S
O46 Cd43 2.297 . S
O46 C48 1.247 . S
O47 Cd43 2.439 . S
O47 C48 1.208 . S
C48 O46 1.247 . S
C48 O47 1.208 . S
C49 O54 1.247 . S
C49 O55 1.208 . S
C50 O42 1.315 . S
C50 O45 1.279 . S
C51 O52 1.315 . S
C51 O53 1.279 . S
O52 Cd44 2.223 . S
O52 C51 1.315 . S
O53 Cd43 2.240 . S
O53 C51 1.279 . S
O54 Cd44 2.297 . S
O54 C49 1.247 . S
O55 Cd44 2.439 . S
O55 C49 1.208 . S
O56 Cd57 2.223 . S
O56 C64 1.315 . S
Cd57 O56 2.223 . S
Cd57 O60 2.297 . S
Cd57 O61 2.439 . S
Cd57 O67 2.240 . S
Cd58 O59 2.240 . S
Cd58 O66 2.223 . S
Cd58 O68 2.297 . S
Cd58 O69 2.439 . S
O59 Cd58 2.240 . S
O59 C64 1.279 . S
O60 Cd57 2.297 . S
O60 C62 1.247 . S
O61 Cd57 2.439 . S
O61 C62 1.208 . S
C62 O60 1.247 . S
C62 O61 1.208 . S
C63 O68 1.247 . S
C63 O69 1.208 . S
C64 O56 1.315 . S
C64 O59 1.279 . S
C65 O66 1.315 . S
C65 O67 1.279 . S
O66 Cd58 2.223 . S
O66 C65 1.315 . S
O67 Cd57 2.240 . S
O67 C65 1.279 . S
O68 Cd58 2.297 . S
O68 C63 1.247 . S
O69 Cd58 2.439 . S
O69 C63 1.208 . S
O70 Cd71 2.223 . S
O70 C78 1.315 . S
Cd71 O70 2.223 . S
Cd71 O74 2.297 . S
Cd71 O75 2.439 . S
Cd71 O81 2.240 . S
Cd72 O73 2.240 . S
Cd72 O80 2.223 . S
Cd72 O82 2.297 1_545 S
Cd72 O83 2.439 . S
O73 Cd72 2.240 . S
O73 C78 1.279 . S
O74 Cd71 2.297 . S
O74 C76 1.247 . S
O75 Cd71 2.439 . S
O75 C76 1.208 . S
C76 O74 1.247 . S
C76 O75 1.208 . S
C77 O82 1.247 1_545 S
C77 O83 1.208 . S
C78 O70 1.315 . S
C78 O73 1.279 . S
C79 O80 1.315 . S
C79 O81 1.279 . S
O80 Cd72 2.223 . S
O80 C79 1.315 . S
O81 Cd71 2.240 . S
O81 C79 1.279 . S
O82 Cd72 2.297 1_565 S
O82 C77 1.247 1_565 S
O83 Cd72 2.439 . S
O83 C77 1.208 . S
O84 Cd85 2.223 . S
O84 C92 1.315 . S
Cd85 O84 2.223 . S
Cd85 O88 2.297 . S
Cd85 O89 2.439 . S
Cd85 O95 2.240 . S
Cd86 O87 2.240 . S
Cd86 O94 2.223 . S
Cd86 O96 2.297 . S
Cd86 O97 2.439 . S
O87 Cd86 2.240 . S
O87 C92 1.279 . S
O88 Cd85 2.297 . S
O88 C90 1.247 . S
O89 Cd85 2.439 . S
O89 C90 1.208 . S
C90 O88 1.247 . S
C90 O89 1.208 . S
C91 O96 1.247 . S
C91 O97 1.208 . S
C92 O84 1.315 . S
C92 O87 1.279 . S
C93 O94 1.315 . S
C93 O95 1.279 . S
O94 Cd86 2.223 . S
O94 C93 1.315 . S
O95 Cd85 2.240 . S
O95 C93 1.279 . S
O96 Cd86 2.297 . S
O96 C91 1.247 . S
O97 Cd86 2.439 . S
O97 C91 1.208 . S
O98 Cd99 2.223 . S
O98 C106 1.315 . S
Cd99 O98 2.223 . S
Cd99 O102 2.297 . S
Cd99 O103 2.439 . S
Cd99 O109 2.240 . S
Cd100 O101 2.240 . S
Cd100 O108 2.223 . S
Cd100 O110 2.297 1_565 S
Cd100 O111 2.439 . S
O101 Cd100 2.240 . S
O101 C106 1.279 . S
O102 Cd99 2.297 . S
O102 C104 1.247 . S
O103 Cd99 2.439 . S
O103 C104 1.208 . S
C104 O102 1.247 . S
C104 O103 1.208 . S
C105 O110 1.247 1_565 S
C105 O111 1.208 . S
C106 O98 1.315 . S
C106 O101 1.279 . S
C107 O108 1.315 . S
C107 O109 1.279 . S
O108 Cd100 2.223 . S
O108 C107 1.315 . S
O109 Cd99 2.240 . S
O109 C107 1.279 . S
O110 Cd100 2.297 1_545 S
O110 C105 1.247 1_545 S
O111 Cd100 2.439 . S
O111 C105 1.208 . S
C112 C113 1.386 . S
C112 C114 1.383 . S
C112 H128 0.951 . S
C113 C112 1.386 . S
C113 C117 1.383 . S
C114 C112 1.383 . S
C114 C115 1.402 . S
C114 H129 0.951 . S
C115 C114 1.402 . S
C115 C116 1.375 . S
C115 C118 1.481 1_455 S
C116 C115 1.375 . S
C116 C117 1.367 . S
C116 H130 0.951 1_455 S
C117 C113 1.383 . S
C117 C116 1.367 . S
C117 H131 0.950 . S
C118 C115 1.481 1_655 S
C118 C119 1.297 1_545 S
C118 H132 0.950 . S
C119 C118 1.297 1_565 S
C119 C120 1.479 . S
C119 H133 0.950 . S
C120 C119 1.479 . S
C120 C121 1.375 . S
C120 C126 1.404 . S
C121 C120 1.375 . S
C121 C122 1.369 . S
C121 H134 0.950 . S
C122 C121 1.369 . S
C122 C123 1.392 . S
C122 H135 0.951 . S
C123 C122 1.392 . S
C123 C125 1.384 . S
H124 C126 0.949 . S
C125 C123 1.384 . S
C125 C126 1.385 . S
C125 H127 0.950 . S
C126 C120 1.404 . S
C126 H124 0.949 . S
C126 C125 1.385 . S
H127 C125 0.950 . S
H128 C112 0.951 . S
H129 C114 0.951 . S
H130 C116 0.951 1_655 S
H131 C117 0.950 . S
H132 C118 0.950 . S
H133 C119 0.950 . S
H134 C121 0.950 . S
H135 C122 0.951 . S
C136 C137 1.386 . S
C136 C138 1.383 . S
C136 H152 0.951 . S
C137 C136 1.386 . S
C137 C141 1.383 . S
C138 C136 1.383 . S
C138 C139 1.402 . S
C138 H153 0.951 . S
C139 C138 1.402 . S
C139 C140 1.375 . S
C139 C142 1.481 . S
C140 C139 1.375 . S
C140 C141 1.367 . S
C140 H154 0.951 . S
C141 C137 1.383 . S
C141 C140 1.367 . S
C141 H155 0.950 . S
C142 C139 1.481 . S
C142 C143 1.297 . S
C142 H156 0.950 . S
C143 C142 1.297 . S
C143 C144 1.479 . S
C143 H157 0.950 . S
C144 C143 1.479 . S
C144 C145 1.375 . S
C144 C150 1.404 . S
C145 C144 1.375 . S
C145 C146 1.369 . S
C145 H158 0.950 . S
C146 C145 1.369 . S
C146 C147 1.392 . S
C146 H159 0.951 . S
C147 C146 1.392 . S
C147 C149 1.384 . S
H148 C150 0.949 . S
C149 C147 1.384 . S
C149 C150 1.385 . S
C149 H151 0.950 . S
C150 C144 1.404 . S
C150 H148 0.949 . S
C150 C149 1.385 . S
H151 C149 0.950 . S
H152 C136 0.951 . S
H153 C138 0.951 . S
H154 C140 0.951 . S
H155 C141 0.950 . S
H156 C142 0.950 . S
H157 C143 0.950 . S
H158 C145 0.950 . S
H159 C146 0.951 . S
C160 C161 1.386 . S
C160 C162 1.383 . S
C160 H176 0.951 . S
C161 C160 1.386 . S
C161 C165 1.383 . S
C162 C160 1.383 . S
C162 C163 1.402 . S
C162 H177 0.951 . S
C163 C162 1.402 . S
C163 C164 1.375 . S
C163 C166 1.481 . S
C164 C163 1.375 . S
C164 C165 1.367 . S
C164 H178 0.951 . S
C165 C161 1.383 . S
C165 C164 1.367 . S
C165 H179 0.950 . S
C166 C163 1.481 . S
C166 C167 1.297 . S
C166 H180 0.950 . S
C167 C166 1.297 . S
C167 C168 1.479 . S
C167 H181 0.950 . S
C168 C167 1.479 . S
C168 C169 1.375 . S
C168 C174 1.404 . S
C169 C168 1.375 . S
C169 C170 1.369 . S
C169 H182 0.950 . S
C170 C169 1.369 . S
C170 C171 1.392 . S
C170 H183 0.951 . S
C171 C170 1.392 . S
C171 C173 1.384 . S
H172 C174 0.949 . S
C173 C171 1.384 . S
C173 C174 1.385 . S
C173 H175 0.950 . S
C174 C168 1.404 . S
C174 H172 0.949 . S
C174 C173 1.385 . S
H175 C173 0.950 . S
H176 C160 0.951 . S
H177 C162 0.951 . S
H178 C164 0.951 . S
H179 C165 0.950 . S
H180 C166 0.950 . S
H181 C167 0.950 . S
H182 C169 0.950 . S
H183 C170 0.951 . S
C184 C185 1.386 . S
C184 C186 1.383 . S
C184 H200 0.951 . S
C185 C184 1.386 . S
C185 C189 1.383 . S
C186 C184 1.383 . S
C186 C187 1.402 . S
C186 H201 0.951 1_545 S
C187 C186 1.402 . S
C187 C188 1.375 . S
C187 C190 1.481 . S
C188 C187 1.375 . S
C188 C189 1.367 . S
C188 H202 0.951 . S
C189 C185 1.383 . S
C189 C188 1.367 . S
C189 H203 0.950 . S
C190 C187 1.481 . S
C190 C191 1.297 1_445 S
C190 H204 0.950 1_455 S
C191 C190 1.297 1_665 S
C191 C192 1.479 . S
C191 H205 0.950 1_655 S
C192 C191 1.479 . S
C192 C193 1.375 . S
C192 C198 1.404 1_565 S
C193 C192 1.375 . S
C193 C194 1.369 . S
C193 H206 0.950 . S
C194 C193 1.369 . S
C194 C195 1.392 . S
C194 H207 0.951 . S
C195 C194 1.392 . S
C195 C197 1.384 . S
H196 C198 0.949 . S
C197 C195 1.384 . S
C197 C198 1.385 1_565 S
C197 H199 0.950 1_565 S
C198 C192 1.404 1_545 S
C198 H196 0.949 . S
C198 C197 1.385 1_545 S
H199 C197 0.950 1_545 S
H200 C184 0.951 . S
H201 C186 0.951 1_565 S
H202 C188 0.951 . S
H203 C189 0.950 . S
H204 C190 0.950 1_655 S
H205 C191 0.950 1_455 S
H206 C193 0.950 . S
H207 C194 0.951 . S
C208 C209 1.386 . S
C208 C210 1.383 . S
C208 H224 0.951 . S
C209 C208 1.386 . S
C209 C213 1.383 . S
C210 C208 1.383 . S
C210 C211 1.402 . S
C210 H225 0.951 . S
C211 C210 1.402 . S
C211 C212 1.375 . S
C211 C214 1.481 . S
C212 C211 1.375 . S
C212 C213 1.367 . S
C212 H226 0.951 . S
C213 C209 1.383 . S
C213 C212 1.367 . S
C213 H227 0.950 . S
C214 C211 1.481 . S
C214 C215 1.297 . S
C214 H228 0.950 . S
C215 C214 1.297 . S
C215 C216 1.479 . S
C215 H229 0.950 . S
C216 C215 1.479 . S
C216 C217 1.375 . S
C216 C222 1.404 . S
C217 C216 1.375 . S
C217 C218 1.369 . S
C217 H230 0.950 . S
C218 C217 1.369 . S
C218 C219 1.392 . S
C218 H231 0.951 . S
C219 C218 1.392 . S
C219 C221 1.384 . S
H220 C222 0.949 . S
C221 C219 1.384 . S
C221 C222 1.385 . S
C221 H223 0.950 . S
C222 C216 1.404 . S
C222 H220 0.949 . S
C222 C221 1.385 . S
H223 C221 0.950 . S
H224 C208 0.951 . S
H225 C210 0.951 . S
H226 C212 0.951 . S
H227 C213 0.950 . S
H228 C214 0.950 . S
H229 C215 0.950 . S
H230 C217 0.950 . S
H231 C218 0.951 . S
C232 C233 1.386 . S
C232 C234 1.383 . S
C232 H248 0.951 . S
C233 C232 1.386 . S
C233 C237 1.383 . S
C234 C232 1.383 . S
C234 C235 1.402 . S
C234 H249 0.951 . S
C235 C234 1.402 . S
C235 C236 1.375 . S
C235 C238 1.481 . S
C236 C235 1.375 . S
C236 C237 1.367 . S
C236 H250 0.951 . S
C237 C233 1.383 . S
C237 C236 1.367 . S
C237 H251 0.950 . S
C238 C235 1.481 . S
C238 C239 1.297 1_556 S
C238 H252 0.950 1_556 S
C239 C238 1.297 1_554 S
C239 C240 1.479 . S
C239 H253 0.950 . S
C240 C239 1.479 . S
C240 C241 1.375 . S
C240 C246 1.404 . S
C241 C240 1.375 . S
C241 C242 1.369 . S
C241 H254 0.950 . S
C242 C241 1.369 . S
C242 C243 1.392 . S
C242 H255 0.951 . S
C243 C242 1.392 . S
C243 C245 1.384 . S
H244 C246 0.949 . S
C245 C243 1.384 . S
C245 C246 1.385 . S
C245 H247 0.950 . S
C246 C240 1.404 . S
C246 H244 0.949 . S
C246 C245 1.385 . S
H247 C245 0.950 . S
H248 C232 0.951 . S
H249 C234 0.951 . S
H250 C236 0.951 . S
H251 C237 0.950 . S
H252 C238 0.950 1_554 S
H253 C239 0.950 . S
H254 C241 0.950 . S
H255 C242 0.951 . S
C256 C257 1.386 . S
C256 C258 1.383 . S
C256 H272 0.951 . S
C257 C256 1.386 . S
C257 C261 1.383 . S
C258 C256 1.383 . S
C258 C259 1.402 . S
C258 H273 0.951 . S
C259 C258 1.402 . S
C259 C260 1.375 . S
C259 C262 1.481 . S
C260 C259 1.375 . S
C260 C261 1.367 . S
C260 H274 0.951 . S
C261 C257 1.383 . S
C261 C260 1.367 . S
C261 H275 0.950 . S
C262 C259 1.481 . S
C262 C263 1.297 . S
C262 H276 0.950 . S
C263 C262 1.297 . S
C263 C264 1.479 . S
C263 H277 0.950 . S
C264 C263 1.479 . S
C264 C265 1.375 . S
C264 C270 1.404 . S
C265 C264 1.375 . S
C265 C266 1.369 . S
C265 H278 0.950 . S
C266 C265 1.369 . S
C266 C267 1.392 . S
C266 H279 0.951 . S
C267 C266 1.392 . S
C267 C269 1.384 . S
H268 C270 0.949 . S
C269 C267 1.384 . S
C269 C270 1.385 . S
C269 H271 0.950 . S
C270 C264 1.404 . S
C270 H268 0.949 . S
C270 C269 1.385 . S
H271 C269 0.950 . S
H272 C256 0.951 . S
H273 C258 0.951 . S
H274 C260 0.951 . S
H275 C261 0.950 . S
H276 C262 0.950 . S
H277 C263 0.950 . S
H278 C265 0.950 . S
H279 C266 0.951 . S
C280 C281 1.386 . S
C280 C282 1.383 . S
C280 H296 0.951 . S
C281 C280 1.386 . S
C281 C285 1.383 . S
C282 C280 1.383 . S
C282 C283 1.402 . S
C282 H297 0.951 . S
C283 C282 1.402 . S
C283 C284 1.375 . S
C283 C286 1.481 . S
C284 C283 1.375 . S
C284 C285 1.367 . S
C284 H298 0.951 . S
C285 C281 1.383 . S
C285 C284 1.367 . S
C285 H299 0.950 . S
C286 C283 1.481 . S
C286 C287 1.297 1_556 S
C286 H300 0.950 1_556 S
C287 C286 1.297 1_554 S
C287 C288 1.479 . S
C287 H301 0.950 . S
C288 C287 1.479 . S
C288 C289 1.375 . S
C288 C294 1.404 . S
C289 C288 1.375 . S
C289 C290 1.369 . S
C289 H302 0.950 . S
C290 C289 1.369 . S
C290 C291 1.392 . S
C290 H303 0.951 . S
C291 C290 1.392 . S
C291 C293 1.384 . S
H292 C294 0.949 . S
C293 C291 1.384 . S
C293 C294 1.385 . S
C293 H295 0.950 . S
C294 C288 1.404 . S
C294 H292 0.949 . S
C294 C293 1.385 . S
H295 C293 0.950 . S
H296 C280 0.951 . S
H297 C282 0.951 . S
H298 C284 0.951 . S
H299 C285 0.950 . S
H300 C286 0.950 1_554 S
H301 C287 0.950 . S
H302 C289 0.950 . S
H303 C290 0.951 . S
C304 C305 1.386 . S
C304 C306 1.383 . S
C304 H320 0.951 . S
C305 C304 1.386 . S
C305 C309 1.383 . S
C306 C304 1.383 . S
C306 C307 1.402 . S
C306 H321 0.951 . S
C307 C306 1.402 . S
C307 C308 1.375 . S
C307 C310 1.481 . S
C308 C307 1.375 . S
C308 C309 1.367 . S
C308 H322 0.951 . S
C309 C305 1.383 . S
C309 C308 1.367 . S
C309 H323 0.950 . S
C310 C307 1.481 . S
C310 C311 1.297 . S
C310 H324 0.950 . S
C311 C310 1.297 . S
C311 C312 1.479 . S
C311 H325 0.950 . S
C312 C311 1.479 . S
C312 C313 1.375 . S
C312 C318 1.404 . S
C313 C312 1.375 . S
C313 C314 1.369 . S
C313 H326 0.950 . S
C314 C313 1.369 . S
C314 C315 1.392 . S
C314 H327 0.951 . S
C315 C314 1.392 . S
C315 C317 1.384 . S
H316 C318 0.949 . S
C317 C315 1.384 . S
C317 C318 1.385 . S
C317 H319 0.950 . S
C318 C312 1.404 . S
C318 H316 0.949 . S
C318 C317 1.385 . S
H319 C317 0.950 . S
H320 C304 0.951 . S
H321 C306 0.951 . S
H322 C308 0.951 . S
H323 C309 0.950 . S
H324 C310 0.950 . S
H325 C311 0.950 . S
H326 C313 0.950 . S
H327 C314 0.951 . S
C328 C329 1.386 . S
C328 C330 1.383 . S
C328 H344 0.951 . S
C329 C328 1.386 . S
C329 C333 1.383 . S
C330 C328 1.383 . S
C330 C331 1.402 . S
C330 H345 0.951 . S
C331 C330 1.402 . S
C331 C332 1.375 . S
C331 C334 1.481 . S
C332 C331 1.375 . S
C332 C333 1.367 . S
C332 H346 0.951 . S
C333 C329 1.383 . S
C333 C332 1.367 . S
C333 H347 0.950 . S
C334 C331 1.481 . S
C334 C335 1.297 . S
C334 H348 0.950 . S
C335 C334 1.297 . S
C335 C336 1.479 . S
C335 H349 0.950 . S
C336 C335 1.479 . S
C336 C337 1.375 . S
C336 C342 1.404 . S
C337 C336 1.375 . S
C337 C338 1.369 . S
C337 H350 0.950 . S
C338 C337 1.369 . S
C338 C339 1.392 . S
C338 H351 0.951 . S
C339 C338 1.392 . S
C339 C341 1.384 . S
H340 C342 0.949 . S
C341 C339 1.384 . S
C341 C342 1.385 . S
C341 H343 0.950 . S
C342 C336 1.404 . S
C342 H340 0.949 . S
C342 C341 1.385 . S
H343 C341 0.950 . S
H344 C328 0.951 . S
H345 C330 0.951 . S
H346 C332 0.951 . S
H347 C333 0.950 . S
H348 C334 0.950 . S
H349 C335 0.950 . S
H350 C337 0.950 . S
H351 C338 0.951 . S
C352 C353 1.386 . S
C352 C354 1.383 . S
C352 H368 0.951 . S
C353 C352 1.386 . S
C353 C357 1.383 . S
C354 C352 1.383 . S
C354 C355 1.402 . S
C354 H369 0.951 . S
C355 C354 1.402 . S
C355 C356 1.375 . S
C355 C358 1.481 . S
C356 C355 1.375 . S
C356 C357 1.367 . S
C356 H370 0.951 . S
C357 C353 1.383 . S
C357 C356 1.367 . S
C357 H371 0.950 . S
C358 C355 1.481 . S
C358 C359 1.297 . S
C358 H372 0.950 . S
C359 C358 1.297 . S
C359 C360 1.479 . S
C359 H373 0.950 . S
C360 C359 1.479 . S
C360 C361 1.375 . S
C360 C366 1.404 . S
C361 C360 1.375 . S
C361 C362 1.369 . S
C361 H374 0.950 . S
C362 C361 1.369 . S
C362 C363 1.392 . S
C362 H375 0.951 . S
C363 C362 1.392 . S
C363 C365 1.384 . S
H364 C366 0.949 . S
C365 C363 1.384 . S
C365 C366 1.385 . S
C365 H367 0.950 . S
C366 C360 1.404 . S
C366 H364 0.949 . S
C366 C365 1.385 . S
H367 C365 0.950 . S
H368 C352 0.951 . S
H369 C354 0.951 . S
H370 C356 0.951 . S
H371 C357 0.950 . S
H372 C358 0.950 . S
H373 C359 0.950 . S
H374 C361 0.950 . S
H375 C362 0.951 . S
C376 C377 1.386 . S
C376 C378 1.383 . S
C376 H392 0.951 . S
C377 C376 1.386 . S
C377 C381 1.383 . S
C378 C376 1.383 . S
C378 C379 1.402 . S
C378 H393 0.951 . S
C379 C378 1.402 . S
C379 C380 1.375 . S
C379 C382 1.481 . S
C380 C379 1.375 . S
C380 C381 1.367 . S
C380 H394 0.951 . S
C381 C377 1.383 . S
C381 C380 1.367 . S
C381 H395 0.950 . S
C382 C379 1.481 . S
C382 C383 1.297 . S
C382 H396 0.950 . S
C383 C382 1.297 . S
C383 C384 1.479 . S
C383 H397 0.950 . S
C384 C383 1.479 . S
C384 C385 1.375 . S
C384 C390 1.404 . S
C385 C384 1.375 . S
C385 C386 1.369 . S
C385 H398 0.950 . S
C386 C385 1.369 . S
C386 C387 1.392 . S
C386 H399 0.951 . S
C387 C386 1.392 . S
C387 C389 1.384 . S
H388 C390 0.949 . S
C389 C387 1.384 . S
C389 C390 1.385 . S
C389 H391 0.950 . S
C390 C384 1.404 . S
C390 H388 0.949 . S
C390 C389 1.385 . S
H391 C389 0.950 . S
H392 C376 0.951 . S
H393 C378 0.951 . S
H394 C380 0.951 . S
H395 C381 0.950 . S
H396 C382 0.950 . S
H397 C383 0.950 . S
H398 C385 0.950 . S
H399 C386 0.951 . S
C400 C401 1.386 . S
C400 C402 1.383 . S
C400 H416 0.951 . S
C401 C400 1.386 . S
C401 C405 1.383 . S
C402 C400 1.383 . S
C402 C403 1.402 . S
C402 H417 0.951 . S
C403 C402 1.402 . S
C403 C404 1.375 . S
C403 C406 1.481 . S
C404 C403 1.375 . S
C404 C405 1.367 . S
C404 H418 0.951 . S
C405 C401 1.383 . S
C405 C404 1.367 . S
C405 H419 0.950 . S
C406 C403 1.481 . S
C406 C407 1.297 . S
C406 H420 0.950 . S
C407 C406 1.297 . S
C407 C408 1.479 . S
C407 H421 0.950 . S
C408 C407 1.479 . S
C408 C409 1.375 . S
C408 C414 1.404 . S
C409 C408 1.375 . S
C409 C410 1.369 . S
C409 H422 0.950 . S
C410 C409 1.369 . S
C410 C411 1.392 . S
C410 H423 0.951 . S
C411 C410 1.392 . S
C411 C413 1.384 . S
H412 C414 0.949 . S
C413 C411 1.384 . S
C413 C414 1.385 . S
C413 H415 0.950 . S
C414 C408 1.404 . S
C414 H412 0.949 . S
C414 C413 1.385 . S
H415 C413 0.950 . S
H416 C400 0.951 . S
H417 C402 0.951 . S
H418 C404 0.951 . S
H419 C405 0.950 . S
H420 C406 0.950 . S
H421 C407 0.950 . S
H422 C409 0.950 . S
H423 C410 0.951 . S
C424 C425 1.386 . S
C424 C426 1.383 . S
C424 H440 0.951 . S
C425 C424 1.386 . S
C425 C429 1.383 . S
C426 C424 1.383 . S
C426 C427 1.402 . S
C426 H441 0.951 . S
C427 C426 1.402 . S
C427 C428 1.375 . S
C427 C430 1.481 . S
C428 C427 1.375 . S
C428 C429 1.367 . S
C428 H442 0.951 . S
C429 C425 1.383 . S
C429 C428 1.367 . S
C429 H443 0.950 . S
C430 C427 1.481 . S
C430 C431 1.297 . S
C430 H444 0.950 . S
C431 C430 1.297 . S
C431 C432 1.479 . S
C431 H445 0.950 . S
C432 C431 1.479 . S
C432 C433 1.375 . S
C432 C438 1.404 . S
C433 C432 1.375 . S
C433 C434 1.369 . S
C433 H446 0.950 . S
C434 C433 1.369 . S
C434 C435 1.392 . S
C434 H447 0.951 . S
C435 C434 1.392 . S
C435 C437 1.384 . S
H436 C438 0.949 . S
C437 C435 1.384 . S
C437 C438 1.385 . S
C437 H439 0.950 . S
C438 C432 1.404 . S
C438 H436 0.949 . S
C438 C437 1.385 . S
H439 C437 0.950 . S
H440 C424 0.951 . S
H441 C426 0.951 . S
H442 C428 0.951 . S
H443 C429 0.950 . S
H444 C430 0.950 . S
H445 C431 0.950 . S
H446 C433 0.950 . S
H447 C434 0.951 . S
C448 C449 1.386 . S
C448 C450 1.383 . S
C448 H464 0.951 . S
C449 C448 1.386 . S
C449 C453 1.383 . S
C450 C448 1.383 . S
C450 C451 1.402 . S
C450 H465 0.951 . S
C451 C450 1.402 . S
C451 C452 1.375 . S
C451 C454 1.481 . S
C452 C451 1.375 . S
C452 C453 1.367 . S
C452 H466 0.951 . S
C453 C449 1.383 . S
C453 C452 1.367 . S
C453 H467 0.950 . S
C454 C451 1.481 . S
C454 C455 1.297 . S
C454 H468 0.950 . S
C455 C454 1.297 . S
C455 C456 1.479 . S
C455 H469 0.950 . S
C456 C455 1.479 . S
C456 C457 1.375 . S
C456 C462 1.404 . S
C457 C456 1.375 . S
C457 C458 1.369 . S
C457 H470 0.950 . S
C458 C457 1.369 . S
C458 C459 1.392 . S
C458 H471 0.951 . S
C459 C458 1.392 . S
C459 C461 1.384 . S
H460 C462 0.949 . S
C461 C459 1.384 . S
C461 C462 1.385 . S
C461 H463 0.950 . S
C462 C456 1.404 . S
C462 H460 0.949 . S
C462 C461 1.385 . S
H463 C461 0.950 . S
H464 C448 0.951 . S
H465 C450 0.951 . S
H466 C452 0.951 . S
H467 C453 0.950 . S
H468 C454 0.950 . S
H469 C455 0.950 . S
H470 C457 0.950 . S
H471 C458 0.951 . S
C472 C473 1.386 . S
C472 C474 1.383 . S
C472 H488 0.951 . S
C473 C472 1.386 . S
C473 C477 1.383 . S
C474 C472 1.383 . S
C474 C475 1.402 . S
C474 H489 0.951 . S
C475 C474 1.402 . S
C475 C476 1.375 . S
C475 C478 1.481 . S
C476 C475 1.375 . S
C476 C477 1.367 . S
C476 H490 0.951 . S
C477 C473 1.383 . S
C477 C476 1.367 . S
C477 H491 0.950 . S
C478 C475 1.481 . S
C478 C479 1.297 . S
C478 H492 0.950 . S
C479 C478 1.297 . S
C479 C480 1.479 . S
C479 H493 0.950 . S
C480 C479 1.479 . S
C480 C481 1.375 . S
C480 C486 1.404 . S
C481 C480 1.375 . S
C481 C482 1.369 . S
C481 H494 0.950 . S
C482 C481 1.369 . S
C482 C483 1.392 . S
C482 H495 0.951 . S
C483 C482 1.392 . S
C483 C485 1.384 . S
H484 C486 0.949 . S
C485 C483 1.384 . S
C485 C486 1.385 . S
C485 H487 0.950 . S
C486 C480 1.404 . S
C486 H484 0.949 . S
C486 C485 1.385 . S
H487 C485 0.950 . S
H488 C472 0.951 . S
H489 C474 0.951 . S
H490 C476 0.951 . S
H491 C477 0.950 . S
H492 C478 0.950 . S
H493 C479 0.950 . S
H494 C481 0.950 . S
H495 C482 0.951 . S
C113 C9 0.684 . S
C123 C37 0.771 . S
C137 C23 0.688 . S
C147 C51 0.778 . S
C161 C65 0.752 . S
C171 C93 0.662 . S
C185 C79 0.751 . S
C195 C107 0.704 . S
C209 C8 1.337 . S
C219 C78 1.385 . S
C233 C22 1.372 . S
C243 C92 1.313 . S
C257 C106 1.372 . S
C267 C36 1.353 . S
C281 C50 1.367 . S
C291 C64 1.304 . S
C305 C63 1.805 . S
C315 C6 1.687 . S
C329 C20 1.755 . S
C339 C77 1.754 1_565 S
C353 C34 1.753 . S
C363 C91 1.756 . S
C377 C48 1.763 . S
C387 C105 1.743 1_545 S
C401 C7 1.797 1_655 S
C411 C62 1.721 . S
C425 C76 1.766 . S
C435 C21 1.749 . S
C449 C90 1.763 . S
C459 C35 1.743 1_455 S
C473 C49 1.803 . S
C483 C104 1.691 . S
