# Generated by pormake.
# Topology vmp, (7)-cn, num edge types: 1
# Building blocks:
#     Node 0, Type 0, BuildingBlock: HICVOG_clean_sbu_0, # of connection points: 7
#     Node 1, Type 0, BuildingBlock: HICVOG_clean_sbu_0, # of connection points: 7
#     Node 2, Type 0, BuildingBlock: HICVOG_clean_sbu_0, # of connection points: 7
#     Node 3, Type 0, BuildingBlock: HICVOG_clean_sbu_0, # of connection points: 7
#     Node 4, Type 0, BuildingBlock: HICVOG_clean_sbu_0, # of connection points: 7
#     Node 5, Type 0, BuildingBlock: HICVOG_clean_sbu_0, # of connection points: 7
#     Node 6, Type 0, BuildingBlock: HICVOG_clean_sbu_0, # of connection points: 7
#     Node 7, Type 0, BuildingBlock: HICVOG_clean_sbu_0, # of connection points: 7
#     Edge 8, Type (0, 0), BuildingBlock: OJICUG_clean_linker_0, # of connection points: 2
#     Edge 9, Type (0, 0), BuildingBlock: OJICUG_clean_linker_0, # of connection points: 2
#     Edge 10, Type (0, 0), BuildingBlock: OJICUG_clean_linker_0, # of connection points: 2
#     Edge 11, Type (0, 0), BuildingBlock: OJICUG_clean_linker_0, # of connection points: 2
#     Edge 12, Type (0, 0), BuildingBlock: OJICUG_clean_linker_0, # of connection points: 2
#     Edge 13, Type (0, 0), BuildingBlock: OJICUG_clean_linker_0, # of connection points: 2
#     Edge 14, Type (0, 0), BuildingBlock: OJICUG_clean_linker_0, # of connection points: 2
#     Edge 15, Type (0, 0), BuildingBlock: OJICUG_clean_linker_0, # of connection points: 2
#     Edge 16, Type (0, 0), BuildingBlock: OJICUG_clean_linker_0, # of connection points: 2
#     Edge 17, Type (0, 0), BuildingBlock: OJICUG_clean_linker_0, # of connection points: 2
#     Edge 18, Type (0, 0), BuildingBlock: OJICUG_clean_linker_0, # of connection points: 2
#     Edge 19, Type (0, 0), BuildingBlock: OJICUG_clean_linker_0, # of connection points: 2
#     Edge 20, Type (0, 0), BuildingBlock: OJICUG_clean_linker_0, # of connection points: 2
#     Edge 21, Type (0, 0), BuildingBlock: OJICUG_clean_linker_0, # of connection points: 2
#     Edge 22, Type (0, 0), BuildingBlock: OJICUG_clean_linker_0, # of connection points: 2
#     Edge 23, Type (0, 0), BuildingBlock: OJICUG_clean_linker_0, # of connection points: 2
#     Edge 24, Type (0, 0), BuildingBlock: OJICUG_clean_linker_0, # of connection points: 2
#     Edge 25, Type (0, 0), BuildingBlock: OJICUG_clean_linker_0, # of connection points: 2
#     Edge 26, Type (0, 0), BuildingBlock: OJICUG_clean_linker_0, # of connection points: 2
#     Edge 27, Type (0, 0), BuildingBlock: OJICUG_clean_linker_0, # of connection points: 2
#     Edge 28, Type (0, 0), BuildingBlock: OJICUG_clean_linker_0, # of connection points: 2
#     Edge 29, Type (0, 0), BuildingBlock: OJICUG_clean_linker_0, # of connection points: 2
#     Edge 30, Type (0, 0), BuildingBlock: OJICUG_clean_linker_0, # of connection points: 2
#     Edge 31, Type (0, 0), BuildingBlock: OJICUG_clean_linker_0, # of connection points: 2
#     Edge 32, Type (0, 0), BuildingBlock: OJICUG_clean_linker_0, # of connection points: 2
#     Edge 33, Type (0, 0), BuildingBlock: OJICUG_clean_linker_0, # of connection points: 2
#     Edge 34, Type (0, 0), BuildingBlock: OJICUG_clean_linker_0, # of connection points: 2
#     Edge 35, Type (0, 0), BuildingBlock: OJICUG_clean_linker_0, # of connection points: 2
# Relax obj value: 0.171
# Max RMSD: 0.214
# Mean RMSD: 0.214
data_MOF--net-vmp--node1-HICVOG_clean_sbu_0--edge1-OJICUG_clean_linker_0
_symmetry_space_group_name_H-M    P1
_symmetry_Int_Tables_number       1
_symmetry_cell_setting            triclinic
loop_
_symmetry_equiv_pos_as_xyz
'x, y, z'
_cell_length_a     14.059083
_cell_length_b     63.133978
_cell_length_c     19.940961
_cell_angle_alpha  88.744015
_cell_angle_beta   112.65481
_cell_angle_gamma 89.812452
loop_
_atom_site_label
_atom_site_type_symbol
_atom_site_fract_x
_atom_site_fract_y
_atom_site_fract_z
_atom_type_partial_charge
Zn0 Zn 0.30789 0.15519 0.33537 0.0
C1 C 0.40971 0.12432 0.20067 0.0
N2 N 0.31553 0.12857 0.15064 0.0
C3 C 0.26686 0.13709 0.1899 0.0
N4 N 0.32796 0.13812 0.26116 0.0
N5 N 0.41682 0.12933 0.26786 0.0
C6 C 0.72252 0.13772 0.35882 0.0
O7 O 0.69476 0.15398 0.38744 0.0
O8 O 0.16028 0.15565 0.32757 0.0
Zn9 Zn 0.53038 0.12005 0.35609 0.0
N10 N 0.35537 0.18394 0.3268 0.0
C11 C 0.4901 0.2036 0.31166 0.0
C12 C 0.44679 0.18433 0.31856 0.0
C13 C 0.30587 0.20235 0.33003 0.0
N14 N 0.44121 0.22188 0.31461 0.0
C15 C 0.35029 0.22209 0.3241 0.0
O16 O 0.54689 0.136 0.44745 0.0
C17 C 0.48345 0.14094 0.47628 0.0
O18 O 0.38897 0.14504 0.43844 0.0
H19 H 0.48594 0.16966 0.31777 0.0
H20 H 0.23302 0.20152 0.33643 0.0
C21 C 0.50738 0.07411 0.33089 0.0
C22 C 0.49962 0.05283 0.35231 0.0
C23 C 0.50177 0.06493 0.46491 0.0
C24 C 0.50935 0.08575 0.44358 0.0
N25 N 0.51211 0.09009 0.37725 0.0
N26 N 0.4972 0.04909 0.41913 0.0
H27 H 0.51173 0.07796 0.27904 0.0
C28 C 0.10814 0.13877 0.3184 0.0
O29 O 0.14948 0.12084 0.30998 0.0
O30 O 0.66456 0.12165 0.34154 0.0
H31 H 0.51441 0.09828 0.48052 0.0
H32 H 0.5626 0.20405 0.30458 0.0
H33 H 0.49987 0.06134 0.51768 0.0
Zn34 Zn 0.79018 0.16408 0.9191 0.0
C35 C 0.70187 0.14228 0.07441 0.0
N36 N 0.79478 0.14986 0.11579 0.0
C37 C 0.83677 0.154 0.06719 0.0
N38 N 0.77254 0.1494 0.99948 0.0
N39 N 0.68768 0.14148 1.00329 0.0
C40 C 0.40622 0.14323 0.94038 0.0
O41 O 0.46325 0.16025 0.95766 0.0
O42 O 0.9416 0.16314 0.93093 0.0
Zn43 Zn 0.59083 0.12397 0.92763 0.0
N44 N 0.74554 0.19346 0.92054 0.0
C45 C 0.64836 0.21711 0.96175 0.0
C46 C 0.68283 0.19675 0.95708 0.0
C47 C 0.77337 0.20994 0.88674 0.0
N48 N 0.67645 0.23349 0.92869 0.0
C49 C 0.73759 0.23066 0.89066 0.0
O50 O 0.58035 0.13117 0.82412 0.0
C51 C 0.62695 0.1413 0.78993 0.0
O52 O 0.70454 0.15278 0.82222 0.0
H53 H 0.6593 0.18368 0.98259 0.0
H54 H 0.82336 0.20692 0.85809 0.0
C55 C 0.59786 0.0778 0.90729 0.0
C56 C 0.64171 0.05718 0.92651 0.0
C57 C 0.77282 0.07117 1.03086 0.0
C58 C 0.73083 0.09139 1.01085 0.0
N59 N 0.64343 0.09446 0.95016 0.0
N60 N 0.7278 0.05468 0.98841 0.0
H61 H 0.52872 0.08067 0.85928 0.0
C62 C 0.97798 0.14722 0.91001 0.0
O63 O 0.91646 0.13144 0.88045 0.0
O64 O 0.44434 0.12634 0.92637 0.0
H65 H 0.76824 0.10448 0.04421 0.0
H66 H 0.59908 0.21989 0.99113 0.0
H67 H 0.84162 0.06861 0.07944 0.0
Zn68 Zn 0.73823 0.88264 0.76499 0.0
C69 C 0.63926 0.91202 0.90258 0.0
N70 N 0.73376 0.90777 0.95239 0.0
C71 C 0.78277 0.89971 0.91259 0.0
N72 N 0.72141 0.89901 0.84126 0.0
N73 N 0.63231 0.90755 0.83502 0.0
C74 C 0.32315 0.89767 0.7418 0.0
O75 O 0.34658 0.88206 0.70823 0.0
O76 O 0.88568 0.88065 0.77407 0.0
Zn77 Zn 0.51621 0.91567 0.74615 0.0
N78 N 0.68097 0.85456 0.76757 0.0
C79 C 0.53414 0.83628 0.76901 0.0
C80 C 0.58477 0.85508 0.76809 0.0
C81 C 0.72929 0.83572 0.76782 0.0
N82 N 0.58153 0.81756 0.76893 0.0
C83 C 0.67792 0.81643 0.76816 0.0
O84 O 0.50198 0.89909 0.65631 0.0
C85 C 0.5667 0.89691 0.6264 0.0
O86 O 0.66282 0.89495 0.66386 0.0
H87 H 0.54768 0.8701 0.76762 0.0
H88 H 0.80645 0.83598 0.7685 0.0
C89 C 0.53947 0.9616 0.76942 0.0
C90 C 0.5393 0.98296 0.74581 0.0
C91 C 0.51204 0.971 0.62766 0.0
C92 C 0.5117 0.95012 0.65108 0.0
N93 N 0.52609 0.94567 0.72139 0.0
N94 N 0.52564 0.98679 0.6752 0.0
H95 H 0.54744 0.9576 0.82433 0.0
C96 C 0.94002 0.89724 0.78472 0.0
O97 O 0.90072 0.91531 0.79408 0.0
O98 O 0.38354 0.91329 0.76196 0.0
H99 H 0.49797 0.93763 0.61266 0.0
H100 H 0.45749 0.83654 0.76955 0.0
H101 H 0.50066 0.97468 0.57182 0.0
Zn102 Zn 0.45893 0.91156 0.17393 0.0
C103 C 0.21238 0.88096 1.03608 0.0
N104 N 0.25415 0.88498 0.98717 0.0
C105 C 0.3469 0.89276 1.02799 0.0
N106 N 0.36126 0.89381 0.09906 0.0
N107 N 0.27719 0.8857 0.10363 0.0
C108 C 0.07208 0.88743 0.19257 0.0
O109 O 0.1328 0.90342 0.22089 0.0
O110 O 0.606 0.90865 0.17587 0.0
Zn111 Zn 0.26149 0.87189 0.18632 0.0
N112 N 0.40746 0.94118 0.1504 0.0
C113 C 0.28014 0.96459 0.06833 0.0
C114 C 0.32077 0.9443 0.0892 0.0
C115 C 0.45305 0.95786 0.19322 0.0
N116 N 0.32538 0.98111 0.11061 0.0
C117 C 0.41039 0.97855 0.17318 0.0
O118 O 0.34134 0.88509 0.28106 0.0
C119 C 0.42005 0.89636 0.31249 0.0
O120 O 0.46911 0.90535 0.27781 0.0
H121 H 0.28317 0.93118 0.05603 0.0
H122 H 0.52126 0.95498 0.24191 0.0
C123 C 0.28045 0.82493 0.2072 0.0
C124 C 0.33639 0.80567 0.2148 0.0
C125 C 0.46962 0.82483 0.19589 0.0
C126 C 0.41517 0.84366 0.18974 0.0
N127 N 0.32152 0.84346 0.19469 0.0
N128 N 0.42928 0.80641 0.2083 0.0
H129 H 0.20571 0.8253 0.21082 0.0
C130 C 0.64268 0.89203 0.15886 0.0
O131 O 0.58361 0.87544 0.13711 0.0
O132 O 0.10949 0.87138 0.17302 0.0
H133 H 0.44764 0.85849 0.18169 0.0
H134 H 0.21213 0.9672 1.01923 0.0
H135 H 0.54403 0.82485 0.1916 0.0
Zn136 Zn 0.78753 0.66604 0.74885 0.0
C137 C 0.87677 0.65217 0.58666 0.0
N138 N 0.78543 0.66135 0.5472 0.0
C139 C 0.74141 0.66329 0.59541 0.0
N140 N 0.80412 0.6561 0.66212 0.0
N141 N 0.88882 0.64844 0.65688 0.0
C142 C 0.16936 0.64774 0.72397 0.0
O143 O 0.11225 0.66507 0.7078 0.0
O144 O 0.63578 0.66695 0.73641 0.0
Zn145 Zn 0.9806 0.62723 0.72622 0.0
N146 N 0.84803 0.6942 0.76458 0.0
C147 C 1.00576 0.71237 0.79047 0.0
C148 C 0.95091 0.69362 0.78002 0.0
C149 C 0.79718 0.71302 0.75968 0.0
N150 N 0.95568 0.73109 0.78549 0.0
C151 C 0.85275 0.73219 0.77067 0.0
O152 O 0.98951 0.62891 0.83105 0.0
C153 C 0.94328 0.63671 0.86892 0.0
O154 O 0.86691 0.64941 0.84143 0.0
H155 H 0.98979 0.67857 0.78365 0.0
H156 H 0.71494 0.71299 0.74619 0.0
C157 C 0.97058 0.57995 0.71783 0.0
C158 C 0.92731 0.56098 0.6827 0.0
C159 C 0.79502 0.58113 0.59237 0.0
C160 C 0.83628 0.59965 0.62773 0.0
N161 N 0.92481 0.59901 0.68864 0.0
N162 N 0.84119 0.56234 0.62051 0.0
H163 H 0.03977 0.57957 0.76695 0.0
C164 C 0.59827 0.65083 0.75671 0.0
O165 O 0.65841 0.63427 0.78477 0.0
O166 O 0.13 0.63034 0.73371 0.0
H167 H 0.79788 0.61446 0.60539 0.0
H168 H 0.08762 0.71208 0.8024 0.0
H169 H 0.72599 0.58164 0.54315 0.0
Zn170 Zn 0.27108 0.65664 0.30971 0.0
C171 C 0.1697 0.6364 0.46187 0.0
N172 N 0.26026 0.64312 0.509 0.0
C173 C 0.31039 0.64805 0.46571 0.0
N174 N 0.25286 0.64466 0.3948 0.0
N175 N 0.16433 0.637 0.39303 0.0
C176 C 0.87053 0.63398 0.30534 0.0
O177 O 0.89656 0.64913 0.26973 0.0
O178 O 0.42131 0.65614 0.31835 0.0
Zn179 Zn 0.07368 0.61748 0.3236 0.0
N180 N 0.2128 0.68536 0.29807 0.0
C181 C 0.06342 0.70433 0.29294 0.0
C182 C 0.11736 0.68539 0.30023 0.0
C183 C 0.25616 0.70379 0.28723 0.0
N184 N 0.10608 0.72264 0.28229 0.0
C185 C 0.20077 0.72317 0.27859 0.0
O186 O 0.05541 0.62324 0.21831 0.0
C187 C 0.10501 0.63178 0.18321 0.0
O188 O 0.18557 0.64271 0.21437 0.0
H189 H 0.08304 0.67067 0.30728 0.0
H190 H 0.33233 0.70329 0.28595 0.0
C191 C 0.08615 0.57051 0.33196 0.0
C192 C 0.13922 0.55091 0.35676 0.0
C193 C 0.29072 0.56978 0.42425 0.0
C194 C 0.23887 0.58889 0.39866 0.0
N195 N 0.13743 0.58909 0.35365 0.0
N196 N 0.24012 0.55139 0.40269 0.0
H197 H 1.00551 0.57111 0.29644 0.0
C198 C 0.48002 0.63989 0.34162 0.0
O199 O 0.44516 0.6232 0.36501 0.0
O200 O 0.93265 0.6184 0.33184 0.0
H201 H 0.28016 0.60345 0.41493 0.0
H202 H 0.98771 0.70448 0.29511 0.0
H203 H 0.37113 0.56954 0.46049 0.0
Zn204 Zn 1.00493 0.40097 0.29905 0.0
C205 C 0.27874 0.39774 0.46919 0.0
N206 N 0.2284 0.40877 0.50219 0.0
C207 C 0.1317 0.40931 0.4529 0.0
N208 N 0.12428 0.39971 0.39109 0.0
N209 N 0.21623 0.39165 0.40217 0.0
C210 C 0.43684 0.38535 0.34741 0.0
O211 O 0.39068 0.40392 0.33912 0.0
O212 O 0.87665 0.3975 0.31888 0.0
Zn213 Zn 0.23915 0.37143 0.33698 0.0
N214 N 0.9896 0.4292 0.25279 0.0
C215 C 0.91852 0.44803 0.1393 0.0
C216 C 0.93949 0.42909 0.17933 0.0
C217 C 0.01824 0.44784 0.28834 0.0
N218 N 0.94723 0.46652 0.17426 0.0
C219 C 0.99647 0.46727 0.24784 0.0
O220 O 0.16817 0.38036 0.23186 0.0
C221 C 0.07265 0.38005 0.19208 0.0
O222 O 1.0051 0.38042 0.22025 0.0
H223 H 0.91413 0.41436 0.1519 0.0
H224 H 0.05483 0.44745 0.34697 0.0
C225 C 0.23119 0.32487 0.34317 0.0
C226 C 0.18714 0.30536 0.35212 0.0
C227 C 0.05885 0.32463 0.37671 0.0
C228 C 0.10202 0.34367 0.36708 0.0
N229 N 0.18729 0.34354 0.35082 0.0
N230 N 0.10207 0.30607 0.36902 0.0
H231 H 0.29967 0.32537 0.33097 0.0
C232 C 0.82625 0.38063 0.31514 0.0
O233 O 0.85781 0.36297 0.2963 0.0
O234 O 0.38783 0.36879 0.35088 0.0
H235 H 0.06753 0.35852 0.37212 0.0
H236 H 0.87883 0.44809 0.0808 0.0
H237 H 0.99103 0.32457 0.38986 0.0
Zn238 Zn 0.76054 0.37223 0.73535 0.0
C239 C 0.8515 0.40366 0.59515 0.0
N240 N 0.7546 0.39952 0.5502 0.0
C241 C 0.7138 0.39151 0.59548 0.0
N242 N 0.78131 0.39088 0.66477 0.0
N243 N 0.86872 0.39872 0.6654 0.0
C244 C 0.15027 0.39306 0.71864 0.0
O245 O 0.0939 0.37593 0.70162 0.0
O246 O 0.61031 0.37379 0.72337 0.0
Zn247 Zn 0.97912 0.40856 0.75284 0.0
N248 N 0.79288 0.34346 0.716 0.0
C249 C 0.86192 0.32045 0.65265 0.0
C250 C 0.83532 0.34073 0.66592 0.0
C251 C 0.77654 0.32658 0.75385 0.0
N252 N 0.84622 0.30365 0.69056 0.0
C253 C 0.80469 0.30593 0.74148 0.0
O254 O 0.99881 0.39244 0.84886 0.0
C255 C 0.94122 0.38356 0.87743 0.0
O256 O 0.85024 0.37767 0.83921 0.0
H257 H 0.84913 0.35416 0.63662 0.0
H258 H 0.74142 0.32941 0.79247 0.0
C259 C 0.97571 0.45598 0.75498 0.0
C260 C 0.94551 0.47506 0.7777 0.0
C261 C 0.84601 0.45527 0.82925 0.0
C262 C 0.87472 0.4366 0.80608 0.0
N263 N 0.94043 0.43711 0.77083 0.0
N264 N 0.88196 0.47394 0.81467 0.0
H265 H 0.02724 0.45611 0.7263 0.0
C266 C 0.57169 0.39074 0.73619 0.0
O267 O 0.63091 0.40732 0.75823 0.0
O268 O 0.11612 0.40908 0.74052 0.0
H269 H 0.84554 0.42169 0.81693 0.0
H270 H 0.8955 0.31806 0.61281 0.0
H271 H 0.79494 0.45495 0.85827 0.0
C272 C 0.48561 0.13681 0.66713 0.0
C273 C 0.58993 0.14026 0.70983 0.0
H274 H 0.36964 0.13479 0.55952 0.0
C275 C 0.65891 0.14375 0.67513 0.0
H276 H 0.43066 0.13419 0.69235 0.0
C277 C 0.62446 0.14382 0.5994 0.0
C278 C 0.5198 0.14087 0.55654 0.0
H279 H 0.73992 0.14639 0.70663 0.0
H280 H 0.6796 0.14651 0.57439 0.0
C281 C 0.45066 0.13734 0.59115 0.0
C282 C 0.38943 0.89404 0.42787 0.0
C283 C 0.45726 0.89794 0.39251 0.0
H284 H 0.37049 0.89077 0.52902 0.0
C285 C 0.56121 0.902 0.43467 0.0
H286 H 0.30872 0.89094 0.39693 0.0
C287 C 0.59705 0.90153 0.5107 0.0
C288 C 0.52926 0.89738 0.54598 0.0
H289 H 0.61541 0.90494 0.40903 0.0
H290 H 0.67785 0.90447 0.54181 0.0
C291 C 0.4248 0.89393 0.50363 0.0
C292 C 0.9176 0.63201 0.98612 0.0
C293 C 0.98441 0.63262 0.94871 0.0
H294 H 0.90336 0.63064 0.08949 0.0
C295 C 0.09128 0.63135 0.98907 0.0
H296 H 0.83489 0.633 0.95645 0.0
C297 C 0.13054 0.63062 0.0653 0.0
C298 C 0.06373 0.63047 0.10274 0.0
H299 H 0.14467 0.63198 0.96182 0.0
H300 H 0.2133 0.63049 0.09504 0.0
C301 C 0.95679 0.63061 0.06225 0.0
C302 C 0.08006 0.38525 1.00349 0.0
C303 C 0.97711 0.38144 0.95804 0.0
H304 H 0.19106 0.38757 0.11257 0.0
C305 C 0.90664 0.37645 0.99054 0.0
H306 H 0.13643 0.38914 0.98055 0.0
C307 C 0.93763 0.37576 0.06624 0.0
C308 C 0.04024 0.37979 0.11166 0.0
H309 H 0.8265 0.3735 0.95747 0.0
H310 H 0.88083 0.37222 0.08913 0.0
C311 C 0.11135 0.3843 0.07931 0.0
C312 C 0.42744 0.018 0.18648 0.0
C313 C 0.44966 0.99752 0.21883 0.0
H314 H 0.42485 0.05141 0.20179 0.0
C315 C 0.49811 0.99574 0.29489 0.0
H316 H 0.39042 0.02006 0.12799 0.0
C317 C 0.51864 1.01384 0.33735 0.0
C318 C 0.4915 0.03426 0.30521 0.0
H319 H 0.5153 0.98038 0.32229 0.0
H320 H 0.55286 1.01171 0.39591 0.0
C321 C 0.44807 0.03612 0.22896 0.0
C322 C 0.60565 0.99964 0.86994 0.0
C323 C 0.55425 1.00152 0.79404 0.0
H324 H 0.67122 1.01558 0.9707 0.0
C325 C 0.52321 0.02194 0.76282 0.0
H326 H 0.63226 0.9844 0.89654 0.0
C327 C 0.54676 0.04 0.80551 0.0
C328 C 0.60196 0.03819 0.88101 0.0
H329 H 0.48285 0.02413 0.70462 0.0
H330 H 0.52567 0.05534 0.77843 0.0
C331 C 0.62894 0.0177 0.91267 0.0
C332 C 0.98498 0.53423 0.78584 0.0
C333 C 0.96493 0.53942 0.71284 0.0
H334 H 0.99539 0.50948 0.86373 0.0
C335 C 0.95888 0.52291 0.66498 0.0
H336 H 0.98871 0.54652 0.8238 0.0
C337 C 0.9637 0.50164 0.68795 0.0
C338 C 0.97293 0.49649 0.75903 0.0
H339 H 0.94318 0.52645 0.60826 0.0
H340 H 0.95075 0.48939 0.64831 0.0
C341 C 0.98809 0.51298 0.80851 0.0
C342 C 0.13858 0.51137 0.37459 0.0
C343 C 0.09235 0.52974 0.33302 0.0
H344 H 0.14697 0.47754 0.38153 0.0
C345 C 1.00904 0.5272 0.26642 0.0
H346 H 0.20276 0.51259 0.4264 0.0
C347 C 0.97603 0.50693 0.24097 0.0
C348 C 0.02527 0.48854 0.281 0.0
H349 H 0.9719 0.54073 0.23196 0.0
H350 H 0.91319 0.50573 0.18849 0.0
C351 C 0.10578 0.49109 0.34903 0.0
C352 C 1.01357 0.16652 0.14131 0.0
C353 C 0.94812 0.15286 0.08956 0.0
H354 H 0.17005 0.1728 0.21204 0.0
C355 C 0.98877 0.13496 0.06957 0.0
H356 H 0.98257 0.1802 0.15825 0.0
C357 C 0.09307 0.13035 0.102 0.0
C358 C 0.15852 0.14343 0.1557 0.0
H359 H 0.93898 0.12385 1.03147 0.0
H360 H 0.12189 0.11604 0.08689 0.0
C361 C 0.11948 0.16206 0.17313 0.0
C362 C 0.06146 0.90061 1.03392 0.0
C363 C 0.10073 0.88254 1.01365 0.0
H364 H 0.92992 0.92011 1.01661 0.0
C365 C 0.03388 0.86924 0.96112 0.0
H366 H 0.11217 0.91149 0.0725 0.0
C367 C 0.92836 0.8742 0.92897 0.0
C368 C 0.8909 0.89298 0.94671 0.0
H369 H 0.06357 0.85545 0.94381 0.0
H370 H 0.87681 0.86368 0.88959 0.0
C371 C 0.95753 0.90571 1.00113 0.0
C372 C 0.58586 0.64551 0.59308 0.0
C373 C 0.62897 0.66259 0.56949 0.0
H374 H 0.4514 0.62763 0.57759 0.0
C375 C 0.56642 0.67508 0.50912 0.0
H376 H 0.63344 0.63479 0.63622 0.0
C377 C 0.46146 0.67056 0.47355 0.0
C378 C 0.41971 0.65327 0.49749 0.0
H379 H 0.59943 0.68785 0.48831 0.0
H380 H 0.41356 0.6804 0.42778 0.0
C381 C 0.48223 0.64108 0.55816 0.0
C382 C 0.44794 0.4118 0.5406 0.0
C383 C 0.38987 0.39456 0.50412 0.0
H384 H 0.59774 0.42378 0.60012 0.0
C385 C 0.43827 0.37495 0.50648 0.0
H386 H 0.41161 0.42696 0.54076 0.0
C387 C 0.54579 0.37322 0.54015 0.0
C388 C 0.60317 0.39087 0.57389 0.0
H389 H 0.3935 0.36127 0.48138 0.0
H390 H 0.58406 0.35846 0.53823 0.0
C391 C 0.55379 0.40997 0.5751 0.0
C392 C 0.6249 0.14849 0.16347 0.0
C393 C 0.62898 0.13601 0.10739 0.0
H394 H 0.55154 0.15436 0.23666 0.0
C395 C 0.5685 0.1178 0.08814 0.0
H396 H 0.67079 0.16266 0.17946 0.0
C397 C 0.50168 0.11268 0.12295 0.0
C398 C 0.49695 0.1255 0.17826 0.0
H399 H 0.57158 0.1077 0.04612 0.0
H400 H 0.45119 0.09924 0.10502 0.0
C401 C 0.55852 0.14348 0.19761 0.0
C402 C 0.5467 0.92295 0.98052 0.0
C403 C 0.55192 0.91043 0.92478 0.0
H404 H 0.47724 0.92734 0.05755 0.0
C405 C 0.49043 0.89244 0.90436 0.0
H406 H 0.59714 0.93636 0.99931 0.0
C407 C 0.42331 0.8872 0.93782 0.0
C408 C 0.41894 0.89938 0.99449 0.0
H409 H 0.49787 0.88177 0.86487 0.0
H410 H 0.37742 0.87307 0.92104 0.0
C411 C 0.47969 0.91754 1.0148 0.0
C412 C 1.01174 0.65364 0.45703 0.0
C413 C 0.08056 0.6365 0.48172 0.0
H414 H 0.89501 0.67207 0.47233 0.0
C415 C 0.07946 0.62351 0.5392 0.0
H416 H 1.01424 0.66432 0.41445 0.0
C417 C 1.01108 0.62796 0.57268 0.0
C418 C 0.94667 0.64593 0.55117 0.0
H419 H 0.13423 0.61051 0.56003 0.0
H420 H 1.01083 0.61761 0.61593 0.0
C421 C 0.94504 0.65825 0.49119 0.0
C422 C 0.04273 0.42667 0.52409 0.0
C423 C 0.04858 0.41008 0.47971 0.0
H424 H 0.97526 0.43769 0.59778 0.0
C425 C 0.99659 0.39124 0.47958 0.0
H426 H 0.08671 0.44096 0.52769 0.0
C427 C 0.93749 0.3891 0.52109 0.0
C428 C 0.93018 0.40565 0.56462 0.0
H429 H 1.00545 0.37771 0.45 0.0
H430 H 0.89654 0.37444 0.51885 0.0
C431 C 0.98221 0.4246 0.5657 0.0
C432 C 0.32956 0.26137 0.2976 0.0
C433 C 0.30375 0.24312 0.32872 0.0
H434 H 0.31322 0.29487 0.27865 0.0
C435 C 0.2392 0.24564 0.36716 0.0
H436 H 0.37851 0.26015 0.26711 0.0
C437 C 0.20244 0.26578 0.3746 0.0
C438 C 0.22913 0.28409 0.34412 0.0
H439 H 0.21893 0.23219 0.39334 0.0
H440 H 0.15388 0.26698 0.40538 0.0
C441 C 0.29264 0.2815 0.30487 0.0
C442 C 0.77501 0.24811 0.78825 0.0
C443 C 0.76228 0.24953 0.85451 0.0
H444 H 0.79649 0.26468 0.70058 0.0
C445 C 0.76584 0.26965 0.88435 0.0
H446 H 0.77089 0.23298 0.76284 0.0
C447 C 0.78041 0.28791 0.84867 0.0
C448 C 0.79046 0.28664 0.78133 0.0
H449 H 0.75725 0.27132 0.93569 0.0
H450 H 0.78457 0.30291 0.87472 0.0
C451 C 0.78889 0.26641 0.7522 0.0
C452 C 0.80896 0.79193 0.7487 0.0
C453 C 0.72363 0.79492 0.76803 0.0
H454 H 0.91497 0.76999 0.73369 0.0
C455 C 0.67888 0.77678 0.78596 0.0
H456 H 0.84488 0.80514 0.73271 0.0
C457 C 0.71855 0.75642 0.78542 0.0
C458 C 0.80448 0.75352 0.76698 0.0
H459 H 0.61333 0.77823 0.80142 0.0
H460 H 0.68326 0.74307 0.80141 0.0
C461 C 0.84895 0.77157 0.74862 0.0
C462 C 0.33936 0.76585 0.2135 0.0
C463 C 0.29975 0.78464 0.2305 0.0
H464 H 0.33992 0.73195 0.21418 0.0
C465 C 0.23019 0.78285 0.2654 0.0
H466 H 0.393 0.7665 0.18648 0.0
C467 C 0.20044 0.76291 0.28194 0.0
C468 C 0.23957 0.74412 0.26456 0.0
H469 H 0.19981 0.79676 0.28138 0.0
H470 H 0.14667 0.76225 0.30886 0.0
C471 C 0.30965 0.74589 0.23011 0.0
C472 C 0.85103 0.12059 0.3174 0.0
C473 C 0.8181 0.13839 0.34424 0.0
H474 H 0.96824 0.10677 0.28783 0.0
C475 C 0.87783 0.1568 0.3575 0.0
H476 H 0.80607 0.10625 0.30565 0.0
C477 C 0.97027 0.15716 0.34662 0.0
C478 C 1.00541 0.13906 0.32278 0.0
H479 H 0.85398 0.17088 0.37725 0.0
H480 H 1.01552 0.17146 0.35883 0.0
C481 C 0.9439 0.1209 0.30705 0.0
C482 C 0.25866 0.16194 0.95722 0.0
C483 C 0.29793 0.14391 0.93574 0.0
H484 H 0.12765 0.17714 0.96649 0.0
C485 C 0.23185 0.12676 0.90815 0.0
H486 H 0.30752 0.17537 0.97932 0.0
C487 C 0.12856 0.12784 0.9004 0.0
C488 C 0.08863 0.14604 0.92039 0.0
H489 H 0.25939 0.11259 0.89138 0.0
H490 H 0.0798 0.1144 0.87813 0.0
C491 C 0.15539 0.16297 0.94984 0.0
C492 C 0.16577 0.87901 0.74091 0.0
C493 C 0.22867 0.89696 0.75759 0.0
H494 H 0.02582 0.86489 0.73738 0.0
C495 C 0.19975 0.91435 0.78874 0.0
H496 H 0.18658 0.86524 0.71781 0.0
C497 C 0.10742 0.91418 0.79971 0.0
C498 C 0.04256 0.89655 0.78035 0.0
H499 H 0.24732 0.9283 0.80325 0.0
H500 H 0.08602 0.92802 0.82214 0.0
C501 C 0.07386 0.87877 0.75247 0.0
C502 C 0.79018 0.8732 0.14233 0.0
C503 C 0.75142 0.89116 0.16463 0.0
H504 H 0.92115 0.85789 0.13327 0.0
C505 C 0.81838 0.90804 0.19401 0.0
H506 H 0.74065 0.85996 0.11889 0.0
C507 C 0.92188 0.9068 0.2025 0.0
C508 C 0.96128 0.88867 0.18166 0.0
H509 H 0.79129 0.92215 0.21144 0.0
H510 H 0.97124 0.92006 0.22604 0.0
C511 C 0.8938 0.87198 0.15063 0.0
C512 C 0.31883 0.66708 0.71212 0.0
C513 C 0.27827 0.64845 0.73031 0.0
H514 H 0.45109 0.68248 0.70564 0.0
C515 C 0.34327 0.63059 0.75542 0.0
H516 H 0.27077 0.6811 0.69205 0.0
C517 C 0.44662 0.63144 0.7636 0.0
C518 C 0.48774 0.65012 0.74647 0.0
H519 H 0.31471 0.61596 0.76964 0.0
H520 H 0.49441 0.61738 0.7837 0.0
C521 C 0.42227 0.66788 0.71988 0.0
C522 C 0.65015 0.62158 0.36605 0.0
C523 C 0.58327 0.63907 0.33699 0.0
H524 H 0.79291 0.60622 0.37921 0.0
C525 C 0.61391 0.65519 0.30014 0.0
H526 H 0.62963 0.60894 0.39539 0.0
C527 C 0.70718 0.65354 0.29041 0.0
C528 C 0.77266 0.63576 0.31752 0.0
H529 H 0.56476 0.66893 0.27729 0.0
H530 H 0.72734 0.66617 0.26085 0.0
C531 C 0.74377 0.61997 0.35659 0.0
C532 C 0.6011 0.40184 0.35375 0.0
C533 C 0.5414 0.38365 0.3471 0.0
H534 H 0.73844 0.41509 0.3498 0.0
C535 C 0.57989 0.36407 0.33557 0.0
H536 H 0.57418 0.41709 0.36371 0.0
C537 C 0.67378 0.36293 0.32686 0.0
C538 C 0.73123 0.38131 0.33017 0.0
H539 H 0.53579 0.34974 0.33063 0.0
H540 H 0.70005 0.34774 0.31587 0.0
C541 C 0.69524 0.40067 0.34571 0.0
C542 C 0.39633 0.3745 0.7002 0.0
C543 C 0.46171 0.39181 0.7269 0.0
H544 H 0.24676 0.36137 0.67602 0.0
C545 C 0.42142 0.41008 0.74604 0.0
H546 H 0.42433 0.36029 0.68395 0.0
C547 C 0.31951 0.41072 0.74138 0.0
C548 C 0.25531 0.39311 0.71742 0.0
H549 H 0.46921 0.42379 0.76608 0.0
H550 H 0.29184 0.42488 0.75814 0.0
C551 C 0.29433 0.37515 0.69549 0.0
loop_
_geom_bond_atom_site_label_1
_geom_bond_atom_site_label_2
_geom_bond_distance
_geom_bond_site_symmetry_2
_ccdc_geom_bond_type
Zn0 N4 2.020 . S
Zn0 O8 2.019 . S
Zn0 N10 2.119 . S
Zn0 O18 1.975 . S
C1 N2 1.334 . S
C1 N5 1.336 . S
N2 C1 1.334 . S
N2 C3 1.334 . S
C3 N2 1.334 . S
C3 N4 1.336 . S
N4 Zn0 2.020 . S
N4 C3 1.336 . S
N4 N5 1.354 . S
N5 C1 1.336 . S
N5 N4 1.354 . S
N5 Zn9 2.020 . S
C6 O7 1.244 . S
C6 O30 1.257 . S
O7 C6 1.244 . S
O8 Zn0 2.019 . S
O8 C28 1.257 . S
Zn9 N5 2.020 . S
Zn9 O16 1.975 . S
Zn9 N25 2.119 . S
Zn9 O30 2.019 . S
N10 Zn0 2.119 . S
N10 C12 1.334 . S
N10 C13 1.328 . S
C11 C12 1.391 . S
C11 N14 1.329 . S
C11 H32 0.930 . S
C12 N10 1.334 . S
C12 C11 1.391 . S
C12 H19 0.930 . S
C13 N10 1.328 . S
C13 C15 1.392 . S
C13 H20 0.930 . S
N14 C11 1.329 . S
N14 C15 1.331 . S
C15 C13 1.392 . S
C15 N14 1.331 . S
O16 Zn9 1.975 . S
O16 C17 1.252 . S
C17 O16 1.252 . S
C17 O18 1.252 . S
O18 Zn0 1.975 . S
O18 C17 1.252 . S
H19 C12 0.930 . S
H20 C13 0.930 . S
C21 C22 1.392 . S
C21 N25 1.328 . S
C21 H27 0.930 . S
C22 C21 1.392 . S
C22 N26 1.331 . S
C23 C24 1.391 . S
C23 N26 1.329 . S
C23 H33 0.930 . S
C24 C23 1.391 . S
C24 N25 1.334 . S
C24 H31 0.930 . S
N25 Zn9 2.119 . S
N25 C21 1.328 . S
N25 C24 1.334 . S
N26 C22 1.331 . S
N26 C23 1.329 . S
H27 C21 0.930 . S
C28 O8 1.257 . S
C28 O29 1.244 . S
O29 C28 1.244 . S
O30 C6 1.257 . S
O30 Zn9 2.019 . S
H31 C24 0.930 . S
H32 C11 0.930 . S
H33 C23 0.930 . S
Zn34 N38 2.020 . S
Zn34 O42 2.019 . S
Zn34 N44 2.119 . S
Zn34 O52 1.975 . S
C35 N36 1.334 . S
C35 N39 1.336 . S
N36 C35 1.334 . S
N36 C37 1.334 . S
C37 N36 1.334 . S
C37 N38 1.336 . S
N38 Zn34 2.020 . S
N38 C37 1.336 . S
N38 N39 1.354 . S
N39 C35 1.336 . S
N39 N38 1.354 . S
N39 Zn43 2.020 . S
C40 O41 1.244 . S
C40 O64 1.257 . S
O41 C40 1.244 . S
O42 Zn34 2.019 . S
O42 C62 1.257 . S
Zn43 N39 2.020 . S
Zn43 O50 1.975 . S
Zn43 N59 2.119 . S
Zn43 O64 2.019 . S
N44 Zn34 2.119 . S
N44 C46 1.334 . S
N44 C47 1.328 . S
C45 C46 1.391 . S
C45 N48 1.329 . S
C45 H66 0.930 . S
C46 N44 1.334 . S
C46 C45 1.391 . S
C46 H53 0.930 . S
C47 N44 1.328 . S
C47 C49 1.392 . S
C47 H54 0.930 . S
N48 C45 1.329 . S
N48 C49 1.331 . S
C49 C47 1.392 . S
C49 N48 1.331 . S
O50 Zn43 1.975 . S
O50 C51 1.252 . S
C51 O50 1.252 . S
C51 O52 1.252 . S
O52 Zn34 1.975 . S
O52 C51 1.252 . S
H53 C46 0.930 . S
H54 C47 0.930 . S
C55 C56 1.392 . S
C55 N59 1.328 . S
C55 H61 0.930 . S
C56 C55 1.392 . S
C56 N60 1.331 . S
C57 C58 1.391 . S
C57 N60 1.329 . S
C57 H67 0.930 . S
C58 C57 1.391 . S
C58 N59 1.334 . S
C58 H65 0.930 . S
N59 Zn43 2.119 . S
N59 C55 1.328 . S
N59 C58 1.334 . S
N60 C56 1.331 . S
N60 C57 1.329 . S
H61 C55 0.930 . S
C62 O42 1.257 . S
C62 O63 1.244 . S
O63 C62 1.244 . S
O64 C40 1.257 . S
O64 Zn43 2.019 . S
H65 C58 0.930 . S
H66 C45 0.930 . S
H67 C57 0.930 . S
Zn68 N72 2.020 . S
Zn68 O76 2.019 . S
Zn68 N78 2.119 . S
Zn68 O86 1.975 . S
C69 N70 1.334 . S
C69 N73 1.336 . S
N70 C69 1.334 . S
N70 C71 1.334 . S
C71 N70 1.334 . S
C71 N72 1.336 . S
N72 Zn68 2.020 . S
N72 C71 1.336 . S
N72 N73 1.354 . S
N73 C69 1.336 . S
N73 N72 1.354 . S
N73 Zn77 2.020 . S
C74 O75 1.244 . S
C74 O98 1.257 . S
O75 C74 1.244 . S
O76 Zn68 2.019 . S
O76 C96 1.257 . S
Zn77 N73 2.020 . S
Zn77 O84 1.975 . S
Zn77 N93 2.119 . S
Zn77 O98 2.019 . S
N78 Zn68 2.119 . S
N78 C80 1.334 . S
N78 C81 1.328 . S
C79 C80 1.391 . S
C79 N82 1.329 . S
C79 H100 0.930 . S
C80 N78 1.334 . S
C80 C79 1.391 . S
C80 H87 0.930 . S
C81 N78 1.328 . S
C81 C83 1.392 . S
C81 H88 0.930 . S
N82 C79 1.329 . S
N82 C83 1.331 . S
C83 C81 1.392 . S
C83 N82 1.331 . S
O84 Zn77 1.975 . S
O84 C85 1.252 . S
C85 O84 1.252 . S
C85 O86 1.252 . S
O86 Zn68 1.975 . S
O86 C85 1.252 . S
H87 C80 0.930 . S
H88 C81 0.930 . S
C89 C90 1.392 . S
C89 N93 1.328 . S
C89 H95 0.930 . S
C90 C89 1.392 . S
C90 N94 1.331 . S
C91 C92 1.391 . S
C91 N94 1.329 . S
C91 H101 0.930 . S
C92 C91 1.391 . S
C92 N93 1.334 . S
C92 H99 0.930 . S
N93 Zn77 2.119 . S
N93 C89 1.328 . S
N93 C92 1.334 . S
N94 C90 1.331 . S
N94 C91 1.329 . S
H95 C89 0.930 . S
C96 O76 1.257 . S
C96 O97 1.244 . S
O97 C96 1.244 . S
O98 C74 1.257 . S
O98 Zn77 2.019 . S
H99 C92 0.930 . S
H100 C79 0.930 . S
H101 C91 0.930 . S
Zn102 N106 2.020 . S
Zn102 O110 2.019 . S
Zn102 N112 2.119 . S
Zn102 O120 1.975 . S
C103 N104 1.334 . S
C103 N107 1.336 . S
N104 C103 1.334 . S
N104 C105 1.334 . S
C105 N104 1.334 . S
C105 N106 1.336 . S
N106 Zn102 2.020 . S
N106 C105 1.336 . S
N106 N107 1.354 . S
N107 C103 1.336 . S
N107 N106 1.354 . S
N107 Zn111 2.020 . S
C108 O109 1.244 . S
C108 O132 1.257 . S
O109 C108 1.244 . S
O110 Zn102 2.019 . S
O110 C130 1.257 . S
Zn111 N107 2.020 . S
Zn111 O118 1.975 . S
Zn111 N127 2.119 . S
Zn111 O132 2.019 . S
N112 Zn102 2.119 . S
N112 C114 1.334 . S
N112 C115 1.328 . S
C113 C114 1.391 . S
C113 N116 1.329 . S
C113 H134 0.930 . S
C114 N112 1.334 . S
C114 C113 1.391 . S
C114 H121 0.930 . S
C115 N112 1.328 . S
C115 C117 1.392 . S
C115 H122 0.930 . S
N116 C113 1.329 . S
N116 C117 1.331 . S
C117 C115 1.392 . S
C117 N116 1.331 . S
O118 Zn111 1.975 . S
O118 C119 1.252 . S
C119 O118 1.252 . S
C119 O120 1.252 . S
O120 Zn102 1.975 . S
O120 C119 1.252 . S
H121 C114 0.930 . S
H122 C115 0.930 . S
C123 C124 1.392 . S
C123 N127 1.328 . S
C123 H129 0.930 . S
C124 C123 1.392 . S
C124 N128 1.331 . S
C125 C126 1.391 . S
C125 N128 1.329 . S
C125 H135 0.930 . S
C126 C125 1.391 . S
C126 N127 1.334 . S
C126 H133 0.930 . S
N127 Zn111 2.119 . S
N127 C123 1.328 . S
N127 C126 1.334 . S
N128 C124 1.331 . S
N128 C125 1.329 . S
H129 C123 0.930 . S
C130 O110 1.257 . S
C130 O131 1.244 . S
O131 C130 1.244 . S
O132 C108 1.257 . S
O132 Zn111 2.019 . S
H133 C126 0.930 . S
H134 C113 0.930 . S
H135 C125 0.930 . S
Zn136 N140 2.020 . S
Zn136 O144 2.019 . S
Zn136 N146 2.119 . S
Zn136 O154 1.975 . S
C137 N138 1.334 . S
C137 N141 1.336 . S
N138 C137 1.334 . S
N138 C139 1.334 . S
C139 N138 1.334 . S
C139 N140 1.336 . S
N140 Zn136 2.020 . S
N140 C139 1.336 . S
N140 N141 1.354 . S
N141 C137 1.336 . S
N141 N140 1.354 . S
N141 Zn145 2.020 1_655 S
C142 O143 1.244 . S
C142 O166 1.257 . S
O143 C142 1.244 . S
O144 Zn136 2.019 . S
O144 C164 1.257 . S
Zn145 N141 2.020 1_455 S
Zn145 O152 1.975 . S
Zn145 N161 2.119 1_455 S
Zn145 O166 2.019 . S
N146 Zn136 2.119 . S
N146 C148 1.334 . S
N146 C149 1.328 . S
C147 C148 1.391 . S
C147 N150 1.329 . S
C147 H168 0.930 1_655 S
C148 N146 1.334 . S
C148 C147 1.391 . S
C148 H155 0.930 . S
C149 N146 1.328 . S
C149 C151 1.392 . S
C149 H156 0.930 . S
N150 C147 1.329 . S
N150 C151 1.331 . S
C151 C149 1.392 . S
C151 N150 1.331 . S
O152 Zn145 1.975 . S
O152 C153 1.252 1_455 S
C153 O152 1.252 1_655 S
C153 O154 1.252 . S
O154 Zn136 1.975 . S
O154 C153 1.252 . S
H155 C148 0.930 . S
H156 C149 0.930 . S
C157 C158 1.392 . S
C157 N161 1.328 1_455 S
C157 H163 0.930 . S
C158 C157 1.392 . S
C158 N162 1.331 1_455 S
C159 C160 1.391 . S
C159 N162 1.329 . S
C159 H169 0.930 . S
C160 C159 1.391 . S
C160 N161 1.334 . S
C160 H167 0.930 . S
N161 Zn145 2.119 1_655 S
N161 C157 1.328 1_655 S
N161 C160 1.334 . S
N162 C158 1.331 1_655 S
N162 C159 1.329 . S
H163 C157 0.930 . S
C164 O144 1.257 . S
C164 O165 1.244 . S
O165 C164 1.244 . S
O166 C142 1.257 . S
O166 Zn145 2.019 . S
H167 C160 0.930 . S
H168 C147 0.930 1_455 S
H169 C159 0.930 . S
Zn170 N174 2.020 . S
Zn170 O178 2.019 . S
Zn170 N180 2.119 . S
Zn170 O188 1.975 . S
C171 N172 1.334 . S
C171 N175 1.336 . S
N172 C171 1.334 . S
N172 C173 1.334 . S
C173 N172 1.334 . S
C173 N174 1.336 . S
N174 Zn170 2.020 . S
N174 C173 1.336 . S
N174 N175 1.354 . S
N175 C171 1.336 . S
N175 N174 1.354 . S
N175 Zn179 2.020 1_455 S
C176 O177 1.244 . S
C176 O200 1.257 . S
O177 C176 1.244 . S
O178 Zn170 2.019 . S
O178 C198 1.257 . S
Zn179 N175 2.020 1_655 S
Zn179 O186 1.975 . S
Zn179 N195 2.119 1_655 S
Zn179 O200 2.019 . S
N180 Zn170 2.119 . S
N180 C182 1.334 . S
N180 C183 1.328 . S
C181 C182 1.391 . S
C181 N184 1.329 . S
C181 H202 0.930 1_455 S
C182 N180 1.334 . S
C182 C181 1.391 . S
C182 H189 0.930 . S
C183 N180 1.328 . S
C183 C185 1.392 . S
C183 H190 0.930 . S
N184 C181 1.329 . S
N184 C185 1.331 . S
C185 C183 1.392 . S
C185 N184 1.331 . S
O186 Zn179 1.975 . S
O186 C187 1.252 1_655 S
C187 O186 1.252 1_455 S
C187 O188 1.252 . S
O188 Zn170 1.975 . S
O188 C187 1.252 . S
H189 C182 0.930 . S
H190 C183 0.930 . S
C191 C192 1.392 . S
C191 N195 1.328 1_655 S
C191 H197 0.930 . S
C192 C191 1.392 . S
C192 N196 1.331 1_655 S
C193 C194 1.391 . S
C193 N196 1.329 . S
C193 H203 0.930 . S
C194 C193 1.391 . S
C194 N195 1.334 . S
C194 H201 0.930 . S
N195 Zn179 2.119 1_455 S
N195 C191 1.328 1_455 S
N195 C194 1.334 . S
N196 C192 1.331 1_455 S
N196 C193 1.329 . S
H197 C191 0.930 . S
C198 O178 1.257 . S
C198 O199 1.244 . S
O199 C198 1.244 . S
O200 C176 1.257 . S
O200 Zn179 2.019 . S
H201 C194 0.930 . S
H202 C181 0.930 1_655 S
H203 C193 0.930 . S
Zn204 N208 2.020 1_655 S
Zn204 O212 2.019 . S
Zn204 N214 2.119 1_655 S
Zn204 O222 1.975 . S
C205 N206 1.334 . S
C205 N209 1.336 . S
N206 C205 1.334 . S
N206 C207 1.334 . S
C207 N206 1.334 . S
C207 N208 1.336 . S
N208 Zn204 2.020 1_455 S
N208 C207 1.336 . S
N208 N209 1.354 . S
N209 C205 1.336 . S
N209 N208 1.354 . S
N209 Zn213 2.020 . S
C210 O211 1.244 . S
C210 O234 1.257 . S
O211 C210 1.244 . S
O212 Zn204 2.019 . S
O212 C232 1.257 . S
Zn213 N209 2.020 . S
Zn213 O220 1.975 . S
Zn213 N229 2.119 . S
Zn213 O234 2.019 . S
N214 Zn204 2.119 1_455 S
N214 C216 1.334 . S
N214 C217 1.328 1_455 S
C215 C216 1.391 . S
C215 N218 1.329 . S
C215 H236 0.930 . S
C216 N214 1.334 . S
C216 C215 1.391 . S
C216 H223 0.930 . S
C217 N214 1.328 1_655 S
C217 C219 1.392 . S
C217 H224 0.930 . S
N218 C215 1.329 . S
N218 C219 1.331 1_455 S
C219 C217 1.392 . S
C219 N218 1.331 1_655 S
O220 Zn213 1.975 . S
O220 C221 1.252 . S
C221 O220 1.252 . S
C221 O222 1.252 1_455 S
O222 Zn204 1.975 . S
O222 C221 1.252 1_655 S
H223 C216 0.930 . S
H224 C217 0.930 . S
C225 C226 1.392 . S
C225 N229 1.328 . S
C225 H231 0.930 . S
C226 C225 1.392 . S
C226 N230 1.331 . S
C227 C228 1.391 . S
C227 N230 1.329 . S
C227 H237 0.930 1_455 S
C228 C227 1.391 . S
C228 N229 1.334 . S
C228 H235 0.930 . S
N229 Zn213 2.119 . S
N229 C225 1.328 . S
N229 C228 1.334 . S
N230 C226 1.331 . S
N230 C227 1.329 . S
H231 C225 0.930 . S
C232 O212 1.257 . S
C232 O233 1.244 . S
O233 C232 1.244 . S
O234 C210 1.257 . S
O234 Zn213 2.019 . S
H235 C228 0.930 . S
H236 C215 0.930 . S
H237 C227 0.930 1_655 S
Zn238 N242 2.020 . S
Zn238 O246 2.019 . S
Zn238 N248 2.119 . S
Zn238 O256 1.975 . S
C239 N240 1.334 . S
C239 N243 1.336 . S
N240 C239 1.334 . S
N240 C241 1.334 . S
C241 N240 1.334 . S
C241 N242 1.336 . S
N242 Zn238 2.020 . S
N242 C241 1.336 . S
N242 N243 1.354 . S
N243 C239 1.336 . S
N243 N242 1.354 . S
N243 Zn247 2.020 1_655 S
C244 O245 1.244 . S
C244 O268 1.257 . S
O245 C244 1.244 . S
O246 Zn238 2.019 . S
O246 C266 1.257 . S
Zn247 N243 2.020 1_455 S
Zn247 O254 1.975 . S
Zn247 N263 2.119 1_455 S
Zn247 O268 2.019 . S
N248 Zn238 2.119 . S
N248 C250 1.334 . S
N248 C251 1.328 . S
C249 C250 1.391 . S
C249 N252 1.329 . S
C249 H270 0.930 1_655 S
C250 N248 1.334 . S
C250 C249 1.391 . S
C250 H257 0.930 . S
C251 N248 1.328 . S
C251 C253 1.392 . S
C251 H258 0.930 . S
N252 C249 1.329 . S
N252 C253 1.331 . S
C253 C251 1.392 . S
C253 N252 1.331 . S
O254 Zn247 1.975 . S
O254 C255 1.252 1_455 S
C255 O254 1.252 1_655 S
C255 O256 1.252 . S
O256 Zn238 1.975 . S
O256 C255 1.252 . S
H257 C250 0.930 . S
H258 C251 0.930 . S
C259 C260 1.392 . S
C259 N263 1.328 1_455 S
C259 H265 0.930 . S
C260 C259 1.392 . S
C260 N264 1.331 1_455 S
C261 C262 1.391 . S
C261 N264 1.329 . S
C261 H271 0.930 . S
C262 C261 1.391 . S
C262 N263 1.334 . S
C262 H269 0.930 . S
N263 Zn247 2.119 1_655 S
N263 C259 1.328 1_655 S
N263 C262 1.334 . S
N264 C260 1.331 1_655 S
N264 C261 1.329 . S
H265 C259 0.930 . S
C266 O246 1.257 . S
C266 O267 1.244 . S
O267 C266 1.244 . S
O268 C244 1.257 . S
O268 Zn247 2.019 . S
H269 C262 0.930 . S
H270 C249 0.930 1_455 S
H271 C261 0.930 . S
C272 C273 1.387 . S
C272 H276 0.950 . S
C272 C281 1.390 . S
C273 C272 1.387 . S
C273 C275 1.387 . S
H274 C281 0.950 . S
C275 C273 1.387 . S
C275 C277 1.390 . S
C275 H279 0.950 . S
H276 C272 0.950 . S
C277 C275 1.390 . S
C277 C278 1.387 . S
C277 H280 0.950 . S
C278 C277 1.387 . S
C278 C281 1.387 . S
H279 C275 0.950 . S
H280 C277 0.950 . S
C281 C272 1.390 . S
C281 H274 0.950 . S
C281 C278 1.387 . S
C282 C283 1.387 . S
C282 H286 0.950 . S
C282 C291 1.390 . S
C283 C282 1.387 . S
C283 C285 1.387 . S
H284 C291 0.950 . S
C285 C283 1.387 . S
C285 C287 1.390 . S
C285 H289 0.950 . S
H286 C282 0.950 . S
C287 C285 1.390 . S
C287 C288 1.387 . S
C287 H290 0.950 . S
C288 C287 1.387 . S
C288 C291 1.387 . S
H289 C285 0.950 . S
H290 C287 0.950 . S
C291 C282 1.390 . S
C291 H284 0.950 . S
C291 C288 1.387 . S
C292 C293 1.387 . S
C292 H296 0.950 . S
C292 C301 1.390 1_656 S
C293 C292 1.387 . S
C293 C295 1.387 . S
H294 C301 0.950 . S
C295 C293 1.387 . S
C295 C297 1.390 1_656 S
C295 H299 0.950 . S
H296 C292 0.950 . S
C297 C295 1.390 1_454 S
C297 C298 1.387 . S
C297 H300 0.950 . S
C298 C297 1.387 . S
C298 C301 1.387 . S
H299 C295 0.950 . S
H300 C297 0.950 . S
C301 C292 1.390 1_454 S
C301 H294 0.950 . S
C301 C298 1.387 . S
C302 C303 1.387 . S
C302 H306 0.950 . S
C302 C311 1.390 1_656 S
C303 C302 1.387 . S
C303 C305 1.387 . S
H304 C311 0.950 . S
C305 C303 1.387 . S
C305 C307 1.390 1_656 S
C305 H309 0.950 . S
H306 C302 0.950 . S
C307 C305 1.390 1_454 S
C307 C308 1.387 . S
C307 H310 0.950 . S
C308 C307 1.387 . S
C308 C311 1.387 . S
H309 C305 0.950 . S
H310 C307 0.950 . S
C311 C302 1.390 1_454 S
C311 H304 0.950 . S
C311 C308 1.387 . S
C312 C313 1.387 . S
C312 H316 0.950 . S
C312 C321 1.390 1_565 S
C313 C312 1.387 . S
C313 C315 1.387 . S
H314 C321 0.950 . S
C315 C313 1.387 . S
C315 C317 1.390 1_565 S
C315 H319 0.950 . S
H316 C312 0.950 . S
C317 C315 1.390 1_545 S
C317 C318 1.387 . S
C317 H320 0.950 . S
C318 C317 1.387 . S
C318 C321 1.387 . S
H319 C315 0.950 . S
H320 C317 0.950 . S
C321 C312 1.390 1_545 S
C321 H314 0.950 . S
C321 C318 1.387 . S
C322 C323 1.387 . S
C322 H326 0.950 . S
C322 C331 1.390 1_565 S
C323 C322 1.387 . S
C323 C325 1.387 . S
H324 C331 0.950 . S
C325 C323 1.387 . S
C325 C327 1.390 1_565 S
C325 H329 0.950 . S
H326 C322 0.950 . S
C327 C325 1.390 1_545 S
C327 C328 1.387 . S
C327 H330 0.950 . S
C328 C327 1.387 . S
C328 C331 1.387 . S
H329 C325 0.950 . S
H330 C327 0.950 . S
C331 C322 1.390 1_545 S
C331 H324 0.950 . S
C331 C328 1.387 . S
C332 C333 1.387 1_655 S
C332 H336 0.950 . S
C332 C341 1.390 . S
C333 C332 1.387 1_455 S
C333 C335 1.387 . S
H334 C341 0.950 . S
C335 C333 1.387 . S
C335 C337 1.390 . S
C335 H339 0.950 . S
H336 C332 0.950 . S
C337 C335 1.390 . S
C337 C338 1.387 . S
C337 H340 0.950 . S
C338 C337 1.387 . S
C338 C341 1.387 1_455 S
H339 C335 0.950 . S
H340 C337 0.950 . S
C341 C332 1.390 . S
C341 H334 0.950 . S
C341 C338 1.387 1_655 S
C342 C343 1.387 . S
C342 H346 0.950 . S
C342 C351 1.390 . S
C343 C342 1.387 . S
C343 C345 1.387 . S
H344 C351 0.950 . S
C345 C343 1.387 . S
C345 C347 1.390 . S
C345 H349 0.950 . S
H346 C342 0.950 . S
C347 C345 1.390 . S
C347 C348 1.387 . S
C347 H350 0.950 . S
C348 C347 1.387 . S
C348 C351 1.387 . S
H349 C345 0.950 . S
H350 C347 0.950 . S
C351 C342 1.390 . S
C351 H344 0.950 . S
C351 C348 1.387 . S
C352 C353 1.387 . S
C352 H356 0.950 . S
C352 C361 1.390 1_656 S
C353 C352 1.387 . S
C353 C355 1.387 . S
H354 C361 0.950 . S
C355 C353 1.387 . S
C355 C357 1.390 1_656 S
C355 H359 0.950 . S
H356 C352 0.950 . S
C357 C355 1.390 1_454 S
C357 C358 1.387 . S
C357 H360 0.950 . S
C358 C357 1.387 . S
C358 C361 1.387 . S
H359 C355 0.950 . S
H360 C357 0.950 . S
C361 C352 1.390 1_454 S
C361 H354 0.950 . S
C361 C358 1.387 . S
C362 C363 1.387 . S
C362 H366 0.950 . S
C362 C371 1.390 1_454 S
C363 C362 1.387 . S
C363 C365 1.387 . S
H364 C371 0.950 . S
C365 C363 1.387 . S
C365 C367 1.390 1_454 S
C365 H369 0.950 . S
H366 C362 0.950 . S
C367 C365 1.390 1_656 S
C367 C368 1.387 . S
C367 H370 0.950 . S
C368 C367 1.387 . S
C368 C371 1.387 . S
H369 C365 0.950 . S
H370 C367 0.950 . S
C371 C362 1.390 1_656 S
C371 H364 0.950 . S
C371 C368 1.387 . S
C372 C373 1.387 . S
C372 H376 0.950 . S
C372 C381 1.390 . S
C373 C372 1.387 . S
C373 C375 1.387 . S
H374 C381 0.950 . S
C375 C373 1.387 . S
C375 C377 1.390 . S
C375 H379 0.950 . S
H376 C372 0.950 . S
C377 C375 1.390 . S
C377 C378 1.387 . S
C377 H380 0.950 . S
C378 C377 1.387 . S
C378 C381 1.387 . S
H379 C375 0.950 . S
H380 C377 0.950 . S
C381 C372 1.390 . S
C381 H374 0.950 . S
C381 C378 1.387 . S
C382 C383 1.387 . S
C382 H386 0.950 . S
C382 C391 1.390 . S
C383 C382 1.387 . S
C383 C385 1.387 . S
H384 C391 0.950 . S
C385 C383 1.387 . S
C385 C387 1.390 . S
C385 H389 0.950 . S
H386 C382 0.950 . S
C387 C385 1.390 . S
C387 C388 1.387 . S
C387 H390 0.950 . S
C388 C387 1.387 . S
C388 C391 1.387 . S
H389 C385 0.950 . S
H390 C387 0.950 . S
C391 C382 1.390 . S
C391 H384 0.950 . S
C391 C388 1.387 . S
C392 C393 1.387 . S
C392 H396 0.950 . S
C392 C401 1.390 1_556 S
C393 C392 1.387 . S
C393 C395 1.387 . S
H394 C401 0.950 . S
C395 C393 1.387 . S
C395 C397 1.390 1_556 S
C395 H399 0.950 . S
H396 C392 0.950 . S
C397 C395 1.390 1_554 S
C397 C398 1.387 . S
C397 H400 0.950 . S
C398 C397 1.387 . S
C398 C401 1.387 . S
H399 C395 0.950 . S
H400 C397 0.950 . S
C401 C392 1.390 1_554 S
C401 H394 0.950 . S
C401 C398 1.387 . S
C402 C403 1.387 . S
C402 H406 0.950 . S
C402 C411 1.390 1_556 S
C403 C402 1.387 . S
C403 C405 1.387 . S
H404 C411 0.950 . S
C405 C403 1.387 . S
C405 C407 1.390 1_556 S
C405 H409 0.950 . S
H406 C402 0.950 . S
C407 C405 1.390 1_554 S
C407 C408 1.387 . S
C407 H410 0.950 . S
C408 C407 1.387 . S
C408 C411 1.387 . S
H409 C405 0.950 . S
H410 C407 0.950 . S
C411 C402 1.390 1_554 S
C411 H404 0.950 . S
C411 C408 1.387 . S
C412 C413 1.387 . S
C412 H416 0.950 . S
C412 C421 1.390 1_455 S
C413 C412 1.387 . S
C413 C415 1.387 . S
H414 C421 0.950 . S
C415 C413 1.387 . S
C415 C417 1.390 1_455 S
C415 H419 0.950 . S
H416 C412 0.950 . S
C417 C415 1.390 1_655 S
C417 C418 1.387 . S
C417 H420 0.950 . S
C418 C417 1.387 . S
C418 C421 1.387 . S
H419 C415 0.950 . S
H420 C417 0.950 . S
C421 C412 1.390 1_655 S
C421 H414 0.950 . S
C421 C418 1.387 . S
C422 C423 1.387 . S
C422 H426 0.950 . S
C422 C431 1.390 1_455 S
C423 C422 1.387 . S
C423 C425 1.387 . S
H424 C431 0.950 . S
C425 C423 1.387 . S
C425 C427 1.390 1_455 S
C425 H429 0.950 . S
H426 C422 0.950 . S
C427 C425 1.390 1_655 S
C427 C428 1.387 . S
C427 H430 0.950 . S
C428 C427 1.387 . S
C428 C431 1.387 . S
H429 C425 0.950 . S
H430 C427 0.950 . S
C431 C422 1.390 1_655 S
C431 H424 0.950 . S
C431 C428 1.387 . S
C432 C433 1.387 . S
C432 H436 0.950 . S
C432 C441 1.390 . S
C433 C432 1.387 . S
C433 C435 1.387 . S
H434 C441 0.950 . S
C435 C433 1.387 . S
C435 C437 1.390 . S
C435 H439 0.950 . S
H436 C432 0.950 . S
C437 C435 1.390 . S
C437 C438 1.387 . S
C437 H440 0.950 . S
C438 C437 1.387 . S
C438 C441 1.387 . S
H439 C435 0.950 . S
H440 C437 0.950 . S
C441 C432 1.390 . S
C441 H434 0.950 . S
C441 C438 1.387 . S
C442 C443 1.387 . S
C442 H446 0.950 . S
C442 C451 1.390 . S
C443 C442 1.387 . S
C443 C445 1.387 . S
H444 C451 0.950 . S
C445 C443 1.387 . S
C445 C447 1.390 . S
C445 H449 0.950 . S
H446 C442 0.950 . S
C447 C445 1.390 . S
C447 C448 1.387 . S
C447 H450 0.950 . S
C448 C447 1.387 . S
C448 C451 1.387 . S
H449 C445 0.950 . S
H450 C447 0.950 . S
C451 C442 1.390 . S
C451 H444 0.950 . S
C451 C448 1.387 . S
C452 C453 1.387 . S
C452 H456 0.950 . S
C452 C461 1.390 . S
C453 C452 1.387 . S
C453 C455 1.387 . S
H454 C461 0.950 . S
C455 C453 1.387 . S
C455 C457 1.390 . S
C455 H459 0.950 . S
H456 C452 0.950 . S
C457 C455 1.390 . S
C457 C458 1.387 . S
C457 H460 0.950 . S
C458 C457 1.387 . S
C458 C461 1.387 . S
H459 C455 0.950 . S
H460 C457 0.950 . S
C461 C452 1.390 . S
C461 H454 0.950 . S
C461 C458 1.387 . S
C462 C463 1.387 . S
C462 H466 0.950 . S
C462 C471 1.390 . S
C463 C462 1.387 . S
C463 C465 1.387 . S
H464 C471 0.950 . S
C465 C463 1.387 . S
C465 C467 1.390 . S
C465 H469 0.950 . S
H466 C462 0.950 . S
C467 C465 1.390 . S
C467 C468 1.387 . S
C467 H470 0.950 . S
C468 C467 1.387 . S
C468 C471 1.387 . S
H469 C465 0.950 . S
H470 C467 0.950 . S
C471 C462 1.390 . S
C471 H464 0.950 . S
C471 C468 1.387 . S
C472 C473 1.387 . S
C472 H476 0.950 . S
C472 C481 1.390 . S
C473 C472 1.387 . S
C473 C475 1.387 . S
H474 C481 0.950 1_455 S
C475 C473 1.387 . S
C475 C477 1.390 . S
C475 H479 0.950 . S
H476 C472 0.950 . S
C477 C475 1.390 . S
C477 C478 1.387 1_655 S
C477 H480 0.950 . S
C478 C477 1.387 1_455 S
C478 C481 1.387 1_455 S
H479 C475 0.950 . S
H480 C477 0.950 . S
C481 C472 1.390 . S
C481 H474 0.950 1_655 S
C481 C478 1.387 1_655 S
C482 C483 1.387 . S
C482 H486 0.950 . S
C482 C491 1.390 . S
C483 C482 1.387 . S
C483 C485 1.387 . S
H484 C491 0.950 . S
C485 C483 1.387 . S
C485 C487 1.390 . S
C485 H489 0.950 . S
H486 C482 0.950 . S
C487 C485 1.390 . S
C487 C488 1.387 1_455 S
C487 H490 0.950 . S
C488 C487 1.387 1_655 S
C488 C491 1.387 1_655 S
H489 C485 0.950 . S
H490 C487 0.950 . S
C491 C482 1.390 . S
C491 H484 0.950 . S
C491 C488 1.387 1_455 S
C492 C493 1.387 . S
C492 H496 0.950 . S
C492 C501 1.390 . S
C493 C492 1.387 . S
C493 C495 1.387 . S
H494 C501 0.950 . S
C495 C493 1.387 . S
C495 C497 1.390 . S
C495 H499 0.950 . S
H496 C492 0.950 . S
C497 C495 1.390 . S
C497 C498 1.387 1_455 S
C497 H500 0.950 1_455 S
C498 C497 1.387 1_655 S
C498 C501 1.387 1_655 S
H499 C495 0.950 . S
H500 C497 0.950 1_655 S
C501 C492 1.390 . S
C501 H494 0.950 . S
C501 C498 1.387 1_455 S
C502 C503 1.387 . S
C502 H506 0.950 . S
C502 C511 1.390 . S
C503 C502 1.387 . S
C503 C505 1.387 . S
H504 C511 0.950 1_455 S
C505 C503 1.387 . S
C505 C507 1.390 . S
C505 H509 0.950 . S
H506 C502 0.950 . S
C507 C505 1.390 . S
C507 C508 1.387 1_655 S
C507 H510 0.950 . S
C508 C507 1.387 1_455 S
C508 C511 1.387 1_455 S
H509 C505 0.950 . S
H510 C507 0.950 . S
C511 C502 1.390 . S
C511 H504 0.950 1_655 S
C511 C508 1.387 1_655 S
C512 C513 1.387 . S
C512 H516 0.950 . S
C512 C521 1.390 . S
C513 C512 1.387 . S
C513 C515 1.387 . S
H514 C521 0.950 . S
C515 C513 1.387 . S
C515 C517 1.390 . S
C515 H519 0.950 . S
H516 C512 0.950 . S
C517 C515 1.390 . S
C517 C518 1.387 . S
C517 H520 0.950 . S
C518 C517 1.387 . S
C518 C521 1.387 . S
H519 C515 0.950 . S
H520 C517 0.950 . S
C521 C512 1.390 . S
C521 H514 0.950 . S
C521 C518 1.387 . S
C522 C523 1.387 . S
C522 H526 0.950 . S
C522 C531 1.390 . S
C523 C522 1.387 . S
C523 C525 1.387 . S
H524 C531 0.950 . S
C525 C523 1.387 . S
C525 C527 1.390 . S
C525 H529 0.950 . S
H526 C522 0.950 . S
C527 C525 1.390 . S
C527 C528 1.387 . S
C527 H530 0.950 . S
C528 C527 1.387 . S
C528 C531 1.387 . S
H529 C525 0.950 . S
H530 C527 0.950 . S
C531 C522 1.390 . S
C531 H524 0.950 . S
C531 C528 1.387 . S
C532 C533 1.387 . S
C532 H536 0.950 . S
C532 C541 1.390 . S
C533 C532 1.387 . S
C533 C535 1.387 . S
H534 C541 0.950 . S
C535 C533 1.387 . S
C535 C537 1.390 . S
C535 H539 0.950 . S
H536 C532 0.950 . S
C537 C535 1.390 . S
C537 C538 1.387 . S
C537 H540 0.950 . S
C538 C537 1.387 . S
C538 C541 1.387 . S
H539 C535 0.950 . S
H540 C537 0.950 . S
C541 C532 1.390 . S
C541 H534 0.950 . S
C541 C538 1.387 . S
C542 C543 1.387 . S
C542 H546 0.950 . S
C542 C551 1.390 . S
C543 C542 1.387 . S
C543 C545 1.387 . S
H544 C551 0.950 . S
C545 C543 1.387 . S
C545 C547 1.390 . S
C545 H549 0.950 . S
H546 C542 0.950 . S
C547 C545 1.390 . S
C547 C548 1.387 . S
C547 H550 0.950 . S
C548 C547 1.387 . S
C548 C551 1.387 . S
H549 C545 0.950 . S
H550 C547 0.950 . S
C551 C542 1.390 . S
C551 H544 0.950 . S
C551 C548 1.387 . S
C273 C51 1.725 . S
C278 C17 1.725 . S
C283 C119 1.725 . S
C288 C85 1.725 . S
C293 C153 1.724 . S
C298 C187 1.724 . S
C303 C255 1.724 . S
C308 C221 1.724 . S
C313 C117 1.799 . S
C318 C22 1.797 . S
C323 C90 1.800 . S
C328 C56 1.796 . S
C333 C158 1.798 . S
C338 C260 1.798 . S
C343 C192 1.796 . S
C348 C219 1.800 . S
C353 C37 2.057 . S
C358 C3 2.057 . S
C363 C103 2.057 . S
C368 C71 2.057 . S
C373 C139 2.056 . S
C378 C173 2.056 . S
C383 C205 2.057 . S
C388 C241 2.057 . S
C393 C35 1.573 . S
C398 C1 1.573 . S
C403 C69 1.573 . S
C408 C105 1.573 . S
C413 C171 1.573 . S
C418 C137 1.573 . S
C423 C207 1.573 . S
C428 C239 1.573 . S
C433 C15 1.544 . S
C438 C226 1.544 . S
C443 C49 1.546 . S
C448 C253 1.546 . S
C453 C83 1.545 . S
C458 C151 1.545 . S
C463 C124 1.546 . S
C468 C185 1.546 . S
C473 C6 1.376 . S
C478 C28 1.381 . S
C483 C40 1.375 . S
C488 C62 1.381 . S
C493 C74 1.376 . S
C498 C96 1.381 . S
C503 C130 1.376 . S
C508 C108 1.381 . S
C513 C142 1.375 . S
C518 C164 1.381 . S
C523 C198 1.380 . S
C528 C176 1.376 . S
C533 C210 1.381 . S
C538 C232 1.375 . S
C543 C266 1.381 . S
C548 C244 1.376 . S
