# Generated by pormake.
# Topology sxb, (6)-cn, num edge types: 1
# Building blocks:
#     Node 0, Type 0, BuildingBlock: CUKXOW_clean_sbu_0, # of connection points: 6
#     Node 1, Type 0, BuildingBlock: CUKXOW_clean_sbu_0, # of connection points: 6
#     Node 2, Type 0, BuildingBlock: CUKXOW_clean_sbu_0, # of connection points: 6
#     Node 3, Type 0, BuildingBlock: CUKXOW_clean_sbu_0, # of connection points: 6
#     Edge 4, Type (0, 0), BuildingBlock: TEMPAE_clean_linker_10, # of connection points: 2
#     Edge 5, Type (0, 0), BuildingBlock: TEMPAE_clean_linker_10, # of connection points: 2
#     Edge 6, Type (0, 0), BuildingBlock: TEMPAE_clean_linker_10, # of connection points: 2
#     Edge 7, Type (0, 0), BuildingBlock: TEMPAE_clean_linker_10, # of connection points: 2
#     Edge 8, Type (0, 0), BuildingBlock: TEMPAE_clean_linker_10, # of connection points: 2
#     Edge 9, Type (0, 0), BuildingBlock: TEMPAE_clean_linker_10, # of connection points: 2
#     Edge 10, Type (0, 0), BuildingBlock: TEMPAE_clean_linker_10, # of connection points: 2
#     Edge 11, Type (0, 0), BuildingBlock: TEMPAE_clean_linker_10, # of connection points: 2
#     Edge 12, Type (0, 0), BuildingBlock: TEMPAE_clean_linker_10, # of connection points: 2
#     Edge 13, Type (0, 0), BuildingBlock: TEMPAE_clean_linker_10, # of connection points: 2
#     Edge 14, Type (0, 0), BuildingBlock: TEMPAE_clean_linker_10, # of connection points: 2
#     Edge 15, Type (0, 0), BuildingBlock: TEMPAE_clean_linker_10, # of connection points: 2
# Relax obj value: 0.017
# Max RMSD: 0.071
# Mean RMSD: 0.071
data_MOF--net-sxb--node1-CUKXOW_clean_sbu_0--edge1-TEMPAE_clean_linker_10
_symmetry_space_group_name_H-M    P1
_symmetry_Int_Tables_number       1
_symmetry_cell_setting            triclinic
loop_
_symmetry_equiv_pos_as_xyz
'x, y, z'
_cell_length_a     14.329176
_cell_length_b     34.002994
_cell_length_c     31.010011
_cell_angle_alpha  90.012631
_cell_angle_beta   103.35482
_cell_angle_gamma 90.022994
loop_
_atom_site_label
_atom_site_type_symbol
_atom_site_fract_x
_atom_site_fract_y
_atom_site_fract_z
_atom_type_partial_charge
Tb0 Tb 1.03595 0.03325 -0.0031 0.0
C1 C 0.05364 -0.00892 0.9089 0.0
Tb2 Tb 0.08425 0.94247 -0.0015 0.0
O3 O 0.18683 0.05468 0.01117 0.0
O4 O 0.15445 -0.00369 0.00738 0.0
O5 O 1.01186 0.01999 0.92641 0.0
C6 C 0.16157 0.87203 -0.00542 0.0
O7 O 0.09655 0.96073 0.93247 0.0
C8 C 0.90642 0.96085 -0.00156 0.0
C9 C 0.07519 -0.01442 0.08737 0.0
O10 O 0.08528 0.88504 0.96706 0.0
O11 O 0.19468 0.89872 0.02418 0.0
O12 O 0.94714 0.92813 0.01415 0.0
O13 O 0.96141 0.97926 0.97906 0.0
O14 O 0.10881 0.95487 0.06913 0.0
O15 O 1.03793 0.01746 0.06519 0.0
C16 C 0.94404 0.10143 0.99338 0.0
O17 O 0.92629 0.07051 0.0148 0.0
O18 O 1.01254 0.09373 0.97362 0.0
C19 C 0.22363 0.01965 0.01279 0.0
Tb20 Tb 0.0478 0.03194 0.49233 0.0
C21 C 1.03106 -0.01004 0.58066 0.0
Tb22 Tb 0.99828 0.94127 0.491 0.0
O23 O 0.89702 0.0536 0.47833 0.0
O24 O 0.92911 -0.00475 0.48266 0.0
O25 O 0.07249 0.01884 0.56289 0.0
C26 C 0.9207 0.87088 0.49505 0.0
O27 O 0.98784 0.95953 0.55729 0.0
C28 C 0.1762 0.9594 0.49039 0.0
C29 C 1.00385 0.9843 0.40183 0.0
O30 O 0.99893 0.88341 0.52159 0.0
O31 O 0.88577 0.89807 0.46641 0.0
O32 O 0.13454 0.9269 0.47441 0.0
O33 O 0.1218 0.97785 0.51004 0.0
O34 O 0.96934 0.95398 0.42029 0.0
O35 O 0.04475 0.01562 0.42401 0.0
C36 C 0.14077 0.09986 0.49559 0.0
O37 O 0.15812 0.06877 0.47433 0.0
O38 O 0.072 0.09248 0.5153 0.0
C39 C 0.8601 0.01861 0.47726 0.0
Tb40 Tb 0.51429 0.52978 0.99015 0.0
C41 C 0.5299 0.48572 0.90422 0.0
Tb42 Tb 0.56354 0.43882 -0.00525 0.0
O43 O 0.64827 0.54298 0.97108 0.0
O44 O 0.63787 0.49336 0.00968 0.0
O45 O 0.48369 0.51406 0.92028 0.0
C46 C 0.65027 0.36954 -0.00382 0.0
O47 O 0.57761 0.45721 0.92925 0.0
C48 C 0.37711 0.4524 0.98249 0.0
C49 C 0.54372 0.48238 0.08177 0.0
O50 O 0.57746 0.38138 0.96591 0.0
O51 O 0.67533 0.39694 0.02589 0.0
O52 O 0.41402 0.41734 0.98688 0.0
O53 O 0.44559 0.47561 0.98423 0.0
O54 O 0.56628 0.44911 0.06405 0.0
O55 O 0.52073 0.51595 0.05971 0.0
C56 C 0.43578 0.6004 0.9916 0.0
O57 O 0.52634 0.59246 0.00547 0.0
O58 O 0.38892 0.56854 0.97702 0.0
C59 C 0.69122 0.51133 0.98898 0.0
Tb60 Tb 0.57428 0.52725 0.4969 0.0
C61 C 0.56437 0.48308 0.58343 0.0
Tb62 Tb 0.52574 0.43628 0.49264 0.0
O63 O 0.44171 0.54002 0.51743 0.0
O64 O 0.4508 0.49066 0.47825 0.0
O65 O 0.60922 0.51143 0.56667 0.0
C66 C 0.43861 0.3671 0.49165 0.0
O67 O 0.51518 0.45466 0.55873 0.0
C68 C 0.71169 0.44989 0.50395 0.0
C69 C 0.54084 0.48019 0.40499 0.0
O70 O 0.51122 0.3791 0.52194 0.0
O71 O 0.41402 0.39427 0.46167 0.0
O72 O 0.67494 0.41479 0.50003 0.0
O73 O 0.64338 0.47318 0.50207 0.0
O74 O 0.5209 0.44666 0.4231 0.0
O75 O 0.56327 0.51388 0.42691 0.0
C76 C 0.65127 0.59812 0.495 0.0
O77 O 0.69949 0.56603 0.50691 0.0
O78 O 0.56025 0.59028 0.48398 0.0
C79 C 0.39844 0.50839 0.49959 0.0
C80 C 0.29761 0.64435 0.99298 0.0
C81 C 0.39377 0.6398 0.99136 0.0
C82 C 0.25788 0.68199 0.99389 0.0
C83 C 0.31505 0.71557 0.99145 0.0
C84 C 0.41169 0.71092 0.98873 0.0
C85 C 0.45042 0.67302 0.98956 0.0
C86 C 0.15549 0.68582 -0.00176 0.0
C87 C 0.47397 0.74594 0.98462 0.0
C88 C 0.18716 0.81161 0.95365 0.0
C89 C 0.20148 0.83235 0.99362 0.0
C90 C 0.22468 0.77364 0.95233 0.0
C91 C 0.27442 0.75567 0.99224 0.0
C92 C 0.28734 0.77636 0.03283 0.0
C93 C 0.25219 0.81484 0.03289 0.0
C94 C 0.21245 0.75304 0.90823 0.0
C95 C 0.33746 0.75773 0.07621 0.0
H96 H 0.25421 0.6185 -0.0054 0.0
H97 H 0.52469 0.66931 0.98793 0.0
H98 H 0.1531 0.70355 0.02802 0.0
H99 H 0.11206 0.70154 0.96912 0.0
H100 H 0.12172 0.65679 0.00101 0.0
H101 H 0.546 0.73712 0.98043 0.0
H102 H 0.4387 0.76422 0.95582 0.0
H103 H 0.48335 0.76469 0.01458 0.0
H104 H 0.1482 0.82541 0.92329 0.0
H105 H 0.2623 0.83091 0.06384 0.0
H106 H 0.172 0.72525 0.90836 0.0
H107 H 0.28376 0.74517 0.90248 0.0
H108 H 0.17393 0.7715 0.88018 0.0
H109 H 0.30246 0.7294 0.08074 0.0
H110 H 0.3367 0.77698 0.10508 0.0
H111 H 0.41309 0.75116 0.07589 0.0
C112 C 0.65503 0.30303 0.96388 0.0
C113 C 0.69406 0.33034 -0.00303 0.0
C114 C 0.6941 0.26529 0.96396 0.0
C115 C 0.77434 0.25473 -0.00208 0.0
C116 C 0.81403 0.28221 0.03152 0.0
C117 C 0.77322 0.31983 0.03066 0.0
C118 C 0.64989 0.23681 0.92754 0.0
C119 C 0.89985 0.27194 0.06813 0.0
C120 C 0.82671 0.14584 0.017 0.0
C121 C 0.89886 0.14021 0.99392 0.0
C122 C 0.78582 0.18312 0.01893 0.0
C123 C 0.81828 0.21528 -0.00271 0.0
C124 C 0.89102 0.20959 0.97384 0.0
C125 C 0.93038 0.17204 0.9724 0.0
C126 C 0.70798 0.18808 0.04403 0.0
C127 C 0.92713 0.24315 0.9502 0.0
H128 H 0.59357 0.31114 0.93783 0.0
H129 H 0.80329 0.34101 0.05625 0.0
H130 H 0.7036 0.2284 0.90854 0.0
H131 H 0.62785 0.20949 0.94205 0.0
H132 H 0.58626 0.24937 0.90417 0.0
H133 H 0.92086 0.29637 0.09222 0.0
H134 H 0.88403 0.24552 0.0862 0.0
H135 H 0.96185 0.26462 0.0538 0.0
H136 H 0.80245 0.12116 0.03368 0.0
H137 H 0.98641 0.16767 0.95462 0.0
H138 H 0.64164 0.19928 0.0215 0.0
H139 H 0.73042 0.21016 0.07077 0.0
H140 H 0.69093 0.16008 0.05903 0.0
H141 H 0.86731 0.25548 0.92449 0.0
H142 H 0.98519 0.23389 0.93406 0.0
H143 H 0.9547 0.26716 0.97397 0.0
C144 C 0.26058 0.14354 0.47278 0.0
C145 C 0.18677 0.13846 0.495 0.0
C146 C 0.30236 0.18064 0.47082 0.0
C147 C 0.26902 0.21321 0.49149 0.0
C148 C 0.19461 0.20808 0.51408 0.0
C149 C 0.15448 0.17068 0.51563 0.0
C150 C 0.38204 0.18499 0.4467 0.0
C151 C 0.15745 0.24209 0.53665 0.0
C152 C 0.43197 0.30111 0.52491 0.0
C153 C 0.39448 0.32798 0.49113 0.0
C154 C 0.39249 0.26345 0.52508 0.0
C155 C 0.31349 0.25253 0.49065 0.0
C156 C 0.2754 0.27956 0.45633 0.0
C157 C 0.31652 0.31711 0.45698 0.0
C158 C 0.4349 0.23547 0.56229 0.0
C159 C 0.19097 0.26888 0.41917 0.0
H160 H 0.28548 0.11855 0.45682 0.0
H161 H 0.09717 0.16673 0.53275 0.0
H162 H 0.36113 0.2067 0.41948 0.0
H163 H 0.44762 0.19638 0.46967 0.0
H164 H 0.39976 0.15671 0.4325 0.0
H165 H 0.09826 0.23322 0.55226 0.0
H166 H 0.21642 0.25468 0.56261 0.0
H167 H 0.13106 0.26578 0.5123 0.0
H168 H 0.49248 0.30951 0.55131 0.0
H169 H 0.28766 0.33795 0.43085 0.0
H170 H 0.45755 0.20785 0.5486 0.0
H171 H 0.37991 0.22751 0.58076 0.0
H172 H 0.49779 0.24825 0.58597 0.0
H173 H 0.20765 0.24214 0.40187 0.0
H174 H 0.17126 0.29296 0.39454 0.0
H175 H 0.12786 0.26194 0.43286 0.0
C176 C 0.82092 0.81556 0.45738 0.0
C177 C 0.88094 0.83111 0.49569 0.0
C178 C 0.78587 0.77701 0.45683 0.0
C179 C 0.80906 0.75413 0.496 0.0
C180 C 0.86832 0.77008 0.53504 0.0
C181 C 0.9049 0.80827 0.5342 0.0
C182 C 0.7249 0.76066 0.41427 0.0
C183 C 0.89206 0.74701 0.57779 0.0
C184 C 0.63897 0.6703 0.50313 0.0
C185 C 0.69248 0.63768 0.49557 0.0
C186 C 0.67717 0.70834 0.5045 0.0
C187 C 0.7695 0.71381 0.49632 0.0
C188 C 0.82326 0.68085 0.488 0.0
C189 C 0.78469 0.64295 0.48862 0.0
C190 C 0.61909 0.74259 0.51502 0.0
C191 C 0.92058 0.68565 0.47769 0.0
H192 H 0.80317 0.83324 0.4275 0.0
H193 H 0.95112 0.82051 0.56385 0.0
H194 H 0.75681 0.73293 0.4054 0.0
H195 H 0.65224 0.75348 0.41875 0.0
H196 H 0.71756 0.78161 0.3862 0.0
H197 H 0.93721 0.76406 0.60546 0.0
H198 H 0.82493 0.73825 0.58731 0.0
H199 H 0.93059 0.7196 0.57324 0.0
H200 H 0.56787 0.66597 0.50892 0.0
H201 H 0.82554 0.61754 0.48255 0.0
H202 H 0.60209 0.76306 0.48644 0.0
H203 H 0.66143 0.75932 0.54367 0.0
H204 H 0.55077 0.73303 0.52292 0.0
H205 H 0.91468 0.70499 0.44835 0.0
H206 H 0.95192 0.65707 0.47088 0.0
H207 H 0.97075 0.70008 0.50584 0.0
C208 C 0.39622 0.03863 0.03022 0.0
C209 C 0.32512 0.01054 0.01401 0.0
C210 C 0.49246 0.03198 0.02909 0.0
C211 C 0.51777 -0.00318 0.01008 0.0
C212 C 0.4459 0.96835 0.9936 0.0
C213 C 0.35058 0.97535 -0.00371 0.0
C214 C 0.56703 0.06256 0.0483 0.0
C215 C 0.46928 0.93086 0.97223 0.0
C216 C 0.75033 -0.0042 0.96971 0.0
C217 C 0.80985 0.97303 0.00247 0.0
C218 C 0.65483 0.0037 0.97162 0.0
C219 C 0.61953 -0.01037 0.00793 0.0
C220 C 0.68137 0.96817 0.04208 0.0
C221 C 0.7751 0.95956 0.0385 0.0
C222 C 0.59085 0.02603 0.93411 0.0
C223 C 0.64835 0.95396 0.08224 0.0
H224 H 0.37649 0.0659 0.04392 0.0
H225 H 0.29542 0.95388 0.98314 0.0
H226 H 0.62505 0.049 0.07396 0.0
H227 H 0.6005 0.07423 0.02207 0.0
H228 H 0.53626 0.08757 0.06345 0.0
H229 H 0.40494 0.91214 0.96019 0.0
H230 H 0.50124 0.938 0.94381 0.0
H231 H 0.52323 0.91363 -0.00377 0.0
H232 H 0.77721 0.00605 0.94176 0.0
H233 H 0.82159 0.94225 0.06409 0.0
H234 H 0.56282 0.05291 0.94694 0.0
H235 H 0.52811 0.00759 0.91861 0.0
H236 H 0.62892 0.03472 0.90818 0.0
H237 H 0.6182 0.9788 0.09786 0.0
H238 H 0.7075 0.94041 0.10742 0.0
H239 H 0.59046 0.93187 0.07209 0.0
C240 C 0.33059 -0.00403 0.51856 0.0
C241 C 0.27387 0.97101 0.48718 0.0
C242 C 0.42638 0.00408 0.51724 0.0
C243 C 0.46466 -0.01187 0.48266 0.0
C244 C 0.40582 0.96426 0.44991 0.0
C245 C 0.31216 0.95525 0.45324 0.0
C246 C 0.48741 0.02871 0.55353 0.0
C247 C 0.44183 0.94804 0.4114 0.0
C248 C 0.68689 0.0367 0.45851 0.0
C249 C 0.75883 0.0095 0.47647 0.0
C250 C 0.59073 0.02992 0.45977 0.0
C251 C 0.5665 -0.00427 0.48092 0.0
C252 C 0.63938 0.9683 0.49945 0.0
C253 C 0.73446 0.97522 0.49635 0.0
C254 C 0.51502 0.0592 0.43815 0.0
C255 C 0.6173 0.93201 0.52332 0.0
H256 H 0.30125 0.00793 0.54503 0.0
H257 H 0.26863 0.9358 0.42905 0.0
H258 H 0.55134 0.01164 0.57057 0.0
H259 H 0.51375 0.05522 0.53921 0.0
H260 H 0.4476 0.03824 0.5785 0.0
H261 H 0.38445 0.93285 0.38679 0.0
H262 H 0.47137 0.97213 0.39438 0.0
H263 H 0.50079 0.92684 0.4236 0.0
H264 H 0.70584 0.06327 0.44316 0.0
H265 H 0.79029 0.95447 0.51085 0.0
H266 H 0.47999 0.07208 0.46324 0.0
H267 H 0.45834 0.04412 0.41316 0.0
H268 H 0.54512 0.0835 0.42161 0.0
H269 H 0.58271 0.94055 0.55048 0.0
H270 H 0.68265 0.91453 0.53757 0.0
H271 H 0.56594 0.91298 0.5002 0.0
C272 C 0.82786 0.51481 0.95238 0.0
C273 C 0.7893 0.50001 0.9867 0.0
C274 C 0.92284 0.50667 0.95057 0.0
C275 C 0.98148 0.484 0.98459 0.0
C276 C 0.94242 0.46863 0.01916 0.0
C277 C 0.84613 0.47641 0.01947 0.0
C278 C 0.96052 0.5225 0.91236 0.0
C279 C 1.00294 0.44477 0.05634 0.0
C280 C 0.20444 0.43485 0.96289 0.0
C281 C 0.27631 0.46182 0.98158 0.0
C282 C 0.10808 0.44191 0.96318 0.0
C283 C 0.0835 0.47632 0.98377 0.0
C284 C 0.15629 0.50353 0.0031 0.0
C285 C 0.25196 0.49604 0.00149 0.0
C286 C 1.03259 0.41262 0.9413 0.0
C287 C 0.13334 0.54025 0.026 0.0
H288 H 0.78344 0.53278 0.92678 0.0
H289 H 0.81629 0.46514 0.04611 0.0
H290 H 1.02012 0.54338 0.92485 0.0
H291 H 0.98978 0.49813 0.89564 0.0
H292 H 0.90419 0.53789 0.88745 0.0
H293 H 0.96202 0.4352 0.08087 0.0
H294 H 1.03135 0.41832 0.04282 0.0
H295 H 0.06554 0.46244 0.07373 0.0
H296 H 0.22365 0.40825 0.94769 0.0
H297 H 0.30807 0.51621 0.01719 0.0
H298 H 0.97728 0.42751 0.91551 0.0
H299 H 0.99577 0.40036 0.96608 0.0
H300 H 0.06331 0.38791 0.92565 0.0
H301 H 0.08399 0.55925 0.00196 0.0
H302 H 0.19863 0.55752 0.04098 0.0
H303 H 0.09611 0.53232 0.05244 0.0
C304 C 0.24421 0.47299 0.46933 0.0
C305 C 0.30013 0.49732 0.50165 0.0
C306 C 0.14783 0.46521 0.46937 0.0
C307 C 0.10769 0.48141 0.50318 0.0
C308 C 0.16529 0.5049 0.53672 0.0
C309 C 0.26049 0.51295 0.53522 0.0
C310 C 0.08839 0.44044 0.43271 0.0
C311 C 0.12628 0.5217 0.57409 0.0
C312 C 0.83698 0.49303 0.48445 0.0
C313 C 0.81254 0.45929 0.50516 0.0
C314 C 0.93281 0.50048 0.48316 0.0
C315 C 1.00558 0.47375 0.50366 0.0
C316 C 0.98089 0.43984 0.52507 0.0
C317 C 0.88438 0.43277 0.525 0.0
C318 C 0.95596 0.5366 0.4593 0.0
C319 C 0.05639 0.41111 0.5482 0.0
H320 H 0.27489 0.46108 0.44325 0.0
H321 H 0.30418 0.53151 0.56046 0.0
H322 H 0.05984 0.41434 0.44685 0.0
H323 H 1.0259 0.45767 0.41447 0.0
H324 H 0.13019 0.43023 0.40879 0.0
H325 H 0.18183 0.5378 0.5987 0.0
H326 H 0.06641 0.54218 0.56063 0.0
H327 H 0.09701 0.49776 0.59142 0.0
H328 H 0.78085 0.5128 0.46789 0.0
H329 H 0.86501 0.40653 0.54082 0.0
H330 H 0.99357 0.52797 0.43323 0.0
H331 H 1.00504 0.5561 0.48287 0.0
H332 H 0.89072 0.55361 0.44368 0.0
H333 H 0.09413 0.39824 0.52409 0.0
H334 H 1.02551 0.38679 0.56439 0.0
H335 H 0.11097 0.42663 0.57376 0.0
C336 C 0.94329 0.00153 0.32222 0.0
C337 C 1.00806 0.98109 0.35519 0.0
C338 C 0.95249 0.00074 0.27806 0.0
C339 C 1.03008 0.98006 0.26733 0.0
C340 C 0.09538 0.95931 0.30085 0.0
C341 C 0.08266 0.95969 0.34433 0.0
C342 C 0.88008 0.0224 0.24304 0.0
C343 C 0.18032 0.93774 0.29112 0.0
C344 C 1.02107 0.95157 0.14794 0.0
C345 C 0.07041 0.98286 0.13406 0.0
C346 C 1.00606 0.95055 0.19107 0.0
C347 C 0.04447 0.98087 0.22133 0.0
C348 C 0.09685 0.01198 0.20764 0.0
C349 C 0.10738 0.01304 0.16375 0.0
C350 C 0.94704 0.91765 0.20389 0.0
C351 C 0.14147 0.04418 0.2393 0.0
H352 H 0.88595 0.01821 0.33104 0.0
H353 H 0.13267 0.94413 0.3702 0.0
H354 H 0.9157 0.04693 0.22953 0.0
H355 H 0.8497 0.00238 0.21504 0.0
H356 H 0.82037 0.03465 0.25622 0.0
H357 H 0.22389 0.92283 0.32092 0.0
H358 H 0.15573 0.9154 0.2649 0.0
H359 H 0.22698 0.95875 0.27848 0.0
H360 H 0.99091 0.9287 0.12444 0.0
H361 H 0.145 0.03732 0.15264 0.0
H362 H 0.88445 0.93005 0.21465 0.0
H363 H 0.99028 0.90102 0.23234 0.0
H364 H 0.92053 0.89684 0.17613 0.0
H365 H 0.08465 0.06096 0.25019 0.0
H366 H 0.18438 0.065 0.22412 0.0
H367 H 0.1887 0.03119 0.26937 0.0
C368 C 0.11113 0.96741 0.84307 0.0
C369 C 0.05131 -0.00776 0.86084 0.0
C370 C 0.10921 0.96779 0.79761 0.0
C371 C 0.04523 -0.00667 0.76907 0.0
C372 C 0.98487 0.01857 0.78677 0.0
C373 C 0.989 0.01788 0.83248 0.0
C374 C 0.17543 0.94072 0.7801 0.0
C375 C 0.91506 0.04595 0.75733 0.0
C376 C 0.0949 0.01773 0.65674 0.0
C377 C 1.03392 -0.00866 0.62877 0.0
C378 C 0.09919 0.01877 0.70246 0.0
C379 C 1.04042 -0.0069 0.72058 0.0
C380 C 0.9779 0.96675 0.69246 0.0
C381 C 0.97572 0.96606 0.64698 0.0
C382 C 0.16737 0.04705 0.73144 0.0
C383 C 0.91345 0.93916 0.71045 0.0
H384 H 0.16009 0.94771 0.86474 0.0
H385 H 0.94226 0.03707 0.84584 0.0
H386 H 0.13275 0.91998 0.75567 0.0
H387 H 0.22096 0.95804 0.76258 0.0
H388 H 0.22278 0.92343 0.80684 0.0
H389 H 0.87361 0.06394 0.77629 0.0
H390 H 0.95405 0.06601 0.73938 0.0
H391 H 0.86393 0.0287 0.732 0.0
H392 H 0.14036 0.03729 0.64305 0.0
H393 H 0.9278 0.94577 0.62564 0.0
H394 H 0.21941 0.03052 0.75709 0.0
H395 H 0.12718 0.06692 0.74901 0.0
H396 H 0.20783 0.06522 0.71219 0.0
H397 H 0.95744 0.91909 0.73524 0.0
H398 H 0.86726 0.92115 0.68401 0.0
H399 H 0.86679 0.95617 0.72765 0.0
C400 C 0.48258 0.50716 0.32921 0.0
C401 C 0.53916 0.48002 0.35759 0.0
C402 C 0.48053 0.50731 0.28377 0.0
C403 C 0.53963 0.48075 0.26701 0.0
C404 C 0.59825 0.45373 0.29594 0.0
C405 C 0.59582 0.45319 0.34088 0.0
C406 C 0.41464 0.53559 0.25369 0.0
C407 C 0.66469 0.42593 0.27959 0.0
C408 C 0.48379 0.45553 0.14455 0.0
C409 C 0.54302 0.48198 0.12891 0.0
C410 C 0.48034 0.4554 0.18937 0.0
C411 C 0.54048 0.4813 0.21924 0.0
C412 C 0.60173 0.50762 0.20348 0.0
C413 C 0.60077 0.50818 0.15815 0.0
C414 C 0.41164 0.42793 0.20465 0.0
C415 C 0.6691 0.53476 0.23455 0.0
H416 H 0.4386 0.52774 0.34249 0.0
H417 H 0.64024 0.43255 0.36328 0.0
H418 H 0.45726 0.55633 0.23837 0.0
H419 H 0.3667 0.51921 0.22634 0.0
H420 H 0.36977 0.55287 0.27165 0.0
H421 H 0.7082 0.40784 0.30674 0.0
H422 H 0.6227 0.40595 0.25407 0.0
H423 H 0.71397 0.44284 0.26372 0.0
H424 H 0.43856 0.43561 0.12146 0.0
H425 H 0.64672 0.52846 0.14566 0.0
H426 H 0.36388 0.44493 0.22128 0.0
H427 H 0.45202 0.40684 0.22928 0.0
H428 H 0.36659 0.41105 0.1768 0.0
H429 H 0.62765 0.55531 0.25069 0.0
H430 H 0.7148 0.55225 0.21721 0.0
H431 H 0.71625 0.51739 0.26123 0.0
C432 C 0.61484 0.51304 0.65918 0.0
C433 C 0.56218 0.4846 0.63088 0.0
C434 C 0.61038 0.51521 0.70388 0.0
C435 C 0.55165 0.48841 0.72048 0.0
C436 C 0.49818 0.45975 0.69209 0.0
C437 C 0.50424 0.45814 0.64771 0.0
C438 C 0.66879 0.54602 0.73339 0.0
C439 C 0.43474 0.43065 0.70863 0.0
C440 C 0.60515 0.46497 0.84303 0.0
C441 C 0.53531 0.48719 0.85723 0.0
C442 C 0.61258 0.46586 0.79882 0.0
C443 C 0.54815 0.48931 0.76792 0.0
C444 C 0.47809 0.51217 0.78202 0.0
C445 C 0.47277 0.51098 0.82666 0.0
C446 C 0.6887 0.44129 0.7851 0.0
C447 C 0.40789 0.53735 0.7498 0.0
H448 H 0.65963 0.53365 0.64648 0.0
H449 H 0.46272 0.43618 0.62614 0.0
H450 H 0.62103 0.56491 0.74803 0.0
H451 H 0.71994 0.53164 0.76126 0.0
H452 H 0.70987 0.56501 0.71521 0.0
H453 H 0.39604 0.41079 0.68197 0.0
H454 H 0.47859 0.41242 0.73548 0.0
H455 H 0.38117 0.4465 0.72285 0.0
H456 H 0.65479 0.44693 0.86654 0.0
H457 H 0.41882 0.52827 0.83744 0.0
H458 H 0.73388 0.46007 0.76888 0.0
H459 H 0.65432 0.41886 0.76054 0.0
H460 H 0.73592 0.42603 0.81365 0.0
H461 H 0.44709 0.55823 0.73288 0.0
H462 H 0.35981 0.55434 0.76632 0.0
H463 H 0.36315 0.51852 0.72381 0.0
loop_
_geom_bond_atom_site_label_1
_geom_bond_atom_site_label_2
_geom_bond_distance
_geom_bond_site_symmetry_2
_ccdc_geom_bond_type
Tb0 O3 2.453 . S
Tb0 O4 2.596 1_545 S
Tb0 O5 2.374 1_454 S
Tb0 O13 2.343 1_454 S
Tb0 O15 2.353 . S
Tb0 O17 2.427 1_455 S
Tb0 O18 2.513 1_454 S
C1 O5 1.251 . S
C1 O7 1.263 1_545 S
Tb2 O4 2.343 1_656 S
Tb2 O7 2.353 . S
Tb2 O10 2.427 1_655 S
Tb2 O11 2.513 1_656 S
Tb2 O12 2.453 . S
Tb2 O13 2.596 1_565 S
Tb2 O14 2.374 1_656 S
O3 Tb0 2.453 . S
O3 C19 1.245 . S
O4 Tb0 2.596 1_565 S
O4 Tb2 2.343 1_454 S
O4 C19 1.259 1_565 S
O5 Tb0 2.374 1_656 S
O5 C1 1.251 . S
C6 O10 1.275 1_554 S
C6 O11 1.246 . S
O7 C1 1.263 1_565 S
O7 Tb2 2.353 . S
C8 O12 1.245 . S
C8 O13 1.259 1_565 S
C9 O14 1.250 . S
C9 O15 1.263 1_565 S
O10 Tb2 2.427 1_455 S
O10 C6 1.275 1_556 S
O11 Tb2 2.513 1_454 S
O11 C6 1.246 . S
O12 Tb2 2.453 . S
O12 C8 1.245 . S
O13 Tb0 2.343 1_656 S
O13 Tb2 2.596 1_545 S
O13 C8 1.259 1_545 S
O14 Tb2 2.374 1_454 S
O14 C9 1.250 . S
O15 Tb0 2.353 . S
O15 C9 1.263 1_545 S
C16 O17 1.275 1_556 S
C16 O18 1.246 . S
O17 Tb0 2.427 1_655 S
O17 C16 1.275 1_554 S
O18 Tb0 2.513 1_656 S
O18 C16 1.246 . S
C19 O3 1.245 . S
C19 O4 1.259 1_545 S
Tb20 O23 2.453 . S
Tb20 O24 2.596 1_545 S
Tb20 O25 2.374 1_655 S
Tb20 O33 2.343 1_655 S
Tb20 O35 2.353 . S
Tb20 O37 2.427 1_655 S
Tb20 O38 2.513 1_655 S
C21 O25 1.251 . S
C21 O27 1.263 1_545 S
Tb22 O24 2.343 1_455 S
Tb22 O27 2.353 . S
Tb22 O30 2.427 1_455 S
Tb22 O31 2.513 1_455 S
Tb22 O32 2.453 . S
Tb22 O33 2.596 1_565 S
Tb22 O34 2.374 1_455 S
O23 Tb20 2.453 . S
O23 C39 1.245 . S
O24 Tb20 2.596 1_565 S
O24 Tb22 2.343 1_655 S
O24 C39 1.259 1_565 S
O25 Tb20 2.374 1_455 S
O25 C21 1.251 . S
C26 O30 1.275 . S
C26 O31 1.246 . S
O27 C21 1.263 1_565 S
O27 Tb22 2.353 . S
C28 O32 1.245 . S
C28 O33 1.259 1_565 S
C29 O34 1.250 . S
C29 O35 1.263 1_565 S
O30 Tb22 2.427 1_655 S
O30 C26 1.275 . S
O31 Tb22 2.513 1_655 S
O31 C26 1.246 . S
O32 Tb22 2.453 . S
O32 C28 1.245 . S
O33 Tb20 2.343 1_455 S
O33 Tb22 2.596 1_545 S
O33 C28 1.259 1_545 S
O34 Tb22 2.374 1_655 S
O34 C29 1.250 . S
O35 Tb20 2.353 . S
O35 C29 1.263 1_545 S
C36 O37 1.275 . S
C36 O38 1.246 . S
O37 Tb20 2.427 1_455 S
O37 C36 1.275 . S
O38 Tb20 2.513 1_455 S
O38 C36 1.246 . S
C39 O23 1.245 . S
C39 O24 1.259 1_545 S
Tb40 O43 2.453 . S
Tb40 O44 2.596 . S
Tb40 O45 2.374 1_554 S
Tb40 O53 2.343 1_554 S
Tb40 O55 2.353 . S
Tb40 O57 2.427 . S
Tb40 O58 2.513 1_554 S
C41 O45 1.251 . S
C41 O47 1.263 . S
Tb42 O44 2.343 1_556 S
Tb42 O47 2.353 . S
Tb42 O50 2.427 . S
Tb42 O51 2.513 1_556 S
Tb42 O52 2.453 . S
Tb42 O53 2.596 . S
Tb42 O54 2.374 1_556 S
O43 Tb40 2.453 . S
O43 C59 1.245 . S
O44 Tb40 2.596 . S
O44 Tb42 2.343 1_554 S
O44 C59 1.259 . S
O45 Tb40 2.374 1_556 S
O45 C41 1.251 . S
C46 O50 1.275 1_554 S
C46 O51 1.246 . S
O47 C41 1.263 . S
O47 Tb42 2.353 . S
C48 O52 1.245 . S
C48 O53 1.259 . S
C49 O54 1.250 . S
C49 O55 1.263 . S
O50 Tb42 2.427 . S
O50 C46 1.275 1_556 S
O51 Tb42 2.513 1_554 S
O51 C46 1.246 . S
O52 Tb42 2.453 . S
O52 C48 1.245 . S
O53 Tb40 2.343 1_556 S
O53 Tb42 2.596 . S
O53 C48 1.259 . S
O54 Tb42 2.374 1_554 S
O54 C49 1.250 . S
O55 Tb40 2.353 . S
O55 C49 1.263 . S
C56 O57 1.275 1_556 S
C56 O58 1.246 . S
O57 Tb40 2.427 . S
O57 C56 1.275 1_554 S
O58 Tb40 2.513 1_556 S
O58 C56 1.246 . S
C59 O43 1.245 . S
C59 O44 1.259 . S
Tb60 O63 2.453 . S
Tb60 O64 2.596 . S
Tb60 O65 2.374 . S
Tb60 O73 2.343 . S
Tb60 O75 2.353 . S
Tb60 O77 2.427 . S
Tb60 O78 2.513 . S
C61 O65 1.251 . S
C61 O67 1.263 . S
Tb62 O64 2.343 . S
Tb62 O67 2.353 . S
Tb62 O70 2.427 . S
Tb62 O71 2.513 . S
Tb62 O72 2.453 . S
Tb62 O73 2.596 . S
Tb62 O74 2.374 . S
O63 Tb60 2.453 . S
O63 C79 1.245 . S
O64 Tb60 2.596 . S
O64 Tb62 2.343 . S
O64 C79 1.259 . S
O65 Tb60 2.374 . S
O65 C61 1.251 . S
C66 O70 1.275 . S
C66 O71 1.246 . S
O67 C61 1.263 . S
O67 Tb62 2.353 . S
C68 O72 1.245 . S
C68 O73 1.259 . S
C69 O74 1.250 . S
C69 O75 1.263 . S
O70 Tb62 2.427 . S
O70 C66 1.275 . S
O71 Tb62 2.513 . S
O71 C66 1.246 . S
O72 Tb62 2.453 . S
O72 C68 1.245 . S
O73 Tb60 2.343 . S
O73 Tb62 2.596 . S
O73 C68 1.259 . S
O74 Tb62 2.374 . S
O74 C69 1.250 . S
O75 Tb60 2.353 . S
O75 C69 1.263 . S
C76 O77 1.275 . S
C76 O78 1.246 . S
O77 Tb60 2.427 . S
O77 C76 1.275 . S
O78 Tb60 2.513 . S
O78 C76 1.246 . S
C79 O63 1.245 . S
C79 O64 1.259 . S
C80 C81 1.391 . S
C80 C82 1.394 . S
C80 H96 0.931 . S
C81 C80 1.391 . S
C81 C85 1.376 1_554 S
C82 C80 1.394 . S
C82 C83 1.369 . S
C82 C86 1.531 . S
C83 C82 1.369 . S
C83 C84 1.410 1_554 S
C83 C91 1.503 . S
C84 C83 1.410 1_556 S
C84 C85 1.392 . S
C84 C87 1.511 . S
C85 C81 1.376 1_556 S
C85 C84 1.392 . S
C85 H97 0.929 . S
C86 C82 1.531 . S
C86 H98 0.960 . S
C86 H99 0.962 . S
C86 H100 0.960 . S
C87 C84 1.511 . S
C87 H101 0.961 . S
C87 H102 0.961 . S
C87 H103 0.961 1_556 S
C88 C89 1.370 1_556 S
C88 C90 1.363 . S
C88 H104 0.931 . S
C89 C88 1.370 1_554 S
C89 C93 1.408 . S
C90 C88 1.363 . S
C90 C91 1.370 1_556 S
C90 C94 1.524 . S
C91 C83 1.503 . S
C91 C90 1.370 1_554 S
C91 C92 1.403 . S
C92 C91 1.403 . S
C92 C93 1.404 . S
C92 C95 1.539 . S
C93 C89 1.408 . S
C93 C92 1.404 . S
C93 H105 0.930 . S
C94 C90 1.524 . S
C94 H106 0.956 . S
C94 H107 0.961 . S
C94 H108 0.961 . S
C95 C92 1.539 . S
C95 H109 0.958 . S
C95 H110 0.961 . S
C95 H111 0.960 . S
H96 C80 0.931 . S
H97 C85 0.929 . S
H98 C86 0.960 . S
H99 C86 0.962 . S
H100 C86 0.960 . S
H101 C87 0.961 . S
H102 C87 0.961 . S
H103 C87 0.961 1_554 S
H104 C88 0.931 . S
H105 C93 0.930 . S
H106 C94 0.956 . S
H107 C94 0.961 . S
H108 C94 0.961 . S
H109 C95 0.958 . S
H110 C95 0.961 . S
H111 C95 0.960 . S
C112 C113 1.391 . S
C112 C114 1.394 . S
C112 H128 0.931 . S
C113 C112 1.391 . S
C113 C117 1.376 1_556 S
C114 C112 1.394 . S
C114 C115 1.369 . S
C114 C118 1.531 . S
C115 C114 1.369 . S
C115 C116 1.410 1_556 S
C115 C123 1.503 . S
C116 C115 1.410 1_554 S
C116 C117 1.392 . S
C116 C119 1.511 . S
C117 C113 1.376 1_554 S
C117 C116 1.392 . S
C117 H129 0.929 . S
C118 C114 1.531 . S
C118 H130 0.960 . S
C118 H131 0.962 . S
C118 H132 0.960 . S
C119 C116 1.511 . S
C119 H133 0.961 . S
C119 H134 0.961 . S
C119 H135 0.961 1_554 S
C120 C121 1.370 1_554 S
C120 C122 1.363 . S
C120 H136 0.931 . S
C121 C120 1.370 1_556 S
C121 C125 1.408 . S
C122 C120 1.363 . S
C122 C123 1.370 1_554 S
C122 C126 1.524 . S
C123 C115 1.503 . S
C123 C122 1.370 1_556 S
C123 C124 1.403 . S
C124 C123 1.403 . S
C124 C125 1.404 . S
C124 C127 1.539 . S
C125 C121 1.408 . S
C125 C124 1.404 . S
C125 H137 0.930 . S
C126 C122 1.524 . S
C126 H138 0.956 . S
C126 H139 0.961 . S
C126 H140 0.961 . S
C127 C124 1.539 . S
C127 H141 0.958 . S
C127 H142 0.961 . S
C127 H143 0.960 . S
H128 C112 0.931 . S
H129 C117 0.929 . S
H130 C118 0.960 . S
H131 C118 0.962 . S
H132 C118 0.960 . S
H133 C119 0.961 . S
H134 C119 0.961 . S
H135 C119 0.961 1_556 S
H136 C120 0.931 . S
H137 C125 0.930 . S
H138 C126 0.956 . S
H139 C126 0.961 . S
H140 C126 0.961 . S
H141 C127 0.958 . S
H142 C127 0.961 . S
H143 C127 0.960 . S
C144 C145 1.391 . S
C144 C146 1.394 . S
C144 H160 0.931 . S
C145 C144 1.391 . S
C145 C149 1.376 . S
C146 C144 1.394 . S
C146 C147 1.369 . S
C146 C150 1.531 . S
C147 C146 1.369 . S
C147 C148 1.410 . S
C147 C155 1.503 . S
C148 C147 1.410 . S
C148 C149 1.392 . S
C148 C151 1.511 . S
C149 C145 1.376 . S
C149 C148 1.392 . S
C149 H161 0.929 . S
C150 C146 1.531 . S
C150 H162 0.960 . S
C150 H163 0.962 . S
C150 H164 0.960 . S
C151 C148 1.511 . S
C151 H165 0.961 . S
C151 H166 0.961 . S
C151 H167 0.961 . S
C152 C153 1.370 . S
C152 C154 1.363 . S
C152 H168 0.931 . S
C153 C152 1.370 . S
C153 C157 1.408 . S
C154 C152 1.363 . S
C154 C155 1.370 . S
C154 C158 1.524 . S
C155 C147 1.503 . S
C155 C154 1.370 . S
C155 C156 1.403 . S
C156 C155 1.403 . S
C156 C157 1.404 . S
C156 C159 1.539 . S
C157 C153 1.408 . S
C157 C156 1.404 . S
C157 H169 0.930 . S
C158 C154 1.524 . S
C158 H170 0.956 . S
C158 H171 0.961 . S
C158 H172 0.961 . S
C159 C156 1.539 . S
C159 H173 0.958 . S
C159 H174 0.961 . S
C159 H175 0.960 . S
H160 C144 0.931 . S
H161 C149 0.929 . S
H162 C150 0.960 . S
H163 C150 0.962 . S
H164 C150 0.960 . S
H165 C151 0.961 . S
H166 C151 0.961 . S
H167 C151 0.961 . S
H168 C152 0.931 . S
H169 C157 0.930 . S
H170 C158 0.956 . S
H171 C158 0.961 . S
H172 C158 0.961 . S
H173 C159 0.958 . S
H174 C159 0.961 . S
H175 C159 0.960 . S
C176 C177 1.391 . S
C176 C178 1.394 . S
C176 H192 0.931 . S
C177 C176 1.391 . S
C177 C181 1.376 . S
C178 C176 1.394 . S
C178 C179 1.369 . S
C178 C182 1.531 . S
C179 C178 1.369 . S
C179 C180 1.410 . S
C179 C187 1.503 . S
C180 C179 1.410 . S
C180 C181 1.392 . S
C180 C183 1.511 . S
C181 C177 1.376 . S
C181 C180 1.392 . S
C181 H193 0.929 . S
C182 C178 1.531 . S
C182 H194 0.960 . S
C182 H195 0.962 . S
C182 H196 0.960 . S
C183 C180 1.511 . S
C183 H197 0.961 . S
C183 H198 0.961 . S
C183 H199 0.961 . S
C184 C185 1.370 . S
C184 C186 1.363 . S
C184 H200 0.931 . S
C185 C184 1.370 . S
C185 C189 1.408 . S
C186 C184 1.363 . S
C186 C187 1.370 . S
C186 C190 1.524 . S
C187 C179 1.503 . S
C187 C186 1.370 . S
C187 C188 1.403 . S
C188 C187 1.403 . S
C188 C189 1.404 . S
C188 C191 1.539 . S
C189 C185 1.408 . S
C189 C188 1.404 . S
C189 H201 0.930 . S
C190 C186 1.524 . S
C190 H202 0.956 . S
C190 H203 0.961 . S
C190 H204 0.961 . S
C191 C188 1.539 . S
C191 H205 0.958 . S
C191 H206 0.961 . S
C191 H207 0.960 . S
H192 C176 0.931 . S
H193 C181 0.929 . S
H194 C182 0.960 . S
H195 C182 0.962 . S
H196 C182 0.960 . S
H197 C183 0.961 . S
H198 C183 0.961 . S
H199 C183 0.961 . S
H200 C184 0.931 . S
H201 C189 0.930 . S
H202 C190 0.956 . S
H203 C190 0.961 . S
H204 C190 0.961 . S
H205 C191 0.958 . S
H206 C191 0.961 . S
H207 C191 0.960 . S
C208 C209 1.391 1_545 S
C208 C210 1.394 . S
C208 H224 0.931 . S
C209 C208 1.391 1_565 S
C209 C213 1.376 1_554 S
C210 C208 1.394 . S
C210 C211 1.369 1_545 S
C210 C214 1.531 . S
C211 C210 1.369 1_565 S
C211 C212 1.410 1_554 S
C211 C219 1.503 . S
C212 C211 1.410 1_556 S
C212 C213 1.392 . S
C212 C215 1.511 . S
C213 C209 1.376 1_556 S
C213 C212 1.392 . S
C213 H225 0.929 . S
C214 C210 1.531 . S
C214 H226 0.960 . S
C214 H227 0.962 . S
C214 H228 0.960 . S
C215 C212 1.511 . S
C215 H229 0.961 . S
C215 H230 0.961 . S
C215 H231 0.961 . S
C216 C217 1.370 1_556 S
C216 C218 1.363 . S
C216 H232 0.931 . S
C217 C216 1.370 1_554 S
C217 C221 1.408 1_545 S
C218 C216 1.363 . S
C218 C219 1.370 1_546 S
C218 C222 1.524 . S
C219 C211 1.503 . S
C219 C218 1.370 1_564 S
C219 C220 1.403 . S
C220 C219 1.403 . S
C220 C221 1.404 . S
C220 C223 1.539 . S
C221 C217 1.408 1_565 S
C221 C220 1.404 . S
C221 H233 0.930 . S
C222 C218 1.524 . S
C222 H234 0.956 . S
C222 H235 0.961 . S
C222 H236 0.961 . S
C223 C220 1.539 . S
C223 H237 0.958 . S
C223 H238 0.961 . S
C223 H239 0.960 . S
H224 C208 0.931 . S
H225 C213 0.929 . S
H226 C214 0.960 . S
H227 C214 0.962 . S
H228 C214 0.960 . S
H229 C215 0.961 . S
H230 C215 0.961 . S
H231 C215 0.961 . S
H232 C216 0.931 . S
H233 C221 0.930 . S
H234 C222 0.956 . S
H235 C222 0.961 . S
H236 C222 0.961 . S
H237 C223 0.958 . S
H238 C223 0.961 . S
H239 C223 0.960 . S
C240 C241 1.392 . S
C240 C242 1.391 1_545 S
C240 H256 0.932 . S
C241 C240 1.392 . S
C241 C245 1.376 1_545 S
C242 C240 1.391 1_565 S
C242 C243 1.369 . S
C242 C246 1.531 . S
C243 C242 1.369 . S
C243 C244 1.410 . S
C243 C251 1.503 . S
C244 C243 1.410 . S
C244 C245 1.392 . S
C244 C247 1.511 . S
C245 C241 1.376 1_565 S
C245 C244 1.392 . S
C245 H257 0.929 . S
C246 C242 1.531 . S
C246 H258 0.960 . S
C246 H259 0.962 1_565 S
C246 H260 0.960 . S
C247 C244 1.511 . S
C247 H261 0.961 1_565 S
C247 H262 0.973 . S
C247 H263 0.961 . S
C248 C249 1.370 1_545 S
C248 C250 1.363 . S
C248 H264 0.931 . S
C249 C248 1.370 1_565 S
C249 C253 1.408 . S
C250 C248 1.363 . S
C250 C251 1.370 1_545 S
C250 C254 1.524 . S
C251 C243 1.503 . S
C251 C250 1.370 1_565 S
C251 C252 1.403 . S
C252 C251 1.403 . S
C252 C253 1.404 . S
C252 C255 1.539 . S
C253 C249 1.408 . S
C253 C252 1.404 . S
C253 H265 0.930 . S
C254 C250 1.524 . S
C254 H266 0.956 . S
C254 H267 0.961 . S
C254 H268 0.961 . S
C255 C252 1.539 . S
C255 H269 0.958 . S
C255 H270 0.961 . S
C255 H271 0.960 . S
H256 C240 0.932 . S
H257 C245 0.929 . S
H258 C246 0.960 . S
H259 C246 0.962 1_545 S
H260 C246 0.960 . S
H261 C247 0.961 1_545 S
H262 C247 0.973 . S
H263 C247 0.961 . S
H264 C248 0.931 . S
H265 C253 0.930 . S
H266 C254 0.956 . S
H267 C254 0.961 . S
H268 C254 0.961 . S
H269 C255 0.958 . S
H270 C255 0.961 . S
H271 C255 0.960 . S
C272 C273 1.406 . S
C272 C274 1.394 . S
C272 H288 0.931 . S
C273 C272 1.406 . S
C273 C277 1.365 1_556 S
C274 C272 1.394 . S
C274 C275 1.364 1_556 S
C274 C278 1.531 . S
C275 C274 1.364 1_554 S
C275 C276 1.416 . S
C275 C283 1.507 1_655 S
C276 C275 1.416 . S
C276 C277 1.392 . S
C276 C279 1.511 . S
C277 C273 1.365 1_554 S
C277 C276 1.392 . S
C277 H289 0.929 . S
C278 C274 1.531 . S
C278 H290 0.960 . S
C278 H291 0.962 . S
C278 H292 0.960 . S
C279 C276 1.511 . S
C279 H293 0.961 . S
C279 H294 0.961 1_655 S
C279 H295 0.961 1_655 S
C280 C281 1.370 1_556 S
C280 C282 1.363 . S
C280 H296 0.931 . S
C281 C280 1.370 1_554 S
C281 C285 1.408 . S
C282 C280 1.363 . S
C282 C283 1.366 1_556 S
C282 C286 1.524 . S
C283 C275 1.507 1_455 S
C283 C282 1.366 1_554 S
C283 C284 1.402 . S
C284 C283 1.402 . S
C284 C285 1.404 . S
C284 C287 1.539 . S
C285 C281 1.408 . S
C285 C284 1.404 . S
C285 H297 0.930 . S
C286 C282 1.524 . S
C286 H298 0.956 1_455 S
C286 H299 0.961 1_556 S
C286 H300 0.961 . S
C287 C284 1.539 . S
C287 H301 0.958 1_554 S
C287 H302 0.961 . S
C287 H303 0.960 . S
H288 C272 0.931 . S
H289 C277 0.929 . S
H290 C278 0.960 . S
H291 C278 0.962 . S
H292 C278 0.960 . S
H293 C279 0.961 . S
H294 C279 0.961 1_455 S
H295 C279 0.961 1_455 S
H296 C280 0.931 . S
H297 C285 0.930 . S
H298 C286 0.956 1_655 S
H299 C286 0.961 1_554 S
H300 C286 0.961 . S
H301 C287 0.958 1_556 S
H302 C287 0.961 . S
H303 C287 0.960 . S
C304 C305 1.391 . S
C304 C306 1.394 . S
C304 H320 0.931 . S
C305 C304 1.391 . S
C305 C309 1.376 . S
C306 C304 1.394 . S
C306 C307 1.369 . S
C306 C310 1.531 . S
C307 C306 1.369 . S
C307 C308 1.410 . S
C307 C315 1.503 1_455 S
C308 C307 1.410 . S
C308 C309 1.392 . S
C308 C311 1.511 . S
C309 C305 1.376 . S
C309 C308 1.392 . S
C309 H321 0.929 . S
C310 C306 1.531 . S
C310 H322 0.960 1_455 S
C310 H323 0.962 1_455 S
C310 H324 0.960 . S
C311 C308 1.511 . S
C311 H325 0.961 . S
C311 H326 0.961 . S
C311 H327 0.961 . S
C312 C313 1.370 . S
C312 C314 1.363 . S
C312 H328 0.931 . S
C313 C312 1.370 . S
C313 C317 1.408 . S
C314 C312 1.363 . S
C314 C315 1.370 . S
C314 C318 1.524 . S
C315 C307 1.503 1_655 S
C315 C314 1.370 . S
C315 C316 1.403 . S
C316 C315 1.403 . S
C316 C317 1.404 . S
C316 C319 1.539 . S
C317 C313 1.408 . S
C317 C316 1.404 . S
C317 H329 0.930 . S
C318 C314 1.524 . S
C318 H330 0.956 . S
C318 H331 0.961 1_655 S
C318 H332 0.961 . S
C319 C316 1.539 . S
C319 H333 0.958 . S
C319 H334 0.961 . S
C319 H335 0.960 1_655 S
H320 C304 0.931 . S
H321 C309 0.929 . S
H322 C310 0.960 1_655 S
H323 C310 0.962 1_655 S
H324 C310 0.960 . S
H325 C311 0.961 . S
H326 C311 0.961 . S
H327 C311 0.961 . S
H328 C312 0.931 . S
H329 C317 0.930 . S
H330 C318 0.956 . S
H331 C318 0.961 1_455 S
H332 C318 0.961 . S
H333 C319 0.958 . S
H334 C319 0.961 . S
H335 C319 0.960 1_455 S
C336 C337 1.391 1_655 S
C336 C338 1.394 . S
C336 H352 0.931 . S
C337 C336 1.391 1_455 S
C337 C341 1.376 1_545 S
C338 C336 1.394 . S
C338 C339 1.369 1_655 S
C338 C342 1.531 . S
C339 C338 1.369 1_455 S
C339 C340 1.410 1_545 S
C339 C347 1.503 . S
C340 C339 1.410 1_565 S
C340 C341 1.392 . S
C340 C343 1.511 . S
C341 C337 1.376 1_565 S
C341 C340 1.392 . S
C341 H353 0.929 . S
C342 C338 1.531 . S
C342 H354 0.960 . S
C342 H355 0.962 . S
C342 H356 0.960 . S
C343 C340 1.511 . S
C343 H357 0.961 . S
C343 H358 0.961 . S
C343 H359 0.961 . S
C344 C345 1.379 1_655 S
C344 C346 1.363 . S
C344 H360 0.931 . S
C345 C344 1.379 1_455 S
C345 C349 1.398 1_565 S
C346 C344 1.363 . S
C346 C347 1.370 1_665 S
C346 C350 1.524 . S
C347 C339 1.503 . S
C347 C346 1.370 1_445 S
C347 C348 1.403 . S
C348 C347 1.403 . S
C348 C349 1.404 . S
C348 C351 1.539 . S
C349 C345 1.398 1_545 S
C349 C348 1.404 . S
C349 H361 0.930 . S
C350 C346 1.524 . S
C350 H362 0.956 . S
C350 H363 0.961 . S
C350 H364 0.961 . S
C351 C348 1.539 . S
C351 H365 0.958 . S
C351 H366 0.961 . S
C351 H367 0.960 . S
H352 C336 0.931 . S
H353 C341 0.929 . S
H354 C342 0.960 . S
H355 C342 0.962 . S
H356 C342 0.960 . S
H357 C343 0.961 . S
H358 C343 0.961 . S
H359 C343 0.961 . S
H360 C344 0.931 . S
H361 C349 0.930 . S
H362 C350 0.956 . S
H363 C350 0.961 . S
H364 C350 0.961 . S
H365 C351 0.958 . S
H366 C351 0.961 . S
H367 C351 0.960 . S
C368 C369 1.391 1_455 S
C368 C370 1.394 . S
C368 H384 0.931 . S
C369 C368 1.391 1_655 S
C369 C373 1.376 1_565 S
C370 C368 1.394 . S
C370 C371 1.369 1_455 S
C370 C374 1.531 . S
C371 C370 1.369 1_655 S
C371 C372 1.410 1_565 S
C371 C379 1.503 . S
C372 C371 1.410 1_545 S
C372 C373 1.392 . S
C372 C375 1.511 . S
C373 C369 1.376 1_545 S
C373 C372 1.392 . S
C373 H385 0.929 . S
C374 C370 1.531 . S
C374 H386 0.960 . S
C374 H387 0.962 . S
C374 H388 0.960 . S
C375 C372 1.511 . S
C375 H389 0.961 . S
C375 H390 0.961 . S
C375 H391 0.961 . S
C376 C377 1.383 1_455 S
C376 C378 1.363 . S
C376 H392 0.931 . S
C377 C376 1.383 1_655 S
C377 C381 1.394 1_545 S
C378 C376 1.363 . S
C378 C379 1.370 1_445 S
C378 C382 1.524 . S
C379 C371 1.503 . S
C379 C378 1.370 1_665 S
C379 C380 1.403 . S
C380 C379 1.403 . S
C380 C381 1.404 . S
C380 C383 1.539 . S
C381 C377 1.394 1_565 S
C381 C380 1.404 . S
C381 H393 0.930 . S
C382 C378 1.524 . S
C382 H394 0.956 . S
C382 H395 0.961 . S
C382 H396 0.961 . S
C383 C380 1.539 . S
C383 H397 0.958 . S
C383 H398 0.961 . S
C383 H399 0.960 . S
H384 C368 0.931 . S
H385 C373 0.929 . S
H386 C374 0.960 . S
H387 C374 0.962 . S
H388 C374 0.960 . S
H389 C375 0.961 . S
H390 C375 0.961 . S
H391 C375 0.961 . S
H392 C376 0.931 . S
H393 C381 0.930 . S
H394 C382 0.956 . S
H395 C382 0.961 . S
H396 C382 0.961 . S
H397 C383 0.958 . S
H398 C383 0.961 . S
H399 C383 0.960 . S
C400 C401 1.391 . S
C400 C402 1.394 . S
C400 H416 0.931 . S
C401 C400 1.391 . S
C401 C405 1.376 . S
C402 C400 1.394 . S
C402 C403 1.369 . S
C402 C406 1.531 . S
C403 C402 1.369 . S
C403 C404 1.410 . S
C403 C411 1.503 . S
C404 C403 1.410 . S
C404 C405 1.392 . S
C404 C407 1.511 . S
C405 C401 1.376 . S
C405 C404 1.392 . S
C405 H417 0.929 . S
C406 C402 1.531 . S
C406 H418 0.960 . S
C406 H419 0.962 . S
C406 H420 0.960 . S
C407 C404 1.511 . S
C407 H421 0.961 . S
C407 H422 0.961 . S
C407 H423 0.961 . S
C408 C409 1.370 . S
C408 C410 1.363 . S
C408 H424 0.931 . S
C409 C408 1.370 . S
C409 C413 1.408 . S
C410 C408 1.363 . S
C410 C411 1.370 . S
C410 C414 1.524 . S
C411 C403 1.503 . S
C411 C410 1.370 . S
C411 C412 1.403 . S
C412 C411 1.403 . S
C412 C413 1.404 . S
C412 C415 1.539 . S
C413 C409 1.408 . S
C413 C412 1.404 . S
C413 H425 0.930 . S
C414 C410 1.524 . S
C414 H426 0.956 . S
C414 H427 0.961 . S
C414 H428 0.961 . S
C415 C412 1.539 . S
C415 H429 0.958 . S
C415 H430 0.961 . S
C415 H431 0.960 . S
H416 C400 0.931 . S
H417 C405 0.929 . S
H418 C406 0.960 . S
H419 C406 0.962 . S
H420 C406 0.960 . S
H421 C407 0.961 . S
H422 C407 0.961 . S
H423 C407 0.961 . S
H424 C408 0.931 . S
H425 C413 0.930 . S
H426 C414 0.956 . S
H427 C414 0.961 . S
H428 C414 0.961 . S
H429 C415 0.958 . S
H430 C415 0.961 . S
H431 C415 0.960 . S
C432 C433 1.391 . S
C432 C434 1.394 . S
C432 H448 0.931 . S
C433 C432 1.391 . S
C433 C437 1.376 . S
C434 C432 1.394 . S
C434 C435 1.369 . S
C434 C438 1.531 . S
C435 C434 1.369 . S
C435 C436 1.410 . S
C435 C443 1.503 . S
C436 C435 1.410 . S
C436 C437 1.392 . S
C436 C439 1.511 . S
C437 C433 1.376 . S
C437 C436 1.392 . S
C437 H449 0.929 . S
C438 C434 1.531 . S
C438 H450 0.960 . S
C438 H451 0.962 . S
C438 H452 0.960 . S
C439 C436 1.511 . S
C439 H453 0.961 . S
C439 H454 0.961 . S
C439 H455 0.961 . S
C440 C441 1.370 . S
C440 C442 1.363 . S
C440 H456 0.931 . S
C441 C440 1.370 . S
C441 C445 1.408 . S
C442 C440 1.363 . S
C442 C443 1.370 . S
C442 C446 1.524 . S
C443 C435 1.503 . S
C443 C442 1.370 . S
C443 C444 1.403 . S
C444 C443 1.403 . S
C444 C445 1.404 . S
C444 C447 1.539 . S
C445 C441 1.408 . S
C445 C444 1.404 . S
C445 H457 0.930 . S
C446 C442 1.524 . S
C446 H458 0.956 . S
C446 H459 0.961 . S
C446 H460 0.961 . S
C447 C444 1.539 . S
C447 H461 0.958 . S
C447 H462 0.961 . S
C447 H463 0.960 . S
H448 C432 0.931 . S
H449 C437 0.929 . S
H450 C438 0.960 . S
H451 C438 0.962 . S
H452 C438 0.960 . S
H453 C439 0.961 . S
H454 C439 0.961 . S
H455 C439 0.961 . S
H456 C440 0.931 . S
H457 C445 0.930 . S
H458 C446 0.956 . S
H459 C446 0.961 . S
H460 C446 0.961 . S
H461 C447 0.958 . S
H462 C447 0.961 . S
H463 C447 0.960 . S
C81 C56 1.470 1_554 S
C89 C6 1.489 . S
C113 C46 1.490 1_556 S
C121 C16 1.478 . S
C145 C36 1.465 . S
C153 C66 1.490 . S
C177 C26 1.457 . S
C185 C76 1.495 . S
C209 C19 1.799 1_565 S
C217 C8 1.775 1_544 S
C241 C28 1.750 1_545 S
C249 C39 1.796 1_565 S
C273 C59 1.744 1_556 S
C281 C48 1.798 1_554 S
C305 C79 1.812 . S
C313 C68 1.772 . S
C337 C29 1.494 1_445 S
C345 C9 1.481 . S
C369 C1 1.477 1_565 S
C377 C21 1.495 1_655 S
C401 C69 1.496 . S
C409 C49 1.480 . S
C433 C61 1.497 . S
C441 C41 1.483 . S
