# Generated by pormake.
# Topology wme, (6)-cn, num edge types: 1
# Building blocks:
#     Node 0, Type 0, BuildingBlock: KUMJIN_clean_sbu_0, # of connection points: 6
#     Node 1, Type 0, BuildingBlock: KUMJIN_clean_sbu_0, # of connection points: 6
#     Node 2, Type 0, BuildingBlock: KUMJIN_clean_sbu_0, # of connection points: 6
#     Node 3, Type 0, BuildingBlock: KUMJIN_clean_sbu_0, # of connection points: 6
#     Node 4, Type 0, BuildingBlock: KUMJIN_clean_sbu_0, # of connection points: 6
#     Node 5, Type 0, BuildingBlock: KUMJIN_clean_sbu_0, # of connection points: 6
#     Node 6, Type 0, BuildingBlock: KUMJIN_clean_sbu_0, # of connection points: 6
#     Node 7, Type 0, BuildingBlock: KUMJIN_clean_sbu_0, # of connection points: 6
#     Node 8, Type 0, BuildingBlock: KUMJIN_clean_sbu_0, # of connection points: 6
#     Node 9, Type 0, BuildingBlock: KUMJIN_clean_sbu_0, # of connection points: 6
#     Node 10, Type 0, BuildingBlock: KUMJIN_clean_sbu_0, # of connection points: 6
#     Node 11, Type 0, BuildingBlock: KUMJIN_clean_sbu_0, # of connection points: 6
#     Edge 12, Type (0, 0), BuildingBlock: AJUNOK_clean_linker_0, # of connection points: 2
#     Edge 13, Type (0, 0), BuildingBlock: AJUNOK_clean_linker_0, # of connection points: 2
#     Edge 14, Type (0, 0), BuildingBlock: AJUNOK_clean_linker_0, # of connection points: 2
#     Edge 15, Type (0, 0), BuildingBlock: AJUNOK_clean_linker_0, # of connection points: 2
#     Edge 16, Type (0, 0), BuildingBlock: AJUNOK_clean_linker_0, # of connection points: 2
#     Edge 17, Type (0, 0), BuildingBlock: AJUNOK_clean_linker_0, # of connection points: 2
#     Edge 18, Type (0, 0), BuildingBlock: AJUNOK_clean_linker_0, # of connection points: 2
#     Edge 19, Type (0, 0), BuildingBlock: AJUNOK_clean_linker_0, # of connection points: 2
#     Edge 20, Type (0, 0), BuildingBlock: AJUNOK_clean_linker_0, # of connection points: 2
#     Edge 21, Type (0, 0), BuildingBlock: AJUNOK_clean_linker_0, # of connection points: 2
#     Edge 22, Type (0, 0), BuildingBlock: AJUNOK_clean_linker_0, # of connection points: 2
#     Edge 23, Type (0, 0), BuildingBlock: AJUNOK_clean_linker_0, # of connection points: 2
#     Edge 24, Type (0, 0), BuildingBlock: AJUNOK_clean_linker_0, # of connection points: 2
#     Edge 25, Type (0, 0), BuildingBlock: AJUNOK_clean_linker_0, # of connection points: 2
#     Edge 26, Type (0, 0), BuildingBlock: AJUNOK_clean_linker_0, # of connection points: 2
#     Edge 27, Type (0, 0), BuildingBlock: AJUNOK_clean_linker_0, # of connection points: 2
#     Edge 28, Type (0, 0), BuildingBlock: AJUNOK_clean_linker_0, # of connection points: 2
#     Edge 29, Type (0, 0), BuildingBlock: AJUNOK_clean_linker_0, # of connection points: 2
#     Edge 30, Type (0, 0), BuildingBlock: AJUNOK_clean_linker_0, # of connection points: 2
#     Edge 31, Type (0, 0), BuildingBlock: AJUNOK_clean_linker_0, # of connection points: 2
#     Edge 32, Type (0, 0), BuildingBlock: AJUNOK_clean_linker_0, # of connection points: 2
#     Edge 33, Type (0, 0), BuildingBlock: AJUNOK_clean_linker_0, # of connection points: 2
#     Edge 34, Type (0, 0), BuildingBlock: AJUNOK_clean_linker_0, # of connection points: 2
#     Edge 35, Type (0, 0), BuildingBlock: AJUNOK_clean_linker_0, # of connection points: 2
#     Edge 36, Type (0, 0), BuildingBlock: AJUNOK_clean_linker_0, # of connection points: 2
#     Edge 37, Type (0, 0), BuildingBlock: AJUNOK_clean_linker_0, # of connection points: 2
#     Edge 38, Type (0, 0), BuildingBlock: AJUNOK_clean_linker_0, # of connection points: 2
#     Edge 39, Type (0, 0), BuildingBlock: AJUNOK_clean_linker_0, # of connection points: 2
#     Edge 40, Type (0, 0), BuildingBlock: AJUNOK_clean_linker_0, # of connection points: 2
#     Edge 41, Type (0, 0), BuildingBlock: AJUNOK_clean_linker_0, # of connection points: 2
#     Edge 42, Type (0, 0), BuildingBlock: AJUNOK_clean_linker_0, # of connection points: 2
#     Edge 43, Type (0, 0), BuildingBlock: AJUNOK_clean_linker_0, # of connection points: 2
#     Edge 44, Type (0, 0), BuildingBlock: AJUNOK_clean_linker_0, # of connection points: 2
#     Edge 45, Type (0, 0), BuildingBlock: AJUNOK_clean_linker_0, # of connection points: 2
#     Edge 46, Type (0, 0), BuildingBlock: AJUNOK_clean_linker_0, # of connection points: 2
#     Edge 47, Type (0, 0), BuildingBlock: AJUNOK_clean_linker_0, # of connection points: 2
# Relax obj value: 0.091
# Max RMSD: 0.218
# Mean RMSD: 0.218
data_MOF--net-wme--node1-KUMJIN_clean_sbu_0--edge1-AJUNOK_clean_linker_0
_symmetry_space_group_name_H-M    P1
_symmetry_Int_Tables_number       1
_symmetry_cell_setting            triclinic
loop_
_symmetry_equiv_pos_as_xyz
'x, y, z'
_cell_length_a     30.731537
_cell_length_b     30.684968
_cell_length_c     40.172692
_cell_angle_alpha  89.866642
_cell_angle_beta   89.999914
_cell_angle_gamma 119.92945
loop_
_atom_site_label
_atom_site_type_symbol
_atom_site_fract_x
_atom_site_fract_y
_atom_site_fract_z
_atom_type_partial_charge
Eu0 Eu 0.22837 0.39202 0.09774 0.0
C1 C 0.35102 0.36445 0.19077 0.0
C2 C 0.43245 0.39869 0.1643 0.0
C3 C 0.42698 0.4182 0.22214 0.0
C4 C 0.37953 0.37133 0.16239 0.0
C5 C 0.37478 0.38606 0.22128 0.0
C6 C 0.45583 0.42431 0.1937 0.0
C7 C 0.2956 0.33468 0.24909 0.0
N8 N 0.30093 0.33165 0.18949 0.0
C9 C 0.27398 0.31365 0.21842 0.0
C10 C 0.34591 0.37222 0.25041 0.0
Eu11 Eu 0.26694 0.30907 0.13472 0.0
N12 N 0.35593 0.34589 0.1343 0.0
C13 C 0.38299 0.33942 0.10964 0.0
C14 C 0.46035 0.39642 0.13754 0.0
C15 C 0.43545 0.36493 0.11074 0.0
H16 H 0.23501 0.28421 0.21783 0.0
H17 H 0.45661 0.36061 0.09075 0.0
H18 H 0.49637 0.44657 0.19529 0.0
H19 H 0.27346 0.32198 0.27166 0.0
H20 H 0.36469 0.31412 0.08912 0.0
H21 H 0.04724 0.31932 0.15898 0.0
H22 H 0.50102 0.41644 0.1382 0.0
H23 H 0.25861 0.41472 0.01665 0.0
H24 H 0.13834 0.35204 0.15547 0.0
H25 H 0.21665 0.40919 0.96309 0.0
H26 H 0.44571 0.43595 0.24518 0.0
H27 H 0.99814 0.30673 0.10755 0.0
H28 H 0.9982 0.3195 0.04595 0.0
H29 H 0.36272 0.38816 0.27426 0.0
H30 H 0.04488 0.34702 0.9933 0.0
N31 N 0.14028 0.35332 0.10263 0.0
C32 C 0.11711 0.34496 0.13286 0.0
C33 C 0.03797 0.31979 0.10587 0.0
C34 C 0.06257 0.33162 0.07507 0.0
C35 C 0.06551 0.3269 0.13493 0.0
C36 C 0.11435 0.34773 0.07416 0.0
H37 H 0.12507 0.37642 0.96168 0.0
N38 N 0.1905 0.37888 0.04448 0.0
C39 C 0.19465 0.3951 0.98565 0.0
C40 C 0.14024 0.36116 0.04422 0.0
C41 C 0.21815 0.39739 0.0159 0.0
C42 C 0.14297 0.3766 0.98496 0.0
C43 C 0.11528 0.36037 0.01454 0.0
O44 O 0.26026 0.46993 0.08056 0.0
O45 O 0.29403 0.39186 0.12239 0.0
O46 O 0.22031 0.3248 0.17079 0.0
O47 O 0.23838 0.40414 0.15455 0.0
O48 O 0.30642 0.43012 0.07738 0.0
O49 O 0.20625 0.44355 0.12017 0.0
O50 O 0.25892 0.24558 0.16538 0.0
O51 O 0.20017 0.31782 0.12225 0.0
O52 O 0.23878 0.34301 0.05725 0.0
O53 O 0.29575 0.32519 0.08294 0.0
O54 O 0.1962 0.25257 0.10739 0.0
O55 O 0.24836 0.23763 0.11233 0.0
C56 C 0.32809 0.42118 0.10189 0.0
C57 C 0.20491 0.50332 0.08312 0.0
C58 C 0.16718 0.55791 0.08408 0.0
C59 C 0.19255 0.53593 0.10055 0.0
C60 C 0.15443 0.54613 0.05028 0.0
C61 C 0.19144 0.49308 0.0495 0.0
C62 C 0.16605 0.5138 0.03339 0.0
C63 C 0.22706 0.36966 0.17794 0.0
C64 C 0.23198 0.48009 0.09946 0.0
C65 C 0.06416 0.34588 0.01557 0.0
C66 C 0.03763 0.33053 0.0456 0.0
C67 C 0.17166 0.27618 0.10836 0.0
C68 C 0.26992 0.18257 0.13767 0.0
C69 C 0.23817 0.12988 0.13636 0.0
C70 C 0.25816 0.09834 0.12947 0.0
C71 C 0.30993 0.12004 0.12385 0.0
C72 C 0.32161 0.20324 0.13258 0.0
C73 C 0.34142 0.17207 0.12561 0.0
C74 C 0.27137 0.32614 0.05657 0.0
C75 C 0.24794 0.21548 0.13997 0.0
H76 H 0.20255 0.54395 0.12656 0.0
H77 H 0.13638 0.56298 0.03636 0.0
H78 H 0.20125 0.46966 0.03526 0.0
H79 H 0.15615 0.5055 0.00739 0.0
H80 H 0.19808 0.11358 0.14012 0.0
H81 H 0.32619 0.09669 0.11857 0.0
H82 H 0.34647 0.24346 0.13342 0.0
H83 H 0.38134 0.1883 0.12141 0.0
Eu84 Eu 0.85211 0.2132 0.5888 0.0
C85 C 1.01746 0.3483 0.68607 0.0
C86 C 0.05586 0.43079 0.66108 0.0
C87 C 0.04482 0.42189 0.72106 0.0
C88 C 0.03135 0.37801 0.65809 0.0
C89 C 1.02607 0.36994 0.718 0.0
C90 C 0.05991 0.45242 0.69254 0.0
C91 C 1.00744 0.28963 0.74082 0.0
N92 N 1.00189 0.29892 0.68196 0.0
C93 C 1.0007 0.27044 0.70851 0.0
C94 C 1.01882 0.33928 0.74567 0.0
Eu95 Eu 0.97783 0.2661 0.62726 0.0
N96 N 1.02814 0.35561 0.6285 0.0
C97 C 0.05611 0.38409 0.60213 0.0
C98 C 0.07932 0.46014 0.63295 0.0
C99 C 0.08129 0.43666 0.60372 0.0
H100 H 0.99303 0.23252 0.70465 0.0
H101 H 0.102 0.45894 0.58237 0.0
H102 H 0.07755 0.49283 0.69528 0.0
H103 H 1.00415 0.26637 0.76191 0.0
H104 H 0.05945 0.36688 0.5797 0.0
H105 H 0.72765 0.02091 0.62833 0.0
H106 H 0.09892 0.50082 0.63418 0.0
H107 H 0.87239 0.26559 0.51281 0.0
H108 H 0.79501 0.10827 0.63471 0.0
H109 H 0.83978 0.24091 0.45572 0.0
H110 H 0.05081 0.43918 0.74537 0.0
H111 H 0.68945 0.98957 0.57301 0.0
H112 H 0.68247 1.00854 0.51335 0.0
H113 H 1.02482 0.35436 0.77066 0.0
H114 H 0.71398 0.06768 0.46628 0.0
N115 N 0.80007 0.12533 0.58298 0.0
C116 C 0.78113 0.09448 0.61008 0.0
C117 C 0.72072 0.02754 0.57546 0.0
C118 C 0.73851 0.05992 0.54804 0.0
C119 C 0.74218 0.04499 0.60665 0.0
C120 C 0.77961 0.10891 0.55243 0.0
H121 H 0.77486 0.15304 0.44396 0.0
N122 N 0.83211 0.19101 0.5321 0.0
C123 C 0.82755 0.2128 0.4752 0.0
C124 C 0.7968 0.14251 0.52606 0.0
C125 C 0.84644 0.22649 0.50747 0.0
C126 C 0.79103 0.16316 0.46865 0.0
C127 C 0.77398 0.12774 0.49445 0.0
O128 O 0.80476 0.24659 0.57866 0.0
O129 O 0.91334 0.28004 0.61542 0.0
O130 O 0.92418 0.256 0.66879 0.0
O131 O 0.84726 0.19704 0.64585 0.0
O132 O 0.88196 0.29379 0.5739 0.0
O133 O 0.77914 0.18626 0.61406 0.0
O134 O 0.03702 0.27311 0.59344 0.0
O135 O 0.91275 0.19773 0.60399 0.0
O136 O 0.91386 0.22506 0.54953 0.0
O137 O 0.98072 0.29294 0.5747 0.0
O138 O 0.94729 0.18431 0.64326 0.0
O139 O 0.03299 0.24437 0.64276 0.0
C140 C 0.91353 0.31476 0.59783 0.0
C141 C 0.71603 0.19085 0.58167 0.0
C142 C 0.62401 0.15747 0.58344 0.0
C143 C 0.67178 0.18065 0.5996 0.0
C144 C 0.6219 0.14454 0.54964 0.0
C145 C 0.71155 0.17873 0.54774 0.0
C146 C 0.66507 0.15505 0.53211 0.0
C147 C 0.87629 0.22188 0.67175 0.0
C148 C 0.7672 0.21514 0.59725 0.0
C149 C 0.73267 0.07932 0.49016 0.0
C150 C 0.71467 0.04568 0.51697 0.0
C151 C 0.91204 0.16304 0.62156 0.0
C152 C 0.06267 0.21242 0.60003 0.0
C153 C 0.10903 0.21395 0.60403 0.0
C154 C 0.11534 0.17311 0.59376 0.0
C155 C 0.07487 0.13236 0.57761 0.0
C156 C 1.02358 0.17151 0.5835 0.0
C157 C 1.02975 0.13196 0.57222 0.0
C158 C 0.96043 0.26488 0.54838 0.0
C159 C 0.05476 0.25281 0.61379 0.0
H160 H 0.67457 0.1908 0.62563 0.0
H161 H 0.58672 0.1277 0.53614 0.0
H162 H 0.74428 0.18861 0.53287 0.0
H163 H 0.66263 0.14578 0.50594 0.0
H164 H 0.13978 0.24698 0.61526 0.0
H165 H 0.0775 0.10001 0.56979 0.0
H166 H 0.98829 0.17028 0.57936 0.0
H167 H 0.99902 0.10031 0.55977 0.0
Eu168 Eu 0.6684 0.84245 0.09385 0.0
C169 C 0.68679 0.99019 0.18559 0.0
C170 C 0.64556 0.03073 0.15922 0.0
C171 C 0.62879 1.00618 0.21735 0.0
C172 C 0.67694 1.00943 0.15736 0.0
C173 C 0.66463 0.99058 0.21629 0.0
C174 C 0.61937 0.02644 0.18881 0.0
C175 C 0.72229 0.9705 0.24352 0.0
N176 N 0.72305 0.97748 0.18384 0.0
C177 C 0.74362 0.97152 0.21257 0.0
C178 C 0.68155 0.97854 0.24529 0.0
Eu179 Eu 0.7462 0.96654 0.12891 0.0
N180 N 0.70348 1.01361 0.12939 0.0
C181 C 0.7066 0.04566 0.10452 0.0
C182 C 0.6444 0.05892 0.13219 0.0
C183 C 0.67661 0.06808 0.10531 0.0
H184 H 0.77521 0.96521 0.21172 0.0
H185 H 0.67816 0.09216 0.08507 0.0
H186 H 0.59411 0.0414 0.19043 0.0
H187 H 0.73701 0.96324 0.26598 0.0
H188 H 0.73216 0.05453 0.08386 0.0
H189 H 0.75716 0.74704 0.15416 0.0
H190 H 0.62109 0.0762 0.13271 0.0
H191 H 0.63701 0.83259 0.0121 0.0
H192 H 0.70345 0.78577 0.15066 0.0
H193 H 0.67057 0.82309 0.95813 0.0
H194 H 0.61057 1.00571 0.24054 0.0
H195 H 0.80239 0.74359 0.10406 0.0
H196 H 0.82159 0.76271 0.04288 0.0
H197 H 0.66539 0.97817 0.26934 0.0
H198 H 0.80129 0.78821 0.98954 0.0
N199 N 0.71649 0.80194 0.09897 0.0
C200 C 0.72191 0.78314 0.12852 0.0
C201 C 0.7778 0.75934 0.10226 0.0
C202 C 0.77068 0.77726 0.07185 0.0
C203 C 0.75235 0.76124 0.13058 0.0
C204 C 0.73804 0.79707 0.07087 0.0
H205 H 0.74226 0.8076 0.9573 0.0
N206 N 0.69057 0.8244 0.04093 0.0
C207 C 0.68696 0.82007 0.98125 0.0
C208 C 0.72579 0.81019 0.04094 0.0
C209 C 0.66792 0.82516 0.01173 0.0
C210 C 0.72758 0.81153 0.98088 0.0
C211 C 0.74647 0.80484 0.011 0.0
O212 O 0.59302 0.78913 0.0753 0.0
O213 O 0.6645 0.90648 0.11836 0.0
O214 O 0.7364 0.90631 0.16493 0.0
O215 O 0.6582 0.84127 0.15095 0.0
O216 O 0.62398 0.8767 0.07466 0.0
O217 O 0.62041 0.76949 0.11835 0.0
O218 O 0.81527 1.01002 0.15778 0.0
O219 O 0.74351 0.89358 0.11606 0.0
O220 O 0.70756 0.90221 0.05139 0.0
O221 O 0.72959 0.9781 0.0771 0.0
O222 O 0.80138 0.95743 0.09599 0.0
O223 O 0.80925 0.03496 0.10853 0.0
C224 C 0.63299 0.90842 0.09838 0.0
C225 C 0.56588 0.70233 0.08315 0.0
C226 C 0.50821 0.61017 0.08455 0.0
C227 C 0.52703 0.6587 0.09903 0.0
C228 C 0.52943 0.6074 0.05397 0.0
C229 C 0.58704 0.69683 0.0537 0.0
C230 C 0.56883 0.64987 0.03923 0.0
C231 C 0.69343 0.86671 0.17336 0.0
C232 C 0.58449 0.75375 0.09667 0.0
C233 C 0.7835 0.79076 0.01216 0.0
C234 C 0.79497 0.77609 0.04252 0.0
C235 C 0.78415 0.91014 0.09991 0.0
C236 C 0.87335 0.09507 0.14303 0.0
C237 C 0.92353 0.1177 0.13189 0.0
C238 C 0.95837 0.16763 0.1406 0.0
C239 C 0.94206 0.1946 0.16027 0.0
C240 C 0.85777 0.12273 0.16231 0.0
C241 C 0.89211 0.17237 0.17084 0.0
C242 C 0.72476 0.9517 0.05052 0.0
C243 C 0.83819 0.04266 0.13407 0.0
H244 H 0.51226 0.66291 0.12249 0.0
H245 H 0.51529 0.57221 0.04076 0.0
H246 H 0.61728 0.72902 0.04144 0.0
H247 H 0.58489 0.64643 0.01608 0.0
H248 H 0.93567 0.09611 0.11716 0.0
H249 H 0.96807 0.23299 0.1675 0.0
H250 H 0.81923 0.10585 0.17082 0.0
H251 H 0.88009 0.19365 0.18589 0.0
Eu252 Eu 0.84808 0.66449 0.60169 0.0
C253 C 0.71115 0.7151 0.6956 0.0
C254 C 0.62701 0.6565 0.67702 0.0
C255 C 0.64054 0.68937 0.73333 0.0
C256 C 0.67919 0.68476 0.67105 0.0
C257 C 0.69214 0.71881 0.72678 0.0
C258 C 0.60802 0.65813 0.70851 0.0
C259 C 0.77569 0.78366 0.74149 0.0
N260 N 0.7607 0.74295 0.68843 0.0
C261 C 0.79303 0.77772 0.71062 0.0
C262 C 0.72527 0.75332 0.74996 0.0
Eu263 Eu 0.78792 0.73187 0.6356 0.0
N264 N 0.69881 0.68495 0.64079 0.0
C265 C 0.66758 0.65982 0.6148 0.0
C266 C 0.59534 0.62856 0.65092 0.0
C267 C 0.61571 0.63078 0.61955 0.0
H268 H 0.83224 0.80128 0.70462 0.0
H269 H 0.5915 0.61 0.59899 0.0
H270 H 0.56812 0.63641 0.71362 0.0
H271 H 0.80102 0.81207 0.75854 0.0
H272 H 0.68199 0.66061 0.5903 0.0
H273 H 1.02801 0.7355 0.6644 0.0
H274 H 0.5551 0.6062 0.65451 0.0
H275 H 0.8197 0.64522 0.52009 0.0
H276 H 0.93887 0.71064 0.66009 0.0
H277 H 0.86212 0.64895 0.46717 0.0
H278 H 0.62528 0.69139 0.75723 0.0
H279 H 0.07535 0.73783 0.61416 0.0
H280 H 0.07688 0.72728 0.55239 0.0
H281 H 0.71206 0.75791 0.77398 0.0
H282 H 0.03201 0.70412 0.49897 0.0
N283 N 0.936 0.70195 0.6074 0.0
C284 C 0.95921 0.71284 0.63773 0.0
C285 C 0.03642 0.72819 0.61191 0.0
C286 C 1.01262 0.71718 0.58089 0.0
C287 C 1.00981 0.72678 0.64036 0.0
C288 C 0.96168 0.70412 0.57936 0.0
H289 H 0.95264 0.67653 0.46684 0.0
N290 N 0.88689 0.67679 0.54884 0.0
C291 C 0.8836 0.66155 0.48997 0.0
C292 C 0.93656 0.69178 0.54917 0.0
C293 C 0.85988 0.66028 0.51993 0.0
C294 C 0.9347 0.67717 0.48989 0.0
C295 C 0.96169 0.69183 0.51975 0.0
O296 O 0.81507 0.58525 0.58777 0.0
O297 O 0.77493 0.6526 0.62304 0.0
O298 O 0.79131 0.68961 0.67981 0.0
O299 O 0.84856 0.66651 0.66011 0.0
O300 O 0.77453 0.61877 0.5777 0.0
O301 O 0.87275 0.61515 0.62502 0.0
O302 O 0.82317 0.81481 0.63836 0.0
O303 O 0.85898 0.73825 0.6158 0.0
O304 O 0.84027 0.7162 0.56132 0.0
O305 O 0.76858 0.71142 0.58248 0.0
O306 O 0.86692 0.78131 0.65659 0.0
O307 O 0.76694 0.77349 0.60147 0.0
C308 C 0.74652 0.621 0.60075 0.0
C309 C 0.86985 0.5515 0.58921 0.0
C310 C 0.90197 0.49197 0.58804 0.0
C311 C 0.87973 0.5162 0.60567 0.0
C312 C 0.91376 0.50395 0.55412 0.0
C313 C 0.88217 0.56155 0.55537 0.0
C314 C 0.90434 0.53854 0.53816 0.0
C315 C 0.82247 0.67241 0.68476 0.0
C316 C 0.84498 0.57665 0.60613 0.0
C317 C 1.01232 0.7046 0.52121 0.0
C318 C 0.0378 0.71752 0.55166 0.0
C319 C 0.8911 0.77065 0.63508 0.0
C320 C 0.78175 0.85579 0.61355 0.0
C321 C 0.81724 0.90807 0.61181 0.0
C322 C 0.80089 0.94361 0.60845 0.0
C323 C 0.74918 0.92613 0.60702 0.0
C324 C 0.73033 0.83997 0.61241 0.0
C325 C 0.71432 0.87494 0.60901 0.0
C326 C 0.8004 0.72267 0.558 0.0
C327 C 0.79818 0.81778 0.61323 0.0
H328 H 0.87013 0.50772 0.63173 0.0
H329 H 0.92935 0.48551 0.53936 0.0
H330 H 0.87351 0.58637 0.54171 0.0
H331 H 0.91332 0.5468 0.51202 0.0
H332 H 0.85707 0.9209 0.61298 0.0
H333 H 0.73553 0.95224 0.60497 0.0
H334 H 0.70237 0.80039 0.61361 0.0
H335 H 0.67458 0.86231 0.60795 0.0
Eu336 Eu 0.2117 0.83214 0.09316 0.0
C337 C 0.05194 0.69487 0.19344 0.0
C338 C 1.0071 0.6132 0.16707 0.0
C339 C 1.02319 0.61898 0.22657 0.0
C340 C 0.03365 0.66616 0.16481 0.0
C341 C 0.04583 0.67152 0.22469 0.0
C342 C 1.00369 0.58985 0.19783 0.0
C343 C 0.08082 0.75331 0.25032 0.0
N344 N 0.07305 0.74554 0.19097 0.0
C345 C 0.08501 0.77475 0.21889 0.0
C346 C 0.06165 0.70158 0.25322 0.0
Eu347 Eu 0.09024 0.77851 0.13629 0.0
N348 N 0.03736 0.68979 0.13542 0.0
C349 C 1.0084 0.6629 0.10898 0.0
C350 C 0.98229 0.58533 0.13881 0.0
C351 C 0.98142 0.61036 0.11002 0.0
H352 H 0.10089 0.81496 0.21673 0.0
H353 H 0.9599 0.58926 0.08861 0.0
H354 H 0.98427 0.54923 0.19988 0.0
H355 H 0.09341 0.77668 0.27225 0.0
H356 H 1.00516 0.68118 0.08698 0.0
H357 H 0.33327 0.02429 0.13417 0.0
H358 H 0.96133 0.54461 0.13954 0.0
H359 H 0.18926 0.78306 0.01613 0.0
H360 H 0.26927 0.93527 0.14017 0.0
H361 H 0.2233 0.80944 0.95948 0.0
H362 H 1.01889 0.60041 0.25031 0.0
H363 H 0.36911 0.05865 0.07866 0.0
H364 H 0.37723 0.04164 0.01868 0.0
H365 H 0.05842 0.68513 0.27762 0.0
H366 H 0.34947 0.98252 0.97184 0.0
N367 N 0.2631 0.92037 0.08817 0.0
C368 C 0.28201 0.95038 0.11555 0.0
C369 C 0.33926 1.01992 0.081 0.0
C370 C 0.32254 0.9881 0.05337 0.0
C371 C 0.31909 1.00079 0.11231 0.0
C372 C 0.28311 0.93813 0.05765 0.0
H373 H 0.28968 0.89726 0.94886 0.0
N374 N 0.23115 0.8566 0.03663 0.0
C375 C 0.23576 0.83681 0.97935 0.0
C376 C 0.26674 0.90519 0.03108 0.0
C377 C 0.21607 0.82216 0.01143 0.0
C378 C 0.27317 0.88639 0.97345 0.0
C379 C 0.28986 0.92103 -0.00041 0.0
O380 O 0.25791 0.79779 0.08228 0.0
O381 O 0.15097 0.76357 0.11836 0.0
O382 O 0.14712 0.77669 0.17132 0.0
O383 O 0.22 0.84359 0.15031 0.0
O384 O 0.1795 0.75232 0.07508 0.0
O385 O 0.28629 0.85977 0.11619 0.0
O386 O 0.04602 0.80407 0.10749 0.0
O387 O 0.15341 0.84882 0.11373 0.0
O388 O 0.14848 0.82177 0.05583 0.0
O389 O 0.08022 0.75568 0.08253 0.0
O390 O 0.12801 0.85547 0.16023 0.0
O391 O 1.02253 0.77517 0.15687 0.0
C392 C 0.14835 0.72969 0.09908 0.0
C393 C 0.34691 0.85262 0.08263 0.0
C394 C 0.43904 0.88587 0.08218 0.0
C395 C 0.39242 0.86501 0.09978 0.0
C396 C 0.43843 0.89344 0.04759 0.0
C397 C 0.34902 0.86093 0.04817 0.0
C398 C 0.39419 0.88145 0.03098 0.0
C399 C 0.19396 0.81272 0.17513 0.0
C400 C 0.29675 0.82978 0.09958 0.0
C401 C 0.33037 0.97008 0.99558 0.0
C402 C 0.34614 1.00378 0.02225 0.0
C403 C 0.15769 0.87992 0.13597 0.0
C404 C 1.00222 0.83657 0.13822 0.0
C405 C 0.95907 0.83549 0.12453 0.0
C406 C 0.94728 0.87328 0.13296 0.0
C407 C 0.97965 0.91236 0.15421 0.0
C408 C 0.03306 0.87591 0.15982 0.0
C409 C 1.02218 0.9137 0.16737 0.0
C410 C 0.10078 0.78385 0.05604 0.0
C411 C 1.01409 0.79598 0.13125 0.0
H412 H 0.39149 0.85861 0.12635 0.0
H413 H 0.47242 0.90786 0.03289 0.0
H414 H 0.31537 0.85052 0.03414 0.0
H415 H 0.3948 0.88737 0.00437 0.0
H416 H 0.93423 0.80492 0.10833 0.0
H417 H 0.97157 0.94176 0.161 0.0
H418 H 0.06517 0.87725 0.17158 0.0
H419 H 0.04641 0.94378 0.18404 0.0
Eu420 Eu 0.39072 0.20482 0.59313 0.0
C421 C 0.37079 0.04332 0.69203 0.0
C422 C 0.40767 0.99815 0.6664 0.0
C423 C 0.41944 1.01689 0.72551 0.0
C424 C 0.38092 0.02435 0.66379 0.0
C425 C 0.38856 0.03842 0.72337 0.0
C426 C 0.42882 0.99656 0.69705 0.0
C427 C 0.33814 0.06957 0.74859 0.0
N428 N 0.33971 0.06254 0.68921 0.0
C429 C 0.32003 0.07186 0.71703 0.0
C430 C 0.37323 0.05359 0.75171 0.0
Eu431 Eu 0.3253 0.08114 0.6343 0.0
N432 N 0.35924 0.02597 0.63471 0.0
C433 C 0.35569 0.99485 0.60923 0.0
C434 C 0.40935 0.97142 0.63879 0.0
C435 C 0.38154 0.96813 0.61055 0.0
H436 H 0.29279 0.08401 0.71451 0.0
H437 H 0.37959 0.94464 0.58991 0.0
H438 H 0.45037 0.97752 0.69934 0.0
H439 H 0.32571 0.08065 0.77048 0.0
H440 H 0.33252 0.98961 0.58786 0.0
H441 H 0.32268 0.32036 0.65334 0.0
H442 H 0.42915 0.9505 0.63981 0.0
H443 H 0.40811 0.20454 0.50983 0.0
H444 H 0.37318 0.27935 0.64865 0.0
H445 H 0.36569 0.20791 0.45831 0.0
H446 H 0.43419 1.01357 0.74929 0.0
H447 H 0.26572 0.31358 0.60762 0.0
H448 H 0.23291 0.28302 0.55006 0.0
H449 H 0.38683 0.05138 0.77617 0.0
H450 H 0.24435 0.25146 0.49679 0.0
N451 N 0.34495 0.24785 0.60063 0.0
C452 C 0.34806 0.27479 0.62856 0.0
C453 C 0.28824 0.29559 0.60526 0.0
C454 C 0.28737 0.27043 0.5761 0.0
C455 C 0.32014 0.2993 0.63114 0.0
C456 C 0.31826 0.24863 0.57399 0.0
H457 H 0.29506 0.22473 0.46166 0.0
N458 N 0.36051 0.21756 0.54176 0.0
C459 C 0.35346 0.21398 0.48222 0.0
C460 C 0.3252 0.23152 0.5438 0.0
C461 C 0.37761 0.21253 0.51134 0.0
C462 C 0.31334 0.22311 0.48426 0.0
C463 C 0.29988 0.23375 0.51522 0.0
O464 O 0.45167 0.26978 0.56684 0.0
O465 O 0.40145 0.1452 0.6176 0.0
O466 O 0.37931 0.13769 0.6713 0.0
O467 O 0.38511 0.21067 0.65053 0.0
O468 O 0.44238 0.17748 0.57483 0.0
O469 O 0.45463 0.26529 0.61987 0.0
O470 O 0.2559 1.01952 0.65597 0.0
O471 O 0.317 0.14269 0.6099 0.0
O472 O 0.35085 0.13934 0.55424 0.0
O473 O 0.3428 0.06915 0.58203 0.0
O474 O 0.27882 0.11529 0.65367 0.0
O475 O 0.25854 0.03733 0.60381 0.0
C476 C 0.43471 0.14568 0.5984 0.0
C477 C 0.48987 0.34741 0.59699 0.0
C478 C 0.55121 0.43608 0.60971 0.0
C479 C 0.53973 0.38553 0.60456 0.0
C480 C 0.51224 0.44725 0.6082 0.0
C481 C 0.45313 0.36137 0.59302 0.0
C482 C 0.46379 0.41031 0.59955 0.0
C483 C 0.38916 0.18418 0.67538 0.0
C484 C 0.47538 0.29326 0.59377 0.0
C485 C 0.26429 0.24947 0.51826 0.0
C486 C 0.2583 0.26819 0.54859 0.0
C487 C 0.28624 0.14567 0.62928 0.0
C488 C 0.195 0.95614 0.62025 0.0
C489 C 0.14266 0.93707 0.62305 0.0
C490 C 0.10812 0.88751 0.6127 0.0
C491 C 0.12714 0.85829 0.59896 0.0
C492 C 0.21248 0.92509 0.60791 0.0
C493 C 0.17874 0.87651 0.59734 0.0
C494 C 0.34093 0.09162 0.55463 0.0
C495 C 0.23073 1.00923 0.62821 0.0
H496 H 0.56943 0.37629 0.60567 0.0
H497 H 0.52005 0.48554 0.61155 0.0
H498 H 0.41615 0.33463 0.58439 0.0
H499 H 0.43459 0.42001 0.59692 0.0
H500 H 0.12898 0.96098 0.63269 0.0
H501 H 0.10211 0.82084 0.59 0.0
H502 H 0.25216 0.93854 0.60604 0.0
H503 H 0.19271 0.85286 0.5878 0.0
Eu504 Eu 0.67023 0.83242 0.39646 0.0
C505 C 0.66654 0.67938 0.3261 0.0
C506 C 0.63504 0.61191 0.36655 0.0
C507 C 0.59765 0.59661 0.3115 0.0
C508 C 0.66796 0.66258 0.35776 0.0
C509 C 0.6329 0.64595 0.30215 0.0
C510 C 0.59869 0.57961 0.3437 0.0
C511 C 0.67686 0.70963 0.26039 0.0
N512 N 0.70116 0.72713 0.31785 0.0
C513 C 0.70945 0.74094 0.28504 0.0
C514 C 0.6373 0.66239 0.26917 0.0
Eu515 Eu 0.7461 0.78193 0.36276 0.0
N516 N 0.70313 0.6951 0.37941 0.0
C517 C 0.71117 0.6772 0.4087 0.0
C518 C 0.64027 0.59493 0.39778 0.0
C519 C 0.6793 0.62742 0.41859 0.0
H520 H 0.74119 0.77618 0.27755 0.0
H521 H 0.68507 0.61409 0.44223 0.0
H522 H 0.5724 0.54092 0.35029 0.0
H523 H 0.68263 0.7218 0.23465 0.0
H524 H 0.74216 0.70048 0.42485 0.0
H525 H 0.75492 0.02138 0.34475 0.0
H526 H 0.6156 0.5564 0.40553 0.0
H527 H 0.6267 0.79995 0.4759 0.0
H528 H 0.70929 0.9286 0.34316 0.0
H529 H 0.64963 0.8383 0.53198 0.0
H530 H 0.57082 0.57074 0.29365 0.0
H531 H 0.79104 0.06572 0.39811 0.0
H532 H 0.80635 0.05963 0.45934 0.0
H533 H 0.61223 0.63792 0.25003 0.0
H534 H 0.77866 1.00811 0.51051 0.0
N535 N 0.71626 0.92077 0.39514 0.0
C536 C 0.72372 0.94771 0.36656 0.0
C537 C 0.76983 0.02502 0.39752 0.0
C538 C 0.76151 0.99688 0.42668 0.0
C539 C 0.74973 1.00025 0.36742 0.0
C540 C 0.73189 0.94421 0.42486 0.0
H541 H 0.71744 0.92685 0.53804 0.0
N542 N 0.68153 0.86604 0.45098 0.0
C543 C 0.6687 0.86035 0.51015 0.0
C544 C 0.71521 0.91574 0.45365 0.0
C545 C 0.65547 0.83894 0.47841 0.0
C546 C 0.70717 0.91022 0.51351 0.0
C547 C 0.73 0.93888 0.48498 0.0
O548 O 0.58763 0.79186 0.39734 0.0
O549 O 0.66591 0.763 0.37472 0.0
O550 O 0.73567 0.82576 0.32234 0.0
O551 O 0.66605 0.83097 0.33859 0.0
O552 O 0.63344 0.75751 0.42137 0.0
O553 O 0.62623 0.86932 0.38401 0.0
O554 O 0.80349 0.80096 0.32443 0.0
O555 O 0.74354 0.85321 0.37257 0.0
O556 O 0.71365 0.82044 0.44055 0.0
O557 O 0.75276 0.77909 0.41724 0.0
O558 O 0.80534 0.85155 0.39006 0.0
O559 O 0.80974 0.76908 0.37047 0.0
C560 C 0.63748 0.73209 0.39713 0.0
C561 C 0.54476 0.83744 0.40769 0.0
C562 C 0.48044 0.8633 0.41031 0.0
C563 C 0.51708 0.85784 0.3921 0.0
C564 C 0.47141 0.84686 0.44365 0.0
C565 C 0.53512 0.82275 0.4412 0.0
C566 C 0.49864 0.82723 0.4589 0.0
C567 C 0.69718 0.8318 0.31527 0.0
C568 C 0.58267 0.83012 0.38916 0.0
C569 C 0.7656 0.99021 0.48666 0.0
C570 C 0.78097 1.01946 0.45756 0.0
C571 C 0.78555 0.87959 0.38667 0.0
C572 C 0.88491 0.83577 0.34789 0.0
C573 C 0.92618 0.8288 0.35468 0.0
C574 C 0.9741 0.8709 0.36111 0.0
C575 C 0.97985 0.9192 0.36171 0.0
C576 C 0.89309 0.88506 0.34649 0.0
C577 C 0.93962 0.92621 0.3542 0.0
C578 C 0.74102 0.79756 0.44273 0.0
C579 C 0.83297 0.79274 0.34345 0.0
H580 H 0.52444 0.86988 0.36633 0.0
H581 H 0.44326 0.84973 0.45822 0.0
H582 H 0.55542 0.8071 0.4537 0.0
H583 H 0.49138 0.81539 0.48468 0.0
H584 H 0.92132 0.79131 0.35454 0.0
H585 H 1.01629 0.9519 0.36637 0.0
H586 H 0.86313 0.89175 0.33959 0.0
H587 H 0.94473 0.96376 0.35366 0.0
Eu588 Eu 0.84232 0.64732 0.908 0.0
C589 C 1.01669 0.71243 0.80664 0.0
C590 C 0.05572 0.66294 0.82057 0.0
C591 C 0.05765 0.6902 0.76349 0.0
C592 C 1.02812 0.68637 0.83003 0.0
C593 C 0.03225 0.71546 0.77326 0.0
C594 C 0.06932 0.66396 0.78708 0.0
C595 C 0.99897 0.77052 0.76196 0.0
N596 N 0.99211 0.73656 0.81678 0.0
C597 C 0.98556 0.7676 0.79541 0.0
C598 C 1.02228 0.74424 0.75076 0.0
Eu599 Eu 0.96725 0.72578 0.87351 0.0
N600 N 1.01536 0.68682 0.86236 0.0
C601 C 0.03299 0.66868 0.88671 0.0
C602 C 0.07048 0.64076 0.84525 0.0
C603 C 0.05986 0.64449 0.87854 0.0
H604 H 0.96829 0.78857 0.80403 0.0
H605 H 0.07269 0.6291 0.89796 0.0
H606 H 0.09008 0.64573 0.77935 0.0
H607 H 0.99111 0.79283 0.74488 0.0
H608 H 1.02666 0.67274 0.91257 0.0
H609 H 0.72863 0.72817 0.86763 0.0
H610 H 0.09167 0.62235 0.83901 0.0
H611 H 0.85644 0.61068 0.9852 0.0
H612 H 0.79035 0.69975 0.86155 0.0
H613 H 0.82181 0.60338 0.04135 0.0
H614 H 0.06932 0.69159 0.73787 0.0
H615 H 0.69046 0.72379 0.92261 0.0
H616 H 0.68014 0.6968 0.98238 0.0
H617 H 0.03308 0.74703 0.72485 0.0
H618 H 0.70593 0.66375 0.02951 0.0
N619 N 0.79187 0.68516 0.91322 0.0
C620 C 0.77582 0.69997 0.88596 0.0
C621 C 0.71894 0.71298 0.92029 0.0
C622 C 0.73335 0.69505 0.94777 0.0
C623 C 0.74028 0.71541 0.88922 0.0
C624 C 0.77107 0.68204 0.94356 0.0
H625 H 0.76026 0.63123 0.05209 0.0
N626 N 0.81878 0.64696 0.96446 0.0
C627 C 0.8112 0.62017 0.02152 0.0
C628 C 0.78499 0.66247 0.96995 0.0
C629 C 0.83102 0.62473 0.98957 0.0
C630 C 0.77654 0.63598 0.0275 0.0
C631 C 0.76215 0.65634 0.00143 0.0
O632 O 0.804 0.56551 0.90294 0.0
O633 O 0.90828 0.64486 0.88579 0.0
O634 O 0.91894 0.68729 0.82899 0.0
O635 O 0.83827 0.65612 0.85053 0.0
O636 O 0.87607 0.60254 0.92828 0.0
O637 O 0.76209 0.60272 0.89461 0.0
O638 O 1.00868 0.80649 0.86413 0.0
O639 O 0.89122 0.71899 0.88235 0.0
O640 O 0.9007 0.69712 0.94933 0.0
O641 O 0.97325 0.7053 0.92568 0.0
O642 O 0.95119 0.78559 0.89406 0.0
O643 O 0.0395 0.77239 0.89753 0.0
C644 C 0.90992 0.61316 0.90581 0.0
C645 C 0.71769 0.52018 0.91695 0.0
C646 C 0.62903 0.45388 0.9218 0.0
C647 C 0.66831 0.49421 0.90389 0.0
C648 C 0.64107 0.4395 0.95228 0.0
C649 C 0.72715 0.50657 0.94834 0.0
C650 C 0.68915 0.46631 0.96569 0.0
C651 C 0.86996 0.66572 0.82515 0.0
C652 C 0.75985 0.55964 0.89735 0.0
C653 C 0.72432 0.66882 0.00564 0.0
C654 C 0.70971 0.68777 0.97881 0.0
C655 C 0.90337 0.76159 0.89421 0.0
C656 C 0.0964 0.84818 0.86993 0.0
C657 C 0.11745 0.90061 0.87384 0.0
C658 C 0.16421 0.93383 0.85936 0.0
C659 C 0.18978 0.91367 0.84176 0.0
C660 C 0.12254 0.82916 0.85222 0.0
C661 C 0.16921 0.86188 0.83841 0.0
C662 C 0.94932 0.70989 0.95114 0.0
C663 C 0.04627 0.81381 0.88316 0.0
H664 H 0.66077 0.50517 0.87987 0.0
H665 H 0.6136 0.40666 0.96576 0.0
H666 H 0.76439 0.52611 0.9591 0.0
H667 H 0.69728 0.45508 0.98938 0.0
H668 H 0.09683 0.91538 0.88703 0.0
H669 H 0.22563 0.93816 0.83005 0.0
H670 H 0.1067 0.78906 0.84887 0.0
H671 H 0.18925 0.84709 0.82463 0.0
Eu672 Eu 0.22075 0.84419 0.39856 0.0
C673 C 0.38863 1.01359 0.33655 0.0
C674 C 0.44534 0.05524 0.38226 0.0
C675 C 0.4783 0.04644 0.32939 0.0
C676 C 0.39599 0.02734 0.36964 0.0
C677 C 0.43 0.02512 0.31568 0.0
C678 C 0.48605 0.06197 0.36265 0.0
C679 C 0.37542 1.00681 0.26834 0.0
N680 N 0.34217 0.99628 0.32375 0.0
C681 C 0.33625 0.99751 0.29009 0.0
C682 C 0.42223 1.01898 0.28128 0.0
Eu683 Eu 0.27513 0.97017 0.36251 0.0
N684 N 0.35571 1.02007 0.38792 0.0
C685 C 0.36343 0.0467 0.41673 0.0
C686 C 0.45258 0.07823 0.41335 0.0
C687 C 0.41146 0.07485 0.4303 0.0
H688 H 0.30129 0.99167 0.28004 0.0
H689 H 0.4168 0.0949 0.45345 0.0
H690 H 0.52397 0.08174 0.37236 0.0
H691 H 0.36974 1.00568 0.24169 0.0
H692 H 0.33354 0.04944 0.42854 0.0
H693 H 0.04867 0.73394 0.32604 0.0
H694 H 0.48986 0.10046 0.42373 0.0
H695 H 0.2239 0.83915 0.48351 0.0
H696 H 0.1389 0.7754 0.33747 0.0
H697 H 0.1712 0.83497 0.53084 0.0
H698 H 0.51035 0.05453 0.31392 0.0
H699 H 0.99031 0.73369 0.36841 0.0
H700 H 0.97734 0.75691 0.42609 0.0
H701 H 0.45297 0.02736 0.26442 0.0
H702 H 1.01218 0.78959 0.48159 0.0
N703 N 0.13316 0.80047 0.38595 0.0
C704 C 0.11456 0.7764 0.35631 0.0
C705 C 1.03013 0.75188 0.37374 0.0
C706 C 0.04891 0.77384 0.40473 0.0
C707 C 0.06301 0.75213 0.34973 0.0
C708 C 0.10111 0.79697 0.41038 0.0
H709 H 0.08468 0.81825 0.52134 0.0
N710 N 0.16937 0.82919 0.44686 0.0
C711 C 0.15658 0.82992 0.50586 0.0
C712 C 0.12026 0.81364 0.44165 0.0
C713 C 0.1864 0.83252 0.47882 0.0
C714 C 0.1078 0.82034 0.50036 0.0
C715 C 0.08818 0.80942 0.46811 0.0
O716 O 0.22268 0.78398 0.42701 0.0
O717 O 0.2916 0.9072 0.37552 0.0
O718 O 0.25699 0.91941 0.31853 0.0
O719 O 0.22353 0.83854 0.34063 0.0
O720 O 0.29822 0.87623 0.41977 0.0
O721 O 0.21953 0.7793 0.37401 0.0
O722 O 0.28571 0.03542 0.33332 0.0
O723 O 0.20395 0.90405 0.38172 0.0
O724 O 0.25428 0.90358 0.44119 0.0
O725 O 0.26035 0.97476 0.41673 0.0
O726 O 0.20148 0.9337 0.33523 0.0
O727 O 0.24167 1.01499 0.37811 0.0
C728 C 0.32332 0.9081 0.39653 0.0
C729 C 0.17575 0.70199 0.40399 0.0
C730 C 0.14295 0.6105 0.39965 0.0
C731 C 0.18285 0.66088 0.39561 0.0
C732 C 0.09638 0.60217 0.41131 0.0
C733 C 0.1286 0.69165 0.41591 0.0
C734 C 0.08929 0.64235 0.41923 0.0
C735 C 0.23745 0.8705 0.31494 0.0
C736 C 0.21686 0.7556 0.40147 0.0
C737 C 0.03711 0.79165 0.46181 0.0
C738 C 1.01728 0.77297 0.43026 0.0
C739 C 0.17514 0.90128 0.35801 0.0
C740 C 0.28086 0.09982 0.36302 0.0
C741 C 0.25005 0.12173 0.36209 0.0
C742 C 0.2682 0.17092 0.37386 0.0
C743 C 0.31691 0.1976 0.38692 0.0
C744 C 0.33009 0.12778 0.37502 0.0
C745 C 0.34784 0.17633 0.38712 0.0
C746 C 0.26119 0.94991 0.44303 0.0
C747 C 0.25998 0.04681 0.35367 0.0
H748 H 0.21913 0.66794 0.38681 0.0
H749 H 0.06536 0.56418 0.41454 0.0
H750 H 0.12221 0.72178 0.42323 0.0
H751 H 0.05322 0.63524 0.42844 0.0
H752 H 0.21207 0.10051 0.35255 0.0
H753 H 0.33124 0.23514 0.39659 0.0
H754 H 0.35462 0.112 0.37524 0.0
H755 H 0.3857 0.19754 0.39672 0.0
Eu756 Eu 0.39113 0.19883 0.89765 0.0
C757 C 0.32588 0.32248 0.8061 0.0
C758 C 0.39342 0.40701 0.81664 0.0
C759 C 0.34963 0.38715 0.76368 0.0
C760 C 0.36296 0.35654 0.82693 0.0
C761 C 0.31736 0.33793 0.77486 0.0
C762 C 0.38776 0.42161 0.78451 0.0
C763 C 0.24166 0.25734 0.77017 0.0
N764 N 0.29535 0.27525 0.81756 0.0
C765 C 0.25244 0.24334 0.80082 0.0
C766 C 0.27511 0.30428 0.75659 0.0
Eu767 Eu 0.3172 0.25276 0.86857 0.0
N768 N 0.36631 0.34143 0.85819 0.0
C769 C 0.39632 0.37658 0.88112 0.0
C770 C 0.4271 0.44186 0.83939 0.0
C771 C 0.42776 0.42673 0.87198 0.0
H772 H 0.22636 0.20688 0.81104 0.0
H773 H 0.45244 0.4537 0.8902 0.0
H774 H 0.41127 0.46002 0.77608 0.0
H775 H 0.20762 0.23176 0.75709 0.0
H776 H 0.39767 0.3669 0.90654 0.0
H777 H 0.33408 0.02437 0.8284 0.0
H778 H 0.45121 0.48089 0.83246 0.0
H779 H 0.405 0.20797 0.98325 0.0
H780 H 0.37748 0.11538 0.8365 0.0
H781 H 0.36142 0.15555 0.03203 0.0
H782 H 0.3442 0.39948 0.73952 0.0
H783 H 0.28533 0.96716 0.87439 0.0
H784 H 0.24992 0.95608 0.93181 0.0
H785 H 0.26687 0.31502 0.73273 0.0
H786 H 0.25107 0.99312 0.98612 0.0
N787 N 0.35102 0.11126 0.88633 0.0
C788 C 0.35511 0.09163 0.85668 0.0
C789 C 0.30357 1.00742 0.87793 0.0
C790 C 0.30075 0.02747 0.90847 0.0
C791 C 0.33114 0.03962 0.852 0.0
C792 C 0.32674 0.08021 0.91241 0.0
H793 H 0.29545 0.06707 0.02446 0.0
N794 N 0.36083 0.15081 0.94782 0.0
C795 C 0.35132 0.13987 0.00724 0.0
C796 C 0.3296 0.1008 0.94356 0.0
C797 C 0.3757 0.16943 0.97941 0.0
C798 C 0.31391 0.09002 0.00285 0.0
C799 C 0.30423 0.06927 0.9709 0.0
O800 O 0.45669 0.21612 0.92931 0.0
O801 O 0.39396 0.27323 0.89046 0.0
O802 O 0.35789 0.24877 0.823 0.0
O803 O 0.38751 0.19524 0.83996 0.0
O804 O 0.45053 0.26547 0.86981 0.0
O805 O 0.45082 0.18567 0.88027 0.0
O806 O 0.25469 0.21303 0.90346 0.0
O807 O 0.31334 0.17984 0.88406 0.0
O808 O 0.36228 0.23 0.94184 0.0
O809 O 0.3402 0.28528 0.91853 0.0
O810 O 0.2792 0.17965 0.83991 0.0
O811 O 0.25343 0.26697 0.87038 0.0
C812 C 0.43628 0.29734 0.87579 0.0
C813 C 0.49434 0.16434 0.91908 0.0
C814 C 0.55324 0.13155 0.91409 0.0
C815 C 0.53877 0.16764 0.90565 0.0
C816 C 0.52205 0.09238 0.93599 0.0
C817 C 0.46475 0.12475 0.94088 0.0
C818 C 0.47855 0.0892 0.94924 0.0
C819 C 0.37909 0.22128 0.81674 0.0
C820 C 0.47649 0.19905 0.90772 0.0
C821 C 0.27247 1.01762 0.96576 0.0
C822 C 0.27212 0.99647 0.93491 0.0
C823 C 0.28672 0.15197 0.86044 0.0
C824 C 0.17518 0.19344 0.88262 0.0
C825 C 0.13434 0.20122 0.88919 0.0
C826 C 0.08499 0.1636 0.88076 0.0
C827 C 0.07694 0.11888 0.86586 0.0
C828 C 0.16539 0.14791 0.8679 0.0
C829 C 0.11693 0.11116 0.85949 0.0
C830 C 0.34569 0.26296 0.94455 0.0
C831 C 0.22772 0.23121 0.89164 0.0
H832 H 0.56187 0.19826 0.88886 0.0
H833 H 0.53097 0.06352 0.94271 0.0
H834 H 0.43045 0.12073 0.95114 0.0
H835 H 0.45505 0.05858 0.9659 0.0
H836 H 0.14078 0.23596 0.90052 0.0
H837 H 0.0394 0.08989 0.85898 0.0
H838 H 0.19504 0.14022 0.86299 0.0
H839 H 0.1104 0.07649 0.84804 0.0
Eu840 Eu 0.21751 0.39735 0.39836 0.0
C841 C 1.02924 0.33372 0.3201 0.0
C842 C 1.00448 0.38827 0.34748 0.0
C843 C 0.9826 0.36543 0.28945 0.0
C844 C 1.02908 0.35989 0.3481 0.0
C845 C 1.00451 0.33478 0.29083 0.0
C846 C 0.98264 0.39218 0.31772 0.0
C847 C 1.01902 0.27012 0.26824 0.0
N848 N 0.05007 0.30395 0.32238 0.0
C849 C 0.04271 0.27011 0.29797 0.0
C850 C 1.00071 0.30337 0.26439 0.0
Eu851 Eu 0.09291 0.30918 0.37212 0.0
N852 N 0.04956 0.35444 0.37662 0.0
C853 C 0.04298 0.37258 0.40597 0.0
C854 C 1.0008 0.41012 0.37714 0.0
C855 C 1.01929 0.40138 0.40666 0.0
H856 H 0.05666 0.24424 0.30106 0.0
H857 H 1.0156 0.41705 0.42989 0.0
H858 H 0.9641 0.41431 0.31665 0.0
H859 H 1.01484 0.24452 0.24839 0.0
H860 H 0.05755 0.36623 0.42859 0.0
H861 H 0.33838 0.34066 0.33401 0.0
H862 H 0.98234 0.43234 0.37772 0.0
H863 H 0.21608 0.42201 0.48068 0.0
H864 H 0.27767 0.36914 0.33805 0.0
H865 H 0.25057 0.41147 0.53288 0.0
H866 H 0.96399 0.36731 0.26703 0.0
H867 H 0.37146 0.32249 0.38475 0.0
H868 H 0.37674 0.32349 0.44639 0.0
H869 H 0.98207 0.30311 0.24143 0.0
H870 H 0.35462 0.34482 0.5001 0.0
N871 N 0.27023 0.362 0.39111 0.0
C872 C 0.28924 0.35941 0.36076 0.0
C873 C 0.3427 0.33292 0.38686 0.0
C874 C 0.32603 0.33888 0.41796 0.0
C875 C 0.32453 0.34364 0.35819 0.0
C876 C 0.28907 0.35351 0.41949 0.0
H877 H 0.30662 0.3756 0.5326 0.0
N878 N 0.24336 0.38274 0.451 0.0
C879 C 0.25718 0.39723 0.50994 0.0
C880 C 0.27548 0.36433 0.45014 0.0
C881 C 0.23632 0.40162 0.48017 0.0
C882 C 0.28879 0.37699 0.50965 0.0
C883 C 0.29941 0.36154 0.47952 0.0
O884 O 0.25381 0.47115 0.42283 0.0
O885 O 0.14141 0.38999 0.39154 0.0
O886 O 0.13298 0.34657 0.32455 0.0
O887 O 0.21736 0.39187 0.34082 0.0
O888 O 0.20183 0.44658 0.36546 0.0
O889 O 0.29494 0.45458 0.38514 0.0
O890 O 0.05241 0.22739 0.36832 0.0
O891 O 0.16587 0.31584 0.38754 0.0
O892 O 0.15612 0.37476 0.44061 0.0
O893 O 0.1103 0.29502 0.42358 0.0
O894 O 0.13171 0.27473 0.3442 0.0
O895 O 1.02336 0.26338 0.40013 0.0
C896 C 0.15575 0.42975 0.3738 0.0
C897 C 0.33999 0.5383 0.41059 0.0
C898 C 0.42946 0.60133 0.40307 0.0
C899 C 0.38902 0.55142 0.39932 0.0
C900 C 0.42021 0.63729 0.41794 0.0
C901 C 0.33262 0.57537 0.42563 0.0
C902 C 0.37235 0.62437 0.42915 0.0
C903 C 0.18149 0.37339 0.31767 0.0
C904 C 0.29561 0.48714 0.40613 0.0
C905 C 0.3355 0.34639 0.47785 0.0
C906 C 0.34817 0.33434 0.44726 0.0
C907 C 0.16908 0.28909 0.36451 0.0
C908 C 0.96564 0.18441 0.37658 0.0
C909 C 0.94649 0.1325 0.38204 0.0
C910 C 0.89997 0.09698 0.36832 0.0
C911 C 0.87279 0.11458 0.34985 0.0
C912 C 0.93777 0.20074 0.35811 0.0
C913 C 0.89143 0.16587 0.34497 0.0
C914 C 0.11986 0.32776 0.44679 0.0
C915 C 1.01624 0.22087 0.38807 0.0
H916 H 0.39566 0.5233 0.38791 0.0
H917 H 0.4505 0.67561 0.42125 0.0
H918 H 0.29577 0.56666 0.43434 0.0
H919 H 0.366 0.65257 0.44067 0.0
H920 H 0.9684 0.11986 0.39595 0.0
H921 H 0.83685 0.08866 0.33905 0.0
H922 H 0.95208 0.24038 0.35353 0.0
H923 H 0.87006 0.1786 0.33061 0.0
Eu924 Eu 0.83786 0.1973 0.89219 0.0
C925 C 0.74775 0.02376 0.79209 0.0
C926 C 0.66083 1.00255 0.78785 0.0
C927 C 0.70217 0.98898 0.74061 0.0
C928 C 0.70577 0.02175 0.80616 0.0
C929 C 0.746 1.00576 0.75963 0.0
C930 C 0.6597 0.98758 0.75467 0.0
C931 C 0.82873 1.01693 0.76881 0.0
N932 N 0.78973 0.04105 0.81096 0.0
C933 C 0.82913 0.03576 0.80059 0.0
C934 C 0.78759 1.00324 0.74786 0.0
Eu935 Eu 0.78674 0.06887 0.86518 0.0
N936 N 0.70786 0.03515 0.83854 0.0
C937 C 0.66532 0.02626 0.8549 0.0
C938 C 0.61796 0.9972 0.80385 0.0
C939 C 0.62005 1.00835 0.8377 0.0
H940 H 0.86125 0.0472 0.81666 0.0
H941 H 0.58673 1.00269 0.85064 0.0
H942 H 0.62565 0.97321 0.74007 0.0
H943 H 0.86041 1.01365 0.76035 0.0
H944 H 0.6661 0.03315 0.88124 0.0
H945 H 1.01479 0.30684 0.82348 0.0
H946 H 0.58269 0.98275 0.79065 0.0
H947 H 0.82541 0.20121 0.9771 0.0
H948 H 0.92382 0.26493 0.83137 0.0
H949 H 0.87618 0.21048 0.02698 0.0
H950 H 0.70025 0.97565 0.71541 0.0
H951 H 0.06974 0.31039 0.86949 0.0
H952 H 0.07809 0.28933 0.9286 0.0
H953 H 0.78763 0.98925 0.72314 0.0
H954 H 0.03931 0.25791 0.98322 0.0
N955 N 0.92572 0.24321 0.88173 0.0
C956 C 0.9466 0.26551 0.8519 0.0
C957 C 1.02955 0.29235 0.87338 0.0
C958 C 1.00832 0.27205 0.90436 0.0
C959 C 0.99862 0.29018 0.84731 0.0
C960 C 0.95573 0.24911 0.90819 0.0
H961 H 0.96452 0.23151 0.02085 0.0
N962 N 0.88404 0.21466 0.94293 0.0
C963 C 0.89278 0.21611 0.00246 0.0
C964 C 0.93411 0.23295 0.93939 0.0
C965 C 0.86425 0.21098 0.97413 0.0
C966 C 0.94265 0.22802 -0.00111 0.0
C967 C 0.96447 0.23848 0.96719 0.0
O968 O 0.8075 0.23797 0.91985 0.0
O969 O 0.76479 0.12556 0.88404 0.0
O970 O 0.8146 0.116 0.81817 0.0
O971 O 0.84149 0.19871 0.83484 0.0
O972 O 0.77202 0.18913 0.86228 0.0
O973 O 0.86161 0.27592 0.88058 0.0
O974 O 0.82114 0.02326 0.87801 0.0
O975 O 0.85931 0.14347 0.87178 0.0
O976 O 0.81237 0.13591 0.93578 0.0
O977 O 0.74661 0.06987 0.91079 0.0
O978 O 0.85486 0.08158 0.89468 0.0
O979 O 0.74097 0.99063 0.88191 0.0
C980 C 0.74057 0.14276 0.86837 0.0
C981 C 0.85763 0.32865 0.92248 0.0
C982 C 0.89057 0.42069 0.92492 0.0
C983 C 0.87072 0.37515 0.90642 0.0
C984 C 0.89652 0.41791 0.95957 0.0
C985 C 0.86538 0.3285 0.95684 0.0
C986 C 0.88474 0.37271 0.9751 0.0
C987 C 0.8311 0.16404 0.8116 0.0
C988 C 0.83436 0.28034 0.90365 0.0
C989 C 1.01584 0.25589 0.96257 0.0
C990 C 0.03796 0.27376 0.93142 0.0
C991 C 0.88372 0.12844 0.88895 0.0
C992 C 0.77328 0.93612 0.86797 0.0
C993 C 0.80303 0.91508 0.87853 0.0
C994 C 0.79859 0.87179 0.8627 0.0
C995 C 0.76294 0.84941 0.8371 0.0
C996 C 0.73942 0.91353 0.84162 0.0
C997 C 0.73416 0.87036 0.82651 0.0
C998 C 0.77283 0.08931 0.93775 0.0
C999 C 0.77883 0.98246 0.88358 0.0
H1000 H 0.86559 0.3756 0.87979 0.0
H1001 H 0.90969 0.45081 0.97518 0.0
H1002 H 0.85564 0.29405 0.96988 0.0
H1003 H 0.88994 0.37183 0.00169 0.0
H1004 H 0.83008 0.93286 0.89839 0.0
H1005 H 0.75729 0.81541 0.8251 0.0
H1006 H 0.71684 0.92918 0.83267 0.0
H1007 H 0.70757 0.85299 0.80641 0.0
C1008 C 0.19326 0.96458 0.16202 0.0
C1009 C 0.18024 0.93537 0.13282 0.0
C1010 C 0.21638 1.01721 0.16068 0.0
C1011 C 0.22649 0.04267 0.13011 0.0
H1012 H 0.18669 0.94673 0.1862 0.0
H1013 H 0.22779 0.03827 0.18372 0.0
S1014 S 0.19111 0.98368 0.04678 0.0
N1015 N 0.17273 0.93563 0.0726 0.0
N1016 N 0.21672 0.03482 0.0701 0.0
C1017 C 0.21076 1.01396 0.10078 0.0
C1018 C 0.18715 0.9602 0.10213 0.0
C1019 C 0.22168 0.14121 0.58805 0.0
C1020 C 0.24634 0.15763 0.61889 0.0
C1021 C 0.18071 0.14785 0.57952 0.0
C1022 C 0.16202 0.17056 0.60165 0.0
H1023 H 0.23369 0.1225 0.57055 0.0
H1024 H 0.16339 0.13474 0.5554 0.0
S1025 S 0.21607 0.22388 0.68412 0.0
N1026 N 0.25159 0.20193 0.66978 0.0
N1027 N 0.17302 0.21037 0.6555 0.0
C1028 C 0.18699 0.18766 0.63222 0.0
C1029 C 0.2291 0.18181 0.64046 0.0
C1030 C 0.04907 0.21157 0.15622 0.0
C1031 C 1.01237 0.19139 0.13114 0.0
C1032 C 0.10034 0.23781 0.1484 0.0
C1033 C 0.11707 0.24659 0.11523 0.0
H1034 H 0.03802 0.20725 0.18217 0.0
H1035 H 0.12715 0.25186 0.16851 0.0
S1036 S 0.03712 0.19609 0.04044 0.0
N1037 N 0.99669 0.17736 0.07168 0.0
N1038 N 0.09359 0.22818 0.05717 0.0
C1039 C 0.08119 0.2244 0.08991 0.0
C1040 C 1.02869 0.19671 0.09783 0.0
C1041 C 0.84249 0.02249 0.64145 0.0
C1042 C 0.83559 0.99913 0.61046 0.0
C1043 C 0.86666 0.07498 0.64429 0.0
C1044 C 0.88414 0.10713 0.61635 0.0
H1045 H 0.82764 0.99982 0.66375 0.0
H1046 H 0.86954 0.0899 0.66872 0.0
S1047 S 0.88071 0.06509 0.52948 0.0
N1048 N 0.85213 1.01206 0.55108 0.0
N1049 N 0.89619 0.11105 0.55647 0.0
C1050 C 0.87868 0.08429 0.58509 0.0
C1051 C 0.85467 0.03038 0.58217 0.0
C1052 C 0.86626 0.86971 0.14633 0.0
C1053 C 0.90049 0.87251 0.12197 0.0
C1054 C 0.82772 0.88002 0.13864 0.0
C1055 C 0.8213 0.89323 0.10621 0.0
H1056 H 0.87065 0.86152 0.17196 0.0
H1057 H 0.80367 0.87899 0.15856 0.0
S1058 S 0.90053 0.9057 0.03319 0.0
N1059 N 0.92504 0.88888 0.06383 0.0
N1060 N 0.85275 0.90882 0.04948 0.0
C1061 C 0.85486 0.89563 0.08147 0.0
C1062 C 0.89401 0.88462 0.08924 0.0
C1063 C 0.9668 0.80847 0.59677 0.0
C1064 C 0.94602 0.80418 0.62867 0.0
C1065 C 1.01907 0.8369 0.59143 0.0
C1066 C 0.05249 0.86432 0.6174 0.0
H1067 H 0.94272 0.78825 0.57601 0.0
H1068 H 0.03351 0.83667 0.56687 0.0
S1069 S 1.01581 0.87609 0.7034 0.0
N1070 N 0.96228 0.83624 0.68528 0.0
N1071 N 0.05978 0.8912 0.67491 0.0
C1072 C 0.03159 0.86429 0.64854 0.0
C1073 C 0.97859 0.83422 0.65419 0.0
C1074 C 0.10081 0.89259 0.39009 0.0
C1075 C 0.12098 0.8849 0.36068 0.0
C1076 C 0.05125 0.88377 0.39105 0.0
C1077 C 1.02037 0.86726 0.3626 0.0
H1078 H 0.12395 0.90698 0.41214 0.0
H1079 H 0.03765 0.89192 0.41374 0.0
S1080 S 0.05755 0.8485 0.27867 0.0
N1081 N 0.10752 0.86408 0.30192 0.0
N1082 N 1.01461 0.84719 0.30395 0.0
C1083 C 0.04018 0.85968 0.3332 0.0
C1084 C 0.09055 0.86905 0.33211 0.0
C1085 C 0.19624 1.01682 0.89002 0.0
C1086 C 0.1862 0.98951 0.86011 0.0
C1087 C 0.2283 0.0697 0.89036 0.0
C1088 C 0.25186 0.09632 0.86093 0.0
H1089 H 0.1818 0.99711 0.91338 0.0
H1090 H 0.23606 0.08948 0.91383 0.0
S1091 S 0.21962 0.04375 0.77554 0.0
N1092 N 0.1891 0.99455 0.80005 0.0
N1093 N 0.25053 0.09217 0.80062 0.0
C1094 C 0.23608 0.06971 0.83079 0.0
C1095 C 0.20305 1.01675 0.83042 0.0
C1096 C 0.21412 0.24869 0.33927 0.0
C1097 C 0.19334 0.2581 0.36768 0.0
C1098 C 0.23716 0.21914 0.34122 0.0
C1099 C 0.23798 0.19613 0.37129 0.0
H1100 H 0.21414 0.26586 0.31567 0.0
H1101 H 0.25531 0.21508 0.31928 0.0
S1102 S 0.17389 0.1953 0.44947 0.0
N1103 N 0.16646 0.2343 0.42488 0.0
N1104 N 0.20732 0.17635 0.42807 0.0
C1105 C 0.21327 0.20143 0.39903 0.0
C1106 C 0.19123 0.23281 0.39731 0.0
C1107 C 1.01276 0.15337 0.91514 0.0
C1108 C 0.04046 0.16949 0.8854 0.0
C1109 C 0.96266 0.14284 0.91644 0.0
C1110 C 0.93875 0.14846 0.88815 0.0
H1111 H 1.02879 0.14574 0.93686 0.0
H1112 H 0.94184 0.12846 0.93944 0.0
S1113 S 0.9955 0.18813 0.80441 0.0
N1114 N 0.04105 0.19062 0.82739 0.0
N1115 N 0.9468 0.16994 0.82947 0.0
C1116 C 0.96665 0.16562 0.85857 0.0
C1117 C 1.01761 0.17663 0.85737 0.0
C1118 C 0.87419 1.01941 0.40403 0.0
C1119 C 0.87901 0.04156 0.37241 0.0
C1120 C 0.84502 0.96672 0.40846 0.0
C1121 C 0.81862 0.93484 0.38166 0.0
H1122 H 0.89055 0.04296 0.4257 0.0
H1123 H 0.84083 0.95118 0.43327 0.0
S1124 S 0.83087 0.97323 0.29294 0.0
N1125 N 0.86465 0.0264 0.31316 0.0
N1126 N 0.80737 0.92888 0.32171 0.0
C1127 C 0.82714 0.95639 0.34971 0.0
C1128 C 0.85792 1.00935 0.34506 0.0
C1129 C 0.85909 0.80857 0.91245 0.0
C1130 C 0.87719 0.79023 0.88695 0.0
C1131 C 0.83546 0.83694 0.9049 0.0
C1132 C 0.83052 0.84907 0.87169 0.0
H1133 H 0.8619 0.7997 0.93819 0.0
H1134 H 0.81977 0.84814 0.92503 0.0
S1135 S 0.88319 0.82004 0.79725 0.0
N1136 N 0.89425 0.79152 0.82816 0.0
N1137 N 0.85443 0.84789 0.81413 0.0
C1138 C 0.85263 0.83445 0.84657 0.0
C1139 C 0.87484 0.8044 0.85416 0.0
C1140 C 0.10528 0.63708 0.09469 0.0
C1141 C 0.14267 0.68094 0.1098 0.0
C1142 C 0.11055 0.59451 0.09102 0.0
C1143 C 0.15536 0.59518 0.09998 0.0
H1144 H 0.07414 0.63723 0.08238 0.0
H1145 H 0.0813 0.56261 0.07778 0.0
S1146 S 0.26288 0.69975 0.14403 0.0
N1147 N 0.22296 0.72029 0.13826 0.0
N1148 N 0.23573 0.64248 0.1282 0.0
C1149 C 0.19137 0.63736 0.11778 0.0
C1150 C 0.18451 0.67981 0.12315 0.0
C1151 C 0.53034 0.1037 0.59232 0.0
C1152 C 0.57568 0.1486 0.59938 0.0
C1153 C 0.48307 0.10015 0.59617 0.0
C1154 C 0.47851 0.14035 0.60868 0.0
H1155 H 0.53157 0.07252 0.58069 0.0
H1156 H 0.45048 0.06752 0.58625 0.0
S1157 S 0.58403 0.26357 0.63575 0.0
N1158 N 0.61187 0.2326 0.62255 0.0
N1159 N 0.52313 0.22457 0.63165 0.0
C1160 C 0.52296 0.18328 0.61938 0.0
C1161 C 0.57138 0.18762 0.61452 0.0
C1162 C 0.46473 0.51578 0.09278 0.0
C1163 C 0.46604 0.56178 0.09928 0.0
C1164 C 0.42083 0.46908 0.09697 0.0
C1165 C 0.3774 0.46501 0.11124 0.0
H1166 H 0.49669 0.51559 0.08162 0.0
H1167 H 0.41967 0.43651 0.08595 0.0
S1168 S 0.36172 0.57179 0.13858 0.0
N1169 N 0.41931 0.59902 0.1233 0.0
N1170 N 0.33971 0.51066 0.13552 0.0
C1171 C 0.3798 0.50997 0.12186 0.0
C1172 C 0.42343 0.55825 0.11531 0.0
C1173 C 0.95547 0.45155 0.59269 0.0
C1174 C 0.9119 0.45251 0.60275 0.0
C1175 C 0.95855 0.40752 0.59466 0.0
C1176 C 0.92079 0.36369 0.60975 0.0
H1177 H 0.98517 0.48341 0.57958 0.0
H1178 H 0.98787 0.40632 0.58069 0.0
S1179 S 0.80189 0.34741 0.64482 0.0
N1180 N 0.83109 0.40578 0.63058 0.0
N1181 N 0.84016 0.32515 0.63791 0.0
C1182 C 0.87975 0.36584 0.62369 0.0
C1183 C 0.87484 0.40984 0.61976 0.0
C1184 C 0.5811 0.94873 0.09016 0.0
C1185 C 0.589 0.91384 0.1079 0.0
C1186 C 0.53291 0.94272 0.08626 0.0
C1187 C 0.4892 0.89923 0.09763 0.0
H1188 H 0.61167 0.97838 0.07622 0.0
H1189 H 0.52952 0.97017 0.07116 0.0
S1190 S 0.48903 0.79643 0.1467 0.0
N1191 N 0.54912 0.83585 0.13937 0.0
N1192 N 0.45806 0.82195 0.12958 0.0
C1193 C 0.49664 0.86531 0.11725 0.0
C1194 C 0.54641 0.87292 0.12261 0.0
C1195 C 0.66999 0.55833 0.63512 0.0
C1196 C 0.69546 0.5751 0.60448 0.0
C1197 C 0.62412 0.51199 0.63747 0.0
C1198 C 0.60366 0.47961 0.60974 0.0
H1199 H 0.6852 0.5812 0.6572 0.0
H1200 H 0.60428 0.50156 0.66101 0.0
S1201 S 0.65478 0.50537 0.52406 0.0
N1202 N 0.69438 0.55539 0.54547 0.0
N1203 N 0.61204 0.46785 0.55112 0.0
C1204 C 0.62927 0.49549 0.57944 0.0
C1205 C 0.67406 0.54315 0.57654 0.0
C1206 C 0.37578 0.87674 0.3684 0.0
C1207 C 0.3731 0.91256 0.38911 0.0
C1208 C 0.41411 0.86407 0.37244 0.0
C1209 C 0.45178 0.88756 0.39689 0.0
H1210 H 0.34508 0.85439 0.35157 0.0
H1211 H 0.41157 0.83272 0.35849 0.0
S1212 S 0.46508 0.98688 0.45486 0.0
N1213 N 0.41281 0.97134 0.43431 0.0
N1214 N 0.48744 0.95276 0.43866 0.0
C1215 C 0.45234 0.92698 0.41497 0.0
C1216 C 0.41235 0.93795 0.41205 0.0
C1217 C 0.56734 0.40972 0.87476 0.0
C1218 C 0.57629 0.424 0.90851 0.0
C1219 C 0.51947 0.3726 0.86369 0.0
C1220 C 0.47865 0.34751 0.88585 0.0
H1221 H 0.59816 0.42451 0.85717 0.0
H1222 H 0.51545 0.36039 0.83802 0.0
S1223 S 0.48068 0.3757 0.97589 0.0
N1224 N 0.53765 0.41623 0.96269 0.0
N1225 N 0.45072 0.34197 0.94301 0.0
C1226 C 0.4865 0.36368 0.91916 0.0
C1227 C 0.53442 0.4031 0.9301 0.0
C1228 C 0.14887 0.54896 0.3607 0.0
C1229 C 0.14818 0.56526 0.39331 0.0
C1230 C 0.14715 0.50277 0.35468 0.0
C1231 C 0.14406 0.47062 0.38091 0.0
H1232 H 0.15035 0.57189 0.33972 0.0
H1233 H 0.14961 0.49266 0.3292 0.0
S1234 S 0.14428 0.49785 0.47095 0.0
N1235 N 0.14531 0.54626 0.45214 0.0
N1236 N 0.1438 0.46092 0.44095 0.0
C1237 C 0.14389 0.487 0.41361 0.0
C1238 C 0.14536 0.53376 0.41972 0.0
C1239 C 0.67355 0.12244 0.91168 0.0
C1240 C 0.68942 0.13271 0.87829 0.0
C1241 C 0.6302 0.12275 0.92276 0.0
C1242 C 0.60047 0.13358 0.90112 0.0
H1243 H 0.69584 0.11618 0.92985 0.0
H1244 H 0.62058 0.11553 0.9489 0.0
S1245 S 0.62567 0.16229 0.81092 0.0
N1246 N 0.67216 0.154 0.82361 0.0
N1247 N 0.5903 0.15362 0.84403 0.0
C1248 C 0.61586 0.14355 0.86753 0.0
C1249 C 0.6602 0.1433 0.8563 0.0
C1250 C 0.51496 0.61713 0.41808 0.0
C1251 C 0.4826 0.61802 0.39367 0.0
C1252 C 0.56723 0.64992 0.41639 0.0
C1253 C 0.58943 0.68479 0.39013 0.0
H1254 H 0.49937 0.59478 0.44041 0.0
H1255 H 0.58987 0.65157 0.43755 0.0
S1256 S 0.52186 0.69673 0.31735 0.0
N1257 N 0.47705 0.65249 0.34049 0.0
N1258 N 0.57511 0.71343 0.33699 0.0
C1259 C 0.55805 0.68207 0.36371 0.0
C1260 C 0.50469 0.64897 0.36563 0.0
C1261 C 0.95091 0.56324 0.91885 0.0
C1262 C 0.91944 0.57122 0.8974 0.0
C1263 C 0.94502 0.51531 0.92398 0.0
C1264 C 0.90457 0.47159 0.91004 0.0
H1265 H 0.97775 0.59347 0.9343 0.0
H1266 H 0.97016 0.51223 0.94148 0.0
S1267 S 0.81435 0.47196 0.84851 0.0
N1268 N 0.85094 0.53193 0.85782 0.0
N1269 N 0.83556 0.44082 0.87045 0.0
C1270 C 0.87498 0.47921 0.88636 0.0
C1271 C 0.88317 0.529 0.87961 0.0
C1272 C 0.16273 0.33728 0.26092 0.0
C1273 C 0.19493 0.37707 0.28182 0.0
C1274 C 0.17201 0.33752 0.22703 0.0
C1275 C 0.21473 0.37713 0.21221 0.0
H1276 H 0.13085 0.30421 0.27093 0.0
H1277 H 0.14615 0.30525 0.21255 0.0
S1278 S 0.31393 0.48923 0.2556 0.0
N1279 N 0.27287 0.45707 0.28525 0.0
N1280 N 0.29136 0.45675 0.2209 0.0
C1281 C 0.24798 0.41741 0.23247 0.0
C1282 C 0.23815 0.41734 0.26746 0.0
C1283 C 0.83334 0.22143 0.72597 0.0
C1284 C 0.85949 0.20391 0.70634 0.0
C1285 C 0.82477 0.20954 0.76037 0.0
C1286 C 0.84187 0.17957 0.776 0.0
H1287 H 0.82051 0.24524 0.7149 0.0
H1288 H 0.80435 0.22339 0.77469 0.0
S1289 S 0.91623 0.12914 0.7361 0.0
N1290 N 0.90537 0.15902 0.70608 0.0
N1291 N 0.88802 0.13533 0.76914 0.0
C1292 C 0.86814 0.16257 0.75648 0.0
C1293 C 0.87732 0.17517 0.72211 0.0
C1294 C 0.73268 0.85968 0.22473 0.0
C1295 C 0.68862 0.85088 0.20863 0.0
C1296 C 0.73481 0.85618 0.25904 0.0
C1297 C 0.69242 0.84147 0.27945 0.0
H1298 H 0.76691 0.87136 0.21081 0.0
H1299 H 0.77057 0.8643 0.26942 0.0
S1300 S 0.5669 0.81368 0.24969 0.0
N1301 N 0.60114 0.82797 0.21538 0.0
N1302 N 0.60421 0.81792 0.28071 0.0
C1303 C 0.64743 0.83176 0.26381 0.0
C1304 C 0.64558 0.83663 0.22825 0.0
C1305 C 0.80498 0.67292 0.74628 0.0
C1306 C 0.83055 0.66328 0.7205 0.0
C1307 C 0.81551 0.6707 0.78017 0.0
C1308 C 0.85195 0.65847 0.78996 0.0
H1309 H 0.77734 0.68376 0.74044 0.0
H1310 H 0.79666 0.68103 0.79868 0.0
S1311 S 0.92298 0.62051 0.73351 0.0
N1312 N 0.88963 0.63467 0.70808 0.0
N1313 N 0.90894 0.63001 0.7715 0.0
C1314 C 0.87538 0.64542 0.76476 0.0
C1315 C 0.86478 0.64782 0.7302 0.0
C1316 C 0.22608 0.87499 0.22058 0.0
C1317 C 0.2113 0.82629 0.20997 0.0
C1318 C 0.23242 0.88732 0.25434 0.0
C1319 C 0.22787 0.85277 0.27942 0.0
H1320 H 0.22967 0.90317 0.20281 0.0
H1321 H 0.23892 0.92417 0.26059 0.0
S1322 S 0.18805 0.71879 0.26434 0.0
N1323 N 0.18899 0.74154 0.22683 0.0
N1324 N 0.20585 0.76621 0.29049 0.0
C1325 C 0.21343 0.8036 0.26904 0.0
C1326 C 0.20448 0.79024 0.23437 0.0
C1327 C 0.42892 0.21945 0.76637 0.0
C1328 C 0.38418 0.21274 0.78088 0.0
C1329 C 0.4319 0.21288 0.73162 0.0
C1330 C 0.39038 0.19983 0.71055 0.0
H1331 H 0.46157 0.22999 0.7818 0.0
H1332 H 0.46638 0.21718 0.7213 0.0
S1333 S 0.26266 0.16658 0.73818 0.0
N1334 N 0.29697 0.18663 0.772 0.0
N1335 N 0.30211 0.17257 0.70843 0.0
C1336 C 0.34572 0.19139 0.7254 0.0
C1337 C 0.34278 0.19831 0.76009 0.0
C1338 C 0.34546 0.32891 0.98075 0.0
C1339 C 0.3321 0.27792 0.97649 0.0
C1340 C 0.32288 0.3441 0.00511 0.0
C1341 C 0.28471 0.30884 0.02577 0.0
H1342 H 0.37298 0.35754 0.96448 0.0
H1343 H 0.3361 0.38385 0.00821 0.0
S1344 S 0.23454 0.17085 0.02498 0.0
N1345 N 0.27747 0.19231 0.99523 0.0
N1346 N 0.23486 0.22063 0.04089 0.0
C1347 C 0.27104 0.25785 0.02204 0.0
C1348 C 0.2946 0.24244 0.99748 0.0
C1349 C 0.07186 0.34643 0.49135 0.0
C1350 C 0.0808 0.31172 0.47422 0.0
C1351 C 1.0301 0.33045 0.51285 0.0
C1352 C 0.99551 0.27895 0.51908 0.0
H1353 H 0.09651 0.38627 0.48753 0.0
H1354 H 1.02529 0.35904 0.5253 0.0
S1355 S 1.00382 0.17224 0.48338 0.0
N1356 N 0.05211 0.22245 0.46692 0.0
N1357 N 0.97498 0.19353 0.5074 0.0
C1358 C 1.00427 0.24386 0.5026 0.0
C1359 C 0.04663 0.25993 0.48056 0.0
C1360 C 0.78469 0.0278 0.01786 0.0
C1361 C 0.73883 0.98158 0.01917 0.0
C1362 C 0.7954 0.06334 0.99224 0.0
C1363 C 0.7602 0.05459 0.96709 0.0
H1364 H 0.81231 0.037 0.03734 0.0
H1365 H 0.8315 0.09763 0.99208 0.0
S1366 S 0.63299 0.94073 0.96046 0.0
N1367 N 0.65768 0.92997 0.99377 0.0
N1368 N 0.67624 0.99604 0.94612 0.0
C1369 C 0.71392 1.00843 0.9684 0.0
C1370 C 0.70364 0.97213 0.99418 0.0
C1371 C 0.74061 0.7414 0.52651 0.0
C1372 C 0.78833 0.74431 0.52801 0.0
C1373 C 0.7271 0.76339 0.50073 0.0
C1374 C 0.76033 0.78905 0.47472 0.0
H1375 H 0.71236 0.72109 0.5453 0.0
H1376 H 0.6893 0.75755 0.50018 0.0
S1377 S 0.8901 0.80985 0.46613 0.0
N1378 N 0.86925 0.77712 0.50098 0.0
N1379 N 0.84393 0.81774 0.4521 0.0
C1380 C 0.80855 0.79341 0.47599 0.0
C1381 C 0.82242 0.77111 0.50248 0.0
C1382 C 1.00645 0.77834 0.99106 0.0
C1383 C 0.98043 0.72692 0.98212 0.0
C1384 C 0.04811 0.79828 0.01321 0.0
C1385 C 0.06663 0.76797 0.02636 0.0
H1386 H 0.99542 0.80366 0.98012 0.0
H1387 H 0.06528 0.83735 0.02053 0.0
S1388 S 1.01438 0.63202 0.00915 0.0
N1389 N 0.97782 0.64704 0.98778 0.0
N1390 N 0.05611 0.68422 0.02776 0.0
C1391 C 0.04146 0.71695 0.01698 0.0
C1392 C 0.9987 0.69662 0.99532 0.0
C1393 C 0.26067 1.01548 0.48057 0.0
C1394 C 0.27699 0.98038 0.47451 0.0
C1395 C 0.28317 0.05344 0.50506 0.0
C1396 C 0.3238 0.05876 0.52426 0.0
H1397 H 0.23062 1.01414 0.46569 0.0
H1398 H 0.26797 0.07808 0.50943 0.0
S1399 S 0.38373 0.97989 0.51693 0.0
N1400 N 0.3373 0.95488 0.48976 0.0
N1401 N 0.38153 0.02772 0.5338 0.0
C1402 C 0.34115 0.02474 0.51793 0.0
C1403 C 0.31726 0.98519 0.49378 0.0
loop_
_geom_bond_atom_site_label_1
_geom_bond_atom_site_label_2
_geom_bond_distance
_geom_bond_site_symmetry_2
_ccdc_geom_bond_type
Eu0 N31 2.657 . S
Eu0 N38 2.609 . S
Eu0 O44 2.558 . S
Eu0 O45 2.612 . S
Eu0 O47 2.339 . S
Eu0 O48 2.563 . S
Eu0 O49 2.419 . S
Eu0 O51 2.380 . S
Eu0 O52 2.432 . S
Eu0 C64 2.848 . S
C1 C4 1.429 . S
C1 C5 1.411 . S
C1 N8 1.377 . S
C2 C4 1.420 . S
C2 C6 1.423 . S
C2 C14 1.392 . S
C3 C5 1.420 . S
C3 C6 1.351 . S
C3 H26 0.931 . S
C4 C1 1.429 . S
C4 C2 1.420 . S
C4 N12 1.362 . S
C5 C1 1.411 . S
C5 C3 1.420 . S
C5 C10 1.395 . S
C6 C2 1.423 . S
C6 C3 1.351 . S
C6 H18 0.930 . S
C7 C9 1.400 . S
C7 C10 1.386 . S
C7 H19 0.930 . S
N8 C1 1.377 . S
N8 C9 1.321 . S
N8 Eu11 2.609 . S
C9 C7 1.400 . S
C9 N8 1.321 . S
C9 H16 0.930 . S
C10 C5 1.395 . S
C10 C7 1.386 . S
C10 H29 0.930 . S
Eu11 N8 2.609 . S
Eu11 N12 2.657 . S
Eu11 O45 2.380 . S
Eu11 O46 2.432 . S
Eu11 O50 2.558 . S
Eu11 O51 2.612 . S
Eu11 O53 2.339 . S
Eu11 O54 2.563 . S
Eu11 O55 2.419 . S
Eu11 C75 2.848 . S
N12 C4 1.362 . S
N12 Eu11 2.657 . S
N12 C13 1.334 . S
C13 N12 1.334 . S
C13 C15 1.413 . S
C13 H20 0.929 . S
C14 C2 1.392 . S
C14 C15 1.367 . S
C14 H22 0.930 . S
C15 C13 1.413 . S
C15 C14 1.367 . S
C15 H17 0.930 . S
H16 C9 0.930 . S
H17 C15 0.930 . S
H18 C6 0.930 . S
H19 C7 0.930 . S
H20 C13 0.929 . S
H21 C35 0.930 . S
H22 C14 0.930 . S
H23 C41 0.934 . S
H24 C32 0.929 . S
H25 C39 0.930 . S
H26 C3 0.931 . S
H27 C33 0.930 . S
H28 C66 0.930 . S
H29 C10 0.930 . S
H30 C65 0.931 . S
N31 Eu0 2.657 . S
N31 C32 1.334 . S
N31 C36 1.362 . S
C32 H24 0.929 . S
C32 N31 1.334 . S
C32 C35 1.413 1_455 S
C33 H27 0.930 . S
C33 C34 1.392 . S
C33 C35 1.367 . S
C34 C33 1.392 . S
C34 C36 1.420 1_655 S
C34 C66 1.423 . S
C35 H21 0.930 . S
C35 C32 1.413 1_655 S
C35 C33 1.367 . S
C36 N31 1.362 . S
C36 C34 1.420 1_455 S
C36 C40 1.429 . S
H37 C42 0.930 . S
N38 Eu0 2.609 . S
N38 C40 1.377 . S
N38 C41 1.321 . S
C39 H25 0.930 . S
C39 C41 1.400 1_556 S
C39 C42 1.386 . S
C40 C36 1.429 . S
C40 N38 1.377 . S
C40 C43 1.411 . S
C41 H23 0.934 . S
C41 N38 1.321 . S
C41 C39 1.400 1_554 S
C42 H37 0.930 . S
C42 C39 1.386 . S
C42 C43 1.395 1_556 S
C43 C40 1.411 . S
C43 C42 1.395 1_554 S
C43 C65 1.420 1_455 S
O44 Eu0 2.558 . S
O44 C64 1.257 . S
O45 Eu0 2.612 . S
O45 Eu11 2.380 . S
O45 C56 1.276 . S
O46 Eu11 2.432 . S
O46 C63 1.264 . S
O47 Eu0 2.339 . S
O47 C63 1.254 . S
O48 Eu0 2.563 . S
O48 C56 1.235 . S
O49 Eu0 2.419 . S
O49 C64 1.249 . S
O50 Eu11 2.558 . S
O50 C75 1.257 . S
O51 Eu0 2.380 . S
O51 Eu11 2.612 . S
O51 C67 1.276 . S
O52 Eu0 2.432 . S
O52 C74 1.264 . S
O53 Eu11 2.339 . S
O53 C74 1.254 . S
O54 Eu11 2.563 . S
O54 C67 1.235 . S
O55 Eu11 2.419 . S
O55 C75 1.249 . S
C56 O45 1.276 . S
C56 O48 1.235 . S
C57 C59 1.393 . S
C57 C61 1.395 . S
C57 C64 1.492 . S
C58 C59 1.392 . S
C58 C60 1.386 . S
C59 C57 1.393 . S
C59 C58 1.392 . S
C59 H76 0.930 . S
C60 C58 1.386 . S
C60 C62 1.395 . S
C60 H77 0.930 . S
C61 C57 1.395 . S
C61 C62 1.379 . S
C61 H78 0.930 . S
C62 C60 1.395 . S
C62 C61 1.379 . S
C62 H79 0.930 . S
C63 O46 1.264 . S
C63 O47 1.254 . S
C64 Eu0 2.848 . S
C64 O44 1.257 . S
C64 O49 1.249 . S
C64 C57 1.492 . S
C65 H30 0.931 . S
C65 C43 1.420 1_655 S
C65 C66 1.351 . S
C66 H28 0.930 . S
C66 C34 1.423 . S
C66 C65 1.351 . S
C67 O51 1.276 . S
C67 O54 1.235 . S
C68 C69 1.393 . S
C68 C72 1.395 . S
C68 C75 1.492 . S
C69 C68 1.393 . S
C69 C70 1.392 . S
C69 H80 0.930 . S
C70 C69 1.392 . S
C70 C71 1.386 . S
C71 C70 1.386 . S
C71 C73 1.395 . S
C71 H81 0.930 . S
C72 C68 1.395 . S
C72 C73 1.379 . S
C72 H82 0.930 . S
C73 C71 1.395 . S
C73 C72 1.379 . S
C73 H83 0.930 . S
C74 O52 1.264 . S
C74 O53 1.254 . S
C75 Eu11 2.848 . S
C75 O50 1.257 . S
C75 O55 1.249 . S
C75 C68 1.492 . S
H76 C59 0.930 . S
H77 C60 0.930 . S
H78 C61 0.930 . S
H79 C62 0.930 . S
H80 C69 0.930 . S
H81 C71 0.930 . S
H82 C72 0.930 . S
H83 C73 0.930 . S
Eu84 N115 2.657 . S
Eu84 N122 2.609 . S
Eu84 O128 2.558 . S
Eu84 O129 2.612 . S
Eu84 O131 2.339 . S
Eu84 O132 2.563 . S
Eu84 O133 2.419 . S
Eu84 O135 2.380 . S
Eu84 O136 2.432 . S
Eu84 C148 2.848 . S
C85 C88 1.429 . S
C85 C89 1.409 1_655 S
C85 N92 1.377 . S
C86 C88 1.420 1_455 S
C86 C90 1.423 . S
C86 C98 1.392 . S
C87 C89 1.420 . S
C87 C90 1.351 . S
C87 H110 0.931 . S
C88 C85 1.429 . S
C88 C86 1.420 1_655 S
C88 N96 1.362 . S
C89 C85 1.409 1_455 S
C89 C87 1.420 . S
C89 C94 1.397 1_455 S
C90 C86 1.423 . S
C90 C87 1.351 . S
C90 H102 0.930 . S
C91 C93 1.400 . S
C91 C94 1.386 . S
C91 H103 0.930 . S
N92 C85 1.377 . S
N92 C93 1.321 . S
N92 Eu95 2.609 . S
C93 C91 1.400 . S
C93 N92 1.321 . S
C93 H100 0.930 . S
C94 C89 1.397 1_655 S
C94 C91 1.386 . S
C94 H113 0.930 1_655 S
Eu95 N92 2.609 . S
Eu95 N96 2.657 . S
Eu95 O129 2.380 . S
Eu95 O130 2.432 . S
Eu95 O134 2.558 . S
Eu95 O135 2.612 . S
Eu95 O137 2.339 . S
Eu95 O138 2.563 . S
Eu95 O139 2.419 . S
Eu95 C159 2.848 1_655 S
N96 C88 1.362 . S
N96 Eu95 2.657 . S
N96 C97 1.334 . S
C97 N96 1.334 . S
C97 C99 1.413 . S
C97 H104 0.929 . S
C98 C86 1.392 . S
C98 C99 1.367 1_455 S
C98 H106 0.930 . S
C99 C97 1.413 . S
C99 C98 1.367 1_655 S
C99 H101 0.930 . S
H100 C93 0.930 . S
H101 C99 0.930 . S
H102 C90 0.930 . S
H103 C91 0.930 . S
H104 C97 0.929 . S
H105 C119 0.930 . S
H106 C98 0.930 . S
H107 C125 0.930 . S
H108 C116 0.929 . S
H109 C123 0.930 . S
H110 C87 0.931 . S
H111 C117 0.930 . S
H112 C150 0.930 . S
H113 C94 0.930 1_455 S
H114 C149 0.931 . S
N115 Eu84 2.657 . S
N115 C116 1.334 . S
N115 C120 1.362 . S
C116 H108 0.929 . S
C116 N115 1.334 . S
C116 C119 1.413 1_545 S
C117 H111 0.930 . S
C117 C118 1.392 . S
C117 C119 1.367 . S
C118 C117 1.392 . S
C118 C120 1.420 1_565 S
C118 C150 1.423 . S
C119 H105 0.930 . S
C119 C116 1.413 1_565 S
C119 C117 1.367 . S
C120 N115 1.362 . S
C120 C118 1.420 1_545 S
C120 C124 1.429 . S
H121 C126 0.930 . S
N122 Eu84 2.609 . S
N122 C124 1.377 . S
N122 C125 1.321 . S
C123 H109 0.930 . S
C123 C125 1.400 . S
C123 C126 1.386 . S
C124 C120 1.429 . S
C124 N122 1.377 . S
C124 C127 1.411 . S
C125 H107 0.930 . S
C125 N122 1.321 . S
C125 C123 1.400 . S
C126 H121 0.930 . S
C126 C123 1.386 . S
C126 C127 1.395 . S
C127 C124 1.411 . S
C127 C126 1.395 . S
C127 C149 1.420 1_545 S
O128 Eu84 2.558 . S
O128 C148 1.257 . S
O129 Eu84 2.612 . S
O129 Eu95 2.380 . S
O129 C140 1.276 . S
O130 Eu95 2.432 . S
O130 C147 1.264 . S
O131 Eu84 2.339 . S
O131 C147 1.254 . S
O132 Eu84 2.563 . S
O132 C140 1.235 . S
O133 Eu84 2.419 . S
O133 C148 1.249 . S
O134 Eu95 2.558 . S
O134 C159 1.257 1_655 S
O135 Eu84 2.380 . S
O135 Eu95 2.612 . S
O135 C151 1.276 . S
O136 Eu84 2.432 . S
O136 C158 1.264 . S
O137 Eu95 2.339 . S
O137 C158 1.254 . S
O138 Eu95 2.563 . S
O138 C151 1.235 . S
O139 Eu95 2.419 . S
O139 C159 1.249 1_655 S
C140 O129 1.276 . S
C140 O132 1.235 . S
C141 C143 1.393 . S
C141 C145 1.395 . S
C141 C148 1.492 . S
C142 C143 1.392 . S
C142 C144 1.386 . S
C143 C141 1.393 . S
C143 C142 1.392 . S
C143 H160 0.930 . S
C144 C142 1.386 . S
C144 C146 1.395 . S
C144 H161 0.930 . S
C145 C141 1.395 . S
C145 C146 1.379 . S
C145 H162 0.930 . S
C146 C144 1.395 . S
C146 C145 1.379 . S
C146 H163 0.930 . S
C147 O130 1.264 . S
C147 O131 1.254 . S
C148 Eu84 2.848 . S
C148 O128 1.257 . S
C148 O133 1.249 . S
C148 C141 1.492 . S
C149 H114 0.931 . S
C149 C127 1.420 1_565 S
C149 C150 1.351 . S
C150 H112 0.930 . S
C150 C118 1.423 . S
C150 C149 1.351 . S
C151 O135 1.276 . S
C151 O138 1.235 . S
C152 C153 1.393 . S
C152 C156 1.395 . S
C152 C159 1.492 . S
C153 C152 1.393 . S
C153 C154 1.392 . S
C153 H164 0.930 . S
C154 C153 1.392 . S
C154 C155 1.386 . S
C155 C154 1.386 . S
C155 C157 1.395 . S
C155 H165 0.930 . S
C156 C152 1.395 . S
C156 C157 1.379 . S
C156 H166 0.930 . S
C157 C155 1.395 . S
C157 C156 1.379 . S
C157 H167 0.930 . S
C158 O136 1.264 . S
C158 O137 1.254 . S
C159 Eu95 2.848 1_455 S
C159 O134 1.257 1_455 S
C159 O139 1.249 1_455 S
C159 C152 1.492 . S
H160 C143 0.930 . S
H161 C144 0.930 . S
H162 C145 0.930 . S
H163 C146 0.930 . S
H164 C153 0.930 . S
H165 C155 0.930 . S
H166 C156 0.930 . S
H167 C157 0.930 . S
Eu168 N199 2.657 . S
Eu168 N206 2.609 . S
Eu168 O212 2.558 . S
Eu168 O213 2.612 . S
Eu168 O215 2.339 . S
Eu168 O216 2.563 . S
Eu168 O217 2.419 . S
Eu168 O219 2.380 . S
Eu168 O220 2.432 . S
Eu168 C232 2.848 . S
C169 C172 1.429 . S
C169 C173 1.402 1_565 S
C169 N176 1.377 . S
C170 C172 1.420 1_545 S
C170 C174 1.423 . S
C170 C182 1.392 . S
C171 C173 1.433 . S
C171 C174 1.351 . S
C171 H194 0.931 . S
C172 C169 1.429 . S
C172 C170 1.420 1_565 S
C172 N180 1.362 . S
C173 C169 1.402 1_545 S
C173 C171 1.433 . S
C173 C178 1.391 1_545 S
C174 C170 1.423 . S
C174 C171 1.351 . S
C174 H186 0.930 . S
C175 C177 1.400 . S
C175 C178 1.386 . S
C175 H187 0.930 . S
N176 C169 1.377 . S
N176 C177 1.321 . S
N176 Eu179 2.609 . S
C177 C175 1.400 . S
C177 N176 1.321 . S
C177 H184 0.930 . S
C178 C173 1.391 1_565 S
C178 C175 1.386 . S
C178 H197 0.930 1_565 S
Eu179 N176 2.609 . S
Eu179 N180 2.657 . S
Eu179 O213 2.380 . S
Eu179 O214 2.432 . S
Eu179 O218 2.558 . S
Eu179 O219 2.612 . S
Eu179 O221 2.339 . S
Eu179 O222 2.563 . S
Eu179 O223 2.419 . S
Eu179 C243 2.848 1_565 S
N180 C172 1.362 . S
N180 Eu179 2.657 . S
N180 C181 1.334 . S
C181 N180 1.334 . S
C181 C183 1.413 . S
C181 H188 0.929 . S
C182 C170 1.392 . S
C182 C183 1.367 1_545 S
C182 H190 0.930 . S
C183 C181 1.413 . S
C183 C182 1.367 1_565 S
C183 H185 0.930 . S
H184 C177 0.930 . S
H185 C183 0.930 . S
H186 C174 0.930 . S
H187 C175 0.930 . S
H188 C181 0.929 . S
H189 C203 0.930 . S
H190 C182 0.930 . S
H191 C209 0.934 . S
H192 C200 0.929 . S
H193 C207 0.930 . S
H194 C171 0.931 . S
H195 C201 0.930 . S
H196 C234 0.930 . S
H197 C178 0.930 1_545 S
H198 C233 0.931 . S
N199 Eu168 2.657 . S
N199 C200 1.334 . S
N199 C204 1.362 . S
C200 H192 0.929 . S
C200 N199 1.334 . S
C200 C203 1.413 . S
C201 H195 0.930 . S
C201 C202 1.392 . S
C201 C203 1.367 . S
C202 C201 1.392 . S
C202 C204 1.420 . S
C202 C234 1.423 . S
C203 H189 0.930 . S
C203 C200 1.413 . S
C203 C201 1.367 . S
C204 N199 1.362 . S
C204 C202 1.420 . S
C204 C208 1.429 . S
H205 C210 0.930 . S
N206 Eu168 2.609 . S
N206 C208 1.377 . S
N206 C209 1.321 . S
C207 H193 0.930 . S
C207 C209 1.400 1_556 S
C207 C210 1.386 . S
C208 C204 1.429 . S
C208 N206 1.377 . S
C208 C211 1.411 . S
C209 H191 0.934 . S
C209 N206 1.321 . S
C209 C207 1.400 1_554 S
C210 H205 0.930 . S
C210 C207 1.386 . S
C210 C211 1.395 1_556 S
C211 C208 1.411 . S
C211 C210 1.395 1_554 S
C211 C233 1.420 . S
O212 Eu168 2.558 . S
O212 C232 1.257 . S
O213 Eu168 2.612 . S
O213 Eu179 2.380 . S
O213 C224 1.276 . S
O214 Eu179 2.432 . S
O214 C231 1.264 . S
O215 Eu168 2.339 . S
O215 C231 1.254 . S
O216 Eu168 2.563 . S
O216 C224 1.235 . S
O217 Eu168 2.419 . S
O217 C232 1.249 . S
O218 Eu179 2.558 . S
O218 C243 1.257 1_565 S
O219 Eu168 2.380 . S
O219 Eu179 2.612 . S
O219 C235 1.276 . S
O220 Eu168 2.432 . S
O220 C242 1.264 . S
O221 Eu179 2.339 . S
O221 C242 1.254 . S
O222 Eu179 2.563 . S
O222 C235 1.235 . S
O223 Eu179 2.419 . S
O223 C243 1.249 1_565 S
C224 O213 1.276 . S
C224 O216 1.235 . S
C225 C227 1.393 . S
C225 C229 1.395 . S
C225 C232 1.492 . S
C226 C227 1.392 . S
C226 C228 1.386 . S
C227 C225 1.393 . S
C227 C226 1.392 . S
C227 H244 0.930 . S
C228 C226 1.386 . S
C228 C230 1.395 . S
C228 H245 0.930 . S
C229 C225 1.395 . S
C229 C230 1.379 . S
C229 H246 0.930 . S
C230 C228 1.395 . S
C230 C229 1.379 . S
C230 H247 0.930 . S
C231 O214 1.264 . S
C231 O215 1.254 . S
C232 Eu168 2.848 . S
C232 O212 1.257 . S
C232 O217 1.249 . S
C232 C225 1.492 . S
C233 H198 0.931 . S
C233 C211 1.420 . S
C233 C234 1.351 . S
C234 H196 0.930 . S
C234 C202 1.423 . S
C234 C233 1.351 . S
C235 O219 1.276 . S
C235 O222 1.235 . S
C236 C237 1.393 . S
C236 C240 1.395 . S
C236 C243 1.492 . S
C237 C236 1.393 . S
C237 C238 1.392 . S
C237 H248 0.930 . S
C238 C237 1.392 . S
C238 C239 1.386 . S
C239 C238 1.386 . S
C239 C241 1.395 . S
C239 H249 0.930 . S
C240 C236 1.395 . S
C240 C241 1.379 . S
C240 H250 0.930 . S
C241 C239 1.395 . S
C241 C240 1.379 . S
C241 H251 0.930 . S
C242 O220 1.264 . S
C242 O221 1.254 . S
C243 Eu179 2.848 1_545 S
C243 O218 1.257 1_545 S
C243 O223 1.249 1_545 S
C243 C236 1.492 . S
H244 C227 0.930 . S
H245 C228 0.930 . S
H246 C229 0.930 . S
H247 C230 0.930 . S
H248 C237 0.930 . S
H249 C239 0.930 . S
H250 C240 0.930 . S
H251 C241 0.930 . S
Eu252 N283 2.657 . S
Eu252 N290 2.609 . S
Eu252 O296 2.558 . S
Eu252 O297 2.612 . S
Eu252 O299 2.339 . S
Eu252 O300 2.563 . S
Eu252 O301 2.419 . S
Eu252 O303 2.380 . S
Eu252 O304 2.432 . S
Eu252 C316 2.848 . S
C253 C256 1.429 . S
C253 C257 1.411 . S
C253 N260 1.377 . S
C254 C256 1.420 . S
C254 C258 1.423 . S
C254 C266 1.392 . S
C255 C257 1.420 . S
C255 C258 1.351 . S
C255 H278 0.931 . S
C256 C253 1.429 . S
C256 C254 1.420 . S
C256 N264 1.362 . S
C257 C253 1.411 . S
C257 C255 1.420 . S
C257 C262 1.395 . S
C258 C254 1.423 . S
C258 C255 1.351 . S
C258 H270 0.930 . S
C259 C261 1.400 . S
C259 C262 1.386 . S
C259 H271 0.930 . S
N260 C253 1.377 . S
N260 C261 1.321 . S
N260 Eu263 2.609 . S
C261 C259 1.400 . S
C261 N260 1.321 . S
C261 H268 0.930 . S
C262 C257 1.395 . S
C262 C259 1.386 . S
C262 H281 0.930 . S
Eu263 N260 2.609 . S
Eu263 N264 2.657 . S
Eu263 O297 2.380 . S
Eu263 O298 2.432 . S
Eu263 O302 2.558 . S
Eu263 O303 2.612 . S
Eu263 O305 2.339 . S
Eu263 O306 2.563 . S
Eu263 O307 2.419 . S
Eu263 C327 2.848 . S
N264 C256 1.362 . S
N264 Eu263 2.657 . S
N264 C265 1.334 . S
C265 N264 1.334 . S
C265 C267 1.413 . S
C265 H272 0.929 . S
C266 C254 1.392 . S
C266 C267 1.367 . S
C266 H274 0.930 . S
C267 C265 1.413 . S
C267 C266 1.367 . S
C267 H269 0.930 . S
H268 C261 0.930 . S
H269 C267 0.930 . S
H270 C258 0.930 . S
H271 C259 0.930 . S
H272 C265 0.929 . S
H273 C287 0.930 . S
H274 C266 0.930 . S
H275 C293 0.930 . S
H276 C284 0.929 . S
H277 C291 0.930 . S
H278 C255 0.931 . S
H279 C285 0.930 . S
H280 C318 0.930 . S
H281 C262 0.930 . S
H282 C317 0.931 . S
N283 Eu252 2.657 . S
N283 C284 1.334 . S
N283 C288 1.362 . S
C284 H276 0.929 . S
C284 N283 1.334 . S
C284 C287 1.413 1_655 S
C285 H279 0.930 . S
C285 C286 1.392 . S
C285 C287 1.367 . S
C286 C285 1.392 . S
C286 C288 1.420 1_455 S
C286 C318 1.423 . S
C287 H273 0.930 . S
C287 C284 1.413 1_455 S
C287 C285 1.367 . S
C288 N283 1.362 . S
C288 C286 1.420 1_655 S
C288 C292 1.429 . S
H289 C294 0.930 . S
N290 Eu252 2.609 . S
N290 C292 1.377 . S
N290 C293 1.321 . S
C291 H277 0.930 . S
C291 C293 1.400 . S
C291 C294 1.386 . S
C292 C288 1.429 . S
C292 N290 1.377 . S
C292 C295 1.411 . S
C293 H275 0.930 . S
C293 N290 1.321 . S
C293 C291 1.400 . S
C294 H289 0.930 . S
C294 C291 1.386 . S
C294 C295 1.395 . S
C295 C292 1.411 . S
C295 C294 1.395 . S
C295 C317 1.420 1_655 S
O296 Eu252 2.558 . S
O296 C316 1.257 . S
O297 Eu252 2.612 . S
O297 Eu263 2.380 . S
O297 C308 1.276 . S
O298 Eu263 2.432 . S
O298 C315 1.264 . S
O299 Eu252 2.339 . S
O299 C315 1.254 . S
O300 Eu252 2.563 . S
O300 C308 1.235 . S
O301 Eu252 2.419 . S
O301 C316 1.249 . S
O302 Eu263 2.558 . S
O302 C327 1.257 . S
O303 Eu252 2.380 . S
O303 Eu263 2.612 . S
O303 C319 1.276 . S
O304 Eu252 2.432 . S
O304 C326 1.264 . S
O305 Eu263 2.339 . S
O305 C326 1.254 . S
O306 Eu263 2.563 . S
O306 C319 1.235 . S
O307 Eu263 2.419 . S
O307 C327 1.249 . S
C308 O297 1.276 . S
C308 O300 1.235 . S
C309 C311 1.393 . S
C309 C313 1.395 . S
C309 C316 1.492 . S
C310 C311 1.392 . S
C310 C312 1.386 . S
C311 C309 1.393 . S
C311 C310 1.392 . S
C311 H328 0.930 . S
C312 C310 1.386 . S
C312 C314 1.395 . S
C312 H329 0.930 . S
C313 C309 1.395 . S
C313 C314 1.379 . S
C313 H330 0.930 . S
C314 C312 1.395 . S
C314 C313 1.379 . S
C314 H331 0.930 . S
C315 O298 1.264 . S
C315 O299 1.254 . S
C316 Eu252 2.848 . S
C316 O296 1.257 . S
C316 O301 1.249 . S
C316 C309 1.492 . S
C317 H282 0.931 . S
C317 C295 1.420 1_455 S
C317 C318 1.351 . S
C318 H280 0.930 . S
C318 C286 1.423 . S
C318 C317 1.351 . S
C319 O303 1.276 . S
C319 O306 1.235 . S
C320 C321 1.393 . S
C320 C324 1.395 . S
C320 C327 1.492 . S
C321 C320 1.393 . S
C321 C322 1.392 . S
C321 H332 0.930 . S
C322 C321 1.392 . S
C322 C323 1.386 . S
C323 C322 1.386 . S
C323 C325 1.395 . S
C323 H333 0.930 . S
C324 C320 1.395 . S
C324 C325 1.379 . S
C324 H334 0.930 . S
C325 C323 1.395 . S
C325 C324 1.379 . S
C325 H335 0.930 . S
C326 O304 1.264 . S
C326 O305 1.254 . S
C327 Eu263 2.848 . S
C327 O302 1.257 . S
C327 O307 1.249 . S
C327 C320 1.492 . S
H328 C311 0.930 . S
H329 C312 0.930 . S
H330 C313 0.930 . S
H331 C314 0.930 . S
H332 C321 0.930 . S
H333 C323 0.930 . S
H334 C324 0.930 . S
H335 C325 0.930 . S
Eu336 N367 2.657 . S
Eu336 N374 2.609 . S
Eu336 O380 2.558 . S
Eu336 O381 2.612 . S
Eu336 O383 2.339 . S
Eu336 O384 2.563 . S
Eu336 O385 2.419 . S
Eu336 O387 2.380 . S
Eu336 O388 2.432 . S
Eu336 C400 2.848 . S
C337 C340 1.429 . S
C337 C341 1.409 1_455 S
C337 N344 1.377 . S
C338 C340 1.420 1_655 S
C338 C342 1.423 . S
C338 C350 1.392 . S
C339 C341 1.420 . S
C339 C342 1.351 . S
C339 H362 0.931 . S
C340 C337 1.429 . S
C340 C338 1.420 1_455 S
C340 N348 1.362 . S
C341 C337 1.409 1_655 S
C341 C339 1.420 . S
C341 C346 1.397 1_655 S
C342 C338 1.423 . S
C342 C339 1.351 . S
C342 H354 0.930 . S
C343 C345 1.400 . S
C343 C346 1.386 . S
C343 H355 0.930 . S
N344 C337 1.377 . S
N344 C345 1.321 . S
N344 Eu347 2.609 . S
C345 C343 1.400 . S
C345 N344 1.321 . S
C345 H352 0.930 . S
C346 C341 1.397 1_455 S
C346 C343 1.386 . S
C346 H365 0.930 1_455 S
Eu347 N344 2.609 . S
Eu347 N348 2.657 . S
Eu347 O381 2.380 . S
Eu347 O382 2.432 . S
Eu347 O386 2.558 . S
Eu347 O387 2.612 . S
Eu347 O389 2.339 . S
Eu347 O390 2.563 . S
Eu347 O391 2.419 . S
Eu347 C411 2.848 1_455 S
N348 C340 1.362 . S
N348 Eu347 2.657 . S
N348 C349 1.334 . S
C349 N348 1.334 . S
C349 C351 1.413 . S
C349 H356 0.929 . S
C350 C338 1.392 . S
C350 C351 1.367 1_655 S
C350 H358 0.930 . S
C351 C349 1.413 . S
C351 C350 1.367 1_455 S
C351 H353 0.930 . S
H352 C345 0.930 . S
H353 C351 0.930 . S
H354 C342 0.930 . S
H355 C343 0.930 . S
H356 C349 0.929 . S
H357 C371 0.930 . S
H358 C350 0.930 . S
H359 C377 0.934 . S
H360 C368 0.929 . S
H361 C375 0.930 . S
H362 C339 0.931 . S
H363 C369 0.930 . S
H364 C402 0.930 . S
H365 C346 0.930 1_655 S
H366 C401 0.931 . S
N367 Eu336 2.657 . S
N367 C368 1.334 . S
N367 C372 1.362 . S
C368 H360 0.929 . S
C368 N367 1.334 . S
C368 C371 1.413 1_565 S
C369 H363 0.930 . S
C369 C370 1.392 . S
C369 C371 1.367 . S
C370 C369 1.392 . S
C370 C372 1.420 1_545 S
C370 C402 1.423 . S
C371 H357 0.930 . S
C371 C368 1.413 1_545 S
C371 C369 1.367 . S
C372 N367 1.362 . S
C372 C370 1.420 1_565 S
C372 C376 1.429 . S
H373 C378 0.930 . S
N374 Eu336 2.609 . S
N374 C376 1.377 . S
N374 C377 1.321 . S
C375 H361 0.930 . S
C375 C377 1.400 1_556 S
C375 C378 1.386 . S
C376 C372 1.429 . S
C376 N374 1.377 . S
C376 C379 1.411 . S
C377 H359 0.934 . S
C377 N374 1.321 . S
C377 C375 1.400 1_554 S
C378 H373 0.930 . S
C378 C375 1.386 . S
C378 C379 1.395 1_556 S
C379 C376 1.411 . S
C379 C378 1.395 1_554 S
C379 C401 1.420 1_565 S
O380 Eu336 2.558 . S
O380 C400 1.257 . S
O381 Eu336 2.612 . S
O381 Eu347 2.380 . S
O381 C392 1.276 . S
O382 Eu347 2.432 . S
O382 C399 1.264 . S
O383 Eu336 2.339 . S
O383 C399 1.254 . S
O384 Eu336 2.563 . S
O384 C392 1.235 . S
O385 Eu336 2.419 . S
O385 C400 1.249 . S
O386 Eu347 2.558 . S
O386 C411 1.257 1_455 S
O387 Eu336 2.380 . S
O387 Eu347 2.612 . S
O387 C403 1.276 . S
O388 Eu336 2.432 . S
O388 C410 1.264 . S
O389 Eu347 2.339 . S
O389 C410 1.254 . S
O390 Eu347 2.563 . S
O390 C403 1.235 . S
O391 Eu347 2.419 . S
O391 C411 1.249 1_455 S
C392 O381 1.276 . S
C392 O384 1.235 . S
C393 C395 1.393 . S
C393 C397 1.395 . S
C393 C400 1.492 . S
C394 C395 1.392 . S
C394 C396 1.386 . S
C395 C393 1.393 . S
C395 C394 1.392 . S
C395 H412 0.930 . S
C396 C394 1.386 . S
C396 C398 1.395 . S
C396 H413 0.930 . S
C397 C393 1.395 . S
C397 C398 1.379 . S
C397 H414 0.930 . S
C398 C396 1.395 . S
C398 C397 1.379 . S
C398 H415 0.930 . S
C399 O382 1.264 . S
C399 O383 1.254 . S
C400 Eu336 2.848 . S
C400 O380 1.257 . S
C400 O385 1.249 . S
C400 C393 1.492 . S
C401 H366 0.931 . S
C401 C379 1.420 1_545 S
C401 C402 1.351 . S
C402 H364 0.930 . S
C402 C370 1.423 . S
C402 C401 1.351 . S
C403 O387 1.276 . S
C403 O390 1.235 . S
C404 C405 1.393 . S
C404 C408 1.395 . S
C404 C411 1.492 . S
C405 C404 1.393 . S
C405 C406 1.392 . S
C405 H416 0.930 . S
C406 C405 1.392 . S
C406 C407 1.386 . S
C407 C406 1.386 . S
C407 C409 1.395 . S
C407 H417 0.930 . S
C408 C404 1.395 . S
C408 C409 1.379 . S
C408 H418 0.930 . S
C409 C407 1.395 . S
C409 C408 1.379 . S
C409 H419 0.930 . S
C410 O388 1.264 . S
C410 O389 1.254 . S
C411 Eu347 2.848 1_655 S
C411 O386 1.257 1_655 S
C411 O391 1.249 1_655 S
C411 C404 1.492 . S
H412 C395 0.930 . S
H413 C396 0.930 . S
H414 C397 0.930 . S
H415 C398 0.930 . S
H416 C405 0.930 . S
H417 C407 0.930 . S
H418 C408 0.930 . S
H419 C409 0.930 . S
Eu420 N451 2.657 . S
Eu420 N458 2.609 . S
Eu420 O464 2.558 . S
Eu420 O465 2.612 . S
Eu420 O467 2.339 . S
Eu420 O468 2.563 . S
Eu420 O469 2.419 . S
Eu420 O471 2.380 . S
Eu420 O472 2.432 . S
Eu420 C484 2.848 . S
C421 C424 1.429 . S
C421 C425 1.402 1_545 S
C421 N428 1.377 . S
C422 C424 1.420 1_565 S
C422 C426 1.423 . S
C422 C434 1.392 . S
C423 C425 1.433 . S
C423 C426 1.351 . S
C423 H446 0.931 . S
C424 C421 1.429 . S
C424 C422 1.420 1_545 S
C424 N432 1.362 . S
C425 C421 1.402 1_565 S
C425 C423 1.433 . S
C425 C430 1.391 1_565 S
C426 C422 1.423 . S
C426 C423 1.351 . S
C426 H438 0.930 . S
C427 C429 1.400 . S
C427 C430 1.386 . S
C427 H439 0.930 . S
N428 C421 1.377 . S
N428 C429 1.321 . S
N428 Eu431 2.609 . S
C429 C427 1.400 . S
C429 N428 1.321 . S
C429 H436 0.930 . S
C430 C425 1.391 1_545 S
C430 C427 1.386 . S
C430 H449 0.930 1_545 S
Eu431 N428 2.609 . S
Eu431 N432 2.657 . S
Eu431 O465 2.380 . S
Eu431 O466 2.432 . S
Eu431 O470 2.558 . S
Eu431 O471 2.612 . S
Eu431 O473 2.339 . S
Eu431 O474 2.563 . S
Eu431 O475 2.419 . S
Eu431 C495 2.848 1_545 S
N432 C424 1.362 . S
N432 Eu431 2.657 . S
N432 C433 1.334 . S
C433 N432 1.334 . S
C433 C435 1.413 . S
C433 H440 0.929 . S
C434 C422 1.392 . S
C434 C435 1.367 1_565 S
C434 H442 0.930 . S
C435 C433 1.413 . S
C435 C434 1.367 1_545 S
C435 H437 0.930 . S
H436 C429 0.930 . S
H437 C435 0.930 . S
H438 C426 0.930 . S
H439 C427 0.930 . S
H440 C433 0.929 . S
H441 C455 0.930 . S
H442 C434 0.930 . S
H443 C461 0.930 . S
H444 C452 0.929 . S
H445 C459 0.930 . S
H446 C423 0.931 . S
H447 C453 0.930 . S
H448 C486 0.930 . S
H449 C430 0.930 1_565 S
H450 C485 0.931 . S
N451 Eu420 2.657 . S
N451 C452 1.334 . S
N451 C456 1.362 . S
C452 H444 0.929 . S
C452 N451 1.334 . S
C452 C455 1.413 . S
C453 H447 0.930 . S
C453 C454 1.392 . S
C453 C455 1.367 . S
C454 C453 1.392 . S
C454 C456 1.420 . S
C454 C486 1.423 . S
C455 H441 0.930 . S
C455 C452 1.413 . S
C455 C453 1.367 . S
C456 N451 1.362 . S
C456 C454 1.420 . S
C456 C460 1.429 . S
H457 C462 0.930 . S
N458 Eu420 2.609 . S
N458 C460 1.377 . S
N458 C461 1.321 . S
C459 H445 0.930 . S
C459 C461 1.400 . S
C459 C462 1.386 . S
C460 C456 1.429 . S
C460 N458 1.377 . S
C460 C463 1.411 . S
C461 H443 0.930 . S
C461 N458 1.321 . S
C461 C459 1.400 . S
C462 H457 0.930 . S
C462 C459 1.386 . S
C462 C463 1.395 . S
C463 C460 1.411 . S
C463 C462 1.395 . S
C463 C485 1.420 . S
O464 Eu420 2.558 . S
O464 C484 1.257 . S
O465 Eu420 2.612 . S
O465 Eu431 2.380 . S
O465 C476 1.276 . S
O466 Eu431 2.432 . S
O466 C483 1.264 . S
O467 Eu420 2.339 . S
O467 C483 1.254 . S
O468 Eu420 2.563 . S
O468 C476 1.235 . S
O469 Eu420 2.419 . S
O469 C484 1.249 . S
O470 Eu431 2.558 . S
O470 C495 1.257 1_545 S
O471 Eu420 2.380 . S
O471 Eu431 2.612 . S
O471 C487 1.276 . S
O472 Eu420 2.432 . S
O472 C494 1.264 . S
O473 Eu431 2.339 . S
O473 C494 1.254 . S
O474 Eu431 2.563 . S
O474 C487 1.235 . S
O475 Eu431 2.419 . S
O475 C495 1.249 1_545 S
C476 O465 1.276 . S
C476 O468 1.235 . S
C477 C479 1.393 . S
C477 C481 1.395 . S
C477 C484 1.492 . S
C478 C479 1.392 . S
C478 C480 1.386 . S
C479 C477 1.393 . S
C479 C478 1.392 . S
C479 H496 0.930 . S
C480 C478 1.386 . S
C480 C482 1.395 . S
C480 H497 0.930 . S
C481 C477 1.395 . S
C481 C482 1.379 . S
C481 H498 0.930 . S
C482 C480 1.395 . S
C482 C481 1.379 . S
C482 H499 0.930 . S
C483 O466 1.264 . S
C483 O467 1.254 . S
C484 Eu420 2.848 . S
C484 O464 1.257 . S
C484 O469 1.249 . S
C484 C477 1.492 . S
C485 H450 0.931 . S
C485 C463 1.420 . S
C485 C486 1.351 . S
C486 H448 0.930 . S
C486 C454 1.423 . S
C486 C485 1.351 . S
C487 O471 1.276 . S
C487 O474 1.235 . S
C488 C489 1.393 . S
C488 C492 1.395 . S
C488 C495 1.492 . S
C489 C488 1.393 . S
C489 C490 1.392 . S
C489 H500 0.930 . S
C490 C489 1.392 . S
C490 C491 1.386 . S
C491 C490 1.386 . S
C491 C493 1.395 . S
C491 H501 0.930 . S
C492 C488 1.395 . S
C492 C493 1.379 . S
C492 H502 0.930 . S
C493 C491 1.395 . S
C493 C492 1.379 . S
C493 H503 0.930 . S
C494 O472 1.264 . S
C494 O473 1.254 . S
C495 Eu431 2.848 1_565 S
C495 O470 1.257 1_565 S
C495 O475 1.249 1_565 S
C495 C488 1.492 . S
H496 C479 0.930 . S
H497 C480 0.930 . S
H498 C481 0.930 . S
H499 C482 0.930 . S
H500 C489 0.930 . S
H501 C491 0.930 . S
H502 C492 0.930 . S
H503 C493 0.930 . S
Eu504 N535 2.657 . S
Eu504 N542 2.609 . S
Eu504 O548 2.558 . S
Eu504 O549 2.612 . S
Eu504 O551 2.339 . S
Eu504 O552 2.563 . S
Eu504 O553 2.419 . S
Eu504 O555 2.380 . S
Eu504 O556 2.432 . S
Eu504 C568 2.848 . S
C505 C508 1.429 . S
C505 C509 1.411 . S
C505 N512 1.377 . S
C506 C508 1.420 . S
C506 C510 1.423 . S
C506 C518 1.392 . S
C507 C509 1.420 . S
C507 C510 1.351 . S
C507 H530 0.931 . S
C508 C505 1.429 . S
C508 C506 1.420 . S
C508 N516 1.362 . S
C509 C505 1.411 . S
C509 C507 1.420 . S
C509 C514 1.395 . S
C510 C506 1.423 . S
C510 C507 1.351 . S
C510 H522 0.930 . S
C511 C513 1.400 . S
C511 C514 1.386 . S
C511 H523 0.930 . S
N512 C505 1.377 . S
N512 C513 1.321 . S
N512 Eu515 2.609 . S
C513 C511 1.400 . S
C513 N512 1.321 . S
C513 H520 0.930 . S
C514 C509 1.395 . S
C514 C511 1.386 . S
C514 H533 0.930 . S
Eu515 N512 2.609 . S
Eu515 N516 2.657 . S
Eu515 O549 2.380 . S
Eu515 O550 2.432 . S
Eu515 O554 2.558 . S
Eu515 O555 2.612 . S
Eu515 O557 2.339 . S
Eu515 O558 2.563 . S
Eu515 O559 2.419 . S
Eu515 C579 2.848 . S
N516 C508 1.362 . S
N516 Eu515 2.657 . S
N516 C517 1.334 . S
C517 N516 1.334 . S
C517 C519 1.413 . S
C517 H524 0.929 . S
C518 C506 1.392 . S
C518 C519 1.367 . S
C518 H526 0.930 . S
C519 C517 1.413 . S
C519 C518 1.367 . S
C519 H521 0.930 . S
H520 C513 0.930 . S
H521 C519 0.930 . S
H522 C510 0.930 . S
H523 C511 0.930 . S
H524 C517 0.929 . S
H525 C539 0.930 . S
H526 C518 0.930 . S
H527 C545 0.930 . S
H528 C536 0.929 . S
H529 C543 0.930 . S
H530 C507 0.931 . S
H531 C537 0.930 . S
H532 C570 0.930 . S
H533 C514 0.930 . S
H534 C569 0.931 . S
N535 Eu504 2.657 . S
N535 C536 1.334 . S
N535 C540 1.362 . S
C536 H528 0.929 . S
C536 N535 1.334 . S
C536 C539 1.413 1_565 S
C537 H531 0.930 . S
C537 C538 1.392 . S
C537 C539 1.367 . S
C538 C537 1.392 . S
C538 C540 1.420 1_545 S
C538 C570 1.423 . S
C539 H525 0.930 . S
C539 C536 1.413 1_545 S
C539 C537 1.367 . S
C540 N535 1.362 . S
C540 C538 1.420 1_565 S
C540 C544 1.429 . S
H541 C546 0.930 . S
N542 Eu504 2.609 . S
N542 C544 1.377 . S
N542 C545 1.321 . S
C543 H529 0.930 . S
C543 C545 1.400 . S
C543 C546 1.386 . S
C544 C540 1.429 . S
C544 N542 1.377 . S
C544 C547 1.411 . S
C545 H527 0.930 . S
C545 N542 1.321 . S
C545 C543 1.400 . S
C546 H541 0.930 . S
C546 C543 1.386 . S
C546 C547 1.395 . S
C547 C544 1.411 . S
C547 C546 1.395 . S
C547 C569 1.420 1_565 S
O548 Eu504 2.558 . S
O548 C568 1.257 . S
O549 Eu504 2.612 . S
O549 Eu515 2.380 . S
O549 C560 1.276 . S
O550 Eu515 2.432 . S
O550 C567 1.264 . S
O551 Eu504 2.339 . S
O551 C567 1.254 . S
O552 Eu504 2.563 . S
O552 C560 1.235 . S
O553 Eu504 2.419 . S
O553 C568 1.249 . S
O554 Eu515 2.558 . S
O554 C579 1.257 . S
O555 Eu504 2.380 . S
O555 Eu515 2.612 . S
O555 C571 1.276 . S
O556 Eu504 2.432 . S
O556 C578 1.264 . S
O557 Eu515 2.339 . S
O557 C578 1.254 . S
O558 Eu515 2.563 . S
O558 C571 1.235 . S
O559 Eu515 2.419 . S
O559 C579 1.249 . S
C560 O549 1.276 . S
C560 O552 1.235 . S
C561 C563 1.393 . S
C561 C565 1.395 . S
C561 C568 1.492 . S
C562 C563 1.392 . S
C562 C564 1.386 . S
C563 C561 1.393 . S
C563 C562 1.392 . S
C563 H580 0.930 . S
C564 C562 1.386 . S
C564 C566 1.395 . S
C564 H581 0.930 . S
C565 C561 1.395 . S
C565 C566 1.379 . S
C565 H582 0.930 . S
C566 C564 1.395 . S
C566 C565 1.379 . S
C566 H583 0.930 . S
C567 O550 1.264 . S
C567 O551 1.254 . S
C568 Eu504 2.848 . S
C568 O548 1.257 . S
C568 O553 1.249 . S
C568 C561 1.492 . S
C569 H534 0.931 . S
C569 C547 1.420 1_545 S
C569 C570 1.351 . S
C570 H532 0.930 . S
C570 C538 1.423 . S
C570 C569 1.351 . S
C571 O555 1.276 . S
C571 O558 1.235 . S
C572 C573 1.393 . S
C572 C576 1.395 . S
C572 C579 1.492 . S
C573 C572 1.393 . S
C573 C574 1.392 . S
C573 H584 0.930 . S
C574 C573 1.392 . S
C574 C575 1.386 . S
C575 C574 1.386 . S
C575 C577 1.395 . S
C575 H585 0.930 . S
C576 C572 1.395 . S
C576 C577 1.379 . S
C576 H586 0.930 . S
C577 C575 1.395 . S
C577 C576 1.379 . S
C577 H587 0.930 . S
C578 O556 1.264 . S
C578 O557 1.254 . S
C579 Eu515 2.848 . S
C579 O554 1.257 . S
C579 O559 1.249 . S
C579 C572 1.492 . S
H580 C563 0.930 . S
H581 C564 0.930 . S
H582 C565 0.930 . S
H583 C566 0.930 . S
H584 C573 0.930 . S
H585 C575 0.930 . S
H586 C576 0.930 . S
H587 C577 0.930 . S
Eu588 N619 2.657 . S
Eu588 N626 2.609 . S
Eu588 O632 2.558 . S
Eu588 O633 2.612 . S
Eu588 O635 2.339 . S
Eu588 O636 2.563 . S
Eu588 O637 2.419 . S
Eu588 O639 2.380 . S
Eu588 O640 2.432 . S
Eu588 C652 2.848 . S
C589 C592 1.429 . S
C589 C593 1.402 1_655 S
C589 N596 1.377 . S
C590 C592 1.420 1_455 S
C590 C594 1.423 . S
C590 C602 1.392 . S
C591 C593 1.433 . S
C591 C594 1.351 . S
C591 H614 0.931 . S
C592 C589 1.429 . S
C592 C590 1.420 1_655 S
C592 N600 1.362 . S
C593 C589 1.402 1_455 S
C593 C591 1.433 . S
C593 C598 1.391 1_455 S
C594 C590 1.423 . S
C594 C591 1.351 . S
C594 H606 0.930 . S
C595 C597 1.400 . S
C595 C598 1.386 . S
C595 H607 0.930 . S
N596 C589 1.377 . S
N596 C597 1.321 . S
N596 Eu599 2.609 . S
C597 C595 1.400 . S
C597 N596 1.321 . S
C597 H604 0.930 . S
C598 C593 1.391 1_655 S
C598 C595 1.386 . S
C598 H617 0.930 1_655 S
Eu599 N596 2.609 . S
Eu599 N600 2.657 . S
Eu599 O633 2.380 . S
Eu599 O634 2.432 . S
Eu599 O638 2.558 . S
Eu599 O639 2.612 . S
Eu599 O641 2.339 . S
Eu599 O642 2.563 . S
Eu599 O643 2.419 . S
Eu599 C663 2.848 1_655 S
N600 C592 1.362 . S
N600 Eu599 2.657 . S
N600 C601 1.334 . S
C601 N600 1.334 . S
C601 C603 1.413 . S
C601 H608 0.929 . S
C602 C590 1.392 . S
C602 C603 1.367 1_455 S
C602 H610 0.930 . S
C603 C601 1.413 . S
C603 C602 1.367 1_655 S
C603 H605 0.930 . S
H604 C597 0.930 . S
H605 C603 0.930 . S
H606 C594 0.930 . S
H607 C595 0.930 . S
H608 C601 0.929 . S
H609 C623 0.930 . S
H610 C602 0.930 . S
H611 C629 0.934 . S
H612 C620 0.929 . S
H613 C627 0.930 . S
H614 C591 0.931 . S
H615 C621 0.930 . S
H616 C654 0.930 . S
H617 C598 0.930 1_455 S
H618 C653 0.931 . S
N619 Eu588 2.657 . S
N619 C620 1.334 . S
N619 C624 1.362 . S
C620 H612 0.929 . S
C620 N619 1.334 . S
C620 C623 1.413 . S
C621 H615 0.930 . S
C621 C622 1.392 . S
C621 C623 1.367 . S
C622 C621 1.392 . S
C622 C624 1.420 . S
C622 C654 1.423 . S
C623 H609 0.930 . S
C623 C620 1.413 . S
C623 C621 1.367 . S
C624 N619 1.362 . S
C624 C622 1.420 . S
C624 C628 1.429 . S
H625 C630 0.930 . S
N626 Eu588 2.609 . S
N626 C628 1.377 . S
N626 C629 1.321 . S
C627 H613 0.930 . S
C627 C629 1.400 1_554 S
C627 C630 1.386 . S
C628 C624 1.429 . S
C628 N626 1.377 . S
C628 C631 1.411 . S
C629 H611 0.934 . S
C629 N626 1.321 . S
C629 C627 1.400 1_556 S
C630 H625 0.930 . S
C630 C627 1.386 . S
C630 C631 1.395 1_554 S
C631 C628 1.411 . S
C631 C630 1.395 1_556 S
C631 C653 1.420 . S
O632 Eu588 2.558 . S
O632 C652 1.257 . S
O633 Eu588 2.612 . S
O633 Eu599 2.380 . S
O633 C644 1.276 . S
O634 Eu599 2.432 . S
O634 C651 1.264 . S
O635 Eu588 2.339 . S
O635 C651 1.254 . S
O636 Eu588 2.563 . S
O636 C644 1.235 . S
O637 Eu588 2.419 . S
O637 C652 1.249 . S
O638 Eu599 2.558 . S
O638 C663 1.257 1_655 S
O639 Eu588 2.380 . S
O639 Eu599 2.612 . S
O639 C655 1.276 . S
O640 Eu588 2.432 . S
O640 C662 1.264 . S
O641 Eu599 2.339 . S
O641 C662 1.254 . S
O642 Eu599 2.563 . S
O642 C655 1.235 . S
O643 Eu599 2.419 . S
O643 C663 1.249 1_655 S
C644 O633 1.276 . S
C644 O636 1.235 . S
C645 C647 1.393 . S
C645 C649 1.395 . S
C645 C652 1.492 . S
C646 C647 1.392 . S
C646 C648 1.386 . S
C647 C645 1.393 . S
C647 C646 1.392 . S
C647 H664 0.930 . S
C648 C646 1.386 . S
C648 C650 1.395 . S
C648 H665 0.930 . S
C649 C645 1.395 . S
C649 C650 1.379 . S
C649 H666 0.930 . S
C650 C648 1.395 . S
C650 C649 1.379 . S
C650 H667 0.930 . S
C651 O634 1.264 . S
C651 O635 1.254 . S
C652 Eu588 2.848 . S
C652 O632 1.257 . S
C652 O637 1.249 . S
C652 C645 1.492 . S
C653 H618 0.931 . S
C653 C631 1.420 . S
C653 C654 1.351 . S
C654 H616 0.930 . S
C654 C622 1.423 . S
C654 C653 1.351 . S
C655 O639 1.276 . S
C655 O642 1.235 . S
C656 C657 1.393 . S
C656 C660 1.395 . S
C656 C663 1.492 . S
C657 C656 1.393 . S
C657 C658 1.392 . S
C657 H668 0.930 . S
C658 C657 1.392 . S
C658 C659 1.386 . S
C659 C658 1.386 . S
C659 C661 1.395 . S
C659 H669 0.930 . S
C660 C656 1.395 . S
C660 C661 1.379 . S
C660 H670 0.930 . S
C661 C659 1.395 . S
C661 C660 1.379 . S
C661 H671 0.930 . S
C662 O640 1.264 . S
C662 O641 1.254 . S
C663 Eu599 2.848 1_455 S
C663 O638 1.257 1_455 S
C663 O643 1.249 1_455 S
C663 C656 1.492 . S
H664 C647 0.930 . S
H665 C648 0.930 . S
H666 C649 0.930 . S
H667 C650 0.930 . S
H668 C657 0.930 . S
H669 C659 0.930 . S
H670 C660 0.930 . S
H671 C661 0.930 . S
Eu672 N703 2.657 . S
Eu672 N710 2.609 . S
Eu672 O716 2.558 . S
Eu672 O717 2.612 . S
Eu672 O719 2.339 . S
Eu672 O720 2.563 . S
Eu672 O721 2.419 . S
Eu672 O723 2.380 . S
Eu672 O724 2.432 . S
Eu672 C736 2.848 . S
C673 C676 1.429 . S
C673 C677 1.409 1_565 S
C673 N680 1.377 . S
C674 C676 1.420 1_545 S
C674 C678 1.423 . S
C674 C686 1.392 . S
C675 C677 1.420 . S
C675 C678 1.351 . S
C675 H698 0.931 . S
C676 C673 1.429 . S
C676 C674 1.420 1_565 S
C676 N684 1.362 . S
C677 C673 1.409 1_545 S
C677 C675 1.420 . S
C677 C682 1.397 1_545 S
C678 C674 1.423 . S
C678 C675 1.351 . S
C678 H690 0.930 . S
C679 C681 1.400 . S
C679 C682 1.386 . S
C679 H691 0.930 . S
N680 C673 1.377 . S
N680 C681 1.321 . S
N680 Eu683 2.609 . S
C681 C679 1.400 . S
C681 N680 1.321 . S
C681 H688 0.930 . S
C682 C677 1.397 1_565 S
C682 C679 1.386 . S
C682 H701 0.930 1_565 S
Eu683 N680 2.609 . S
Eu683 N684 2.657 . S
Eu683 O717 2.380 . S
Eu683 O718 2.432 . S
Eu683 O722 2.558 . S
Eu683 O723 2.612 . S
Eu683 O725 2.339 . S
Eu683 O726 2.563 . S
Eu683 O727 2.419 . S
Eu683 C747 2.848 1_565 S
N684 C676 1.362 . S
N684 Eu683 2.657 . S
N684 C685 1.334 . S
C685 N684 1.334 . S
C685 C687 1.413 . S
C685 H692 0.929 . S
C686 C674 1.392 . S
C686 C687 1.367 1_545 S
C686 H694 0.930 . S
C687 C685 1.413 . S
C687 C686 1.367 1_565 S
C687 H689 0.930 . S
H688 C681 0.930 . S
H689 C687 0.930 . S
H690 C678 0.930 . S
H691 C679 0.930 . S
H692 C685 0.929 . S
H693 C707 0.930 . S
H694 C686 0.930 . S
H695 C713 0.930 . S
H696 C704 0.929 . S
H697 C711 0.930 . S
H698 C675 0.931 . S
H699 C705 0.930 . S
H700 C738 0.930 . S
H701 C682 0.930 1_545 S
H702 C737 0.931 . S
N703 Eu672 2.657 . S
N703 C704 1.334 . S
N703 C708 1.362 . S
C704 H696 0.929 . S
C704 N703 1.334 . S
C704 C707 1.413 1_455 S
C705 H699 0.930 . S
C705 C706 1.392 . S
C705 C707 1.367 . S
C706 C705 1.392 . S
C706 C708 1.420 1_655 S
C706 C738 1.423 . S
C707 H693 0.930 . S
C707 C704 1.413 1_655 S
C707 C705 1.367 . S
C708 N703 1.362 . S
C708 C706 1.420 1_455 S
C708 C712 1.429 . S
H709 C714 0.930 . S
N710 Eu672 2.609 . S
N710 C712 1.377 . S
N710 C713 1.321 . S
C711 H697 0.930 . S
C711 C713 1.400 . S
C711 C714 1.386 . S
C712 C708 1.429 . S
C712 N710 1.377 . S
C712 C715 1.411 . S
C713 H695 0.930 . S
C713 N710 1.321 . S
C713 C711 1.400 . S
C714 H709 0.930 . S
C714 C711 1.386 . S
C714 C715 1.395 . S
C715 C712 1.411 . S
C715 C714 1.395 . S
C715 C737 1.420 1_455 S
O716 Eu672 2.558 . S
O716 C736 1.257 . S
O717 Eu672 2.612 . S
O717 Eu683 2.380 . S
O717 C728 1.276 . S
O718 Eu683 2.432 . S
O718 C735 1.264 . S
O719 Eu672 2.339 . S
O719 C735 1.254 . S
O720 Eu672 2.563 . S
O720 C728 1.235 . S
O721 Eu672 2.419 . S
O721 C736 1.249 . S
O722 Eu683 2.558 . S
O722 C747 1.257 1_565 S
O723 Eu672 2.380 . S
O723 Eu683 2.612 . S
O723 C739 1.276 . S
O724 Eu672 2.432 . S
O724 C746 1.264 . S
O725 Eu683 2.339 . S
O725 C746 1.254 . S
O726 Eu683 2.563 . S
O726 C739 1.235 . S
O727 Eu683 2.419 . S
O727 C747 1.249 1_565 S
C728 O717 1.276 . S
C728 O720 1.235 . S
C729 C731 1.393 . S
C729 C733 1.395 . S
C729 C736 1.492 . S
C730 C731 1.392 . S
C730 C732 1.386 . S
C731 C729 1.393 . S
C731 C730 1.392 . S
C731 H748 0.930 . S
C732 C730 1.386 . S
C732 C734 1.395 . S
C732 H749 0.930 . S
C733 C729 1.395 . S
C733 C734 1.379 . S
C733 H750 0.930 . S
C734 C732 1.395 . S
C734 C733 1.379 . S
C734 H751 0.930 . S
C735 O718 1.264 . S
C735 O719 1.254 . S
C736 Eu672 2.848 . S
C736 O716 1.257 . S
C736 O721 1.249 . S
C736 C729 1.492 . S
C737 H702 0.931 . S
C737 C715 1.420 1_655 S
C737 C738 1.351 . S
C738 H700 0.930 . S
C738 C706 1.423 . S
C738 C737 1.351 . S
C739 O723 1.276 . S
C739 O726 1.235 . S
C740 C741 1.393 . S
C740 C744 1.395 . S
C740 C747 1.492 . S
C741 C740 1.393 . S
C741 C742 1.392 . S
C741 H752 0.930 . S
C742 C741 1.392 . S
C742 C743 1.386 . S
C743 C742 1.386 . S
C743 C745 1.395 . S
C743 H753 0.930 . S
C744 C740 1.395 . S
C744 C745 1.379 . S
C744 H754 0.930 . S
C745 C743 1.395 . S
C745 C744 1.379 . S
C745 H755 0.930 . S
C746 O724 1.264 . S
C746 O725 1.254 . S
C747 Eu683 2.848 1_545 S
C747 O722 1.257 1_545 S
C747 O727 1.249 1_545 S
C747 C740 1.492 . S
H748 C731 0.930 . S
H749 C732 0.930 . S
H750 C733 0.930 . S
H751 C734 0.930 . S
H752 C741 0.930 . S
H753 C743 0.930 . S
H754 C744 0.930 . S
H755 C745 0.930 . S
Eu756 N787 2.657 . S
Eu756 N794 2.609 . S
Eu756 O800 2.558 . S
Eu756 O801 2.612 . S
Eu756 O803 2.339 . S
Eu756 O804 2.563 . S
Eu756 O805 2.419 . S
Eu756 O807 2.380 . S
Eu756 O808 2.432 . S
Eu756 C820 2.848 . S
C757 C760 1.429 . S
C757 C761 1.411 . S
C757 N764 1.377 . S
C758 C760 1.420 . S
C758 C762 1.423 . S
C758 C770 1.392 . S
C759 C761 1.420 . S
C759 C762 1.351 . S
C759 H782 0.931 . S
C760 C757 1.429 . S
C760 C758 1.420 . S
C760 N768 1.362 . S
C761 C757 1.411 . S
C761 C759 1.420 . S
C761 C766 1.395 . S
C762 C758 1.423 . S
C762 C759 1.351 . S
C762 H774 0.930 . S
C763 C765 1.400 . S
C763 C766 1.386 . S
C763 H775 0.930 . S
N764 C757 1.377 . S
N764 C765 1.321 . S
N764 Eu767 2.609 . S
C765 C763 1.400 . S
C765 N764 1.321 . S
C765 H772 0.930 . S
C766 C761 1.395 . S
C766 C763 1.386 . S
C766 H785 0.930 . S
Eu767 N764 2.609 . S
Eu767 N768 2.657 . S
Eu767 O801 2.380 . S
Eu767 O802 2.432 . S
Eu767 O806 2.558 . S
Eu767 O807 2.612 . S
Eu767 O809 2.339 . S
Eu767 O810 2.563 . S
Eu767 O811 2.419 . S
Eu767 C831 2.848 . S
N768 C760 1.362 . S
N768 Eu767 2.657 . S
N768 C769 1.334 . S
C769 N768 1.334 . S
C769 C771 1.413 . S
C769 H776 0.929 . S
C770 C758 1.392 . S
C770 C771 1.367 . S
C770 H778 0.930 . S
C771 C769 1.413 . S
C771 C770 1.367 . S
C771 H773 0.930 . S
H772 C765 0.930 . S
H773 C771 0.930 . S
H774 C762 0.930 . S
H775 C763 0.930 . S
H776 C769 0.929 . S
H777 C791 0.930 . S
H778 C770 0.930 . S
H779 C797 0.934 . S
H780 C788 0.929 . S
H781 C795 0.930 . S
H782 C759 0.931 . S
H783 C789 0.930 . S
H784 C822 0.930 . S
H785 C766 0.930 . S
H786 C821 0.931 . S
N787 Eu756 2.657 . S
N787 C788 1.334 . S
N787 C792 1.362 . S
C788 H780 0.929 . S
C788 N787 1.334 . S
C788 C791 1.413 1_545 S
C789 H783 0.930 . S
C789 C790 1.392 . S
C789 C791 1.367 . S
C790 C789 1.392 . S
C790 C792 1.420 1_565 S
C790 C822 1.423 . S
C791 H777 0.930 . S
C791 C788 1.413 1_565 S
C791 C789 1.367 . S
C792 N787 1.362 . S
C792 C790 1.420 1_545 S
C792 C796 1.429 . S
H793 C798 0.930 . S
N794 Eu756 2.609 . S
N794 C796 1.377 . S
N794 C797 1.321 . S
C795 H781 0.930 . S
C795 C797 1.400 1_554 S
C795 C798 1.386 . S
C796 C792 1.429 . S
C796 N794 1.377 . S
C796 C799 1.411 . S
C797 H779 0.934 . S
C797 N794 1.321 . S
C797 C795 1.400 1_556 S
C798 H793 0.930 . S
C798 C795 1.386 . S
C798 C799 1.395 1_554 S
C799 C796 1.411 . S
C799 C798 1.395 1_556 S
C799 C821 1.420 1_545 S
O800 Eu756 2.558 . S
O800 C820 1.257 . S
O801 Eu756 2.612 . S
O801 Eu767 2.380 . S
O801 C812 1.276 . S
O802 Eu767 2.432 . S
O802 C819 1.264 . S
O803 Eu756 2.339 . S
O803 C819 1.254 . S
O804 Eu756 2.563 . S
O804 C812 1.235 . S
O805 Eu756 2.419 . S
O805 C820 1.249 . S
O806 Eu767 2.558 . S
O806 C831 1.257 . S
O807 Eu756 2.380 . S
O807 Eu767 2.612 . S
O807 C823 1.276 . S
O808 Eu756 2.432 . S
O808 C830 1.264 . S
O809 Eu767 2.339 . S
O809 C830 1.254 . S
O810 Eu767 2.563 . S
O810 C823 1.235 . S
O811 Eu767 2.419 . S
O811 C831 1.249 . S
C812 O801 1.276 . S
C812 O804 1.235 . S
C813 C815 1.393 . S
C813 C817 1.395 . S
C813 C820 1.492 . S
C814 C815 1.392 . S
C814 C816 1.386 . S
C815 C813 1.393 . S
C815 C814 1.392 . S
C815 H832 0.930 . S
C816 C814 1.386 . S
C816 C818 1.395 . S
C816 H833 0.930 . S
C817 C813 1.395 . S
C817 C818 1.379 . S
C817 H834 0.930 . S
C818 C816 1.395 . S
C818 C817 1.379 . S
C818 H835 0.930 . S
C819 O802 1.264 . S
C819 O803 1.254 . S
C820 Eu756 2.848 . S
C820 O800 1.257 . S
C820 O805 1.249 . S
C820 C813 1.492 . S
C821 H786 0.931 . S
C821 C799 1.420 1_565 S
C821 C822 1.351 . S
C822 H784 0.930 . S
C822 C790 1.423 . S
C822 C821 1.351 . S
C823 O807 1.276 . S
C823 O810 1.235 . S
C824 C825 1.393 . S
C824 C828 1.395 . S
C824 C831 1.492 . S
C825 C824 1.393 . S
C825 C826 1.392 . S
C825 H836 0.930 . S
C826 C825 1.392 . S
C826 C827 1.386 . S
C827 C826 1.386 . S
C827 C829 1.395 . S
C827 H837 0.930 . S
C828 C824 1.395 . S
C828 C829 1.379 . S
C828 H838 0.930 . S
C829 C827 1.395 . S
C829 C828 1.379 . S
C829 H839 0.930 . S
C830 O808 1.264 . S
C830 O809 1.254 . S
C831 Eu767 2.848 . S
C831 O806 1.257 . S
C831 O811 1.249 . S
C831 C824 1.492 . S
H832 C815 0.930 . S
H833 C816 0.930 . S
H834 C817 0.930 . S
H835 C818 0.930 . S
H836 C825 0.930 . S
H837 C827 0.930 . S
H838 C828 0.930 . S
H839 C829 0.930 . S
Eu840 N871 2.657 . S
Eu840 N878 2.609 . S
Eu840 O884 2.558 . S
Eu840 O885 2.612 . S
Eu840 O887 2.339 . S
Eu840 O888 2.563 . S
Eu840 O889 2.419 . S
Eu840 O891 2.380 . S
Eu840 O892 2.432 . S
Eu840 C904 2.848 . S
C841 C844 1.429 . S
C841 C845 1.402 1_455 S
C841 N848 1.377 . S
C842 C844 1.420 1_655 S
C842 C846 1.423 . S
C842 C854 1.392 . S
C843 C845 1.433 . S
C843 C846 1.351 . S
C843 H866 0.931 . S
C844 C841 1.429 . S
C844 C842 1.420 1_455 S
C844 N852 1.362 . S
C845 C841 1.402 1_655 S
C845 C843 1.433 . S
C845 C850 1.391 1_655 S
C846 C842 1.423 . S
C846 C843 1.351 . S
C846 H858 0.930 . S
C847 C849 1.400 . S
C847 C850 1.386 . S
C847 H859 0.930 . S
N848 C841 1.377 . S
N848 C849 1.321 . S
N848 Eu851 2.609 . S
C849 C847 1.400 . S
C849 N848 1.321 . S
C849 H856 0.930 . S
C850 C845 1.391 1_455 S
C850 C847 1.386 . S
C850 H869 0.930 1_455 S
Eu851 N848 2.609 . S
Eu851 N852 2.657 . S
Eu851 O885 2.380 . S
Eu851 O886 2.432 . S
Eu851 O890 2.558 . S
Eu851 O891 2.612 . S
Eu851 O893 2.339 . S
Eu851 O894 2.563 . S
Eu851 O895 2.419 . S
Eu851 C915 2.848 1_455 S
N852 C844 1.362 . S
N852 Eu851 2.657 . S
N852 C853 1.334 . S
C853 N852 1.334 . S
C853 C855 1.413 . S
C853 H860 0.929 . S
C854 C842 1.392 . S
C854 C855 1.367 1_655 S
C854 H862 0.930 . S
C855 C853 1.413 . S
C855 C854 1.367 1_455 S
C855 H857 0.930 . S
H856 C849 0.930 . S
H857 C855 0.930 . S
H858 C846 0.930 . S
H859 C847 0.930 . S
H860 C853 0.929 . S
H861 C875 0.930 . S
H862 C854 0.930 . S
H863 C881 0.930 . S
H864 C872 0.929 . S
H865 C879 0.930 . S
H866 C843 0.931 . S
H867 C873 0.930 . S
H868 C906 0.930 . S
H869 C850 0.930 1_655 S
H870 C905 0.931 . S
N871 Eu840 2.657 . S
N871 C872 1.334 . S
N871 C876 1.362 . S
C872 H864 0.929 . S
C872 N871 1.334 . S
C872 C875 1.413 . S
C873 H867 0.930 . S
C873 C874 1.392 . S
C873 C875 1.367 . S
C874 C873 1.392 . S
C874 C876 1.420 . S
C874 C906 1.423 . S
C875 H861 0.930 . S
C875 C872 1.413 . S
C875 C873 1.367 . S
C876 N871 1.362 . S
C876 C874 1.420 . S
C876 C880 1.429 . S
H877 C882 0.930 . S
N878 Eu840 2.609 . S
N878 C880 1.377 . S
N878 C881 1.321 . S
C879 H865 0.930 . S
C879 C881 1.400 . S
C879 C882 1.386 . S
C880 C876 1.429 . S
C880 N878 1.377 . S
C880 C883 1.411 . S
C881 H863 0.930 . S
C881 N878 1.321 . S
C881 C879 1.400 . S
C882 H877 0.930 . S
C882 C879 1.386 . S
C882 C883 1.395 . S
C883 C880 1.411 . S
C883 C882 1.395 . S
C883 C905 1.420 . S
O884 Eu840 2.558 . S
O884 C904 1.257 . S
O885 Eu840 2.612 . S
O885 Eu851 2.380 . S
O885 C896 1.276 . S
O886 Eu851 2.432 . S
O886 C903 1.264 . S
O887 Eu840 2.339 . S
O887 C903 1.254 . S
O888 Eu840 2.563 . S
O888 C896 1.235 . S
O889 Eu840 2.419 . S
O889 C904 1.249 . S
O890 Eu851 2.558 . S
O890 C915 1.257 1_455 S
O891 Eu840 2.380 . S
O891 Eu851 2.612 . S
O891 C907 1.276 . S
O892 Eu840 2.432 . S
O892 C914 1.264 . S
O893 Eu851 2.339 . S
O893 C914 1.254 . S
O894 Eu851 2.563 . S
O894 C907 1.235 . S
O895 Eu851 2.419 . S
O895 C915 1.249 1_455 S
C896 O885 1.276 . S
C896 O888 1.235 . S
C897 C899 1.393 . S
C897 C901 1.395 . S
C897 C904 1.492 . S
C898 C899 1.392 . S
C898 C900 1.386 . S
C899 C897 1.393 . S
C899 C898 1.392 . S
C899 H916 0.930 . S
C900 C898 1.386 . S
C900 C902 1.395 . S
C900 H917 0.930 . S
C901 C897 1.395 . S
C901 C902 1.379 . S
C901 H918 0.930 . S
C902 C900 1.395 . S
C902 C901 1.379 . S
C902 H919 0.930 . S
C903 O886 1.264 . S
C903 O887 1.254 . S
C904 Eu840 2.848 . S
C904 O884 1.257 . S
C904 O889 1.249 . S
C904 C897 1.492 . S
C905 H870 0.931 . S
C905 C883 1.420 . S
C905 C906 1.351 . S
C906 H868 0.930 . S
C906 C874 1.423 . S
C906 C905 1.351 . S
C907 O891 1.276 . S
C907 O894 1.235 . S
C908 C909 1.393 . S
C908 C912 1.395 . S
C908 C915 1.492 . S
C909 C908 1.393 . S
C909 C910 1.392 . S
C909 H920 0.930 . S
C910 C909 1.392 . S
C910 C911 1.386 . S
C911 C910 1.386 . S
C911 C913 1.395 . S
C911 H921 0.930 . S
C912 C908 1.395 . S
C912 C913 1.379 . S
C912 H922 0.930 . S
C913 C911 1.395 . S
C913 C912 1.379 . S
C913 H923 0.930 . S
C914 O892 1.264 . S
C914 O893 1.254 . S
C915 Eu851 2.848 1_655 S
C915 O890 1.257 1_655 S
C915 O895 1.249 1_655 S
C915 C908 1.492 . S
H916 C899 0.930 . S
H917 C900 0.930 . S
H918 C901 0.930 . S
H919 C902 0.930 . S
H920 C909 0.930 . S
H921 C911 0.930 . S
H922 C912 0.930 . S
H923 C913 0.930 . S
Eu924 N955 2.657 . S
Eu924 N962 2.609 . S
Eu924 O968 2.558 . S
Eu924 O969 2.612 . S
Eu924 O971 2.339 . S
Eu924 O972 2.563 . S
Eu924 O973 2.419 . S
Eu924 O975 2.380 . S
Eu924 O976 2.432 . S
Eu924 C988 2.848 . S
C925 C928 1.429 . S
C925 C929 1.409 1_545 S
C925 N932 1.377 . S
C926 C928 1.420 1_565 S
C926 C930 1.423 . S
C926 C938 1.392 . S
C927 C929 1.420 . S
C927 C930 1.351 . S
C927 H950 0.931 . S
C928 C925 1.429 . S
C928 C926 1.420 1_545 S
C928 N936 1.362 . S
C929 C925 1.409 1_565 S
C929 C927 1.420 . S
C929 C934 1.397 1_565 S
C930 C926 1.423 . S
C930 C927 1.351 . S
C930 H942 0.930 . S
C931 C933 1.400 . S
C931 C934 1.386 . S
C931 H943 0.930 . S
N932 C925 1.377 . S
N932 C933 1.321 . S
N932 Eu935 2.609 . S
C933 C931 1.400 . S
C933 N932 1.321 . S
C933 H940 0.930 . S
C934 C929 1.397 1_545 S
C934 C931 1.386 . S
C934 H953 0.930 1_545 S
Eu935 N932 2.609 . S
Eu935 N936 2.657 . S
Eu935 O969 2.380 . S
Eu935 O970 2.432 . S
Eu935 O974 2.558 . S
Eu935 O975 2.612 . S
Eu935 O977 2.339 . S
Eu935 O978 2.563 . S
Eu935 O979 2.419 . S
Eu935 C999 2.848 1_545 S
N936 C928 1.362 . S
N936 Eu935 2.657 . S
N936 C937 1.334 . S
C937 N936 1.334 . S
C937 C939 1.413 . S
C937 H944 0.929 . S
C938 C926 1.392 . S
C938 C939 1.367 1_565 S
C938 H946 0.930 . S
C939 C937 1.413 . S
C939 C938 1.367 1_545 S
C939 H941 0.930 . S
H940 C933 0.930 . S
H941 C939 0.930 . S
H942 C930 0.930 . S
H943 C931 0.930 . S
H944 C937 0.929 . S
H945 C959 0.930 . S
H946 C938 0.930 . S
H947 C965 0.934 . S
H948 C956 0.929 . S
H949 C963 0.930 . S
H950 C927 0.931 . S
H951 C957 0.930 . S
H952 C990 0.930 . S
H953 C934 0.930 1_565 S
H954 C989 0.931 . S
N955 Eu924 2.657 . S
N955 C956 1.334 . S
N955 C960 1.362 . S
C956 H948 0.929 . S
C956 N955 1.334 . S
C956 C959 1.413 1_655 S
C957 H951 0.930 . S
C957 C958 1.392 . S
C957 C959 1.367 . S
C958 C957 1.392 . S
C958 C960 1.420 1_455 S
C958 C990 1.423 . S
C959 H945 0.930 . S
C959 C956 1.413 1_455 S
C959 C957 1.367 . S
C960 N955 1.362 . S
C960 C958 1.420 1_655 S
C960 C964 1.429 . S
H961 C966 0.930 . S
N962 Eu924 2.609 . S
N962 C964 1.377 . S
N962 C965 1.321 . S
C963 H949 0.930 . S
C963 C965 1.400 1_554 S
C963 C966 1.386 . S
C964 C960 1.429 . S
C964 N962 1.377 . S
C964 C967 1.411 . S
C965 H947 0.934 . S
C965 N962 1.321 . S
C965 C963 1.400 1_556 S
C966 H961 0.930 . S
C966 C963 1.386 . S
C966 C967 1.395 1_554 S
C967 C964 1.411 . S
C967 C966 1.395 1_556 S
C967 C989 1.420 1_655 S
O968 Eu924 2.558 . S
O968 C988 1.257 . S
O969 Eu924 2.612 . S
O969 Eu935 2.380 . S
O969 C980 1.276 . S
O970 Eu935 2.432 . S
O970 C987 1.264 . S
O971 Eu924 2.339 . S
O971 C987 1.254 . S
O972 Eu924 2.563 . S
O972 C980 1.235 . S
O973 Eu924 2.419 . S
O973 C988 1.249 . S
O974 Eu935 2.558 . S
O974 C999 1.257 1_545 S
O975 Eu924 2.380 . S
O975 Eu935 2.612 . S
O975 C991 1.276 . S
O976 Eu924 2.432 . S
O976 C998 1.264 . S
O977 Eu935 2.339 . S
O977 C998 1.254 . S
O978 Eu935 2.563 . S
O978 C991 1.235 . S
O979 Eu935 2.419 . S
O979 C999 1.249 1_545 S
C980 O969 1.276 . S
C980 O972 1.235 . S
C981 C983 1.393 . S
C981 C985 1.395 . S
C981 C988 1.492 . S
C982 C983 1.392 . S
C982 C984 1.386 . S
C983 C981 1.393 . S
C983 C982 1.392 . S
C983 H1000 0.930 . S
C984 C982 1.386 . S
C984 C986 1.395 . S
C984 H1001 0.930 . S
C985 C981 1.395 . S
C985 C986 1.379 . S
C985 H1002 0.930 . S
C986 C984 1.395 . S
C986 C985 1.379 . S
C986 H1003 0.930 . S
C987 O970 1.264 . S
C987 O971 1.254 . S
C988 Eu924 2.848 . S
C988 O968 1.257 . S
C988 O973 1.249 . S
C988 C981 1.492 . S
C989 H954 0.931 . S
C989 C967 1.420 1_455 S
C989 C990 1.351 . S
C990 H952 0.930 . S
C990 C958 1.423 . S
C990 C989 1.351 . S
C991 O975 1.276 . S
C991 O978 1.235 . S
C992 C993 1.393 . S
C992 C996 1.395 . S
C992 C999 1.492 . S
C993 C992 1.393 . S
C993 C994 1.392 . S
C993 H1004 0.930 . S
C994 C993 1.392 . S
C994 C995 1.386 . S
C995 C994 1.386 . S
C995 C997 1.395 . S
C995 H1005 0.930 . S
C996 C992 1.395 . S
C996 C997 1.379 . S
C996 H1006 0.930 . S
C997 C995 1.395 . S
C997 C996 1.379 . S
C997 H1007 0.930 . S
C998 O976 1.264 . S
C998 O977 1.254 . S
C999 Eu935 2.848 1_565 S
C999 O974 1.257 1_565 S
C999 O979 1.249 1_565 S
C999 C992 1.492 . S
H1000 C983 0.930 . S
H1001 C984 0.930 . S
H1002 C985 0.930 . S
H1003 C986 0.930 . S
H1004 C993 0.930 . S
H1005 C995 0.930 . S
H1006 C996 0.930 . S
H1007 C997 0.930 . S
C1008 C1009 1.369 . S
C1008 C1010 1.419 1_565 S
C1008 H1012 0.930 . S
C1009 C1008 1.369 . S
C1009 C1018 1.429 . S
C1010 C1008 1.419 1_545 S
C1010 C1011 1.363 . S
C1010 H1013 0.929 . S
C1011 C1010 1.363 . S
C1011 C1017 1.428 . S
H1012 C1008 0.930 . S
H1013 C1010 0.929 . S
S1014 N1015 1.613 1_545 S
S1014 N1016 1.610 . S
N1015 S1014 1.613 1_565 S
N1015 C1018 1.350 . S
N1016 S1014 1.610 . S
N1016 C1017 1.351 . S
C1017 C1011 1.428 . S
C1017 N1016 1.351 . S
C1017 C1018 1.434 1_545 S
C1018 C1009 1.429 . S
C1018 N1015 1.350 . S
C1018 C1017 1.434 1_565 S
C1019 C1020 1.369 . S
C1019 C1021 1.419 . S
C1019 H1023 0.930 . S
C1020 C1019 1.369 . S
C1020 C1029 1.429 . S
C1021 C1019 1.419 . S
C1021 C1022 1.363 . S
C1021 H1024 0.929 . S
C1022 C1021 1.363 . S
C1022 C1028 1.428 . S
H1023 C1019 0.930 . S
H1024 C1021 0.929 . S
S1025 N1026 1.613 . S
S1025 N1027 1.610 . S
N1026 S1025 1.613 . S
N1026 C1029 1.350 . S
N1027 S1025 1.610 . S
N1027 C1028 1.351 . S
C1028 C1022 1.428 . S
C1028 N1027 1.351 . S
C1028 C1029 1.434 . S
C1029 C1020 1.429 . S
C1029 N1026 1.350 . S
C1029 C1028 1.434 . S
C1030 C1031 1.369 . S
C1030 C1032 1.419 1_655 S
C1030 H1034 0.930 . S
C1031 C1030 1.369 . S
C1031 C1040 1.429 . S
C1032 C1030 1.419 1_455 S
C1032 C1033 1.363 . S
C1032 H1035 0.929 . S
C1033 C1032 1.363 . S
C1033 C1039 1.428 . S
H1034 C1030 0.930 . S
H1035 C1032 0.929 . S
S1036 N1037 1.613 . S
S1036 N1038 1.610 1_655 S
N1037 S1036 1.613 . S
N1037 C1040 1.350 . S
N1038 S1036 1.610 1_455 S
N1038 C1039 1.351 . S
C1039 C1033 1.428 . S
C1039 N1038 1.351 . S
C1039 C1040 1.434 1_455 S
C1040 C1031 1.429 . S
C1040 N1037 1.350 . S
C1040 C1039 1.434 1_655 S
C1041 C1042 1.369 . S
C1041 C1043 1.419 1_565 S
C1041 H1045 0.930 . S
C1042 C1041 1.369 . S
C1042 C1051 1.429 . S
C1043 C1041 1.419 1_545 S
C1043 C1044 1.363 . S
C1043 H1046 0.929 . S
C1044 C1043 1.363 . S
C1044 C1050 1.428 . S
H1045 C1041 0.930 . S
H1046 C1043 0.929 . S
S1047 N1048 1.613 . S
S1047 N1049 1.610 1_565 S
N1048 S1047 1.613 . S
N1048 C1051 1.350 . S
N1049 S1047 1.610 1_545 S
N1049 C1050 1.351 . S
C1050 C1044 1.428 . S
C1050 N1049 1.351 . S
C1050 C1051 1.434 1_545 S
C1051 C1042 1.429 . S
C1051 N1048 1.350 . S
C1051 C1050 1.434 1_565 S
C1052 C1053 1.369 . S
C1052 C1054 1.419 . S
C1052 H1056 0.930 . S
C1053 C1052 1.369 . S
C1053 C1062 1.429 . S
C1054 C1052 1.419 . S
C1054 C1055 1.363 . S
C1054 H1057 0.929 . S
C1055 C1054 1.363 . S
C1055 C1061 1.428 . S
H1056 C1052 0.930 . S
H1057 C1054 0.929 . S
S1058 N1059 1.613 . S
S1058 N1060 1.610 . S
N1059 S1058 1.613 . S
N1059 C1062 1.350 . S
N1060 S1058 1.610 . S
N1060 C1061 1.351 . S
C1061 C1055 1.428 . S
C1061 N1060 1.351 . S
C1061 C1062 1.434 . S
C1062 C1053 1.429 . S
C1062 N1059 1.350 . S
C1062 C1061 1.434 . S
C1063 C1064 1.369 . S
C1063 C1065 1.419 1_655 S
C1063 H1067 0.930 . S
C1064 C1063 1.369 . S
C1064 C1073 1.429 . S
C1065 C1063 1.419 1_455 S
C1065 C1066 1.363 . S
C1065 H1068 0.929 . S
C1066 C1065 1.363 . S
C1066 C1072 1.428 . S
H1067 C1063 0.930 . S
H1068 C1065 0.929 . S
S1069 N1070 1.613 . S
S1069 N1071 1.610 1_655 S
N1070 S1069 1.613 . S
N1070 C1073 1.350 . S
N1071 S1069 1.610 1_455 S
N1071 C1072 1.351 . S
C1072 C1066 1.428 . S
C1072 N1071 1.351 . S
C1072 C1073 1.434 1_455 S
C1073 C1064 1.429 . S
C1073 N1070 1.350 . S
C1073 C1072 1.434 1_655 S
C1074 C1075 1.369 . S
C1074 C1076 1.419 1_455 S
C1074 H1078 0.930 . S
C1075 C1074 1.369 . S
C1075 C1084 1.429 . S
C1076 C1074 1.419 1_655 S
C1076 C1077 1.363 . S
C1076 H1079 0.929 . S
C1077 C1076 1.363 . S
C1077 C1083 1.428 . S
H1078 C1074 0.930 . S
H1079 C1076 0.929 . S
S1080 N1081 1.613 1_655 S
S1080 N1082 1.610 . S
N1081 S1080 1.613 1_455 S
N1081 C1084 1.350 . S
N1082 S1080 1.610 . S
N1082 C1083 1.351 . S
C1083 C1077 1.428 . S
C1083 N1082 1.351 . S
C1083 C1084 1.434 1_655 S
C1084 C1075 1.429 . S
C1084 N1081 1.350 . S
C1084 C1083 1.434 1_455 S
C1085 C1086 1.369 . S
C1085 C1087 1.419 1_565 S
C1085 H1089 0.930 . S
C1086 C1085 1.369 . S
C1086 C1095 1.429 . S
C1087 C1085 1.419 1_545 S
C1087 C1088 1.363 . S
C1087 H1090 0.929 . S
C1088 C1087 1.363 . S
C1088 C1094 1.428 . S
H1089 C1085 0.930 . S
H1090 C1087 0.929 . S
S1091 N1092 1.613 1_545 S
S1091 N1093 1.610 . S
N1092 S1091 1.613 1_565 S
N1092 C1095 1.350 . S
N1093 S1091 1.610 . S
N1093 C1094 1.351 . S
C1094 C1088 1.428 . S
C1094 N1093 1.351 . S
C1094 C1095 1.434 1_545 S
C1095 C1086 1.429 . S
C1095 N1092 1.350 . S
C1095 C1094 1.434 1_565 S
C1096 C1097 1.369 . S
C1096 C1098 1.419 . S
C1096 H1100 0.930 . S
C1097 C1096 1.369 . S
C1097 C1106 1.429 . S
C1098 C1096 1.419 . S
C1098 C1099 1.363 . S
C1098 H1101 0.929 . S
C1099 C1098 1.363 . S
C1099 C1105 1.428 . S
H1100 C1096 0.930 . S
H1101 C1098 0.929 . S
S1102 N1103 1.613 . S
S1102 N1104 1.610 . S
N1103 S1102 1.613 . S
N1103 C1106 1.350 . S
N1104 S1102 1.610 . S
N1104 C1105 1.351 . S
C1105 C1099 1.428 . S
C1105 N1104 1.351 . S
C1105 C1106 1.434 . S
C1106 C1097 1.429 . S
C1106 N1103 1.350 . S
C1106 C1105 1.434 . S
C1107 C1108 1.369 . S
C1107 C1109 1.419 1_455 S
C1107 H1111 0.930 . S
C1108 C1107 1.369 . S
C1108 C1117 1.429 . S
C1109 C1107 1.419 1_655 S
C1109 C1110 1.363 . S
C1109 H1112 0.929 . S
C1110 C1109 1.363 . S
C1110 C1116 1.428 . S
H1111 C1107 0.930 . S
H1112 C1109 0.929 . S
S1113 N1114 1.613 1_655 S
S1113 N1115 1.610 . S
N1114 S1113 1.613 1_455 S
N1114 C1117 1.350 . S
N1115 S1113 1.610 . S
N1115 C1116 1.351 . S
C1116 C1110 1.428 . S
C1116 N1115 1.351 . S
C1116 C1117 1.434 1_655 S
C1117 C1108 1.429 . S
C1117 N1114 1.350 . S
C1117 C1116 1.434 1_455 S
C1118 C1119 1.369 . S
C1118 C1120 1.419 1_545 S
C1118 H1122 0.930 . S
C1119 C1118 1.369 . S
C1119 C1128 1.429 . S
C1120 C1118 1.419 1_565 S
C1120 C1121 1.363 . S
C1120 H1123 0.929 . S
C1121 C1120 1.363 . S
C1121 C1127 1.428 . S
H1122 C1118 0.930 . S
H1123 C1120 0.929 . S
S1124 N1125 1.613 1_565 S
S1124 N1126 1.610 . S
N1125 S1124 1.613 1_545 S
N1125 C1128 1.350 . S
N1126 S1124 1.610 . S
N1126 C1127 1.351 . S
C1127 C1121 1.428 . S
C1127 N1126 1.351 . S
C1127 C1128 1.434 1_565 S
C1128 C1119 1.429 . S
C1128 N1125 1.350 . S
C1128 C1127 1.434 1_545 S
C1129 C1130 1.369 . S
C1129 C1131 1.419 . S
C1129 H1133 0.930 . S
C1130 C1129 1.369 . S
C1130 C1139 1.429 . S
C1131 C1129 1.419 . S
C1131 C1132 1.363 . S
C1131 H1134 0.929 . S
C1132 C1131 1.363 . S
C1132 C1138 1.428 . S
H1133 C1129 0.930 . S
H1134 C1131 0.929 . S
S1135 N1136 1.613 . S
S1135 N1137 1.610 . S
N1136 S1135 1.613 . S
N1136 C1139 1.350 . S
N1137 S1135 1.610 . S
N1137 C1138 1.351 . S
C1138 C1132 1.428 . S
C1138 N1137 1.351 . S
C1138 C1139 1.434 . S
C1139 C1130 1.429 . S
C1139 N1136 1.350 . S
C1139 C1138 1.434 . S
C1140 C1141 1.369 . S
C1140 C1142 1.419 . S
C1140 H1144 0.930 . S
C1141 C1140 1.369 . S
C1141 C1150 1.429 . S
C1142 C1140 1.419 . S
C1142 C1143 1.363 . S
C1142 H1145 0.929 . S
C1143 C1142 1.363 . S
C1143 C1149 1.428 . S
H1144 C1140 0.930 . S
H1145 C1142 0.929 . S
S1146 N1147 1.613 . S
S1146 N1148 1.610 . S
N1147 S1146 1.613 . S
N1147 C1150 1.350 . S
N1148 S1146 1.610 . S
N1148 C1149 1.351 . S
C1149 C1143 1.428 . S
C1149 N1148 1.351 . S
C1149 C1150 1.434 . S
C1150 C1141 1.429 . S
C1150 N1147 1.350 . S
C1150 C1149 1.434 . S
C1151 C1152 1.369 . S
C1151 C1153 1.419 . S
C1151 H1155 0.930 . S
C1152 C1151 1.369 . S
C1152 C1161 1.429 . S
C1153 C1151 1.419 . S
C1153 C1154 1.363 . S
C1153 H1156 0.929 . S
C1154 C1153 1.363 . S
C1154 C1160 1.428 . S
H1155 C1151 0.930 . S
H1156 C1153 0.929 . S
S1157 N1158 1.613 . S
S1157 N1159 1.610 . S
N1158 S1157 1.613 . S
N1158 C1161 1.350 . S
N1159 S1157 1.610 . S
N1159 C1160 1.351 . S
C1160 C1154 1.428 . S
C1160 N1159 1.351 . S
C1160 C1161 1.434 . S
C1161 C1152 1.429 . S
C1161 N1158 1.350 . S
C1161 C1160 1.434 . S
C1162 C1163 1.369 . S
C1162 C1164 1.419 . S
C1162 H1166 0.930 . S
C1163 C1162 1.369 . S
C1163 C1172 1.429 . S
C1164 C1162 1.419 . S
C1164 C1165 1.363 . S
C1164 H1167 0.929 . S
C1165 C1164 1.363 . S
C1165 C1171 1.428 . S
H1166 C1162 0.930 . S
H1167 C1164 0.929 . S
S1168 N1169 1.613 . S
S1168 N1170 1.610 . S
N1169 S1168 1.613 . S
N1169 C1172 1.350 . S
N1170 S1168 1.610 . S
N1170 C1171 1.351 . S
C1171 C1165 1.428 . S
C1171 N1170 1.351 . S
C1171 C1172 1.434 . S
C1172 C1163 1.429 . S
C1172 N1169 1.350 . S
C1172 C1171 1.434 . S
C1173 C1174 1.369 . S
C1173 C1175 1.419 . S
C1173 H1177 0.930 . S
C1174 C1173 1.369 . S
C1174 C1183 1.429 . S
C1175 C1173 1.419 . S
C1175 C1176 1.363 . S
C1175 H1178 0.929 . S
C1176 C1175 1.363 . S
C1176 C1182 1.428 . S
H1177 C1173 0.930 . S
H1178 C1175 0.929 . S
S1179 N1180 1.613 . S
S1179 N1181 1.610 . S
N1180 S1179 1.613 . S
N1180 C1183 1.350 . S
N1181 S1179 1.610 . S
N1181 C1182 1.351 . S
C1182 C1176 1.428 . S
C1182 N1181 1.351 . S
C1182 C1183 1.434 . S
C1183 C1174 1.429 . S
C1183 N1180 1.350 . S
C1183 C1182 1.434 . S
C1184 C1185 1.369 . S
C1184 C1186 1.419 . S
C1184 H1188 0.930 . S
C1185 C1184 1.369 . S
C1185 C1194 1.429 . S
C1186 C1184 1.419 . S
C1186 C1187 1.363 . S
C1186 H1189 0.929 . S
C1187 C1186 1.363 . S
C1187 C1193 1.428 . S
H1188 C1184 0.930 . S
H1189 C1186 0.929 . S
S1190 N1191 1.613 . S
S1190 N1192 1.610 . S
N1191 S1190 1.613 . S
N1191 C1194 1.350 . S
N1192 S1190 1.610 . S
N1192 C1193 1.351 . S
C1193 C1187 1.428 . S
C1193 N1192 1.351 . S
C1193 C1194 1.434 . S
C1194 C1185 1.429 . S
C1194 N1191 1.350 . S
C1194 C1193 1.434 . S
C1195 C1196 1.369 . S
C1195 C1197 1.419 . S
C1195 H1199 0.930 . S
C1196 C1195 1.369 . S
C1196 C1205 1.429 . S
C1197 C1195 1.419 . S
C1197 C1198 1.363 . S
C1197 H1200 0.929 . S
C1198 C1197 1.363 . S
C1198 C1204 1.428 . S
H1199 C1195 0.930 . S
H1200 C1197 0.929 . S
S1201 N1202 1.613 . S
S1201 N1203 1.610 . S
N1202 S1201 1.613 . S
N1202 C1205 1.350 . S
N1203 S1201 1.610 . S
N1203 C1204 1.351 . S
C1204 C1198 1.428 . S
C1204 N1203 1.351 . S
C1204 C1205 1.434 . S
C1205 C1196 1.429 . S
C1205 N1202 1.350 . S
C1205 C1204 1.434 . S
C1206 C1207 1.369 . S
C1206 C1208 1.419 . S
C1206 H1210 0.930 . S
C1207 C1206 1.369 . S
C1207 C1216 1.429 . S
C1208 C1206 1.419 . S
C1208 C1209 1.363 . S
C1208 H1211 0.929 . S
C1209 C1208 1.363 . S
C1209 C1215 1.428 . S
H1210 C1206 0.930 . S
H1211 C1208 0.929 . S
S1212 N1213 1.613 . S
S1212 N1214 1.610 . S
N1213 S1212 1.613 . S
N1213 C1216 1.350 . S
N1214 S1212 1.610 . S
N1214 C1215 1.351 . S
C1215 C1209 1.428 . S
C1215 N1214 1.351 . S
C1215 C1216 1.434 . S
C1216 C1207 1.429 . S
C1216 N1213 1.350 . S
C1216 C1215 1.434 . S
C1217 C1218 1.369 . S
C1217 C1219 1.419 . S
C1217 H1221 0.930 . S
C1218 C1217 1.369 . S
C1218 C1227 1.429 . S
C1219 C1217 1.419 . S
C1219 C1220 1.363 . S
C1219 H1222 0.929 . S
C1220 C1219 1.363 . S
C1220 C1226 1.428 . S
H1221 C1217 0.930 . S
H1222 C1219 0.929 . S
S1223 N1224 1.613 . S
S1223 N1225 1.610 . S
N1224 S1223 1.613 . S
N1224 C1227 1.350 . S
N1225 S1223 1.610 . S
N1225 C1226 1.351 . S
C1226 C1220 1.428 . S
C1226 N1225 1.351 . S
C1226 C1227 1.434 . S
C1227 C1218 1.429 . S
C1227 N1224 1.350 . S
C1227 C1226 1.434 . S
C1228 C1229 1.369 . S
C1228 C1230 1.419 . S
C1228 H1232 0.930 . S
C1229 C1228 1.369 . S
C1229 C1238 1.429 . S
C1230 C1228 1.419 . S
C1230 C1231 1.363 . S
C1230 H1233 0.929 . S
C1231 C1230 1.363 . S
C1231 C1237 1.428 . S
H1232 C1228 0.930 . S
H1233 C1230 0.929 . S
S1234 N1235 1.613 . S
S1234 N1236 1.610 . S
N1235 S1234 1.613 . S
N1235 C1238 1.350 . S
N1236 S1234 1.610 . S
N1236 C1237 1.351 . S
C1237 C1231 1.428 . S
C1237 N1236 1.351 . S
C1237 C1238 1.434 . S
C1238 C1229 1.429 . S
C1238 N1235 1.350 . S
C1238 C1237 1.434 . S
C1239 C1240 1.369 . S
C1239 C1241 1.419 . S
C1239 H1243 0.930 . S
C1240 C1239 1.369 . S
C1240 C1249 1.429 . S
C1241 C1239 1.419 . S
C1241 C1242 1.363 . S
C1241 H1244 0.929 . S
C1242 C1241 1.363 . S
C1242 C1248 1.428 . S
H1243 C1239 0.930 . S
H1244 C1241 0.929 . S
S1245 N1246 1.613 . S
S1245 N1247 1.610 . S
N1246 S1245 1.613 . S
N1246 C1249 1.350 . S
N1247 S1245 1.610 . S
N1247 C1248 1.351 . S
C1248 C1242 1.428 . S
C1248 N1247 1.351 . S
C1248 C1249 1.434 . S
C1249 C1240 1.429 . S
C1249 N1246 1.350 . S
C1249 C1248 1.434 . S
C1250 C1251 1.369 . S
C1250 C1252 1.419 . S
C1250 H1254 0.930 . S
C1251 C1250 1.369 . S
C1251 C1260 1.429 . S
C1252 C1250 1.419 . S
C1252 C1253 1.363 . S
C1252 H1255 0.929 . S
C1253 C1252 1.363 . S
C1253 C1259 1.428 . S
H1254 C1250 0.930 . S
H1255 C1252 0.929 . S
S1256 N1257 1.613 . S
S1256 N1258 1.610 . S
N1257 S1256 1.613 . S
N1257 C1260 1.350 . S
N1258 S1256 1.610 . S
N1258 C1259 1.351 . S
C1259 C1253 1.428 . S
C1259 N1258 1.351 . S
C1259 C1260 1.434 . S
C1260 C1251 1.429 . S
C1260 N1257 1.350 . S
C1260 C1259 1.434 . S
C1261 C1262 1.369 . S
C1261 C1263 1.419 . S
C1261 H1265 0.930 . S
C1262 C1261 1.369 . S
C1262 C1271 1.429 . S
C1263 C1261 1.419 . S
C1263 C1264 1.363 . S
C1263 H1266 0.929 . S
C1264 C1263 1.363 . S
C1264 C1270 1.428 . S
H1265 C1261 0.930 . S
H1266 C1263 0.929 . S
S1267 N1268 1.613 . S
S1267 N1269 1.610 . S
N1268 S1267 1.613 . S
N1268 C1271 1.350 . S
N1269 S1267 1.610 . S
N1269 C1270 1.351 . S
C1270 C1264 1.428 . S
C1270 N1269 1.351 . S
C1270 C1271 1.434 . S
C1271 C1262 1.429 . S
C1271 N1268 1.350 . S
C1271 C1270 1.434 . S
C1272 C1273 1.369 . S
C1272 C1274 1.419 . S
C1272 H1276 0.930 . S
C1273 C1272 1.369 . S
C1273 C1282 1.429 . S
C1274 C1272 1.419 . S
C1274 C1275 1.363 . S
C1274 H1277 0.929 . S
C1275 C1274 1.363 . S
C1275 C1281 1.428 . S
H1276 C1272 0.930 . S
H1277 C1274 0.929 . S
S1278 N1279 1.613 . S
S1278 N1280 1.610 . S
N1279 S1278 1.613 . S
N1279 C1282 1.350 . S
N1280 S1278 1.610 . S
N1280 C1281 1.351 . S
C1281 C1275 1.428 . S
C1281 N1280 1.351 . S
C1281 C1282 1.434 . S
C1282 C1273 1.429 . S
C1282 N1279 1.350 . S
C1282 C1281 1.434 . S
C1283 C1284 1.369 . S
C1283 C1285 1.419 . S
C1283 H1287 0.930 . S
C1284 C1283 1.369 . S
C1284 C1293 1.429 . S
C1285 C1283 1.419 . S
C1285 C1286 1.363 . S
C1285 H1288 0.929 . S
C1286 C1285 1.363 . S
C1286 C1292 1.428 . S
H1287 C1283 0.930 . S
H1288 C1285 0.929 . S
S1289 N1290 1.613 . S
S1289 N1291 1.610 . S
N1290 S1289 1.613 . S
N1290 C1293 1.350 . S
N1291 S1289 1.610 . S
N1291 C1292 1.351 . S
C1292 C1286 1.428 . S
C1292 N1291 1.351 . S
C1292 C1293 1.434 . S
C1293 C1284 1.429 . S
C1293 N1290 1.350 . S
C1293 C1292 1.434 . S
C1294 C1295 1.369 . S
C1294 C1296 1.419 . S
C1294 H1298 0.930 . S
C1295 C1294 1.369 . S
C1295 C1304 1.429 . S
C1296 C1294 1.419 . S
C1296 C1297 1.363 . S
C1296 H1299 0.929 . S
C1297 C1296 1.363 . S
C1297 C1303 1.428 . S
H1298 C1294 0.930 . S
H1299 C1296 0.929 . S
S1300 N1301 1.613 . S
S1300 N1302 1.610 . S
N1301 S1300 1.613 . S
N1301 C1304 1.350 . S
N1302 S1300 1.610 . S
N1302 C1303 1.351 . S
C1303 C1297 1.428 . S
C1303 N1302 1.351 . S
C1303 C1304 1.434 . S
C1304 C1295 1.429 . S
C1304 N1301 1.350 . S
C1304 C1303 1.434 . S
C1305 C1306 1.369 . S
C1305 C1307 1.419 . S
C1305 H1309 0.930 . S
C1306 C1305 1.369 . S
C1306 C1315 1.429 . S
C1307 C1305 1.419 . S
C1307 C1308 1.363 . S
C1307 H1310 0.929 . S
C1308 C1307 1.363 . S
C1308 C1314 1.428 . S
H1309 C1305 0.930 . S
H1310 C1307 0.929 . S
S1311 N1312 1.613 . S
S1311 N1313 1.610 . S
N1312 S1311 1.613 . S
N1312 C1315 1.350 . S
N1313 S1311 1.610 . S
N1313 C1314 1.351 . S
C1314 C1308 1.428 . S
C1314 N1313 1.351 . S
C1314 C1315 1.434 . S
C1315 C1306 1.429 . S
C1315 N1312 1.350 . S
C1315 C1314 1.434 . S
C1316 C1317 1.369 . S
C1316 C1318 1.419 . S
C1316 H1320 0.930 . S
C1317 C1316 1.369 . S
C1317 C1326 1.429 . S
C1318 C1316 1.419 . S
C1318 C1319 1.363 . S
C1318 H1321 0.929 . S
C1319 C1318 1.363 . S
C1319 C1325 1.428 . S
H1320 C1316 0.930 . S
H1321 C1318 0.929 . S
S1322 N1323 1.613 . S
S1322 N1324 1.610 . S
N1323 S1322 1.613 . S
N1323 C1326 1.350 . S
N1324 S1322 1.610 . S
N1324 C1325 1.351 . S
C1325 C1319 1.428 . S
C1325 N1324 1.351 . S
C1325 C1326 1.434 . S
C1326 C1317 1.429 . S
C1326 N1323 1.350 . S
C1326 C1325 1.434 . S
C1327 C1328 1.369 . S
C1327 C1329 1.419 . S
C1327 H1331 0.930 . S
C1328 C1327 1.369 . S
C1328 C1337 1.429 . S
C1329 C1327 1.419 . S
C1329 C1330 1.363 . S
C1329 H1332 0.929 . S
C1330 C1329 1.363 . S
C1330 C1336 1.428 . S
H1331 C1327 0.930 . S
H1332 C1329 0.929 . S
S1333 N1334 1.613 . S
S1333 N1335 1.610 . S
N1334 S1333 1.613 . S
N1334 C1337 1.350 . S
N1335 S1333 1.610 . S
N1335 C1336 1.351 . S
C1336 C1330 1.428 . S
C1336 N1335 1.351 . S
C1336 C1337 1.434 . S
C1337 C1328 1.429 . S
C1337 N1334 1.350 . S
C1337 C1336 1.434 . S
C1338 C1339 1.369 . S
C1338 C1340 1.419 . S
C1338 H1342 0.930 . S
C1339 C1338 1.369 . S
C1339 C1348 1.429 1_556 S
C1340 C1338 1.419 . S
C1340 C1341 1.363 1_556 S
C1340 H1343 0.929 . S
C1341 C1340 1.363 1_554 S
C1341 C1347 1.428 . S
H1342 C1338 0.930 . S
H1343 C1340 0.929 . S
S1344 N1345 1.613 . S
S1344 N1346 1.610 . S
N1345 S1344 1.613 . S
N1345 C1348 1.350 . S
N1346 S1344 1.610 . S
N1346 C1347 1.351 . S
C1347 C1341 1.428 . S
C1347 N1346 1.351 . S
C1347 C1348 1.434 . S
C1348 C1339 1.429 1_554 S
C1348 N1345 1.350 . S
C1348 C1347 1.434 . S
C1349 C1350 1.369 . S
C1349 C1351 1.419 1_455 S
C1349 H1353 0.930 . S
C1350 C1349 1.369 . S
C1350 C1359 1.429 . S
C1351 C1349 1.419 1_655 S
C1351 C1352 1.363 . S
C1351 H1354 0.929 . S
C1352 C1351 1.363 . S
C1352 C1358 1.428 . S
H1353 C1349 0.930 . S
H1354 C1351 0.929 . S
S1355 N1356 1.613 1_655 S
S1355 N1357 1.610 . S
N1356 S1355 1.613 1_455 S
N1356 C1359 1.350 . S
N1357 S1355 1.610 . S
N1357 C1358 1.351 . S
C1358 C1352 1.428 . S
C1358 N1357 1.351 . S
C1358 C1359 1.434 1_655 S
C1359 C1350 1.429 . S
C1359 N1356 1.350 . S
C1359 C1358 1.434 1_455 S
C1360 C1361 1.369 . S
C1360 C1362 1.419 1_565 S
C1360 H1364 0.930 . S
C1361 C1360 1.369 . S
C1361 C1370 1.429 1_554 S
C1362 C1360 1.419 1_545 S
C1362 C1363 1.363 1_554 S
C1362 H1365 0.929 . S
C1363 C1362 1.363 1_556 S
C1363 C1369 1.428 . S
H1364 C1360 0.930 . S
H1365 C1362 0.929 . S
S1366 N1367 1.613 . S
S1366 N1368 1.610 1_565 S
N1367 S1366 1.613 . S
N1367 C1370 1.350 . S
N1368 S1366 1.610 1_545 S
N1368 C1369 1.351 . S
C1369 C1363 1.428 . S
C1369 N1368 1.351 . S
C1369 C1370 1.434 1_545 S
C1370 C1361 1.429 1_556 S
C1370 N1367 1.350 . S
C1370 C1369 1.434 1_565 S
C1371 C1372 1.369 . S
C1371 C1373 1.419 . S
C1371 H1375 0.930 . S
C1372 C1371 1.369 . S
C1372 C1381 1.429 . S
C1373 C1371 1.419 . S
C1373 C1374 1.363 . S
C1373 H1376 0.929 . S
C1374 C1373 1.363 . S
C1374 C1380 1.428 . S
H1375 C1371 0.930 . S
H1376 C1373 0.929 . S
S1377 N1378 1.613 . S
S1377 N1379 1.610 . S
N1378 S1377 1.613 . S
N1378 C1381 1.350 . S
N1379 S1377 1.610 . S
N1379 C1380 1.351 . S
C1380 C1374 1.428 . S
C1380 N1379 1.351 . S
C1380 C1381 1.434 . S
C1381 C1372 1.429 . S
C1381 N1378 1.350 . S
C1381 C1380 1.434 . S
C1382 C1383 1.369 . S
C1382 C1384 1.419 1_656 S
C1382 H1386 0.930 . S
C1383 C1382 1.369 . S
C1383 C1392 1.430 1_556 S
C1384 C1382 1.419 1_454 S
C1384 C1385 1.363 . S
C1384 H1387 0.929 . S
C1385 C1384 1.363 . S
C1385 C1391 1.428 . S
H1386 C1382 0.930 . S
H1387 C1384 0.929 . S
S1388 N1389 1.613 . S
S1388 N1390 1.610 1_655 S
N1389 S1388 1.613 . S
N1389 C1392 1.350 . S
N1390 S1388 1.610 1_455 S
N1390 C1391 1.351 . S
C1391 C1385 1.428 . S
C1391 N1390 1.351 . S
C1391 C1392 1.433 1_455 S
C1392 C1383 1.430 1_554 S
C1392 N1389 1.350 . S
C1392 C1391 1.433 1_655 S
C1393 C1394 1.369 . S
C1393 C1395 1.419 1_565 S
C1393 H1397 0.930 . S
C1394 C1393 1.369 . S
C1394 C1403 1.429 . S
C1395 C1393 1.419 1_545 S
C1395 C1396 1.363 . S
C1395 H1398 0.929 . S
C1396 C1395 1.363 . S
C1396 C1402 1.428 . S
H1397 C1393 0.930 . S
H1398 C1395 0.929 . S
S1399 N1400 1.613 . S
S1399 N1401 1.610 1_565 S
N1400 S1399 1.613 . S
N1400 C1403 1.350 . S
N1401 S1399 1.610 1_545 S
N1401 C1402 1.351 . S
C1402 C1396 1.428 . S
C1402 N1401 1.351 . S
C1402 C1403 1.434 1_545 S
C1403 C1394 1.429 . S
C1403 N1400 1.350 . S
C1403 C1402 1.434 1_565 S
C1009 C403 1.395 . S
C1011 C70 1.338 . S
C1020 C487 1.394 . S
C1022 C154 1.337 . S
C1031 C238 1.346 . S
C1033 C67 1.399 . S
C1042 C322 1.346 . S
C1044 C151 1.399 . S
C1053 C406 1.343 . S
C1055 C235 1.396 . S
C1064 C319 1.395 . S
C1066 C490 1.342 . S
C1075 C739 1.395 . S
C1077 C574 1.338 . S
C1086 C658 1.335 . S
C1088 C823 1.392 . S
C1097 C907 1.395 . S
C1099 C742 1.338 . S
C1108 C826 1.336 . S
C1110 C991 1.394 . S
C1119 C910 1.333 . S
C1121 C571 1.392 . S
C1130 C655 1.391 . S
C1132 C994 1.337 . S
C1141 C392 1.394 . S
C1143 C58 1.364 . S
C1152 C142 1.365 . S
C1154 C476 1.395 . S
C1163 C226 1.368 . S
C1165 C56 1.400 . S
C1174 C310 1.368 . S
C1176 C140 1.399 . S
C1185 C224 1.391 . S
C1187 C394 1.360 . S
C1196 C308 1.391 . S
C1198 C478 1.358 . S
C1207 C728 1.404 . S
C1209 C562 1.359 . S
C1218 C646 1.354 . S
C1220 C812 1.394 . S
C1229 C730 1.361 . S
C1231 C896 1.393 . S
C1240 C980 1.403 . S
C1242 C814 1.365 . S
C1251 C898 1.368 . S
C1253 C560 1.398 . S
C1262 C644 1.392 . S
C1264 C982 1.361 . S
C1273 C903 1.893 . S
C1275 C63 1.891 . S
C1284 C147 1.887 . S
C1286 C987 1.885 . S
C1295 C231 1.890 . S
C1297 C567 1.891 . S
C1306 C315 1.892 . S
C1308 C651 1.889 . S
C1317 C399 1.891 . S
C1319 C735 1.891 . S
C1328 C819 1.889 . S
C1330 C483 1.886 . S
C1339 C830 2.101 . S
C1341 C74 2.098 . S
C1350 C914 2.096 . S
C1352 C158 2.100 . S
C1361 C242 2.099 . S
C1363 C998 2.094 . S
C1372 C326 2.101 . S
C1374 C578 2.095 . S
C1383 C662 2.096 . S
C1385 C410 2.093 . S
C1394 C746 2.096 . S
C1396 C494 2.093 . S
