# Generated by pormake.
# Topology wlt, (5)-cn, num edge types: 1
# Building blocks:
#     Node 0, Type 0, BuildingBlock: BEQFEK_clean_sbu_0, # of connection points: 5
#     Node 1, Type 0, BuildingBlock: BEQFEK_clean_sbu_0, # of connection points: 5
#     Node 2, Type 0, BuildingBlock: BEQFEK_clean_sbu_0, # of connection points: 5
#     Node 3, Type 0, BuildingBlock: BEQFEK_clean_sbu_0, # of connection points: 5
#     Node 4, Type 0, BuildingBlock: BEQFEK_clean_sbu_0, # of connection points: 5
#     Node 5, Type 0, BuildingBlock: BEQFEK_clean_sbu_0, # of connection points: 5
#     Node 6, Type 0, BuildingBlock: BEQFEK_clean_sbu_0, # of connection points: 5
#     Node 7, Type 0, BuildingBlock: BEQFEK_clean_sbu_0, # of connection points: 5
#     Node 8, Type 0, BuildingBlock: BEQFEK_clean_sbu_0, # of connection points: 5
#     Node 9, Type 0, BuildingBlock: BEQFEK_clean_sbu_0, # of connection points: 5
#     Node 10, Type 0, BuildingBlock: BEQFEK_clean_sbu_0, # of connection points: 5
#     Node 11, Type 0, BuildingBlock: BEQFEK_clean_sbu_0, # of connection points: 5
#     Node 12, Type 0, BuildingBlock: BEQFEK_clean_sbu_0, # of connection points: 5
#     Node 13, Type 0, BuildingBlock: BEQFEK_clean_sbu_0, # of connection points: 5
#     Node 14, Type 0, BuildingBlock: BEQFEK_clean_sbu_0, # of connection points: 5
#     Node 15, Type 0, BuildingBlock: BEQFEK_clean_sbu_0, # of connection points: 5
#     Node 16, Type 0, BuildingBlock: BEQFEK_clean_sbu_0, # of connection points: 5
#     Node 17, Type 0, BuildingBlock: BEQFEK_clean_sbu_0, # of connection points: 5
#     Node 18, Type 0, BuildingBlock: BEQFEK_clean_sbu_0, # of connection points: 5
#     Node 19, Type 0, BuildingBlock: BEQFEK_clean_sbu_0, # of connection points: 5
#     Node 20, Type 0, BuildingBlock: BEQFEK_clean_sbu_0, # of connection points: 5
#     Node 21, Type 0, BuildingBlock: BEQFEK_clean_sbu_0, # of connection points: 5
#     Node 22, Type 0, BuildingBlock: BEQFEK_clean_sbu_0, # of connection points: 5
#     Node 23, Type 0, BuildingBlock: BEQFEK_clean_sbu_0, # of connection points: 5
#     Node 24, Type 0, BuildingBlock: BEQFEK_clean_sbu_0, # of connection points: 5
#     Node 25, Type 0, BuildingBlock: BEQFEK_clean_sbu_0, # of connection points: 5
#     Node 26, Type 0, BuildingBlock: BEQFEK_clean_sbu_0, # of connection points: 5
#     Node 27, Type 0, BuildingBlock: BEQFEK_clean_sbu_0, # of connection points: 5
#     Node 28, Type 0, BuildingBlock: BEQFEK_clean_sbu_0, # of connection points: 5
#     Node 29, Type 0, BuildingBlock: BEQFEK_clean_sbu_0, # of connection points: 5
#     Node 30, Type 0, BuildingBlock: BEQFEK_clean_sbu_0, # of connection points: 5
#     Node 31, Type 0, BuildingBlock: BEQFEK_clean_sbu_0, # of connection points: 5
#     Node 32, Type 0, BuildingBlock: BEQFEK_clean_sbu_0, # of connection points: 5
#     Node 33, Type 0, BuildingBlock: BEQFEK_clean_sbu_0, # of connection points: 5
#     Node 34, Type 0, BuildingBlock: BEQFEK_clean_sbu_0, # of connection points: 5
#     Node 35, Type 0, BuildingBlock: BEQFEK_clean_sbu_0, # of connection points: 5
#     Edge 36, Type (0, 0), BuildingBlock: XIVTED_clean_linker_0, # of connection points: 2
#     Edge 37, Type (0, 0), BuildingBlock: XIVTED_clean_linker_0, # of connection points: 2
#     Edge 38, Type (0, 0), BuildingBlock: XIVTED_clean_linker_0, # of connection points: 2
#     Edge 39, Type (0, 0), BuildingBlock: XIVTED_clean_linker_0, # of connection points: 2
#     Edge 40, Type (0, 0), BuildingBlock: XIVTED_clean_linker_0, # of connection points: 2
#     Edge 41, Type (0, 0), BuildingBlock: XIVTED_clean_linker_0, # of connection points: 2
#     Edge 42, Type (0, 0), BuildingBlock: XIVTED_clean_linker_0, # of connection points: 2
#     Edge 43, Type (0, 0), BuildingBlock: XIVTED_clean_linker_0, # of connection points: 2
#     Edge 44, Type (0, 0), BuildingBlock: XIVTED_clean_linker_0, # of connection points: 2
#     Edge 45, Type (0, 0), BuildingBlock: XIVTED_clean_linker_0, # of connection points: 2
#     Edge 46, Type (0, 0), BuildingBlock: XIVTED_clean_linker_0, # of connection points: 2
#     Edge 47, Type (0, 0), BuildingBlock: XIVTED_clean_linker_0, # of connection points: 2
#     Edge 48, Type (0, 0), BuildingBlock: XIVTED_clean_linker_0, # of connection points: 2
#     Edge 49, Type (0, 0), BuildingBlock: XIVTED_clean_linker_0, # of connection points: 2
#     Edge 50, Type (0, 0), BuildingBlock: XIVTED_clean_linker_0, # of connection points: 2
#     Edge 51, Type (0, 0), BuildingBlock: XIVTED_clean_linker_0, # of connection points: 2
#     Edge 52, Type (0, 0), BuildingBlock: XIVTED_clean_linker_0, # of connection points: 2
#     Edge 53, Type (0, 0), BuildingBlock: XIVTED_clean_linker_0, # of connection points: 2
#     Edge 54, Type (0, 0), BuildingBlock: XIVTED_clean_linker_0, # of connection points: 2
#     Edge 55, Type (0, 0), BuildingBlock: XIVTED_clean_linker_0, # of connection points: 2
#     Edge 56, Type (0, 0), BuildingBlock: XIVTED_clean_linker_0, # of connection points: 2
#     Edge 57, Type (0, 0), BuildingBlock: XIVTED_clean_linker_0, # of connection points: 2
#     Edge 58, Type (0, 0), BuildingBlock: XIVTED_clean_linker_0, # of connection points: 2
#     Edge 59, Type (0, 0), BuildingBlock: XIVTED_clean_linker_0, # of connection points: 2
#     Edge 60, Type (0, 0), BuildingBlock: XIVTED_clean_linker_0, # of connection points: 2
#     Edge 61, Type (0, 0), BuildingBlock: XIVTED_clean_linker_0, # of connection points: 2
#     Edge 62, Type (0, 0), BuildingBlock: XIVTED_clean_linker_0, # of connection points: 2
#     Edge 63, Type (0, 0), BuildingBlock: XIVTED_clean_linker_0, # of connection points: 2
#     Edge 64, Type (0, 0), BuildingBlock: XIVTED_clean_linker_0, # of connection points: 2
#     Edge 65, Type (0, 0), BuildingBlock: XIVTED_clean_linker_0, # of connection points: 2
#     Edge 66, Type (0, 0), BuildingBlock: XIVTED_clean_linker_0, # of connection points: 2
#     Edge 67, Type (0, 0), BuildingBlock: XIVTED_clean_linker_0, # of connection points: 2
#     Edge 68, Type (0, 0), BuildingBlock: XIVTED_clean_linker_0, # of connection points: 2
#     Edge 69, Type (0, 0), BuildingBlock: XIVTED_clean_linker_0, # of connection points: 2
#     Edge 70, Type (0, 0), BuildingBlock: XIVTED_clean_linker_0, # of connection points: 2
#     Edge 71, Type (0, 0), BuildingBlock: XIVTED_clean_linker_0, # of connection points: 2
#     Edge 72, Type (0, 0), BuildingBlock: XIVTED_clean_linker_0, # of connection points: 2
#     Edge 73, Type (0, 0), BuildingBlock: XIVTED_clean_linker_0, # of connection points: 2
#     Edge 74, Type (0, 0), BuildingBlock: XIVTED_clean_linker_0, # of connection points: 2
#     Edge 75, Type (0, 0), BuildingBlock: XIVTED_clean_linker_0, # of connection points: 2
#     Edge 76, Type (0, 0), BuildingBlock: XIVTED_clean_linker_0, # of connection points: 2
#     Edge 77, Type (0, 0), BuildingBlock: XIVTED_clean_linker_0, # of connection points: 2
#     Edge 78, Type (0, 0), BuildingBlock: XIVTED_clean_linker_0, # of connection points: 2
#     Edge 79, Type (0, 0), BuildingBlock: XIVTED_clean_linker_0, # of connection points: 2
#     Edge 80, Type (0, 0), BuildingBlock: XIVTED_clean_linker_0, # of connection points: 2
#     Edge 81, Type (0, 0), BuildingBlock: XIVTED_clean_linker_0, # of connection points: 2
#     Edge 82, Type (0, 0), BuildingBlock: XIVTED_clean_linker_0, # of connection points: 2
#     Edge 83, Type (0, 0), BuildingBlock: XIVTED_clean_linker_0, # of connection points: 2
#     Edge 84, Type (0, 0), BuildingBlock: XIVTED_clean_linker_0, # of connection points: 2
#     Edge 85, Type (0, 0), BuildingBlock: XIVTED_clean_linker_0, # of connection points: 2
#     Edge 86, Type (0, 0), BuildingBlock: XIVTED_clean_linker_0, # of connection points: 2
#     Edge 87, Type (0, 0), BuildingBlock: XIVTED_clean_linker_0, # of connection points: 2
#     Edge 88, Type (0, 0), BuildingBlock: XIVTED_clean_linker_0, # of connection points: 2
#     Edge 89, Type (0, 0), BuildingBlock: XIVTED_clean_linker_0, # of connection points: 2
#     Edge 90, Type (0, 0), BuildingBlock: XIVTED_clean_linker_0, # of connection points: 2
#     Edge 91, Type (0, 0), BuildingBlock: XIVTED_clean_linker_0, # of connection points: 2
#     Edge 92, Type (0, 0), BuildingBlock: XIVTED_clean_linker_0, # of connection points: 2
#     Edge 93, Type (0, 0), BuildingBlock: XIVTED_clean_linker_0, # of connection points: 2
#     Edge 94, Type (0, 0), BuildingBlock: XIVTED_clean_linker_0, # of connection points: 2
#     Edge 95, Type (0, 0), BuildingBlock: XIVTED_clean_linker_0, # of connection points: 2
#     Edge 96, Type (0, 0), BuildingBlock: XIVTED_clean_linker_0, # of connection points: 2
#     Edge 97, Type (0, 0), BuildingBlock: XIVTED_clean_linker_0, # of connection points: 2
#     Edge 98, Type (0, 0), BuildingBlock: XIVTED_clean_linker_0, # of connection points: 2
#     Edge 99, Type (0, 0), BuildingBlock: XIVTED_clean_linker_0, # of connection points: 2
#     Edge 100, Type (0, 0), BuildingBlock: XIVTED_clean_linker_0, # of connection points: 2
#     Edge 101, Type (0, 0), BuildingBlock: XIVTED_clean_linker_0, # of connection points: 2
#     Edge 102, Type (0, 0), BuildingBlock: XIVTED_clean_linker_0, # of connection points: 2
#     Edge 103, Type (0, 0), BuildingBlock: XIVTED_clean_linker_0, # of connection points: 2
#     Edge 104, Type (0, 0), BuildingBlock: XIVTED_clean_linker_0, # of connection points: 2
#     Edge 105, Type (0, 0), BuildingBlock: XIVTED_clean_linker_0, # of connection points: 2
#     Edge 106, Type (0, 0), BuildingBlock: XIVTED_clean_linker_0, # of connection points: 2
#     Edge 107, Type (0, 0), BuildingBlock: XIVTED_clean_linker_0, # of connection points: 2
#     Edge 108, Type (0, 0), BuildingBlock: XIVTED_clean_linker_0, # of connection points: 2
#     Edge 109, Type (0, 0), BuildingBlock: XIVTED_clean_linker_0, # of connection points: 2
#     Edge 110, Type (0, 0), BuildingBlock: XIVTED_clean_linker_0, # of connection points: 2
#     Edge 111, Type (0, 0), BuildingBlock: XIVTED_clean_linker_0, # of connection points: 2
#     Edge 112, Type (0, 0), BuildingBlock: XIVTED_clean_linker_0, # of connection points: 2
#     Edge 113, Type (0, 0), BuildingBlock: XIVTED_clean_linker_0, # of connection points: 2
#     Edge 114, Type (0, 0), BuildingBlock: XIVTED_clean_linker_0, # of connection points: 2
#     Edge 115, Type (0, 0), BuildingBlock: XIVTED_clean_linker_0, # of connection points: 2
#     Edge 116, Type (0, 0), BuildingBlock: XIVTED_clean_linker_0, # of connection points: 2
#     Edge 117, Type (0, 0), BuildingBlock: XIVTED_clean_linker_0, # of connection points: 2
#     Edge 118, Type (0, 0), BuildingBlock: XIVTED_clean_linker_0, # of connection points: 2
#     Edge 119, Type (0, 0), BuildingBlock: XIVTED_clean_linker_0, # of connection points: 2
#     Edge 120, Type (0, 0), BuildingBlock: XIVTED_clean_linker_0, # of connection points: 2
#     Edge 121, Type (0, 0), BuildingBlock: XIVTED_clean_linker_0, # of connection points: 2
#     Edge 122, Type (0, 0), BuildingBlock: XIVTED_clean_linker_0, # of connection points: 2
#     Edge 123, Type (0, 0), BuildingBlock: XIVTED_clean_linker_0, # of connection points: 2
#     Edge 124, Type (0, 0), BuildingBlock: XIVTED_clean_linker_0, # of connection points: 2
#     Edge 125, Type (0, 0), BuildingBlock: XIVTED_clean_linker_0, # of connection points: 2
# Relax obj value: 0.125
# Max RMSD: 0.159
# Mean RMSD: 0.159
data_MOF--net-wlt--node1-BEQFEK_clean_sbu_0--edge1-XIVTED_clean_linker_0
_symmetry_space_group_name_H-M    P1
_symmetry_Int_Tables_number       1
_symmetry_cell_setting            triclinic
loop_
_symmetry_equiv_pos_as_xyz
'x, y, z'
_cell_length_a     69.593257
_cell_length_b     69.647601
_cell_length_c     50.552156
_cell_angle_alpha  89.976267
_cell_angle_beta   90.020027
_cell_angle_gamma 119.97584
loop_
_atom_site_label
_atom_site_type_symbol
_atom_site_fract_x
_atom_site_fract_y
_atom_site_fract_z
_atom_type_partial_charge
Co0 Co 0.25152 0.20517 0.11497 0.0
Co1 Co 0.20901 0.20513 0.09408 0.0
C2 C 0.25455 0.24663 0.09463 0.0
O3 O 0.26435 0.23673 0.104 0.0
O4 O 0.23368 0.23629 0.09023 0.0
C5 C 0.29426 0.20602 0.12646 0.0
O6 O 0.30591 0.2253 0.11471 0.0
C7 C 0.17996 0.21026 0.05567 0.0
C8 C 0.14689 0.18705 0.07218 0.0
C9 C 0.15737 0.20135 0.05125 0.0
N10 N 0.18261 0.2015 0.07812 0.0
N11 N 0.16279 0.18782 0.08801 0.0
C12 C 0.19868 0.22536 0.03795 0.0
H13 H 0.21312 0.22294 0.04102 0.0
H14 H 0.19346 0.22237 0.0169 0.0
H15 H 0.20382 0.2428 0.04289 0.0
C16 C 0.23844 0.1712 0.07359 0.0
N17 N 0.23521 0.18598 0.08712 0.0
N18 N 0.21701 0.18528 0.07863 0.0
C19 C 0.20793 0.16982 0.05945 0.0
C20 C 0.22122 0.1604 0.05571 0.0
C21 C 0.2583 0.16844 0.07686 0.0
H22 H 0.25696 0.15989 0.09587 0.0
H23 H 0.27351 0.18498 0.0775 0.0
H24 H 0.25983 0.15873 0.06045 0.0
O25 O 0.23245 0.1991 0.14612 0.0
O26 O 0.20207 0.19857 0.13199 0.0
H27 H 0.18034 0.14799 0.03427 0.0
H28 H 0.18869 0.17703 0.03257 0.0
C29 C 0.18642 0.16343 0.04595 0.0
H30 H 0.17373 0.16089 0.0609 0.0
H31 H 0.16011 0.1786 0.10525 0.0
O32 O 0.2733 0.19694 0.12759 0.0
C33 C 0.21338 0.19667 0.15046 0.0
Co34 Co 0.78949 0.04845 0.11388 0.0
Co35 Co 0.79051 0.00716 0.09129 0.0
C36 C 0.7485 0.00947 0.09196 0.0
O37 O 0.75814 0.02892 0.10198 0.0
O38 O 0.75911 -0.00069 0.08704 0.0
C39 C 0.79051 0.0916 0.11902 0.0
O40 O 0.779 0.08783 0.09712 0.0
C41 C 0.78572 0.971 0.05628 0.0
C42 C 0.81425 0.96779 0.06971 0.0
C43 C 0.79686 0.95939 0.05182 0.0
N44 N 0.79615 0.98558 0.07591 0.0
N45 N 0.81306 0.98345 0.08395 0.0
C46 C 0.76676 0.96973 0.04088 0.0
H47 H 0.76749 0.98601 0.04109 0.0
H48 H 0.76701 0.96464 0.02014 0.0
H49 H 0.75095 0.95731 0.05023 0.0
C50 C 0.8258 0.0713 0.07463 0.0
N51 N 0.80994 0.05288 0.08662 0.0
N52 N 0.8098 0.03544 0.07641 0.0
C53 C 0.82511 0.04215 0.05703 0.0
C54 C 0.83582 0.0651 0.05536 0.0
C55 C 0.83255 0.09443 0.08305 0.0
H56 H 0.83276 0.09544 0.10493 0.0
H57 H 0.8204 0.0989 0.07529 0.0
H58 H 0.84928 0.10658 0.07556 0.0
O59 O 0.79569 0.03553 0.14485 0.0
O60 O 0.79669 0.00638 0.12928 0.0
H61 H 0.83764 0.02008 0.05068 0.0
H62 H 0.83815 0.03533 0.02154 0.0
C63 C 0.82857 0.0268 0.03954 0.0
H64 H 0.8123 0.0128 0.03339 0.0
H65 H 0.82401 0.99297 0.09891 0.0
O66 O 0.79506 0.07722 0.1276 0.0
C67 C 0.79834 0.01897 0.14834 0.0
Co68 Co 0.9488 0.7381 0.11548 0.0
Co69 Co 0.99009 0.78094 0.09355 0.0
C70 C 0.9883 0.73684 0.0941 0.0
O71 O 0.96876 0.72682 0.10384 0.0
O72 O -0.00165 0.75763 0.08941 0.0
C73 C 0.90567 0.69587 0.1196 0.0
O74 O 0.90896 0.68918 0.09662 0.0
C75 C 0.02606 0.81406 0.05875 0.0
C76 C 0.03026 0.84495 0.07654 0.0
C77 C 0.03804 0.83704 0.05658 0.0
N78 N 0.01166 0.80873 0.07894 0.0
N79 N 0.01435 0.82729 0.08945 0.0
C80 C 0.02876 0.79754 0.04265 0.0
H81 H 0.02402 0.78236 0.05428 0.0
H82 H 0.01775 0.79285 0.0251 0.0
H83 H 0.04615 0.80466 0.03578 0.0
C84 C 0.92594 0.75157 0.07621 0.0
N85 N 0.94436 0.75413 0.08822 0.0
N86 N 0.9618 0.77167 0.07834 0.0
C87 C 0.95507 0.78045 0.05919 0.0
C88 C 0.93212 0.76803 0.05727 0.0
C89 C 0.90277 0.73515 0.08453 0.0
H90 H 0.90182 0.73379 0.10638 0.0
H91 H 0.89808 0.71872 0.076 0.0
H92 H 0.89072 0.74008 0.07764 0.0
O93 O 0.96096 0.75704 0.14662 0.0
O94 O 0.99009 0.78748 0.13157 0.0
H95 H 0.97741 0.81517 0.05439 0.0
H96 H 0.96186 0.80159 0.02486 0.0
C97 C 0.97042 0.7998 0.04239 0.0
H98 H 0.98428 0.79758 0.03549 0.0
H99 H 0.00524 0.82789 0.1055 0.0
O100 O 0.92024 0.71437 0.12897 0.0
C101 C 0.97724 0.77636 0.15038 0.0
Co102 Co 0.20693 0.25672 0.37348 0.0
Co103 Co 0.2061 0.21464 0.39586 0.0
C104 C 0.24803 0.25885 0.39532 0.0
O105 O 0.23826 0.26857 0.38537 0.0
O106 O 0.23754 0.23809 0.40013 0.0
C107 C 0.2058 0.29862 0.36924 0.0
O108 O 0.21587 0.30526 0.39219 0.0
C109 C 0.21128 0.18358 0.43077 0.0
C110 C 0.18272 0.15173 0.41782 0.0
C111 C 0.20029 0.1609 0.43545 0.0
N112 N 0.20061 0.18754 0.41126 0.0
N113 N 0.18367 0.16844 0.4035 0.0
C114 C 0.23029 0.20141 0.44594 0.0
H115 H 0.22933 0.21684 0.44587 0.0
H116 H 0.23036 0.19615 0.46665 0.0
H117 H 0.24606 0.20497 0.43631 0.0
C118 C 0.17048 0.24317 0.41276 0.0
N119 N 0.18643 0.24074 0.40074 0.0
N120 N 0.18682 0.2236 0.41106 0.0
C121 C 0.1717 0.21508 0.43067 0.0
C122 C 0.16075 0.22712 0.43231 0.0
C123 C 0.16327 0.25915 0.40402 0.0
H124 H 0.16388 0.26046 0.38216 0.0
H125 H 0.17463 0.2757 0.41256 0.0
H126 H 0.14612 0.2538 0.41061 0.0
O127 O 0.20054 0.23769 0.34247 0.0
O128 O 0.19966 0.20754 0.35784 0.0
H129 H 0.15945 0.18064 0.43781 0.0
H130 H 0.15967 0.19591 0.4668 0.0
C131 C 0.16877 0.19663 0.44848 0.0
H132 H 0.18521 0.19903 0.4541 0.0
H133 H 0.17255 0.16687 0.38867 0.0
O134 O 0.20185 0.28015 0.35977 0.0
C135 C 0.19786 0.21849 0.33887 0.0
Co136 Co 0.73951 0.94724 0.37007 0.0
Co137 Co 0.78209 0.98831 0.39271 0.0
C138 C 0.73783 0.98607 0.39325 0.0
O139 O 0.72809 0.9668 0.38278 0.0
O140 O 0.75862 0.99627 0.39807 0.0
C141 C 0.69727 0.90462 0.36664 0.0
O142 O 0.69115 0.9085 0.38967 0.0
C143 C 0.81602 0.02489 0.42617 0.0
C144 C 0.84634 0.02645 0.41013 0.0
C145 C 0.839 0.03592 0.42867 0.0
N146 N 0.81013 0.00941 0.40718 0.0
N147 N 0.82836 0.01051 0.39771 0.0
C148 C 0.80004 0.0296 0.44056 0.0
H149 H 0.78587 0.02625 0.42766 0.0
H150 H 0.79354 0.01856 0.45807 0.0
H151 H 0.80822 0.04709 0.44728 0.0
C152 C 0.75312 0.92396 0.40854 0.0
N153 N 0.75573 0.94248 0.39676 0.0
N154 N 0.77304 0.95983 0.40712 0.0
C155 C 0.78154 0.95296 0.42646 0.0
C156 C 0.76923 0.92999 0.42792 0.0
C157 C 0.73678 0.90088 0.3999 0.0
H158 H 0.73532 0.90018 0.37806 0.0
H159 H 0.72034 0.89595 0.40864 0.0
H160 H 0.7419 0.88888 0.40639 0.0
O161 O 0.75816 0.96004 0.33881 0.0
O162 O 0.78827 0.98921 0.35442 0.0
H163 H 0.81613 0.97459 0.43342 0.0
H164 H 0.8008 0.95964 0.46242 0.0
C165 C 0.8002 0.9682 0.4442 0.0
H166 H 0.79817 0.98244 0.44989 0.0
H167 H 0.82851 0.00033 0.38267 0.0
O168 O 0.71566 0.91883 0.35665 0.0
C169 C 0.77728 0.97672 0.3353 0.0
Co170 Co 0.04495 0.79026 0.372 0.0
Co171 Co 0.0035 0.79083 0.39488 0.0
C172 C 0.00647 0.7492 0.39419 0.0
O173 O 0.02585 0.75903 0.38398 0.0
O174 O 0.99606 0.75955 0.39917 0.0
C175 C 0.08766 0.79074 0.36671 0.0
O176 O 0.08324 0.77857 0.38815 0.0
C177 C 0.96766 0.78544 0.43081 0.0
C178 C 0.96326 0.81328 0.41759 0.0
C179 C 0.95563 0.79608 0.43567 0.0
N180 N 0.98175 0.79598 0.41077 0.0
N181 N 0.97891 0.81247 0.40286 0.0
C182 C 0.96729 0.76691 0.4462 0.0
H183 H 0.98385 0.76823 0.44564 0.0
H184 H 0.96239 0.76709 0.46705 0.0
H185 H 0.95509 0.7509 0.43708 0.0
C186 C 0.06776 0.8264 0.41114 0.0
N187 N 0.0493 0.81052 0.39929 0.0
N188 N 0.03185 0.81038 0.40954 0.0
C189 C 0.03864 0.82581 0.42878 0.0
C190 C 0.06162 0.83648 0.43035 0.0
C191 C 0.09088 0.83311 0.40258 0.0
H192 H 0.09185 0.83355 0.38069 0.0
H193 H 0.09526 0.82081 0.41001 0.0
H194 H 0.10313 0.84972 0.41024 0.0
O195 O 0.03183 0.79644 0.34132 0.0
O196 O 0.00242 0.79703 0.3569 0.0
H197 H 0.01631 0.8381 0.43455 0.0
H198 H 0.03208 0.8397 0.46368 0.0
C199 C 0.02337 0.82954 0.44609 0.0
H200 H 0.00958 0.81339 0.4529 0.0
H201 H 0.98793 0.82341 0.38765 0.0
O202 O 0.07372 0.79594 0.35822 0.0
C203 C 0.01515 0.79892 0.33786 0.0
Co204 Co 0.73892 0.78733 0.87287 0.0
Co205 Co 0.78132 0.78885 0.89559 0.0
C206 C 0.73729 0.74674 0.89555 0.0
O207 O 0.72752 0.75632 0.88524 0.0
O208 O 0.75806 0.75733 0.90043 0.0
C209 C 0.69668 0.78766 0.86872 0.0
O210 O 0.69042 0.77784 0.89184 0.0
C211 C 0.813 0.78476 0.93072 0.0
C212 C 0.84455 0.81344 0.91721 0.0
C213 C 0.83574 0.79612 0.93518 0.0
N214 N 0.80867 0.79499 0.911 0.0
N215 N 0.8276 0.812 0.90292 0.0
C216 C 0.79545 0.76578 0.9462 0.0
H217 H 0.77988 0.76649 0.94621 0.0
H218 H 0.80093 0.76599 0.96687 0.0
H219 H 0.79203 0.75 0.93674 0.0
C220 C 0.75214 0.82411 0.91137 0.0
N221 N 0.75474 0.80811 0.89983 0.0
N222 N 0.77209 0.80813 0.91021 0.0
C223 C 0.78065 0.82368 0.92934 0.0
C224 C 0.76835 0.83437 0.9306 0.0
C225 C 0.7359 0.83091 0.90241 0.0
H226 H 0.73456 0.83008 0.88055 0.0
H227 H 0.7194 0.81947 0.91104 0.0
H228 H 0.741 0.84805 0.90875 0.0
O229 O 0.75797 0.79367 0.84196 0.0
O230 O 0.78823 0.7948 0.85745 0.0
H231 H 0.81533 0.83665 0.9357 0.0
H232 H 0.80049 0.83714 0.96475 0.0
C233 C 0.79957 0.82749 0.94687 0.0
H234 H 0.79755 0.81136 0.95321 0.0
H235 H 0.82888 0.82284 0.88788 0.0
O236 O 0.71515 0.7918 0.85902 0.0
C237 C 0.77722 0.79642 0.83842 0.0
Co238 Co 0.20317 0.94861 0.87264 0.0
Co239 Co 0.20373 0.99175 0.89099 0.0
C240 C 0.24475 0.98688 0.89266 0.0
O241 O 0.23456 0.96699 0.88404 0.0
O242 O 0.23475 -0.00211 0.89594 0.0
C243 C 0.20221 0.90541 0.86618 0.0
O244 O 0.21823 0.91101 0.88348 0.0
C245 C 0.20799 0.02791 0.92595 0.0
C246 C 0.1885 0.03928 0.90294 0.0
C247 C 0.2008 0.0433 0.92587 0.0
N248 N 0.20012 0.01536 0.90407 0.0
N249 N 0.18849 0.02225 0.89048 0.0
C250 C 0.22293 0.02579 0.94558 0.0
H251 H 0.23102 0.01707 0.93677 0.0
H252 H 0.21295 0.01594 0.96276 0.0
H253 H 0.23572 0.04238 0.95277 0.0
C254 C 0.16816 0.92907 0.91334 0.0
N255 N 0.1835 0.9466 0.89962 0.0
N256 N 0.18311 0.9645 0.90701 0.0
C257 C 0.16722 0.95886 0.92552 0.0
C258 C 0.15722 0.93621 0.9301 0.0
C259 C 0.1651 0.90626 0.91147 0.0
H260 H 0.18152 0.90734 0.91265 0.0
H261 H 0.15448 0.89531 0.92759 0.0
H262 H 0.15754 0.89889 0.89209 0.0
O263 O 0.19798 0.96092 0.84019 0.0
O264 O 0.19788 0.99119 0.85297 0.0
H265 H 0.1448 0.96576 0.94791 0.0
H266 H 0.17397 0.98558 0.95165 0.0
C267 C 0.16094 0.97463 0.93744 0.0
H268 H 0.15982 0.98512 0.92172 0.0
H269 H 0.18056 0.01537 0.87259 0.0
O270 O 0.19526 0.91868 0.86084 0.0
C271 C 0.196 0.97767 0.83501 0.0
Co272 Co 0.0447 0.25978 0.87012 0.0
Co273 Co 0.0051 0.21593 0.89199 0.0
C274 C 0.00807 0.26055 0.89923 0.0
O275 O 0.02723 0.27121 0.88856 0.0
O276 O -0.00213 0.23945 0.90126 0.0
C277 C 0.08754 0.30123 0.86538 0.0
O278 O 0.08496 0.30649 0.88956 0.0
C279 C 0.97048 0.18365 0.92764 0.0
C280 C 0.96639 0.15219 0.91188 0.0
C281 C 0.95876 0.16083 0.93119 0.0
N282 N 0.98433 0.18821 0.90708 0.0
N283 N 0.98174 0.16935 0.8977 0.0
C284 C 0.96998 0.20097 0.94463 0.0
H285 H 0.9866 0.2161 0.94509 0.0
H286 H 0.96476 0.19481 0.9651 0.0
H287 H 0.95802 0.20543 0.93613 0.0
C288 C 0.07006 0.24381 0.90213 0.0
N289 N 0.05097 0.24168 0.89264 0.0
N290 N 0.03418 0.22397 0.90316 0.0
C291 C 0.042 0.21476 0.92044 0.0
C292 C 0.06504 0.22698 0.92028 0.0
C293 C 0.09272 0.26077 0.89287 0.0
H294 H 0.0925 0.26329 0.87125 0.0
H295 H 0.09788 0.27668 0.90315 0.0
H296 H 0.10507 0.25555 0.89717 0.0
O297 O 0.02784 0.24358 0.83882 0.0
O298 O 0.00158 0.21086 0.85329 0.0
H299 H 0.02046 0.18013 0.92717 0.0
H300 H 0.03705 0.19489 0.95554 0.0
C301 C 0.02761 0.19589 0.93843 0.0
H302 H 0.01385 0.19798 0.94602 0.0
H303 H 0.99063 0.16823 0.88174 0.0
O304 O 0.07244 0.28351 0.85499 0.0
C305 C 0.01165 0.2243 0.83453 0.0
Co306 Co 0.78392 0.73627 0.61656 0.0
Co307 Co 0.78595 0.77896 0.59385 0.0
C308 C 0.7434 0.73525 0.59439 0.0
O309 O 0.75276 0.7252 0.60451 0.0
O310 O 0.75429 0.756 0.58947 0.0
C311 C 0.7846 0.69402 0.62155 0.0
O312 O 0.77512 0.68741 0.5983 0.0
C313 C 0.78232 0.81071 0.55827 0.0
C314 C 0.81085 0.84219 0.57216 0.0
C315 C 0.79382 0.83344 0.55379 0.0
N316 N 0.79222 0.80634 0.57835 0.0
N317 N 0.80913 0.82524 0.58667 0.0
C318 C 0.76357 0.79319 0.54247 0.0
H319 H 0.76396 0.77747 0.54317 0.0
H320 H 0.76441 0.79851 0.5216 0.0
H321 H 0.74763 0.79014 0.55114 0.0
C322 C 0.82065 0.74923 0.57787 0.0
N323 N 0.80466 0.75189 0.58939 0.0
N324 N 0.80485 0.76934 0.57906 0.0
C325 C 0.82048 0.77789 0.56002 0.0
C326 C 0.83107 0.7655 0.55875 0.0
C327 C 0.82737 0.73295 0.58686 0.0
H328 H 0.82657 0.73166 0.60872 0.0
H329 H 0.81587 0.71647 0.57827 0.0
H330 H 0.8445 0.73796 0.58048 0.0
O331 O 0.7907 0.75555 0.64737 0.0
O332 O 0.79238 0.78603 0.63185 0.0
H333 H 0.83354 0.8126 0.55402 0.0
H334 H 0.83438 0.79802 0.52489 0.0
C335 C 0.82452 0.79695 0.54263 0.0
H336 H 0.80846 0.79498 0.53603 0.0
H337 H 0.81974 0.82649 0.60199 0.0
O338 O 0.78834 0.71251 0.63077 0.0
C339 C 0.79389 0.77495 0.65087 0.0
Co340 Co 0.25967 0.04678 0.61336 0.0
Co341 Co 0.217 0.0066 0.58996 0.0
C342 C 0.2606 0.00769 0.58983 0.0
O343 O 0.27068 0.02686 0.60053 0.0
O344 O 0.23987 -0.002 0.5848 0.0
C345 C 0.30201 0.08932 0.61785 0.0
O346 O 0.3082 0.08601 0.59454 0.0
C347 C 0.18482 0.97115 0.55496 0.0
C348 C 0.15359 0.96892 0.56873 0.0
C349 C 0.16205 0.96006 0.55077 0.0
N350 N 0.1895 0.98587 0.57455 0.0
N351 N 0.17077 0.98436 0.58277 0.0
C352 C 0.20207 0.96923 0.53944 0.0
H353 H 0.21782 0.98534 0.53924 0.0
H354 H 0.19644 0.96392 0.51882 0.0
H355 H 0.20527 0.95674 0.54897 0.0
C356 C 0.24673 0.07113 0.57551 0.0
N357 N 0.24403 0.05233 0.5866 0.0
N358 N 0.22663 0.03526 0.57595 0.0
C359 C 0.21817 0.04259 0.5571 0.0
C360 C 0.23054 0.06555 0.55633 0.0
C361 C 0.26298 0.094 0.5849 0.0
H362 H 0.26429 0.09417 0.60675 0.0
H363 H 0.27948 0.09916 0.57619 0.0
H364 H 0.2579 0.10615 0.57892 0.0
O365 O 0.24045 0.03382 0.64417 0.0
O366 O 0.21011 0.00524 0.62796 0.0
H367 H 0.18346 0.02141 0.55038 0.0
H368 H 0.19864 0.0368 0.52154 0.0
C369 C 0.19927 0.02783 0.53935 0.0
H370 H 0.20106 0.01361 0.53292 0.0
H371 H 0.16977 0.99408 0.59781 0.0
O372 O 0.28361 0.07483 0.62756 0.0
C373 C 0.22108 0.01742 0.64729 0.0
Co374 Co 0.94519 0.21012 0.60142 0.0
Co375 Co 0.98888 0.20887 0.59046 0.0
C376 C 0.98564 0.25043 0.58295 0.0
O377 O 0.96517 0.24068 0.58927 0.0
O378 O 0.99655 0.24016 0.58284 0.0
C379 C 0.90824 0.20776 0.62868 0.0
O380 O 0.92297 0.21799 0.64741 0.0
C381 C 0.026 0.21296 0.55885 0.0
C382 C 0.03543 0.1915 0.58092 0.0
C383 C 0.0406 0.20484 0.5587 0.0
N384 N 0.01286 0.2048 0.58018 0.0
N385 N 0.01869 0.19213 0.59341 0.0
C386 C 0.02321 0.22673 0.53814 0.0
H387 H 0.00588 0.22347 0.53808 0.0
H388 H 0.02753 0.2232 0.51828 0.0
H389 H 0.0344 0.24452 0.54271 0.0
C390 C 0.92763 0.17359 0.56297 0.0
N391 N 0.94455 0.18944 0.57696 0.0
N392 N 0.9626 0.18836 0.57248 0.0
C393 C 0.95763 0.1715 0.55561 0.0
C394 C 0.93528 0.16157 0.54913 0.0
C395 C 0.90478 0.1706 0.56231 0.0
H396 H 0.90589 0.18697 0.5602 0.0
H397 H 0.89484 0.15983 0.54567 0.0
H398 H 0.89624 0.16309 0.58124 0.0
O399 O 0.95511 0.20589 0.63639 0.0
O400 O 0.98525 0.20354 0.62898 0.0
H401 H 0.96511 0.14791 0.53708 0.0
H402 H 0.98627 0.17672 0.53411 0.0
C403 C 0.97358 0.1641 0.54743 0.0
H404 H 0.98213 0.1626 0.56514 0.0
H405 H 0.01094 0.18357 0.61071 0.0
O406 O 0.91455 0.20421 0.60657 0.0
C407 C 0.97084 0.20321 0.64471 0.0
Co408 Co 0.92477 0.54517 0.45125 0.0
Co409 Co 0.8819 0.54276 0.42839 0.0
C410 C 0.92555 0.58523 0.42821 0.0
O411 O 0.93574 0.5761 0.43856 0.0
O412 O 0.90479 0.57422 0.42348 0.0
C413 C 0.96701 0.54503 0.4538 0.0
O414 O 0.97221 0.55444 0.43036 0.0
C415 C 0.8505 0.54658 0.39266 0.0
C416 C 0.81869 0.51856 0.40667 0.0
C417 C 0.82776 0.53552 0.38823 0.0
N418 N 0.85458 0.53655 0.41282 0.0
N419 N 0.83551 0.51993 0.42119 0.0
C420 C 0.86826 0.56506 0.37678 0.0
H421 H 0.88369 0.5641 0.37724 0.0
H422 H 0.86288 0.56443 0.35598 0.0
H423 H 0.87188 0.58113 0.38557 0.0
C424 C 0.9112 0.50755 0.41393 0.0
N425 N 0.90885 0.52398 0.42464 0.0
N426 N 0.89142 0.5237 0.41411 0.0
C427 C 0.88261 0.50762 0.39564 0.0
C428 C 0.89479 0.4968 0.39504 0.0
C429 C 0.92711 0.50058 0.4237 0.0
H430 H 0.92866 0.50224 0.4455 0.0
H431 H 0.9436 0.5113 0.41461 0.0
H432 H 0.92153 0.4831 0.41843 0.0
O433 O 0.9057 0.53876 0.48223 0.0
O434 O 0.8751 0.5368 0.46644 0.0
H435 H 0.84783 0.4944 0.38985 0.0
H436 H 0.86227 0.49312 0.36082 0.0
C437 C 0.86342 0.50326 0.3783 0.0
H438 H 0.86529 0.51918 0.3713 0.0
H439 H 0.83402 0.50932 0.43663 0.0
O440 O 0.94901 0.54114 0.46469 0.0
C441 C 0.88625 0.53557 0.48558 0.0
Co442 Co 0.45344 0.37908 0.44951 0.0
Co443 Co 0.45448 0.33748 0.42793 0.0
C444 C 0.41248 0.34007 0.42809 0.0
O445 O 0.42211 0.35966 0.43768 0.0
O446 O 0.42309 0.32984 0.4237 0.0
C447 C 0.45452 0.42226 0.45362 0.0
O448 O 0.44317 0.41829 0.43155 0.0
C449 C 0.45066 0.30107 0.39333 0.0
C450 C 0.4767 0.2959 0.41131 0.0
C451 C 0.46101 0.28846 0.39136 0.0
N452 N 0.46007 0.31548 0.41342 0.0
N453 N 0.47558 0.31223 0.42403 0.0
C454 C 0.43167 0.29893 0.37714 0.0
H455 H 0.42166 0.30431 0.38857 0.0
H456 H 0.43826 0.3097 0.35942 0.0
H457 H 0.4209 0.28156 0.37052 0.0
C458 C 0.48992 0.40141 0.41035 0.0
N459 N 0.47391 0.38312 0.42239 0.0
N460 N 0.47389 0.36557 0.41272 0.0
C461 C 0.48952 0.37208 0.39374 0.0
C462 C 0.50021 0.39501 0.39166 0.0
C463 C 0.49665 0.42463 0.41836 0.0
H464 H 0.49678 0.42585 0.44022 0.0
H465 H 0.48453 0.42902 0.4103 0.0
H466 H 0.51341 0.43671 0.41089 0.0
O467 O 0.45963 0.36657 0.48091 0.0
O468 O 0.46081 0.33736 0.46595 0.0
H469 H 0.50155 0.34939 0.38959 0.0
H470 H 0.50407 0.36496 0.35989 0.0
C471 C 0.49347 0.35653 0.37728 0.0
H472 H 0.47738 0.3428 0.37019 0.0
H473 H 0.48543 0.3212 0.44007 0.0
O474 O 0.45902 0.40796 0.46263 0.0
C475 C 0.46243 0.35014 0.48476 0.0
Co476 Co 0.61699 0.07041 0.4485 0.0
Co477 Co 0.65791 0.11269 0.42528 0.0
C478 C 0.65577 0.06851 0.42546 0.0
O479 O 0.63647 0.0587 0.43593 0.0
O480 O 0.66577 0.08923 0.42038 0.0
C481 C 0.57413 0.0284 0.45255 0.0
O482 O 0.57815 0.02175 0.42997 0.0
C483 C 0.69451 0.14519 0.39119 0.0
C484 C 0.69738 0.17634 0.40628 0.0
C485 C 0.70628 0.16808 0.38814 0.0
N486 N 0.67919 0.14023 0.41016 0.0
N487 N 0.68104 0.15892 0.41906 0.0
C488 C 0.6985 0.12839 0.37767 0.0
H489 H 0.69839 0.11661 0.39245 0.0
H490 H 0.68486 0.11884 0.36342 0.0
H491 H 0.71462 0.13621 0.36712 0.0
C492 C 0.59346 0.08406 0.4103 0.0
N493 N 0.61208 0.08649 0.42166 0.0
N494 N 0.62939 0.10367 0.41105 0.0
C495 C 0.6224 0.11222 0.3919 0.0
C496 C 0.59937 0.10014 0.39088 0.0
C497 C 0.57045 0.06808 0.41956 0.0
H498 H 0.57012 0.06696 0.44144 0.0
H499 H 0.56518 0.05147 0.41115 0.0
H500 H 0.55846 0.07328 0.41328 0.0
O501 O 0.63019 0.08937 0.47952 0.0
O502 O 0.65922 0.11938 0.46342 0.0
H503 H 0.64405 0.14675 0.38473 0.0
H504 H 0.62891 0.13133 0.35586 0.0
C505 C 0.63757 0.1308 0.37403 0.0
H506 H 0.65178 0.12874 0.36823 0.0
H507 H 0.67115 0.15976 0.43401 0.0
O508 O 0.58842 0.0469 0.46221 0.0
C509 C 0.64693 0.10852 0.48273 0.0
Co510 Co 0.87254 0.58863 0.70897 0.0
Co511 Co 0.87101 0.54553 0.72995 0.0
C512 C 0.91315 0.58983 0.73059 0.0
O513 O 0.90369 0.60001 0.72109 0.0
O514 O 0.90241 0.56897 0.73471 0.0
C515 C 0.87104 0.63065 0.70516 0.0
O516 O 0.88069 0.63732 0.72832 0.0
C517 C 0.87419 0.51202 0.7636 0.0
C518 C 0.84765 0.48134 0.74526 0.0
C519 C 0.86345 0.48902 0.7651 0.0
N520 N 0.8649 0.51759 0.74388 0.0
N521 N 0.84909 0.49915 0.73307 0.0
C522 C 0.89345 0.52837 0.77982 0.0
H523 H 0.90372 0.54377 0.76853 0.0
H524 H 0.88714 0.53265 0.79772 0.0
H525 H 0.90389 0.52128 0.78614 0.0
C526 C 0.83573 0.57423 0.74771 0.0
N527 N 0.85176 0.57197 0.73569 0.0
N528 N 0.85167 0.55432 0.74518 0.0
C529 C 0.83601 0.54518 0.76412 0.0
C530 C 0.82538 0.55748 0.76629 0.0
C531 C 0.82897 0.59073 0.73978 0.0
H532 H 0.82953 0.59243 0.71796 0.0
H533 H 0.84061 0.60703 0.74867 0.0
H534 H 0.81192 0.58563 0.74655 0.0
O535 O 0.86648 0.5703 0.6774 0.0
O536 O 0.8651 0.53966 0.69178 0.0
H537 H 0.82365 0.51041 0.7683 0.0
H538 H 0.8217 0.52365 0.79813 0.0
C539 C 0.83205 0.52565 0.78053 0.0
H540 H 0.84815 0.52778 0.78729 0.0
H541 H 0.83927 0.49873 0.71723 0.0
O542 O 0.86752 0.6123 0.69574 0.0
C543 C 0.86367 0.55112 0.67319 0.0
Co544 Co 0.40562 0.28228 0.70559 0.0
Co545 Co 0.44718 0.32325 0.72976 0.0
C546 C 0.40273 0.3205 0.72829 0.0
O547 O 0.39335 0.30129 0.71767 0.0
O548 O 0.42338 0.33077 0.73381 0.0
C549 C 0.36405 0.23927 0.70021 0.0
O550 O 0.35717 0.24258 0.72305 0.0
C551 C 0.47733 0.35878 0.76614 0.0
C552 C 0.50963 0.36295 0.75351 0.0
C553 C 0.49995 0.37067 0.77132 0.0
N554 N 0.4739 0.34468 0.74617 0.0
N555 N 0.49327 0.34737 0.73863 0.0
C556 C 0.45907 0.35931 0.78114 0.0
H557 H 0.44378 0.34282 0.78046 0.0
H558 H 0.46395 0.3642 0.80204 0.0
H559 H 0.45543 0.37156 0.77179 0.0
C560 C 0.41875 0.25878 0.74441 0.0
N561 N 0.42121 0.27737 0.733 0.0
N562 N 0.43817 0.29471 0.74391 0.0
C563 C 0.4466 0.28772 0.76322 0.0
C564 C 0.43461 0.26473 0.76408 0.0
C565 C 0.40301 0.23578 0.73496 0.0
H566 H 0.40219 0.23549 0.71307 0.0
H567 H 0.38626 0.23037 0.74304 0.0
H568 H 0.40824 0.22388 0.74151 0.0
O569 O 0.42532 0.29584 0.67531 0.0
O570 O 0.455 0.32494 0.6919 0.0
H571 H 0.48103 0.30993 0.77047 0.0
H572 H 0.46594 0.29394 0.79905 0.0
C573 C 0.46506 0.30282 0.78129 0.0
H574 H 0.46251 0.31656 0.78779 0.0
H575 H 0.49527 0.33832 0.72352 0.0
O576 O 0.38258 0.25391 0.69096 0.0
C577 C 0.44451 0.31259 0.67246 0.0
Co578 Co 0.71142 0.12084 0.70924 0.0
Co579 Co 0.66911 0.12221 0.72784 0.0
C580 C 0.67163 0.08019 0.72958 0.0
O581 O 0.69139 0.08974 0.72053 0.0
O582 O 0.66129 0.09081 0.73322 0.0
C583 C 0.74716 0.12517 0.67691 0.0
O584 O 0.73212 0.11772 0.65811 0.0
C585 C 0.63353 0.1181 0.76291 0.0
C586 C 0.62573 0.14232 0.74485 0.0
C587 C 0.62008 0.12746 0.76558 0.0
N588 N 0.6465 0.12708 0.74159 0.0
N589 N 0.64164 0.14141 0.73077 0.0
C590 C 0.63536 0.10221 0.78123 0.0
H591 H 0.65231 0.10449 0.78032 0.0
H592 H 0.63145 0.10455 0.80185 0.0
H593 H 0.6234 0.08502 0.77496 0.0
C594 C 0.73206 0.15545 0.75004 0.0
N595 N 0.7142 0.14066 0.7363 0.0
N596 N 0.6967 0.14171 0.74401 0.0
C597 C 0.70292 0.15737 0.76291 0.0
C598 C 0.72555 0.16661 0.76726 0.0
C599 C 0.75463 0.15796 0.74755 0.0
H600 H 0.75318 0.14136 0.74769 0.0
H601 H 0.76577 0.16798 0.76389 0.0
H602 H 0.76205 0.16605 0.72839 0.0
O603 O 0.70011 0.12743 0.6767 0.0
O604 O 0.67011 0.12819 0.68967 0.0
H605 H 0.67859 0.16746 0.76001 0.0
H606 H 0.69689 0.17911 0.78796 0.0
C607 C 0.68772 0.16407 0.77556 0.0
H608 H 0.67545 0.15026 0.78801 0.0
H609 H 0.64946 0.15084 0.714 0.0
O610 O 0.74141 0.12623 0.70048 0.0
C611 C 0.6836 0.12992 0.67165 0.0
Co612 Co 0.4059 0.12087 0.20938 0.0
Co613 Co 0.44934 0.12193 0.22824 0.0
C614 C 0.40407 0.08016 0.23052 0.0
O615 O 0.39371 0.08962 0.22148 0.0
O616 O 0.42509 0.09081 0.23374 0.0
C617 C 0.36275 0.12008 0.20018 0.0
O618 O 0.35129 0.10117 0.21277 0.0
C619 C 0.48059 0.11765 0.26382 0.0
C620 C 0.51261 0.14117 0.24515 0.0
C621 C 0.50339 0.12678 0.26631 0.0
N622 N 0.47661 0.12634 0.24219 0.0
N623 N 0.4958 0.14023 0.23102 0.0
C624 C 0.46291 0.10227 0.28251 0.0
H625 H 0.44827 0.10459 0.28125 0.0
H626 H 0.46926 0.10509 0.30312 0.0
H627 H 0.4576 0.08492 0.2769 0.0
C628 C 0.42035 0.15586 0.24992 0.0
N629 N 0.42324 0.14093 0.23623 0.0
N630 N 0.44179 0.14195 0.24386 0.0
C631 C 0.45147 0.15778 0.26253 0.0
C632 C 0.43818 0.16712 0.26693 0.0
C633 C 0.40019 0.15825 0.24779 0.0
H634 H 0.38512 0.14161 0.24794 0.0
H635 H 0.39912 0.16813 0.26433 0.0
H636 H 0.40068 0.16644 0.22877 0.0
O637 O 0.42356 0.12592 0.17693 0.0
O638 O 0.45464 0.12759 0.19017 0.0
H639 H 0.4798 0.17999 0.28655 0.0
H640 H 0.47189 0.15102 0.28798 0.0
C641 C 0.47349 0.16452 0.27488 0.0
H642 H 0.48571 0.16719 0.25921 0.0
H643 H 0.49742 0.14938 0.21399 0.0
O644 O 0.38361 0.12876 0.19788 0.0
C645 C 0.44262 0.12856 0.17194 0.0
Co646 Co 0.87482 0.2858 0.20764 0.0
Co647 Co 0.87337 0.32675 0.23042 0.0
C648 C 0.91554 0.3242 0.22971 0.0
O649 O 0.90612 0.30487 0.21939 0.0
O650 O 0.90475 0.33417 0.23472 0.0
C651 C 0.87534 0.24368 0.19776 0.0
O652 O 0.89074 0.24866 0.21577 0.0
C653 C 0.87766 0.36064 0.26839 0.0
C654 C 0.85303 0.3688 0.25232 0.0
C655 C 0.86815 0.37378 0.27262 0.0
N656 N 0.86848 0.34845 0.24659 0.0
N657 N 0.8539 0.35351 0.23698 0.0
C658 C 0.89397 0.35842 0.28552 0.0
H659 H 0.89173 0.34154 0.28357 0.0
H660 H 0.89204 0.36176 0.30654 0.0
H661 H 0.91102 0.37058 0.27898 0.0
C662 C 0.84004 0.26283 0.24819 0.0
N663 N 0.85485 0.2813 0.23539 0.0
N664 N 0.85379 0.29838 0.2447 0.0
C665 C 0.83814 0.29128 0.26372 0.0
C666 C 0.82892 0.26853 0.26651 0.0
C667 C 0.83759 0.24045 0.2439 0.0
H668 H 0.85411 0.24182 0.24534 0.0
H669 H 0.82645 0.22818 0.2587 0.0
H670 H 0.83094 0.23451 0.22375 0.0
O671 O 0.8686 0.29929 0.17707 0.0
O672 O 0.86735 0.32826 0.19282 0.0
H673 H 0.81637 0.29616 0.29018 0.0
H674 H 0.84522 0.31766 0.29064 0.0
C675 C 0.83137 0.30585 0.27787 0.0
H676 H 0.82783 0.3155 0.26322 0.0
H677 H 0.84431 0.34627 0.22014 0.0
O678 O 0.86819 0.2569 0.19314 0.0
C679 C 0.86587 0.31583 0.17369 0.0
Co680 Co 0.71195 0.58845 0.20593 0.0
Co681 Co 0.67125 0.54599 0.22907 0.0
C682 C 0.67271 0.58983 0.22817 0.0
O683 O 0.69209 0.59979 0.21796 0.0
O684 O 0.66283 0.56912 0.23327 0.0
C685 C 0.75482 0.6306 0.20092 0.0
O686 O 0.75165 0.63723 0.224 0.0
C687 C 0.63552 0.51477 0.26452 0.0
C688 C 0.63244 0.48302 0.25153 0.0
C689 C 0.624 0.49208 0.26925 0.0
N690 N 0.65007 0.51882 0.24488 0.0
N691 N 0.64803 0.49977 0.23712 0.0
C692 C 0.63419 0.53252 0.27964 0.0
H693 H 0.65051 0.54804 0.27949 0.0
H694 H 0.62895 0.52729 0.30038 0.0
H695 H 0.62186 0.53593 0.27002 0.0
C696 C 0.7357 0.57557 0.24471 0.0
N697 N 0.71704 0.57287 0.23317 0.0
N698 N 0.69979 0.55553 0.24366 0.0
C699 C 0.70688 0.5471 0.26285 0.0
C700 C 0.72986 0.55946 0.26404 0.0
C701 C 0.7587 0.59177 0.23563 0.0
H702 H 0.75916 0.59291 0.21376 0.0
H703 H 0.76372 0.60832 0.24404 0.0
H704 H 0.7708 0.58677 0.24211 0.0
O705 O 0.69912 0.56904 0.17529 0.0
O706 O 0.67029 0.53873 0.19115 0.0
H707 H 0.68532 0.51246 0.26937 0.0
H708 H 0.70066 0.52741 0.29836 0.0
C709 C 0.69186 0.52823 0.28047 0.0
H710 H 0.67771 0.5302 0.28679 0.0
H711 H 0.65753 0.49827 0.22217 0.0
O712 O 0.74021 0.61208 0.19163 0.0
C713 C 0.68277 0.54968 0.17199 0.0
Co714 Co 0.44956 0.06857 0.94776 0.0
Co715 Co 0.45145 0.11146 0.92593 0.0
C716 C 0.40922 0.06745 0.92499 0.0
O717 O 0.41851 0.05728 0.93499 0.0
O718 O 0.42009 0.08828 0.92067 0.0
C719 C 0.45116 0.02674 0.95169 0.0
O720 O 0.44218 0.02058 0.92812 0.0
C721 C 0.44735 0.14324 0.89107 0.0
C722 C 0.47545 0.17483 0.90543 0.0
C723 C 0.45842 0.16601 0.88706 0.0
N724 N 0.45745 0.13889 0.91093 0.0
N725 N 0.47412 0.15784 0.91952 0.0
C726 C 0.42882 0.1257 0.87503 0.0
H727 H 0.42968 0.11022 0.87519 0.0
H728 H 0.42949 0.1313 0.85432 0.0
H729 H 0.41276 0.12208 0.88388 0.0
C730 C 0.48706 0.08274 0.90982 0.0
N731 N 0.47082 0.08502 0.92131 0.0
N732 N 0.4709 0.10248 0.91125 0.0
C733 C 0.48661 0.11136 0.89232 0.0
C734 C 0.49745 0.09921 0.89088 0.0
C735 C 0.49401 0.06659 0.91862 0.0
H736 H 0.49279 0.06483 0.94042 0.0
H737 H 0.48295 0.05023 0.90944 0.0
H738 H 0.51135 0.07207 0.9127 0.0
O739 O 0.45531 0.08715 0.97906 0.0
O740 O 0.45695 0.11781 0.96419 0.0
H741 H 0.49925 0.146 0.88631 0.0
H742 H 0.50001 0.13148 0.85708 0.0
C743 C 0.49027 0.13032 0.87497 0.0
H744 H 0.47408 0.12816 0.86862 0.0
H745 H 0.48479 0.15912 0.93478 0.0
O746 O 0.45426 0.04482 0.96152 0.0
C747 C 0.45807 0.10635 0.98303 0.0
Co748 Co 0.92082 0.37995 0.94872 0.0
Co749 Co 0.87863 0.33656 0.92991 0.0
C750 C 0.92436 0.34112 0.93125 0.0
O751 O 0.9339 0.36114 0.93944 0.0
O752 O 0.90348 0.33015 0.92697 0.0
C753 C 0.96352 0.4216 0.95989 0.0
O754 O 0.97527 0.41271 0.95182 0.0
C755 C 0.8471 0.30024 0.89486 0.0
C756 C 0.81593 0.28934 0.91702 0.0
C757 C 0.82445 0.28508 0.89447 0.0
N758 N 0.85157 0.31289 0.91661 0.0
N759 N 0.83287 0.30626 0.9297 0.0
C760 C 0.86439 0.3021 0.87579 0.0
H761 H 0.88102 0.31053 0.88512 0.0
H762 H 0.86482 0.31213 0.85851 0.0
H763 H 0.86044 0.28545 0.86866 0.0
C764 C 0.90637 0.39893 0.90642 0.0
N765 N 0.90397 0.38145 0.92043 0.0
N766 N 0.88578 0.36353 0.91285 0.0
C767 C 0.87575 0.36913 0.89397 0.0
C768 C 0.88851 0.39177 0.88933 0.0
C769 C 0.92584 0.42188 0.90885 0.0
H770 H 0.92425 0.42956 0.92733 0.0
H771 H 0.94135 0.42109 0.91 0.0
H772 H 0.927 0.43241 0.89177 0.0
O773 O 0.90248 0.36841 0.98079 0.0
O774 O 0.87253 0.33794 0.96745 0.0
H775 H 0.8465 0.36235 0.87146 0.0
H776 H 0.85541 0.34215 0.86833 0.0
C777 C 0.85359 0.35345 0.88224 0.0
H778 H 0.84194 0.34329 0.8981 0.0
H779 H 0.83164 0.31331 0.94737 0.0
O780 O 0.94251 0.41039 0.95927 0.0
C781 C 0.88359 0.3517 0.98549 0.0
Co782 Co 0.61464 0.54226 0.9507 0.0
Co783 Co 0.65506 0.53979 0.92805 0.0
C784 C 0.65429 0.5825 0.9285 0.0
O785 O 0.63487 0.57333 0.93859 0.0
O786 O 0.66398 0.57144 0.92363 0.0
C787 C 0.57195 0.54193 0.95461 0.0
O788 O 0.57529 0.55127 0.93121 0.0
C789 C 0.69068 0.54362 0.893 0.0
C790 C 0.69349 0.51491 0.90656 0.0
C791 C 0.70206 0.53225 0.88862 0.0
N792 N 0.67608 0.53339 0.91266 0.0
N793 N 0.67794 0.51635 0.92076 0.0
C794 C 0.69218 0.56264 0.87754 0.0
H795 H 0.67592 0.56199 0.87753 0.0
H796 H 0.69741 0.56241 0.85686 0.0
H797 H 0.70458 0.5784 0.887 0.0
C798 C 0.59066 0.50533 0.91232 0.0
N799 N 0.60937 0.52139 0.92363 0.0
N800 N 0.62655 0.52108 0.91327 0.0
C801 C 0.61939 0.50532 0.89441 0.0
C802 C 0.59641 0.49476 0.89329 0.0
C803 C 0.56769 0.49856 0.92153 0.0
H804 H 0.5674 0.49968 0.94337 0.0
H805 H 0.56245 0.5098 0.91271 0.0
H806 H 0.55564 0.48132 0.91554 0.0
O807 O 0.62702 0.53541 0.98163 0.0
O808 O 0.65563 0.53337 0.96599 0.0
H809 H 0.64068 0.49179 0.88862 0.0
H810 H 0.62548 0.49123 0.8594 0.0
C811 C 0.63431 0.50102 0.87716 0.0
H812 H 0.64858 0.51696 0.87063 0.0
H813 H 0.66836 0.50552 0.9358 0.0
O814 O 0.58648 0.53816 0.96454 0.0
C815 C 0.64316 0.53204 0.98506 0.0
Co816 Co 0.59072 0.87525 0.78409 0.0
Co817 Co 0.54804 0.87413 0.7628 0.0
C818 C 0.59244 0.91614 0.76315 0.0
O819 O 0.60252 0.90652 0.77241 0.0
O820 O 0.5716 0.90549 0.75892 0.0
C821 C 0.63266 0.87406 0.78703 0.0
O822 O 0.63887 0.88393 0.76393 0.0
C823 C 0.5162 0.87852 0.72772 0.0
C824 C 0.48473 0.85547 0.74781 0.0
C825 C 0.49344 0.87006 0.7268 0.0
N826 N 0.52069 0.86921 0.74837 0.0
N827 N 0.50178 0.85539 0.76016 0.0
C828 C 0.53338 0.89585 0.71006 0.0
H829 H 0.54997 0.90371 0.71935 0.0
H830 H 0.5342 0.888 0.69133 0.0
H831 H 0.5289 0.90867 0.70519 0.0
C832 C 0.57625 0.83844 0.74523 0.0
N833 N 0.57421 0.85467 0.75704 0.0
N834 N 0.55668 0.85475 0.7474 0.0
C835 C 0.54735 0.83897 0.72865 0.0
C836 C 0.55944 0.82808 0.72668 0.0
C837 C 0.59248 0.8314 0.7535 0.0
H838 H 0.59414 0.83213 0.77533 0.0
H839 H 0.60888 0.84276 0.7446 0.0
H840 H 0.58713 0.81424 0.747 0.0
O841 O 0.57215 0.86898 0.8156 0.0
O842 O 0.54158 0.86754 0.80074 0.0
H843 H 0.51268 0.82755 0.72512 0.0
H844 H 0.52503 0.82394 0.69539 0.0
C845 C 0.5277 0.835 0.71244 0.0
H846 H 0.53027 0.85101 0.70483 0.0
H847 H 0.50054 0.84612 0.77694 0.0
O848 O 0.61438 0.87021 0.79704 0.0
C849 C 0.55285 0.866 0.81951 0.0
Co850 Co 0.11929 0.7102 0.78303 0.0
Co851 Co 0.11938 0.66891 0.75927 0.0
C852 C 0.0778 0.67151 0.76095 0.0
O853 O 0.08781 0.69081 0.77136 0.0
O854 O 0.08805 0.66112 0.75537 0.0
C855 C 0.12033 0.7531 0.78783 0.0
O856 O 0.10949 0.74933 0.7654 0.0
C857 C 0.11479 0.63294 0.72404 0.0
C858 C 0.14403 0.63067 0.73674 0.0
C859 C 0.12642 0.62188 0.71917 0.0
N860 N 0.1252 0.64762 0.74358 0.0
N861 N 0.14251 0.64603 0.7512 0.0
C862 C 0.09546 0.63119 0.709 0.0
H863 H 0.09552 0.64714 0.70974 0.0
H864 H 0.09586 0.62656 0.68808 0.0
H865 H 0.07987 0.61822 0.71823 0.0
C866 C 0.15569 0.7332 0.74392 0.0
N867 N 0.13952 0.71477 0.75554 0.0
N868 N 0.13854 0.69725 0.74437 0.0
C869 C 0.1533 0.70392 0.72438 0.0
C870 C 0.16484 0.72696 0.72356 0.0
C871 C 0.1637 0.7562 0.75394 0.0
H872 H 0.1628 0.75612 0.77583 0.0
H873 H 0.15301 0.76242 0.74584 0.0
H874 H 0.1811 0.76766 0.74793 0.0
O875 O 0.12585 0.69725 0.81349 0.0
O876 O 0.1258 0.66777 0.7972 0.0
H877 H 0.16499 0.68167 0.71459 0.0
H878 H 0.16326 0.69693 0.68665 0.0
C879 C 0.15517 0.68846 0.70537 0.0
H880 H 0.13843 0.67453 0.70065 0.0
H881 H 0.15355 0.65577 0.76598 0.0
O882 O 0.12467 0.73875 0.79701 0.0
C883 C 0.12811 0.68042 0.81647 0.0
Co884 Co 0.28109 0.40404 0.78065 0.0
Co885 Co 0.32232 0.44689 0.75873 0.0
C886 C 0.32028 0.4027 0.75846 0.0
O887 O 0.30079 0.39265 0.76835 0.0
O888 O 0.33034 0.42351 0.75394 0.0
C889 C 0.23783 0.36212 0.78437 0.0
O890 O 0.24085 0.35596 0.7609 0.0
C891 C 0.35912 0.47975 0.72492 0.0
C892 C 0.3625 0.51079 0.74111 0.0
C893 C 0.37114 0.50268 0.72243 0.0
N894 N 0.3439 0.47461 0.74409 0.0
N895 N 0.34607 0.49326 0.75364 0.0
C896 C 0.36273 0.46303 0.71054 0.0
H897 H 0.34952 0.45463 0.69545 0.0
H898 H 0.37918 0.47082 0.70075 0.0
H899 H 0.36158 0.45028 0.72454 0.0
C900 C 0.25807 0.41796 0.74209 0.0
N901 N 0.27652 0.42037 0.75387 0.0
N902 N 0.29395 0.43786 0.74389 0.0
C903 C 0.28719 0.44668 0.72482 0.0
C904 C 0.26423 0.43438 0.72311 0.0
C905 C 0.23491 0.40172 0.75063 0.0
H906 H 0.23418 0.40006 0.77245 0.0
H907 H 0.2298 0.38536 0.74161 0.0
H908 H 0.22303 0.40707 0.74435 0.0
O909 O 0.29371 0.42269 0.81193 0.0
O910 O 0.32283 0.45318 0.79693 0.0
H911 H 0.30906 0.48141 0.71938 0.0
H912 H 0.29404 0.46715 0.68989 0.0
C913 C 0.30254 0.46587 0.7078 0.0
H914 H 0.31673 0.46391 0.70156 0.0
H915 H 0.33633 0.49399 0.76886 0.0
O916 O 0.25263 0.38029 0.79421 0.0
C917 C 0.31016 0.44189 0.81579 0.0
Co918 Co 0.54282 0.92506 0.0391 0.0
Co919 Co 0.54174 0.8835 0.0643 0.0
C920 C 0.58364 0.92754 0.06296 0.0
O921 O 0.57397 0.9369 0.0518 0.0
O922 O 0.57313 0.90696 0.0688 0.0
C923 C 0.54109 0.96648 0.03335 0.0
O924 O 0.5501 0.97289 0.05686 0.0
C925 C 0.54573 0.852 0.10024 0.0
C926 C 0.51632 0.82066 0.08767 0.0
C927 C 0.53395 0.82934 0.1052 0.0
N928 N 0.5354 0.85639 0.08066 0.0
N929 N 0.51795 0.83757 0.07317 0.0
C930 C 0.5653 0.86945 0.11503 0.0
H931 H 0.56515 0.88531 0.11477 0.0
H932 H 0.56531 0.86428 0.13579 0.0
H933 H 0.58073 0.8722 0.1052 0.0
C934 C 0.50552 0.91211 0.07689 0.0
N935 N 0.52192 0.90968 0.06618 0.0
N936 N 0.52232 0.89295 0.07774 0.0
C937 C 0.5068 0.8848 0.09692 0.0
C938 C 0.49556 0.89658 0.09688 0.0
C939 C 0.49796 0.92735 0.0664 0.0
H940 H 0.49933 0.92827 0.04455 0.0
H941 H 0.50853 0.94414 0.0748 0.0
H942 H 0.48047 0.92156 0.07189 0.0
O943 O 0.53677 0.90522 0.00908 0.0
O944 O 0.53604 0.87569 0.0264 0.0
H945 H 0.49398 0.85056 0.10597 0.0
H946 H 0.49466 0.86704 0.13388 0.0
C947 C 0.50363 0.8669 0.11581 0.0
H948 H 0.51997 0.86918 0.12172 0.0
H949 H 0.50697 0.83634 0.05832 0.0
O950 O 0.53799 0.9483 0.02387 0.0
C951 C 0.53431 0.886 0.00666 0.0
Co952 Co 0.07494 0.61758 0.04315 0.0
Co953 Co 0.1182 0.66058 0.06041 0.0
C954 C 0.07262 0.65672 0.06141 0.0
O955 O 0.06242 0.63664 0.05344 0.0
O956 O 0.09366 0.66735 0.06452 0.0
C957 C 0.03184 0.57604 0.03237 0.0
O958 O 0.02013 0.58504 0.04025 0.0
C959 C 0.14988 0.69623 0.09586 0.0
C960 C 0.18084 0.70845 0.07285 0.0
C961 C 0.17241 0.71182 0.09608 0.0
N962 N 0.14539 0.6842 0.07357 0.0
N963 N 0.16398 0.6916 0.05997 0.0
C964 C 0.13267 0.69343 0.11564 0.0
H965 H 0.11588 0.68458 0.10677 0.0
H966 H 0.13298 0.68341 0.13252 0.0
H967 H 0.13613 0.7098 0.12328 0.0
C968 C 0.08981 0.59838 0.08461 0.0
N969 N 0.09231 0.6159 0.07064 0.0
N970 N 0.11103 0.63359 0.07744 0.0
C971 C 0.12131 0.62776 0.0957 0.0
C972 C 0.10817 0.60522 0.10078 0.0
C973 C 0.06978 0.57572 0.08307 0.0
H974 H 0.07063 0.56741 0.06474 0.0
H975 H 0.05459 0.57709 0.08223 0.0
H976 H 0.06864 0.56542 0.10039 0.0
O977 O 0.09258 0.62881 0.01055 0.0
O978 O 0.12352 0.65889 0.02258 0.0
H979 H 0.15129 0.63377 0.11586 0.0
H980 H 0.1429 0.65413 0.12136 0.0
C981 C 0.14399 0.64305 0.10644 0.0
H982 H 0.15506 0.65345 0.09028 0.0
H983 H 0.16515 0.68516 0.04179 0.0
O984 O 0.05284 0.58717 0.033 0.0
C985 C 0.11158 0.64504 0.00501 0.0
Co986 Co 0.37853 0.45124 0.03886 0.0
Co987 Co 0.33759 0.45312 0.06081 0.0
C988 C 0.33936 0.41093 0.06187 0.0
O989 O 0.35876 0.42028 0.05169 0.0
O990 O 0.3293 0.4217 0.06629 0.0
C991 C 0.42166 0.45241 0.03567 0.0
O992 O 0.41836 0.44327 0.0592 0.0
C993 C 0.3016 0.44957 0.09513 0.0
C994 C 0.29884 0.47804 0.08048 0.0
C995 C 0.29019 0.461 0.09882 0.0
N996 N 0.3163 0.45949 0.07547 0.0
N997 N 0.31445 0.47638 0.06671 0.0
C998 C 0.30004 0.43082 0.11124 0.0
H999 H 0.31627 0.43141 0.11152 0.0
H1000 H 0.29481 0.43147 0.1318 0.0
H1001 H 0.2876 0.41491 0.10213 0.0
C1002 C 0.40193 0.48878 0.07659 0.0
N1003 N 0.38338 0.47245 0.06531 0.0
N1004 N 0.36601 0.47255 0.07542 0.0
C1005 C 0.3729 0.48843 0.09413 0.0
C1006 C 0.39589 0.49929 0.09539 0.0
C1007 C 0.42501 0.49576 0.06765 0.0
H1008 H 0.42543 0.49443 0.04584 0.0
H1009 H 0.43043 0.48479 0.07684 0.0
H1010 H 0.43685 0.51311 0.07343 0.0
O1011 O 0.36588 0.45714 0.00746 0.0
O1012 O 0.33685 0.45864 0.02258 0.0
H1013 H 0.35115 0.50144 0.09966 0.0
H1014 H 0.36638 0.50234 0.12899 0.0
C1015 C 0.35771 0.49244 0.11123 0.0
H1016 H 0.34359 0.4764 0.11776 0.0
H1017 H 0.32411 0.48697 0.05154 0.0
O1018 O 0.40695 0.45574 0.02542 0.0
C1019 C 0.34943 0.45993 0.00366 0.0
Co1020 Co 0.075 0.45703 0.5322 0.0
Co1021 Co 0.11549 0.45625 0.55782 0.0
C1022 C 0.07155 0.41484 0.55308 0.0
O1023 O 0.06301 0.42538 0.54219 0.0
O1024 O 0.09184 0.42469 0.56034 0.0
C1025 C 0.03313 0.45762 0.5274 0.0
O1026 O 0.02652 0.44664 0.54979 0.0
C1027 C 0.14597 0.45105 0.59423 0.0
C1028 C 0.17777 0.48045 0.58281 0.0
C1029 C 0.16853 0.46258 0.59996 0.0
N1030 N 0.14218 0.46178 0.57462 0.0
N1031 N 0.16127 0.4792 0.56778 0.0
C1032 C 0.12805 0.43141 0.60844 0.0
H1033 H 0.11218 0.43154 0.60729 0.0
H1034 H 0.13257 0.43132 0.62947 0.0
H1035 H 0.12565 0.41605 0.59882 0.0
C1036 C 0.08642 0.49169 0.57306 0.0
N1037 N 0.08934 0.47608 0.56104 0.0
N1038 N 0.10577 0.47507 0.57257 0.0
C1039 C 0.11334 0.48953 0.5929 0.0
C1040 C 0.10138 0.50057 0.59378 0.0
C1041 C 0.07123 0.49958 0.56329 0.0
H1042 H 0.07102 0.49963 0.54138 0.0
H1043 H 0.05421 0.48828 0.57065 0.0
H1044 H 0.07653 0.51658 0.5704 0.0
O1045 O 0.09574 0.465 0.50284 0.0
O1046 O 0.12423 0.46371 0.5203 0.0
H1047 H 0.14743 0.50151 0.60214 0.0
H1048 H 0.13094 0.50076 0.63011 0.0
C1049 C 0.13099 0.492 0.61181 0.0
H1050 H 0.12829 0.47543 0.61727 0.0
H1051 H 0.16294 0.49048 0.55311 0.0
O1052 O 0.05181 0.46231 0.51781 0.0
C1053 C 0.11483 0.46707 0.50074 0.0
Co1054 Co 0.5384 0.61706 0.53911 0.0
Co1055 Co 0.53695 0.6585 0.56003 0.0
C1056 C 0.57911 0.65574 0.56052 0.0
O1057 O 0.56961 0.63618 0.55088 0.0
O1058 O 0.56841 0.66594 0.56471 0.0
C1059 C 0.53898 0.57481 0.53081 0.0
O1060 O 0.55419 0.57998 0.54913 0.0
C1061 C 0.5415 0.69306 0.59714 0.0
C1062 C 0.51708 0.70131 0.58062 0.0
C1063 C 0.53218 0.70642 0.60098 0.0
N1064 N 0.53226 0.68064 0.5755 0.0
N1065 N 0.51781 0.68576 0.56562 0.0
C1066 C 0.55766 0.69084 0.61456 0.0
H1067 H 0.55523 0.67387 0.61298 0.0
H1068 H 0.55576 0.69448 0.63546 0.0
H1069 H 0.57477 0.70279 0.60797 0.0
C1070 C 0.50338 0.59489 0.57955 0.0
N1071 N 0.51833 0.61312 0.56649 0.0
N1072 N 0.51727 0.63039 0.57511 0.0
C1073 C 0.50148 0.62364 0.59393 0.0
C1074 C 0.49215 0.60091 0.59732 0.0
C1075 C 0.50086 0.57241 0.57599 0.0
H1076 H 0.49431 0.56616 0.55589 0.0
H1077 H 0.51735 0.57373 0.57778 0.0
H1078 H 0.48963 0.56039 0.59095 0.0
O1079 O 0.53232 0.62989 0.50782 0.0
O1080 O 0.53078 0.6591 0.52211 0.0
H1081 H 0.49125 0.6479 0.59218 0.0
H1082 H 0.47959 0.62902 0.61958 0.0
C1083 C 0.49467 0.63848 0.6073 0.0
H1084 H 0.50845 0.6505 0.61999 0.0
H1085 H 0.50819 0.67838 0.54884 0.0
O1086 O 0.53188 0.58797 0.52556 0.0
C1087 C 0.52942 0.64622 0.50353 0.0
Co1088 Co 0.37993 0.92075 0.53915 0.0
Co1089 Co 0.33881 0.87946 0.56421 0.0
C1090 C 0.34151 0.92397 0.56031 0.0
O1091 O 0.36076 0.93317 0.54974 0.0
O1092 O 0.33129 0.90348 0.56668 0.0
C1093 C 0.42171 0.96327 0.52967 0.0
O1094 O 0.41661 0.97297 0.54847 0.0
C1095 C 0.29942 0.84724 0.59543 0.0
C1096 C 0.30377 0.81796 0.59282 0.0
C1097 C 0.29032 0.82529 0.60372 0.0
N1098 N 0.31771 0.85259 0.58107 0.0
N1099 N 0.3199 0.83487 0.57921 0.0
C1100 C 0.28987 0.86217 0.59849 0.0
H1101 H 0.29393 0.87301 0.58094 0.0
H1102 H 0.29717 0.87276 0.61622 0.0
H1103 H 0.27157 0.8525 0.60053 0.0
C1104 C 0.4033 0.91037 0.58058 0.0
N1105 N 0.38464 0.90636 0.5679 0.0
N1106 N 0.36745 0.8895 0.57921 0.0
C1107 C 0.37466 0.88274 0.6001 0.0
C1108 C 0.39758 0.89559 0.60136 0.0
C1109 C 0.42606 0.92864 0.57355 0.0
H1110 H 0.42952 0.92712 0.55247 0.0
H1111 H 0.4268 0.94477 0.5763 0.0
H1112 H 0.43904 0.92846 0.58609 0.0
O1113 O 0.36659 0.90017 0.50964 0.0
O1114 O 0.3375 0.87084 0.52675 0.0
H1115 H 0.35621 0.84816 0.6088 0.0
H1116 H 0.36815 0.86512 0.63737 0.0
C1117 C 0.36001 0.86405 0.61818 0.0
H1118 H 0.34433 0.86407 0.62187 0.0
H1119 H 0.33258 0.83441 0.56873 0.0
O1120 O 0.40859 0.94306 0.52423 0.0
C1121 C 0.34993 0.88088 0.50721 0.0
Co1122 Co 0.12119 0.40626 0.28072 0.0
Co1123 Co 0.12269 0.44896 0.25865 0.0
C1124 C 0.08019 0.40523 0.26037 0.0
O1125 O 0.08983 0.39527 0.26996 0.0
O1126 O 0.09089 0.42595 0.25526 0.0
C1127 C 0.12121 0.36363 0.28477 0.0
O1128 O 0.11076 0.35682 0.26207 0.0
C1129 C 0.11966 0.48277 0.22538 0.0
C1130 C 0.14806 0.51312 0.24188 0.0
C1131 C 0.13131 0.50575 0.22324 0.0
N1132 N 0.12934 0.47691 0.24433 0.0
N1133 N 0.14625 0.49516 0.25405 0.0
C1134 C 0.09924 0.46675 0.21059 0.0
H1135 H 0.08879 0.45197 0.22284 0.0
H1136 H 0.10417 0.46122 0.19254 0.0
H1137 H 0.08942 0.47462 0.20463 0.0
C1138 C 0.15655 0.41886 0.24037 0.0
N1139 N 0.14108 0.42176 0.25284 0.0
N1140 N 0.14107 0.4392 0.24283 0.0
C1141 C 0.15607 0.44756 0.2231 0.0
C1142 C 0.16642 0.43498 0.22096 0.0
C1143 C 0.16331 0.40244 0.24863 0.0
H1144 H 0.16322 0.40127 0.2705 0.0
H1145 H 0.15138 0.38594 0.24041 0.0
H1146 H 0.18017 0.40722 0.24141 0.0
O1147 O 0.12893 0.42548 0.3117 0.0
O1148 O 0.13006 0.45575 0.29643 0.0
H1149 H 0.16924 0.4823 0.2173 0.0
H1150 H 0.16897 0.46758 0.18774 0.0
C1151 C 0.15974 0.46665 0.20602 0.0
H1152 H 0.14353 0.46486 0.20041 0.0
H1153 H 0.15659 0.49533 0.26912 0.0
O1154 O 0.12573 0.38236 0.29395 0.0
C1155 C 0.1322 0.4449 0.31524 0.0
Co1156 Co 0.58883 0.71121 0.28177 0.0
Co1157 Co 0.54675 0.67077 0.25773 0.0
C1158 C 0.59073 0.67246 0.25895 0.0
O1159 O 0.60039 0.69166 0.26957 0.0
O1160 O 0.57006 0.66248 0.2535 0.0
C1161 C 0.63108 0.75345 0.28661 0.0
O1162 O 0.63744 0.74966 0.26369 0.0
C1163 C 0.51594 0.63544 0.22156 0.0
C1164 C 0.48398 0.63203 0.23433 0.0
C1165 C 0.49328 0.62387 0.21656 0.0
N1166 N 0.51975 0.64974 0.24141 0.0
N1167 N 0.50058 0.64752 0.24903 0.0
C1168 C 0.53391 0.63438 0.20655 0.0
H1169 H 0.54936 0.65075 0.20693 0.0
H1170 H 0.52885 0.62929 0.18574 0.0
H1171 H 0.53737 0.62208 0.2161 0.0
C1172 C 0.57637 0.73537 0.24321 0.0
N1173 N 0.57354 0.71659 0.25446 0.0
N1174 N 0.55633 0.69948 0.24357 0.0
C1175 C 0.54808 0.70682 0.22444 0.0
C1176 C 0.56048 0.7298 0.22365 0.0
C1177 C 0.59245 0.75823 0.25278 0.0
H1178 H 0.59337 0.75838 0.27467 0.0
H1179 H 0.60911 0.76341 0.24456 0.0
H1180 H 0.58749 0.7704 0.2465 0.0
O1181 O 0.56914 0.6981 0.31214 0.0
O1182 O 0.5391 0.66932 0.29567 0.0
H1183 H 0.51345 0.68535 0.21759 0.0
H1184 H 0.52856 0.70109 0.18888 0.0
C1185 C 0.52929 0.69205 0.20657 0.0
H1186 H 0.53129 0.67799 0.19996 0.0
H1187 H 0.49889 0.6568 0.2641 0.0
O1188 O 0.61248 0.7393 0.29619 0.0
C1189 C 0.54978 0.68163 0.31507 0.0
Co1190 Co 0.28409 0.87442 0.28489 0.0
Co1191 Co 0.32619 0.87432 0.26381 0.0
C1192 C 0.32271 0.91596 0.26461 0.0
O1193 O 0.30307 0.90598 0.2741 0.0
O1194 O 0.33325 0.90567 0.25998 0.0
C1195 C 0.24154 0.87445 0.29254 0.0
O1196 O 0.24717 0.89021 0.27487 0.0
C1197 C 0.36108 0.87918 0.2269 0.0
C1198 C 0.36963 0.85517 0.244 0.0
C1199 C 0.37453 0.86992 0.22331 0.0
N1200 N 0.34877 0.87018 0.24869 0.0
N1201 N 0.35411 0.85601 0.25893 0.0
C1202 C 0.35856 0.89492 0.20905 0.0
H1203 H 0.34175 0.89284 0.21121 0.0
H1204 H 0.36147 0.89224 0.18813 0.0
H1205 H 0.37094 0.91216 0.21469 0.0
C1206 C 0.26282 0.84019 0.24337 0.0
N1207 N 0.28081 0.85508 0.25687 0.0
N1208 N 0.29841 0.8547 0.24809 0.0
C1209 C 0.29214 0.83944 0.22869 0.0
C1210 C 0.26939 0.82976 0.22511 0.0
C1211 C 0.24006 0.83697 0.247 0.0
H1212 H 0.24087 0.85323 0.24531 0.0
H1213 H 0.2282 0.82559 0.23203 0.0
H1214 H 0.23393 0.83027 0.26708 0.0
O1215 O 0.29659 0.86776 0.31612 0.0
O1216 O 0.32626 0.86729 0.30143 0.0
H1217 H 0.3172 0.83022 0.22961 0.0
H1218 H 0.29827 0.81856 0.20222 0.0
C1219 C 0.30744 0.83349 0.21481 0.0
H1220 H 0.31912 0.84761 0.20229 0.0
H1221 H 0.3468 0.84656 0.27585 0.0
O1222 O 0.25462 0.86726 0.29784 0.0
C1223 C 0.31312 0.86511 0.32007 0.0
H1224 H 0.18084 0.23018 0.29742 0.0
H1225 H 0.22641 0.18074 0.19187 0.0
H1226 H 0.20546 0.18637 0.31876 0.0
H1227 H 0.18175 0.20458 0.17148 0.0
H1228 H 0.21684 0.18026 0.23838 0.0
H1229 H 0.17876 0.21892 0.25136 0.0
C1230 C 0.18558 0.21799 0.29242 0.0
C1231 C 0.19369 0.20945 0.31181 0.0
C1232 C 0.20884 0.18523 0.22371 0.0
C1233 C 0.19154 0.19666 0.25915 0.0
C1234 C 0.21437 0.18562 0.19717 0.0
C1235 C 0.20513 0.19309 0.17788 0.0
C1236 C 0.1943 0.19278 0.23103 0.0
C1237 C 0.18939 0.1989 0.18577 0.0
C1238 C 0.18427 0.21148 0.26615 0.0
C1239 C 0.19929 0.19348 0.30435 0.0
N1240 N 0.18478 0.19903 0.21185 0.0
N1241 N 0.19851 0.18789 0.27847 0.0
H1242 H 0.81389 0.04672 0.19084 0.0
H1243 H 0.7652 0.94909 0.29272 0.0
H1244 H 0.79082 0.97903 0.16745 0.0
H1245 H 0.80943 0.01683 0.31626 0.0
H1246 H 0.77625 0.9595 0.2468 0.0
H1247 H 0.81456 0.0364 0.23681 0.0
C1248 C 0.80922 0.02973 0.19537 0.0
C1249 C 0.80193 0.0136 0.17541 0.0
C1250 C 0.78383 0.97202 0.26204 0.0
C1251 C 0.80244 0.00167 0.22792 0.0
C1252 C 0.77743 0.96612 0.28823 0.0
C1253 C 0.78615 0.98222 0.30821 0.0
C1254 C 0.79869 0.99425 0.25575 0.0
C1255 C 0.80217 0.00395 0.30139 0.0
C1256 C 0.80972 0.02388 0.22159 0.0
C1257 C 0.79637 0.99192 0.18229 0.0
N1258 N 0.80764 0.00944 0.2756 0.0
N1259 N 0.79634 0.98648 0.20809 0.0
H1260 H 0.0437 0.81687 0.29648 0.0
H1261 H 0.94848 0.76332 0.19193 0.0
H1262 H 0.97481 0.78936 0.31773 0.0
H1263 H 0.01611 0.81007 0.17027 0.0
H1264 H 0.95734 0.77504 0.2379 0.0
H1265 H 0.03403 0.81737 0.25023 0.0
C1266 C 0.02656 0.81121 0.29141 0.0
C1267 C 0.00994 0.80267 0.31081 0.0
C1268 C 0.97016 0.78301 0.22305 0.0
C1269 C -0.00126 0.80295 0.25798 0.0
C1270 C 0.96515 0.77623 0.19684 0.0
C1271 C 0.98172 0.78545 0.1774 0.0
C1272 C 0.99198 0.79881 0.22993 0.0
C1273 C 0.00292 0.80237 0.18473 0.0
C1274 C 0.02106 0.8116 0.26503 0.0
C1275 C 0.98808 0.79588 0.30329 0.0
N1276 N 0.00758 0.80822 0.21055 0.0
N1277 N 0.98301 0.79573 0.27732 0.0
H1278 H 0.81024 0.76262 0.69242 0.0
H1279 H 0.76584 0.81363 0.79693 0.0
H1280 H 0.78765 0.80802 0.67071 0.0
H1281 H 0.80869 0.78785 0.81829 0.0
H1282 H 0.77622 0.81451 0.75071 0.0
H1283 H 0.81258 0.77408 0.73843 0.0
C1284 C 0.806 0.7752 0.69733 0.0
C1285 C 0.79833 0.7841 0.67786 0.0
C1286 C 0.78368 0.80903 0.76553 0.0
C1287 C 0.8008 0.79713 0.73045 0.0
C1288 C 0.77767 0.80841 0.79189 0.0
C1289 C 0.78612 0.80027 0.81133 0.0
C1290 C 0.79787 0.80099 0.75851 0.0
C1291 C 0.80164 0.79405 0.80384 0.0
C1292 C 0.80747 0.78183 0.72357 0.0
C1293 C 0.79343 0.80059 0.68519 0.0
N1294 N 0.8067 0.79412 0.77787 0.0
N1295 N 0.79433 0.80628 0.71104 0.0
H1296 H 0.18288 0.94918 0.79302 0.0
H1297 H 0.23196 0.04529 0.68939 0.0
H1298 H 0.20249 0.01663 0.814 0.0
H1299 H 0.18911 0.97719 0.66617 0.0
H1300 H 0.2199 0.03517 0.73509 0.0
H1301 H 0.18324 0.95861 0.74643 0.0
C1302 C 0.18701 0.96591 0.78783 0.0
C1303 C 0.19306 0.98227 0.80733 0.0
C1304 C 0.21285 0.02249 0.71995 0.0
C1305 C 0.19368 0.99315 0.75419 0.0
C1306 C 0.21983 0.02823 0.69391 0.0
C1307 C 0.21175 0.01196 0.67413 0.0
C1308 C 0.19808 0.00025 0.7263 0.0
C1309 C 0.19584 0.99018 0.68093 0.0
C1310 C 0.18709 0.97124 0.76126 0.0
C1311 C 0.19795 0.00358 0.79957 0.0
N1312 N 0.18981 0.98485 0.70661 0.0
N1313 N 0.19855 0.00852 0.77352 0.0
H1314 H 0.99403 0.1865 0.67065 0.0
H1315 H 0.00574 0.25032 0.80002 0.0
H1316 H 0.95374 0.21672 0.68411 0.0
H1317 H -0.00129 0.18542 0.80769 0.0
H1318 H 0.99253 0.24158 0.7544 0.0
H1319 H 0.00121 0.18826 0.71853 0.0
C1320 C 0.98652 0.19325 0.68367 0.0
C1321 C 0.97341 0.20164 0.67343 0.0
C1322 C 0.99379 0.22923 0.76613 0.0
C1323 C 0.98183 0.20398 0.72755 0.0
C1324 C 0.00143 0.23423 0.79198 0.0
C1325 C 0.00329 0.21853 0.80739 0.0
C1326 C 0.98861 0.20866 0.7554 0.0
C1327 C -0.00262 0.19786 0.79627 0.0
C1328 C 0.99052 0.19412 0.71086 0.0
C1329 C 0.96396 0.2101 0.69113 0.0
N1330 N 0.99058 0.19357 0.7706 0.0
N1331 N 0.96872 0.21146 0.71728 0.0
H1332 H 0.84826 0.56445 0.63158 0.0
H1333 H 0.89804 0.51888 0.52725 0.0
H1334 H 0.87088 0.51894 0.65264 0.0
H1335 H 0.85357 0.54254 0.50509 0.0
H1336 H 0.88627 0.51653 0.57313 0.0
H1337 H 0.84768 0.55459 0.58518 0.0
C1338 C 0.85285 0.55217 0.62644 0.0
C1339 C 0.86004 0.54279 0.64586 0.0
C1340 C 0.87879 0.52188 0.55819 0.0
C1341 C 0.85961 0.53162 0.59289 0.0
C1342 C 0.88561 0.52336 0.53204 0.0
C1343 C 0.87703 0.5313 0.5125 0.0
C1344 C 0.86366 0.52883 0.5649 0.0
C1345 C 0.86073 0.53653 0.51965 0.0
C1346 C 0.85239 0.54646 0.59998 0.0
C1347 C 0.86545 0.52672 0.63822 0.0
N1348 N 0.85486 0.53562 0.54543 0.0
N1349 N 0.86555 0.52195 0.6122 0.0
H1350 H 0.4576 0.31123 0.50404 0.0
H1351 H 0.476 0.3532 0.6538 0.0
H1352 H 0.47662 0.37809 0.5272 0.0
H1353 H 0.43442 0.28497 0.6302 0.0
H1354 H 0.4868 0.36307 0.60745 0.0
H1355 H 0.45962 0.30233 0.55044 0.0
C1356 C 0.46253 0.32412 0.51881 0.0
C1357 C 0.46649 0.34529 0.51189 0.0
C1358 C 0.47559 0.3459 0.61257 0.0
C1359 C 0.46898 0.33528 0.56471 0.0
C1360 C 0.46949 0.34026 0.63895 0.0
C1361 C 0.45397 0.31833 0.64566 0.0
C1362 C 0.46629 0.32943 0.59301 0.0
C1363 C 0.4461 0.30216 0.62573 0.0
C1364 C 0.46365 0.31902 0.54523 0.0
C1365 C 0.47299 0.36142 0.53178 0.0
N1366 N 0.45221 0.30807 0.60023 0.0
N1367 N 0.47385 0.35602 0.55736 0.0
H1368 H 0.6451 0.125 0.65088 0.0
H1369 H 0.68757 0.13979 0.50154 0.0
H1370 H 0.71193 0.1423 0.62945 0.0
H1371 H 0.61935 0.09789 0.52518 0.0
H1372 H 0.69739 0.15086 0.54785 0.0
H1373 H 0.63653 0.12538 0.60405 0.0
C1374 C 0.65808 0.12922 0.63639 0.0
C1375 C 0.67915 0.13322 0.644 0.0
C1376 C 0.68024 0.13949 0.54274 0.0
C1377 C 0.66945 0.13378 0.59061 0.0
C1378 C 0.67462 0.13323 0.5164 0.0
C1379 C 0.65269 0.11764 0.50968 0.0
C1380 C 0.66374 0.13033 0.56228 0.0
C1381 C 0.63653 0.10967 0.52963 0.0
C1382 C 0.65314 0.12938 0.6097 0.0
C1383 C 0.69536 0.13874 0.62438 0.0
N1384 N 0.6424 0.11602 0.55509 0.0
N1385 N 0.69011 0.13868 0.59851 0.0
H1386 H 0.47955 0.12888 0.15263 0.0
H1387 H 0.475 0.09431 0.02412 0.0
H1388 H 0.42324 0.13479 0.12811 0.0
H1389 H 0.44912 0.1373 0.004 0.0
H1390 H 0.47658 0.1047 0.07036 0.0
H1391 H 0.48919 0.12879 0.10621 0.0
C1392 C 0.46928 0.13028 0.13752 0.0
C1393 C 0.45023 0.13129 0.14424 0.0
C1394 C 0.47116 0.11239 0.05581 0.0
C1395 C 0.46097 0.1308 0.09121 0.0
C1396 C 0.47 0.10626 0.02943 0.0
C1397 C 0.46176 0.11485 0.0103 0.0
C1398 C 0.46376 0.12704 0.06316 0.0
C1399 C 0.45558 0.13032 0.01819 0.0
C1400 C 0.47471 0.13006 0.11104 0.0
C1401 C 0.4378 0.13351 0.12382 0.0
N1402 N 0.45627 0.13559 0.04419 0.0
N1403 N 0.44329 0.133 0.09817 0.0
H1404 H 0.87427 0.35607 0.15474 0.0
H1405 H 0.8495 0.3133 0.00554 0.0
H1406 H 0.8492 0.288 0.13145 0.0
H1407 H 0.89822 0.38021 0.02757 0.0
H1408 H 0.83927 0.30485 0.05208 0.0
H1409 H 0.87302 0.36566 0.10836 0.0
C1410 C 0.86814 0.3431 0.13994 0.0
C1411 C 0.86222 0.3213 0.14675 0.0
C1412 C 0.85196 0.32145 0.0466 0.0
C1413 C 0.86057 0.33209 0.09411 0.0
C1414 C 0.8578 0.32631 0.02009 0.0
C1415 C 0.87507 0.34736 0.01279 0.0
C1416 C 0.86332 0.3378 0.06581 0.0
C1417 C 0.88511 0.36364 0.03243 0.0
C1418 C 0.86748 0.34859 0.11356 0.0
C1419 C 0.8543 0.30509 0.1269 0.0
N1420 N 0.87923 0.35845 0.05815 0.0
N1421 N 0.85385 0.31084 0.10139 0.0
H1422 H 0.61484 0.51629 0.027 0.0
H1423 H 0.71103 0.56102 0.13017 0.0
H1424 H 0.68244 0.53785 0.00441 0.0
H1425 H 0.64272 0.5178 0.15247 0.0
H1426 H 0.70111 0.55029 0.08409 0.0
H1427 H 0.62434 0.5141 0.07291 0.0
C1428 C 0.63164 0.52032 0.03169 0.0
C1429 C 0.648 0.52767 0.01201 0.0
C1430 C 0.68835 0.54283 0.09909 0.0
C1431 C 0.659 0.52537 0.06445 0.0
C1432 C 0.69398 0.54903 0.12537 0.0
C1433 C 0.67756 0.54057 0.14502 0.0
C1434 C 0.66608 0.52845 0.09239 0.0
C1435 C 0.65582 0.52486 0.13784 0.0
C1436 C 0.63701 0.51893 0.05787 0.0
C1437 C 0.6694 0.53233 0.01906 0.0
N1438 N 0.65059 0.51962 0.11196 0.0
N1439 N 0.67441 0.53152 0.04485 0.0
H1440 H 0.54375 0.85454 0.98873 0.0
H1441 H 0.51841 0.87026 0.83871 0.0
H1442 H 0.5163 0.89526 0.96419 0.0
H1443 H 0.56719 0.85248 0.86209 0.0
H1444 H 0.50774 0.8686 0.88514 0.0
H1445 H 0.54249 0.84301 0.94264 0.0
C1446 C 0.53708 0.86071 0.97373 0.0
C1447 C 0.53053 0.8762 0.98008 0.0
C1448 C 0.52055 0.86475 0.87997 0.0
C1449 C 0.52891 0.86303 0.92774 0.0
C1450 C 0.52662 0.86566 0.85354 0.0
C1451 C 0.54403 0.86198 0.84667 0.0
C1452 C 0.53184 0.85992 0.89952 0.0
C1453 C 0.55399 0.8559 0.86663 0.0
C1454 C 0.53643 0.85418 0.94751 0.0
C1455 C 0.52193 0.88362 0.95998 0.0
N1456 N 0.54789 0.85527 0.89223 0.0
N1457 N 0.52154 0.87711 0.93464 0.0
H1458 H 0.09491 0.61558 0.964 0.0
H1459 H 0.14844 0.70897 0.8572 0.0
H1460 H 0.14575 0.68242 0.98303 0.0
H1461 H 0.11695 0.63966 0.83657 0.0
H1462 H 0.14994 0.69939 0.90323 0.0
H1463 H 0.10464 0.62334 0.91731 0.0
C1464 C 0.10829 0.63182 0.95838 0.0
C1465 C 0.11925 0.64853 0.97734 0.0
C1466 C 0.14305 0.68628 0.88861 0.0
C1467 C 0.13035 0.65751 0.92403 0.0
C1468 C 0.1421 0.69173 0.86237 0.0
C1469 C 0.13222 0.67502 0.84323 0.0
C1470 C 0.1336 0.66391 0.89584 0.0
C1471 C 0.12455 0.653 0.85083 0.0
C1472 C 0.11392 0.63618 0.93175 0.0
C1473 C 0.13668 0.66914 0.96903 0.0
N1474 N 0.12497 0.64801 0.87672 0.0
N1475 N 0.14142 0.67318 0.94289 0.0
H1476 H 0.37773 0.47558 0.9617 0.0
H1477 H 0.28176 0.42938 0.85764 0.0
H1478 H 0.30977 0.45275 0.98383 0.0
H1479 H 0.34998 0.47373 0.8359 0.0
H1480 H 0.29142 0.4396 0.9039 0.0
H1481 H 0.36816 0.47707 0.91562 0.0
C1482 C 0.36083 0.47109 0.95686 0.0
C1483 C 0.34441 0.46366 0.97649 0.0
C1484 C 0.30421 0.44739 0.88898 0.0
C1485 C 0.33334 0.46516 0.92385 0.0
C1486 C 0.29874 0.44148 0.8626 0.0
C1487 C 0.3152 0.45046 0.84303 0.0
C1488 C 0.32638 0.46202 0.89586 0.0
C1489 C 0.33684 0.46629 0.85044 0.0
C1490 C 0.35541 0.47208 0.93059 0.0
C1491 C 0.32287 0.45839 0.96924 0.0
N1492 N 0.34192 0.47127 0.8764 0.0
N1493 N 0.31784 0.45884 0.94337 0.0
H1494 H 0.1476 0.43165 0.35699 0.0
H1495 H 0.10769 0.48784 0.45951 0.0
H1496 H 0.12887 0.47987 0.33443 0.0
H1497 H 0.14546 0.4567 0.48221 0.0
H1498 H 0.1194 0.48907 0.41383 0.0
H1499 H 0.15107 0.44399 0.40273 0.0
C1500 C 0.14446 0.44502 0.36164 0.0
C1501 C 0.13744 0.45442 0.34204 0.0
C1502 C 0.12551 0.48236 0.42883 0.0
C1503 C 0.14125 0.46851 0.39432 0.0
C1504 C 0.11875 0.48157 0.45489 0.0
C1505 C 0.12525 0.47172 0.47447 0.0
C1506 C 0.13845 0.47276 0.42227 0.0
C1507 C 0.13989 0.46421 0.46759 0.0
C1508 C 0.14659 0.45216 0.38773 0.0
C1509 C 0.13402 0.47196 0.34903 0.0
N1510 N 0.14561 0.46442 0.44187 0.0
N1511 N 0.13553 0.47816 0.37474 0.0
H1512 H 0.53526 0.68522 0.48317 0.0
H1513 H 0.51763 0.64147 0.33414 0.0
H1514 H 0.51509 0.61775 0.46162 0.0
H1515 H 0.56036 0.70972 0.35691 0.0
H1516 H 0.50636 0.63226 0.38049 0.0
H1517 H 0.53409 0.69373 0.43639 0.0
C1518 C 0.53023 0.67212 0.46867 0.0
C1519 C 0.5257 0.65087 0.47616 0.0
C1520 C 0.51793 0.6493 0.37518 0.0
C1521 C 0.52421 0.66045 0.42292 0.0
C1522 C 0.52432 0.65456 0.3488 0.0
C1523 C 0.54026 0.67629 0.34186 0.0
C1524 C 0.52737 0.66595 0.39452 0.0
C1525 C 0.54834 0.69266 0.36156 0.0
C1526 C 0.52961 0.677 0.44203 0.0
C1527 C 0.51913 0.63447 0.4566 0.0
N1528 N 0.54194 0.68713 0.38706 0.0
N1529 N 0.51877 0.63966 0.43081 0.0
H1530 H 0.35149 0.86847 0.33918 0.0
H1531 H 0.30913 0.84976 0.48868 0.0
H1532 H 0.28497 0.85095 0.36241 0.0
H1533 H 0.37769 0.88972 0.46534 0.0
H1534 H 0.29919 0.83906 0.44233 0.0
H1535 H 0.35998 0.86527 0.38537 0.0
C1536 C 0.33858 0.86364 0.35391 0.0
C1537 C 0.31765 0.86045 0.34708 0.0
C1538 C 0.31644 0.84984 0.44751 0.0
C1539 C 0.3272 0.85662 0.3997 0.0
C1540 C 0.32213 0.85587 0.4739 0.0
C1541 C 0.34418 0.87098 0.48065 0.0
C1542 C 0.33299 0.85883 0.428 0.0
C1543 C 0.36042 0.87837 0.46081 0.0
C1544 C 0.34345 0.86183 0.38022 0.0
C1545 C 0.30147 0.85401 0.36692 0.0
N1546 N 0.35446 0.87239 0.43529 0.0
N1547 N 0.30666 0.85251 0.39242 0.0
H1548 H 0.23841 0.27423 0.08276 0.0
H1549 H 0.35645 0.3828 0.06192 0.0
H1550 H 0.2999 0.27429 0.09468 0.0
H1551 H 0.29575 0.38403 0.07501 0.0
H1552 H 0.33626 0.34272 0.07001 0.0
H1553 H 0.2594 0.31411 0.07541 0.0
C1554 C 0.25635 0.28259 0.08377 0.0
C1555 C 0.26738 0.27082 0.08943 0.0
C1556 C 0.32744 0.35183 0.0712 0.0
C1557 C 0.29158 0.31668 0.08093 0.0
C1558 C 0.33893 0.3747 0.06655 0.0
C1559 C 0.3278 0.38685 0.06774 0.0
C1560 C 0.30462 0.34101 0.07673 0.0
C1561 C 0.30507 0.37542 0.07389 0.0
C1562 C 0.26832 0.30542 0.07967 0.0
C1563 C 0.29068 0.28267 0.09047 0.0
N1564 N 0.29425 0.35318 0.07797 0.0
N1565 N 0.30202 0.30496 0.08618 0.0
H1566 H 0.61127 0.97278 0.06091 0.0
H1567 H 0.72131 0.96571 0.08012 0.0
H1568 H 0.61124 0.91182 0.07671 0.0
H1569 H 0.72036 0.0266 0.09241 0.0
H1570 H 0.68129 0.94629 0.07353 0.0
H1571 H 0.65155 0.99336 0.06785 0.0
C1572 C 0.61968 0.96372 0.06589 0.0
C1573 C 0.60782 0.94051 0.06819 0.0
C1574 C 0.68982 0.9639 0.07769 0.0
C1575 C 0.65385 0.96392 0.07582 0.0
C1576 C 0.71273 0.97506 0.08132 0.0
C1577 C 0.72428 -0.00214 0.08692 0.0
C1578 C 0.67827 0.97559 0.07932 0.0
C1579 C 0.71214 0.00901 0.08826 0.0
C1580 C 0.64265 0.97549 0.06988 0.0
C1581 C 0.61963 0.92968 0.07475 0.0
N1582 N 0.68978 0.99777 0.0844 0.0
N1583 N 0.64196 0.94145 0.07814 0.0
H1584 H 0.97126 0.69167 0.09452 0.0
H1585 H 0.08916 0.70077 0.07176 0.0
H1586 H 0.03206 0.75348 0.08166 0.0
H1587 H 0.02735 0.6392 0.06306 0.0
H1588 H 0.06839 0.71988 0.07946 0.0
H1589 H 0.99143 0.67172 0.08666 0.0
C1590 C 0.98881 0.70106 0.09002 0.0
C1591 C -4e-05 0.72432 0.08876 0.0
C1592 C 0.05935 0.7022 0.07583 0.0
C1593 C 0.02311 0.70158 0.07996 0.0
C1594 C 0.07121 0.69122 0.07152 0.0
C1595 C 0.06001 0.6683 0.06667 0.0
C1596 C 0.03607 0.69021 0.07557 0.0
C1597 C 0.03669 0.65688 0.06662 0.0
C1598 C 0.00029 0.68965 0.08549 0.0
C1599 C 0.02272 0.73556 0.08279 0.0
N1600 N 0.02549 0.66795 0.07107 0.0
N1601 N 0.03353 0.72411 0.07876 0.0
H1602 H 0.3853 0.29626 0.41647 0.0
H1603 H 0.27577 0.30412 0.3947 0.0
H1604 H 0.38445 0.35733 0.42738 0.0
H1605 H 0.27551 0.24275 0.40804 0.0
H1606 H 0.31593 0.32448 0.40253 0.0
H1607 H 0.34544 0.277 0.40869 0.0
C1608 C 0.37677 0.30568 0.41714 0.0
C1609 C 0.38831 0.32849 0.42265 0.0
C1610 C 0.30701 0.30656 0.40381 0.0
C1611 C 0.34246 0.3064 0.4137 0.0
C1612 C 0.28411 0.29492 0.3993 0.0
C1613 C 0.2722 0.27166 0.40069 0.0
C1614 C 0.31811 0.29484 0.40941 0.0
C1615 C 0.28392 0.26065 0.40679 0.0
C1616 C 0.35394 0.29461 0.4128 0.0
C1617 C 0.37624 0.33973 0.4233 0.0
N1618 N 0.30619 0.27231 0.41076 0.0
N1619 N 0.35396 0.32858 0.41881 0.0
H1620 H 0.69252 0.96825 0.39337 0.0
H1621 H 0.69971 0.08527 0.41444 0.0
H1622 H 0.75379 0.02964 0.40591 0.0
H1623 H 0.63863 0.02327 0.4247 0.0
H1624 H 0.71919 0.06488 0.40705 0.0
H1625 H 0.67196 0.98782 0.40122 0.0
C1626 C 0.70166 0.9858 0.39784 0.0
C1627 C 0.72495 0.9973 0.39898 0.0
C1628 C 0.70153 0.0557 0.41091 0.0
C1629 C 0.70152 0.01977 0.40771 0.0
C1630 C 0.69032 0.06734 0.41496 0.0
C1631 C 0.66744 0.05599 0.42014 0.0
C1632 C 0.68982 0.03245 0.41179 0.0
C1633 C 0.65628 0.03271 0.42083 0.0
C1634 C 0.6899 0.99693 0.40235 0.0
C1635 C 0.73587 0.02004 0.40491 0.0
N1636 N 0.66757 0.02169 0.41661 0.0
N1637 N 0.72408 0.03051 0.40888 0.0
H1638 H 0.90824 0.61151 0.41477 0.0
H1639 H 0.02466 0.72205 0.39411 0.0
H1640 H 0.97067 0.61389 0.42836 0.0
H1641 H 0.96292 0.72134 0.40663 0.0
H1642 H 0.00537 0.68197 0.4021 0.0
H1643 H 0.92827 0.65131 0.40661 0.0
C1644 C 0.92618 0.62037 0.41594 0.0
C1645 C 0.93778 0.6093 0.42236 0.0
C1646 C 0.99612 0.69066 0.40316 0.0
C1647 C 0.96084 0.65502 0.41296 0.0
C1648 C 0.00709 0.71351 0.39855 0.0
C1649 C 0.9954 0.72511 0.39968 0.0
C1650 C 0.97328 0.67931 0.40855 0.0
C1651 C 0.97265 0.71315 0.40559 0.0
C1652 C 0.9376 0.64314 0.41139 0.0
C1653 C 0.96105 0.62174 0.4236 0.0
N1654 N 0.96234 0.69093 0.40965 0.0
N1655 N 0.97184 0.64395 0.41888 0.0
H1656 H 0.69811 0.60892 0.91596 0.0
H1657 H 0.69203 0.7194 0.89557 0.0
H1658 H 0.63794 0.61123 0.92873 0.0
H1659 H 0.75323 0.71905 0.90817 0.0
H1660 H 0.6714 0.67934 0.9035 0.0
H1661 H 0.71801 0.64883 0.90835 0.0
C1662 C 0.68903 0.61778 0.91707 0.0
C1663 C 0.66628 0.60665 0.92306 0.0
C1664 C 0.68934 0.68809 0.90461 0.0
C1665 C 0.68908 0.65249 0.91429 0.0
C1666 C 0.70114 0.71094 0.90004 0.0
C1667 C 0.72443 0.72264 0.90118 0.0
C1668 C 0.70091 0.67681 0.91001 0.0
C1669 C 0.73532 0.71078 0.90712 0.0
C1670 C 0.70046 0.64062 0.91284 0.0
C1671 C 0.65547 0.61911 0.92427 0.0
N1672 N 0.72348 0.68853 0.91114 0.0
N1673 N 0.66695 0.64136 0.91984 0.0
H1674 H 0.38296 0.08465 0.91088 0.0
H1675 H 0.27149 0.9682 0.89448 0.0
H1676 H 0.38034 0.02235 0.92607 0.0
H1677 H 0.27317 0.03073 0.90306 0.0
H1678 H 0.31166 0.98734 0.90199 0.0
H1679 H 0.34309 0.0647 0.90323 0.0
C1680 C 0.37405 0.06675 0.9125 0.0
C1681 C 0.38509 0.05519 0.91922 0.0
C1682 C 0.30317 0.9968 0.90229 0.0
C1683 C 0.33921 0.03219 0.91045 0.0
C1684 C 0.28025 0.98592 0.89798 0.0
C1685 C 0.26889 -0.00214 0.8981 0.0
C1686 C 0.31483 0.01982 0.90643 0.0
C1687 C 0.28115 0.02079 0.9028 0.0
C1688 C 0.35121 0.05537 0.90824 0.0
C1689 C 0.37253 0.03196 0.92103 0.0
N1690 N 0.30342 0.031 0.90662 0.0
N1691 N 0.35025 0.02121 0.91662 0.0
H1692 H 0.96978 0.35968 0.93116 0.0
H1693 H 0.96503 0.24308 0.91559 0.0
H1694 H 0.90906 0.29701 0.92286 0.0
H1695 H 0.0246 0.30563 0.90107 0.0
H1696 H 0.94519 0.26294 0.92465 0.0
H1697 H 0.9909 0.34041 0.92559 0.0
C1698 C 0.96088 0.3419 0.92817 0.0
C1699 C 0.93758 0.32997 0.92741 0.0
C1700 C 0.96263 0.27234 0.91958 0.0
C1701 C 0.96165 0.30786 0.92134 0.0
C1702 C 0.97404 0.26101 0.91456 0.0
C1703 C 0.99654 0.27266 0.90739 0.0
C1704 C 0.97376 0.29554 0.91764 0.0
C1705 C 0.00725 0.29593 0.90638 0.0
C1706 C 0.97295 0.33094 0.92498 0.0
C1707 C 0.92697 0.30694 0.92348 0.0
N1708 N 0.99575 0.30661 0.91138 0.0
N1709 N 0.93907 0.29667 0.92069 0.0
H1710 H 0.7151 0.69013 0.59476 0.0
H1711 H 0.60635 0.69945 0.573 0.0
H1712 H 0.71647 0.7521 0.58184 0.0
H1713 H 0.60694 0.63833 0.56123 0.0
H1714 H 0.64622 0.71846 0.58112 0.0
H1715 H 0.67498 0.67035 0.58685 0.0
C1716 C 0.70701 0.69958 0.59025 0.0
C1717 C 0.71922 0.72284 0.58898 0.0
C1718 C 0.63763 0.70089 0.57674 0.0
C1719 C 0.67332 0.7003 0.58017 0.0
C1720 C 0.61482 0.68998 0.5722 0.0
C1721 C 0.60322 0.66723 0.56632 0.0
C1722 C 0.64901 0.689 0.5757 0.0
C1723 C 0.61519 0.65589 0.56557 0.0
C1724 C 0.68412 0.68827 0.58569 0.0
C1725 C 0.7078 0.73418 0.58298 0.0
N1726 N 0.63742 0.66688 0.57028 0.0
N1727 N 0.68553 0.72282 0.57896 0.0
H1728 H 0.36005 0.96931 0.56035 0.0
H1729 H 0.24346 0.96444 0.57504 0.0
H1730 H 0.29753 0.90862 0.56969 0.0
H1731 H 0.30567 0.02387 0.59149 0.0
H1732 H 0.2635 0.94458 0.56747 0.0
H1733 H 0.3408 0.99038 0.56675 0.0
C1734 C 0.34231 0.96041 0.56376 0.0
C1735 C 0.3304 0.93714 0.56459 0.0
C1736 C 0.27278 0.96197 0.57273 0.0
C1737 C 0.30834 0.96112 0.57163 0.0
C1738 C 0.26136 0.97338 0.57695 0.0
C1739 C 0.27287 0.99588 0.58404 0.0
C1740 C 0.29595 0.97312 0.57534 0.0
C1741 C 0.29609 0.00652 0.58619 0.0
C1742 C 0.33137 0.97245 0.56747 0.0
C1743 C 0.30745 0.92651 0.56911 0.0
N1744 N 0.30689 0.99504 0.58182 0.0
N1745 N 0.29718 0.93856 0.57232 0.0
H1746 H 0.96755 0.27735 0.57896 0.0
H1747 H 0.02751 0.38807 0.54126 0.0
H1748 H 0.02999 0.27842 0.57323 0.0
H1749 H 0.08413 0.38605 0.57291 0.0
H1750 H 0.00531 0.34804 0.54646 0.0
H1751 H 0.98687 0.31714 0.57135 0.0
C1752 C 0.98531 0.2859 0.57575 0.0
C1753 C 0.99712 0.27443 0.57666 0.0
C1754 C 0.02246 0.35633 0.55276 0.0
C1755 C 0.01944 0.3202 0.56737 0.0
C1756 C 0.03524 0.37925 0.54957 0.0
C1757 C 0.05773 0.39055 0.55684 0.0
C1758 C 0.03217 0.34453 0.5634 0.0
C1759 C 0.06684 0.37811 0.5672 0.0
C1760 C 0.99635 0.30869 0.57116 0.0
C1761 C 0.02017 0.28651 0.57259 0.0
N1762 N 0.05405 0.35578 0.57008 0.0
N1763 N 0.03058 0.30876 0.5683 0.0
H1764 H 0.05036 0.68939 0.76319 0.0
H1765 H 0.94009 0.5728 0.74179 0.0
H1766 H 0.04993 0.6282 0.7477 0.0
H1767 H 0.94137 0.63502 0.73174 0.0
H1768 H 0.98001 0.59307 0.74916 0.0
H1769 H 0.01009 0.66996 0.75622 0.0
C1770 C 0.04185 0.67192 0.7583 0.0
C1771 C 0.05359 0.66043 0.75605 0.0
C1772 C 0.97158 0.60231 0.74534 0.0
C1773 C 0.00759 0.63813 0.74834 0.0
C1774 C 0.94872 0.59075 0.74126 0.0
C1775 C 0.9373 0.60221 0.73607 0.0
C1776 C 0.9832 0.62556 0.74451 0.0
C1777 C 0.9495 0.62549 0.73556 0.0
C1778 C 0.01889 0.66087 0.75429 0.0
C1779 C 0.04166 0.63779 0.74961 0.0
N1780 N 0.9718 0.63643 0.73979 0.0
N1781 N 0.01935 0.6274 0.74614 0.0
H1782 H 0.3644 0.4196 0.74837 0.0
H1783 H 0.35746 0.30286 0.7258 0.0
H1784 H 0.30307 0.35751 0.75668 0.0
H1785 H 0.41832 0.3637 0.74229 0.0
H1786 H 0.33678 0.32243 0.73287 0.0
H1787 H 0.38394 0.39921 0.74121 0.0
C1788 C 0.35498 0.40166 0.74852 0.0
C1789 C 0.33202 0.39027 0.75313 0.0
C1790 C 0.35465 0.33141 0.73501 0.0
C1791 C 0.35443 0.36676 0.74501 0.0
C1792 C 0.36647 0.32028 0.73095 0.0
C1793 C 0.38969 0.33164 0.73343 0.0
C1794 C 0.36616 0.35409 0.74124 0.0
C1795 C 0.40047 0.35421 0.74019 0.0
C1796 C 0.36621 0.39002 0.74459 0.0
C1797 C 0.32079 0.36698 0.75328 0.0
N1798 N 0.38863 0.36469 0.7437 0.0
N1799 N 0.3321 0.35597 0.74921 0.0
H1800 H 0.63764 0.94438 0.76313 0.0
H1801 H 0.62782 0.05286 0.74167 0.0
H1802 H 0.57552 0.94307 0.75132 0.0
H1803 H 0.68923 0.05259 0.73071 0.0
H1804 H 0.60891 0.01304 0.74985 0.0
H1805 H 0.65737 0.9845 0.75538 0.0
C1806 C 0.62815 0.95248 0.7589 0.0
C1807 C 0.60487 0.9403 0.75789 0.0
C1808 C 0.62652 0.02168 0.74564 0.0
C1809 C 0.62732 0.98615 0.74925 0.0
C1810 C 0.63737 0.04447 0.74106 0.0
C1811 C 0.66016 0.05613 0.73539 0.0
C1812 C 0.63854 0.01042 0.74482 0.0
C1813 C 0.67163 0.04428 0.73488 0.0
C1814 C 0.63942 0.97536 0.75444 0.0
C1815 C 0.59346 0.95171 0.75226 0.0
N1816 N 0.6607 0.02207 0.73959 0.0
N1817 N 0.60478 0.97396 0.74829 0.0
H1818 H 0.42126 0.05359 0.24314 0.0
H1819 H 0.30463 0.94324 0.2649 0.0
H1820 H 0.35883 0.05171 0.23169 0.0
H1821 H 0.36636 0.94392 0.25254 0.0
H1822 H 0.32398 0.98336 0.25707 0.0
H1823 H 0.40116 0.01385 0.25148 0.0
C1824 C 0.4033 0.04487 0.24246 0.0
C1825 C 0.39174 0.05609 0.23658 0.0
C1826 C 0.33322 0.97466 0.25603 0.0
C1827 C 0.36856 0.01034 0.24621 0.0
C1828 C 0.32221 0.95178 0.26054 0.0
C1829 C 0.33387 0.94014 0.2594 0.0
C1830 C 0.35608 0.98602 0.25067 0.0
C1831 C 0.35664 0.95212 0.2536 0.0
C1832 C 0.39183 0.0221 0.24713 0.0
C1833 C 0.36844 0.04376 0.23603 0.0
N1834 N 0.36698 0.97436 0.2496 0.0
N1835 N 0.3576 0.02155 0.24083 0.0
H1836 H 0.94233 0.3676 0.24364 0.0
H1837 H 0.05249 0.36006 0.25987 0.0
H1838 H 0.9439 0.3074 0.22831 0.0
H1839 H 0.05251 0.42168 0.25026 0.0
H1840 H 0.01227 0.33984 0.25286 0.0
H1841 H 0.98226 0.38697 0.25114 0.0
C1842 C 0.95103 0.35839 0.24194 0.0
C1843 C 0.93969 0.3358 0.23523 0.0
C1844 C 0.02113 0.35778 0.25223 0.0
C1845 C 0.98556 0.35801 0.24387 0.0
C1846 C 0.04407 0.36934 0.25628 0.0
C1847 C 0.05593 0.39262 0.25564 0.0
C1848 C 0.00993 0.36958 0.24785 0.0
C1849 C 0.04412 0.40375 0.25084 0.0
C1850 C 0.97388 0.36953 0.24612 0.0
C1851 C 0.95195 0.32482 0.23332 0.0
N1852 N 0.02179 0.39214 0.24728 0.0
N1853 N 0.97423 0.33602 0.23768 0.0
H1854 H 0.63596 0.69001 0.25981 0.0
H1855 H 0.62895 0.57297 0.2406 0.0
H1856 H 0.57465 0.62888 0.24622 0.0
H1857 H 0.68951 0.63497 0.2276 0.0
H1858 H 0.60937 0.59337 0.24772 0.0
H1859 H 0.65641 0.67027 0.25246 0.0
C1860 C 0.6268 0.67247 0.25525 0.0
C1861 C 0.60353 0.66109 0.25366 0.0
C1862 C 0.62694 0.60252 0.24329 0.0
C1863 C 0.62682 0.63844 0.24552 0.0
C1864 C 0.63819 0.59089 0.23934 0.0
C1865 C 0.66095 0.60226 0.23341 0.0
C1866 C 0.63851 0.62574 0.24162 0.0
C1867 C 0.67196 0.62551 0.23201 0.0
C1868 C 0.63849 0.66125 0.25101 0.0
C1869 C 0.59256 0.63838 0.24761 0.0
N1870 N 0.66065 0.63651 0.23617 0.0
N1871 N 0.60428 0.62779 0.24394 0.0
H1872 H 0.33846 0.21813 0.12597 0.0
H1873 H 0.31867 0.10846 0.20204 0.0
H1874 H 0.27427 0.16633 0.1524 0.0
H1875 H 0.38257 0.15963 0.17398 0.0
H1876 H 0.30205 0.12961 0.18442 0.0
H1877 H 0.35508 0.19714 0.14407 0.0
C1878 C 0.32788 0.20241 0.13561 0.0
C1879 C 0.30495 0.19402 0.13764 0.0
C1880 C 0.31971 0.13617 0.18212 0.0
C1881 C 0.3238 0.16988 0.15836 0.0
C1882 C 0.32919 0.12408 0.19216 0.0
C1883 C 0.35203 0.13222 0.18947 0.0
C1884 C 0.33319 0.15654 0.16932 0.0
C1885 C 0.36487 0.15263 0.17651 0.0
C1886 C 0.33735 0.1904 0.14592 0.0
C1887 C 0.29203 0.17349 0.15033 0.0
N1888 N 0.35529 0.16405 0.16695 0.0
N1889 N 0.30162 0.16216 0.16017 0.0
H1890 H 0.84724 0.23093 0.15557 0.0
H1891 H 0.8151 0.10391 0.1643 0.0
H1892 H 0.87724 0.2063 0.21071 0.0
H1893 H 0.79148 0.12977 0.10251 0.0
H1894 H 0.83635 0.14095 0.18286 0.0
H1895 H 0.8259 0.19394 0.13669 0.0
C1896 C 0.84945 0.21775 0.16363 0.0
C1897 C 0.86404 0.22171 0.18484 0.0
C1898 C 0.8265 0.13856 0.16528 0.0
C1899 C 0.83941 0.17919 0.16337 0.0
C1900 C 0.81423 0.11736 0.15469 0.0
C1901 C 0.80149 0.11369 0.1317 0.0
C1902 C 0.82605 0.15634 0.15291 0.0
C1903 C 0.80103 0.1318 0.12025 0.0
C1904 C 0.83721 0.19661 0.15283 0.0
C1905 C 0.86625 0.20401 0.19435 0.0
N1906 N 0.8132 0.15238 0.13095 0.0
N1907 N 0.85395 0.18346 0.18363 0.0
H1908 H 0.89546 0.70308 0.16924 0.0
H1909 H 0.76492 0.62329 0.15123 0.0
H1910 H 0.86587 0.66336 0.09948 0.0
H1911 H 0.7946 0.66328 0.22079 0.0
H1912 H 0.80164 0.63823 0.13172 0.0
H1913 H 0.85873 0.68817 0.18865 0.0
C1914 C 0.88122 0.69103 0.15807 0.0
C1915 C 0.88374 0.68449 0.13262 0.0
C1916 C 0.80015 0.64385 0.15118 0.0
C1917 C 0.84151 0.66755 0.15472 0.0
C1918 C 0.77917 0.63541 0.16233 0.0
C1919 C 0.77669 0.642 0.18776 0.0
C1920 C 0.81888 0.65899 0.16555 0.0
C1921 C 0.79573 0.65779 0.20112 0.0
C1922 C 0.86023 0.68261 0.16916 0.0
C1923 C 0.86471 0.66879 0.11917 0.0
N1924 N 0.81606 0.66565 0.1899 0.0
N1925 N 0.84435 0.66094 0.13034 0.0
H1926 H 0.12673 0.32989 0.26512 0.0
H1927 H 0.19991 0.3321 0.38899 0.0
H1928 H 0.13953 0.37129 0.33393 0.0
H1929 H 0.18724 0.29073 0.32017 0.0
H1930 H 0.17824 0.34715 0.3688 0.0
H1931 H 0.14819 0.31461 0.28541 0.0
C1932 C 0.13378 0.33553 0.2846 0.0
C1933 C 0.13141 0.35193 0.29778 0.0
C1934 C 0.18031 0.33485 0.35809 0.0
C1935 C 0.15622 0.33487 0.32091 0.0
C1936 C 0.19283 0.3264 0.36953 0.0
C1937 C 0.19533 0.3101 0.35631 0.0
C1938 C 0.17027 0.32692 0.33328 0.0
C1939 C 0.18565 0.30319 0.33117 0.0
C1940 C 0.14618 0.32696 0.2961 0.0
C1941 C 0.14104 0.35877 0.32295 0.0
N1942 N 0.17348 0.31156 0.32054 0.0
N1943 N 0.1531 0.35029 0.33362 0.0
H1944 H 0.66414 0.86574 0.38785 0.0
H1945 H 0.66468 0.79228 0.26598 0.0
H1946 H 0.70404 0.89293 0.31761 0.0
H1947 H 0.62383 0.76501 0.33551 0.0
H1948 H 0.68011 0.82934 0.28517 0.0
H1949 H 0.64874 0.8286 0.36882 0.0
C1950 C 0.66943 0.86394 0.36831 0.0
C1951 C 0.68544 0.88244 0.35436 0.0
C1952 C 0.66784 0.81521 0.29628 0.0
C1953 C 0.66823 0.84008 0.33266 0.0
C1954 C 0.65919 0.79405 0.28541 0.0
C1955 C 0.64291 0.77555 0.29911 0.0
C1956 C 0.66015 0.81784 0.32099 0.0
C1957 C 0.63627 0.77883 0.32416 0.0
C1958 C 0.66079 0.84273 0.35753 0.0
C1959 C 0.69182 0.87912 0.32917 0.0
N1960 N 0.64484 0.79956 0.33423 0.0
N1961 N 0.68328 0.85837 0.3192 0.0
H1962 H 0.22718 0.84497 0.33337 0.0
H1963 H 0.10131 0.81674 0.32259 0.0
H1964 H 0.20488 0.87747 0.27878 0.0
H1965 H 0.12489 0.78982 0.38317 0.0
H1966 H 0.13874 0.83753 0.30489 0.0
H1967 H 0.1897 0.82381 0.35091 0.0
C1968 C 0.21441 0.84776 0.32513 0.0
C1969 C 0.21918 0.86302 0.30449 0.0
C1970 C 0.13576 0.82704 0.322 0.0
C1971 C 0.17608 0.83861 0.32447 0.0
C1972 C 0.11434 0.81505 0.3321 0.0
C1973 C 0.10993 0.80152 0.35451 0.0
C1974 C 0.153 0.82553 0.3343 0.0
C1975 C 0.12751 0.8 0.36587 0.0
C1976 C 0.19298 0.83562 0.33518 0.0
C1977 C 0.20196 0.86594 0.29472 0.0
N1978 N 0.14831 0.81194 0.35568 0.0
N1979 N 0.18112 0.85375 0.30473 0.0
H1980 H 0.66406 0.79441 0.88956 0.0
H1981 H 0.6648 0.86678 0.76567 0.0
H1982 H 0.70326 0.80509 0.81913 0.0
H1983 H 0.62627 0.85664 0.83657 0.0
H1984 H 0.67957 0.84459 0.78513 0.0
H1985 H 0.64917 0.81639 0.86989 0.0
C1986 C 0.66928 0.80109 0.86984 0.0
C1987 C 0.68497 0.79799 0.85602 0.0
C1988 C 0.66796 0.84734 0.79646 0.0
C1989 C 0.66836 0.82343 0.8336 0.0
C1990 C 0.6597 0.86017 0.78544 0.0
C1991 C 0.64424 0.86349 0.79947 0.0
C1992 C 0.6607 0.83784 0.82164 0.0
C1993 C 0.63806 0.85439 0.82496 0.0
C1994 C 0.66094 0.8138 0.8587 0.0
C1995 C 0.69129 0.80718 0.83058 0.0
N1996 N 0.64622 0.8419 0.83516 0.0
N1997 N 0.68305 0.81956 0.82026 0.0
H1998 H 0.17283 0.89154 0.82527 0.0
H1999 H 0.14447 0.76569 0.83345 0.0
H2000 H 0.20496 0.86854 0.8795 0.0
H2001 H 0.12028 0.79074 0.77136 0.0
H2002 H 0.16459 0.80268 0.85242 0.0
H2003 H 0.152 0.85441 0.80679 0.0
C2004 C 0.17558 0.87868 0.83327 0.0
C2005 C 0.19067 0.88316 0.85404 0.0
C2006 C 0.15485 0.80011 0.8347 0.0
C2007 C 0.16666 0.84047 0.83295 0.0
C2008 C 0.14324 0.77894 0.82386 0.0
C2009 C 0.13069 0.77509 0.80066 0.0
C2010 C 0.15391 0.81764 0.82236 0.0
C2011 C 0.12972 0.79294 0.78924 0.0
C2012 C 0.16364 0.85746 0.82266 0.0
C2013 C 0.19356 0.86584 0.86347 0.0
N2014 N 0.14125 0.81348 0.80019 0.0
N2015 N 0.18156 0.8452 0.85291 0.0
H2016 H 0.09701 0.2966 0.81427 0.0
H2017 H 0.22821 0.36723 0.83514 0.0
H2018 H 0.12796 0.33083 0.88681 0.0
H2019 H 0.19744 0.33237 0.76286 0.0
H2020 H 0.19163 0.35359 0.85451 0.0
H2021 H 0.13358 0.31032 0.79475 0.0
C2022 C 0.11152 0.30725 0.82601 0.0
C2023 C 0.10943 0.31253 0.85228 0.0
C2024 C 0.19283 0.34879 0.83447 0.0
C2025 C 0.1514 0.32802 0.83009 0.0
C2026 C 0.21372 0.35647 0.82342 0.0
C2027 C 0.21587 0.35097 0.79728 0.0
C2028 C 0.17386 0.33556 0.81929 0.0
C2029 C 0.19655 0.33693 0.7831 0.0
C2030 C 0.13241 0.31496 0.81487 0.0
C2031 C 0.12879 0.32642 0.86648 0.0
N2032 N 0.17631 0.32982 0.79424 0.0
N2033 N 0.149 0.33357 0.85525 0.0
H2034 H 0.85463 0.62372 0.65502 0.0
H2035 H 0.80084 0.70094 0.6718 0.0
H2036 H 0.86244 0.66231 0.72517 0.0
H2037 H 0.79279 0.662 0.6019 0.0
H2038 H 0.82279 0.68643 0.69195 0.0
H2039 H 0.83249 0.63806 0.63508 0.0
C2040 C 0.85187 0.63541 0.66617 0.0
C2041 C 0.86036 0.64179 0.69188 0.0
C2042 C 0.81614 0.68094 0.67227 0.0
C2043 C 0.83471 0.65807 0.66917 0.0
C2044 C 0.8035 0.68913 0.66077 0.0
C2045 C 0.79502 0.68272 0.63505 0.0
C2046 C 0.82044 0.66626 0.65797 0.0
C2047 C 0.79893 0.66733 0.62178 0.0
C2048 C 0.83911 0.6435 0.65478 0.0
C2049 C 0.8563 0.65702 0.70529 0.0
N2050 N 0.8115 0.65973 0.63335 0.0
N2051 N 0.84363 0.66455 0.69382 0.0
H2052 H 0.33105 0.19976 0.7202 0.0
H2053 H 0.33472 0.12879 0.59735 0.0
H2054 H 0.37241 0.22858 0.65137 0.0
H2055 H 0.29494 0.1 0.66732 0.0
H2056 H 0.34925 0.16559 0.61706 0.0
H2057 H 0.31686 0.16299 0.70058 0.0
C2058 C 0.33692 0.19839 0.70084 0.0
C2059 C 0.35297 0.21725 0.68746 0.0
C2060 C 0.33744 0.15118 0.62815 0.0
C2061 C 0.33713 0.1753 0.66509 0.0
C2062 C 0.3293 0.13017 0.61699 0.0
C2063 C 0.31354 0.11131 0.63065 0.0
C2064 C 0.32973 0.15328 0.65311 0.0
C2065 C 0.30697 0.1141 0.65598 0.0
C2066 C 0.32897 0.1774 0.68973 0.0
C2067 C 0.36011 0.21448 0.66248 0.0
N2068 N 0.31499 0.13467 0.6663 0.0
N2069 N 0.35222 0.19391 0.65217 0.0
H2070 H 0.87321 0.18465 0.59498 0.0
H2071 H 0.78275 0.14495 0.71045 0.0
H2072 H 0.88869 0.20625 0.67616 0.0
H2073 H 0.76587 0.12963 0.62797 0.0
H2074 H 0.82186 0.16585 0.69837 0.0
H2075 H 0.83392 0.16367 0.60661 0.0
C2076 C 0.86835 0.18516 0.61519 0.0
C2077 C 0.8843 0.19719 0.63465 0.0
C2078 C 0.80962 0.15787 0.6829 0.0
C2079 C 0.83936 0.17298 0.64814 0.0
C2080 C 0.78726 0.14581 0.6898 0.0
C2081 C 0.77096 0.1356 0.67018 0.0
C2082 C 0.81579 0.15968 0.65618 0.0
C2083 C 0.77785 0.13726 0.64376 0.0
C2084 C 0.8459 0.17311 0.62183 0.0
C2085 C 0.877 0.19723 0.66051 0.0
N2086 N 0.79975 0.14915 0.63753 0.0
N2087 N 0.85508 0.1852 0.66653 0.0
H2088 H -0.00029 0.53938 0.43101 0.0
H2089 H -0.00067 0.46208 0.54888 0.0
H2090 H 0.96108 0.52604 0.50248 0.0
H2091 H 0.04093 0.47838 0.47963 0.0
H2092 H 0.98403 0.4844 0.53133 0.0
H2093 H 0.01517 0.51715 0.44843 0.0
C2094 C 0.99472 0.53206 0.45049 0.0
C2095 C 0.97904 0.53452 0.46525 0.0
C2096 C 0.99644 0.48299 0.51992 0.0
C2097 C 0.9963 0.50877 0.48509 0.0
C2098 C 0.00502 0.47009 0.52984 0.0
C2099 C 0.02146 0.46842 0.51576 0.0
C2100 C 0.00435 0.49424 0.49574 0.0
C2101 C 0.02835 0.4793 0.49125 0.0
C2102 C 0.0034 0.51922 0.46035 0.0
C2103 C 0.97305 0.52451 0.49032 0.0
N2104 N 0.01983 0.4918 0.48208 0.0
N2105 N 0.98159 0.51199 0.49937 0.0
H2106 H 0.51209 0.56202 0.48755 0.0
H2107 H 0.47808 0.43468 0.49963 0.0
H2108 H 0.5401 0.53732 0.54535 0.0
H2109 H 0.45632 0.46048 0.43576 0.0
H2110 H 0.49933 0.47186 0.51782 0.0
H2111 H 0.49085 0.52492 0.469 0.0
C2112 C 0.51388 0.54879 0.49627 0.0
C2113 C 0.52786 0.55277 0.51813 0.0
C2114 C 0.48989 0.46942 0.49987 0.0
C2115 C 0.50335 0.51012 0.49703 0.0
C2116 C 0.47762 0.44815 0.48948 0.0
C2117 C 0.46541 0.44444 0.46602 0.0
C2118 C 0.48997 0.48721 0.48681 0.0
C2119 C 0.46544 0.46256 0.45388 0.0
C2120 C 0.5017 0.52759 0.48565 0.0
C2121 C 0.52959 0.53502 0.52847 0.0
N2122 N 0.47762 0.4832 0.46439 0.0
N2123 N 0.51734 0.5144 0.51792 0.0
H2124 H 0.53608 0.9925 0.4335 0.0
H2125 H 0.45902 0.00172 0.54482 0.0
H2126 H 0.56109 0.03879 0.49861 0.0
H2127 H 0.43493 0.94954 0.48644 0.0
H2128 H 0.49635 0.01706 0.52626 0.0
H2129 H 0.49859 0.97711 0.4516 0.0
C2130 C 0.53375 -0.00075 0.45172 0.0
C2131 C 0.55175 0.01698 0.4645 0.0
C2132 C 0.48285 0.00229 0.51747 0.0
C2133 C 0.50896 -0.00024 0.48505 0.0
C2134 C 0.46153 0.99365 0.52794 0.0
C2135 C 0.44387 0.97431 0.51723 0.0
C2136 C 0.48646 0.99155 0.49609 0.0
C2137 C 0.44809 0.96443 0.49543 0.0
C2138 C 0.51234 0.99057 0.46197 0.0
C2139 C 0.54771 0.02517 0.488 0.0
N2140 N 0.46894 0.97313 0.48563 0.0
N2141 N 0.52677 0.01659 0.49741 0.0
H2142 H 0.52478 0.95956 0.98308 0.0
H2143 H 0.4668 0.0328 0.00217 0.0
H2144 H 0.53158 0.9974 0.0536 0.0
H2145 H 0.46107 0.99625 0.93083 0.0
H2146 H 0.48969 0.01915 0.02166 0.0
H2147 H 0.50179 0.97309 0.96347 0.0
C2148 C 0.52165 0.97094 -0.00564 0.0
C2149 C 0.53009 0.97733 0.02009 0.0
C2150 C 0.48335 0.01399 0.00181 0.0
C2151 C 0.50345 0.99264 -0.0022 0.0
C2152 C 0.47015 0.02168 0.99068 0.0
C2153 C 0.46205 0.01571 0.96476 0.0
C2154 C 0.48859 0.00024 0.98693 0.0
C2155 C 0.46689 0.0012 0.95089 0.0
C2156 C 0.5084 0.97856 0.98316 0.0
C2157 C 0.52551 0.99212 0.03369 0.0
N2158 N 0.47998 0.99407 0.96211 0.0
N2159 N 0.51236 -0.00083 0.02243 0.0
H2160 H 0.00805 0.45207 0.96408 0.0
H2161 H 0.98727 0.54561 0.02817 0.0
H2162 H 0.94308 0.44337 0.9792 0.0
H2163 H 0.0522 0.55415 0.01325 0.0
H2164 H 0.97064 0.50792 0.01038 0.0
H2165 H 0.02463 0.48972 0.98192 0.0
C2166 C -0.00271 0.45805 0.97113 0.0
C2167 C 0.97417 0.44452 0.97017 0.0
C2168 C 0.98854 0.51809 0.01102 0.0
C2169 C 0.99295 0.48748 0.99065 0.0
C2170 C -0.00199 0.53958 0.02119 0.0
C2171 C 0.02114 0.55308 0.02218 0.0
C2172 C 0.00231 0.5101 0.00176 0.0
C2173 C 0.03427 0.54438 0.01288 0.0
C2174 C 0.00674 0.47953 0.98132 0.0
C2175 C 0.96101 0.45317 0.97955 0.0
N2176 N 0.02468 0.5235 0.00305 0.0
N2177 N 0.97058 0.47405 0.9894 0.0
H2178 H 0.46144 0.4612 0.05744 0.0
H2179 H 0.53224 0.53366 0.93318 0.0
H2180 H 0.43238 0.46913 0.98573 0.0
H2181 H 0.56133 0.52527 0.00458 0.0
H2182 H 0.4954 0.51087 0.95263 0.0
H2183 H 0.4983 0.48423 0.03816 0.0
C2184 C 0.46279 0.46748 0.03752 0.0
C2185 C 0.44382 0.46329 0.02323 0.0
C2186 C 0.50988 0.51415 0.96409 0.0
C2187 C 0.48585 0.48995 0.00123 0.0
C2188 C 0.5309 0.52734 0.95308 0.0
C2189 C 0.54986 0.5313 0.96722 0.0
C2190 C 0.50786 0.50491 0.9894 0.0
C2191 C 0.54715 0.52252 0.99288 0.0
C2192 C 0.48383 0.4808 0.0266 0.0
C2193 C 0.44656 0.47203 -0.00245 0.0
N2194 N 0.52656 0.50965 0.00307 0.0
N2195 N 0.46716 0.48502 0.98745 0.0
H2196 H 0.20563 0.08365 0.91534 0.0
H2197 H 0.22044 0.12181 0.06678 0.0
H2198 H 0.20444 0.04275 0.98018 0.0
H2199 H 0.21479 0.15934 0.00249 0.0
H2200 H 0.21622 0.09323 0.03527 0.0
H2201 H 0.21061 0.11225 0.94689 0.0
C2202 C 0.2066 0.08076 0.93623 0.0
C2203 C 0.20505 0.06095 0.94509 0.0
C2204 C 0.21584 0.10767 0.02803 0.0
C2205 C 0.21057 0.09355 0.98137 0.0
C2206 C 0.21828 0.12394 0.04596 0.0
C2207 C 0.21792 0.14279 0.03705 0.0
C2208 C 0.2131 0.1104 0.00102 0.0
C2209 C 0.21497 0.14488 0.01003 0.0
C2210 C 0.20943 0.09709 0.95423 0.0
C2211 C 0.2063 0.05802 0.97236 0.0
N2212 N 0.21272 0.12887 0.99291 0.0
N2213 N 0.20898 0.07417 0.98956 0.0
H2214 H 0.83906 0.09897 0.02506 0.0
H2215 H 0.95284 0.12406 0.95696 0.0
H2216 H 0.87403 0.06449 0.04541 0.0
H2217 H 0.92513 0.16705 0.94932 0.0
H2218 H 0.92322 0.101 0.98797 0.0
H2219 H 0.8697 0.12332 -0.00419 0.0
C2220 C 0.85327 0.09662 0.02338 0.0
C2221 C 0.8541 0.07975 0.03752 0.0
C2222 C 0.92373 0.1156 0.97972 0.0
C2223 C 0.889 0.10725 0.00405 0.0
C2224 C 0.94058 0.12871 0.96201 0.0
C2225 C 0.94159 0.14765 0.95096 0.0
C2226 C 0.90756 0.12127 0.98606 0.0
C2227 C 0.92527 0.15291 0.95795 0.0
C2228 C 0.87071 0.11046 0.00671 0.0
C2229 C 0.8727 0.07716 0.03454 0.0
N2230 N 0.90884 0.13972 0.975 0.0
N2231 N 0.88941 0.09074 0.01805 0.0
H2232 H 0.89862 0.73775 0.02633 0.0
H2233 H 0.87141 0.82653 0.96285 0.0
H2234 H 0.93205 0.80667 0.04876 0.0
H2235 H 0.83023 0.75602 0.9513 0.0
H2236 H 0.89452 0.81968 0.99341 0.0
H2237 H 0.8739 0.74409 -0.00225 0.0
C2238 C 0.90068 0.75421 0.02521 0.0
C2239 C 0.91737 0.77176 0.03971 0.0
C2240 C 0.88031 0.80568 0.98441 0.0
C2241 C 0.88941 0.7792 0.00709 0.0
C2242 C 0.86715 0.80958 0.96695 0.0
C2243 C 0.84874 0.79179 0.95487 0.0
C2244 C 0.8752 0.78382 0.98951 0.0
C2245 C 0.84397 0.77017 0.96071 0.0
C2246 C 0.88662 0.75783 0.00894 0.0
C2247 C 0.91954 0.7928 0.03755 0.0
N2248 N 0.8572 0.76678 0.97755 0.0
N2249 N 0.90575 0.79597 0.02146 0.0
H2250 H 0.12349 0.18803 0.44454 0.0
H2251 H 0.06992 0.2436 0.53389 0.0
H2252 H 0.1567 0.25813 0.46096 0.0
H2253 H 0.05064 0.17448 0.53956 0.0
H2254 H 0.09887 0.24907 0.50223 0.0
H2255 H 0.09375 0.18249 0.47496 0.0
C2256 C 0.12455 0.20222 0.45469 0.0
C2257 C 0.14258 0.22354 0.45044 0.0
C2258 C 0.08823 0.2327 0.51034 0.0
C2259 C 0.10851 0.21744 0.48466 0.0
C2260 C 0.07159 0.22952 0.52817 0.0
C2261 C 0.05773 0.20849 0.53902 0.0
C2262 C 0.09087 0.21466 0.50321 0.0
C2263 C 0.061 0.19095 0.53156 0.0
C2264 C 0.10756 0.19908 0.47191 0.0
C2265 C 0.14296 0.24145 0.46358 0.0
N2266 N 0.07716 0.19438 0.51398 0.0
N2267 N 0.12613 0.23802 0.48008 0.0
H2268 H 0.73794 0.89599 0.45746 0.0
H2269 H 0.825 0.86913 0.52685 0.0
H2270 H 0.80776 0.93029 0.43904 0.0
H2271 H 0.75414 0.82797 0.53569 0.0
H2272 H 0.81904 0.89224 0.49537 0.0
H2273 H 0.74346 0.87124 0.48689 0.0
C2274 C 0.75442 0.89821 0.45959 0.0
C2275 C 0.77245 0.91516 0.44594 0.0
C2276 C 0.80477 0.87804 0.50398 0.0
C2277 C 0.77896 0.88717 0.47963 0.0
C2278 C 0.80817 0.86488 0.52198 0.0
C2279 C 0.79003 0.84646 0.53358 0.0
C2280 C 0.78306 0.87294 0.49782 0.0
C2281 C 0.76857 0.8417 0.5267 0.0
C2282 C 0.75758 0.88414 0.47639 0.0
C2283 C 0.7935 0.91757 0.44952 0.0
N2284 N 0.76567 0.85494 0.50933 0.0
N2285 N 0.7962 0.90374 0.46609 0.0
H2286 H 0.06154 0.87507 0.43894 0.0
H2287 H 0.16708 0.92512 0.53494 0.0
H2288 H 0.09534 0.83979 0.46095 0.0
H2289 H 0.12601 0.9547 0.52378 0.0
H2290 H 0.14309 0.8953 0.50466 0.0
H2291 H 0.08675 0.90585 0.46743 0.0
C2292 C 0.07421 0.87381 0.44997 0.0
C2293 C 0.0764 0.85495 0.44782 0.0
C2294 C 0.13942 0.9084 0.5087 0.0
C2295 C 0.10544 0.89005 0.47998 0.0
C2296 C 0.15327 0.92556 0.52573 0.0
C2297 C 0.14869 0.94255 0.53149 0.0
C2298 C 0.12091 0.90829 0.49744 0.0
C2299 C 0.13011 0.94189 0.51977 0.0
C2300 C 0.08865 0.89137 0.46608 0.0
C2301 C 0.09327 0.85417 0.46207 0.0
N2302 N 0.11691 0.92506 0.50325 0.0
N2303 N 0.1072 0.87151 0.47757 0.0
H2304 H 0.82713 0.95371 0.02443 0.0
H2305 H 0.73778 0.83837 0.9602 0.0
H2306 H 0.75658 0.92516 0.03532 0.0
H2307 H 0.80721 0.87268 0.93978 0.0
H2308 H 0.74418 0.86963 0.98839 0.0
H2309 H 0.82013 0.92372 0.99397 0.0
C2310 C 0.81014 0.94119 0.02021 0.0
C2311 C 0.7924 0.94205 0.0321 0.0
C2312 C 0.75802 0.87035 0.97772 0.0
C2313 C 0.78423 0.90753 -0.00247 0.0
C2314 C 0.75436 0.85256 0.96165 0.0
C2315 C 0.77204 0.85301 0.94784 0.0
C2316 C 0.77954 0.88863 0.98006 0.0
C2317 C 0.79322 0.87161 0.95046 0.0
C2318 C 0.80615 0.9241 0.0028 0.0
C2319 C 0.77072 0.9254 0.02607 0.0
N2320 N 0.79641 0.88867 0.96633 0.0
N2321 N 0.76723 0.90872 0.00928 0.0
H2322 H 0.04053 0.82972 0.00356 0.0
H2323 H 0.15477 0.9435 0.98264 0.0
H2324 H 0.07461 0.87698 0.06595 0.0
H2325 H 0.11883 0.898 0.91949 0.0
H2326 H 0.12542 0.91944 0.01357 0.0
H2327 H 0.06931 0.85419 0.97254 0.0
C2328 C 0.05429 0.84504 0.01085 0.0
C2329 C 0.0555 0.8511 0.03749 0.0
C2330 C 0.12389 0.91473 0.99294 0.0
C2331 C 0.08811 0.87952 0.00198 0.0
C2332 C 0.14055 0.9285 0.97533 0.0
C2333 C 0.13912 0.92258 0.94865 0.0
C2334 C 0.10574 0.89491 0.98371 0.0
C2335 C 0.12055 0.90294 0.94005 0.0
C2336 C 0.07057 0.85916 0.99306 0.0
C2337 C 0.07317 0.87163 0.04558 0.0
N2338 N 0.10459 0.88974 0.95756 0.0
N2339 N 0.08884 0.88507 0.02793 0.0
H2340 H 0.12021 0.17053 0.02618 0.0
H2341 H 0.10024 0.25821 0.94861 0.0
H2342 H 0.16789 0.24049 0.02638 0.0
H2343 H 0.06522 0.18846 0.93006 0.0
H2344 H 0.1249 0.25231 0.9778 0.0
H2345 H 0.09922 0.17678 0.99181 0.0
C2346 C 0.12635 0.18719 0.01877 0.0
C2347 C 0.14588 0.205 0.02894 0.0
C2348 C 0.11194 0.23832 0.96718 0.0
C2349 C 0.12182 0.21234 0.98994 0.0
C2350 C 0.09792 0.24169 0.95047 0.0
C2351 C 0.08065 0.22376 0.93702 0.0
C2352 C 0.10845 0.21681 0.97071 0.0
C2353 C 0.07814 0.20265 0.94042 0.0
C2354 C 0.11442 0.19074 -0.00088 0.0
C2355 C 0.15313 0.22626 0.01873 0.0
N2356 N 0.09177 0.19971 0.95711 0.0
N2357 N 0.14096 0.22939 -6e-05 0.0
H2358 H 0.83541 0.73526 0.52889 0.0
H2359 H 0.94967 0.82585 0.46372 0.0
H2360 H 0.8695 0.8044 0.55038 0.0
H2361 H 0.92228 0.75552 0.45271 0.0
H2362 H 0.92001 0.81824 0.49504 0.0
H2363 H 0.86676 0.74212 0.50049 0.0
C2364 C 0.84958 0.75186 0.52766 0.0
C2365 C 0.84991 0.76935 0.54175 0.0
C2366 C 0.92058 0.80444 0.48601 0.0
C2367 C 0.8856 0.77737 0.50931 0.0
C2368 C 0.93747 0.80878 0.4681 0.0
C2369 C 0.93855 0.79128 0.4559 0.0
C2370 C 0.90441 0.78241 0.49145 0.0
C2371 C 0.92233 0.76948 0.46215 0.0
C2372 C 0.86741 0.75578 0.51147 0.0
C2373 C 0.8685 0.79057 0.53945 0.0
N2374 N 0.90581 0.76565 0.47941 0.0
N2375 N 0.88558 0.79402 0.52343 0.0
H2376 H 0.26094 0.10046 0.52706 0.0
H2377 H 0.17046 0.12535 0.46368 0.0
H2378 H 0.19165 0.06511 0.54811 0.0
H2379 H 0.24082 0.16722 0.45122 0.0
H2380 H 0.178 0.10291 0.49445 0.0
H2381 H 0.25416 0.12522 0.49907 0.0
C2382 C 0.24432 0.09802 0.52582 0.0
C2383 C 0.22677 0.08073 0.53965 0.0
C2384 C 0.19183 0.11713 0.48522 0.0
C2385 C 0.21884 0.10868 0.50771 0.0
C2386 C 0.18753 0.1299 0.46762 0.0
C2387 C 0.20506 0.1483 0.45521 0.0
C2388 C 0.21385 0.12261 0.49014 0.0
C2389 C 0.22685 0.15347 0.46088 0.0
C2390 C 0.24045 0.11208 0.50986 0.0
C2391 C 0.20553 0.07808 0.53737 0.0
N2392 N 0.23064 0.1406 0.47787 0.0
N2393 N 0.20213 0.09187 0.52159 0.0
H2394 H 0.89685 0.12428 0.56201 0.0
H2395 H 0.87981 0.07077 0.41778 0.0
H2396 H 0.94375 0.15462 0.4984 0.0
H2397 H 0.8318 0.04193 0.48069 0.0
H2398 H 0.90432 0.1007 0.44757 0.0
H2399 H 0.87358 0.09299 0.5331 0.0
C2400 C 0.90222 0.12424 0.54191 0.0
C2401 C 0.92207 0.14197 0.53239 0.0
C2402 C 0.88837 0.0879 0.45483 0.0
C2403 C 0.89571 0.10637 0.49925 0.0
C2404 C 0.87438 0.07083 0.43785 0.0
C2405 C 0.85352 0.05419 0.4466 0.0
C2406 C 0.88151 0.08821 0.48086 0.0
C2407 C 0.84739 0.05487 0.47284 0.0
C2408 C 0.88899 0.10641 0.52544 0.0
C2409 C 0.92854 0.14114 0.50639 0.0
N2410 N 0.86132 0.07165 0.48904 0.0
N2411 N 0.91531 0.12365 0.49063 0.0
H2412 H 0.85556 0.45852 0.38733 0.0
H2413 H 0.90821 0.40391 0.29426 0.0
H2414 H 0.92489 0.49125 0.36654 0.0
H2415 H 0.83812 0.3811 0.29798 0.0
H2416 H 0.91492 0.43283 0.32651 0.0
H2417 H 0.8491 0.42697 0.35973 0.0
C2418 C 0.86937 0.45906 0.37681 0.0
C2419 C 0.89071 0.47751 0.37886 0.0
C2420 C 0.89806 0.42134 0.32044 0.0
C2421 C 0.88361 0.44148 0.34782 0.0
C2422 C 0.89421 0.40471 0.30229 0.0
C2423 C 0.87256 0.39002 0.29372 0.0
C2424 C 0.88011 0.42318 0.33005 0.0
C2425 C 0.85506 0.39216 0.30412 0.0
C2426 C 0.86573 0.44105 0.36123 0.0
C2427 C 0.90819 0.47724 0.36543 0.0
N2428 N 0.85921 0.40845 0.32176 0.0
N2429 N 0.90426 0.4595 0.3504 0.0
H2430 H 0.58969 0.49826 0.285 0.0
H2431 H 0.53887 0.39475 0.38411 0.0
H2432 H 0.61812 0.4563 0.29723 0.0
H2433 H 0.50392 0.4284 0.36006 0.0
H2434 H 0.56976 0.41925 0.35527 0.0
H2435 H 0.55995 0.47527 0.31596 0.0
C2436 C 0.5899 0.48446 0.29458 0.0
C2437 C 0.60654 0.47933 0.28891 0.0
C2438 C 0.55533 0.42127 0.35626 0.0
C2439 C 0.57238 0.45272 0.32378 0.0
C2440 C 0.5377 0.40724 0.37258 0.0
C2441 C 0.51888 0.40955 0.37422 0.0
C2442 C 0.55413 0.4378 0.34163 0.0
C2443 C 0.51826 0.42621 0.35934 0.0
C2444 C 0.57279 0.4712 0.312 0.0
C2445 C 0.60559 0.46081 0.30115 0.0
N2446 N 0.53565 0.43975 0.34364 0.0
N2447 N 0.58882 0.44819 0.31806 0.0
H2448 H 0.54211 0.15744 0.28868 0.0
H2449 H 0.56396 0.06918 0.36266 0.0
H2450 H 0.49425 0.08753 0.28977 0.0
H2451 H 0.60071 0.13917 0.37971 0.0
H2452 H 0.53914 0.07539 0.3341 0.0
H2453 H 0.56492 0.15104 0.32026 0.0
C2454 C 0.53633 0.14076 0.29579 0.0
C2455 C 0.51618 0.12302 0.28689 0.0
C2456 C 0.55259 0.08937 0.34416 0.0
C2457 C 0.54229 0.1155 0.32266 0.0
C2458 C 0.56671 0.08584 0.36045 0.0
C2459 C 0.5844 0.10372 0.37344 0.0
C2460 C 0.55636 0.11099 0.34064 0.0
C2461 C 0.58745 0.12501 0.3697 0.0
C2462 C 0.54931 0.13712 0.31383 0.0
C2463 C 0.50945 0.10172 0.29658 0.0
N2464 N 0.57363 0.12808 0.35353 0.0
N2465 N 0.52259 0.09851 0.31383 0.0
H2466 H 0.78672 0.51867 0.77428 0.0
H2467 H 0.73656 0.57246 0.87267 0.0
H2468 H 0.82197 0.58735 0.79776 0.0
H2469 H 0.70772 0.50199 0.86117 0.0
H2470 H 0.76624 0.57879 0.84183 0.0
H2471 H 0.75598 0.51259 0.80324 0.0
C2472 C 0.78799 0.53241 0.78572 0.0
C2473 C 0.80684 0.55348 0.78387 0.0
C2474 C 0.75333 0.56194 0.84593 0.0
C2475 C 0.77178 0.54684 0.81656 0.0
C2476 C 0.73626 0.55835 0.86328 0.0
C2477 C 0.71952 0.53668 0.8691 0.0
C2478 C 0.7536 0.54373 0.83438 0.0
C2479 C 0.72034 0.51896 0.85712 0.0
C2480 C 0.77045 0.52899 0.8021 0.0
C2481 C 0.8076 0.57087 0.79862 0.0
N2482 N 0.73708 0.52287 0.84027 0.0
N2483 N 0.79028 0.56718 0.81437 0.0
H2484 H 0.4183 0.15967 0.86938 0.0
H2485 H 0.47358 0.26573 0.77419 0.0
H2486 H 0.48896 0.20256 0.86077 0.0
H2487 H 0.40383 0.22978 0.79292 0.0
H2488 H 0.47927 0.24083 0.80312 0.0
H2489 H 0.41226 0.18297 0.83813 0.0
C2490 C 0.43253 0.17375 0.86055 0.0
C2491 C 0.45416 0.17904 0.86731 0.0
C2492 C 0.46271 0.23837 0.80094 0.0
C2493 C 0.44741 0.20601 0.83213 0.0
C2494 C 0.45951 0.25263 0.78456 0.0
C2495 C 0.43826 0.24981 0.78142 0.0
C2496 C 0.44448 0.22112 0.81413 0.0
C2497 C 0.42046 0.23238 0.79481 0.0
C2498 C 0.42908 0.18719 0.84295 0.0
C2499 C 0.47201 0.19791 0.85601 0.0
N2500 N 0.42396 0.21866 0.81063 0.0
N2501 N 0.46824 0.2107 0.83893 0.0
H2502 H 0.82961 0.28546 0.84029 0.0
H2503 H 0.71941 0.16797 0.82022 0.0
H2504 H 0.78802 0.24526 0.90442 0.0
H2505 H 0.76373 0.20498 0.75657 0.0
H2506 H 0.74391 0.19687 0.8513 0.0
H2507 H 0.8057 0.25655 0.80914 0.0
C2508 C 0.81577 0.27038 0.84791 0.0
C2509 C 0.8111 0.26756 0.87507 0.0
C2510 C 0.7483 0.19872 0.83054 0.0
C2511 C 0.78319 0.23475 0.83945 0.0
C2512 C 0.73427 0.18232 0.81286 0.0
C2513 C 0.73968 0.18426 0.78597 0.0
C2514 C 0.76783 0.21717 0.82115 0.0
C2515 C 0.75916 0.20295 0.77727 0.0
C2516 C 0.80193 0.25398 0.83006 0.0
C2517 C 0.79229 0.24807 0.88363 0.0
N2518 N 0.77258 0.21873 0.79484 0.0
N2519 N 0.77904 0.23241 0.8659 0.0
H2520 H 0.44738 0.16968 0.31962 0.0
H2521 H 0.45094 0.28561 0.33837 0.0
H2522 H 0.43749 0.20501 0.25596 0.0
H2523 H 0.46277 0.25111 0.40153 0.0
H2524 H 0.44515 0.25592 0.308 0.0
H2525 H 0.45286 0.19931 0.35013 0.0
C2526 C 0.44652 0.1838 0.31212 0.0
C2527 C 0.44204 0.18506 0.28539 0.0
C2528 C 0.44886 0.25477 0.32855 0.0
C2529 C 0.448 0.21879 0.31995 0.0
C2530 C 0.45189 0.27159 0.34596 0.0
C2531 C 0.45681 0.27053 0.37263 0.0
C2532 C 0.45092 0.23686 0.33787 0.0
C2533 C 0.45885 0.25246 0.38113 0.0
C2534 C 0.44953 0.20063 0.32948 0.0
C2535 C 0.44079 0.20347 0.27655 0.0
N2536 N 0.45583 0.2363 0.36382 0.0
N2537 N 0.44374 0.21965 0.29381 0.0
H2538 H 0.82726 0.27257 0.31989 0.0
H2539 H 0.71038 0.16072 0.33571 0.0
H2540 H 0.79056 0.23077 0.25428 0.0
H2541 H 0.74343 0.20699 0.39927 0.0
H2542 H 0.74075 0.18478 0.30599 0.0
H2543 H 0.79761 0.24756 0.34986 0.0
C2544 C 0.81286 0.25812 0.31187 0.0
C2545 C 0.81118 0.25363 0.28473 0.0
C2546 C 0.74144 0.1896 0.32649 0.0
C2547 C 0.77741 0.22491 0.31866 0.0
C2548 C 0.72424 0.17576 0.34348 0.0
C2549 C 0.72471 0.18172 0.37004 0.0
C2550 C 0.75911 0.20954 0.33617 0.0
C2551 C 0.74258 0.20178 0.37892 0.0
C2552 C 0.796 0.24383 0.32891 0.0
C2553 C 0.79241 0.23464 0.2752 0.0
N2554 N 0.75912 0.21496 0.36204 0.0
N2555 N 0.77621 0.22092 0.29216 0.0
H2556 H 0.83432 0.57563 0.37044 0.0
H2557 H 0.72949 0.52072 0.27328 0.0
H2558 H 0.7916 0.50506 0.36126 0.0
H2559 H 0.76438 0.59012 0.29356 0.0
H2560 H 0.75433 0.51502 0.30234 0.0
H2561 H 0.81138 0.58176 0.33869 0.0
C2562 C 0.82036 0.56144 0.36138 0.0
C2563 C 0.815 0.53981 0.36814 0.0
C2564 C 0.75657 0.53151 0.30046 0.0
C2565 C 0.78844 0.54665 0.33237 0.0
C2566 C 0.74235 0.53472 0.28401 0.0
C2567 C 0.74486 0.55586 0.2813 0.0
C2568 C 0.77349 0.54963 0.31415 0.0
C2569 C 0.76202 0.57357 0.29512 0.0
C2570 C 0.80713 0.56494 0.34349 0.0
C2571 C 0.79629 0.52201 0.35651 0.0
N2572 N 0.7757 0.57007 0.31102 0.0
N2573 N 0.7837 0.52582 0.33915 0.0
H2574 H 0.61212 0.15787 0.78891 0.0
H2575 H 0.50169 0.06867 0.86155 0.0
H2576 H 0.58942 0.08782 0.78768 0.0
H2577 H 0.53542 0.13828 0.88076 0.0
H2578 H 0.53259 0.07524 0.83257 0.0
H2579 H 0.58289 0.15105 0.82066 0.0
C2580 C 0.60106 0.14107 0.79553 0.0
C2581 C 0.60333 0.12341 0.78598 0.0
C2582 C 0.53326 0.08906 0.8432 0.0
C2583 C 0.5697 0.11543 0.82194 0.0
C2584 C 0.51568 0.08532 0.85973 0.0
C2585 C 0.51604 0.10299 0.8734 0.0
C2586 C 0.55119 0.11069 0.84015 0.0
C2587 C 0.53439 0.12428 0.87019 0.0
C2588 C 0.58444 0.13719 0.81367 0.0
C2589 C 0.58854 0.10195 0.79503 0.0
N2590 N 0.55121 0.12757 0.85377 0.0
N2591 N 0.57222 0.09852 0.8124 0.0
H2592 H 0.86097 0.44976 0.75373 0.0
H2593 H 0.88795 0.42947 0.90163 0.0
H2594 H 0.87368 0.49526 0.81807 0.0
H2595 H 0.87826 0.38537 0.83679 0.0
H2596 H 0.8818 0.45336 0.87149 0.0
H2597 H 0.86623 0.42541 0.78402 0.0
C2598 C 0.86502 0.45468 0.77423 0.0
C2599 C 0.8674 0.47478 0.78329 0.0
C2600 C 0.88097 0.43846 0.86381 0.0
C2601 C 0.87321 0.44696 0.8181 0.0
C2602 C 0.88451 0.42488 0.88097 0.0
C2603 C 0.88369 0.40559 0.87151 0.0
C2604 C 0.87655 0.43263 0.83699 0.0
C2605 C 0.87891 0.40011 0.84476 0.0
C2606 C 0.86803 0.4408 0.79149 0.0
C2607 C 0.87244 0.4803 0.81004 0.0
N2608 N 0.87557 0.41362 0.82836 0.0
N2609 N 0.8752 0.46645 0.82652 0.0
H2610 H 0.49256 0.40402 0.78789 0.0
H2611 H 0.59692 0.45627 0.88586 0.0
H2612 H 0.53565 0.37682 0.79968 0.0
H2613 H 0.56154 0.48992 0.86357 0.0
H2614 H 0.57214 0.42503 0.85773 0.0
H2615 H 0.51491 0.43353 0.81943 0.0
C2616 C 0.50645 0.40402 0.7975 0.0
C2617 C 0.51213 0.38783 0.79149 0.0
C2618 C 0.56977 0.43923 0.85897 0.0
C2619 C 0.538 0.42171 0.82701 0.0
C2620 C 0.58397 0.45707 0.87488 0.0
C2621 C 0.58133 0.47568 0.87671 0.0
C2622 C 0.55276 0.44001 0.8449 0.0
C2623 C 0.56403 0.47578 0.86263 0.0
C2624 C 0.51935 0.42099 0.81526 0.0
C2625 C 0.53073 0.38901 0.80382 0.0
N2626 N 0.55038 0.4582 0.84723 0.0
N2627 N 0.543 0.40566 0.82101 0.0
H2628 H 0.52021 0.78974 0.7188 0.0
H2629 H 0.57228 0.73665 0.62243 0.0
H2630 H 0.58909 0.82364 0.69587 0.0
H2631 H 0.50224 0.71405 0.62619 0.0
H2632 H 0.57908 0.76551 0.65484 0.0
H2633 H 0.51355 0.75886 0.68974 0.0
C2634 C 0.53387 0.79069 0.70749 0.0
C2635 C 0.55515 0.80926 0.70941 0.0
C2636 C 0.56221 0.75411 0.64871 0.0
C2637 C 0.54785 0.77397 0.67675 0.0
C2638 C 0.55831 0.7375 0.63047 0.0
C2639 C 0.53665 0.72285 0.62191 0.0
C2640 C 0.54429 0.75592 0.65848 0.0
C2641 C 0.5192 0.72507 0.63233 0.0
C2642 C 0.53012 0.77307 0.69107 0.0
C2643 C 0.57244 0.80953 0.69491 0.0
N2644 N 0.52338 0.74129 0.65013 0.0
N2645 N 0.56843 0.79212 0.67915 0.0
H2646 H 0.27117 0.83864 0.64253 0.0
H2647 H 0.19996 0.72244 0.7079 0.0
H2648 H 0.266 0.78032 0.60548 0.0
H2649 H 0.17168 0.76487 0.69884 0.0
H2650 H 0.22984 0.74645 0.67756 0.0
H2651 H 0.23955 0.81472 0.67056 0.0
C2652 C 0.26311 0.82093 0.63962 0.0
C2653 C 0.27083 0.81156 0.62075 0.0
C2654 C 0.21703 0.75041 0.68228 0.0
C2655 C 0.23574 0.78427 0.65419 0.0
C2656 C 0.19995 0.7367 0.6994 0.0
C2657 C 0.18322 0.74157 0.70567 0.0
C2658 C 0.21771 0.76943 0.67203 0.0
C2659 C 0.1844 0.76068 0.69475 0.0
C2660 C 0.24527 0.80732 0.65598 0.0
C2661 C 0.26053 0.78833 0.61949 0.0
N2662 N 0.20151 0.77408 0.67858 0.0
N2663 N 0.24363 0.77548 0.63613 0.0
H2664 H 0.20308 0.49272 0.62928 0.0
H2665 H 0.23032 0.40392 0.69275 0.0
H2666 H 0.16309 0.42235 0.6157 0.0
H2667 H 0.26445 0.47311 0.71401 0.0
H2668 H 0.2055 0.41017 0.66426 0.0
H2669 H 0.22581 0.4858 0.66028 0.0
C2670 C 0.19898 0.47577 0.63304 0.0
C2671 C 0.18103 0.45806 0.62018 0.0
C2672 C 0.21839 0.42399 0.67517 0.0
C2673 C 0.20712 0.45 0.65537 0.0
C2674 C 0.23251 0.42042 0.69141 0.0
C2675 C 0.24943 0.43807 0.70556 0.0
C2676 C 0.22133 0.4454 0.67302 0.0
C2677 C 0.25176 0.45915 0.70308 0.0
C2678 C 0.21194 0.47183 0.65075 0.0
C2679 C 0.17645 0.43644 0.62566 0.0
N2680 N 0.23789 0.46226 0.68705 0.0
N2681 N 0.18952 0.43301 0.64277 0.0
H2682 H 0.49038 0.92781 0.12337 0.0
H2683 H 0.38167 0.83926 0.19937 0.0
H2684 H 0.45824 0.85751 0.10864 0.0
H2685 H 0.40423 0.90929 0.19977 0.0
H2686 H 0.41012 0.84571 0.16673 0.0
H2687 H 0.4594 0.92163 0.15197 0.0
C2688 C 0.4767 0.91109 0.12608 0.0
C2689 C 0.47684 0.89311 0.11386 0.0
C2690 C 0.40871 0.85966 0.1737 0.0
C2691 C 0.4416 0.88587 0.14663 0.0
C2692 C 0.39252 0.85599 0.19236 0.0
C2693 C 0.3905 0.87375 0.20203 0.0
C2694 C 0.42327 0.88133 0.165 0.0
C2695 C 0.40496 0.8951 0.1924 0.0
C2696 C 0.45907 0.90757 0.14239 0.0
C2697 C 0.45889 0.87176 0.11812 0.0
N2698 N 0.4209 0.89834 0.17452 0.0
N2699 N 0.44202 0.86871 0.13429 0.0
H2700 H 0.10656 0.56651 0.08825 0.0
H2701 H 0.13657 0.54618 0.23456 0.0
H2702 H 0.12048 0.61209 0.15273 0.0
H2703 H 0.11866 0.49892 0.17102 0.0
H2704 H 0.13194 0.57112 0.20463 0.0
H2705 H 0.11218 0.54206 0.11798 0.0
C2706 C 0.11083 0.57132 0.10874 0.0
C2707 C 0.11294 0.59117 0.11823 0.0
C2708 C 0.12885 0.55523 0.19727 0.0
C2709 C 0.11949 0.56347 0.15228 0.0
C2710 C 0.13149 0.541 0.21433 0.0
C2711 C 0.12751 0.52027 0.20539 0.0
C2712 C 0.12242 0.54877 0.17097 0.0
C2713 C 0.12118 0.51443 0.17897 0.0
C2714 C 0.11406 0.55741 0.12567 0.0
C2715 C 0.1188 0.59691 0.14474 0.0
N2716 N 0.11883 0.52862 0.16267 0.0
N2717 N 0.12181 0.58305 0.16093 0.0
H2718 H 0.39501 0.53758 0.10332 0.0
H2719 H 0.49997 0.58998 0.20043 0.0
H2720 H 0.43062 0.50409 0.1253 0.0
H2721 H 0.45736 0.61773 0.1886 0.0
H2722 H 0.47714 0.56024 0.16944 0.0
H2723 H 0.41976 0.5688 0.13154 0.0
C2724 C 0.408 0.5368 0.11425 0.0
C2725 C 0.41075 0.51827 0.11224 0.0
C2726 C 0.47289 0.57294 0.17347 0.0
C2727 C 0.43929 0.55392 0.14415 0.0
C2728 C 0.48608 0.59006 0.19092 0.0
C2729 C 0.48071 0.6065 0.19674 0.0
C2730 C 0.45424 0.57229 0.16185 0.0
C2731 C 0.46206 0.60536 0.18458 0.0
C2732 C 0.42218 0.55463 0.13022 0.0
C2733 C 0.42807 0.51819 0.12632 0.0
N2734 N 0.4495 0.58856 0.16768 0.0
N2735 N 0.4417 0.53575 0.14173 0.0
H2736 H 0.15731 0.61753 0.69142 0.0
H2737 H 0.06974 0.50404 0.62167 0.0
H2738 H 0.08656 0.58729 0.7021 0.0
H2739 H 0.14006 0.5379 0.60632 0.0
H2740 H 0.07528 0.53434 0.6511 0.0
H2741 H 0.15115 0.58839 0.6601 0.0
C2742 C 0.14045 0.60481 0.68699 0.0
C2743 C 0.1224 0.60496 0.69907 0.0
C2744 C 0.08951 0.53516 0.64129 0.0
C2745 C 0.11519 0.57141 0.66344 0.0
C2746 C 0.08634 0.51792 0.62453 0.0
C2747 C 0.10452 0.51854 0.6118 0.0
C2748 C 0.11102 0.55306 0.64532 0.0
C2749 C 0.12569 0.53672 0.61614 0.0
C2750 C 0.13693 0.58819 0.66909 0.0
C2751 C 0.1009 0.58808 0.69273 0.0
N2752 N 0.12838 0.55327 0.6326 0.0
N2753 N 0.09788 0.5719 0.67538 0.0
H2754 H 0.40835 0.54153 0.73375 0.0
H2755 H 0.45386 0.56311 0.58502 0.0
H2756 H 0.37508 0.49587 0.66972 0.0
H2757 H 0.48977 0.60553 0.65054 0.0
H2758 H 0.42446 0.53845 0.61552 0.0
H2759 H 0.43803 0.56553 0.70337 0.0
C2760 C 0.40742 0.5365 0.71329 0.0
C2761 C 0.38952 0.51652 0.7043 0.0
C2762 C 0.43875 0.55314 0.62326 0.0
C2763 C 0.42321 0.54396 0.66935 0.0
C2764 C 0.45549 0.56715 0.6059 0.0
C2765 C 0.47413 0.58626 0.61543 0.0
C2766 C 0.4407 0.55838 0.65032 0.0
C2767 C 0.4755 0.59098 0.6425 0.0
C2768 C 0.42435 0.55018 0.69597 0.0
C2769 C 0.38894 0.51083 0.6776 0.0
N2770 N 0.45898 0.57712 0.65904 0.0
N2771 N 0.40556 0.52452 0.66102 0.0
H2772 H 0.4301 0.88655 0.58867 0.0
H2773 H 0.45864 0.87569 0.73893 0.0
H2774 H 0.39938 0.89941 0.65507 0.0
H2775 H 0.49812 0.87599 0.67302 0.0
H2776 H 0.43595 0.88325 0.70846 0.0
H2777 H 0.45479 0.88179 0.61917 0.0
C2778 C 0.42867 0.8884 0.60974 0.0
C2779 C 0.4127 0.89314 0.61958 0.0
C2780 C 0.44972 0.88189 0.70067 0.0
C2781 C 0.44057 0.88765 0.65445 0.0
C2782 C 0.46261 0.87752 0.71803 0.0
C2783 C 0.48046 0.87559 0.70848 0.0
C2784 C 0.45452 0.88398 0.67351 0.0
C2785 C 0.48489 0.87797 0.68127 0.0
C2786 C 0.4427 0.8857 0.6271 0.0
C2787 C 0.41133 0.89541 0.6469 0.0
N2788 N 0.47192 0.88195 0.66468 0.0
N2789 N 0.42504 0.89252 0.66346 0.0
H2790 H 0.16922 0.40421 0.1905 0.0
H2791 H 0.28477 0.4919 0.12509 0.0
H2792 H 0.20483 0.47355 0.21105 0.0
H2793 H 0.25554 0.42119 0.11564 0.0
H2794 H 0.2548 0.48561 0.15529 0.0
H2795 H 0.19995 0.4101 0.1616 0.0
C2796 C 0.18357 0.42067 0.18889 0.0
C2797 C 0.18457 0.43846 0.203 0.0
C2798 C 0.25503 0.47144 0.14682 0.0
C2799 C 0.21958 0.44538 0.17002 0.0
C2800 C 0.2721 0.47503 0.12956 0.0
C2801 C 0.27278 0.45702 0.11821 0.0
C2802 C 0.23832 0.44968 0.15245 0.0
C2803 C 0.25593 0.43551 0.1245 0.0
C2804 C 0.20106 0.42403 0.17243 0.0
C2805 C 0.20335 0.45949 0.20017 0.0
N2806 N 0.2393 0.43243 0.14115 0.0
N2807 N 0.22013 0.46239 0.18394 0.0
H2808 H 0.59143 0.76466 0.19485 0.0
H2809 H 0.50341 0.79396 0.13311 0.0
H2810 H 0.52184 0.72976 0.21443 0.0
H2811 H 0.57399 0.83412 0.12081 0.0
H2812 H 0.50991 0.7702 0.16287 0.0
H2813 H 0.58556 0.79032 0.16747 0.0
C2814 C 0.57492 0.76247 0.19336 0.0
C2815 C 0.55705 0.7451 0.20672 0.0
C2816 C 0.52402 0.78434 0.1539 0.0
C2817 C 0.55016 0.77416 0.17548 0.0
C2818 C 0.52031 0.79789 0.1369 0.0
C2819 C 0.53821 0.81619 0.12478 0.0
C2820 C 0.5458 0.78893 0.15855 0.0
C2821 C 0.55976 0.8205 0.13025 0.0
C2822 C 0.57157 0.77707 0.17776 0.0
C2823 C 0.53597 0.7428 0.2041 0.0
N2824 N 0.56296 0.80688 0.14666 0.0
N2825 N 0.53308 0.75715 0.18872 0.0
H2826 H 0.27456 0.83013 0.17177 0.0
H2827 H 0.16794 0.71013 0.15043 0.0
H2828 H 0.23234 0.79019 0.23545 0.0
H2829 H 0.20776 0.75256 0.08663 0.0
H2830 H 0.19121 0.73899 0.18199 0.0
H2831 H 0.25056 0.80138 0.14026 0.0
C2832 C 0.26024 0.8152 0.17903 0.0
C2833 C 0.25529 0.81238 0.20606 0.0
C2834 C 0.19473 0.74205 0.16106 0.0
C2835 C 0.22773 0.77957 0.1704 0.0
C2836 C 0.18125 0.72566 0.14298 0.0
C2837 C 0.18559 0.72913 0.11578 0.0
C2838 C 0.21278 0.76194 0.15187 0.0
C2839 C 0.20376 0.74923 0.10743 0.0
C2840 C 0.2465 0.79886 0.16111 0.0
C2841 C 0.23653 0.79292 0.21464 0.0
N2842 N 0.21667 0.76487 0.12538 0.0
N2843 N 0.22339 0.7772 0.19684 0.0
loop_
_geom_bond_atom_site_label_1
_geom_bond_atom_site_label_2
_geom_bond_distance
_geom_bond_site_symmetry_2
_ccdc_geom_bond_type
Co0 O3 1.970 . S
Co0 N17 1.989 . S
Co0 O25 1.967 . S
Co0 O32 1.920 . S
Co1 O4 1.966 . S
Co1 N10 2.022 . S
Co1 N18 1.993 . S
Co1 O26 1.941 . S
C2 O3 1.258 . S
C2 O4 1.263 . S
O3 Co0 1.970 . S
O3 C2 1.258 . S
O4 Co1 1.966 . S
O4 C2 1.263 . S
C5 O6 1.235 . S
C5 O32 1.289 . S
O6 C5 1.235 . S
C7 C9 1.400 . S
C7 N10 1.351 . S
C7 C12 1.501 . S
C8 C9 1.387 . S
C8 N11 1.341 . S
C9 C7 1.400 . S
C9 C8 1.387 . S
N10 Co1 2.022 . S
N10 C7 1.351 . S
N10 N11 1.365 . S
N11 C8 1.341 . S
N11 N10 1.365 . S
N11 H31 0.862 . S
C12 C7 1.501 . S
C12 H13 0.961 . S
C12 H14 0.961 . S
C12 H15 0.960 . S
H13 C12 0.961 . S
H14 C12 0.961 . S
H15 C12 0.960 . S
C16 N17 1.342 . S
C16 C20 1.401 . S
C16 C21 1.499 . S
N17 Co0 1.989 . S
N17 C16 1.342 . S
N17 N18 1.388 . S
N18 Co1 1.993 . S
N18 N17 1.388 . S
N18 C19 1.346 . S
C19 N18 1.346 . S
C19 C20 1.396 . S
C19 C29 1.510 . S
C20 C16 1.401 . S
C20 C19 1.396 . S
C21 C16 1.499 . S
C21 H22 0.959 . S
C21 H23 0.960 . S
C21 H24 0.961 . S
H22 C21 0.959 . S
H23 C21 0.960 . S
H24 C21 0.961 . S
O25 Co0 1.967 . S
O25 C33 1.258 . S
O26 Co1 1.941 . S
O26 C33 1.266 . S
H27 C29 0.959 . S
H28 C29 0.961 . S
C29 C19 1.510 . S
C29 H27 0.959 . S
C29 H28 0.961 . S
C29 H30 0.960 . S
H30 C29 0.960 . S
H31 N11 0.862 . S
O32 Co0 1.920 . S
O32 C5 1.289 . S
C33 O25 1.258 . S
C33 O26 1.266 . S
Co34 O37 1.970 . S
Co34 N51 1.989 . S
Co34 O59 1.967 . S
Co34 O66 1.920 . S
Co35 O38 1.966 . S
Co35 N44 2.022 1_545 S
Co35 N52 1.993 . S
Co35 O60 1.941 . S
C36 O37 1.258 . S
C36 O38 1.263 . S
O37 Co34 1.970 . S
O37 C36 1.258 . S
O38 Co35 1.966 . S
O38 C36 1.263 . S
C39 O40 1.235 . S
C39 O66 1.289 . S
O40 C39 1.235 . S
C41 C43 1.400 . S
C41 N44 1.351 . S
C41 C46 1.501 . S
C42 C43 1.387 . S
C42 N45 1.341 . S
C43 C41 1.400 . S
C43 C42 1.387 . S
N44 Co35 2.022 1_565 S
N44 C41 1.351 . S
N44 N45 1.365 . S
N45 C42 1.341 . S
N45 N44 1.365 . S
N45 H65 0.862 . S
C46 C41 1.501 . S
C46 H47 0.961 . S
C46 H48 0.961 . S
C46 H49 0.960 . S
H47 C46 0.961 . S
H48 C46 0.961 . S
H49 C46 0.960 . S
C50 N51 1.342 . S
C50 C54 1.401 . S
C50 C55 1.499 . S
N51 Co34 1.989 . S
N51 C50 1.342 . S
N51 N52 1.388 . S
N52 Co35 1.993 . S
N52 N51 1.388 . S
N52 C53 1.346 . S
C53 N52 1.346 . S
C53 C54 1.396 . S
C53 C63 1.510 . S
C54 C50 1.401 . S
C54 C53 1.396 . S
C55 C50 1.499 . S
C55 H56 0.959 . S
C55 H57 0.960 . S
C55 H58 0.961 . S
H56 C55 0.959 . S
H57 C55 0.960 . S
H58 C55 0.961 . S
O59 Co34 1.967 . S
O59 C67 1.258 . S
O60 Co35 1.941 . S
O60 C67 1.266 . S
H61 C63 0.959 . S
H62 C63 0.961 . S
C63 C53 1.510 . S
C63 H61 0.959 . S
C63 H62 0.961 . S
C63 H64 0.960 . S
H64 C63 0.960 . S
H65 N45 0.862 . S
O66 Co34 1.920 . S
O66 C39 1.289 . S
C67 O59 1.258 . S
C67 O60 1.266 . S
Co68 O71 1.970 . S
Co68 N85 1.989 . S
Co68 O93 1.967 . S
Co68 O100 1.920 . S
Co69 O72 1.966 . S
Co69 N78 2.022 1_655 S
Co69 N86 1.993 . S
Co69 O94 1.941 . S
C70 O71 1.258 . S
C70 O72 1.263 . S
O71 Co68 1.970 . S
O71 C70 1.258 . S
O72 Co69 1.966 . S
O72 C70 1.263 . S
C73 O74 1.235 . S
C73 O100 1.289 . S
O74 C73 1.235 . S
C75 C77 1.400 . S
C75 N78 1.351 . S
C75 C80 1.501 . S
C76 C77 1.387 . S
C76 N79 1.341 . S
C77 C75 1.400 . S
C77 C76 1.387 . S
N78 Co69 2.022 1_455 S
N78 C75 1.351 . S
N78 N79 1.365 . S
N79 C76 1.341 . S
N79 N78 1.365 . S
N79 H99 0.862 . S
C80 C75 1.501 . S
C80 H81 0.961 . S
C80 H82 0.961 . S
C80 H83 0.960 . S
H81 C80 0.961 . S
H82 C80 0.961 . S
H83 C80 0.960 . S
C84 N85 1.342 . S
C84 C88 1.401 . S
C84 C89 1.499 . S
N85 Co68 1.989 . S
N85 C84 1.342 . S
N85 N86 1.388 . S
N86 Co69 1.993 . S
N86 N85 1.388 . S
N86 C87 1.346 . S
C87 N86 1.346 . S
C87 C88 1.396 . S
C87 C97 1.510 . S
C88 C84 1.401 . S
C88 C87 1.396 . S
C89 C84 1.499 . S
C89 H90 0.959 . S
C89 H91 0.960 . S
C89 H92 0.961 . S
H90 C89 0.959 . S
H91 C89 0.960 . S
H92 C89 0.961 . S
O93 Co68 1.967 . S
O93 C101 1.258 . S
O94 Co69 1.941 . S
O94 C101 1.266 . S
H95 C97 0.959 . S
H96 C97 0.961 . S
C97 C87 1.510 . S
C97 H95 0.959 . S
C97 H96 0.961 . S
C97 H98 0.960 . S
H98 C97 0.960 . S
H99 N79 0.862 . S
O100 Co68 1.920 . S
O100 C73 1.289 . S
C101 O93 1.258 . S
C101 O94 1.266 . S
Co102 O105 1.970 . S
Co102 N119 1.989 . S
Co102 O127 1.967 . S
Co102 O134 1.920 . S
Co103 O106 1.966 . S
Co103 N112 2.022 . S
Co103 N120 1.993 . S
Co103 O128 1.941 . S
C104 O105 1.258 . S
C104 O106 1.263 . S
O105 Co102 1.970 . S
O105 C104 1.258 . S
O106 Co103 1.966 . S
O106 C104 1.263 . S
C107 O108 1.235 . S
C107 O134 1.289 . S
O108 C107 1.235 . S
C109 C111 1.400 . S
C109 N112 1.351 . S
C109 C114 1.501 . S
C110 C111 1.387 . S
C110 N113 1.341 . S
C111 C109 1.400 . S
C111 C110 1.387 . S
N112 Co103 2.022 . S
N112 C109 1.351 . S
N112 N113 1.365 . S
N113 C110 1.341 . S
N113 N112 1.365 . S
N113 H133 0.862 . S
C114 C109 1.501 . S
C114 H115 0.961 . S
C114 H116 0.961 . S
C114 H117 0.960 . S
H115 C114 0.961 . S
H116 C114 0.961 . S
H117 C114 0.960 . S
C118 N119 1.342 . S
C118 C122 1.401 . S
C118 C123 1.499 . S
N119 Co102 1.989 . S
N119 C118 1.342 . S
N119 N120 1.388 . S
N120 Co103 1.993 . S
N120 N119 1.388 . S
N120 C121 1.346 . S
C121 N120 1.346 . S
C121 C122 1.396 . S
C121 C131 1.510 . S
C122 C118 1.401 . S
C122 C121 1.396 . S
C123 C118 1.499 . S
C123 H124 0.959 . S
C123 H125 0.960 . S
C123 H126 0.961 . S
H124 C123 0.959 . S
H125 C123 0.960 . S
H126 C123 0.961 . S
O127 Co102 1.967 . S
O127 C135 1.258 . S
O128 Co103 1.941 . S
O128 C135 1.266 . S
H129 C131 0.959 . S
H130 C131 0.961 . S
C131 C121 1.510 . S
C131 H129 0.959 . S
C131 H130 0.961 . S
C131 H132 0.960 . S
H132 C131 0.960 . S
H133 N113 0.862 . S
O134 Co102 1.920 . S
O134 C107 1.289 . S
C135 O127 1.258 . S
C135 O128 1.266 . S
Co136 O139 1.970 . S
Co136 N153 1.989 . S
Co136 O161 1.967 . S
Co136 O168 1.920 . S
Co137 O140 1.966 . S
Co137 N146 2.022 1_565 S
Co137 N154 1.993 . S
Co137 O162 1.941 . S
C138 O139 1.258 . S
C138 O140 1.263 . S
O139 Co136 1.970 . S
O139 C138 1.258 . S
O140 Co137 1.966 . S
O140 C138 1.263 . S
C141 O142 1.235 . S
C141 O168 1.289 . S
O142 C141 1.235 . S
C143 C145 1.400 . S
C143 N146 1.351 . S
C143 C148 1.501 . S
C144 C145 1.387 . S
C144 N147 1.341 . S
C145 C143 1.400 . S
C145 C144 1.387 . S
N146 Co137 2.022 1_545 S
N146 C143 1.351 . S
N146 N147 1.365 . S
N147 C144 1.341 . S
N147 N146 1.365 . S
N147 H167 0.862 . S
C148 C143 1.501 . S
C148 H149 0.961 . S
C148 H150 0.961 . S
C148 H151 0.960 . S
H149 C148 0.961 . S
H150 C148 0.961 . S
H151 C148 0.960 . S
C152 N153 1.342 . S
C152 C156 1.401 . S
C152 C157 1.499 . S
N153 Co136 1.989 . S
N153 C152 1.342 . S
N153 N154 1.388 . S
N154 Co137 1.993 . S
N154 N153 1.388 . S
N154 C155 1.346 . S
C155 N154 1.346 . S
C155 C156 1.396 . S
C155 C165 1.510 . S
C156 C152 1.401 . S
C156 C155 1.396 . S
C157 C152 1.499 . S
C157 H158 0.959 . S
C157 H159 0.960 . S
C157 H160 0.961 . S
H158 C157 0.959 . S
H159 C157 0.960 . S
H160 C157 0.961 . S
O161 Co136 1.967 . S
O161 C169 1.258 . S
O162 Co137 1.941 . S
O162 C169 1.266 . S
H163 C165 0.959 . S
H164 C165 0.961 . S
C165 C155 1.510 . S
C165 H163 0.959 . S
C165 H164 0.961 . S
C165 H166 0.960 . S
H166 C165 0.960 . S
H167 N147 0.862 . S
O168 Co136 1.920 . S
O168 C141 1.289 . S
C169 O161 1.258 . S
C169 O162 1.266 . S
Co170 O173 1.970 . S
Co170 N187 1.989 . S
Co170 O195 1.967 . S
Co170 O202 1.920 . S
Co171 O174 1.966 . S
Co171 N180 2.022 1_455 S
Co171 N188 1.993 . S
Co171 O196 1.941 . S
C172 O173 1.258 . S
C172 O174 1.263 . S
O173 Co170 1.970 . S
O173 C172 1.258 . S
O174 Co171 1.966 . S
O174 C172 1.263 . S
C175 O176 1.235 . S
C175 O202 1.289 . S
O176 C175 1.235 . S
C177 C179 1.400 . S
C177 N180 1.351 . S
C177 C182 1.501 . S
C178 C179 1.387 . S
C178 N181 1.341 . S
C179 C177 1.400 . S
C179 C178 1.387 . S
N180 Co171 2.022 1_655 S
N180 C177 1.351 . S
N180 N181 1.365 . S
N181 C178 1.341 . S
N181 N180 1.365 . S
N181 H201 0.862 . S
C182 C177 1.501 . S
C182 H183 0.961 . S
C182 H184 0.961 . S
C182 H185 0.960 . S
H183 C182 0.961 . S
H184 C182 0.961 . S
H185 C182 0.960 . S
C186 N187 1.342 . S
C186 C190 1.401 . S
C186 C191 1.499 . S
N187 Co170 1.989 . S
N187 C186 1.342 . S
N187 N188 1.388 . S
N188 Co171 1.993 . S
N188 N187 1.388 . S
N188 C189 1.346 . S
C189 N188 1.346 . S
C189 C190 1.396 . S
C189 C199 1.510 . S
C190 C186 1.401 . S
C190 C189 1.396 . S
C191 C186 1.499 . S
C191 H192 0.959 . S
C191 H193 0.960 . S
C191 H194 0.961 . S
H192 C191 0.959 . S
H193 C191 0.960 . S
H194 C191 0.961 . S
O195 Co170 1.967 . S
O195 C203 1.258 . S
O196 Co171 1.941 . S
O196 C203 1.266 . S
H197 C199 0.959 . S
H198 C199 0.961 . S
C199 C189 1.510 . S
C199 H197 0.959 . S
C199 H198 0.961 . S
C199 H200 0.960 . S
H200 C199 0.960 . S
H201 N181 0.862 . S
O202 Co170 1.920 . S
O202 C175 1.289 . S
C203 O195 1.258 . S
C203 O196 1.266 . S
Co204 O207 1.970 . S
Co204 N221 1.989 . S
Co204 O229 1.967 . S
Co204 O236 1.920 . S
Co205 O208 1.966 . S
Co205 N214 2.022 . S
Co205 N222 1.993 . S
Co205 O230 1.941 . S
C206 O207 1.258 . S
C206 O208 1.263 . S
O207 Co204 1.970 . S
O207 C206 1.258 . S
O208 Co205 1.966 . S
O208 C206 1.263 . S
C209 O210 1.235 . S
C209 O236 1.289 . S
O210 C209 1.235 . S
C211 C213 1.400 . S
C211 N214 1.351 . S
C211 C216 1.501 . S
C212 C213 1.387 . S
C212 N215 1.341 . S
C213 C211 1.400 . S
C213 C212 1.387 . S
N214 Co205 2.022 . S
N214 C211 1.351 . S
N214 N215 1.365 . S
N215 C212 1.341 . S
N215 N214 1.365 . S
N215 H235 0.862 . S
C216 C211 1.501 . S
C216 H217 0.961 . S
C216 H218 0.961 . S
C216 H219 0.960 . S
H217 C216 0.961 . S
H218 C216 0.961 . S
H219 C216 0.960 . S
C220 N221 1.342 . S
C220 C224 1.401 . S
C220 C225 1.499 . S
N221 Co204 1.989 . S
N221 C220 1.342 . S
N221 N222 1.388 . S
N222 Co205 1.993 . S
N222 N221 1.388 . S
N222 C223 1.346 . S
C223 N222 1.346 . S
C223 C224 1.396 . S
C223 C233 1.510 . S
C224 C220 1.401 . S
C224 C223 1.396 . S
C225 C220 1.499 . S
C225 H226 0.959 . S
C225 H227 0.960 . S
C225 H228 0.961 . S
H226 C225 0.959 . S
H227 C225 0.960 . S
H228 C225 0.961 . S
O229 Co204 1.967 . S
O229 C237 1.258 . S
O230 Co205 1.941 . S
O230 C237 1.266 . S
H231 C233 0.959 . S
H232 C233 0.961 . S
C233 C223 1.510 . S
C233 H231 0.959 . S
C233 H232 0.961 . S
C233 H234 0.960 . S
H234 C233 0.960 . S
H235 N215 0.862 . S
O236 Co204 1.920 . S
O236 C209 1.289 . S
C237 O229 1.258 . S
C237 O230 1.266 . S
Co238 O241 1.970 . S
Co238 N255 1.989 . S
Co238 O263 1.967 . S
Co238 O270 1.920 . S
Co239 O242 1.966 . S
Co239 N248 2.022 1_565 S
Co239 N256 1.993 . S
Co239 O264 1.941 . S
C240 O241 1.258 . S
C240 O242 1.263 . S
O241 Co238 1.970 . S
O241 C240 1.258 . S
O242 Co239 1.966 . S
O242 C240 1.263 . S
C243 O244 1.235 . S
C243 O270 1.289 . S
O244 C243 1.235 . S
C245 C247 1.400 . S
C245 N248 1.351 . S
C245 C250 1.501 . S
C246 C247 1.387 . S
C246 N249 1.341 . S
C247 C245 1.400 . S
C247 C246 1.387 . S
N248 Co239 2.022 1_545 S
N248 C245 1.351 . S
N248 N249 1.365 . S
N249 C246 1.341 . S
N249 N248 1.365 . S
N249 H269 0.862 . S
C250 C245 1.501 . S
C250 H251 0.961 . S
C250 H252 0.961 . S
C250 H253 0.960 . S
H251 C250 0.961 . S
H252 C250 0.961 . S
H253 C250 0.960 . S
C254 N255 1.342 . S
C254 C258 1.401 . S
C254 C259 1.499 . S
N255 Co238 1.989 . S
N255 C254 1.342 . S
N255 N256 1.388 . S
N256 Co239 1.993 . S
N256 N255 1.388 . S
N256 C257 1.346 . S
C257 N256 1.346 . S
C257 C258 1.396 . S
C257 C267 1.510 . S
C258 C254 1.401 . S
C258 C257 1.396 . S
C259 C254 1.499 . S
C259 H260 0.959 . S
C259 H261 0.960 . S
C259 H262 0.961 . S
H260 C259 0.959 . S
H261 C259 0.960 . S
H262 C259 0.961 . S
O263 Co238 1.967 . S
O263 C271 1.258 . S
O264 Co239 1.941 . S
O264 C271 1.266 . S
H265 C267 0.959 . S
H266 C267 0.961 . S
C267 C257 1.510 . S
C267 H265 0.959 . S
C267 H266 0.961 . S
C267 H268 0.960 . S
H268 C267 0.960 . S
H269 N249 0.862 . S
O270 Co238 1.920 . S
O270 C243 1.289 . S
C271 O263 1.258 . S
C271 O264 1.266 . S
Co272 O275 1.970 . S
Co272 N289 1.989 . S
Co272 O297 1.967 . S
Co272 O304 1.920 . S
Co273 O276 1.966 . S
Co273 N282 2.022 1_455 S
Co273 N290 1.993 . S
Co273 O298 1.941 . S
C274 O275 1.258 . S
C274 O276 1.263 . S
O275 Co272 1.970 . S
O275 C274 1.258 . S
O276 Co273 1.966 . S
O276 C274 1.263 . S
C277 O278 1.235 . S
C277 O304 1.289 . S
O278 C277 1.235 . S
C279 C281 1.400 . S
C279 N282 1.351 . S
C279 C284 1.501 . S
C280 C281 1.387 . S
C280 N283 1.341 . S
C281 C279 1.400 . S
C281 C280 1.387 . S
N282 Co273 2.022 1_655 S
N282 C279 1.351 . S
N282 N283 1.365 . S
N283 C280 1.341 . S
N283 N282 1.365 . S
N283 H303 0.862 . S
C284 C279 1.501 . S
C284 H285 0.961 . S
C284 H286 0.961 . S
C284 H287 0.960 . S
H285 C284 0.961 . S
H286 C284 0.961 . S
H287 C284 0.960 . S
C288 N289 1.342 . S
C288 C292 1.401 . S
C288 C293 1.499 . S
N289 Co272 1.989 . S
N289 C288 1.342 . S
N289 N290 1.388 . S
N290 Co273 1.993 . S
N290 N289 1.388 . S
N290 C291 1.346 . S
C291 N290 1.346 . S
C291 C292 1.396 . S
C291 C301 1.510 . S
C292 C288 1.401 . S
C292 C291 1.396 . S
C293 C288 1.499 . S
C293 H294 0.959 . S
C293 H295 0.960 . S
C293 H296 0.961 . S
H294 C293 0.959 . S
H295 C293 0.960 . S
H296 C293 0.961 . S
O297 Co272 1.967 . S
O297 C305 1.258 . S
O298 Co273 1.941 . S
O298 C305 1.266 . S
H299 C301 0.959 . S
H300 C301 0.961 . S
C301 C291 1.510 . S
C301 H299 0.959 . S
C301 H300 0.961 . S
C301 H302 0.960 . S
H302 C301 0.960 . S
H303 N283 0.862 . S
O304 Co272 1.920 . S
O304 C277 1.289 . S
C305 O297 1.258 . S
C305 O298 1.266 . S
Co306 O309 1.970 . S
Co306 N323 1.989 . S
Co306 O331 1.967 . S
Co306 O338 1.920 . S
Co307 O310 1.966 . S
Co307 N316 2.022 . S
Co307 N324 1.993 . S
Co307 O332 1.941 . S
C308 O309 1.258 . S
C308 O310 1.263 . S
O309 Co306 1.970 . S
O309 C308 1.258 . S
O310 Co307 1.966 . S
O310 C308 1.263 . S
C311 O312 1.235 . S
C311 O338 1.289 . S
O312 C311 1.235 . S
C313 C315 1.400 . S
C313 N316 1.351 . S
C313 C318 1.501 . S
C314 C315 1.387 . S
C314 N317 1.341 . S
C315 C313 1.400 . S
C315 C314 1.387 . S
N316 Co307 2.022 . S
N316 C313 1.351 . S
N316 N317 1.365 . S
N317 C314 1.341 . S
N317 N316 1.365 . S
N317 H337 0.862 . S
C318 C313 1.501 . S
C318 H319 0.961 . S
C318 H320 0.961 . S
C318 H321 0.960 . S
H319 C318 0.961 . S
H320 C318 0.961 . S
H321 C318 0.960 . S
C322 N323 1.342 . S
C322 C326 1.401 . S
C322 C327 1.499 . S
N323 Co306 1.989 . S
N323 C322 1.342 . S
N323 N324 1.388 . S
N324 Co307 1.993 . S
N324 N323 1.388 . S
N324 C325 1.346 . S
C325 N324 1.346 . S
C325 C326 1.396 . S
C325 C335 1.510 . S
C326 C322 1.401 . S
C326 C325 1.396 . S
C327 C322 1.499 . S
C327 H328 0.959 . S
C327 H329 0.960 . S
C327 H330 0.961 . S
H328 C327 0.959 . S
H329 C327 0.960 . S
H330 C327 0.961 . S
O331 Co306 1.967 . S
O331 C339 1.258 . S
O332 Co307 1.941 . S
O332 C339 1.266 . S
H333 C335 0.959 . S
H334 C335 0.961 . S
C335 C325 1.510 . S
C335 H333 0.959 . S
C335 H334 0.961 . S
C335 H336 0.960 . S
H336 C335 0.960 . S
H337 N317 0.862 . S
O338 Co306 1.920 . S
O338 C311 1.289 . S
C339 O331 1.258 . S
C339 O332 1.266 . S
Co340 O343 1.970 . S
Co340 N357 1.989 . S
Co340 O365 1.967 . S
Co340 O372 1.920 . S
Co341 O344 1.966 . S
Co341 N350 2.022 1_545 S
Co341 N358 1.993 . S
Co341 O366 1.941 . S
C342 O343 1.258 . S
C342 O344 1.263 . S
O343 Co340 1.970 . S
O343 C342 1.258 . S
O344 Co341 1.966 . S
O344 C342 1.263 . S
C345 O346 1.235 . S
C345 O372 1.289 . S
O346 C345 1.235 . S
C347 C349 1.400 . S
C347 N350 1.351 . S
C347 C352 1.501 . S
C348 C349 1.387 . S
C348 N351 1.341 . S
C349 C347 1.400 . S
C349 C348 1.387 . S
N350 Co341 2.022 1_565 S
N350 C347 1.351 . S
N350 N351 1.365 . S
N351 C348 1.341 . S
N351 N350 1.365 . S
N351 H371 0.862 . S
C352 C347 1.501 . S
C352 H353 0.961 . S
C352 H354 0.961 . S
C352 H355 0.960 . S
H353 C352 0.961 . S
H354 C352 0.961 . S
H355 C352 0.960 . S
C356 N357 1.342 . S
C356 C360 1.401 . S
C356 C361 1.499 . S
N357 Co340 1.989 . S
N357 C356 1.342 . S
N357 N358 1.388 . S
N358 Co341 1.993 . S
N358 N357 1.388 . S
N358 C359 1.346 . S
C359 N358 1.346 . S
C359 C360 1.396 . S
C359 C369 1.510 . S
C360 C356 1.401 . S
C360 C359 1.396 . S
C361 C356 1.499 . S
C361 H362 0.959 . S
C361 H363 0.960 . S
C361 H364 0.961 . S
H362 C361 0.959 . S
H363 C361 0.960 . S
H364 C361 0.961 . S
O365 Co340 1.967 . S
O365 C373 1.258 . S
O366 Co341 1.941 . S
O366 C373 1.266 . S
H367 C369 0.959 . S
H368 C369 0.961 . S
C369 C359 1.510 . S
C369 H367 0.959 . S
C369 H368 0.961 . S
C369 H370 0.960 . S
H370 C369 0.960 . S
H371 N351 0.862 . S
O372 Co340 1.920 . S
O372 C345 1.289 . S
C373 O365 1.258 . S
C373 O366 1.266 . S
Co374 O377 1.970 . S
Co374 N391 1.989 . S
Co374 O399 1.967 . S
Co374 O406 1.920 . S
Co375 O378 1.966 . S
Co375 N384 2.022 1_655 S
Co375 N392 1.993 . S
Co375 O400 1.941 . S
C376 O377 1.258 . S
C376 O378 1.263 . S
O377 Co374 1.970 . S
O377 C376 1.258 . S
O378 Co375 1.966 . S
O378 C376 1.263 . S
C379 O380 1.235 . S
C379 O406 1.289 . S
O380 C379 1.235 . S
C381 C383 1.400 . S
C381 N384 1.351 . S
C381 C386 1.501 . S
C382 C383 1.387 . S
C382 N385 1.341 . S
C383 C381 1.400 . S
C383 C382 1.387 . S
N384 Co375 2.022 1_455 S
N384 C381 1.351 . S
N384 N385 1.365 . S
N385 C382 1.341 . S
N385 N384 1.365 . S
N385 H405 0.862 . S
C386 C381 1.501 . S
C386 H387 0.961 . S
C386 H388 0.961 . S
C386 H389 0.960 . S
H387 C386 0.961 . S
H388 C386 0.961 . S
H389 C386 0.960 . S
C390 N391 1.342 . S
C390 C394 1.401 . S
C390 C395 1.499 . S
N391 Co374 1.989 . S
N391 C390 1.342 . S
N391 N392 1.388 . S
N392 Co375 1.993 . S
N392 N391 1.388 . S
N392 C393 1.346 . S
C393 N392 1.346 . S
C393 C394 1.396 . S
C393 C403 1.510 . S
C394 C390 1.401 . S
C394 C393 1.396 . S
C395 C390 1.499 . S
C395 H396 0.959 . S
C395 H397 0.960 . S
C395 H398 0.961 . S
H396 C395 0.959 . S
H397 C395 0.960 . S
H398 C395 0.961 . S
O399 Co374 1.967 . S
O399 C407 1.258 . S
O400 Co375 1.941 . S
O400 C407 1.266 . S
H401 C403 0.959 . S
H402 C403 0.961 . S
C403 C393 1.510 . S
C403 H401 0.959 . S
C403 H402 0.961 . S
C403 H404 0.960 . S
H404 C403 0.960 . S
H405 N385 0.862 . S
O406 Co374 1.920 . S
O406 C379 1.289 . S
C407 O399 1.258 . S
C407 O400 1.266 . S
Co408 O411 1.970 . S
Co408 N425 1.989 . S
Co408 O433 1.967 . S
Co408 O440 1.920 . S
Co409 O412 1.966 . S
Co409 N418 2.022 . S
Co409 N426 1.993 . S
Co409 O434 1.941 . S
C410 O411 1.258 . S
C410 O412 1.263 . S
O411 Co408 1.970 . S
O411 C410 1.258 . S
O412 Co409 1.966 . S
O412 C410 1.263 . S
C413 O414 1.235 . S
C413 O440 1.289 . S
O414 C413 1.235 . S
C415 C417 1.400 . S
C415 N418 1.351 . S
C415 C420 1.501 . S
C416 C417 1.387 . S
C416 N419 1.341 . S
C417 C415 1.400 . S
C417 C416 1.387 . S
N418 Co409 2.022 . S
N418 C415 1.351 . S
N418 N419 1.365 . S
N419 C416 1.341 . S
N419 N418 1.365 . S
N419 H439 0.862 . S
C420 C415 1.501 . S
C420 H421 0.961 . S
C420 H422 0.961 . S
C420 H423 0.960 . S
H421 C420 0.961 . S
H422 C420 0.961 . S
H423 C420 0.960 . S
C424 N425 1.342 . S
C424 C428 1.401 . S
C424 C429 1.499 . S
N425 Co408 1.989 . S
N425 C424 1.342 . S
N425 N426 1.388 . S
N426 Co409 1.993 . S
N426 N425 1.388 . S
N426 C427 1.346 . S
C427 N426 1.346 . S
C427 C428 1.396 . S
C427 C437 1.510 . S
C428 C424 1.401 . S
C428 C427 1.396 . S
C429 C424 1.499 . S
C429 H430 0.959 . S
C429 H431 0.960 . S
C429 H432 0.961 . S
H430 C429 0.959 . S
H431 C429 0.960 . S
H432 C429 0.961 . S
O433 Co408 1.967 . S
O433 C441 1.258 . S
O434 Co409 1.941 . S
O434 C441 1.266 . S
H435 C437 0.959 . S
H436 C437 0.961 . S
C437 C427 1.510 . S
C437 H435 0.959 . S
C437 H436 0.961 . S
C437 H438 0.960 . S
H438 C437 0.960 . S
H439 N419 0.862 . S
O440 Co408 1.920 . S
O440 C413 1.289 . S
C441 O433 1.258 . S
C441 O434 1.266 . S
Co442 O445 1.970 . S
Co442 N459 1.989 . S
Co442 O467 1.967 . S
Co442 O474 1.920 . S
Co443 O446 1.966 . S
Co443 N452 2.022 . S
Co443 N460 1.993 . S
Co443 O468 1.941 . S
C444 O445 1.258 . S
C444 O446 1.263 . S
O445 Co442 1.970 . S
O445 C444 1.258 . S
O446 Co443 1.966 . S
O446 C444 1.263 . S
C447 O448 1.235 . S
C447 O474 1.289 . S
O448 C447 1.235 . S
C449 C451 1.400 . S
C449 N452 1.351 . S
C449 C454 1.501 . S
C450 C451 1.387 . S
C450 N453 1.341 . S
C451 C449 1.400 . S
C451 C450 1.387 . S
N452 Co443 2.022 . S
N452 C449 1.351 . S
N452 N453 1.365 . S
N453 C450 1.341 . S
N453 N452 1.365 . S
N453 H473 0.862 . S
C454 C449 1.501 . S
C454 H455 0.961 . S
C454 H456 0.961 . S
C454 H457 0.960 . S
H455 C454 0.961 . S
H456 C454 0.961 . S
H457 C454 0.960 . S
C458 N459 1.342 . S
C458 C462 1.401 . S
C458 C463 1.499 . S
N459 Co442 1.989 . S
N459 C458 1.342 . S
N459 N460 1.388 . S
N460 Co443 1.993 . S
N460 N459 1.388 . S
N460 C461 1.346 . S
C461 N460 1.346 . S
C461 C462 1.396 . S
C461 C471 1.510 . S
C462 C458 1.401 . S
C462 C461 1.396 . S
C463 C458 1.499 . S
C463 H464 0.959 . S
C463 H465 0.960 . S
C463 H466 0.961 . S
H464 C463 0.959 . S
H465 C463 0.960 . S
H466 C463 0.961 . S
O467 Co442 1.967 . S
O467 C475 1.258 . S
O468 Co443 1.941 . S
O468 C475 1.266 . S
H469 C471 0.959 . S
H470 C471 0.961 . S
C471 C461 1.510 . S
C471 H469 0.959 . S
C471 H470 0.961 . S
C471 H472 0.960 . S
H472 C471 0.960 . S
H473 N453 0.862 . S
O474 Co442 1.920 . S
O474 C447 1.289 . S
C475 O467 1.258 . S
C475 O468 1.266 . S
Co476 O479 1.970 . S
Co476 N493 1.989 . S
Co476 O501 1.967 . S
Co476 O508 1.920 . S
Co477 O480 1.966 . S
Co477 N486 2.022 . S
Co477 N494 1.993 . S
Co477 O502 1.941 . S
C478 O479 1.258 . S
C478 O480 1.263 . S
O479 Co476 1.970 . S
O479 C478 1.258 . S
O480 Co477 1.966 . S
O480 C478 1.263 . S
C481 O482 1.235 . S
C481 O508 1.289 . S
O482 C481 1.235 . S
C483 C485 1.400 . S
C483 N486 1.351 . S
C483 C488 1.501 . S
C484 C485 1.387 . S
C484 N487 1.341 . S
C485 C483 1.400 . S
C485 C484 1.387 . S
N486 Co477 2.022 . S
N486 C483 1.351 . S
N486 N487 1.365 . S
N487 C484 1.341 . S
N487 N486 1.365 . S
N487 H507 0.862 . S
C488 C483 1.501 . S
C488 H489 0.961 . S
C488 H490 0.961 . S
C488 H491 0.960 . S
H489 C488 0.961 . S
H490 C488 0.961 . S
H491 C488 0.960 . S
C492 N493 1.342 . S
C492 C496 1.401 . S
C492 C497 1.499 . S
N493 Co476 1.989 . S
N493 C492 1.342 . S
N493 N494 1.388 . S
N494 Co477 1.993 . S
N494 N493 1.388 . S
N494 C495 1.346 . S
C495 N494 1.346 . S
C495 C496 1.396 . S
C495 C505 1.510 . S
C496 C492 1.401 . S
C496 C495 1.396 . S
C497 C492 1.499 . S
C497 H498 0.959 . S
C497 H499 0.960 . S
C497 H500 0.961 . S
H498 C497 0.959 . S
H499 C497 0.960 . S
H500 C497 0.961 . S
O501 Co476 1.967 . S
O501 C509 1.258 . S
O502 Co477 1.941 . S
O502 C509 1.266 . S
H503 C505 0.959 . S
H504 C505 0.961 . S
C505 C495 1.510 . S
C505 H503 0.959 . S
C505 H504 0.961 . S
C505 H506 0.960 . S
H506 C505 0.960 . S
H507 N487 0.862 . S
O508 Co476 1.920 . S
O508 C481 1.289 . S
C509 O501 1.258 . S
C509 O502 1.266 . S
Co510 O513 1.970 . S
Co510 N527 1.989 . S
Co510 O535 1.967 . S
Co510 O542 1.920 . S
Co511 O514 1.966 . S
Co511 N520 2.022 . S
Co511 N528 1.993 . S
Co511 O536 1.941 . S
C512 O513 1.258 . S
C512 O514 1.263 . S
O513 Co510 1.970 . S
O513 C512 1.258 . S
O514 Co511 1.966 . S
O514 C512 1.263 . S
C515 O516 1.235 . S
C515 O542 1.289 . S
O516 C515 1.235 . S
C517 C519 1.400 . S
C517 N520 1.351 . S
C517 C522 1.501 . S
C518 C519 1.387 . S
C518 N521 1.341 . S
C519 C517 1.400 . S
C519 C518 1.387 . S
N520 Co511 2.022 . S
N520 C517 1.351 . S
N520 N521 1.365 . S
N521 C518 1.341 . S
N521 N520 1.365 . S
N521 H541 0.862 . S
C522 C517 1.501 . S
C522 H523 0.961 . S
C522 H524 0.961 . S
C522 H525 0.960 . S
H523 C522 0.961 . S
H524 C522 0.961 . S
H525 C522 0.960 . S
C526 N527 1.342 . S
C526 C530 1.401 . S
C526 C531 1.499 . S
N527 Co510 1.989 . S
N527 C526 1.342 . S
N527 N528 1.388 . S
N528 Co511 1.993 . S
N528 N527 1.388 . S
N528 C529 1.346 . S
C529 N528 1.346 . S
C529 C530 1.396 . S
C529 C539 1.510 . S
C530 C526 1.401 . S
C530 C529 1.396 . S
C531 C526 1.499 . S
C531 H532 0.959 . S
C531 H533 0.960 . S
C531 H534 0.961 . S
H532 C531 0.959 . S
H533 C531 0.960 . S
H534 C531 0.961 . S
O535 Co510 1.967 . S
O535 C543 1.258 . S
O536 Co511 1.941 . S
O536 C543 1.266 . S
H537 C539 0.959 . S
H538 C539 0.961 . S
C539 C529 1.510 . S
C539 H537 0.959 . S
C539 H538 0.961 . S
C539 H540 0.960 . S
H540 C539 0.960 . S
H541 N521 0.862 . S
O542 Co510 1.920 . S
O542 C515 1.289 . S
C543 O535 1.258 . S
C543 O536 1.266 . S
Co544 O547 1.970 . S
Co544 N561 1.989 . S
Co544 O569 1.967 . S
Co544 O576 1.920 . S
Co545 O548 1.966 . S
Co545 N554 2.022 . S
Co545 N562 1.993 . S
Co545 O570 1.941 . S
C546 O547 1.258 . S
C546 O548 1.263 . S
O547 Co544 1.970 . S
O547 C546 1.258 . S
O548 Co545 1.966 . S
O548 C546 1.263 . S
C549 O550 1.235 . S
C549 O576 1.289 . S
O550 C549 1.235 . S
C551 C553 1.400 . S
C551 N554 1.351 . S
C551 C556 1.501 . S
C552 C553 1.387 . S
C552 N555 1.341 . S
C553 C551 1.400 . S
C553 C552 1.387 . S
N554 Co545 2.022 . S
N554 C551 1.351 . S
N554 N555 1.365 . S
N555 C552 1.341 . S
N555 N554 1.365 . S
N555 H575 0.862 . S
C556 C551 1.501 . S
C556 H557 0.961 . S
C556 H558 0.961 . S
C556 H559 0.960 . S
H557 C556 0.961 . S
H558 C556 0.961 . S
H559 C556 0.960 . S
C560 N561 1.342 . S
C560 C564 1.401 . S
C560 C565 1.499 . S
N561 Co544 1.989 . S
N561 C560 1.342 . S
N561 N562 1.388 . S
N562 Co545 1.993 . S
N562 N561 1.388 . S
N562 C563 1.346 . S
C563 N562 1.346 . S
C563 C564 1.396 . S
C563 C573 1.510 . S
C564 C560 1.401 . S
C564 C563 1.396 . S
C565 C560 1.499 . S
C565 H566 0.959 . S
C565 H567 0.960 . S
C565 H568 0.961 . S
H566 C565 0.959 . S
H567 C565 0.960 . S
H568 C565 0.961 . S
O569 Co544 1.967 . S
O569 C577 1.258 . S
O570 Co545 1.941 . S
O570 C577 1.266 . S
H571 C573 0.959 . S
H572 C573 0.961 . S
C573 C563 1.510 . S
C573 H571 0.959 . S
C573 H572 0.961 . S
C573 H574 0.960 . S
H574 C573 0.960 . S
H575 N555 0.862 . S
O576 Co544 1.920 . S
O576 C549 1.289 . S
C577 O569 1.258 . S
C577 O570 1.266 . S
Co578 O581 1.970 . S
Co578 N595 1.989 . S
Co578 O603 1.967 . S
Co578 O610 1.920 . S
Co579 O582 1.966 . S
Co579 N588 2.022 . S
Co579 N596 1.993 . S
Co579 O604 1.941 . S
C580 O581 1.258 . S
C580 O582 1.263 . S
O581 Co578 1.970 . S
O581 C580 1.258 . S
O582 Co579 1.966 . S
O582 C580 1.263 . S
C583 O584 1.235 . S
C583 O610 1.289 . S
O584 C583 1.235 . S
C585 C587 1.400 . S
C585 N588 1.351 . S
C585 C590 1.501 . S
C586 C587 1.387 . S
C586 N589 1.341 . S
C587 C585 1.400 . S
C587 C586 1.387 . S
N588 Co579 2.022 . S
N588 C585 1.351 . S
N588 N589 1.365 . S
N589 C586 1.341 . S
N589 N588 1.365 . S
N589 H609 0.862 . S
C590 C585 1.501 . S
C590 H591 0.961 . S
C590 H592 0.961 . S
C590 H593 0.960 . S
H591 C590 0.961 . S
H592 C590 0.961 . S
H593 C590 0.960 . S
C594 N595 1.342 . S
C594 C598 1.401 . S
C594 C599 1.499 . S
N595 Co578 1.989 . S
N595 C594 1.342 . S
N595 N596 1.388 . S
N596 Co579 1.993 . S
N596 N595 1.388 . S
N596 C597 1.346 . S
C597 N596 1.346 . S
C597 C598 1.396 . S
C597 C607 1.510 . S
C598 C594 1.401 . S
C598 C597 1.396 . S
C599 C594 1.499 . S
C599 H600 0.959 . S
C599 H601 0.960 . S
C599 H602 0.961 . S
H600 C599 0.959 . S
H601 C599 0.960 . S
H602 C599 0.961 . S
O603 Co578 1.967 . S
O603 C611 1.258 . S
O604 Co579 1.941 . S
O604 C611 1.266 . S
H605 C607 0.959 . S
H606 C607 0.961 . S
C607 C597 1.510 . S
C607 H605 0.959 . S
C607 H606 0.961 . S
C607 H608 0.960 . S
H608 C607 0.960 . S
H609 N589 0.862 . S
O610 Co578 1.920 . S
O610 C583 1.289 . S
C611 O603 1.258 . S
C611 O604 1.266 . S
Co612 O615 1.970 . S
Co612 N629 1.989 . S
Co612 O637 1.967 . S
Co612 O644 1.920 . S
Co613 O616 1.966 . S
Co613 N622 2.022 . S
Co613 N630 1.993 . S
Co613 O638 1.941 . S
C614 O615 1.258 . S
C614 O616 1.263 . S
O615 Co612 1.970 . S
O615 C614 1.258 . S
O616 Co613 1.966 . S
O616 C614 1.263 . S
C617 O618 1.235 . S
C617 O644 1.289 . S
O618 C617 1.235 . S
C619 C621 1.400 . S
C619 N622 1.351 . S
C619 C624 1.501 . S
C620 C621 1.387 . S
C620 N623 1.341 . S
C621 C619 1.400 . S
C621 C620 1.387 . S
N622 Co613 2.022 . S
N622 C619 1.351 . S
N622 N623 1.365 . S
N623 C620 1.341 . S
N623 N622 1.365 . S
N623 H643 0.862 . S
C624 C619 1.501 . S
C624 H625 0.961 . S
C624 H626 0.961 . S
C624 H627 0.960 . S
H625 C624 0.961 . S
H626 C624 0.961 . S
H627 C624 0.960 . S
C628 N629 1.342 . S
C628 C632 1.401 . S
C628 C633 1.499 . S
N629 Co612 1.989 . S
N629 C628 1.342 . S
N629 N630 1.388 . S
N630 Co613 1.993 . S
N630 N629 1.388 . S
N630 C631 1.346 . S
C631 N630 1.346 . S
C631 C632 1.396 . S
C631 C641 1.510 . S
C632 C628 1.401 . S
C632 C631 1.396 . S
C633 C628 1.499 . S
C633 H634 0.959 . S
C633 H635 0.960 . S
C633 H636 0.961 . S
H634 C633 0.959 . S
H635 C633 0.960 . S
H636 C633 0.961 . S
O637 Co612 1.967 . S
O637 C645 1.258 . S
O638 Co613 1.941 . S
O638 C645 1.266 . S
H639 C641 0.959 . S
H640 C641 0.961 . S
C641 C631 1.510 . S
C641 H639 0.959 . S
C641 H640 0.961 . S
C641 H642 0.960 . S
H642 C641 0.960 . S
H643 N623 0.862 . S
O644 Co612 1.920 . S
O644 C617 1.289 . S
C645 O637 1.258 . S
C645 O638 1.266 . S
Co646 O649 1.970 . S
Co646 N663 1.989 . S
Co646 O671 1.967 . S
Co646 O678 1.920 . S
Co647 O650 1.966 . S
Co647 N656 2.022 . S
Co647 N664 1.993 . S
Co647 O672 1.941 . S
C648 O649 1.258 . S
C648 O650 1.263 . S
O649 Co646 1.970 . S
O649 C648 1.258 . S
O650 Co647 1.966 . S
O650 C648 1.263 . S
C651 O652 1.235 . S
C651 O678 1.289 . S
O652 C651 1.235 . S
C653 C655 1.400 . S
C653 N656 1.351 . S
C653 C658 1.501 . S
C654 C655 1.387 . S
C654 N657 1.341 . S
C655 C653 1.400 . S
C655 C654 1.387 . S
N656 Co647 2.022 . S
N656 C653 1.351 . S
N656 N657 1.365 . S
N657 C654 1.341 . S
N657 N656 1.365 . S
N657 H677 0.862 . S
C658 C653 1.501 . S
C658 H659 0.961 . S
C658 H660 0.961 . S
C658 H661 0.960 . S
H659 C658 0.961 . S
H660 C658 0.961 . S
H661 C658 0.960 . S
C662 N663 1.342 . S
C662 C666 1.401 . S
C662 C667 1.499 . S
N663 Co646 1.989 . S
N663 C662 1.342 . S
N663 N664 1.388 . S
N664 Co647 1.993 . S
N664 N663 1.388 . S
N664 C665 1.346 . S
C665 N664 1.346 . S
C665 C666 1.396 . S
C665 C675 1.510 . S
C666 C662 1.401 . S
C666 C665 1.396 . S
C667 C662 1.499 . S
C667 H668 0.959 . S
C667 H669 0.960 . S
C667 H670 0.961 . S
H668 C667 0.959 . S
H669 C667 0.960 . S
H670 C667 0.961 . S
O671 Co646 1.967 . S
O671 C679 1.258 . S
O672 Co647 1.941 . S
O672 C679 1.266 . S
H673 C675 0.959 . S
H674 C675 0.961 . S
C675 C665 1.510 . S
C675 H673 0.959 . S
C675 H674 0.961 . S
C675 H676 0.960 . S
H676 C675 0.960 . S
H677 N657 0.862 . S
O678 Co646 1.920 . S
O678 C651 1.289 . S
C679 O671 1.258 . S
C679 O672 1.266 . S
Co680 O683 1.970 . S
Co680 N697 1.989 . S
Co680 O705 1.967 . S
Co680 O712 1.920 . S
Co681 O684 1.966 . S
Co681 N690 2.022 . S
Co681 N698 1.993 . S
Co681 O706 1.941 . S
C682 O683 1.258 . S
C682 O684 1.263 . S
O683 Co680 1.970 . S
O683 C682 1.258 . S
O684 Co681 1.966 . S
O684 C682 1.263 . S
C685 O686 1.235 . S
C685 O712 1.289 . S
O686 C685 1.235 . S
C687 C689 1.400 . S
C687 N690 1.351 . S
C687 C692 1.501 . S
C688 C689 1.387 . S
C688 N691 1.341 . S
C689 C687 1.400 . S
C689 C688 1.387 . S
N690 Co681 2.022 . S
N690 C687 1.351 . S
N690 N691 1.365 . S
N691 C688 1.341 . S
N691 N690 1.365 . S
N691 H711 0.862 . S
C692 C687 1.501 . S
C692 H693 0.961 . S
C692 H694 0.961 . S
C692 H695 0.960 . S
H693 C692 0.961 . S
H694 C692 0.961 . S
H695 C692 0.960 . S
C696 N697 1.342 . S
C696 C700 1.401 . S
C696 C701 1.499 . S
N697 Co680 1.989 . S
N697 C696 1.342 . S
N697 N698 1.388 . S
N698 Co681 1.993 . S
N698 N697 1.388 . S
N698 C699 1.346 . S
C699 N698 1.346 . S
C699 C700 1.396 . S
C699 C709 1.510 . S
C700 C696 1.401 . S
C700 C699 1.396 . S
C701 C696 1.499 . S
C701 H702 0.959 . S
C701 H703 0.960 . S
C701 H704 0.961 . S
H702 C701 0.959 . S
H703 C701 0.960 . S
H704 C701 0.961 . S
O705 Co680 1.967 . S
O705 C713 1.258 . S
O706 Co681 1.941 . S
O706 C713 1.266 . S
H707 C709 0.959 . S
H708 C709 0.961 . S
C709 C699 1.510 . S
C709 H707 0.959 . S
C709 H708 0.961 . S
C709 H710 0.960 . S
H710 C709 0.960 . S
H711 N691 0.862 . S
O712 Co680 1.920 . S
O712 C685 1.289 . S
C713 O705 1.258 . S
C713 O706 1.266 . S
Co714 O717 1.970 . S
Co714 N731 1.989 . S
Co714 O739 1.967 . S
Co714 O746 1.920 . S
Co715 O718 1.966 . S
Co715 N724 2.022 . S
Co715 N732 1.993 . S
Co715 O740 1.941 . S
C716 O717 1.258 . S
C716 O718 1.263 . S
O717 Co714 1.970 . S
O717 C716 1.258 . S
O718 Co715 1.966 . S
O718 C716 1.263 . S
C719 O720 1.235 . S
C719 O746 1.289 . S
O720 C719 1.235 . S
C721 C723 1.400 . S
C721 N724 1.351 . S
C721 C726 1.501 . S
C722 C723 1.387 . S
C722 N725 1.341 . S
C723 C721 1.400 . S
C723 C722 1.387 . S
N724 Co715 2.022 . S
N724 C721 1.351 . S
N724 N725 1.365 . S
N725 C722 1.341 . S
N725 N724 1.365 . S
N725 H745 0.862 . S
C726 C721 1.501 . S
C726 H727 0.961 . S
C726 H728 0.961 . S
C726 H729 0.960 . S
H727 C726 0.961 . S
H728 C726 0.961 . S
H729 C726 0.960 . S
C730 N731 1.342 . S
C730 C734 1.401 . S
C730 C735 1.499 . S
N731 Co714 1.989 . S
N731 C730 1.342 . S
N731 N732 1.388 . S
N732 Co715 1.993 . S
N732 N731 1.388 . S
N732 C733 1.346 . S
C733 N732 1.346 . S
C733 C734 1.396 . S
C733 C743 1.510 . S
C734 C730 1.401 . S
C734 C733 1.396 . S
C735 C730 1.499 . S
C735 H736 0.959 . S
C735 H737 0.960 . S
C735 H738 0.961 . S
H736 C735 0.959 . S
H737 C735 0.960 . S
H738 C735 0.961 . S
O739 Co714 1.967 . S
O739 C747 1.258 . S
O740 Co715 1.941 . S
O740 C747 1.266 . S
H741 C743 0.959 . S
H742 C743 0.961 . S
C743 C733 1.510 . S
C743 H741 0.959 . S
C743 H742 0.961 . S
C743 H744 0.960 . S
H744 C743 0.960 . S
H745 N725 0.862 . S
O746 Co714 1.920 . S
O746 C719 1.289 . S
C747 O739 1.258 . S
C747 O740 1.266 . S
Co748 O751 1.970 . S
Co748 N765 1.989 . S
Co748 O773 1.967 . S
Co748 O780 1.920 . S
Co749 O752 1.966 . S
Co749 N758 2.022 . S
Co749 N766 1.993 . S
Co749 O774 1.941 . S
C750 O751 1.258 . S
C750 O752 1.263 . S
O751 Co748 1.970 . S
O751 C750 1.258 . S
O752 Co749 1.966 . S
O752 C750 1.263 . S
C753 O754 1.235 . S
C753 O780 1.289 . S
O754 C753 1.235 . S
C755 C757 1.400 . S
C755 N758 1.351 . S
C755 C760 1.501 . S
C756 C757 1.387 . S
C756 N759 1.341 . S
C757 C755 1.400 . S
C757 C756 1.387 . S
N758 Co749 2.022 . S
N758 C755 1.351 . S
N758 N759 1.365 . S
N759 C756 1.341 . S
N759 N758 1.365 . S
N759 H779 0.862 . S
C760 C755 1.501 . S
C760 H761 0.961 . S
C760 H762 0.961 . S
C760 H763 0.960 . S
H761 C760 0.961 . S
H762 C760 0.961 . S
H763 C760 0.960 . S
C764 N765 1.342 . S
C764 C768 1.401 . S
C764 C769 1.499 . S
N765 Co748 1.989 . S
N765 C764 1.342 . S
N765 N766 1.388 . S
N766 Co749 1.993 . S
N766 N765 1.388 . S
N766 C767 1.346 . S
C767 N766 1.346 . S
C767 C768 1.396 . S
C767 C777 1.510 . S
C768 C764 1.401 . S
C768 C767 1.396 . S
C769 C764 1.499 . S
C769 H770 0.959 . S
C769 H771 0.960 . S
C769 H772 0.961 . S
H770 C769 0.959 . S
H771 C769 0.960 . S
H772 C769 0.961 . S
O773 Co748 1.967 . S
O773 C781 1.258 . S
O774 Co749 1.941 . S
O774 C781 1.266 . S
H775 C777 0.959 . S
H776 C777 0.961 . S
C777 C767 1.510 . S
C777 H775 0.959 . S
C777 H776 0.961 . S
C777 H778 0.960 . S
H778 C777 0.960 . S
H779 N759 0.862 . S
O780 Co748 1.920 . S
O780 C753 1.289 . S
C781 O773 1.258 . S
C781 O774 1.266 . S
Co782 O785 1.970 . S
Co782 N799 1.989 . S
Co782 O807 1.967 . S
Co782 O814 1.920 . S
Co783 O786 1.966 . S
Co783 N792 2.022 . S
Co783 N800 1.993 . S
Co783 O808 1.941 . S
C784 O785 1.258 . S
C784 O786 1.263 . S
O785 Co782 1.970 . S
O785 C784 1.258 . S
O786 Co783 1.966 . S
O786 C784 1.263 . S
C787 O788 1.235 . S
C787 O814 1.289 . S
O788 C787 1.235 . S
C789 C791 1.400 . S
C789 N792 1.351 . S
C789 C794 1.501 . S
C790 C791 1.387 . S
C790 N793 1.341 . S
C791 C789 1.400 . S
C791 C790 1.387 . S
N792 Co783 2.022 . S
N792 C789 1.351 . S
N792 N793 1.365 . S
N793 C790 1.341 . S
N793 N792 1.365 . S
N793 H813 0.862 . S
C794 C789 1.501 . S
C794 H795 0.961 . S
C794 H796 0.961 . S
C794 H797 0.960 . S
H795 C794 0.961 . S
H796 C794 0.961 . S
H797 C794 0.960 . S
C798 N799 1.342 . S
C798 C802 1.401 . S
C798 C803 1.499 . S
N799 Co782 1.989 . S
N799 C798 1.342 . S
N799 N800 1.388 . S
N800 Co783 1.993 . S
N800 N799 1.388 . S
N800 C801 1.346 . S
C801 N800 1.346 . S
C801 C802 1.396 . S
C801 C811 1.510 . S
C802 C798 1.401 . S
C802 C801 1.396 . S
C803 C798 1.499 . S
C803 H804 0.959 . S
C803 H805 0.960 . S
C803 H806 0.961 . S
H804 C803 0.959 . S
H805 C803 0.960 . S
H806 C803 0.961 . S
O807 Co782 1.967 . S
O807 C815 1.258 . S
O808 Co783 1.941 . S
O808 C815 1.266 . S
H809 C811 0.959 . S
H810 C811 0.961 . S
C811 C801 1.510 . S
C811 H809 0.959 . S
C811 H810 0.961 . S
C811 H812 0.960 . S
H812 C811 0.960 . S
H813 N793 0.862 . S
O814 Co782 1.920 . S
O814 C787 1.289 . S
C815 O807 1.258 . S
C815 O808 1.266 . S
Co816 O819 1.970 . S
Co816 N833 1.989 . S
Co816 O841 1.967 . S
Co816 O848 1.920 . S
Co817 O820 1.966 . S
Co817 N826 2.022 . S
Co817 N834 1.993 . S
Co817 O842 1.941 . S
C818 O819 1.258 . S
C818 O820 1.263 . S
O819 Co816 1.970 . S
O819 C818 1.258 . S
O820 Co817 1.966 . S
O820 C818 1.263 . S
C821 O822 1.235 . S
C821 O848 1.289 . S
O822 C821 1.235 . S
C823 C825 1.400 . S
C823 N826 1.351 . S
C823 C828 1.501 . S
C824 C825 1.387 . S
C824 N827 1.341 . S
C825 C823 1.400 . S
C825 C824 1.387 . S
N826 Co817 2.022 . S
N826 C823 1.351 . S
N826 N827 1.365 . S
N827 C824 1.341 . S
N827 N826 1.365 . S
N827 H847 0.862 . S
C828 C823 1.501 . S
C828 H829 0.961 . S
C828 H830 0.961 . S
C828 H831 0.960 . S
H829 C828 0.961 . S
H830 C828 0.961 . S
H831 C828 0.960 . S
C832 N833 1.342 . S
C832 C836 1.401 . S
C832 C837 1.499 . S
N833 Co816 1.989 . S
N833 C832 1.342 . S
N833 N834 1.388 . S
N834 Co817 1.993 . S
N834 N833 1.388 . S
N834 C835 1.346 . S
C835 N834 1.346 . S
C835 C836 1.396 . S
C835 C845 1.510 . S
C836 C832 1.401 . S
C836 C835 1.396 . S
C837 C832 1.499 . S
C837 H838 0.959 . S
C837 H839 0.960 . S
C837 H840 0.961 . S
H838 C837 0.959 . S
H839 C837 0.960 . S
H840 C837 0.961 . S
O841 Co816 1.967 . S
O841 C849 1.258 . S
O842 Co817 1.941 . S
O842 C849 1.266 . S
H843 C845 0.959 . S
H844 C845 0.961 . S
C845 C835 1.510 . S
C845 H843 0.959 . S
C845 H844 0.961 . S
C845 H846 0.960 . S
H846 C845 0.960 . S
H847 N827 0.862 . S
O848 Co816 1.920 . S
O848 C821 1.289 . S
C849 O841 1.258 . S
C849 O842 1.266 . S
Co850 O853 1.970 . S
Co850 N867 1.989 . S
Co850 O875 1.967 . S
Co850 O882 1.920 . S
Co851 O854 1.966 . S
Co851 N860 2.022 . S
Co851 N868 1.993 . S
Co851 O876 1.941 . S
C852 O853 1.258 . S
C852 O854 1.263 . S
O853 Co850 1.970 . S
O853 C852 1.258 . S
O854 Co851 1.966 . S
O854 C852 1.263 . S
C855 O856 1.235 . S
C855 O882 1.289 . S
O856 C855 1.235 . S
C857 C859 1.400 . S
C857 N860 1.351 . S
C857 C862 1.501 . S
C858 C859 1.387 . S
C858 N861 1.341 . S
C859 C857 1.400 . S
C859 C858 1.387 . S
N860 Co851 2.022 . S
N860 C857 1.351 . S
N860 N861 1.365 . S
N861 C858 1.341 . S
N861 N860 1.365 . S
N861 H881 0.862 . S
C862 C857 1.501 . S
C862 H863 0.961 . S
C862 H864 0.961 . S
C862 H865 0.960 . S
H863 C862 0.961 . S
H864 C862 0.961 . S
H865 C862 0.960 . S
C866 N867 1.342 . S
C866 C870 1.401 . S
C866 C871 1.499 . S
N867 Co850 1.989 . S
N867 C866 1.342 . S
N867 N868 1.388 . S
N868 Co851 1.993 . S
N868 N867 1.388 . S
N868 C869 1.346 . S
C869 N868 1.346 . S
C869 C870 1.396 . S
C869 C879 1.510 . S
C870 C866 1.401 . S
C870 C869 1.396 . S
C871 C866 1.499 . S
C871 H872 0.959 . S
C871 H873 0.960 . S
C871 H874 0.961 . S
H872 C871 0.959 . S
H873 C871 0.960 . S
H874 C871 0.961 . S
O875 Co850 1.967 . S
O875 C883 1.258 . S
O876 Co851 1.941 . S
O876 C883 1.266 . S
H877 C879 0.959 . S
H878 C879 0.961 . S
C879 C869 1.510 . S
C879 H877 0.959 . S
C879 H878 0.961 . S
C879 H880 0.960 . S
H880 C879 0.960 . S
H881 N861 0.862 . S
O882 Co850 1.920 . S
O882 C855 1.289 . S
C883 O875 1.258 . S
C883 O876 1.266 . S
Co884 O887 1.970 . S
Co884 N901 1.989 . S
Co884 O909 1.967 . S
Co884 O916 1.920 . S
Co885 O888 1.966 . S
Co885 N894 2.022 . S
Co885 N902 1.993 . S
Co885 O910 1.941 . S
C886 O887 1.258 . S
C886 O888 1.263 . S
O887 Co884 1.970 . S
O887 C886 1.258 . S
O888 Co885 1.966 . S
O888 C886 1.263 . S
C889 O890 1.235 . S
C889 O916 1.289 . S
O890 C889 1.235 . S
C891 C893 1.400 . S
C891 N894 1.351 . S
C891 C896 1.501 . S
C892 C893 1.387 . S
C892 N895 1.341 . S
C893 C891 1.400 . S
C893 C892 1.387 . S
N894 Co885 2.022 . S
N894 C891 1.351 . S
N894 N895 1.365 . S
N895 C892 1.341 . S
N895 N894 1.365 . S
N895 H915 0.862 . S
C896 C891 1.501 . S
C896 H897 0.961 . S
C896 H898 0.961 . S
C896 H899 0.960 . S
H897 C896 0.961 . S
H898 C896 0.961 . S
H899 C896 0.960 . S
C900 N901 1.342 . S
C900 C904 1.401 . S
C900 C905 1.499 . S
N901 Co884 1.989 . S
N901 C900 1.342 . S
N901 N902 1.388 . S
N902 Co885 1.993 . S
N902 N901 1.388 . S
N902 C903 1.346 . S
C903 N902 1.346 . S
C903 C904 1.396 . S
C903 C913 1.510 . S
C904 C900 1.401 . S
C904 C903 1.396 . S
C905 C900 1.499 . S
C905 H906 0.959 . S
C905 H907 0.960 . S
C905 H908 0.961 . S
H906 C905 0.959 . S
H907 C905 0.960 . S
H908 C905 0.961 . S
O909 Co884 1.967 . S
O909 C917 1.258 . S
O910 Co885 1.941 . S
O910 C917 1.266 . S
H911 C913 0.959 . S
H912 C913 0.961 . S
C913 C903 1.510 . S
C913 H911 0.959 . S
C913 H912 0.961 . S
C913 H914 0.960 . S
H914 C913 0.960 . S
H915 N895 0.862 . S
O916 Co884 1.920 . S
O916 C889 1.289 . S
C917 O909 1.258 . S
C917 O910 1.266 . S
Co918 O921 1.970 . S
Co918 N935 1.989 . S
Co918 O943 1.967 . S
Co918 O950 1.920 . S
Co919 O922 1.966 . S
Co919 N928 2.022 . S
Co919 N936 1.993 . S
Co919 O944 1.941 . S
C920 O921 1.258 . S
C920 O922 1.263 . S
O921 Co918 1.970 . S
O921 C920 1.258 . S
O922 Co919 1.966 . S
O922 C920 1.263 . S
C923 O924 1.235 . S
C923 O950 1.289 . S
O924 C923 1.235 . S
C925 C927 1.400 . S
C925 N928 1.351 . S
C925 C930 1.501 . S
C926 C927 1.387 . S
C926 N929 1.341 . S
C927 C925 1.400 . S
C927 C926 1.387 . S
N928 Co919 2.022 . S
N928 C925 1.351 . S
N928 N929 1.365 . S
N929 C926 1.341 . S
N929 N928 1.365 . S
N929 H949 0.862 . S
C930 C925 1.501 . S
C930 H931 0.961 . S
C930 H932 0.961 . S
C930 H933 0.960 . S
H931 C930 0.961 . S
H932 C930 0.961 . S
H933 C930 0.960 . S
C934 N935 1.342 . S
C934 C938 1.401 . S
C934 C939 1.499 . S
N935 Co918 1.989 . S
N935 C934 1.342 . S
N935 N936 1.388 . S
N936 Co919 1.993 . S
N936 N935 1.388 . S
N936 C937 1.346 . S
C937 N936 1.346 . S
C937 C938 1.396 . S
C937 C947 1.510 . S
C938 C934 1.401 . S
C938 C937 1.396 . S
C939 C934 1.499 . S
C939 H940 0.959 . S
C939 H941 0.960 . S
C939 H942 0.961 . S
H940 C939 0.959 . S
H941 C939 0.960 . S
H942 C939 0.961 . S
O943 Co918 1.967 . S
O943 C951 1.258 . S
O944 Co919 1.941 . S
O944 C951 1.266 . S
H945 C947 0.959 . S
H946 C947 0.961 . S
C947 C937 1.510 . S
C947 H945 0.959 . S
C947 H946 0.961 . S
C947 H948 0.960 . S
H948 C947 0.960 . S
H949 N929 0.862 . S
O950 Co918 1.920 . S
O950 C923 1.289 . S
C951 O943 1.258 . S
C951 O944 1.266 . S
Co952 O955 1.970 . S
Co952 N969 1.989 . S
Co952 O977 1.967 . S
Co952 O984 1.920 . S
Co953 O956 1.966 . S
Co953 N962 2.022 . S
Co953 N970 1.993 . S
Co953 O978 1.941 . S
C954 O955 1.258 . S
C954 O956 1.263 . S
O955 Co952 1.970 . S
O955 C954 1.258 . S
O956 Co953 1.966 . S
O956 C954 1.263 . S
C957 O958 1.235 . S
C957 O984 1.289 . S
O958 C957 1.235 . S
C959 C961 1.400 . S
C959 N962 1.351 . S
C959 C964 1.501 . S
C960 C961 1.387 . S
C960 N963 1.341 . S
C961 C959 1.400 . S
C961 C960 1.387 . S
N962 Co953 2.022 . S
N962 C959 1.351 . S
N962 N963 1.365 . S
N963 C960 1.341 . S
N963 N962 1.365 . S
N963 H983 0.862 . S
C964 C959 1.501 . S
C964 H965 0.961 . S
C964 H966 0.961 . S
C964 H967 0.960 . S
H965 C964 0.961 . S
H966 C964 0.961 . S
H967 C964 0.960 . S
C968 N969 1.342 . S
C968 C972 1.401 . S
C968 C973 1.499 . S
N969 Co952 1.989 . S
N969 C968 1.342 . S
N969 N970 1.388 . S
N970 Co953 1.993 . S
N970 N969 1.388 . S
N970 C971 1.346 . S
C971 N970 1.346 . S
C971 C972 1.396 . S
C971 C981 1.510 . S
C972 C968 1.401 . S
C972 C971 1.396 . S
C973 C968 1.499 . S
C973 H974 0.959 . S
C973 H975 0.960 . S
C973 H976 0.961 . S
H974 C973 0.959 . S
H975 C973 0.960 . S
H976 C973 0.961 . S
O977 Co952 1.967 . S
O977 C985 1.258 . S
O978 Co953 1.941 . S
O978 C985 1.266 . S
H979 C981 0.959 . S
H980 C981 0.961 . S
C981 C971 1.510 . S
C981 H979 0.959 . S
C981 H980 0.961 . S
C981 H982 0.960 . S
H982 C981 0.960 . S
H983 N963 0.862 . S
O984 Co952 1.920 . S
O984 C957 1.289 . S
C985 O977 1.258 . S
C985 O978 1.266 . S
Co986 O989 1.970 . S
Co986 N1003 1.989 . S
Co986 O1011 1.967 . S
Co986 O1018 1.920 . S
Co987 O990 1.966 . S
Co987 N996 2.022 . S
Co987 N1004 1.993 . S
Co987 O1012 1.941 . S
C988 O989 1.258 . S
C988 O990 1.263 . S
O989 Co986 1.970 . S
O989 C988 1.258 . S
O990 Co987 1.966 . S
O990 C988 1.263 . S
C991 O992 1.235 . S
C991 O1018 1.289 . S
O992 C991 1.235 . S
C993 C995 1.400 . S
C993 N996 1.351 . S
C993 C998 1.501 . S
C994 C995 1.387 . S
C994 N997 1.341 . S
C995 C993 1.400 . S
C995 C994 1.387 . S
N996 Co987 2.022 . S
N996 C993 1.351 . S
N996 N997 1.365 . S
N997 C994 1.341 . S
N997 N996 1.365 . S
N997 H1017 0.862 . S
C998 C993 1.501 . S
C998 H999 0.961 . S
C998 H1000 0.961 . S
C998 H1001 0.960 . S
H999 C998 0.961 . S
H1000 C998 0.961 . S
H1001 C998 0.960 . S
C1002 N1003 1.342 . S
C1002 C1006 1.401 . S
C1002 C1007 1.499 . S
N1003 Co986 1.989 . S
N1003 C1002 1.342 . S
N1003 N1004 1.388 . S
N1004 Co987 1.993 . S
N1004 N1003 1.388 . S
N1004 C1005 1.346 . S
C1005 N1004 1.346 . S
C1005 C1006 1.396 . S
C1005 C1015 1.510 . S
C1006 C1002 1.401 . S
C1006 C1005 1.396 . S
C1007 C1002 1.499 . S
C1007 H1008 0.959 . S
C1007 H1009 0.960 . S
C1007 H1010 0.961 . S
H1008 C1007 0.959 . S
H1009 C1007 0.960 . S
H1010 C1007 0.961 . S
O1011 Co986 1.967 . S
O1011 C1019 1.258 . S
O1012 Co987 1.941 . S
O1012 C1019 1.266 . S
H1013 C1015 0.959 . S
H1014 C1015 0.961 . S
C1015 C1005 1.510 . S
C1015 H1013 0.959 . S
C1015 H1014 0.961 . S
C1015 H1016 0.960 . S
H1016 C1015 0.960 . S
H1017 N997 0.862 . S
O1018 Co986 1.920 . S
O1018 C991 1.289 . S
C1019 O1011 1.258 . S
C1019 O1012 1.266 . S
Co1020 O1023 1.970 . S
Co1020 N1037 1.989 . S
Co1020 O1045 1.967 . S
Co1020 O1052 1.920 . S
Co1021 O1024 1.966 . S
Co1021 N1030 2.022 . S
Co1021 N1038 1.993 . S
Co1021 O1046 1.941 . S
C1022 O1023 1.258 . S
C1022 O1024 1.263 . S
O1023 Co1020 1.970 . S
O1023 C1022 1.258 . S
O1024 Co1021 1.966 . S
O1024 C1022 1.263 . S
C1025 O1026 1.235 . S
C1025 O1052 1.289 . S
O1026 C1025 1.235 . S
C1027 C1029 1.400 . S
C1027 N1030 1.351 . S
C1027 C1032 1.501 . S
C1028 C1029 1.387 . S
C1028 N1031 1.341 . S
C1029 C1027 1.400 . S
C1029 C1028 1.387 . S
N1030 Co1021 2.022 . S
N1030 C1027 1.351 . S
N1030 N1031 1.365 . S
N1031 C1028 1.341 . S
N1031 N1030 1.365 . S
N1031 H1051 0.862 . S
C1032 C1027 1.501 . S
C1032 H1033 0.961 . S
C1032 H1034 0.961 . S
C1032 H1035 0.960 . S
H1033 C1032 0.961 . S
H1034 C1032 0.961 . S
H1035 C1032 0.960 . S
C1036 N1037 1.342 . S
C1036 C1040 1.401 . S
C1036 C1041 1.499 . S
N1037 Co1020 1.989 . S
N1037 C1036 1.342 . S
N1037 N1038 1.388 . S
N1038 Co1021 1.993 . S
N1038 N1037 1.388 . S
N1038 C1039 1.346 . S
C1039 N1038 1.346 . S
C1039 C1040 1.396 . S
C1039 C1049 1.510 . S
C1040 C1036 1.401 . S
C1040 C1039 1.396 . S
C1041 C1036 1.499 . S
C1041 H1042 0.959 . S
C1041 H1043 0.960 . S
C1041 H1044 0.961 . S
H1042 C1041 0.959 . S
H1043 C1041 0.960 . S
H1044 C1041 0.961 . S
O1045 Co1020 1.967 . S
O1045 C1053 1.258 . S
O1046 Co1021 1.941 . S
O1046 C1053 1.266 . S
H1047 C1049 0.959 . S
H1048 C1049 0.961 . S
C1049 C1039 1.510 . S
C1049 H1047 0.959 . S
C1049 H1048 0.961 . S
C1049 H1050 0.960 . S
H1050 C1049 0.960 . S
H1051 N1031 0.862 . S
O1052 Co1020 1.920 . S
O1052 C1025 1.289 . S
C1053 O1045 1.258 . S
C1053 O1046 1.266 . S
Co1054 O1057 1.970 . S
Co1054 N1071 1.989 . S
Co1054 O1079 1.967 . S
Co1054 O1086 1.920 . S
Co1055 O1058 1.966 . S
Co1055 N1064 2.022 . S
Co1055 N1072 1.993 . S
Co1055 O1080 1.941 . S
C1056 O1057 1.258 . S
C1056 O1058 1.263 . S
O1057 Co1054 1.970 . S
O1057 C1056 1.258 . S
O1058 Co1055 1.966 . S
O1058 C1056 1.263 . S
C1059 O1060 1.235 . S
C1059 O1086 1.289 . S
O1060 C1059 1.235 . S
C1061 C1063 1.400 . S
C1061 N1064 1.351 . S
C1061 C1066 1.501 . S
C1062 C1063 1.387 . S
C1062 N1065 1.341 . S
C1063 C1061 1.400 . S
C1063 C1062 1.387 . S
N1064 Co1055 2.022 . S
N1064 C1061 1.351 . S
N1064 N1065 1.365 . S
N1065 C1062 1.341 . S
N1065 N1064 1.365 . S
N1065 H1085 0.862 . S
C1066 C1061 1.501 . S
C1066 H1067 0.961 . S
C1066 H1068 0.961 . S
C1066 H1069 0.960 . S
H1067 C1066 0.961 . S
H1068 C1066 0.961 . S
H1069 C1066 0.960 . S
C1070 N1071 1.342 . S
C1070 C1074 1.401 . S
C1070 C1075 1.499 . S
N1071 Co1054 1.989 . S
N1071 C1070 1.342 . S
N1071 N1072 1.388 . S
N1072 Co1055 1.993 . S
N1072 N1071 1.388 . S
N1072 C1073 1.346 . S
C1073 N1072 1.346 . S
C1073 C1074 1.396 . S
C1073 C1083 1.510 . S
C1074 C1070 1.401 . S
C1074 C1073 1.396 . S
C1075 C1070 1.499 . S
C1075 H1076 0.959 . S
C1075 H1077 0.960 . S
C1075 H1078 0.961 . S
H1076 C1075 0.959 . S
H1077 C1075 0.960 . S
H1078 C1075 0.961 . S
O1079 Co1054 1.967 . S
O1079 C1087 1.258 . S
O1080 Co1055 1.941 . S
O1080 C1087 1.266 . S
H1081 C1083 0.959 . S
H1082 C1083 0.961 . S
C1083 C1073 1.510 . S
C1083 H1081 0.959 . S
C1083 H1082 0.961 . S
C1083 H1084 0.960 . S
H1084 C1083 0.960 . S
H1085 N1065 0.862 . S
O1086 Co1054 1.920 . S
O1086 C1059 1.289 . S
C1087 O1079 1.258 . S
C1087 O1080 1.266 . S
Co1088 O1091 1.970 . S
Co1088 N1105 1.989 . S
Co1088 O1113 1.967 . S
Co1088 O1120 1.920 . S
Co1089 O1092 1.966 . S
Co1089 N1098 2.022 . S
Co1089 N1106 1.993 . S
Co1089 O1114 1.941 . S
C1090 O1091 1.258 . S
C1090 O1092 1.263 . S
O1091 Co1088 1.970 . S
O1091 C1090 1.258 . S
O1092 Co1089 1.966 . S
O1092 C1090 1.263 . S
C1093 O1094 1.235 . S
C1093 O1120 1.289 . S
O1094 C1093 1.235 . S
C1095 C1097 1.400 . S
C1095 N1098 1.351 . S
C1095 C1100 1.501 . S
C1096 C1097 1.387 . S
C1096 N1099 1.341 . S
C1097 C1095 1.400 . S
C1097 C1096 1.387 . S
N1098 Co1089 2.022 . S
N1098 C1095 1.351 . S
N1098 N1099 1.365 . S
N1099 C1096 1.341 . S
N1099 N1098 1.365 . S
N1099 H1119 0.862 . S
C1100 C1095 1.501 . S
C1100 H1101 0.961 . S
C1100 H1102 0.961 . S
C1100 H1103 0.960 . S
H1101 C1100 0.961 . S
H1102 C1100 0.961 . S
H1103 C1100 0.960 . S
C1104 N1105 1.342 . S
C1104 C1108 1.401 . S
C1104 C1109 1.499 . S
N1105 Co1088 1.989 . S
N1105 C1104 1.342 . S
N1105 N1106 1.388 . S
N1106 Co1089 1.993 . S
N1106 N1105 1.388 . S
N1106 C1107 1.346 . S
C1107 N1106 1.346 . S
C1107 C1108 1.396 . S
C1107 C1117 1.510 . S
C1108 C1104 1.401 . S
C1108 C1107 1.396 . S
C1109 C1104 1.499 . S
C1109 H1110 0.959 . S
C1109 H1111 0.960 . S
C1109 H1112 0.961 . S
H1110 C1109 0.959 . S
H1111 C1109 0.960 . S
H1112 C1109 0.961 . S
O1113 Co1088 1.967 . S
O1113 C1121 1.258 . S
O1114 Co1089 1.941 . S
O1114 C1121 1.266 . S
H1115 C1117 0.959 . S
H1116 C1117 0.961 . S
C1117 C1107 1.510 . S
C1117 H1115 0.959 . S
C1117 H1116 0.961 . S
C1117 H1118 0.960 . S
H1118 C1117 0.960 . S
H1119 N1099 0.862 . S
O1120 Co1088 1.920 . S
O1120 C1093 1.289 . S
C1121 O1113 1.258 . S
C1121 O1114 1.266 . S
Co1122 O1125 1.970 . S
Co1122 N1139 1.989 . S
Co1122 O1147 1.967 . S
Co1122 O1154 1.920 . S
Co1123 O1126 1.966 . S
Co1123 N1132 2.022 . S
Co1123 N1140 1.993 . S
Co1123 O1148 1.941 . S
C1124 O1125 1.258 . S
C1124 O1126 1.263 . S
O1125 Co1122 1.970 . S
O1125 C1124 1.258 . S
O1126 Co1123 1.966 . S
O1126 C1124 1.263 . S
C1127 O1128 1.235 . S
C1127 O1154 1.289 . S
O1128 C1127 1.235 . S
C1129 C1131 1.400 . S
C1129 N1132 1.351 . S
C1129 C1134 1.501 . S
C1130 C1131 1.387 . S
C1130 N1133 1.341 . S
C1131 C1129 1.400 . S
C1131 C1130 1.387 . S
N1132 Co1123 2.022 . S
N1132 C1129 1.351 . S
N1132 N1133 1.365 . S
N1133 C1130 1.341 . S
N1133 N1132 1.365 . S
N1133 H1153 0.862 . S
C1134 C1129 1.501 . S
C1134 H1135 0.961 . S
C1134 H1136 0.961 . S
C1134 H1137 0.960 . S
H1135 C1134 0.961 . S
H1136 C1134 0.961 . S
H1137 C1134 0.960 . S
C1138 N1139 1.342 . S
C1138 C1142 1.401 . S
C1138 C1143 1.499 . S
N1139 Co1122 1.989 . S
N1139 C1138 1.342 . S
N1139 N1140 1.388 . S
N1140 Co1123 1.993 . S
N1140 N1139 1.388 . S
N1140 C1141 1.346 . S
C1141 N1140 1.346 . S
C1141 C1142 1.396 . S
C1141 C1151 1.510 . S
C1142 C1138 1.401 . S
C1142 C1141 1.396 . S
C1143 C1138 1.499 . S
C1143 H1144 0.959 . S
C1143 H1145 0.960 . S
C1143 H1146 0.961 . S
H1144 C1143 0.959 . S
H1145 C1143 0.960 . S
H1146 C1143 0.961 . S
O1147 Co1122 1.967 . S
O1147 C1155 1.258 . S
O1148 Co1123 1.941 . S
O1148 C1155 1.266 . S
H1149 C1151 0.959 . S
H1150 C1151 0.961 . S
C1151 C1141 1.510 . S
C1151 H1149 0.959 . S
C1151 H1150 0.961 . S
C1151 H1152 0.960 . S
H1152 C1151 0.960 . S
H1153 N1133 0.862 . S
O1154 Co1122 1.920 . S
O1154 C1127 1.289 . S
C1155 O1147 1.258 . S
C1155 O1148 1.266 . S
Co1156 O1159 1.970 . S
Co1156 N1173 1.989 . S
Co1156 O1181 1.967 . S
Co1156 O1188 1.920 . S
Co1157 O1160 1.966 . S
Co1157 N1166 2.022 . S
Co1157 N1174 1.993 . S
Co1157 O1182 1.941 . S
C1158 O1159 1.258 . S
C1158 O1160 1.263 . S
O1159 Co1156 1.970 . S
O1159 C1158 1.258 . S
O1160 Co1157 1.966 . S
O1160 C1158 1.263 . S
C1161 O1162 1.235 . S
C1161 O1188 1.289 . S
O1162 C1161 1.235 . S
C1163 C1165 1.400 . S
C1163 N1166 1.351 . S
C1163 C1168 1.501 . S
C1164 C1165 1.387 . S
C1164 N1167 1.341 . S
C1165 C1163 1.400 . S
C1165 C1164 1.387 . S
N1166 Co1157 2.022 . S
N1166 C1163 1.351 . S
N1166 N1167 1.365 . S
N1167 C1164 1.341 . S
N1167 N1166 1.365 . S
N1167 H1187 0.862 . S
C1168 C1163 1.501 . S
C1168 H1169 0.961 . S
C1168 H1170 0.961 . S
C1168 H1171 0.960 . S
H1169 C1168 0.961 . S
H1170 C1168 0.961 . S
H1171 C1168 0.960 . S
C1172 N1173 1.342 . S
C1172 C1176 1.401 . S
C1172 C1177 1.499 . S
N1173 Co1156 1.989 . S
N1173 C1172 1.342 . S
N1173 N1174 1.388 . S
N1174 Co1157 1.993 . S
N1174 N1173 1.388 . S
N1174 C1175 1.346 . S
C1175 N1174 1.346 . S
C1175 C1176 1.396 . S
C1175 C1185 1.510 . S
C1176 C1172 1.401 . S
C1176 C1175 1.396 . S
C1177 C1172 1.499 . S
C1177 H1178 0.959 . S
C1177 H1179 0.960 . S
C1177 H1180 0.961 . S
H1178 C1177 0.959 . S
H1179 C1177 0.960 . S
H1180 C1177 0.961 . S
O1181 Co1156 1.967 . S
O1181 C1189 1.258 . S
O1182 Co1157 1.941 . S
O1182 C1189 1.266 . S
H1183 C1185 0.959 . S
H1184 C1185 0.961 . S
C1185 C1175 1.510 . S
C1185 H1183 0.959 . S
C1185 H1184 0.961 . S
C1185 H1186 0.960 . S
H1186 C1185 0.960 . S
H1187 N1167 0.862 . S
O1188 Co1156 1.920 . S
O1188 C1161 1.289 . S
C1189 O1181 1.258 . S
C1189 O1182 1.266 . S
Co1190 O1193 1.970 . S
Co1190 N1207 1.989 . S
Co1190 O1215 1.967 . S
Co1190 O1222 1.920 . S
Co1191 O1194 1.966 . S
Co1191 N1200 2.022 . S
Co1191 N1208 1.993 . S
Co1191 O1216 1.941 . S
C1192 O1193 1.258 . S
C1192 O1194 1.263 . S
O1193 Co1190 1.970 . S
O1193 C1192 1.258 . S
O1194 Co1191 1.966 . S
O1194 C1192 1.263 . S
C1195 O1196 1.235 . S
C1195 O1222 1.289 . S
O1196 C1195 1.235 . S
C1197 C1199 1.400 . S
C1197 N1200 1.351 . S
C1197 C1202 1.501 . S
C1198 C1199 1.387 . S
C1198 N1201 1.341 . S
C1199 C1197 1.400 . S
C1199 C1198 1.387 . S
N1200 Co1191 2.022 . S
N1200 C1197 1.351 . S
N1200 N1201 1.365 . S
N1201 C1198 1.341 . S
N1201 N1200 1.365 . S
N1201 H1221 0.862 . S
C1202 C1197 1.501 . S
C1202 H1203 0.961 . S
C1202 H1204 0.961 . S
C1202 H1205 0.960 . S
H1203 C1202 0.961 . S
H1204 C1202 0.961 . S
H1205 C1202 0.960 . S
C1206 N1207 1.342 . S
C1206 C1210 1.401 . S
C1206 C1211 1.499 . S
N1207 Co1190 1.989 . S
N1207 C1206 1.342 . S
N1207 N1208 1.388 . S
N1208 Co1191 1.993 . S
N1208 N1207 1.388 . S
N1208 C1209 1.346 . S
C1209 N1208 1.346 . S
C1209 C1210 1.396 . S
C1209 C1219 1.510 . S
C1210 C1206 1.401 . S
C1210 C1209 1.396 . S
C1211 C1206 1.499 . S
C1211 H1212 0.959 . S
C1211 H1213 0.960 . S
C1211 H1214 0.961 . S
H1212 C1211 0.959 . S
H1213 C1211 0.960 . S
H1214 C1211 0.961 . S
O1215 Co1190 1.967 . S
O1215 C1223 1.258 . S
O1216 Co1191 1.941 . S
O1216 C1223 1.266 . S
H1217 C1219 0.959 . S
H1218 C1219 0.961 . S
C1219 C1209 1.510 . S
C1219 H1217 0.959 . S
C1219 H1218 0.961 . S
C1219 H1220 0.960 . S
H1220 C1219 0.960 . S
H1221 N1201 0.862 . S
O1222 Co1190 1.920 . S
O1222 C1195 1.289 . S
C1223 O1215 1.258 . S
C1223 O1216 1.266 . S
H1224 C1230 0.930 . S
H1225 C1234 0.930 . S
H1226 C1239 0.929 . S
H1227 C1237 0.929 . S
H1228 C1232 0.929 . S
H1229 C1238 0.929 . S
C1230 H1224 0.930 . S
C1230 C1231 1.367 . S
C1230 C1238 1.378 . S
C1231 C1230 1.367 . S
C1231 C1239 1.433 . S
C1232 H1228 0.929 . S
C1232 C1234 1.378 . S
C1232 C1236 1.350 . S
C1233 C1236 1.463 . S
C1233 C1238 1.350 . S
C1233 N1241 1.427 . S
C1234 H1225 0.930 . S
C1234 C1232 1.378 . S
C1234 C1235 1.367 . S
C1235 C1234 1.367 . S
C1235 C1237 1.433 . S
C1236 C1232 1.350 . S
C1236 C1233 1.463 . S
C1236 N1240 1.427 . S
C1237 H1227 0.929 . S
C1237 C1235 1.433 . S
C1237 N1240 1.384 . S
C1238 H1229 0.929 . S
C1238 C1230 1.378 . S
C1238 C1233 1.350 . S
C1239 H1226 0.929 . S
C1239 C1231 1.433 . S
C1239 N1241 1.384 . S
N1240 C1236 1.427 . S
N1240 C1237 1.384 . S
N1241 C1233 1.427 . S
N1241 C1239 1.384 . S
H1242 C1248 0.930 . S
H1243 C1252 0.930 . S
H1244 C1257 0.929 . S
H1245 C1255 0.929 . S
H1246 C1250 0.929 . S
H1247 C1256 0.929 . S
C1248 H1242 0.930 . S
C1248 C1249 1.367 . S
C1248 C1256 1.378 . S
C1249 C1248 1.367 . S
C1249 C1257 1.433 1_545 S
C1250 H1246 0.929 . S
C1250 C1252 1.378 . S
C1250 C1254 1.350 . S
C1251 C1254 1.463 1_545 S
C1251 C1256 1.350 . S
C1251 N1259 1.427 1_545 S
C1252 H1243 0.930 . S
C1252 C1250 1.378 . S
C1252 C1253 1.367 . S
C1253 C1252 1.367 . S
C1253 C1255 1.433 1_565 S
C1254 C1250 1.350 . S
C1254 C1251 1.463 1_565 S
C1254 N1258 1.427 1_565 S
C1255 H1245 0.929 . S
C1255 C1253 1.433 1_545 S
C1255 N1258 1.384 . S
C1256 H1247 0.929 . S
C1256 C1248 1.378 . S
C1256 C1251 1.350 . S
C1257 H1244 0.929 . S
C1257 C1249 1.433 1_565 S
C1257 N1259 1.384 . S
N1258 C1254 1.427 1_545 S
N1258 C1255 1.384 . S
N1259 C1251 1.427 1_565 S
N1259 C1257 1.384 . S
H1260 C1266 0.930 . S
H1261 C1270 0.930 . S
H1262 C1275 0.929 . S
H1263 C1273 0.929 . S
H1264 C1268 0.929 . S
H1265 C1274 0.929 . S
C1266 H1260 0.930 . S
C1266 C1267 1.367 . S
C1266 C1274 1.378 . S
C1267 C1266 1.367 . S
C1267 C1275 1.433 1_455 S
C1268 H1264 0.929 . S
C1268 C1270 1.378 . S
C1268 C1272 1.350 . S
C1269 C1272 1.463 1_455 S
C1269 C1274 1.350 . S
C1269 N1277 1.427 1_455 S
C1270 H1261 0.930 . S
C1270 C1268 1.378 . S
C1270 C1271 1.367 . S
C1271 C1270 1.367 . S
C1271 C1273 1.433 1_655 S
C1272 C1268 1.350 . S
C1272 C1269 1.463 1_655 S
C1272 N1276 1.427 1_655 S
C1273 H1263 0.929 . S
C1273 C1271 1.433 1_455 S
C1273 N1276 1.384 . S
C1274 H1265 0.929 . S
C1274 C1266 1.378 . S
C1274 C1269 1.350 . S
C1275 H1262 0.929 . S
C1275 C1267 1.433 1_655 S
C1275 N1277 1.384 . S
N1276 C1272 1.427 1_455 S
N1276 C1273 1.384 . S
N1277 C1269 1.427 1_655 S
N1277 C1275 1.384 . S
H1278 C1284 0.930 . S
H1279 C1288 0.930 . S
H1280 C1293 0.929 . S
H1281 C1291 0.929 . S
H1282 C1286 0.929 . S
H1283 C1292 0.929 . S
C1284 H1278 0.930 . S
C1284 C1285 1.367 . S
C1284 C1292 1.378 . S
C1285 C1284 1.367 . S
C1285 C1293 1.433 . S
C1286 H1282 0.929 . S
C1286 C1288 1.378 . S
C1286 C1290 1.350 . S
C1287 C1290 1.463 . S
C1287 C1292 1.350 . S
C1287 N1295 1.427 . S
C1288 H1279 0.930 . S
C1288 C1286 1.378 . S
C1288 C1289 1.367 . S
C1289 C1288 1.367 . S
C1289 C1291 1.433 . S
C1290 C1286 1.350 . S
C1290 C1287 1.463 . S
C1290 N1294 1.427 . S
C1291 H1281 0.929 . S
C1291 C1289 1.433 . S
C1291 N1294 1.384 . S
C1292 H1283 0.929 . S
C1292 C1284 1.378 . S
C1292 C1287 1.350 . S
C1293 H1280 0.929 . S
C1293 C1285 1.433 . S
C1293 N1295 1.384 . S
N1294 C1290 1.427 . S
N1294 C1291 1.384 . S
N1295 C1287 1.427 . S
N1295 C1293 1.384 . S
H1296 C1302 0.930 . S
H1297 C1306 0.930 . S
H1298 C1311 0.929 . S
H1299 C1309 0.929 . S
H1300 C1304 0.929 . S
H1301 C1310 0.929 . S
C1302 H1296 0.930 . S
C1302 C1303 1.367 . S
C1302 C1310 1.378 . S
C1303 C1302 1.367 . S
C1303 C1311 1.433 1_565 S
C1304 H1300 0.929 . S
C1304 C1306 1.378 . S
C1304 C1308 1.350 . S
C1305 C1308 1.463 1_565 S
C1305 C1310 1.350 . S
C1305 N1313 1.427 1_565 S
C1306 H1297 0.930 . S
C1306 C1304 1.378 . S
C1306 C1307 1.367 . S
C1307 C1306 1.367 . S
C1307 C1309 1.433 1_545 S
C1308 C1304 1.350 . S
C1308 C1305 1.463 1_545 S
C1308 N1312 1.427 1_545 S
C1309 H1299 0.929 . S
C1309 C1307 1.433 1_565 S
C1309 N1312 1.384 . S
C1310 H1301 0.929 . S
C1310 C1302 1.378 . S
C1310 C1305 1.350 . S
C1311 H1298 0.929 . S
C1311 C1303 1.433 1_545 S
C1311 N1313 1.384 . S
N1312 C1308 1.427 1_565 S
N1312 C1309 1.384 . S
N1313 C1305 1.427 1_545 S
N1313 C1311 1.384 . S
H1314 C1320 0.930 . S
H1315 C1324 0.930 . S
H1316 C1329 0.929 . S
H1317 C1327 0.929 . S
H1318 C1322 0.929 . S
H1319 C1328 0.929 . S
C1320 H1314 0.930 . S
C1320 C1321 1.367 . S
C1320 C1328 1.378 . S
C1321 C1320 1.367 . S
C1321 C1329 1.433 . S
C1322 H1318 0.929 . S
C1322 C1324 1.378 . S
C1322 C1326 1.350 . S
C1323 C1326 1.463 1_655 S
C1323 C1328 1.350 . S
C1323 N1331 1.427 . S
C1324 H1315 0.930 . S
C1324 C1322 1.378 . S
C1324 C1325 1.367 . S
C1325 C1324 1.367 . S
C1325 C1327 1.433 . S
C1326 C1322 1.350 . S
C1326 C1323 1.463 1_455 S
C1326 N1330 1.427 . S
C1327 H1317 0.929 . S
C1327 C1325 1.433 . S
C1327 N1330 1.384 . S
C1328 H1319 0.929 . S
C1328 C1320 1.378 . S
C1328 C1323 1.350 . S
C1329 H1316 0.929 . S
C1329 C1321 1.433 . S
C1329 N1331 1.384 . S
N1330 C1326 1.427 . S
N1330 C1327 1.384 . S
N1331 C1323 1.427 . S
N1331 C1329 1.384 . S
H1332 C1338 0.930 . S
H1333 C1342 0.930 . S
H1334 C1347 0.929 . S
H1335 C1345 0.929 . S
H1336 C1340 0.929 . S
H1337 C1346 0.929 . S
C1338 H1332 0.930 . S
C1338 C1339 1.367 . S
C1338 C1346 1.378 . S
C1339 C1338 1.367 . S
C1339 C1347 1.433 . S
C1340 H1336 0.929 . S
C1340 C1342 1.378 . S
C1340 C1344 1.350 . S
C1341 C1344 1.463 . S
C1341 C1346 1.350 . S
C1341 N1349 1.427 . S
C1342 H1333 0.930 . S
C1342 C1340 1.378 . S
C1342 C1343 1.367 . S
C1343 C1342 1.367 . S
C1343 C1345 1.433 . S
C1344 C1340 1.350 . S
C1344 C1341 1.463 . S
C1344 N1348 1.427 . S
C1345 H1335 0.929 . S
C1345 C1343 1.433 . S
C1345 N1348 1.384 . S
C1346 H1337 0.929 . S
C1346 C1338 1.378 . S
C1346 C1341 1.350 . S
C1347 H1334 0.929 . S
C1347 C1339 1.433 . S
C1347 N1349 1.384 . S
N1348 C1344 1.427 . S
N1348 C1345 1.384 . S
N1349 C1341 1.427 . S
N1349 C1347 1.384 . S
H1350 C1356 0.930 . S
H1351 C1360 0.930 . S
H1352 C1365 0.929 . S
H1353 C1363 0.929 . S
H1354 C1358 0.929 . S
H1355 C1364 0.929 . S
C1356 H1350 0.930 . S
C1356 C1357 1.367 . S
C1356 C1364 1.378 . S
C1357 C1356 1.367 . S
C1357 C1365 1.433 . S
C1358 H1354 0.929 . S
C1358 C1360 1.378 . S
C1358 C1362 1.350 . S
C1359 C1362 1.463 . S
C1359 C1364 1.350 . S
C1359 N1367 1.427 . S
C1360 H1351 0.930 . S
C1360 C1358 1.378 . S
C1360 C1361 1.367 . S
C1361 C1360 1.367 . S
C1361 C1363 1.433 . S
C1362 C1358 1.350 . S
C1362 C1359 1.463 . S
C1362 N1366 1.427 . S
C1363 H1353 0.929 . S
C1363 C1361 1.433 . S
C1363 N1366 1.384 . S
C1364 H1355 0.929 . S
C1364 C1356 1.378 . S
C1364 C1359 1.350 . S
C1365 H1352 0.929 . S
C1365 C1357 1.433 . S
C1365 N1367 1.384 . S
N1366 C1362 1.427 . S
N1366 C1363 1.384 . S
N1367 C1359 1.427 . S
N1367 C1365 1.384 . S
H1368 C1374 0.930 . S
H1369 C1378 0.930 . S
H1370 C1383 0.929 . S
H1371 C1381 0.929 . S
H1372 C1376 0.929 . S
H1373 C1382 0.929 . S
C1374 H1368 0.930 . S
C1374 C1375 1.367 . S
C1374 C1382 1.378 . S
C1375 C1374 1.367 . S
C1375 C1383 1.433 . S
C1376 H1372 0.929 . S
C1376 C1378 1.378 . S
C1376 C1380 1.350 . S
C1377 C1380 1.463 . S
C1377 C1382 1.350 . S
C1377 N1385 1.427 . S
C1378 H1369 0.930 . S
C1378 C1376 1.378 . S
C1378 C1379 1.367 . S
C1379 C1378 1.367 . S
C1379 C1381 1.433 . S
C1380 C1376 1.350 . S
C1380 C1377 1.463 . S
C1380 N1384 1.427 . S
C1381 H1371 0.929 . S
C1381 C1379 1.433 . S
C1381 N1384 1.384 . S
C1382 H1373 0.929 . S
C1382 C1374 1.378 . S
C1382 C1377 1.350 . S
C1383 H1370 0.929 . S
C1383 C1375 1.433 . S
C1383 N1385 1.384 . S
N1384 C1380 1.427 . S
N1384 C1381 1.384 . S
N1385 C1377 1.427 . S
N1385 C1383 1.384 . S
H1386 C1392 0.930 . S
H1387 C1396 0.930 . S
H1388 C1401 0.929 . S
H1389 C1399 0.929 . S
H1390 C1394 0.929 . S
H1391 C1400 0.929 . S
C1392 H1386 0.930 . S
C1392 C1393 1.367 . S
C1392 C1400 1.378 . S
C1393 C1392 1.367 . S
C1393 C1401 1.433 . S
C1394 H1390 0.929 . S
C1394 C1396 1.378 . S
C1394 C1398 1.350 . S
C1395 C1398 1.463 . S
C1395 C1400 1.350 . S
C1395 N1403 1.427 . S
C1396 H1387 0.930 . S
C1396 C1394 1.378 . S
C1396 C1397 1.367 . S
C1397 C1396 1.367 . S
C1397 C1399 1.433 . S
C1398 C1394 1.350 . S
C1398 C1395 1.463 . S
C1398 N1402 1.427 . S
C1399 H1389 0.929 . S
C1399 C1397 1.433 . S
C1399 N1402 1.384 . S
C1400 H1391 0.929 . S
C1400 C1392 1.378 . S
C1400 C1395 1.350 . S
C1401 H1388 0.929 . S
C1401 C1393 1.433 . S
C1401 N1403 1.384 . S
N1402 C1398 1.427 . S
N1402 C1399 1.384 . S
N1403 C1395 1.427 . S
N1403 C1401 1.384 . S
H1404 C1410 0.930 . S
H1405 C1414 0.930 . S
H1406 C1419 0.929 . S
H1407 C1417 0.929 . S
H1408 C1412 0.929 . S
H1409 C1418 0.929 . S
C1410 H1404 0.930 . S
C1410 C1411 1.367 . S
C1410 C1418 1.378 . S
C1411 C1410 1.367 . S
C1411 C1419 1.433 . S
C1412 H1408 0.929 . S
C1412 C1414 1.378 . S
C1412 C1416 1.350 . S
C1413 C1416 1.463 . S
C1413 C1418 1.350 . S
C1413 N1421 1.427 . S
C1414 H1405 0.930 . S
C1414 C1412 1.378 . S
C1414 C1415 1.367 . S
C1415 C1414 1.367 . S
C1415 C1417 1.433 . S
C1416 C1412 1.350 . S
C1416 C1413 1.463 . S
C1416 N1420 1.427 . S
C1417 H1407 0.929 . S
C1417 C1415 1.433 . S
C1417 N1420 1.384 . S
C1418 H1409 0.929 . S
C1418 C1410 1.378 . S
C1418 C1413 1.350 . S
C1419 H1406 0.929 . S
C1419 C1411 1.433 . S
C1419 N1421 1.384 . S
N1420 C1416 1.427 . S
N1420 C1417 1.384 . S
N1421 C1413 1.427 . S
N1421 C1419 1.384 . S
H1422 C1428 0.930 . S
H1423 C1432 0.930 . S
H1424 C1437 0.929 . S
H1425 C1435 0.929 . S
H1426 C1430 0.929 . S
H1427 C1436 0.929 . S
C1428 H1422 0.930 . S
C1428 C1429 1.367 . S
C1428 C1436 1.378 . S
C1429 C1428 1.367 . S
C1429 C1437 1.433 . S
C1430 H1426 0.929 . S
C1430 C1432 1.378 . S
C1430 C1434 1.350 . S
C1431 C1434 1.463 . S
C1431 C1436 1.350 . S
C1431 N1439 1.427 . S
C1432 H1423 0.930 . S
C1432 C1430 1.378 . S
C1432 C1433 1.367 . S
C1433 C1432 1.367 . S
C1433 C1435 1.433 . S
C1434 C1430 1.350 . S
C1434 C1431 1.463 . S
C1434 N1438 1.427 . S
C1435 H1425 0.929 . S
C1435 C1433 1.433 . S
C1435 N1438 1.384 . S
C1436 H1427 0.929 . S
C1436 C1428 1.378 . S
C1436 C1431 1.350 . S
C1437 H1424 0.929 . S
C1437 C1429 1.433 . S
C1437 N1439 1.384 . S
N1438 C1434 1.427 . S
N1438 C1435 1.384 . S
N1439 C1431 1.427 . S
N1439 C1437 1.384 . S
H1440 C1446 0.930 . S
H1441 C1450 0.930 . S
H1442 C1455 0.929 . S
H1443 C1453 0.929 . S
H1444 C1448 0.929 . S
H1445 C1454 0.929 . S
C1446 H1440 0.930 . S
C1446 C1447 1.367 . S
C1446 C1454 1.378 . S
C1447 C1446 1.367 . S
C1447 C1455 1.433 . S
C1448 H1444 0.929 . S
C1448 C1450 1.378 . S
C1448 C1452 1.350 . S
C1449 C1452 1.463 . S
C1449 C1454 1.350 . S
C1449 N1457 1.427 . S
C1450 H1441 0.930 . S
C1450 C1448 1.378 . S
C1450 C1451 1.367 . S
C1451 C1450 1.367 . S
C1451 C1453 1.433 . S
C1452 C1448 1.350 . S
C1452 C1449 1.463 . S
C1452 N1456 1.427 . S
C1453 H1443 0.929 . S
C1453 C1451 1.433 . S
C1453 N1456 1.384 . S
C1454 H1445 0.929 . S
C1454 C1446 1.378 . S
C1454 C1449 1.350 . S
C1455 H1442 0.929 . S
C1455 C1447 1.433 . S
C1455 N1457 1.384 . S
N1456 C1452 1.427 . S
N1456 C1453 1.384 . S
N1457 C1449 1.427 . S
N1457 C1455 1.384 . S
H1458 C1464 0.930 . S
H1459 C1468 0.930 . S
H1460 C1473 0.929 . S
H1461 C1471 0.929 . S
H1462 C1466 0.929 . S
H1463 C1472 0.929 . S
C1464 H1458 0.930 . S
C1464 C1465 1.367 . S
C1464 C1472 1.378 . S
C1465 C1464 1.367 . S
C1465 C1473 1.433 . S
C1466 H1462 0.929 . S
C1466 C1468 1.378 . S
C1466 C1470 1.350 . S
C1467 C1470 1.463 . S
C1467 C1472 1.350 . S
C1467 N1475 1.427 . S
C1468 H1459 0.930 . S
C1468 C1466 1.378 . S
C1468 C1469 1.367 . S
C1469 C1468 1.367 . S
C1469 C1471 1.433 . S
C1470 C1466 1.350 . S
C1470 C1467 1.463 . S
C1470 N1474 1.427 . S
C1471 H1461 0.929 . S
C1471 C1469 1.433 . S
C1471 N1474 1.384 . S
C1472 H1463 0.929 . S
C1472 C1464 1.378 . S
C1472 C1467 1.350 . S
C1473 H1460 0.929 . S
C1473 C1465 1.433 . S
C1473 N1475 1.384 . S
N1474 C1470 1.427 . S
N1474 C1471 1.384 . S
N1475 C1467 1.427 . S
N1475 C1473 1.384 . S
H1476 C1482 0.930 . S
H1477 C1486 0.930 . S
H1478 C1491 0.929 . S
H1479 C1489 0.929 . S
H1480 C1484 0.929 . S
H1481 C1490 0.929 . S
C1482 H1476 0.930 . S
C1482 C1483 1.367 . S
C1482 C1490 1.378 . S
C1483 C1482 1.367 . S
C1483 C1491 1.433 . S
C1484 H1480 0.929 . S
C1484 C1486 1.378 . S
C1484 C1488 1.350 . S
C1485 C1488 1.463 . S
C1485 C1490 1.350 . S
C1485 N1493 1.427 . S
C1486 H1477 0.930 . S
C1486 C1484 1.378 . S
C1486 C1487 1.367 . S
C1487 C1486 1.367 . S
C1487 C1489 1.433 . S
C1488 C1484 1.350 . S
C1488 C1485 1.463 . S
C1488 N1492 1.427 . S
C1489 H1479 0.929 . S
C1489 C1487 1.433 . S
C1489 N1492 1.384 . S
C1490 H1481 0.929 . S
C1490 C1482 1.378 . S
C1490 C1485 1.350 . S
C1491 H1478 0.929 . S
C1491 C1483 1.433 . S
C1491 N1493 1.384 . S
N1492 C1488 1.427 . S
N1492 C1489 1.384 . S
N1493 C1485 1.427 . S
N1493 C1491 1.384 . S
H1494 C1500 0.930 . S
H1495 C1504 0.930 . S
H1496 C1509 0.929 . S
H1497 C1507 0.929 . S
H1498 C1502 0.929 . S
H1499 C1508 0.929 . S
C1500 H1494 0.930 . S
C1500 C1501 1.367 . S
C1500 C1508 1.378 . S
C1501 C1500 1.367 . S
C1501 C1509 1.433 . S
C1502 H1498 0.929 . S
C1502 C1504 1.378 . S
C1502 C1506 1.350 . S
C1503 C1506 1.463 . S
C1503 C1508 1.350 . S
C1503 N1511 1.427 . S
C1504 H1495 0.930 . S
C1504 C1502 1.378 . S
C1504 C1505 1.367 . S
C1505 C1504 1.367 . S
C1505 C1507 1.433 . S
C1506 C1502 1.350 . S
C1506 C1503 1.463 . S
C1506 N1510 1.427 . S
C1507 H1497 0.929 . S
C1507 C1505 1.433 . S
C1507 N1510 1.384 . S
C1508 H1499 0.929 . S
C1508 C1500 1.378 . S
C1508 C1503 1.350 . S
C1509 H1496 0.929 . S
C1509 C1501 1.433 . S
C1509 N1511 1.384 . S
N1510 C1506 1.427 . S
N1510 C1507 1.384 . S
N1511 C1503 1.427 . S
N1511 C1509 1.384 . S
H1512 C1518 0.930 . S
H1513 C1522 0.930 . S
H1514 C1527 0.929 . S
H1515 C1525 0.929 . S
H1516 C1520 0.929 . S
H1517 C1526 0.929 . S
C1518 H1512 0.930 . S
C1518 C1519 1.367 . S
C1518 C1526 1.378 . S
C1519 C1518 1.367 . S
C1519 C1527 1.433 . S
C1520 H1516 0.929 . S
C1520 C1522 1.378 . S
C1520 C1524 1.350 . S
C1521 C1524 1.463 . S
C1521 C1526 1.350 . S
C1521 N1529 1.427 . S
C1522 H1513 0.930 . S
C1522 C1520 1.378 . S
C1522 C1523 1.367 . S
C1523 C1522 1.367 . S
C1523 C1525 1.433 . S
C1524 C1520 1.350 . S
C1524 C1521 1.463 . S
C1524 N1528 1.427 . S
C1525 H1515 0.929 . S
C1525 C1523 1.433 . S
C1525 N1528 1.384 . S
C1526 H1517 0.929 . S
C1526 C1518 1.378 . S
C1526 C1521 1.350 . S
C1527 H1514 0.929 . S
C1527 C1519 1.433 . S
C1527 N1529 1.384 . S
N1528 C1524 1.427 . S
N1528 C1525 1.384 . S
N1529 C1521 1.427 . S
N1529 C1527 1.384 . S
H1530 C1536 0.930 . S
H1531 C1540 0.930 . S
H1532 C1545 0.929 . S
H1533 C1543 0.929 . S
H1534 C1538 0.929 . S
H1535 C1544 0.929 . S
C1536 H1530 0.930 . S
C1536 C1537 1.367 . S
C1536 C1544 1.378 . S
C1537 C1536 1.367 . S
C1537 C1545 1.433 . S
C1538 H1534 0.929 . S
C1538 C1540 1.378 . S
C1538 C1542 1.350 . S
C1539 C1542 1.463 . S
C1539 C1544 1.350 . S
C1539 N1547 1.427 . S
C1540 H1531 0.930 . S
C1540 C1538 1.378 . S
C1540 C1541 1.367 . S
C1541 C1540 1.367 . S
C1541 C1543 1.433 . S
C1542 C1538 1.350 . S
C1542 C1539 1.463 . S
C1542 N1546 1.427 . S
C1543 H1533 0.929 . S
C1543 C1541 1.433 . S
C1543 N1546 1.384 . S
C1544 H1535 0.929 . S
C1544 C1536 1.378 . S
C1544 C1539 1.350 . S
C1545 H1532 0.929 . S
C1545 C1537 1.433 . S
C1545 N1547 1.384 . S
N1546 C1542 1.427 . S
N1546 C1543 1.384 . S
N1547 C1539 1.427 . S
N1547 C1545 1.384 . S
H1548 C1554 0.930 . S
H1549 C1558 0.930 . S
H1550 C1563 0.929 . S
H1551 C1561 0.929 . S
H1552 C1556 0.929 . S
H1553 C1562 0.929 . S
C1554 H1548 0.930 . S
C1554 C1555 1.367 . S
C1554 C1562 1.378 . S
C1555 C1554 1.367 . S
C1555 C1563 1.433 . S
C1556 H1552 0.929 . S
C1556 C1558 1.378 . S
C1556 C1560 1.350 . S
C1557 C1560 1.463 . S
C1557 C1562 1.350 . S
C1557 N1565 1.427 . S
C1558 H1549 0.930 . S
C1558 C1556 1.378 . S
C1558 C1559 1.367 . S
C1559 C1558 1.367 . S
C1559 C1561 1.433 . S
C1560 C1556 1.350 . S
C1560 C1557 1.463 . S
C1560 N1564 1.427 . S
C1561 H1551 0.929 . S
C1561 C1559 1.433 . S
C1561 N1564 1.384 . S
C1562 H1553 0.929 . S
C1562 C1554 1.378 . S
C1562 C1557 1.350 . S
C1563 H1550 0.929 . S
C1563 C1555 1.433 . S
C1563 N1565 1.384 . S
N1564 C1560 1.427 . S
N1564 C1561 1.384 . S
N1565 C1557 1.427 . S
N1565 C1563 1.384 . S
H1566 C1572 0.930 . S
H1567 C1576 0.930 . S
H1568 C1581 0.929 . S
H1569 C1579 0.929 . S
H1570 C1574 0.929 . S
H1571 C1580 0.929 . S
C1572 H1566 0.930 . S
C1572 C1573 1.367 . S
C1572 C1580 1.378 . S
C1573 C1572 1.367 . S
C1573 C1581 1.433 . S
C1574 H1570 0.929 . S
C1574 C1576 1.378 . S
C1574 C1578 1.350 . S
C1575 C1578 1.463 . S
C1575 C1580 1.350 . S
C1575 N1583 1.427 . S
C1576 H1567 0.930 . S
C1576 C1574 1.378 . S
C1576 C1577 1.367 . S
C1577 C1576 1.367 . S
C1577 C1579 1.433 1_565 S
C1578 C1574 1.350 . S
C1578 C1575 1.463 . S
C1578 N1582 1.427 . S
C1579 H1569 0.929 . S
C1579 C1577 1.433 1_545 S
C1579 N1582 1.384 1_545 S
C1580 H1571 0.929 . S
C1580 C1572 1.378 . S
C1580 C1575 1.350 . S
C1581 H1568 0.929 . S
C1581 C1573 1.433 . S
C1581 N1583 1.384 . S
N1582 C1578 1.427 . S
N1582 C1579 1.384 1_565 S
N1583 C1575 1.427 . S
N1583 C1581 1.384 . S
H1584 C1590 0.930 . S
H1585 C1594 0.930 . S
H1586 C1599 0.929 . S
H1587 C1597 0.929 . S
H1588 C1592 0.929 . S
H1589 C1598 0.929 1_655 S
C1590 H1584 0.930 . S
C1590 C1591 1.367 1_655 S
C1590 C1598 1.378 1_655 S
C1591 C1590 1.367 1_455 S
C1591 C1599 1.433 . S
C1592 H1588 0.929 . S
C1592 C1594 1.378 . S
C1592 C1596 1.350 . S
C1593 C1596 1.463 . S
C1593 C1598 1.350 . S
C1593 N1601 1.427 . S
C1594 H1585 0.930 . S
C1594 C1592 1.378 . S
C1594 C1595 1.367 . S
C1595 C1594 1.367 . S
C1595 C1597 1.433 . S
C1596 C1592 1.350 . S
C1596 C1593 1.463 . S
C1596 N1600 1.427 . S
C1597 H1587 0.929 . S
C1597 C1595 1.433 . S
C1597 N1600 1.384 . S
C1598 H1589 0.929 1_455 S
C1598 C1590 1.378 1_455 S
C1598 C1593 1.350 . S
C1599 H1586 0.929 . S
C1599 C1591 1.433 . S
C1599 N1601 1.384 . S
N1600 C1596 1.427 . S
N1600 C1597 1.384 . S
N1601 C1593 1.427 . S
N1601 C1599 1.384 . S
H1602 C1608 0.930 . S
H1603 C1612 0.930 . S
H1604 C1617 0.929 . S
H1605 C1615 0.929 . S
H1606 C1610 0.929 . S
H1607 C1616 0.929 . S
C1608 H1602 0.930 . S
C1608 C1609 1.367 . S
C1608 C1616 1.378 . S
C1609 C1608 1.367 . S
C1609 C1617 1.433 . S
C1610 H1606 0.929 . S
C1610 C1612 1.378 . S
C1610 C1614 1.350 . S
C1611 C1614 1.463 . S
C1611 C1616 1.350 . S
C1611 N1619 1.427 . S
C1612 H1603 0.930 . S
C1612 C1610 1.378 . S
C1612 C1613 1.367 . S
C1613 C1612 1.367 . S
C1613 C1615 1.433 . S
C1614 C1610 1.350 . S
C1614 C1611 1.463 . S
C1614 N1618 1.427 . S
C1615 H1605 0.929 . S
C1615 C1613 1.433 . S
C1615 N1618 1.384 . S
C1616 H1607 0.929 . S
C1616 C1608 1.378 . S
C1616 C1611 1.350 . S
C1617 H1604 0.929 . S
C1617 C1609 1.433 . S
C1617 N1619 1.384 . S
N1618 C1614 1.427 . S
N1618 C1615 1.384 . S
N1619 C1611 1.427 . S
N1619 C1617 1.384 . S
H1620 C1626 0.930 1_565 S
H1621 C1630 0.930 . S
H1622 C1635 0.929 . S
H1623 C1633 0.929 . S
H1624 C1628 0.929 . S
H1625 C1634 0.929 . S
C1626 H1620 0.930 1_545 S
C1626 C1627 1.367 . S
C1626 C1634 1.378 . S
C1627 C1626 1.367 . S
C1627 C1635 1.433 . S
C1628 H1624 0.929 . S
C1628 C1630 1.378 . S
C1628 C1632 1.350 . S
C1629 C1632 1.463 . S
C1629 C1634 1.350 . S
C1629 N1637 1.427 . S
C1630 H1621 0.930 . S
C1630 C1628 1.378 . S
C1630 C1631 1.367 . S
C1631 C1630 1.367 . S
C1631 C1633 1.433 . S
C1632 C1628 1.350 . S
C1632 C1629 1.463 . S
C1632 N1636 1.427 . S
C1633 H1623 0.929 . S
C1633 C1631 1.433 . S
C1633 N1636 1.384 . S
C1634 H1625 0.929 . S
C1634 C1626 1.378 . S
C1634 C1629 1.350 . S
C1635 H1622 0.929 . S
C1635 C1627 1.433 . S
C1635 N1637 1.384 . S
N1636 C1632 1.427 . S
N1636 C1633 1.384 . S
N1637 C1629 1.427 . S
N1637 C1635 1.384 . S
H1638 C1644 0.930 . S
H1639 C1648 0.930 . S
H1640 C1653 0.929 . S
H1641 C1651 0.929 . S
H1642 C1646 0.929 . S
H1643 C1652 0.929 . S
C1644 H1638 0.930 . S
C1644 C1645 1.367 . S
C1644 C1652 1.378 . S
C1645 C1644 1.367 . S
C1645 C1653 1.433 . S
C1646 H1642 0.929 . S
C1646 C1648 1.378 1_655 S
C1646 C1650 1.350 . S
C1647 C1650 1.463 . S
C1647 C1652 1.350 . S
C1647 N1655 1.427 . S
C1648 H1639 0.930 . S
C1648 C1646 1.378 1_455 S
C1648 C1649 1.367 1_455 S
C1649 C1648 1.367 1_655 S
C1649 C1651 1.433 . S
C1650 C1646 1.350 . S
C1650 C1647 1.463 . S
C1650 N1654 1.427 . S
C1651 H1641 0.929 . S
C1651 C1649 1.433 . S
C1651 N1654 1.384 . S
C1652 H1643 0.929 . S
C1652 C1644 1.378 . S
C1652 C1647 1.350 . S
C1653 H1640 0.929 . S
C1653 C1645 1.433 . S
C1653 N1655 1.384 . S
N1654 C1650 1.427 . S
N1654 C1651 1.384 . S
N1655 C1647 1.427 . S
N1655 C1653 1.384 . S
H1656 C1662 0.930 . S
H1657 C1666 0.930 . S
H1658 C1671 0.929 . S
H1659 C1669 0.929 . S
H1660 C1664 0.929 . S
H1661 C1670 0.929 . S
C1662 H1656 0.930 . S
C1662 C1663 1.367 . S
C1662 C1670 1.378 . S
C1663 C1662 1.367 . S
C1663 C1671 1.433 . S
C1664 H1660 0.929 . S
C1664 C1666 1.378 . S
C1664 C1668 1.350 . S
C1665 C1668 1.463 . S
C1665 C1670 1.350 . S
C1665 N1673 1.427 . S
C1666 H1657 0.930 . S
C1666 C1664 1.378 . S
C1666 C1667 1.367 . S
C1667 C1666 1.367 . S
C1667 C1669 1.433 . S
C1668 C1664 1.350 . S
C1668 C1665 1.463 . S
C1668 N1672 1.427 . S
C1669 H1659 0.929 . S
C1669 C1667 1.433 . S
C1669 N1672 1.384 . S
C1670 H1661 0.929 . S
C1670 C1662 1.378 . S
C1670 C1665 1.350 . S
C1671 H1658 0.929 . S
C1671 C1663 1.433 . S
C1671 N1673 1.384 . S
N1672 C1668 1.427 . S
N1672 C1669 1.384 . S
N1673 C1665 1.427 . S
N1673 C1671 1.384 . S
H1674 C1680 0.930 . S
H1675 C1684 0.930 . S
H1676 C1689 0.929 . S
H1677 C1687 0.929 . S
H1678 C1682 0.929 . S
H1679 C1688 0.929 . S
C1680 H1674 0.930 . S
C1680 C1681 1.367 . S
C1680 C1688 1.378 . S
C1681 C1680 1.367 . S
C1681 C1689 1.433 . S
C1682 H1678 0.929 . S
C1682 C1684 1.378 1_545 S
C1682 C1686 1.350 . S
C1683 C1686 1.463 . S
C1683 C1688 1.350 . S
C1683 N1691 1.427 . S
C1684 H1675 0.930 . S
C1684 C1682 1.378 1_565 S
C1684 C1685 1.367 1_565 S
C1685 C1684 1.367 1_545 S
C1685 C1687 1.433 . S
C1686 C1682 1.350 . S
C1686 C1683 1.463 . S
C1686 N1690 1.427 . S
C1687 H1677 0.929 . S
C1687 C1685 1.433 . S
C1687 N1690 1.384 . S
C1688 H1679 0.929 . S
C1688 C1680 1.378 . S
C1688 C1683 1.350 . S
C1689 H1676 0.929 . S
C1689 C1681 1.433 . S
C1689 N1691 1.384 . S
N1690 C1686 1.427 . S
N1690 C1687 1.384 . S
N1691 C1683 1.427 . S
N1691 C1689 1.384 . S
H1692 C1698 0.930 . S
H1693 C1702 0.930 . S
H1694 C1707 0.929 . S
H1695 C1705 0.929 1_455 S
H1696 C1700 0.929 . S
H1697 C1706 0.929 . S
C1698 H1692 0.930 . S
C1698 C1699 1.367 . S
C1698 C1706 1.378 . S
C1699 C1698 1.367 . S
C1699 C1707 1.433 . S
C1700 H1696 0.929 . S
C1700 C1702 1.378 . S
C1700 C1704 1.350 . S
C1701 C1704 1.463 . S
C1701 C1706 1.350 . S
C1701 N1709 1.427 . S
C1702 H1693 0.930 . S
C1702 C1700 1.378 . S
C1702 C1703 1.367 . S
C1703 C1702 1.367 . S
C1703 C1705 1.433 . S
C1704 C1700 1.350 . S
C1704 C1701 1.463 . S
C1704 N1708 1.427 . S
C1705 H1695 0.929 1_655 S
C1705 C1703 1.433 . S
C1705 N1708 1.384 . S
C1706 H1697 0.929 . S
C1706 C1698 1.378 . S
C1706 C1701 1.350 . S
C1707 H1694 0.929 . S
C1707 C1699 1.433 . S
C1707 N1709 1.384 . S
N1708 C1704 1.427 . S
N1708 C1705 1.384 . S
N1709 C1701 1.427 . S
N1709 C1707 1.384 . S
H1710 C1716 0.930 . S
H1711 C1720 0.930 . S
H1712 C1725 0.929 . S
H1713 C1723 0.929 . S
H1714 C1718 0.929 . S
H1715 C1724 0.929 . S
C1716 H1710 0.930 . S
C1716 C1717 1.367 . S
C1716 C1724 1.378 . S
C1717 C1716 1.367 . S
C1717 C1725 1.433 . S
C1718 H1714 0.929 . S
C1718 C1720 1.378 . S
C1718 C1722 1.350 . S
C1719 C1722 1.463 . S
C1719 C1724 1.350 . S
C1719 N1727 1.427 . S
C1720 H1711 0.930 . S
C1720 C1718 1.378 . S
C1720 C1721 1.367 . S
C1721 C1720 1.367 . S
C1721 C1723 1.433 . S
C1722 C1718 1.350 . S
C1722 C1719 1.463 . S
C1722 N1726 1.427 . S
C1723 H1713 0.929 . S
C1723 C1721 1.433 . S
C1723 N1726 1.384 . S
C1724 H1715 0.929 . S
C1724 C1716 1.378 . S
C1724 C1719 1.350 . S
C1725 H1712 0.929 . S
C1725 C1717 1.433 . S
C1725 N1727 1.384 . S
N1726 C1722 1.427 . S
N1726 C1723 1.384 . S
N1727 C1719 1.427 . S
N1727 C1725 1.384 . S
H1728 C1734 0.930 . S
H1729 C1738 0.930 . S
H1730 C1743 0.929 . S
H1731 C1741 0.929 1_545 S
H1732 C1736 0.929 . S
H1733 C1742 0.929 . S
C1734 H1728 0.930 . S
C1734 C1735 1.367 . S
C1734 C1742 1.378 . S
C1735 C1734 1.367 . S
C1735 C1743 1.433 . S
C1736 H1732 0.929 . S
C1736 C1738 1.378 . S
C1736 C1740 1.350 . S
C1737 C1740 1.463 . S
C1737 C1742 1.350 . S
C1737 N1745 1.427 . S
C1738 H1729 0.930 . S
C1738 C1736 1.378 . S
C1738 C1739 1.367 . S
C1739 C1738 1.367 . S
C1739 C1741 1.433 . S
C1740 C1736 1.350 . S
C1740 C1737 1.463 . S
C1740 N1744 1.427 . S
C1741 H1731 0.929 1_565 S
C1741 C1739 1.433 . S
C1741 N1744 1.384 . S
C1742 H1733 0.929 . S
C1742 C1734 1.378 . S
C1742 C1737 1.350 . S
C1743 H1730 0.929 . S
C1743 C1735 1.433 . S
C1743 N1745 1.384 . S
N1744 C1740 1.427 . S
N1744 C1741 1.384 . S
N1745 C1737 1.427 . S
N1745 C1743 1.384 . S
H1746 C1752 0.930 . S
H1747 C1756 0.930 . S
H1748 C1761 0.929 . S
H1749 C1759 0.929 . S
H1750 C1754 0.929 . S
H1751 C1760 0.929 . S
C1752 H1746 0.930 . S
C1752 C1753 1.367 . S
C1752 C1760 1.378 . S
C1753 C1752 1.367 . S
C1753 C1761 1.433 . S
C1754 H1750 0.929 . S
C1754 C1756 1.378 . S
C1754 C1758 1.350 . S
C1755 C1758 1.463 . S
C1755 C1760 1.350 . S
C1755 N1763 1.427 . S
C1756 H1747 0.930 . S
C1756 C1754 1.378 . S
C1756 C1757 1.367 . S
C1757 C1756 1.367 . S
C1757 C1759 1.433 . S
C1758 C1754 1.350 . S
C1758 C1755 1.463 . S
C1758 N1762 1.427 . S
C1759 H1749 0.929 . S
C1759 C1757 1.433 . S
C1759 N1762 1.384 . S
C1760 H1751 0.929 . S
C1760 C1752 1.378 . S
C1760 C1755 1.350 . S
C1761 H1748 0.929 . S
C1761 C1753 1.433 . S
C1761 N1763 1.384 . S
N1762 C1758 1.427 . S
N1762 C1759 1.384 . S
N1763 C1755 1.427 . S
N1763 C1761 1.384 . S
H1764 C1770 0.930 . S
H1765 C1774 0.930 . S
H1766 C1779 0.929 . S
H1767 C1777 0.929 . S
H1768 C1772 0.929 . S
H1769 C1778 0.929 . S
C1770 H1764 0.930 . S
C1770 C1771 1.367 . S
C1770 C1778 1.378 . S
C1771 C1770 1.367 . S
C1771 C1779 1.433 . S
C1772 H1768 0.929 . S
C1772 C1774 1.378 . S
C1772 C1776 1.350 . S
C1773 C1776 1.463 1_455 S
C1773 C1778 1.350 . S
C1773 N1781 1.427 . S
C1774 H1765 0.930 . S
C1774 C1772 1.378 . S
C1774 C1775 1.367 . S
C1775 C1774 1.367 . S
C1775 C1777 1.433 . S
C1776 C1772 1.350 . S
C1776 C1773 1.463 1_655 S
C1776 N1780 1.427 . S
C1777 H1767 0.929 . S
C1777 C1775 1.433 . S
C1777 N1780 1.384 . S
C1778 H1769 0.929 . S
C1778 C1770 1.378 . S
C1778 C1773 1.350 . S
C1779 H1766 0.929 . S
C1779 C1771 1.433 . S
C1779 N1781 1.384 . S
N1780 C1776 1.427 . S
N1780 C1777 1.384 . S
N1781 C1773 1.427 . S
N1781 C1779 1.384 . S
H1782 C1788 0.930 . S
H1783 C1792 0.930 . S
H1784 C1797 0.929 . S
H1785 C1795 0.929 . S
H1786 C1790 0.929 . S
H1787 C1796 0.929 . S
C1788 H1782 0.930 . S
C1788 C1789 1.367 . S
C1788 C1796 1.378 . S
C1789 C1788 1.367 . S
C1789 C1797 1.433 . S
C1790 H1786 0.929 . S
C1790 C1792 1.378 . S
C1790 C1794 1.350 . S
C1791 C1794 1.463 . S
C1791 C1796 1.350 . S
C1791 N1799 1.427 . S
C1792 H1783 0.930 . S
C1792 C1790 1.378 . S
C1792 C1793 1.367 . S
C1793 C1792 1.367 . S
C1793 C1795 1.433 . S
C1794 C1790 1.350 . S
C1794 C1791 1.463 . S
C1794 N1798 1.427 . S
C1795 H1785 0.929 . S
C1795 C1793 1.433 . S
C1795 N1798 1.384 . S
C1796 H1787 0.929 . S
C1796 C1788 1.378 . S
C1796 C1791 1.350 . S
C1797 H1784 0.929 . S
C1797 C1789 1.433 . S
C1797 N1799 1.384 . S
N1798 C1794 1.427 . S
N1798 C1795 1.384 . S
N1799 C1791 1.427 . S
N1799 C1797 1.384 . S
H1800 C1806 0.930 . S
H1801 C1810 0.930 . S
H1802 C1815 0.929 . S
H1803 C1813 0.929 . S
H1804 C1808 0.929 . S
H1805 C1814 0.929 . S
C1806 H1800 0.930 . S
C1806 C1807 1.367 . S
C1806 C1814 1.378 . S
C1807 C1806 1.367 . S
C1807 C1815 1.433 . S
C1808 H1804 0.929 . S
C1808 C1810 1.378 . S
C1808 C1812 1.350 . S
C1809 C1812 1.463 1_565 S
C1809 C1814 1.350 . S
C1809 N1817 1.427 . S
C1810 H1801 0.930 . S
C1810 C1808 1.378 . S
C1810 C1811 1.367 . S
C1811 C1810 1.367 . S
C1811 C1813 1.433 . S
C1812 C1808 1.350 . S
C1812 C1809 1.463 1_545 S
C1812 N1816 1.427 . S
C1813 H1803 0.929 . S
C1813 C1811 1.433 . S
C1813 N1816 1.384 . S
C1814 H1805 0.929 . S
C1814 C1806 1.378 . S
C1814 C1809 1.350 . S
C1815 H1802 0.929 . S
C1815 C1807 1.433 . S
C1815 N1817 1.384 . S
N1816 C1812 1.427 . S
N1816 C1813 1.384 . S
N1817 C1809 1.427 . S
N1817 C1815 1.384 . S
H1818 C1824 0.930 . S
H1819 C1828 0.930 . S
H1820 C1833 0.929 . S
H1821 C1831 0.929 . S
H1822 C1826 0.929 . S
H1823 C1832 0.929 . S
C1824 H1818 0.930 . S
C1824 C1825 1.367 . S
C1824 C1832 1.378 . S
C1825 C1824 1.367 . S
C1825 C1833 1.433 . S
C1826 H1822 0.929 . S
C1826 C1828 1.378 . S
C1826 C1830 1.350 . S
C1827 C1830 1.463 1_545 S
C1827 C1832 1.350 . S
C1827 N1835 1.427 . S
C1828 H1819 0.930 . S
C1828 C1826 1.378 . S
C1828 C1829 1.367 . S
C1829 C1828 1.367 . S
C1829 C1831 1.433 . S
C1830 C1826 1.350 . S
C1830 C1827 1.463 1_565 S
C1830 N1834 1.427 . S
C1831 H1821 0.929 . S
C1831 C1829 1.433 . S
C1831 N1834 1.384 . S
C1832 H1823 0.929 . S
C1832 C1824 1.378 . S
C1832 C1827 1.350 . S
C1833 H1820 0.929 . S
C1833 C1825 1.433 . S
C1833 N1835 1.384 . S
N1834 C1830 1.427 . S
N1834 C1831 1.384 . S
N1835 C1827 1.427 . S
N1835 C1833 1.384 . S
H1836 C1842 0.930 . S
H1837 C1846 0.930 . S
H1838 C1851 0.929 . S
H1839 C1849 0.929 . S
H1840 C1844 0.929 . S
H1841 C1850 0.929 . S
C1842 H1836 0.930 . S
C1842 C1843 1.367 . S
C1842 C1850 1.378 . S
C1843 C1842 1.367 . S
C1843 C1851 1.433 . S
C1844 H1840 0.929 . S
C1844 C1846 1.378 . S
C1844 C1848 1.350 . S
C1845 C1848 1.463 1_655 S
C1845 C1850 1.350 . S
C1845 N1853 1.427 . S
C1846 H1837 0.930 . S
C1846 C1844 1.378 . S
C1846 C1847 1.367 . S
C1847 C1846 1.367 . S
C1847 C1849 1.433 . S
C1848 C1844 1.350 . S
C1848 C1845 1.463 1_455 S
C1848 N1852 1.427 . S
C1849 H1839 0.929 . S
C1849 C1847 1.433 . S
C1849 N1852 1.384 . S
C1850 H1841 0.929 . S
C1850 C1842 1.378 . S
C1850 C1845 1.350 . S
C1851 H1838 0.929 . S
C1851 C1843 1.433 . S
C1851 N1853 1.384 . S
N1852 C1848 1.427 . S
N1852 C1849 1.384 . S
N1853 C1845 1.427 . S
N1853 C1851 1.384 . S
H1854 C1860 0.930 . S
H1855 C1864 0.930 . S
H1856 C1869 0.929 . S
H1857 C1867 0.929 . S
H1858 C1862 0.929 . S
H1859 C1868 0.929 . S
C1860 H1854 0.930 . S
C1860 C1861 1.367 . S
C1860 C1868 1.378 . S
C1861 C1860 1.367 . S
C1861 C1869 1.433 . S
C1862 H1858 0.929 . S
C1862 C1864 1.378 . S
C1862 C1866 1.350 . S
C1863 C1866 1.463 . S
C1863 C1868 1.350 . S
C1863 N1871 1.427 . S
C1864 H1855 0.930 . S
C1864 C1862 1.378 . S
C1864 C1865 1.367 . S
C1865 C1864 1.367 . S
C1865 C1867 1.433 . S
C1866 C1862 1.350 . S
C1866 C1863 1.463 . S
C1866 N1870 1.427 . S
C1867 H1857 0.929 . S
C1867 C1865 1.433 . S
C1867 N1870 1.384 . S
C1868 H1859 0.929 . S
C1868 C1860 1.378 . S
C1868 C1863 1.350 . S
C1869 H1856 0.929 . S
C1869 C1861 1.433 . S
C1869 N1871 1.384 . S
N1870 C1866 1.427 . S
N1870 C1867 1.384 . S
N1871 C1863 1.427 . S
N1871 C1869 1.384 . S
H1872 C1878 0.930 . S
H1873 C1882 0.930 . S
H1874 C1887 0.929 . S
H1875 C1885 0.929 . S
H1876 C1880 0.929 . S
H1877 C1886 0.929 . S
C1878 H1872 0.930 . S
C1878 C1879 1.367 . S
C1878 C1886 1.378 . S
C1879 C1878 1.367 . S
C1879 C1887 1.433 . S
C1880 H1876 0.929 . S
C1880 C1882 1.378 . S
C1880 C1884 1.350 . S
C1881 C1884 1.463 . S
C1881 C1886 1.350 . S
C1881 N1889 1.427 . S
C1882 H1873 0.930 . S
C1882 C1880 1.378 . S
C1882 C1883 1.367 . S
C1883 C1882 1.367 . S
C1883 C1885 1.433 . S
C1884 C1880 1.350 . S
C1884 C1881 1.463 . S
C1884 N1888 1.427 . S
C1885 H1875 0.929 . S
C1885 C1883 1.433 . S
C1885 N1888 1.384 . S
C1886 H1877 0.929 . S
C1886 C1878 1.378 . S
C1886 C1881 1.350 . S
C1887 H1874 0.929 . S
C1887 C1879 1.433 . S
C1887 N1889 1.384 . S
N1888 C1884 1.427 . S
N1888 C1885 1.384 . S
N1889 C1881 1.427 . S
N1889 C1887 1.384 . S
H1890 C1896 0.930 . S
H1891 C1900 0.930 . S
H1892 C1905 0.929 . S
H1893 C1903 0.929 . S
H1894 C1898 0.929 . S
H1895 C1904 0.929 . S
C1896 H1890 0.930 . S
C1896 C1897 1.367 . S
C1896 C1904 1.378 . S
C1897 C1896 1.367 . S
C1897 C1905 1.433 . S
C1898 H1894 0.929 . S
C1898 C1900 1.378 . S
C1898 C1902 1.350 . S
C1899 C1902 1.463 . S
C1899 C1904 1.350 . S
C1899 N1907 1.427 . S
C1900 H1891 0.930 . S
C1900 C1898 1.378 . S
C1900 C1901 1.367 . S
C1901 C1900 1.367 . S
C1901 C1903 1.433 . S
C1902 C1898 1.350 . S
C1902 C1899 1.463 . S
C1902 N1906 1.427 . S
C1903 H1893 0.929 . S
C1903 C1901 1.433 . S
C1903 N1906 1.384 . S
C1904 H1895 0.929 . S
C1904 C1896 1.378 . S
C1904 C1899 1.350 . S
C1905 H1892 0.929 . S
C1905 C1897 1.433 . S
C1905 N1907 1.384 . S
N1906 C1902 1.427 . S
N1906 C1903 1.384 . S
N1907 C1899 1.427 . S
N1907 C1905 1.384 . S
H1908 C1914 0.930 . S
H1909 C1918 0.930 . S
H1910 C1923 0.929 . S
H1911 C1921 0.929 . S
H1912 C1916 0.929 . S
H1913 C1922 0.929 . S
C1914 H1908 0.930 . S
C1914 C1915 1.367 . S
C1914 C1922 1.378 . S
C1915 C1914 1.367 . S
C1915 C1923 1.433 . S
C1916 H1912 0.929 . S
C1916 C1918 1.378 . S
C1916 C1920 1.350 . S
C1917 C1920 1.463 . S
C1917 C1922 1.350 . S
C1917 N1925 1.427 . S
C1918 H1909 0.930 . S
C1918 C1916 1.378 . S
C1918 C1919 1.367 . S
C1919 C1918 1.367 . S
C1919 C1921 1.433 . S
C1920 C1916 1.350 . S
C1920 C1917 1.463 . S
C1920 N1924 1.427 . S
C1921 H1911 0.929 . S
C1921 C1919 1.433 . S
C1921 N1924 1.384 . S
C1922 H1913 0.929 . S
C1922 C1914 1.378 . S
C1922 C1917 1.350 . S
C1923 H1910 0.929 . S
C1923 C1915 1.433 . S
C1923 N1925 1.384 . S
N1924 C1920 1.427 . S
N1924 C1921 1.384 . S
N1925 C1917 1.427 . S
N1925 C1923 1.384 . S
H1926 C1932 0.930 . S
H1927 C1936 0.930 . S
H1928 C1941 0.929 . S
H1929 C1939 0.929 . S
H1930 C1934 0.929 . S
H1931 C1940 0.929 . S
C1932 H1926 0.930 . S
C1932 C1933 1.367 . S
C1932 C1940 1.378 . S
C1933 C1932 1.367 . S
C1933 C1941 1.433 . S
C1934 H1930 0.929 . S
C1934 C1936 1.378 . S
C1934 C1938 1.350 . S
C1935 C1938 1.463 . S
C1935 C1940 1.350 . S
C1935 N1943 1.427 . S
C1936 H1927 0.930 . S
C1936 C1934 1.378 . S
C1936 C1937 1.367 . S
C1937 C1936 1.367 . S
C1937 C1939 1.433 . S
C1938 C1934 1.350 . S
C1938 C1935 1.463 . S
C1938 N1942 1.427 . S
C1939 H1929 0.929 . S
C1939 C1937 1.433 . S
C1939 N1942 1.384 . S
C1940 H1931 0.929 . S
C1940 C1932 1.378 . S
C1940 C1935 1.350 . S
C1941 H1928 0.929 . S
C1941 C1933 1.433 . S
C1941 N1943 1.384 . S
N1942 C1938 1.427 . S
N1942 C1939 1.384 . S
N1943 C1935 1.427 . S
N1943 C1941 1.384 . S
H1944 C1950 0.930 . S
H1945 C1954 0.930 . S
H1946 C1959 0.929 . S
H1947 C1957 0.929 . S
H1948 C1952 0.929 . S
H1949 C1958 0.929 . S
C1950 H1944 0.930 . S
C1950 C1951 1.367 . S
C1950 C1958 1.378 . S
C1951 C1950 1.367 . S
C1951 C1959 1.433 . S
C1952 H1948 0.929 . S
C1952 C1954 1.378 . S
C1952 C1956 1.350 . S
C1953 C1956 1.463 . S
C1953 C1958 1.350 . S
C1953 N1961 1.427 . S
C1954 H1945 0.930 . S
C1954 C1952 1.378 . S
C1954 C1955 1.367 . S
C1955 C1954 1.367 . S
C1955 C1957 1.433 . S
C1956 C1952 1.350 . S
C1956 C1953 1.463 . S
C1956 N1960 1.427 . S
C1957 H1947 0.929 . S
C1957 C1955 1.433 . S
C1957 N1960 1.384 . S
C1958 H1949 0.929 . S
C1958 C1950 1.378 . S
C1958 C1953 1.350 . S
C1959 H1946 0.929 . S
C1959 C1951 1.433 . S
C1959 N1961 1.384 . S
N1960 C1956 1.427 . S
N1960 C1957 1.384 . S
N1961 C1953 1.427 . S
N1961 C1959 1.384 . S
H1962 C1968 0.930 . S
H1963 C1972 0.930 . S
H1964 C1977 0.929 . S
H1965 C1975 0.929 . S
H1966 C1970 0.929 . S
H1967 C1976 0.929 . S
C1968 H1962 0.930 . S
C1968 C1969 1.367 . S
C1968 C1976 1.378 . S
C1969 C1968 1.367 . S
C1969 C1977 1.433 . S
C1970 H1966 0.929 . S
C1970 C1972 1.378 . S
C1970 C1974 1.350 . S
C1971 C1974 1.463 . S
C1971 C1976 1.350 . S
C1971 N1979 1.427 . S
C1972 H1963 0.930 . S
C1972 C1970 1.378 . S
C1972 C1973 1.367 . S
C1973 C1972 1.367 . S
C1973 C1975 1.433 . S
C1974 C1970 1.350 . S
C1974 C1971 1.463 . S
C1974 N1978 1.427 . S
C1975 H1965 0.929 . S
C1975 C1973 1.433 . S
C1975 N1978 1.384 . S
C1976 H1967 0.929 . S
C1976 C1968 1.378 . S
C1976 C1971 1.350 . S
C1977 H1964 0.929 . S
C1977 C1969 1.433 . S
C1977 N1979 1.384 . S
N1978 C1974 1.427 . S
N1978 C1975 1.384 . S
N1979 C1971 1.427 . S
N1979 C1977 1.384 . S
H1980 C1986 0.930 . S
H1981 C1990 0.930 . S
H1982 C1995 0.929 . S
H1983 C1993 0.929 . S
H1984 C1988 0.929 . S
H1985 C1994 0.929 . S
C1986 H1980 0.930 . S
C1986 C1987 1.367 . S
C1986 C1994 1.378 . S
C1987 C1986 1.367 . S
C1987 C1995 1.433 . S
C1988 H1984 0.929 . S
C1988 C1990 1.378 . S
C1988 C1992 1.350 . S
C1989 C1992 1.463 . S
C1989 C1994 1.350 . S
C1989 N1997 1.427 . S
C1990 H1981 0.930 . S
C1990 C1988 1.378 . S
C1990 C1991 1.367 . S
C1991 C1990 1.367 . S
C1991 C1993 1.433 . S
C1992 C1988 1.350 . S
C1992 C1989 1.463 . S
C1992 N1996 1.427 . S
C1993 H1983 0.929 . S
C1993 C1991 1.433 . S
C1993 N1996 1.384 . S
C1994 H1985 0.929 . S
C1994 C1986 1.378 . S
C1994 C1989 1.350 . S
C1995 H1982 0.929 . S
C1995 C1987 1.433 . S
C1995 N1997 1.384 . S
N1996 C1992 1.427 . S
N1996 C1993 1.384 . S
N1997 C1989 1.427 . S
N1997 C1995 1.384 . S
H1998 C2004 0.930 . S
H1999 C2008 0.930 . S
H2000 C2013 0.929 . S
H2001 C2011 0.929 . S
H2002 C2006 0.929 . S
H2003 C2012 0.929 . S
C2004 H1998 0.930 . S
C2004 C2005 1.367 . S
C2004 C2012 1.378 . S
C2005 C2004 1.367 . S
C2005 C2013 1.433 . S
C2006 H2002 0.929 . S
C2006 C2008 1.378 . S
C2006 C2010 1.350 . S
C2007 C2010 1.463 . S
C2007 C2012 1.350 . S
C2007 N2015 1.427 . S
C2008 H1999 0.930 . S
C2008 C2006 1.378 . S
C2008 C2009 1.367 . S
C2009 C2008 1.367 . S
C2009 C2011 1.433 . S
C2010 C2006 1.350 . S
C2010 C2007 1.463 . S
C2010 N2014 1.427 . S
C2011 H2001 0.929 . S
C2011 C2009 1.433 . S
C2011 N2014 1.384 . S
C2012 H2003 0.929 . S
C2012 C2004 1.378 . S
C2012 C2007 1.350 . S
C2013 H2000 0.929 . S
C2013 C2005 1.433 . S
C2013 N2015 1.384 . S
N2014 C2010 1.427 . S
N2014 C2011 1.384 . S
N2015 C2007 1.427 . S
N2015 C2013 1.384 . S
H2016 C2022 0.930 . S
H2017 C2026 0.930 . S
H2018 C2031 0.929 . S
H2019 C2029 0.929 . S
H2020 C2024 0.929 . S
H2021 C2030 0.929 . S
C2022 H2016 0.930 . S
C2022 C2023 1.367 . S
C2022 C2030 1.378 . S
C2023 C2022 1.367 . S
C2023 C2031 1.433 . S
C2024 H2020 0.929 . S
C2024 C2026 1.378 . S
C2024 C2028 1.350 . S
C2025 C2028 1.463 . S
C2025 C2030 1.350 . S
C2025 N2033 1.427 . S
C2026 H2017 0.930 . S
C2026 C2024 1.378 . S
C2026 C2027 1.367 . S
C2027 C2026 1.367 . S
C2027 C2029 1.433 . S
C2028 C2024 1.350 . S
C2028 C2025 1.463 . S
C2028 N2032 1.427 . S
C2029 H2019 0.929 . S
C2029 C2027 1.433 . S
C2029 N2032 1.384 . S
C2030 H2021 0.929 . S
C2030 C2022 1.378 . S
C2030 C2025 1.350 . S
C2031 H2018 0.929 . S
C2031 C2023 1.433 . S
C2031 N2033 1.384 . S
N2032 C2028 1.427 . S
N2032 C2029 1.384 . S
N2033 C2025 1.427 . S
N2033 C2031 1.384 . S
H2034 C2040 0.930 . S
H2035 C2044 0.930 . S
H2036 C2049 0.929 . S
H2037 C2047 0.929 . S
H2038 C2042 0.929 . S
H2039 C2048 0.929 . S
C2040 H2034 0.930 . S
C2040 C2041 1.367 . S
C2040 C2048 1.378 . S
C2041 C2040 1.367 . S
C2041 C2049 1.433 . S
C2042 H2038 0.929 . S
C2042 C2044 1.378 . S
C2042 C2046 1.350 . S
C2043 C2046 1.463 . S
C2043 C2048 1.350 . S
C2043 N2051 1.427 . S
C2044 H2035 0.930 . S
C2044 C2042 1.378 . S
C2044 C2045 1.367 . S
C2045 C2044 1.367 . S
C2045 C2047 1.433 . S
C2046 C2042 1.350 . S
C2046 C2043 1.463 . S
C2046 N2050 1.427 . S
C2047 H2037 0.929 . S
C2047 C2045 1.433 . S
C2047 N2050 1.384 . S
C2048 H2039 0.929 . S
C2048 C2040 1.378 . S
C2048 C2043 1.350 . S
C2049 H2036 0.929 . S
C2049 C2041 1.433 . S
C2049 N2051 1.384 . S
N2050 C2046 1.427 . S
N2050 C2047 1.384 . S
N2051 C2043 1.427 . S
N2051 C2049 1.384 . S
H2052 C2058 0.930 . S
H2053 C2062 0.930 . S
H2054 C2067 0.929 . S
H2055 C2065 0.929 . S
H2056 C2060 0.929 . S
H2057 C2066 0.929 . S
C2058 H2052 0.930 . S
C2058 C2059 1.367 . S
C2058 C2066 1.378 . S
C2059 C2058 1.367 . S
C2059 C2067 1.433 . S
C2060 H2056 0.929 . S
C2060 C2062 1.378 . S
C2060 C2064 1.350 . S
C2061 C2064 1.463 . S
C2061 C2066 1.350 . S
C2061 N2069 1.427 . S
C2062 H2053 0.930 . S
C2062 C2060 1.378 . S
C2062 C2063 1.367 . S
C2063 C2062 1.367 . S
C2063 C2065 1.433 . S
C2064 C2060 1.350 . S
C2064 C2061 1.463 . S
C2064 N2068 1.427 . S
C2065 H2055 0.929 . S
C2065 C2063 1.433 . S
C2065 N2068 1.384 . S
C2066 H2057 0.929 . S
C2066 C2058 1.378 . S
C2066 C2061 1.350 . S
C2067 H2054 0.929 . S
C2067 C2059 1.433 . S
C2067 N2069 1.384 . S
N2068 C2064 1.427 . S
N2068 C2065 1.384 . S
N2069 C2061 1.427 . S
N2069 C2067 1.384 . S
H2070 C2076 0.930 . S
H2071 C2080 0.930 . S
H2072 C2085 0.929 . S
H2073 C2083 0.929 . S
H2074 C2078 0.929 . S
H2075 C2084 0.929 . S
C2076 H2070 0.930 . S
C2076 C2077 1.367 . S
C2076 C2084 1.378 . S
C2077 C2076 1.367 . S
C2077 C2085 1.433 . S
C2078 H2074 0.929 . S
C2078 C2080 1.378 . S
C2078 C2082 1.350 . S
C2079 C2082 1.463 . S
C2079 C2084 1.350 . S
C2079 N2087 1.427 . S
C2080 H2071 0.930 . S
C2080 C2078 1.378 . S
C2080 C2081 1.367 . S
C2081 C2080 1.367 . S
C2081 C2083 1.433 . S
C2082 C2078 1.350 . S
C2082 C2079 1.463 . S
C2082 N2086 1.427 . S
C2083 H2073 0.929 . S
C2083 C2081 1.433 . S
C2083 N2086 1.384 . S
C2084 H2075 0.929 . S
C2084 C2076 1.378 . S
C2084 C2079 1.350 . S
C2085 H2072 0.929 . S
C2085 C2077 1.433 . S
C2085 N2087 1.384 . S
N2086 C2082 1.427 . S
N2086 C2083 1.384 . S
N2087 C2079 1.427 . S
N2087 C2085 1.384 . S
H2088 C2094 0.930 1_455 S
H2089 C2098 0.930 1_655 S
H2090 C2103 0.929 . S
H2091 C2101 0.929 . S
H2092 C2096 0.929 . S
H2093 C2102 0.929 . S
C2094 H2088 0.930 1_655 S
C2094 C2095 1.367 . S
C2094 C2102 1.378 1_655 S
C2095 C2094 1.367 . S
C2095 C2103 1.433 . S
C2096 H2092 0.929 . S
C2096 C2098 1.378 1_655 S
C2096 C2100 1.350 1_655 S
C2097 C2100 1.463 1_655 S
C2097 C2102 1.350 1_655 S
C2097 N2105 1.427 . S
C2098 H2089 0.930 1_455 S
C2098 C2096 1.378 1_455 S
C2098 C2099 1.367 . S
C2099 C2098 1.367 . S
C2099 C2101 1.433 . S
C2100 C2096 1.350 1_455 S
C2100 C2097 1.463 1_455 S
C2100 N2104 1.427 . S
C2101 H2091 0.929 . S
C2101 C2099 1.433 . S
C2101 N2104 1.384 . S
C2102 H2093 0.929 . S
C2102 C2094 1.378 1_455 S
C2102 C2097 1.350 1_455 S
C2103 H2090 0.929 . S
C2103 C2095 1.433 . S
C2103 N2105 1.384 . S
N2104 C2100 1.427 . S
N2104 C2101 1.384 . S
N2105 C2097 1.427 . S
N2105 C2103 1.384 . S
H2106 C2112 0.930 . S
H2107 C2116 0.930 . S
H2108 C2121 0.929 . S
H2109 C2119 0.929 . S
H2110 C2114 0.929 . S
H2111 C2120 0.929 . S
C2112 H2106 0.930 . S
C2112 C2113 1.367 . S
C2112 C2120 1.378 . S
C2113 C2112 1.367 . S
C2113 C2121 1.433 . S
C2114 H2110 0.929 . S
C2114 C2116 1.378 . S
C2114 C2118 1.350 . S
C2115 C2118 1.463 . S
C2115 C2120 1.350 . S
C2115 N2123 1.427 . S
C2116 H2107 0.930 . S
C2116 C2114 1.378 . S
C2116 C2117 1.367 . S
C2117 C2116 1.367 . S
C2117 C2119 1.433 . S
C2118 C2114 1.350 . S
C2118 C2115 1.463 . S
C2118 N2122 1.427 . S
C2119 H2109 0.929 . S
C2119 C2117 1.433 . S
C2119 N2122 1.384 . S
C2120 H2111 0.929 . S
C2120 C2112 1.378 . S
C2120 C2115 1.350 . S
C2121 H2108 0.929 . S
C2121 C2113 1.433 . S
C2121 N2123 1.384 . S
N2122 C2118 1.427 . S
N2122 C2119 1.384 . S
N2123 C2115 1.427 . S
N2123 C2121 1.384 . S
H2124 C2130 0.930 . S
H2125 C2134 0.930 . S
H2126 C2139 0.929 . S
H2127 C2137 0.929 . S
H2128 C2132 0.929 . S
H2129 C2138 0.929 . S
C2130 H2124 0.930 . S
C2130 C2131 1.367 . S
C2130 C2138 1.378 . S
C2131 C2130 1.367 . S
C2131 C2139 1.433 . S
C2132 H2128 0.929 . S
C2132 C2134 1.378 . S
C2132 C2136 1.350 . S
C2133 C2136 1.463 1_545 S
C2133 C2138 1.350 . S
C2133 N2141 1.427 1_545 S
C2134 H2125 0.930 . S
C2134 C2132 1.378 . S
C2134 C2135 1.367 . S
C2135 C2134 1.367 . S
C2135 C2137 1.433 . S
C2136 C2132 1.350 . S
C2136 C2133 1.463 1_565 S
C2136 N2140 1.427 1_565 S
C2137 H2127 0.929 . S
C2137 C2135 1.433 . S
C2137 N2140 1.384 1_565 S
C2138 H2129 0.929 . S
C2138 C2130 1.378 . S
C2138 C2133 1.350 . S
C2139 H2126 0.929 . S
C2139 C2131 1.433 . S
C2139 N2141 1.384 1_545 S
N2140 C2136 1.427 1_545 S
N2140 C2137 1.384 1_545 S
N2141 C2133 1.427 1_565 S
N2141 C2139 1.384 1_565 S
H2142 C2148 0.930 . S
H2143 C2152 0.930 . S
H2144 C2157 0.929 1_545 S
H2145 C2155 0.929 1_565 S
H2146 C2150 0.929 . S
H2147 C2156 0.929 . S
C2148 H2142 0.930 . S
C2148 C2149 1.367 . S
C2148 C2156 1.378 . S
C2149 C2148 1.367 . S
C2149 C2157 1.433 . S
C2150 H2146 0.929 . S
C2150 C2152 1.378 . S
C2150 C2154 1.350 . S
C2151 C2154 1.463 1_564 S
C2151 C2156 1.350 . S
C2151 N2159 1.427 1_565 S
C2152 H2143 0.930 . S
C2152 C2150 1.378 . S
C2152 C2153 1.367 . S
C2153 C2152 1.367 . S
C2153 C2155 1.433 . S
C2154 C2150 1.350 . S
C2154 C2151 1.463 1_546 S
C2154 N2158 1.427 1_545 S
C2155 H2145 0.929 1_545 S
C2155 C2153 1.433 . S
C2155 N2158 1.384 1_545 S
C2156 H2147 0.929 . S
C2156 C2148 1.378 . S
C2156 C2151 1.350 . S
C2157 H2144 0.929 1_565 S
C2157 C2149 1.433 . S
C2157 N2159 1.384 1_565 S
N2158 C2154 1.427 1_565 S
N2158 C2155 1.384 1_565 S
N2159 C2151 1.427 1_545 S
N2159 C2157 1.384 1_545 S
H2160 C2166 0.930 . S
H2161 C2170 0.930 . S
H2162 C2175 0.929 . S
H2163 C2173 0.929 . S
H2164 C2168 0.929 . S
H2165 C2174 0.929 . S
C2166 H2160 0.930 . S
C2166 C2167 1.367 . S
C2166 C2174 1.378 . S
C2167 C2166 1.367 . S
C2167 C2175 1.433 . S
C2168 H2164 0.929 . S
C2168 C2170 1.378 . S
C2168 C2172 1.350 . S
C2169 C2172 1.463 1_656 S
C2169 C2174 1.350 . S
C2169 N2177 1.386 1_655 S
C2170 H2161 0.930 . S
C2170 C2168 1.378 . S
C2170 C2171 1.367 . S
C2171 C2170 1.367 . S
C2171 C2173 1.433 . S
C2172 C2168 1.350 . S
C2172 C2169 1.463 1_454 S
C2172 N2176 1.386 1_455 S
C2173 H2163 0.929 . S
C2173 C2171 1.433 . S
C2173 N2176 1.381 1_455 S
C2174 H2165 0.929 . S
C2174 C2166 1.378 . S
C2174 C2169 1.350 . S
C2175 H2162 0.929 . S
C2175 C2167 1.433 . S
C2175 N2177 1.381 1_655 S
N2176 C2172 1.386 1_655 S
N2176 C2173 1.381 1_655 S
N2177 C2169 1.386 1_455 S
N2177 C2175 1.381 1_455 S
H2178 C2184 0.930 . S
H2179 C2188 0.930 . S
H2180 C2193 0.929 1_556 S
H2181 C2191 0.929 1_554 S
H2182 C2186 0.929 . S
H2183 C2192 0.929 . S
C2184 H2178 0.930 . S
C2184 C2185 1.367 . S
C2184 C2192 1.378 . S
C2185 C2184 1.367 . S
C2185 C2193 1.433 . S
C2186 H2182 0.929 . S
C2186 C2188 1.378 . S
C2186 C2190 1.350 . S
C2187 C2190 1.463 1_554 S
C2187 C2192 1.350 . S
C2187 N2195 1.427 1_554 S
C2188 H2179 0.930 . S
C2188 C2186 1.378 . S
C2188 C2189 1.367 . S
C2189 C2188 1.367 . S
C2189 C2191 1.433 . S
C2190 C2186 1.350 . S
C2190 C2187 1.463 1_556 S
C2190 N2194 1.427 1_556 S
C2191 H2181 0.929 1_556 S
C2191 C2189 1.433 . S
C2191 N2194 1.384 1_556 S
C2192 H2183 0.929 . S
C2192 C2184 1.378 . S
C2192 C2187 1.350 . S
C2193 H2180 0.929 1_554 S
C2193 C2185 1.433 . S
C2193 N2195 1.384 1_554 S
N2194 C2190 1.427 1_554 S
N2194 C2191 1.384 1_554 S
N2195 C2187 1.427 1_556 S
N2195 C2193 1.384 1_556 S
H2196 C2202 0.930 . S
H2197 C2206 0.930 . S
H2198 C2211 0.918 1_554 S
H2199 C2209 0.929 . S
H2200 C2204 0.929 . S
H2201 C2210 0.929 . S
C2202 H2196 0.930 . S
C2202 C2203 1.367 . S
C2202 C2210 1.378 . S
C2203 C2202 1.367 . S
C2203 C2211 1.464 . S
C2204 H2200 0.929 . S
C2204 C2206 1.378 . S
C2204 C2208 1.350 . S
C2205 C2208 1.463 . S
C2205 C2210 1.350 1_554 S
C2205 N2213 1.427 . S
C2206 H2197 0.930 . S
C2206 C2204 1.378 . S
C2206 C2207 1.367 . S
C2207 C2206 1.367 . S
C2207 C2209 1.433 . S
C2208 C2204 1.350 . S
C2208 C2205 1.463 . S
C2208 N2212 1.427 . S
C2209 H2199 0.929 . S
C2209 C2207 1.433 . S
C2209 N2212 1.384 . S
C2210 H2201 0.929 . S
C2210 C2202 1.378 . S
C2210 C2205 1.350 1_556 S
C2211 H2198 0.918 1_556 S
C2211 C2203 1.464 . S
C2211 N2213 1.365 1_556 S
N2212 C2208 1.427 . S
N2212 C2209 1.384 . S
N2213 C2205 1.427 . S
N2213 C2211 1.365 1_554 S
H2214 C2220 0.930 . S
H2215 C2224 0.930 . S
H2216 C2229 0.929 . S
H2217 C2227 0.929 . S
H2218 C2222 0.929 . S
H2219 C2228 0.929 . S
C2220 H2214 0.930 . S
C2220 C2221 1.367 . S
C2220 C2228 1.378 . S
C2221 C2220 1.367 . S
C2221 C2229 1.433 . S
C2222 H2218 0.929 . S
C2222 C2224 1.378 1_554 S
C2222 C2226 1.350 . S
C2223 C2226 1.463 . S
C2223 C2228 1.350 . S
C2223 N2231 1.427 . S
C2224 H2215 0.930 . S
C2224 C2222 1.378 1_556 S
C2224 C2225 1.367 . S
C2225 C2224 1.367 . S
C2225 C2227 1.433 . S
C2226 C2222 1.350 . S
C2226 C2223 1.463 . S
C2226 N2230 1.427 1_554 S
C2227 H2217 0.929 . S
C2227 C2225 1.433 . S
C2227 N2230 1.384 . S
C2228 H2219 0.929 . S
C2228 C2220 1.378 . S
C2228 C2223 1.350 . S
C2229 H2216 0.929 . S
C2229 C2221 1.433 . S
C2229 N2231 1.384 . S
N2230 C2226 1.427 1_556 S
N2230 C2227 1.384 . S
N2231 C2223 1.427 . S
N2231 C2229 1.384 . S
H2232 C2238 0.930 . S
H2233 C2242 0.930 . S
H2234 C2247 0.929 . S
H2235 C2245 0.929 . S
H2236 C2240 0.929 . S
H2237 C2246 0.929 . S
C2238 H2232 0.930 . S
C2238 C2239 1.367 . S
C2238 C2246 1.378 . S
C2239 C2238 1.367 . S
C2239 C2247 1.433 . S
C2240 H2236 0.929 . S
C2240 C2242 1.378 . S
C2240 C2244 1.350 1_556 S
C2241 C2244 1.463 . S
C2241 C2246 1.350 . S
C2241 N2249 1.427 . S
C2242 H2233 0.930 . S
C2242 C2240 1.378 . S
C2242 C2243 1.367 . S
C2243 C2242 1.367 . S
C2243 C2245 1.433 . S
C2244 C2240 1.350 1_554 S
C2244 C2241 1.463 . S
C2244 N2248 1.427 . S
C2245 H2235 0.929 . S
C2245 C2243 1.433 . S
C2245 N2248 1.384 1_556 S
C2246 H2237 0.929 . S
C2246 C2238 1.378 . S
C2246 C2241 1.350 . S
C2247 H2234 0.929 . S
C2247 C2239 1.433 . S
C2247 N2249 1.384 . S
N2248 C2244 1.427 . S
N2248 C2245 1.384 1_554 S
N2249 C2241 1.427 . S
N2249 C2247 1.384 . S
H2250 C2256 0.930 . S
H2251 C2260 0.930 . S
H2252 C2265 0.929 . S
H2253 C2263 0.929 . S
H2254 C2258 0.929 . S
H2255 C2264 0.929 . S
C2256 H2250 0.930 . S
C2256 C2257 1.367 . S
C2256 C2264 1.378 . S
C2257 C2256 1.367 . S
C2257 C2265 1.433 . S
C2258 H2254 0.929 . S
C2258 C2260 1.378 . S
C2258 C2262 1.350 . S
C2259 C2262 1.463 . S
C2259 C2264 1.350 . S
C2259 N2267 1.427 . S
C2260 H2251 0.930 . S
C2260 C2258 1.378 . S
C2260 C2261 1.367 . S
C2261 C2260 1.367 . S
C2261 C2263 1.433 . S
C2262 C2258 1.350 . S
C2262 C2259 1.463 . S
C2262 N2266 1.427 . S
C2263 H2253 0.929 . S
C2263 C2261 1.433 . S
C2263 N2266 1.384 . S
C2264 H2255 0.929 . S
C2264 C2256 1.378 . S
C2264 C2259 1.350 . S
C2265 H2252 0.929 . S
C2265 C2257 1.433 . S
C2265 N2267 1.384 . S
N2266 C2262 1.427 . S
N2266 C2263 1.384 . S
N2267 C2259 1.427 . S
N2267 C2265 1.384 . S
H2268 C2274 0.930 . S
H2269 C2278 0.930 . S
H2270 C2283 0.929 . S
H2271 C2281 0.929 . S
H2272 C2276 0.929 . S
H2273 C2282 0.929 . S
C2274 H2268 0.930 . S
C2274 C2275 1.367 . S
C2274 C2282 1.378 . S
C2275 C2274 1.367 . S
C2275 C2283 1.433 . S
C2276 H2272 0.929 . S
C2276 C2278 1.378 . S
C2276 C2280 1.350 . S
C2277 C2280 1.463 . S
C2277 C2282 1.350 . S
C2277 N2285 1.427 . S
C2278 H2269 0.930 . S
C2278 C2276 1.378 . S
C2278 C2279 1.367 . S
C2279 C2278 1.367 . S
C2279 C2281 1.433 . S
C2280 C2276 1.350 . S
C2280 C2277 1.463 . S
C2280 N2284 1.427 . S
C2281 H2271 0.929 . S
C2281 C2279 1.433 . S
C2281 N2284 1.384 . S
C2282 H2273 0.929 . S
C2282 C2274 1.378 . S
C2282 C2277 1.350 . S
C2283 H2270 0.929 . S
C2283 C2275 1.433 . S
C2283 N2285 1.384 . S
N2284 C2280 1.427 . S
N2284 C2281 1.384 . S
N2285 C2277 1.427 . S
N2285 C2283 1.384 . S
H2286 C2292 0.930 . S
H2287 C2296 0.930 . S
H2288 C2301 0.929 . S
H2289 C2299 0.929 . S
H2290 C2294 0.929 . S
H2291 C2300 0.929 . S
C2292 H2286 0.930 . S
C2292 C2293 1.367 . S
C2292 C2300 1.378 . S
C2293 C2292 1.367 . S
C2293 C2301 1.433 . S
C2294 H2290 0.929 . S
C2294 C2296 1.378 . S
C2294 C2298 1.350 . S
C2295 C2298 1.463 . S
C2295 C2300 1.350 . S
C2295 N2303 1.427 . S
C2296 H2287 0.930 . S
C2296 C2294 1.378 . S
C2296 C2297 1.367 . S
C2297 C2296 1.367 . S
C2297 C2299 1.433 . S
C2298 C2294 1.350 . S
C2298 C2295 1.463 . S
C2298 N2302 1.427 . S
C2299 H2289 0.929 . S
C2299 C2297 1.433 . S
C2299 N2302 1.384 . S
C2300 H2291 0.929 . S
C2300 C2292 1.378 . S
C2300 C2295 1.350 . S
C2301 H2288 0.929 . S
C2301 C2293 1.433 . S
C2301 N2303 1.384 . S
N2302 C2298 1.427 . S
N2302 C2299 1.384 . S
N2303 C2295 1.427 . S
N2303 C2301 1.384 . S
H2304 C2310 0.930 . S
H2305 C2314 0.930 . S
H2306 C2319 0.929 . S
H2307 C2317 0.929 . S
H2308 C2312 0.929 . S
H2309 C2318 0.929 . S
C2310 H2304 0.930 . S
C2310 C2311 1.367 . S
C2310 C2318 1.378 1_554 S
C2311 C2310 1.367 . S
C2311 C2319 1.433 . S
C2312 H2308 0.929 . S
C2312 C2314 1.378 . S
C2312 C2316 1.350 . S
C2313 C2316 1.463 . S
C2313 C2318 1.350 . S
C2313 N2321 1.427 1_556 S
C2314 H2305 0.930 . S
C2314 C2312 1.378 . S
C2314 C2315 1.367 . S
C2315 C2314 1.367 . S
C2315 C2317 1.433 . S
C2316 C2312 1.350 . S
C2316 C2313 1.463 . S
C2316 N2320 1.427 . S
C2317 H2307 0.929 . S
C2317 C2315 1.433 . S
C2317 N2320 1.384 . S
C2318 H2309 0.929 . S
C2318 C2310 1.378 1_556 S
C2318 C2313 1.350 . S
C2319 H2306 0.929 . S
C2319 C2311 1.433 . S
C2319 N2321 1.384 . S
N2320 C2316 1.427 . S
N2320 C2317 1.384 . S
N2321 C2313 1.427 1_554 S
N2321 C2319 1.384 . S
H2322 C2328 0.930 1_556 S
H2323 C2332 0.930 . S
H2324 C2337 0.929 . S
H2325 C2335 0.929 . S
H2326 C2330 0.929 1_554 S
H2327 C2336 0.929 . S
C2328 H2322 0.930 1_554 S
C2328 C2329 1.367 . S
C2328 C2336 1.378 1_554 S
C2329 C2328 1.367 . S
C2329 C2337 1.433 . S
C2330 H2326 0.929 1_556 S
C2330 C2332 1.378 . S
C2330 C2334 1.350 . S
C2331 C2334 1.463 . S
C2331 C2336 1.350 . S
C2331 N2339 1.427 1_556 S
C2332 H2323 0.930 . S
C2332 C2330 1.378 . S
C2332 C2333 1.367 . S
C2333 C2332 1.367 . S
C2333 C2335 1.433 . S
C2334 C2330 1.350 . S
C2334 C2331 1.463 . S
C2334 N2338 1.427 . S
C2335 H2325 0.929 . S
C2335 C2333 1.433 . S
C2335 N2338 1.384 . S
C2336 H2327 0.929 . S
C2336 C2328 1.378 1_556 S
C2336 C2331 1.350 . S
C2337 H2324 0.929 . S
C2337 C2329 1.433 . S
C2337 N2339 1.384 . S
N2338 C2334 1.427 . S
N2338 C2335 1.384 . S
N2339 C2331 1.427 1_554 S
N2339 C2337 1.384 . S
H2340 C2346 0.930 . S
H2341 C2350 0.930 . S
H2342 C2355 0.929 . S
H2343 C2353 0.929 . S
H2344 C2348 0.929 . S
H2345 C2354 0.929 . S
C2346 H2340 0.930 . S
C2346 C2347 1.367 . S
C2346 C2354 1.378 . S
C2347 C2346 1.367 . S
C2347 C2355 1.433 . S
C2348 H2344 0.929 . S
C2348 C2350 1.378 . S
C2348 C2352 1.350 . S
C2349 C2352 1.463 . S
C2349 C2354 1.350 1_556 S
C2349 N2357 1.427 . S
C2350 H2341 0.930 . S
C2350 C2348 1.378 . S
C2350 C2351 1.367 . S
C2351 C2350 1.367 . S
C2351 C2353 1.433 . S
C2352 C2348 1.350 . S
C2352 C2349 1.463 . S
C2352 N2356 1.427 . S
C2353 H2343 0.929 . S
C2353 C2351 1.433 . S
C2353 N2356 1.384 . S
C2354 H2345 0.929 . S
C2354 C2346 1.378 . S
C2354 C2349 1.350 1_554 S
C2355 H2342 0.929 . S
C2355 C2347 1.433 . S
C2355 N2357 1.384 1_554 S
N2356 C2352 1.427 . S
N2356 C2353 1.384 . S
N2357 C2349 1.427 . S
N2357 C2355 1.384 1_556 S
H2358 C2364 0.930 . S
H2359 C2368 0.930 . S
H2360 C2373 0.929 . S
H2361 C2371 0.929 . S
H2362 C2366 0.929 . S
H2363 C2372 0.929 . S
C2364 H2358 0.930 . S
C2364 C2365 1.367 . S
C2364 C2372 1.378 . S
C2365 C2364 1.367 . S
C2365 C2373 1.433 . S
C2366 H2362 0.929 . S
C2366 C2368 1.378 . S
C2366 C2370 1.350 . S
C2367 C2370 1.463 . S
C2367 C2372 1.350 . S
C2367 N2375 1.427 . S
C2368 H2359 0.930 . S
C2368 C2366 1.378 . S
C2368 C2369 1.367 . S
C2369 C2368 1.367 . S
C2369 C2371 1.433 . S
C2370 C2366 1.350 . S
C2370 C2367 1.463 . S
C2370 N2374 1.427 . S
C2371 H2361 0.929 . S
C2371 C2369 1.433 . S
C2371 N2374 1.384 . S
C2372 H2363 0.929 . S
C2372 C2364 1.378 . S
C2372 C2367 1.350 . S
C2373 H2360 0.929 . S
C2373 C2365 1.433 . S
C2373 N2375 1.384 . S
N2374 C2370 1.427 . S
N2374 C2371 1.384 . S
N2375 C2367 1.427 . S
N2375 C2373 1.384 . S
H2376 C2382 0.930 . S
H2377 C2386 0.930 . S
H2378 C2391 0.929 . S
H2379 C2389 0.929 . S
H2380 C2384 0.929 . S
H2381 C2390 0.929 . S
C2382 H2376 0.930 . S
C2382 C2383 1.367 . S
C2382 C2390 1.378 . S
C2383 C2382 1.367 . S
C2383 C2391 1.433 . S
C2384 H2380 0.929 . S
C2384 C2386 1.378 . S
C2384 C2388 1.350 . S
C2385 C2388 1.463 . S
C2385 C2390 1.350 . S
C2385 N2393 1.427 . S
C2386 H2377 0.930 . S
C2386 C2384 1.378 . S
C2386 C2387 1.367 . S
C2387 C2386 1.367 . S
C2387 C2389 1.433 . S
C2388 C2384 1.350 . S
C2388 C2385 1.463 . S
C2388 N2392 1.427 . S
C2389 H2379 0.929 . S
C2389 C2387 1.433 . S
C2389 N2392 1.384 . S
C2390 H2381 0.929 . S
C2390 C2382 1.378 . S
C2390 C2385 1.350 . S
C2391 H2378 0.929 . S
C2391 C2383 1.433 . S
C2391 N2393 1.384 . S
N2392 C2388 1.427 . S
N2392 C2389 1.384 . S
N2393 C2385 1.427 . S
N2393 C2391 1.384 . S
H2394 C2400 0.930 . S
H2395 C2404 0.930 . S
H2396 C2409 0.929 . S
H2397 C2407 0.929 . S
H2398 C2402 0.929 . S
H2399 C2408 0.929 . S
C2400 H2394 0.930 . S
C2400 C2401 1.367 . S
C2400 C2408 1.378 . S
C2401 C2400 1.367 . S
C2401 C2409 1.433 . S
C2402 H2398 0.929 . S
C2402 C2404 1.378 . S
C2402 C2406 1.350 . S
C2403 C2406 1.463 . S
C2403 C2408 1.350 . S
C2403 N2411 1.427 . S
C2404 H2395 0.930 . S
C2404 C2402 1.378 . S
C2404 C2405 1.367 . S
C2405 C2404 1.367 . S
C2405 C2407 1.433 . S
C2406 C2402 1.350 . S
C2406 C2403 1.463 . S
C2406 N2410 1.427 . S
C2407 H2397 0.929 . S
C2407 C2405 1.433 . S
C2407 N2410 1.384 . S
C2408 H2399 0.929 . S
C2408 C2400 1.378 . S
C2408 C2403 1.350 . S
C2409 H2396 0.929 . S
C2409 C2401 1.433 . S
C2409 N2411 1.384 . S
N2410 C2406 1.427 . S
N2410 C2407 1.384 . S
N2411 C2403 1.427 . S
N2411 C2409 1.384 . S
H2412 C2418 0.930 . S
H2413 C2422 0.930 . S
H2414 C2427 0.929 . S
H2415 C2425 0.929 . S
H2416 C2420 0.929 . S
H2417 C2426 0.929 . S
C2418 H2412 0.930 . S
C2418 C2419 1.367 . S
C2418 C2426 1.378 . S
C2419 C2418 1.367 . S
C2419 C2427 1.433 . S
C2420 H2416 0.929 . S
C2420 C2422 1.378 . S
C2420 C2424 1.350 . S
C2421 C2424 1.463 . S
C2421 C2426 1.350 . S
C2421 N2429 1.427 . S
C2422 H2413 0.930 . S
C2422 C2420 1.378 . S
C2422 C2423 1.367 . S
C2423 C2422 1.367 . S
C2423 C2425 1.433 . S
C2424 C2420 1.350 . S
C2424 C2421 1.463 . S
C2424 N2428 1.427 . S
C2425 H2415 0.929 . S
C2425 C2423 1.433 . S
C2425 N2428 1.384 . S
C2426 H2417 0.929 . S
C2426 C2418 1.378 . S
C2426 C2421 1.350 . S
C2427 H2414 0.929 . S
C2427 C2419 1.433 . S
C2427 N2429 1.384 . S
N2428 C2424 1.427 . S
N2428 C2425 1.384 . S
N2429 C2421 1.427 . S
N2429 C2427 1.384 . S
H2430 C2436 0.930 . S
H2431 C2440 0.930 . S
H2432 C2445 0.929 . S
H2433 C2443 0.929 . S
H2434 C2438 0.929 . S
H2435 C2444 0.929 . S
C2436 H2430 0.930 . S
C2436 C2437 1.367 . S
C2436 C2444 1.378 . S
C2437 C2436 1.367 . S
C2437 C2445 1.433 . S
C2438 H2434 0.929 . S
C2438 C2440 1.378 . S
C2438 C2442 1.350 . S
C2439 C2442 1.463 . S
C2439 C2444 1.350 . S
C2439 N2447 1.427 . S
C2440 H2431 0.930 . S
C2440 C2438 1.378 . S
C2440 C2441 1.367 . S
C2441 C2440 1.367 . S
C2441 C2443 1.433 . S
C2442 C2438 1.350 . S
C2442 C2439 1.463 . S
C2442 N2446 1.427 . S
C2443 H2433 0.929 . S
C2443 C2441 1.433 . S
C2443 N2446 1.384 . S
C2444 H2435 0.929 . S
C2444 C2436 1.378 . S
C2444 C2439 1.350 . S
C2445 H2432 0.929 . S
C2445 C2437 1.433 . S
C2445 N2447 1.384 . S
N2446 C2442 1.427 . S
N2446 C2443 1.384 . S
N2447 C2439 1.427 . S
N2447 C2445 1.384 . S
H2448 C2454 0.930 . S
H2449 C2458 0.930 . S
H2450 C2463 0.929 . S
H2451 C2461 0.929 . S
H2452 C2456 0.929 . S
H2453 C2462 0.929 . S
C2454 H2448 0.930 . S
C2454 C2455 1.367 . S
C2454 C2462 1.378 . S
C2455 C2454 1.367 . S
C2455 C2463 1.433 . S
C2456 H2452 0.929 . S
C2456 C2458 1.378 . S
C2456 C2460 1.350 . S
C2457 C2460 1.463 . S
C2457 C2462 1.350 . S
C2457 N2465 1.427 . S
C2458 H2449 0.930 . S
C2458 C2456 1.378 . S
C2458 C2459 1.367 . S
C2459 C2458 1.367 . S
C2459 C2461 1.433 . S
C2460 C2456 1.350 . S
C2460 C2457 1.463 . S
C2460 N2464 1.427 . S
C2461 H2451 0.929 . S
C2461 C2459 1.433 . S
C2461 N2464 1.384 . S
C2462 H2453 0.929 . S
C2462 C2454 1.378 . S
C2462 C2457 1.350 . S
C2463 H2450 0.929 . S
C2463 C2455 1.433 . S
C2463 N2465 1.384 . S
N2464 C2460 1.427 . S
N2464 C2461 1.384 . S
N2465 C2457 1.427 . S
N2465 C2463 1.384 . S
H2466 C2472 0.930 . S
H2467 C2476 0.930 . S
H2468 C2481 0.929 . S
H2469 C2479 0.929 . S
H2470 C2474 0.929 . S
H2471 C2480 0.929 . S
C2472 H2466 0.930 . S
C2472 C2473 1.367 . S
C2472 C2480 1.378 . S
C2473 C2472 1.367 . S
C2473 C2481 1.433 . S
C2474 H2470 0.929 . S
C2474 C2476 1.378 . S
C2474 C2478 1.350 . S
C2475 C2478 1.463 . S
C2475 C2480 1.350 . S
C2475 N2483 1.427 . S
C2476 H2467 0.930 . S
C2476 C2474 1.378 . S
C2476 C2477 1.367 . S
C2477 C2476 1.367 . S
C2477 C2479 1.433 . S
C2478 C2474 1.350 . S
C2478 C2475 1.463 . S
C2478 N2482 1.427 . S
C2479 H2469 0.929 . S
C2479 C2477 1.433 . S
C2479 N2482 1.384 . S
C2480 H2471 0.929 . S
C2480 C2472 1.378 . S
C2480 C2475 1.350 . S
C2481 H2468 0.929 . S
C2481 C2473 1.433 . S
C2481 N2483 1.384 . S
N2482 C2478 1.427 . S
N2482 C2479 1.384 . S
N2483 C2475 1.427 . S
N2483 C2481 1.384 . S
H2484 C2490 0.930 . S
H2485 C2494 0.930 . S
H2486 C2499 0.929 . S
H2487 C2497 0.929 . S
H2488 C2492 0.929 . S
H2489 C2498 0.929 . S
C2490 H2484 0.930 . S
C2490 C2491 1.367 . S
C2490 C2498 1.378 . S
C2491 C2490 1.367 . S
C2491 C2499 1.433 . S
C2492 H2488 0.929 . S
C2492 C2494 1.378 . S
C2492 C2496 1.350 . S
C2493 C2496 1.463 . S
C2493 C2498 1.350 . S
C2493 N2501 1.427 . S
C2494 H2485 0.930 . S
C2494 C2492 1.378 . S
C2494 C2495 1.367 . S
C2495 C2494 1.367 . S
C2495 C2497 1.433 . S
C2496 C2492 1.350 . S
C2496 C2493 1.463 . S
C2496 N2500 1.427 . S
C2497 H2487 0.929 . S
C2497 C2495 1.433 . S
C2497 N2500 1.384 . S
C2498 H2489 0.929 . S
C2498 C2490 1.378 . S
C2498 C2493 1.350 . S
C2499 H2486 0.929 . S
C2499 C2491 1.433 . S
C2499 N2501 1.384 . S
N2500 C2496 1.427 . S
N2500 C2497 1.384 . S
N2501 C2493 1.427 . S
N2501 C2499 1.384 . S
H2502 C2508 0.930 . S
H2503 C2512 0.930 . S
H2504 C2517 0.929 . S
H2505 C2515 0.929 . S
H2506 C2510 0.929 . S
H2507 C2516 0.929 . S
C2508 H2502 0.930 . S
C2508 C2509 1.367 . S
C2508 C2516 1.378 . S
C2509 C2508 1.367 . S
C2509 C2517 1.433 . S
C2510 H2506 0.929 . S
C2510 C2512 1.378 . S
C2510 C2514 1.350 . S
C2511 C2514 1.463 . S
C2511 C2516 1.350 . S
C2511 N2519 1.427 . S
C2512 H2503 0.930 . S
C2512 C2510 1.378 . S
C2512 C2513 1.367 . S
C2513 C2512 1.367 . S
C2513 C2515 1.433 . S
C2514 C2510 1.350 . S
C2514 C2511 1.463 . S
C2514 N2518 1.427 . S
C2515 H2505 0.929 . S
C2515 C2513 1.433 . S
C2515 N2518 1.384 . S
C2516 H2507 0.929 . S
C2516 C2508 1.378 . S
C2516 C2511 1.350 . S
C2517 H2504 0.929 . S
C2517 C2509 1.433 . S
C2517 N2519 1.384 . S
N2518 C2514 1.427 . S
N2518 C2515 1.384 . S
N2519 C2511 1.427 . S
N2519 C2517 1.384 . S
H2520 C2526 0.930 . S
H2521 C2530 0.930 . S
H2522 C2535 0.929 . S
H2523 C2533 0.929 . S
H2524 C2528 0.929 . S
H2525 C2534 0.929 . S
C2526 H2520 0.930 . S
C2526 C2527 1.367 . S
C2526 C2534 1.378 . S
C2527 C2526 1.367 . S
C2527 C2535 1.433 . S
C2528 H2524 0.929 . S
C2528 C2530 1.378 . S
C2528 C2532 1.350 . S
C2529 C2532 1.463 . S
C2529 C2534 1.350 . S
C2529 N2537 1.427 . S
C2530 H2521 0.930 . S
C2530 C2528 1.378 . S
C2530 C2531 1.367 . S
C2531 C2530 1.367 . S
C2531 C2533 1.433 . S
C2532 C2528 1.350 . S
C2532 C2529 1.463 . S
C2532 N2536 1.427 . S
C2533 H2523 0.929 . S
C2533 C2531 1.433 . S
C2533 N2536 1.384 . S
C2534 H2525 0.929 . S
C2534 C2526 1.378 . S
C2534 C2529 1.350 . S
C2535 H2522 0.929 . S
C2535 C2527 1.433 . S
C2535 N2537 1.384 . S
N2536 C2532 1.427 . S
N2536 C2533 1.384 . S
N2537 C2529 1.427 . S
N2537 C2535 1.384 . S
H2538 C2544 0.930 . S
H2539 C2548 0.930 . S
H2540 C2553 0.929 . S
H2541 C2551 0.929 . S
H2542 C2546 0.929 . S
H2543 C2552 0.929 . S
C2544 H2538 0.930 . S
C2544 C2545 1.367 . S
C2544 C2552 1.378 . S
C2545 C2544 1.367 . S
C2545 C2553 1.433 . S
C2546 H2542 0.929 . S
C2546 C2548 1.378 . S
C2546 C2550 1.350 . S
C2547 C2550 1.463 . S
C2547 C2552 1.350 . S
C2547 N2555 1.427 . S
C2548 H2539 0.930 . S
C2548 C2546 1.378 . S
C2548 C2549 1.367 . S
C2549 C2548 1.367 . S
C2549 C2551 1.433 . S
C2550 C2546 1.350 . S
C2550 C2547 1.463 . S
C2550 N2554 1.427 . S
C2551 H2541 0.929 . S
C2551 C2549 1.433 . S
C2551 N2554 1.384 . S
C2552 H2543 0.929 . S
C2552 C2544 1.378 . S
C2552 C2547 1.350 . S
C2553 H2540 0.929 . S
C2553 C2545 1.433 . S
C2553 N2555 1.384 . S
N2554 C2550 1.427 . S
N2554 C2551 1.384 . S
N2555 C2547 1.427 . S
N2555 C2553 1.384 . S
H2556 C2562 0.930 . S
H2557 C2566 0.930 . S
H2558 C2571 0.929 . S
H2559 C2569 0.929 . S
H2560 C2564 0.929 . S
H2561 C2570 0.929 . S
C2562 H2556 0.930 . S
C2562 C2563 1.367 . S
C2562 C2570 1.378 . S
C2563 C2562 1.367 . S
C2563 C2571 1.433 . S
C2564 H2560 0.929 . S
C2564 C2566 1.378 . S
C2564 C2568 1.350 . S
C2565 C2568 1.463 . S
C2565 C2570 1.350 . S
C2565 N2573 1.427 . S
C2566 H2557 0.930 . S
C2566 C2564 1.378 . S
C2566 C2567 1.367 . S
C2567 C2566 1.367 . S
C2567 C2569 1.433 . S
C2568 C2564 1.350 . S
C2568 C2565 1.463 . S
C2568 N2572 1.427 . S
C2569 H2559 0.929 . S
C2569 C2567 1.433 . S
C2569 N2572 1.384 . S
C2570 H2561 0.929 . S
C2570 C2562 1.378 . S
C2570 C2565 1.350 . S
C2571 H2558 0.929 . S
C2571 C2563 1.433 . S
C2571 N2573 1.384 . S
N2572 C2568 1.427 . S
N2572 C2569 1.384 . S
N2573 C2565 1.427 . S
N2573 C2571 1.384 . S
H2574 C2580 0.930 . S
H2575 C2584 0.930 . S
H2576 C2589 0.929 . S
H2577 C2587 0.929 . S
H2578 C2582 0.929 . S
H2579 C2588 0.929 . S
C2580 H2574 0.930 . S
C2580 C2581 1.367 . S
C2580 C2588 1.378 . S
C2581 C2580 1.367 . S
C2581 C2589 1.433 . S
C2582 H2578 0.929 . S
C2582 C2584 1.378 . S
C2582 C2586 1.350 . S
C2583 C2586 1.463 . S
C2583 C2588 1.350 . S
C2583 N2591 1.427 . S
C2584 H2575 0.930 . S
C2584 C2582 1.378 . S
C2584 C2585 1.367 . S
C2585 C2584 1.367 . S
C2585 C2587 1.433 . S
C2586 C2582 1.350 . S
C2586 C2583 1.463 . S
C2586 N2590 1.427 . S
C2587 H2577 0.929 . S
C2587 C2585 1.433 . S
C2587 N2590 1.384 . S
C2588 H2579 0.929 . S
C2588 C2580 1.378 . S
C2588 C2583 1.350 . S
C2589 H2576 0.929 . S
C2589 C2581 1.433 . S
C2589 N2591 1.384 . S
N2590 C2586 1.427 . S
N2590 C2587 1.384 . S
N2591 C2583 1.427 . S
N2591 C2589 1.384 . S
H2592 C2598 0.930 . S
H2593 C2602 0.930 . S
H2594 C2607 0.929 . S
H2595 C2605 0.929 . S
H2596 C2600 0.929 . S
H2597 C2606 0.929 . S
C2598 H2592 0.930 . S
C2598 C2599 1.367 . S
C2598 C2606 1.378 . S
C2599 C2598 1.367 . S
C2599 C2607 1.433 . S
C2600 H2596 0.929 . S
C2600 C2602 1.378 . S
C2600 C2604 1.350 . S
C2601 C2604 1.463 . S
C2601 C2606 1.350 . S
C2601 N2609 1.427 . S
C2602 H2593 0.930 . S
C2602 C2600 1.378 . S
C2602 C2603 1.367 . S
C2603 C2602 1.367 . S
C2603 C2605 1.433 . S
C2604 C2600 1.350 . S
C2604 C2601 1.463 . S
C2604 N2608 1.427 . S
C2605 H2595 0.929 . S
C2605 C2603 1.433 . S
C2605 N2608 1.384 . S
C2606 H2597 0.929 . S
C2606 C2598 1.378 . S
C2606 C2601 1.350 . S
C2607 H2594 0.929 . S
C2607 C2599 1.433 . S
C2607 N2609 1.384 . S
N2608 C2604 1.427 . S
N2608 C2605 1.384 . S
N2609 C2601 1.427 . S
N2609 C2607 1.384 . S
H2610 C2616 0.930 . S
H2611 C2620 0.930 . S
H2612 C2625 0.929 . S
H2613 C2623 0.929 . S
H2614 C2618 0.929 . S
H2615 C2624 0.929 . S
C2616 H2610 0.930 . S
C2616 C2617 1.367 . S
C2616 C2624 1.378 . S
C2617 C2616 1.367 . S
C2617 C2625 1.433 . S
C2618 H2614 0.929 . S
C2618 C2620 1.378 . S
C2618 C2622 1.350 . S
C2619 C2622 1.463 . S
C2619 C2624 1.350 . S
C2619 N2627 1.427 . S
C2620 H2611 0.930 . S
C2620 C2618 1.378 . S
C2620 C2621 1.367 . S
C2621 C2620 1.367 . S
C2621 C2623 1.433 . S
C2622 C2618 1.350 . S
C2622 C2619 1.463 . S
C2622 N2626 1.427 . S
C2623 H2613 0.929 . S
C2623 C2621 1.433 . S
C2623 N2626 1.384 . S
C2624 H2615 0.929 . S
C2624 C2616 1.378 . S
C2624 C2619 1.350 . S
C2625 H2612 0.929 . S
C2625 C2617 1.433 . S
C2625 N2627 1.384 . S
N2626 C2622 1.427 . S
N2626 C2623 1.384 . S
N2627 C2619 1.427 . S
N2627 C2625 1.384 . S
H2628 C2634 0.930 . S
H2629 C2638 0.930 . S
H2630 C2643 0.929 . S
H2631 C2641 0.929 . S
H2632 C2636 0.929 . S
H2633 C2642 0.929 . S
C2634 H2628 0.930 . S
C2634 C2635 1.367 . S
C2634 C2642 1.378 . S
C2635 C2634 1.367 . S
C2635 C2643 1.433 . S
C2636 H2632 0.929 . S
C2636 C2638 1.378 . S
C2636 C2640 1.350 . S
C2637 C2640 1.463 . S
C2637 C2642 1.350 . S
C2637 N2645 1.427 . S
C2638 H2629 0.930 . S
C2638 C2636 1.378 . S
C2638 C2639 1.367 . S
C2639 C2638 1.367 . S
C2639 C2641 1.433 . S
C2640 C2636 1.350 . S
C2640 C2637 1.463 . S
C2640 N2644 1.427 . S
C2641 H2631 0.929 . S
C2641 C2639 1.433 . S
C2641 N2644 1.384 . S
C2642 H2633 0.929 . S
C2642 C2634 1.378 . S
C2642 C2637 1.350 . S
C2643 H2630 0.929 . S
C2643 C2635 1.433 . S
C2643 N2645 1.384 . S
N2644 C2640 1.427 . S
N2644 C2641 1.384 . S
N2645 C2637 1.427 . S
N2645 C2643 1.384 . S
H2646 C2652 0.930 . S
H2647 C2656 0.930 . S
H2648 C2661 0.929 . S
H2649 C2659 0.929 . S
H2650 C2654 0.929 . S
H2651 C2660 0.929 . S
C2652 H2646 0.930 . S
C2652 C2653 1.367 . S
C2652 C2660 1.378 . S
C2653 C2652 1.367 . S
C2653 C2661 1.433 . S
C2654 H2650 0.929 . S
C2654 C2656 1.378 . S
C2654 C2658 1.350 . S
C2655 C2658 1.463 . S
C2655 C2660 1.350 . S
C2655 N2663 1.427 . S
C2656 H2647 0.930 . S
C2656 C2654 1.378 . S
C2656 C2657 1.367 . S
C2657 C2656 1.367 . S
C2657 C2659 1.433 . S
C2658 C2654 1.350 . S
C2658 C2655 1.463 . S
C2658 N2662 1.427 . S
C2659 H2649 0.929 . S
C2659 C2657 1.433 . S
C2659 N2662 1.384 . S
C2660 H2651 0.929 . S
C2660 C2652 1.378 . S
C2660 C2655 1.350 . S
C2661 H2648 0.929 . S
C2661 C2653 1.433 . S
C2661 N2663 1.384 . S
N2662 C2658 1.427 . S
N2662 C2659 1.384 . S
N2663 C2655 1.427 . S
N2663 C2661 1.384 . S
H2664 C2670 0.930 . S
H2665 C2674 0.930 . S
H2666 C2679 0.929 . S
H2667 C2677 0.929 . S
H2668 C2672 0.929 . S
H2669 C2678 0.929 . S
C2670 H2664 0.930 . S
C2670 C2671 1.367 . S
C2670 C2678 1.378 . S
C2671 C2670 1.367 . S
C2671 C2679 1.433 . S
C2672 H2668 0.929 . S
C2672 C2674 1.378 . S
C2672 C2676 1.350 . S
C2673 C2676 1.463 . S
C2673 C2678 1.350 . S
C2673 N2681 1.427 . S
C2674 H2665 0.930 . S
C2674 C2672 1.378 . S
C2674 C2675 1.367 . S
C2675 C2674 1.367 . S
C2675 C2677 1.433 . S
C2676 C2672 1.350 . S
C2676 C2673 1.463 . S
C2676 N2680 1.427 . S
C2677 H2667 0.929 . S
C2677 C2675 1.433 . S
C2677 N2680 1.384 . S
C2678 H2669 0.929 . S
C2678 C2670 1.378 . S
C2678 C2673 1.350 . S
C2679 H2666 0.929 . S
C2679 C2671 1.433 . S
C2679 N2681 1.384 . S
N2680 C2676 1.427 . S
N2680 C2677 1.384 . S
N2681 C2673 1.427 . S
N2681 C2679 1.384 . S
H2682 C2688 0.930 . S
H2683 C2692 0.930 . S
H2684 C2697 0.929 . S
H2685 C2695 0.929 . S
H2686 C2690 0.929 . S
H2687 C2696 0.929 . S
C2688 H2682 0.930 . S
C2688 C2689 1.367 . S
C2688 C2696 1.378 . S
C2689 C2688 1.367 . S
C2689 C2697 1.433 . S
C2690 H2686 0.929 . S
C2690 C2692 1.378 . S
C2690 C2694 1.350 . S
C2691 C2694 1.463 . S
C2691 C2696 1.350 . S
C2691 N2699 1.427 . S
C2692 H2683 0.930 . S
C2692 C2690 1.378 . S
C2692 C2693 1.367 . S
C2693 C2692 1.367 . S
C2693 C2695 1.433 . S
C2694 C2690 1.350 . S
C2694 C2691 1.463 . S
C2694 N2698 1.427 . S
C2695 H2685 0.929 . S
C2695 C2693 1.433 . S
C2695 N2698 1.384 . S
C2696 H2687 0.929 . S
C2696 C2688 1.378 . S
C2696 C2691 1.350 . S
C2697 H2684 0.929 . S
C2697 C2689 1.433 . S
C2697 N2699 1.384 . S
N2698 C2694 1.427 . S
N2698 C2695 1.384 . S
N2699 C2691 1.427 . S
N2699 C2697 1.384 . S
H2700 C2706 0.930 . S
H2701 C2710 0.930 . S
H2702 C2715 0.929 . S
H2703 C2713 0.929 . S
H2704 C2708 0.929 . S
H2705 C2714 0.929 . S
C2706 H2700 0.930 . S
C2706 C2707 1.367 . S
C2706 C2714 1.378 . S
C2707 C2706 1.367 . S
C2707 C2715 1.433 . S
C2708 H2704 0.929 . S
C2708 C2710 1.378 . S
C2708 C2712 1.350 . S
C2709 C2712 1.463 . S
C2709 C2714 1.350 . S
C2709 N2717 1.427 . S
C2710 H2701 0.930 . S
C2710 C2708 1.378 . S
C2710 C2711 1.367 . S
C2711 C2710 1.367 . S
C2711 C2713 1.433 . S
C2712 C2708 1.350 . S
C2712 C2709 1.463 . S
C2712 N2716 1.427 . S
C2713 H2703 0.929 . S
C2713 C2711 1.433 . S
C2713 N2716 1.384 . S
C2714 H2705 0.929 . S
C2714 C2706 1.378 . S
C2714 C2709 1.350 . S
C2715 H2702 0.929 . S
C2715 C2707 1.433 . S
C2715 N2717 1.384 . S
N2716 C2712 1.427 . S
N2716 C2713 1.384 . S
N2717 C2709 1.427 . S
N2717 C2715 1.384 . S
H2718 C2724 0.930 . S
H2719 C2728 0.930 . S
H2720 C2733 0.929 . S
H2721 C2731 0.929 . S
H2722 C2726 0.929 . S
H2723 C2732 0.929 . S
C2724 H2718 0.930 . S
C2724 C2725 1.367 . S
C2724 C2732 1.378 . S
C2725 C2724 1.367 . S
C2725 C2733 1.433 . S
C2726 H2722 0.929 . S
C2726 C2728 1.378 . S
C2726 C2730 1.350 . S
C2727 C2730 1.463 . S
C2727 C2732 1.350 . S
C2727 N2735 1.427 . S
C2728 H2719 0.930 . S
C2728 C2726 1.378 . S
C2728 C2729 1.367 . S
C2729 C2728 1.367 . S
C2729 C2731 1.433 . S
C2730 C2726 1.350 . S
C2730 C2727 1.463 . S
C2730 N2734 1.427 . S
C2731 H2721 0.929 . S
C2731 C2729 1.433 . S
C2731 N2734 1.384 . S
C2732 H2723 0.929 . S
C2732 C2724 1.378 . S
C2732 C2727 1.350 . S
C2733 H2720 0.929 . S
C2733 C2725 1.433 . S
C2733 N2735 1.384 . S
N2734 C2730 1.427 . S
N2734 C2731 1.384 . S
N2735 C2727 1.427 . S
N2735 C2733 1.384 . S
H2736 C2742 0.930 . S
H2737 C2746 0.930 . S
H2738 C2751 0.929 . S
H2739 C2749 0.929 . S
H2740 C2744 0.929 . S
H2741 C2750 0.929 . S
C2742 H2736 0.930 . S
C2742 C2743 1.367 . S
C2742 C2750 1.378 . S
C2743 C2742 1.367 . S
C2743 C2751 1.433 . S
C2744 H2740 0.929 . S
C2744 C2746 1.378 . S
C2744 C2748 1.350 . S
C2745 C2748 1.463 . S
C2745 C2750 1.350 . S
C2745 N2753 1.427 . S
C2746 H2737 0.930 . S
C2746 C2744 1.378 . S
C2746 C2747 1.367 . S
C2747 C2746 1.367 . S
C2747 C2749 1.433 . S
C2748 C2744 1.350 . S
C2748 C2745 1.463 . S
C2748 N2752 1.427 . S
C2749 H2739 0.929 . S
C2749 C2747 1.433 . S
C2749 N2752 1.384 . S
C2750 H2741 0.929 . S
C2750 C2742 1.378 . S
C2750 C2745 1.350 . S
C2751 H2738 0.929 . S
C2751 C2743 1.433 . S
C2751 N2753 1.384 . S
N2752 C2748 1.427 . S
N2752 C2749 1.384 . S
N2753 C2745 1.427 . S
N2753 C2751 1.384 . S
H2754 C2760 0.930 . S
H2755 C2764 0.930 . S
H2756 C2769 0.929 . S
H2757 C2767 0.929 . S
H2758 C2762 0.929 . S
H2759 C2768 0.929 . S
C2760 H2754 0.930 . S
C2760 C2761 1.367 . S
C2760 C2768 1.378 . S
C2761 C2760 1.367 . S
C2761 C2769 1.433 . S
C2762 H2758 0.929 . S
C2762 C2764 1.378 . S
C2762 C2766 1.350 . S
C2763 C2766 1.463 . S
C2763 C2768 1.350 . S
C2763 N2771 1.427 . S
C2764 H2755 0.930 . S
C2764 C2762 1.378 . S
C2764 C2765 1.367 . S
C2765 C2764 1.367 . S
C2765 C2767 1.433 . S
C2766 C2762 1.350 . S
C2766 C2763 1.463 . S
C2766 N2770 1.427 . S
C2767 H2757 0.929 . S
C2767 C2765 1.433 . S
C2767 N2770 1.384 . S
C2768 H2759 0.929 . S
C2768 C2760 1.378 . S
C2768 C2763 1.350 . S
C2769 H2756 0.929 . S
C2769 C2761 1.433 . S
C2769 N2771 1.384 . S
N2770 C2766 1.427 . S
N2770 C2767 1.384 . S
N2771 C2763 1.427 . S
N2771 C2769 1.384 . S
H2772 C2778 0.930 . S
H2773 C2782 0.930 . S
H2774 C2787 0.929 . S
H2775 C2785 0.929 . S
H2776 C2780 0.929 . S
H2777 C2786 0.929 . S
C2778 H2772 0.930 . S
C2778 C2779 1.367 . S
C2778 C2786 1.378 . S
C2779 C2778 1.367 . S
C2779 C2787 1.433 . S
C2780 H2776 0.929 . S
C2780 C2782 1.378 . S
C2780 C2784 1.350 . S
C2781 C2784 1.463 . S
C2781 C2786 1.350 . S
C2781 N2789 1.427 . S
C2782 H2773 0.930 . S
C2782 C2780 1.378 . S
C2782 C2783 1.367 . S
C2783 C2782 1.367 . S
C2783 C2785 1.433 . S
C2784 C2780 1.350 . S
C2784 C2781 1.463 . S
C2784 N2788 1.427 . S
C2785 H2775 0.929 . S
C2785 C2783 1.433 . S
C2785 N2788 1.384 . S
C2786 H2777 0.929 . S
C2786 C2778 1.378 . S
C2786 C2781 1.350 . S
C2787 H2774 0.929 . S
C2787 C2779 1.433 . S
C2787 N2789 1.384 . S
N2788 C2784 1.427 . S
N2788 C2785 1.384 . S
N2789 C2781 1.427 . S
N2789 C2787 1.384 . S
H2790 C2796 0.930 . S
H2791 C2800 0.930 . S
H2792 C2805 0.929 . S
H2793 C2803 0.929 . S
H2794 C2798 0.929 . S
H2795 C2804 0.929 . S
C2796 H2790 0.930 . S
C2796 C2797 1.367 . S
C2796 C2804 1.378 . S
C2797 C2796 1.367 . S
C2797 C2805 1.433 . S
C2798 H2794 0.929 . S
C2798 C2800 1.378 . S
C2798 C2802 1.350 . S
C2799 C2802 1.463 . S
C2799 C2804 1.350 . S
C2799 N2807 1.427 . S
C2800 H2791 0.930 . S
C2800 C2798 1.378 . S
C2800 C2801 1.367 . S
C2801 C2800 1.367 . S
C2801 C2803 1.433 . S
C2802 C2798 1.350 . S
C2802 C2799 1.463 . S
C2802 N2806 1.427 . S
C2803 H2793 0.929 . S
C2803 C2801 1.433 . S
C2803 N2806 1.384 . S
C2804 H2795 0.929 . S
C2804 C2796 1.378 . S
C2804 C2799 1.350 . S
C2805 H2792 0.929 . S
C2805 C2797 1.433 . S
C2805 N2807 1.384 . S
N2806 C2802 1.427 . S
N2806 C2803 1.384 . S
N2807 C2799 1.427 . S
N2807 C2805 1.384 . S
H2808 C2814 0.930 . S
H2809 C2818 0.930 . S
H2810 C2823 0.929 . S
H2811 C2821 0.929 . S
H2812 C2816 0.929 . S
H2813 C2822 0.929 . S
C2814 H2808 0.930 . S
C2814 C2815 1.367 . S
C2814 C2822 1.378 . S
C2815 C2814 1.367 . S
C2815 C2823 1.433 . S
C2816 H2812 0.929 . S
C2816 C2818 1.378 . S
C2816 C2820 1.350 . S
C2817 C2820 1.463 . S
C2817 C2822 1.350 . S
C2817 N2825 1.427 . S
C2818 H2809 0.930 . S
C2818 C2816 1.378 . S
C2818 C2819 1.367 . S
C2819 C2818 1.367 . S
C2819 C2821 1.433 . S
C2820 C2816 1.350 . S
C2820 C2817 1.463 . S
C2820 N2824 1.427 . S
C2821 H2811 0.929 . S
C2821 C2819 1.433 . S
C2821 N2824 1.384 . S
C2822 H2813 0.929 . S
C2822 C2814 1.378 . S
C2822 C2817 1.350 . S
C2823 H2810 0.929 . S
C2823 C2815 1.433 . S
C2823 N2825 1.384 . S
N2824 C2820 1.427 . S
N2824 C2821 1.384 . S
N2825 C2817 1.427 . S
N2825 C2823 1.384 . S
H2826 C2832 0.930 . S
H2827 C2836 0.930 . S
H2828 C2841 0.929 . S
H2829 C2839 0.929 . S
H2830 C2834 0.929 . S
H2831 C2840 0.929 . S
C2832 H2826 0.930 . S
C2832 C2833 1.367 . S
C2832 C2840 1.378 . S
C2833 C2832 1.367 . S
C2833 C2841 1.433 . S
C2834 H2830 0.929 . S
C2834 C2836 1.378 . S
C2834 C2838 1.350 . S
C2835 C2838 1.463 . S
C2835 C2840 1.350 . S
C2835 N2843 1.427 . S
C2836 H2827 0.930 . S
C2836 C2834 1.378 . S
C2836 C2837 1.367 . S
C2837 C2836 1.367 . S
C2837 C2839 1.433 . S
C2838 C2834 1.350 . S
C2838 C2835 1.463 . S
C2838 N2842 1.427 . S
C2839 H2829 0.929 . S
C2839 C2837 1.433 . S
C2839 N2842 1.384 . S
C2840 H2831 0.929 . S
C2840 C2832 1.378 . S
C2840 C2835 1.350 . S
C2841 H2828 0.929 . S
C2841 C2833 1.433 . S
C2841 N2843 1.384 . S
N2842 C2838 1.427 . S
N2842 C2839 1.384 . S
N2843 C2835 1.427 . S
N2843 C2841 1.384 . S
C1231 C135 1.437 . S
C1235 C33 1.443 . S
C1249 C67 1.440 . S
C1253 C169 1.440 . S
C1267 C203 1.440 . S
C1271 C101 1.440 . S
C1285 C339 1.438 . S
C1289 C237 1.441 . S
C1303 C271 1.442 . S
C1307 C373 1.437 . S
C1321 C407 1.443 . S
C1325 C305 1.437 . S
C1339 C543 1.439 . S
C1343 C441 1.440 . S
C1357 C475 1.442 . S
C1361 C577 1.437 . S
C1375 C611 1.438 . S
C1379 C509 1.441 . S
C1393 C645 1.443 . S
C1397 C747 1.436 1_554 S
C1411 C679 1.437 . S
C1415 C781 1.442 1_554 S
C1429 C815 1.443 1_554 S
C1433 C713 1.437 . S
C1447 C951 1.437 1_556 S
C1451 C849 1.442 . S
C1465 C985 1.439 1_556 S
C1469 C883 1.441 . S
C1483 C1019 1.443 1_556 S
C1487 C917 1.437 . S
C1501 C1155 1.440 . S
C1505 C1053 1.439 . S
C1519 C1087 1.437 . S
C1523 C1189 1.443 . S
C1537 C1223 1.443 . S
C1541 C1121 1.437 . S
C1555 C2 2.319 . S
C1559 C988 2.320 . S
C1573 C920 2.320 . S
C1577 C36 2.319 1_565 S
C1591 C70 2.319 1_455 S
C1595 C954 2.318 . S
C1609 C444 2.319 . S
C1613 C104 2.319 . S
C1627 C138 2.319 1_545 S
C1631 C478 2.319 . S
C1645 C410 2.319 . S
C1649 C172 2.319 1_655 S
C1663 C784 2.319 . S
C1667 C206 2.319 . S
C1681 C716 2.319 . S
C1685 C240 2.320 1_545 S
C1699 C750 2.319 . S
C1703 C274 2.319 1_655 S
C1717 C308 2.319 . S
C1721 C1056 2.319 . S
C1735 C1090 2.318 . S
C1739 C342 2.318 1_565 S
C1753 C376 2.320 1_455 S
C1757 C1022 2.320 . S
C1771 C852 2.320 . S
C1775 C512 2.319 . S
C1789 C886 2.318 . S
C1793 C546 2.319 . S
C1807 C818 2.320 . S
C1811 C580 2.319 . S
C1825 C614 2.319 . S
C1829 C1192 2.320 . S
C1843 C648 2.319 . S
C1847 C1124 2.319 . S
C1861 C1158 2.319 . S
C1865 C682 2.319 . S
C1879 C5 1.437 . S
C1883 C617 1.437 . S
C1897 C651 1.437 . S
C1901 C39 1.437 . S
C1915 C73 1.440 . S
C1919 C685 1.440 . S
C1933 C1127 1.435 . S
C1937 C107 1.435 . S
C1951 C141 1.437 . S
C1955 C1161 1.437 . S
C1969 C1195 1.434 . S
C1973 C175 1.434 . S
C1987 C209 1.433 . S
C1991 C821 1.433 . S
C2005 C243 1.437 . S
C2009 C855 1.437 . S
C2023 C277 1.442 . S
C2027 C889 1.442 . S
C2041 C515 1.442 . S
C2045 C311 1.442 . S
C2059 C549 1.435 . S
C2063 C345 1.435 . S
C2077 C379 1.434 . S
C2081 C583 1.434 . S
C2095 C413 1.441 . S
C2099 C1025 1.441 . S
C2113 C1059 1.443 . S
C2117 C447 1.443 . S
C2131 C481 1.434 . S
C2135 C1093 1.434 . S
C2149 C923 1.435 . S
C2153 C719 1.435 . S
C2167 C753 1.433 . S
C2171 C957 1.433 . S
C2185 C991 1.434 . S
C2189 C787 1.434 . S
C2203 C247 1.079 . S
C2207 C20 1.105 . S
C2221 C54 1.097 . S
C2225 C281 1.086 . S
C2239 C88 1.100 . S
C2243 C213 1.079 . S
C2257 C122 1.107 . S
C2261 C383 1.096 . S
C2275 C156 1.099 . S
C2279 C315 1.081 . S
C2293 C190 1.107 . S
C2297 C349 1.097 . S
C2311 C43 1.088 . S
C2315 C224 1.097 . S
C2329 C77 1.097 . S
C2333 C258 1.104 . S
C2347 C9 1.078 . S
C2351 C292 1.101 . S
C2365 C326 1.097 . S
C2369 C179 1.088 . S
C2383 C360 1.098 . S
C2387 C111 1.082 . S
C2401 C394 1.105 . S
C2405 C145 1.079 . S
C2419 C428 1.108 . S
C2423 C655 1.096 . S
C2437 C689 1.091 . S
C2441 C462 1.111 . S
C2455 C621 1.086 . S
C2459 C496 1.097 . S
C2473 C530 1.110 . S
C2477 C791 1.085 . S
C2491 C723 1.096 . S
C2495 C564 1.108 . S
C2509 C757 1.093 . S
C2513 C598 1.099 . S
C2527 C632 1.104 . S
C2531 C451 1.097 . S
C2545 C666 1.106 . S
C2549 C485 1.097 . S
C2563 C417 1.096 . S
C2567 C700 1.108 . S
C2581 C587 1.082 . S
C2585 C734 1.098 . S
C2599 C519 1.078 . S
C2603 C768 1.104 . S
C2617 C553 1.089 . S
C2621 C802 1.111 . S
C2635 C836 1.110 . S
C2639 C1063 1.086 . S
C2653 C1097 1.097 . S
C2657 C870 1.107 . S
C2671 C1029 1.089 . S
C2675 C904 1.098 . S
C2689 C938 1.097 . S
C2693 C1199 1.087 . S
C2707 C972 1.105 . S
C2711 C1131 1.079 . S
C2725 C1006 1.110 . S
C2729 C1165 1.087 . S
C2743 C859 1.089 . S
C2747 C1040 1.098 . S
C2761 C893 1.084 . S
C2765 C1074 1.110 . S
C2779 C1108 1.108 . S
C2783 C825 1.082 . S
C2797 C1142 1.097 . S
C2801 C995 1.083 . S
C2815 C1176 1.098 . S
C2819 C927 1.089 . S
C2833 C1210 1.101 . S
C2837 C961 1.095 . S
