# Generated by pormake.
# Topology ukb, (4)-cn, num edge types: 1
# Building blocks:
#     Node 0, Type 0, BuildingBlock: CEKHIL_clean_sbu_0, # of connection points: 4
#     Node 1, Type 0, BuildingBlock: CEKHIL_clean_sbu_0, # of connection points: 4
#     Node 2, Type 0, BuildingBlock: CEKHIL_clean_sbu_0, # of connection points: 4
#     Node 3, Type 0, BuildingBlock: CEKHIL_clean_sbu_0, # of connection points: 4
#     Node 4, Type 0, BuildingBlock: CEKHIL_clean_sbu_0, # of connection points: 4
#     Node 5, Type 0, BuildingBlock: CEKHIL_clean_sbu_0, # of connection points: 4
#     Node 6, Type 0, BuildingBlock: CEKHIL_clean_sbu_0, # of connection points: 4
#     Node 7, Type 0, BuildingBlock: CEKHIL_clean_sbu_0, # of connection points: 4
#     Node 8, Type 0, BuildingBlock: CEKHIL_clean_sbu_0, # of connection points: 4
#     Node 9, Type 0, BuildingBlock: CEKHIL_clean_sbu_0, # of connection points: 4
#     Node 10, Type 0, BuildingBlock: CEKHIL_clean_sbu_0, # of connection points: 4
#     Node 11, Type 0, BuildingBlock: CEKHIL_clean_sbu_0, # of connection points: 4
#     Node 12, Type 0, BuildingBlock: CEKHIL_clean_sbu_0, # of connection points: 4
#     Node 13, Type 0, BuildingBlock: CEKHIL_clean_sbu_0, # of connection points: 4
#     Node 14, Type 0, BuildingBlock: CEKHIL_clean_sbu_0, # of connection points: 4
#     Node 15, Type 0, BuildingBlock: CEKHIL_clean_sbu_0, # of connection points: 4
#     Edge 16, Type (0, 0), BuildingBlock: UVAHIK_clean_linker_0, # of connection points: 2
#     Edge 17, Type (0, 0), BuildingBlock: UVAHIK_clean_linker_0, # of connection points: 2
#     Edge 18, Type (0, 0), BuildingBlock: UVAHIK_clean_linker_0, # of connection points: 2
#     Edge 19, Type (0, 0), BuildingBlock: UVAHIK_clean_linker_0, # of connection points: 2
#     Edge 20, Type (0, 0), BuildingBlock: UVAHIK_clean_linker_0, # of connection points: 2
#     Edge 21, Type (0, 0), BuildingBlock: UVAHIK_clean_linker_0, # of connection points: 2
#     Edge 22, Type (0, 0), BuildingBlock: UVAHIK_clean_linker_0, # of connection points: 2
#     Edge 23, Type (0, 0), BuildingBlock: UVAHIK_clean_linker_0, # of connection points: 2
#     Edge 24, Type (0, 0), BuildingBlock: UVAHIK_clean_linker_0, # of connection points: 2
#     Edge 25, Type (0, 0), BuildingBlock: UVAHIK_clean_linker_0, # of connection points: 2
#     Edge 26, Type (0, 0), BuildingBlock: UVAHIK_clean_linker_0, # of connection points: 2
#     Edge 27, Type (0, 0), BuildingBlock: UVAHIK_clean_linker_0, # of connection points: 2
#     Edge 28, Type (0, 0), BuildingBlock: UVAHIK_clean_linker_0, # of connection points: 2
#     Edge 29, Type (0, 0), BuildingBlock: UVAHIK_clean_linker_0, # of connection points: 2
#     Edge 30, Type (0, 0), BuildingBlock: UVAHIK_clean_linker_0, # of connection points: 2
#     Edge 31, Type (0, 0), BuildingBlock: UVAHIK_clean_linker_0, # of connection points: 2
#     Edge 32, Type (0, 0), BuildingBlock: UVAHIK_clean_linker_0, # of connection points: 2
#     Edge 33, Type (0, 0), BuildingBlock: UVAHIK_clean_linker_0, # of connection points: 2
#     Edge 34, Type (0, 0), BuildingBlock: UVAHIK_clean_linker_0, # of connection points: 2
#     Edge 35, Type (0, 0), BuildingBlock: UVAHIK_clean_linker_0, # of connection points: 2
#     Edge 36, Type (0, 0), BuildingBlock: UVAHIK_clean_linker_0, # of connection points: 2
#     Edge 37, Type (0, 0), BuildingBlock: UVAHIK_clean_linker_0, # of connection points: 2
#     Edge 38, Type (0, 0), BuildingBlock: UVAHIK_clean_linker_0, # of connection points: 2
#     Edge 39, Type (0, 0), BuildingBlock: UVAHIK_clean_linker_0, # of connection points: 2
#     Edge 40, Type (0, 0), BuildingBlock: UVAHIK_clean_linker_0, # of connection points: 2
#     Edge 41, Type (0, 0), BuildingBlock: UVAHIK_clean_linker_0, # of connection points: 2
#     Edge 42, Type (0, 0), BuildingBlock: UVAHIK_clean_linker_0, # of connection points: 2
#     Edge 43, Type (0, 0), BuildingBlock: UVAHIK_clean_linker_0, # of connection points: 2
#     Edge 44, Type (0, 0), BuildingBlock: UVAHIK_clean_linker_0, # of connection points: 2
#     Edge 45, Type (0, 0), BuildingBlock: UVAHIK_clean_linker_0, # of connection points: 2
#     Edge 46, Type (0, 0), BuildingBlock: UVAHIK_clean_linker_0, # of connection points: 2
#     Edge 47, Type (0, 0), BuildingBlock: UVAHIK_clean_linker_0, # of connection points: 2
# Relax obj value: 0.092
# Max RMSD: 0.049
# Mean RMSD: 0.049
data_MOF--net-ukb--node1-CEKHIL_clean_sbu_0--edge1-UVAHIK_clean_linker_0
_symmetry_space_group_name_H-M    P1
_symmetry_Int_Tables_number       1
_symmetry_cell_setting            triclinic
loop_
_symmetry_equiv_pos_as_xyz
'x, y, z'
_cell_length_a     56.220674
_cell_length_b     56.207352
_cell_length_c     48.561516
_cell_angle_alpha  89.991116
_cell_angle_beta   89.999633
_cell_angle_gamma 90.009103
loop_
_atom_site_label
_atom_site_type_symbol
_atom_site_fract_x
_atom_site_fract_y
_atom_site_fract_z
_atom_type_partial_charge
Co0 Co 0.52178 0.19247 0.17467 0.0
O1 O 0.50516 0.16331 0.16818 0.0
O2 O 0.50494 0.18312 0.20768 0.0
C3 C 0.51028 0.21037 0.13564 0.0
O4 O 0.53633 0.22359 0.18819 0.0
Co5 Co 0.56228 0.20776 0.13478 0.0
O6 O 0.55939 0.23856 0.15449 0.0
C7 C 0.57027 0.16864 0.17406 0.0
C8 C 0.49763 0.16495 0.19334 0.0
C9 C 0.54905 0.24041 0.17776 0.0
O10 O 0.55078 0.17402 0.1865 0.0
O11 O 0.5769 0.17853 0.15157 0.0
O12 O 0.49623 0.2103 0.15686 0.0
O13 O 0.52946 0.19791 0.13792 0.0
Co14 Co 0.30464 0.52187 0.67604 0.0
O15 O 0.3324 0.503 0.66992 0.0
O16 O 0.3117 0.50357 0.70881 0.0
C17 C 0.28705 0.51266 0.63604 0.0
O18 O 0.27432 0.53848 0.68878 0.0
Co19 Co 0.29425 0.56435 0.63684 0.0
O20 O 0.2629 0.56393 0.65553 0.0
C21 C 0.33166 0.56884 0.67889 0.0
C22 C 0.32934 0.49486 0.69463 0.0
C23 C 0.25918 0.55308 0.6782 0.0
O24 O 0.32488 0.54906 0.68969 0.0
O25 O 0.32311 0.57697 0.65633 0.0
O26 O 0.28538 0.49825 0.65683 0.0
O27 O 0.30097 0.53072 0.63932 0.0
Co28 Co 0.97504 0.31065 0.17019 0.0
O29 O 0.99405 0.33865 0.16714 0.0
O30 O 0.9914 0.31635 0.20471 0.0
C31 C 0.98696 0.29554 0.12969 0.0
O32 O 0.95797 0.27981 0.18001 0.0
Co33 Co 0.93536 0.30066 0.12746 0.0
O34 O 0.93635 0.26816 0.14347 0.0
C35 C 0.92793 0.33706 0.17041 0.0
C36 C 0.00079 0.33458 0.1922 0.0
C37 C 0.94532 0.26427 0.16715 0.0
O38 O 0.94704 0.33023 0.18268 0.0
O39 O 0.92129 0.32887 0.14702 0.0
O40 O -0.00024 0.29231 0.15163 0.0
O41 O 0.96844 0.30888 0.13263 0.0
Co42 Co 0.19369 0.97511 0.67233 0.0
O43 O 0.16528 0.99284 0.66511 0.0
O44 O 0.18441 0.99224 0.70506 0.0
C45 C 0.21252 0.98589 0.63363 0.0
O46 O 0.22406 0.95978 0.68679 0.0
Co47 Co 0.20918 0.93401 0.63365 0.0
O48 O 0.24033 0.93863 0.65225 0.0
C49 C 0.16982 0.92645 0.67291 0.0
C50 C 0.16693 0.00042 0.69026 0.0
C51 C 0.24151 0.94831 0.67592 0.0
O52 O 0.17426 0.94677 0.68399 0.0
O53 O 0.18061 0.91885 0.6514 0.0
O54 O 0.21257 -1e-05 0.65482 0.0
O55 O 0.19955 0.96701 0.63573 0.0
Co56 Co 0.52393 0.30365 0.82134 0.0
O57 O 0.50451 0.33144 0.82437 0.0
O58 O 0.50581 0.30782 0.7878 0.0
C59 C 0.51456 0.2897 0.86329 0.0
O60 O 0.5411 0.27289 0.81166 0.0
Co61 Co 0.56608 0.29591 0.86168 0.0
O62 O 0.56586 0.26315 0.84627 0.0
C63 C 0.5693 0.33217 0.81806 0.0
C64 C 0.4967 0.32635 0.79996 0.0
C65 C 0.55536 0.25828 0.82369 0.0
O66 O 0.55087 0.32332 0.8062 0.0
O67 O 0.57675 0.32543 0.84173 0.0
O68 O 0.50053 0.28562 0.84257 0.0
O69 O 0.53262 0.30318 0.8583 0.0
Co70 Co 0.19208 0.52951 0.32108 0.0
O71 O 0.16297 0.51234 0.32633 0.0
O72 O 0.18525 0.51087 0.28866 0.0
C73 C 0.20696 0.52032 0.36259 0.0
O74 O 0.22373 0.54366 0.30876 0.0
Co75 Co 0.20604 0.57192 0.35841 0.0
O76 O 0.23797 0.56765 0.34186 0.0
C77 C 0.16897 0.5781 0.31578 0.0
C78 C 0.16657 0.50352 0.302 0.0
C79 C 0.24049 0.55635 0.31931 0.0
O80 O 0.1738 0.55742 0.30585 0.0
O81 O 0.17873 0.58633 0.33764 0.0
O82 O 0.20904 0.5054 0.3423 0.0
O83 O 0.1949 0.53937 0.35757 0.0
Co84 Co 0.97325 0.19082 0.82183 0.0
O85 O 0.99276 0.16309 0.82515 0.0
O86 O 0.9895 0.18509 0.7874 0.0
C87 C 0.98488 0.20659 0.86209 0.0
O88 O 0.9558 0.22118 0.81121 0.0
Co89 Co 0.93326 0.20135 0.86373 0.0
O90 O 0.9328 0.2333 0.8463 0.0
C91 C 0.92629 0.16411 0.82164 0.0
C92 C 0.99917 0.16703 0.7999 0.0
C93 C 0.94222 0.23667 0.82276 0.0
O94 O 0.94562 0.17067 0.80967 0.0
O95 O 0.91923 0.17286 0.84459 0.0
O96 O 0.99765 0.20973 0.84009 0.0
O97 O 0.96647 0.19303 0.85938 0.0
Co98 Co 0.30701 0.96927 0.32065 0.0
O99 O 0.33736 0.98462 0.32191 0.0
O100 O 0.31203 0.98703 0.287 0.0
C101 C 0.2962 0.98008 0.36335 0.0
O102 O 0.27384 0.95631 0.31271 0.0
Co103 Co 0.29529 0.92827 0.36126 0.0
O104 O 0.26228 0.933 0.34791 0.0
C105 C 0.32839 0.92008 0.31498 0.0
C106 C 0.33234 0.99311 0.29778 0.0
C107 C 0.25796 0.94403 0.32552 0.0
O108 O 0.32233 0.94014 0.30431 0.0
O109 O 0.32115 0.9131 0.33866 0.0
O110 O 0.29319 0.99469 0.34292 0.0
O111 O 0.30698 0.96044 0.3576 0.0
Co112 Co 0.47407 0.8036 0.82019 0.0
O113 O 0.49311 0.8317 0.82268 0.0
O114 O 0.49175 0.8078 0.78636 0.0
C115 C 0.48403 0.79002 0.86212 0.0
O116 O 0.45729 0.7725 0.81102 0.0
Co117 Co 0.43242 0.79546 0.86112 0.0
O118 O 0.43299 0.76261 0.84599 0.0
C119 C 0.42812 0.83124 0.81712 0.0
C120 C 0.50072 0.82655 0.7982 0.0
C121 C 0.44337 0.75775 0.82333 0.0
O122 O 0.44668 0.82271 0.80521 0.0
O123 O 0.42095 0.82454 0.84092 0.0
O124 O 0.49794 0.78606 0.84125 0.0
O125 O 0.46575 0.80322 0.85728 0.0
Co126 Co 0.69348 0.47063 0.32588 0.0
O127 O 0.6643 0.48751 0.33154 0.0
O128 O 0.68567 0.4886 0.29318 0.0
C129 C 0.70909 0.48091 0.36679 0.0
O130 O 0.72499 0.45655 0.3131 0.0
Co131 Co 0.70835 0.42917 0.36423 0.0
O132 O 0.73971 0.43254 0.34593 0.0
C133 C 0.66981 0.42233 0.32365 0.0
C134 C 0.66722 0.49598 0.30693 0.0
C135 C 0.74181 0.44367 0.32319 0.0
O136 O 0.6753 0.44215 0.31197 0.0
O137 O 0.67946 0.41513 0.34605 0.0
O138 O 0.71063 0.49539 0.346 0.0
O139 O 0.69714 0.46165 0.36255 0.0
Co140 Co 0.02588 0.69374 0.82161 0.0
O141 O 0.00799 0.66523 0.82782 0.0
O142 O 0.01006 0.68446 0.788 0.0
C143 C 0.01371 0.71241 0.85988 0.0
O144 O 0.04159 0.72429 0.808 0.0
Co145 Co 0.06552 0.70925 0.86234 0.0
O146 O 0.06203 0.74025 0.84325 0.0
C147 C 0.07469 0.67012 0.82327 0.0
C148 C 0.00147 0.66684 0.80227 0.0
C149 C 0.05302 0.74162 0.81923 0.0
O150 O 0.05465 0.67427 0.81138 0.0
O151 O 0.08162 0.68113 0.84493 0.0
O152 O 0.00035 0.71251 0.83805 0.0
O153 O 0.03267 0.6995 0.85858 0.0
Co154 Co 0.80621 0.0291 0.31813 0.0
O155 O 0.83611 0.01344 0.32315 0.0
O156 O 0.81326 0.00981 0.28617 0.0
C157 C 0.79237 0.02024 0.36028 0.0
O158 O 0.77389 0.04195 0.30633 0.0
Co159 Co 0.79214 0.07189 0.35502 0.0
O160 O 0.76016 0.06702 0.33871 0.0
C161 C 0.82836 0.0779 0.3115 0.0
C162 C 0.83257 0.00381 0.29924 0.0
C163 C 0.75732 0.05499 0.31671 0.0
O164 O 0.823 0.05736 0.30157 0.0
O165 O 0.81954 0.08596 0.33397 0.0
O166 O 0.79056 0.00482 0.34046 0.0
O167 O 0.80374 0.03954 0.35444 0.0
Co168 Co 0.47691 0.68848 0.17253 0.0
O169 O 0.49647 0.66076 0.16955 0.0
O170 O 0.49264 0.68266 0.2073 0.0
C171 C 0.48877 0.70495 0.13277 0.0
O172 O 0.45918 0.71889 0.18249 0.0
Co173 Co 0.43736 0.69803 0.12919 0.0
O174 O 0.43749 0.73029 0.14585 0.0
C175 C 0.4302 0.66115 0.17154 0.0
C176 C 0.50251 0.66464 0.19493 0.0
C177 C 0.44625 0.73422 0.16964 0.0
O178 O 0.449 0.66831 0.18419 0.0
O179 O 0.4237 0.6693 0.14808 0.0
O180 O 0.50165 0.70746 0.15478 0.0
O181 O 0.47063 0.691 0.135 0.0
Co182 Co 0.80492 0.47458 0.67763 0.0
O183 O 0.83458 0.49049 0.67149 0.0
O184 O 0.81452 0.49089 0.71083 0.0
C185 C 0.78781 0.48677 0.63836 0.0
O186 O 0.77334 0.46105 0.69093 0.0
Co187 Co 0.78784 0.43484 0.63782 0.0
O188 O 0.75669 0.44075 0.65593 0.0
C189 C 0.82594 0.42473 0.67796 0.0
C190 C 0.83285 0.498 0.69667 0.0
C191 C 0.75557 0.4504 0.67963 0.0
O192 O 0.8222 0.44495 0.68961 0.0
O193 O 0.81547 0.4182 0.65578 0.0
O194 O 0.7881 0.50074 0.65967 0.0
O195 O 0.79948 0.4671 0.64079 0.0
Co196 Co 0.02365 0.80785 0.17301 0.0
O197 O 0.00748 0.83767 0.17089 0.0
O198 O 0.00513 0.81273 0.20617 0.0
C199 C 0.014 0.79619 0.13021 0.0
O200 O 0.03746 0.77512 0.18159 0.0
Co201 Co 0.06591 0.79782 0.13358 0.0
O202 O 0.06325 0.76499 0.14818 0.0
C203 C 0.07185 0.83136 0.17971 0.0
C204 C 0.99875 0.83278 0.19493 0.0
C205 C 0.05142 0.76003 0.16984 0.0
O206 O 0.05196 0.82428 0.18996 0.0
O207 O 0.07948 0.82455 0.15614 0.0
O208 O 0.99911 0.79298 0.15033 0.0
O209 O 0.0331 0.80778 0.13626 0.0
Co210 Co 0.69293 0.02205 0.67406 0.0
O211 O 0.66442 0.00433 0.66757 0.0
O212 O 0.68522 0.00353 0.70639 0.0
C213 C 0.71013 0.0129 0.63377 0.0
O214 O 0.72382 0.03719 0.68731 0.0
Co215 Co 0.70579 0.0647 0.63615 0.0
O216 O 0.73758 0.06068 0.65333 0.0
C217 C 0.66829 0.07019 0.67811 0.0
C218 C 0.66723 0.9957 0.69212 0.0
C219 C 0.74029 0.04992 0.67623 0.0
O220 O 0.6738 0.04978 0.6883 0.0
O221 O 0.67762 0.07846 0.65603 0.0
O222 O 0.71124 0.99805 0.65421 0.0
O223 O 0.69703 0.03148 0.63757 0.0
C224 C 0.46814 0.15129 0.22874 0.0
C225 C 0.48101 0.14709 0.20444 0.0
C226 C 0.45148 0.13462 0.23803 0.0
C227 C 0.43674 0.07138 0.234 0.0
H228 H 0.37314 0.09075 0.25542 0.0
C229 C 0.37265 0.0107 0.29322 0.0
C230 C 0.34899 0.0095 0.28407 0.0
C231 C 0.38834 0.02719 0.28195 0.0
C232 C 0.39078 0.08513 0.24927 0.0
H233 H 0.48685 0.12211 0.17102 0.0
H234 H 0.45812 0.09303 0.18743 0.0
H235 H 0.40182 0.12075 0.23984 0.0
H236 H 0.32316 0.02443 0.25581 0.0
H237 H 0.35078 0.05373 0.23615 0.0
H238 H 0.42588 0.03585 0.2436 0.0
C239 C 0.46082 0.10915 0.19926 0.0
C240 C 0.40722 0.10227 0.2407 0.0
C241 C 0.47721 0.12585 0.18985 0.0
C242 C 0.34135 0.02493 0.26311 0.0
C243 C 0.35705 0.04175 0.25205 0.0
C244 C 0.42043 0.05433 0.24283 0.0
C245 C 0.44772 0.1134 0.22334 0.0
C246 C 0.43034 0.09551 0.23299 0.0
C247 C 0.38065 0.04304 0.26149 0.0
C248 C 0.39734 0.06104 0.25061 0.0
H249 H 0.47067 0.16758 0.2403 0.0
H250 H 0.44169 0.1382 0.25679 0.0
H251 H 0.45448 0.06572 0.22829 0.0
H252 H 0.37904 0.999 0.30934 0.0
H253 H 0.40638 0.02795 0.28975 0.0
C254 C 0.3588 0.46274 0.68651 0.0
C255 C 0.34476 0.47572 0.70512 0.0
C256 C 0.3735 0.4445 0.69575 0.0
C257 C 0.38518 0.40507 0.75547 0.0
H258 H 0.44731 0.39927 0.72129 0.0
C259 C 0.46409 0.35586 0.80434 0.0
C260 C 0.47765 0.34074 0.7875 0.0
C261 C 0.44618 0.36993 0.7931 0.0
C262 C 0.42988 0.40046 0.73072 0.0
H263 H 0.33488 0.47973 0.74797 0.0
H264 H 0.36138 0.44828 0.76446 0.0
H265 H 0.41959 0.4293 0.70478 0.0
H266 H 0.48299 0.32817 0.74577 0.0
H267 H 0.45178 0.35345 0.72583 0.0
H268 H 0.39613 0.37678 0.7822 0.0
C269 C 0.36059 0.45186 0.74258 0.0
C270 C 0.41396 0.41764 0.72129 0.0
C271 C 0.34555 0.46998 0.73322 0.0
C272 C 0.47281 0.33973 0.75916 0.0
C273 C 0.45504 0.35416 0.7478 0.0
C274 C 0.40126 0.38806 0.76511 0.0
C275 C 0.37483 0.43899 0.72392 0.0
C276 C 0.39146 0.42027 0.73365 0.0
C277 C 0.44164 0.36939 0.76473 0.0
C278 C 0.4238 0.38576 0.75294 0.0
H279 H 0.35829 0.46651 0.66464 0.0
H280 H 0.38374 0.43462 0.68072 0.0
H281 H 0.36786 0.40629 0.76512 0.0
H282 H 0.46731 0.35689 0.8263 0.0
H283 H 0.43629 0.38171 0.80654 0.0
C284 C 0.03423 0.36293 0.18761 0.0
C285 C 0.01918 0.34968 0.20482 0.0
C286 C 0.05127 0.37806 0.19871 0.0
C287 C 0.08356 0.39342 0.26275 0.0
H288 H 0.09248 0.45345 0.22459 0.0
C289 C 0.13401 0.47396 0.30818 0.0
C290 C 0.15054 0.48519 0.29079 0.0
C291 C 0.11901 0.45628 0.298 0.0
C292 C 0.09034 0.43666 0.23527 0.0
H293 H 0.01042 0.34132 0.24715 0.0
H294 H 0.03984 0.36868 0.26686 0.0
H295 H 0.06382 0.42482 0.20707 0.0
H296 H 0.16448 0.48672 0.2492 0.0
H297 H 0.13777 0.45601 0.23121 0.0
H298 H 0.10971 0.40591 0.29148 0.0
C299 C 0.03873 0.36697 0.24469 0.0
C300 C 0.07397 0.4202 0.22525 0.0
C301 C 0.02182 0.35142 0.23347 0.0
C302 C 0.15183 0.47841 0.26302 0.0
C303 C 0.13658 0.4609 0.25274 0.0
C304 C 0.09976 0.41008 0.27299 0.0
C305 C 0.05341 0.38071 0.22736 0.0
C306 C 0.07049 0.39829 0.23872 0.0
C307 C 0.12006 0.4497 0.27018 0.0
C308 C 0.10334 0.43178 0.25923 0.0
H309 H 0.03292 0.36158 0.1654 0.0
H310 H 0.06273 0.38776 0.18474 0.0
H311 H 0.08153 0.37663 0.27344 0.0
H312 H 0.13272 0.47873 0.32974 0.0
H313 H 0.10627 0.44806 0.31178 0.0
C314 C 0.13506 0.03038 0.68246 0.0
C315 C 0.1502 0.0184 0.70082 0.0
C316 C 0.11966 0.04799 0.69191 0.0
C317 C 0.10883 0.08802 0.75122 0.0
H318 H 0.0454 0.09196 0.72004 0.0
C319 C 0.03139 0.13696 0.80316 0.0
C320 C 0.0173 0.15194 0.78675 0.0
C321 C 0.0487 0.12256 0.79125 0.0
C322 C 0.06317 0.09126 0.72863 0.0
H323 H 0.16102 0.01525 0.74348 0.0
H324 H 0.13346 0.04552 0.76029 0.0
H325 H 0.07324 0.06231 0.70265 0.0
H326 H 0.01022 0.16374 0.74505 0.0
H327 H 0.04038 0.13791 0.72399 0.0
H328 H 0.09826 0.11643 0.77793 0.0
C329 C 0.13392 0.04173 0.73843 0.0
C330 C 0.07915 0.07431 0.7187 0.0
C331 C 0.14956 0.02425 0.72888 0.0
C332 C 0.02085 0.15232 0.75813 0.0
C333 C 0.03801 0.13757 0.74612 0.0
C334 C 0.09275 0.10477 0.76135 0.0
C335 C 0.11883 0.05384 0.72002 0.0
C336 C 0.1021 0.07235 0.73004 0.0
C337 C 0.05208 0.12262 0.76265 0.0
C338 C 0.06972 0.10637 0.7503 0.0
H339 H 0.13535 0.02643 0.66063 0.0
H340 H 0.10864 0.05724 0.67708 0.0
H341 H 0.12652 0.08735 0.76001 0.0
H342 H 0.02914 0.13639 0.82531 0.0
H343 H 0.05913 0.11099 0.80439 0.0
C344 C 0.52362 0.84037 0.75684 0.0
C345 C 0.51943 0.8411 0.78533 0.0
C346 C 0.54107 0.85496 0.74511 0.0
C347 C 0.59536 0.88834 0.76106 0.0
H348 H 0.57559 0.93115 0.70283 0.0
C349 C 0.65099 0.97039 0.73024 0.0
C350 C 0.65126 0.9769 0.70235 0.0
C351 C 0.63583 0.95231 0.73939 0.0
C352 C 0.58161 0.91905 0.71872 0.0
H353 H 0.53062 0.85692 0.824 0.0
H354 H 0.56117 0.88197 0.80359 0.0
H355 H 0.54815 0.90085 0.71943 0.0
H356 H 0.63645 0.96927 0.66204 0.0
H357 H 0.61072 0.93742 0.67775 0.0
H358 H 0.62886 0.90634 0.76036 0.0
C359 C 0.55096 0.87031 0.79032 0.0
C360 C 0.56585 0.90172 0.7282 0.0
C361 C 0.53333 0.85611 0.80193 0.0
C362 C 0.63639 0.96487 0.68376 0.0
C363 C 0.62154 0.94664 0.6928 0.0
C364 C 0.61126 0.90547 0.75135 0.0
C365 C 0.55484 0.87005 0.76182 0.0
C366 C 0.57246 0.88648 0.74973 0.0
C367 C 0.62091 0.94023 0.72074 0.0
C368 C 0.60446 0.92128 0.73033 0.0
H369 H 0.51315 0.82891 0.74363 0.0
H370 H 0.54383 0.85448 0.72303 0.0
H371 H 0.60088 0.87663 0.77759 0.0
H372 H 0.66228 0.97942 0.74499 0.0
H373 H 0.63556 0.94808 0.76114 0.0
C374 C 0.52323 0.64933 0.2371 0.0
C375 C 0.52048 0.64952 0.20837 0.0
C376 C 0.54012 0.6344 0.24936 0.0
C377 C 0.59539 0.60202 0.23555 0.0
H378 H 0.57387 0.55795 0.29167 0.0
C379 C 0.65145 0.52087 0.26821 0.0
C380 C 0.65085 0.51416 0.29602 0.0
C381 C 0.63613 0.53855 0.25842 0.0
C382 C 0.58035 0.57038 0.27637 0.0
H383 H 0.53356 0.6349 0.16987 0.0
H384 H 0.56312 0.60923 0.19122 0.0
H385 H 0.54665 0.58805 0.27408 0.0
H386 H 0.63415 0.52091 0.33554 0.0
H387 H 0.60805 0.55207 0.31876 0.0
H388 H 0.62914 0.58461 0.23789 0.0
C389 C 0.55223 0.62046 0.20427 0.0
C390 C 0.56471 0.58759 0.26632 0.0
C391 C 0.53517 0.635 0.1921 0.0
C392 C 0.63482 0.5255 0.31389 0.0
C393 C 0.61976 0.54333 0.30423 0.0
C394 C 0.61114 0.585 0.24584 0.0
C395 C 0.55475 0.61987 0.23298 0.0
C396 C 0.572 0.60331 0.24556 0.0
C397 C 0.62013 0.55003 0.27636 0.0
C398 C 0.60371 0.56875 0.26611 0.0
H399 H 0.51213 0.66039 0.25008 0.0
H400 H 0.54182 0.63425 0.27158 0.0
H401 H 0.60146 0.61412 0.21967 0.0
H402 H 0.66363 0.51238 0.25399 0.0
H403 H 0.63664 0.543 0.23673 0.0
C404 C 0.97132 0.63486 0.80825 0.0
C405 C 0.98435 0.64976 0.79058 0.0
C406 C 0.95466 0.61895 0.79765 0.0
C407 C 0.93995 0.58453 0.73699 0.0
H408 H 0.87657 0.58181 0.76841 0.0
C409 C 0.86663 0.526 0.69004 0.0
C410 C 0.85048 0.5148 0.70789 0.0
C411 C 0.88282 0.54265 0.70004 0.0
C412 C 0.89429 0.58207 0.75969 0.0
H413 H 0.99036 0.65964 0.748 0.0
H414 H 0.9614 0.63127 0.72933 0.0
H415 H 0.90511 0.61091 0.78566 0.0
H416 H 0.83878 0.51192 0.75026 0.0
H417 H 0.86772 0.54048 0.76805 0.0
H418 H 0.92958 0.55531 0.7116 0.0
C419 C 0.96408 0.63212 0.7514 0.0
C420 C 0.91055 0.59883 0.76945 0.0
C421 C 0.98055 0.64834 0.76205 0.0
C422 C 0.851 0.52036 0.73605 0.0
C423 C 0.86746 0.53684 0.74615 0.0
C424 C 0.92382 0.56755 0.72746 0.0
C425 C 0.95093 0.6174 0.76916 0.0
C426 C 0.9335 0.60019 0.75817 0.0
C427 C 0.8835 0.54827 0.72822 0.0
C428 C 0.90077 0.56612 0.73867 0.0
H429 H 0.9738 0.63562 0.83035 0.0
H430 H 0.9449 0.60763 0.81174 0.0
H431 H 0.95767 0.58505 0.72824 0.0
H432 H 0.86649 0.52227 0.66815 0.0
H433 H 0.89453 0.55141 0.68552 0.0
C434 C 0.84379 0.97184 0.2656 0.0
C435 C 0.84954 0.9862 0.28832 0.0
C436 C 0.85967 0.95432 0.25659 0.0
C437 C 0.92289 0.93905 0.25742 0.0
H438 H 0.90188 0.87486 0.24094 0.0
C439 C 0.98028 0.87276 0.1979 0.0
C440 C 0.98218 0.8495 0.20822 0.0
C441 C 0.96409 0.8887 0.20921 0.0
C442 C 0.90796 0.89267 0.24573 0.0
H443 H 0.8764 0.99365 0.31927 0.0
H444 H 0.90403 0.96338 0.30339 0.0
H445 H 0.87299 0.90452 0.2569 0.0
H446 H 0.96864 0.8246 0.23849 0.0
H447 H 0.93986 0.85272 0.25832 0.0
H448 H 0.95775 0.9274 0.24612 0.0
C449 C 0.88735 0.96562 0.29253 0.0
C450 C 0.89145 0.90966 0.25452 0.0
C451 C 0.87147 0.98291 0.30164 0.0
C452 C 0.96759 0.84248 0.23026 0.0
C453 C 0.95107 0.85845 0.24143 0.0
C454 C 0.9393 0.92219 0.24843 0.0
C455 C 0.8816 0.95111 0.26999 0.0
C456 C 0.8988 0.93301 0.26039 0.0
C457 C 0.94926 0.88171 0.23098 0.0
C458 C 0.93198 0.8989 0.24235 0.0
H459 H 0.82694 0.97393 0.25506 0.0
H460 H 0.85493 0.94346 0.23899 0.0
H461 H 0.92901 0.95696 0.26165 0.0
H462 H 0.99129 0.87871 0.18093 0.0
H463 H 0.96288 0.90644 0.20058 0.0
C464 C 0.5502 0.26236 0.22277 0.0
C465 C 0.5536 0.26219 0.1941 0.0
C466 C 0.55771 0.28182 0.2385 0.0
C467 C 0.57738 0.34469 0.23498 0.0
H468 H 0.61878 0.32675 0.29533 0.0
C469 C 0.64642 0.40903 0.28237 0.0
C470 C 0.65196 0.40669 0.31046 0.0
C471 C 0.6308 0.39305 0.26968 0.0
C472 C 0.6069 0.33222 0.27896 0.0
H473 H 0.56596 0.28302 0.15926 0.0
H474 H 0.57893 0.31685 0.18667 0.0
H475 H 0.59659 0.29627 0.27096 0.0
H476 H 0.64436 0.38662 0.3476 0.0
H477 H 0.61669 0.35931 0.32577 0.0
H478 H 0.58793 0.38067 0.24281 0.0
C479 C 0.57056 0.30197 0.19702 0.0
C480 C 0.59417 0.31468 0.26496 0.0
C481 C 0.56329 0.28247 0.18134 0.0
C482 C 0.64079 0.38868 0.32581 0.0
C483 C 0.62497 0.37293 0.31325 0.0
C484 C 0.58998 0.36232 0.24916 0.0
C485 C 0.56848 0.30157 0.22582 0.0
C486 C 0.57959 0.32066 0.24255 0.0
C487 C 0.62015 0.37456 0.2849 0.0
C488 C 0.60521 0.35625 0.27106 0.0
H489 H 0.54273 0.24707 0.23323 0.0
H490 H 0.55566 0.28116 0.26067 0.0
H491 H 0.56611 0.34983 0.21789 0.0
H492 H 0.65475 0.42271 0.26996 0.0
H493 H 0.62774 0.39471 0.24776 0.0
C494 C 0.23128 0.5473 0.7183 0.0
C495 C 0.23694 0.55864 0.69332 0.0
C496 C 0.21094 0.5539 0.7331 0.0
C497 C 0.15453 0.58875 0.72691 0.0
H498 H 0.16225 0.59741 0.80556 0.0
C499 C 0.08249 0.63593 0.79126 0.0
C500 C 0.09086 0.65229 0.8109 0.0
C501 C 0.09809 0.61983 0.77878 0.0
C502 C 0.1598 0.59519 0.78359 0.0
H503 H 0.22517 0.58543 0.66405 0.0
H504 H 0.19047 0.59723 0.68997 0.0
H505 H 0.19346 0.57789 0.77928 0.0
H506 H 0.12213 0.66429 0.83311 0.0
H507 H 0.14934 0.63696 0.81076 0.0
H508 H 0.12171 0.60753 0.73081 0.0
C509 C 0.20131 0.58289 0.69798 0.0
C510 C 0.17758 0.58363 0.76856 0.0
C511 C 0.22146 0.57624 0.68318 0.0
C512 C 0.11505 0.65187 0.81817 0.0
C513 C 0.13066 0.63599 0.80547 0.0
C514 C 0.13691 0.60055 0.74186 0.0
C515 C 0.19588 0.57202 0.72327 0.0
C516 C 0.17548 0.58089 0.73989 0.0
C517 C 0.12246 0.6199 0.78541 0.0
C518 C 0.13962 0.60451 0.77028 0.0
H519 H 0.24271 0.53356 0.72662 0.0
H520 H 0.20713 0.54496 0.75235 0.0
H521 H 0.15206 0.58648 0.70495 0.0
H522 H 0.0639 0.63561 0.78543 0.0
H523 H 0.09104 0.60744 0.76378 0.0
C524 C 0.85519 0.11338 0.30876 0.0
C525 C 0.84505 0.09332 0.29604 0.0
C526 C 0.87002 0.12866 0.29397 0.0
C527 C 0.88018 0.14991 0.22437 0.0
H528 H 0.93753 0.17749 0.25522 0.0
C529 C 0.93147 0.22199 0.16543 0.0
C530 C 0.9395 0.24152 0.18093 0.0
C531 C 0.92371 0.20126 0.17847 0.0
C532 C 0.92147 0.1701 0.24638 0.0
H533 H 0.84308 0.07326 0.25792 0.0
H534 H 0.86879 0.10025 0.23196 0.0
H535 H 0.91683 0.14589 0.28009 0.0
H536 H 0.94652 0.25425 0.22228 0.0
H537 H 0.93225 0.21842 0.24512 0.0
H538 H 0.88399 0.17466 0.19135 0.0
C539 C 0.86519 0.10405 0.25343 0.0
C540 C 0.90969 0.15194 0.26058 0.0
C541 C 0.85055 0.08859 0.26833 0.0
C542 C 0.94048 0.2395 0.20975 0.0
C543 C 0.9324 0.21886 0.22283 0.0
C544 C 0.89179 0.1682 0.21032 0.0
C545 C 0.87489 0.12436 0.26606 0.0
C546 C 0.88875 0.1419 0.24988 0.0
C547 C 0.92345 0.19965 0.20737 0.0
C548 C 0.91241 0.17878 0.2213 0.0
H549 H 0.85148 0.11748 0.33013 0.0
H550 H 0.87705 0.14429 0.30417 0.0
H551 H 0.86389 0.14273 0.21581 0.0
H552 H 0.93085 0.22285 0.14315 0.0
H553 H 0.91753 0.18663 0.16585 0.0
C554 C 0.26142 0.93599 0.71939 0.0
C555 C 0.26314 0.94423 0.69225 0.0
C556 C 0.28178 0.92868 0.73354 0.0
C557 C 0.34443 0.90975 0.7196 0.0
H558 H 0.34501 0.90459 0.79907 0.0
C559 C 0.40778 0.8451 0.77451 0.0
C560 C 0.4136 0.84879 0.80222 0.0
C561 C 0.39196 0.8604 0.76114 0.0
C562 C 0.34563 0.90626 0.77689 0.0
H563 H 0.28729 0.95301 0.65911 0.0
H564 H 0.32309 0.94217 0.6844 0.0
H565 H 0.31372 0.92674 0.77684 0.0
H566 H 0.40888 0.87194 0.83737 0.0
H567 H 0.38278 0.89976 0.81363 0.0
H568 H 0.3772 0.89069 0.71973 0.0
C569 C 0.30607 0.93994 0.69447 0.0
C570 C 0.32719 0.91863 0.76399 0.0
C571 C 0.2856 0.94646 0.68001 0.0
C572 C 0.40436 0.86864 0.81601 0.0
C573 C 0.38919 0.88443 0.8024 0.0
C574 C 0.36329 0.89806 0.73254 0.0
C575 C 0.30444 0.93014 0.72113 0.0
C576 C 0.32583 0.91988 0.73509 0.0
C577 C 0.38219 0.8802 0.77496 0.0
C578 C 0.36378 0.8954 0.76135 0.0
H579 H 0.24419 0.93391 0.7291 0.0
H580 H 0.27945 0.92088 0.75372 0.0
H581 H 0.34418 0.90997 0.69733 0.0
H582 H 0.41457 0.82974 0.76356 0.0
H583 H 0.3868 0.85603 0.74029 0.0
C584 C 0.57038 0.2164 0.82533 0.0
C585 C 0.56108 0.23546 0.81003 0.0
C586 C 0.57778 0.19557 0.81219 0.0
C587 C 0.5768 0.16342 0.74471 0.0
H588 H 0.63554 0.13631 0.77245 0.0
C589 C 0.64099 0.10538 0.68047 0.0
C590 C 0.65129 0.08545 0.6933 0.0
C591 C 0.62651 0.12092 0.69537 0.0
C592 C 0.61893 0.14344 0.76469 0.0
H593 H 0.55157 0.24736 0.76901 0.0
H594 H 0.5653 0.21146 0.74594 0.0
H595 H 0.6167 0.16871 0.79733 0.0
H596 H 0.65378 0.06583 0.7317 0.0
H597 H 0.62875 0.09327 0.75781 0.0
H598 H 0.57995 0.13871 0.71124 0.0
C599 C 0.56636 0.21225 0.76818 0.0
C600 C 0.60803 0.162 0.77901 0.0
C601 C 0.55859 0.23294 0.78139 0.0
C602 C 0.64616 0.08102 0.72118 0.0
C603 C 0.63191 0.09676 0.73618 0.0
C604 C 0.58792 0.14502 0.73019 0.0
C605 C 0.57646 0.19345 0.78336 0.0
C606 C 0.58694 0.17244 0.76908 0.0
C607 C 0.62223 0.11703 0.7235 0.0
C608 C 0.60922 0.13504 0.73992 0.0
H609 H 0.5722 0.21766 0.84749 0.0
H610 H 0.58487 0.18127 0.82467 0.0
H611 H 0.56037 0.17068 0.73668 0.0
H612 H 0.64445 0.10924 0.65898 0.0
H613 H 0.61942 0.13651 0.68514 0.0
C614 C 0.41545 0.64043 0.21397 0.0
C615 C 0.41452 0.64364 0.18529 0.0
C616 C 0.3989 0.62582 0.22723 0.0
C617 C 0.33842 0.60178 0.21657 0.0
H618 H 0.35176 0.56789 0.28438 0.0
C619 C 0.26448 0.5531 0.27586 0.0
C620 C 0.26297 0.55951 0.30379 0.0
C621 C 0.28479 0.55862 0.2605 0.0
C622 C 0.34782 0.57724 0.26542 0.0
H623 H 0.39655 0.63274 0.14783 0.0
H624 H 0.36823 0.60671 0.17079 0.0
H625 H 0.38441 0.58604 0.25863 0.0
H626 H 0.28226 0.57541 0.33789 0.0
H627 H 0.31759 0.58497 0.31109 0.0
H628 H 0.30186 0.59323 0.22352 0.0
C629 C 0.38118 0.6161 0.18321 0.0
C630 C 0.36648 0.58773 0.25072 0.0
C631 C 0.39751 0.63095 0.17001 0.0
C632 C 0.28272 0.57039 0.31636 0.0
C633 C 0.30308 0.57571 0.30107 0.0
C634 C 0.31985 0.59112 0.23111 0.0
C635 C 0.38124 0.61384 0.21206 0.0
C636 C 0.36194 0.60054 0.22637 0.0
C637 C 0.30409 0.57042 0.27283 0.0
C638 C 0.32428 0.57913 0.25594 0.0
H639 H 0.42832 0.64999 0.22634 0.0
H640 H 0.39937 0.62476 0.24948 0.0
H641 H 0.33411 0.61186 0.19824 0.0
H642 H 0.24965 0.54461 0.26556 0.0
H643 H 0.28519 0.55412 0.23882 0.0
C644 C 0.84774 0.40982 0.71954 0.0
C645 C 0.84243 0.40779 0.69136 0.0
C646 C 0.86193 0.3928 0.73261 0.0
C647 C 0.88251 0.33054 0.72393 0.0
H648 H 0.92277 0.34608 0.78624 0.0
C649 C 0.93942 0.25974 0.77869 0.0
C650 C 0.93586 0.2585 0.80732 0.0
C651 C 0.9312 0.27929 0.76368 0.0
C652 C 0.91159 0.34154 0.76885 0.0
H653 H 0.84886 0.38699 0.65449 0.0
H654 H 0.87427 0.35786 0.67698 0.0
H655 H 0.90284 0.37795 0.76097 0.0
H656 H 0.922 0.27744 0.84281 0.0
H657 H 0.90791 0.31169 0.81656 0.0
H658 H 0.89144 0.29416 0.73177 0.0
C659 C 0.86683 0.37208 0.68929 0.0
C660 C 0.90006 0.35974 0.75444 0.0
C661 C 0.85235 0.38888 0.67632 0.0
C662 C 0.92489 0.27776 0.82076 0.0
C663 C 0.91695 0.29745 0.80578 0.0
C664 C 0.89429 0.31242 0.73809 0.0
C665 C 0.87144 0.37354 0.71772 0.0
C666 C 0.8851 0.35445 0.73201 0.0
C667 C 0.91956 0.29816 0.77703 0.0
C668 C 0.9087 0.3177 0.76088 0.0
H669 H 0.84029 0.42413 0.73174 0.0
H670 H 0.86476 0.39438 0.75459 0.0
H671 H 0.87078 0.32564 0.70719 0.0
H672 H 0.94782 0.24524 0.76768 0.0
H673 H 0.9336 0.27951 0.74155 0.0
C674 C 0.10642 0.85927 0.18365 0.0
C675 C 0.0869 0.84781 0.19599 0.0
C676 C 0.1212 0.87411 0.19909 0.0
C677 C 0.14247 0.88256 0.26907 0.0
H678 H 0.16811 0.94166 0.24042 0.0
C679 C 0.2151 0.93229 0.32843 0.0
C680 C 0.23439 0.94043 0.3126 0.0
C681 C 0.19386 0.92548 0.31578 0.0
C682 C 0.16122 0.92513 0.24866 0.0
H683 H 0.06731 0.84346 0.23419 0.0
H684 H 0.09343 0.86918 0.26124 0.0
H685 H 0.13685 0.92088 0.21506 0.0
H686 H 0.24605 0.94904 0.27123 0.0
H687 H 0.20931 0.9365 0.24906 0.0
H688 H 0.16743 0.88599 0.3019 0.0
C689 C 0.0972 0.86661 0.23957 0.0
C690 C 0.14327 0.91329 0.23418 0.0
C691 C 0.08224 0.85194 0.22405 0.0
C692 C 0.2315 0.94288 0.28401 0.0
C693 C 0.21035 0.93576 0.2713 0.0
C694 C 0.16054 0.89425 0.28341 0.0
C695 C 0.11695 0.87769 0.22728 0.0
C696 C 0.13402 0.89167 0.24401 0.0
C697 C 0.19149 0.92632 0.28697 0.0
C698 C 0.17046 0.91548 0.27317 0.0
H699 H 0.11047 0.85663 0.16206 0.0
H700 H 0.13644 0.88218 0.18913 0.0
H701 H 0.1359 0.86577 0.27697 0.0
H702 H 0.21664 0.93054 0.35057 0.0
H703 H 0.17951 0.91891 0.32858 0.0
C704 C 0.36001 0.60322 0.68104 0.0
C705 C 0.34905 0.58373 0.69403 0.0
C706 C 0.37457 0.61868 0.69597 0.0
C707 C 0.38111 0.64192 0.76516 0.0
H708 H 0.43997 0.66898 0.73775 0.0
C709 C 0.42866 0.71575 0.82542 0.0
C710 C 0.43793 0.73473 0.80995 0.0
C711 C 0.42156 0.69472 0.81251 0.0
C712 C 0.42346 0.66175 0.74561 0.0
H713 H 0.34563 0.56466 0.73271 0.0
H714 H 0.37084 0.59191 0.75882 0.0
H715 H 0.42081 0.63664 0.71248 0.0
H716 H 0.4477 0.74624 0.76886 0.0
H717 H 0.43452 0.70996 0.74618 0.0
H718 H 0.38288 0.66757 0.79744 0.0
C719 C 0.36809 0.59517 0.73706 0.0
C720 C 0.41258 0.64316 0.73119 0.0
C721 C 0.35373 0.57953 0.72207 0.0
C722 C 0.4407 0.73191 0.78138 0.0
C723 C 0.43325 0.711 0.76839 0.0
C724 C 0.39179 0.66066 0.77938 0.0
C725 C 0.3783 0.61512 0.72426 0.0
C726 C 0.39116 0.63325 0.74069 0.0
C727 C 0.42317 0.69228 0.78373 0.0
C728 C 0.41297 0.67104 0.76965 0.0
H729 H 0.35692 0.6069 0.65944 0.0
H730 H 0.38207 0.63402 0.68561 0.0
H731 H 0.3644 0.63487 0.77273 0.0
H732 H 0.42663 0.71724 0.84754 0.0
H733 H 0.41447 0.68049 0.82511 0.0
C734 C 0.91385 0.35791 0.21305 0.0
C735 C 0.91222 0.35436 0.18447 0.0
C736 C 0.89752 0.37255 0.22664 0.0
C737 C 0.83669 0.3963 0.2178 0.0
H738 H 0.85197 0.43126 0.28432 0.0
C739 C 0.76462 0.44619 0.27884 0.0
C740 C 0.76384 0.44016 0.30694 0.0
C741 C 0.78445 0.44034 0.26284 0.0
C742 C 0.84749 0.42162 0.26573 0.0
H743 H 0.89313 0.36458 0.14749 0.0
H744 H 0.86518 0.39062 0.171 0.0
H745 H 0.88386 0.41272 0.25771 0.0
H746 H 0.78394 0.42456 0.34058 0.0
H747 H 0.81848 0.41446 0.31266 0.0
H748 H 0.80034 0.405 0.22597 0.0
C749 C 0.87853 0.38151 0.18312 0.0
C750 C 0.86571 0.41089 0.25054 0.0
C751 C 0.89464 0.36664 0.1696 0.0
C752 C 0.78385 0.4293 0.31896 0.0
C753 C 0.80374 0.42366 0.30302 0.0
C754 C 0.81855 0.4072 0.23282 0.0
C755 C 0.87938 0.38419 0.2119 0.0
C756 C 0.86048 0.3977 0.22666 0.0
C757 C 0.80401 0.42859 0.27466 0.0
C758 C 0.82369 0.41958 0.25721 0.0
H759 H 0.92716 0.34868 0.22512 0.0
H760 H 0.89859 0.37392 0.24884 0.0
H761 H 0.83186 0.38595 0.19986 0.0
H762 H 0.74956 0.45464 0.26894 0.0
H763 H 0.78428 0.44455 0.24107 0.0
C764 C 0.05917 0.76287 0.77438 0.0
C765 C 0.05759 0.76352 0.80323 0.0
C766 C 0.0668 0.78293 0.75975 0.0
C767 C 0.10227 0.83745 0.77122 0.0
H768 H 0.0835 0.85222 0.69631 0.0
C769 C 0.14309 0.91628 0.71258 0.0
C770 C 0.15218 0.91066 0.68638 0.0
C771 C 0.12799 0.90048 0.72626 0.0
C772 C 0.08888 0.84826 0.71724 0.0
H773 H 0.06079 0.78613 0.8392 0.0
H774 H 0.07315 0.82127 0.81373 0.0
H775 H 0.06265 0.82087 0.72158 0.0
H776 H 0.1515 0.88448 0.65352 0.0
H777 H 0.12512 0.85696 0.67747 0.0
H778 H 0.12853 0.86469 0.76685 0.0
C779 C 0.06949 0.80509 0.80238 0.0
C780 C 0.07702 0.83027 0.73169 0.0
C781 C 0.06226 0.78499 0.81699 0.0
C782 C 0.14498 0.88932 0.67374 0.0
C783 C 0.12971 0.87361 0.68736 0.0
C784 C 0.11392 0.85553 0.7569 0.0
C785 C 0.07266 0.80412 0.77367 0.0
C786 C 0.08378 0.82444 0.75877 0.0
C787 C 0.12146 0.87881 0.71398 0.0
C788 C 0.10758 0.86093 0.72966 0.0
H789 H 0.05571 0.74654 0.76323 0.0
H790 H 0.06918 0.78142 0.73769 0.0
H791 H 0.1084 0.83317 0.79176 0.0
H792 H 0.14814 0.9326 0.72291 0.0
H793 H 0.12168 0.90505 0.74667 0.0
C794 C 0.60385 0.13954 0.17092 0.0
C795 C 0.58626 0.15084 0.18676 0.0
C796 C 0.61995 0.12386 0.18316 0.0
C797 C 0.63257 0.09028 0.24804 0.0
H798 H 0.69789 0.09657 0.22345 0.0
C799 C 0.7149 0.06838 0.31422 0.0
C800 C 0.73478 0.05808 0.30132 0.0
C801 C 0.69475 0.07445 0.29895 0.0
C802 C 0.67968 0.09425 0.23025 0.0
H803 H 0.57137 0.15406 0.22779 0.0
H804 H 0.59998 0.12745 0.24937 0.0
H805 H 0.66657 0.11759 0.19913 0.0
H806 H 0.74853 0.04482 0.26248 0.0
H807 H 0.71335 0.05572 0.23575 0.0
H808 H 0.64618 0.06787 0.28014 0.0
C809 C 0.60103 0.13017 0.22733 0.0
C810 C 0.66165 0.10629 0.21626 0.0
C811 C 0.58469 0.1456 0.21499 0.0
C812 C 0.73355 0.0528 0.27305 0.0
C813 C 0.71348 0.05913 0.25771 0.0
C814 C 0.6507 0.07845 0.26224 0.0
C815 C 0.61911 0.11937 0.21165 0.0
C816 C 0.63788 0.10477 0.2252 0.0
C817 C 0.69413 0.07055 0.2704 0.0
C818 C 0.67448 0.0806 0.25369 0.0
H819 H 0.6053 0.14292 0.14902 0.0
H820 H 0.63324 0.11546 0.17028 0.0
H821 H 0.61444 0.08831 0.25521 0.0
H822 H 0.71518 0.07251 0.33601 0.0
H823 H 0.68017 0.08336 0.30926 0.0
C824 C 0.43127 0.77608 0.16804 0.0
C825 C 0.43991 0.75678 0.18349 0.0
C826 C 0.42305 0.7966 0.18113 0.0
C827 C 0.42076 0.82789 0.24882 0.0
H828 H 0.36201 0.85347 0.21918 0.0
C829 C 0.35487 0.88436 0.31197 0.0
C830 C 0.34427 0.90413 0.29914 0.0
C831 C 0.36939 0.86891 0.29701 0.0
C832 C 0.37861 0.84679 0.22747 0.0
H833 H 0.44755 0.74425 0.22478 0.0
H834 H 0.43254 0.77974 0.24772 0.0
H835 H 0.38257 0.82189 0.19464 0.0
H836 H 0.34102 0.92339 0.26057 0.0
H837 H 0.36618 0.89613 0.23437 0.0
H838 H 0.41607 0.8523 0.2823 0.0
C839 C 0.43253 0.77926 0.22543 0.0
C840 C 0.39047 0.8287 0.21338 0.0
C841 C 0.44103 0.75882 0.21229 0.0
C842 C 0.34884 0.9083 0.27107 0.0
C843 C 0.36319 0.89268 0.25604 0.0
C844 C 0.40875 0.84586 0.26305 0.0
C845 C 0.42298 0.79821 0.21002 0.0
C846 C 0.41154 0.81879 0.22403 0.0
C847 C 0.37348 0.87276 0.26884 0.0
C848 C 0.38739 0.85526 0.25268 0.0
H849 H 0.43052 0.77522 0.14577 0.0
H850 H 0.41639 0.81106 0.16857 0.0
H851 H 0.43716 0.821 0.25737 0.0
H852 H 0.35187 0.88068 0.33358 0.0
H853 H 0.37687 0.85356 0.30734 0.0
C854 C 0.73488 0.43906 0.72295 0.0
C855 C 0.73363 0.44694 0.69563 0.0
C856 C 0.71427 0.43201 0.7368 0.0
C857 C 0.65198 0.41269 0.72167 0.0
H858 H 0.65038 0.40775 0.80113 0.0
C859 C 0.58944 0.34672 0.77564 0.0
C860 C 0.58334 0.35018 0.8033 0.0
C861 C 0.60493 0.36247 0.76246 0.0
C862 C 0.65003 0.40936 0.77894 0.0
H863 H 0.71002 0.45542 0.66187 0.0
H864 H 0.67378 0.44501 0.68659 0.0
H865 H 0.68163 0.43031 0.7794 0.0
H866 H 0.58714 0.3734 0.83853 0.0
H867 H 0.61263 0.40199 0.81512 0.0
H868 H 0.61951 0.39312 0.72127 0.0
C869 C 0.69064 0.44288 0.69706 0.0
C870 C 0.66846 0.42197 0.76633 0.0
C871 C 0.71136 0.44915 0.68292 0.0
C872 C 0.5919 0.37027 0.81722 0.0
C873 C 0.60672 0.3865 0.80379 0.0
C874 C 0.63312 0.40076 0.7343 0.0
C875 C 0.69183 0.43335 0.72388 0.0
C876 C 0.67025 0.4231 0.73746 0.0
C877 C 0.61407 0.3825 0.77642 0.0
C878 C 0.63229 0.39812 0.76311 0.0
H879 H 0.75194 0.43698 0.73305 0.0
H880 H 0.71628 0.42441 0.75713 0.0
H881 H 0.65256 0.41283 0.6994 0.0
H882 H 0.58316 0.33118 0.7646 0.0
H883 H 0.61038 0.35826 0.74166 0.0
C884 C 0.14992 0.61767 0.30769 0.0
C885 C 0.1515 0.59335 0.30129 0.0
C886 C 0.13375 0.6323 0.29402 0.0
C887 C 0.09884 0.63635 0.22986 0.0
H888 H 0.07268 0.69139 0.26724 0.0
C889 C 0.073 0.72115 0.1723 0.0
C890 C 0.05558 0.73656 0.18299 0.0
C891 C 0.07922 0.70038 0.18624 0.0
C892 C 0.07934 0.67589 0.25648 0.0
H893 H 0.13687 0.5652 0.27584 0.0
H894 H 0.10821 0.59072 0.25228 0.0
H895 H 0.09326 0.66107 0.29364 0.0
H896 H 0.02991 0.74125 0.2159 0.0
H897 H 0.04042 0.7046 0.23997 0.0
H898 H 0.08462 0.65104 0.19273 0.0
C899 C 0.11985 0.59857 0.26756 0.0
C900 C 0.09154 0.65865 0.27161 0.0
C901 C 0.13625 0.58392 0.2811 0.0
C902 C 0.04358 0.72994 0.20722 0.0
C903 C 0.0497 0.70897 0.2211 0.0
C904 C 0.08636 0.65345 0.21476 0.0
C905 C 0.11849 0.62299 0.27376 0.0
C906 C 0.10225 0.63914 0.25836 0.0
C907 C 0.06805 0.69425 0.21115 0.0
C908 C 0.07725 0.67392 0.22771 0.0
H909 H 0.16149 0.6256 0.32298 0.0
H910 H 0.13369 0.65109 0.29892 0.0
H911 H 0.1068 0.62159 0.2189 0.0
H912 H 0.08262 0.72556 0.15366 0.0
H913 H 0.09367 0.68979 0.17807 0.0
C914 C 0.89053 0.13737 0.82074 0.0
C915 C 0.91094 0.14642 0.80763 0.0
C916 C 0.87506 0.12215 0.80673 0.0
C917 C 0.85496 0.1099 0.73703 0.0
H918 H 0.82359 0.05532 0.76974 0.0
C919 C 0.7835 0.05992 0.67672 0.0
C920 C 0.76278 0.05386 0.69127 0.0
C921 C 0.80407 0.06668 0.69075 0.0
C922 C 0.83208 0.0706 0.76038 0.0
H923 H 0.93157 0.14564 0.76982 0.0
H924 H 0.90442 0.11924 0.74539 0.0
H925 H 0.85522 0.07573 0.79502 0.0
H926 H 0.74764 0.04898 0.73191 0.0
H927 H 0.7833 0.06165 0.75651 0.0
H928 H 0.83138 0.10571 0.70303 0.0
C929 C 0.90038 0.12409 0.76647 0.0
C930 C 0.85023 0.08222 0.77482 0.0
C931 C 0.91595 0.13917 0.78052 0.0
C932 C 0.76339 0.05354 0.72017 0.0
C933 C 0.78389 0.0607 0.73425 0.0
C934 C 0.83674 0.09848 0.72274 0.0
C935 C 0.87957 0.11578 0.77926 0.0
C936 C 0.86168 0.10212 0.76336 0.0
C937 C 0.80428 0.068 0.71967 0.0
C938 C 0.82489 0.07881 0.73429 0.0
H939 H 0.88618 0.14244 0.84166 0.0
H940 H 0.85905 0.11617 0.81703 0.0
H941 H 0.86316 0.12545 0.72788 0.0
H942 H 0.78368 0.05992 0.65441 0.0
H943 H 0.81963 0.07149 0.67884 0.0
C944 C 0.4811 0.22773 0.10246 0.0
C945 C 0.50478 0.22357 0.11037 0.0
C946 C 0.47611 0.23831 0.07703 0.0
C947 C 0.50042 0.27658 0.02417 0.0
H948 H 0.47353 0.23445 0.96905 0.0
C949 C 0.52628 0.28493 0.91217 0.0
C950 C 0.50917 0.28184 0.89149 0.0
C951 C 0.52076 0.28002 0.93948 0.0
C952 C 0.48052 0.24668 0.98425 0.0
H953 H 0.54175 0.22808 0.09883 0.0
H954 H 0.53305 0.2473 0.05501 0.0
H955 H 0.47165 0.22347 0.0178 0.0
H956 H 0.47304 0.27055 0.88288 0.0
H957 H 0.46328 0.26194 0.93108 0.0
H958 H 0.50999 0.29949 0.99091 0.0
C959 C 0.5184 0.24211 0.06821 0.0
C960 C 0.4794 0.24041 0.01208 0.0
C961 C 0.52336 0.23102 0.09317 0.0
C962 C 0.48658 0.27301 0.89849 0.0
C963 C 0.48099 0.26816 0.92601 0.0
C964 C 0.50129 0.28298 0.9965 0.0
C965 C 0.49479 0.24546 0.05977 0.0
C966 C 0.49028 0.25485 0.032 0.0
C967 C 0.49793 0.27207 0.94682 0.0
C968 C 0.49243 0.26754 0.97616 0.0
H969 H 0.4665 0.22199 0.11542 0.0
H970 H 0.45778 0.2407 0.07071 0.0
H971 H 0.50877 0.28799 0.03933 0.0
H972 H 0.54391 0.29149 0.90734 0.0
H973 H 0.53446 0.28248 0.95491 0.0
C974 C 0.22194 0.49186 0.39828 0.0
C975 C 0.2154 0.51505 0.39057 0.0
C976 C 0.22703 0.48664 0.42585 0.0
C977 C 0.21591 0.51051 0.49558 0.0
H978 H 0.27185 0.47478 0.51728 0.0
C979 C 0.26952 0.52775 0.59255 0.0
C980 C 0.2743 0.50856 0.61012 0.0
C981 C 0.25855 0.52391 0.56727 0.0
C982 C 0.25588 0.48433 0.51145 0.0
H983 H 0.21029 0.55117 0.40508 0.0
H984 H 0.21974 0.5423 0.45269 0.0
H985 H 0.26071 0.47683 0.46855 0.0
H986 H 0.27138 0.47035 0.6154 0.0
H987 H 0.25283 0.46353 0.57022 0.0
H988 H 0.21209 0.51938 0.53821 0.0
C989 C 0.22018 0.52793 0.43783 0.0
C990 C 0.24952 0.48553 0.48365 0.0
C991 C 0.21502 0.53308 0.41049 0.0
C992 C 0.26773 0.48543 0.60216 0.0
C993 C 0.25723 0.48151 0.57646 0.0
C994 C 0.22241 0.50953 0.52319 0.0
C995 C 0.22566 0.50458 0.44595 0.0
C996 C 0.23004 0.49948 0.4754 0.0
C997 C 0.25264 0.50077 0.5589 0.0
C998 C 0.24289 0.49715 0.53115 0.0
H999 H 0.22231 0.47762 0.38326 0.0
H1000 H 0.23134 0.46851 0.43153 0.0
H1001 H 0.2004 0.52084 0.48987 0.0
H1002 H 0.27437 0.54573 0.59826 0.0
H1003 H 0.25531 0.53896 0.55384 0.0
C1004 C 0.982 0.29424 0.07894 0.0
C1005 C 0.99389 0.28621 0.10257 0.0
C1006 C 0.98874 0.2862 0.05301 0.0
C1007 C 0.01341 0.23538 0.01853 0.0
H1008 H 0.01316 0.2782 0.9558 0.0
C1009 C 0.98001 0.2082 0.91287 0.0
C1010 C 0.99201 0.2159 0.88916 0.0
C1011 C 0.98711 0.21604 0.93876 0.0
C1012 C 0.01381 0.26604 0.97309 0.0
H1013 H 0.02217 0.26349 0.11776 0.0
H1014 H 0.03363 0.24883 0.07204 0.0
H1015 H 0.01389 0.29446 0.00243 0.0
H1016 H 0.02085 0.23784 0.8738 0.0
H1017 H 0.03296 0.25212 0.91943 0.0
H1018 H 0.0121 0.20698 0.9892 0.0
C1019 C 0.01928 0.2616 0.07376 0.0
C1020 C 0.01405 0.27532 -0.00028 0.0
C1021 C 0.01269 0.26991 0.09982 0.0
C1022 C 0.01125 0.23169 0.89179 0.0
C1023 C 0.01822 0.23979 0.91781 0.0
C1024 C 0.01302 0.2261 0.9919 0.0
C1025 C 0.00738 0.26978 0.05015 0.0
C1026 C 0.0128 0.26008 0.02262 0.0
C1027 C 0.00624 0.23191 0.9415 0.0
C1028 C 0.01218 0.24138 0.96901 0.0
H1029 H 0.96748 0.30685 0.08042 0.0
H1030 H 0.97893 0.2924 0.0352 0.0
H1031 H 0.01243 0.22326 0.03584 0.0
H1032 H 0.96515 0.19598 0.91149 0.0
H1033 H 0.97724 0.21009 0.95665 0.0
C1034 C 0.29147 0.96852 0.41233 0.0
C1035 C 0.28938 0.98593 0.3918 0.0
C1036 C 0.28675 0.97409 0.43968 0.0
C1037 C 0.25466 0.01563 0.48404 0.0
H1038 H 0.29238 0.98395 0.54005 0.0
C1039 C 0.23226 0.0144 0.60145 0.0
C1040 C 0.22642 0.99091 0.60872 0.0
C1041 C 0.2438 0.01908 0.57651 0.0
C1042 C 0.28199 0.99325 0.52464 0.0
H1043 H 0.28034 0.02275 0.38356 0.0
H1044 H 0.27211 0.0326 0.4318 0.0
H1045 H 0.30532 0.98287 0.49211 0.0
H1046 H 0.22878 0.95391 0.59647 0.0
H1047 H 0.24964 0.96202 0.55351 0.0
H1048 H 0.23098 0.02535 0.51682 0.0
C1049 C 0.27736 0.01462 0.42659 0.0
C1050 C 0.28921 0.99247 0.49723 0.0
C1051 C 0.28202 0.00898 0.39904 0.0
C1052 C 0.23304 0.97216 0.59132 0.0
C1053 C 0.24506 0.97677 0.56686 0.0
C1054 C 0.24759 0.01666 0.51161 0.0
C1055 C 0.27999 0.99726 0.44721 0.0
C1056 C 0.27499 0.00262 0.4765 0.0
C1057 C 0.25019 0.00024 0.55909 0.0
C1058 C 0.26069 0.00457 0.53183 0.0
H1059 H 0.29692 0.95054 0.40734 0.0
H1060 H 0.28824 0.96011 0.45494 0.0
H1061 H 0.24333 0.0236 0.46854 0.0
H1062 H 0.2272 0.02915 0.61456 0.0
H1063 H 0.24755 0.03731 0.5707 0.0
C1064 C 0.51205 0.7726 0.89679 0.0
C1065 C 0.48958 0.78192 0.8902 0.0
C1066 C 0.51769 0.767 0.9241 0.0
C1067 C 0.49775 0.77956 0.99543 0.0
H1068 H 0.52648 0.71877 0.01332 0.0
C1069 C 0.47607 0.72021 0.08715 0.0
C1070 C 0.49403 0.71751 0.10695 0.0
C1071 C 0.48095 0.73127 0.06217 0.0
C1072 C 0.51901 0.73605 0.00853 0.0
H1073 H 0.45513 0.79193 0.90662 0.0
H1074 H 0.46464 0.78162 0.95382 0.0
H1075 H 0.5246 0.73174 0.96521 0.0
H1076 H 0.53115 0.72423 0.11637 0.0
H1077 H 0.53985 0.74316 0.07174 0.0
H1078 H 0.49046 0.78285 0.03857 0.0
C1079 C 0.47823 0.77931 0.93824 0.0
C1080 C 0.51789 0.74347 0.9811 0.0
C1081 C 0.47267 0.78496 0.91112 0.0
C1082 C 0.51699 0.72622 0.10142 0.0
C1083 C 0.522 0.73693 0.07605 0.0
C1084 C 0.49866 0.77202 0.02273 0.0
C1085 C 0.5009 0.77064 0.94514 0.0
C1086 C 0.50634 0.76485 0.97421 0.0
C1087 C 0.50394 0.73946 0.05639 0.0
C1088 C 0.50859 0.74991 0.02927 0.0
H1089 H 0.52545 0.77017 0.881 0.0
H1090 H 0.53528 0.76029 0.92882 0.0
H1091 H 0.48926 0.79639 0.9908 0.0
H1092 H 0.45822 0.71374 0.09089 0.0
H1093 H 0.46685 0.73307 0.04708 0.0
C1094 C 0.76746 0.47435 0.59544 0.0
C1095 C 0.77494 0.49269 0.61296 0.0
C1096 C 0.75658 0.47963 0.57048 0.0
C1097 C 0.75833 0.51918 0.51472 0.0
H1098 H 0.69982 0.48765 0.49328 0.0
C1099 C 0.72495 0.51028 0.40107 0.0
C1100 C 0.71752 0.48707 0.39457 0.0
C1101 C 0.72994 0.51647 0.42841 0.0
C1102 C 0.71611 0.4967 0.49898 0.0
H1103 H 0.77684 0.53093 0.61847 0.0
H1104 H 0.75843 0.54022 0.57373 0.0
H1105 H 0.71097 0.48929 0.54179 0.0
H1106 H 0.7107 0.45186 0.4111 0.0
H1107 H 0.71972 0.46247 0.45834 0.0
H1108 H 0.76435 0.525 0.47162 0.0
C1109 C 0.76066 0.52181 0.57982 0.0
C1110 C 0.72234 0.49779 0.52668 0.0
C1111 C 0.77107 0.51649 0.60528 0.0
C1112 C 0.71613 0.46996 0.41552 0.0
C1113 C 0.72106 0.4761 0.44264 0.0
C1114 C 0.75217 0.51792 0.48684 0.0
C1115 C 0.75341 0.50335 0.5623 0.0
C1116 C 0.74396 0.50812 0.5346 0.0
C1117 C 0.72744 0.49952 0.44949 0.0
C1118 C 0.73157 0.50564 0.47871 0.0
H1119 H 0.77021 0.45587 0.60088 0.0
H1120 H 0.75133 0.46513 0.55708 0.0
H1121 H 0.77517 0.5271 0.52049 0.0
H1122 H 0.72613 0.52381 0.38525 0.0
H1123 H 0.73502 0.53459 0.43317 0.0
C1124 C 0.0263 0.79166 0.08142 0.0
C1125 C 0.00876 0.78903 0.10171 0.0
C1126 C 0.02118 0.7867 0.054 0.0
C1127 C 0.98108 0.75332 0.00904 0.0
H1128 H 0.01189 0.79225 0.95349 0.0
C1129 C 0.98418 0.73157 0.89133 0.0
C1130 C 0.0079 0.72622 0.88464 0.0
C1131 C 0.97881 0.7429 0.91624 0.0
C1132 C 0.00281 0.78152 0.96876 0.0
H1133 H 0.97219 0.77873 0.10944 0.0
H1134 H 0.96313 0.77009 0.06111 0.0
H1135 H 0.01225 0.80505 0.0015 0.0
H1136 H 0.0446 0.72926 0.89786 0.0
H1137 H 0.0353 0.74977 0.94068 0.0
H1138 H 0.97235 0.72945 0.97606 0.0
C1139 C 0.98087 0.77594 0.06655 0.0
C1140 C 0.0032 0.78865 0.99621 0.0
C1141 C 0.98606 0.78085 0.09416 0.0
C1142 C 0.02619 0.73315 0.90254 0.0
C1143 C 0.02089 0.74496 0.92694 0.0
C1144 C 0.98044 0.74632 0.98142 0.0
C1145 C 0.99833 0.77915 0.04616 0.0
C1146 C 0.99339 0.77403 0.01679 0.0
C1147 C 0.99719 0.74959 0.93416 0.0
C1148 C 0.99222 0.75989 0.96137 0.0
H1149 H 0.04402 0.79774 0.08666 0.0
H1150 H 0.03525 0.78865 0.03893 0.0
H1151 H 0.97338 0.74168 0.02442 0.0
H1152 H 0.96979 0.72625 0.87783 0.0
H1153 H 0.96041 0.74625 0.92162 0.0
C1154 C 0.72952 0.986 0.59953 0.0
C1155 C 0.72307 0.00904 0.6079 0.0
C1156 C 0.7403 0.9824 0.5739 0.0
C1157 C 0.77559 0.01148 0.52135 0.0
H1158 H 0.73869 0.9776 0.46638 0.0
C1159 C 0.78457 0.03364 0.40808 0.0
C1160 C 0.78423 0.01534 0.38849 0.0
C1161 C 0.77924 0.02888 0.43549 0.0
C1162 C 0.7495 0.98666 0.48157 0.0
H1163 H 0.72352 0.0464 0.59681 0.0
H1164 H 0.74302 0.0402 0.55259 0.0
H1165 H 0.72704 0.97555 0.51491 0.0
H1166 H 0.77741 0.97779 0.38189 0.0
H1167 H 0.76819 0.96936 0.43023 0.0
H1168 H 0.79778 0.02306 0.48831 0.0
C1169 C 0.7395 0.02494 0.56563 0.0
C1170 C 0.74284 0.98546 0.50927 0.0
C1171 C 0.72826 0.02847 0.59082 0.0
C1172 C 0.77774 0.99224 0.39664 0.0
C1173 C 0.77251 0.98742 0.42425 0.0
C1174 C 0.7824 0.01247 0.49382 0.0
C1175 C 0.74531 0.0019 0.55683 0.0
C1176 C 0.75532 0.99864 0.52911 0.0
C1177 C 0.77365 0.00565 0.44402 0.0
C1178 C 0.76881 0.00095 0.47349 0.0
H1179 H 0.72558 0.97074 0.61238 0.0
H1180 H 0.74462 0.96449 0.56736 0.0
H1181 H 0.78554 0.02159 0.53646 0.0
H1182 H 0.78928 0.05166 0.40233 0.0
H1183 H 0.77956 0.04347 0.45006 0.0
loop_
_geom_bond_atom_site_label_1
_geom_bond_atom_site_label_2
_geom_bond_distance
_geom_bond_site_symmetry_2
_ccdc_geom_bond_type
Co0 O1 2.216 . S
Co0 O2 2.091 . S
Co0 O4 2.004 . S
Co0 O10 2.021 . S
Co0 O12 2.137 . S
Co0 O13 2.244 . S
O1 Co0 2.216 . S
O1 C8 1.247 . S
O2 Co0 2.091 . S
O2 C8 1.261 . S
C3 O12 1.247 . S
C3 O13 1.272 . S
O4 Co0 2.004 . S
O4 C9 1.259 . S
Co5 O6 2.061 . S
Co5 O11 2.052 . S
Co5 O13 2.135 . S
O6 Co5 2.061 . S
O6 C9 1.235 . S
C7 O10 1.238 . S
C7 O11 1.241 . S
C8 O1 1.247 . S
C8 O2 1.261 . S
C9 O4 1.259 . S
C9 O6 1.235 . S
O10 Co0 2.021 . S
O10 C7 1.238 . S
O11 Co5 2.052 . S
O11 C7 1.241 . S
O12 Co0 2.137 . S
O12 C3 1.247 . S
O13 Co0 2.244 . S
O13 C3 1.272 . S
O13 Co5 2.135 . S
Co14 O15 2.216 . S
Co14 O16 2.091 . S
Co14 O18 2.004 . S
Co14 O24 2.021 . S
Co14 O26 2.137 . S
Co14 O27 2.244 . S
O15 Co14 2.216 . S
O15 C22 1.247 . S
O16 Co14 2.091 . S
O16 C22 1.261 . S
C17 O26 1.247 . S
C17 O27 1.272 . S
O18 Co14 2.004 . S
O18 C23 1.259 . S
Co19 O20 2.061 . S
Co19 O25 2.052 . S
Co19 O27 2.135 . S
O20 Co19 2.061 . S
O20 C23 1.235 . S
C21 O24 1.238 . S
C21 O25 1.241 . S
C22 O15 1.247 . S
C22 O16 1.261 . S
C23 O18 1.259 . S
C23 O20 1.235 . S
O24 Co14 2.021 . S
O24 C21 1.238 . S
O25 Co19 2.052 . S
O25 C21 1.241 . S
O26 Co14 2.137 . S
O26 C17 1.247 . S
O27 Co14 2.244 . S
O27 C17 1.272 . S
O27 Co19 2.135 . S
Co28 O29 2.216 1_655 S
Co28 O30 2.091 1_655 S
Co28 O32 2.004 . S
Co28 O38 2.021 . S
Co28 O40 2.137 1_655 S
Co28 O41 2.244 . S
O29 Co28 2.216 1_455 S
O29 C36 1.247 . S
O30 Co28 2.091 1_455 S
O30 C36 1.261 . S
C31 O40 1.247 1_655 S
C31 O41 1.272 . S
O32 Co28 2.004 . S
O32 C37 1.259 . S
Co33 O34 2.061 . S
Co33 O39 2.052 . S
Co33 O41 2.135 . S
O34 Co33 2.061 . S
O34 C37 1.235 . S
C35 O38 1.238 . S
C35 O39 1.241 . S
C36 O29 1.247 . S
C36 O30 1.261 . S
C37 O32 1.259 . S
C37 O34 1.235 . S
O38 Co28 2.021 . S
O38 C35 1.238 . S
O39 Co33 2.052 . S
O39 C35 1.241 . S
O40 Co28 2.137 1_455 S
O40 C31 1.247 1_455 S
O41 Co28 2.244 . S
O41 C31 1.272 . S
O41 Co33 2.135 . S
Co42 O43 2.216 1_565 S
Co42 O44 2.091 1_565 S
Co42 O46 2.004 . S
Co42 O52 2.021 . S
Co42 O54 2.137 1_565 S
Co42 O55 2.244 . S
O43 Co42 2.216 1_545 S
O43 C50 1.247 . S
O44 Co42 2.091 1_545 S
O44 C50 1.261 . S
C45 O54 1.247 1_565 S
C45 O55 1.272 . S
O46 Co42 2.004 . S
O46 C51 1.259 . S
Co47 O48 2.061 . S
Co47 O53 2.052 . S
Co47 O55 2.135 . S
O48 Co47 2.061 . S
O48 C51 1.235 . S
C49 O52 1.238 . S
C49 O53 1.241 . S
C50 O43 1.247 . S
C50 O44 1.261 . S
C51 O46 1.259 . S
C51 O48 1.235 . S
O52 Co42 2.021 . S
O52 C49 1.238 . S
O53 Co47 2.052 . S
O53 C49 1.241 . S
O54 Co42 2.137 1_545 S
O54 C45 1.247 1_545 S
O55 Co42 2.244 . S
O55 C45 1.272 . S
O55 Co47 2.135 . S
Co56 O57 2.216 . S
Co56 O58 2.091 . S
Co56 O60 2.004 . S
Co56 O66 2.021 . S
Co56 O68 2.137 . S
Co56 O69 2.244 . S
O57 Co56 2.216 . S
O57 C64 1.247 . S
O58 Co56 2.091 . S
O58 C64 1.261 . S
C59 O68 1.247 . S
C59 O69 1.272 . S
O60 Co56 2.004 . S
O60 C65 1.259 . S
Co61 O62 2.061 . S
Co61 O67 2.052 . S
Co61 O69 2.135 . S
O62 Co61 2.061 . S
O62 C65 1.235 . S
C63 O66 1.238 . S
C63 O67 1.241 . S
C64 O57 1.247 . S
C64 O58 1.261 . S
C65 O60 1.259 . S
C65 O62 1.235 . S
O66 Co56 2.021 . S
O66 C63 1.238 . S
O67 Co61 2.052 . S
O67 C63 1.241 . S
O68 Co56 2.137 . S
O68 C59 1.247 . S
O69 Co56 2.244 . S
O69 C59 1.272 . S
O69 Co61 2.135 . S
Co70 O71 2.216 . S
Co70 O72 2.091 . S
Co70 O74 2.004 . S
Co70 O80 2.021 . S
Co70 O82 2.137 . S
Co70 O83 2.244 . S
O71 Co70 2.216 . S
O71 C78 1.247 . S
O72 Co70 2.091 . S
O72 C78 1.261 . S
C73 O82 1.247 . S
C73 O83 1.272 . S
O74 Co70 2.004 . S
O74 C79 1.259 . S
Co75 O76 2.061 . S
Co75 O81 2.052 . S
Co75 O83 2.135 . S
O76 Co75 2.061 . S
O76 C79 1.235 . S
C77 O80 1.238 . S
C77 O81 1.241 . S
C78 O71 1.247 . S
C78 O72 1.261 . S
C79 O74 1.259 . S
C79 O76 1.235 . S
O80 Co70 2.021 . S
O80 C77 1.238 . S
O81 Co75 2.052 . S
O81 C77 1.241 . S
O82 Co70 2.137 . S
O82 C73 1.247 . S
O83 Co70 2.244 . S
O83 C73 1.272 . S
O83 Co75 2.135 . S
Co84 O85 2.216 1_655 S
Co84 O86 2.091 1_655 S
Co84 O88 2.004 . S
Co84 O94 2.021 . S
Co84 O96 2.137 1_655 S
Co84 O97 2.244 . S
O85 Co84 2.216 1_455 S
O85 C92 1.247 . S
O86 Co84 2.091 1_455 S
O86 C92 1.261 . S
C87 O96 1.247 1_655 S
C87 O97 1.272 . S
O88 Co84 2.004 . S
O88 C93 1.259 . S
Co89 O90 2.061 . S
Co89 O95 2.052 . S
Co89 O97 2.135 . S
O90 Co89 2.061 . S
O90 C93 1.235 . S
C91 O94 1.238 . S
C91 O95 1.241 . S
C92 O85 1.247 . S
C92 O86 1.261 . S
C93 O88 1.259 . S
C93 O90 1.235 . S
O94 Co84 2.021 . S
O94 C91 1.238 . S
O95 Co89 2.052 . S
O95 C91 1.241 . S
O96 Co84 2.137 1_455 S
O96 C87 1.247 1_455 S
O97 Co84 2.244 . S
O97 C87 1.272 . S
O97 Co89 2.135 . S
Co98 O99 2.216 1_565 S
Co98 O100 2.091 1_565 S
Co98 O102 2.004 . S
Co98 O108 2.021 . S
Co98 O110 2.137 1_565 S
Co98 O111 2.244 . S
O99 Co98 2.216 1_545 S
O99 C106 1.247 . S
O100 Co98 2.091 1_545 S
O100 C106 1.261 . S
C101 O110 1.247 1_565 S
C101 O111 1.272 . S
O102 Co98 2.004 . S
O102 C107 1.259 . S
Co103 O104 2.061 . S
Co103 O109 2.052 . S
Co103 O111 2.135 . S
O104 Co103 2.061 . S
O104 C107 1.235 . S
C105 O108 1.238 . S
C105 O109 1.241 . S
C106 O99 1.247 . S
C106 O100 1.261 . S
C107 O102 1.259 . S
C107 O104 1.235 . S
O108 Co98 2.021 . S
O108 C105 1.238 . S
O109 Co103 2.052 . S
O109 C105 1.241 . S
O110 Co98 2.137 1_545 S
O110 C101 1.247 1_545 S
O111 Co98 2.244 . S
O111 C101 1.272 . S
O111 Co103 2.135 . S
Co112 O113 2.216 . S
Co112 O114 2.091 . S
Co112 O116 2.004 . S
Co112 O122 2.021 . S
Co112 O124 2.137 . S
Co112 O125 2.244 . S
O113 Co112 2.216 . S
O113 C120 1.247 . S
O114 Co112 2.091 . S
O114 C120 1.261 . S
C115 O124 1.247 . S
C115 O125 1.272 . S
O116 Co112 2.004 . S
O116 C121 1.259 . S
Co117 O118 2.061 . S
Co117 O123 2.052 . S
Co117 O125 2.135 . S
O118 Co117 2.061 . S
O118 C121 1.235 . S
C119 O122 1.238 . S
C119 O123 1.241 . S
C120 O113 1.247 . S
C120 O114 1.261 . S
C121 O116 1.259 . S
C121 O118 1.235 . S
O122 Co112 2.021 . S
O122 C119 1.238 . S
O123 Co117 2.052 . S
O123 C119 1.241 . S
O124 Co112 2.137 . S
O124 C115 1.247 . S
O125 Co112 2.244 . S
O125 C115 1.272 . S
O125 Co117 2.135 . S
Co126 O127 2.216 . S
Co126 O128 2.091 . S
Co126 O130 2.004 . S
Co126 O136 2.021 . S
Co126 O138 2.137 . S
Co126 O139 2.244 . S
O127 Co126 2.216 . S
O127 C134 1.247 . S
O128 Co126 2.091 . S
O128 C134 1.261 . S
C129 O138 1.247 . S
C129 O139 1.272 . S
O130 Co126 2.004 . S
O130 C135 1.259 . S
Co131 O132 2.061 . S
Co131 O137 2.052 . S
Co131 O139 2.135 . S
O132 Co131 2.061 . S
O132 C135 1.235 . S
C133 O136 1.238 . S
C133 O137 1.241 . S
C134 O127 1.247 . S
C134 O128 1.261 . S
C135 O130 1.259 . S
C135 O132 1.235 . S
O136 Co126 2.021 . S
O136 C133 1.238 . S
O137 Co131 2.052 . S
O137 C133 1.241 . S
O138 Co126 2.137 . S
O138 C129 1.247 . S
O139 Co126 2.244 . S
O139 C129 1.272 . S
O139 Co131 2.135 . S
Co140 O141 2.216 1_455 S
Co140 O142 2.091 1_455 S
Co140 O144 2.004 . S
Co140 O150 2.021 . S
Co140 O152 2.137 1_455 S
Co140 O153 2.244 . S
O141 Co140 2.216 1_655 S
O141 C148 1.247 . S
O142 Co140 2.091 1_655 S
O142 C148 1.261 . S
C143 O152 1.247 1_455 S
C143 O153 1.272 . S
O144 Co140 2.004 . S
O144 C149 1.259 . S
Co145 O146 2.061 . S
Co145 O151 2.052 . S
Co145 O153 2.135 . S
O146 Co145 2.061 . S
O146 C149 1.235 . S
C147 O150 1.238 . S
C147 O151 1.241 . S
C148 O141 1.247 . S
C148 O142 1.261 . S
C149 O144 1.259 . S
C149 O146 1.235 . S
O150 Co140 2.021 . S
O150 C147 1.238 . S
O151 Co145 2.052 . S
O151 C147 1.241 . S
O152 Co140 2.137 1_655 S
O152 C143 1.247 1_655 S
O153 Co140 2.244 . S
O153 C143 1.272 . S
O153 Co145 2.135 . S
Co154 O155 2.216 1_545 S
Co154 O156 2.091 1_545 S
Co154 O158 2.004 . S
Co154 O164 2.021 . S
Co154 O166 2.137 1_545 S
Co154 O167 2.244 . S
O155 Co154 2.216 1_565 S
O155 C162 1.247 . S
O156 Co154 2.091 1_565 S
O156 C162 1.261 . S
C157 O166 1.247 1_545 S
C157 O167 1.272 . S
O158 Co154 2.004 . S
O158 C163 1.259 . S
Co159 O160 2.061 . S
Co159 O165 2.052 . S
Co159 O167 2.135 . S
O160 Co159 2.061 . S
O160 C163 1.235 . S
C161 O164 1.238 . S
C161 O165 1.241 . S
C162 O155 1.247 . S
C162 O156 1.261 . S
C163 O158 1.259 . S
C163 O160 1.235 . S
O164 Co154 2.021 . S
O164 C161 1.238 . S
O165 Co159 2.052 . S
O165 C161 1.241 . S
O166 Co154 2.137 1_565 S
O166 C157 1.247 1_565 S
O167 Co154 2.244 . S
O167 C157 1.272 . S
O167 Co159 2.135 . S
Co168 O169 2.216 . S
Co168 O170 2.091 . S
Co168 O172 2.004 . S
Co168 O178 2.021 . S
Co168 O180 2.137 . S
Co168 O181 2.244 . S
O169 Co168 2.216 . S
O169 C176 1.247 . S
O170 Co168 2.091 . S
O170 C176 1.261 . S
C171 O180 1.247 . S
C171 O181 1.272 . S
O172 Co168 2.004 . S
O172 C177 1.259 . S
Co173 O174 2.061 . S
Co173 O179 2.052 . S
Co173 O181 2.135 . S
O174 Co173 2.061 . S
O174 C177 1.235 . S
C175 O178 1.238 . S
C175 O179 1.241 . S
C176 O169 1.247 . S
C176 O170 1.261 . S
C177 O172 1.259 . S
C177 O174 1.235 . S
O178 Co168 2.021 . S
O178 C175 1.238 . S
O179 Co173 2.052 . S
O179 C175 1.241 . S
O180 Co168 2.137 . S
O180 C171 1.247 . S
O181 Co168 2.244 . S
O181 C171 1.272 . S
O181 Co173 2.135 . S
Co182 O183 2.216 . S
Co182 O184 2.091 . S
Co182 O186 2.004 . S
Co182 O192 2.021 . S
Co182 O194 2.137 . S
Co182 O195 2.244 . S
O183 Co182 2.216 . S
O183 C190 1.247 . S
O184 Co182 2.091 . S
O184 C190 1.261 . S
C185 O194 1.247 . S
C185 O195 1.272 . S
O186 Co182 2.004 . S
O186 C191 1.259 . S
Co187 O188 2.061 . S
Co187 O193 2.052 . S
Co187 O195 2.135 . S
O188 Co187 2.061 . S
O188 C191 1.235 . S
C189 O192 1.238 . S
C189 O193 1.241 . S
C190 O183 1.247 . S
C190 O184 1.261 . S
C191 O186 1.259 . S
C191 O188 1.235 . S
O192 Co182 2.021 . S
O192 C189 1.238 . S
O193 Co187 2.052 . S
O193 C189 1.241 . S
O194 Co182 2.137 . S
O194 C185 1.247 . S
O195 Co182 2.244 . S
O195 C185 1.272 . S
O195 Co187 2.135 . S
Co196 O197 2.216 1_455 S
Co196 O198 2.091 1_455 S
Co196 O200 2.004 . S
Co196 O206 2.021 . S
Co196 O208 2.137 1_455 S
Co196 O209 2.244 . S
O197 Co196 2.216 1_655 S
O197 C204 1.247 . S
O198 Co196 2.091 1_655 S
O198 C204 1.261 . S
C199 O208 1.247 1_455 S
C199 O209 1.272 . S
O200 Co196 2.004 . S
O200 C205 1.259 . S
Co201 O202 2.061 . S
Co201 O207 2.052 . S
Co201 O209 2.135 . S
O202 Co201 2.061 . S
O202 C205 1.235 . S
C203 O206 1.238 . S
C203 O207 1.241 . S
C204 O197 1.247 . S
C204 O198 1.261 . S
C205 O200 1.259 . S
C205 O202 1.235 . S
O206 Co196 2.021 . S
O206 C203 1.238 . S
O207 Co201 2.052 . S
O207 C203 1.241 . S
O208 Co196 2.137 1_655 S
O208 C199 1.247 1_655 S
O209 Co196 2.244 . S
O209 C199 1.272 . S
O209 Co201 2.135 . S
Co210 O211 2.216 1_545 S
Co210 O212 2.091 1_545 S
Co210 O214 2.004 . S
Co210 O220 2.021 . S
Co210 O222 2.137 1_545 S
Co210 O223 2.244 . S
O211 Co210 2.216 1_565 S
O211 C218 1.247 . S
O212 Co210 2.091 1_565 S
O212 C218 1.261 . S
C213 O222 1.247 1_545 S
C213 O223 1.272 . S
O214 Co210 2.004 . S
O214 C219 1.259 . S
Co215 O216 2.061 . S
Co215 O221 2.052 . S
Co215 O223 2.135 . S
O216 Co215 2.061 . S
O216 C219 1.235 . S
C217 O220 1.238 . S
C217 O221 1.241 . S
C218 O211 1.247 . S
C218 O212 1.261 . S
C219 O214 1.259 . S
C219 O216 1.235 . S
O220 Co210 2.021 . S
O220 C217 1.238 . S
O221 Co215 2.052 . S
O221 C217 1.241 . S
O222 Co210 2.137 1_565 S
O222 C213 1.247 1_565 S
O223 Co210 2.244 . S
O223 C213 1.272 . S
O223 Co215 2.135 . S
C224 C225 1.349 . S
C224 C226 1.327 . S
C224 H249 0.950 . S
C225 C224 1.349 . S
C225 C241 1.349 . S
C226 C224 1.327 . S
C226 C245 1.429 . S
C226 H250 0.950 . S
C227 C244 1.574 . S
C227 C246 1.368 . S
C227 H251 0.949 . S
H228 C232 0.949 . S
C229 C230 1.349 . S
C229 C231 1.327 . S
C229 H252 0.950 . S
C230 C229 1.349 . S
C230 C242 1.349 . S
C231 C229 1.327 . S
C231 C247 1.429 . S
C231 H253 0.950 . S
C232 H228 0.949 . S
C232 C240 1.574 . S
C232 C248 1.368 . S
H233 C241 0.950 . S
H234 C239 0.950 . S
H235 C240 0.949 . S
H236 C242 0.950 . S
H237 C243 0.950 . S
H238 C244 0.949 . S
C239 H234 0.950 . S
C239 C241 1.327 . S
C239 C245 1.429 . S
C240 C232 1.574 . S
C240 H235 0.949 . S
C240 C246 1.368 . S
C241 C225 1.349 . S
C241 H233 0.950 . S
C241 C239 1.327 . S
C242 C230 1.349 . S
C242 H236 0.950 . S
C242 C243 1.327 . S
C243 H237 0.950 . S
C243 C242 1.327 . S
C243 C247 1.429 . S
C244 C227 1.574 . S
C244 H238 0.949 . S
C244 C248 1.368 . S
C245 C226 1.429 . S
C245 C239 1.429 . S
C245 C246 1.523 . S
C246 C227 1.368 . S
C246 C240 1.368 . S
C246 C245 1.523 . S
C247 C231 1.429 . S
C247 C243 1.429 . S
C247 C248 1.523 . S
C248 C232 1.368 . S
C248 C244 1.368 . S
C248 C247 1.523 . S
H249 C224 0.950 . S
H250 C226 0.950 . S
H251 C227 0.949 . S
H252 C229 0.950 . S
H253 C231 0.950 . S
C254 C255 1.349 . S
C254 C256 1.327 . S
C254 H279 0.950 . S
C255 C254 1.349 . S
C255 C271 1.349 . S
C256 C254 1.327 . S
C256 C275 1.429 . S
C256 H280 0.950 . S
C257 C274 1.574 . S
C257 C276 1.368 . S
C257 H281 0.949 . S
H258 C262 0.949 . S
C259 C260 1.349 . S
C259 C261 1.327 . S
C259 H282 0.950 . S
C260 C259 1.349 . S
C260 C272 1.349 . S
C261 C259 1.327 . S
C261 C277 1.429 . S
C261 H283 0.950 . S
C262 H258 0.949 . S
C262 C270 1.574 . S
C262 C278 1.368 . S
H263 C271 0.950 . S
H264 C269 0.950 . S
H265 C270 0.949 . S
H266 C272 0.950 . S
H267 C273 0.950 . S
H268 C274 0.949 . S
C269 H264 0.950 . S
C269 C271 1.327 . S
C269 C275 1.429 . S
C270 C262 1.574 . S
C270 H265 0.949 . S
C270 C276 1.368 . S
C271 C255 1.349 . S
C271 H263 0.950 . S
C271 C269 1.327 . S
C272 C260 1.349 . S
C272 H266 0.950 . S
C272 C273 1.327 . S
C273 H267 0.950 . S
C273 C272 1.327 . S
C273 C277 1.429 . S
C274 C257 1.574 . S
C274 H268 0.949 . S
C274 C278 1.368 . S
C275 C256 1.429 . S
C275 C269 1.429 . S
C275 C276 1.523 . S
C276 C257 1.368 . S
C276 C270 1.368 . S
C276 C275 1.523 . S
C277 C261 1.429 . S
C277 C273 1.429 . S
C277 C278 1.523 . S
C278 C262 1.368 . S
C278 C274 1.368 . S
C278 C277 1.523 . S
H279 C254 0.950 . S
H280 C256 0.950 . S
H281 C257 0.949 . S
H282 C259 0.950 . S
H283 C261 0.950 . S
C284 C285 1.349 . S
C284 C286 1.327 . S
C284 H309 0.950 . S
C285 C284 1.349 . S
C285 C301 1.349 . S
C286 C284 1.327 . S
C286 C305 1.429 . S
C286 H310 0.950 . S
C287 C304 1.574 . S
C287 C306 1.368 . S
C287 H311 0.949 . S
H288 C292 0.949 . S
C289 C290 1.349 . S
C289 C291 1.327 . S
C289 H312 0.950 . S
C290 C289 1.349 . S
C290 C302 1.349 . S
C291 C289 1.327 . S
C291 C307 1.429 . S
C291 H313 0.950 . S
C292 H288 0.949 . S
C292 C300 1.574 . S
C292 C308 1.368 . S
H293 C301 0.950 . S
H294 C299 0.950 . S
H295 C300 0.949 . S
H296 C302 0.950 . S
H297 C303 0.950 . S
H298 C304 0.949 . S
C299 H294 0.950 . S
C299 C301 1.327 . S
C299 C305 1.429 . S
C300 C292 1.574 . S
C300 H295 0.949 . S
C300 C306 1.368 . S
C301 C285 1.349 . S
C301 H293 0.950 . S
C301 C299 1.327 . S
C302 C290 1.349 . S
C302 H296 0.950 . S
C302 C303 1.327 . S
C303 H297 0.950 . S
C303 C302 1.327 . S
C303 C307 1.429 . S
C304 C287 1.574 . S
C304 H298 0.949 . S
C304 C308 1.368 . S
C305 C286 1.429 . S
C305 C299 1.429 . S
C305 C306 1.523 . S
C306 C287 1.368 . S
C306 C300 1.368 . S
C306 C305 1.523 . S
C307 C291 1.429 . S
C307 C303 1.429 . S
C307 C308 1.523 . S
C308 C292 1.368 . S
C308 C304 1.368 . S
C308 C307 1.523 . S
H309 C284 0.950 . S
H310 C286 0.950 . S
H311 C287 0.949 . S
H312 C289 0.950 . S
H313 C291 0.950 . S
C314 C315 1.349 . S
C314 C316 1.327 . S
C314 H339 0.950 . S
C315 C314 1.349 . S
C315 C331 1.349 . S
C316 C314 1.327 . S
C316 C335 1.429 . S
C316 H340 0.950 . S
C317 C334 1.574 . S
C317 C336 1.368 . S
C317 H341 0.949 . S
H318 C322 0.949 . S
C319 C320 1.349 . S
C319 C321 1.327 . S
C319 H342 0.950 . S
C320 C319 1.349 . S
C320 C332 1.349 . S
C321 C319 1.327 . S
C321 C337 1.429 . S
C321 H343 0.950 . S
C322 H318 0.949 . S
C322 C330 1.574 . S
C322 C338 1.368 . S
H323 C331 0.950 . S
H324 C329 0.950 . S
H325 C330 0.949 . S
H326 C332 0.950 . S
H327 C333 0.950 . S
H328 C334 0.949 . S
C329 H324 0.950 . S
C329 C331 1.327 . S
C329 C335 1.429 . S
C330 C322 1.574 . S
C330 H325 0.949 . S
C330 C336 1.368 . S
C331 C315 1.349 . S
C331 H323 0.950 . S
C331 C329 1.327 . S
C332 C320 1.349 . S
C332 H326 0.950 . S
C332 C333 1.327 . S
C333 H327 0.950 . S
C333 C332 1.327 . S
C333 C337 1.429 . S
C334 C317 1.574 . S
C334 H328 0.949 . S
C334 C338 1.368 . S
C335 C316 1.429 . S
C335 C329 1.429 . S
C335 C336 1.523 . S
C336 C317 1.368 . S
C336 C330 1.368 . S
C336 C335 1.523 . S
C337 C321 1.429 . S
C337 C333 1.429 . S
C337 C338 1.523 . S
C338 C322 1.368 . S
C338 C334 1.368 . S
C338 C337 1.523 . S
H339 C314 0.950 . S
H340 C316 0.950 . S
H341 C317 0.949 . S
H342 C319 0.950 . S
H343 C321 0.950 . S
C344 C345 1.349 . S
C344 C346 1.327 . S
C344 H369 0.950 . S
C345 C344 1.349 . S
C345 C361 1.349 . S
C346 C344 1.327 . S
C346 C365 1.429 . S
C346 H370 0.950 . S
C347 C364 1.574 . S
C347 C366 1.368 . S
C347 H371 0.949 . S
H348 C352 0.949 . S
C349 C350 1.349 . S
C349 C351 1.327 . S
C349 H372 0.950 . S
C350 C349 1.349 . S
C350 C362 1.349 . S
C351 C349 1.327 . S
C351 C367 1.429 . S
C351 H373 0.950 . S
C352 H348 0.949 . S
C352 C360 1.574 . S
C352 C368 1.368 . S
H353 C361 0.950 . S
H354 C359 0.950 . S
H355 C360 0.949 . S
H356 C362 0.950 . S
H357 C363 0.950 . S
H358 C364 0.949 . S
C359 H354 0.950 . S
C359 C361 1.327 . S
C359 C365 1.429 . S
C360 C352 1.574 . S
C360 H355 0.949 . S
C360 C366 1.368 . S
C361 C345 1.349 . S
C361 H353 0.950 . S
C361 C359 1.327 . S
C362 C350 1.349 . S
C362 H356 0.950 . S
C362 C363 1.327 . S
C363 H357 0.950 . S
C363 C362 1.327 . S
C363 C367 1.429 . S
C364 C347 1.574 . S
C364 H358 0.949 . S
C364 C368 1.368 . S
C365 C346 1.429 . S
C365 C359 1.429 . S
C365 C366 1.523 . S
C366 C347 1.368 . S
C366 C360 1.368 . S
C366 C365 1.523 . S
C367 C351 1.429 . S
C367 C363 1.429 . S
C367 C368 1.523 . S
C368 C352 1.368 . S
C368 C364 1.368 . S
C368 C367 1.523 . S
H369 C344 0.950 . S
H370 C346 0.950 . S
H371 C347 0.949 . S
H372 C349 0.950 . S
H373 C351 0.950 . S
C374 C375 1.349 . S
C374 C376 1.327 . S
C374 H399 0.950 . S
C375 C374 1.349 . S
C375 C391 1.349 . S
C376 C374 1.327 . S
C376 C395 1.429 . S
C376 H400 0.950 . S
C377 C394 1.574 . S
C377 C396 1.368 . S
C377 H401 0.949 . S
H378 C382 0.949 . S
C379 C380 1.349 . S
C379 C381 1.327 . S
C379 H402 0.950 . S
C380 C379 1.349 . S
C380 C392 1.349 . S
C381 C379 1.327 . S
C381 C397 1.429 . S
C381 H403 0.950 . S
C382 H378 0.949 . S
C382 C390 1.574 . S
C382 C398 1.368 . S
H383 C391 0.950 . S
H384 C389 0.950 . S
H385 C390 0.949 . S
H386 C392 0.950 . S
H387 C393 0.950 . S
H388 C394 0.949 . S
C389 H384 0.950 . S
C389 C391 1.327 . S
C389 C395 1.429 . S
C390 C382 1.574 . S
C390 H385 0.949 . S
C390 C396 1.368 . S
C391 C375 1.349 . S
C391 H383 0.950 . S
C391 C389 1.327 . S
C392 C380 1.349 . S
C392 H386 0.950 . S
C392 C393 1.327 . S
C393 H387 0.950 . S
C393 C392 1.327 . S
C393 C397 1.429 . S
C394 C377 1.574 . S
C394 H388 0.949 . S
C394 C398 1.368 . S
C395 C376 1.429 . S
C395 C389 1.429 . S
C395 C396 1.523 . S
C396 C377 1.368 . S
C396 C390 1.368 . S
C396 C395 1.523 . S
C397 C381 1.429 . S
C397 C393 1.429 . S
C397 C398 1.523 . S
C398 C382 1.368 . S
C398 C394 1.368 . S
C398 C397 1.523 . S
H399 C374 0.950 . S
H400 C376 0.950 . S
H401 C377 0.949 . S
H402 C379 0.950 . S
H403 C381 0.950 . S
C404 C405 1.349 . S
C404 C406 1.327 . S
C404 H429 0.950 . S
C405 C404 1.349 . S
C405 C421 1.349 . S
C406 C404 1.327 . S
C406 C425 1.429 . S
C406 H430 0.950 . S
C407 C424 1.574 . S
C407 C426 1.368 . S
C407 H431 0.949 . S
H408 C412 0.949 . S
C409 C410 1.349 . S
C409 C411 1.327 . S
C409 H432 0.950 . S
C410 C409 1.349 . S
C410 C422 1.349 . S
C411 C409 1.327 . S
C411 C427 1.429 . S
C411 H433 0.950 . S
C412 H408 0.949 . S
C412 C420 1.574 . S
C412 C428 1.368 . S
H413 C421 0.950 . S
H414 C419 0.950 . S
H415 C420 0.949 . S
H416 C422 0.950 . S
H417 C423 0.950 . S
H418 C424 0.949 . S
C419 H414 0.950 . S
C419 C421 1.327 . S
C419 C425 1.429 . S
C420 C412 1.574 . S
C420 H415 0.949 . S
C420 C426 1.368 . S
C421 C405 1.349 . S
C421 H413 0.950 . S
C421 C419 1.327 . S
C422 C410 1.349 . S
C422 H416 0.950 . S
C422 C423 1.327 . S
C423 H417 0.950 . S
C423 C422 1.327 . S
C423 C427 1.429 . S
C424 C407 1.574 . S
C424 H418 0.949 . S
C424 C428 1.368 . S
C425 C406 1.429 . S
C425 C419 1.429 . S
C425 C426 1.523 . S
C426 C407 1.368 . S
C426 C420 1.368 . S
C426 C425 1.523 . S
C427 C411 1.429 . S
C427 C423 1.429 . S
C427 C428 1.523 . S
C428 C412 1.368 . S
C428 C424 1.368 . S
C428 C427 1.523 . S
H429 C404 0.950 . S
H430 C406 0.950 . S
H431 C407 0.949 . S
H432 C409 0.950 . S
H433 C411 0.950 . S
C434 C435 1.349 . S
C434 C436 1.327 . S
C434 H459 0.950 . S
C435 C434 1.349 . S
C435 C451 1.349 . S
C436 C434 1.327 . S
C436 C455 1.429 . S
C436 H460 0.950 . S
C437 C454 1.574 . S
C437 C456 1.368 . S
C437 H461 0.949 . S
H438 C442 0.949 . S
C439 C440 1.349 . S
C439 C441 1.327 . S
C439 H462 0.950 . S
C440 C439 1.349 . S
C440 C452 1.349 . S
C441 C439 1.327 . S
C441 C457 1.429 . S
C441 H463 0.950 . S
C442 H438 0.949 . S
C442 C450 1.574 . S
C442 C458 1.368 . S
H443 C451 0.950 . S
H444 C449 0.950 . S
H445 C450 0.949 . S
H446 C452 0.950 . S
H447 C453 0.950 . S
H448 C454 0.949 . S
C449 H444 0.950 . S
C449 C451 1.327 . S
C449 C455 1.429 . S
C450 C442 1.574 . S
C450 H445 0.949 . S
C450 C456 1.368 . S
C451 C435 1.349 . S
C451 H443 0.950 . S
C451 C449 1.327 . S
C452 C440 1.349 . S
C452 H446 0.950 . S
C452 C453 1.327 . S
C453 H447 0.950 . S
C453 C452 1.327 . S
C453 C457 1.429 . S
C454 C437 1.574 . S
C454 H448 0.949 . S
C454 C458 1.368 . S
C455 C436 1.429 . S
C455 C449 1.429 . S
C455 C456 1.523 . S
C456 C437 1.368 . S
C456 C450 1.368 . S
C456 C455 1.523 . S
C457 C441 1.429 . S
C457 C453 1.429 . S
C457 C458 1.523 . S
C458 C442 1.368 . S
C458 C454 1.368 . S
C458 C457 1.523 . S
H459 C434 0.950 . S
H460 C436 0.950 . S
H461 C437 0.949 . S
H462 C439 0.950 . S
H463 C441 0.950 . S
C464 C465 1.349 . S
C464 C466 1.327 . S
C464 H489 0.950 . S
C465 C464 1.349 . S
C465 C481 1.349 . S
C466 C464 1.327 . S
C466 C485 1.429 . S
C466 H490 0.950 . S
C467 C484 1.574 . S
C467 C486 1.368 . S
C467 H491 0.949 . S
H468 C472 0.949 . S
C469 C470 1.349 . S
C469 C471 1.327 . S
C469 H492 0.950 . S
C470 C469 1.349 . S
C470 C482 1.349 . S
C471 C469 1.327 . S
C471 C487 1.429 . S
C471 H493 0.950 . S
C472 H468 0.949 . S
C472 C480 1.574 . S
C472 C488 1.368 . S
H473 C481 0.950 . S
H474 C479 0.950 . S
H475 C480 0.949 . S
H476 C482 0.950 . S
H477 C483 0.950 . S
H478 C484 0.949 . S
C479 H474 0.950 . S
C479 C481 1.327 . S
C479 C485 1.429 . S
C480 C472 1.574 . S
C480 H475 0.949 . S
C480 C486 1.368 . S
C481 C465 1.349 . S
C481 H473 0.950 . S
C481 C479 1.327 . S
C482 C470 1.349 . S
C482 H476 0.950 . S
C482 C483 1.327 . S
C483 H477 0.950 . S
C483 C482 1.327 . S
C483 C487 1.429 . S
C484 C467 1.574 . S
C484 H478 0.949 . S
C484 C488 1.368 . S
C485 C466 1.429 . S
C485 C479 1.429 . S
C485 C486 1.523 . S
C486 C467 1.368 . S
C486 C480 1.368 . S
C486 C485 1.523 . S
C487 C471 1.429 . S
C487 C483 1.429 . S
C487 C488 1.523 . S
C488 C472 1.368 . S
C488 C484 1.368 . S
C488 C487 1.523 . S
H489 C464 0.950 . S
H490 C466 0.950 . S
H491 C467 0.949 . S
H492 C469 0.950 . S
H493 C471 0.950 . S
C494 C495 1.349 . S
C494 C496 1.327 . S
C494 H519 0.950 . S
C495 C494 1.349 . S
C495 C511 1.349 . S
C496 C494 1.327 . S
C496 C515 1.429 . S
C496 H520 0.950 . S
C497 C514 1.574 . S
C497 C516 1.368 . S
C497 H521 0.949 . S
H498 C502 0.949 . S
C499 C500 1.349 . S
C499 C501 1.327 . S
C499 H522 0.950 . S
C500 C499 1.349 . S
C500 C512 1.349 . S
C501 C499 1.327 . S
C501 C517 1.429 . S
C501 H523 0.950 . S
C502 H498 0.949 . S
C502 C510 1.574 . S
C502 C518 1.368 . S
H503 C511 0.950 . S
H504 C509 0.950 . S
H505 C510 0.949 . S
H506 C512 0.950 . S
H507 C513 0.950 . S
H508 C514 0.949 . S
C509 H504 0.950 . S
C509 C511 1.327 . S
C509 C515 1.429 . S
C510 C502 1.574 . S
C510 H505 0.949 . S
C510 C516 1.368 . S
C511 C495 1.349 . S
C511 H503 0.950 . S
C511 C509 1.327 . S
C512 C500 1.349 . S
C512 H506 0.950 . S
C512 C513 1.327 . S
C513 H507 0.950 . S
C513 C512 1.327 . S
C513 C517 1.429 . S
C514 C497 1.574 . S
C514 H508 0.949 . S
C514 C518 1.368 . S
C515 C496 1.429 . S
C515 C509 1.429 . S
C515 C516 1.523 . S
C516 C497 1.368 . S
C516 C510 1.368 . S
C516 C515 1.523 . S
C517 C501 1.429 . S
C517 C513 1.429 . S
C517 C518 1.523 . S
C518 C502 1.368 . S
C518 C514 1.368 . S
C518 C517 1.523 . S
H519 C494 0.950 . S
H520 C496 0.950 . S
H521 C497 0.949 . S
H522 C499 0.950 . S
H523 C501 0.950 . S
C524 C525 1.349 . S
C524 C526 1.327 . S
C524 H549 0.950 . S
C525 C524 1.349 . S
C525 C541 1.349 . S
C526 C524 1.327 . S
C526 C545 1.429 . S
C526 H550 0.950 . S
C527 C544 1.574 . S
C527 C546 1.368 . S
C527 H551 0.949 . S
H528 C532 0.949 . S
C529 C530 1.349 . S
C529 C531 1.327 . S
C529 H552 0.950 . S
C530 C529 1.349 . S
C530 C542 1.349 . S
C531 C529 1.327 . S
C531 C547 1.429 . S
C531 H553 0.950 . S
C532 H528 0.949 . S
C532 C540 1.574 . S
C532 C548 1.368 . S
H533 C541 0.950 . S
H534 C539 0.950 . S
H535 C540 0.949 . S
H536 C542 0.950 . S
H537 C543 0.950 . S
H538 C544 0.949 . S
C539 H534 0.950 . S
C539 C541 1.327 . S
C539 C545 1.429 . S
C540 C532 1.574 . S
C540 H535 0.949 . S
C540 C546 1.368 . S
C541 C525 1.349 . S
C541 H533 0.950 . S
C541 C539 1.327 . S
C542 C530 1.349 . S
C542 H536 0.950 . S
C542 C543 1.327 . S
C543 H537 0.950 . S
C543 C542 1.327 . S
C543 C547 1.429 . S
C544 C527 1.574 . S
C544 H538 0.949 . S
C544 C548 1.368 . S
C545 C526 1.429 . S
C545 C539 1.429 . S
C545 C546 1.523 . S
C546 C527 1.368 . S
C546 C540 1.368 . S
C546 C545 1.523 . S
C547 C531 1.429 . S
C547 C543 1.429 . S
C547 C548 1.523 . S
C548 C532 1.368 . S
C548 C544 1.368 . S
C548 C547 1.523 . S
H549 C524 0.950 . S
H550 C526 0.950 . S
H551 C527 0.949 . S
H552 C529 0.950 . S
H553 C531 0.950 . S
C554 C555 1.349 . S
C554 C556 1.327 . S
C554 H579 0.950 . S
C555 C554 1.349 . S
C555 C571 1.349 . S
C556 C554 1.327 . S
C556 C575 1.429 . S
C556 H580 0.950 . S
C557 C574 1.574 . S
C557 C576 1.368 . S
C557 H581 0.949 . S
H558 C562 0.949 . S
C559 C560 1.349 . S
C559 C561 1.327 . S
C559 H582 0.950 . S
C560 C559 1.349 . S
C560 C572 1.349 . S
C561 C559 1.327 . S
C561 C577 1.429 . S
C561 H583 0.950 . S
C562 H558 0.949 . S
C562 C570 1.574 . S
C562 C578 1.368 . S
H563 C571 0.950 . S
H564 C569 0.950 . S
H565 C570 0.949 . S
H566 C572 0.950 . S
H567 C573 0.950 . S
H568 C574 0.949 . S
C569 H564 0.950 . S
C569 C571 1.327 . S
C569 C575 1.429 . S
C570 C562 1.574 . S
C570 H565 0.949 . S
C570 C576 1.368 . S
C571 C555 1.349 . S
C571 H563 0.950 . S
C571 C569 1.327 . S
C572 C560 1.349 . S
C572 H566 0.950 . S
C572 C573 1.327 . S
C573 H567 0.950 . S
C573 C572 1.327 . S
C573 C577 1.429 . S
C574 C557 1.574 . S
C574 H568 0.949 . S
C574 C578 1.368 . S
C575 C556 1.429 . S
C575 C569 1.429 . S
C575 C576 1.523 . S
C576 C557 1.368 . S
C576 C570 1.368 . S
C576 C575 1.523 . S
C577 C561 1.429 . S
C577 C573 1.429 . S
C577 C578 1.523 . S
C578 C562 1.368 . S
C578 C574 1.368 . S
C578 C577 1.523 . S
H579 C554 0.950 . S
H580 C556 0.950 . S
H581 C557 0.949 . S
H582 C559 0.950 . S
H583 C561 0.950 . S
C584 C585 1.349 . S
C584 C586 1.327 . S
C584 H609 0.950 . S
C585 C584 1.349 . S
C585 C601 1.349 . S
C586 C584 1.327 . S
C586 C605 1.429 . S
C586 H610 0.950 . S
C587 C604 1.574 . S
C587 C606 1.368 . S
C587 H611 0.949 . S
H588 C592 0.949 . S
C589 C590 1.349 . S
C589 C591 1.327 . S
C589 H612 0.950 . S
C590 C589 1.349 . S
C590 C602 1.349 . S
C591 C589 1.327 . S
C591 C607 1.429 . S
C591 H613 0.950 . S
C592 H588 0.949 . S
C592 C600 1.574 . S
C592 C608 1.368 . S
H593 C601 0.950 . S
H594 C599 0.950 . S
H595 C600 0.949 . S
H596 C602 0.950 . S
H597 C603 0.950 . S
H598 C604 0.949 . S
C599 H594 0.950 . S
C599 C601 1.327 . S
C599 C605 1.429 . S
C600 C592 1.574 . S
C600 H595 0.949 . S
C600 C606 1.368 . S
C601 C585 1.349 . S
C601 H593 0.950 . S
C601 C599 1.327 . S
C602 C590 1.349 . S
C602 H596 0.950 . S
C602 C603 1.327 . S
C603 H597 0.950 . S
C603 C602 1.327 . S
C603 C607 1.429 . S
C604 C587 1.574 . S
C604 H598 0.949 . S
C604 C608 1.368 . S
C605 C586 1.429 . S
C605 C599 1.429 . S
C605 C606 1.523 . S
C606 C587 1.368 . S
C606 C600 1.368 . S
C606 C605 1.523 . S
C607 C591 1.429 . S
C607 C603 1.429 . S
C607 C608 1.523 . S
C608 C592 1.368 . S
C608 C604 1.368 . S
C608 C607 1.523 . S
H609 C584 0.950 . S
H610 C586 0.950 . S
H611 C587 0.949 . S
H612 C589 0.950 . S
H613 C591 0.950 . S
C614 C615 1.349 . S
C614 C616 1.327 . S
C614 H639 0.950 . S
C615 C614 1.349 . S
C615 C631 1.349 . S
C616 C614 1.327 . S
C616 C635 1.429 . S
C616 H640 0.950 . S
C617 C634 1.574 . S
C617 C636 1.368 . S
C617 H641 0.949 . S
H618 C622 0.949 . S
C619 C620 1.349 . S
C619 C621 1.327 . S
C619 H642 0.950 . S
C620 C619 1.349 . S
C620 C632 1.349 . S
C621 C619 1.327 . S
C621 C637 1.429 . S
C621 H643 0.950 . S
C622 H618 0.949 . S
C622 C630 1.574 . S
C622 C638 1.368 . S
H623 C631 0.950 . S
H624 C629 0.950 . S
H625 C630 0.949 . S
H626 C632 0.950 . S
H627 C633 0.950 . S
H628 C634 0.949 . S
C629 H624 0.950 . S
C629 C631 1.327 . S
C629 C635 1.429 . S
C630 C622 1.574 . S
C630 H625 0.949 . S
C630 C636 1.368 . S
C631 C615 1.349 . S
C631 H623 0.950 . S
C631 C629 1.327 . S
C632 C620 1.349 . S
C632 H626 0.950 . S
C632 C633 1.327 . S
C633 H627 0.950 . S
C633 C632 1.327 . S
C633 C637 1.429 . S
C634 C617 1.574 . S
C634 H628 0.949 . S
C634 C638 1.368 . S
C635 C616 1.429 . S
C635 C629 1.429 . S
C635 C636 1.523 . S
C636 C617 1.368 . S
C636 C630 1.368 . S
C636 C635 1.523 . S
C637 C621 1.429 . S
C637 C633 1.429 . S
C637 C638 1.523 . S
C638 C622 1.368 . S
C638 C634 1.368 . S
C638 C637 1.523 . S
H639 C614 0.950 . S
H640 C616 0.950 . S
H641 C617 0.949 . S
H642 C619 0.950 . S
H643 C621 0.950 . S
C644 C645 1.349 . S
C644 C646 1.327 . S
C644 H669 0.950 . S
C645 C644 1.349 . S
C645 C661 1.349 . S
C646 C644 1.327 . S
C646 C665 1.429 . S
C646 H670 0.950 . S
C647 C664 1.574 . S
C647 C666 1.368 . S
C647 H671 0.949 . S
H648 C652 0.949 . S
C649 C650 1.349 . S
C649 C651 1.327 . S
C649 H672 0.950 . S
C650 C649 1.349 . S
C650 C662 1.349 . S
C651 C649 1.327 . S
C651 C667 1.429 . S
C651 H673 0.950 . S
C652 H648 0.949 . S
C652 C660 1.574 . S
C652 C668 1.368 . S
H653 C661 0.950 . S
H654 C659 0.950 . S
H655 C660 0.949 . S
H656 C662 0.950 . S
H657 C663 0.950 . S
H658 C664 0.949 . S
C659 H654 0.950 . S
C659 C661 1.327 . S
C659 C665 1.429 . S
C660 C652 1.574 . S
C660 H655 0.949 . S
C660 C666 1.368 . S
C661 C645 1.349 . S
C661 H653 0.950 . S
C661 C659 1.327 . S
C662 C650 1.349 . S
C662 H656 0.950 . S
C662 C663 1.327 . S
C663 H657 0.950 . S
C663 C662 1.327 . S
C663 C667 1.429 . S
C664 C647 1.574 . S
C664 H658 0.949 . S
C664 C668 1.368 . S
C665 C646 1.429 . S
C665 C659 1.429 . S
C665 C666 1.523 . S
C666 C647 1.368 . S
C666 C660 1.368 . S
C666 C665 1.523 . S
C667 C651 1.429 . S
C667 C663 1.429 . S
C667 C668 1.523 . S
C668 C652 1.368 . S
C668 C664 1.368 . S
C668 C667 1.523 . S
H669 C644 0.950 . S
H670 C646 0.950 . S
H671 C647 0.949 . S
H672 C649 0.950 . S
H673 C651 0.950 . S
C674 C675 1.349 . S
C674 C676 1.327 . S
C674 H699 0.950 . S
C675 C674 1.349 . S
C675 C691 1.349 . S
C676 C674 1.327 . S
C676 C695 1.429 . S
C676 H700 0.950 . S
C677 C694 1.574 . S
C677 C696 1.368 . S
C677 H701 0.949 . S
H678 C682 0.949 . S
C679 C680 1.349 . S
C679 C681 1.327 . S
C679 H702 0.950 . S
C680 C679 1.349 . S
C680 C692 1.349 . S
C681 C679 1.327 . S
C681 C697 1.429 . S
C681 H703 0.950 . S
C682 H678 0.949 . S
C682 C690 1.574 . S
C682 C698 1.368 . S
H683 C691 0.950 . S
H684 C689 0.950 . S
H685 C690 0.949 . S
H686 C692 0.950 . S
H687 C693 0.950 . S
H688 C694 0.949 . S
C689 H684 0.950 . S
C689 C691 1.327 . S
C689 C695 1.429 . S
C690 C682 1.574 . S
C690 H685 0.949 . S
C690 C696 1.368 . S
C691 C675 1.349 . S
C691 H683 0.950 . S
C691 C689 1.327 . S
C692 C680 1.349 . S
C692 H686 0.950 . S
C692 C693 1.327 . S
C693 H687 0.950 . S
C693 C692 1.327 . S
C693 C697 1.429 . S
C694 C677 1.574 . S
C694 H688 0.949 . S
C694 C698 1.368 . S
C695 C676 1.429 . S
C695 C689 1.429 . S
C695 C696 1.523 . S
C696 C677 1.368 . S
C696 C690 1.368 . S
C696 C695 1.523 . S
C697 C681 1.429 . S
C697 C693 1.429 . S
C697 C698 1.523 . S
C698 C682 1.368 . S
C698 C694 1.368 . S
C698 C697 1.523 . S
H699 C674 0.950 . S
H700 C676 0.950 . S
H701 C677 0.949 . S
H702 C679 0.950 . S
H703 C681 0.950 . S
C704 C705 1.349 . S
C704 C706 1.327 . S
C704 H729 0.950 . S
C705 C704 1.349 . S
C705 C721 1.349 . S
C706 C704 1.327 . S
C706 C725 1.429 . S
C706 H730 0.950 . S
C707 C724 1.574 . S
C707 C726 1.368 . S
C707 H731 0.949 . S
H708 C712 0.949 . S
C709 C710 1.349 . S
C709 C711 1.327 . S
C709 H732 0.950 . S
C710 C709 1.349 . S
C710 C722 1.349 . S
C711 C709 1.327 . S
C711 C727 1.429 . S
C711 H733 0.950 . S
C712 H708 0.949 . S
C712 C720 1.574 . S
C712 C728 1.368 . S
H713 C721 0.950 . S
H714 C719 0.950 . S
H715 C720 0.949 . S
H716 C722 0.950 . S
H717 C723 0.950 . S
H718 C724 0.949 . S
C719 H714 0.950 . S
C719 C721 1.327 . S
C719 C725 1.429 . S
C720 C712 1.574 . S
C720 H715 0.949 . S
C720 C726 1.368 . S
C721 C705 1.349 . S
C721 H713 0.950 . S
C721 C719 1.327 . S
C722 C710 1.349 . S
C722 H716 0.950 . S
C722 C723 1.327 . S
C723 H717 0.950 . S
C723 C722 1.327 . S
C723 C727 1.429 . S
C724 C707 1.574 . S
C724 H718 0.949 . S
C724 C728 1.368 . S
C725 C706 1.429 . S
C725 C719 1.429 . S
C725 C726 1.523 . S
C726 C707 1.368 . S
C726 C720 1.368 . S
C726 C725 1.523 . S
C727 C711 1.429 . S
C727 C723 1.429 . S
C727 C728 1.523 . S
C728 C712 1.368 . S
C728 C724 1.368 . S
C728 C727 1.523 . S
H729 C704 0.950 . S
H730 C706 0.950 . S
H731 C707 0.949 . S
H732 C709 0.950 . S
H733 C711 0.950 . S
C734 C735 1.349 . S
C734 C736 1.327 . S
C734 H759 0.950 . S
C735 C734 1.349 . S
C735 C751 1.349 . S
C736 C734 1.327 . S
C736 C755 1.429 . S
C736 H760 0.950 . S
C737 C754 1.574 . S
C737 C756 1.368 . S
C737 H761 0.949 . S
H738 C742 0.949 . S
C739 C740 1.349 . S
C739 C741 1.327 . S
C739 H762 0.950 . S
C740 C739 1.349 . S
C740 C752 1.349 . S
C741 C739 1.327 . S
C741 C757 1.429 . S
C741 H763 0.950 . S
C742 H738 0.949 . S
C742 C750 1.574 . S
C742 C758 1.368 . S
H743 C751 0.950 . S
H744 C749 0.950 . S
H745 C750 0.949 . S
H746 C752 0.950 . S
H747 C753 0.950 . S
H748 C754 0.949 . S
C749 H744 0.950 . S
C749 C751 1.327 . S
C749 C755 1.429 . S
C750 C742 1.574 . S
C750 H745 0.949 . S
C750 C756 1.368 . S
C751 C735 1.349 . S
C751 H743 0.950 . S
C751 C749 1.327 . S
C752 C740 1.349 . S
C752 H746 0.950 . S
C752 C753 1.327 . S
C753 H747 0.950 . S
C753 C752 1.327 . S
C753 C757 1.429 . S
C754 C737 1.574 . S
C754 H748 0.949 . S
C754 C758 1.368 . S
C755 C736 1.429 . S
C755 C749 1.429 . S
C755 C756 1.523 . S
C756 C737 1.368 . S
C756 C750 1.368 . S
C756 C755 1.523 . S
C757 C741 1.429 . S
C757 C753 1.429 . S
C757 C758 1.523 . S
C758 C742 1.368 . S
C758 C754 1.368 . S
C758 C757 1.523 . S
H759 C734 0.950 . S
H760 C736 0.950 . S
H761 C737 0.949 . S
H762 C739 0.950 . S
H763 C741 0.950 . S
C764 C765 1.349 . S
C764 C766 1.327 . S
C764 H789 0.950 . S
C765 C764 1.349 . S
C765 C781 1.349 . S
C766 C764 1.327 . S
C766 C785 1.429 . S
C766 H790 0.950 . S
C767 C784 1.574 . S
C767 C786 1.368 . S
C767 H791 0.949 . S
H768 C772 0.949 . S
C769 C770 1.349 . S
C769 C771 1.327 . S
C769 H792 0.950 . S
C770 C769 1.349 . S
C770 C782 1.349 . S
C771 C769 1.327 . S
C771 C787 1.429 . S
C771 H793 0.950 . S
C772 H768 0.949 . S
C772 C780 1.574 . S
C772 C788 1.368 . S
H773 C781 0.950 . S
H774 C779 0.950 . S
H775 C780 0.949 . S
H776 C782 0.950 . S
H777 C783 0.950 . S
H778 C784 0.949 . S
C779 H774 0.950 . S
C779 C781 1.327 . S
C779 C785 1.429 . S
C780 C772 1.574 . S
C780 H775 0.949 . S
C780 C786 1.368 . S
C781 C765 1.349 . S
C781 H773 0.950 . S
C781 C779 1.327 . S
C782 C770 1.349 . S
C782 H776 0.950 . S
C782 C783 1.327 . S
C783 H777 0.950 . S
C783 C782 1.327 . S
C783 C787 1.429 . S
C784 C767 1.574 . S
C784 H778 0.949 . S
C784 C788 1.368 . S
C785 C766 1.429 . S
C785 C779 1.429 . S
C785 C786 1.523 . S
C786 C767 1.368 . S
C786 C780 1.368 . S
C786 C785 1.523 . S
C787 C771 1.429 . S
C787 C783 1.429 . S
C787 C788 1.523 . S
C788 C772 1.368 . S
C788 C784 1.368 . S
C788 C787 1.523 . S
H789 C764 0.950 . S
H790 C766 0.950 . S
H791 C767 0.949 . S
H792 C769 0.950 . S
H793 C771 0.950 . S
C794 C795 1.349 . S
C794 C796 1.327 . S
C794 H819 0.950 . S
C795 C794 1.349 . S
C795 C811 1.349 . S
C796 C794 1.327 . S
C796 C815 1.429 . S
C796 H820 0.950 . S
C797 C814 1.574 . S
C797 C816 1.368 . S
C797 H821 0.949 . S
H798 C802 0.949 . S
C799 C800 1.349 . S
C799 C801 1.327 . S
C799 H822 0.950 . S
C800 C799 1.349 . S
C800 C812 1.349 . S
C801 C799 1.327 . S
C801 C817 1.429 . S
C801 H823 0.950 . S
C802 H798 0.949 . S
C802 C810 1.574 . S
C802 C818 1.368 . S
H803 C811 0.950 . S
H804 C809 0.950 . S
H805 C810 0.949 . S
H806 C812 0.950 . S
H807 C813 0.950 . S
H808 C814 0.949 . S
C809 H804 0.950 . S
C809 C811 1.327 . S
C809 C815 1.429 . S
C810 C802 1.574 . S
C810 H805 0.949 . S
C810 C816 1.368 . S
C811 C795 1.349 . S
C811 H803 0.950 . S
C811 C809 1.327 . S
C812 C800 1.349 . S
C812 H806 0.950 . S
C812 C813 1.327 . S
C813 H807 0.950 . S
C813 C812 1.327 . S
C813 C817 1.429 . S
C814 C797 1.574 . S
C814 H808 0.949 . S
C814 C818 1.368 . S
C815 C796 1.429 . S
C815 C809 1.429 . S
C815 C816 1.523 . S
C816 C797 1.368 . S
C816 C810 1.368 . S
C816 C815 1.523 . S
C817 C801 1.429 . S
C817 C813 1.429 . S
C817 C818 1.523 . S
C818 C802 1.368 . S
C818 C814 1.368 . S
C818 C817 1.523 . S
H819 C794 0.950 . S
H820 C796 0.950 . S
H821 C797 0.949 . S
H822 C799 0.950 . S
H823 C801 0.950 . S
C824 C825 1.349 . S
C824 C826 1.327 . S
C824 H849 0.950 . S
C825 C824 1.349 . S
C825 C841 1.349 . S
C826 C824 1.327 . S
C826 C845 1.429 . S
C826 H850 0.950 . S
C827 C844 1.574 . S
C827 C846 1.368 . S
C827 H851 0.949 . S
H828 C832 0.949 . S
C829 C830 1.349 . S
C829 C831 1.327 . S
C829 H852 0.950 . S
C830 C829 1.349 . S
C830 C842 1.349 . S
C831 C829 1.327 . S
C831 C847 1.429 . S
C831 H853 0.950 . S
C832 H828 0.949 . S
C832 C840 1.574 . S
C832 C848 1.368 . S
H833 C841 0.950 . S
H834 C839 0.950 . S
H835 C840 0.949 . S
H836 C842 0.950 . S
H837 C843 0.950 . S
H838 C844 0.949 . S
C839 H834 0.950 . S
C839 C841 1.327 . S
C839 C845 1.429 . S
C840 C832 1.574 . S
C840 H835 0.949 . S
C840 C846 1.368 . S
C841 C825 1.349 . S
C841 H833 0.950 . S
C841 C839 1.327 . S
C842 C830 1.349 . S
C842 H836 0.950 . S
C842 C843 1.327 . S
C843 H837 0.950 . S
C843 C842 1.327 . S
C843 C847 1.429 . S
C844 C827 1.574 . S
C844 H838 0.949 . S
C844 C848 1.368 . S
C845 C826 1.429 . S
C845 C839 1.429 . S
C845 C846 1.523 . S
C846 C827 1.368 . S
C846 C840 1.368 . S
C846 C845 1.523 . S
C847 C831 1.429 . S
C847 C843 1.429 . S
C847 C848 1.523 . S
C848 C832 1.368 . S
C848 C844 1.368 . S
C848 C847 1.523 . S
H849 C824 0.950 . S
H850 C826 0.950 . S
H851 C827 0.949 . S
H852 C829 0.950 . S
H853 C831 0.950 . S
C854 C855 1.349 . S
C854 C856 1.327 . S
C854 H879 0.950 . S
C855 C854 1.349 . S
C855 C871 1.349 . S
C856 C854 1.327 . S
C856 C875 1.429 . S
C856 H880 0.950 . S
C857 C874 1.574 . S
C857 C876 1.368 . S
C857 H881 0.949 . S
H858 C862 0.949 . S
C859 C860 1.349 . S
C859 C861 1.327 . S
C859 H882 0.950 . S
C860 C859 1.349 . S
C860 C872 1.349 . S
C861 C859 1.327 . S
C861 C877 1.429 . S
C861 H883 0.950 . S
C862 H858 0.949 . S
C862 C870 1.574 . S
C862 C878 1.368 . S
H863 C871 0.950 . S
H864 C869 0.950 . S
H865 C870 0.949 . S
H866 C872 0.950 . S
H867 C873 0.950 . S
H868 C874 0.949 . S
C869 H864 0.950 . S
C869 C871 1.327 . S
C869 C875 1.429 . S
C870 C862 1.574 . S
C870 H865 0.949 . S
C870 C876 1.368 . S
C871 C855 1.349 . S
C871 H863 0.950 . S
C871 C869 1.327 . S
C872 C860 1.349 . S
C872 H866 0.950 . S
C872 C873 1.327 . S
C873 H867 0.950 . S
C873 C872 1.327 . S
C873 C877 1.429 . S
C874 C857 1.574 . S
C874 H868 0.949 . S
C874 C878 1.368 . S
C875 C856 1.429 . S
C875 C869 1.429 . S
C875 C876 1.523 . S
C876 C857 1.368 . S
C876 C870 1.368 . S
C876 C875 1.523 . S
C877 C861 1.429 . S
C877 C873 1.429 . S
C877 C878 1.523 . S
C878 C862 1.368 . S
C878 C874 1.368 . S
C878 C877 1.523 . S
H879 C854 0.950 . S
H880 C856 0.950 . S
H881 C857 0.949 . S
H882 C859 0.950 . S
H883 C861 0.950 . S
C884 C885 1.349 . S
C884 C886 1.327 . S
C884 H909 0.950 . S
C885 C884 1.349 . S
C885 C901 1.349 . S
C886 C884 1.327 . S
C886 C905 1.429 . S
C886 H910 0.950 . S
C887 C904 1.574 . S
C887 C906 1.368 . S
C887 H911 0.949 . S
H888 C892 0.949 . S
C889 C890 1.349 . S
C889 C891 1.327 . S
C889 H912 0.950 . S
C890 C889 1.349 . S
C890 C902 1.349 . S
C891 C889 1.327 . S
C891 C907 1.429 . S
C891 H913 0.950 . S
C892 H888 0.949 . S
C892 C900 1.574 . S
C892 C908 1.368 . S
H893 C901 0.950 . S
H894 C899 0.950 . S
H895 C900 0.949 . S
H896 C902 0.950 . S
H897 C903 0.950 . S
H898 C904 0.949 . S
C899 H894 0.950 . S
C899 C901 1.327 . S
C899 C905 1.429 . S
C900 C892 1.574 . S
C900 H895 0.949 . S
C900 C906 1.368 . S
C901 C885 1.349 . S
C901 H893 0.950 . S
C901 C899 1.327 . S
C902 C890 1.349 . S
C902 H896 0.950 . S
C902 C903 1.327 . S
C903 H897 0.950 . S
C903 C902 1.327 . S
C903 C907 1.429 . S
C904 C887 1.574 . S
C904 H898 0.949 . S
C904 C908 1.368 . S
C905 C886 1.429 . S
C905 C899 1.429 . S
C905 C906 1.523 . S
C906 C887 1.368 . S
C906 C900 1.368 . S
C906 C905 1.523 . S
C907 C891 1.429 . S
C907 C903 1.429 . S
C907 C908 1.523 . S
C908 C892 1.368 . S
C908 C904 1.368 . S
C908 C907 1.523 . S
H909 C884 0.950 . S
H910 C886 0.950 . S
H911 C887 0.949 . S
H912 C889 0.950 . S
H913 C891 0.950 . S
C914 C915 1.349 . S
C914 C916 1.327 . S
C914 H939 0.950 . S
C915 C914 1.349 . S
C915 C931 1.349 . S
C916 C914 1.327 . S
C916 C935 1.429 . S
C916 H940 0.950 . S
C917 C934 1.574 . S
C917 C936 1.368 . S
C917 H941 0.949 . S
H918 C922 0.949 . S
C919 C920 1.349 . S
C919 C921 1.327 . S
C919 H942 0.950 . S
C920 C919 1.349 . S
C920 C932 1.349 . S
C921 C919 1.327 . S
C921 C937 1.429 . S
C921 H943 0.950 . S
C922 H918 0.949 . S
C922 C930 1.574 . S
C922 C938 1.368 . S
H923 C931 0.950 . S
H924 C929 0.950 . S
H925 C930 0.949 . S
H926 C932 0.950 . S
H927 C933 0.950 . S
H928 C934 0.949 . S
C929 H924 0.950 . S
C929 C931 1.327 . S
C929 C935 1.429 . S
C930 C922 1.574 . S
C930 H925 0.949 . S
C930 C936 1.368 . S
C931 C915 1.349 . S
C931 H923 0.950 . S
C931 C929 1.327 . S
C932 C920 1.349 . S
C932 H926 0.950 . S
C932 C933 1.327 . S
C933 H927 0.950 . S
C933 C932 1.327 . S
C933 C937 1.429 . S
C934 C917 1.574 . S
C934 H928 0.949 . S
C934 C938 1.368 . S
C935 C916 1.429 . S
C935 C929 1.429 . S
C935 C936 1.523 . S
C936 C917 1.368 . S
C936 C930 1.368 . S
C936 C935 1.523 . S
C937 C921 1.429 . S
C937 C933 1.429 . S
C937 C938 1.523 . S
C938 C922 1.368 . S
C938 C934 1.368 . S
C938 C937 1.523 . S
H939 C914 0.950 . S
H940 C916 0.950 . S
H941 C917 0.949 . S
H942 C919 0.950 . S
H943 C921 0.950 . S
C944 C945 1.349 . S
C944 C946 1.327 . S
C944 H969 0.950 . S
C945 C944 1.349 . S
C945 C961 1.349 . S
C946 C944 1.327 . S
C946 C965 1.429 . S
C946 H970 0.950 . S
C947 C964 1.574 1_554 S
C947 C966 1.368 . S
C947 H971 0.949 . S
H948 C952 0.949 . S
C949 C950 1.349 . S
C949 C951 1.327 . S
C949 H972 0.950 . S
C950 C949 1.349 . S
C950 C962 1.349 . S
C951 C949 1.327 . S
C951 C967 1.429 . S
C951 H973 0.950 . S
C952 H948 0.949 . S
C952 C960 1.574 1_556 S
C952 C968 1.368 . S
H953 C961 0.950 . S
H954 C959 0.950 . S
H955 C960 0.949 . S
H956 C962 0.950 . S
H957 C963 0.950 . S
H958 C964 0.949 . S
C959 H954 0.950 . S
C959 C961 1.327 . S
C959 C965 1.429 . S
C960 C952 1.574 1_554 S
C960 H955 0.949 . S
C960 C966 1.368 . S
C961 C945 1.349 . S
C961 H953 0.950 . S
C961 C959 1.327 . S
C962 C950 1.349 . S
C962 H956 0.950 . S
C962 C963 1.327 . S
C963 H957 0.950 . S
C963 C962 1.327 . S
C963 C967 1.429 . S
C964 C947 1.574 1_556 S
C964 H958 0.949 . S
C964 C968 1.368 . S
C965 C946 1.429 . S
C965 C959 1.429 . S
C965 C966 1.523 . S
C966 C947 1.368 . S
C966 C960 1.368 . S
C966 C965 1.523 . S
C967 C951 1.429 . S
C967 C963 1.429 . S
C967 C968 1.523 . S
C968 C952 1.368 . S
C968 C964 1.368 . S
C968 C967 1.523 . S
H969 C944 0.950 . S
H970 C946 0.950 . S
H971 C947 0.949 . S
H972 C949 0.950 . S
H973 C951 0.950 . S
C974 C975 1.349 . S
C974 C976 1.327 . S
C974 H999 0.950 . S
C975 C974 1.349 . S
C975 C991 1.349 . S
C976 C974 1.327 . S
C976 C995 1.429 . S
C976 H1000 0.950 . S
C977 C994 1.574 . S
C977 C996 1.368 . S
C977 H1001 0.949 . S
H978 C982 0.949 . S
C979 C980 1.349 . S
C979 C981 1.327 . S
C979 H1002 0.950 . S
C980 C979 1.349 . S
C980 C992 1.349 . S
C981 C979 1.327 . S
C981 C997 1.429 . S
C981 H1003 0.950 . S
C982 H978 0.949 . S
C982 C990 1.574 . S
C982 C998 1.368 . S
H983 C991 0.950 . S
H984 C989 0.950 . S
H985 C990 0.949 . S
H986 C992 0.950 . S
H987 C993 0.950 . S
H988 C994 0.949 . S
C989 H984 0.950 . S
C989 C991 1.327 . S
C989 C995 1.429 . S
C990 C982 1.574 . S
C990 H985 0.949 . S
C990 C996 1.368 . S
C991 C975 1.349 . S
C991 H983 0.950 . S
C991 C989 1.327 . S
C992 C980 1.349 . S
C992 H986 0.950 . S
C992 C993 1.327 . S
C993 H987 0.950 . S
C993 C992 1.327 . S
C993 C997 1.429 . S
C994 C977 1.574 . S
C994 H988 0.949 . S
C994 C998 1.368 . S
C995 C976 1.429 . S
C995 C989 1.429 . S
C995 C996 1.523 . S
C996 C977 1.368 . S
C996 C990 1.368 . S
C996 C995 1.523 . S
C997 C981 1.429 . S
C997 C993 1.429 . S
C997 C998 1.523 . S
C998 C982 1.368 . S
C998 C994 1.368 . S
C998 C997 1.523 . S
H999 C974 0.950 . S
H1000 C976 0.950 . S
H1001 C977 0.949 . S
H1002 C979 0.950 . S
H1003 C981 0.950 . S
C1004 C1005 1.349 . S
C1004 C1006 1.327 . S
C1004 H1029 0.950 . S
C1005 C1004 1.349 . S
C1005 C1021 1.349 . S
C1006 C1004 1.327 . S
C1006 C1025 1.429 . S
C1006 H1030 0.950 . S
C1007 C1024 1.574 1_554 S
C1007 C1026 1.368 . S
C1007 H1031 0.949 . S
H1008 C1012 0.949 . S
C1009 C1010 1.349 . S
C1009 C1011 1.327 . S
C1009 H1032 0.950 . S
C1010 C1009 1.349 . S
C1010 C1022 1.349 . S
C1011 C1009 1.327 . S
C1011 C1027 1.429 . S
C1011 H1033 0.950 . S
C1012 H1008 0.949 . S
C1012 C1020 1.574 1_556 S
C1012 C1028 1.368 . S
H1013 C1021 0.950 . S
H1014 C1019 0.950 . S
H1015 C1020 0.949 . S
H1016 C1022 0.950 . S
H1017 C1023 0.950 . S
H1018 C1024 0.949 . S
C1019 H1014 0.950 . S
C1019 C1021 1.327 . S
C1019 C1025 1.429 . S
C1020 C1012 1.574 1_554 S
C1020 H1015 0.949 . S
C1020 C1026 1.368 . S
C1021 C1005 1.349 . S
C1021 H1013 0.950 . S
C1021 C1019 1.327 . S
C1022 C1010 1.349 . S
C1022 H1016 0.950 . S
C1022 C1023 1.327 . S
C1023 H1017 0.950 . S
C1023 C1022 1.327 . S
C1023 C1027 1.429 . S
C1024 C1007 1.574 1_556 S
C1024 H1018 0.949 . S
C1024 C1028 1.368 . S
C1025 C1006 1.429 . S
C1025 C1019 1.429 . S
C1025 C1026 1.523 . S
C1026 C1007 1.368 . S
C1026 C1020 1.368 . S
C1026 C1025 1.523 . S
C1027 C1011 1.429 . S
C1027 C1023 1.429 . S
C1027 C1028 1.523 . S
C1028 C1012 1.368 . S
C1028 C1024 1.368 . S
C1028 C1027 1.523 . S
H1029 C1004 0.950 . S
H1030 C1006 0.950 . S
H1031 C1007 0.949 . S
H1032 C1009 0.950 . S
H1033 C1011 0.950 . S
C1034 C1035 1.349 . S
C1034 C1036 1.327 . S
C1034 H1059 0.950 . S
C1035 C1034 1.349 . S
C1035 C1051 1.349 1_565 S
C1036 C1034 1.327 . S
C1036 C1055 1.429 . S
C1036 H1060 0.950 . S
C1037 C1054 1.574 . S
C1037 C1056 1.368 1_545 S
C1037 H1061 0.949 . S
H1038 C1042 0.949 . S
C1039 C1040 1.349 1_545 S
C1039 C1041 1.327 . S
C1039 H1062 0.950 . S
C1040 C1039 1.349 1_565 S
C1040 C1052 1.349 . S
C1041 C1039 1.327 . S
C1041 C1057 1.429 1_545 S
C1041 H1063 0.950 . S
C1042 H1038 0.949 . S
C1042 C1050 1.574 . S
C1042 C1058 1.368 . S
H1043 C1051 0.950 . S
H1044 C1049 0.950 . S
H1045 C1050 0.949 . S
H1046 C1052 0.950 . S
H1047 C1053 0.950 . S
H1048 C1054 0.949 . S
C1049 H1044 0.950 . S
C1049 C1051 1.327 . S
C1049 C1055 1.429 1_545 S
C1050 C1042 1.574 . S
C1050 H1045 0.949 . S
C1050 C1056 1.368 . S
C1051 C1035 1.349 1_545 S
C1051 H1043 0.950 . S
C1051 C1049 1.327 . S
C1052 C1040 1.349 . S
C1052 H1046 0.950 . S
C1052 C1053 1.327 . S
C1053 H1047 0.950 . S
C1053 C1052 1.327 . S
C1053 C1057 1.429 . S
C1054 C1037 1.574 . S
C1054 H1048 0.949 . S
C1054 C1058 1.368 1_545 S
C1055 C1036 1.429 . S
C1055 C1049 1.429 1_565 S
C1055 C1056 1.523 . S
C1056 C1037 1.368 1_565 S
C1056 C1050 1.368 . S
C1056 C1055 1.523 . S
C1057 C1041 1.429 1_565 S
C1057 C1053 1.429 . S
C1057 C1058 1.523 . S
C1058 C1042 1.368 . S
C1058 C1054 1.368 1_565 S
C1058 C1057 1.523 . S
H1059 C1034 0.950 . S
H1060 C1036 0.950 . S
H1061 C1037 0.949 . S
H1062 C1039 0.950 . S
H1063 C1041 0.950 . S
C1064 C1065 1.349 . S
C1064 C1066 1.327 . S
C1064 H1089 0.950 . S
C1065 C1064 1.349 . S
C1065 C1081 1.349 . S
C1066 C1064 1.327 . S
C1066 C1085 1.429 . S
C1066 H1090 0.950 . S
C1067 C1084 1.574 1_556 S
C1067 C1086 1.368 . S
C1067 H1091 0.949 . S
H1068 C1072 0.949 . S
C1069 C1070 1.349 . S
C1069 C1071 1.327 . S
C1069 H1092 0.950 . S
C1070 C1069 1.349 . S
C1070 C1082 1.349 . S
C1071 C1069 1.327 . S
C1071 C1087 1.429 . S
C1071 H1093 0.950 . S
C1072 H1068 0.949 . S
C1072 C1080 1.574 1_554 S
C1072 C1088 1.368 . S
H1073 C1081 0.950 . S
H1074 C1079 0.950 . S
H1075 C1080 0.949 . S
H1076 C1082 0.950 . S
H1077 C1083 0.950 . S
H1078 C1084 0.949 . S
C1079 H1074 0.950 . S
C1079 C1081 1.327 . S
C1079 C1085 1.429 . S
C1080 C1072 1.574 1_556 S
C1080 H1075 0.949 . S
C1080 C1086 1.368 . S
C1081 C1065 1.349 . S
C1081 H1073 0.950 . S
C1081 C1079 1.327 . S
C1082 C1070 1.349 . S
C1082 H1076 0.950 . S
C1082 C1083 1.327 . S
C1083 H1077 0.950 . S
C1083 C1082 1.327 . S
C1083 C1087 1.429 . S
C1084 C1067 1.574 1_554 S
C1084 H1078 0.949 . S
C1084 C1088 1.368 . S
C1085 C1066 1.429 . S
C1085 C1079 1.429 . S
C1085 C1086 1.523 . S
C1086 C1067 1.368 . S
C1086 C1080 1.368 . S
C1086 C1085 1.523 . S
C1087 C1071 1.429 . S
C1087 C1083 1.429 . S
C1087 C1088 1.523 . S
C1088 C1072 1.368 . S
C1088 C1084 1.368 . S
C1088 C1087 1.523 . S
H1089 C1064 0.950 . S
H1090 C1066 0.950 . S
H1091 C1067 0.949 . S
H1092 C1069 0.950 . S
H1093 C1071 0.950 . S
C1094 C1095 1.349 . S
C1094 C1096 1.327 . S
C1094 H1119 0.950 . S
C1095 C1094 1.349 . S
C1095 C1111 1.349 . S
C1096 C1094 1.327 . S
C1096 C1115 1.429 . S
C1096 H1120 0.950 . S
C1097 C1114 1.574 . S
C1097 C1116 1.368 . S
C1097 H1121 0.949 . S
H1098 C1102 0.949 . S
C1099 C1100 1.349 . S
C1099 C1101 1.327 . S
C1099 H1122 0.950 . S
C1100 C1099 1.349 . S
C1100 C1112 1.349 . S
C1101 C1099 1.327 . S
C1101 C1117 1.429 . S
C1101 H1123 0.950 . S
C1102 H1098 0.949 . S
C1102 C1110 1.574 . S
C1102 C1118 1.368 . S
H1103 C1111 0.950 . S
H1104 C1109 0.950 . S
H1105 C1110 0.949 . S
H1106 C1112 0.950 . S
H1107 C1113 0.950 . S
H1108 C1114 0.949 . S
C1109 H1104 0.950 . S
C1109 C1111 1.327 . S
C1109 C1115 1.429 . S
C1110 C1102 1.574 . S
C1110 H1105 0.949 . S
C1110 C1116 1.368 . S
C1111 C1095 1.349 . S
C1111 H1103 0.950 . S
C1111 C1109 1.327 . S
C1112 C1100 1.349 . S
C1112 H1106 0.950 . S
C1112 C1113 1.327 . S
C1113 H1107 0.950 . S
C1113 C1112 1.327 . S
C1113 C1117 1.429 . S
C1114 C1097 1.574 . S
C1114 H1108 0.949 . S
C1114 C1118 1.368 . S
C1115 C1096 1.429 . S
C1115 C1109 1.429 . S
C1115 C1116 1.523 . S
C1116 C1097 1.368 . S
C1116 C1110 1.368 . S
C1116 C1115 1.523 . S
C1117 C1101 1.429 . S
C1117 C1113 1.429 . S
C1117 C1118 1.523 . S
C1118 C1102 1.368 . S
C1118 C1114 1.368 . S
C1118 C1117 1.523 . S
H1119 C1094 0.950 . S
H1120 C1096 0.950 . S
H1121 C1097 0.949 . S
H1122 C1099 0.950 . S
H1123 C1101 0.950 . S
C1124 C1125 1.349 . S
C1124 C1126 1.327 . S
C1124 H1149 0.950 . S
C1125 C1124 1.349 . S
C1125 C1141 1.349 1_455 S
C1126 C1124 1.327 . S
C1126 C1145 1.429 . S
C1126 H1150 0.950 . S
C1127 C1144 1.574 1_554 S
C1127 C1146 1.368 1_655 S
C1127 H1151 0.949 . S
H1128 C1132 0.949 . S
C1129 C1130 1.349 1_655 S
C1129 C1131 1.327 . S
C1129 H1152 0.950 . S
C1130 C1129 1.349 1_455 S
C1130 C1142 1.349 . S
C1131 C1129 1.327 . S
C1131 C1147 1.429 1_655 S
C1131 H1153 0.950 . S
C1132 H1128 0.949 . S
C1132 C1140 1.574 1_556 S
C1132 C1148 1.368 . S
H1133 C1141 0.950 . S
H1134 C1139 0.950 . S
H1135 C1140 0.949 . S
H1136 C1142 0.950 . S
H1137 C1143 0.950 . S
H1138 C1144 0.949 . S
C1139 H1134 0.950 . S
C1139 C1141 1.327 . S
C1139 C1145 1.429 1_655 S
C1140 C1132 1.574 1_554 S
C1140 H1135 0.949 . S
C1140 C1146 1.368 . S
C1141 C1125 1.349 1_655 S
C1141 H1133 0.950 . S
C1141 C1139 1.327 . S
C1142 C1130 1.349 . S
C1142 H1136 0.950 . S
C1142 C1143 1.327 . S
C1143 H1137 0.950 . S
C1143 C1142 1.327 . S
C1143 C1147 1.429 . S
C1144 C1127 1.574 1_556 S
C1144 H1138 0.949 . S
C1144 C1148 1.368 1_655 S
C1145 C1126 1.429 . S
C1145 C1139 1.429 1_455 S
C1145 C1146 1.523 . S
C1146 C1127 1.368 1_455 S
C1146 C1140 1.368 . S
C1146 C1145 1.523 . S
C1147 C1131 1.429 1_455 S
C1147 C1143 1.429 . S
C1147 C1148 1.523 . S
C1148 C1132 1.368 . S
C1148 C1144 1.368 1_455 S
C1148 C1147 1.523 . S
H1149 C1124 0.950 . S
H1150 C1126 0.950 . S
H1151 C1127 0.949 . S
H1152 C1129 0.950 . S
H1153 C1131 0.950 . S
C1154 C1155 1.349 1_565 S
C1154 C1156 1.327 . S
C1154 H1179 0.950 . S
C1155 C1154 1.349 1_545 S
C1155 C1171 1.349 . S
C1156 C1154 1.327 . S
C1156 C1175 1.429 1_565 S
C1156 H1180 0.950 . S
C1157 C1174 1.574 . S
C1157 C1176 1.368 . S
C1157 H1181 0.949 . S
H1158 C1162 0.949 . S
C1159 C1160 1.349 . S
C1159 C1161 1.327 . S
C1159 H1182 0.950 . S
C1160 C1159 1.349 . S
C1160 C1172 1.349 1_545 S
C1161 C1159 1.327 . S
C1161 C1177 1.429 . S
C1161 H1183 0.950 . S
C1162 H1158 0.949 . S
C1162 C1170 1.574 . S
C1162 C1178 1.368 1_565 S
H1163 C1171 0.950 . S
H1164 C1169 0.950 . S
H1165 C1170 0.949 . S
H1166 C1172 0.950 . S
H1167 C1173 0.950 . S
H1168 C1174 0.949 . S
C1169 H1164 0.950 . S
C1169 C1171 1.327 . S
C1169 C1175 1.429 . S
C1170 C1162 1.574 . S
C1170 H1165 0.949 . S
C1170 C1176 1.368 1_565 S
C1171 C1155 1.349 . S
C1171 H1163 0.950 . S
C1171 C1169 1.327 . S
C1172 C1160 1.349 1_565 S
C1172 H1166 0.950 . S
C1172 C1173 1.327 . S
C1173 H1167 0.950 . S
C1173 C1172 1.327 . S
C1173 C1177 1.429 1_565 S
C1174 C1157 1.574 . S
C1174 H1168 0.949 . S
C1174 C1178 1.368 . S
C1175 C1156 1.429 1_545 S
C1175 C1169 1.429 . S
C1175 C1176 1.523 . S
C1176 C1157 1.368 . S
C1176 C1170 1.368 1_545 S
C1176 C1175 1.523 . S
C1177 C1161 1.429 . S
C1177 C1173 1.429 1_545 S
C1177 C1178 1.523 . S
C1178 C1162 1.368 1_545 S
C1178 C1174 1.368 . S
C1178 C1177 1.523 . S
H1179 C1154 0.950 . S
H1180 C1156 0.950 . S
H1181 C1157 0.949 . S
H1182 C1159 0.950 . S
H1183 C1161 0.950 . S
C225 C8 1.246 . S
C230 C106 1.246 . S
C255 C22 1.246 . S
C260 C64 1.246 . S
C285 C36 1.246 . S
C290 C78 1.246 . S
C315 C50 1.246 . S
C320 C92 1.246 . S
C345 C120 1.246 . S
C350 C218 1.246 . S
C375 C176 1.246 . S
C380 C134 1.246 . S
C405 C148 1.246 . S
C410 C190 1.246 . S
C435 C162 1.246 . S
C440 C204 1.246 . S
C465 C9 1.409 . S
C470 C133 1.418 . S
C495 C23 1.409 . S
C500 C147 1.418 . S
C525 C161 1.418 . S
C530 C37 1.409 . S
C555 C51 1.409 . S
C560 C119 1.418 . S
C585 C65 1.409 . S
C590 C217 1.418 . S
C615 C175 1.418 . S
C620 C79 1.409 . S
C645 C189 1.418 . S
C650 C93 1.409 . S
C675 C203 1.418 . S
C680 C107 1.409 . S
C705 C21 1.418 . S
C710 C121 1.409 . S
C735 C35 1.418 . S
C740 C135 1.409 . S
C765 C149 1.409 . S
C770 C49 1.418 . S
C795 C7 1.418 . S
C800 C163 1.409 . S
C825 C177 1.409 . S
C830 C105 1.418 . S
C855 C191 1.409 . S
C860 C63 1.418 . S
C885 C77 1.418 . S
C890 C205 1.409 . S
C915 C91 1.418 . S
C920 C219 1.409 . S
C945 C3 1.618 . S
C950 C59 1.618 . S
C975 C73 1.618 . S
C980 C17 1.618 . S
C1005 C31 1.617 . S
C1010 C87 1.617 . S
C1035 C101 1.617 . S
C1040 C45 1.617 . S
C1065 C115 1.618 . S
C1070 C171 1.618 . S
C1095 C185 1.618 . S
C1100 C129 1.618 . S
C1125 C199 1.617 . S
C1130 C143 1.617 . S
C1155 C213 1.617 . S
C1160 C157 1.617 . S
