# Generated by pormake.
# Topology gme, (4)-cn, num edge types: 1
# Building blocks:
#     Node 0, Type 0, BuildingBlock: ICAMEG_clean_sbu_1, # of connection points: 4
#     Node 1, Type 0, BuildingBlock: ICAMEG_clean_sbu_1, # of connection points: 4
#     Node 2, Type 0, BuildingBlock: ICAMEG_clean_sbu_1, # of connection points: 4
#     Node 3, Type 0, BuildingBlock: ICAMEG_clean_sbu_1, # of connection points: 4
#     Node 4, Type 0, BuildingBlock: ICAMEG_clean_sbu_1, # of connection points: 4
#     Node 5, Type 0, BuildingBlock: ICAMEG_clean_sbu_1, # of connection points: 4
#     Node 6, Type 0, BuildingBlock: ICAMEG_clean_sbu_1, # of connection points: 4
#     Node 7, Type 0, BuildingBlock: ICAMEG_clean_sbu_1, # of connection points: 4
#     Node 8, Type 0, BuildingBlock: ICAMEG_clean_sbu_1, # of connection points: 4
#     Node 9, Type 0, BuildingBlock: ICAMEG_clean_sbu_1, # of connection points: 4
#     Node 10, Type 0, BuildingBlock: ICAMEG_clean_sbu_1, # of connection points: 4
#     Node 11, Type 0, BuildingBlock: ICAMEG_clean_sbu_1, # of connection points: 4
#     Node 12, Type 0, BuildingBlock: ICAMEG_clean_sbu_1, # of connection points: 4
#     Node 13, Type 0, BuildingBlock: ICAMEG_clean_sbu_1, # of connection points: 4
#     Node 14, Type 0, BuildingBlock: ICAMEG_clean_sbu_1, # of connection points: 4
#     Node 15, Type 0, BuildingBlock: ICAMEG_clean_sbu_1, # of connection points: 4
#     Node 16, Type 0, BuildingBlock: ICAMEG_clean_sbu_1, # of connection points: 4
#     Node 17, Type 0, BuildingBlock: ICAMEG_clean_sbu_1, # of connection points: 4
#     Node 18, Type 0, BuildingBlock: ICAMEG_clean_sbu_1, # of connection points: 4
#     Node 19, Type 0, BuildingBlock: ICAMEG_clean_sbu_1, # of connection points: 4
#     Node 20, Type 0, BuildingBlock: ICAMEG_clean_sbu_1, # of connection points: 4
#     Node 21, Type 0, BuildingBlock: ICAMEG_clean_sbu_1, # of connection points: 4
#     Node 22, Type 0, BuildingBlock: ICAMEG_clean_sbu_1, # of connection points: 4
#     Node 23, Type 0, BuildingBlock: ICAMEG_clean_sbu_1, # of connection points: 4
#     Edge 24, Type (0, 0), BuildingBlock: TEMPAE_clean_linker_10, # of connection points: 2
#     Edge 25, Type (0, 0), BuildingBlock: TEMPAE_clean_linker_10, # of connection points: 2
#     Edge 26, Type (0, 0), BuildingBlock: TEMPAE_clean_linker_10, # of connection points: 2
#     Edge 27, Type (0, 0), BuildingBlock: TEMPAE_clean_linker_10, # of connection points: 2
#     Edge 28, Type (0, 0), BuildingBlock: TEMPAE_clean_linker_10, # of connection points: 2
#     Edge 29, Type (0, 0), BuildingBlock: TEMPAE_clean_linker_10, # of connection points: 2
#     Edge 30, Type (0, 0), BuildingBlock: TEMPAE_clean_linker_10, # of connection points: 2
#     Edge 31, Type (0, 0), BuildingBlock: TEMPAE_clean_linker_10, # of connection points: 2
#     Edge 32, Type (0, 0), BuildingBlock: TEMPAE_clean_linker_10, # of connection points: 2
#     Edge 33, Type (0, 0), BuildingBlock: TEMPAE_clean_linker_10, # of connection points: 2
#     Edge 34, Type (0, 0), BuildingBlock: TEMPAE_clean_linker_10, # of connection points: 2
#     Edge 35, Type (0, 0), BuildingBlock: TEMPAE_clean_linker_10, # of connection points: 2
#     Edge 36, Type (0, 0), BuildingBlock: TEMPAE_clean_linker_10, # of connection points: 2
#     Edge 37, Type (0, 0), BuildingBlock: TEMPAE_clean_linker_10, # of connection points: 2
#     Edge 38, Type (0, 0), BuildingBlock: TEMPAE_clean_linker_10, # of connection points: 2
#     Edge 39, Type (0, 0), BuildingBlock: TEMPAE_clean_linker_10, # of connection points: 2
#     Edge 40, Type (0, 0), BuildingBlock: TEMPAE_clean_linker_10, # of connection points: 2
#     Edge 41, Type (0, 0), BuildingBlock: TEMPAE_clean_linker_10, # of connection points: 2
#     Edge 42, Type (0, 0), BuildingBlock: TEMPAE_clean_linker_10, # of connection points: 2
#     Edge 43, Type (0, 0), BuildingBlock: TEMPAE_clean_linker_10, # of connection points: 2
#     Edge 44, Type (0, 0), BuildingBlock: TEMPAE_clean_linker_10, # of connection points: 2
#     Edge 45, Type (0, 0), BuildingBlock: TEMPAE_clean_linker_10, # of connection points: 2
#     Edge 46, Type (0, 0), BuildingBlock: TEMPAE_clean_linker_10, # of connection points: 2
#     Edge 47, Type (0, 0), BuildingBlock: TEMPAE_clean_linker_10, # of connection points: 2
#     Edge 48, Type (0, 0), BuildingBlock: TEMPAE_clean_linker_10, # of connection points: 2
#     Edge 49, Type (0, 0), BuildingBlock: TEMPAE_clean_linker_10, # of connection points: 2
#     Edge 50, Type (0, 0), BuildingBlock: TEMPAE_clean_linker_10, # of connection points: 2
#     Edge 51, Type (0, 0), BuildingBlock: TEMPAE_clean_linker_10, # of connection points: 2
#     Edge 52, Type (0, 0), BuildingBlock: TEMPAE_clean_linker_10, # of connection points: 2
#     Edge 53, Type (0, 0), BuildingBlock: TEMPAE_clean_linker_10, # of connection points: 2
#     Edge 54, Type (0, 0), BuildingBlock: TEMPAE_clean_linker_10, # of connection points: 2
#     Edge 55, Type (0, 0), BuildingBlock: TEMPAE_clean_linker_10, # of connection points: 2
#     Edge 56, Type (0, 0), BuildingBlock: TEMPAE_clean_linker_10, # of connection points: 2
#     Edge 57, Type (0, 0), BuildingBlock: TEMPAE_clean_linker_10, # of connection points: 2
#     Edge 58, Type (0, 0), BuildingBlock: TEMPAE_clean_linker_10, # of connection points: 2
#     Edge 59, Type (0, 0), BuildingBlock: TEMPAE_clean_linker_10, # of connection points: 2
#     Edge 60, Type (0, 0), BuildingBlock: TEMPAE_clean_linker_10, # of connection points: 2
#     Edge 61, Type (0, 0), BuildingBlock: TEMPAE_clean_linker_10, # of connection points: 2
#     Edge 62, Type (0, 0), BuildingBlock: TEMPAE_clean_linker_10, # of connection points: 2
#     Edge 63, Type (0, 0), BuildingBlock: TEMPAE_clean_linker_10, # of connection points: 2
#     Edge 64, Type (0, 0), BuildingBlock: TEMPAE_clean_linker_10, # of connection points: 2
#     Edge 65, Type (0, 0), BuildingBlock: TEMPAE_clean_linker_10, # of connection points: 2
#     Edge 66, Type (0, 0), BuildingBlock: TEMPAE_clean_linker_10, # of connection points: 2
#     Edge 67, Type (0, 0), BuildingBlock: TEMPAE_clean_linker_10, # of connection points: 2
#     Edge 68, Type (0, 0), BuildingBlock: TEMPAE_clean_linker_10, # of connection points: 2
#     Edge 69, Type (0, 0), BuildingBlock: TEMPAE_clean_linker_10, # of connection points: 2
#     Edge 70, Type (0, 0), BuildingBlock: TEMPAE_clean_linker_10, # of connection points: 2
#     Edge 71, Type (0, 0), BuildingBlock: TEMPAE_clean_linker_10, # of connection points: 2
# Relax obj value: 0.062
# Max RMSD: 0.066
# Mean RMSD: 0.066
data_MOF--net-gme--node1-ICAMEG_clean_sbu_1--edge1-TEMPAE_clean_linker_10
_symmetry_space_group_name_H-M    P1
_symmetry_Int_Tables_number       1
_symmetry_cell_setting            triclinic
loop_
_symmetry_equiv_pos_as_xyz
'x, y, z'
_cell_length_a     59.534993
_cell_length_b     59.528827
_cell_length_c     61.056111
_cell_angle_alpha  90.004063
_cell_angle_beta   89.993468
_cell_angle_gamma 119.99555
loop_
_atom_site_label
_atom_site_type_symbol
_atom_site_fract_x
_atom_site_fract_y
_atom_site_fract_z
_atom_type_partial_charge
Co0 Co 0.43406 0.09464 0.12134 0.0
Co1 Co 0.38554 0.03024 0.12107 0.0
O2 O 0.40137 0.06603 0.1108 0.0
C3 C 0.39681 0.11265 0.13139 0.0
O4 O 0.38208 0.09063 0.14156 0.0
C5 C 0.39624 0.02821 0.07426 0.0
O6 O 0.41919 0.04815 0.07846 0.0
O7 O 0.41945 0.03082 0.12099 0.0
O8 O 0.45062 0.07281 0.12001 0.0
H9 H 0.37689 0.95768 0.16895 0.0
H10 H 0.4078 0.10152 0.08277 0.0
O11 O 0.41805 0.11722 0.12254 0.0
H12 H 0.49399 0.12107 0.05631 0.0
H13 H 0.50443 0.18831 0.12575 0.0
H14 H 0.47397 0.09976 0.15316 0.0
H15 H 0.48176 0.10977 0.09504 0.0
H16 H 0.46353 0.15148 0.11218 0.0
O17 O 0.37967 0.01795 0.08969 0.0
H18 H 0.39703 0.00297 0.15613 0.0
H19 H 0.33935 0.98085 0.10692 0.0
H20 H 0.51508 0.13598 0.16704 0.0
H21 H 0.41931 0.113 0.04395 0.0
H22 H 0.53056 0.18065 0.15332 0.0
H23 H 0.46262 0.12271 0.03047 0.0
O24 O 0.42401 0.08399 0.15245 0.0
H25 H 0.31608 0.04529 0.08981 0.0
H26 H 0.34269 0.0132 0.15352 0.0
H27 H 0.30115 0.01297 0.15461 0.0
H28 H 0.28759 0.02905 0.12256 0.0
H29 H 0.35757 0.04541 0.08951 0.0
H30 H 0.31867 0.93527 0.11909 0.0
H31 H 0.33742 0.92347 0.15037 0.0
O32 O 0.39152 0.04234 0.15227 0.0
C33 C 0.44319 0.04869 0.1204 0.0
C34 C 0.36849 0.96259 0.15534 0.0
C35 C 0.33584 0.95 0.12734 0.0
N36 N 0.36926 0.99454 0.13091 0.0
C37 C 0.37977 0.98821 0.14806 0.0
C38 C 0.34766 0.97582 0.12049 0.0
C39 C 0.34636 0.9434 0.1449 0.0
C40 C 0.42678 0.10597 0.07707 0.0
N41 N 0.44409 0.10495 0.09115 0.0
C42 C 0.43315 0.11236 0.05505 0.0
C43 C 0.45744 0.11778 0.0475 0.0
C44 C 0.47504 0.11684 0.06198 0.0
C45 C 0.46799 0.11035 0.08388 0.0
C46 C 0.49791 0.16893 0.13183 0.0
C47 C 0.48065 0.11911 0.14702 0.0
C48 C 0.47473 0.14801 0.12425 0.0
N49 N 0.46645 0.12347 0.13178 0.0
C50 C 0.50391 0.13956 0.15498 0.0
C51 C 0.51256 0.16462 0.14729 0.0
C52 C 0.40732 0.06331 0.16219 0.0
C53 C 0.32175 0.03818 0.10386 0.0
C54 C 0.33696 0.02032 0.13955 0.0
C55 C 0.31339 0.02008 0.14024 0.0
C56 C 0.30579 0.02909 0.12225 0.0
N57 N 0.35248 0.02923 0.12144 0.0
C58 C 0.34518 0.03812 0.10375 0.0
Co59 Co 0.3403 0.4358 0.63736 0.0
Co60 Co 0.35566 0.38769 0.6298 0.0
O61 O 0.33666 0.40549 0.6218 0.0
C62 C 0.28354 0.39982 0.63674 0.0
O63 O 0.28782 0.38061 0.64072 0.0
C64 C 0.36823 0.40081 0.5833 0.0
O65 O 0.3735 0.42429 0.58872 0.0
O66 O 0.38928 0.42087 0.62968 0.0
O67 O 0.37833 0.44989 0.64131 0.0
H68 H 0.42018 0.37409 0.67228 0.0
H69 H 0.3147 0.42252 0.59397 0.0
O70 O 0.30236 0.42281 0.63416 0.0
H71 H 0.39072 0.51002 0.58533 0.0
H72 H 0.32256 0.50896 0.65076 0.0
H73 H 0.36816 0.46426 0.67739 0.0
H74 H 0.3809 0.48774 0.62104 0.0
H75 H 0.31893 0.47121 0.63088 0.0
O76 O 0.36048 0.38314 0.59787 0.0
H77 H 0.39597 0.39633 0.66258 0.0
H78 H 0.35588 0.341 0.61249 0.0
H79 H 0.37253 0.50208 0.69766 0.0
H80 H 0.32364 0.44422 0.55799 0.0
H81 H 0.34961 0.5247 0.68436 0.0
H82 H 0.36196 0.48824 0.55349 0.0
O83 O 0.33324 0.41724 0.66562 0.0
H84 H 0.26945 0.32147 0.59875 0.0
H85 H 0.32953 0.3435 0.66111 0.0
H86 H 0.28758 0.30263 0.66176 0.0
H87 H 0.25723 0.29137 0.6304 0.0
H88 H 0.31148 0.36228 0.59889 0.0
H89 H 0.37982 0.3183 0.6215 0.0
H90 H 0.41216 0.33478 0.65166 0.0
O91 O 0.35144 0.39217 0.66193 0.0
C92 C 0.39512 0.4434 0.63641 0.0
C93 C 0.40607 0.36666 0.65916 0.0
C94 C 0.38344 0.33537 0.63064 0.0
N95 N 0.37436 0.36981 0.63714 0.0
C96 C 0.39224 0.37912 0.65365 0.0
C97 C 0.36998 0.34833 0.62559 0.0
C98 C 0.40158 0.34462 0.64757 0.0
C99 C 0.33122 0.4418 0.59218 0.0
N100 N 0.34717 0.45388 0.60959 0.0
C101 C 0.33626 0.45395 0.57176 0.0
C102 C 0.35779 0.47863 0.56923 0.0
C103 C 0.37394 0.49085 0.58709 0.0
C104 C 0.36831 0.47811 0.60726 0.0
C105 C 0.3327 0.49932 0.65668 0.0
C106 C 0.3583 0.47413 0.67141 0.0
C107 C 0.3307 0.47792 0.64551 0.0
N108 N 0.34354 0.46572 0.65285 0.0
C109 C 0.36077 0.49548 0.68299 0.0
C110 C 0.34789 0.50814 0.67553 0.0
C111 C 0.34086 0.40233 0.6734 0.0
C112 C 0.28254 0.32613 0.61249 0.0
C113 C 0.31638 0.3388 0.64745 0.0
C114 C 0.29269 0.31559 0.64788 0.0
C115 C 0.27568 0.30927 0.63027 0.0
N116 N 0.32297 0.35522 0.62995 0.0
C117 C 0.30641 0.34915 0.61261 0.0
Co118 Co 0.90623 0.33635 0.13072 0.0
Co119 Co 0.97155 0.35747 0.12768 0.0
O120 O 0.93577 0.33549 0.11803 0.0
C121 C 0.88933 0.28048 0.1353 0.0
O122 O 0.91059 0.28702 0.14644 0.0
C123 C 0.97258 0.36861 0.08074 0.0
O124 O 0.95283 0.37194 0.08498 0.0
O125 O 0.96844 0.38918 0.12599 0.0
O126 O 0.92664 0.3749 0.13412 0.0
H127 H 0.04339 0.42711 0.17253 0.0
H128 H 0.90017 0.30983 0.08821 0.0
O129 O 0.88495 0.29778 0.12753 0.0
H130 H 0.87978 0.37906 0.07302 0.0
H131 H 0.81154 0.3087 0.13675 0.0
H132 H 0.89864 0.36345 0.16828 0.0
H133 H 0.89098 0.3724 0.11041 0.0
H134 H 0.84968 0.30906 0.12054 0.0
O135 O 0.98301 0.36257 0.09619 0.0
H136 H 0.99804 0.39915 0.16071 0.0
H137 H 0.02188 0.3627 0.11372 0.0
H138 H 0.86108 0.36389 0.18487 0.0
H139 H 0.88881 0.31566 0.0506 0.0
H140 H 0.81714 0.33636 0.16909 0.0
H141 H 0.87865 0.35058 0.04279 0.0
O142 O 0.9168 0.33227 0.1606 0.0
H143 H 0.96118 0.27328 0.10008 0.0
H144 H 0.99137 0.3355 0.16142 0.0
H145 H 0.99452 0.29583 0.16426 0.0
H146 H 0.9794 0.26442 0.13341 0.0
H147 H 0.9582 0.3131 0.09801 0.0
H148 H 0.06753 0.39043 0.12487 0.0
H149 H 0.0785 0.42284 0.15455 0.0
O150 O 0.96047 0.35284 0.15926 0.0
C151 C 0.94979 0.39307 0.13058 0.0
C152 C 0.03884 0.41299 0.15964 0.0
C153 C 0.0524 0.39243 0.13286 0.0
N154 N 0.00732 0.37916 0.13671 0.0
C155 C 0.0132 0.39705 0.15294 0.0
C156 C 0.02653 0.37682 0.12659 0.0
C157 C 0.05854 0.41061 0.14952 0.0
C158 C 0.89545 0.32486 0.08498 0.0
N159 N 0.89612 0.34067 0.1015 0.0
C160 C 0.88916 0.32815 0.06364 0.0
C161 C 0.88351 0.34777 0.05927 0.0
C162 C 0.88415 0.36377 0.07621 0.0
C163 C 0.89056 0.35993 0.09735 0.0
C164 C 0.8306 0.32084 0.14373 0.0
C165 C 0.87961 0.35159 0.16122 0.0
C166 C 0.85226 0.3211 0.13465 0.0
N167 N 0.87639 0.33648 0.14333 0.0
C168 C 0.85841 0.35184 0.17073 0.0
C169 C 0.83376 0.33637 0.16188 0.0
C170 C 0.93896 0.3415 0.16969 0.0
C171 C 0.9679 0.28685 0.1136 0.0
C172 C 0.98469 0.32189 0.14796 0.0
C173 C 0.98657 0.29949 0.14964 0.0
C174 C 0.97809 0.28188 0.13232 0.0
N175 N 0.97474 0.32666 0.12952 0.0
C176 C 0.96634 0.30947 0.11249 0.0
Co177 Co 0.56512 0.90605 0.63724 0.0
Co178 Co 0.61212 0.96992 0.62939 0.0
O179 O 0.59534 0.93304 0.62182 0.0
C180 C 0.6025 0.887 0.63856 0.0
O181 O 0.62104 0.91078 0.64268 0.0
C182 C 0.59941 0.96835 0.58269 0.0
O183 O 0.57608 0.94971 0.58796 0.0
O184 O 0.57838 0.96924 0.62861 0.0
O185 O 0.54979 0.92904 0.6401 0.0
H186 H 0.62283 0.04779 0.67053 0.0
H187 H 0.58009 0.89371 0.59461 0.0
O188 O 0.57938 0.88206 0.63513 0.0
H189 H 0.49159 0.87883 0.58376 0.0
H190 H 0.49386 0.81436 0.65112 0.0
H191 H 0.53523 0.90509 0.67641 0.0
H192 H 0.51303 0.89263 0.61973 0.0
H193 H 0.53139 0.84892 0.63135 0.0
O194 O 0.61683 0.97879 0.59741 0.0
H195 H 0.60188 0.00126 0.66134 0.0
H196 H 0.65823 0.01731 0.612 0.0
H197 H 0.49759 0.8712 0.69655 0.0
H198 H 0.55925 0.87963 0.5584 0.0
H199 H 0.47665 0.82545 0.68392 0.0
H200 H 0.51473 0.87222 0.55278 0.0
O201 O 0.58293 0.9185 0.66569 0.0
H202 H 0.68028 0.95172 0.60005 0.0
H203 H 0.65611 0.98972 0.66108 0.0
H204 H 0.69762 0.98993 0.66251 0.0
H205 H 0.70995 0.97087 0.63182 0.0
H206 H 0.63883 0.95168 0.59939 0.0
H207 H 0.67965 0.06404 0.62049 0.0
H208 H 0.66201 0.07953 0.65002 0.0
O209 O 0.60755 0.96174 0.66158 0.0
C210 C 0.55583 0.95212 0.63492 0.0
C211 C 0.63076 0.04127 0.65769 0.0
C212 C 0.66263 0.0504 0.62958 0.0
N213 N 0.62898 0.00657 0.63631 0.0
C214 C 0.61904 0.01494 0.65247 0.0
C215 C 0.6504 0.02392 0.62482 0.0
C216 C 0.65273 0.05907 0.64616 0.0
C217 C 0.5606 0.89021 0.59234 0.0
N218 N 0.54776 0.89387 0.60927 0.0
C219 C 0.54894 0.88237 0.57179 0.0
C220 C 0.52397 0.87825 0.56864 0.0
C221 C 0.51098 0.88197 0.58601 0.0
C222 C 0.52325 0.88984 0.60633 0.0
C223 C 0.50276 0.83424 0.65674 0.0
C224 C 0.52609 0.88526 0.67071 0.0
C225 C 0.52404 0.85388 0.64563 0.0
N226 N 0.53531 0.87903 0.6526 0.0
C227 C 0.50484 0.86614 0.68222 0.0
C228 C 0.49311 0.84047 0.67514 0.0
C229 C 0.59754 0.94119 0.67327 0.0
C230 C 0.67516 0.96015 0.6135 0.0
C231 C 0.66129 0.98129 0.6477 0.0
C232 C 0.68485 0.98153 0.64858 0.0
C233 C 0.69177 0.97086 0.63134 0.0
N234 N 0.6451 0.97076 0.63014 0.0
C235 C 0.65177 0.96028 0.61317 0.0
Co236 Co 0.66377 0.56447 0.13102 0.0
Co237 Co 0.64492 0.61067 0.12613 0.0
O238 O 0.66659 0.59575 0.11807 0.0
C239 C 0.71913 0.60433 0.1379 0.0
O240 O 0.71221 0.62169 0.14188 0.0
C241 C 0.63534 0.59935 0.07895 0.0
O242 O 0.63221 0.57645 0.08369 0.0
O243 O 0.61253 0.57619 0.12515 0.0
O244 O 0.62517 0.54668 0.12971 0.0
H245 H 0.57561 0.61678 0.16818 0.0
H246 H 0.69616 0.58813 0.09166 0.0
O247 O 0.70233 0.58118 0.13273 0.0
H248 H 0.63183 0.49889 0.06987 0.0
H249 H 0.68937 0.49636 0.1418 0.0
H250 H 0.63028 0.52743 0.16511 0.0
H251 H 0.63248 0.51416 0.10755 0.0
H252 H 0.69212 0.53533 0.12499 0.0
O253 O 0.64058 0.61594 0.09417 0.0
H254 H 0.60294 0.59797 0.15836 0.0
H255 H 0.64127 0.65588 0.10976 0.0
H256 H 0.62667 0.48819 0.18219 0.0
H257 H 0.69644 0.57363 0.05385 0.0
H258 H 0.65637 0.47243 0.17055 0.0
H259 H 0.664 0.52875 0.04272 0.0
O260 O 0.66367 0.57738 0.16103 0.0
H261 H 0.73015 0.68211 0.09775 0.0
H262 H 0.66738 0.65382 0.15863 0.0
H263 H 0.70761 0.69626 0.16075 0.0
H264 H 0.7393 0.71066 0.13014 0.0
H265 H 0.68979 0.63973 0.09639 0.0
H266 H 0.61421 0.67523 0.11893 0.0
H267 H 0.58117 0.6557 0.14839 0.0
O268 O 0.64877 0.6054 0.15807 0.0
C269 C 0.6077 0.55289 0.12727 0.0
C270 C 0.59 0.62553 0.15537 0.0
C271 C 0.61165 0.65831 0.1277 0.0
N272 N 0.62382 0.62595 0.13365 0.0
C273 C 0.60559 0.61501 0.14979 0.0
C274 C 0.62687 0.64724 0.12255 0.0
C275 C 0.59311 0.64734 0.14424 0.0
C276 C 0.68211 0.56852 0.08696 0.0
N277 N 0.66422 0.55204 0.10175 0.0
C278 C 0.68231 0.56044 0.06552 0.0
C279 C 0.66409 0.53527 0.05928 0.0
C280 C 0.64601 0.51852 0.0745 0.0
C281 C 0.64637 0.52729 0.09578 0.0
C282 C 0.67627 0.503 0.14698 0.0
C283 C 0.64313 0.52056 0.15984 0.0
C284 C 0.67777 0.52508 0.13755 0.0
N285 N 0.66122 0.5335 0.14394 0.0
C286 C 0.64106 0.49839 0.16962 0.0
C287 C 0.65775 0.48958 0.1631 0.0
C288 C 0.65675 0.59265 0.16931 0.0
C289 C 0.71645 0.67608 0.11116 0.0
C290 C 0.68111 0.65992 0.14528 0.0
C291 C 0.70383 0.68399 0.14654 0.0
C292 C 0.7216 0.69207 0.12936 0.0
N293 N 0.6762 0.64437 0.12736 0.0
C294 C 0.69351 0.65216 0.11044 0.0
Co295 Co 0.09854 0.66283 0.62526 0.0
Co296 Co 0.03445 0.64797 0.62225 0.0
O297 O 0.07092 0.66793 0.61349 0.0
C298 C 0.11526 0.71791 0.63506 0.0
O299 O 0.09097 0.71111 0.63878 0.0
C300 C 0.03458 0.63683 0.57514 0.0
O301 O 0.05474 0.63423 0.57946 0.0
O302 O 0.0347 0.61445 0.62202 0.0
O303 O 0.07654 0.62472 0.62156 0.0
H304 H 0.95901 0.58283 0.66695 0.0
H305 H 0.10926 0.69925 0.58842 0.0
O306 O 0.1214 0.70111 0.62931 0.0
H307 H 0.13013 0.63411 0.5604 0.0
H308 H 0.19125 0.68437 0.63468 0.0
H309 H 0.10036 0.62523 0.656 0.0
H310 H 0.11529 0.63188 0.59847 0.0
H311 H 0.15601 0.69011 0.61959 0.0
O312 O 0.02375 0.64253 0.5905 0.0
H313 H 0.00499 0.60809 0.65598 0.0
H314 H 0.98612 0.64588 0.60635 0.0
H315 H 0.13496 0.61863 0.67133 0.0
H316 H 0.12429 0.70239 0.55029 0.0
H317 H 0.1808 0.64835 0.66068 0.0
H318 H 0.13472 0.66959 0.53603 0.0
O319 O 0.08553 0.66018 0.65573 0.0
H320 H 0.05204 0.73365 0.59171 0.0
H321 H 0.01607 0.67325 0.65409 0.0
H322 H 0.01634 0.71481 0.65524 0.0
H323 H 0.03441 0.74533 0.62387 0.0
H324 H 0.05159 0.69198 0.59134 0.0
H325 H 0.93989 0.6209 0.61666 0.0
H326 H 0.92611 0.58917 0.64722 0.0
O327 O 0.04467 0.65305 0.65391 0.0
C328 C 0.05236 0.60828 0.62128 0.0
C329 C 0.96479 0.59665 0.65365 0.0
C330 C 0.95405 0.61799 0.62541 0.0
N331 N 0.99823 0.62855 0.63066 0.0
C332 C 0.9908 0.61106 0.64742 0.0
C333 C 0.98024 0.63204 0.61961 0.0
C334 C 0.94633 0.6002 0.64256 0.0
C335 C 0.11399 0.68504 0.58238 0.0
N336 N 0.11143 0.66542 0.59565 0.0
C337 C 0.1224 0.68686 0.56076 0.0
C338 C 0.12822 0.66843 0.55276 0.0
C339 C 0.12563 0.64851 0.56642 0.0
C340 C 0.11714 0.6473 0.58794 0.0
C341 C 0.17135 0.67127 0.63941 0.0
C342 C 0.12024 0.63814 0.65118 0.0
C343 C 0.15132 0.67446 0.63097 0.0
N344 N 0.12614 0.65793 0.63682 0.0
C345 C 0.13976 0.63435 0.65996 0.0
C346 C 0.16547 0.65105 0.654 0.0
C347 C 0.06469 0.65684 0.66464 0.0
C348 C 0.04406 0.72049 0.60545 0.0
C349 C 0.02402 0.68646 0.64041 0.0
C350 C 0.02407 0.70994 0.64113 0.0
C351 C 0.0342 0.72704 0.62352 0.0
N352 N 0.03373 0.68018 0.62263 0.0
C353 C 0.04365 0.69682 0.60529 0.0
Co354 Co 0.90395 0.56664 0.36467 0.0
Co355 Co 0.96758 0.61362 0.37309 0.0
O356 O 0.93064 0.59673 0.3804 0.0
C357 C 0.88413 0.60341 0.36359 0.0
O358 O 0.90773 0.6221 0.35913 0.0
C359 C 0.96576 0.60127 0.42005 0.0
O360 O 0.94743 0.57777 0.4148 0.0
O361 O 0.96703 0.57994 0.37411 0.0
O362 O 0.92731 0.55175 0.36144 0.0
H363 H 0.04594 0.62443 0.33274 0.0
H364 H 0.89112 0.58057 0.40757 0.0
O365 O 0.8796 0.58044 0.36714 0.0
H366 H 0.8773 0.49227 0.41717 0.0
H367 H 0.81269 0.49476 0.35029 0.0
H368 H 0.90349 0.53768 0.32501 0.0
H369 H 0.8911 0.51442 0.38147 0.0
H370 H 0.8469 0.53221 0.3704 0.0
O371 O 0.97617 0.61858 0.40522 0.0
H372 H 0.99932 0.60343 0.34154 0.0
H373 H 0.0147 0.6599 0.39061 0.0
H374 H 0.86994 0.50013 0.30453 0.0
H375 H 0.87703 0.55902 0.44352 0.0
H376 H 0.82416 0.47841 0.31715 0.0
H377 H 0.87015 0.5146 0.4485 0.0
O378 O 0.91642 0.58501 0.33642 0.0
H379 H 0.94862 0.68163 0.4015 0.0
H380 H 0.98756 0.65745 0.34123 0.0
H381 H 0.98756 0.69883 0.33937 0.0
H382 H 0.96802 0.71117 0.36968 0.0
H383 H 0.94881 0.6403 0.40258 0.0
H384 H 0.06153 0.68139 0.38249 0.0
H385 H 0.0774 0.66371 0.3533 0.0
O386 O 0.9597 0.60883 0.34075 0.0
C387 C 0.95021 0.55762 0.36707 0.0
C388 C 0.03926 0.63238 0.34544 0.0
C389 C 0.04801 0.66433 0.37338 0.0
N390 N 0.0043 0.63058 0.36642 0.0
C391 C 0.01288 0.62062 0.35044 0.0
C392 C 0.02149 0.65205 0.37793 0.0
C393 C 0.0569 0.6544 0.357 0.0
C394 C 0.88786 0.56112 0.40956 0.0
N395 N 0.89182 0.54873 0.39243 0.0
C396 C 0.88001 0.54906 0.42997 0.0
C397 C 0.87619 0.52415 0.43277 0.0
C398 C 0.88021 0.51162 0.4152 0.0
C399 C 0.88808 0.52429 0.39503 0.0
C400 C 0.83258 0.50401 0.34467 0.0
C401 C 0.88364 0.52819 0.3307 0.0
C402 C 0.85203 0.52524 0.35597 0.0
N403 N 0.8772 0.53694 0.349 0.0
C404 C 0.86472 0.507 0.31899 0.0
C405 C 0.83903 0.49485 0.32607 0.0
C406 C 0.93923 0.59924 0.32893 0.0
C407 C 0.95725 0.6765 0.38822 0.0
C408 C 0.97893 0.66263 0.35444 0.0
C409 C 0.97905 0.68613 0.35333 0.0
C410 C 0.9681 0.69305 0.37035 0.0
N411 N 0.96826 0.64652 0.37203 0.0
C412 C 0.95752 0.65318 0.38879 0.0
Co413 Co 0.339 0.90201 0.8642 0.0
Co414 Co 0.3522 0.96516 0.87142 0.0
O415 O 0.33351 0.9282 0.87852 0.0
C416 C 0.28295 0.88303 0.85839 0.0
O417 O 0.28874 0.907 0.85439 0.0
C418 C 0.36334 0.96287 0.91818 0.0
O419 O 0.36841 0.94459 0.91254 0.0
O420 O 0.38639 0.96637 0.87144 0.0
O421 O 0.37721 0.9255 0.86475 0.0
H422 H 0.41615 0.04476 0.83023 0.0
H423 H 0.30627 0.88806 0.90404 0.0
O424 O 0.30069 0.87778 0.86298 0.0
H425 H 0.37858 0.87367 0.92318 0.0
H426 H 0.32097 0.81095 0.85125 0.0
H427 H 0.37337 0.90248 0.82881 0.0
H428 H 0.37547 0.88854 0.88619 0.0
H429 H 0.31507 0.84475 0.86923 0.0
O430 O 0.35648 0.9736 0.9036 0.0
H431 H 0.39231 0.99803 0.83897 0.0
H432 H 0.3517 0.01124 0.88991 0.0
H433 H 0.3801 0.86938 0.8105 0.0
H434 H 0.30851 0.87296 0.94118 0.0
H435 H 0.35377 0.82321 0.82171 0.0
H436 H 0.34493 0.86579 0.95097 0.0
O437 O 0.33763 0.9154 0.83477 0.0
H438 H 0.26473 0.94181 0.9018 0.0
H439 H 0.32622 0.98422 0.84098 0.0
H440 H 0.28376 0.98207 0.84024 0.0
H441 H 0.25269 0.96075 0.87083 0.0
H442 H 0.3073 0.94418 0.90176 0.0
H443 H 0.37525 0.05814 0.88186 0.0
H444 H 0.40767 0.07516 0.85177 0.0
O445 O 0.34811 0.95714 0.83919 0.0
C446 C 0.39319 0.9495 0.86786 0.0
C447 C 0.40201 0.03757 0.84333 0.0
C448 C 0.37908 0.04509 0.87233 0.0
N449 N 0.3705 0.00193 0.8648 0.0
C450 C 0.3884 0.01113 0.84831 0.0
C451 C 0.36585 0.01853 0.87685 0.0
C452 C 0.39726 0.05462 0.85544 0.0
C453 C 0.322 0.88467 0.90811 0.0
N454 N 0.34061 0.88901 0.89294 0.0
C455 C 0.32324 0.87625 0.92919 0.0
C456 C 0.3437 0.87226 0.93469 0.0
C457 C 0.36259 0.8767 0.9191 0.0
C458 C 0.36074 0.88515 0.89819 0.0
C459 C 0.3326 0.831 0.84624 0.0
C460 C 0.36198 0.88247 0.83386 0.0
C461 C 0.32932 0.85022 0.85634 0.0
N462 N 0.34402 0.8756 0.85017 0.0
C463 C 0.36581 0.86379 0.82339 0.0
C464 C 0.35101 0.83789 0.82968 0.0
C465 C 0.34225 0.93729 0.82726 0.0
C466 C 0.27812 0.95119 0.8884 0.0
C467 C 0.31275 0.97482 0.8543 0.0
C468 C 0.28877 0.97373 0.85383 0.0
C469 C 0.27136 0.96179 0.871 0.0
N470 N 0.31923 0.96435 0.8714 0.0
C471 C 0.30229 0.95268 0.88833 0.0
Co472 Co 0.43271 0.34087 0.37189 0.0
Co473 Co 0.3828 0.35377 0.38073 0.0
O474 O 0.40176 0.33561 0.38742 0.0
C475 C 0.39634 0.28442 0.36756 0.0
O476 O 0.37765 0.28958 0.36395 0.0
C477 C 0.39813 0.36669 0.42692 0.0
O478 O 0.42136 0.37182 0.4208 0.0
O479 O 0.41551 0.38815 0.37961 0.0
O480 O 0.44683 0.37896 0.37119 0.0
H481 H 0.36431 0.41579 0.33951 0.0
H482 H 0.41696 0.31005 0.41285 0.0
O483 O 0.41925 0.30262 0.37175 0.0
H484 H 0.50409 0.38424 0.42764 0.0
H485 H 0.50584 0.32365 0.35647 0.0
H486 H 0.46408 0.37387 0.33481 0.0
H487 H 0.48368 0.37903 0.39143 0.0
H488 H 0.46711 0.31802 0.37605 0.0
O489 O 0.37992 0.35894 0.41286 0.0
H490 H 0.38812 0.39276 0.34783 0.0
H491 H 0.33671 0.35318 0.40047 0.0
H492 H 0.5029 0.38031 0.31491 0.0
H493 H 0.43675 0.31439 0.44925 0.0
H494 H 0.52405 0.35506 0.32571 0.0
H495 H 0.48058 0.35177 0.45684 0.0
O496 O 0.41602 0.33778 0.34312 0.0
H497 H 0.32097 0.26686 0.41336 0.0
H498 H 0.33636 0.32655 0.35187 0.0
H499 H 0.2964 0.2838 0.35252 0.0
H500 H 0.2885 0.25363 0.38346 0.0
H501 H 0.3608 0.3097 0.41192 0.0
H502 H 0.31249 0.37595 0.39286 0.0
H503 H 0.32621 0.40744 0.36212 0.0
O504 O 0.38539 0.3489 0.3485 0.0
C505 C 0.43886 0.39489 0.37468 0.0
C506 C 0.3581 0.40206 0.3529 0.0
C507 C 0.32903 0.37973 0.38287 0.0
N508 N 0.36368 0.37152 0.3745 0.0
C509 C 0.37145 0.38891 0.35764 0.0
C510 C 0.34286 0.36694 0.38713 0.0
C511 C 0.33674 0.39738 0.36561 0.0
C512 C 0.43616 0.3262 0.41597 0.0
N513 N 0.44921 0.34416 0.40001 0.0
C514 C 0.44722 0.32862 0.43663 0.0
C515 C 0.4718 0.34962 0.44089 0.0
C516 C 0.485 0.36786 0.42452 0.0
C517 C 0.47332 0.36482 0.40406 0.0
C518 C 0.49683 0.3348 0.35163 0.0
C519 C 0.47327 0.36296 0.3397 0.0
C520 C 0.47486 0.33166 0.36262 0.0
N521 N 0.46343 0.34573 0.35665 0.0
C522 C 0.49521 0.36662 0.32833 0.0
C523 C 0.50704 0.35243 0.33438 0.0
C524 C 0.39853 0.34239 0.33616 0.0
C525 C 0.32418 0.27985 0.39981 0.0
C526 C 0.33312 0.31347 0.36531 0.0
C527 C 0.31042 0.28933 0.36564 0.0
C528 C 0.30598 0.27242 0.38301 0.0
N529 N 0.3509 0.32059 0.38182 0.0
C530 C 0.34664 0.30416 0.39895 0.0
Co531 Co 0.09468 0.42716 0.86549 0.0
Co532 Co 0.03184 0.3819 0.87806 0.0
O533 O 0.0692 0.39878 0.88357 0.0
C534 C 0.1146 0.39047 0.86657 0.0
O535 O 0.09081 0.3714 0.86346 0.0
C536 C 0.03696 0.39684 0.92458 0.0
O537 O 0.05508 0.41997 0.91825 0.0
O538 O 0.03315 0.41592 0.87844 0.0
O539 O 0.07105 0.44171 0.86163 0.0
H540 H 0.95121 0.37026 0.84125 0.0
H541 H 0.1106 0.41795 0.90896 0.0
O542 O 0.11926 0.4137 0.86855 0.0
H543 H 0.12485 0.50693 0.91215 0.0
H544 H 0.18464 0.49711 0.84454 0.0
H545 H 0.09214 0.45171 0.82404 0.0
H546 H 0.10857 0.481 0.87839 0.0
H547 H 0.15204 0.46209 0.86782 0.0
O548 O 0.02551 0.37879 0.9105 0.0
H549 H 0.99833 0.39105 0.84771 0.0
H550 H 0.98566 0.33702 0.89832 0.0
H551 H 0.12405 0.48672 0.80038 0.0
H552 H 0.12724 0.44335 0.94301 0.0
H553 H 0.17069 0.50969 0.81059 0.0
H554 H 0.13434 0.48813 0.94478 0.0
O555 O 0.08026 0.40579 0.8389 0.0
H556 H 0.05149 0.31456 0.90697 0.0
H557 H 0.00904 0.3363 0.84793 0.0
H558 H 0.00823 0.29448 0.84691 0.0
H559 H 0.02952 0.28337 0.8766 0.0
H560 H 0.05207 0.35629 0.90723 0.0
H561 H 0.93838 0.31577 0.89254 0.0
H562 H 0.92089 0.33233 0.86377 0.0
O563 O 0.03733 0.38477 0.84536 0.0
C564 C 0.0492 0.43713 0.86918 0.0
C565 C 0.9586 0.3628 0.85378 0.0
C566 C 0.9514 0.33224 0.88259 0.0
N567 N 0.99473 0.3651 0.87323 0.0
C568 C 0.98527 0.37445 0.85747 0.0
C569 C 0.97818 0.34438 0.88581 0.0
C570 C 0.9416 0.34154 0.86644 0.0
C571 C 0.11395 0.43754 0.90954 0.0
N572 N 0.10872 0.448 0.8917 0.0
C573 C 0.12325 0.45178 0.92889 0.0
C574 C 0.1272 0.47689 0.92988 0.0
C575 C 0.12186 0.48745 0.91159 0.0
C576 C 0.11258 0.47264 0.89253 0.0
C577 C 0.16437 0.4873 0.83995 0.0
C578 C 0.11237 0.46174 0.82867 0.0
C579 C 0.14583 0.46744 0.85305 0.0
N580 N 0.12019 0.45504 0.84739 0.0
C581 C 0.13036 0.4815 0.81518 0.0
C582 C 0.15653 0.49435 0.82091 0.0
C583 C 0.05684 0.39213 0.83265 0.0
C584 C 0.04208 0.31915 0.89397 0.0
C585 C 0.01845 0.33166 0.86087 0.0
C586 C 0.01786 0.30791 0.86023 0.0
C587 C 0.02979 0.30168 0.8769 0.0
N588 N 0.03054 0.34869 0.87766 0.0
C589 C 0.04225 0.3427 0.89408 0.0
Co590 Co 0.66509 0.09249 0.36911 0.0
Co591 Co 0.64602 0.02887 0.38021 0.0
O592 O 0.66687 0.06601 0.38668 0.0
C593 C 0.72154 0.1115 0.3704 0.0
O594 O 0.71655 0.08769 0.36686 0.0
C595 C 0.63464 0.03264 0.42653 0.0
O596 O 0.63036 0.05132 0.42044 0.0
O597 O 0.61361 0.03079 0.37994 0.0
O598 O 0.62696 0.06967 0.36451 0.0
H599 H 0.57762 0.95016 0.34081 0.0
H600 H 0.68931 0.10655 0.41301 0.0
O601 O 0.70315 0.11636 0.37282 0.0
H602 H 0.61577 0.12265 0.41617 0.0
H603 H 0.68743 0.1837 0.35023 0.0
H604 H 0.63937 0.09198 0.3274 0.0
H605 H 0.62565 0.10705 0.38211 0.0
H606 H 0.68843 0.14987 0.37284 0.0
O607 O 0.64144 0.02142 0.41241 0.0
H608 H 0.60433 0.99697 0.34853 0.0
H609 H 0.64305 0.98156 0.39972 0.0
H610 H 0.63766 0.12514 0.30439 0.0
H611 H 0.6803 0.12245 0.44737 0.0
H612 H 0.66182 0.17139 0.31577 0.0
H613 H 0.64323 0.13049 0.44911 0.0
O614 O 0.67224 0.07862 0.34228 0.0
H615 H 0.73143 0.04609 0.41106 0.0
H616 H 0.66927 0.00636 0.35026 0.0
H617 H 0.70987 0.00476 0.35002 0.0
H618 H 0.74126 0.02469 0.3806 0.0
H619 H 0.6907 0.04747 0.41053 0.0
H620 H 0.61659 0.93456 0.3927 0.0
H621 H 0.58367 0.9186 0.363 0.0
O622 O 0.65003 0.03549 0.34775 0.0
C623 C 0.60917 0.04754 0.37107 0.0
C624 C 0.59196 0.95688 0.35375 0.0
C625 C 0.61382 0.94812 0.38289 0.0
N626 N 0.62538 0.99199 0.37441 0.0
C627 C 0.6072 0.98336 0.35814 0.0
C628 C 0.6287 0.97475 0.38681 0.0
C629 C 0.59535 0.93918 0.36621 0.0
C630 C 0.67334 0.1103 0.41359 0.0
N631 N 0.65811 0.10598 0.39557 0.0
C632 C 0.66825 0.11918 0.43311 0.0
C633 C 0.64742 0.12365 0.43408 0.0
C634 C 0.632 0.11925 0.41561 0.0
C635 C 0.63766 0.11035 0.39638 0.0
C636 C 0.67675 0.16361 0.34513 0.0
C637 C 0.64977 0.11204 0.33255 0.0
C638 C 0.67727 0.14437 0.35785 0.0
N639 N 0.66377 0.11895 0.35154 0.0
C640 C 0.64879 0.13074 0.31941 0.0
C641 C 0.66238 0.15668 0.3258 0.0
C642 C 0.66265 0.05539 0.33556 0.0
C643 C 0.71787 0.03728 0.39767 0.0
C644 C 0.68288 0.01517 0.36358 0.0
C645 C 0.7058 0.01414 0.36339 0.0
C646 C 0.7234 0.0253 0.38056 0.0
N647 N 0.6776 0.02694 0.38043 0.0
C648 C 0.69474 0.03791 0.39733 0.0
Co649 Co 0.57084 0.66549 0.87116 0.0
Co650 Co 0.61592 0.64569 0.87616 0.0
O651 O 0.60107 0.66706 0.88492 0.0
C652 C 0.60899 0.72168 0.86688 0.0
O653 O 0.62438 0.71563 0.8562 0.0
C654 C 0.60426 0.63436 0.92301 0.0
O655 O 0.58114 0.63049 0.91807 0.0
O656 O 0.58142 0.61352 0.87721 0.0
O657 O 0.5536 0.62699 0.86778 0.0
H658 H 0.6215 0.57693 0.83275 0.0
H659 H 0.5892 0.69212 0.91392 0.0
O660 O 0.58727 0.70402 0.8743 0.0
H661 H 0.49966 0.62152 0.92703 0.0
H662 H 0.50252 0.69105 0.86222 0.0
H663 H 0.53793 0.63796 0.83282 0.0
H664 H 0.51907 0.62858 0.89021 0.0
H665 H 0.54014 0.69166 0.87979 0.0
O666 O 0.62134 0.64082 0.908 0.0
H667 H 0.60279 0.60412 0.84342 0.0
H668 H 0.66117 0.64168 0.89179 0.0
H669 H 0.50014 0.63657 0.81487 0.0
H670 H 0.57044 0.68591 0.95096 0.0
H671 H 0.48219 0.66327 0.82958 0.0
H672 H 0.5254 0.65031 0.95772 0.0
O673 O 0.58669 0.66989 0.84176 0.0
H674 H 0.68748 0.73068 0.90475 0.0
H675 H 0.65888 0.6684 0.84349 0.0
H676 H 0.7013 0.70865 0.8414 0.0
H677 H 0.71587 0.74009 0.87221 0.0
H678 H 0.64511 0.69028 0.90608 0.0
H679 H 0.68039 0.61473 0.8818 0.0
H680 H 0.66058 0.58216 0.85202 0.0
O681 O 0.61041 0.65005 0.84425 0.0
C682 C 0.55891 0.60913 0.87181 0.0
C683 C 0.63037 0.59112 0.8457 0.0
C684 C 0.6634 0.61232 0.87325 0.0
N685 N 0.63104 0.62463 0.86804 0.0
C686 C 0.61991 0.60663 0.85175 0.0
C687 C 0.65241 0.62748 0.87886 0.0
C688 C 0.65228 0.59405 0.85653 0.0
C689 C 0.56947 0.67679 0.91668 0.0
N690 N 0.55521 0.66082 0.8999 0.0
C691 C 0.559 0.67329 0.93771 0.0
C692 C 0.53374 0.65328 0.9415 0.0
C693 C 0.51929 0.63711 0.92429 0.0
C694 C 0.53041 0.64117 0.90348 0.0
C695 C 0.51011 0.67927 0.8557 0.0
C696 C 0.5301 0.64946 0.83942 0.0
C697 C 0.53143 0.67956 0.86556 0.0
N698 N 0.54103 0.66464 0.85747 0.0
C699 C 0.50875 0.64867 0.82914 0.0
C700 C 0.49872 0.66368 0.83739 0.0
C701 C 0.60024 0.661 0.83326 0.0
C702 C 0.68138 0.7171 0.89125 0.0
C703 C 0.66506 0.68203 0.85694 0.0
C704 C 0.68912 0.70475 0.85568 0.0
C705 C 0.69729 0.72238 0.87298 0.0
N706 N 0.64961 0.67695 0.87495 0.0
C707 C 0.65746 0.69416 0.89195 0.0
Co708 Co 0.56603 0.90489 0.87614 0.0
Co709 Co 0.61658 0.96828 0.88036 0.0
O710 O 0.59875 0.93158 0.88875 0.0
C711 C 0.60328 0.88623 0.86789 0.0
O712 O 0.62197 0.91034 0.86556 0.0
C713 C 0.60355 0.96778 0.92691 0.0
O714 O 0.58079 0.94791 0.92207 0.0
O715 O 0.58345 0.96931 0.87953 0.0
O716 O 0.55103 0.92783 0.87964 0.0
H717 H 0.63136 0.04532 0.83559 0.0
H718 H 0.58939 0.89205 0.91349 0.0
O719 O 0.58025 0.88096 0.87229 0.0
H720 H 0.50357 0.87412 0.93953 0.0
H721 H 0.49276 0.81352 0.8648 0.0
H722 H 0.52852 0.90536 0.8445 0.0
H723 H 0.51782 0.88946 0.90181 0.0
H724 H 0.53386 0.84739 0.88089 0.0
O725 O 0.62074 0.9785 0.91205 0.0
H726 H 0.60884 0.99914 0.84616 0.0
H727 H 0.66302 0.01558 0.89751 0.0
H728 H 0.48724 0.87216 0.82819 0.0
H729 H 0.57582 0.87647 0.95128 0.0
H730 H 0.46911 0.82585 0.83831 0.0
H731 H 0.53267 0.86752 0.96455 0.0
O732 O 0.57781 0.91841 0.84597 0.0
H733 H 0.68157 0.94773 0.91332 0.0
H734 H 0.66145 0.98591 0.84991 0.0
H735 H 0.70206 0.9843 0.85018 0.0
H736 H 0.71234 0.96512 0.88208 0.0
H737 H 0.64107 0.94951 0.91226 0.0
H738 H 0.68601 0.06198 0.88762 0.0
H739 H 0.67024 0.07709 0.85639 0.0
O740 O 0.61252 0.95857 0.84877 0.0
C741 C 0.55946 0.95213 0.87998 0.0
C742 C 0.63846 0.03896 0.84918 0.0
C743 C 0.66912 0.04831 0.8784 0.0
N744 N 0.63473 0.00466 0.87233 0.0
C745 C 0.62584 0.01283 0.8552 0.0
C746 C 0.65599 0.02203 0.88396 0.0
C747 C 0.66026 0.05678 0.86088 0.0
C748 C 0.57048 0.88792 0.91908 0.0
N749 N 0.55438 0.89155 0.90544 0.0
C750 C 0.56294 0.87922 0.94052 0.0
C751 C 0.53874 0.87423 0.94796 0.0
C752 C 0.52241 0.87794 0.93393 0.0
C753 C 0.5306 0.88668 0.91261 0.0
C754 C 0.50045 0.83364 0.86028 0.0
C755 C 0.52067 0.88527 0.84909 0.0
C756 C 0.52374 0.85289 0.8693 0.0
N757 N 0.5335 0.87834 0.86373 0.0
C758 C 0.49733 0.86655 0.83975 0.0
C759 C 0.48718 0.84057 0.84543 0.0
C760 C 0.59622 0.93908 0.8376 0.0
C761 C 0.67733 0.95618 0.89936 0.0
C762 C 0.66575 0.97744 0.8638 0.0
C763 C 0.6888 0.97665 0.8639 0.0
C764 C 0.69457 0.96591 0.88181 0.0
N765 N 0.64894 0.96785 0.88107 0.0
C766 C 0.65448 0.95734 0.89871 0.0
Co767 Co 0.66327 0.56852 0.37485 0.0
Co768 Co 0.64593 0.61595 0.37605 0.0
O769 O 0.66693 0.60097 0.38551 0.0
C770 C 0.71832 0.60611 0.36372 0.0
O771 O 0.71077 0.61989 0.35239 0.0
C772 C 0.63535 0.60559 0.42302 0.0
O773 O 0.6324 0.58272 0.41857 0.0
O774 O 0.6131 0.58167 0.37709 0.0
O775 O 0.62481 0.55116 0.37673 0.0
H776 H 0.57884 0.62205 0.33061 0.0
H777 H 0.69669 0.5955 0.41311 0.0
O778 O 0.70189 0.58528 0.37326 0.0
H779 H 0.63244 0.50854 0.43995 0.0
H780 H 0.68866 0.49972 0.36937 0.0
H781 H 0.62842 0.52815 0.34336 0.0
H782 H 0.63235 0.52051 0.40129 0.0
H783 H 0.69194 0.54017 0.38325 0.0
O784 O 0.64075 0.62204 0.40763 0.0
H785 H 0.60546 0.60308 0.34231 0.0
H786 H 0.64214 0.66167 0.39066 0.0
H787 H 0.6243 0.48745 0.32919 0.0
H788 H 0.69769 0.58427 0.45184 0.0
H789 H 0.65458 0.47301 0.3422 0.0
H790 H 0.66528 0.54057 0.46553 0.0
O791 O 0.66174 0.57838 0.34386 0.0
H792 H 0.73106 0.68716 0.4048 0.0
H793 H 0.66947 0.65843 0.34305 0.0
H794 H 0.71009 0.70051 0.34084 0.0
H795 H 0.74119 0.71515 0.3719 0.0
H796 H 0.69032 0.64511 0.40623 0.0
H797 H 0.61579 0.68119 0.3796 0.0
H798 H 0.58393 0.6614 0.34931 0.0
O799 O 0.65091 0.60972 0.34465 0.0
C800 C 0.60771 0.55806 0.37727 0.0
C801 C 0.59271 0.63091 0.34377 0.0
C802 C 0.61342 0.66408 0.3713 0.0
N803 N 0.62544 0.63138 0.36703 0.0
C804 C 0.60789 0.6203 0.35042 0.0
C805 C 0.62825 0.65291 0.37752 0.0
C806 C 0.59556 0.65296 0.3543 0.0
C807 C 0.68268 0.57636 0.41889 0.0
N808 N 0.66442 0.55869 0.40496 0.0
C809 C 0.68328 0.57015 0.44086 0.0
C810 C 0.66507 0.54563 0.44853 0.0
C811 C 0.64662 0.52766 0.4342 0.0
C812 C 0.64659 0.53457 0.41234 0.0
C813 C 0.67533 0.50579 0.3636 0.0
C814 C 0.64156 0.52191 0.34919 0.0
C815 C 0.67714 0.52871 0.37135 0.0
N816 N 0.66029 0.53643 0.36421 0.0
C817 C 0.63919 0.49889 0.34107 0.0
C818 C 0.6562 0.49081 0.34836 0.0
C819 C 0.65658 0.59446 0.33444 0.0
C820 C 0.71764 0.68102 0.39118 0.0
C821 C 0.68296 0.66462 0.35659 0.0
C822 C 0.70589 0.6885 0.35527 0.0
C823 C 0.72333 0.6967 0.37271 0.0
N824 N 0.67751 0.64938 0.37478 0.0
C825 C 0.69451 0.65727 0.39193 0.0
Co826 Co 0.0978 0.66528 0.86965 0.0
Co827 Co 0.03193 0.64258 0.87197 0.0
O828 O 0.06763 0.66577 0.8812 0.0
C829 C 0.11265 0.72017 0.86039 0.0
O830 O 0.09173 0.71214 0.84839 0.0
C831 C 0.03247 0.63283 0.91903 0.0
O832 O 0.05267 0.63033 0.91462 0.0
O833 O 0.03622 0.6115 0.87355 0.0
O834 O 0.07894 0.62653 0.86959 0.0
H835 H 0.96074 0.57096 0.82809 0.0
H836 H 0.10169 0.69506 0.90978 0.0
O837 O 0.11752 0.70406 0.86993 0.0
H838 H 0.13048 0.63378 0.93185 0.0
H839 H 0.19347 0.69732 0.86341 0.0
H840 H 0.10637 0.6349 0.83557 0.0
H841 H 0.11806 0.63536 0.8936 0.0
H842 H 0.15463 0.69649 0.87852 0.0
O843 O 0.02102 0.63764 0.90361 0.0
H844 H 0.00604 0.60033 0.8393 0.0
H845 H 0.98109 0.63566 0.88643 0.0
H846 H 0.14467 0.63487 0.82016 0.0
H847 H 0.11423 0.69438 0.94817 0.0
H848 H 0.1886 0.66627 0.83409 0.0
H849 H 0.12859 0.66345 0.95945 0.0
O850 O 0.08622 0.6653 0.83901 0.0
H851 H 0.03942 0.72575 0.89916 0.0
H852 H 0.01051 0.66296 0.83827 0.0
H853 H 0.00561 0.70162 0.83528 0.0
H854 H 0.02006 0.7333 0.86591 0.0
H855 H 0.04415 0.68695 0.90138 0.0
H856 H 0.93547 0.60653 0.87587 0.0
H857 H 0.92508 0.57396 0.84644 0.0
O858 O 0.04269 0.64714 0.84043 0.0
C859 C 0.0556 0.60804 0.87161 0.0
C860 C 0.96502 0.58514 0.84087 0.0
C861 C 0.95084 0.60508 0.86771 0.0
N862 N 0.99619 0.61984 0.86334 0.0
C863 C 0.99064 0.60189 0.84723 0.0
C864 C 0.97669 0.62149 0.87365 0.0
C865 C 0.94502 0.58682 0.85119 0.0
C866 C 0.10811 0.68168 0.91453 0.0
N867 N 0.10898 0.66513 0.89949 0.0
C868 C 0.11511 0.68134 0.9363 0.0
C869 C 0.12314 0.66396 0.94263 0.0
C870 C 0.12417 0.64728 0.92716 0.0
C871 C 0.11698 0.64816 0.90554 0.0
C872 C 0.17442 0.68351 0.85724 0.0
C873 C 0.12541 0.64847 0.84183 0.0
C874 C 0.15237 0.68298 0.86569 0.0
N875 N 0.12824 0.6655 0.85805 0.0
C876 C 0.14703 0.64843 0.83299 0.0
C877 C 0.17168 0.66607 0.8408 0.0
C878 C 0.06408 0.6567 0.82991 0.0
C879 C 0.03298 0.71205 0.88573 0.0
C880 C 0.01692 0.6767 0.85163 0.0
C881 C 0.01404 0.69852 0.84987 0.0
C882 C 0.02214 0.71629 0.86706 0.0
N883 N 0.02747 0.67263 0.87004 0.0
C884 C 0.03553 0.68999 0.88693 0.0
Co885 Co 0.4317 0.09938 0.36751 0.0
Co886 Co 0.38806 0.0336 0.36955 0.0
O887 O 0.40085 0.0693 0.37892 0.0
C888 C 0.39249 0.11559 0.35846 0.0
O889 O 0.37985 0.09567 0.34534 0.0
C890 C 0.39801 0.03377 0.41664 0.0
O891 O 0.4208 0.05388 0.41227 0.0
O892 O 0.42323 0.0375 0.37131 0.0
O893 O 0.45126 0.08014 0.36721 0.0
H894 H 0.38802 0.96226 0.3255 0.0
H895 H 0.40599 0.10298 0.40789 0.0
O896 O 0.413 0.11946 0.36824 0.0
H897 H 0.496 0.13108 0.42962 0.0
H898 H 0.49611 0.19491 0.36182 0.0
H899 H 0.47048 0.10783 0.33332 0.0
H900 H 0.4819 0.11921 0.39131 0.0
H901 H 0.45787 0.15617 0.37676 0.0
O902 O 0.38177 0.02248 0.40117 0.0
H903 H 0.40427 0.00757 0.33689 0.0
H904 H 0.34371 0.98288 0.3837 0.0
H905 H 0.50904 0.14603 0.31807 0.0
H906 H 0.41931 0.11499 0.44634 0.0
H907 H 0.52205 0.18996 0.33233 0.0
H908 H 0.46456 0.12898 0.45745 0.0
O909 O 0.42001 0.08812 0.3368 0.0
H910 H 0.31267 0.04176 0.39643 0.0
H911 H 0.34655 0.01276 0.3356 0.0
H912 H 0.3032 0.0083 0.33242 0.0
H913 H 0.28597 0.0228 0.36301 0.0
H914 H 0.356 0.04605 0.39885 0.0
H915 H 0.32689 0.93725 0.37296 0.0
H916 H 0.34904 0.92673 0.3436 0.0
O917 O 0.39464 0.04457 0.33805 0.0
C918 C 0.44615 0.05671 0.36932 0.0
C919 C 0.37813 0.96661 0.33825 0.0
C920 C 0.34385 0.95256 0.36491 0.0
N921 N 0.3748 0.99786 0.36077 0.0
C922 C 0.38719 0.99223 0.3447 0.0
C923 C 0.35348 0.97842 0.37095 0.0
C924 C 0.35628 0.94667 0.34843 0.0
C925 C 0.42577 0.10925 0.41256 0.0
N926 N 0.44312 0.11019 0.3974 0.0
C927 C 0.43318 0.11595 0.43437 0.0
C928 C 0.45856 0.12377 0.4406 0.0
C929 C 0.4762 0.12491 0.42501 0.0
C930 C 0.46808 0.11803 0.40336 0.0
C931 C 0.49067 0.17587 0.35551 0.0
C932 C 0.47616 0.12686 0.33972 0.0
C933 C 0.46899 0.15387 0.36386 0.0
N934 N 0.46209 0.12974 0.35604 0.0
C935 C 0.49795 0.14843 0.33097 0.0
C936 C 0.50522 0.17307 0.33897 0.0
C937 C 0.40655 0.06603 0.32759 0.0
C938 C 0.31993 0.03531 0.38302 0.0
C939 C 0.33921 0.01919 0.34895 0.0
C940 C 0.31463 0.01656 0.34708 0.0
C941 C 0.30497 0.02469 0.36425 0.0
N942 N 0.35372 0.02952 0.36745 0.0
C943 C 0.34442 0.0376 0.38433 0.0
Co944 Co 0.33567 0.42808 0.87875 0.0
Co945 Co 0.35595 0.38281 0.87856 0.0
O946 O 0.33434 0.39659 0.88935 0.0
C947 C 0.28062 0.38852 0.86975 0.0
O948 O 0.28842 0.37494 0.85843 0.0
C949 C 0.36979 0.39461 0.92494 0.0
O950 O 0.37124 0.41693 0.92086 0.0
O951 O 0.38784 0.41792 0.87801 0.0
O952 O 0.37419 0.44696 0.87905 0.0
H953 H 0.42145 0.37894 0.82918 0.0
H954 H 0.30498 0.40113 0.91826 0.0
O955 O 0.29692 0.40983 0.87871 0.0
H956 H 0.3683 0.48954 0.94282 0.0
H957 H 0.30593 0.4937 0.87503 0.0
H958 H 0.36733 0.46832 0.84594 0.0
H959 H 0.36671 0.47694 0.90412 0.0
H960 H 0.30546 0.4545 0.88875 0.0
O961 O 0.36394 0.37805 0.90961 0.0
H962 H 0.39418 0.39643 0.84267 0.0
H963 H 0.36329 0.33892 0.89242 0.0
H964 H 0.36862 0.5078 0.83189 0.0
H965 H 0.3057 0.41298 0.95707 0.0
H966 H 0.33775 0.5207 0.84645 0.0
H967 H 0.33764 0.45742 0.9696 0.0
O968 O 0.33587 0.41782 0.84763 0.0
H969 H 0.27467 0.31007 0.9115 0.0
H970 H 0.33166 0.33919 0.84664 0.0
H971 H 0.29211 0.29611 0.84638 0.0
H972 H 0.26333 0.28127 0.87902 0.0
H973 H 0.31429 0.35311 0.91096 0.0
H974 H 0.39037 0.32091 0.87959 0.0
H975 H 0.41963 0.34091 0.84769 0.0
O976 O 0.34821 0.38761 0.8477 0.0
C977 C 0.39205 0.44113 0.87839 0.0
C978 C 0.40871 0.37001 0.84305 0.0
C979 C 0.3913 0.33746 0.87136 0.0
N980 N 0.37705 0.36859 0.8682 0.0
C981 C 0.39318 0.37978 0.85072 0.0
C982 C 0.37606 0.34778 0.87859 0.0
C983 C 0.40771 0.34869 0.85346 0.0
C984 C 0.31877 0.42058 0.92355 0.0
N985 N 0.33581 0.43832 0.90895 0.0
C986 C 0.31915 0.42715 0.94556 0.0
C987 C 0.33709 0.45208 0.95258 0.0
C988 C 0.35431 0.4701 0.93757 0.0
C989 C 0.35338 0.46284 0.91569 0.0
C990 C 0.31951 0.4883 0.86858 0.0
C991 C 0.35394 0.4739 0.85245 0.0
C992 C 0.31929 0.46609 0.87624 0.0
N993 N 0.33646 0.45922 0.86824 0.0
C994 C 0.35472 0.49623 0.84439 0.0
C995 C 0.33737 0.50345 0.85255 0.0
C996 C 0.34112 0.40198 0.8379 0.0
C997 C 0.28708 0.31629 0.8972 0.0
C998 C 0.31917 0.33291 0.86085 0.0
C999 C 0.29684 0.30847 0.86064 0.0
C1000 C 0.28071 0.30016 0.87896 0.0
N1001 N 0.3253 0.34861 0.87882 0.0
C1002 C 0.30958 0.34061 0.89683 0.0
Co1003 Co 0.9041 0.33292 0.37529 0.0
Co1004 Co 0.96955 0.35295 0.37564 0.0
O1005 O 0.93404 0.33136 0.38604 0.0
C1006 C 0.88865 0.2778 0.36661 0.0
O1007 O 0.90987 0.28548 0.35509 0.0
C1008 C 0.9706 0.36595 0.42209 0.0
O1009 O 0.95001 0.36771 0.41758 0.0
O1010 O 0.96652 0.38492 0.37528 0.0
O1011 O 0.92388 0.3715 0.37555 0.0
H1012 H 0.03985 0.41898 0.32726 0.0
H1013 H 0.9002 0.3023 0.4149 0.0
O1014 O 0.88357 0.29418 0.37533 0.0
H1015 H 0.87491 0.36559 0.43911 0.0
H1016 H 0.80883 0.30337 0.37105 0.0
H1017 H 0.89585 0.36476 0.34243 0.0
H1018 H 0.88602 0.36389 0.40045 0.0
H1019 H 0.84741 0.30278 0.38498 0.0
O1020 O 0.98175 0.36039 0.40691 0.0
H1021 H 0.99485 0.39163 0.34017 0.0
H1022 H 0.02044 0.35986 0.39 0.0
H1023 H 0.85781 0.36618 0.32817 0.0
H1024 H 0.88898 0.30313 0.45366 0.0
H1025 H 0.81391 0.33531 0.3425 0.0
H1026 H 0.87639 0.33507 0.46602 0.0
O1027 O 0.91478 0.33312 0.34424 0.0
H1028 H 0.96012 0.27098 0.40788 0.0
H1029 H 0.98912 0.32897 0.34366 0.0
H1030 H 0.99245 0.2893 0.34311 0.0
H1031 H 0.97794 0.26002 0.37542 0.0
H1032 H 0.95692 0.31073 0.40764 0.0
H1033 H 0.06575 0.38701 0.37774 0.0
H1034 H 0.07567 0.41676 0.34611 0.0
O1035 O 0.95741 0.34574 0.34457 0.0
C1036 C 0.94762 0.3893 0.37527 0.0
C1037 C 0.03577 0.40603 0.34102 0.0
C1038 C 0.05031 0.38812 0.36938 0.0
N1039 N 0.00504 0.37406 0.36571 0.0
C1040 C 0.01032 0.39045 0.34836 0.0
C1041 C 0.02463 0.37284 0.37627 0.0
C1042 C 0.05586 0.4048 0.35162 0.0
C1043 C 0.89449 0.31609 0.4201 0.0
N1044 N 0.89383 0.33308 0.40543 0.0
C1045 C 0.88825 0.31652 0.44209 0.0
C1046 C 0.88122 0.33447 0.44902 0.0
C1047 C 0.88042 0.35162 0.43393 0.0
C1048 C 0.88681 0.35064 0.41208 0.0
C1049 C 0.82786 0.31694 0.3647 0.0
C1050 C 0.87683 0.35137 0.34883 0.0
C1051 C 0.84977 0.31665 0.37248 0.0
N1052 N 0.87388 0.33382 0.3646 0.0
C1053 C 0.85535 0.35222 0.34066 0.0
C1054 C 0.83072 0.33488 0.34869 0.0
C1055 C 0.93601 0.33863 0.33462 0.0
C1056 C 0.96656 0.28361 0.39372 0.0
C1057 C 0.98267 0.31626 0.35773 0.0
C1058 C 0.98466 0.29387 0.35736 0.0
C1059 C 0.97653 0.27746 0.3755 0.0
N1060 N 0.97291 0.32218 0.37568 0.0
C1061 C 0.96487 0.30618 0.39352 0.0
Co1062 Co 0.09362 0.43226 0.63214 0.0
Co1063 Co 0.03031 0.38323 0.62508 0.0
O1064 O 0.06704 0.40123 0.61758 0.0
C1065 C 0.11395 0.39613 0.63724 0.0
O1066 O 0.09216 0.37969 0.64695 0.0
C1067 C 0.03217 0.39757 0.57885 0.0
O1068 O 0.04993 0.42097 0.58491 0.0
O1069 O 0.02947 0.41637 0.62559 0.0
O1070 O 0.07022 0.44706 0.63401 0.0
H1071 H 0.95144 0.36764 0.66746 0.0
H1072 H 0.10578 0.41539 0.59022 0.0
O1073 O 0.11767 0.41794 0.63042 0.0
H1074 H 0.11965 0.503 0.57604 0.0
H1075 H 0.18529 0.50441 0.64424 0.0
H1076 H 0.09466 0.46479 0.66939 0.0
H1077 H 0.10632 0.48321 0.61266 0.0
H1078 H 0.15069 0.46555 0.62589 0.0
O1079 O 0.02168 0.3795 0.59304 0.0
H1080 H 0.99805 0.39037 0.65827 0.0
H1081 H 0.98379 0.33719 0.60653 0.0
H1082 H 0.12858 0.50375 0.68811 0.0
H1083 H 0.11937 0.43457 0.55341 0.0
H1084 H 0.1743 0.52383 0.67554 0.0
H1085 H 0.12627 0.47863 0.54611 0.0
O1086 O 0.08118 0.4162 0.66141 0.0
H1087 H 0.05313 0.31914 0.59372 0.0
H1088 H 0.01071 0.33759 0.6549 0.0
H1089 H 0.01243 0.29705 0.65505 0.0
H1090 H 0.03373 0.28759 0.62426 0.0
H1091 H 0.05118 0.35957 0.59436 0.0
H1092 H 0.937 0.31402 0.61501 0.0
H1093 H 0.92058 0.32918 0.64574 0.0
O1094 O 0.03872 0.38687 0.65717 0.0
C1095 C 0.04642 0.43961 0.63051 0.0
C1096 C 0.95837 0.3608 0.65408 0.0
C1097 C 0.95026 0.33073 0.62462 0.0
N1098 N 0.99362 0.36498 0.63201 0.0
C1099 C 0.98474 0.37354 0.64885 0.0
C1100 C 0.97676 0.34396 0.61986 0.0
C1101 C 0.94106 0.33924 0.64187 0.0
C1102 C 0.10907 0.43471 0.58724 0.0
N1103 N 0.10543 0.44823 0.60361 0.0
C1104 C 0.11664 0.44541 0.56634 0.0
C1105 C 0.12047 0.47012 0.56224 0.0
C1106 C 0.11674 0.4838 0.57903 0.0
C1107 C 0.10916 0.47248 0.59972 0.0
C1108 C 0.16544 0.49586 0.64985 0.0
C1109 C 0.11447 0.47349 0.66376 0.0
C1110 C 0.14578 0.47382 0.63956 0.0
N1111 N 0.12065 0.46299 0.6465 0.0
C1112 C 0.13361 0.49552 0.67445 0.0
C1113 C 0.15926 0.50675 0.66741 0.0
C1114 C 0.05897 0.39963 0.669 0.0
C1115 C 0.04378 0.32303 0.60721 0.0
C1116 C 0.02015 0.33369 0.64153 0.0
C1117 C 0.02098 0.31065 0.64166 0.0
C1118 C 0.03291 0.30535 0.62437 0.0
N1119 N 0.03085 0.35093 0.62466 0.0
C1120 C 0.04256 0.34585 0.60764 0.0
Co1121 Co 0.66226 0.09629 0.13616 0.0
Co1122 Co 0.64956 0.03344 0.1281 0.0
O1123 O 0.66748 0.07041 0.12091 0.0
C1124 C 0.71885 0.1165 0.13899 0.0
O1125 O 0.7139 0.09271 0.14256 0.0
C1126 C 0.6363 0.03506 0.08197 0.0
O1127 O 0.63094 0.05307 0.08787 0.0
O1128 O 0.61516 0.03167 0.12914 0.0
O1129 O 0.62417 0.0722 0.13718 0.0
H1130 H 0.58799 0.95355 0.17024 0.0
H1131 H 0.69242 0.11056 0.09484 0.0
O1132 O 0.70047 0.1212 0.13578 0.0
H1133 H 0.61785 0.12297 0.0803 0.0
H1134 H 0.67912 0.18672 0.15049 0.0
H1135 H 0.62968 0.09511 0.17339 0.0
H1136 H 0.62372 0.10861 0.11667 0.0
H1137 H 0.68478 0.15342 0.13129 0.0
O1138 O 0.64423 0.0249 0.09614 0.0
H1139 H 0.61086 0.00025 0.16137 0.0
H1140 H 0.65018 0.98769 0.10894 0.0
H1141 H 0.62322 0.12771 0.19292 0.0
H1142 H 0.68742 0.12519 0.05828 0.0
H1143 H 0.64807 0.17391 0.18149 0.0
H1144 H 0.64985 0.13137 0.05081 0.0
O1145 O 0.66587 0.08329 0.16508 0.0
H1146 H 0.73618 0.05803 0.09509 0.0
H1147 H 0.67714 0.01484 0.15721 0.0
H1148 H 0.71989 0.01764 0.15648 0.0
H1149 H 0.74974 0.03935 0.12522 0.0
H1150 H 0.69335 0.05502 0.09662 0.0
H1151 H 0.62756 0.94083 0.1171 0.0
H1152 H 0.59629 0.92351 0.14801 0.0
O1153 O 0.65462 0.04144 0.16018 0.0
C1154 C 0.60827 0.04825 0.13379 0.0
C1155 C 0.60163 0.96088 0.15678 0.0
C1156 C 0.62382 0.95373 0.12693 0.0
N1157 N 0.63197 0.99669 0.13478 0.0
C1158 C 0.61469 0.9873 0.15173 0.0
C1159 C 0.63652 0.98027 0.12236 0.0
C1160 C 0.60628 0.94403 0.14428 0.0
C1161 C 0.6762 0.11352 0.09178 0.0
N1162 N 0.65849 0.1089 0.1079 0.0
C1163 C 0.6734 0.12167 0.07102 0.0
C1164 C 0.65229 0.1251 0.06683 0.0
C1165 C 0.63432 0.12038 0.08337 0.0
C1166 C 0.63773 0.11222 0.10392 0.0
C1167 C 0.66814 0.16664 0.1556 0.0
C1168 C 0.64042 0.11513 0.16823 0.0
C1169 C 0.67131 0.14771 0.14482 0.0
N1170 N 0.65743 0.12231 0.15113 0.0
C1171 C 0.63674 0.13352 0.17939 0.0
C1172 C 0.65071 0.15944 0.17299 0.0
C1173 C 0.66132 0.0613 0.17229 0.0
C1174 C 0.72334 0.0485 0.10878 0.0
C1175 C 0.69008 0.02446 0.14364 0.0
C1176 C 0.71423 0.0259 0.14326 0.0
C1177 C 0.73095 0.03805 0.12571 0.0
N1178 N 0.68279 0.03481 0.12701 0.0
C1179 C 0.69903 0.04665 0.1097 0.0
Co1180 Co 0.56875 0.66635 0.6288 0.0
Co1181 Co 0.61704 0.65028 0.62599 0.0
O1182 O 0.60088 0.67036 0.61696 0.0
C1183 C 0.60628 0.72183 0.63816 0.0
O1184 O 0.62114 0.71488 0.64855 0.0
C1185 C 0.60476 0.63837 0.57935 0.0
O1186 O 0.58179 0.6348 0.5844 0.0
O1187 O 0.58313 0.61698 0.62621 0.0
O1188 O 0.55208 0.62795 0.6276 0.0
H1189 H 0.62724 0.58554 0.67139 0.0
H1190 H 0.59312 0.69893 0.58952 0.0
O1191 O 0.58486 0.70492 0.62973 0.0
H1192 H 0.50546 0.63236 0.56604 0.0
H1193 H 0.49879 0.68985 0.63664 0.0
H1194 H 0.53041 0.63185 0.66176 0.0
H1195 H 0.51965 0.63371 0.60421 0.0
H1196 H 0.53895 0.69374 0.62138 0.0
O1197 O 0.62187 0.64451 0.59427 0.0
H1198 H 0.60674 0.61095 0.66024 0.0
H1199 H 0.6627 0.64731 0.60986 0.0
H1200 H 0.49005 0.62714 0.67733 0.0
H1201 H 0.57964 0.69849 0.55125 0.0
H1202 H 0.47399 0.65629 0.66477 0.0
H1203 H 0.53558 0.66492 0.53926 0.0
O1204 O 0.58037 0.66599 0.65942 0.0
H1205 H 0.68538 0.73541 0.59474 0.0
H1206 H 0.66108 0.67546 0.65742 0.0
H1207 H 0.70266 0.71672 0.65816 0.0
H1208 H 0.71507 0.747 0.62662 0.0
H1209 H 0.64388 0.69405 0.59479 0.0
H1210 H 0.68371 0.62215 0.62034 0.0
H1211 H 0.66602 0.59108 0.65137 0.0
O1212 O 0.61213 0.65586 0.65754 0.0
C1213 C 0.55943 0.61121 0.62687 0.0
C1214 C 0.63518 0.59908 0.65789 0.0
C1215 C 0.66685 0.6196 0.62922 0.0
N1216 N 0.63363 0.63071 0.63453 0.0
C1217 C 0.6237 0.61357 0.65155 0.0
C1218 C 0.65484 0.63374 0.62332 0.0
C1219 C 0.65692 0.60218 0.64663 0.0
C1220 C 0.57383 0.68442 0.58448 0.0
N1221 N 0.5572 0.66634 0.59908 0.0
C1222 C 0.56634 0.68421 0.56277 0.0
C1223 C 0.54162 0.66535 0.55605 0.0
C1224 C 0.52472 0.64706 0.57106 0.0
C1225 C 0.53289 0.64786 0.59263 0.0
C1226 C 0.50557 0.67702 0.64223 0.0
C1227 C 0.52348 0.64451 0.65613 0.0
C1228 C 0.52834 0.67918 0.63369 0.0
N1229 N 0.53694 0.66294 0.6406 0.0
C1230 C 0.50064 0.6418 0.66505 0.0
C1231 C 0.49166 0.65818 0.658 0.0
C1232 C 0.59715 0.66145 0.66828 0.0
C1233 C 0.68022 0.72236 0.60856 0.0
C1234 C 0.6663 0.68859 0.64369 0.0
C1235 C 0.6899 0.71189 0.64417 0.0
C1236 C 0.69685 0.72886 0.62646 0.0
N1237 N 0.65011 0.68234 0.62606 0.0
C1238 C 0.65678 0.69888 0.60865 0.0
Co1239 Co 0.90437 0.57218 0.12471 0.0
Co1240 Co 0.96967 0.61787 0.12196 0.0
O1241 O 0.93359 0.60362 0.11297 0.0
C1242 C 0.88883 0.61144 0.13527 0.0
O1243 O 0.91058 0.62515 0.14608 0.0
C1244 C 0.96856 0.6053 0.07527 0.0
O1245 O 0.94815 0.58298 0.08025 0.0
O1246 O 0.96685 0.58294 0.12215 0.0
O1247 O 0.92425 0.55358 0.12314 0.0
H1248 H 0.04264 0.62335 0.16734 0.0
H1249 H 0.8976 0.59814 0.08587 0.0
O1250 O 0.88365 0.59018 0.12607 0.0
H1251 H 0.87207 0.50958 0.06143 0.0
H1252 H 0.80958 0.50608 0.13259 0.0
H1253 H 0.89827 0.53262 0.15735 0.0
H1254 H 0.88558 0.52299 0.09963 0.0
H1255 H 0.84719 0.5452 0.11739 0.0
O1256 O 0.98026 0.62218 0.09023 0.0
H1257 H 0.99699 0.60525 0.15618 0.0
H1258 H 0.01965 0.66178 0.10587 0.0
H1259 H 0.86125 0.49324 0.17285 0.0
H1260 H 0.88395 0.58548 0.04757 0.0
H1261 H 0.81651 0.47975 0.16047 0.0
H1262 H 0.87121 0.54095 0.0351 0.0
O1263 O 0.91682 0.58306 0.15536 0.0
H1264 H 0.95817 0.68962 0.09077 0.0
H1265 H 0.99074 0.66197 0.15347 0.0
H1266 H 0.99389 0.70488 0.15425 0.0
H1267 H 0.97758 0.71897 0.1227 0.0
H1268 H 0.95518 0.64676 0.09079 0.0
H1269 H 0.06559 0.68038 0.11638 0.0
H1270 H 0.07731 0.66118 0.14737 0.0
O1271 O 0.95924 0.61346 0.15349 0.0
C1272 C 0.948 0.55965 0.12258 0.0
C1273 C 0.03778 0.63193 0.15385 0.0
C1274 C 0.05066 0.66391 0.12522 0.0
N1275 N 0.00567 0.63257 0.1305 0.0
C1276 C 0.01196 0.62181 0.1475 0.0
C1277 C 0.02463 0.65327 0.11932 0.0
C1278 C 0.05722 0.65314 0.14262 0.0
C1279 C 0.89183 0.57865 0.08062 0.0
N1280 N 0.89237 0.56132 0.09497 0.0
C1281 C 0.88421 0.57162 0.05889 0.0
C1282 C 0.8771 0.54665 0.0519 0.0
C1283 C 0.87759 0.52904 0.06666 0.0
C1284 C 0.88533 0.53676 0.08825 0.0
C1285 C 0.82899 0.51174 0.13809 0.0
C1286 C 0.87888 0.52679 0.15179 0.0
C1287 C 0.85035 0.53391 0.12959 0.0
N1288 N 0.87491 0.54111 0.1364 0.0
C1289 C 0.85798 0.50451 0.16067 0.0
C1290 C 0.83289 0.49697 0.15373 0.0
C1291 C 0.93847 0.59908 0.16422 0.0
C1292 C 0.96539 0.68372 0.1046 0.0
C1293 C 0.9835 0.66792 0.13974 0.0
C1294 C 0.9854 0.69227 0.14024 0.0
C1295 C 0.97626 0.70017 0.12253 0.0
N1296 N 0.97286 0.65192 0.12208 0.0
C1297 C 0.96383 0.65951 0.10466 0.0
Co1298 Co 0.33047 0.90652 0.62375 0.0
Co1299 Co 0.35237 0.97222 0.61992 0.0
O1300 O 0.32964 0.93614 0.61125 0.0
C1301 C 0.27524 0.89062 0.63302 0.0
O1302 O 0.28282 0.91154 0.64494 0.0
C1303 C 0.36296 0.97051 0.57315 0.0
O1304 O 0.36536 0.95041 0.57829 0.0
O1305 O 0.38378 0.96842 0.61947 0.0
O1306 O 0.36919 0.92582 0.62391 0.0
H1307 H 0.42254 0.04515 0.66352 0.0
H1308 H 0.30068 0.90086 0.58321 0.0
O1309 O 0.29168 0.8863 0.62339 0.0
H1310 H 0.36313 0.87277 0.56325 0.0
H1311 H 0.29964 0.81133 0.63246 0.0
H1312 H 0.36105 0.89958 0.65867 0.0
H1313 H 0.36115 0.8863 0.60106 0.0
H1314 H 0.29997 0.84937 0.61611 0.0
O1315 O 0.35782 0.98229 0.58806 0.0
H1316 H 0.39386 0.99946 0.65299 0.0
H1317 H 0.3589 0.02238 0.60387 0.0
H1318 H 0.36158 0.86209 0.67531 0.0
H1319 H 0.30176 0.88721 0.54526 0.0
H1320 H 0.3307 0.81758 0.66221 0.0
H1321 H 0.33328 0.87319 0.53504 0.0
O1322 O 0.33019 0.91897 0.654 0.0
H1323 H 0.26926 0.96283 0.5905 0.0
H1324 H 0.33091 0.99406 0.65224 0.0
H1325 H 0.29187 0.99843 0.6539 0.0
H1326 H 0.26076 0.98281 0.62284 0.0
H1327 H 0.30843 0.95865 0.5896 0.0
H1328 H 0.38734 0.06837 0.61373 0.0
H1329 H 0.41938 0.07998 0.64382 0.0
O1330 O 0.34738 0.96235 0.65166 0.0
C1331 C 0.38747 0.94924 0.62187 0.0
C1332 C 0.40859 0.04034 0.65044 0.0
C1333 C 0.38887 0.05337 0.62247 0.0
N1334 N 0.37458 0.00826 0.62798 0.0
C1335 C 0.39224 0.01449 0.64446 0.0
C1336 C 0.37285 0.02731 0.61693 0.0
C1337 C 0.40683 0.05987 0.63936 0.0
C1338 C 0.3143 0.89459 0.57893 0.0
N1339 N 0.33094 0.89451 0.5943 0.0
C1340 C 0.31488 0.88695 0.5574 0.0
C1341 C 0.33259 0.87912 0.55167 0.0
C1342 C 0.34936 0.87891 0.56748 0.0
C1343 C 0.34825 0.8867 0.58884 0.0
C1344 C 0.31324 0.83063 0.63827 0.0
C1345 C 0.3477 0.88028 0.65276 0.0
C1346 C 0.31347 0.85225 0.62911 0.0
N1347 N 0.33067 0.87669 0.63631 0.0
C1348 C 0.34803 0.85912 0.6623 0.0
C1349 C 0.33067 0.83415 0.65496 0.0
C1350 C 0.33819 0.94127 0.6626 0.0
C1351 C 0.28271 0.96978 0.6041 0.0
C1352 C 0.31742 0.98714 0.63869 0.0
C1353 C 0.29538 0.98972 0.6397 0.0
C1354 C 0.27794 0.98096 0.62227 0.0
N1355 N 0.32201 0.97625 0.62079 0.0
C1356 C 0.30497 0.96755 0.60366 0.0
Co1357 Co 0.42916 0.33589 0.1416 0.0
Co1358 Co 0.38239 0.35074 0.12731 0.0
O1359 O 0.40088 0.33165 0.12267 0.0
C1360 C 0.39445 0.27894 0.13976 0.0
O1361 O 0.37459 0.28261 0.14202 0.0
C1362 C 0.3988 0.36095 0.08123 0.0
O1363 O 0.42201 0.36697 0.08821 0.0
O1364 O 0.4156 0.38426 0.12739 0.0
O1365 O 0.44205 0.37383 0.14527 0.0
H1366 H 0.36594 0.41749 0.16247 0.0
H1367 H 0.4226 0.31109 0.09822 0.0
O1368 O 0.41742 0.29817 0.13868 0.0
H1369 H 0.51 0.38844 0.09682 0.0
H1370 H 0.50103 0.3199 0.1652 0.0
H1371 H 0.45142 0.36343 0.18339 0.0
H1372 H 0.48275 0.37753 0.12988 0.0
H1373 H 0.46613 0.31581 0.14082 0.0
O1374 O 0.38018 0.35371 0.09481 0.0
H1375 H 0.38868 0.39281 0.15717 0.0
H1376 H 0.33711 0.34981 0.1056 0.0
H1377 H 0.48625 0.36818 0.20817 0.0
H1378 H 0.44938 0.32107 0.06488 0.0
H1379 H 0.51134 0.34633 0.19911 0.0
H1380 H 0.49336 0.36007 0.06401 0.0
O1381 O 0.40663 0.32795 0.16756 0.0
H1382 H 0.31864 0.26274 0.09768 0.0
H1383 H 0.33584 0.32629 0.15636 0.0
H1384 H 0.29498 0.28432 0.15671 0.0
H1385 H 0.28615 0.25223 0.12719 0.0
H1386 H 0.35938 0.30484 0.09809 0.0
H1387 H 0.31393 0.37418 0.11021 0.0
H1388 H 0.32827 0.40822 0.13888 0.0
O1389 O 0.38434 0.34834 0.16007 0.0
C1390 C 0.43685 0.39041 0.13707 0.0
C1391 C 0.35944 0.40263 0.14998 0.0
C1392 C 0.33027 0.37835 0.12063 0.0
N1393 N 0.36406 0.36973 0.13125 0.0
C1394 C 0.37219 0.38854 0.14695 0.0
C1395 C 0.34349 0.36465 0.11807 0.0
C1396 C 0.33833 0.39744 0.13672 0.0
C1397 C 0.44185 0.3279 0.09805 0.0
N1398 N 0.45112 0.34363 0.11599 0.0
C1399 C 0.45687 0.33353 0.0791 0.0
C1400 C 0.48153 0.35544 0.07861 0.0
C1401 C 0.49088 0.37137 0.097 0.0
C1402 C 0.47532 0.36513 0.11566 0.0
C1403 C 0.49029 0.32958 0.16929 0.0
C1404 C 0.46237 0.35401 0.17927 0.0
C1405 C 0.47049 0.32731 0.15556 0.0
N1406 N 0.45693 0.33957 0.16058 0.0
C1407 C 0.48202 0.35671 0.19339 0.0
C1408 C 0.49607 0.34441 0.18831 0.0
C1409 C 0.39191 0.33674 0.17318 0.0
C1410 C 0.32224 0.27659 0.1106 0.0
C1411 C 0.3322 0.31238 0.14352 0.0
C1412 C 0.30899 0.28868 0.14376 0.0
C1413 C 0.30404 0.27069 0.12718 0.0
N1414 N 0.34996 0.31802 0.12719 0.0
C1415 C 0.34522 0.3005 0.11086 0.0
C1416 C 0.40497 0.08534 0.29161 0.0
C1417 C 0.40505 0.06517 0.30339 0.0
C1418 C 0.40402 0.08491 0.2686 0.0
C1419 C 0.4041 0.06427 0.25709 0.0
C1420 C 0.40429 0.04391 0.26894 0.0
C1421 C 0.40433 0.0444 0.29195 0.0
C1422 C 0.40301 0.10656 0.25661 0.0
C1423 C 0.40516 0.02195 0.25734 0.0
C1424 C 0.38256 0.05038 0.19746 0.0
C1425 C 0.40631 0.06375 0.18638 0.0
C1426 C 0.38147 0.05088 0.22045 0.0
C1427 C 0.40477 0.06433 0.23265 0.0
C1428 C 0.42882 0.0776 0.22149 0.0
C1429 C 0.42925 0.0775 0.19849 0.0
C1430 C 0.3554 0.03719 0.23168 0.0
C1431 C 0.45415 0.09152 0.23384 0.0
H1432 H 0.40532 0.10133 0.30043 0.0
H1433 H 0.40463 0.02889 0.30099 0.0
H1434 H 0.42084 0.11769 0.24668 0.0
H1435 H 0.38631 0.09842 0.24514 0.0
H1436 H 0.40122 0.12016 0.26797 0.0
H1437 H 0.40537 0.0077 0.26896 0.0
H1438 H 0.38813 0.01164 0.24639 0.0
H1439 H 0.42276 0.02981 0.24691 0.0
H1440 H 0.36478 0.03996 0.18812 0.0
H1441 H 0.44766 0.08767 0.18996 0.0
H1442 H 0.35313 0.05099 0.2424 0.0
H1443 H 0.35406 0.02146 0.24231 0.0
H1444 H 0.33907 0.02865 0.21981 0.0
H1445 H 0.45461 0.10706 0.24417 0.0
H1446 H 0.47121 0.10033 0.22272 0.0
H1447 H 0.45595 0.07776 0.24497 0.0
C1448 C 0.35897 0.39821 0.70897 0.0
C1449 C 0.3387 0.3981 0.69726 0.0
C1450 C 0.3587 0.39763 0.73196 0.0
C1451 C 0.33725 0.39608 0.74338 0.0
C1452 C 0.31611 0.39461 0.73152 0.0
C1453 C 0.31731 0.3961 0.70859 0.0
C1454 C 0.3819 0.39992 0.74402 0.0
C1455 C 0.29253 0.39209 0.74307 0.0
C1456 C 0.32995 0.37633 0.80329 0.0
C1457 C 0.33912 0.40027 0.81382 0.0
C1458 C 0.32865 0.37455 0.78035 0.0
C1459 C 0.33752 0.39739 0.76771 0.0
C1460 C 0.3469 0.42163 0.77832 0.0
C1461 C 0.34718 0.42271 0.80128 0.0
C1462 C 0.31773 0.34827 0.76966 0.0
C1463 C 0.35715 0.44651 0.76542 0.0
H1464 H 0.37564 0.40005 0.70019 0.0
H1465 H 0.30156 0.39588 0.69948 0.0
H1466 H 0.39111 0.41806 0.7538 0.0
H1467 H 0.37576 0.38355 0.75563 0.0
H1468 H 0.39664 0.40015 0.73271 0.0
H1469 H 0.27674 0.38856 0.73145 0.0
H1470 H 0.28501 0.37593 0.75506 0.0
H1471 H 0.2979 0.4101 0.75234 0.0
H1472 H 0.32348 0.35894 0.81301 0.0
H1473 H 0.35449 0.44125 0.80944 0.0
H1474 H 0.33281 0.34764 0.75945 0.0
H1475 H 0.30149 0.34478 0.75861 0.0
H1476 H 0.31055 0.3323 0.78185 0.0
H1477 H 0.37323 0.44899 0.75461 0.0
H1478 H 0.36438 0.46381 0.77618 0.0
H1479 H 0.34169 0.44566 0.75473 0.0
C1480 C 0.95901 0.35997 0.20596 0.0
C1481 C 0.93965 0.33953 0.19375 0.0
C1482 C 0.95864 0.35929 0.22895 0.0
C1483 C 0.9389 0.33726 0.23992 0.0
C1484 C 0.9199 0.31613 0.2276 0.0
C1485 C 0.92025 0.31771 0.20465 0.0
C1486 C 0.97882 0.38252 0.24149 0.0
C1487 C 0.89904 0.29197 0.23864 0.0
C1488 C 0.95137 0.32898 0.29967 0.0
C1489 C 0.93597 0.33721 0.31048 0.0
C1490 C 0.952 0.32825 0.27669 0.0
C1491 C 0.93757 0.33678 0.26428 0.0
C1492 C 0.92207 0.34521 0.27517 0.0
C1493 C 0.92114 0.34491 0.29814 0.0
C1494 C 0.96808 0.31834 0.2657 0.0
C1495 C 0.90695 0.35511 0.26257 0.0
H1496 H 0.97389 0.37695 0.19753 0.0
H1497 H 0.90538 0.3018 0.19518 0.0
H1498 H 0.96918 0.39067 0.2517 0.0
H1499 H 0.98957 0.37663 0.25274 0.0
H1500 H 0.99297 0.39801 0.23049 0.0
H1501 H 0.88705 0.27647 0.22669 0.0
H1502 H 0.9079 0.28434 0.25031 0.0
H1503 H 0.8861 0.29668 0.24822 0.0
H1504 H 0.96267 0.3228 0.3092 0.0
H1505 H 0.90941 0.35152 0.30648 0.0
H1506 H 0.98371 0.33402 0.25586 0.0
H1507 H 0.95582 0.30234 0.25427 0.0
H1508 H 0.97707 0.31115 0.27769 0.0
H1509 H 0.92032 0.37174 0.25213 0.0
H1510 H 0.89626 0.36144 0.27352 0.0
H1511 H 0.8928 0.33975 0.25152 0.0
C1512 C 0.60316 0.96462 0.70852 0.0
C1513 C 0.60194 0.94363 0.69711 0.0
C1514 C 0.60397 0.96537 0.7315 0.0
C1515 C 0.60429 0.94498 0.7432 0.0
C1516 C 0.60455 0.92449 0.73165 0.0
C1517 C 0.60298 0.92387 0.70873 0.0
C1518 C 0.6031 0.98723 0.74326 0.0
C1519 C 0.60562 0.90278 0.7435 0.0
C1520 C 0.62279 0.95496 0.80346 0.0
C1521 C 0.59847 0.94072 0.81352 0.0
C1522 C 0.62507 0.95643 0.78054 0.0
C1523 C 0.60241 0.94398 0.76749 0.0
C1524 C 0.57778 0.92999 0.77762 0.0
C1525 C 0.57614 0.92823 0.80051 0.0
C1526 C 0.65169 0.97091 0.77031 0.0
C1527 C 0.55312 0.91694 0.76428 0.0
H1528 H 0.60216 0.97981 0.69953 0.0
H1529 H 0.60227 0.90774 0.69987 0.0
H1530 H 0.58462 0.9794 0.75248 0.0
H1531 H 0.6191 0.99641 0.75534 0.0
H1532 H 0.60454 0.00239 0.73179 0.0
H1533 H 0.60851 0.8899 0.73209 0.0
H1534 H 0.6216 0.91079 0.75567 0.0
H1535 H 0.58726 0.89088 0.75259 0.0
H1536 H 0.64009 0.96448 0.8135 0.0
H1537 H 0.55729 0.91745 0.80827 0.0
H1538 H 0.6532 0.98667 0.75962 0.0
H1539 H 0.65489 0.95756 0.75979 0.0
H1540 H 0.66736 0.97949 0.78277 0.0
H1541 H 0.55216 0.93126 0.75325 0.0
H1542 H 0.53547 0.90792 0.77472 0.0
H1543 H 0.55296 0.90165 0.75379 0.0
C1544 C 0.66696 0.61905 0.29918 0.0
C1545 C 0.65713 0.59535 0.31025 0.0
C1546 C 0.6678 0.62007 0.27618 0.0
C1547 C 0.65774 0.59674 0.26401 0.0
C1548 C 0.64737 0.57272 0.27518 0.0
C1549 C 0.64761 0.57237 0.29816 0.0
C1550 C 0.6798 0.64611 0.26492 0.0
C1551 C 0.63577 0.54735 0.26285 0.0
C1552 C 0.63783 0.59639 0.2047 0.0
C1553 C 0.65775 0.59535 0.19338 0.0
C1554 C 0.63759 0.59693 0.22771 0.0
C1555 C 0.65825 0.59735 0.2396 0.0
C1556 C 0.67893 0.59733 0.22814 0.0
C1557 C 0.67819 0.59585 0.20517 0.0
C1558 C 0.6148 0.59613 0.2393 0.0
C1559 C 0.70173 0.59863 0.24013 0.0
H1560 H 0.67454 0.63686 0.30854 0.0
H1561 H 0.63978 0.55401 0.30672 0.0
H1562 H 0.696 0.64862 0.25426 0.0
H1563 H 0.66529 0.64714 0.25422 0.0
H1564 H 0.68733 0.66246 0.27676 0.0
H1565 H 0.62743 0.53032 0.27399 0.0
H1566 H 0.62027 0.54565 0.2517 0.0
H1567 H 0.65081 0.54675 0.25255 0.0
H1568 H 0.62191 0.59577 0.19559 0.0
H1569 H 0.69372 0.59527 0.19639 0.0
H1570 H 0.62153 0.61303 0.25041 0.0
H1571 H 0.60491 0.57841 0.24958 0.0
H1572 H 0.60045 0.59615 0.22768 0.0
H1573 H 0.71012 0.6153 0.25163 0.0
H1574 H 0.7172 0.60063 0.22877 0.0
H1575 H 0.69521 0.58079 0.25001 0.0
C1576 C 0.05011 0.66734 0.69973 0.0
C1577 C 0.06375 0.65713 0.68884 0.0
C1578 C 0.04978 0.66825 0.72273 0.0
C1579 C 0.06269 0.65795 0.73509 0.0
C1580 C 0.07606 0.64716 0.72411 0.0
C1581 C 0.07676 0.64725 0.70113 0.0
C1582 C 0.03595 0.68059 0.73381 0.0
C1583 C 0.08946 0.6353 0.73662 0.0
C1584 C 0.08339 0.67805 0.79412 0.0
C1585 C 0.06316 0.65767 0.80574 0.0
C1586 C 0.083 0.67888 0.77114 0.0
C1587 C 0.06232 0.65839 0.75949 0.0
C1588 C 0.04183 0.63777 0.77119 0.0
C1589 C 0.0423 0.63789 0.79419 0.0
C1590 C 0.10482 0.70159 0.75932 0.0
C1591 C 0.01982 0.61519 0.75941 0.0
H1592 H 0.04023 0.67519 0.69024 0.0
H1593 H 0.08713 0.63912 0.69275 0.0
H1594 H 0.02023 0.66623 0.74447 0.0
H1595 H 0.0497 0.69673 0.74449 0.0
H1596 H 0.0274 0.68827 0.72186 0.0
H1597 H 0.09812 0.6268 0.72561 0.0
H1598 H 0.10506 0.65022 0.74702 0.0
H1599 H 0.07543 0.61986 0.74769 0.0
H1600 H 0.09943 0.6935 0.80304 0.0
H1601 H 0.02673 0.62201 0.80313 0.0
H1602 H 0.09686 0.71024 0.74776 0.0
H1603 H 0.11604 0.6949 0.74952 0.0
H1604 H 0.11829 0.71691 0.77079 0.0
H1605 H 0.00992 0.62218 0.74826 0.0
H1606 H 0.00525 0.60084 0.77092 0.0
H1607 H 0.02759 0.60521 0.74917 0.0
C1608 C 0.95553 0.62475 0.19874 0.0
C1609 C 0.93959 0.60094 0.18837 0.0
C1610 C 0.95671 0.62667 0.2217 0.0
C1611 C 0.94223 0.60407 0.23452 0.0
C1612 C 0.92643 0.57991 0.22408 0.0
C1613 C 0.92499 0.57872 0.20113 0.0
C1614 C 0.97312 0.65289 0.23221 0.0
C1615 C 0.9112 0.55525 0.23713 0.0
C1616 C 0.96172 0.60247 0.29359 0.0
C1617 C 0.94188 0.60351 0.30505 0.0
C1618 C 0.96237 0.60307 0.27058 0.0
C1619 C 0.94319 0.6056 0.25888 0.0
C1620 C 0.92394 0.60805 0.2705 0.0
C1621 C 0.92326 0.60653 0.29344 0.0
C1622 C 0.98279 0.59971 0.2588 0.0
C1623 C 0.90363 0.61158 0.2587 0.0
H1624 H 0.96668 0.64199 0.18889 0.0
H1625 H 0.91286 0.56025 0.19314 0.0
H1626 H 0.96085 0.65746 0.2429 0.0
H1627 H 0.98816 0.65265 0.24277 0.0
H1628 H 0.98286 0.66863 0.21992 0.0
H1629 H 0.90083 0.53788 0.22649 0.0
H1630 H 0.9244 0.55242 0.24816 0.0
H1631 H 0.89675 0.55669 0.24761 0.0
H1632 H 0.97596 0.59985 0.30258 0.0
H1633 H 0.908 0.60749 0.30235 0.0
H1634 H 0.99344 0.61573 0.24696 0.0
H1635 H 0.97334 0.58135 0.2493 0.0
H1636 H 0.99699 0.59915 0.27027 0.0
H1637 H 0.91293 0.62761 0.24663 0.0
H1638 H 0.89175 0.61588 0.27014 0.0
H1639 H 0.89049 0.59368 0.24948 0.0
C1640 C 0.33101 0.95397 0.79376 0.0
C1641 C 0.34143 0.93974 0.80324 0.0
C1642 C 0.32931 0.95532 0.77085 0.0
C1643 C 0.33906 0.94285 0.75723 0.0
C1644 C 0.3502 0.92904 0.76682 0.0
C1645 C 0.35085 0.92732 0.78968 0.0
C1646 C 0.31661 0.96957 0.76124 0.0
C1647 C 0.36151 0.9161 0.75295 0.0
C1648 C 0.31703 0.92267 0.69856 0.0
C1649 C 0.33725 0.94277 0.68671 0.0
C1650 C 0.31665 0.92319 0.72154 0.0
C1651 C 0.33746 0.94384 0.73293 0.0
C1652 C 0.35774 0.96438 0.721 0.0
C1653 C 0.35716 0.96379 0.69801 0.0
C1654 C 0.29429 0.90132 0.73363 0.0
C1655 C 0.38068 0.98633 0.73249 0.0
H1656 H 0.32351 0.9634 0.80424 0.0
H1657 H 0.35914 0.91651 0.79697 0.0
H1658 H 0.33037 0.98534 0.75031 0.0
H1659 H 0.29972 0.95607 0.7511 0.0
H1660 H 0.30988 0.97809 0.77407 0.0
H1661 H 0.37071 0.90733 0.76299 0.0
H1662 H 0.34608 0.90063 0.7428 0.0
H1663 H 0.37627 0.93043 0.74158 0.0
H1664 H 0.30148 0.90652 0.68983 0.0
H1665 H 0.37291 0.97925 0.68888 0.0
H1666 H 0.2865 0.90917 0.74612 0.0
H1667 H 0.30112 0.88952 0.74238 0.0
H1668 H 0.2783 0.88838 0.72242 0.0
H1669 H 0.37404 0.99556 0.74469 0.0
H1670 H 0.39417 0.00144 0.72088 0.0
H1671 H 0.39152 0.97859 0.74154 0.0
C1672 C 0.41454 0.34658 0.29792 0.0
C1673 C 0.39403 0.34095 0.31229 0.0
C1674 C 0.41107 0.34572 0.27521 0.0
C1675 C 0.38624 0.3383 0.2666 0.0
C1676 C 0.36535 0.33242 0.28098 0.0
C1677 C 0.3696 0.33419 0.30372 0.0
C1678 C 0.43404 0.35274 0.26044 0.0
C1679 C 0.33848 0.32376 0.27236 0.0
C1680 C 0.3875 0.3572 0.20718 0.0
C1681 C 0.38548 0.33543 0.19656 0.0
C1682 C 0.38638 0.35798 0.23011 0.0
C1683 C 0.3824 0.33615 0.24249 0.0
C1684 C 0.37819 0.31336 0.23163 0.0
C1685 C 0.38025 0.31343 0.20877 0.0
C1686 C 0.39159 0.38286 0.24108 0.0
C1687 C 0.37314 0.28943 0.2442 0.0
H1688 H 0.43352 0.35205 0.30443 0.0
H1689 H 0.35367 0.3297 0.31478 0.0
H1690 H 0.43054 0.33561 0.25062 0.0
H1691 H 0.43662 0.36815 0.24877 0.0
H1692 H 0.45235 0.35965 0.26978 0.0
H1693 H 0.32441 0.32026 0.28571 0.0
H1694 H 0.33892 0.33858 0.26108 0.0
H1695 H 0.33142 0.3056 0.2628 0.0
H1696 H 0.39177 0.37428 0.19768 0.0
H1697 H 0.37849 0.29653 0.20045 0.0
H1698 H 0.41104 0.39214 0.24886 0.0
H1699 H 0.37722 0.37892 0.25422 0.0
H1700 H 0.39109 0.3968 0.22927 0.0
H1701 H 0.3913 0.29291 0.25228 0.0
H1702 H 0.36622 0.27222 0.23337 0.0
H1703 H 0.35852 0.285 0.25723 0.0
C1704 C 0.03807 0.37165 0.7019 0.0
C1705 C 0.05651 0.39557 0.69297 0.0
C1706 C 0.03578 0.36779 0.72469 0.0
C1707 C 0.05178 0.3886 0.7388 0.0
C1708 C 0.0701 0.41291 0.72984 0.0
C1709 C 0.07251 0.41596 0.70706 0.0
C1710 C 0.01658 0.3414 0.73364 0.0
C1711 C 0.08711 0.4358 0.74432 0.0
C1712 C 0.03384 0.39053 0.79815 0.0
C1713 C 0.05239 0.38677 0.80905 0.0
C1714 C 0.03265 0.39015 0.77517 0.0
C1715 C 0.04993 0.38513 0.76298 0.0
C1716 C 0.06739 0.37945 0.77406 0.0
C1717 C 0.06873 0.38081 0.79698 0.0
C1718 C 0.01423 0.39697 0.76398 0.0
C1719 C 0.08558 0.37323 0.7617 0.0
H1720 H 0.02576 0.35579 0.69109 0.0
H1721 H 0.08664 0.43455 0.70027 0.0
H1722 H 0.0269 0.33382 0.74366 0.0
H1723 H 0.00249 0.34289 0.74456 0.0
H1724 H 0.00571 0.3272 0.72046 0.0
H1725 H 0.09933 0.45374 0.73475 0.0
H1726 H 0.07496 0.43958 0.75585 0.0
H1727 H 0.10003 0.43144 0.75429 0.0
H1728 H 0.02141 0.39543 0.80752 0.0
H1729 H 0.08299 0.37778 0.8055 0.0
H1730 H 0.003 0.38258 0.75107 0.0
H1731 H 0.0255 0.41613 0.75585 0.0
H1732 H 0.00044 0.39793 0.77568 0.0
H1733 H 0.07494 0.35864 0.74874 0.0
H1734 H 0.09521 0.36571 0.77266 0.0
H1735 H 0.1008 0.391 0.75352 0.0
C1736 C 0.68714 0.06852 0.30055 0.0
C1737 C 0.66452 0.0516 0.31199 0.0
C1738 C 0.688 0.06769 0.27765 0.0
C1739 C 0.6654 0.05013 0.26599 0.0
C1740 C 0.64285 0.03221 0.27756 0.0
C1741 C 0.64282 0.03292 0.30053 0.0
C1742 C 0.71265 0.08656 0.26592 0.0
C1743 C 0.61818 0.01365 0.26572 0.0
C1744 C 0.65771 0.07377 0.21047 0.0
C1745 C 0.66285 0.05847 0.19618 0.0
C1746 C 0.65803 0.07084 0.2332 0.0
C1747 C 0.66443 0.0527 0.24187 0.0
C1748 C 0.67007 0.03746 0.22756 0.0
C1749 C 0.66883 0.04026 0.20482 0.0
C1750 C 0.6513 0.08705 0.2479 0.0
C1751 C 0.6777 0.01848 0.23627 0.0
H1752 H 0.70397 0.08284 0.30952 0.0
H1753 H 0.62526 0.02001 0.30944 0.0
H1754 H 0.71727 0.07653 0.25286 0.0
H1755 H 0.71002 0.10184 0.25795 0.0
H1756 H 0.72943 0.09609 0.27729 0.0
H1757 H 0.60327 0.99928 0.27699 0.0
H1758 H 0.61008 0.02475 0.25762 0.0
H1759 H 0.62213 0.00309 0.25271 0.0
H1760 H 0.65286 0.08771 0.2039 0.0
H1761 H 0.67295 0.02849 0.19383 0.0
H1762 H 0.66819 0.09988 0.2583 0.0
H1763 H 0.63515 0.07431 0.25902 0.0
H1764 H 0.64551 0.09932 0.23849 0.0
H1765 H 0.69519 0.02881 0.24674 0.0
H1766 H 0.68185 0.00837 0.22294 0.0
H1767 H 0.66197 0.00374 0.24668 0.0
C1768 C 0.57688 0.6541 0.7053 0.0
C1769 C 0.59917 0.66247 0.69244 0.0
C1770 C 0.57824 0.65401 0.72825 0.0
C1771 C 0.60261 0.6633 0.7386 0.0
C1772 C 0.62526 0.67226 0.72567 0.0
C1773 C 0.6232 0.67135 0.70272 0.0
C1774 C 0.55354 0.64365 0.7414 0.0
C1775 C 0.65167 0.68304 0.73608 0.0
C1776 C 0.60503 0.68391 0.79785 0.0
C1777 C 0.6033 0.66264 0.8092 0.0
C1778 C 0.60597 0.68489 0.77488 0.0
C1779 C 0.60426 0.66367 0.76297 0.0
C1780 C 0.60287 0.64228 0.77439 0.0
C1781 C 0.60282 0.64222 0.7974 0.0
C1782 C 0.60828 0.7084 0.76336 0.0
C1783 C 0.60033 0.61899 0.76231 0.0
H1784 H 0.55824 0.64699 0.69739 0.0
H1785 H 0.64049 0.67804 0.69281 0.0
H1786 H 0.55134 0.62769 0.75223 0.0
H1787 H 0.55442 0.65913 0.7521 0.0
H1788 H 0.53607 0.63625 0.73083 0.0
H1789 H 0.66744 0.68992 0.72372 0.0
H1790 H 0.65549 0.69947 0.74702 0.0
H1791 H 0.65228 0.668 0.74636 0.0
H1792 H 0.60559 0.69982 0.80698 0.0
H1793 H 0.60122 0.62564 0.80616 0.0
H1794 H 0.59017 0.70294 0.75422 0.0
H1795 H 0.62433 0.71592 0.75126 0.0
H1796 H 0.61187 0.72422 0.77498 0.0
H1797 H 0.58205 0.60977 0.75272 0.0
H1798 H 0.60021 0.60428 0.77359 0.0
H1799 H 0.61652 0.62503 0.75052 0.0
C1800 C 0.3769 0.13644 0.14905 0.0
C1801 C 0.39004 0.13334 0.13132 0.0
C1802 C 0.374 0.15841 0.15058 0.0
C1803 C 0.38395 0.17728 0.13371 0.0
C1804 C 0.39555 0.17319 0.11503 0.0
C1805 C 0.39876 0.15144 0.11421 0.0
C1806 C 0.36193 0.1623 0.17092 0.0
C1807 C 0.40591 0.19252 0.09646 0.0
C1808 C 0.36773 0.23154 0.13108 0.0
C1809 C 0.39066 0.25249 0.13923 0.0
C1810 C 0.36495 0.20669 0.12947 0.0
C1811 C 0.38534 0.20275 0.13668 0.0
C1812 C 0.40809 0.2237 0.1457 0.0
C1813 C 0.41059 0.24834 0.14661 0.0
C1814 C 0.34066 0.18494 0.11936 0.0
C1815 C 0.43009 0.22025 0.154 0.0
H1816 H 0.37024 0.12249 0.16234 0.0
H1817 H 0.40867 0.14889 0.10034 0.0
H1818 H 0.3772 0.17826 0.18083 0.0
H1819 H 0.34743 0.16805 0.16655 0.0
H1820 H 0.35238 0.14454 0.18121 0.0
H1821 H 0.41113 0.18482 0.08194 0.0
H1822 H 0.39137 0.198 0.09145 0.0
H1823 H 0.42349 0.21045 0.10197 0.0
H1824 H 0.35235 0.23476 0.12531 0.0
H1825 H 0.42822 0.26445 0.15319 0.0
H1826 H 0.33193 0.16783 0.13037 0.0
H1827 H 0.34564 0.17879 0.10381 0.0
H1828 H 0.32596 0.19075 0.11584 0.0
H1829 H 0.4227 0.204 0.16589 0.0
H1830 H 0.44553 0.23802 0.16206 0.0
H1831 H 0.43888 0.21526 0.14017 0.0
C1832 C 0.14015 0.37759 0.65242 0.0
C1833 C 0.13535 0.39051 0.63549 0.0
C1834 C 0.16279 0.37576 0.65243 0.0
C1835 C 0.18052 0.38646 0.63478 0.0
C1836 C 0.17468 0.39782 0.6169 0.0
C1837 C 0.15238 0.4001 0.61765 0.0
C1838 C 0.1686 0.36408 0.67205 0.0
C1839 C 0.19268 0.40881 0.59749 0.0
C1840 C 0.25253 0.41514 0.64458 0.0
C1841 C 0.2569 0.39551 0.63681 0.0
C1842 C 0.22759 0.41195 0.6447 0.0
C1843 C 0.20657 0.38885 0.6362 0.0
C1844 C 0.21084 0.36887 0.62837 0.0
C1845 C 0.23599 0.37228 0.6291 0.0
C1846 C 0.22381 0.43347 0.65373 0.0
C1847 C 0.18905 0.34431 0.61865 0.0
H1848 H 0.12702 0.37031 0.66628 0.0
H1849 H 0.1485 0.40987 0.60445 0.0
H1850 H 0.1746 0.35003 0.66681 0.0
H1851 H 0.18501 0.37966 0.68137 0.0
H1852 H 0.15166 0.35411 0.6832 0.0
H1853 H 0.18358 0.41348 0.58366 0.0
H1854 H 0.21052 0.42683 0.60242 0.0
H1855 H 0.19863 0.39489 0.59167 0.0
H1856 H 0.26866 0.43299 0.65082 0.0
H1857 H 0.23944 0.35716 0.62302 0.0
H1858 H 0.20828 0.42568 0.66631 0.0
H1859 H 0.2176 0.44186 0.64043 0.0
H1860 H 0.24181 0.4493 0.6612 0.0
H1861 H 0.17273 0.33486 0.63042 0.0
H1862 H 0.19535 0.33025 0.61405 0.0
H1863 H 0.18151 0.34911 0.60381 0.0
C1864 C 0.85161 0.24455 0.11616 0.0
C1865 C 0.86847 0.25316 0.13415 0.0
C1866 C 0.82916 0.22005 0.11626 0.0
C1867 C 0.82302 0.20416 0.13509 0.0
C1868 C 0.8407 0.21223 0.15285 0.0
C1869 C 0.86345 0.23658 0.15204 0.0
C1870 C 0.8112 0.2119 0.09674 0.0
C1871 C 0.83463 0.19614 0.17341 0.0
C1872 C 0.75083 0.16299 0.1454 0.0
C1873 C 0.7458 0.1383 0.139 0.0
C1874 C 0.77605 0.18431 0.14494 0.0
C1875 C 0.79669 0.18103 0.13729 0.0
C1876 C 0.79178 0.15607 0.13095 0.0
C1877 C 0.76635 0.13486 0.13216 0.0
C1878 C 0.78051 0.21045 0.15235 0.0
C1879 C 0.81316 0.15197 0.1222 0.0
H1880 H 0.85562 0.25734 0.10225 0.0
H1881 H 0.87638 0.24333 0.16604 0.0
H1882 H 0.80477 0.19152 0.09219 0.0
H1883 H 0.79363 0.21296 0.10096 0.0
H1884 H 0.82055 0.2245 0.08228 0.0
H1885 H 0.85166 0.20346 0.1845 0.0
H1886 H 0.81863 0.19658 0.18236 0.0
H1887 H 0.82797 0.17559 0.16935 0.0
H1888 H 0.73498 0.16563 0.15091 0.0
H1889 H 0.76242 0.11577 0.12708 0.0
H1890 H 0.787 0.22407 0.13829 0.0
H1891 H 0.79608 0.21879 0.16489 0.0
H1892 H 0.76273 0.2093 0.15935 0.0
H1893 H 0.82072 0.16292 0.10668 0.0
H1894 H 0.80642 0.13117 0.11901 0.0
H1895 H 0.82958 0.15958 0.13392 0.0
C1896 C 0.62509 0.76591 0.65488 0.0
C1897 C 0.61318 0.74926 0.6371 0.0
C1898 C 0.6275 0.79064 0.65539 0.0
C1899 C 0.61833 0.79894 0.63746 0.0
C1900 C 0.60825 0.78291 0.61875 0.0
C1901 C 0.60545 0.75811 0.61893 0.0
C1902 C 0.63795 0.80697 0.67578 0.0
C1903 C 0.59882 0.79122 0.59908 0.0
C1904 C 0.58799 0.84087 0.64639 0.0
C1905 C 0.60765 0.86523 0.63935 0.0
C1906 C 0.59178 0.8195 0.64679 0.0
C1907 C 0.61561 0.82237 0.63938 0.0
C1908 C 0.63575 0.84705 0.63254 0.0
C1909 C 0.63164 0.86836 0.63289 0.0
C1910 C 0.56998 0.79367 0.65468 0.0
C1911 C 0.66117 0.8507 0.62408 0.0
H1912 H 0.63097 0.759 0.66896 0.0
H1913 H 0.59651 0.74531 0.60505 0.0
H1914 H 0.65198 0.82741 0.67152 0.0
H1915 H 0.62173 0.80686 0.68483 0.0
H1916 H 0.6476 0.79956 0.68685 0.0
H1917 H 0.5952 0.77834 0.58475 0.0
H1918 H 0.58045 0.79077 0.60323 0.0
H1919 H 0.61316 0.81141 0.59435 0.0
H1920 H 0.56955 0.83851 0.65171 0.0
H1921 H 0.64682 0.88723 0.62741 0.0
H1922 H 0.57717 0.78548 0.66738 0.0
H1923 H 0.56254 0.77971 0.64086 0.0
H1924 H 0.55358 0.79526 0.66163 0.0
H1925 H 0.66956 0.84274 0.63588 0.0
H1926 H 0.67554 0.87143 0.62101 0.0
H1927 H 0.65779 0.83981 0.60852 0.0
C1928 C 0.75197 0.59163 0.14636 0.0
C1929 C 0.74644 0.61091 0.13985 0.0
C1930 C 0.77746 0.59635 0.14675 0.0
C1931 C 0.79795 0.62081 0.13996 0.0
C1932 C 0.79262 0.64071 0.13407 0.0
C1933 C 0.76683 0.63559 0.13432 0.0
C1934 C 0.78228 0.57472 0.1536 0.0
C1935 C 0.8139 0.66687 0.12643 0.0
C1936 C 0.86425 0.6301 0.15358 0.0
C1937 C 0.86877 0.61904 0.13505 0.0
C1938 C 0.84199 0.63255 0.15495 0.0
C1939 C 0.82431 0.62423 0.13718 0.0
C1940 C 0.83013 0.61522 0.11772 0.0
C1941 C 0.85211 0.61242 0.11701 0.0
C1942 C 0.83634 0.64196 0.17606 0.0
C1943 C 0.81214 0.60668 0.09821 0.0
H1944 H 0.73623 0.57263 0.15096 0.0
H1945 H 0.76252 0.65049 0.12924 0.0
H1946 H 0.78886 0.56807 0.13926 0.0
H1947 H 0.79786 0.58177 0.16611 0.0
H1948 H 0.76461 0.55779 0.1604 0.0
H1949 H 0.80715 0.68117 0.12504 0.0
H1950 H 0.83066 0.67463 0.1378 0.0
H1951 H 0.82092 0.6648 0.11013 0.0
H1952 H 0.87711 0.63515 0.16757 0.0
H1953 H 0.85579 0.60413 0.10256 0.0
H1954 H 0.82083 0.62518 0.18508 0.0
H1955 H 0.82922 0.65566 0.17277 0.0
H1956 H 0.85372 0.65165 0.18677 0.0
H1957 H 0.7944 0.588 0.10198 0.0
H1958 H 0.82131 0.60396 0.08336 0.0
H1959 H 0.80604 0.6211 0.09451 0.0
C1960 C 0.23792 0.85382 0.61441 0.0
C1961 C 0.24784 0.86988 0.63282 0.0
C1962 C 0.21369 0.83108 0.61511 0.0
C1963 C 0.19938 0.82389 0.6349 0.0
C1964 C 0.2086 0.84086 0.65315 0.0
C1965 C 0.23269 0.86388 0.65181 0.0
C1966 C 0.20431 0.81387 0.59511 0.0
C1967 C 0.19413 0.83372 0.67463 0.0
C1968 C 0.13105 0.76553 0.63259 0.0
C1969 C 0.13595 0.74527 0.63701 0.0
C1970 C 0.15139 0.79146 0.6324 0.0
C1971 C 0.17697 0.79711 0.63725 0.0
C1972 C 0.18167 0.77672 0.64279 0.0
C1973 C 0.16117 0.75105 0.64233 0.0
C1974 C 0.14573 0.81262 0.62603 0.0
C1975 C 0.20855 0.7819 0.64852 0.0
H1976 H 0.24959 0.85858 0.59966 0.0
H1977 H 0.24047 0.87621 0.66611 0.0
H1978 H 0.20611 0.79642 0.59793 0.0
H1979 H 0.18355 0.80716 0.59198 0.0
H1980 H 0.21567 0.82395 0.58025 0.0
H1981 H 0.2017 0.85047 0.68605 0.0
H1982 H 0.17314 0.82621 0.67197 0.0
H1983 H 0.19615 0.81804 0.68256 0.0
H1984 H 0.11155 0.76105 0.62837 0.0
H1985 H 0.16494 0.73541 0.646 0.0
H1986 H 0.15473 0.82075 0.6099 0.0
H1987 H 0.15435 0.82873 0.63805 0.0
H1988 H 0.12458 0.8054 0.62485 0.0
H1989 H 0.22128 0.78936 0.63391 0.0
H1990 H 0.20847 0.76419 0.65435 0.0
H1991 H 0.21721 0.79698 0.66144 0.0
C1992 C 0.83733 0.58773 0.35772 0.0
C1993 C 0.86207 0.60818 0.36302 0.0
C1994 C 0.81583 0.59132 0.35726 0.0
C1995 C 0.81899 0.61585 0.36274 0.0
C1996 C 0.84398 0.63671 0.3679 0.0
C1997 C 0.86537 0.6327 0.36772 0.0
C1998 C 0.78962 0.56866 0.35124 0.0
C1999 C 0.84797 0.66295 0.37428 0.0
C2000 C 0.76167 0.6233 0.34598 0.0
C2001 C 0.74587 0.61341 0.36453 0.0
C2002 C 0.78642 0.62576 0.34551 0.0
C2003 C 0.79563 0.61875 0.36423 0.0
C2004 C 0.7805 0.61083 0.38358 0.0
C2005 C 0.75564 0.60788 0.38338 0.0
C2006 C 0.80175 0.63384 0.32446 0.0
C2007 C 0.78982 0.60379 0.40406 0.0
H2008 H 0.83476 0.56883 0.35375 0.0
H2009 H 0.88451 0.64852 0.37185 0.0
H2010 H 0.77642 0.56296 0.36556 0.0
H2011 H 0.78074 0.57426 0.33789 0.0
H2012 H 0.79085 0.55148 0.34583 0.0
H2013 H 0.8688 0.67755 0.37651 0.0
H2014 H 0.83968 0.67009 0.36164 0.0
H2015 H 0.83758 0.66124 0.38983 0.0
H2016 H 0.75404 0.62747 0.33138 0.0
H2017 H 0.74348 0.60049 0.39782 0.0
H2018 H 0.80131 0.61668 0.31688 0.0
H2019 H 0.82235 0.64835 0.32766 0.0
H2020 H 0.79374 0.6421 0.31252 0.0
H2021 H 0.78916 0.585 0.40157 0.0
H2022 H 0.77767 0.60191 0.41852 0.0
H2023 H 0.81023 0.6186 0.40766 0.0
C2024 C 0.13864 0.76316 0.84212 0.0
C2025 C 0.13272 0.7478 0.86096 0.0
C2026 C 0.16125 0.78763 0.84115 0.0
C2027 C 0.17783 0.797 0.85964 0.0
C2028 C 0.17059 0.78244 0.8793 0.0
C2029 C 0.1483 0.75785 0.87963 0.0
C2030 C 0.16846 0.80236 0.8198 0.0
C2031 C 0.18736 0.79196 0.89955 0.0
C2032 C 0.25062 0.83656 0.85236 0.0
C2033 C 0.25581 0.86167 0.85739 0.0
C2034 C 0.22519 0.81562 0.85214 0.0
C2035 C 0.20442 0.81976 0.8576 0.0
C2036 C 0.20946 0.84516 0.86236 0.0
C2037 C 0.23516 0.86595 0.86195 0.0
C2038 C 0.22065 0.78893 0.84655 0.0
C2039 C 0.18788 0.85022 0.86869 0.0
H2040 H 0.12667 0.75529 0.82764 0.0
H2041 H 0.14357 0.74602 0.89427 0.0
H2042 H 0.17537 0.82322 0.82261 0.0
H2043 H 0.18458 0.80096 0.81206 0.0
H2044 H 0.1519 0.79454 0.80816 0.0
H2045 H 0.17711 0.78041 0.91428 0.0
H2046 H 0.20507 0.79055 0.89702 0.0
H2047 H 0.19366 0.81263 0.90271 0.0
H2048 H 0.26653 0.83325 0.84857 0.0
H2049 H 0.23918 0.88536 0.86593 0.0
H2050 H 0.20584 0.78005 0.83344 0.0
H2051 H 0.21312 0.77616 0.86112 0.0
H2052 H 0.23865 0.78939 0.841 0.0
H2053 H 0.17202 0.84165 0.85643 0.0
H2054 H 0.19472 0.87127 0.8702 0.0
H2055 H 0.17953 0.84075 0.88462 0.0
C2056 C 0.38959 0.14925 0.38025 0.0
C2057 C 0.38488 0.13557 0.36054 0.0
C2058 C 0.38693 0.1713 0.38167 0.0
C2059 C 0.38012 0.18029 0.36274 0.0
C2060 C 0.37384 0.16563 0.34312 0.0
C2061 C 0.37601 0.14318 0.34232 0.0
C2062 C 0.3932 0.18596 0.40306 0.0
C2063 C 0.3669 0.17476 0.32249 0.0
C2064 C 0.36669 0.2362 0.36917 0.0
C2065 C 0.39147 0.2576 0.36566 0.0
C2066 C 0.36246 0.21075 0.36802 0.0
C2067 C 0.38339 0.20676 0.36275 0.0
C2068 C 0.40823 0.22836 0.35854 0.0
C2069 C 0.41201 0.25347 0.36029 0.0
C2070 C 0.33587 0.18823 0.37306 0.0
C2071 C 0.431 0.225 0.35248 0.0
H2072 H 0.39624 0.1432 0.39441 0.0
H2073 H 0.37254 0.13268 0.32703 0.0
H2074 H 0.41221 0.20408 0.40168 0.0
H2075 H 0.37842 0.19155 0.40689 0.0
H2076 H 0.39422 0.17441 0.41692 0.0
H2077 H 0.35902 0.15951 0.30964 0.0
H2078 H 0.35244 0.18085 0.32597 0.0
H2079 H 0.38451 0.19192 0.31593 0.0
H2080 H 0.3508 0.23936 0.37337 0.0
H2081 H 0.43114 0.26995 0.35728 0.0
H2082 H 0.33679 0.17817 0.38804 0.0
H2083 H 0.32912 0.17389 0.35952 0.0
H2084 H 0.32134 0.19448 0.37567 0.0
H2085 H 0.43585 0.21617 0.36636 0.0
H2086 H 0.44854 0.2437 0.34824 0.0
H2087 H 0.42593 0.21166 0.3383 0.0
C2088 C 0.2368 0.36941 0.85249 0.0
C2089 C 0.25294 0.38082 0.87065 0.0
C2090 C 0.21198 0.36674 0.85172 0.0
C2091 C 0.20307 0.37517 0.86974 0.0
C2092 C 0.21853 0.38463 0.88881 0.0
C2093 C 0.24343 0.38767 0.88892 0.0
C2094 C 0.19626 0.35693 0.83096 0.0
C2095 C 0.20957 0.3933 0.90857 0.0
C2096 C 0.16123 0.40555 0.86028 0.0
C2097 C 0.13661 0.38561 0.86656 0.0
C2098 C 0.18271 0.40193 0.86045 0.0
C2099 C 0.17967 0.37793 0.86756 0.0
C2100 C 0.1548 0.35754 0.87367 0.0
C2101 C 0.13342 0.36154 0.87285 0.0
C2102 C 0.20878 0.42404 0.8534 0.0
C2103 C 0.15095 0.33189 0.88172 0.0
H2104 H 0.24421 0.36422 0.83832 0.0
H2105 H 0.25584 0.39625 0.90308 0.0
H2106 H 0.17571 0.34276 0.83472 0.0
H2107 H 0.19661 0.37343 0.82218 0.0
H2108 H 0.20401 0.34765 0.81983 0.0
H2109 H 0.22198 0.39636 0.92312 0.0
H2110 H 0.21016 0.41182 0.90481 0.0
H2111 H 0.18923 0.37879 0.91274 0.0
H2112 H 0.16371 0.42408 0.85508 0.0
H2113 H 0.11439 0.34611 0.87774 0.0
H2114 H 0.21738 0.41736 0.84063 0.0
H2115 H 0.22228 0.4309 0.86754 0.0
H2116 H 0.20744 0.44073 0.84681 0.0
H2117 H 0.15908 0.32379 0.86981 0.0
H2118 H 0.13016 0.31747 0.88446 0.0
H2119 H 0.16156 0.33484 0.89737 0.0
C2120 C 0.75281 0.15792 0.36308 0.0
C2121 C 0.74841 0.13346 0.36959 0.0
C2122 C 0.77791 0.17933 0.36223 0.0
C2123 C 0.7992 0.17643 0.36851 0.0
C2124 C 0.79499 0.15171 0.37486 0.0
C2125 C 0.76956 0.13036 0.37508 0.0
C2126 C 0.78153 0.20521 0.35495 0.0
C2127 C 0.81717 0.14802 0.38206 0.0
C2128 C 0.8636 0.23332 0.35061 0.0
C2129 C 0.86913 0.25007 0.36845 0.0
C2130 C 0.84168 0.2083 0.35088 0.0
C2131 C 0.82544 0.19986 0.36962 0.0
C2132 C 0.83241 0.21597 0.38836 0.0
C2133 C 0.85397 0.24103 0.38743 0.0
C2134 C 0.83473 0.19188 0.33046 0.0
C2135 C 0.81601 0.20754 0.40885 0.0
H2136 H 0.73656 0.16032 0.35845 0.0
H2137 H 0.76617 0.11145 0.3801 0.0
H2138 H 0.78899 0.21916 0.36878 0.0
H2139 H 0.79606 0.21337 0.34157 0.0
H2140 H 0.76317 0.20373 0.34908 0.0
H2141 H 0.81093 0.1273 0.385 0.0
H2142 H 0.83277 0.15584 0.36955 0.0
H2143 H 0.82566 0.15901 0.39741 0.0
H2144 H 0.87531 0.24037 0.3359 0.0
H2145 H 0.85846 0.25392 0.40134 0.0
H2146 H 0.81817 0.19197 0.3222 0.0
H2147 H 0.82854 0.17145 0.33458 0.0
H2148 H 0.85119 0.19926 0.31874 0.0
H2149 H 0.79784 0.20798 0.40589 0.0
H2150 H 0.82621 0.22039 0.42299 0.0
H2151 H 0.8105 0.18734 0.41325 0.0
C2152 C 0.60582 0.75692 0.88593 0.0
C2153 C 0.61504 0.74888 0.86822 0.0
C2154 C 0.60796 0.78146 0.88606 0.0
C2155 C 0.61886 0.79803 0.86773 0.0
C2156 C 0.62927 0.79045 0.85024 0.0
C2157 C 0.62753 0.76602 0.85083 0.0
C2158 C 0.59722 0.78904 0.9053 0.0
C2159 C 0.64053 0.80728 0.83021 0.0
C2160 C 0.58928 0.84061 0.8581 0.0
C2161 C 0.60865 0.86466 0.866 0.0
C2162 C 0.59297 0.81915 0.8576 0.0
C2163 C 0.61633 0.8216 0.86582 0.0
C2164 C 0.63623 0.84601 0.87342 0.0
C2165 C 0.63227 0.86742 0.87314 0.0
C2166 C 0.57151 0.79366 0.84884 0.0
C2167 C 0.66112 0.84921 0.88278 0.0
H2168 H 0.59632 0.74371 0.89946 0.0
H2169 H 0.63448 0.75972 0.83704 0.0
H2170 H 0.61121 0.80908 0.9107 0.0
H2171 H 0.57913 0.78872 0.90034 0.0
H2172 H 0.59272 0.77568 0.91942 0.0
H2173 H 0.65058 0.80015 0.81932 0.0
H2174 H 0.6247 0.80749 0.82077 0.0
H2175 H 0.65442 0.82759 0.83495 0.0
H2176 H 0.57109 0.83854 0.85239 0.0
H2177 H 0.64718 0.886 0.8794 0.0
H2178 H 0.56317 0.77933 0.86234 0.0
H2179 H 0.5793 0.7857 0.83646 0.0
H2180 H 0.55563 0.79564 0.84122 0.0
H2181 H 0.65687 0.83791 0.89818 0.0
H2182 H 0.67544 0.86982 0.88637 0.0
H2183 H 0.67 0.84146 0.87127 0.0
C2184 C 0.37471 0.96026 0.95724 0.0
C2185 C 0.36604 0.97126 0.94139 0.0
C2186 C 0.3783 0.96861 0.97912 0.0
C2187 C 0.373 0.9884 0.98539 0.0
C2188 C 0.36367 0.99918 0.96959 0.0
C2189 C 0.36036 0.99053 0.94778 0.0
C2190 C 0.38836 0.95668 0.99543 0.0
C2191 C 0.35769 0.02023 0.97564 0.0
C2192 C 0.36526 0.99724 0.04624 0.0
C2193 C 0.38989 0.01798 0.05157 0.0
C2194 C 0.35936 0.98753 0.02473 0.0
C2195 C 0.37855 0.99876 0.00819 0.0
C2196 C 0.40337 0.01977 0.01347 0.0
C2197 C 0.4087 0.02914 0.03503 0.0
C2198 C 0.33263 0.9652 0.0197 0.0
C2199 C 0.42442 0.03226 0.99636 0.0
H2200 H 0.37906 0.94529 0.95251 0.0
H2201 H 0.35353 0.99907 0.93569 0.0
H2202 H 0.40756 0.97174 0.00167 0.0
H2203 H 0.3751 0.94899 0.00971 0.0
H2204 H 0.39042 0.94069 0.98818 0.0
H2205 H 0.34927 0.0256 0.96174 0.0
H2206 H 0.34389 0.01384 0.98957 0.0
H2207 H 0.3757 0.03781 0.98104 0.0
H2208 H 0.35058 0.98855 0.05889 0.0
H2209 H 0.42776 0.04523 0.03892 0.0
H2210 H 0.33407 0.94841 0.01359 0.0
H2211 H 0.32353 0.97078 0.00654 0.0
H2212 H 0.31973 0.95896 0.03427 0.0
H2213 H 0.42882 0.01765 0.98946 0.0
H2214 H 0.4426 0.04861 0.00309 0.0
H2215 H 0.4177 0.03964 0.98264 0.0
C2216 C 0.41313 0.37914 0.46564 0.0
C2217 C 0.3932 0.37048 0.45005 0.0
C2218 C 0.40892 0.38351 0.48746 0.0
C2219 C 0.38417 0.37911 0.49387 0.0
C2220 C 0.36388 0.37005 0.47829 0.0
C2221 C 0.36863 0.36585 0.45658 0.0
C2222 C 0.43103 0.39314 0.50361 0.0
C2223 C 0.33723 0.36508 0.4845 0.0
C2224 C 0.36722 0.3703 0.55449 0.0
C2225 C 0.37181 0.39505 0.56036 0.0
C2226 C 0.37105 0.3648 0.5329 0.0
C2227 C 0.37968 0.38449 0.51678 0.0
C2228 C 0.38416 0.40944 0.52256 0.0
C2229 C 0.38016 0.41441 0.54427 0.0
C2230 C 0.36602 0.33795 0.52735 0.0
C2231 C 0.39333 0.43094 0.50584 0.0
H2232 H 0.43215 0.3827 0.46078 0.0
H2233 H 0.35309 0.35911 0.44467 0.0
H2234 H 0.4355 0.41234 0.51011 0.0
H2235 H 0.42541 0.37967 0.51775 0.0
H2236 H 0.44891 0.39501 0.49615 0.0
H2237 H 0.3234 0.35751 0.47057 0.0
H2238 H 0.32931 0.35091 0.49815 0.0
H2239 H 0.33849 0.38331 0.49039 0.0
H2240 H 0.36074 0.35521 0.56681 0.0
H2241 H 0.3837 0.43357 0.54861 0.0
H2242 H 0.38403 0.33906 0.52105 0.0
H2243 H 0.35126 0.32938 0.51418 0.0
H2244 H 0.35914 0.32473 0.54172 0.0
H2245 H 0.41221 0.43497 0.49888 0.0
H2246 H 0.39567 0.44918 0.51293 0.0
H2247 H 0.37931 0.42488 0.49208 0.0
C2248 C 0.04007 0.41225 0.96324 0.0
C2249 C 0.02905 0.39199 0.94791 0.0
C2250 C 0.03181 0.40824 0.98515 0.0
C2251 C 0.01213 0.38334 0.99196 0.0
C2252 C 0.00139 0.36266 0.97671 0.0
C2253 C 0.00993 0.36723 0.95487 0.0
C2254 C 0.0437 0.4308 0.00091 0.0
C2255 C 0.98046 0.33581 0.98335 0.0
C2256 C 0.00357 0.36831 0.05301 0.0
C2257 C 0.98268 0.37206 0.05805 0.0
C2258 C 0.01331 0.37179 0.03154 0.0
C2259 C 0.00194 0.37925 0.01477 0.0
C2260 C 0.98079 0.38295 0.01976 0.0
C2261 C 0.9714 0.37927 0.0413 0.0
C2262 C 0.0358 0.36753 0.02682 0.0
C2263 C 0.96814 0.39095 0.00235 0.0
H2264 H 0.05489 0.43142 0.95804 0.0
H2265 H 0.00138 0.35142 0.94319 0.0
H2266 H 0.02858 0.43504 0.00684 0.0
H2267 H 0.05153 0.42583 0.01544 0.0
H2268 H 0.05958 0.44864 0.99329 0.0
H2269 H 0.97505 0.32154 0.96982 0.0
H2270 H 0.987 0.32893 0.99756 0.0
H2271 H 0.96288 0.33634 0.98856 0.0
H2272 H 0.01237 0.36269 0.06583 0.0
H2273 H 0.95522 0.38217 0.045 0.0
H2274 H 0.05241 0.38562 0.02032 0.0
H2275 H 0.03025 0.3524 0.01404 0.0
H2276 H 0.04229 0.36149 0.04162 0.0
H2277 H 0.98267 0.40976 0.99507 0.0
H2278 H 0.95181 0.39293 0.00891 0.0
H2279 H 0.96069 0.37642 0.98894 0.0
C2280 C 0.63484 0.00365 0.45614 0.0
C2281 C 0.63077 0.02396 0.44965 0.0
C2282 C 0.63043 0.99463 0.47782 0.0
C2283 C 0.62172 0.00617 0.49341 0.0
C2284 C 0.61788 0.02688 0.48705 0.0
C2285 C 0.62247 0.03555 0.46526 0.0
C2286 C 0.63482 0.97255 0.48399 0.0
C2287 C 0.6086 0.03968 0.50323 0.0
C2288 C 0.58593 0.96698 0.54367 0.0
C2289 C 0.6053 0.97768 0.55977 0.0
C2290 C 0.59104 0.97605 0.522 0.0
C2291 C 0.61614 0.99624 0.51628 0.0
C2292 C 0.63585 0.00697 0.53239 0.0
C2293 C 0.63019 0.99758 0.55396 0.0
C2294 C 0.56952 0.96412 0.50527 0.0
C2295 C 0.66288 0.02845 0.52688 0.0
H2296 H 0.64131 0.9946 0.44421 0.0
H2297 H 0.61932 0.05128 0.46042 0.0
H2298 H 0.64893 0.9785 0.49766 0.0
H2299 H 0.6164 0.95579 0.48981 0.0
H2300 H 0.64221 0.9661 0.47005 0.0
H2301 H 0.6071 0.05591 0.49579 0.0
H2302 H 0.58929 0.02518 0.5097 0.0
H2303 H 0.62207 0.04728 0.51737 0.0
H2304 H 0.56666 0.95159 0.548 0.0
H2305 H 0.6453 0.00593 0.56628 0.0
H2306 H 0.57533 0.95596 0.49149 0.0
H2307 H 0.56589 0.97925 0.49835 0.0
H2308 H 0.55112 0.94845 0.51234 0.0
H2309 H 0.67123 0.02204 0.51369 0.0
H2310 H 0.67607 0.03452 0.54125 0.0
H2311 H 0.66215 0.04557 0.52062 0.0
C2312 C 0.63678 0.63039 0.05037 0.0
C2313 C 0.63246 0.60567 0.05597 0.0
C2314 C 0.6335 0.6363 0.02872 0.0
C2315 C 0.62557 0.617 0.01229 0.0
C2316 C 0.62151 0.59213 0.01779 0.0
C2317 C 0.62507 0.5868 0.03951 0.0
C2318 C 0.6382 0.6631 0.02348 0.0
C2319 C 0.61292 0.57097 1.0008 0.0
C2320 C 0.59063 0.62181 0.96195 0.0
C2321 C 0.61014 0.63071 0.94593 0.0
C2322 C 0.59549 0.61753 0.9836 0.0
C2323 C 0.62053 0.62242 0.98951 0.0
C2324 C 0.64045 0.63181 0.97353 0.0
C2325 C 0.635 0.63576 0.95191 0.0
C2326 C 0.57367 0.6074 1.0001 0.0
C2327 C 0.66745 0.63743 0.97922 0.0
H2328 H 0.64262 0.64514 0.06293 0.0
H2329 H 0.62175 0.56766 0.04362 0.0
H2330 H 0.65258 0.67182 0.01005 0.0
H2331 H 0.61994 0.66184 0.01769 0.0
H2332 H 0.64537 0.67625 0.03789 0.0
H2333 H 0.61132 0.55291 0.00758 0.0
H2334 H 0.59377 0.56637 0.99407 0.0
H2335 H 0.62683 0.57766 0.98694 0.0
H2336 H 0.57136 0.61788 0.95754 0.0
H2337 H 0.65023 0.64274 0.93969 0.0
H2338 H 0.57928 0.62081 0.01427 0.0
H2339 H 0.56981 0.58833 0.00645 0.0
H2340 H 0.55544 0.60506 0.99299 0.0
H2341 H 0.67529 0.65145 0.99298 0.0
H2342 H 0.68099 0.64547 0.96512 0.0
H2343 H 0.66682 0.61937 0.98475 0.0
C2344 C 0.00313 0.636 0.54725 0.0
C2345 C 0.02431 0.63277 0.55244 0.0
C2346 C 0.99306 0.63171 0.52585 0.0
C2347 C 0.00437 0.6239 0.50927 0.0
C2348 C 0.02587 0.62081 0.51438 0.0
C2349 C 0.0356 0.62534 0.53585 0.0
C2350 C 0.97022 0.63535 0.52102 0.0
C2351 C 0.03846 0.61245 0.49721 0.0
C2352 C 0.96477 0.58793 0.45913 0.0
C2353 C 0.97486 0.6074 0.44307 0.0
C2354 C 0.9739 0.59314 0.48079 0.0
C2355 C 0.99352 0.61848 0.48663 0.0
C2356 C 0.00342 0.63836 0.47062 0.0
C2357 C 0.99402 0.63258 0.44903 0.0
C2358 C 0.96289 0.57138 0.49735 0.0
C2359 C 0.02424 0.66566 0.47621 0.0
H2360 H 0.99432 0.64181 0.55993 0.0
H2361 H 0.052 0.62283 0.53965 0.0
H2362 H 0.97518 0.64969 0.50764 0.0
H2363 H 0.95356 0.61679 0.5153 0.0
H2364 H 0.96404 0.64208 0.53559 0.0
H2365 H 0.05524 0.61127 0.50376 0.0
H2366 H 0.02406 0.59316 0.49062 0.0
H2367 H 0.04522 0.62629 0.4833 0.0
H2368 H 0.94992 0.56843 0.45472 0.0
H2369 H 0.00187 0.6478 0.43678 0.0
H2370 H 0.95517 0.5768 0.51169 0.0
H2371 H 0.97849 0.56794 0.50342 0.0
H2372 H 0.94712 0.55297 0.49039 0.0
H2373 H 0.01791 0.67312 0.49015 0.0
H2374 H 0.02908 0.67915 0.46214 0.0
H2375 H 0.04212 0.66571 0.48142 0.0
C2376 C 0.63331 0.9992 0.955 0.0
C2377 C 0.60907 0.97794 0.94956 0.0
C2378 C 0.63859 0.00918 0.97638 0.0
C2379 C 0.61917 0.99765 0.99266 0.0
C2380 C 0.5947 0.97616 0.98729 0.0
C2381 C 0.58995 0.96654 0.96581 0.0
C2382 C 0.66495 0.03207 0.98155 0.0
C2383 C 0.5735 0.96335 0.00423 0.0
C2384 C 0.63849 0.00693 0.05261 0.0
C2385 C 0.63267 0.02612 0.05896 0.0
C2386 C 0.6345 0.99774 0.03101 0.0
C2387 C 0.62442 0.00793 0.01539 0.0
C2388 C 0.6188 0.02752 0.02161 0.0
C2389 C 0.62303 0.03641 0.04333 0.0
C2390 C 0.64079 0.97689 0.02496 0.0
C2391 C 0.60801 0.03883 0.00538 0.0
H2392 H 0.6482 0.00811 0.94255 0.0
H2393 H 0.57117 0.95009 0.96176 0.0
H2394 H 0.66284 0.04845 0.98774 0.0
H2395 H 0.67437 0.02683 0.99469 0.0
H2396 H 0.67794 0.03879 0.96703 0.0
H2397 H 0.55553 0.94683 0.99738 0.0
H2398 H 0.58028 0.95613 0.01802 0.0
H2399 H 0.5687 0.97772 0.01107 0.0
H2400 H 0.64602 0.99893 0.06456 0.0
H2401 H 0.61855 0.05128 0.04808 0.0
H2402 H 0.6548 0.98355 0.01117 0.0
H2403 H 0.62296 0.95927 0.01934 0.0
H2404 H 0.64913 0.9715 0.0389 0.0
H2405 H 0.62121 0.04694 0.99111 0.0
H2406 H 0.60528 0.05439 0.0127 0.0
H2407 H 0.58903 0.02334 0.99913 0.0
C2408 C 0.6253 0.59315 0.46235 0.0
C2409 C 0.6324 0.61197 0.4459 0.0
C2410 C 0.62188 0.59844 0.48408 0.0
C2411 C 0.62581 0.62324 0.48959 0.0
C2412 C 0.63341 0.64251 0.47317 0.0
C2413 C 0.63655 0.63663 0.45148 0.0
C2414 C 0.61362 0.5773 0.50107 0.0
C2415 C 0.63795 0.66923 0.47848 0.0
C2416 C 0.59099 0.62675 0.5404 0.0
C2417 C 0.61058 0.63533 0.55631 0.0
C2418 C 0.59584 0.62319 0.51857 0.0
C2419 C 0.62095 0.62853 0.5124 0.0
C2420 C 0.64098 0.63771 0.52826 0.0
C2421 C 0.63553 0.64092 0.55007 0.0
C2422 C 0.57391 0.61319 0.50218 0.0
C2423 C 0.66804 0.64379 0.52226 0.0
H2424 H 0.62214 0.57406 0.45825 0.0
H2425 H 0.64217 0.65132 0.43889 0.0
H2426 H 0.62772 0.58407 0.51479 0.0
H2427 H 0.59453 0.5726 0.50801 0.0
H2428 H 0.61203 0.55928 0.49422 0.0
H2429 H 0.64486 0.68236 0.46405 0.0
H2430 H 0.6197 0.66783 0.48448 0.0
H2431 H 0.65248 0.67806 0.49179 0.0
H2432 H 0.57167 0.62246 0.54503 0.0
H2433 H 0.65082 0.64773 0.56222 0.0
H2434 H 0.56998 0.59414 0.49571 0.0
H2435 H 0.57943 0.62666 0.48807 0.0
H2436 H 0.55574 0.61083 0.50945 0.0
H2437 H 0.66767 0.62588 0.51665 0.0
H2438 H 0.68174 0.65203 0.53624 0.0
H2439 H 0.67552 0.65781 0.50847 0.0
C2440 C 0.99861 0.63485 0.04619 0.0
C2441 C 0.97778 0.61063 0.05229 0.0
C2442 C 0.00757 0.63979 0.02445 0.0
C2443 C 0.99551 0.61999 0.0085 0.0
C2444 C 0.97432 0.59561 0.01453 0.0
C2445 C 0.96566 0.59127 0.03631 0.0
C2446 C 0.0301 0.6661 0.01858 0.0
C2447 C 0.96104 0.57393 0.99806 0.0
C2448 C 0.00398 0.63607 0.94767 0.0
C2449 C 0.02323 0.63012 0.94194 0.0
C2450 C 0.99513 0.6334 0.96938 0.0
C2451 C 0.0056 0.62432 0.98566 0.0
C2452 C 0.02516 0.61846 0.97998 0.0
C2453 C 0.03382 0.62156 0.95824 0.0
C2454 C 0.97444 0.64009 0.97487 0.0
C2455 C 0.03665 0.60849 0.99681 0.0
H2456 H 0.008 0.64996 0.0584 0.0
H2457 H 0.94949 0.5725 0.04083 0.0
H2458 H 0.04668 0.66406 0.01286 0.0
H2459 H 0.02462 0.67468 0.00491 0.0
H2460 H 0.03662 0.67974 0.03266 0.0
H2461 H 0.94441 0.55634 0.00528 0.0
H2462 H 0.95388 0.58045 0.98404 0.0
H2463 H 0.97512 0.56861 0.99147 0.0
H2464 H 0.99583 0.64287 0.9352 0.0
H2465 H 0.04874 0.61694 0.95399 0.0
H2466 H 0.98124 0.65466 0.98824 0.0
H2467 H 0.95679 0.62256 0.98086 0.0
H2468 H 0.96908 0.64793 0.96054 0.0
H2469 H 0.04497 0.62241 0.0106 0.0
H2470 H 0.05209 0.60534 0.98983 0.0
H2471 H 0.02121 0.58987 0.00369 0.0
C2472 C 0.36173 0.99932 0.54371 0.0
C2473 C 0.36639 0.97937 0.55007 0.0
C2474 C 0.36537 0.00801 0.5219 0.0
C2475 C 0.3741 0.99664 0.50613 0.0
C2476 C 0.37854 0.9763 0.51242 0.0
C2477 C 0.37453 0.96785 0.53425 0.0
C2478 C 0.3602 0.02958 0.51577 0.0
C2479 C 0.38806 0.9638 0.49616 0.0
C2480 C 0.36657 0.00438 0.44511 0.0
C2481 C 0.39146 0.02446 0.43955 0.0
C2482 C 0.36045 0.99544 0.46681 0.0
C2483 C 0.37973 0.0067 0.48327 0.0
C2484 C 0.40479 0.02711 0.47776 0.0
C2485 C 0.41031 0.0358 0.45602 0.0
C2486 C 0.33344 0.9738 0.4721 0.0
C2487 C 0.42596 0.03951 0.49478 0.0
H2488 H 0.35527 0.00822 0.5558 0.0
H2489 H 0.37813 0.95237 0.53897 0.0
H2490 H 0.37843 0.04676 0.51018 0.0
H2491 H 0.34626 0.0234 0.50195 0.0
H2492 H 0.35226 0.03549 0.52969 0.0
H2493 H 0.38986 0.9477 0.50352 0.0
H2494 H 0.37461 0.95609 0.48202 0.0
H2495 H 0.4073 0.97852 0.4897 0.0
H2496 H 0.35185 0.99562 0.43251 0.0
H2497 H 0.42959 0.05137 0.45193 0.0
H2498 H 0.3249 0.97996 0.48533 0.0
H2499 H 0.33425 0.95667 0.47822 0.0
H2500 H 0.32038 0.96783 0.45764 0.0
H2501 H 0.41956 0.0473 0.50842 0.0
H2502 H 0.44427 0.05554 0.48791 0.0
H2503 H 0.43002 0.02472 0.50183 0.0
C2504 C 0.41523 0.37387 0.04293 0.0
C2505 C 0.39444 0.36366 0.05776 0.0
C2506 C 0.41156 0.37789 0.02088 0.0
C2507 C 0.38651 0.37145 0.01348 0.0
C2508 C 0.36533 0.36049 0.02823 0.0
C2509 C 0.36955 0.35676 0.05019 0.0
C2510 C 0.43462 0.38966 0.00563 0.0
C2511 C 0.33831 0.35328 0.02092 0.0
C2512 C 0.38081 0.40701 0.96418 0.0
C2513 C 0.37443 0.38864 0.94745 0.0
C2514 C 0.38499 0.4017 0.98568 0.0
C2515 C 0.38265 0.37739 0.99062 0.0
C2516 C 0.37629 0.35877 0.97382 0.0
C2517 C 0.37228 0.36463 0.9524 0.0
C2518 C 0.39176 0.42208 0.00315 0.0
C2519 C 0.37354 0.33261 0.97852 0.0
H2520 H 0.4345 0.37918 0.04862 0.0
H2521 H 0.35335 0.34874 0.0615 0.0
H2522 H 0.43063 0.37718 0.99099 0.0
H2523 H 0.43817 0.40882 0.99979 0.0
H2524 H 0.45255 0.39234 0.01366 0.0
H2525 H 0.32372 0.34371 0.03413 0.0
H2526 H 0.33798 0.37095 0.01563 0.0
H2527 H 0.33248 0.34004 0.00662 0.0
H2528 H 0.38249 0.42561 0.96052 0.0
H2529 H 0.36731 0.35032 0.93957 0.0
H2530 H 0.41055 0.42702 0.01086 0.0
H2531 H 0.37684 0.4144 0.01624 0.0
H2532 H 0.39317 0.44013 0.99654 0.0
H2533 H 0.3918 0.33512 0.98564 0.0
H2534 H 0.36883 0.32041 0.96358 0.0
H2535 H 0.358 0.32211 0.9908 0.0
C2536 C 0.03368 0.41275 0.54043 0.0
C2537 C 0.02428 0.39231 0.55558 0.0
C2538 C 0.02582 0.40825 0.51844 0.0
C2539 C 0.0083 0.38268 0.51139 0.0
C2540 C 0.99918 0.36188 0.52648 0.0
C2541 C 0.0072 0.36696 0.54843 0.0
C2542 C 0.03584 0.43096 0.50286 0.0
C2543 C 0.98062 0.33432 0.51952 0.0
C2544 C 0.96709 0.37489 0.46149 0.0
C2545 C 0.98036 0.36999 0.44488 0.0
C2546 C 0.97591 0.37888 0.4832 0.0
C2547 C 0.99855 0.3779 0.48847 0.0
C2548 C 0.01195 0.37276 0.47184 0.0
C2549 C 0.0027 0.36886 0.4502 0.0
C2550 C 0.96107 0.38431 0.50047 0.0
C2551 C 0.03612 0.37149 0.47689 0.0
H2552 H 0.04692 0.4324 0.54579 0.0
H2553 H -1e-05 0.35103 0.56 0.0
H2554 H 0.04512 0.42754 0.48848 0.0
H2555 H 0.01942 0.43299 0.49667 0.0
H2556 H 0.05014 0.4495 0.51073 0.0
H2557 H 0.97638 0.3202 0.53299 0.0
H2558 H 0.9621 0.33265 0.51398 0.0
H2559 H 0.98876 0.32893 0.50546 0.0
H2560 H 0.94973 0.37566 0.45758 0.0
H2561 H 0.01301 0.36501 0.43747 0.0
H2562 H 0.97381 0.40356 0.50801 0.0
H2563 H 0.95482 0.36965 0.51372 0.0
H2564 H 0.94364 0.3841 0.4937 0.0
H2565 H 0.0513 0.39034 0.48362 0.0
H2566 H 0.04401 0.36683 0.46218 0.0
H2567 H 0.03186 0.35655 0.48959 0.0
C2568 C 0.4866 0.05704 0.10858 0.0
C2569 C 0.46357 0.0415 0.12009 0.0
C2570 C 0.50772 0.05296 0.11029 0.0
C2571 C 0.50594 0.03306 0.12415 0.0
C2572 C 0.48221 0.01632 0.13486 0.0
C2573 C 0.46114 0.02062 0.13255 0.0
C2574 C 0.53249 0.071 0.09826 0.0
C2575 C 0.4796 0.995 0.14985 0.0
C2576 C 0.5633 0.02212 0.11876 0.0
C2577 C 0.58046 0.04016 0.13398 0.0
C2578 C 0.53809 0.01817 0.11623 0.0
C2579 C 0.52996 0.03236 0.12945 0.0
C2580 C 0.5466 0.049 0.14601 0.0
C2581 C 0.5717 0.05284 0.14794 0.0
C2582 C 0.52097 0.00037 0.09833 0.0
C2583 C 0.53862 0.06423 0.1607 0.0
H2584 H 0.48833 0.07286 0.09859 0.0
H2585 H 0.44332 0.00858 0.14147 0.0
H2586 H 0.54758 0.08371 0.1102 0.0
H2587 H 0.53992 0.05976 0.08941 0.0
H2588 H 0.52976 0.0835 0.0863 0.0
H2589 H 0.45904 0.98126 0.15411 0.0
H2590 H 0.48811 0.98404 0.14221 0.0
H2591 H 0.49045 0.00369 0.16522 0.0
H2592 H 0.57009 0.01236 0.10789 0.0
H2593 H 0.58483 0.06653 0.15993 0.0
H2594 H 0.52054 0.01218 0.08445 0.0
H2595 H 0.50075 0.9882 0.10421 0.0
H2596 H 0.52812 0.98752 0.09215 0.0
H2597 H 0.53765 0.07948 0.15098 0.0
H2598 H 0.55247 0.07375 0.17441 0.0
H2599 H 0.51904 0.05139 0.16763 0.0
C2600 C 0.51597 0.57649 0.61494 0.0
C2601 C 0.53895 0.58371 0.62642 0.0
C2602 C 0.49485 0.55125 0.6163 0.0
C2603 C 0.49659 0.53285 0.6298 0.0
C2604 C 0.52022 0.53965 0.64061 0.0
C2605 C 0.5413 0.56506 0.63863 0.0
C2606 C 0.4702 0.5447 0.60414 0.0
C2607 C 0.52273 0.52062 0.65527 0.0
C2608 C 0.43043 0.48473 0.65178 0.0
C2609 C 0.42264 0.46393 0.63722 0.0
C2610 C 0.45533 0.50648 0.65062 0.0
C2611 C 0.47272 0.50767 0.63423 0.0
C2612 C 0.46553 0.48605 0.62034 0.0
C2613 C 0.44055 0.46428 0.62212 0.0
C2614 C 0.46236 0.52891 0.666 0.0
C2615 C 0.48342 0.48667 0.60255 0.0
H2616 H 0.51434 0.59078 0.60515 0.0
H2617 H 0.5591 0.57068 0.64753 0.0
H2618 H 0.46321 0.52647 0.59471 0.0
H2619 H 0.4548 0.54155 0.61603 0.0
H2620 H 0.47291 0.56036 0.59267 0.0
H2621 H 0.54319 0.52763 0.66002 0.0
H2622 H 0.5112 0.51758 0.67039 0.0
H2623 H 0.51488 0.50151 0.64709 0.0
H2624 H 0.41673 0.48436 0.66367 0.0
H2625 H 0.43454 0.44825 0.61079 0.0
H2626 H 0.46311 0.54533 0.65676 0.0
H2627 H 0.48183 0.53582 0.6732 0.0
H2628 H 0.44807 0.52363 0.67951 0.0
H2629 H 0.48416 0.49962 0.58915 0.0
H2630 H 0.47678 0.4671 0.59557 0.0
H2631 H 0.50345 0.49461 0.60887 0.0
C2632 C 0.93965 0.42639 0.14431 0.0
C2633 C 0.95466 0.41994 0.13086 0.0
C2634 C 0.94219 0.45107 0.14339 0.0
C2635 C 0.95972 0.46956 0.12826 0.0
C2636 C 0.97556 0.46345 0.11513 0.0
C2637 C 0.97304 0.43874 0.11677 0.0
C2638 C 0.92531 0.45697 0.158 0.0
C2639 C 0.99408 0.48244 0.0985 0.0
C2640 C 0.93787 0.51613 0.10946 0.0
C2641 C 0.95356 0.53817 0.12206 0.0
C2642 C 0.94075 0.49421 0.11043 0.0
C2643 C 0.95938 0.49411 0.12477 0.0
C2644 C 0.97595 0.51669 0.13697 0.0
C2645 C 0.97303 0.53866 0.13526 0.0
C2646 C 0.9231 0.47078 0.09675 0.0
C2647 C 0.99572 0.51716 0.15271 0.0
H2648 H 0.92562 0.41197 0.15539 0.0
H2649 H 0.98456 0.43373 0.10625 0.0
H2650 H 0.93722 0.47573 0.16656 0.0
H2651 H 0.91081 0.45881 0.14791 0.0
H2652 H 0.91479 0.44159 0.17044 0.0
H2653 H 0.00683 0.47578 0.09117 0.0
H2654 H 0.98288 0.48498 0.08517 0.0
H2655 H 0.00639 0.50173 0.1061 0.0
H2656 H 0.92307 0.51594 0.099 0.0
H2657 H 0.98507 0.55571 0.14508 0.0
H2658 H 0.9095 0.45474 0.10758 0.0
H2659 H 0.93459 0.46384 0.08762 0.0
H2660 H 0.91154 0.47495 0.08484 0.0
H2661 H 0.98558 0.50394 0.16663 0.0
H2662 H 0.00878 0.53691 0.1593 0.0
H2663 H 0.00766 0.51005 0.14459 0.0
C2664 C 0.42008 0.93595 0.61346 0.0
C2665 C 0.41435 0.95418 0.62239 0.0
C2666 C 0.445 0.93922 0.61513 0.0
C2667 C 0.46455 0.96097 0.62649 0.0
C2668 C 0.45908 0.97982 0.63508 0.0
C2669 C 0.43405 0.97635 0.63269 0.0
C2670 C 0.45018 0.91896 0.60528 0.0
C2671 C 0.47926 0.00298 0.64766 0.0
C2672 C 0.51476 0.94674 0.65026 0.0
C2673 C 0.53473 0.95826 0.63478 0.0
C2674 C 0.49255 0.94908 0.64857 0.0
C2675 C 0.48997 0.96268 0.63062 0.0
C2676 C 0.51061 0.97535 0.61548 0.0
C2677 C 0.53295 0.97323 0.61789 0.0
C2678 C 0.47126 0.93577 0.66536 0.0
C2679 C 0.50839 0.98959 0.5959 0.0
H2680 H 0.40501 0.91903 0.60519 0.0
H2681 H 0.42962 0.99042 0.63968 0.0
H2682 H 0.46772 0.92831 0.59476 0.0
H2683 H 0.45396 0.9085 0.61851 0.0
H2684 H 0.43361 0.90453 0.59531 0.0
H2685 H 0.4726 0.0169 0.65175 0.0
H2686 H 0.48385 0.99633 0.66313 0.0
H2687 H 0.49751 0.01327 0.63811 0.0
H2688 H 0.51624 0.93531 0.66342 0.0
H2689 H 0.54831 0.98194 0.60579 0.0
H2690 H 0.45435 0.91882 0.65776 0.0
H2691 H 0.46462 0.94913 0.67121 0.0
H2692 H 0.47762 0.92886 0.67969 0.0
H2693 H 0.49394 0.97538 0.58427 0.0
H2694 H 0.52716 0.00091 0.58717 0.0
H2695 H 0.50139 0.00294 0.60093 0.0
C2696 C 0.56058 0.53549 0.1354 0.0
C2697 C 0.58038 0.53167 0.1271 0.0
C2698 C 0.53503 0.51465 0.13725 0.0
C2699 C 0.52919 0.48963 0.1302 0.0
C2700 C 0.54891 0.48602 0.12084 0.0
C2701 C 0.57427 0.507 0.11961 0.0
C2702 C 0.5146 0.51916 0.14761 0.0
C2703 C 0.54342 0.45976 0.11271 0.0
C2704 C 0.47617 0.42682 0.15413 0.0
C2705 C 0.45774 0.41779 0.13727 0.0
C2706 C 0.49866 0.45121 0.15279 0.0
C2707 C 0.50307 0.46667 0.13389 0.0
C2708 C 0.48381 0.45829 0.1174 0.0
C2709 C 0.46118 0.43398 0.11939 0.0
C2710 C 0.51847 0.45964 0.17095 0.0
C2711 C 0.48795 0.474 0.09686 0.0
H2712 H 0.56524 0.55452 0.14128 0.0
H2713 H 0.58939 0.50401 0.11289 0.0
H2714 H 0.49705 0.51108 0.13714 0.0
H2715 H 0.50868 0.5089 0.16357 0.0
H2716 H 0.52167 0.54009 0.15044 0.0
H2717 H 0.56039 0.4607 0.10425 0.0
H2718 H 0.53809 0.44614 0.12671 0.0
H2719 H 0.52674 0.45154 0.10123 0.0
H2720 H 0.47343 0.4144 0.16806 0.0
H2721 H 0.44703 0.42694 0.10625 0.0
H2722 H 0.52527 0.48005 0.17565 0.0
H2723 H 0.53559 0.4586 0.16515 0.0
H2724 H 0.5106 0.4472 0.18573 0.0
H2725 H 0.49538 0.4947 0.10091 0.0
H2726 H 0.46983 0.46671 0.08716 0.0
H2727 H 0.50275 0.47304 0.08648 0.0
C2728 C 0.05081 0.48005 0.64614 0.0
C2729 C 0.03899 0.4598 0.63096 0.0
C2730 C 0.04784 0.50189 0.64467 0.0
C2731 C 0.0331 0.50374 0.6273 0.0
C2732 C 0.01976 0.48259 0.61271 0.0
C2733 C 0.02271 0.46067 0.61484 0.0
C2734 C 0.06204 0.52377 0.66082 0.0
C2735 C 0.00406 0.48391 0.59388 0.0
C2736 C 0.02266 0.56163 0.63105 0.0
C2737 C 0.04481 0.5806 0.62017 0.0
C2738 C 0.01766 0.53595 0.63261 0.0
C2739 C 0.03503 0.52919 0.62277 0.0
C2740 C 0.05639 0.54794 0.6105 0.0
C2741 C 0.0611 0.57342 0.6095 0.0
C2742 C 0.99478 0.51655 0.64591 0.0
C2743 C 0.07519 0.54149 0.59944 0.0
H2744 H 0.06317 0.47923 0.65878 0.0
H2745 H 0.01368 0.44503 0.60301 0.0
H2746 H 0.07849 0.54042 0.65247 0.0
H2747 H 0.049 0.53056 0.66718 0.0
H2748 H 0.06983 0.51795 0.6749 0.0
H2749 H 0.99154 0.46456 0.58636 0.0
H2750 H 0.99171 0.49193 0.59932 0.0
H2751 H 0.0174 0.49709 0.58111 0.0
H2752 H 0.01003 0.56715 0.63932 0.0
H2753 H 0.07797 0.58792 0.60074 0.0
H2754 H 0.00181 0.51288 0.66159 0.0
H2755 H 0.98415 0.49776 0.63715 0.0
H2756 H 0.98109 0.52359 0.64967 0.0
H2757 H 0.0864 0.53781 0.61204 0.0
H2758 H 0.08909 0.55743 0.58865 0.0
H2759 H 0.06455 0.52359 0.5895 0.0
C2760 C 0.94447 0.5167 0.35103 0.0
C2761 C 0.95662 0.53668 0.36644 0.0
C2762 C 0.94722 0.49469 0.35194 0.0
C2763 C 0.96206 0.49236 0.36898 0.0
C2764 C 0.97548 0.51308 0.38393 0.0
C2765 C 0.97278 0.53518 0.38235 0.0
C2766 C 0.93294 0.47326 0.33544 0.0
C2767 C 0.99119 0.51118 0.40248 0.0
C2768 C 0.93605 0.42258 0.38589 0.0
C2769 C 0.95321 0.41642 0.37538 0.0
C2770 C 0.93959 0.44763 0.38485 0.0
C2771 C 0.96058 0.46696 0.37264 0.0
C2772 C 0.97852 0.46115 0.36259 0.0
C2773 C 0.97476 0.43593 0.36426 0.0
C2774 C 0.92026 0.45311 0.39618 0.0
C2775 C 0.00092 0.48117 0.34921 0.0
H2776 H 0.9322 0.51796 0.33854 0.0
H2777 H 0.98209 0.55056 0.39436 0.0
H2778 H 0.946 0.46674 0.3286 0.0
H2779 H 0.91661 0.45632 0.34362 0.0
H2780 H 0.92498 0.47942 0.32172 0.0
H2781 H 0.00321 0.53012 0.41078 0.0
H2782 H 0.97789 0.49701 0.41475 0.0
H2783 H 0.00405 0.50401 0.39647 0.0
H2784 H 0.91965 0.40769 0.39484 0.0
H2785 H 0.98803 0.43119 0.3561 0.0
H2786 H 0.90896 0.45692 0.38376 0.0
H2787 H 0.93048 0.4707 0.40655 0.0
H2788 H 0.90647 0.43666 0.40661 0.0
H2789 H 0.99338 0.48551 0.33414 0.0
H2790 H 0.01459 0.47445 0.34438 0.0
H2791 H 0.01174 0.49956 0.3585 0.0
C2792 C 0.541 0.97949 0.86732 0.0
C2793 C 0.53985 0.96024 0.88123 0.0
C2794 C 0.51966 0.98344 0.86545 0.0
C2795 C 0.49705 0.968 0.87803 0.0
C2796 C 0.49689 0.95021 0.8935 0.0
C2797 C 0.51821 0.94639 0.89475 0.0
C2798 C 0.52056 0.00255 0.84875 0.0
C2799 C 0.47341 0.93367 0.90754 0.0
C2800 C 0.43857 0.97751 0.88181 0.0
C2801 C 0.42102 0.95748 0.86812 0.0
C2802 C 0.46412 0.98236 0.88437 0.0
C2803 C 0.47218 0.967 0.87274 0.0
C2804 C 0.45499 0.94801 0.85778 0.0
C2805 C 0.42963 0.94339 0.85579 0.0
C2806 C 0.48184 0.00269 0.90053 0.0
C2807 C 0.46284 0.93139 0.84481 0.0
H2808 H 0.55779 0.99018 0.85686 0.0
H2809 H 0.51757 0.9318 0.90577 0.0
H2810 H 0.50897 0.99182 0.83421 0.0
H2811 H 0.51192 0.01385 0.85545 0.0
H2812 H 0.5407 0.0162 0.84332 0.0
H2813 H 0.4777 0.92347 0.92071 0.0
H2814 H 0.46608 0.94569 0.91516 0.0
H2815 H 0.45764 0.91888 0.89716 0.0
H2816 H 0.43197 0.98843 0.8914 0.0
H2817 H 0.41626 0.92816 0.84493 0.0
H2818 H 0.50163 0.01448 0.89365 0.0
H2819 H 0.48347 0.99302 0.9155 0.0
H2820 H 0.47444 0.01581 0.90534 0.0
H2821 H 0.4817 0.94368 0.83653 0.0
H2822 H 0.44818 0.91948 0.83223 0.0
H2823 H 0.46529 0.91813 0.85605 0.0
C2824 C 0.46135 0.43953 0.39056 0.0
C2825 C 0.45848 0.42259 0.3735 0.0
C2826 C 0.4834 0.46444 0.39163 0.0
C2827 C 0.5026 0.47244 0.37506 0.0
C2828 C 0.4985 0.45608 0.35687 0.0
C2829 C 0.47661 0.43126 0.35644 0.0
C2830 C 0.48715 0.48123 0.41134 0.0
C2831 C 0.51822 0.46394 0.33867 0.0
C2832 C 0.56034 0.54079 0.37003 0.0
C2833 C 0.58023 0.53731 0.37865 0.0
C2834 C 0.53456 0.52015 0.36956 0.0
C2835 C 0.52864 0.49571 0.3782 0.0
C2836 C 0.54847 0.49261 0.388 0.0
C2837 C 0.57399 0.51336 0.38794 0.0
C2838 C 0.51398 0.52411 0.35882 0.0
C2839 C 0.54299 0.46699 0.39771 0.0
H2840 H 0.44733 0.4327 0.4038 0.0
H2841 H 0.47415 0.41819 0.34311 0.0
H2842 H 0.50173 0.48082 0.42241 0.0
H2843 H 0.49464 0.50169 0.40641 0.0
H2844 H 0.46883 0.47437 0.42066 0.0
H2845 H 0.51049 0.45065 0.32438 0.0
H2846 H 0.52452 0.48397 0.3331 0.0
H2847 H 0.53563 0.4637 0.34483 0.0
H2848 H 0.56507 0.5593 0.36285 0.0
H2849 H 0.58916 0.51066 0.39499 0.0
H2850 H 0.49638 0.51616 0.36923 0.0
H2851 H 0.50822 0.51346 0.34303 0.0
H2852 H 0.5209 0.54492 0.35554 0.0
H2853 H 0.52643 0.45965 0.40927 0.0
H2854 H 0.56003 0.46853 0.40653 0.0
H2855 H 0.53754 0.45239 0.38448 0.0
C2856 C 0.05186 0.47531 0.85021 0.0
C2857 C 0.04341 0.45845 0.86819 0.0
C2858 C 0.05014 0.49794 0.85029 0.0
C2859 C 0.04043 0.50419 0.86909 0.0
C2860 C 0.03078 0.48661 0.88691 0.0
C2861 C 0.0321 0.46371 0.88613 0.0
C2862 C 0.06006 0.51584 0.83074 0.0
C2863 C 0.02081 0.49284 0.90742 0.0
C2864 C 0.0707 0.57644 0.87873 0.0
C2865 C 0.05096 0.58119 0.87196 0.0
C2866 C 0.06708 0.55131 0.87862 0.0
C2867 C 0.04333 0.53042 0.87102 0.0
C2868 C 0.02317 0.53497 0.86433 0.0
C2869 C 0.02712 0.5603 0.86513 0.0
C2870 C 0.08891 0.54723 0.88631 0.0
C2871 C 0.99781 0.51327 0.85569 0.0
H2872 H 0.06045 0.47111 0.83627 0.0
H2873 H 0.0258 0.45076 0.90013 0.0
H2874 H 0.04599 0.52201 0.82592 0.0
H2875 H 0.0785 0.53357 0.83507 0.0
H2876 H 0.06368 0.50657 0.81642 0.0
H2877 H 0.01134 0.47597 0.9187 0.0
H2878 H 0.03723 0.50909 0.91618 0.0
H2879 H 0.00674 0.49924 0.90329 0.0
H2880 H 0.08905 0.59238 0.88421 0.0
H2881 H 0.01182 0.56386 0.85977 0.0
H2882 H 0.09626 0.54074 0.87241 0.0
H2883 H 0.08177 0.53178 0.89896 0.0
H2884 H 0.10536 0.56517 0.89327 0.0
H2885 H 0.00135 0.50543 0.84041 0.0
H2886 H 0.98365 0.51978 0.85214 0.0
H2887 H 0.98905 0.49712 0.86767 0.0
C2888 C 0.57502 0.05171 0.35125 0.0
C2889 C 0.58227 0.0422 0.36928 0.0
C2890 C 0.55089 0.05044 0.35064 0.0
C2891 C 0.53393 0.04008 0.36878 0.0
C2892 C 0.54067 0.02935 0.3866 0.0
C2893 C 0.56473 0.03027 0.38651 0.0
C2894 C 0.54422 0.06154 0.33109 0.0
C2895 C 0.52337 0.01862 0.40643 0.0
C2896 C 0.49236 0.07092 0.37777 0.0
C2897 C 0.46814 0.05176 0.36996 0.0
C2898 C 0.5136 0.06689 0.37822 0.0
C2899 C 0.51078 0.04333 0.3701 0.0
C2900 C 0.48633 0.02378 0.36231 0.0
C2901 C 0.46518 0.0281 0.3626 0.0
C2902 C 0.5392 0.08805 0.3871 0.0
C2903 C 0.48274 0.99867 0.35308 0.0
H2904 H 0.58856 0.06078 0.33784 0.0
H2905 H 0.57047 0.02314 0.40054 0.0
H2906 H 0.52419 0.04795 0.32542 0.0
H2907 H 0.54499 0.07991 0.33583 0.0
H2908 H 0.55782 0.06565 0.31722 0.0
H2909 H 0.52993 0.0084 0.41771 0.0
H2910 H 0.52335 0.03476 0.41553 0.0
H2911 H 0.50308 0.00501 0.40145 0.0
H2912 H 0.49472 0.08909 0.38372 0.0
H2913 H 0.44651 0.01325 0.35646 0.0
H2914 H 0.55381 0.09586 0.37377 0.0
H2915 H 0.54658 0.08009 0.39984 0.0
H2916 H 0.53762 0.10435 0.39431 0.0
H2917 H 0.49494 0.00276 0.33823 0.0
H2918 H 0.46224 0.98496 0.34862 0.0
H2919 H 0.48923 0.98912 0.36509 0.0
C2920 C 0.51591 0.57546 0.85751 0.0
C2921 C 0.53734 0.58204 0.87104 0.0
C2922 C 0.49409 0.55055 0.85802 0.0
C2923 C 0.49344 0.53189 0.87278 0.0
C2924 C 0.51542 0.53808 0.88589 0.0
C2925 C 0.53727 0.56307 0.8847 0.0
C2926 C 0.47125 0.5446 0.84348 0.0
C2927 C 0.51531 0.51886 0.90207 0.0
C2928 C 0.42533 0.48457 0.89169 0.0
C2929 C 0.419 0.46281 0.87872 0.0
C2930 C 0.45001 0.50664 0.89075 0.0
C2931 C 0.46871 0.50714 0.87612 0.0
C2932 C 0.46276 0.48482 0.86355 0.0
C2933 C 0.43795 0.46272 0.86518 0.0
C2934 C 0.4557 0.52979 0.9048 0.0
C2935 C 0.48206 0.48477 0.84756 0.0
H2936 H 0.51602 0.58998 0.84671 0.0
H2937 H 0.55377 0.56813 0.89525 0.0
H2938 H 0.46464 0.52603 0.83466 0.0
H2939 H 0.45481 0.54235 0.85366 0.0
H2940 H 0.47593 0.56016 0.83126 0.0
H2941 H 0.53482 0.52554 0.90917 0.0
H2942 H 0.50168 0.51596 0.91562 0.0
H2943 H 0.50839 0.49973 0.89417 0.0
H2944 H 0.4108 0.48445 0.90246 0.0
H2945 H 0.43299 0.44586 0.8551 0.0
H2946 H 0.45807 0.546 0.89423 0.0
H2947 H 0.47414 0.53663 0.91387 0.0
H2948 H 0.43997 0.52535 0.91678 0.0
H2949 H 0.48488 0.49811 0.8338 0.0
H2950 H 0.47551 0.46514 0.84077 0.0
H2951 H 0.50119 0.49197 0.85554 0.0
loop_
_geom_bond_atom_site_label_1
_geom_bond_atom_site_label_2
_geom_bond_distance
_geom_bond_site_symmetry_2
_ccdc_geom_bond_type
Co0 O2 2.143 . S
Co0 O8 2.074 . S
Co0 O11 2.093 . S
Co0 O24 2.097 . S
Co0 N41 2.151 . S
Co0 N49 2.214 . S
Co1 O2 2.160 . S
Co1 O7 2.058 . S
Co1 O17 2.057 . S
Co1 O32 2.037 . S
Co1 N36 2.145 1_545 S
Co1 N57 2.257 . S
O2 Co0 2.143 . S
O2 Co1 2.160 . S
C3 O4 1.278 . S
C3 O11 1.224 . S
O4 C3 1.278 . S
C5 O6 1.245 . S
C5 O17 1.232 . S
O6 C5 1.245 . S
O7 Co1 2.058 . S
O7 C33 1.269 . S
O8 Co0 2.074 . S
O8 C33 1.257 . S
H9 C34 0.930 . S
H10 C40 0.930 . S
O11 Co0 2.093 . S
O11 C3 1.224 . S
H12 C44 0.929 . S
H13 C46 0.930 . S
H14 C47 0.930 . S
H15 C45 0.929 . S
H16 C48 0.928 . S
O17 Co1 2.057 . S
O17 C5 1.232 . S
H18 C37 0.929 . S
H19 C38 0.929 . S
H20 C50 0.931 . S
H21 C42 0.929 . S
H22 C51 0.930 . S
H23 C43 0.931 . S
O24 Co0 2.097 . S
O24 C52 1.214 . S
H25 C53 0.929 . S
H26 C54 0.929 . S
H27 C55 0.930 . S
H28 C56 0.929 . S
H29 C58 0.930 . S
H30 C35 0.930 . S
H31 C39 0.930 . S
O32 Co1 2.037 . S
O32 C52 1.234 . S
C33 O7 1.269 . S
C33 O8 1.257 . S
C34 H9 0.930 . S
C34 C37 1.388 . S
C34 C39 1.418 . S
C35 H30 0.930 . S
C35 C38 1.404 . S
C35 C39 1.353 . S
N36 Co1 2.145 1_565 S
N36 C37 1.397 . S
N36 C38 1.334 . S
C37 H18 0.929 . S
C37 C34 1.388 . S
C37 N36 1.397 . S
C38 H19 0.929 . S
C38 C35 1.404 . S
C38 N36 1.334 . S
C39 H31 0.930 . S
C39 C34 1.418 . S
C39 C35 1.353 . S
C40 H10 0.930 . S
C40 N41 1.330 . S
C40 C42 1.446 . S
N41 Co0 2.151 . S
N41 C40 1.330 . S
N41 C45 1.418 . S
C42 H21 0.929 . S
C42 C40 1.446 . S
C42 C43 1.332 . S
C43 H23 0.931 . S
C43 C42 1.332 . S
C43 C44 1.267 . S
C44 H12 0.929 . S
C44 C43 1.267 . S
C44 C45 1.251 . S
C45 H15 0.929 . S
C45 N41 1.418 . S
C45 C44 1.251 . S
C46 H13 0.930 . S
C46 C48 1.406 . S
C46 C51 1.261 . S
C47 H14 0.930 . S
C47 N49 1.325 . S
C47 C50 1.357 . S
C48 H16 0.928 . S
C48 C46 1.406 . S
C48 N49 1.261 . S
N49 Co0 2.214 . S
N49 C47 1.325 . S
N49 C48 1.261 . S
C50 H20 0.931 . S
C50 C47 1.357 . S
C50 C51 1.312 . S
C51 H22 0.930 . S
C51 C46 1.261 . S
C51 C50 1.312 . S
C52 O24 1.214 . S
C52 O32 1.234 . S
C53 H25 0.929 . S
C53 C56 1.391 . S
C53 C58 1.391 . S
C54 H26 0.929 . S
C54 C55 1.390 . S
C54 N57 1.391 1_565 S
C55 H27 0.930 . S
C55 C54 1.390 . S
C55 C56 1.392 1_565 S
C56 H28 0.929 . S
C56 C53 1.391 . S
C56 C55 1.392 1_545 S
N57 Co1 2.257 . S
N57 C54 1.391 1_545 S
N57 C58 1.388 . S
C58 H29 0.930 . S
C58 C53 1.391 . S
C58 N57 1.388 . S
Co59 O61 2.143 . S
Co59 O67 2.074 . S
Co59 O70 2.093 . S
Co59 O83 2.097 . S
Co59 N100 2.151 . S
Co59 N108 2.214 . S
Co60 O61 2.160 . S
Co60 O66 2.058 . S
Co60 O76 2.057 . S
Co60 O91 2.037 . S
Co60 N95 2.145 . S
Co60 N116 2.257 . S
O61 Co59 2.143 . S
O61 Co60 2.160 . S
C62 O63 1.278 . S
C62 O70 1.224 . S
O63 C62 1.278 . S
C64 O65 1.245 . S
C64 O76 1.232 . S
O65 C64 1.245 . S
O66 Co60 2.058 . S
O66 C92 1.269 . S
O67 Co59 2.074 . S
O67 C92 1.257 . S
H68 C93 0.930 . S
H69 C99 0.930 . S
O70 Co59 2.093 . S
O70 C62 1.224 . S
H71 C103 0.929 . S
H72 C105 0.930 . S
H73 C106 0.930 . S
H74 C104 0.929 . S
H75 C107 0.928 . S
O76 Co60 2.057 . S
O76 C64 1.232 . S
H77 C96 0.929 . S
H78 C97 0.929 . S
H79 C109 0.931 . S
H80 C101 0.929 . S
H81 C110 0.930 . S
H82 C102 0.931 . S
O83 Co59 2.097 . S
O83 C111 1.214 . S
H84 C112 0.929 . S
H85 C113 0.929 . S
H86 C114 0.930 . S
H87 C115 0.929 . S
H88 C117 0.930 . S
H89 C94 0.930 . S
H90 C98 0.930 . S
O91 Co60 2.037 . S
O91 C111 1.234 . S
C92 O66 1.269 . S
C92 O67 1.257 . S
C93 H68 0.930 . S
C93 C96 1.388 . S
C93 C98 1.418 . S
C94 H89 0.930 . S
C94 C97 1.404 . S
C94 C98 1.353 . S
N95 Co60 2.145 . S
N95 C96 1.397 . S
N95 C97 1.334 . S
C96 H77 0.929 . S
C96 C93 1.388 . S
C96 N95 1.397 . S
C97 H78 0.929 . S
C97 C94 1.404 . S
C97 N95 1.334 . S
C98 H90 0.930 . S
C98 C93 1.418 . S
C98 C94 1.353 . S
C99 H69 0.930 . S
C99 N100 1.330 . S
C99 C101 1.446 . S
N100 Co59 2.151 . S
N100 C99 1.330 . S
N100 C104 1.418 . S
C101 H80 0.929 . S
C101 C99 1.446 . S
C101 C102 1.332 . S
C102 H82 0.931 . S
C102 C101 1.332 . S
C102 C103 1.267 . S
C103 H71 0.929 . S
C103 C102 1.267 . S
C103 C104 1.251 . S
C104 H74 0.929 . S
C104 N100 1.418 . S
C104 C103 1.251 . S
C105 H72 0.930 . S
C105 C107 1.406 . S
C105 C110 1.261 . S
C106 H73 0.930 . S
C106 N108 1.325 . S
C106 C109 1.357 . S
C107 H75 0.928 . S
C107 C105 1.406 . S
C107 N108 1.261 . S
N108 Co59 2.214 . S
N108 C106 1.325 . S
N108 C107 1.261 . S
C109 H79 0.931 . S
C109 C106 1.357 . S
C109 C110 1.312 . S
C110 H81 0.930 . S
C110 C105 1.261 . S
C110 C109 1.312 . S
C111 O83 1.214 . S
C111 O91 1.234 . S
C112 H84 0.929 . S
C112 C115 1.391 . S
C112 C117 1.391 . S
C113 H85 0.929 . S
C113 C114 1.390 . S
C113 N116 1.391 . S
C114 H86 0.930 . S
C114 C113 1.390 . S
C114 C115 1.392 . S
C115 H87 0.929 . S
C115 C112 1.391 . S
C115 C114 1.392 . S
N116 Co60 2.257 . S
N116 C113 1.391 . S
N116 C117 1.388 . S
C117 H88 0.930 . S
C117 C112 1.391 . S
C117 N116 1.388 . S
Co118 O120 2.143 . S
Co118 O126 2.074 . S
Co118 O129 2.093 . S
Co118 O142 2.097 . S
Co118 N159 2.151 . S
Co118 N167 2.214 . S
Co119 O120 2.160 . S
Co119 O125 2.058 . S
Co119 O135 2.057 . S
Co119 O150 2.037 . S
Co119 N154 2.145 1_655 S
Co119 N175 2.257 . S
O120 Co118 2.143 . S
O120 Co119 2.160 . S
C121 O122 1.278 . S
C121 O129 1.224 . S
O122 C121 1.278 . S
C123 O124 1.245 . S
C123 O135 1.232 . S
O124 C123 1.245 . S
O125 Co119 2.058 . S
O125 C151 1.269 . S
O126 Co118 2.074 . S
O126 C151 1.257 . S
H127 C152 0.930 . S
H128 C158 0.930 . S
O129 Co118 2.093 . S
O129 C121 1.224 . S
H130 C162 0.929 . S
H131 C164 0.930 . S
H132 C165 0.930 . S
H133 C163 0.929 . S
H134 C166 0.928 . S
O135 Co119 2.057 . S
O135 C123 1.232 . S
H136 C155 0.929 . S
H137 C156 0.929 . S
H138 C168 0.931 . S
H139 C160 0.929 . S
H140 C169 0.930 . S
H141 C161 0.931 . S
O142 Co118 2.097 . S
O142 C170 1.214 . S
H143 C171 0.929 . S
H144 C172 0.929 . S
H145 C173 0.930 . S
H146 C174 0.929 . S
H147 C176 0.930 . S
H148 C153 0.930 . S
H149 C157 0.930 . S
O150 Co119 2.037 . S
O150 C170 1.234 . S
C151 O125 1.269 . S
C151 O126 1.257 . S
C152 H127 0.930 . S
C152 C155 1.388 . S
C152 C157 1.418 . S
C153 H148 0.930 . S
C153 C156 1.404 . S
C153 C157 1.353 . S
N154 Co119 2.145 1_455 S
N154 C155 1.397 . S
N154 C156 1.334 . S
C155 H136 0.929 . S
C155 C152 1.388 . S
C155 N154 1.397 . S
C156 H137 0.929 . S
C156 C153 1.404 . S
C156 N154 1.334 . S
C157 H149 0.930 . S
C157 C152 1.418 . S
C157 C153 1.353 . S
C158 H128 0.930 . S
C158 N159 1.330 . S
C158 C160 1.446 . S
N159 Co118 2.151 . S
N159 C158 1.330 . S
N159 C163 1.418 . S
C160 H139 0.929 . S
C160 C158 1.446 . S
C160 C161 1.332 . S
C161 H141 0.931 . S
C161 C160 1.332 . S
C161 C162 1.267 . S
C162 H130 0.929 . S
C162 C161 1.267 . S
C162 C163 1.251 . S
C163 H133 0.929 . S
C163 N159 1.418 . S
C163 C162 1.251 . S
C164 H131 0.930 . S
C164 C166 1.406 . S
C164 C169 1.261 . S
C165 H132 0.930 . S
C165 N167 1.325 . S
C165 C168 1.357 . S
C166 H134 0.928 . S
C166 C164 1.406 . S
C166 N167 1.261 . S
N167 Co118 2.214 . S
N167 C165 1.325 . S
N167 C166 1.261 . S
C168 H138 0.931 . S
C168 C165 1.357 . S
C168 C169 1.312 . S
C169 H140 0.930 . S
C169 C164 1.261 . S
C169 C168 1.312 . S
C170 O142 1.214 . S
C170 O150 1.234 . S
C171 H143 0.929 . S
C171 C174 1.391 . S
C171 C176 1.391 . S
C172 H144 0.929 . S
C172 C173 1.390 . S
C172 N175 1.391 1_455 S
C173 H145 0.930 . S
C173 C172 1.390 . S
C173 C174 1.392 1_455 S
C174 H146 0.929 . S
C174 C171 1.391 . S
C174 C173 1.392 1_655 S
N175 Co119 2.257 . S
N175 C172 1.391 1_655 S
N175 C176 1.388 . S
C176 H147 0.930 . S
C176 C171 1.391 . S
C176 N175 1.388 . S
Co177 O179 2.143 . S
Co177 O185 2.074 . S
Co177 O188 2.093 . S
Co177 O201 2.097 . S
Co177 N218 2.151 . S
Co177 N226 2.214 . S
Co178 O179 2.160 . S
Co178 O184 2.058 . S
Co178 O194 2.057 . S
Co178 O209 2.037 . S
Co178 N213 2.145 1_565 S
Co178 N234 2.257 . S
O179 Co177 2.143 . S
O179 Co178 2.160 . S
C180 O181 1.278 . S
C180 O188 1.224 . S
O181 C180 1.278 . S
C182 O183 1.245 . S
C182 O194 1.232 . S
O183 C182 1.245 . S
O184 Co178 2.058 . S
O184 C210 1.269 . S
O185 Co177 2.074 . S
O185 C210 1.257 . S
H186 C211 0.930 . S
H187 C217 0.930 . S
O188 Co177 2.093 . S
O188 C180 1.224 . S
H189 C221 0.929 . S
H190 C223 0.930 . S
H191 C224 0.930 . S
H192 C222 0.929 . S
H193 C225 0.928 . S
O194 Co178 2.057 . S
O194 C182 1.232 . S
H195 C214 0.929 . S
H196 C215 0.929 . S
H197 C227 0.931 . S
H198 C219 0.929 . S
H199 C228 0.930 . S
H200 C220 0.931 . S
O201 Co177 2.097 . S
O201 C229 1.214 . S
H202 C230 0.929 . S
H203 C231 0.929 . S
H204 C232 0.930 . S
H205 C233 0.929 . S
H206 C235 0.930 . S
H207 C212 0.930 . S
H208 C216 0.930 . S
O209 Co178 2.037 . S
O209 C229 1.234 . S
C210 O184 1.269 . S
C210 O185 1.257 . S
C211 H186 0.930 . S
C211 C214 1.388 . S
C211 C216 1.418 . S
C212 H207 0.930 . S
C212 C215 1.404 . S
C212 C216 1.353 . S
N213 Co178 2.145 1_545 S
N213 C214 1.397 . S
N213 C215 1.334 . S
C214 H195 0.929 . S
C214 C211 1.388 . S
C214 N213 1.397 . S
C215 H196 0.929 . S
C215 C212 1.404 . S
C215 N213 1.334 . S
C216 H208 0.930 . S
C216 C211 1.418 . S
C216 C212 1.353 . S
C217 H187 0.930 . S
C217 N218 1.330 . S
C217 C219 1.446 . S
N218 Co177 2.151 . S
N218 C217 1.330 . S
N218 C222 1.418 . S
C219 H198 0.929 . S
C219 C217 1.446 . S
C219 C220 1.332 . S
C220 H200 0.931 . S
C220 C219 1.332 . S
C220 C221 1.267 . S
C221 H189 0.929 . S
C221 C220 1.267 . S
C221 C222 1.251 . S
C222 H192 0.929 . S
C222 N218 1.418 . S
C222 C221 1.251 . S
C223 H190 0.930 . S
C223 C225 1.406 . S
C223 C228 1.261 . S
C224 H191 0.930 . S
C224 N226 1.325 . S
C224 C227 1.357 . S
C225 H193 0.928 . S
C225 C223 1.406 . S
C225 N226 1.261 . S
N226 Co177 2.214 . S
N226 C224 1.325 . S
N226 C225 1.261 . S
C227 H197 0.931 . S
C227 C224 1.357 . S
C227 C228 1.312 . S
C228 H199 0.930 . S
C228 C223 1.261 . S
C228 C227 1.312 . S
C229 O201 1.214 . S
C229 O209 1.234 . S
C230 H202 0.929 . S
C230 C233 1.391 . S
C230 C235 1.391 . S
C231 H203 0.929 . S
C231 C232 1.390 . S
C231 N234 1.391 1_545 S
C232 H204 0.930 . S
C232 C231 1.390 . S
C232 C233 1.392 1_545 S
C233 H205 0.929 . S
C233 C230 1.391 . S
C233 C232 1.392 1_565 S
N234 Co178 2.257 . S
N234 C231 1.391 1_565 S
N234 C235 1.388 . S
C235 H206 0.930 . S
C235 C230 1.391 . S
C235 N234 1.388 . S
Co236 O238 2.143 . S
Co236 O244 2.074 . S
Co236 O247 2.093 . S
Co236 O260 2.097 . S
Co236 N277 2.151 . S
Co236 N285 2.214 . S
Co237 O238 2.160 . S
Co237 O243 2.058 . S
Co237 O253 2.057 . S
Co237 O268 2.037 . S
Co237 N272 2.145 . S
Co237 N293 2.257 . S
O238 Co236 2.143 . S
O238 Co237 2.160 . S
C239 O240 1.278 . S
C239 O247 1.224 . S
O240 C239 1.278 . S
C241 O242 1.245 . S
C241 O253 1.232 . S
O242 C241 1.245 . S
O243 Co237 2.058 . S
O243 C269 1.269 . S
O244 Co236 2.074 . S
O244 C269 1.257 . S
H245 C270 0.930 . S
H246 C276 0.930 . S
O247 Co236 2.093 . S
O247 C239 1.224 . S
H248 C280 0.929 . S
H249 C282 0.930 . S
H250 C283 0.930 . S
H251 C281 0.929 . S
H252 C284 0.928 . S
O253 Co237 2.057 . S
O253 C241 1.232 . S
H254 C273 0.929 . S
H255 C274 0.929 . S
H256 C286 0.931 . S
H257 C278 0.929 . S
H258 C287 0.930 . S
H259 C279 0.931 . S
O260 Co236 2.097 . S
O260 C288 1.214 . S
H261 C289 0.929 . S
H262 C290 0.929 . S
H263 C291 0.930 . S
H264 C292 0.929 . S
H265 C294 0.930 . S
H266 C271 0.930 . S
H267 C275 0.930 . S
O268 Co237 2.037 . S
O268 C288 1.234 . S
C269 O243 1.269 . S
C269 O244 1.257 . S
C270 H245 0.930 . S
C270 C273 1.388 . S
C270 C275 1.418 . S
C271 H266 0.930 . S
C271 C274 1.404 . S
C271 C275 1.353 . S
N272 Co237 2.145 . S
N272 C273 1.397 . S
N272 C274 1.334 . S
C273 H254 0.929 . S
C273 C270 1.388 . S
C273 N272 1.397 . S
C274 H255 0.929 . S
C274 C271 1.404 . S
C274 N272 1.334 . S
C275 H267 0.930 . S
C275 C270 1.418 . S
C275 C271 1.353 . S
C276 H246 0.930 . S
C276 N277 1.330 . S
C276 C278 1.446 . S
N277 Co236 2.151 . S
N277 C276 1.330 . S
N277 C281 1.418 . S
C278 H257 0.929 . S
C278 C276 1.446 . S
C278 C279 1.332 . S
C279 H259 0.931 . S
C279 C278 1.332 . S
C279 C280 1.267 . S
C280 H248 0.929 . S
C280 C279 1.267 . S
C280 C281 1.251 . S
C281 H251 0.929 . S
C281 N277 1.418 . S
C281 C280 1.251 . S
C282 H249 0.930 . S
C282 C284 1.406 . S
C282 C287 1.261 . S
C283 H250 0.930 . S
C283 N285 1.325 . S
C283 C286 1.357 . S
C284 H252 0.928 . S
C284 C282 1.406 . S
C284 N285 1.261 . S
N285 Co236 2.214 . S
N285 C283 1.325 . S
N285 C284 1.261 . S
C286 H256 0.931 . S
C286 C283 1.357 . S
C286 C287 1.312 . S
C287 H258 0.930 . S
C287 C282 1.261 . S
C287 C286 1.312 . S
C288 O260 1.214 . S
C288 O268 1.234 . S
C289 H261 0.929 . S
C289 C292 1.391 . S
C289 C294 1.391 . S
C290 H262 0.929 . S
C290 C291 1.390 . S
C290 N293 1.391 . S
C291 H263 0.930 . S
C291 C290 1.390 . S
C291 C292 1.392 . S
C292 H264 0.929 . S
C292 C289 1.391 . S
C292 C291 1.392 . S
N293 Co237 2.257 . S
N293 C290 1.391 . S
N293 C294 1.388 . S
C294 H265 0.930 . S
C294 C289 1.391 . S
C294 N293 1.388 . S
Co295 O297 2.143 . S
Co295 O303 2.074 . S
Co295 O306 2.093 . S
Co295 O319 2.097 . S
Co295 N336 2.151 . S
Co295 N344 2.214 . S
Co296 O297 2.160 . S
Co296 O302 2.058 . S
Co296 O312 2.057 . S
Co296 O327 2.037 . S
Co296 N331 2.145 1_455 S
Co296 N352 2.257 . S
O297 Co295 2.143 . S
O297 Co296 2.160 . S
C298 O299 1.278 . S
C298 O306 1.224 . S
O299 C298 1.278 . S
C300 O301 1.245 . S
C300 O312 1.232 . S
O301 C300 1.245 . S
O302 Co296 2.058 . S
O302 C328 1.269 . S
O303 Co295 2.074 . S
O303 C328 1.257 . S
H304 C329 0.930 . S
H305 C335 0.930 . S
O306 Co295 2.093 . S
O306 C298 1.224 . S
H307 C339 0.929 . S
H308 C341 0.930 . S
H309 C342 0.930 . S
H310 C340 0.929 . S
H311 C343 0.928 . S
O312 Co296 2.057 . S
O312 C300 1.232 . S
H313 C332 0.929 . S
H314 C333 0.929 . S
H315 C345 0.931 . S
H316 C337 0.929 . S
H317 C346 0.930 . S
H318 C338 0.931 . S
O319 Co295 2.097 . S
O319 C347 1.214 . S
H320 C348 0.929 . S
H321 C349 0.929 . S
H322 C350 0.930 . S
H323 C351 0.929 . S
H324 C353 0.930 . S
H325 C330 0.930 . S
H326 C334 0.930 . S
O327 Co296 2.037 . S
O327 C347 1.234 . S
C328 O302 1.269 . S
C328 O303 1.257 . S
C329 H304 0.930 . S
C329 C332 1.388 . S
C329 C334 1.418 . S
C330 H325 0.930 . S
C330 C333 1.404 . S
C330 C334 1.353 . S
N331 Co296 2.145 1_655 S
N331 C332 1.397 . S
N331 C333 1.334 . S
C332 H313 0.929 . S
C332 C329 1.388 . S
C332 N331 1.397 . S
C333 H314 0.929 . S
C333 C330 1.404 . S
C333 N331 1.334 . S
C334 H326 0.930 . S
C334 C329 1.418 . S
C334 C330 1.353 . S
C335 H305 0.930 . S
C335 N336 1.330 . S
C335 C337 1.446 . S
N336 Co295 2.151 . S
N336 C335 1.330 . S
N336 C340 1.418 . S
C337 H316 0.929 . S
C337 C335 1.446 . S
C337 C338 1.332 . S
C338 H318 0.931 . S
C338 C337 1.332 . S
C338 C339 1.267 . S
C339 H307 0.929 . S
C339 C338 1.267 . S
C339 C340 1.251 . S
C340 H310 0.929 . S
C340 N336 1.418 . S
C340 C339 1.251 . S
C341 H308 0.930 . S
C341 C343 1.406 . S
C341 C346 1.261 . S
C342 H309 0.930 . S
C342 N344 1.325 . S
C342 C345 1.357 . S
C343 H311 0.928 . S
C343 C341 1.406 . S
C343 N344 1.261 . S
N344 Co295 2.214 . S
N344 C342 1.325 . S
N344 C343 1.261 . S
C345 H315 0.931 . S
C345 C342 1.357 . S
C345 C346 1.312 . S
C346 H317 0.930 . S
C346 C341 1.261 . S
C346 C345 1.312 . S
C347 O319 1.214 . S
C347 O327 1.234 . S
C348 H320 0.929 . S
C348 C351 1.391 . S
C348 C353 1.391 . S
C349 H321 0.929 . S
C349 C350 1.390 . S
C349 N352 1.391 1_655 S
C350 H322 0.930 . S
C350 C349 1.390 . S
C350 C351 1.392 1_655 S
C351 H323 0.929 . S
C351 C348 1.391 . S
C351 C350 1.392 1_455 S
N352 Co296 2.257 . S
N352 C349 1.391 1_455 S
N352 C353 1.388 . S
C353 H324 0.930 . S
C353 C348 1.391 . S
C353 N352 1.388 . S
Co354 O356 2.143 . S
Co354 O362 2.074 . S
Co354 O365 2.093 . S
Co354 O378 2.097 . S
Co354 N395 2.151 . S
Co354 N403 2.214 . S
Co355 O356 2.160 . S
Co355 O361 2.058 . S
Co355 O371 2.057 . S
Co355 O386 2.037 . S
Co355 N390 2.145 1_655 S
Co355 N411 2.257 . S
O356 Co354 2.143 . S
O356 Co355 2.160 . S
C357 O358 1.278 . S
C357 O365 1.224 . S
O358 C357 1.278 . S
C359 O360 1.245 . S
C359 O371 1.232 . S
O360 C359 1.245 . S
O361 Co355 2.058 . S
O361 C387 1.269 . S
O362 Co354 2.074 . S
O362 C387 1.257 . S
H363 C388 0.930 . S
H364 C394 0.930 . S
O365 Co354 2.093 . S
O365 C357 1.224 . S
H366 C398 0.929 . S
H367 C400 0.930 . S
H368 C401 0.930 . S
H369 C399 0.929 . S
H370 C402 0.928 . S
O371 Co355 2.057 . S
O371 C359 1.232 . S
H372 C391 0.929 . S
H373 C392 0.929 . S
H374 C404 0.931 . S
H375 C396 0.929 . S
H376 C405 0.930 . S
H377 C397 0.931 . S
O378 Co354 2.097 . S
O378 C406 1.214 . S
H379 C407 0.929 . S
H380 C408 0.929 . S
H381 C409 0.930 . S
H382 C410 0.929 . S
H383 C412 0.930 . S
H384 C389 0.930 . S
H385 C393 0.930 . S
O386 Co355 2.037 . S
O386 C406 1.234 . S
C387 O361 1.269 . S
C387 O362 1.257 . S
C388 H363 0.930 . S
C388 C391 1.388 . S
C388 C393 1.418 . S
C389 H384 0.930 . S
C389 C392 1.404 . S
C389 C393 1.353 . S
N390 Co355 2.145 1_455 S
N390 C391 1.397 . S
N390 C392 1.334 . S
C391 H372 0.929 . S
C391 C388 1.388 . S
C391 N390 1.397 . S
C392 H373 0.929 . S
C392 C389 1.404 . S
C392 N390 1.334 . S
C393 H385 0.930 . S
C393 C388 1.418 . S
C393 C389 1.353 . S
C394 H364 0.930 . S
C394 N395 1.330 . S
C394 C396 1.446 . S
N395 Co354 2.151 . S
N395 C394 1.330 . S
N395 C399 1.418 . S
C396 H375 0.929 . S
C396 C394 1.446 . S
C396 C397 1.332 . S
C397 H377 0.931 . S
C397 C396 1.332 . S
C397 C398 1.267 . S
C398 H366 0.929 . S
C398 C397 1.267 . S
C398 C399 1.251 . S
C399 H369 0.929 . S
C399 N395 1.418 . S
C399 C398 1.251 . S
C400 H367 0.930 . S
C400 C402 1.406 . S
C400 C405 1.261 . S
C401 H368 0.930 . S
C401 N403 1.325 . S
C401 C404 1.357 . S
C402 H370 0.928 . S
C402 C400 1.406 . S
C402 N403 1.261 . S
N403 Co354 2.214 . S
N403 C401 1.325 . S
N403 C402 1.261 . S
C404 H374 0.931 . S
C404 C401 1.357 . S
C404 C405 1.312 . S
C405 H376 0.930 . S
C405 C400 1.261 . S
C405 C404 1.312 . S
C406 O378 1.214 . S
C406 O386 1.234 . S
C407 H379 0.929 . S
C407 C410 1.391 . S
C407 C412 1.391 . S
C408 H380 0.929 . S
C408 C409 1.390 . S
C408 N411 1.391 1_455 S
C409 H381 0.930 . S
C409 C408 1.390 . S
C409 C410 1.392 1_455 S
C410 H382 0.929 . S
C410 C407 1.391 . S
C410 C409 1.392 1_655 S
N411 Co355 2.257 . S
N411 C408 1.391 1_655 S
N411 C412 1.388 . S
C412 H383 0.930 . S
C412 C407 1.391 . S
C412 N411 1.388 . S
Co413 O415 2.143 . S
Co413 O421 2.074 . S
Co413 O424 2.093 . S
Co413 O437 2.097 . S
Co413 N454 2.151 . S
Co413 N462 2.214 . S
Co414 O415 2.160 . S
Co414 O420 2.058 . S
Co414 O430 2.057 . S
Co414 O445 2.037 . S
Co414 N449 2.145 1_565 S
Co414 N470 2.257 . S
O415 Co413 2.143 . S
O415 Co414 2.160 . S
C416 O417 1.278 . S
C416 O424 1.224 . S
O417 C416 1.278 . S
C418 O419 1.245 . S
C418 O430 1.232 . S
O419 C418 1.245 . S
O420 Co414 2.058 . S
O420 C446 1.269 . S
O421 Co413 2.074 . S
O421 C446 1.257 . S
H422 C447 0.930 . S
H423 C453 0.930 . S
O424 Co413 2.093 . S
O424 C416 1.224 . S
H425 C457 0.929 . S
H426 C459 0.930 . S
H427 C460 0.930 . S
H428 C458 0.929 . S
H429 C461 0.928 . S
O430 Co414 2.057 . S
O430 C418 1.232 . S
H431 C450 0.929 . S
H432 C451 0.929 . S
H433 C463 0.931 . S
H434 C455 0.929 . S
H435 C464 0.930 . S
H436 C456 0.931 . S
O437 Co413 2.097 . S
O437 C465 1.214 . S
H438 C466 0.929 . S
H439 C467 0.929 . S
H440 C468 0.930 . S
H441 C469 0.929 . S
H442 C471 0.930 . S
H443 C448 0.930 . S
H444 C452 0.930 . S
O445 Co414 2.037 . S
O445 C465 1.234 . S
C446 O420 1.269 . S
C446 O421 1.257 . S
C447 H422 0.930 . S
C447 C450 1.388 . S
C447 C452 1.418 . S
C448 H443 0.930 . S
C448 C451 1.404 . S
C448 C452 1.353 . S
N449 Co414 2.145 1_545 S
N449 C450 1.397 . S
N449 C451 1.334 . S
C450 H431 0.929 . S
C450 C447 1.388 . S
C450 N449 1.397 . S
C451 H432 0.929 . S
C451 C448 1.404 . S
C451 N449 1.334 . S
C452 H444 0.930 . S
C452 C447 1.418 . S
C452 C448 1.353 . S
C453 H423 0.930 . S
C453 N454 1.330 . S
C453 C455 1.446 . S
N454 Co413 2.151 . S
N454 C453 1.330 . S
N454 C458 1.418 . S
C455 H434 0.929 . S
C455 C453 1.446 . S
C455 C456 1.332 . S
C456 H436 0.931 . S
C456 C455 1.332 . S
C456 C457 1.267 . S
C457 H425 0.929 . S
C457 C456 1.267 . S
C457 C458 1.251 . S
C458 H428 0.929 . S
C458 N454 1.418 . S
C458 C457 1.251 . S
C459 H426 0.930 . S
C459 C461 1.406 . S
C459 C464 1.261 . S
C460 H427 0.930 . S
C460 N462 1.325 . S
C460 C463 1.357 . S
C461 H429 0.928 . S
C461 C459 1.406 . S
C461 N462 1.261 . S
N462 Co413 2.214 . S
N462 C460 1.325 . S
N462 C461 1.261 . S
C463 H433 0.931 . S
C463 C460 1.357 . S
C463 C464 1.312 . S
C464 H435 0.930 . S
C464 C459 1.261 . S
C464 C463 1.312 . S
C465 O437 1.214 . S
C465 O445 1.234 . S
C466 H438 0.929 . S
C466 C469 1.391 . S
C466 C471 1.391 . S
C467 H439 0.929 . S
C467 C468 1.390 . S
C467 N470 1.391 1_545 S
C468 H440 0.930 . S
C468 C467 1.390 . S
C468 C469 1.392 1_545 S
C469 H441 0.929 . S
C469 C466 1.391 . S
C469 C468 1.392 1_565 S
N470 Co414 2.257 . S
N470 C467 1.391 1_565 S
N470 C471 1.388 . S
C471 H442 0.930 . S
C471 C466 1.391 . S
C471 N470 1.388 . S
Co472 O474 2.143 . S
Co472 O480 2.074 . S
Co472 O483 2.093 . S
Co472 O496 2.097 . S
Co472 N513 2.151 . S
Co472 N521 2.214 . S
Co473 O474 2.160 . S
Co473 O479 2.058 . S
Co473 O489 2.057 . S
Co473 O504 2.037 . S
Co473 N508 2.145 . S
Co473 N529 2.257 . S
O474 Co472 2.143 . S
O474 Co473 2.160 . S
C475 O476 1.278 . S
C475 O483 1.224 . S
O476 C475 1.278 . S
C477 O478 1.245 . S
C477 O489 1.232 . S
O478 C477 1.245 . S
O479 Co473 2.058 . S
O479 C505 1.269 . S
O480 Co472 2.074 . S
O480 C505 1.257 . S
H481 C506 0.930 . S
H482 C512 0.930 . S
O483 Co472 2.093 . S
O483 C475 1.224 . S
H484 C516 0.929 . S
H485 C518 0.930 . S
H486 C519 0.930 . S
H487 C517 0.929 . S
H488 C520 0.928 . S
O489 Co473 2.057 . S
O489 C477 1.232 . S
H490 C509 0.929 . S
H491 C510 0.929 . S
H492 C522 0.931 . S
H493 C514 0.929 . S
H494 C523 0.930 . S
H495 C515 0.931 . S
O496 Co472 2.097 . S
O496 C524 1.214 . S
H497 C525 0.929 . S
H498 C526 0.929 . S
H499 C527 0.930 . S
H500 C528 0.929 . S
H501 C530 0.930 . S
H502 C507 0.930 . S
H503 C511 0.930 . S
O504 Co473 2.037 . S
O504 C524 1.234 . S
C505 O479 1.269 . S
C505 O480 1.257 . S
C506 H481 0.930 . S
C506 C509 1.388 . S
C506 C511 1.418 . S
C507 H502 0.930 . S
C507 C510 1.404 . S
C507 C511 1.353 . S
N508 Co473 2.145 . S
N508 C509 1.397 . S
N508 C510 1.334 . S
C509 H490 0.929 . S
C509 C506 1.388 . S
C509 N508 1.397 . S
C510 H491 0.929 . S
C510 C507 1.404 . S
C510 N508 1.334 . S
C511 H503 0.930 . S
C511 C506 1.418 . S
C511 C507 1.353 . S
C512 H482 0.930 . S
C512 N513 1.330 . S
C512 C514 1.446 . S
N513 Co472 2.151 . S
N513 C512 1.330 . S
N513 C517 1.418 . S
C514 H493 0.929 . S
C514 C512 1.446 . S
C514 C515 1.332 . S
C515 H495 0.931 . S
C515 C514 1.332 . S
C515 C516 1.267 . S
C516 H484 0.929 . S
C516 C515 1.267 . S
C516 C517 1.251 . S
C517 H487 0.929 . S
C517 N513 1.418 . S
C517 C516 1.251 . S
C518 H485 0.930 . S
C518 C520 1.406 . S
C518 C523 1.261 . S
C519 H486 0.930 . S
C519 N521 1.325 . S
C519 C522 1.357 . S
C520 H488 0.928 . S
C520 C518 1.406 . S
C520 N521 1.261 . S
N521 Co472 2.214 . S
N521 C519 1.325 . S
N521 C520 1.261 . S
C522 H492 0.931 . S
C522 C519 1.357 . S
C522 C523 1.312 . S
C523 H494 0.930 . S
C523 C518 1.261 . S
C523 C522 1.312 . S
C524 O496 1.214 . S
C524 O504 1.234 . S
C525 H497 0.929 . S
C525 C528 1.391 . S
C525 C530 1.391 . S
C526 H498 0.929 . S
C526 C527 1.390 . S
C526 N529 1.391 . S
C527 H499 0.930 . S
C527 C526 1.390 . S
C527 C528 1.392 . S
C528 H500 0.929 . S
C528 C525 1.391 . S
C528 C527 1.392 . S
N529 Co473 2.257 . S
N529 C526 1.391 . S
N529 C530 1.388 . S
C530 H501 0.930 . S
C530 C525 1.391 . S
C530 N529 1.388 . S
Co531 O533 2.143 . S
Co531 O539 2.074 . S
Co531 O542 2.093 . S
Co531 O555 2.097 . S
Co531 N572 2.151 . S
Co531 N580 2.214 . S
Co532 O533 2.160 . S
Co532 O538 2.058 . S
Co532 O548 2.057 . S
Co532 O563 2.037 . S
Co532 N567 2.145 1_455 S
Co532 N588 2.257 . S
O533 Co531 2.143 . S
O533 Co532 2.160 . S
C534 O535 1.278 . S
C534 O542 1.224 . S
O535 C534 1.278 . S
C536 O537 1.245 . S
C536 O548 1.232 . S
O537 C536 1.245 . S
O538 Co532 2.058 . S
O538 C564 1.269 . S
O539 Co531 2.074 . S
O539 C564 1.257 . S
H540 C565 0.930 . S
H541 C571 0.930 . S
O542 Co531 2.093 . S
O542 C534 1.224 . S
H543 C575 0.929 . S
H544 C577 0.930 . S
H545 C578 0.930 . S
H546 C576 0.929 . S
H547 C579 0.928 . S
O548 Co532 2.057 . S
O548 C536 1.232 . S
H549 C568 0.929 . S
H550 C569 0.929 . S
H551 C581 0.931 . S
H552 C573 0.929 . S
H553 C582 0.930 . S
H554 C574 0.931 . S
O555 Co531 2.097 . S
O555 C583 1.214 . S
H556 C584 0.929 . S
H557 C585 0.929 . S
H558 C586 0.930 . S
H559 C587 0.929 . S
H560 C589 0.930 . S
H561 C566 0.930 . S
H562 C570 0.930 . S
O563 Co532 2.037 . S
O563 C583 1.234 . S
C564 O538 1.269 . S
C564 O539 1.257 . S
C565 H540 0.930 . S
C565 C568 1.388 . S
C565 C570 1.418 . S
C566 H561 0.930 . S
C566 C569 1.404 . S
C566 C570 1.353 . S
N567 Co532 2.145 1_655 S
N567 C568 1.397 . S
N567 C569 1.334 . S
C568 H549 0.929 . S
C568 C565 1.388 . S
C568 N567 1.397 . S
C569 H550 0.929 . S
C569 C566 1.404 . S
C569 N567 1.334 . S
C570 H562 0.930 . S
C570 C565 1.418 . S
C570 C566 1.353 . S
C571 H541 0.930 . S
C571 N572 1.330 . S
C571 C573 1.446 . S
N572 Co531 2.151 . S
N572 C571 1.330 . S
N572 C576 1.418 . S
C573 H552 0.929 . S
C573 C571 1.446 . S
C573 C574 1.332 . S
C574 H554 0.931 . S
C574 C573 1.332 . S
C574 C575 1.267 . S
C575 H543 0.929 . S
C575 C574 1.267 . S
C575 C576 1.251 . S
C576 H546 0.929 . S
C576 N572 1.418 . S
C576 C575 1.251 . S
C577 H544 0.930 . S
C577 C579 1.406 . S
C577 C582 1.261 . S
C578 H545 0.930 . S
C578 N580 1.325 . S
C578 C581 1.357 . S
C579 H547 0.928 . S
C579 C577 1.406 . S
C579 N580 1.261 . S
N580 Co531 2.214 . S
N580 C578 1.325 . S
N580 C579 1.261 . S
C581 H551 0.931 . S
C581 C578 1.357 . S
C581 C582 1.312 . S
C582 H553 0.930 . S
C582 C577 1.261 . S
C582 C581 1.312 . S
C583 O555 1.214 . S
C583 O563 1.234 . S
C584 H556 0.929 . S
C584 C587 1.391 . S
C584 C589 1.391 . S
C585 H557 0.929 . S
C585 C586 1.390 . S
C585 N588 1.391 1_655 S
C586 H558 0.930 . S
C586 C585 1.390 . S
C586 C587 1.392 1_655 S
C587 H559 0.929 . S
C587 C584 1.391 . S
C587 C586 1.392 1_455 S
N588 Co532 2.257 . S
N588 C585 1.391 1_455 S
N588 C589 1.388 . S
C589 H560 0.930 . S
C589 C584 1.391 . S
C589 N588 1.388 . S
Co590 O592 2.143 . S
Co590 O598 2.074 . S
Co590 O601 2.093 . S
Co590 O614 2.097 . S
Co590 N631 2.151 . S
Co590 N639 2.214 . S
Co591 O592 2.160 . S
Co591 O597 2.058 . S
Co591 O607 2.057 . S
Co591 O622 2.037 . S
Co591 N626 2.145 1_545 S
Co591 N647 2.257 . S
O592 Co590 2.143 . S
O592 Co591 2.160 . S
C593 O594 1.278 . S
C593 O601 1.224 . S
O594 C593 1.278 . S
C595 O596 1.245 . S
C595 O607 1.232 . S
O596 C595 1.245 . S
O597 Co591 2.058 . S
O597 C623 1.269 . S
O598 Co590 2.074 . S
O598 C623 1.257 . S
H599 C624 0.930 . S
H600 C630 0.930 . S
O601 Co590 2.093 . S
O601 C593 1.224 . S
H602 C634 0.929 . S
H603 C636 0.930 . S
H604 C637 0.930 . S
H605 C635 0.929 . S
H606 C638 0.928 . S
O607 Co591 2.057 . S
O607 C595 1.232 . S
H608 C627 0.929 . S
H609 C628 0.929 . S
H610 C640 0.931 . S
H611 C632 0.929 . S
H612 C641 0.930 . S
H613 C633 0.931 . S
O614 Co590 2.097 . S
O614 C642 1.214 . S
H615 C643 0.929 . S
H616 C644 0.929 . S
H617 C645 0.930 . S
H618 C646 0.929 . S
H619 C648 0.930 . S
H620 C625 0.930 . S
H621 C629 0.930 . S
O622 Co591 2.037 . S
O622 C642 1.234 . S
C623 O597 1.269 . S
C623 O598 1.257 . S
C624 H599 0.930 . S
C624 C627 1.388 . S
C624 C629 1.418 . S
C625 H620 0.930 . S
C625 C628 1.404 . S
C625 C629 1.353 . S
N626 Co591 2.145 1_565 S
N626 C627 1.397 . S
N626 C628 1.334 . S
C627 H608 0.929 . S
C627 C624 1.388 . S
C627 N626 1.397 . S
C628 H609 0.929 . S
C628 C625 1.404 . S
C628 N626 1.334 . S
C629 H621 0.930 . S
C629 C624 1.418 . S
C629 C625 1.353 . S
C630 H600 0.930 . S
C630 N631 1.330 . S
C630 C632 1.446 . S
N631 Co590 2.151 . S
N631 C630 1.330 . S
N631 C635 1.418 . S
C632 H611 0.929 . S
C632 C630 1.446 . S
C632 C633 1.332 . S
C633 H613 0.931 . S
C633 C632 1.332 . S
C633 C634 1.267 . S
C634 H602 0.929 . S
C634 C633 1.267 . S
C634 C635 1.251 . S
C635 H605 0.929 . S
C635 N631 1.418 . S
C635 C634 1.251 . S
C636 H603 0.930 . S
C636 C638 1.406 . S
C636 C641 1.261 . S
C637 H604 0.930 . S
C637 N639 1.325 . S
C637 C640 1.357 . S
C638 H606 0.928 . S
C638 C636 1.406 . S
C638 N639 1.261 . S
N639 Co590 2.214 . S
N639 C637 1.325 . S
N639 C638 1.261 . S
C640 H610 0.931 . S
C640 C637 1.357 . S
C640 C641 1.312 . S
C641 H612 0.930 . S
C641 C636 1.261 . S
C641 C640 1.312 . S
C642 O614 1.214 . S
C642 O622 1.234 . S
C643 H615 0.929 . S
C643 C646 1.391 . S
C643 C648 1.391 . S
C644 H616 0.929 . S
C644 C645 1.390 . S
C644 N647 1.391 1_565 S
C645 H617 0.930 . S
C645 C644 1.390 . S
C645 C646 1.392 1_565 S
C646 H618 0.929 . S
C646 C643 1.391 . S
C646 C645 1.392 1_545 S
N647 Co591 2.257 . S
N647 C644 1.391 1_545 S
N647 C648 1.388 . S
C648 H619 0.930 . S
C648 C643 1.391 . S
C648 N647 1.388 . S
Co649 O651 2.143 . S
Co649 O657 2.074 . S
Co649 O660 2.093 . S
Co649 O673 2.097 . S
Co649 N690 2.151 . S
Co649 N698 2.214 . S
Co650 O651 2.160 . S
Co650 O656 2.058 . S
Co650 O666 2.057 . S
Co650 O681 2.037 . S
Co650 N685 2.145 . S
Co650 N706 2.257 . S
O651 Co649 2.143 . S
O651 Co650 2.160 . S
C652 O653 1.278 . S
C652 O660 1.224 . S
O653 C652 1.278 . S
C654 O655 1.245 . S
C654 O666 1.232 . S
O655 C654 1.245 . S
O656 Co650 2.058 . S
O656 C682 1.269 . S
O657 Co649 2.074 . S
O657 C682 1.257 . S
H658 C683 0.930 . S
H659 C689 0.930 . S
O660 Co649 2.093 . S
O660 C652 1.224 . S
H661 C693 0.929 . S
H662 C695 0.930 . S
H663 C696 0.930 . S
H664 C694 0.929 . S
H665 C697 0.928 . S
O666 Co650 2.057 . S
O666 C654 1.232 . S
H667 C686 0.929 . S
H668 C687 0.929 . S
H669 C699 0.931 . S
H670 C691 0.929 . S
H671 C700 0.930 . S
H672 C692 0.931 . S
O673 Co649 2.097 . S
O673 C701 1.214 . S
H674 C702 0.929 . S
H675 C703 0.929 . S
H676 C704 0.930 . S
H677 C705 0.929 . S
H678 C707 0.930 . S
H679 C684 0.930 . S
H680 C688 0.930 . S
O681 Co650 2.037 . S
O681 C701 1.234 . S
C682 O656 1.269 . S
C682 O657 1.257 . S
C683 H658 0.930 . S
C683 C686 1.388 . S
C683 C688 1.418 . S
C684 H679 0.930 . S
C684 C687 1.404 . S
C684 C688 1.353 . S
N685 Co650 2.145 . S
N685 C686 1.397 . S
N685 C687 1.334 . S
C686 H667 0.929 . S
C686 C683 1.388 . S
C686 N685 1.397 . S
C687 H668 0.929 . S
C687 C684 1.404 . S
C687 N685 1.334 . S
C688 H680 0.930 . S
C688 C683 1.418 . S
C688 C684 1.353 . S
C689 H659 0.930 . S
C689 N690 1.330 . S
C689 C691 1.446 . S
N690 Co649 2.151 . S
N690 C689 1.330 . S
N690 C694 1.418 . S
C691 H670 0.929 . S
C691 C689 1.446 . S
C691 C692 1.332 . S
C692 H672 0.931 . S
C692 C691 1.332 . S
C692 C693 1.267 . S
C693 H661 0.929 . S
C693 C692 1.267 . S
C693 C694 1.251 . S
C694 H664 0.929 . S
C694 N690 1.418 . S
C694 C693 1.251 . S
C695 H662 0.930 . S
C695 C697 1.406 . S
C695 C700 1.261 . S
C696 H663 0.930 . S
C696 N698 1.325 . S
C696 C699 1.357 . S
C697 H665 0.928 . S
C697 C695 1.406 . S
C697 N698 1.261 . S
N698 Co649 2.214 . S
N698 C696 1.325 . S
N698 C697 1.261 . S
C699 H669 0.931 . S
C699 C696 1.357 . S
C699 C700 1.312 . S
C700 H671 0.930 . S
C700 C695 1.261 . S
C700 C699 1.312 . S
C701 O673 1.214 . S
C701 O681 1.234 . S
C702 H674 0.929 . S
C702 C705 1.391 . S
C702 C707 1.391 . S
C703 H675 0.929 . S
C703 C704 1.390 . S
C703 N706 1.391 . S
C704 H676 0.930 . S
C704 C703 1.390 . S
C704 C705 1.392 . S
C705 H677 0.929 . S
C705 C702 1.391 . S
C705 C704 1.392 . S
N706 Co650 2.257 . S
N706 C703 1.391 . S
N706 C707 1.388 . S
C707 H678 0.930 . S
C707 C702 1.391 . S
C707 N706 1.388 . S
Co708 O710 2.143 . S
Co708 O716 2.074 . S
Co708 O719 2.093 . S
Co708 O732 2.097 . S
Co708 N749 2.151 . S
Co708 N757 2.214 . S
Co709 O710 2.160 . S
Co709 O715 2.058 . S
Co709 O725 2.057 . S
Co709 O740 2.037 . S
Co709 N744 2.145 1_565 S
Co709 N765 2.257 . S
O710 Co708 2.143 . S
O710 Co709 2.160 . S
C711 O712 1.278 . S
C711 O719 1.224 . S
O712 C711 1.278 . S
C713 O714 1.245 . S
C713 O725 1.232 . S
O714 C713 1.245 . S
O715 Co709 2.058 . S
O715 C741 1.269 . S
O716 Co708 2.074 . S
O716 C741 1.257 . S
H717 C742 0.930 . S
H718 C748 0.930 . S
O719 Co708 2.093 . S
O719 C711 1.224 . S
H720 C752 0.929 . S
H721 C754 0.930 . S
H722 C755 0.930 . S
H723 C753 0.929 . S
H724 C756 0.928 . S
O725 Co709 2.057 . S
O725 C713 1.232 . S
H726 C745 0.929 . S
H727 C746 0.929 . S
H728 C758 0.931 . S
H729 C750 0.929 . S
H730 C759 0.930 . S
H731 C751 0.931 . S
O732 Co708 2.097 . S
O732 C760 1.214 . S
H733 C761 0.929 . S
H734 C762 0.929 . S
H735 C763 0.930 . S
H736 C764 0.929 . S
H737 C766 0.930 . S
H738 C743 0.930 . S
H739 C747 0.930 . S
O740 Co709 2.037 . S
O740 C760 1.234 . S
C741 O715 1.269 . S
C741 O716 1.257 . S
C742 H717 0.930 . S
C742 C745 1.388 . S
C742 C747 1.418 . S
C743 H738 0.930 . S
C743 C746 1.404 . S
C743 C747 1.353 . S
N744 Co709 2.145 1_545 S
N744 C745 1.397 . S
N744 C746 1.334 . S
C745 H726 0.929 . S
C745 C742 1.388 . S
C745 N744 1.397 . S
C746 H727 0.929 . S
C746 C743 1.404 . S
C746 N744 1.334 . S
C747 H739 0.930 . S
C747 C742 1.418 . S
C747 C743 1.353 . S
C748 H718 0.930 . S
C748 N749 1.330 . S
C748 C750 1.446 . S
N749 Co708 2.151 . S
N749 C748 1.330 . S
N749 C753 1.418 . S
C750 H729 0.929 . S
C750 C748 1.446 . S
C750 C751 1.332 . S
C751 H731 0.931 . S
C751 C750 1.332 . S
C751 C752 1.267 . S
C752 H720 0.929 . S
C752 C751 1.267 . S
C752 C753 1.251 . S
C753 H723 0.929 . S
C753 N749 1.418 . S
C753 C752 1.251 . S
C754 H721 0.930 . S
C754 C756 1.406 . S
C754 C759 1.261 . S
C755 H722 0.930 . S
C755 N757 1.325 . S
C755 C758 1.357 . S
C756 H724 0.928 . S
C756 C754 1.406 . S
C756 N757 1.261 . S
N757 Co708 2.214 . S
N757 C755 1.325 . S
N757 C756 1.261 . S
C758 H728 0.931 . S
C758 C755 1.357 . S
C758 C759 1.312 . S
C759 H730 0.930 . S
C759 C754 1.261 . S
C759 C758 1.312 . S
C760 O732 1.214 . S
C760 O740 1.234 . S
C761 H733 0.929 . S
C761 C764 1.391 . S
C761 C766 1.391 . S
C762 H734 0.929 . S
C762 C763 1.390 . S
C762 N765 1.391 1_545 S
C763 H735 0.930 . S
C763 C762 1.390 . S
C763 C764 1.392 1_545 S
C764 H736 0.929 . S
C764 C761 1.391 . S
C764 C763 1.392 1_565 S
N765 Co709 2.257 . S
N765 C762 1.391 1_565 S
N765 C766 1.388 . S
C766 H737 0.930 . S
C766 C761 1.391 . S
C766 N765 1.388 . S
Co767 O769 2.143 . S
Co767 O775 2.074 . S
Co767 O778 2.093 . S
Co767 O791 2.097 . S
Co767 N808 2.151 . S
Co767 N816 2.214 . S
Co768 O769 2.160 . S
Co768 O774 2.058 . S
Co768 O784 2.057 . S
Co768 O799 2.037 . S
Co768 N803 2.145 . S
Co768 N824 2.257 . S
O769 Co767 2.143 . S
O769 Co768 2.160 . S
C770 O771 1.278 . S
C770 O778 1.224 . S
O771 C770 1.278 . S
C772 O773 1.245 . S
C772 O784 1.232 . S
O773 C772 1.245 . S
O774 Co768 2.058 . S
O774 C800 1.269 . S
O775 Co767 2.074 . S
O775 C800 1.257 . S
H776 C801 0.930 . S
H777 C807 0.930 . S
O778 Co767 2.093 . S
O778 C770 1.224 . S
H779 C811 0.929 . S
H780 C813 0.930 . S
H781 C814 0.930 . S
H782 C812 0.929 . S
H783 C815 0.928 . S
O784 Co768 2.057 . S
O784 C772 1.232 . S
H785 C804 0.929 . S
H786 C805 0.929 . S
H787 C817 0.931 . S
H788 C809 0.929 . S
H789 C818 0.930 . S
H790 C810 0.931 . S
O791 Co767 2.097 . S
O791 C819 1.214 . S
H792 C820 0.929 . S
H793 C821 0.929 . S
H794 C822 0.930 . S
H795 C823 0.929 . S
H796 C825 0.930 . S
H797 C802 0.930 . S
H798 C806 0.930 . S
O799 Co768 2.037 . S
O799 C819 1.234 . S
C800 O774 1.269 . S
C800 O775 1.257 . S
C801 H776 0.930 . S
C801 C804 1.388 . S
C801 C806 1.418 . S
C802 H797 0.930 . S
C802 C805 1.404 . S
C802 C806 1.353 . S
N803 Co768 2.145 . S
N803 C804 1.397 . S
N803 C805 1.334 . S
C804 H785 0.929 . S
C804 C801 1.388 . S
C804 N803 1.397 . S
C805 H786 0.929 . S
C805 C802 1.404 . S
C805 N803 1.334 . S
C806 H798 0.930 . S
C806 C801 1.418 . S
C806 C802 1.353 . S
C807 H777 0.930 . S
C807 N808 1.330 . S
C807 C809 1.446 . S
N808 Co767 2.151 . S
N808 C807 1.330 . S
N808 C812 1.418 . S
C809 H788 0.929 . S
C809 C807 1.446 . S
C809 C810 1.332 . S
C810 H790 0.931 . S
C810 C809 1.332 . S
C810 C811 1.267 . S
C811 H779 0.929 . S
C811 C810 1.267 . S
C811 C812 1.251 . S
C812 H782 0.929 . S
C812 N808 1.418 . S
C812 C811 1.251 . S
C813 H780 0.930 . S
C813 C815 1.406 . S
C813 C818 1.261 . S
C814 H781 0.930 . S
C814 N816 1.325 . S
C814 C817 1.357 . S
C815 H783 0.928 . S
C815 C813 1.406 . S
C815 N816 1.261 . S
N816 Co767 2.214 . S
N816 C814 1.325 . S
N816 C815 1.261 . S
C817 H787 0.931 . S
C817 C814 1.357 . S
C817 C818 1.312 . S
C818 H789 0.930 . S
C818 C813 1.261 . S
C818 C817 1.312 . S
C819 O791 1.214 . S
C819 O799 1.234 . S
C820 H792 0.929 . S
C820 C823 1.391 . S
C820 C825 1.391 . S
C821 H793 0.929 . S
C821 C822 1.390 . S
C821 N824 1.391 . S
C822 H794 0.930 . S
C822 C821 1.390 . S
C822 C823 1.392 . S
C823 H795 0.929 . S
C823 C820 1.391 . S
C823 C822 1.392 . S
N824 Co768 2.257 . S
N824 C821 1.391 . S
N824 C825 1.388 . S
C825 H796 0.930 . S
C825 C820 1.391 . S
C825 N824 1.388 . S
Co826 O828 2.143 . S
Co826 O834 2.074 . S
Co826 O837 2.093 . S
Co826 O850 2.097 . S
Co826 N867 2.151 . S
Co826 N875 2.214 . S
Co827 O828 2.160 . S
Co827 O833 2.058 . S
Co827 O843 2.057 . S
Co827 O858 2.037 . S
Co827 N862 2.145 1_455 S
Co827 N883 2.257 . S
O828 Co826 2.143 . S
O828 Co827 2.160 . S
C829 O830 1.278 . S
C829 O837 1.224 . S
O830 C829 1.278 . S
C831 O832 1.245 . S
C831 O843 1.232 . S
O832 C831 1.245 . S
O833 Co827 2.058 . S
O833 C859 1.269 . S
O834 Co826 2.074 . S
O834 C859 1.257 . S
H835 C860 0.930 . S
H836 C866 0.930 . S
O837 Co826 2.093 . S
O837 C829 1.224 . S
H838 C870 0.929 . S
H839 C872 0.930 . S
H840 C873 0.930 . S
H841 C871 0.929 . S
H842 C874 0.928 . S
O843 Co827 2.057 . S
O843 C831 1.232 . S
H844 C863 0.929 . S
H845 C864 0.929 . S
H846 C876 0.931 . S
H847 C868 0.929 . S
H848 C877 0.930 . S
H849 C869 0.931 . S
O850 Co826 2.097 . S
O850 C878 1.214 . S
H851 C879 0.929 . S
H852 C880 0.929 . S
H853 C881 0.930 . S
H854 C882 0.929 . S
H855 C884 0.930 . S
H856 C861 0.930 . S
H857 C865 0.930 . S
O858 Co827 2.037 . S
O858 C878 1.234 . S
C859 O833 1.269 . S
C859 O834 1.257 . S
C860 H835 0.930 . S
C860 C863 1.388 . S
C860 C865 1.418 . S
C861 H856 0.930 . S
C861 C864 1.404 . S
C861 C865 1.353 . S
N862 Co827 2.145 1_655 S
N862 C863 1.397 . S
N862 C864 1.334 . S
C863 H844 0.929 . S
C863 C860 1.388 . S
C863 N862 1.397 . S
C864 H845 0.929 . S
C864 C861 1.404 . S
C864 N862 1.334 . S
C865 H857 0.930 . S
C865 C860 1.418 . S
C865 C861 1.353 . S
C866 H836 0.930 . S
C866 N867 1.330 . S
C866 C868 1.446 . S
N867 Co826 2.151 . S
N867 C866 1.330 . S
N867 C871 1.418 . S
C868 H847 0.929 . S
C868 C866 1.446 . S
C868 C869 1.332 . S
C869 H849 0.931 . S
C869 C868 1.332 . S
C869 C870 1.267 . S
C870 H838 0.929 . S
C870 C869 1.267 . S
C870 C871 1.251 . S
C871 H841 0.929 . S
C871 N867 1.418 . S
C871 C870 1.251 . S
C872 H839 0.930 . S
C872 C874 1.406 . S
C872 C877 1.261 . S
C873 H840 0.930 . S
C873 N875 1.325 . S
C873 C876 1.357 . S
C874 H842 0.928 . S
C874 C872 1.406 . S
C874 N875 1.261 . S
N875 Co826 2.214 . S
N875 C873 1.325 . S
N875 C874 1.261 . S
C876 H846 0.931 . S
C876 C873 1.357 . S
C876 C877 1.312 . S
C877 H848 0.930 . S
C877 C872 1.261 . S
C877 C876 1.312 . S
C878 O850 1.214 . S
C878 O858 1.234 . S
C879 H851 0.929 . S
C879 C882 1.391 . S
C879 C884 1.391 . S
C880 H852 0.929 . S
C880 C881 1.390 . S
C880 N883 1.391 1_655 S
C881 H853 0.930 . S
C881 C880 1.390 . S
C881 C882 1.392 1_655 S
C882 H854 0.929 . S
C882 C879 1.391 . S
C882 C881 1.392 1_455 S
N883 Co827 2.257 . S
N883 C880 1.391 1_455 S
N883 C884 1.388 . S
C884 H855 0.930 . S
C884 C879 1.391 . S
C884 N883 1.388 . S
Co885 O887 2.143 . S
Co885 O893 2.074 . S
Co885 O896 2.093 . S
Co885 O909 2.097 . S
Co885 N926 2.151 . S
Co885 N934 2.214 . S
Co886 O887 2.160 . S
Co886 O892 2.058 . S
Co886 O902 2.057 . S
Co886 O917 2.037 . S
Co886 N921 2.145 1_545 S
Co886 N942 2.257 . S
O887 Co885 2.143 . S
O887 Co886 2.160 . S
C888 O889 1.278 . S
C888 O896 1.224 . S
O889 C888 1.278 . S
C890 O891 1.245 . S
C890 O902 1.232 . S
O891 C890 1.245 . S
O892 Co886 2.058 . S
O892 C918 1.269 . S
O893 Co885 2.074 . S
O893 C918 1.257 . S
H894 C919 0.930 . S
H895 C925 0.930 . S
O896 Co885 2.093 . S
O896 C888 1.224 . S
H897 C929 0.929 . S
H898 C931 0.930 . S
H899 C932 0.930 . S
H900 C930 0.929 . S
H901 C933 0.928 . S
O902 Co886 2.057 . S
O902 C890 1.232 . S
H903 C922 0.929 . S
H904 C923 0.929 . S
H905 C935 0.931 . S
H906 C927 0.929 . S
H907 C936 0.930 . S
H908 C928 0.931 . S
O909 Co885 2.097 . S
O909 C937 1.214 . S
H910 C938 0.929 . S
H911 C939 0.929 . S
H912 C940 0.930 . S
H913 C941 0.929 . S
H914 C943 0.930 . S
H915 C920 0.930 . S
H916 C924 0.930 . S
O917 Co886 2.037 . S
O917 C937 1.234 . S
C918 O892 1.269 . S
C918 O893 1.257 . S
C919 H894 0.930 . S
C919 C922 1.388 . S
C919 C924 1.418 . S
C920 H915 0.930 . S
C920 C923 1.404 . S
C920 C924 1.353 . S
N921 Co886 2.145 1_565 S
N921 C922 1.397 . S
N921 C923 1.334 . S
C922 H903 0.929 . S
C922 C919 1.388 . S
C922 N921 1.397 . S
C923 H904 0.929 . S
C923 C920 1.404 . S
C923 N921 1.334 . S
C924 H916 0.930 . S
C924 C919 1.418 . S
C924 C920 1.353 . S
C925 H895 0.930 . S
C925 N926 1.330 . S
C925 C927 1.446 . S
N926 Co885 2.151 . S
N926 C925 1.330 . S
N926 C930 1.418 . S
C927 H906 0.929 . S
C927 C925 1.446 . S
C927 C928 1.332 . S
C928 H908 0.931 . S
C928 C927 1.332 . S
C928 C929 1.267 . S
C929 H897 0.929 . S
C929 C928 1.267 . S
C929 C930 1.251 . S
C930 H900 0.929 . S
C930 N926 1.418 . S
C930 C929 1.251 . S
C931 H898 0.930 . S
C931 C933 1.406 . S
C931 C936 1.261 . S
C932 H899 0.930 . S
C932 N934 1.325 . S
C932 C935 1.357 . S
C933 H901 0.928 . S
C933 C931 1.406 . S
C933 N934 1.261 . S
N934 Co885 2.214 . S
N934 C932 1.325 . S
N934 C933 1.261 . S
C935 H905 0.931 . S
C935 C932 1.357 . S
C935 C936 1.312 . S
C936 H907 0.930 . S
C936 C931 1.261 . S
C936 C935 1.312 . S
C937 O909 1.214 . S
C937 O917 1.234 . S
C938 H910 0.929 . S
C938 C941 1.391 . S
C938 C943 1.391 . S
C939 H911 0.929 . S
C939 C940 1.390 . S
C939 N942 1.391 1_565 S
C940 H912 0.930 . S
C940 C939 1.390 . S
C940 C941 1.392 1_565 S
C941 H913 0.929 . S
C941 C938 1.391 . S
C941 C940 1.392 1_545 S
N942 Co886 2.257 . S
N942 C939 1.391 1_545 S
N942 C943 1.388 . S
C943 H914 0.930 . S
C943 C938 1.391 . S
C943 N942 1.388 . S
Co944 O946 2.143 . S
Co944 O952 2.074 . S
Co944 O955 2.093 . S
Co944 O968 2.097 . S
Co944 N985 2.151 . S
Co944 N993 2.214 . S
Co945 O946 2.160 . S
Co945 O951 2.058 . S
Co945 O961 2.057 . S
Co945 O976 2.037 . S
Co945 N980 2.145 . S
Co945 N1001 2.257 . S
O946 Co944 2.143 . S
O946 Co945 2.160 . S
C947 O948 1.278 . S
C947 O955 1.224 . S
O948 C947 1.278 . S
C949 O950 1.245 . S
C949 O961 1.232 . S
O950 C949 1.245 . S
O951 Co945 2.058 . S
O951 C977 1.269 . S
O952 Co944 2.074 . S
O952 C977 1.257 . S
H953 C978 0.930 . S
H954 C984 0.930 . S
O955 Co944 2.093 . S
O955 C947 1.224 . S
H956 C988 0.929 . S
H957 C990 0.930 . S
H958 C991 0.930 . S
H959 C989 0.929 . S
H960 C992 0.928 . S
O961 Co945 2.057 . S
O961 C949 1.232 . S
H962 C981 0.929 . S
H963 C982 0.929 . S
H964 C994 0.931 . S
H965 C986 0.929 . S
H966 C995 0.930 . S
H967 C987 0.931 . S
O968 Co944 2.097 . S
O968 C996 1.214 . S
H969 C997 0.929 . S
H970 C998 0.929 . S
H971 C999 0.930 . S
H972 C1000 0.929 . S
H973 C1002 0.930 . S
H974 C979 0.930 . S
H975 C983 0.930 . S
O976 Co945 2.037 . S
O976 C996 1.234 . S
C977 O951 1.269 . S
C977 O952 1.257 . S
C978 H953 0.930 . S
C978 C981 1.388 . S
C978 C983 1.418 . S
C979 H974 0.930 . S
C979 C982 1.404 . S
C979 C983 1.353 . S
N980 Co945 2.145 . S
N980 C981 1.397 . S
N980 C982 1.334 . S
C981 H962 0.929 . S
C981 C978 1.388 . S
C981 N980 1.397 . S
C982 H963 0.929 . S
C982 C979 1.404 . S
C982 N980 1.334 . S
C983 H975 0.930 . S
C983 C978 1.418 . S
C983 C979 1.353 . S
C984 H954 0.930 . S
C984 N985 1.330 . S
C984 C986 1.446 . S
N985 Co944 2.151 . S
N985 C984 1.330 . S
N985 C989 1.418 . S
C986 H965 0.929 . S
C986 C984 1.446 . S
C986 C987 1.332 . S
C987 H967 0.931 . S
C987 C986 1.332 . S
C987 C988 1.267 . S
C988 H956 0.929 . S
C988 C987 1.267 . S
C988 C989 1.251 . S
C989 H959 0.929 . S
C989 N985 1.418 . S
C989 C988 1.251 . S
C990 H957 0.930 . S
C990 C992 1.406 . S
C990 C995 1.261 . S
C991 H958 0.930 . S
C991 N993 1.325 . S
C991 C994 1.357 . S
C992 H960 0.928 . S
C992 C990 1.406 . S
C992 N993 1.261 . S
N993 Co944 2.214 . S
N993 C991 1.325 . S
N993 C992 1.261 . S
C994 H964 0.931 . S
C994 C991 1.357 . S
C994 C995 1.312 . S
C995 H966 0.930 . S
C995 C990 1.261 . S
C995 C994 1.312 . S
C996 O968 1.214 . S
C996 O976 1.234 . S
C997 H969 0.929 . S
C997 C1000 1.391 . S
C997 C1002 1.391 . S
C998 H970 0.929 . S
C998 C999 1.390 . S
C998 N1001 1.391 . S
C999 H971 0.930 . S
C999 C998 1.390 . S
C999 C1000 1.392 . S
C1000 H972 0.929 . S
C1000 C997 1.391 . S
C1000 C999 1.392 . S
N1001 Co945 2.257 . S
N1001 C998 1.391 . S
N1001 C1002 1.388 . S
C1002 H973 0.930 . S
C1002 C997 1.391 . S
C1002 N1001 1.388 . S
Co1003 O1005 2.143 . S
Co1003 O1011 2.074 . S
Co1003 O1014 2.093 . S
Co1003 O1027 2.097 . S
Co1003 N1044 2.151 . S
Co1003 N1052 2.214 . S
Co1004 O1005 2.160 . S
Co1004 O1010 2.058 . S
Co1004 O1020 2.057 . S
Co1004 O1035 2.037 . S
Co1004 N1039 2.145 1_655 S
Co1004 N1060 2.257 . S
O1005 Co1003 2.143 . S
O1005 Co1004 2.160 . S
C1006 O1007 1.278 . S
C1006 O1014 1.224 . S
O1007 C1006 1.278 . S
C1008 O1009 1.245 . S
C1008 O1020 1.232 . S
O1009 C1008 1.245 . S
O1010 Co1004 2.058 . S
O1010 C1036 1.269 . S
O1011 Co1003 2.074 . S
O1011 C1036 1.257 . S
H1012 C1037 0.930 . S
H1013 C1043 0.930 . S
O1014 Co1003 2.093 . S
O1014 C1006 1.224 . S
H1015 C1047 0.929 . S
H1016 C1049 0.930 . S
H1017 C1050 0.930 . S
H1018 C1048 0.929 . S
H1019 C1051 0.928 . S
O1020 Co1004 2.057 . S
O1020 C1008 1.232 . S
H1021 C1040 0.929 . S
H1022 C1041 0.929 . S
H1023 C1053 0.931 . S
H1024 C1045 0.929 . S
H1025 C1054 0.930 . S
H1026 C1046 0.931 . S
O1027 Co1003 2.097 . S
O1027 C1055 1.214 . S
H1028 C1056 0.929 . S
H1029 C1057 0.929 . S
H1030 C1058 0.930 . S
H1031 C1059 0.929 . S
H1032 C1061 0.930 . S
H1033 C1038 0.930 . S
H1034 C1042 0.930 . S
O1035 Co1004 2.037 . S
O1035 C1055 1.234 . S
C1036 O1010 1.269 . S
C1036 O1011 1.257 . S
C1037 H1012 0.930 . S
C1037 C1040 1.388 . S
C1037 C1042 1.418 . S
C1038 H1033 0.930 . S
C1038 C1041 1.404 . S
C1038 C1042 1.353 . S
N1039 Co1004 2.145 1_455 S
N1039 C1040 1.397 . S
N1039 C1041 1.334 . S
C1040 H1021 0.929 . S
C1040 C1037 1.388 . S
C1040 N1039 1.397 . S
C1041 H1022 0.929 . S
C1041 C1038 1.404 . S
C1041 N1039 1.334 . S
C1042 H1034 0.930 . S
C1042 C1037 1.418 . S
C1042 C1038 1.353 . S
C1043 H1013 0.930 . S
C1043 N1044 1.330 . S
C1043 C1045 1.446 . S
N1044 Co1003 2.151 . S
N1044 C1043 1.330 . S
N1044 C1048 1.418 . S
C1045 H1024 0.929 . S
C1045 C1043 1.446 . S
C1045 C1046 1.332 . S
C1046 H1026 0.931 . S
C1046 C1045 1.332 . S
C1046 C1047 1.267 . S
C1047 H1015 0.929 . S
C1047 C1046 1.267 . S
C1047 C1048 1.251 . S
C1048 H1018 0.929 . S
C1048 N1044 1.418 . S
C1048 C1047 1.251 . S
C1049 H1016 0.930 . S
C1049 C1051 1.406 . S
C1049 C1054 1.261 . S
C1050 H1017 0.930 . S
C1050 N1052 1.325 . S
C1050 C1053 1.357 . S
C1051 H1019 0.928 . S
C1051 C1049 1.406 . S
C1051 N1052 1.261 . S
N1052 Co1003 2.214 . S
N1052 C1050 1.325 . S
N1052 C1051 1.261 . S
C1053 H1023 0.931 . S
C1053 C1050 1.357 . S
C1053 C1054 1.312 . S
C1054 H1025 0.930 . S
C1054 C1049 1.261 . S
C1054 C1053 1.312 . S
C1055 O1027 1.214 . S
C1055 O1035 1.234 . S
C1056 H1028 0.929 . S
C1056 C1059 1.391 . S
C1056 C1061 1.391 . S
C1057 H1029 0.929 . S
C1057 C1058 1.390 . S
C1057 N1060 1.391 1_455 S
C1058 H1030 0.930 . S
C1058 C1057 1.390 . S
C1058 C1059 1.392 1_455 S
C1059 H1031 0.929 . S
C1059 C1056 1.391 . S
C1059 C1058 1.392 1_655 S
N1060 Co1004 2.257 . S
N1060 C1057 1.391 1_655 S
N1060 C1061 1.388 . S
C1061 H1032 0.930 . S
C1061 C1056 1.391 . S
C1061 N1060 1.388 . S
Co1062 O1064 2.143 . S
Co1062 O1070 2.074 . S
Co1062 O1073 2.093 . S
Co1062 O1086 2.097 . S
Co1062 N1103 2.151 . S
Co1062 N1111 2.214 . S
Co1063 O1064 2.160 . S
Co1063 O1069 2.058 . S
Co1063 O1079 2.057 . S
Co1063 O1094 2.037 . S
Co1063 N1098 2.145 1_455 S
Co1063 N1119 2.257 . S
O1064 Co1062 2.143 . S
O1064 Co1063 2.160 . S
C1065 O1066 1.278 . S
C1065 O1073 1.224 . S
O1066 C1065 1.278 . S
C1067 O1068 1.245 . S
C1067 O1079 1.232 . S
O1068 C1067 1.245 . S
O1069 Co1063 2.058 . S
O1069 C1095 1.269 . S
O1070 Co1062 2.074 . S
O1070 C1095 1.257 . S
H1071 C1096 0.930 . S
H1072 C1102 0.930 . S
O1073 Co1062 2.093 . S
O1073 C1065 1.224 . S
H1074 C1106 0.929 . S
H1075 C1108 0.930 . S
H1076 C1109 0.930 . S
H1077 C1107 0.929 . S
H1078 C1110 0.928 . S
O1079 Co1063 2.057 . S
O1079 C1067 1.232 . S
H1080 C1099 0.929 . S
H1081 C1100 0.929 . S
H1082 C1112 0.931 . S
H1083 C1104 0.929 . S
H1084 C1113 0.930 . S
H1085 C1105 0.931 . S
O1086 Co1062 2.097 . S
O1086 C1114 1.214 . S
H1087 C1115 0.929 . S
H1088 C1116 0.929 . S
H1089 C1117 0.930 . S
H1090 C1118 0.929 . S
H1091 C1120 0.930 . S
H1092 C1097 0.930 . S
H1093 C1101 0.930 . S
O1094 Co1063 2.037 . S
O1094 C1114 1.234 . S
C1095 O1069 1.269 . S
C1095 O1070 1.257 . S
C1096 H1071 0.930 . S
C1096 C1099 1.388 . S
C1096 C1101 1.418 . S
C1097 H1092 0.930 . S
C1097 C1100 1.404 . S
C1097 C1101 1.353 . S
N1098 Co1063 2.145 1_655 S
N1098 C1099 1.397 . S
N1098 C1100 1.334 . S
C1099 H1080 0.929 . S
C1099 C1096 1.388 . S
C1099 N1098 1.397 . S
C1100 H1081 0.929 . S
C1100 C1097 1.404 . S
C1100 N1098 1.334 . S
C1101 H1093 0.930 . S
C1101 C1096 1.418 . S
C1101 C1097 1.353 . S
C1102 H1072 0.930 . S
C1102 N1103 1.330 . S
C1102 C1104 1.446 . S
N1103 Co1062 2.151 . S
N1103 C1102 1.330 . S
N1103 C1107 1.418 . S
C1104 H1083 0.929 . S
C1104 C1102 1.446 . S
C1104 C1105 1.332 . S
C1105 H1085 0.931 . S
C1105 C1104 1.332 . S
C1105 C1106 1.267 . S
C1106 H1074 0.929 . S
C1106 C1105 1.267 . S
C1106 C1107 1.251 . S
C1107 H1077 0.929 . S
C1107 N1103 1.418 . S
C1107 C1106 1.251 . S
C1108 H1075 0.930 . S
C1108 C1110 1.406 . S
C1108 C1113 1.261 . S
C1109 H1076 0.930 . S
C1109 N1111 1.325 . S
C1109 C1112 1.357 . S
C1110 H1078 0.928 . S
C1110 C1108 1.406 . S
C1110 N1111 1.261 . S
N1111 Co1062 2.214 . S
N1111 C1109 1.325 . S
N1111 C1110 1.261 . S
C1112 H1082 0.931 . S
C1112 C1109 1.357 . S
C1112 C1113 1.312 . S
C1113 H1084 0.930 . S
C1113 C1108 1.261 . S
C1113 C1112 1.312 . S
C1114 O1086 1.214 . S
C1114 O1094 1.234 . S
C1115 H1087 0.929 . S
C1115 C1118 1.391 . S
C1115 C1120 1.391 . S
C1116 H1088 0.929 . S
C1116 C1117 1.390 . S
C1116 N1119 1.391 1_655 S
C1117 H1089 0.930 . S
C1117 C1116 1.390 . S
C1117 C1118 1.392 1_655 S
C1118 H1090 0.929 . S
C1118 C1115 1.391 . S
C1118 C1117 1.392 1_455 S
N1119 Co1063 2.257 . S
N1119 C1116 1.391 1_455 S
N1119 C1120 1.388 . S
C1120 H1091 0.930 . S
C1120 C1115 1.391 . S
C1120 N1119 1.388 . S
Co1121 O1123 2.143 . S
Co1121 O1129 2.074 . S
Co1121 O1132 2.093 . S
Co1121 O1145 2.097 . S
Co1121 N1162 2.151 . S
Co1121 N1170 2.214 . S
Co1122 O1123 2.160 . S
Co1122 O1128 2.058 . S
Co1122 O1138 2.057 . S
Co1122 O1153 2.037 . S
Co1122 N1157 2.145 1_545 S
Co1122 N1178 2.257 . S
O1123 Co1121 2.143 . S
O1123 Co1122 2.160 . S
C1124 O1125 1.278 . S
C1124 O1132 1.224 . S
O1125 C1124 1.278 . S
C1126 O1127 1.245 . S
C1126 O1138 1.232 . S
O1127 C1126 1.245 . S
O1128 Co1122 2.058 . S
O1128 C1154 1.269 . S
O1129 Co1121 2.074 . S
O1129 C1154 1.257 . S
H1130 C1155 0.930 . S
H1131 C1161 0.930 . S
O1132 Co1121 2.093 . S
O1132 C1124 1.224 . S
H1133 C1165 0.929 . S
H1134 C1167 0.930 . S
H1135 C1168 0.930 . S
H1136 C1166 0.929 . S
H1137 C1169 0.928 . S
O1138 Co1122 2.057 . S
O1138 C1126 1.232 . S
H1139 C1158 0.929 . S
H1140 C1159 0.929 . S
H1141 C1171 0.931 . S
H1142 C1163 0.929 . S
H1143 C1172 0.930 . S
H1144 C1164 0.931 . S
O1145 Co1121 2.097 . S
O1145 C1173 1.214 . S
H1146 C1174 0.929 . S
H1147 C1175 0.929 . S
H1148 C1176 0.930 . S
H1149 C1177 0.929 . S
H1150 C1179 0.930 . S
H1151 C1156 0.930 . S
H1152 C1160 0.930 . S
O1153 Co1122 2.037 . S
O1153 C1173 1.234 . S
C1154 O1128 1.269 . S
C1154 O1129 1.257 . S
C1155 H1130 0.930 . S
C1155 C1158 1.388 . S
C1155 C1160 1.418 . S
C1156 H1151 0.930 . S
C1156 C1159 1.404 . S
C1156 C1160 1.353 . S
N1157 Co1122 2.145 1_565 S
N1157 C1158 1.397 . S
N1157 C1159 1.334 . S
C1158 H1139 0.929 . S
C1158 C1155 1.388 . S
C1158 N1157 1.397 . S
C1159 H1140 0.929 . S
C1159 C1156 1.404 . S
C1159 N1157 1.334 . S
C1160 H1152 0.930 . S
C1160 C1155 1.418 . S
C1160 C1156 1.353 . S
C1161 H1131 0.930 . S
C1161 N1162 1.330 . S
C1161 C1163 1.446 . S
N1162 Co1121 2.151 . S
N1162 C1161 1.330 . S
N1162 C1166 1.418 . S
C1163 H1142 0.929 . S
C1163 C1161 1.446 . S
C1163 C1164 1.332 . S
C1164 H1144 0.931 . S
C1164 C1163 1.332 . S
C1164 C1165 1.267 . S
C1165 H1133 0.929 . S
C1165 C1164 1.267 . S
C1165 C1166 1.251 . S
C1166 H1136 0.929 . S
C1166 N1162 1.418 . S
C1166 C1165 1.251 . S
C1167 H1134 0.930 . S
C1167 C1169 1.406 . S
C1167 C1172 1.261 . S
C1168 H1135 0.930 . S
C1168 N1170 1.325 . S
C1168 C1171 1.357 . S
C1169 H1137 0.928 . S
C1169 C1167 1.406 . S
C1169 N1170 1.261 . S
N1170 Co1121 2.214 . S
N1170 C1168 1.325 . S
N1170 C1169 1.261 . S
C1171 H1141 0.931 . S
C1171 C1168 1.357 . S
C1171 C1172 1.312 . S
C1172 H1143 0.930 . S
C1172 C1167 1.261 . S
C1172 C1171 1.312 . S
C1173 O1145 1.214 . S
C1173 O1153 1.234 . S
C1174 H1146 0.929 . S
C1174 C1177 1.391 . S
C1174 C1179 1.391 . S
C1175 H1147 0.929 . S
C1175 C1176 1.390 . S
C1175 N1178 1.391 1_565 S
C1176 H1148 0.930 . S
C1176 C1175 1.390 . S
C1176 C1177 1.392 1_565 S
C1177 H1149 0.929 . S
C1177 C1174 1.391 . S
C1177 C1176 1.392 1_545 S
N1178 Co1122 2.257 . S
N1178 C1175 1.391 1_545 S
N1178 C1179 1.388 . S
C1179 H1150 0.930 . S
C1179 C1174 1.391 . S
C1179 N1178 1.388 . S
Co1180 O1182 2.143 . S
Co1180 O1188 2.074 . S
Co1180 O1191 2.093 . S
Co1180 O1204 2.097 . S
Co1180 N1221 2.151 . S
Co1180 N1229 2.214 . S
Co1181 O1182 2.160 . S
Co1181 O1187 2.058 . S
Co1181 O1197 2.057 . S
Co1181 O1212 2.037 . S
Co1181 N1216 2.145 . S
Co1181 N1237 2.257 . S
O1182 Co1180 2.143 . S
O1182 Co1181 2.160 . S
C1183 O1184 1.278 . S
C1183 O1191 1.224 . S
O1184 C1183 1.278 . S
C1185 O1186 1.245 . S
C1185 O1197 1.232 . S
O1186 C1185 1.245 . S
O1187 Co1181 2.058 . S
O1187 C1213 1.269 . S
O1188 Co1180 2.074 . S
O1188 C1213 1.257 . S
H1189 C1214 0.930 . S
H1190 C1220 0.930 . S
O1191 Co1180 2.093 . S
O1191 C1183 1.224 . S
H1192 C1224 0.929 . S
H1193 C1226 0.930 . S
H1194 C1227 0.930 . S
H1195 C1225 0.929 . S
H1196 C1228 0.928 . S
O1197 Co1181 2.057 . S
O1197 C1185 1.232 . S
H1198 C1217 0.929 . S
H1199 C1218 0.929 . S
H1200 C1230 0.931 . S
H1201 C1222 0.929 . S
H1202 C1231 0.930 . S
H1203 C1223 0.931 . S
O1204 Co1180 2.097 . S
O1204 C1232 1.214 . S
H1205 C1233 0.929 . S
H1206 C1234 0.929 . S
H1207 C1235 0.930 . S
H1208 C1236 0.929 . S
H1209 C1238 0.930 . S
H1210 C1215 0.930 . S
H1211 C1219 0.930 . S
O1212 Co1181 2.037 . S
O1212 C1232 1.234 . S
C1213 O1187 1.269 . S
C1213 O1188 1.257 . S
C1214 H1189 0.930 . S
C1214 C1217 1.388 . S
C1214 C1219 1.418 . S
C1215 H1210 0.930 . S
C1215 C1218 1.404 . S
C1215 C1219 1.353 . S
N1216 Co1181 2.145 . S
N1216 C1217 1.397 . S
N1216 C1218 1.334 . S
C1217 H1198 0.929 . S
C1217 C1214 1.388 . S
C1217 N1216 1.397 . S
C1218 H1199 0.929 . S
C1218 C1215 1.404 . S
C1218 N1216 1.334 . S
C1219 H1211 0.930 . S
C1219 C1214 1.418 . S
C1219 C1215 1.353 . S
C1220 H1190 0.930 . S
C1220 N1221 1.330 . S
C1220 C1222 1.446 . S
N1221 Co1180 2.151 . S
N1221 C1220 1.330 . S
N1221 C1225 1.418 . S
C1222 H1201 0.929 . S
C1222 C1220 1.446 . S
C1222 C1223 1.332 . S
C1223 H1203 0.931 . S
C1223 C1222 1.332 . S
C1223 C1224 1.267 . S
C1224 H1192 0.929 . S
C1224 C1223 1.267 . S
C1224 C1225 1.251 . S
C1225 H1195 0.929 . S
C1225 N1221 1.418 . S
C1225 C1224 1.251 . S
C1226 H1193 0.930 . S
C1226 C1228 1.406 . S
C1226 C1231 1.261 . S
C1227 H1194 0.930 . S
C1227 N1229 1.325 . S
C1227 C1230 1.357 . S
C1228 H1196 0.928 . S
C1228 C1226 1.406 . S
C1228 N1229 1.261 . S
N1229 Co1180 2.214 . S
N1229 C1227 1.325 . S
N1229 C1228 1.261 . S
C1230 H1200 0.931 . S
C1230 C1227 1.357 . S
C1230 C1231 1.312 . S
C1231 H1202 0.930 . S
C1231 C1226 1.261 . S
C1231 C1230 1.312 . S
C1232 O1204 1.214 . S
C1232 O1212 1.234 . S
C1233 H1205 0.929 . S
C1233 C1236 1.391 . S
C1233 C1238 1.391 . S
C1234 H1206 0.929 . S
C1234 C1235 1.390 . S
C1234 N1237 1.391 . S
C1235 H1207 0.930 . S
C1235 C1234 1.390 . S
C1235 C1236 1.392 . S
C1236 H1208 0.929 . S
C1236 C1233 1.391 . S
C1236 C1235 1.392 . S
N1237 Co1181 2.257 . S
N1237 C1234 1.391 . S
N1237 C1238 1.388 . S
C1238 H1209 0.930 . S
C1238 C1233 1.391 . S
C1238 N1237 1.388 . S
Co1239 O1241 2.143 . S
Co1239 O1247 2.074 . S
Co1239 O1250 2.093 . S
Co1239 O1263 2.097 . S
Co1239 N1280 2.151 . S
Co1239 N1288 2.214 . S
Co1240 O1241 2.160 . S
Co1240 O1246 2.058 . S
Co1240 O1256 2.057 . S
Co1240 O1271 2.037 . S
Co1240 N1275 2.145 1_655 S
Co1240 N1296 2.257 . S
O1241 Co1239 2.143 . S
O1241 Co1240 2.160 . S
C1242 O1243 1.278 . S
C1242 O1250 1.224 . S
O1243 C1242 1.278 . S
C1244 O1245 1.245 . S
C1244 O1256 1.232 . S
O1245 C1244 1.245 . S
O1246 Co1240 2.058 . S
O1246 C1272 1.269 . S
O1247 Co1239 2.074 . S
O1247 C1272 1.257 . S
H1248 C1273 0.930 . S
H1249 C1279 0.930 . S
O1250 Co1239 2.093 . S
O1250 C1242 1.224 . S
H1251 C1283 0.929 . S
H1252 C1285 0.930 . S
H1253 C1286 0.930 . S
H1254 C1284 0.929 . S
H1255 C1287 0.928 . S
O1256 Co1240 2.057 . S
O1256 C1244 1.232 . S
H1257 C1276 0.929 . S
H1258 C1277 0.929 . S
H1259 C1289 0.931 . S
H1260 C1281 0.929 . S
H1261 C1290 0.930 . S
H1262 C1282 0.931 . S
O1263 Co1239 2.097 . S
O1263 C1291 1.214 . S
H1264 C1292 0.929 . S
H1265 C1293 0.929 . S
H1266 C1294 0.930 . S
H1267 C1295 0.929 . S
H1268 C1297 0.930 . S
H1269 C1274 0.930 . S
H1270 C1278 0.930 . S
O1271 Co1240 2.037 . S
O1271 C1291 1.234 . S
C1272 O1246 1.269 . S
C1272 O1247 1.257 . S
C1273 H1248 0.930 . S
C1273 C1276 1.388 . S
C1273 C1278 1.418 . S
C1274 H1269 0.930 . S
C1274 C1277 1.404 . S
C1274 C1278 1.353 . S
N1275 Co1240 2.145 1_455 S
N1275 C1276 1.397 . S
N1275 C1277 1.334 . S
C1276 H1257 0.929 . S
C1276 C1273 1.388 . S
C1276 N1275 1.397 . S
C1277 H1258 0.929 . S
C1277 C1274 1.404 . S
C1277 N1275 1.334 . S
C1278 H1270 0.930 . S
C1278 C1273 1.418 . S
C1278 C1274 1.353 . S
C1279 H1249 0.930 . S
C1279 N1280 1.330 . S
C1279 C1281 1.446 . S
N1280 Co1239 2.151 . S
N1280 C1279 1.330 . S
N1280 C1284 1.418 . S
C1281 H1260 0.929 . S
C1281 C1279 1.446 . S
C1281 C1282 1.332 . S
C1282 H1262 0.931 . S
C1282 C1281 1.332 . S
C1282 C1283 1.267 . S
C1283 H1251 0.929 . S
C1283 C1282 1.267 . S
C1283 C1284 1.251 . S
C1284 H1254 0.929 . S
C1284 N1280 1.418 . S
C1284 C1283 1.251 . S
C1285 H1252 0.930 . S
C1285 C1287 1.406 . S
C1285 C1290 1.261 . S
C1286 H1253 0.930 . S
C1286 N1288 1.325 . S
C1286 C1289 1.357 . S
C1287 H1255 0.928 . S
C1287 C1285 1.406 . S
C1287 N1288 1.261 . S
N1288 Co1239 2.214 . S
N1288 C1286 1.325 . S
N1288 C1287 1.261 . S
C1289 H1259 0.931 . S
C1289 C1286 1.357 . S
C1289 C1290 1.312 . S
C1290 H1261 0.930 . S
C1290 C1285 1.261 . S
C1290 C1289 1.312 . S
C1291 O1263 1.214 . S
C1291 O1271 1.234 . S
C1292 H1264 0.929 . S
C1292 C1295 1.391 . S
C1292 C1297 1.391 . S
C1293 H1265 0.929 . S
C1293 C1294 1.390 . S
C1293 N1296 1.391 1_455 S
C1294 H1266 0.930 . S
C1294 C1293 1.390 . S
C1294 C1295 1.392 1_455 S
C1295 H1267 0.929 . S
C1295 C1292 1.391 . S
C1295 C1294 1.392 1_655 S
N1296 Co1240 2.257 . S
N1296 C1293 1.391 1_655 S
N1296 C1297 1.388 . S
C1297 H1268 0.930 . S
C1297 C1292 1.391 . S
C1297 N1296 1.388 . S
Co1298 O1300 2.143 . S
Co1298 O1306 2.074 . S
Co1298 O1309 2.093 . S
Co1298 O1322 2.097 . S
Co1298 N1339 2.151 . S
Co1298 N1347 2.214 . S
Co1299 O1300 2.160 . S
Co1299 O1305 2.058 . S
Co1299 O1315 2.057 . S
Co1299 O1330 2.037 . S
Co1299 N1334 2.145 1_565 S
Co1299 N1355 2.257 . S
O1300 Co1298 2.143 . S
O1300 Co1299 2.160 . S
C1301 O1302 1.278 . S
C1301 O1309 1.224 . S
O1302 C1301 1.278 . S
C1303 O1304 1.245 . S
C1303 O1315 1.232 . S
O1304 C1303 1.245 . S
O1305 Co1299 2.058 . S
O1305 C1331 1.269 . S
O1306 Co1298 2.074 . S
O1306 C1331 1.257 . S
H1307 C1332 0.930 . S
H1308 C1338 0.930 . S
O1309 Co1298 2.093 . S
O1309 C1301 1.224 . S
H1310 C1342 0.929 . S
H1311 C1344 0.930 . S
H1312 C1345 0.930 . S
H1313 C1343 0.929 . S
H1314 C1346 0.928 . S
O1315 Co1299 2.057 . S
O1315 C1303 1.232 . S
H1316 C1335 0.929 . S
H1317 C1336 0.929 . S
H1318 C1348 0.931 . S
H1319 C1340 0.929 . S
H1320 C1349 0.930 . S
H1321 C1341 0.931 . S
O1322 Co1298 2.097 . S
O1322 C1350 1.214 . S
H1323 C1351 0.929 . S
H1324 C1352 0.929 . S
H1325 C1353 0.930 . S
H1326 C1354 0.929 . S
H1327 C1356 0.930 . S
H1328 C1333 0.930 . S
H1329 C1337 0.930 . S
O1330 Co1299 2.037 . S
O1330 C1350 1.234 . S
C1331 O1305 1.269 . S
C1331 O1306 1.257 . S
C1332 H1307 0.930 . S
C1332 C1335 1.388 . S
C1332 C1337 1.418 . S
C1333 H1328 0.930 . S
C1333 C1336 1.404 . S
C1333 C1337 1.353 . S
N1334 Co1299 2.145 1_545 S
N1334 C1335 1.397 . S
N1334 C1336 1.334 . S
C1335 H1316 0.929 . S
C1335 C1332 1.388 . S
C1335 N1334 1.397 . S
C1336 H1317 0.929 . S
C1336 C1333 1.404 . S
C1336 N1334 1.334 . S
C1337 H1329 0.930 . S
C1337 C1332 1.418 . S
C1337 C1333 1.353 . S
C1338 H1308 0.930 . S
C1338 N1339 1.330 . S
C1338 C1340 1.446 . S
N1339 Co1298 2.151 . S
N1339 C1338 1.330 . S
N1339 C1343 1.418 . S
C1340 H1319 0.929 . S
C1340 C1338 1.446 . S
C1340 C1341 1.332 . S
C1341 H1321 0.931 . S
C1341 C1340 1.332 . S
C1341 C1342 1.267 . S
C1342 H1310 0.929 . S
C1342 C1341 1.267 . S
C1342 C1343 1.251 . S
C1343 H1313 0.929 . S
C1343 N1339 1.418 . S
C1343 C1342 1.251 . S
C1344 H1311 0.930 . S
C1344 C1346 1.406 . S
C1344 C1349 1.261 . S
C1345 H1312 0.930 . S
C1345 N1347 1.325 . S
C1345 C1348 1.357 . S
C1346 H1314 0.928 . S
C1346 C1344 1.406 . S
C1346 N1347 1.261 . S
N1347 Co1298 2.214 . S
N1347 C1345 1.325 . S
N1347 C1346 1.261 . S
C1348 H1318 0.931 . S
C1348 C1345 1.357 . S
C1348 C1349 1.312 . S
C1349 H1320 0.930 . S
C1349 C1344 1.261 . S
C1349 C1348 1.312 . S
C1350 O1322 1.214 . S
C1350 O1330 1.234 . S
C1351 H1323 0.929 . S
C1351 C1354 1.391 . S
C1351 C1356 1.391 . S
C1352 H1324 0.929 . S
C1352 C1353 1.390 . S
C1352 N1355 1.391 1_545 S
C1353 H1325 0.930 . S
C1353 C1352 1.390 . S
C1353 C1354 1.392 1_545 S
C1354 H1326 0.929 . S
C1354 C1351 1.391 . S
C1354 C1353 1.392 1_565 S
N1355 Co1299 2.257 . S
N1355 C1352 1.391 1_565 S
N1355 C1356 1.388 . S
C1356 H1327 0.930 . S
C1356 C1351 1.391 . S
C1356 N1355 1.388 . S
Co1357 O1359 2.143 . S
Co1357 O1365 2.074 . S
Co1357 O1368 2.093 . S
Co1357 O1381 2.097 . S
Co1357 N1398 2.151 . S
Co1357 N1406 2.214 . S
Co1358 O1359 2.160 . S
Co1358 O1364 2.058 . S
Co1358 O1374 2.057 . S
Co1358 O1389 2.037 . S
Co1358 N1393 2.145 . S
Co1358 N1414 2.257 . S
O1359 Co1357 2.143 . S
O1359 Co1358 2.160 . S
C1360 O1361 1.278 . S
C1360 O1368 1.224 . S
O1361 C1360 1.278 . S
C1362 O1363 1.245 . S
C1362 O1374 1.232 . S
O1363 C1362 1.245 . S
O1364 Co1358 2.058 . S
O1364 C1390 1.269 . S
O1365 Co1357 2.074 . S
O1365 C1390 1.257 . S
H1366 C1391 0.930 . S
H1367 C1397 0.930 . S
O1368 Co1357 2.093 . S
O1368 C1360 1.224 . S
H1369 C1401 0.929 . S
H1370 C1403 0.930 . S
H1371 C1404 0.930 . S
H1372 C1402 0.929 . S
H1373 C1405 0.928 . S
O1374 Co1358 2.057 . S
O1374 C1362 1.232 . S
H1375 C1394 0.929 . S
H1376 C1395 0.929 . S
H1377 C1407 0.931 . S
H1378 C1399 0.929 . S
H1379 C1408 0.930 . S
H1380 C1400 0.931 . S
O1381 Co1357 2.097 . S
O1381 C1409 1.214 . S
H1382 C1410 0.929 . S
H1383 C1411 0.929 . S
H1384 C1412 0.930 . S
H1385 C1413 0.929 . S
H1386 C1415 0.930 . S
H1387 C1392 0.930 . S
H1388 C1396 0.930 . S
O1389 Co1358 2.037 . S
O1389 C1409 1.234 . S
C1390 O1364 1.269 . S
C1390 O1365 1.257 . S
C1391 H1366 0.930 . S
C1391 C1394 1.388 . S
C1391 C1396 1.418 . S
C1392 H1387 0.930 . S
C1392 C1395 1.404 . S
C1392 C1396 1.353 . S
N1393 Co1358 2.145 . S
N1393 C1394 1.397 . S
N1393 C1395 1.334 . S
C1394 H1375 0.929 . S
C1394 C1391 1.388 . S
C1394 N1393 1.397 . S
C1395 H1376 0.929 . S
C1395 C1392 1.404 . S
C1395 N1393 1.334 . S
C1396 H1388 0.930 . S
C1396 C1391 1.418 . S
C1396 C1392 1.353 . S
C1397 H1367 0.930 . S
C1397 N1398 1.330 . S
C1397 C1399 1.446 . S
N1398 Co1357 2.151 . S
N1398 C1397 1.330 . S
N1398 C1402 1.418 . S
C1399 H1378 0.929 . S
C1399 C1397 1.446 . S
C1399 C1400 1.332 . S
C1400 H1380 0.931 . S
C1400 C1399 1.332 . S
C1400 C1401 1.267 . S
C1401 H1369 0.929 . S
C1401 C1400 1.267 . S
C1401 C1402 1.251 . S
C1402 H1372 0.929 . S
C1402 N1398 1.418 . S
C1402 C1401 1.251 . S
C1403 H1370 0.930 . S
C1403 C1405 1.406 . S
C1403 C1408 1.261 . S
C1404 H1371 0.930 . S
C1404 N1406 1.325 . S
C1404 C1407 1.357 . S
C1405 H1373 0.928 . S
C1405 C1403 1.406 . S
C1405 N1406 1.261 . S
N1406 Co1357 2.214 . S
N1406 C1404 1.325 . S
N1406 C1405 1.261 . S
C1407 H1377 0.931 . S
C1407 C1404 1.357 . S
C1407 C1408 1.312 . S
C1408 H1379 0.930 . S
C1408 C1403 1.261 . S
C1408 C1407 1.312 . S
C1409 O1381 1.214 . S
C1409 O1389 1.234 . S
C1410 H1382 0.929 . S
C1410 C1413 1.391 . S
C1410 C1415 1.391 . S
C1411 H1383 0.929 . S
C1411 C1412 1.390 . S
C1411 N1414 1.391 . S
C1412 H1384 0.930 . S
C1412 C1411 1.390 . S
C1412 C1413 1.392 . S
C1413 H1385 0.929 . S
C1413 C1410 1.391 . S
C1413 C1412 1.392 . S
N1414 Co1358 2.257 . S
N1414 C1411 1.391 . S
N1414 C1415 1.388 . S
C1415 H1386 0.930 . S
C1415 C1410 1.391 . S
C1415 N1414 1.388 . S
C1416 C1417 1.391 . S
C1416 C1418 1.394 . S
C1416 H1432 0.931 . S
C1417 C1416 1.391 . S
C1417 C1421 1.376 . S
C1418 C1416 1.394 . S
C1418 C1419 1.369 . S
C1418 C1422 1.531 . S
C1419 C1418 1.369 . S
C1419 C1420 1.410 . S
C1419 C1427 1.503 . S
C1420 C1419 1.410 . S
C1420 C1421 1.392 . S
C1420 C1423 1.511 . S
C1421 C1417 1.376 . S
C1421 C1420 1.392 . S
C1421 H1433 0.929 . S
C1422 C1418 1.531 . S
C1422 H1434 0.960 . S
C1422 H1435 0.962 . S
C1422 H1436 0.960 . S
C1423 C1420 1.511 . S
C1423 H1437 0.961 . S
C1423 H1438 0.961 . S
C1423 H1439 0.961 . S
C1424 C1425 1.370 . S
C1424 C1426 1.363 . S
C1424 H1440 0.931 . S
C1425 C1424 1.370 . S
C1425 C1429 1.408 . S
C1426 C1424 1.363 . S
C1426 C1427 1.370 . S
C1426 C1430 1.524 1_545 S
C1427 C1419 1.503 . S
C1427 C1426 1.370 . S
C1427 C1428 1.403 . S
C1428 C1427 1.403 . S
C1428 C1429 1.404 . S
C1428 C1431 1.539 . S
C1429 C1425 1.408 . S
C1429 C1428 1.404 . S
C1429 H1441 0.930 . S
C1430 C1426 1.524 1_565 S
C1430 H1442 0.956 . S
C1430 H1443 0.961 . S
C1430 H1444 0.961 . S
C1431 C1428 1.539 . S
C1431 H1445 0.958 . S
C1431 H1446 0.961 . S
C1431 H1447 0.960 . S
H1432 C1416 0.931 . S
H1433 C1421 0.929 . S
H1434 C1422 0.960 . S
H1435 C1422 0.962 . S
H1436 C1422 0.960 . S
H1437 C1423 0.961 . S
H1438 C1423 0.961 . S
H1439 C1423 0.961 . S
H1440 C1424 0.931 . S
H1441 C1429 0.930 . S
H1442 C1430 0.956 . S
H1443 C1430 0.961 . S
H1444 C1430 0.961 . S
H1445 C1431 0.958 . S
H1446 C1431 0.961 . S
H1447 C1431 0.960 . S
C1448 C1449 1.391 . S
C1448 C1450 1.394 . S
C1448 H1464 0.931 . S
C1449 C1448 1.391 . S
C1449 C1453 1.376 . S
C1450 C1448 1.394 . S
C1450 C1451 1.369 . S
C1450 C1454 1.531 . S
C1451 C1450 1.369 . S
C1451 C1452 1.410 . S
C1451 C1459 1.503 . S
C1452 C1451 1.410 . S
C1452 C1453 1.392 . S
C1452 C1455 1.511 . S
C1453 C1449 1.376 . S
C1453 C1452 1.392 . S
C1453 H1465 0.929 . S
C1454 C1450 1.531 . S
C1454 H1466 0.960 . S
C1454 H1467 0.962 . S
C1454 H1468 0.960 . S
C1455 C1452 1.511 . S
C1455 H1469 0.961 . S
C1455 H1470 0.961 . S
C1455 H1471 0.961 . S
C1456 C1457 1.370 . S
C1456 C1458 1.363 . S
C1456 H1472 0.931 . S
C1457 C1456 1.370 . S
C1457 C1461 1.408 . S
C1458 C1456 1.363 . S
C1458 C1459 1.370 . S
C1458 C1462 1.524 . S
C1459 C1451 1.503 . S
C1459 C1458 1.370 . S
C1459 C1460 1.403 . S
C1460 C1459 1.403 . S
C1460 C1461 1.404 . S
C1460 C1463 1.539 . S
C1461 C1457 1.408 . S
C1461 C1460 1.404 . S
C1461 H1473 0.930 . S
C1462 C1458 1.524 . S
C1462 H1474 0.956 . S
C1462 H1475 0.961 . S
C1462 H1476 0.961 . S
C1463 C1460 1.539 . S
C1463 H1477 0.958 . S
C1463 H1478 0.961 . S
C1463 H1479 0.960 . S
H1464 C1448 0.931 . S
H1465 C1453 0.929 . S
H1466 C1454 0.960 . S
H1467 C1454 0.962 . S
H1468 C1454 0.960 . S
H1469 C1455 0.961 . S
H1470 C1455 0.961 . S
H1471 C1455 0.961 . S
H1472 C1456 0.931 . S
H1473 C1461 0.930 . S
H1474 C1462 0.956 . S
H1475 C1462 0.961 . S
H1476 C1462 0.961 . S
H1477 C1463 0.958 . S
H1478 C1463 0.961 . S
H1479 C1463 0.960 . S
C1480 C1481 1.391 . S
C1480 C1482 1.394 . S
C1480 H1496 0.931 . S
C1481 C1480 1.391 . S
C1481 C1485 1.376 . S
C1482 C1480 1.394 . S
C1482 C1483 1.369 . S
C1482 C1486 1.531 1_655 S
C1483 C1482 1.369 . S
C1483 C1484 1.410 . S
C1483 C1491 1.503 . S
C1484 C1483 1.410 . S
C1484 C1485 1.392 . S
C1484 C1487 1.511 . S
C1485 C1481 1.376 . S
C1485 C1484 1.392 . S
C1485 H1497 0.929 . S
C1486 C1482 1.531 1_455 S
C1486 H1498 0.960 1_455 S
C1486 H1499 0.961 . S
C1486 H1500 0.961 . S
C1487 C1484 1.511 . S
C1487 H1501 0.961 . S
C1487 H1502 0.961 . S
C1487 H1503 0.961 . S
C1488 C1489 1.370 . S
C1488 C1490 1.363 . S
C1488 H1504 0.931 . S
C1489 C1488 1.370 . S
C1489 C1493 1.408 . S
C1490 C1488 1.363 . S
C1490 C1491 1.370 . S
C1490 C1494 1.524 . S
C1491 C1483 1.503 . S
C1491 C1490 1.370 . S
C1491 C1492 1.403 . S
C1492 C1491 1.403 . S
C1492 C1493 1.404 . S
C1492 C1495 1.539 . S
C1493 C1489 1.408 . S
C1493 C1492 1.404 . S
C1493 H1505 0.930 . S
C1494 C1490 1.524 . S
C1494 H1506 0.956 1_655 S
C1494 H1507 0.961 . S
C1494 H1508 0.961 . S
C1495 C1492 1.539 . S
C1495 H1509 0.958 . S
C1495 H1510 0.961 . S
C1495 H1511 0.960 . S
H1496 C1480 0.931 . S
H1497 C1485 0.929 . S
H1498 C1486 0.960 1_655 S
H1499 C1486 0.961 . S
H1500 C1486 0.961 . S
H1501 C1487 0.961 . S
H1502 C1487 0.961 . S
H1503 C1487 0.961 . S
H1504 C1488 0.931 . S
H1505 C1493 0.930 . S
H1506 C1494 0.956 1_455 S
H1507 C1494 0.961 . S
H1508 C1494 0.961 . S
H1509 C1495 0.958 . S
H1510 C1495 0.961 . S
H1511 C1495 0.960 . S
C1512 C1513 1.391 . S
C1512 C1514 1.394 . S
C1512 H1528 0.931 1_565 S
C1513 C1512 1.391 . S
C1513 C1517 1.376 . S
C1514 C1512 1.394 . S
C1514 C1515 1.369 . S
C1514 C1518 1.531 1_565 S
C1515 C1514 1.369 . S
C1515 C1516 1.410 . S
C1515 C1523 1.503 . S
C1516 C1515 1.410 . S
C1516 C1517 1.392 . S
C1516 C1519 1.511 . S
C1517 C1513 1.376 . S
C1517 C1516 1.392 . S
C1517 H1529 0.929 . S
C1518 C1514 1.531 1_545 S
C1518 H1530 0.960 . S
C1518 H1531 0.962 . S
C1518 H1532 0.960 . S
C1519 C1516 1.511 . S
C1519 H1533 0.961 . S
C1519 H1534 0.961 . S
C1519 H1535 0.961 . S
C1520 C1521 1.370 . S
C1520 C1522 1.363 . S
C1520 H1536 0.931 . S
C1521 C1520 1.370 . S
C1521 C1525 1.408 . S
C1522 C1520 1.363 . S
C1522 C1523 1.370 . S
C1522 C1526 1.524 . S
C1523 C1515 1.503 . S
C1523 C1522 1.370 . S
C1523 C1524 1.403 . S
C1524 C1523 1.403 . S
C1524 C1525 1.404 . S
C1524 C1527 1.539 . S
C1525 C1521 1.408 . S
C1525 C1524 1.404 . S
C1525 H1537 0.930 . S
C1526 C1522 1.524 . S
C1526 H1538 0.956 . S
C1526 H1539 0.961 . S
C1526 H1540 0.961 . S
C1527 C1524 1.539 . S
C1527 H1541 0.958 . S
C1527 H1542 0.961 . S
C1527 H1543 0.960 . S
H1528 C1512 0.931 1_545 S
H1529 C1517 0.929 . S
H1530 C1518 0.960 . S
H1531 C1518 0.962 . S
H1532 C1518 0.960 . S
H1533 C1519 0.961 . S
H1534 C1519 0.961 . S
H1535 C1519 0.961 . S
H1536 C1520 0.931 . S
H1537 C1525 0.930 . S
H1538 C1526 0.956 . S
H1539 C1526 0.961 . S
H1540 C1526 0.961 . S
H1541 C1527 0.958 . S
H1542 C1527 0.961 . S
H1543 C1527 0.960 . S
C1544 C1545 1.391 . S
C1544 C1546 1.394 . S
C1544 H1560 0.931 . S
C1545 C1544 1.391 . S
C1545 C1549 1.376 . S
C1546 C1544 1.394 . S
C1546 C1547 1.369 . S
C1546 C1550 1.531 . S
C1547 C1546 1.369 . S
C1547 C1548 1.410 . S
C1547 C1555 1.503 . S
C1548 C1547 1.410 . S
C1548 C1549 1.392 . S
C1548 C1551 1.511 . S
C1549 C1545 1.376 . S
C1549 C1548 1.392 . S
C1549 H1561 0.929 . S
C1550 C1546 1.531 . S
C1550 H1562 0.960 . S
C1550 H1563 0.962 . S
C1550 H1564 0.960 . S
C1551 C1548 1.511 . S
C1551 H1565 0.961 . S
C1551 H1566 0.961 . S
C1551 H1567 0.961 . S
C1552 C1553 1.370 . S
C1552 C1554 1.363 . S
C1552 H1568 0.931 . S
C1553 C1552 1.370 . S
C1553 C1557 1.408 . S
C1554 C1552 1.363 . S
C1554 C1555 1.370 . S
C1554 C1558 1.524 . S
C1555 C1547 1.503 . S
C1555 C1554 1.370 . S
C1555 C1556 1.403 . S
C1556 C1555 1.403 . S
C1556 C1557 1.404 . S
C1556 C1559 1.539 . S
C1557 C1553 1.408 . S
C1557 C1556 1.404 . S
C1557 H1569 0.930 . S
C1558 C1554 1.524 . S
C1558 H1570 0.956 . S
C1558 H1571 0.961 . S
C1558 H1572 0.961 . S
C1559 C1556 1.539 . S
C1559 H1573 0.958 . S
C1559 H1574 0.961 . S
C1559 H1575 0.960 . S
H1560 C1544 0.931 . S
H1561 C1549 0.929 . S
H1562 C1550 0.960 . S
H1563 C1550 0.962 . S
H1564 C1550 0.960 . S
H1565 C1551 0.961 . S
H1566 C1551 0.961 . S
H1567 C1551 0.961 . S
H1568 C1552 0.931 . S
H1569 C1557 0.930 . S
H1570 C1558 0.956 . S
H1571 C1558 0.961 . S
H1572 C1558 0.961 . S
H1573 C1559 0.958 . S
H1574 C1559 0.961 . S
H1575 C1559 0.960 . S
C1576 C1577 1.391 . S
C1576 C1578 1.394 . S
C1576 H1592 0.931 . S
C1577 C1576 1.391 . S
C1577 C1581 1.376 . S
C1578 C1576 1.394 . S
C1578 C1579 1.369 . S
C1578 C1582 1.531 . S
C1579 C1578 1.369 . S
C1579 C1580 1.410 . S
C1579 C1587 1.503 . S
C1580 C1579 1.410 . S
C1580 C1581 1.392 . S
C1580 C1583 1.511 . S
C1581 C1577 1.376 . S
C1581 C1580 1.392 . S
C1581 H1593 0.929 . S
C1582 C1578 1.531 . S
C1582 H1594 0.960 1_455 S
C1582 H1595 0.962 . S
C1582 H1596 0.960 1_455 S
C1583 C1580 1.511 . S
C1583 H1597 0.961 . S
C1583 H1598 0.961 . S
C1583 H1599 0.961 . S
C1584 C1585 1.370 . S
C1584 C1586 1.363 . S
C1584 H1600 0.931 . S
C1585 C1584 1.370 . S
C1585 C1589 1.408 . S
C1586 C1584 1.363 . S
C1586 C1587 1.370 . S
C1586 C1590 1.524 . S
C1587 C1579 1.503 . S
C1587 C1586 1.370 . S
C1587 C1588 1.403 . S
C1588 C1587 1.403 . S
C1588 C1589 1.404 . S
C1588 C1591 1.539 1_455 S
C1589 C1585 1.408 . S
C1589 C1588 1.404 . S
C1589 H1601 0.930 . S
C1590 C1586 1.524 . S
C1590 H1602 0.956 . S
C1590 H1603 0.961 . S
C1590 H1604 0.961 . S
C1591 C1588 1.539 1_655 S
C1591 H1605 0.958 . S
C1591 H1606 0.961 . S
C1591 H1607 0.960 . S
H1592 C1576 0.931 . S
H1593 C1581 0.929 . S
H1594 C1582 0.960 1_655 S
H1595 C1582 0.962 . S
H1596 C1582 0.960 1_655 S
H1597 C1583 0.961 . S
H1598 C1583 0.961 . S
H1599 C1583 0.961 . S
H1600 C1584 0.931 . S
H1601 C1589 0.930 . S
H1602 C1590 0.956 . S
H1603 C1590 0.961 . S
H1604 C1590 0.961 . S
H1605 C1591 0.958 . S
H1606 C1591 0.961 . S
H1607 C1591 0.960 . S
C1608 C1609 1.391 . S
C1608 C1610 1.394 . S
C1608 H1624 0.931 . S
C1609 C1608 1.391 . S
C1609 C1613 1.376 . S
C1610 C1608 1.394 . S
C1610 C1611 1.369 . S
C1610 C1614 1.531 . S
C1611 C1610 1.369 . S
C1611 C1612 1.410 . S
C1611 C1619 1.503 . S
C1612 C1611 1.410 . S
C1612 C1613 1.392 . S
C1612 C1615 1.511 . S
C1613 C1609 1.376 . S
C1613 C1612 1.392 . S
C1613 H1625 0.929 . S
C1614 C1610 1.531 . S
C1614 H1626 0.960 . S
C1614 H1627 0.962 1_655 S
C1614 H1628 0.960 . S
C1615 C1612 1.511 . S
C1615 H1629 0.961 . S
C1615 H1630 0.961 . S
C1615 H1631 0.961 . S
C1616 C1617 1.370 . S
C1616 C1618 1.363 . S
C1616 H1632 0.931 . S
C1617 C1616 1.370 . S
C1617 C1621 1.408 . S
C1618 C1616 1.363 . S
C1618 C1619 1.370 . S
C1618 C1622 1.524 . S
C1619 C1611 1.503 . S
C1619 C1618 1.370 . S
C1619 C1620 1.403 . S
C1620 C1619 1.403 . S
C1620 C1621 1.404 . S
C1620 C1623 1.539 . S
C1621 C1617 1.408 . S
C1621 C1620 1.404 . S
C1621 H1633 0.930 . S
C1622 C1618 1.524 . S
C1622 H1634 0.956 1_655 S
C1622 H1635 0.961 . S
C1622 H1636 0.961 1_655 S
C1623 C1620 1.539 . S
C1623 H1637 0.958 . S
C1623 H1638 0.961 . S
C1623 H1639 0.960 . S
H1624 C1608 0.931 . S
H1625 C1613 0.929 . S
H1626 C1614 0.960 . S
H1627 C1614 0.962 1_455 S
H1628 C1614 0.960 . S
H1629 C1615 0.961 . S
H1630 C1615 0.961 . S
H1631 C1615 0.961 . S
H1632 C1616 0.931 . S
H1633 C1621 0.930 . S
H1634 C1622 0.956 1_455 S
H1635 C1622 0.961 . S
H1636 C1622 0.961 1_455 S
H1637 C1623 0.958 . S
H1638 C1623 0.961 . S
H1639 C1623 0.960 . S
C1640 C1641 1.391 . S
C1640 C1642 1.394 . S
C1640 H1656 0.931 . S
C1641 C1640 1.391 . S
C1641 C1645 1.376 . S
C1642 C1640 1.394 . S
C1642 C1643 1.369 . S
C1642 C1646 1.531 . S
C1643 C1642 1.369 . S
C1643 C1644 1.410 . S
C1643 C1651 1.503 . S
C1644 C1643 1.410 . S
C1644 C1645 1.392 . S
C1644 C1647 1.511 . S
C1645 C1641 1.376 . S
C1645 C1644 1.392 . S
C1645 H1657 0.929 . S
C1646 C1642 1.531 . S
C1646 H1658 0.960 1_565 S
C1646 H1659 0.962 . S
C1646 H1660 0.960 1_565 S
C1647 C1644 1.511 . S
C1647 H1661 0.961 . S
C1647 H1662 0.961 . S
C1647 H1663 0.961 . S
C1648 C1649 1.370 . S
C1648 C1650 1.363 . S
C1648 H1664 0.931 . S
C1649 C1648 1.370 . S
C1649 C1653 1.408 . S
C1650 C1648 1.363 . S
C1650 C1651 1.370 . S
C1650 C1654 1.524 . S
C1651 C1643 1.503 . S
C1651 C1650 1.370 . S
C1651 C1652 1.403 . S
C1652 C1651 1.403 . S
C1652 C1653 1.404 . S
C1652 C1655 1.539 1_565 S
C1653 C1649 1.408 . S
C1653 C1652 1.404 . S
C1653 H1665 0.930 . S
C1654 C1650 1.524 . S
C1654 H1666 0.956 . S
C1654 H1667 0.961 . S
C1654 H1668 0.961 . S
C1655 C1652 1.539 1_545 S
C1655 H1669 0.958 . S
C1655 H1670 0.961 . S
C1655 H1671 0.953 1_545 S
H1656 C1640 0.931 . S
H1657 C1645 0.929 . S
H1658 C1646 0.960 1_545 S
H1659 C1646 0.962 . S
H1660 C1646 0.960 1_545 S
H1661 C1647 0.961 . S
H1662 C1647 0.961 . S
H1663 C1647 0.961 . S
H1664 C1648 0.931 . S
H1665 C1653 0.930 . S
H1666 C1654 0.956 . S
H1667 C1654 0.961 . S
H1668 C1654 0.961 . S
H1669 C1655 0.958 . S
H1670 C1655 0.961 . S
H1671 C1655 0.953 1_565 S
C1672 C1673 1.391 . S
C1672 C1674 1.394 . S
C1672 H1688 0.931 . S
C1673 C1672 1.391 . S
C1673 C1677 1.376 . S
C1674 C1672 1.394 . S
C1674 C1675 1.369 . S
C1674 C1678 1.531 . S
C1675 C1674 1.369 . S
C1675 C1676 1.410 . S
C1675 C1683 1.503 . S
C1676 C1675 1.410 . S
C1676 C1677 1.392 . S
C1676 C1679 1.511 . S
C1677 C1673 1.376 . S
C1677 C1676 1.392 . S
C1677 H1689 0.929 . S
C1678 C1674 1.531 . S
C1678 H1690 0.960 . S
C1678 H1691 0.962 . S
C1678 H1692 0.960 . S
C1679 C1676 1.511 . S
C1679 H1693 0.961 . S
C1679 H1694 0.961 . S
C1679 H1695 0.961 . S
C1680 C1681 1.370 . S
C1680 C1682 1.363 . S
C1680 H1696 0.931 . S
C1681 C1680 1.370 . S
C1681 C1685 1.408 . S
C1682 C1680 1.363 . S
C1682 C1683 1.370 . S
C1682 C1686 1.524 . S
C1683 C1675 1.503 . S
C1683 C1682 1.370 . S
C1683 C1684 1.403 . S
C1684 C1683 1.403 . S
C1684 C1685 1.404 . S
C1684 C1687 1.539 . S
C1685 C1681 1.408 . S
C1685 C1684 1.404 . S
C1685 H1697 0.930 . S
C1686 C1682 1.524 . S
C1686 H1698 0.956 . S
C1686 H1699 0.961 . S
C1686 H1700 0.961 . S
C1687 C1684 1.539 . S
C1687 H1701 0.958 . S
C1687 H1702 0.961 . S
C1687 H1703 0.960 . S
H1688 C1672 0.931 . S
H1689 C1677 0.929 . S
H1690 C1678 0.960 . S
H1691 C1678 0.962 . S
H1692 C1678 0.960 . S
H1693 C1679 0.961 . S
H1694 C1679 0.961 . S
H1695 C1679 0.961 . S
H1696 C1680 0.931 . S
H1697 C1685 0.930 . S
H1698 C1686 0.956 . S
H1699 C1686 0.961 . S
H1700 C1686 0.961 . S
H1701 C1687 0.958 . S
H1702 C1687 0.961 . S
H1703 C1687 0.960 . S
C1704 C1705 1.391 . S
C1704 C1706 1.394 . S
C1704 H1720 0.916 1_455 S
C1705 C1704 1.391 . S
C1705 C1709 1.376 . S
C1706 C1704 1.394 . S
C1706 C1707 1.369 . S
C1706 C1710 1.531 1_455 S
C1707 C1706 1.369 . S
C1707 C1708 1.410 . S
C1707 C1715 1.503 . S
C1708 C1707 1.410 . S
C1708 C1709 1.392 . S
C1708 C1711 1.511 . S
C1709 C1705 1.376 . S
C1709 C1708 1.392 . S
C1709 H1721 0.929 . S
C1710 C1706 1.531 1_655 S
C1710 H1722 0.960 . S
C1710 H1723 0.962 . S
C1710 H1724 0.960 . S
C1711 C1708 1.511 . S
C1711 H1725 0.961 . S
C1711 H1726 0.961 . S
C1711 H1727 0.961 . S
C1712 C1713 1.370 . S
C1712 C1714 1.363 . S
C1712 H1728 0.931 . S
C1713 C1712 1.370 . S
C1713 C1717 1.408 . S
C1714 C1712 1.363 . S
C1714 C1715 1.370 . S
C1714 C1718 1.524 . S
C1715 C1707 1.503 . S
C1715 C1714 1.370 . S
C1715 C1716 1.403 . S
C1716 C1715 1.403 . S
C1716 C1717 1.404 . S
C1716 C1719 1.539 . S
C1717 C1713 1.408 . S
C1717 C1716 1.404 . S
C1717 H1729 0.930 . S
C1718 C1714 1.524 . S
C1718 H1730 0.956 . S
C1718 H1731 0.961 . S
C1718 H1732 0.961 . S
C1719 C1716 1.539 . S
C1719 H1733 0.958 . S
C1719 H1734 0.961 . S
C1719 H1735 0.960 . S
H1720 C1704 0.916 1_655 S
H1721 C1709 0.929 . S
H1722 C1710 0.960 . S
H1723 C1710 0.962 . S
H1724 C1710 0.960 . S
H1725 C1711 0.961 . S
H1726 C1711 0.961 . S
H1727 C1711 0.961 . S
H1728 C1712 0.931 . S
H1729 C1717 0.930 . S
H1730 C1718 0.956 . S
H1731 C1718 0.961 . S
H1732 C1718 0.961 . S
H1733 C1719 0.958 . S
H1734 C1719 0.961 . S
H1735 C1719 0.960 . S
C1736 C1737 1.391 . S
C1736 C1738 1.394 . S
C1736 H1752 0.931 . S
C1737 C1736 1.391 . S
C1737 C1741 1.376 . S
C1738 C1736 1.394 . S
C1738 C1739 1.369 . S
C1738 C1742 1.531 . S
C1739 C1738 1.369 . S
C1739 C1740 1.410 . S
C1739 C1747 1.503 . S
C1740 C1739 1.410 . S
C1740 C1741 1.392 . S
C1740 C1743 1.511 . S
C1741 C1737 1.376 . S
C1741 C1740 1.392 . S
C1741 H1753 0.929 . S
C1742 C1738 1.531 . S
C1742 H1754 0.960 . S
C1742 H1755 0.962 . S
C1742 H1756 0.960 . S
C1743 C1740 1.511 . S
C1743 H1757 0.961 . S
C1743 H1758 0.961 . S
C1743 H1759 0.961 . S
C1744 C1745 1.370 . S
C1744 C1746 1.363 . S
C1744 H1760 0.931 . S
C1745 C1744 1.370 . S
C1745 C1749 1.408 . S
C1746 C1744 1.363 . S
C1746 C1747 1.370 . S
C1746 C1750 1.524 . S
C1747 C1739 1.503 . S
C1747 C1746 1.370 . S
C1747 C1748 1.403 . S
C1748 C1747 1.403 . S
C1748 C1749 1.404 . S
C1748 C1751 1.539 1_545 S
C1749 C1745 1.408 . S
C1749 C1748 1.404 . S
C1749 H1761 0.930 1_545 S
C1750 C1746 1.524 . S
C1750 H1762 0.956 . S
C1750 H1763 0.961 . S
C1750 H1764 0.961 . S
C1751 C1748 1.539 1_565 S
C1751 H1765 0.958 . S
C1751 H1766 0.961 . S
C1751 H1767 0.960 . S
H1752 C1736 0.931 . S
H1753 C1741 0.929 . S
H1754 C1742 0.960 . S
H1755 C1742 0.962 . S
H1756 C1742 0.960 . S
H1757 C1743 0.961 . S
H1758 C1743 0.961 . S
H1759 C1743 0.961 . S
H1760 C1744 0.931 . S
H1761 C1749 0.930 1_565 S
H1762 C1750 0.956 . S
H1763 C1750 0.961 . S
H1764 C1750 0.961 . S
H1765 C1751 0.958 . S
H1766 C1751 0.961 . S
H1767 C1751 0.960 . S
C1768 C1769 1.391 . S
C1768 C1770 1.394 . S
C1768 H1784 0.931 . S
C1769 C1768 1.391 . S
C1769 C1773 1.376 . S
C1770 C1768 1.394 . S
C1770 C1771 1.369 . S
C1770 C1774 1.531 . S
C1771 C1770 1.369 . S
C1771 C1772 1.410 . S
C1771 C1779 1.503 . S
C1772 C1771 1.410 . S
C1772 C1773 1.392 . S
C1772 C1775 1.511 . S
C1773 C1769 1.376 . S
C1773 C1772 1.392 . S
C1773 H1785 0.929 . S
C1774 C1770 1.531 . S
C1774 H1786 0.960 . S
C1774 H1787 0.962 . S
C1774 H1788 0.960 . S
C1775 C1772 1.511 . S
C1775 H1789 0.961 . S
C1775 H1790 0.961 . S
C1775 H1791 0.961 . S
C1776 C1777 1.370 . S
C1776 C1778 1.363 . S
C1776 H1792 0.931 . S
C1777 C1776 1.370 . S
C1777 C1781 1.408 . S
C1778 C1776 1.363 . S
C1778 C1779 1.370 . S
C1778 C1782 1.524 . S
C1779 C1771 1.503 . S
C1779 C1778 1.370 . S
C1779 C1780 1.403 . S
C1780 C1779 1.403 . S
C1780 C1781 1.404 . S
C1780 C1783 1.539 . S
C1781 C1777 1.408 . S
C1781 C1780 1.404 . S
C1781 H1793 0.930 . S
C1782 C1778 1.524 . S
C1782 H1794 0.956 . S
C1782 H1795 0.961 . S
C1782 H1796 0.961 . S
C1783 C1780 1.539 . S
C1783 H1797 0.958 . S
C1783 H1798 0.961 . S
C1783 H1799 0.960 . S
H1784 C1768 0.931 . S
H1785 C1773 0.929 . S
H1786 C1774 0.960 . S
H1787 C1774 0.962 . S
H1788 C1774 0.960 . S
H1789 C1775 0.961 . S
H1790 C1775 0.961 . S
H1791 C1775 0.961 . S
H1792 C1776 0.931 . S
H1793 C1781 0.930 . S
H1794 C1782 0.956 . S
H1795 C1782 0.961 . S
H1796 C1782 0.961 . S
H1797 C1783 0.958 . S
H1798 C1783 0.961 . S
H1799 C1783 0.960 . S
C1800 C1801 1.391 . S
C1800 C1802 1.394 . S
C1800 H1816 0.931 . S
C1801 C1800 1.391 . S
C1801 C1805 1.376 . S
C1802 C1800 1.394 . S
C1802 C1803 1.369 . S
C1802 C1806 1.531 . S
C1803 C1802 1.369 . S
C1803 C1804 1.410 . S
C1803 C1811 1.503 . S
C1804 C1803 1.410 . S
C1804 C1805 1.392 . S
C1804 C1807 1.511 . S
C1805 C1801 1.376 . S
C1805 C1804 1.392 . S
C1805 H1817 0.929 . S
C1806 C1802 1.531 . S
C1806 H1818 0.960 . S
C1806 H1819 0.962 . S
C1806 H1820 0.960 . S
C1807 C1804 1.511 . S
C1807 H1821 0.961 . S
C1807 H1822 0.961 . S
C1807 H1823 0.961 . S
C1808 C1809 1.370 . S
C1808 C1810 1.363 . S
C1808 H1824 0.931 . S
C1809 C1808 1.370 . S
C1809 C1813 1.408 . S
C1810 C1808 1.363 . S
C1810 C1811 1.370 . S
C1810 C1814 1.524 . S
C1811 C1803 1.503 . S
C1811 C1810 1.370 . S
C1811 C1812 1.403 . S
C1812 C1811 1.403 . S
C1812 C1813 1.404 . S
C1812 C1815 1.539 . S
C1813 C1809 1.408 . S
C1813 C1812 1.404 . S
C1813 H1825 0.930 . S
C1814 C1810 1.524 . S
C1814 H1826 0.956 . S
C1814 H1827 0.961 . S
C1814 H1828 0.961 . S
C1815 C1812 1.539 . S
C1815 H1829 0.958 . S
C1815 H1830 0.961 . S
C1815 H1831 0.960 . S
H1816 C1800 0.931 . S
H1817 C1805 0.929 . S
H1818 C1806 0.960 . S
H1819 C1806 0.962 . S
H1820 C1806 0.960 . S
H1821 C1807 0.961 . S
H1822 C1807 0.961 . S
H1823 C1807 0.961 . S
H1824 C1808 0.931 . S
H1825 C1813 0.930 . S
H1826 C1814 0.956 . S
H1827 C1814 0.961 . S
H1828 C1814 0.961 . S
H1829 C1815 0.958 . S
H1830 C1815 0.961 . S
H1831 C1815 0.960 . S
C1832 C1833 1.391 . S
C1832 C1834 1.394 . S
C1832 H1848 0.931 . S
C1833 C1832 1.391 . S
C1833 C1837 1.376 . S
C1834 C1832 1.394 . S
C1834 C1835 1.369 . S
C1834 C1838 1.531 . S
C1835 C1834 1.369 . S
C1835 C1836 1.410 . S
C1835 C1843 1.503 . S
C1836 C1835 1.410 . S
C1836 C1837 1.392 . S
C1836 C1839 1.511 . S
C1837 C1833 1.376 . S
C1837 C1836 1.392 . S
C1837 H1849 0.929 . S
C1838 C1834 1.531 . S
C1838 H1850 0.960 . S
C1838 H1851 0.962 . S
C1838 H1852 0.960 . S
C1839 C1836 1.511 . S
C1839 H1853 0.961 . S
C1839 H1854 0.961 . S
C1839 H1855 0.961 . S
C1840 C1841 1.370 . S
C1840 C1842 1.363 . S
C1840 H1856 0.931 . S
C1841 C1840 1.370 . S
C1841 C1845 1.408 . S
C1842 C1840 1.363 . S
C1842 C1843 1.370 . S
C1842 C1846 1.524 . S
C1843 C1835 1.503 . S
C1843 C1842 1.370 . S
C1843 C1844 1.403 . S
C1844 C1843 1.403 . S
C1844 C1845 1.404 . S
C1844 C1847 1.539 . S
C1845 C1841 1.408 . S
C1845 C1844 1.404 . S
C1845 H1857 0.930 . S
C1846 C1842 1.524 . S
C1846 H1858 0.956 . S
C1846 H1859 0.961 . S
C1846 H1860 0.961 . S
C1847 C1844 1.539 . S
C1847 H1861 0.958 . S
C1847 H1862 0.961 . S
C1847 H1863 0.960 . S
H1848 C1832 0.931 . S
H1849 C1837 0.929 . S
H1850 C1838 0.960 . S
H1851 C1838 0.962 . S
H1852 C1838 0.960 . S
H1853 C1839 0.961 . S
H1854 C1839 0.961 . S
H1855 C1839 0.961 . S
H1856 C1840 0.931 . S
H1857 C1845 0.930 . S
H1858 C1846 0.956 . S
H1859 C1846 0.961 . S
H1860 C1846 0.961 . S
H1861 C1847 0.958 . S
H1862 C1847 0.961 . S
H1863 C1847 0.960 . S
C1864 C1865 1.391 . S
C1864 C1866 1.394 . S
C1864 H1880 0.931 . S
C1865 C1864 1.391 . S
C1865 C1869 1.376 . S
C1866 C1864 1.394 . S
C1866 C1867 1.369 . S
C1866 C1870 1.531 . S
C1867 C1866 1.369 . S
C1867 C1868 1.410 . S
C1867 C1875 1.503 . S
C1868 C1867 1.410 . S
C1868 C1869 1.392 . S
C1868 C1871 1.511 . S
C1869 C1865 1.376 . S
C1869 C1868 1.392 . S
C1869 H1881 0.929 . S
C1870 C1866 1.531 . S
C1870 H1882 0.960 . S
C1870 H1883 0.962 . S
C1870 H1884 0.960 . S
C1871 C1868 1.511 . S
C1871 H1885 0.961 . S
C1871 H1886 0.961 . S
C1871 H1887 0.961 . S
C1872 C1873 1.370 . S
C1872 C1874 1.363 . S
C1872 H1888 0.931 . S
C1873 C1872 1.370 . S
C1873 C1877 1.408 . S
C1874 C1872 1.363 . S
C1874 C1875 1.370 . S
C1874 C1878 1.524 . S
C1875 C1867 1.503 . S
C1875 C1874 1.370 . S
C1875 C1876 1.403 . S
C1876 C1875 1.403 . S
C1876 C1877 1.404 . S
C1876 C1879 1.539 . S
C1877 C1873 1.408 . S
C1877 C1876 1.404 . S
C1877 H1889 0.930 . S
C1878 C1874 1.524 . S
C1878 H1890 0.956 . S
C1878 H1891 0.961 . S
C1878 H1892 0.961 . S
C1879 C1876 1.539 . S
C1879 H1893 0.958 . S
C1879 H1894 0.961 . S
C1879 H1895 0.960 . S
H1880 C1864 0.931 . S
H1881 C1869 0.929 . S
H1882 C1870 0.960 . S
H1883 C1870 0.962 . S
H1884 C1870 0.960 . S
H1885 C1871 0.961 . S
H1886 C1871 0.961 . S
H1887 C1871 0.961 . S
H1888 C1872 0.931 . S
H1889 C1877 0.930 . S
H1890 C1878 0.956 . S
H1891 C1878 0.961 . S
H1892 C1878 0.961 . S
H1893 C1879 0.958 . S
H1894 C1879 0.961 . S
H1895 C1879 0.960 . S
C1896 C1897 1.391 . S
C1896 C1898 1.394 . S
C1896 H1912 0.931 . S
C1897 C1896 1.391 . S
C1897 C1901 1.376 . S
C1898 C1896 1.394 . S
C1898 C1899 1.369 . S
C1898 C1902 1.531 . S
C1899 C1898 1.369 . S
C1899 C1900 1.410 . S
C1899 C1907 1.503 . S
C1900 C1899 1.410 . S
C1900 C1901 1.392 . S
C1900 C1903 1.511 . S
C1901 C1897 1.376 . S
C1901 C1900 1.392 . S
C1901 H1913 0.929 . S
C1902 C1898 1.531 . S
C1902 H1914 0.960 . S
C1902 H1915 0.962 . S
C1902 H1916 0.960 . S
C1903 C1900 1.511 . S
C1903 H1917 0.961 . S
C1903 H1918 0.961 . S
C1903 H1919 0.961 . S
C1904 C1905 1.370 . S
C1904 C1906 1.363 . S
C1904 H1920 0.931 . S
C1905 C1904 1.370 . S
C1905 C1909 1.408 . S
C1906 C1904 1.363 . S
C1906 C1907 1.370 . S
C1906 C1910 1.524 . S
C1907 C1899 1.503 . S
C1907 C1906 1.370 . S
C1907 C1908 1.403 . S
C1908 C1907 1.403 . S
C1908 C1909 1.404 . S
C1908 C1911 1.539 . S
C1909 C1905 1.408 . S
C1909 C1908 1.404 . S
C1909 H1921 0.930 . S
C1910 C1906 1.524 . S
C1910 H1922 0.956 . S
C1910 H1923 0.961 . S
C1910 H1924 0.961 . S
C1911 C1908 1.539 . S
C1911 H1925 0.958 . S
C1911 H1926 0.961 . S
C1911 H1927 0.960 . S
H1912 C1896 0.931 . S
H1913 C1901 0.929 . S
H1914 C1902 0.960 . S
H1915 C1902 0.962 . S
H1916 C1902 0.960 . S
H1917 C1903 0.961 . S
H1918 C1903 0.961 . S
H1919 C1903 0.961 . S
H1920 C1904 0.931 . S
H1921 C1909 0.930 . S
H1922 C1910 0.956 . S
H1923 C1910 0.961 . S
H1924 C1910 0.961 . S
H1925 C1911 0.958 . S
H1926 C1911 0.961 . S
H1927 C1911 0.960 . S
C1928 C1929 1.391 . S
C1928 C1930 1.394 . S
C1928 H1944 0.931 . S
C1929 C1928 1.391 . S
C1929 C1933 1.376 . S
C1930 C1928 1.394 . S
C1930 C1931 1.369 . S
C1930 C1934 1.531 . S
C1931 C1930 1.369 . S
C1931 C1932 1.410 . S
C1931 C1939 1.503 . S
C1932 C1931 1.410 . S
C1932 C1933 1.392 . S
C1932 C1935 1.511 . S
C1933 C1929 1.376 . S
C1933 C1932 1.392 . S
C1933 H1945 0.929 . S
C1934 C1930 1.531 . S
C1934 H1946 0.960 . S
C1934 H1947 0.962 . S
C1934 H1948 0.960 . S
C1935 C1932 1.511 . S
C1935 H1949 0.961 . S
C1935 H1950 0.961 . S
C1935 H1951 0.961 . S
C1936 C1937 1.370 . S
C1936 C1938 1.363 . S
C1936 H1952 0.931 . S
C1937 C1936 1.370 . S
C1937 C1941 1.408 . S
C1938 C1936 1.363 . S
C1938 C1939 1.370 . S
C1938 C1942 1.524 . S
C1939 C1931 1.503 . S
C1939 C1938 1.370 . S
C1939 C1940 1.403 . S
C1940 C1939 1.403 . S
C1940 C1941 1.404 . S
C1940 C1943 1.539 . S
C1941 C1937 1.408 . S
C1941 C1940 1.404 . S
C1941 H1953 0.930 . S
C1942 C1938 1.524 . S
C1942 H1954 0.956 . S
C1942 H1955 0.961 . S
C1942 H1956 0.961 . S
C1943 C1940 1.539 . S
C1943 H1957 0.958 . S
C1943 H1958 0.961 . S
C1943 H1959 0.960 . S
H1944 C1928 0.931 . S
H1945 C1933 0.929 . S
H1946 C1934 0.960 . S
H1947 C1934 0.962 . S
H1948 C1934 0.960 . S
H1949 C1935 0.961 . S
H1950 C1935 0.961 . S
H1951 C1935 0.961 . S
H1952 C1936 0.931 . S
H1953 C1941 0.930 . S
H1954 C1942 0.956 . S
H1955 C1942 0.961 . S
H1956 C1942 0.961 . S
H1957 C1943 0.958 . S
H1958 C1943 0.961 . S
H1959 C1943 0.960 . S
C1960 C1961 1.391 . S
C1960 C1962 1.394 . S
C1960 H1976 0.931 . S
C1961 C1960 1.391 . S
C1961 C1965 1.376 . S
C1962 C1960 1.394 . S
C1962 C1963 1.369 . S
C1962 C1966 1.531 . S
C1963 C1962 1.369 . S
C1963 C1964 1.410 . S
C1963 C1971 1.503 . S
C1964 C1963 1.410 . S
C1964 C1965 1.392 . S
C1964 C1967 1.511 . S
C1965 C1961 1.376 . S
C1965 C1964 1.392 . S
C1965 H1977 0.929 . S
C1966 C1962 1.531 . S
C1966 H1978 0.960 . S
C1966 H1979 0.962 . S
C1966 H1980 0.960 . S
C1967 C1964 1.511 . S
C1967 H1981 0.961 . S
C1967 H1982 0.961 . S
C1967 H1983 0.961 . S
C1968 C1969 1.370 . S
C1968 C1970 1.363 . S
C1968 H1984 0.931 . S
C1969 C1968 1.370 . S
C1969 C1973 1.408 . S
C1970 C1968 1.363 . S
C1970 C1971 1.370 . S
C1970 C1974 1.524 . S
C1971 C1963 1.503 . S
C1971 C1970 1.370 . S
C1971 C1972 1.403 . S
C1972 C1971 1.403 . S
C1972 C1973 1.404 . S
C1972 C1975 1.539 . S
C1973 C1969 1.408 . S
C1973 C1972 1.404 . S
C1973 H1985 0.930 . S
C1974 C1970 1.524 . S
C1974 H1986 0.956 . S
C1974 H1987 0.961 . S
C1974 H1988 0.961 . S
C1975 C1972 1.539 . S
C1975 H1989 0.958 . S
C1975 H1990 0.961 . S
C1975 H1991 0.960 . S
H1976 C1960 0.931 . S
H1977 C1965 0.929 . S
H1978 C1966 0.960 . S
H1979 C1966 0.962 . S
H1980 C1966 0.960 . S
H1981 C1967 0.961 . S
H1982 C1967 0.961 . S
H1983 C1967 0.961 . S
H1984 C1968 0.931 . S
H1985 C1973 0.930 . S
H1986 C1974 0.956 . S
H1987 C1974 0.961 . S
H1988 C1974 0.961 . S
H1989 C1975 0.958 . S
H1990 C1975 0.961 . S
H1991 C1975 0.960 . S
C1992 C1993 1.391 . S
C1992 C1994 1.394 . S
C1992 H2008 0.931 . S
C1993 C1992 1.391 . S
C1993 C1997 1.376 . S
C1994 C1992 1.394 . S
C1994 C1995 1.369 . S
C1994 C1998 1.531 . S
C1995 C1994 1.369 . S
C1995 C1996 1.410 . S
C1995 C2003 1.503 . S
C1996 C1995 1.410 . S
C1996 C1997 1.392 . S
C1996 C1999 1.511 . S
C1997 C1993 1.376 . S
C1997 C1996 1.392 . S
C1997 H2009 0.929 . S
C1998 C1994 1.531 . S
C1998 H2010 0.960 . S
C1998 H2011 0.962 . S
C1998 H2012 0.960 . S
C1999 C1996 1.511 . S
C1999 H2013 0.961 . S
C1999 H2014 0.961 . S
C1999 H2015 0.961 . S
C2000 C2001 1.370 . S
C2000 C2002 1.363 . S
C2000 H2016 0.931 . S
C2001 C2000 1.370 . S
C2001 C2005 1.408 . S
C2002 C2000 1.363 . S
C2002 C2003 1.370 . S
C2002 C2006 1.524 . S
C2003 C1995 1.503 . S
C2003 C2002 1.370 . S
C2003 C2004 1.403 . S
C2004 C2003 1.403 . S
C2004 C2005 1.404 . S
C2004 C2007 1.539 . S
C2005 C2001 1.408 . S
C2005 C2004 1.404 . S
C2005 H2017 0.930 . S
C2006 C2002 1.524 . S
C2006 H2018 0.956 . S
C2006 H2019 0.961 . S
C2006 H2020 0.961 . S
C2007 C2004 1.539 . S
C2007 H2021 0.958 . S
C2007 H2022 0.961 . S
C2007 H2023 0.960 . S
H2008 C1992 0.931 . S
H2009 C1997 0.929 . S
H2010 C1998 0.960 . S
H2011 C1998 0.962 . S
H2012 C1998 0.960 . S
H2013 C1999 0.961 . S
H2014 C1999 0.961 . S
H2015 C1999 0.961 . S
H2016 C2000 0.931 . S
H2017 C2005 0.930 . S
H2018 C2006 0.956 . S
H2019 C2006 0.961 . S
H2020 C2006 0.961 . S
H2021 C2007 0.958 . S
H2022 C2007 0.961 . S
H2023 C2007 0.960 . S
C2024 C2025 1.391 . S
C2024 C2026 1.394 . S
C2024 H2040 0.931 . S
C2025 C2024 1.391 . S
C2025 C2029 1.376 . S
C2026 C2024 1.394 . S
C2026 C2027 1.369 . S
C2026 C2030 1.531 . S
C2027 C2026 1.369 . S
C2027 C2028 1.410 . S
C2027 C2035 1.503 . S
C2028 C2027 1.410 . S
C2028 C2029 1.392 . S
C2028 C2031 1.511 . S
C2029 C2025 1.376 . S
C2029 C2028 1.392 . S
C2029 H2041 0.929 . S
C2030 C2026 1.531 . S
C2030 H2042 0.960 . S
C2030 H2043 0.962 . S
C2030 H2044 0.960 . S
C2031 C2028 1.511 . S
C2031 H2045 0.961 . S
C2031 H2046 0.961 . S
C2031 H2047 0.961 . S
C2032 C2033 1.370 . S
C2032 C2034 1.363 . S
C2032 H2048 0.931 . S
C2033 C2032 1.370 . S
C2033 C2037 1.408 . S
C2034 C2032 1.363 . S
C2034 C2035 1.370 . S
C2034 C2038 1.524 . S
C2035 C2027 1.503 . S
C2035 C2034 1.370 . S
C2035 C2036 1.403 . S
C2036 C2035 1.403 . S
C2036 C2037 1.404 . S
C2036 C2039 1.539 . S
C2037 C2033 1.408 . S
C2037 C2036 1.404 . S
C2037 H2049 0.930 . S
C2038 C2034 1.524 . S
C2038 H2050 0.956 . S
C2038 H2051 0.961 . S
C2038 H2052 0.961 . S
C2039 C2036 1.539 . S
C2039 H2053 0.958 . S
C2039 H2054 0.961 . S
C2039 H2055 0.960 . S
H2040 C2024 0.931 . S
H2041 C2029 0.929 . S
H2042 C2030 0.960 . S
H2043 C2030 0.962 . S
H2044 C2030 0.960 . S
H2045 C2031 0.961 . S
H2046 C2031 0.961 . S
H2047 C2031 0.961 . S
H2048 C2032 0.931 . S
H2049 C2037 0.930 . S
H2050 C2038 0.956 . S
H2051 C2038 0.961 . S
H2052 C2038 0.961 . S
H2053 C2039 0.958 . S
H2054 C2039 0.961 . S
H2055 C2039 0.960 . S
C2056 C2057 1.391 . S
C2056 C2058 1.394 . S
C2056 H2072 0.931 . S
C2057 C2056 1.391 . S
C2057 C2061 1.376 . S
C2058 C2056 1.394 . S
C2058 C2059 1.369 . S
C2058 C2062 1.531 . S
C2059 C2058 1.369 . S
C2059 C2060 1.410 . S
C2059 C2067 1.503 . S
C2060 C2059 1.410 . S
C2060 C2061 1.392 . S
C2060 C2063 1.511 . S
C2061 C2057 1.376 . S
C2061 C2060 1.392 . S
C2061 H2073 0.929 . S
C2062 C2058 1.531 . S
C2062 H2074 0.960 . S
C2062 H2075 0.962 . S
C2062 H2076 0.960 . S
C2063 C2060 1.511 . S
C2063 H2077 0.961 . S
C2063 H2078 0.961 . S
C2063 H2079 0.961 . S
C2064 C2065 1.370 . S
C2064 C2066 1.363 . S
C2064 H2080 0.931 . S
C2065 C2064 1.370 . S
C2065 C2069 1.408 . S
C2066 C2064 1.363 . S
C2066 C2067 1.370 . S
C2066 C2070 1.524 . S
C2067 C2059 1.503 . S
C2067 C2066 1.370 . S
C2067 C2068 1.403 . S
C2068 C2067 1.403 . S
C2068 C2069 1.404 . S
C2068 C2071 1.539 . S
C2069 C2065 1.408 . S
C2069 C2068 1.404 . S
C2069 H2081 0.930 . S
C2070 C2066 1.524 . S
C2070 H2082 0.956 . S
C2070 H2083 0.961 . S
C2070 H2084 0.961 . S
C2071 C2068 1.539 . S
C2071 H2085 0.958 . S
C2071 H2086 0.961 . S
C2071 H2087 0.960 . S
H2072 C2056 0.931 . S
H2073 C2061 0.929 . S
H2074 C2062 0.960 . S
H2075 C2062 0.962 . S
H2076 C2062 0.960 . S
H2077 C2063 0.961 . S
H2078 C2063 0.961 . S
H2079 C2063 0.961 . S
H2080 C2064 0.931 . S
H2081 C2069 0.930 . S
H2082 C2070 0.956 . S
H2083 C2070 0.961 . S
H2084 C2070 0.961 . S
H2085 C2071 0.958 . S
H2086 C2071 0.961 . S
H2087 C2071 0.960 . S
C2088 C2089 1.391 . S
C2088 C2090 1.394 . S
C2088 H2104 0.931 . S
C2089 C2088 1.391 . S
C2089 C2093 1.376 . S
C2090 C2088 1.394 . S
C2090 C2091 1.369 . S
C2090 C2094 1.531 . S
C2091 C2090 1.369 . S
C2091 C2092 1.410 . S
C2091 C2099 1.503 . S
C2092 C2091 1.410 . S
C2092 C2093 1.392 . S
C2092 C2095 1.511 . S
C2093 C2089 1.376 . S
C2093 C2092 1.392 . S
C2093 H2105 0.929 . S
C2094 C2090 1.531 . S
C2094 H2106 0.960 . S
C2094 H2107 0.962 . S
C2094 H2108 0.960 . S
C2095 C2092 1.511 . S
C2095 H2109 0.961 . S
C2095 H2110 0.961 . S
C2095 H2111 0.961 . S
C2096 C2097 1.370 . S
C2096 C2098 1.363 . S
C2096 H2112 0.931 . S
C2097 C2096 1.370 . S
C2097 C2101 1.408 . S
C2098 C2096 1.363 . S
C2098 C2099 1.370 . S
C2098 C2102 1.524 . S
C2099 C2091 1.503 . S
C2099 C2098 1.370 . S
C2099 C2100 1.403 . S
C2100 C2099 1.403 . S
C2100 C2101 1.404 . S
C2100 C2103 1.539 . S
C2101 C2097 1.408 . S
C2101 C2100 1.404 . S
C2101 H2113 0.930 . S
C2102 C2098 1.524 . S
C2102 H2114 0.956 . S
C2102 H2115 0.961 . S
C2102 H2116 0.961 . S
C2103 C2100 1.539 . S
C2103 H2117 0.958 . S
C2103 H2118 0.961 . S
C2103 H2119 0.960 . S
H2104 C2088 0.931 . S
H2105 C2093 0.929 . S
H2106 C2094 0.960 . S
H2107 C2094 0.962 . S
H2108 C2094 0.960 . S
H2109 C2095 0.961 . S
H2110 C2095 0.961 . S
H2111 C2095 0.961 . S
H2112 C2096 0.931 . S
H2113 C2101 0.930 . S
H2114 C2102 0.956 . S
H2115 C2102 0.961 . S
H2116 C2102 0.961 . S
H2117 C2103 0.958 . S
H2118 C2103 0.961 . S
H2119 C2103 0.960 . S
C2120 C2121 1.391 . S
C2120 C2122 1.394 . S
C2120 H2136 0.931 . S
C2121 C2120 1.391 . S
C2121 C2125 1.376 . S
C2122 C2120 1.394 . S
C2122 C2123 1.369 . S
C2122 C2126 1.531 . S
C2123 C2122 1.369 . S
C2123 C2124 1.410 . S
C2123 C2131 1.503 . S
C2124 C2123 1.410 . S
C2124 C2125 1.392 . S
C2124 C2127 1.511 . S
C2125 C2121 1.376 . S
C2125 C2124 1.392 . S
C2125 H2137 0.929 . S
C2126 C2122 1.531 . S
C2126 H2138 0.960 . S
C2126 H2139 0.962 . S
C2126 H2140 0.960 . S
C2127 C2124 1.511 . S
C2127 H2141 0.961 . S
C2127 H2142 0.961 . S
C2127 H2143 0.961 . S
C2128 C2129 1.370 . S
C2128 C2130 1.363 . S
C2128 H2144 0.931 . S
C2129 C2128 1.370 . S
C2129 C2133 1.408 . S
C2130 C2128 1.363 . S
C2130 C2131 1.370 . S
C2130 C2134 1.524 . S
C2131 C2123 1.503 . S
C2131 C2130 1.370 . S
C2131 C2132 1.403 . S
C2132 C2131 1.403 . S
C2132 C2133 1.404 . S
C2132 C2135 1.539 . S
C2133 C2129 1.408 . S
C2133 C2132 1.404 . S
C2133 H2145 0.930 . S
C2134 C2130 1.524 . S
C2134 H2146 0.956 . S
C2134 H2147 0.961 . S
C2134 H2148 0.961 . S
C2135 C2132 1.539 . S
C2135 H2149 0.958 . S
C2135 H2150 0.961 . S
C2135 H2151 0.960 . S
H2136 C2120 0.931 . S
H2137 C2125 0.929 . S
H2138 C2126 0.960 . S
H2139 C2126 0.962 . S
H2140 C2126 0.960 . S
H2141 C2127 0.961 . S
H2142 C2127 0.961 . S
H2143 C2127 0.961 . S
H2144 C2128 0.931 . S
H2145 C2133 0.930 . S
H2146 C2134 0.956 . S
H2147 C2134 0.961 . S
H2148 C2134 0.961 . S
H2149 C2135 0.958 . S
H2150 C2135 0.961 . S
H2151 C2135 0.960 . S
C2152 C2153 1.391 . S
C2152 C2154 1.394 . S
C2152 H2168 0.931 . S
C2153 C2152 1.391 . S
C2153 C2157 1.376 . S
C2154 C2152 1.394 . S
C2154 C2155 1.369 . S
C2154 C2158 1.531 . S
C2155 C2154 1.369 . S
C2155 C2156 1.410 . S
C2155 C2163 1.503 . S
C2156 C2155 1.410 . S
C2156 C2157 1.392 . S
C2156 C2159 1.511 . S
C2157 C2153 1.376 . S
C2157 C2156 1.392 . S
C2157 H2169 0.929 . S
C2158 C2154 1.531 . S
C2158 H2170 0.960 . S
C2158 H2171 0.962 . S
C2158 H2172 0.960 . S
C2159 C2156 1.511 . S
C2159 H2173 0.961 . S
C2159 H2174 0.961 . S
C2159 H2175 0.961 . S
C2160 C2161 1.370 . S
C2160 C2162 1.363 . S
C2160 H2176 0.931 . S
C2161 C2160 1.370 . S
C2161 C2165 1.408 . S
C2162 C2160 1.363 . S
C2162 C2163 1.370 . S
C2162 C2166 1.524 . S
C2163 C2155 1.503 . S
C2163 C2162 1.370 . S
C2163 C2164 1.403 . S
C2164 C2163 1.403 . S
C2164 C2165 1.404 . S
C2164 C2167 1.539 . S
C2165 C2161 1.408 . S
C2165 C2164 1.404 . S
C2165 H2177 0.930 . S
C2166 C2162 1.524 . S
C2166 H2178 0.956 . S
C2166 H2179 0.961 . S
C2166 H2180 0.961 . S
C2167 C2164 1.539 . S
C2167 H2181 0.958 . S
C2167 H2182 0.961 . S
C2167 H2183 0.960 . S
H2168 C2152 0.931 . S
H2169 C2157 0.929 . S
H2170 C2158 0.960 . S
H2171 C2158 0.962 . S
H2172 C2158 0.960 . S
H2173 C2159 0.961 . S
H2174 C2159 0.961 . S
H2175 C2159 0.961 . S
H2176 C2160 0.931 . S
H2177 C2165 0.930 . S
H2178 C2166 0.956 . S
H2179 C2166 0.961 . S
H2180 C2166 0.961 . S
H2181 C2167 0.958 . S
H2182 C2167 0.961 . S
H2183 C2167 0.960 . S
C2184 C2185 1.391 . S
C2184 C2186 1.394 . S
C2184 H2200 0.931 . S
C2185 C2184 1.391 . S
C2185 C2189 1.376 1_565 S
C2186 C2184 1.394 . S
C2186 C2187 1.404 . S
C2186 C2190 1.531 . S
C2187 C2186 1.404 . S
C2187 C2188 1.380 1_565 S
C2187 C2195 1.497 1_566 S
C2188 C2187 1.380 1_545 S
C2188 C2189 1.392 . S
C2188 C2191 1.511 . S
C2189 C2185 1.376 1_545 S
C2189 C2188 1.392 . S
C2189 H2201 0.929 . S
C2190 C2186 1.531 . S
C2190 H2202 0.960 1_556 S
C2190 H2203 0.956 1_556 S
C2190 H2204 0.960 . S
C2191 C2188 1.511 . S
C2191 H2205 0.961 . S
C2191 H2206 0.961 . S
C2191 H2207 0.961 . S
C2192 C2193 1.370 . S
C2192 C2194 1.363 1_545 S
C2192 H2208 0.931 1_545 S
C2193 C2192 1.370 . S
C2193 C2197 1.408 . S
C2194 C2192 1.363 1_565 S
C2194 C2195 1.370 1_565 S
C2194 C2198 1.524 . S
C2195 C2187 1.497 1_544 S
C2195 C2194 1.370 1_545 S
C2195 C2196 1.403 . S
C2196 C2195 1.403 . S
C2196 C2197 1.404 . S
C2196 C2199 1.539 . S
C2197 C2193 1.408 . S
C2197 C2196 1.404 . S
C2197 H2209 0.930 . S
C2198 C2194 1.524 . S
C2198 H2210 0.956 . S
C2198 H2211 0.925 1_554 S
C2198 H2212 0.961 . S
C2199 C2196 1.539 . S
C2199 H2213 0.958 . S
C2199 H2214 0.961 . S
C2199 H2215 0.960 1_554 S
H2200 C2184 0.931 . S
H2201 C2189 0.929 . S
H2202 C2190 0.960 1_554 S
H2203 C2190 0.956 1_554 S
H2204 C2190 0.960 . S
H2205 C2191 0.961 . S
H2206 C2191 0.961 . S
H2207 C2191 0.961 . S
H2208 C2192 0.931 1_565 S
H2209 C2197 0.930 . S
H2210 C2198 0.956 . S
H2211 C2198 0.925 1_556 S
H2212 C2198 0.961 . S
H2213 C2199 0.958 . S
H2214 C2199 0.961 . S
H2215 C2199 0.960 1_556 S
C2216 C2217 1.391 . S
C2216 C2218 1.394 . S
C2216 H2232 0.931 . S
C2217 C2216 1.391 . S
C2217 C2221 1.376 . S
C2218 C2216 1.394 . S
C2218 C2219 1.369 . S
C2218 C2222 1.531 . S
C2219 C2218 1.369 . S
C2219 C2220 1.410 . S
C2219 C2227 1.503 . S
C2220 C2219 1.410 . S
C2220 C2221 1.392 . S
C2220 C2223 1.511 . S
C2221 C2217 1.376 . S
C2221 C2220 1.392 . S
C2221 H2233 0.929 . S
C2222 C2218 1.531 . S
C2222 H2234 0.960 . S
C2222 H2235 0.962 . S
C2222 H2236 0.960 . S
C2223 C2220 1.511 . S
C2223 H2237 0.961 . S
C2223 H2238 0.961 . S
C2223 H2239 0.961 . S
C2224 C2225 1.370 . S
C2224 C2226 1.363 . S
C2224 H2240 0.931 . S
C2225 C2224 1.370 . S
C2225 C2229 1.408 . S
C2226 C2224 1.363 . S
C2226 C2227 1.370 . S
C2226 C2230 1.524 . S
C2227 C2219 1.503 . S
C2227 C2226 1.370 . S
C2227 C2228 1.403 . S
C2228 C2227 1.403 . S
C2228 C2229 1.404 . S
C2228 C2231 1.539 . S
C2229 C2225 1.408 . S
C2229 C2228 1.404 . S
C2229 H2241 0.930 . S
C2230 C2226 1.524 . S
C2230 H2242 0.956 . S
C2230 H2243 0.961 . S
C2230 H2244 0.961 . S
C2231 C2228 1.539 . S
C2231 H2245 0.958 . S
C2231 H2246 0.961 . S
C2231 H2247 0.960 . S
H2232 C2216 0.931 . S
H2233 C2221 0.929 . S
H2234 C2222 0.960 . S
H2235 C2222 0.962 . S
H2236 C2222 0.960 . S
H2237 C2223 0.961 . S
H2238 C2223 0.961 . S
H2239 C2223 0.961 . S
H2240 C2224 0.931 . S
H2241 C2229 0.930 . S
H2242 C2230 0.956 . S
H2243 C2230 0.961 . S
H2244 C2230 0.961 . S
H2245 C2231 0.958 . S
H2246 C2231 0.961 . S
H2247 C2231 0.960 . S
C2248 C2249 1.391 . S
C2248 C2250 1.394 . S
C2248 H2264 0.931 . S
C2249 C2248 1.391 . S
C2249 C2253 1.376 1_455 S
C2250 C2248 1.394 . S
C2250 C2251 1.369 . S
C2250 C2254 1.531 . S
C2251 C2250 1.369 . S
C2251 C2252 1.410 1_455 S
C2251 C2259 1.503 1_456 S
C2252 C2251 1.410 1_655 S
C2252 C2253 1.392 . S
C2252 C2255 1.511 . S
C2253 C2249 1.376 1_655 S
C2253 C2252 1.392 . S
C2253 H2265 0.929 . S
C2254 C2250 1.531 . S
C2254 H2266 0.960 1_556 S
C2254 H2267 0.955 1_556 S
C2254 H2268 0.960 . S
C2255 C2252 1.511 . S
C2255 H2269 0.961 . S
C2255 H2270 0.961 . S
C2255 H2271 0.961 . S
C2256 C2257 1.370 . S
C2256 C2258 1.363 . S
C2256 H2272 0.931 . S
C2257 C2256 1.370 . S
C2257 C2261 1.408 . S
C2258 C2256 1.363 . S
C2258 C2259 1.370 . S
C2258 C2262 1.524 1_655 S
C2259 C2251 1.503 1_654 S
C2259 C2258 1.370 . S
C2259 C2260 1.403 . S
C2260 C2259 1.403 . S
C2260 C2261 1.404 . S
C2260 C2263 1.539 . S
C2261 C2257 1.408 . S
C2261 C2260 1.404 . S
C2261 H2273 0.930 . S
C2262 C2258 1.524 1_455 S
C2262 H2274 0.956 . S
C2262 H2275 0.961 1_454 S
C2262 H2276 0.959 . S
C2263 C2260 1.539 . S
C2263 H2277 0.958 1_655 S
C2263 H2278 0.961 . S
C2263 H2279 0.960 1_554 S
H2264 C2248 0.931 . S
H2265 C2253 0.929 . S
H2266 C2254 0.960 1_554 S
H2267 C2254 0.955 1_554 S
H2268 C2254 0.960 . S
H2269 C2255 0.961 . S
H2270 C2255 0.961 . S
H2271 C2255 0.961 . S
H2272 C2256 0.931 . S
H2273 C2261 0.930 . S
H2274 C2262 0.956 . S
H2275 C2262 0.961 1_656 S
H2276 C2262 0.959 . S
H2277 C2263 0.958 1_455 S
H2278 C2263 0.961 . S
H2279 C2263 0.960 1_556 S
C2280 C2281 1.391 1_565 S
C2280 C2282 1.394 . S
C2280 H2296 0.931 . S
C2281 C2280 1.391 1_545 S
C2281 C2285 1.376 . S
C2282 C2280 1.394 . S
C2282 C2283 1.369 . S
C2282 C2286 1.531 . S
C2283 C2282 1.369 . S
C2283 C2284 1.410 1_565 S
C2283 C2291 1.503 . S
C2284 C2283 1.410 1_545 S
C2284 C2285 1.392 . S
C2284 C2287 1.511 . S
C2285 C2281 1.376 . S
C2285 C2284 1.392 . S
C2285 H2297 0.929 . S
C2286 C2282 1.531 . S
C2286 H2298 0.960 . S
C2286 H2299 0.962 . S
C2286 H2300 0.960 . S
C2287 C2284 1.511 . S
C2287 H2301 0.961 . S
C2287 H2302 0.961 . S
C2287 H2303 0.961 . S
C2288 C2289 1.370 1_545 S
C2288 C2290 1.363 . S
C2288 H2304 0.931 . S
C2289 C2288 1.370 1_565 S
C2289 C2293 1.408 . S
C2290 C2288 1.363 . S
C2290 C2291 1.370 1_545 S
C2290 C2294 1.524 . S
C2291 C2283 1.503 . S
C2291 C2290 1.370 1_565 S
C2291 C2292 1.403 . S
C2292 C2291 1.403 . S
C2292 C2293 1.404 . S
C2292 C2295 1.539 . S
C2293 C2289 1.408 . S
C2293 C2292 1.404 . S
C2293 H2305 0.930 . S
C2294 C2290 1.524 . S
C2294 H2306 0.956 . S
C2294 H2307 0.961 . S
C2294 H2308 0.961 . S
C2295 C2292 1.539 . S
C2295 H2309 0.958 . S
C2295 H2310 0.961 . S
C2295 H2311 0.960 . S
H2296 C2280 0.931 . S
H2297 C2285 0.929 . S
H2298 C2286 0.960 . S
H2299 C2286 0.962 . S
H2300 C2286 0.960 . S
H2301 C2287 0.961 . S
H2302 C2287 0.961 . S
H2303 C2287 0.961 . S
H2304 C2288 0.931 . S
H2305 C2293 0.930 . S
H2306 C2294 0.956 . S
H2307 C2294 0.961 . S
H2308 C2294 0.961 . S
H2309 C2295 0.958 . S
H2310 C2295 0.961 . S
H2311 C2295 0.960 . S
C2312 C2313 1.391 . S
C2312 C2314 1.394 . S
C2312 H2328 0.931 . S
C2313 C2312 1.391 . S
C2313 C2317 1.376 . S
C2314 C2312 1.394 . S
C2314 C2315 1.369 . S
C2314 C2318 1.531 . S
C2315 C2314 1.369 . S
C2315 C2316 1.410 . S
C2315 C2323 1.503 1_554 S
C2316 C2315 1.410 . S
C2316 C2317 1.392 . S
C2316 C2319 1.511 . S
C2317 C2313 1.376 . S
C2317 C2316 1.392 . S
C2317 H2329 0.929 . S
C2318 C2314 1.531 . S
C2318 H2330 0.960 . S
C2318 H2331 0.962 . S
C2318 H2332 0.960 . S
C2319 C2316 1.511 . S
C2319 H2333 0.961 . S
C2319 H2334 0.961 1_554 S
C2319 H2335 0.970 . S
C2320 C2321 1.370 . S
C2320 C2322 1.363 . S
C2320 H2336 0.931 . S
C2321 C2320 1.370 . S
C2321 C2325 1.408 . S
C2322 C2320 1.363 . S
C2322 C2323 1.370 . S
C2322 C2326 1.524 . S
C2323 C2315 1.503 1_556 S
C2323 C2322 1.370 . S
C2323 C2324 1.403 . S
C2324 C2323 1.403 . S
C2324 C2325 1.404 . S
C2324 C2327 1.539 . S
C2325 C2321 1.408 . S
C2325 C2324 1.404 . S
C2325 H2337 0.930 . S
C2326 C2322 1.524 . S
C2326 H2338 0.956 1_556 S
C2326 H2339 0.948 1_556 S
C2326 H2340 0.961 . S
C2327 C2324 1.539 . S
C2327 H2341 0.958 . S
C2327 H2342 0.961 . S
C2327 H2343 0.960 . S
H2328 C2312 0.931 . S
H2329 C2317 0.929 . S
H2330 C2318 0.960 . S
H2331 C2318 0.962 . S
H2332 C2318 0.960 . S
H2333 C2319 0.961 . S
H2334 C2319 0.961 1_556 S
H2335 C2319 0.970 . S
H2336 C2320 0.931 . S
H2337 C2325 0.930 . S
H2338 C2326 0.956 1_554 S
H2339 C2326 0.948 1_554 S
H2340 C2326 0.961 . S
H2341 C2327 0.958 . S
H2342 C2327 0.961 . S
H2343 C2327 0.960 . S
C2344 C2345 1.391 1_655 S
C2344 C2346 1.394 . S
C2344 H2360 0.931 . S
C2345 C2344 1.391 1_455 S
C2345 C2349 1.376 . S
C2346 C2344 1.394 . S
C2346 C2347 1.369 1_655 S
C2346 C2350 1.531 . S
C2347 C2346 1.369 1_455 S
C2347 C2348 1.410 . S
C2347 C2355 1.509 . S
C2348 C2347 1.410 . S
C2348 C2349 1.392 . S
C2348 C2351 1.511 . S
C2349 C2345 1.376 . S
C2349 C2348 1.392 . S
C2349 H2361 0.929 . S
C2350 C2346 1.531 . S
C2350 H2362 0.960 . S
C2350 H2363 0.962 . S
C2350 H2364 0.960 . S
C2351 C2348 1.511 . S
C2351 H2365 0.961 . S
C2351 H2366 0.961 . S
C2351 H2367 0.961 . S
C2352 C2353 1.370 . S
C2352 C2354 1.363 . S
C2352 H2368 0.931 . S
C2353 C2352 1.370 . S
C2353 C2357 1.408 1_655 S
C2354 C2352 1.363 . S
C2354 C2355 1.360 1_655 S
C2354 C2358 1.524 . S
C2355 C2347 1.509 . S
C2355 C2354 1.360 1_455 S
C2355 C2356 1.408 . S
C2356 C2355 1.408 . S
C2356 C2357 1.404 . S
C2356 C2359 1.539 . S
C2357 C2353 1.408 1_455 S
C2357 C2356 1.404 . S
C2357 H2369 0.930 . S
C2358 C2354 1.524 . S
C2358 H2370 0.956 . S
C2358 H2371 0.961 . S
C2358 H2372 0.961 . S
C2359 C2356 1.539 . S
C2359 H2373 0.958 . S
C2359 H2374 0.961 . S
C2359 H2375 0.960 . S
H2360 C2344 0.931 . S
H2361 C2349 0.929 . S
H2362 C2350 0.960 . S
H2363 C2350 0.962 . S
H2364 C2350 0.960 . S
H2365 C2351 0.961 . S
H2366 C2351 0.961 . S
H2367 C2351 0.961 . S
H2368 C2352 0.931 . S
H2369 C2357 0.930 . S
H2370 C2358 0.956 . S
H2371 C2358 0.961 . S
H2372 C2358 0.961 . S
H2373 C2359 0.958 . S
H2374 C2359 0.961 . S
H2375 C2359 0.960 . S
C2376 C2377 1.391 1_545 S
C2376 C2378 1.394 . S
C2376 H2392 0.931 . S
C2377 C2376 1.391 1_565 S
C2377 C2381 1.376 . S
C2378 C2376 1.394 . S
C2378 C2379 1.384 . S
C2378 C2382 1.531 . S
C2379 C2378 1.384 . S
C2379 C2380 1.387 1_545 S
C2379 C2387 1.509 1_556 S
C2380 C2379 1.387 1_565 S
C2380 C2381 1.392 . S
C2380 C2383 1.511 . S
C2381 C2377 1.376 . S
C2381 C2380 1.392 . S
C2381 H2393 0.929 . S
C2382 C2378 1.531 . S
C2382 H2394 0.960 . S
C2382 H2395 0.962 . S
C2382 H2396 0.960 . S
C2383 C2380 1.511 . S
C2383 H2397 0.961 . S
C2383 H2398 0.961 1_556 S
C2383 H2399 0.961 . S
C2384 C2385 1.370 1_565 S
C2384 C2386 1.363 . S
C2384 H2400 0.931 . S
C2385 C2384 1.370 1_545 S
C2385 C2389 1.408 . S
C2386 C2384 1.363 . S
C2386 C2387 1.370 1_565 S
C2386 C2390 1.524 . S
C2387 C2379 1.509 1_554 S
C2387 C2386 1.370 1_545 S
C2387 C2388 1.403 . S
C2388 C2387 1.403 . S
C2388 C2389 1.404 . S
C2388 C2391 1.539 . S
C2389 C2385 1.408 . S
C2389 C2388 1.404 . S
C2389 H2401 0.930 . S
C2390 C2386 1.524 . S
C2390 H2402 0.956 . S
C2390 H2403 0.961 . S
C2390 H2404 0.961 . S
C2391 C2388 1.539 . S
C2391 H2405 0.958 . S
C2391 H2406 0.961 . S
C2391 H2407 0.960 1_554 S
H2392 C2376 0.931 . S
H2393 C2381 0.929 . S
H2394 C2382 0.960 . S
H2395 C2382 0.962 . S
H2396 C2382 0.960 . S
H2397 C2383 0.961 . S
H2398 C2383 0.961 1_554 S
H2399 C2383 0.961 . S
H2400 C2384 0.931 . S
H2401 C2389 0.930 . S
H2402 C2390 0.956 . S
H2403 C2390 0.961 . S
H2404 C2390 0.961 . S
H2405 C2391 0.958 . S
H2406 C2391 0.961 . S
H2407 C2391 0.960 1_556 S
C2408 C2409 1.391 . S
C2408 C2410 1.394 . S
C2408 H2424 0.931 . S
C2409 C2408 1.391 . S
C2409 C2413 1.376 . S
C2410 C2408 1.394 . S
C2410 C2411 1.369 . S
C2410 C2414 1.531 . S
C2411 C2410 1.369 . S
C2411 C2412 1.410 . S
C2411 C2419 1.503 . S
C2412 C2411 1.410 . S
C2412 C2413 1.392 . S
C2412 C2415 1.511 . S
C2413 C2409 1.376 . S
C2413 C2412 1.392 . S
C2413 H2425 0.929 . S
C2414 C2410 1.531 . S
C2414 H2426 0.960 . S
C2414 H2427 0.962 . S
C2414 H2428 0.960 . S
C2415 C2412 1.511 . S
C2415 H2429 0.961 . S
C2415 H2430 0.961 . S
C2415 H2431 0.961 . S
C2416 C2417 1.370 . S
C2416 C2418 1.363 . S
C2416 H2432 0.931 . S
C2417 C2416 1.370 . S
C2417 C2421 1.408 . S
C2418 C2416 1.363 . S
C2418 C2419 1.370 . S
C2418 C2422 1.524 . S
C2419 C2411 1.503 . S
C2419 C2418 1.370 . S
C2419 C2420 1.403 . S
C2420 C2419 1.403 . S
C2420 C2421 1.404 . S
C2420 C2423 1.539 . S
C2421 C2417 1.408 . S
C2421 C2420 1.404 . S
C2421 H2433 0.930 . S
C2422 C2418 1.524 . S
C2422 H2434 0.956 . S
C2422 H2435 0.961 . S
C2422 H2436 0.961 . S
C2423 C2420 1.539 . S
C2423 H2437 0.958 . S
C2423 H2438 0.961 . S
C2423 H2439 0.960 . S
H2424 C2408 0.931 . S
H2425 C2413 0.929 . S
H2426 C2414 0.960 . S
H2427 C2414 0.962 . S
H2428 C2414 0.960 . S
H2429 C2415 0.961 . S
H2430 C2415 0.961 . S
H2431 C2415 0.961 . S
H2432 C2416 0.931 . S
H2433 C2421 0.930 . S
H2434 C2422 0.956 . S
H2435 C2422 0.961 . S
H2436 C2422 0.961 . S
H2437 C2423 0.958 . S
H2438 C2423 0.961 . S
H2439 C2423 0.960 . S
C2440 C2441 1.391 1_455 S
C2440 C2442 1.394 . S
C2440 H2456 0.931 . S
C2441 C2440 1.391 1_655 S
C2441 C2445 1.376 . S
C2442 C2440 1.394 . S
C2442 C2443 1.369 1_455 S
C2442 C2446 1.531 . S
C2443 C2442 1.369 1_655 S
C2443 C2444 1.410 . S
C2443 C2451 1.499 1_654 S
C2444 C2443 1.410 . S
C2444 C2445 1.392 . S
C2444 C2447 1.511 . S
C2445 C2441 1.376 . S
C2445 C2444 1.392 . S
C2445 H2457 0.929 . S
C2446 C2442 1.531 . S
C2446 H2458 0.960 . S
C2446 H2459 0.962 . S
C2446 H2460 0.960 . S
C2447 C2444 1.511 . S
C2447 H2461 0.961 . S
C2447 H2462 0.961 1_554 S
C2447 H2463 0.969 . S
C2448 C2449 1.370 . S
C2448 C2450 1.363 . S
C2448 H2464 0.931 . S
C2449 C2448 1.370 . S
C2449 C2453 1.408 1_455 S
C2450 C2448 1.363 . S
C2450 C2451 1.372 . S
C2450 C2454 1.524 . S
C2451 C2443 1.499 1_456 S
C2451 C2450 1.372 . S
C2451 C2452 1.407 1_455 S
C2452 C2451 1.407 1_655 S
C2452 C2453 1.404 . S
C2452 C2455 1.539 . S
C2453 C2449 1.408 1_655 S
C2453 C2452 1.404 . S
C2453 H2465 0.930 . S
C2454 C2450 1.524 . S
C2454 H2466 0.956 1_556 S
C2454 H2467 0.961 1_556 S
C2454 H2468 0.961 . S
C2455 C2452 1.539 . S
C2455 H2469 0.958 . S
C2455 H2470 0.961 . S
C2455 H2471 0.960 . S
H2456 C2440 0.931 . S
H2457 C2445 0.929 . S
H2458 C2446 0.960 . S
H2459 C2446 0.962 . S
H2460 C2446 0.960 . S
H2461 C2447 0.961 . S
H2462 C2447 0.961 1_556 S
H2463 C2447 0.969 . S
H2464 C2448 0.931 . S
H2465 C2453 0.930 . S
H2466 C2454 0.956 1_554 S
H2467 C2454 0.961 1_554 S
H2468 C2454 0.961 . S
H2469 C2455 0.958 . S
H2470 C2455 0.961 . S
H2471 C2455 0.960 . S
C2472 C2473 1.391 . S
C2472 C2474 1.394 . S
C2472 H2488 0.931 . S
C2473 C2472 1.391 . S
C2473 C2477 1.376 1_565 S
C2474 C2472 1.394 . S
C2474 C2475 1.369 1_565 S
C2474 C2478 1.531 . S
C2475 C2474 1.369 1_545 S
C2475 C2476 1.410 . S
C2475 C2483 1.503 . S
C2476 C2475 1.410 . S
C2476 C2477 1.393 . S
C2476 C2479 1.511 . S
C2477 C2473 1.376 1_545 S
C2477 C2476 1.393 . S
C2477 H2489 0.928 . S
C2478 C2474 1.531 . S
C2478 H2490 0.960 1_565 S
C2478 H2491 0.962 . S
C2478 H2492 0.960 . S
C2479 C2476 1.511 . S
C2479 H2493 0.961 . S
C2479 H2494 0.961 . S
C2479 H2495 0.961 . S
C2480 C2481 1.370 1_565 S
C2480 C2482 1.363 . S
C2480 H2496 0.931 . S
C2481 C2480 1.370 1_545 S
C2481 C2485 1.408 . S
C2482 C2480 1.363 . S
C2482 C2483 1.370 1_565 S
C2482 C2486 1.524 . S
C2483 C2475 1.503 . S
C2483 C2482 1.370 1_545 S
C2483 C2484 1.403 . S
C2484 C2483 1.403 . S
C2484 C2485 1.404 . S
C2484 C2487 1.539 . S
C2485 C2481 1.408 . S
C2485 C2484 1.404 . S
C2485 H2497 0.930 . S
C2486 C2482 1.524 . S
C2486 H2498 0.956 . S
C2486 H2499 0.961 . S
C2486 H2500 0.961 . S
C2487 C2484 1.539 . S
C2487 H2501 0.958 . S
C2487 H2502 0.961 . S
C2487 H2503 0.960 . S
H2488 C2472 0.931 . S
H2489 C2477 0.928 . S
H2490 C2478 0.960 1_545 S
H2491 C2478 0.962 . S
H2492 C2478 0.960 . S
H2493 C2479 0.961 . S
H2494 C2479 0.961 . S
H2495 C2479 0.961 . S
H2496 C2480 0.931 . S
H2497 C2485 0.930 . S
H2498 C2486 0.956 . S
H2499 C2486 0.961 . S
H2500 C2486 0.961 . S
H2501 C2487 0.958 . S
H2502 C2487 0.961 . S
H2503 C2487 0.960 . S
C2504 C2505 1.391 . S
C2504 C2506 1.394 . S
C2504 H2520 0.931 . S
C2505 C2504 1.391 . S
C2505 C2509 1.376 . S
C2506 C2504 1.394 . S
C2506 C2507 1.369 . S
C2506 C2510 1.531 . S
C2507 C2506 1.369 . S
C2507 C2508 1.410 . S
C2507 C2515 1.503 1_554 S
C2508 C2507 1.410 . S
C2508 C2509 1.392 . S
C2508 C2511 1.511 . S
C2509 C2505 1.376 . S
C2509 C2508 1.392 . S
C2509 H2521 0.929 . S
C2510 C2506 1.531 . S
C2510 H2522 0.960 1_554 S
C2510 H2523 0.962 . S
C2510 H2524 0.960 . S
C2511 C2508 1.511 . S
C2511 H2525 0.961 . S
C2511 H2526 0.961 1_554 S
C2511 H2527 0.961 . S
C2512 C2513 1.370 . S
C2512 C2514 1.363 . S
C2512 H2528 0.931 . S
C2513 C2512 1.370 . S
C2513 C2517 1.408 . S
C2514 C2512 1.363 . S
C2514 C2515 1.370 . S
C2514 C2518 1.524 . S
C2515 C2507 1.503 1_556 S
C2515 C2514 1.370 . S
C2515 C2516 1.403 . S
C2516 C2515 1.403 . S
C2516 C2517 1.404 . S
C2516 C2519 1.539 . S
C2517 C2513 1.408 . S
C2517 C2516 1.404 . S
C2517 H2529 0.930 . S
C2518 C2514 1.524 . S
C2518 H2530 0.956 1_556 S
C2518 H2531 0.961 1_556 S
C2518 H2532 0.961 . S
C2519 C2516 1.539 . S
C2519 H2533 0.958 . S
C2519 H2534 0.961 . S
C2519 H2535 0.960 . S
H2520 C2504 0.931 . S
H2521 C2509 0.929 . S
H2522 C2510 0.960 1_556 S
H2523 C2510 0.962 . S
H2524 C2510 0.960 . S
H2525 C2511 0.961 . S
H2526 C2511 0.961 1_556 S
H2527 C2511 0.961 . S
H2528 C2512 0.931 . S
H2529 C2517 0.930 . S
H2530 C2518 0.956 1_554 S
H2531 C2518 0.961 1_554 S
H2532 C2518 0.961 . S
H2533 C2519 0.958 . S
H2534 C2519 0.961 . S
H2535 C2519 0.960 . S
C2536 C2537 1.429 . S
C2536 C2538 1.389 1_455 S
C2536 H2552 0.900 1_455 S
C2537 C2536 1.429 . S
C2537 C2541 1.376 . S
C2538 C2536 1.389 1_655 S
C2538 C2539 1.369 1_655 S
C2538 C2542 1.531 . S
C2539 C2538 1.369 1_455 S
C2539 C2540 1.410 . S
C2539 C2547 1.503 . S
C2540 C2539 1.410 . S
C2540 C2541 1.392 . S
C2540 C2543 1.511 . S
C2541 C2537 1.376 . S
C2541 C2540 1.392 . S
C2541 H2553 0.929 . S
C2542 C2538 1.531 . S
C2542 H2554 0.960 . S
C2542 H2555 0.962 . S
C2542 H2556 0.960 . S
C2543 C2540 1.511 . S
C2543 H2557 0.961 . S
C2543 H2558 0.961 . S
C2543 H2559 0.961 . S
C2544 C2545 1.370 . S
C2544 C2546 1.363 . S
C2544 H2560 0.931 . S
C2545 C2544 1.370 . S
C2545 C2549 1.408 1_655 S
C2546 C2544 1.363 . S
C2546 C2547 1.370 1_655 S
C2546 C2550 1.524 . S
C2547 C2539 1.503 . S
C2547 C2546 1.370 1_455 S
C2547 C2548 1.403 . S
C2548 C2547 1.403 . S
C2548 C2549 1.404 . S
C2548 C2551 1.539 . S
C2549 C2545 1.408 1_455 S
C2549 C2548 1.404 . S
C2549 H2561 0.930 . S
C2550 C2546 1.524 . S
C2550 H2562 0.956 . S
C2550 H2563 0.961 . S
C2550 H2564 0.961 . S
C2551 C2548 1.539 . S
C2551 H2565 0.958 . S
C2551 H2566 0.961 . S
C2551 H2567 0.960 . S
H2552 C2536 0.900 1_655 S
H2553 C2541 0.929 . S
H2554 C2542 0.960 . S
H2555 C2542 0.962 . S
H2556 C2542 0.960 . S
H2557 C2543 0.961 . S
H2558 C2543 0.961 . S
H2559 C2543 0.961 . S
H2560 C2544 0.931 . S
H2561 C2549 0.930 . S
H2562 C2550 0.956 . S
H2563 C2550 0.961 . S
H2564 C2550 0.961 . S
H2565 C2551 0.958 . S
H2566 C2551 0.961 . S
H2567 C2551 0.960 . S
C2568 C2569 1.391 . S
C2568 C2570 1.394 . S
C2568 H2584 0.931 . S
C2569 C2568 1.391 . S
C2569 C2573 1.376 . S
C2570 C2568 1.394 . S
C2570 C2571 1.369 . S
C2570 C2574 1.531 . S
C2571 C2570 1.369 . S
C2571 C2572 1.410 . S
C2571 C2579 1.503 . S
C2572 C2571 1.410 . S
C2572 C2573 1.392 . S
C2572 C2575 1.511 . S
C2573 C2569 1.376 . S
C2573 C2572 1.392 . S
C2573 H2585 0.929 . S
C2574 C2570 1.531 . S
C2574 H2586 0.960 . S
C2574 H2587 0.962 . S
C2574 H2588 0.960 . S
C2575 C2572 1.511 . S
C2575 H2589 0.961 . S
C2575 H2590 0.961 . S
C2575 H2591 0.961 . S
C2576 C2577 1.370 . S
C2576 C2578 1.363 . S
C2576 H2592 0.931 . S
C2577 C2576 1.370 . S
C2577 C2581 1.408 . S
C2578 C2576 1.363 . S
C2578 C2579 1.370 . S
C2578 C2582 1.524 1_545 S
C2579 C2571 1.503 . S
C2579 C2578 1.370 . S
C2579 C2580 1.403 . S
C2580 C2579 1.403 . S
C2580 C2581 1.404 . S
C2580 C2583 1.539 . S
C2581 C2577 1.408 . S
C2581 C2580 1.404 . S
C2581 H2593 0.930 . S
C2582 C2578 1.524 1_565 S
C2582 H2594 0.956 . S
C2582 H2595 0.961 . S
C2582 H2596 0.961 . S
C2583 C2580 1.539 . S
C2583 H2597 0.958 . S
C2583 H2598 0.961 . S
C2583 H2599 0.960 . S
H2584 C2568 0.931 . S
H2585 C2573 0.929 . S
H2586 C2574 0.960 . S
H2587 C2574 0.962 . S
H2588 C2574 0.960 . S
H2589 C2575 0.961 . S
H2590 C2575 0.961 . S
H2591 C2575 0.961 . S
H2592 C2576 0.931 . S
H2593 C2581 0.930 . S
H2594 C2582 0.956 . S
H2595 C2582 0.961 . S
H2596 C2582 0.961 . S
H2597 C2583 0.958 . S
H2598 C2583 0.961 . S
H2599 C2583 0.960 . S
C2600 C2601 1.391 . S
C2600 C2602 1.394 . S
C2600 H2616 0.931 . S
C2601 C2600 1.391 . S
C2601 C2605 1.376 . S
C2602 C2600 1.394 . S
C2602 C2603 1.369 . S
C2602 C2606 1.531 . S
C2603 C2602 1.369 . S
C2603 C2604 1.410 . S
C2603 C2611 1.503 . S
C2604 C2603 1.410 . S
C2604 C2605 1.392 . S
C2604 C2607 1.511 . S
C2605 C2601 1.376 . S
C2605 C2604 1.392 . S
C2605 H2617 0.929 . S
C2606 C2602 1.531 . S
C2606 H2618 0.960 . S
C2606 H2619 0.962 . S
C2606 H2620 0.960 . S
C2607 C2604 1.511 . S
C2607 H2621 0.961 . S
C2607 H2622 0.961 . S
C2607 H2623 0.961 . S
C2608 C2609 1.370 . S
C2608 C2610 1.363 . S
C2608 H2624 0.931 . S
C2609 C2608 1.370 . S
C2609 C2613 1.408 . S
C2610 C2608 1.363 . S
C2610 C2611 1.370 . S
C2610 C2614 1.524 . S
C2611 C2603 1.503 . S
C2611 C2610 1.370 . S
C2611 C2612 1.403 . S
C2612 C2611 1.403 . S
C2612 C2613 1.404 . S
C2612 C2615 1.539 . S
C2613 C2609 1.408 . S
C2613 C2612 1.404 . S
C2613 H2625 0.930 . S
C2614 C2610 1.524 . S
C2614 H2626 0.956 . S
C2614 H2627 0.961 . S
C2614 H2628 0.961 . S
C2615 C2612 1.539 . S
C2615 H2629 0.958 . S
C2615 H2630 0.961 . S
C2615 H2631 0.960 . S
H2616 C2600 0.931 . S
H2617 C2605 0.929 . S
H2618 C2606 0.960 . S
H2619 C2606 0.962 . S
H2620 C2606 0.960 . S
H2621 C2607 0.961 . S
H2622 C2607 0.961 . S
H2623 C2607 0.961 . S
H2624 C2608 0.931 . S
H2625 C2613 0.930 . S
H2626 C2614 0.956 . S
H2627 C2614 0.961 . S
H2628 C2614 0.961 . S
H2629 C2615 0.958 . S
H2630 C2615 0.961 . S
H2631 C2615 0.960 . S
C2632 C2633 1.391 . S
C2632 C2634 1.394 . S
C2632 H2648 0.931 . S
C2633 C2632 1.391 . S
C2633 C2637 1.376 . S
C2634 C2632 1.394 . S
C2634 C2635 1.369 . S
C2634 C2638 1.531 . S
C2635 C2634 1.369 . S
C2635 C2636 1.410 . S
C2635 C2643 1.503 . S
C2636 C2635 1.410 . S
C2636 C2637 1.392 . S
C2636 C2639 1.511 1_655 S
C2637 C2633 1.376 . S
C2637 C2636 1.392 . S
C2637 H2649 0.929 . S
C2638 C2634 1.531 . S
C2638 H2650 0.960 . S
C2638 H2651 0.962 . S
C2638 H2652 0.960 . S
C2639 C2636 1.511 1_455 S
C2639 H2653 0.961 . S
C2639 H2654 0.961 . S
C2639 H2655 0.961 . S
C2640 C2641 1.370 . S
C2640 C2642 1.363 . S
C2640 H2656 0.931 . S
C2641 C2640 1.370 . S
C2641 C2645 1.408 . S
C2642 C2640 1.363 . S
C2642 C2643 1.370 . S
C2642 C2646 1.524 . S
C2643 C2635 1.503 . S
C2643 C2642 1.370 . S
C2643 C2644 1.403 . S
C2644 C2643 1.403 . S
C2644 C2645 1.404 . S
C2644 C2647 1.539 . S
C2645 C2641 1.408 . S
C2645 C2644 1.404 . S
C2645 H2657 0.930 . S
C2646 C2642 1.524 . S
C2646 H2658 0.956 . S
C2646 H2659 0.961 . S
C2646 H2660 0.961 . S
C2647 C2644 1.539 . S
C2647 H2661 0.958 . S
C2647 H2662 0.961 1_655 S
C2647 H2663 0.976 . S
H2648 C2632 0.931 . S
H2649 C2637 0.929 . S
H2650 C2638 0.960 . S
H2651 C2638 0.962 . S
H2652 C2638 0.960 . S
H2653 C2639 0.961 . S
H2654 C2639 0.961 . S
H2655 C2639 0.961 . S
H2656 C2640 0.931 . S
H2657 C2645 0.930 . S
H2658 C2646 0.956 . S
H2659 C2646 0.961 . S
H2660 C2646 0.961 . S
H2661 C2647 0.958 . S
H2662 C2647 0.961 1_455 S
H2663 C2647 0.976 . S
C2664 C2665 1.391 . S
C2664 C2666 1.394 . S
C2664 H2680 0.931 . S
C2665 C2664 1.391 . S
C2665 C2669 1.376 . S
C2666 C2664 1.394 . S
C2666 C2667 1.369 . S
C2666 C2670 1.531 . S
C2667 C2666 1.369 . S
C2667 C2668 1.410 . S
C2667 C2675 1.503 . S
C2668 C2667 1.410 . S
C2668 C2669 1.392 . S
C2668 C2671 1.511 1_565 S
C2669 C2665 1.376 . S
C2669 C2668 1.392 . S
C2669 H2681 0.949 . S
C2670 C2666 1.531 . S
C2670 H2682 0.960 . S
C2670 H2683 0.962 . S
C2670 H2684 0.960 . S
C2671 C2668 1.511 1_545 S
C2671 H2685 0.961 . S
C2671 H2686 0.961 . S
C2671 H2687 0.961 . S
C2672 C2673 1.370 . S
C2672 C2674 1.363 . S
C2672 H2688 0.931 . S
C2673 C2672 1.370 . S
C2673 C2677 1.408 . S
C2674 C2672 1.363 . S
C2674 C2675 1.370 . S
C2674 C2678 1.524 . S
C2675 C2667 1.503 . S
C2675 C2674 1.370 . S
C2675 C2676 1.403 . S
C2676 C2675 1.403 . S
C2676 C2677 1.404 . S
C2676 C2679 1.539 . S
C2677 C2673 1.408 . S
C2677 C2676 1.404 . S
C2677 H2689 0.930 . S
C2678 C2674 1.524 . S
C2678 H2690 0.956 . S
C2678 H2691 0.961 . S
C2678 H2692 0.961 . S
C2679 C2676 1.539 . S
C2679 H2693 0.958 . S
C2679 H2694 0.961 . S
C2679 H2695 0.960 . S
H2680 C2664 0.931 . S
H2681 C2669 0.949 . S
H2682 C2670 0.960 . S
H2683 C2670 0.962 . S
H2684 C2670 0.960 . S
H2685 C2671 0.961 . S
H2686 C2671 0.961 . S
H2687 C2671 0.961 . S
H2688 C2672 0.931 . S
H2689 C2677 0.930 . S
H2690 C2678 0.956 . S
H2691 C2678 0.961 . S
H2692 C2678 0.961 . S
H2693 C2679 0.958 . S
H2694 C2679 0.961 . S
H2695 C2679 0.960 . S
C2696 C2697 1.391 . S
C2696 C2698 1.394 . S
C2696 H2712 0.931 . S
C2697 C2696 1.391 . S
C2697 C2701 1.376 . S
C2698 C2696 1.394 . S
C2698 C2699 1.369 . S
C2698 C2702 1.531 . S
C2699 C2698 1.369 . S
C2699 C2700 1.410 . S
C2699 C2707 1.503 . S
C2700 C2699 1.410 . S
C2700 C2701 1.392 . S
C2700 C2703 1.511 . S
C2701 C2697 1.376 . S
C2701 C2700 1.392 . S
C2701 H2713 0.929 . S
C2702 C2698 1.531 . S
C2702 H2714 0.960 . S
C2702 H2715 0.962 . S
C2702 H2716 0.960 . S
C2703 C2700 1.511 . S
C2703 H2717 0.961 . S
C2703 H2718 0.961 . S
C2703 H2719 0.961 . S
C2704 C2705 1.370 . S
C2704 C2706 1.363 . S
C2704 H2720 0.931 . S
C2705 C2704 1.370 . S
C2705 C2709 1.408 . S
C2706 C2704 1.363 . S
C2706 C2707 1.370 . S
C2706 C2710 1.524 . S
C2707 C2699 1.503 . S
C2707 C2706 1.370 . S
C2707 C2708 1.403 . S
C2708 C2707 1.403 . S
C2708 C2709 1.404 . S
C2708 C2711 1.539 . S
C2709 C2705 1.408 . S
C2709 C2708 1.404 . S
C2709 H2721 0.930 . S
C2710 C2706 1.524 . S
C2710 H2722 0.956 . S
C2710 H2723 0.961 . S
C2710 H2724 0.961 . S
C2711 C2708 1.539 . S
C2711 H2725 0.958 . S
C2711 H2726 0.961 . S
C2711 H2727 0.960 . S
H2712 C2696 0.931 . S
H2713 C2701 0.929 . S
H2714 C2702 0.960 . S
H2715 C2702 0.962 . S
H2716 C2702 0.960 . S
H2717 C2703 0.961 . S
H2718 C2703 0.961 . S
H2719 C2703 0.961 . S
H2720 C2704 0.931 . S
H2721 C2709 0.930 . S
H2722 C2710 0.956 . S
H2723 C2710 0.961 . S
H2724 C2710 0.961 . S
H2725 C2711 0.958 . S
H2726 C2711 0.961 . S
H2727 C2711 0.960 . S
C2728 C2729 1.391 . S
C2728 C2730 1.394 . S
C2728 H2744 0.931 . S
C2729 C2728 1.391 . S
C2729 C2733 1.376 . S
C2730 C2728 1.394 . S
C2730 C2731 1.369 . S
C2730 C2734 1.531 . S
C2731 C2730 1.369 . S
C2731 C2732 1.410 . S
C2731 C2739 1.503 . S
C2732 C2731 1.410 . S
C2732 C2733 1.392 . S
C2732 C2735 1.511 . S
C2733 C2729 1.376 . S
C2733 C2732 1.392 . S
C2733 H2745 0.929 . S
C2734 C2730 1.531 . S
C2734 H2746 0.960 . S
C2734 H2747 0.962 . S
C2734 H2748 0.960 . S
C2735 C2732 1.511 . S
C2735 H2749 0.961 . S
C2735 H2750 0.961 . S
C2735 H2751 0.961 . S
C2736 C2737 1.370 . S
C2736 C2738 1.363 . S
C2736 H2752 0.931 . S
C2737 C2736 1.370 . S
C2737 C2741 1.408 . S
C2738 C2736 1.363 . S
C2738 C2739 1.370 . S
C2738 C2742 1.505 1_455 S
C2739 C2731 1.503 . S
C2739 C2738 1.370 . S
C2739 C2740 1.403 . S
C2740 C2739 1.403 . S
C2740 C2741 1.404 . S
C2740 C2743 1.539 . S
C2741 C2737 1.408 . S
C2741 C2740 1.404 . S
C2741 H2753 0.930 . S
C2742 C2738 1.505 1_655 S
C2742 H2754 0.965 . S
C2742 H2755 0.928 1_655 S
C2742 H2756 1.006 . S
C2743 C2740 1.539 . S
C2743 H2757 0.958 . S
C2743 H2758 0.961 . S
C2743 H2759 0.960 . S
H2744 C2728 0.931 . S
H2745 C2733 0.929 . S
H2746 C2734 0.960 . S
H2747 C2734 0.962 . S
H2748 C2734 0.960 . S
H2749 C2735 0.961 . S
H2750 C2735 0.961 . S
H2751 C2735 0.961 . S
H2752 C2736 0.931 . S
H2753 C2741 0.930 . S
H2754 C2742 0.965 . S
H2755 C2742 0.928 1_455 S
H2756 C2742 1.006 . S
H2757 C2743 0.958 . S
H2758 C2743 0.961 . S
H2759 C2743 0.960 . S
C2760 C2761 1.391 . S
C2760 C2762 1.394 . S
C2760 H2776 0.931 . S
C2761 C2760 1.391 . S
C2761 C2765 1.376 . S
C2762 C2760 1.394 . S
C2762 C2763 1.369 . S
C2762 C2766 1.531 . S
C2763 C2762 1.369 . S
C2763 C2764 1.410 . S
C2763 C2771 1.503 . S
C2764 C2763 1.410 . S
C2764 C2765 1.392 . S
C2764 C2767 1.511 1_655 S
C2765 C2761 1.376 . S
C2765 C2764 1.392 . S
C2765 H2777 0.929 . S
C2766 C2762 1.531 . S
C2766 H2778 0.960 . S
C2766 H2779 0.962 . S
C2766 H2780 0.960 . S
C2767 C2764 1.511 1_455 S
C2767 H2781 0.961 . S
C2767 H2782 0.957 . S
C2767 H2783 0.961 . S
C2768 C2769 1.370 . S
C2768 C2770 1.363 . S
C2768 H2784 0.931 . S
C2769 C2768 1.370 . S
C2769 C2773 1.408 . S
C2770 C2768 1.363 . S
C2770 C2771 1.370 . S
C2770 C2774 1.524 . S
C2771 C2763 1.503 . S
C2771 C2770 1.370 . S
C2771 C2772 1.403 . S
C2772 C2771 1.403 . S
C2772 C2773 1.404 . S
C2772 C2775 1.539 . S
C2773 C2769 1.408 . S
C2773 C2772 1.404 . S
C2773 H2785 0.930 . S
C2774 C2770 1.524 . S
C2774 H2786 0.956 . S
C2774 H2787 0.961 . S
C2774 H2788 0.961 . S
C2775 C2772 1.539 . S
C2775 H2789 0.958 . S
C2775 H2790 0.961 1_655 S
C2775 H2791 0.960 . S
H2776 C2760 0.931 . S
H2777 C2765 0.929 . S
H2778 C2766 0.960 . S
H2779 C2766 0.962 . S
H2780 C2766 0.960 . S
H2781 C2767 0.961 . S
H2782 C2767 0.957 . S
H2783 C2767 0.961 . S
H2784 C2768 0.931 . S
H2785 C2773 0.930 . S
H2786 C2774 0.956 . S
H2787 C2774 0.961 . S
H2788 C2774 0.961 . S
H2789 C2775 0.958 . S
H2790 C2775 0.961 1_455 S
H2791 C2775 0.960 . S
C2792 C2793 1.391 . S
C2792 C2794 1.394 . S
C2792 H2808 0.931 . S
C2793 C2792 1.391 . S
C2793 C2797 1.376 . S
C2794 C2792 1.394 . S
C2794 C2795 1.369 . S
C2794 C2798 1.531 . S
C2795 C2794 1.369 . S
C2795 C2796 1.410 . S
C2795 C2803 1.503 . S
C2796 C2795 1.410 . S
C2796 C2797 1.392 . S
C2796 C2799 1.511 . S
C2797 C2793 1.376 . S
C2797 C2796 1.392 . S
C2797 H2809 0.929 . S
C2798 C2794 1.531 . S
C2798 H2810 0.960 . S
C2798 H2811 0.930 1_565 S
C2798 H2812 0.960 . S
C2799 C2796 1.511 . S
C2799 H2813 0.961 . S
C2799 H2814 0.961 . S
C2799 H2815 0.961 . S
C2800 C2801 1.370 . S
C2800 C2802 1.363 . S
C2800 H2816 0.931 . S
C2801 C2800 1.370 . S
C2801 C2805 1.408 . S
C2802 C2800 1.363 . S
C2802 C2803 1.370 . S
C2802 C2806 1.524 . S
C2803 C2795 1.503 . S
C2803 C2802 1.370 . S
C2803 C2804 1.403 . S
C2804 C2803 1.403 . S
C2804 C2805 1.404 . S
C2804 C2807 1.539 . S
C2805 C2801 1.408 . S
C2805 C2804 1.404 . S
C2805 H2817 0.930 . S
C2806 C2802 1.524 . S
C2806 H2818 0.956 1_565 S
C2806 H2819 0.961 . S
C2806 H2820 0.961 1_565 S
C2807 C2804 1.539 . S
C2807 H2821 0.958 . S
C2807 H2822 0.961 . S
C2807 H2823 0.960 . S
H2808 C2792 0.931 . S
H2809 C2797 0.929 . S
H2810 C2798 0.960 . S
H2811 C2798 0.930 1_545 S
H2812 C2798 0.960 . S
H2813 C2799 0.961 . S
H2814 C2799 0.961 . S
H2815 C2799 0.961 . S
H2816 C2800 0.931 . S
H2817 C2805 0.930 . S
H2818 C2806 0.956 1_545 S
H2819 C2806 0.961 . S
H2820 C2806 0.961 1_545 S
H2821 C2807 0.958 . S
H2822 C2807 0.961 . S
H2823 C2807 0.960 . S
C2824 C2825 1.391 . S
C2824 C2826 1.394 . S
C2824 H2840 0.931 . S
C2825 C2824 1.391 . S
C2825 C2829 1.376 . S
C2826 C2824 1.394 . S
C2826 C2827 1.369 . S
C2826 C2830 1.531 . S
C2827 C2826 1.369 . S
C2827 C2828 1.410 . S
C2827 C2835 1.503 . S
C2828 C2827 1.410 . S
C2828 C2829 1.392 . S
C2828 C2831 1.511 . S
C2829 C2825 1.376 . S
C2829 C2828 1.392 . S
C2829 H2841 0.929 . S
C2830 C2826 1.531 . S
C2830 H2842 0.960 . S
C2830 H2843 0.962 . S
C2830 H2844 0.960 . S
C2831 C2828 1.511 . S
C2831 H2845 0.961 . S
C2831 H2846 0.961 . S
C2831 H2847 0.961 . S
C2832 C2833 1.370 . S
C2832 C2834 1.363 . S
C2832 H2848 0.931 . S
C2833 C2832 1.370 . S
C2833 C2837 1.408 . S
C2834 C2832 1.363 . S
C2834 C2835 1.370 . S
C2834 C2838 1.524 . S
C2835 C2827 1.503 . S
C2835 C2834 1.370 . S
C2835 C2836 1.403 . S
C2836 C2835 1.403 . S
C2836 C2837 1.404 . S
C2836 C2839 1.539 . S
C2837 C2833 1.408 . S
C2837 C2836 1.404 . S
C2837 H2849 0.930 . S
C2838 C2834 1.524 . S
C2838 H2850 0.956 . S
C2838 H2851 0.961 . S
C2838 H2852 0.961 . S
C2839 C2836 1.539 . S
C2839 H2853 0.958 . S
C2839 H2854 0.961 . S
C2839 H2855 0.960 . S
H2840 C2824 0.931 . S
H2841 C2829 0.929 . S
H2842 C2830 0.960 . S
H2843 C2830 0.962 . S
H2844 C2830 0.960 . S
H2845 C2831 0.961 . S
H2846 C2831 0.961 . S
H2847 C2831 0.961 . S
H2848 C2832 0.931 . S
H2849 C2837 0.930 . S
H2850 C2838 0.956 . S
H2851 C2838 0.961 . S
H2852 C2838 0.961 . S
H2853 C2839 0.958 . S
H2854 C2839 0.961 . S
H2855 C2839 0.960 . S
C2856 C2857 1.391 . S
C2856 C2858 1.394 . S
C2856 H2872 0.931 . S
C2857 C2856 1.391 . S
C2857 C2861 1.376 . S
C2858 C2856 1.394 . S
C2858 C2859 1.369 . S
C2858 C2862 1.531 . S
C2859 C2858 1.369 . S
C2859 C2860 1.410 . S
C2859 C2867 1.503 . S
C2860 C2859 1.410 . S
C2860 C2861 1.392 . S
C2860 C2863 1.511 . S
C2861 C2857 1.376 . S
C2861 C2860 1.392 . S
C2861 H2873 0.929 . S
C2862 C2858 1.531 . S
C2862 H2874 0.960 . S
C2862 H2875 0.962 . S
C2862 H2876 0.960 . S
C2863 C2860 1.511 . S
C2863 H2877 0.961 . S
C2863 H2878 0.961 . S
C2863 H2879 0.961 . S
C2864 C2865 1.370 . S
C2864 C2866 1.363 . S
C2864 H2880 0.931 . S
C2865 C2864 1.370 . S
C2865 C2869 1.408 . S
C2866 C2864 1.363 . S
C2866 C2867 1.370 . S
C2866 C2870 1.524 . S
C2867 C2859 1.503 . S
C2867 C2866 1.370 . S
C2867 C2868 1.403 . S
C2868 C2867 1.403 . S
C2868 C2869 1.404 . S
C2868 C2871 1.539 1_455 S
C2869 C2865 1.408 . S
C2869 C2868 1.404 . S
C2869 H2881 0.930 1_455 S
C2870 C2866 1.524 . S
C2870 H2882 0.956 . S
C2870 H2883 0.961 . S
C2870 H2884 0.961 . S
C2871 C2868 1.539 1_655 S
C2871 H2885 0.958 . S
C2871 H2886 0.961 . S
C2871 H2887 0.960 . S
H2872 C2856 0.931 . S
H2873 C2861 0.929 . S
H2874 C2862 0.960 . S
H2875 C2862 0.962 . S
H2876 C2862 0.960 . S
H2877 C2863 0.961 . S
H2878 C2863 0.961 . S
H2879 C2863 0.961 . S
H2880 C2864 0.931 . S
H2881 C2869 0.930 1_655 S
H2882 C2870 0.956 . S
H2883 C2870 0.961 . S
H2884 C2870 0.961 . S
H2885 C2871 0.958 . S
H2886 C2871 0.961 . S
H2887 C2871 0.960 . S
C2888 C2889 1.391 . S
C2888 C2890 1.394 . S
C2888 H2904 0.931 . S
C2889 C2888 1.391 . S
C2889 C2893 1.376 . S
C2890 C2888 1.394 . S
C2890 C2891 1.369 . S
C2890 C2894 1.531 . S
C2891 C2890 1.369 . S
C2891 C2892 1.410 . S
C2891 C2899 1.503 . S
C2892 C2891 1.410 . S
C2892 C2893 1.392 . S
C2892 C2895 1.520 . S
C2893 C2889 1.376 . S
C2893 C2892 1.392 . S
C2893 H2905 0.929 . S
C2894 C2890 1.531 . S
C2894 H2906 0.960 . S
C2894 H2907 0.962 . S
C2894 H2908 0.960 . S
C2895 C2892 1.520 . S
C2895 H2909 0.950 1_545 S
C2895 H2910 0.984 . S
C2895 H2911 0.941 1_545 S
C2896 C2897 1.370 . S
C2896 C2898 1.363 . S
C2896 H2912 0.931 . S
C2897 C2896 1.370 . S
C2897 C2901 1.408 . S
C2898 C2896 1.363 . S
C2898 C2899 1.370 . S
C2898 C2902 1.524 . S
C2899 C2891 1.503 . S
C2899 C2898 1.370 . S
C2899 C2900 1.403 . S
C2900 C2899 1.403 . S
C2900 C2901 1.404 . S
C2900 C2903 1.539 1_545 S
C2901 C2897 1.408 . S
C2901 C2900 1.404 . S
C2901 H2913 0.930 . S
C2902 C2898 1.524 . S
C2902 H2914 0.956 . S
C2902 H2915 0.961 . S
C2902 H2916 0.961 . S
C2903 C2900 1.539 1_565 S
C2903 H2917 0.958 1_565 S
C2903 H2918 0.961 . S
C2903 H2919 0.960 . S
H2904 C2888 0.931 . S
H2905 C2893 0.929 . S
H2906 C2894 0.960 . S
H2907 C2894 0.962 . S
H2908 C2894 0.960 . S
H2909 C2895 0.950 1_565 S
H2910 C2895 0.984 . S
H2911 C2895 0.941 1_565 S
H2912 C2896 0.931 . S
H2913 C2901 0.930 . S
H2914 C2902 0.956 . S
H2915 C2902 0.961 . S
H2916 C2902 0.961 . S
H2917 C2903 0.958 1_545 S
H2918 C2903 0.961 . S
H2919 C2903 0.960 . S
C2920 C2921 1.391 . S
C2920 C2922 1.394 . S
C2920 H2936 0.931 . S
C2921 C2920 1.391 . S
C2921 C2925 1.376 . S
C2922 C2920 1.394 . S
C2922 C2923 1.369 . S
C2922 C2926 1.531 . S
C2923 C2922 1.369 . S
C2923 C2924 1.410 . S
C2923 C2931 1.503 . S
C2924 C2923 1.410 . S
C2924 C2925 1.392 . S
C2924 C2927 1.511 . S
C2925 C2921 1.376 . S
C2925 C2924 1.392 . S
C2925 H2937 0.929 . S
C2926 C2922 1.531 . S
C2926 H2938 0.960 . S
C2926 H2939 0.962 . S
C2926 H2940 0.960 . S
C2927 C2924 1.511 . S
C2927 H2941 0.961 . S
C2927 H2942 0.961 . S
C2927 H2943 0.961 . S
C2928 C2929 1.370 . S
C2928 C2930 1.363 . S
C2928 H2944 0.931 . S
C2929 C2928 1.370 . S
C2929 C2933 1.408 . S
C2930 C2928 1.363 . S
C2930 C2931 1.370 . S
C2930 C2934 1.524 . S
C2931 C2923 1.503 . S
C2931 C2930 1.370 . S
C2931 C2932 1.403 . S
C2932 C2931 1.403 . S
C2932 C2933 1.404 . S
C2932 C2935 1.539 . S
C2933 C2929 1.408 . S
C2933 C2932 1.404 . S
C2933 H2945 0.930 . S
C2934 C2930 1.524 . S
C2934 H2946 0.956 . S
C2934 H2947 0.961 . S
C2934 H2948 0.961 . S
C2935 C2932 1.539 . S
C2935 H2949 0.958 . S
C2935 H2950 0.961 . S
C2935 H2951 0.960 . S
H2936 C2920 0.931 . S
H2937 C2925 0.929 . S
H2938 C2926 0.960 . S
H2939 C2926 0.962 . S
H2940 C2926 0.960 . S
H2941 C2927 0.961 . S
H2942 C2927 0.961 . S
H2943 C2927 0.961 . S
H2944 C2928 0.931 . S
H2945 C2933 0.930 . S
H2946 C2934 0.956 . S
H2947 C2934 0.961 . S
H2948 C2934 0.961 . S
H2949 C2935 0.958 . S
H2950 C2935 0.961 . S
H2951 C2935 0.960 . S
C1417 C937 1.277 . S
C1425 C52 1.289 . S
C1449 C111 1.279 . S
C1457 C996 1.289 . S
C1481 C170 1.283 . S
C1489 C1055 1.290 . S
C1513 C229 1.293 . S
C1521 C760 1.294 . S
C1545 C819 1.278 . S
C1553 C288 1.289 . S
C1577 C347 1.305 . S
C1585 C878 1.300 . S
C1609 C1291 1.279 . S
C1617 C406 1.289 . S
C1641 C465 1.304 . S
C1649 C1350 1.300 . S
C1673 C524 1.291 . S
C1681 C1409 1.296 . S
C1705 C1114 1.289 . S
C1713 C583 1.293 . S
C1737 C642 1.308 . S
C1745 C1173 1.302 . S
C1769 C1232 1.307 . S
C1777 C701 1.302 . S
C1801 C3 1.721 . S
C1809 C1360 1.732 . S
C1833 C1065 1.748 . S
C1841 C62 1.744 . S
C1865 C121 1.749 . S
C1873 C1124 1.744 . S
C1897 C1183 1.744 . S
C1905 C180 1.741 . S
C1929 C239 1.728 . S
C1937 C1242 1.736 . S
C1961 C1301 1.718 . S
C1969 C298 1.732 . S
C1993 C357 1.744 . S
C2001 C770 1.743 . S
C2025 C829 1.745 . S
C2033 C416 1.742 . S
C2057 C888 1.717 . S
C2065 C475 1.731 . S
C2089 C947 1.749 . S
C2097 C534 1.744 . S
C2121 C593 1.735 . S
C2129 C1006 1.739 . S
C2153 C652 1.746 . S
C2161 C711 1.743 . S
C2185 C418 1.364 . S
C2193 C5 1.365 . S
C2217 C477 1.378 . S
C2225 C64 1.365 . S
C2249 C536 1.358 . S
C2257 C123 1.367 . S
C2281 C595 1.394 . S
C2289 C182 1.375 . S
C2313 C241 1.382 . S
C2321 C654 1.383 . S
C2345 C300 1.367 . S
C2353 C359 1.384 . S
C2377 C713 1.368 . S
C2385 C1126 1.366 . S
C2409 C772 1.392 . S
C2417 C1185 1.375 . S
C2441 C1244 1.349 . S
C2449 C831 1.374 . S
C2473 C1303 1.392 . S
C2481 C890 1.368 . S
C2505 C1362 1.351 . S
C2513 C949 1.382 . S
C2537 C1067 1.348 . S
C2545 C1008 1.379 . S
C2569 C33 1.823 . S
C2577 C1154 1.831 . S
C2601 C1213 1.829 . S
C2609 C92 1.833 . S
C2633 C151 1.833 . S
C2641 C1272 1.835 . S
C2665 C1331 1.827 . S
C2673 C210 1.833 . S
C2697 C269 1.826 . S
C2705 C1390 1.831 . S
C2729 C1095 1.824 . S
C2737 C328 1.830 . S
C2761 C387 1.833 . S
C2769 C1036 1.835 . S
C2793 C741 1.824 . S
C2801 C446 1.831 . S
C2825 C505 1.822 . S
C2833 C800 1.830 . S
C2857 C564 1.833 . S
C2865 C859 1.834 . S
C2889 C623 1.834 . S
C2897 C918 1.835 . S
C2921 C682 1.833 . S
C2929 C977 1.835 . S
