# Generated by pormake.
# Topology snz, (6)-cn, num edge types: 1
# Building blocks:
#     Node 0, Type 0, BuildingBlock: HISSIN_clean_sbu_0, # of connection points: 6
#     Node 1, Type 0, BuildingBlock: HISSIN_clean_sbu_0, # of connection points: 6
#     Node 2, Type 0, BuildingBlock: HISSIN_clean_sbu_0, # of connection points: 6
#     Node 3, Type 0, BuildingBlock: HISSIN_clean_sbu_0, # of connection points: 6
#     Node 4, Type 0, BuildingBlock: HISSIN_clean_sbu_0, # of connection points: 6
#     Node 5, Type 0, BuildingBlock: HISSIN_clean_sbu_0, # of connection points: 6
#     Node 6, Type 0, BuildingBlock: HISSIN_clean_sbu_0, # of connection points: 6
#     Node 7, Type 0, BuildingBlock: HISSIN_clean_sbu_0, # of connection points: 6
#     Node 8, Type 0, BuildingBlock: HISSIN_clean_sbu_0, # of connection points: 6
#     Edge 9, Type (0, 0), BuildingBlock: ZUJKAS_clean_linker_0, # of connection points: 2
#     Edge 10, Type (0, 0), BuildingBlock: ZUJKAS_clean_linker_0, # of connection points: 2
#     Edge 11, Type (0, 0), BuildingBlock: ZUJKAS_clean_linker_0, # of connection points: 2
#     Edge 12, Type (0, 0), BuildingBlock: ZUJKAS_clean_linker_0, # of connection points: 2
#     Edge 13, Type (0, 0), BuildingBlock: ZUJKAS_clean_linker_0, # of connection points: 2
#     Edge 14, Type (0, 0), BuildingBlock: ZUJKAS_clean_linker_0, # of connection points: 2
#     Edge 15, Type (0, 0), BuildingBlock: ZUJKAS_clean_linker_0, # of connection points: 2
#     Edge 16, Type (0, 0), BuildingBlock: ZUJKAS_clean_linker_0, # of connection points: 2
#     Edge 17, Type (0, 0), BuildingBlock: ZUJKAS_clean_linker_0, # of connection points: 2
#     Edge 18, Type (0, 0), BuildingBlock: ZUJKAS_clean_linker_0, # of connection points: 2
#     Edge 19, Type (0, 0), BuildingBlock: ZUJKAS_clean_linker_0, # of connection points: 2
#     Edge 20, Type (0, 0), BuildingBlock: ZUJKAS_clean_linker_0, # of connection points: 2
#     Edge 21, Type (0, 0), BuildingBlock: ZUJKAS_clean_linker_0, # of connection points: 2
#     Edge 22, Type (0, 0), BuildingBlock: ZUJKAS_clean_linker_0, # of connection points: 2
#     Edge 23, Type (0, 0), BuildingBlock: ZUJKAS_clean_linker_0, # of connection points: 2
#     Edge 24, Type (0, 0), BuildingBlock: ZUJKAS_clean_linker_0, # of connection points: 2
#     Edge 25, Type (0, 0), BuildingBlock: ZUJKAS_clean_linker_0, # of connection points: 2
#     Edge 26, Type (0, 0), BuildingBlock: ZUJKAS_clean_linker_0, # of connection points: 2
#     Edge 27, Type (0, 0), BuildingBlock: ZUJKAS_clean_linker_0, # of connection points: 2
#     Edge 28, Type (0, 0), BuildingBlock: ZUJKAS_clean_linker_0, # of connection points: 2
#     Edge 29, Type (0, 0), BuildingBlock: ZUJKAS_clean_linker_0, # of connection points: 2
#     Edge 30, Type (0, 0), BuildingBlock: ZUJKAS_clean_linker_0, # of connection points: 2
#     Edge 31, Type (0, 0), BuildingBlock: ZUJKAS_clean_linker_0, # of connection points: 2
#     Edge 32, Type (0, 0), BuildingBlock: ZUJKAS_clean_linker_0, # of connection points: 2
#     Edge 33, Type (0, 0), BuildingBlock: ZUJKAS_clean_linker_0, # of connection points: 2
#     Edge 34, Type (0, 0), BuildingBlock: ZUJKAS_clean_linker_0, # of connection points: 2
#     Edge 35, Type (0, 0), BuildingBlock: ZUJKAS_clean_linker_0, # of connection points: 2
# Relax obj value: 0.289
# Max RMSD: 0.218
# Mean RMSD: 0.142
data_MOF--net-snz--node1-HISSIN_clean_sbu_0--edge1-ZUJKAS_clean_linker_0
_symmetry_space_group_name_H-M    P1
_symmetry_Int_Tables_number       1
_symmetry_cell_setting            triclinic
loop_
_symmetry_equiv_pos_as_xyz
'x, y, z'
_cell_length_a     83.900811
_cell_length_b     69.800415
_cell_length_c     20.639245
_cell_angle_alpha  95.987629
_cell_angle_beta   96.110448
_cell_angle_gamma 120.64761
loop_
_atom_site_label
_atom_site_type_symbol
_atom_site_fract_x
_atom_site_fract_y
_atom_site_fract_z
_atom_type_partial_charge
Eu0 Eu 0.10747 0.50468 0.20472 0.0
Eu1 Eu 0.0701 0.51015 0.18888 0.0
C2 C 0.08728 0.50449 0.33392 0.0
C3 C 0.14206 0.48486 0.2546 0.0
C4 C 0.15902 0.49542 0.30078 0.0
C5 C 0.1378 0.44817 0.26661 0.0
C6 C 0.16535 0.48258 0.32945 0.0
C7 C 0.13144 0.46105 0.2381 0.0
C8 C 0.15494 0.45874 0.31243 0.0
C9 C 0.13626 0.49907 0.2227 0.0
O10 O 0.09447 0.54566 0.19352 0.0
O11 O 0.11974 0.5427 0.23198 0.0
C12 C 0.1124 0.55499 0.2191 0.0
O13 O 0.10502 0.51159 0.09835 0.0
O14 O 0.05526 0.52558 0.22833 0.0
O15 O 0.04244 0.50119 0.13657 0.0
O16 O 0.07605 0.50837 0.08286 0.0
C17 C 0.09075 0.51024 0.05911 0.0
O18 O 0.08257 0.46927 0.16284 0.0
O19 O 0.05729 0.47232 0.18045 0.0
O20 O 0.07737 0.5114 0.30071 0.0
O21 O 0.12294 0.48937 0.17022 0.0
O22 O 0.13474 0.51376 0.26167 0.0
O23 O 0.09736 0.49804 0.30372 0.0
C24 C 0.03446 0.52929 0.15147 0.0
C25 C 0.04374 0.5437 0.10779 0.0
C26 C 1.01203 0.54158 0.14683 0.0
C27 C 0.03714 0.55696 0.08363 0.0
C28 C 0.0186 0.52836 0.17072 0.0
C29 C 0.02121 0.55612 0.10305 0.0
C30 C 0.0411 0.51534 0.17868 0.0
C31 C 0.06441 0.4601 0.16198 0.0
H32 H 0.16751 0.51373 0.31443 0.0
H33 H 0.12946 0.42992 0.2515 0.0
H34 H 0.17841 0.49141 0.3653 0.0
H35 H 0.11831 0.45234 0.20257 0.0
H36 H 0.05609 0.54475 0.09265 0.0
H37 H 0.99956 0.54017 0.16204 0.0
H38 H 0.04466 0.56809 1.0505 0.0
H39 H 1.01124 0.51733 0.20438 0.0
Eu40 Eu 0.61373 0.52105 1.042 0.0
Eu41 Eu 0.57339 0.51921 1.02825 0.0
C42 C 0.59409 0.52258 0.89718 0.0
C43 C 0.66465 0.53604 1.03034 0.0
C44 C 0.66633 0.54326 0.96898 0.0
C45 C 0.69855 0.55181 1.05316 0.0
C46 C 0.68398 0.55448 0.94965 0.0
C47 C 0.68094 0.54058 0.07231 0.0
C48 C 0.70035 0.55875 0.99127 0.0
C49 C 0.64614 0.52321 1.051 0.0
O50 O 0.56609 0.48394 1.03902 0.0
O51 O 0.59079 0.48404 1.00186 0.0
C52 C 0.57348 0.47298 1.01343 0.0
O53 O 0.6051 0.51425 0.14388 0.0
O54 O 0.54363 0.50197 0.98246 0.0
O55 O 0.55585 0.53214 0.05759 0.0
O56 O 0.58229 0.52331 0.14015 0.0
C57 C 0.59378 0.51863 0.17387 0.0
O58 O 0.62224 0.55783 0.06894 0.0
O59 O 0.5947 0.5564 1.0329 0.0
O60 O 0.57837 0.51655 0.92046 0.0
O61 O 0.64234 0.53411 0.09571 0.0
O62 O 0.63147 0.5096 1.00476 0.0
O63 O 0.60979 0.52827 0.93754 0.0
C64 C 0.52437 0.50348 0.05591 0.0
C65 C 0.52376 0.48846 0.09727 0.0
C66 C 0.49466 0.49717 0.08201 0.0
C67 C 0.50867 0.47782 0.13065 0.0
C68 C 0.50973 0.50774 1.0485 0.0
C69 C 0.49393 0.48208 0.12361 0.0
C70 C 0.54035 0.51503 1.02139 0.0
C71 C 0.61291 0.56796 0.05708 0.0
H72 H 0.65399 0.54 0.93563 0.0
H73 H 0.7108 0.55513 0.08719 0.0
H74 H 0.68471 0.55935 0.90143 0.0
H75 H 0.68002 0.53527 0.11997 0.0
H76 H 0.53502 0.48507 0.10402 0.0
H77 H 0.48347 0.50065 0.07476 0.0
H78 H 0.50871 0.46654 0.16287 0.0
H79 H 0.50996 0.51929 1.01682 0.0
Eu80 Eu 0.5665 0.04737 0.89471 0.0
Eu81 Eu 0.6101 0.09312 0.92624 0.0
C82 C 0.58701 0.07274 1.05041 0.0
C83 C 0.51742 0.99968 0.91141 0.0
C84 C 0.52215 1.00129 0.97996 0.0
C85 C 0.4842 0.97774 0.91824 0.0
C86 C 0.50795 0.99121 1.01745 0.0
C87 C 0.49838 0.98767 0.88086 0.0
C88 C 0.48879 0.97959 0.98712 0.0
C89 C 0.53193 0.01201 0.87196 0.0
O90 O 0.61227 0.06199 0.90571 0.0
O91 O 0.58555 0.03643 0.93885 0.0
C92 C 0.6026 0.04322 0.92855 0.0
O93 O 0.57504 0.05057 0.7917 0.0
O94 O 0.63818 0.11088 0.98933 0.0
O95 O 0.63397 0.12316 0.90156 0.0
O96 O 0.60191 0.08619 0.81307 0.0
C97 C 0.58839 0.06811 0.77054 0.0
O98 O 0.56243 0.07664 0.89359 0.0
O99 O 0.59189 0.10908 0.92785 0.0
O100 O 0.60265 0.08712 1.03012 0.0
O101 O 0.53613 0.03259 0.8699 0.0
O102 O 0.54691 0.01059 0.87924 0.0
O103 O 0.57153 0.05766 1.00735 0.0
C104 C 0.66432 0.12784 0.93415 0.0
C105 C 0.66527 0.11778 0.8731 0.0
C106 C 0.69813 0.14377 0.96937 0.0
C107 C 0.68251 0.1208 0.86028 0.0
C108 C 0.68095 0.14082 0.98199 0.0
C109 C 0.69925 0.13382 0.9083 0.0
C110 C 0.64629 0.1249 0.94975 0.0
C111 C 0.57331 0.09877 0.91001 0.0
H112 H 0.53678 0.01075 1.00467 0.0
H113 H 0.46962 0.96867 0.89318 0.0
H114 H 0.51196 0.99313 0.07045 0.0
H115 H 0.49444 0.98637 0.82813 0.0
H116 H 0.65268 0.1075 0.83534 0.0
H117 H 0.71062 0.15417 1.00741 0.0
H118 H 0.68262 0.11259 0.81298 0.0
H119 H 0.68068 0.14878 1.02948 0.0
Eu120 Eu 0.76024 0.85823 0.29016 0.0
Eu121 Eu 0.72285 0.86383 0.27283 0.0
C122 C 0.73962 0.85841 0.41936 0.0
C123 C 0.79613 0.8397 0.33232 0.0
C124 C 0.79149 0.83235 0.39221 0.0
C125 C 0.8155 0.8231 0.33001 0.0
C126 C 0.79898 0.8206 0.42109 0.0
C127 C 0.80805 0.83483 0.30136 0.0
C128 C 0.81122 0.81598 0.39059 0.0
C129 C 0.7891 0.8528 0.30147 0.0
O130 O 0.74767 0.89974 0.30797 0.0
O131 O 0.77333 0.89615 0.30235 0.0
C132 C 0.76597 0.90862 0.31398 0.0
O133 O 0.75361 0.85773 0.17844 0.0
O134 O 0.70712 0.87858 0.30848 0.0
O135 O 0.6958 0.85518 0.21511 0.0
O136 O 0.73261 0.86965 0.17314 0.0
C137 C 0.74328 0.86392 0.14421 0.0
O138 O 0.7357 0.82284 0.28572 0.0
O139 O 0.71058 0.82581 0.24531 0.0
O140 O 0.72566 0.85773 0.38015 0.0
O141 O 0.77454 0.84161 0.25331 0.0
O142 O 0.78826 0.86804 0.34067 0.0
O143 O 0.75409 0.85957 0.39573 0.0
C144 C 0.68862 0.8841 0.22513 0.0
C145 C 0.70132 0.90755 0.23159 0.0
C146 C 0.66441 0.88806 0.16291 0.0
C147 C 0.69554 0.92115 0.20446 0.0
C148 C 0.67018 0.87452 0.19018 0.0
C149 C 0.67694 0.91163 0.17009 0.0
C150 C 0.69403 0.86936 0.25536 0.0
C151 C 0.71785 0.81351 0.25906 0.0
H152 H 0.78226 0.83588 0.41692 0.0
H153 H 0.82455 0.81949 0.30435 0.0
H154 H 0.79547 0.81554 0.46795 0.0
H155 H 0.81172 0.84024 0.25494 0.0
H156 H 0.71567 0.91541 0.25817 0.0
H157 H 0.65011 0.87996 0.13578 0.0
H158 H 0.70557 0.93921 0.21166 0.0
H159 H 0.66015 0.85648 0.18422 0.0
Eu160 Eu 0.25706 0.84879 0.44805 0.0
Eu161 Eu 0.21687 0.84775 0.433 0.0
C162 C 0.237 0.85003 0.30195 0.0
C163 C 0.30556 0.86219 0.41921 0.0
C164 C 0.30299 0.86622 0.35481 0.0
C165 C 0.33898 0.87872 0.41788 0.0
C166 C 0.31825 0.87622 0.32194 0.0
C167 C 0.32367 0.86859 0.45055 0.0
C168 C 0.33649 0.8826 0.35295 0.0
C169 C 0.28953 0.8515 0.45417 0.0
O170 O 0.20824 0.81097 0.40497 0.0
O171 O 0.23529 0.81189 0.44493 0.0
C172 C 0.21723 0.80057 0.41877 0.0
O173 O 0.25208 0.85115 0.55558 0.0
O174 O 0.18839 0.83479 0.37817 0.0
O175 O 0.19874 0.85853 0.47057 0.0
O176 O 0.22116 0.84165 0.53896 0.0
C177 C 0.23657 0.84625 0.57897 0.0
O178 O 0.26571 0.88494 0.44424 0.0
O179 O 0.23955 0.88525 0.46567 0.0
O180 O 0.22548 0.85418 0.33123 0.0
O181 O 0.2869 0.86523 0.49288 0.0
O182 O 0.27372 0.8346 0.41892 0.0
O183 O 0.24855 0.84552 0.33616 0.0
C184 C 0.16564 0.83154 0.44311 0.0
C185 C 0.164 0.82508 0.50552 0.0
C186 C 0.13147 0.81349 0.4169 0.0
C187 C 0.14625 0.81314 0.52367 0.0
C188 C 0.14921 0.82549 0.39895 0.0
C189 C 0.12973 0.80728 0.47972 0.0
C190 C 0.18424 0.84506 0.42354 0.0
C191 C 0.25754 0.89599 0.46128 0.0
H192 H 0.28914 0.86153 0.32976 0.0
H193 H 0.35281 0.88373 0.4439 0.0
H194 H 0.31567 0.87862 0.27178 0.0
H195 H 0.32598 0.8658 0.50044 0.0
H196 H 0.17643 0.82938 0.54047 0.0
H197 H 0.11915 0.80954 0.38202 0.0
H198 H 0.14546 0.8084 0.57208 0.0
H199 H 0.15011 0.83032 0.35063 0.0
Eu200 Eu 0.21817 0.27268 0.54835 0.0
Eu201 Eu 0.26135 0.3182 0.57726 0.0
C202 C 0.23995 0.29839 0.70212 0.0
C203 C 0.16477 0.23636 0.54766 0.0
C204 C 0.16268 0.25506 0.56115 0.0
C205 C 0.13222 0.21169 0.56146 0.0
C206 C 0.1455 0.25208 0.57431 0.0
C207 C 0.14937 0.21469 0.54815 0.0
C208 C 0.12993 0.23031 0.57465 0.0
C209 C 0.18271 0.2391 0.53213 0.0
O210 O 0.26449 0.28887 0.54205 0.0
O211 O 0.23817 0.2597 0.56898 0.0
C212 C 0.25552 0.26861 0.55715 0.0
O213 O 0.22645 0.27474 0.44445 0.0
O214 O 0.29146 0.33466 0.61746 0.0
O215 O 0.28104 0.35337 0.57025 0.0
O216 O 0.25235 0.31114 0.46432 0.0
C217 C 0.23927 0.29256 0.42234 0.0
O218 O 0.21436 0.3018 0.53375 0.0
O219 O 0.24284 0.33268 0.58698 0.0
O220 O 0.2561 0.30939 0.6808 0.0
O221 O 0.18993 0.25117 0.48729 0.0
O222 O 0.19572 0.24354 0.58203 0.0
O223 O 0.22382 0.28714 0.65922 0.0
C224 C 0.31148 0.36195 0.55818 0.0
C225 C 0.31001 0.34945 0.49755 0.0
C226 C 0.34244 0.39215 0.54636 0.0
C227 C 0.32468 0.35828 0.46149 0.0
C228 C 0.3278 0.38328 0.58237 0.0
C229 C 0.34106 0.37983 0.48526 0.0
C230 C 0.29591 0.35331 0.59557 0.0
C231 C 0.2253 0.32363 0.55699 0.0
H232 H 0.17435 0.272 0.56144 0.0
H233 H 0.12062 0.19464 0.56022 0.0
H234 H 0.14452 0.26692 0.58502 0.0
H235 H 0.15055 0.19997 0.53773 0.0
H236 H 0.29743 0.33299 0.47783 0.0
H237 H 0.35493 0.40862 0.56666 0.0
H238 H 0.32303 0.34844 0.41436 0.0
H239 H 0.32919 0.39318 0.62905 0.0
Eu240 Eu 0.41968 0.18617 0.66547 0.0
Eu241 Eu 0.40983 0.18173 0.80992 0.0
C242 C 0.38752 0.1386 0.69254 0.0
C243 C 0.4061 0.16354 0.49002 0.0
C244 C 0.38949 0.16388 0.47557 0.0
C245 C 0.38902 0.12422 0.43276 0.0
C246 C 0.37277 0.14448 0.44181 0.0
C247 C 0.4058 0.14369 0.46639 0.0
C248 C 0.37221 0.12424 0.42168 0.0
C249 C 0.42201 0.1814 0.54154 0.0
O250 O 0.43862 0.18555 0.82295 0.0
O251 O 0.43625 0.17225 0.7146 0.0
C252 C 0.44433 0.17718 0.7772 0.0
O253 O 0.44325 0.2201 0.72564 0.0
O254 O 0.39557 0.18744 0.88561 0.0
O255 O 0.4095 0.16896 0.90192 0.0
O256 O 0.42961 0.21969 0.81702 0.0
C257 C 0.44269 0.23053 0.78174 0.0
O258 O 0.40184 0.20188 0.67357 0.0
O259 O 0.38555 0.18146 0.74768 0.0
O260 O 0.3964 0.14563 0.75437 0.0
O261 O 0.41992 0.19736 0.57017 0.0
O262 O 0.42882 0.17381 0.58466 0.0
O263 O 0.39146 0.15331 0.65304 0.0
C264 C 0.37958 0.15463 0.93173 0.0
C265 C 0.37376 0.13215 0.9053 0.0
C266 C 0.35103 0.14061 0.978 0.0
C267 C 0.35706 0.11408 0.917 0.0
C268 C 0.3679 0.15872 0.967 0.0
C269 C 0.3457 0.11815 0.95427 0.0
C270 C 0.39732 0.17377 0.92002 0.0
C271 C 0.38722 0.19424 0.70321 0.0
H272 H 0.3891 0.17878 0.49308 0.0
H273 H 0.38909 0.10894 0.41747 0.0
H274 H 0.36022 0.14531 0.43206 0.0
H275 H 0.41832 0.14283 0.47732 0.0
H276 H 0.38225 0.12845 0.8765 0.0
H277 H 0.34263 0.14413 1.00784 0.0
H278 H 0.35325 0.0969 0.8985 0.0
H279 H 0.37197 0.17591 0.98691 0.0
Eu280 Eu 0.91834 0.17223 0.80508 0.0
Eu281 Eu 0.91175 0.19416 0.68115 0.0
C282 C 0.93807 0.22691 0.82072 0.0
C283 C 0.90892 0.13253 0.92633 0.0
C284 C 0.88949 0.12347 0.90845 0.0
C285 C 0.90279 0.10577 1.00035 0.0
C286 C 0.87679 0.10607 0.93783 0.0
C287 C 0.91549 0.12324 0.97107 0.0
C288 C 0.88335 0.09742 0.98543 0.0
C289 C 0.92231 0.15178 0.89878 0.0
O290 O 0.94222 0.20372 0.68796 0.0
O291 O 0.94058 0.1764 0.74435 0.0
C292 C 0.9494 0.19205 0.70897 0.0
O293 O 0.89405 0.14265 0.73128 0.0
O294 O 0.91375 0.19964 0.57945 0.0
O295 O 0.9001 0.21264 0.63745 0.0
O296 O 0.90064 0.15754 0.63742 0.0
C297 C 0.8918 0.14004 0.66638 0.0
O298 O 0.89372 0.176 0.8233 0.0
O299 O 0.88387 0.17716 0.71701 0.0
O300 O 0.92623 0.22367 0.7675 0.0
O301 O 0.92355 0.14687 0.83759 0.0
O302 O 0.92153 0.17001 0.90981 0.0
O303 O 0.93927 0.21005 0.83879 0.0
C304 C 0.88485 0.19311 0.5277 0.0
C305 C 0.88618 0.19036 0.46074 0.0
C306 C 0.85242 0.16109 0.50103 0.0
C307 C 0.87104 0.17252 0.41475 0.0
C308 C 0.8676 0.17887 0.54701 0.0
C309 C 0.85424 0.15711 0.43493 0.0
C310 C 0.90221 0.20697 0.57807 0.0
C311 C 0.88084 0.17474 0.77764 0.0
H312 H 0.8842 0.13036 0.87333 0.0
H313 H 0.90825 0.0993 1.03633 0.0
H314 H 0.86197 0.1003 0.92589 0.0
H315 H 0.93045 0.12986 0.98457 0.0
H316 H 0.8994 0.20091 0.44492 0.0
H317 H 0.83962 0.14976 0.51801 0.0
H318 H 0.87309 0.16985 0.36446 0.0
H319 H 0.86619 0.18049 0.59846 0.0
Eu320 Eu 0.90706 0.66436 0.68157 0.0
Eu321 Eu 0.92607 0.70633 0.80746 0.0
C322 C 0.89991 0.70569 0.68025 0.0
C323 C 0.90547 0.6252 0.54151 0.0
C324 C 0.92514 0.63659 0.56064 0.0
C325 C 0.90755 0.60824 0.43666 0.0
C326 C 0.93601 0.6344 0.51723 0.0
C327 C 0.89667 0.6105 0.48019 0.0
C328 C 0.92738 0.62084 0.45378 0.0
C329 C 0.89472 0.63106 0.58209 0.0
O330 O 0.89487 0.68745 0.81024 0.0
O331 O 0.88663 0.65278 0.75274 0.0
C332 C 0.88286 0.66548 0.79201 0.0
O333 O 0.92928 0.66171 0.745 0.0
O334 O 0.92878 0.71974 0.91091 0.0
O335 O 0.94709 0.74176 0.85035 0.0
O336 O 0.92832 0.67831 0.84419 0.0
C337 C 0.93285 0.66548 0.81001 0.0
O338 O 0.93359 0.69171 0.6536 0.0
O339 O 0.95004 0.70962 0.75862 0.0
O340 O 0.91501 0.71829 0.72679 0.0
O341 O 0.89653 0.62878 0.64392 0.0
O342 O 0.89623 0.65032 0.57614 0.0
O343 O 0.89267 0.68375 0.66276 0.0
C344 C 0.96074 0.74297 0.95844 0.0
C345 C 0.95928 0.74256 1.02527 0.0
C346 C 0.9882 0.7395 0.97886 0.0
C347 C 0.97146 0.7393 0.06759 0.0
C348 C 0.97584 0.74246 0.93627 0.0
C349 C 0.98552 0.73663 1.04407 0.0
C350 C 0.94442 0.73865 0.91052 0.0
C351 C 0.94963 0.70531 0.69481 0.0
H352 H 0.93218 0.64818 0.60773 0.0
H353 H 0.9005 0.5975 0.38832 0.0
H354 H 0.95122 0.64462 0.53167 0.0
H355 H 0.8815 0.60165 0.4647 0.0
H356 H 0.94768 0.74274 1.04332 0.0
H357 H 0.99911 0.73806 0.95939 0.0
H358 H 0.96868 0.73695 0.11707 0.0
H359 H 0.97734 0.74269 0.88484 0.0
H360 H 0.11562 0.50797 0.98337 0.0
H361 H 0.1151 0.50709 0.86371 0.0
H362 H 0.0655 0.51142 0.84435 0.0
H363 H 0.06596 0.51233 0.96356 0.0
H364 H 0.08905 0.47728 0.75222 0.0
H365 H 0.09729 0.56084 0.74603 0.0
H366 H 0.1013 0.5523 0.82264 0.0
H367 H 0.07767 0.54236 0.78203 0.0
C368 C 0.10464 0.50893 0.95405 0.0
C369 C 0.09092 0.51041 0.9849 0.0
C370 C 0.10431 0.50833 0.8848 0.0
C371 C 0.09044 0.50954 0.84323 0.0
C372 C 0.07671 0.51096 0.874 0.0
H373 H 0.06581 0.51251 0.41425 0.0
H374 H 0.06647 0.51298 0.53356 0.0
C375 C 0.07693 0.51135 0.94302 0.0
C376 C 0.09008 0.50884 0.7683 0.0
H377 H 0.08986 0.53744 0.64195 0.0
C378 C 0.08934 0.49057 0.7285 0.0
C379 C 0.0903 0.52589 0.73533 0.0
C380 C 0.09186 0.54658 0.77362 0.0
C381 C 0.08836 0.48861 0.65844 0.0
C382 C 0.08875 0.50578 0.62538 0.0
C383 C 0.08953 0.52408 0.66541 0.0
C384 C 0.08825 0.50511 0.5502 0.0
C385 C 0.08613 0.46747 0.62046 0.0
C386 C 0.10032 0.5008 0.51692 0.0
C387 C 0.09979 0.50025 0.44769 0.0
C388 C 0.08739 0.50438 0.40826 0.0
C389 C 0.07554 0.50908 0.44166 0.0
C390 C 0.07596 0.50944 0.51083 0.0
H391 H 0.07969 0.4531 0.64742 0.0
H392 H 0.07722 0.46228 0.57058 0.0
H393 H 0.10024 0.47071 0.61448 0.0
H394 H 0.11052 0.49819 0.54463 0.0
H395 H 0.10942 0.49689 0.4252 0.0
H396 H 0.56611 0.51657 0.79617 0.0
H397 H 0.56629 0.51584 0.67684 0.0
H398 H 0.62237 0.52766 0.70803 0.0
H399 H 0.62231 0.52849 0.82703 0.0
H400 H 0.58929 0.54788 0.60423 0.0
H401 H 0.59648 0.47341 0.5562 0.0
H402 H 0.59029 0.48079 0.63197 0.0
H403 H 0.61442 0.49573 0.6209 0.0
C404 C 0.57854 0.51902 0.77799 0.0
C405 C 0.59417 0.52255 0.82286 0.0
C406 C 0.57863 0.51861 0.70898 0.0
C407 C 0.59422 0.5213 0.68136 0.0
C408 C 0.6099 0.52502 0.72624 0.0
H409 H 0.6191 0.51739 0.27072 0.0
H410 H 0.61933 0.51855 0.39034 0.0
C411 C 0.60989 0.52567 0.79524 0.0
C412 C 0.5942 0.5206 0.60661 0.0
H413 H 0.59918 0.49337 0.46797 0.0
C414 C 0.59136 0.53582 0.57466 0.0
C415 C 0.59707 0.50516 0.56635 0.0
C416 C 0.59958 0.48769 0.59523 0.0
C417 C 0.59172 0.53641 0.5059 0.0
C418 C 0.59429 0.52072 0.46517 0.0
C419 C 0.59716 0.5055 0.49735 0.0
C420 C 0.59405 0.51979 0.39 0.0
C421 C 0.59007 0.55467 0.4786 0.0
C422 C 0.57965 0.51958 0.34689 0.0
C423 C 0.57964 0.51918 0.27801 0.0
C424 C 0.5938 0.51848 0.24815 0.0
C425 C 0.60791 0.51798 0.29073 0.0
C426 C 0.60803 0.51863 0.35996 0.0
H427 H 0.59483 0.56955 0.51813 0.0
H428 H 0.59852 0.56055 0.4391 0.0
H429 H 0.57506 0.54791 0.45757 0.0
H430 H 0.56814 0.51951 0.36625 0.0
H431 H 0.56829 0.51926 0.24789 0.0
H432 H 0.56122 0.0367 0.66185 0.0
H433 H 0.56104 0.03742 0.54283 0.0
H434 H 0.61487 0.10013 0.58949 0.0
H435 H 0.61518 0.09944 0.70789 0.0
H436 H 0.5612 0.06683 0.46388 0.0
H437 H 0.62626 0.06577 0.4523 0.0
H438 H 0.61488 0.05993 0.52338 0.0
H439 H 0.62988 0.08871 0.51272 0.0
C440 C 0.57314 0.0506 0.64709 0.0
C441 C 0.58828 0.06791 0.69611 0.0
C442 C 0.573 0.05105 0.57827 0.0
C443 C 0.58809 0.06863 0.55519 0.0
C444 C 0.60315 0.08595 0.60419 0.0
H445 H 0.61527 0.10177 0.15954 0.0
H446 H 0.61508 0.1009 0.27815 0.0
C447 C 0.60325 0.0856 0.67284 0.0
C448 C 0.58791 0.06917 0.48081 0.0
H449 H 0.6135 0.07334 0.35706 0.0
C450 C 0.57264 0.0681 0.44078 0.0
C451 C 0.60274 0.07101 0.44882 0.0
C452 C 0.61929 0.07121 0.48624 0.0
C453 C 0.57199 0.06935 0.37206 0.0
C454 C 0.58679 0.07105 0.33987 0.0
C455 C 0.60205 0.07208 0.38 0.0
C456 C 0.58673 0.07175 0.26545 0.0
C457 C 0.55562 0.06968 0.33544 0.0
C458 C 0.57106 0.05563 0.21607 0.0
C459 C 0.57108 0.05625 0.14756 0.0
C460 C 0.58689 0.07283 0.1247 0.0
C461 C 0.60269 0.08878 0.17396 0.0
C462 C 0.60261 0.08822 0.24262 0.0
H463 H 0.54927 0.07597 0.36987 0.0
H464 H 0.55998 0.08055 0.2973 0.0
H465 H 0.54451 0.05218 0.31061 0.0
H466 H 0.55873 0.04214 0.23021 0.0
H467 H 0.55865 0.04336 0.11229 0.0
H468 H 0.76389 0.85555 0.51516 0.0
H469 H 0.76396 0.85608 0.63406 0.0
H470 H 0.71549 0.86275 0.61397 0.0
H471 H 0.71502 0.8615 0.49464 0.0
H472 H 0.76956 0.88493 0.73616 0.0
H473 H 0.69625 0.81477 0.72056 0.0
H474 H 0.70693 0.82096 0.64817 0.0
H475 H 0.69717 0.83687 0.681 0.0
C476 C 0.75306 0.8569 0.53553 0.0
C477 C 0.73932 0.85823 0.49348 0.0
C478 C 0.75315 0.85728 0.6045 0.0
C479 C 0.7395 0.85898 0.63508 0.0
C480 C 0.72591 0.86063 0.59317 0.0
H481 H 0.72123 0.87133 1.05184 0.0
H482 H 0.72068 0.8704 0.93236 0.0
C483 C 0.72573 0.86009 0.52404 0.0
C484 C 0.73991 0.85966 0.71018 0.0
H485 H 0.71255 0.83718 0.82772 0.0
C486 C 0.75702 0.87428 0.75558 0.0
C487 C 0.72376 0.84597 0.73795 0.0
C488 C 0.70505 0.8286 0.69442 0.0
C489 C 0.75834 0.87591 0.82566 0.0
C490 C 0.74217 0.86235 0.8533 0.0
C491 C 0.72506 0.84777 0.80807 0.0
C492 C 0.74271 0.86304 0.92826 0.0
C493 C 0.77711 0.89279 0.86964 0.0
C494 C 0.75508 0.859 0.96821 0.0
C495 C 0.75537 0.85945 1.03732 0.0
C496 C 0.74332 0.86398 0.06995 0.0
C497 C 0.73089 0.86793 1.02985 0.0
C498 C 0.73051 0.86732 0.96066 0.0
H499 H 0.78648 0.90621 0.8434 0.0
H500 H 0.7753 0.90097 0.91501 0.0
H501 H 0.78427 0.88386 0.88494 0.0
H502 H 0.76442 0.85511 0.94576 0.0
H503 H 0.76508 0.8561 0.06522 0.0
H504 H 0.26397 0.8506 0.67912 0.0
H505 H 0.2638 0.85129 0.79838 0.0
H506 H 0.20878 0.84261 0.76878 0.0
H507 H 0.20884 0.84188 0.6498 0.0
H508 H 0.24043 0.82004 0.87083 0.0
H509 H 0.23592 0.89639 0.92132 0.0
H510 H 0.2175 0.87449 0.8569 0.0
H511 H 0.24155 0.8885 0.84489 0.0
C512 C 0.25178 0.84885 0.69764 0.0
C513 C 0.23645 0.84625 0.65322 0.0
C514 C 0.25169 0.84923 0.76661 0.0
C515 C 0.23642 0.84741 0.79466 0.0
C516 C 0.22103 0.84459 0.75024 0.0
H517 H 0.21211 0.85208 0.20556 0.0
H518 H 0.21186 0.85093 0.08602 0.0
C519 C 0.22103 0.84399 0.68125 0.0
C520 C 0.23648 0.84809 0.86939 0.0
H521 H 0.23253 0.87603 1.00897 0.0
C522 C 0.23879 0.83242 0.90081 0.0
C523 C 0.23419 0.86396 0.91019 0.0
C524 C 0.23231 0.88194 0.88196 0.0
C525 C 0.23848 0.83183 0.96957 0.0
C526 C 0.23646 0.84792 1.01079 0.0
C527 C 0.23412 0.86358 0.97916 0.0
C528 C 0.23673 0.84881 0.0859 0.0
C529 C 0.23959 0.81316 0.9964 0.0
C530 C 0.25091 0.8485 0.12869 0.0
C531 C 0.25094 0.84891 0.19758 0.0
C532 C 0.23702 0.85013 0.2277 0.0
C533 C 0.22312 0.8511 0.18538 0.0
C534 C 0.22299 0.85045 0.11618 0.0
H535 H 0.23451 0.79824 0.95664 0.0
H536 H 0.2545 0.81943 1.01729 0.0
H537 H 0.23111 0.8075 1.03593 0.0
H538 H 0.26222 0.84815 0.10907 0.0
H539 H 0.26209 0.84841 0.22746 0.0
H540 H 0.26949 0.32316 0.81106 0.0
H541 H 0.26906 0.32178 0.92954 0.0
H542 H 0.20968 0.27148 0.88237 0.0
H543 H 0.21 0.27287 0.76428 0.0
H544 H 0.2494 0.33058 1.0189 0.0
H545 H 0.22829 0.24076 0.99992 0.0
H546 H 0.23654 0.25617 0.9336 0.0
H547 H 0.21271 0.24519 0.94584 0.0
C548 C 0.25627 0.31177 0.82552 0.0
C549 C 0.23979 0.29813 0.7764 0.0
C550 C 0.25604 0.31098 0.89408 0.0
C551 C 0.2394 0.29622 0.91676 0.0
C552 C 0.22291 0.28275 0.86776 0.0
H553 H 0.21144 0.26224 0.31293 0.0
H554 H 0.21136 0.26347 0.19415 0.0
C555 C 0.22308 0.28371 0.79939 0.0
C556 C 0.23923 0.29519 0.99089 0.0
H557 H 0.22888 0.25924 0.10383 0.0
C558 C 0.24498 0.31493 1.03715 0.0
C559 C 0.23333 0.2749 1.01662 0.0
C560 C 0.22751 0.25306 0.9717 0.0
C561 C 0.24463 0.31491 0.10616 0.0
C562 C 0.23904 0.29468 0.13233 0.0
C563 C 0.23325 0.27491 0.08581 0.0
C564 C 0.23915 0.29369 0.20684 0.0
C565 C 0.24958 0.33664 0.14967 0.0
C566 C 0.25483 0.30976 0.25629 0.0
C567 C 0.25478 0.30921 0.32481 0.0
C568 C 0.23922 0.29224 0.34779 0.0
C569 C 0.22375 0.27567 0.29843 0.0
C570 C 0.22372 0.27639 0.22966 0.0
H571 H 0.24691 0.34759 0.12061 0.0
H572 H 0.24136 0.33333 0.19027 0.0
H573 H 0.26483 0.34627 0.17171 0.0
H574 H 0.26738 0.32285 0.24213 0.0
H575 H 0.26717 0.32221 0.36005 0.0
H576 H 0.33667 0.10781 0.44929 0.0
H577 H 0.30688 0.0803 0.37444 0.0
H578 H 0.33761 0.06696 0.24003 0.0
H579 H 0.36707 0.09428 0.31364 0.0
H580 H 0.3024 0.09264 0.26447 0.0
H581 H 0.28845 1.00799 0.18702 0.0
H582 H 0.30127 0.02423 0.26912 0.0
H583 H 0.31356 0.02608 0.20095 0.0
C584 C 0.33696 0.09849 0.40451 0.0
C585 C 0.35424 0.10371 0.38625 0.0
C586 C 0.3199 0.08249 0.36238 0.0
C587 C 0.31986 0.07143 0.30144 0.0
C588 C 0.33704 0.07474 0.28726 0.0
H589 H 0.34814 0.08797 1.01881 0.0
H590 H 0.32652 0.06442 0.08518 0.0
C591 C 0.35405 0.0907 0.32923 0.0
C592 C 0.30396 0.06278 0.24504 0.0
H593 H 0.29297 0.03102 0.09251 0.0
C594 C 0.29951 0.07858 0.22712 0.0
C595 C 0.29874 0.04365 0.19709 0.0
C596 C 0.30058 0.02442 0.21515 0.0
C597 C 0.29532 0.0793 0.16018 0.0
C598 C 0.29535 0.06347 0.11112 0.0
C599 C 0.29416 0.04402 0.12999 0.0
C600 C 0.30471 0.0714 0.05365 0.0
C601 C 0.29407 0.09914 0.14401 0.0
C602 C 0.2994 0.08215 1.00973 0.0
C603 C 0.31232 0.09657 0.97347 0.0
C604 C 0.33025 0.09937 0.97811 0.0
C605 C 0.33443 0.08614 1.0145 0.0
C606 C 0.32188 0.07246 1.05225 0.0
H607 H 0.29306 0.10878 0.18811 0.0
H608 H 0.30678 0.11098 0.12504 0.0
H609 H 0.28138 0.09309 0.10569 0.0
H610 H 0.28593 0.08082 1.00716 0.0
H611 H 0.30871 0.10635 0.94453 0.0
H612 H 0.84201 0.15085 0.30207 0.0
H613 H 0.82707 0.11566 0.22403 0.0
H614 H 0.81794 0.07865 0.38552 0.0
H615 H 0.83465 0.1144 0.46419 0.0
H616 H 0.8331 0.06524 0.319 0.0
H617 H 0.78261 0.06131 0.12624 0.0
H618 H 0.80082 0.09043 0.13688 0.0
H619 H 0.78907 0.07967 0.20528 0.0
C620 C 0.83649 0.13521 0.32111 0.0
C621 C 0.84001 0.13556 0.38928 0.0
C622 C 0.82742 0.11481 0.27614 0.0
C623 C 0.82109 0.09409 0.29818 0.0
C624 C 0.82267 0.09425 0.36677 0.0
H625 H 0.84684 0.06102 0.94507 0.0
H626 H 0.8238 0.04304 1.01664 0.0
C627 C 0.83215 0.1148 0.41193 0.0
C628 C 0.81748 0.07408 0.25066 0.0
H629 H 0.81159 0.06215 0.08314 0.0
C630 C 0.82762 0.06374 0.26752 0.0
C631 C 0.80907 0.06983 0.18346 0.0
C632 C 0.79458 0.07572 0.16254 0.0
C633 C 0.83333 0.05446 0.21829 0.0
C634 C 0.82966 0.05682 0.15207 0.0
C635 C 0.8157 0.06181 0.13441 0.0
C636 C 0.84383 0.06167 0.10856 0.0
C637 C 0.84495 0.04453 0.23854 0.0
C638 C 0.86294 0.07747 0.13591 0.0
C639 C 0.87603 0.08756 0.09536 0.0
C640 C 0.87036 0.08247 1.02621 0.0
C641 C 0.85157 0.06545 0.99834 0.0
C642 C 0.83842 0.05508 1.03921 0.0
H643 H 0.83811 0.03258 0.27241 0.0
H644 H 0.84668 0.03539 0.19513 0.0
H645 H 0.85905 0.0582 0.26652 0.0
H646 H 0.8676 0.08373 0.1888 0.0
H647 H 0.89027 0.10087 0.11864 0.0
H648 H 0.92066 0.62547 0.32675 0.0
H649 H 0.94242 0.63731 0.25066 0.0
H650 H 0.98304 0.634 0.38848 0.0
H651 H 0.9611 0.62237 0.46652 0.0
H652 H 0.99955 0.67268 0.35467 0.0
H653 H 0.96193 0.61371 0.12064 0.0
H654 H 0.94542 0.61986 0.14929 0.0
H655 H 0.9544 0.60604 0.19771 0.0
C656 C 0.93387 0.62628 0.34004 0.0
C657 C 0.9391 0.62291 0.40273 0.0
C658 C 0.94637 0.63299 0.29604 0.0
C659 C 0.96433 0.63613 0.31289 0.0
C660 C 0.96923 0.63151 0.37401 0.0
H661 H 0.99535 0.70617 0.99938 0.0
H662 H 1.00199 0.68321 0.06453 0.0
C663 C 0.9567 0.62493 0.41859 0.0
C664 C 0.97858 0.64797 0.27136 0.0
H665 H 0.97827 0.65487 0.11108 0.0
C666 C 0.99528 0.66844 0.30113 0.0
C667 C 0.97398 0.6421 0.20145 0.0
C668 C 0.95804 0.61902 0.1658 0.0
C669 C 1.00545 0.68473 0.26323 0.0
C670 C 0.99812 0.68079 0.19485 0.0
C671 C 0.98356 0.65872 0.16396 0.0
C672 C 1.00173 0.69971 0.15901 0.0
C673 C 0.02326 0.7064 0.29779 0.0
C674 C 1.001 0.71808 0.19038 0.0
C675 C 0.99809 0.73199 0.15339 0.0
C676 C 0.99494 0.72727 0.08382 0.0
C677 C 0.99766 0.71045 1.05286 0.0
C678 C 1.00128 0.69702 0.09024 0.0
H679 H 0.03214 0.70249 0.33088 0.0
H680 H 0.03163 0.71633 0.26219 0.0
H681 H 0.01966 0.71689 0.32988 0.0
H682 H 1.00083 0.72053 0.24284 0.0
H683 H 0.99669 0.74523 0.17917 0.0
H684 H 0.18861 0.31124 0.51556 0.0
H685 H 0.17698 0.33506 0.4804 0.0
H686 H 0.23353 0.3935 0.52964 0.0
H687 H 0.24533 0.36986 0.56552 0.0
H688 H 0.18319 0.37931 0.55642 0.0
H689 H 0.21253 0.38647 0.32445 0.0
H690 H 0.20788 0.36379 0.36924 0.0
H691 H 0.22791 0.39175 0.40076 0.0
C692 C 0.19859 0.32921 0.51979 0.0
C693 C 0.21795 0.33858 0.54338 0.0
C694 C 0.19189 0.3428 0.49959 0.0
C695 C 0.2044 0.36601 0.50171 0.0
C696 C 0.22364 0.37559 0.52711 0.0
H697 H 0.19159 0.46911 0.34119 0.0
H698 H 0.20329 0.44721 0.39005 0.0
C699 C 0.23034 0.36205 0.548 0.0
C700 C 0.1974 0.37998 0.47515 0.0
H701 H 0.19733 0.40641 0.34473 0.0
C702 C 0.18626 0.38526 0.51015 0.0
C703 C 0.20146 0.38776 0.41489 0.0
C704 C 0.213 0.38212 0.37461 0.0
C705 C 0.17931 0.39841 0.48702 0.0
C706 C 0.18314 0.40596 0.42609 0.0
C707 C 0.19434 0.40066 0.39128 0.0
C708 C 0.1758 0.41947 0.39767 0.0
C709 C 0.16837 0.40457 0.52909 0.0
C710 C 0.15637 0.41121 0.38475 0.0
C711 C 0.14961 0.42389 0.3575 0.0
C712 C 0.16209 0.4451 0.3417 0.0
C713 C 0.18152 0.45314 0.35382 0.0
C714 C 0.18826 0.4405 0.38133 0.0
H715 H 0.17155 0.40352 0.58181 0.0
H716 H 0.17155 0.42196 0.52671 0.0
H717 H 0.15306 0.3925 0.51068 0.0
H718 H 0.14637 0.39481 0.39523 0.0
H719 H 0.13459 0.41712 0.34942 0.0
H720 H 0.65035 0.59803 0.11205 0.0
H721 H 0.66676 0.63921 0.14519 0.0
H722 H 0.61561 0.63706 0.07351 0.0
H723 H 0.59897 0.59579 1.04127 0.0
H724 H 0.67367 0.67257 0.075 0.0
H725 H 0.63018 0.67358 0.25803 0.0
H726 H 0.62901 0.64802 0.2229 0.0
H727 H 0.61675 0.65863 0.17652 0.0
C728 C 0.64251 0.60623 0.10321 0.0
C729 C 0.62321 0.59334 0.07411 0.0
C730 C 0.65198 0.6299 0.12231 0.0
C731 C 0.64243 0.64143 0.11327 0.0
C732 C 0.62327 0.62868 0.08282 0.0
H733 H 0.68027 0.78633 0.19885 0.0
H734 H 0.66178 0.74497 0.16293 0.0
C735 C 0.61377 0.60499 0.06377 0.0
C736 C 0.65266 0.66672 0.13476 0.0
H737 H 0.6524 0.70916 0.23386 0.0
C738 C 0.66901 0.68051 0.10989 0.0
C739 C 0.64666 0.67732 0.18024 0.0
C740 C 0.6298 0.66365 0.21153 0.0
C741 C 0.67933 0.70434 0.1285 0.0
C742 C 0.67343 0.71491 0.17433 0.0
C743 C 0.65697 0.70118 0.19872 0.0
C744 C 0.68442 0.74009 0.19858 0.0
C745 C 0.69634 0.71802 0.09791 0.0
C746 C 0.7032 0.75125 0.23225 0.0
C747 C 0.71378 0.77487 0.25306 0.0
C748 C 0.7059 0.78812 0.24109 0.0
C749 C 0.68689 0.77683 0.20899 0.0
C750 C 0.67628 0.75311 0.18829 0.0
H751 H 0.69595 0.70823 1.05108 0.0
H752 H 0.69737 0.73386 0.08738 0.0
H753 H 0.70928 0.72272 0.13304 0.0
H754 H 0.70976 0.74167 0.2423 0.0
H755 H 0.7283 0.78276 0.27784 0.0
H756 H 0.48609 0.95558 0.08711 0.0
H757 H 0.46052 0.93901 0.15025 0.0
H758 H 0.43186 0.96579 1.0418 0.0
H759 H 0.45716 0.98209 0.97817 0.0
H760 H 0.44692 0.95806 0.23175 0.0
H761 H 0.39049 0.90014 1.01695 0.0
H762 H 0.41515 0.91477 1.01148 0.0
H763 H 0.40245 0.92916 1.00677 0.0
C764 C 0.47435 0.95796 0.07683 0.0
C765 C 0.47356 0.96992 1.02699 0.0
C766 C 0.45972 0.94843 0.11283 0.0
C767 C 0.44402 0.95069 0.09982 0.0
C768 C 0.44349 0.96318 1.05141 0.0
H769 H 0.34378 0.91302 0.26873 0.0
H770 H 0.37005 0.92942 0.20908 0.0
C771 C 0.45801 0.97254 1.01512 0.0
C772 C 0.42833 0.94031 0.13742 0.0
H773 H 0.38056 0.90466 0.11837 0.0
C774 C 0.43244 0.94626 0.20696 0.0
C775 C 0.40939 0.92484 0.10518 0.0
C776 C 0.4041 0.91666 1.03106 0.0
C777 C 0.41811 0.9376 0.24485 0.0
C778 C 0.39918 0.92245 0.21245 0.0
C779 C 0.39507 0.91639 0.14307 0.0
C780 C 0.38341 0.91264 0.24963 0.0
C781 C 0.42324 0.94509 0.31919 0.0
C782 C 0.38209 0.89756 0.29176 0.0
C783 C 0.36695 0.8879 0.32537 0.0
C784 C 0.35278 0.89312 0.31765 0.0
C785 C 0.35422 0.9083 0.27531 0.0
C786 C 0.36931 0.91784 0.24144 0.0
H787 H 0.4377 0.96026 0.33522 0.0
H788 H 0.41308 0.94899 0.33786 0.0
H789 H 0.42261 0.93115 0.34251 0.0
H790 H 0.39264 0.89299 0.29788 0.0
H791 H 0.36619 0.87598 0.35642 0.0
H792 H 0.53564 0.08118 0.90153 0.0
H793 H 0.51766 0.09905 0.88578 0.0
H794 H 0.56892 0.16323 0.89606 0.0
H795 H 0.58738 0.14496 0.91014 0.0
H796 H 0.51579 0.13041 0.95867 0.0
H797 H 0.53835 0.16084 0.72746 0.0
H798 H 0.54388 0.14184 0.76252 0.0
H799 H 0.55714 0.17159 0.79759 0.0
C800 C 0.54334 0.09913 0.90036 0.0
C801 C 0.56317 0.11145 0.90652 0.0
C802 C 0.53286 0.10942 0.89152 0.0
C803 C 0.54166 0.13253 0.88845 0.0
C804 C 0.56157 0.14525 0.89657 0.0
H805 H 0.46825 0.19023 0.89781 0.0
H806 H 0.49298 0.18208 0.92751 0.0
C807 C 0.5722 0.13483 0.90543 0.0
C808 C 0.52956 0.14259 0.87675 0.0
H809 H 0.51658 0.16843 0.76825 0.0
C810 C 0.51612 0.13889 0.91724 0.0
C811 C 0.52959 0.15341 0.82219 0.0
C812 C 0.54287 0.15703 0.77447 0.0
C813 C 0.50263 0.14509 0.90419 0.0
C814 C 0.50272 0.15607 0.84991 0.0
C815 C 0.5164 0.16018 0.8101 0.0
C816 C 0.48818 0.16226 0.83147 0.0
C817 C 0.48783 0.13872 0.94711 0.0
C818 C 0.4775 0.15481 0.76673 0.0
C819 C 0.46353 0.15983 0.74927 0.0
C820 C 0.45967 0.17244 0.79601 0.0
C821 C 0.47057 0.18025 0.86053 0.0
C822 C 0.48471 0.17543 0.87778 0.0
H823 H 0.48634 0.12491 0.97323 0.0
H824 H 0.49201 0.15367 0.98536 0.0
H825 H 0.47387 0.13312 0.91733 0.0
H826 H 0.47975 0.14472 0.7296 0.0
H827 H 0.45555 0.1535 0.69906 0.0
H828 H 0.96583 0.24162 0.93117 0.0
H829 H 0.98696 0.28034 0.99339 0.0
H830 H 0.96026 0.30436 0.86286 0.0
H831 H 0.93929 0.26585 0.79993 0.0
H832 H 0.99855 0.33129 0.88321 0.0
H833 H 0.97592 0.31738 0.12569 0.0
H834 H 0.98331 0.29885 0.09353 0.0
H835 H 0.96263 0.2969 1.05012 0.0
C836 C 0.96433 0.25508 0.91585 0.0
C837 C 0.95071 0.25041 0.86038 0.0
C838 C 0.9764 0.27728 0.95187 0.0
C839 C 0.97511 0.2954 0.93371 0.0
C840 C 0.96157 0.29077 0.87828 0.0
H841 H 0.02584 0.43382 0.15295 0.0
H842 H 1.00451 0.39398 0.09965 0.0
C843 C 0.94952 0.26863 0.84227 0.0
C844 C 0.98819 0.31925 0.97075 0.0
H845 H 1.00287 0.35325 0.12381 0.0
C846 C 0.99945 0.33603 0.93582 0.0
C847 C 0.98932 0.32569 1.03939 0.0
C848 C 0.97704 0.30883 0.0794 0.0
C849 C 1.01188 0.3588 0.96745 0.0
C850 C 1.01336 0.36512 1.03635 0.0
C851 C 1.00192 0.34845 0.0712 0.0
C852 C 0.02652 0.38902 0.07254 0.0
C853 C 0.0231 0.37603 0.92645 0.0
C854 C 0.04612 0.39949 0.07681 0.0
C855 C 0.05839 0.42226 0.10761 0.0
C856 C 0.05142 0.43525 0.13504 0.0
C857 C 0.0318 0.42449 0.13245 0.0
C858 C 0.01954 0.40164 0.10189 0.0
H859 H 0.01718 0.36969 0.87258 0.0
H860 H 0.02353 0.39207 0.94118 0.0
H861 H 0.03781 0.37988 0.93473 0.0
H862 H 0.05194 0.39009 0.05565 0.0
H863 H 0.07336 0.42979 0.10858 0.0
H864 H 0.86949 0.68586 0.8724 0.0
H865 H 0.83878 0.66832 0.90673 0.0
H866 H 0.82349 0.60344 0.79738 0.0
H867 H 0.85404 0.62082 0.7622 0.0
H868 H 0.79511 0.61271 0.77492 0.0
H869 H 0.82116 0.62757 1.0449 0.0
H870 H 0.83152 0.65265 1.00899 0.0
H871 H 0.83586 0.6305 0.98415 0.0
C872 C 0.85966 0.66782 0.85588 0.0
C873 C 0.86437 0.65478 0.81467 0.0
C874 C 0.8421 0.65779 0.87588 0.0
C875 C 0.82886 0.63446 0.85545 0.0
C876 C 0.83347 0.62144 0.81406 0.0
H877 H 0.72838 0.54937 1.01259 0.0
H878 H 0.75914 0.56799 0.97925 0.0
C879 C 0.85102 0.63144 0.79409 0.0
C880 C 0.81005 0.62368 0.87589 0.0
H881 H 0.78857 0.61325 1.01103 0.0
C882 C 0.79369 0.61283 0.82656 0.0
C883 C 0.80813 0.62359 0.94325 0.0
C884 C 0.82507 0.634 0.99846 0.0
C885 C 0.77555 0.60214 0.84267 0.0
C886 C 0.77365 0.60249 0.91008 0.0
C887 C 0.79 0.61314 0.95939 0.0
C888 C 0.75483 0.59137 0.93044 0.0
C889 C 0.75857 0.5901 0.78725 0.0
C890 C 0.74212 0.5984 0.91482 0.0
C891 C 0.72448 0.58785 0.93425 0.0
C892 C 0.71915 0.57007 0.97014 0.0
C893 C 0.73201 0.56319 0.98595 0.0
C894 C 0.74962 0.57376 0.96659 0.0
H895 H 0.76229 0.5866 0.73918 0.0
H896 H 0.74748 0.57382 0.79847 0.0
H897 H 0.75259 0.60093 0.78151 0.0
H898 H 0.74592 0.61225 0.88816 0.0
H899 H 0.71515 0.59392 0.92208 0.0
H900 H 0.9418 0.6685 0.94432 0.0
H901 H 0.95842 0.65269 1.00107 0.0
H902 H 0.96356 0.6256 0.81248 0.0
H903 H 0.94685 0.64105 0.75519 0.0
H904 H 0.94622 0.60163 0.96765 0.0
H905 H 0.01886 0.66515 0.9389 0.0
H906 H 1.00035 0.67129 0.93755 0.0
H907 H 1.00052 0.6542 0.86677 0.0
C908 C 0.94641 0.65913 0.91481 0.0
C909 C 0.94285 0.65593 0.84504 0.0
C910 C 0.95593 0.65015 0.94742 0.0
C911 C 0.96227 0.63808 0.91093 0.0
C912 C 0.95887 0.63499 0.8415 0.0
H913 H 0.01836 0.56502 0.97704 0.0
H914 H 1.00478 0.5861 0.93438 0.0
C915 C 0.94925 0.64378 0.80886 0.0
C916 C 0.97195 0.62803 0.94478 0.0
H917 H 0.01455 0.63227 0.97771 0.0
C918 C 0.96119 0.60842 0.97059 0.0
C919 C 0.99144 0.63689 0.94797 0.0
C920 C 1.00359 0.65813 0.92179 0.0
C921 C 0.96932 0.59701 0.99776 0.0
C922 C 0.98881 0.60577 1.00059 0.0
C923 C 0.99963 0.62561 0.97566 0.0
C924 C 0.99804 0.59415 1.02773 0.0
C925 C 0.95685 0.57514 1.02073 0.0
C926 C 0.99918 0.59214 0.09475 0.0
C927 C 1.00701 0.58019 0.11937 0.0
C928 C 0.01394 0.57004 0.07755 0.0
C929 C 1.01331 0.57272 1.01082 0.0
C930 C 1.00547 0.58469 0.98625 0.0
H931 H 0.94163 0.56872 1.00495 0.0
H932 H 0.95965 0.56193 1.001 0.0
H933 H 0.95999 0.57787 0.07564 0.0
H934 H 0.99391 0.59972 0.12801 0.0
H935 H 1.00763 0.57892 0.17131 0.0
H936 H 0.57978 0.44398 0.93426 0.0
H937 H 0.55837 0.40306 0.89449 0.0
H938 H 0.51858 0.40349 1.00969 0.0
H939 H 0.53953 0.44431 1.04774 0.0
H940 H 0.54351 0.36644 0.95071 0.0
H941 H 0.48455 0.37311 0.8336 0.0
H942 H 0.50781 0.39765 0.86448 0.0
H943 H 0.49169 0.38525 0.92021 0.0
C944 C 0.56651 0.43536 0.95137 0.0
C945 C 0.56141 0.44765 0.99392 0.0
C946 C 0.55421 0.41188 0.92842 0.0
C947 C 0.53648 0.40002 0.94738 0.0
C948 C 0.53178 0.41214 0.99217 0.0
H949 H 0.44292 0.2595 0.88349 0.0
H950 H 0.46597 0.29999 0.92211 0.0
C951 C 0.54395 0.43559 1.01454 0.0
C952 C 0.52296 0.3751 0.92067 0.0
H953 H 0.47724 0.33595 0.84489 0.0
C954 C 0.52908 0.35986 0.92711 0.0
C955 C 0.50403 0.36622 0.88926 0.0
C956 C 0.49668 0.38143 0.8758 0.0
C957 C 0.51679 0.33624 0.90503 0.0
C958 C 0.4978 0.32741 0.8752 0.0
C959 C 0.49172 0.3426 0.86814 0.0
C960 C 0.48395 0.30248 0.85165 0.0
C961 C 0.52408 0.32079 0.91528 0.0
C962 C 0.48615 0.29019 0.79854 0.0
C963 C 0.47284 0.26694 0.77581 0.0
C964 C 0.45701 0.2553 0.80585 0.0
C965 C 0.45491 0.2677 0.85913 0.0
C966 C 0.4681 0.29097 0.88133 0.0
H967 H 0.53778 0.32961 0.95044 0.0
H968 H 0.51373 0.30581 0.9343 0.0
H969 H 0.52614 0.3146 0.86705 0.0
H970 H 0.49807 0.29865 0.77402 0.0
H971 H 0.475 0.25808 0.73467 0.0
H972 H 0.85122 0.17155 0.69562 0.0
H973 H 0.82105 0.16427 0.72077 0.0
H974 H 0.83742 0.15928 0.92043 0.0
H975 H 0.8679 0.16696 0.89585 0.0
H976 H 0.79246 0.12806 0.7582 0.0
H977 H 0.82036 0.20345 0.95583 0.0
H978 H 0.83489 0.2004 0.90227 0.0
H979 H 0.8296 0.18582 0.97124 0.0
C980 C 0.84855 0.16904 0.74511 0.0
C981 C 0.86226 0.17007 0.79373 0.0
C982 C 0.83115 0.1648 0.75943 0.0
C983 C 0.82687 0.16156 0.82293 0.0
C984 C 0.84041 0.16226 0.87147 0.0
H985 H 0.72764 0.13549 0.99476 0.0
H986 H 0.75789 0.14154 0.97389 0.0
C987 C 0.85787 0.16653 0.85717 0.0
C988 C 0.80814 0.15705 0.83731 0.0
H989 H 0.78752 0.17671 0.93781 0.0
C990 C 0.79143 0.13877 0.79743 0.0
C991 C 0.80657 0.17088 0.88857 0.0
C992 C 0.82378 0.19136 0.93161 0.0
C993 C 0.77343 0.13381 0.8077 0.0
C994 C 0.77185 0.14777 0.85853 0.0
C995 C 0.78855 0.16594 0.89878 0.0
C996 C 0.75311 0.14387 0.87072 0.0
C997 C 0.75624 0.11326 0.76479 0.0
C998 C 0.74014 0.14336 0.82016 0.0
C999 C 0.72272 0.1399 0.83201 0.0
C1000 C 0.71778 0.1371 0.89507 0.0
C1001 C 0.73088 0.13782 0.94573 0.0
C1002 C 0.74826 0.14121 0.93377 0.0
H1003 H 0.75961 0.10082 0.74284 0.0
H1004 H 0.74485 0.10468 0.79348 0.0
H1005 H 0.75085 0.11861 0.7234 0.0
H1006 H 0.74359 0.14598 0.77151 0.0
H1007 H 0.7133 0.13992 0.79192 0.0
H1008 H 0.63861 0.05267 0.92351 0.0
H1009 H 0.65259 0.0309 0.95733 0.0
H1010 H 0.60009 0.98194 1.00836 0.0
H1011 H 0.586 1.0032 0.97397 0.0
H1012 H 0.65764 0.0201 0.07991 0.0
H1013 H 0.61158 0.94123 0.89487 0.0
H1014 H 0.61274 0.96741 0.88721 0.0
H1015 H 0.59841 0.94962 0.94048 0.0
C1016 C 0.62997 0.03711 0.94111 0.0
C1017 C 0.6111 0.02966 0.94541 0.0
C1018 C 0.63801 0.02471 0.96068 0.0
C1019 C 0.62733 1.00452 0.98443 0.0
C1020 C 0.60853 0.99712 0.98875 0.0
H1021 H 0.64245 0.90758 0.16608 0.0
H1022 H 0.63168 0.93069 0.1195 0.0
C1023 C 0.6005 1.00943 0.9693 0.0
C1024 C 0.63589 0.99156 1.00731 0.0
H1025 H 0.62943 0.93862 0.98824 0.0
C1026 C 0.65162 1.00236 0.05929 0.0
C1027 C 0.62808 0.96838 0.98053 0.0
C1028 C 0.61189 0.95603 0.92225 0.0
C1029 C 0.65924 0.99043 0.0868 0.0
C1030 C 0.65109 0.96711 0.06116 0.0
C1031 C 0.63563 0.95645 1.00825 0.0
C1032 C 0.65798 0.95325 0.08968 0.0
C1033 C 0.67552 1.00269 0.14475 0.0
C1034 C 0.67634 0.95804 0.08805 0.0
C1035 C 0.68254 0.94468 0.11423 0.0
C1036 C 0.67049 0.92613 0.1425 0.0
C1037 C 0.65209 0.92143 0.14389 0.0
C1038 C 0.64591 0.93474 0.11756 0.0
H1039 H 0.67744 0.01902 0.16783 0.0
H1040 H 0.67341 0.99203 0.18319 0.0
H1041 H 0.6887 1.00639 0.12734 0.0
H1042 H 0.68582 0.97195 0.06567 0.0
H1043 H 0.69668 0.94866 0.11116 0.0
H1044 H 0.23071 0.77234 0.43561 0.0
H1045 H 0.21391 0.73109 0.40125 0.0
H1046 H 0.16318 0.72972 0.32877 0.0
H1047 H 0.17986 0.77091 0.36217 0.0
H1048 H 0.18236 0.69608 0.43656 0.0
H1049 H 0.16793 0.69541 0.1678 0.0
H1050 H 0.18447 0.72101 0.22675 0.0
H1051 H 0.15956 0.70986 0.21743 0.0
C1052 C 0.21596 0.76332 0.41248 0.0
C1053 C 0.20675 0.77519 0.40147 0.0
C1054 C 0.20635 0.73964 0.39278 0.0
C1055 C 0.18731 0.72716 0.36108 0.0
C1056 C 0.17796 0.73888 0.35157 0.0
H1057 H 0.10194 0.58582 0.20164 0.0
H1058 H 0.12068 0.62694 0.23647 0.0
C1059 C 0.18753 0.76254 0.37127 0.0
C1060 C 0.17721 0.70195 0.33839 0.0
H1061 H 0.15232 0.65972 0.20174 0.0
C1062 C 0.17591 0.68816 0.38512 0.0
C1063 C 0.16875 0.69144 0.27122 0.0
C1064 C 0.17037 0.70518 0.21772 0.0
C1065 C 0.16596 0.6643 0.36707 0.0
C1066 C 0.15734 0.65377 0.29996 0.0
C1067 C 0.15884 0.66761 0.25316 0.0
C1068 C 0.14621 0.62848 0.27754 0.0
C1069 C 0.16425 0.65057 0.42063 0.0
C1070 C 0.15427 0.61534 0.28747 0.0
C1071 C 0.14351 0.59161 0.26755 0.0
C1072 C 0.12441 0.58037 0.23665 0.0
C1073 C 0.11655 0.59368 0.22527 0.0
C1074 C 0.12729 0.61733 0.24526 0.0
H1075 H 0.16717 0.66053 0.47071 0.0
H1076 H 0.14995 0.63509 0.41247 0.0
H1077 H 0.17466 0.64527 0.41988 0.0
H1078 H 0.16894 0.62343 0.31067 0.0
H1079 H 0.15014 0.58206 0.277 0.0
H1080 H 0.47504 0.43804 0.14315 0.0
H1081 H 0.44873 0.41992 0.20206 0.0
H1082 H 0.45039 0.48275 0.2454 0.0
H1083 H 0.47664 0.50096 0.18662 0.0
H1084 H 0.44657 0.42994 0.33182 0.0
H1085 H 0.39515 0.43868 0.16566 0.0
H1086 H 0.4169 0.44326 0.14339 0.0
H1087 H 0.41684 0.4651 0.19784 0.0
C1088 C 0.46986 0.44804 0.1654 0.0
C1089 C 0.47792 0.47095 0.15967 0.0
C1090 C 0.45475 0.43762 0.19886 0.0
C1091 C 0.44731 0.44982 0.22717 0.0
C1092 C 0.45551 0.47278 0.22246 0.0
H1093 H 0.36161 0.42358 0.46516 0.0
H1094 H 0.38736 0.43978 0.40313 0.0
C1095 C 0.47056 0.48319 0.18884 0.0
C1096 C 0.43129 0.43872 0.26298 0.0
H1097 H 0.38666 0.42721 0.26766 0.0
C1098 C 0.43342 0.42919 0.31747 0.0
C1099 C 0.41409 0.43771 0.24428 0.0
C1100 C 0.41048 0.44653 0.18422 0.0
C1101 C 0.41906 0.41923 0.35473 0.0
C1102 C 0.40198 0.41849 0.33651 0.0
C1103 C 0.39978 0.42784 0.28173 0.0
C1104 C 0.38633 0.40842 0.37428 0.0
C1105 C 0.42249 0.41014 0.4144 0.0
C1106 C 0.377 0.38531 0.37813 0.0
C1107 C 0.36228 0.37599 0.41381 0.0
C1108 C 0.35656 0.38959 0.4464 0.0
C1109 C 0.36583 0.41268 0.4417 0.0
C1110 C 0.38048 0.42195 0.40585 0.0
H1111 H 0.43771 0.41669 0.43074 0.0
H1112 H 0.41709 0.41466 0.45651 0.0
H1113 H 0.41492 0.39139 0.40159 0.0
H1114 H 0.38105 0.37444 0.35328 0.0
H1115 H 0.35556 0.35819 0.41662 0.0
H1116 H 0.91011 0.75022 0.70565 0.0
H1117 H 0.89394 0.76755 0.6566 0.0
H1118 H 0.85185 0.703 0.53532 0.0
H1119 H 0.86804 0.68548 0.58362 0.0
H1120 H 0.86485 0.73853 0.46512 0.0
H1121 H 0.84455 0.76047 0.69566 0.0
H1122 H 0.86931 0.77104 0.7037 0.0
H1123 H 0.85265 0.74098 0.68788 0.0
C1124 C 0.89742 0.73964 0.66854 0.0
C1125 C 0.89037 0.71638 0.64887 0.0
C1126 C 0.8881 0.74958 0.64086 0.0
C1127 C 0.87148 0.73651 0.59313 0.0
C1128 C 0.86458 0.71339 0.57242 0.0
H1129 H 0.79456 0.78003 0.45574 0.0
H1130 H 0.80853 0.76011 0.50415 0.0
C1131 C 0.87388 0.70341 0.60013 0.0
C1132 C 0.86152 0.74707 0.56397 0.0
H1133 H 0.84044 0.77654 0.60373 0.0
C1134 C 0.85943 0.74674 0.49538 0.0
C1135 C 0.85419 0.75751 0.60328 0.0
C1136 C 0.8551 0.75738 0.67662 0.0
C1137 C 0.8507 0.75708 0.46536 0.0
C1138 C 0.84408 0.76834 0.50509 0.0
C1139 C 0.84569 0.76812 0.57339 0.0
C1140 C 0.83568 0.78068 0.47675 0.0
C1141 C 0.84849 0.7557 0.39121 0.0
C1142 C 0.8464 0.79917 0.44648 0.0
C1143 C 0.83851 0.81067 0.41917 0.0
C1144 C 0.8197 0.80401 0.42163 0.0
C1145 C 0.80911 0.78575 0.45328 0.0
C1146 C 0.81704 0.77426 0.4807 0.0
H1147 H 0.84955 0.7416 0.36628 0.0
H1148 H 0.83472 0.75329 0.36993 0.0
H1149 H 0.85987 0.77175 0.37997 0.0
H1150 H 0.86096 0.80481 0.44428 0.0
H1151 H 0.84726 0.82496 0.39666 0.0
H1152 H 0.36393 0.11864 0.57062 0.0
H1153 H 0.34028 0.0785 0.52916 0.0
H1154 H 0.35517 0.06233 0.71326 0.0
H1155 H 0.37827 0.1025 0.75591 0.0
H1156 H 0.34187 0.04283 0.50137 0.0
H1157 H 0.29985 0.02752 0.69955 0.0
H1158 H 0.31797 0.05563 0.69238 0.0
H1159 H 0.32399 0.03796 0.73333 0.0
C1160 C 0.36206 0.1066 0.60268 0.0
C1161 C 0.37299 0.11401 0.66708 0.0
C1162 C 0.34849 0.08352 0.57873 0.0
C1163 C 0.34544 0.0671 0.61828 0.0
C1164 C 0.35661 0.07448 0.68216 0.0
H1165 H 0.29574 0.92322 0.46889 0.0
H1166 H 0.31581 0.96416 0.50363 0.0
C1167 C 0.37003 0.09757 0.70643 0.0
C1168 C 0.33114 0.04231 0.59187 0.0
H1169 H 0.29477 0.99443 0.63008 0.0
C1170 C 0.33151 0.03236 0.52954 0.0
C1171 C 0.31715 0.02841 0.62719 0.0
C1172 C 0.31455 0.03799 0.69142 0.0
C1173 C 0.31891 1.0091 0.50292 0.0
C1174 C 0.30577 0.99491 0.54026 0.0
C1175 C 0.30495 1.00499 0.60152 0.0
C1176 C 0.29313 0.96962 0.51753 0.0
C1177 C 0.31964 1.00015 0.43425 0.0
C1178 C 0.2735 0.95845 0.51526 0.0
C1179 C 0.26185 0.9347 0.49601 0.0
C1180 C 0.2695 0.92143 0.47859 0.0
C1181 C 0.28915 0.9327 0.48096 0.0
C1182 C 0.30075 0.95632 0.50055 0.0
H1183 H 0.32524 0.01374 0.40421 0.0
H1184 H 0.32925 0.99362 0.43815 0.0
H1185 H 0.30549 0.98618 0.40753 0.0
H1186 H 0.26715 0.96813 0.52845 0.0
H1187 H 0.24686 0.92676 0.49532 0.0
H1188 H 0.96846 0.17114 0.74407 0.0
H1189 H 0.99881 0.17861 0.71999 0.0
H1190 H 1.00296 0.23025 0.61271 0.0
H1191 H 0.97265 0.2231 0.63745 0.0
H1192 H 1.01018 0.17501 0.60296 0.0
H1193 H 0.05399 0.26435 0.73443 0.0
H1194 H 0.03004 0.24577 0.74471 0.0
H1195 H 0.03467 0.25882 0.6727 0.0
C1196 C 0.97579 0.18417 0.71549 0.0
C1197 C 0.96796 0.19656 0.69309 0.0
C1198 C 0.99324 0.18842 0.70165 0.0
C1199 C 1.00353 0.20529 0.66534 0.0
C1200 C 0.99566 0.21751 0.64215 0.0
H1201 H 0.11237 0.25289 0.5363 0.0
H1202 H 0.08207 0.24683 0.55708 0.0
C1203 C 0.97817 0.21327 0.65598 0.0
C1204 C 0.02219 0.20959 0.65086 0.0
H1205 H 0.06913 0.25045 0.67098 0.0
C1206 C 0.02306 0.19152 0.61808 0.0
C1207 C 0.03914 0.23112 0.67014 0.0
C1208 C 0.03954 0.2511 0.70798 0.0
C1209 C 0.04013 0.19437 0.60349 0.0
C1210 C 0.05712 0.21584 0.62335 0.0
C1211 C 0.05624 0.23397 0.65563 0.0
C1212 C 0.07589 0.21974 0.61159 0.0
C1213 C 0.03968 0.17438 0.56542 0.0
C1214 C 0.08295 0.20693 0.6362 0.0
C1215 C 0.10037 0.21039 0.62453 0.0
C1216 C 0.11142 0.22696 0.58829 0.0
C1217 C 0.10448 0.24011 0.56487 0.0
C1218 C 0.08702 0.23658 0.57649 0.0
H1219 H 0.02532 0.16156 0.53715 0.0
H1220 H 0.04964 0.17977 0.53025 0.0
H1221 H 0.04382 0.16606 0.6008 0.0
H1222 H 0.07505 0.19428 0.66511 0.0
H1223 H 0.10528 0.20023 0.64482 0.0
H1224 H 0.354 0.17986 0.74987 0.0
H1225 H 0.33 0.18932 0.72177 0.0
H1226 H 0.363 0.23169 0.59125 0.0
H1227 H 0.38676 0.22188 0.61782 0.0
H1228 H 0.33067 0.22814 0.73908 0.0
H1229 H 0.31298 0.19572 0.46917 0.0
H1230 H 0.3272 0.18976 0.52536 0.0
H1231 H 0.33763 0.21632 0.49646 0.0
C1232 C 0.35613 0.19107 0.71475 0.0
C1233 C 0.3724 0.19992 0.68589 0.0
C1234 C 0.34233 0.19653 0.69874 0.0
C1235 C 0.34429 0.21094 0.65315 0.0
C1236 C 0.36067 0.22002 0.62501 0.0
H1237 H 0.28805 0.27839 0.51302 0.0
H1238 H 0.30792 0.26291 0.53629 0.0
C1239 C 0.37442 0.2145 0.64076 0.0
C1240 C 0.32957 0.21695 0.6366 0.0
H1241 H 0.30175 0.21941 0.50717 0.0
C1242 C 0.32423 0.22597 0.68832 0.0
C1243 C 0.32092 0.21416 0.57043 0.0
C1244 C 0.32481 0.20325 0.51224 0.0
C1245 C 0.3112 0.23292 0.67581 0.0
C1246 C 0.30291 0.23061 0.60962 0.0
C1247 C 0.30802 0.22129 0.55796 0.0
C1248 C 0.28977 0.2389 0.59278 0.0
C1249 C 0.30693 0.24349 0.7337 0.0
C1250 C 0.27244 0.23025 0.61493 0.0
C1251 C 0.26081 0.23903 0.6011 0.0
C1252 C 0.26623 0.25677 0.56492 0.0
C1253 C 0.28329 0.26481 0.54114 0.0
C1254 C 0.29478 0.25594 0.55449 0.0
H1255 H 0.31739 0.24858 0.77978 0.0
H1256 H 0.30674 0.25863 0.72282 0.0
H1257 H 0.2928 0.23102 0.74298 0.0
H1258 H 0.26796 0.21681 0.64349 0.0
H1259 H 0.24787 0.23242 0.62055 0.0
H1260 H 0.80453 0.93276 0.35419 0.0
H1261 H 0.8251 0.97263 0.40699 0.0
H1262 H 0.77759 0.98126 0.38372 0.0
H1263 H 0.75682 0.94125 0.33245 0.0
H1264 H 0.83504 0.01253 0.37061 0.0
H1265 H 0.79694 1.00376 0.57969 0.0
H1266 H 0.79233 0.97963 0.52138 0.0
H1267 H 0.78223 0.99605 0.50011 0.0
C1268 C 0.79842 0.94312 0.35977 0.0
C1269 C 0.77889 0.93356 0.33937 0.0
C1270 C 0.81025 0.96601 0.39016 0.0
C1271 C 0.80293 0.98001 0.40102 0.0
C1272 C 0.78359 0.97078 0.37789 0.0
H1273 H 0.87628 0.12868 0.53345 0.0
H1274 H 0.85452 0.09077 0.46697 0.0
C1275 C 0.77171 0.94784 0.34795 0.0
C1276 C 0.81546 1.00401 0.43768 0.0
H1277 H 0.82116 0.04085 0.57421 0.0
C1278 C 0.83196 0.01874 0.41499 0.0
C1279 C 0.81172 0.01216 0.49645 0.0
C1280 C 0.79496 0.99704 0.52632 0.0
C1281 C 0.84469 0.04119 0.44902 0.0
C1282 C 0.84074 0.04946 0.50707 0.0
C1283 C 0.82422 0.03473 0.52961 0.0
C1284 C 0.85391 0.07285 0.54719 0.0
C1285 C 0.8626 0.05552 0.42371 0.0
C1286 C 0.86043 0.07576 0.61531 0.0
C1287 C 0.87264 0.09748 0.65376 0.0
C1288 C 0.87879 0.11695 0.62514 0.0
C1289 C 0.87214 0.11409 0.55705 0.0
C1290 C 0.85973 0.09233 0.51873 0.0
H1291 H 0.86582 0.04503 0.38979 0.0
H1292 H 0.861 0.06734 0.39565 0.0
H1293 H 0.87478 0.06571 0.46534 0.0
H1294 H 0.85616 0.06115 0.63887 0.0
H1295 H 0.87739 0.09896 0.70596 0.0
H1296 H 0.95532 0.69494 0.5704 0.0
H1297 H 0.98532 0.71028 0.53111 0.0
H1298 H 0.01482 0.75331 0.72231 0.0
H1299 H 0.98504 0.73781 0.76231 0.0
H1300 H 1.0115 0.75337 0.51961 0.0
H1301 H 0.04453 0.7233 0.69536 0.0
H1302 H 0.01972 0.71331 0.68352 0.0
H1303 H 0.0367 0.74005 0.73654 0.0
C1304 C 0.96819 0.70768 0.60414 0.0
C1305 C 0.96772 0.71507 0.6697 0.0
C1306 C 0.98536 0.71642 0.58158 0.0
C1307 C 1.00245 0.73267 0.62403 0.0
C1308 C 1.00194 0.74037 0.68903 0.0
H1309 H 0.12061 0.81428 0.60027 0.0
H1310 H 0.08956 0.79537 0.63178 0.0
C1311 C 0.98483 0.73158 0.71173 0.0
C1312 C 0.02076 0.74199 0.60019 0.0
H1313 H 0.06499 0.75072 0.63608 0.0
C1314 C 0.02314 0.75262 0.54473 0.0
C1315 C 0.03599 0.74094 0.63265 0.0
C1316 C 0.03408 0.72858 0.68988 0.0
C1317 C 0.04046 0.76293 0.52246 0.0
C1318 C 0.05583 0.76235 0.55595 0.0
C1319 C 0.05332 0.75135 0.61063 0.0
C1320 C 0.07474 0.77349 0.53622 0.0
C1321 C 0.0423 0.77499 0.46456 0.0
C1322 C 0.07692 0.76728 0.47228 0.0
C1323 C 0.09471 0.77809 0.45409 0.0
C1324 C 0.11081 0.79523 0.49962 0.0
C1325 C 0.10862 0.80105 0.56405 0.0
C1326 C 0.09082 0.7903 0.58209 0.0
H1327 H 0.03113 0.77903 0.45586 0.0
H1328 H 0.05627 0.79097 0.47255 0.0
H1329 H 0.0409 0.76387 0.41901 0.0
H1330 H 0.06487 0.75396 0.43644 0.0
H1331 H 0.09588 0.77285 0.40446 0.0
loop_
_geom_bond_atom_site_label_1
_geom_bond_atom_site_label_2
_geom_bond_distance
_geom_bond_site_symmetry_2
_ccdc_geom_bond_type
Eu0 C9 2.828 . S
Eu0 O11 2.392 . S
Eu0 O13 2.418 1_554 S
Eu0 O18 2.373 . S
Eu0 O21 2.488 . S
Eu0 O22 2.471 . S
Eu0 O23 2.349 . S
Eu1 O10 2.373 . S
Eu1 O14 2.488 1_455 S
Eu1 O15 2.471 1_554 S
Eu1 O16 2.349 1_554 S
Eu1 O19 2.392 . S
Eu1 O20 2.418 . S
Eu1 C30 2.828 1_455 S
C2 O20 1.244 . S
C2 O23 1.265 . S
C3 C4 1.379 . S
C3 C7 1.373 . S
C3 C9 1.505 . S
C4 C3 1.379 . S
C4 C6 1.369 . S
C4 H32 0.930 . S
C5 C7 1.383 . S
C5 C8 1.382 . S
C5 H33 0.930 . S
C6 C4 1.369 . S
C6 C8 1.392 . S
C6 H34 0.930 . S
C7 C3 1.373 . S
C7 C5 1.383 . S
C7 H35 0.931 . S
C8 C5 1.382 . S
C8 C6 1.392 . S
C9 Eu0 2.828 . S
C9 C3 1.505 . S
C9 O21 1.249 . S
C9 O22 1.244 . S
O10 Eu1 2.373 . S
O10 C12 1.258 . S
O11 Eu0 2.392 . S
O11 C12 1.242 . S
C12 O10 1.258 . S
C12 O11 1.242 . S
O13 Eu0 2.418 1_556 S
O13 C17 1.244 . S
O14 Eu1 2.488 1_655 S
O14 C30 1.249 . S
O15 Eu1 2.471 1_556 S
O15 C30 1.244 1_456 S
O16 Eu1 2.349 1_556 S
O16 C17 1.265 . S
C17 O13 1.244 . S
C17 O16 1.265 . S
O18 Eu0 2.373 . S
O18 C31 1.258 . S
O19 Eu1 2.392 . S
O19 C31 1.242 . S
O20 Eu1 2.418 . S
O20 C2 1.244 . S
O21 Eu0 2.488 . S
O21 C9 1.249 . S
O22 Eu0 2.471 . S
O22 C9 1.244 . S
O23 Eu0 2.349 . S
O23 C2 1.265 . S
C24 C25 1.379 1_554 S
C24 C28 1.373 . S
C24 C30 1.505 . S
C25 C24 1.379 1_556 S
C25 C27 1.369 . S
C25 H36 0.930 1_655 S
C26 C28 1.383 . S
C26 C29 1.382 1_554 S
C26 H37 0.930 . S
C27 C25 1.369 . S
C27 C29 1.392 . S
C27 H38 0.930 . S
C28 C24 1.373 . S
C28 C26 1.383 . S
C28 H39 0.931 . S
C29 C26 1.382 1_556 S
C29 C27 1.392 . S
C30 Eu1 2.828 1_655 S
C30 O14 1.249 . S
C30 O15 1.244 1_654 S
C30 C24 1.505 . S
C31 O18 1.258 . S
C31 O19 1.242 . S
H32 C4 0.930 . S
H33 C5 0.930 . S
H34 C6 0.930 . S
H35 C7 0.931 . S
H36 C25 0.930 1_455 S
H37 C26 0.930 . S
H38 C27 0.930 . S
H39 C28 0.931 . S
Eu40 C49 2.828 . S
Eu40 O51 2.392 . S
Eu40 O53 2.418 . S
Eu40 O58 2.373 . S
Eu40 O61 2.488 . S
Eu40 O62 2.471 . S
Eu40 O63 2.349 . S
Eu41 O50 2.373 . S
Eu41 O54 2.488 . S
Eu41 O55 2.471 . S
Eu41 O56 2.349 . S
Eu41 O59 2.392 . S
Eu41 O60 2.418 1_554 S
Eu41 C70 2.828 . S
C42 O60 1.244 . S
C42 O63 1.265 1_556 S
C43 C44 1.379 . S
C43 C47 1.373 . S
C43 C49 1.505 . S
C44 C43 1.379 . S
C44 C46 1.369 . S
C44 H72 0.930 . S
C45 C47 1.383 . S
C45 C48 1.382 . S
C45 H73 0.930 . S
C46 C44 1.369 . S
C46 C48 1.392 . S
C46 H74 0.930 . S
C47 C43 1.373 . S
C47 C45 1.383 . S
C47 H75 0.931 . S
C48 C45 1.382 . S
C48 C46 1.392 . S
C49 Eu40 2.828 . S
C49 C43 1.505 . S
C49 O61 1.249 . S
C49 O62 1.244 . S
O50 Eu41 2.373 . S
O50 C52 1.258 . S
O51 Eu40 2.392 . S
O51 C52 1.242 . S
C52 O50 1.258 . S
C52 O51 1.242 . S
O53 Eu40 2.418 . S
O53 C57 1.244 . S
O54 Eu41 2.488 . S
O54 C70 1.249 . S
O55 Eu41 2.471 . S
O55 C70 1.244 . S
O56 Eu41 2.349 . S
O56 C57 1.265 . S
C57 O53 1.244 . S
C57 O56 1.265 . S
O58 Eu40 2.373 . S
O58 C71 1.258 . S
O59 Eu41 2.392 . S
O59 C71 1.242 . S
O60 Eu41 2.418 1_556 S
O60 C42 1.244 . S
O61 Eu40 2.488 . S
O61 C49 1.249 . S
O62 Eu40 2.471 . S
O62 C49 1.244 . S
O63 Eu40 2.349 . S
O63 C42 1.265 1_554 S
C64 C65 1.379 . S
C64 C68 1.373 . S
C64 C70 1.505 . S
C65 C64 1.379 . S
C65 C67 1.369 . S
C65 H76 0.930 . S
C66 C68 1.383 . S
C66 C69 1.382 . S
C66 H77 0.930 . S
C67 C65 1.369 . S
C67 C69 1.392 . S
C67 H78 0.930 . S
C68 C64 1.373 . S
C68 C66 1.383 . S
C68 H79 0.931 . S
C69 C66 1.382 . S
C69 C67 1.392 . S
C70 Eu41 2.828 . S
C70 O54 1.249 . S
C70 O55 1.244 . S
C70 C64 1.505 . S
C71 O58 1.258 . S
C71 O59 1.242 . S
H72 C44 0.930 . S
H73 C45 0.930 . S
H74 C46 0.930 . S
H75 C47 0.931 . S
H76 C65 0.930 . S
H77 C66 0.930 . S
H78 C67 0.930 . S
H79 C68 0.931 . S
Eu80 C89 2.828 . S
Eu80 O91 2.392 . S
Eu80 O93 2.418 . S
Eu80 O98 2.373 . S
Eu80 O101 2.488 . S
Eu80 O102 2.471 . S
Eu80 O103 2.349 . S
Eu81 O90 2.373 . S
Eu81 O94 2.488 . S
Eu81 O95 2.471 . S
Eu81 O96 2.349 . S
Eu81 O99 2.392 . S
Eu81 O100 2.418 . S
Eu81 C110 2.828 . S
C82 O100 1.244 . S
C82 O103 1.265 . S
C83 C84 1.379 . S
C83 C87 1.373 . S
C83 C89 1.505 . S
C84 C83 1.379 . S
C84 C86 1.369 . S
C84 H112 0.930 . S
C85 C87 1.383 . S
C85 C88 1.382 . S
C85 H113 0.930 . S
C86 C84 1.369 . S
C86 C88 1.392 . S
C86 H114 0.930 . S
C87 C83 1.373 . S
C87 C85 1.383 . S
C87 H115 0.931 . S
C88 C85 1.382 . S
C88 C86 1.392 . S
C89 Eu80 2.828 . S
C89 C83 1.505 . S
C89 O101 1.249 . S
C89 O102 1.244 . S
O90 Eu81 2.373 . S
O90 C92 1.258 . S
O91 Eu80 2.392 . S
O91 C92 1.242 . S
C92 O90 1.258 . S
C92 O91 1.242 . S
O93 Eu80 2.418 . S
O93 C97 1.244 . S
O94 Eu81 2.488 . S
O94 C110 1.249 . S
O95 Eu81 2.471 . S
O95 C110 1.244 . S
O96 Eu81 2.349 . S
O96 C97 1.265 . S
C97 O93 1.244 . S
C97 O96 1.265 . S
O98 Eu80 2.373 . S
O98 C111 1.258 . S
O99 Eu81 2.392 . S
O99 C111 1.242 . S
O100 Eu81 2.418 . S
O100 C82 1.244 . S
O101 Eu80 2.488 . S
O101 C89 1.249 . S
O102 Eu80 2.471 . S
O102 C89 1.244 . S
O103 Eu80 2.349 . S
O103 C82 1.265 . S
C104 C105 1.379 . S
C104 C108 1.373 . S
C104 C110 1.505 . S
C105 C104 1.379 . S
C105 C107 1.369 . S
C105 H116 0.930 . S
C106 C108 1.383 . S
C106 C109 1.382 . S
C106 H117 0.930 . S
C107 C105 1.369 . S
C107 C109 1.392 . S
C107 H118 0.930 . S
C108 C104 1.373 . S
C108 C106 1.383 . S
C108 H119 0.931 . S
C109 C106 1.382 . S
C109 C107 1.392 . S
C110 Eu81 2.828 . S
C110 O94 1.249 . S
C110 O95 1.244 . S
C110 C104 1.505 . S
C111 O98 1.258 . S
C111 O99 1.242 . S
H112 C84 0.930 . S
H113 C85 0.930 . S
H114 C86 0.930 . S
H115 C87 0.931 . S
H116 C105 0.930 . S
H117 C106 0.930 . S
H118 C107 0.930 . S
H119 C108 0.931 . S
Eu120 C129 2.828 . S
Eu120 O131 2.392 . S
Eu120 O133 2.418 . S
Eu120 O138 2.373 . S
Eu120 O141 2.488 . S
Eu120 O142 2.471 . S
Eu120 O143 2.349 . S
Eu121 O130 2.373 . S
Eu121 O134 2.488 . S
Eu121 O135 2.471 . S
Eu121 O136 2.349 . S
Eu121 O139 2.392 . S
Eu121 O140 2.418 . S
Eu121 C150 2.828 . S
C122 O140 1.244 . S
C122 O143 1.265 . S
C123 C124 1.379 . S
C123 C127 1.373 . S
C123 C129 1.505 . S
C124 C123 1.379 . S
C124 C126 1.369 . S
C124 H152 0.930 . S
C125 C127 1.383 . S
C125 C128 1.382 . S
C125 H153 0.930 . S
C126 C124 1.369 . S
C126 C128 1.392 . S
C126 H154 0.930 . S
C127 C123 1.373 . S
C127 C125 1.383 . S
C127 H155 0.931 . S
C128 C125 1.382 . S
C128 C126 1.392 . S
C129 Eu120 2.828 . S
C129 C123 1.505 . S
C129 O141 1.249 . S
C129 O142 1.244 . S
O130 Eu121 2.373 . S
O130 C132 1.258 . S
O131 Eu120 2.392 . S
O131 C132 1.242 . S
C132 O130 1.258 . S
C132 O131 1.242 . S
O133 Eu120 2.418 . S
O133 C137 1.244 . S
O134 Eu121 2.488 . S
O134 C150 1.249 . S
O135 Eu121 2.471 . S
O135 C150 1.244 . S
O136 Eu121 2.349 . S
O136 C137 1.265 . S
C137 O133 1.244 . S
C137 O136 1.265 . S
O138 Eu120 2.373 . S
O138 C151 1.258 . S
O139 Eu121 2.392 . S
O139 C151 1.242 . S
O140 Eu121 2.418 . S
O140 C122 1.244 . S
O141 Eu120 2.488 . S
O141 C129 1.249 . S
O142 Eu120 2.471 . S
O142 C129 1.244 . S
O143 Eu120 2.349 . S
O143 C122 1.265 . S
C144 C145 1.379 . S
C144 C148 1.373 . S
C144 C150 1.505 . S
C145 C144 1.379 . S
C145 C147 1.369 . S
C145 H156 0.930 . S
C146 C148 1.383 . S
C146 C149 1.382 . S
C146 H157 0.930 . S
C147 C145 1.369 . S
C147 C149 1.392 . S
C147 H158 0.930 . S
C148 C144 1.373 . S
C148 C146 1.383 . S
C148 H159 0.931 . S
C149 C146 1.382 . S
C149 C147 1.392 . S
C150 Eu121 2.828 . S
C150 O134 1.249 . S
C150 O135 1.244 . S
C150 C144 1.505 . S
C151 O138 1.258 . S
C151 O139 1.242 . S
H152 C124 0.930 . S
H153 C125 0.930 . S
H154 C126 0.930 . S
H155 C127 0.931 . S
H156 C145 0.930 . S
H157 C146 0.930 . S
H158 C147 0.930 . S
H159 C148 0.931 . S
Eu160 C169 2.828 . S
Eu160 O171 2.392 . S
Eu160 O173 2.418 . S
Eu160 O178 2.373 . S
Eu160 O181 2.488 . S
Eu160 O182 2.471 . S
Eu160 O183 2.349 . S
Eu161 O170 2.373 . S
Eu161 O174 2.488 . S
Eu161 O175 2.471 . S
Eu161 O176 2.349 . S
Eu161 O179 2.392 . S
Eu161 O180 2.418 . S
Eu161 C190 2.828 . S
C162 O180 1.244 . S
C162 O183 1.265 . S
C163 C164 1.379 . S
C163 C167 1.373 . S
C163 C169 1.505 . S
C164 C163 1.379 . S
C164 C166 1.369 . S
C164 H192 0.930 . S
C165 C167 1.383 . S
C165 C168 1.382 . S
C165 H193 0.930 . S
C166 C164 1.369 . S
C166 C168 1.392 . S
C166 H194 0.930 . S
C167 C163 1.373 . S
C167 C165 1.383 . S
C167 H195 0.931 . S
C168 C165 1.382 . S
C168 C166 1.392 . S
C169 Eu160 2.828 . S
C169 C163 1.505 . S
C169 O181 1.249 . S
C169 O182 1.244 . S
O170 Eu161 2.373 . S
O170 C172 1.258 . S
O171 Eu160 2.392 . S
O171 C172 1.242 . S
C172 O170 1.258 . S
C172 O171 1.242 . S
O173 Eu160 2.418 . S
O173 C177 1.244 . S
O174 Eu161 2.488 . S
O174 C190 1.249 . S
O175 Eu161 2.471 . S
O175 C190 1.244 . S
O176 Eu161 2.349 . S
O176 C177 1.265 . S
C177 O173 1.244 . S
C177 O176 1.265 . S
O178 Eu160 2.373 . S
O178 C191 1.258 . S
O179 Eu161 2.392 . S
O179 C191 1.242 . S
O180 Eu161 2.418 . S
O180 C162 1.244 . S
O181 Eu160 2.488 . S
O181 C169 1.249 . S
O182 Eu160 2.471 . S
O182 C169 1.244 . S
O183 Eu160 2.349 . S
O183 C162 1.265 . S
C184 C185 1.379 . S
C184 C188 1.373 . S
C184 C190 1.505 . S
C185 C184 1.379 . S
C185 C187 1.369 . S
C185 H196 0.930 . S
C186 C188 1.383 . S
C186 C189 1.382 . S
C186 H197 0.930 . S
C187 C185 1.369 . S
C187 C189 1.392 . S
C187 H198 0.930 . S
C188 C184 1.373 . S
C188 C186 1.383 . S
C188 H199 0.931 . S
C189 C186 1.382 . S
C189 C187 1.392 . S
C190 Eu161 2.828 . S
C190 O174 1.249 . S
C190 O175 1.244 . S
C190 C184 1.505 . S
C191 O178 1.258 . S
C191 O179 1.242 . S
H192 C164 0.930 . S
H193 C165 0.930 . S
H194 C166 0.930 . S
H195 C167 0.931 . S
H196 C185 0.930 . S
H197 C186 0.930 . S
H198 C187 0.930 . S
H199 C188 0.931 . S
Eu200 C209 2.828 . S
Eu200 O211 2.392 . S
Eu200 O213 2.418 . S
Eu200 O218 2.373 . S
Eu200 O221 2.488 . S
Eu200 O222 2.471 . S
Eu200 O223 2.349 . S
Eu201 O210 2.373 . S
Eu201 O214 2.488 . S
Eu201 O215 2.471 . S
Eu201 O216 2.349 . S
Eu201 O219 2.392 . S
Eu201 O220 2.418 . S
Eu201 C230 2.828 . S
C202 O220 1.244 . S
C202 O223 1.265 . S
C203 C204 1.379 . S
C203 C207 1.373 . S
C203 C209 1.505 . S
C204 C203 1.379 . S
C204 C206 1.369 . S
C204 H232 0.930 . S
C205 C207 1.383 . S
C205 C208 1.382 . S
C205 H233 0.930 . S
C206 C204 1.369 . S
C206 C208 1.392 . S
C206 H234 0.930 . S
C207 C203 1.373 . S
C207 C205 1.383 . S
C207 H235 0.931 . S
C208 C205 1.382 . S
C208 C206 1.392 . S
C209 Eu200 2.828 . S
C209 C203 1.505 . S
C209 O221 1.249 . S
C209 O222 1.244 . S
O210 Eu201 2.373 . S
O210 C212 1.258 . S
O211 Eu200 2.392 . S
O211 C212 1.242 . S
C212 O210 1.258 . S
C212 O211 1.242 . S
O213 Eu200 2.418 . S
O213 C217 1.244 . S
O214 Eu201 2.488 . S
O214 C230 1.249 . S
O215 Eu201 2.471 . S
O215 C230 1.244 . S
O216 Eu201 2.349 . S
O216 C217 1.265 . S
C217 O213 1.244 . S
C217 O216 1.265 . S
O218 Eu200 2.373 . S
O218 C231 1.258 . S
O219 Eu201 2.392 . S
O219 C231 1.242 . S
O220 Eu201 2.418 . S
O220 C202 1.244 . S
O221 Eu200 2.488 . S
O221 C209 1.249 . S
O222 Eu200 2.471 . S
O222 C209 1.244 . S
O223 Eu200 2.349 . S
O223 C202 1.265 . S
C224 C225 1.379 . S
C224 C228 1.373 . S
C224 C230 1.505 . S
C225 C224 1.379 . S
C225 C227 1.369 . S
C225 H236 0.930 . S
C226 C228 1.383 . S
C226 C229 1.382 . S
C226 H237 0.930 . S
C227 C225 1.369 . S
C227 C229 1.392 . S
C227 H238 0.930 . S
C228 C224 1.373 . S
C228 C226 1.383 . S
C228 H239 0.931 . S
C229 C226 1.382 . S
C229 C227 1.392 . S
C230 Eu201 2.828 . S
C230 O214 1.249 . S
C230 O215 1.244 . S
C230 C224 1.505 . S
C231 O218 1.258 . S
C231 O219 1.242 . S
H232 C204 0.930 . S
H233 C205 0.930 . S
H234 C206 0.930 . S
H235 C207 0.931 . S
H236 C225 0.930 . S
H237 C226 0.930 . S
H238 C227 0.930 . S
H239 C228 0.931 . S
Eu240 C249 2.828 . S
Eu240 O251 2.392 . S
Eu240 O253 2.418 . S
Eu240 O258 2.373 . S
Eu240 O261 2.488 . S
Eu240 O262 2.471 . S
Eu240 O263 2.349 . S
Eu241 O250 2.373 . S
Eu241 O254 2.488 . S
Eu241 O255 2.471 . S
Eu241 O256 2.349 . S
Eu241 O259 2.392 . S
Eu241 O260 2.418 . S
Eu241 C270 2.828 . S
C242 O260 1.244 . S
C242 O263 1.265 . S
C243 C244 1.379 . S
C243 C247 1.373 . S
C243 C249 1.505 . S
C244 C243 1.379 . S
C244 C246 1.369 . S
C244 H272 0.930 . S
C245 C247 1.383 . S
C245 C248 1.382 . S
C245 H273 0.930 . S
C246 C244 1.369 . S
C246 C248 1.392 . S
C246 H274 0.930 . S
C247 C243 1.373 . S
C247 C245 1.383 . S
C247 H275 0.931 . S
C248 C245 1.382 . S
C248 C246 1.392 . S
C249 Eu240 2.828 . S
C249 C243 1.505 . S
C249 O261 1.249 . S
C249 O262 1.244 . S
O250 Eu241 2.373 . S
O250 C252 1.258 . S
O251 Eu240 2.392 . S
O251 C252 1.242 . S
C252 O250 1.258 . S
C252 O251 1.242 . S
O253 Eu240 2.418 . S
O253 C257 1.244 . S
O254 Eu241 2.488 . S
O254 C270 1.249 . S
O255 Eu241 2.471 . S
O255 C270 1.244 . S
O256 Eu241 2.349 . S
O256 C257 1.265 . S
C257 O253 1.244 . S
C257 O256 1.265 . S
O258 Eu240 2.373 . S
O258 C271 1.258 . S
O259 Eu241 2.392 . S
O259 C271 1.242 . S
O260 Eu241 2.418 . S
O260 C242 1.244 . S
O261 Eu240 2.488 . S
O261 C249 1.249 . S
O262 Eu240 2.471 . S
O262 C249 1.244 . S
O263 Eu240 2.349 . S
O263 C242 1.265 . S
C264 C265 1.379 . S
C264 C268 1.373 . S
C264 C270 1.505 . S
C265 C264 1.379 . S
C265 C267 1.369 1_556 S
C265 H276 0.930 . S
C266 C268 1.383 1_554 S
C266 C269 1.382 . S
C266 H277 0.930 . S
C267 C265 1.369 1_554 S
C267 C269 1.392 . S
C267 H278 0.930 . S
C268 C264 1.373 . S
C268 C266 1.383 1_556 S
C268 H279 0.931 . S
C269 C266 1.382 . S
C269 C267 1.392 . S
C270 Eu241 2.828 . S
C270 O254 1.249 . S
C270 O255 1.244 . S
C270 C264 1.505 . S
C271 O258 1.258 . S
C271 O259 1.242 . S
H272 C244 0.930 . S
H273 C245 0.930 . S
H274 C246 0.930 . S
H275 C247 0.931 . S
H276 C265 0.930 . S
H277 C266 0.930 . S
H278 C267 0.930 . S
H279 C268 0.931 . S
Eu280 C289 2.828 . S
Eu280 O291 2.392 . S
Eu280 O293 2.418 . S
Eu280 O298 2.373 . S
Eu280 O301 2.488 . S
Eu280 O302 2.471 . S
Eu280 O303 2.349 . S
Eu281 O290 2.373 . S
Eu281 O294 2.488 . S
Eu281 O295 2.471 . S
Eu281 O296 2.349 . S
Eu281 O299 2.392 . S
Eu281 O300 2.418 . S
Eu281 C310 2.828 . S
C282 O300 1.244 . S
C282 O303 1.265 . S
C283 C284 1.379 . S
C283 C287 1.373 . S
C283 C289 1.505 . S
C284 C283 1.379 . S
C284 C286 1.369 1_556 S
C284 H312 0.930 . S
C285 C287 1.383 1_554 S
C285 C288 1.382 . S
C285 H313 0.930 . S
C286 C284 1.369 1_554 S
C286 C288 1.392 . S
C286 H314 0.930 . S
C287 C283 1.373 . S
C287 C285 1.383 1_556 S
C287 H315 0.931 . S
C288 C285 1.382 . S
C288 C286 1.392 . S
C289 Eu280 2.828 . S
C289 C283 1.505 . S
C289 O301 1.249 . S
C289 O302 1.244 . S
O290 Eu281 2.373 . S
O290 C292 1.258 . S
O291 Eu280 2.392 . S
O291 C292 1.242 . S
C292 O290 1.258 . S
C292 O291 1.242 . S
O293 Eu280 2.418 . S
O293 C297 1.244 . S
O294 Eu281 2.488 . S
O294 C310 1.249 . S
O295 Eu281 2.471 . S
O295 C310 1.244 . S
O296 Eu281 2.349 . S
O296 C297 1.265 . S
C297 O293 1.244 . S
C297 O296 1.265 . S
O298 Eu280 2.373 . S
O298 C311 1.258 . S
O299 Eu281 2.392 . S
O299 C311 1.242 . S
O300 Eu281 2.418 . S
O300 C282 1.244 . S
O301 Eu280 2.488 . S
O301 C289 1.249 . S
O302 Eu280 2.471 . S
O302 C289 1.244 . S
O303 Eu280 2.349 . S
O303 C282 1.265 . S
C304 C305 1.379 . S
C304 C308 1.373 . S
C304 C310 1.505 . S
C305 C304 1.379 . S
C305 C307 1.369 . S
C305 H316 0.930 . S
C306 C308 1.383 . S
C306 C309 1.382 . S
C306 H317 0.930 . S
C307 C305 1.369 . S
C307 C309 1.392 . S
C307 H318 0.930 . S
C308 C304 1.373 . S
C308 C306 1.383 . S
C308 H319 0.931 . S
C309 C306 1.382 . S
C309 C307 1.392 . S
C310 Eu281 2.828 . S
C310 O294 1.249 . S
C310 O295 1.244 . S
C310 C304 1.505 . S
C311 O298 1.258 . S
C311 O299 1.242 . S
H312 C284 0.930 . S
H313 C285 0.930 . S
H314 C286 0.930 . S
H315 C287 0.931 . S
H316 C305 0.930 . S
H317 C306 0.930 . S
H318 C307 0.930 . S
H319 C308 0.931 . S
Eu320 C329 2.828 . S
Eu320 O331 2.392 . S
Eu320 O333 2.418 . S
Eu320 O338 2.373 . S
Eu320 O341 2.488 . S
Eu320 O342 2.471 . S
Eu320 O343 2.349 . S
Eu321 O330 2.373 . S
Eu321 O334 2.488 . S
Eu321 O335 2.471 . S
Eu321 O336 2.349 . S
Eu321 O339 2.392 . S
Eu321 O340 2.418 . S
Eu321 C350 2.828 . S
C322 O340 1.244 . S
C322 O343 1.265 . S
C323 C324 1.379 . S
C323 C327 1.373 . S
C323 C329 1.505 . S
C324 C323 1.379 . S
C324 C326 1.369 . S
C324 H352 0.930 . S
C325 C327 1.383 . S
C325 C328 1.382 . S
C325 H353 0.930 . S
C326 C324 1.369 . S
C326 C328 1.392 . S
C326 H354 0.930 . S
C327 C323 1.373 . S
C327 C325 1.383 . S
C327 H355 0.931 . S
C328 C325 1.382 . S
C328 C326 1.392 . S
C329 Eu320 2.828 . S
C329 C323 1.505 . S
C329 O341 1.249 . S
C329 O342 1.244 . S
O330 Eu321 2.373 . S
O330 C332 1.258 . S
O331 Eu320 2.392 . S
O331 C332 1.242 . S
C332 O330 1.258 . S
C332 O331 1.242 . S
O333 Eu320 2.418 . S
O333 C337 1.244 . S
O334 Eu321 2.488 . S
O334 C350 1.249 . S
O335 Eu321 2.471 . S
O335 C350 1.244 . S
O336 Eu321 2.349 . S
O336 C337 1.265 . S
C337 O333 1.244 . S
C337 O336 1.265 . S
O338 Eu320 2.373 . S
O338 C351 1.258 . S
O339 Eu321 2.392 . S
O339 C351 1.242 . S
O340 Eu321 2.418 . S
O340 C322 1.244 . S
O341 Eu320 2.488 . S
O341 C329 1.249 . S
O342 Eu320 2.471 . S
O342 C329 1.244 . S
O343 Eu320 2.349 . S
O343 C322 1.265 . S
C344 C345 1.379 . S
C344 C348 1.373 . S
C344 C350 1.505 . S
C345 C344 1.379 . S
C345 C347 1.369 1_556 S
C345 H356 0.930 . S
C346 C348 1.383 1_554 S
C346 C349 1.382 . S
C346 H357 0.930 . S
C347 C345 1.369 1_554 S
C347 C349 1.392 . S
C347 H358 0.930 . S
C348 C344 1.373 . S
C348 C346 1.383 1_556 S
C348 H359 0.931 . S
C349 C346 1.382 . S
C349 C347 1.392 . S
C350 Eu321 2.828 . S
C350 O334 1.249 . S
C350 O335 1.244 . S
C350 C344 1.505 . S
C351 O338 1.258 . S
C351 O339 1.242 . S
H352 C324 0.930 . S
H353 C325 0.930 . S
H354 C326 0.930 . S
H355 C327 0.931 . S
H356 C345 0.930 . S
H357 C346 0.930 . S
H358 C347 0.930 . S
H359 C348 0.931 . S
H360 C368 0.929 . S
H361 C370 0.930 . S
H362 C372 0.930 . S
H363 C375 0.929 . S
H364 C378 0.930 . S
H365 C380 0.960 . S
H366 C380 0.960 . S
H367 C380 0.960 . S
C368 H360 0.929 . S
C368 C369 1.377 . S
C368 C370 1.384 . S
C369 C368 1.377 . S
C369 C375 1.390 . S
C370 H361 0.930 . S
C370 C368 1.384 . S
C370 C371 1.372 . S
C371 C370 1.372 . S
C371 C372 1.400 . S
C371 C376 1.490 . S
C372 H362 0.930 . S
C372 C371 1.400 . S
C372 C375 1.386 . S
H373 C389 0.930 . S
H374 C390 0.931 . S
C375 H363 0.929 . S
C375 C369 1.390 . S
C375 C372 1.386 . S
C376 C371 1.490 . S
C376 C378 1.395 . S
C376 C379 1.403 . S
H377 C383 0.930 . S
C378 H364 0.930 . S
C378 C376 1.395 . S
C378 C381 1.403 . S
C379 C376 1.403 . S
C379 C380 1.524 . S
C379 C383 1.400 . S
C380 H365 0.960 . S
C380 H366 0.960 . S
C380 H367 0.960 . S
C380 C379 1.524 . S
C381 C378 1.403 . S
C381 C382 1.392 . S
C381 C385 1.495 . S
C382 C381 1.392 . S
C382 C383 1.385 . S
C382 C384 1.478 . S
C383 H377 0.930 . S
C383 C379 1.400 . S
C383 C382 1.385 . S
C384 C382 1.478 . S
C384 C386 1.381 . S
C384 C390 1.383 . S
C385 C381 1.495 . S
C385 H391 0.959 . S
C385 H392 0.961 . S
C385 H393 0.960 . S
C386 C384 1.381 . S
C386 C387 1.394 . S
C386 H394 0.930 . S
C387 C386 1.394 . S
C387 C388 1.383 . S
C387 H395 0.929 . S
C388 C387 1.383 . S
C388 C389 1.377 . S
C389 H373 0.930 . S
C389 C388 1.377 . S
C389 C390 1.379 . S
C390 H374 0.931 . S
C390 C384 1.383 . S
C390 C389 1.379 . S
H391 C385 0.959 . S
H392 C385 0.961 . S
H393 C385 0.960 . S
H394 C386 0.930 . S
H395 C387 0.929 . S
H396 C404 0.929 . S
H397 C406 0.930 . S
H398 C408 0.930 . S
H399 C411 0.929 . S
H400 C414 0.930 . S
H401 C416 0.960 . S
H402 C416 0.960 . S
H403 C416 0.960 . S
C404 H396 0.929 . S
C404 C405 1.377 . S
C404 C406 1.384 . S
C405 C404 1.377 . S
C405 C411 1.390 . S
C406 H397 0.930 . S
C406 C404 1.384 . S
C406 C407 1.372 . S
C407 C406 1.372 . S
C407 C408 1.400 . S
C407 C412 1.490 . S
C408 H398 0.930 . S
C408 C407 1.400 . S
C408 C411 1.386 . S
H409 C425 0.930 . S
H410 C426 0.931 . S
C411 H399 0.929 . S
C411 C405 1.390 . S
C411 C408 1.386 . S
C412 C407 1.490 . S
C412 C414 1.395 . S
C412 C415 1.403 . S
H413 C419 0.930 . S
C414 H400 0.930 . S
C414 C412 1.395 . S
C414 C417 1.403 . S
C415 C412 1.403 . S
C415 C416 1.524 . S
C415 C419 1.400 . S
C416 H401 0.960 . S
C416 H402 0.960 . S
C416 H403 0.960 . S
C416 C415 1.524 . S
C417 C414 1.403 . S
C417 C418 1.392 . S
C417 C421 1.495 . S
C418 C417 1.392 . S
C418 C419 1.385 . S
C418 C420 1.478 . S
C419 H413 0.930 . S
C419 C415 1.400 . S
C419 C418 1.385 . S
C420 C418 1.478 . S
C420 C422 1.381 . S
C420 C426 1.383 . S
C421 C417 1.495 . S
C421 H427 0.959 . S
C421 H428 0.961 . S
C421 H429 0.960 . S
C422 C420 1.381 . S
C422 C423 1.394 . S
C422 H430 0.930 . S
C423 C422 1.394 . S
C423 C424 1.383 . S
C423 H431 0.929 . S
C424 C423 1.383 . S
C424 C425 1.377 . S
C425 H409 0.930 . S
C425 C424 1.377 . S
C425 C426 1.379 . S
C426 H410 0.931 . S
C426 C420 1.383 . S
C426 C425 1.379 . S
H427 C421 0.959 . S
H428 C421 0.961 . S
H429 C421 0.960 . S
H430 C422 0.930 . S
H431 C423 0.929 . S
H432 C440 0.929 . S
H433 C442 0.930 . S
H434 C444 0.930 . S
H435 C447 0.929 . S
H436 C450 0.930 . S
H437 C452 0.960 . S
H438 C452 0.960 . S
H439 C452 0.960 . S
C440 H432 0.929 . S
C440 C441 1.377 . S
C440 C442 1.384 . S
C441 C440 1.377 . S
C441 C447 1.390 . S
C442 H433 0.930 . S
C442 C440 1.384 . S
C442 C443 1.372 . S
C443 C442 1.372 . S
C443 C444 1.400 . S
C443 C448 1.490 . S
C444 H434 0.930 . S
C444 C443 1.400 . S
C444 C447 1.386 . S
H445 C461 0.930 . S
H446 C462 0.931 . S
C447 H435 0.929 . S
C447 C441 1.390 . S
C447 C444 1.386 . S
C448 C443 1.490 . S
C448 C450 1.395 . S
C448 C451 1.403 . S
H449 C455 0.930 . S
C450 H436 0.930 . S
C450 C448 1.395 . S
C450 C453 1.403 . S
C451 C448 1.403 . S
C451 C452 1.524 . S
C451 C455 1.400 . S
C452 H437 0.960 . S
C452 H438 0.960 . S
C452 H439 0.960 . S
C452 C451 1.524 . S
C453 C450 1.403 . S
C453 C454 1.392 . S
C453 C457 1.495 . S
C454 C453 1.392 . S
C454 C455 1.385 . S
C454 C456 1.478 . S
C455 H449 0.930 . S
C455 C451 1.400 . S
C455 C454 1.385 . S
C456 C454 1.478 . S
C456 C458 1.381 . S
C456 C462 1.383 . S
C457 C453 1.495 . S
C457 H463 0.959 . S
C457 H464 0.961 . S
C457 H465 0.960 . S
C458 C456 1.381 . S
C458 C459 1.394 . S
C458 H466 0.930 . S
C459 C458 1.394 . S
C459 C460 1.383 . S
C459 H467 0.929 . S
C460 C459 1.383 . S
C460 C461 1.377 . S
C461 H445 0.930 . S
C461 C460 1.377 . S
C461 C462 1.379 . S
C462 H446 0.931 . S
C462 C456 1.383 . S
C462 C461 1.379 . S
H463 C457 0.959 . S
H464 C457 0.961 . S
H465 C457 0.960 . S
H466 C458 0.930 . S
H467 C459 0.929 . S
H468 C476 0.929 . S
H469 C478 0.930 . S
H470 C480 0.930 . S
H471 C483 0.929 . S
H472 C486 0.930 . S
H473 C488 0.960 . S
H474 C488 0.960 . S
H475 C488 0.960 . S
C476 H468 0.929 . S
C476 C477 1.377 . S
C476 C478 1.384 . S
C477 C476 1.377 . S
C477 C483 1.390 . S
C478 H469 0.930 . S
C478 C476 1.384 . S
C478 C479 1.372 . S
C479 C478 1.372 . S
C479 C480 1.400 . S
C479 C484 1.490 . S
C480 H470 0.930 . S
C480 C479 1.400 . S
C480 C483 1.386 . S
H481 C497 0.930 . S
H482 C498 0.931 . S
C483 H471 0.929 . S
C483 C477 1.390 . S
C483 C480 1.386 . S
C484 C479 1.490 . S
C484 C486 1.395 . S
C484 C487 1.403 . S
H485 C491 0.930 . S
C486 H472 0.930 . S
C486 C484 1.395 . S
C486 C489 1.403 . S
C487 C484 1.403 . S
C487 C488 1.524 . S
C487 C491 1.400 . S
C488 H473 0.960 . S
C488 H474 0.960 . S
C488 H475 0.960 . S
C488 C487 1.524 . S
C489 C486 1.403 . S
C489 C490 1.392 . S
C489 C493 1.495 . S
C490 C489 1.392 . S
C490 C491 1.385 . S
C490 C492 1.478 . S
C491 H485 0.930 . S
C491 C487 1.400 . S
C491 C490 1.385 . S
C492 C490 1.478 . S
C492 C494 1.381 . S
C492 C498 1.383 . S
C493 C489 1.495 . S
C493 H499 0.959 . S
C493 H500 0.961 . S
C493 H501 0.960 . S
C494 C492 1.381 . S
C494 C495 1.394 1_556 S
C494 H502 0.930 . S
C495 C494 1.394 1_554 S
C495 C496 1.383 . S
C495 H503 0.929 . S
C496 C495 1.383 . S
C496 C497 1.377 . S
C497 H481 0.930 . S
C497 C496 1.377 . S
C497 C498 1.379 1_554 S
C498 H482 0.931 . S
C498 C492 1.383 . S
C498 C497 1.379 1_556 S
H499 C493 0.959 . S
H500 C493 0.961 . S
H501 C493 0.960 . S
H502 C494 0.930 . S
H503 C495 0.929 . S
H504 C512 0.929 . S
H505 C514 0.930 . S
H506 C516 0.930 . S
H507 C519 0.929 . S
H508 C522 0.930 . S
H509 C524 0.960 . S
H510 C524 0.960 . S
H511 C524 0.960 . S
C512 H504 0.929 . S
C512 C513 1.377 . S
C512 C514 1.384 . S
C513 C512 1.377 . S
C513 C519 1.390 . S
C514 H505 0.930 . S
C514 C512 1.384 . S
C514 C515 1.372 . S
C515 C514 1.372 . S
C515 C516 1.400 . S
C515 C520 1.490 . S
C516 H506 0.930 . S
C516 C515 1.400 . S
C516 C519 1.386 . S
H517 C533 0.930 1_554 S
H518 C534 0.931 . S
C519 H507 0.929 . S
C519 C513 1.390 . S
C519 C516 1.386 . S
C520 C515 1.490 . S
C520 C522 1.395 . S
C520 C523 1.403 . S
H521 C527 0.930 . S
C522 H508 0.930 . S
C522 C520 1.395 . S
C522 C525 1.403 . S
C523 C520 1.403 . S
C523 C524 1.524 . S
C523 C527 1.400 . S
C524 H509 0.960 . S
C524 H510 0.960 . S
C524 H511 0.960 . S
C524 C523 1.524 . S
C525 C522 1.403 . S
C525 C526 1.392 . S
C525 C529 1.495 . S
C526 C525 1.392 . S
C526 C527 1.385 . S
C526 C528 1.478 . S
C527 H521 0.930 . S
C527 C523 1.400 . S
C527 C526 1.385 . S
C528 C526 1.478 . S
C528 C530 1.381 . S
C528 C534 1.383 . S
C529 C525 1.495 . S
C529 H535 0.959 . S
C529 H536 0.961 . S
C529 H537 0.960 . S
C530 C528 1.381 . S
C530 C531 1.394 . S
C530 H538 0.930 . S
C531 C530 1.394 . S
C531 C532 1.383 1_556 S
C531 H539 0.929 . S
C532 C531 1.383 1_554 S
C532 C533 1.377 1_554 S
C533 H517 0.930 1_556 S
C533 C532 1.377 1_556 S
C533 C534 1.379 . S
C534 H518 0.931 . S
C534 C528 1.383 . S
C534 C533 1.379 . S
H535 C529 0.959 . S
H536 C529 0.961 . S
H537 C529 0.960 . S
H538 C530 0.930 . S
H539 C531 0.929 . S
H540 C548 0.929 . S
H541 C550 0.930 . S
H542 C552 0.930 . S
H543 C555 0.929 . S
H544 C558 0.930 . S
H545 C560 0.960 . S
H546 C560 0.960 . S
H547 C560 0.960 . S
C548 H540 0.929 . S
C548 C549 1.377 . S
C548 C550 1.384 . S
C549 C548 1.377 . S
C549 C555 1.390 . S
C550 H541 0.930 . S
C550 C548 1.384 . S
C550 C551 1.372 . S
C551 C550 1.372 . S
C551 C552 1.400 . S
C551 C556 1.490 . S
C552 H542 0.930 . S
C552 C551 1.400 . S
C552 C555 1.386 . S
H553 C569 0.930 . S
H554 C570 0.931 . S
C555 H543 0.929 . S
C555 C549 1.390 . S
C555 C552 1.386 . S
C556 C551 1.490 . S
C556 C558 1.395 . S
C556 C559 1.403 . S
H557 C563 0.930 . S
C558 H544 0.930 . S
C558 C556 1.395 . S
C558 C561 1.403 . S
C559 C556 1.403 . S
C559 C560 1.524 . S
C559 C563 1.400 . S
C560 H545 0.960 . S
C560 H546 0.960 . S
C560 H547 0.960 . S
C560 C559 1.524 . S
C561 C558 1.403 . S
C561 C562 1.392 . S
C561 C565 1.495 . S
C562 C561 1.392 . S
C562 C563 1.385 . S
C562 C564 1.478 . S
C563 H557 0.930 . S
C563 C559 1.400 . S
C563 C562 1.385 . S
C564 C562 1.478 . S
C564 C566 1.381 . S
C564 C570 1.383 . S
C565 C561 1.495 . S
C565 H571 0.959 . S
C565 H572 0.961 . S
C565 H573 0.960 . S
C566 C564 1.381 . S
C566 C567 1.394 . S
C566 H574 0.930 . S
C567 C566 1.394 . S
C567 C568 1.383 . S
C567 H575 0.929 . S
C568 C567 1.383 . S
C568 C569 1.377 . S
C569 H553 0.930 . S
C569 C568 1.377 . S
C569 C570 1.379 . S
C570 H554 0.931 . S
C570 C564 1.383 . S
C570 C569 1.379 . S
H571 C565 0.959 . S
H572 C565 0.961 . S
H573 C565 0.960 . S
H574 C566 0.930 . S
H575 C567 0.929 . S
H576 C584 0.929 . S
H577 C586 0.930 . S
H578 C588 0.930 . S
H579 C591 0.929 . S
H580 C594 0.930 . S
H581 C596 0.960 . S
H582 C596 0.960 . S
H583 C596 0.960 . S
C584 H576 0.929 . S
C584 C585 1.377 . S
C584 C586 1.384 . S
C585 C584 1.377 . S
C585 C591 1.390 . S
C586 H577 0.930 . S
C586 C584 1.384 . S
C586 C587 1.372 . S
C587 C586 1.372 . S
C587 C588 1.400 . S
C587 C592 1.490 . S
C588 H578 0.930 . S
C588 C587 1.400 . S
C588 C591 1.386 . S
H589 C605 0.930 . S
H590 C606 0.931 . S
C591 H579 0.929 . S
C591 C585 1.390 . S
C591 C588 1.386 . S
C592 C587 1.490 . S
C592 C594 1.395 . S
C592 C595 1.403 . S
H593 C599 0.930 . S
C594 H580 0.930 . S
C594 C592 1.395 . S
C594 C597 1.403 . S
C595 C592 1.403 . S
C595 C596 1.524 . S
C595 C599 1.400 . S
C596 H581 0.960 . S
C596 H582 0.960 . S
C596 H583 0.960 . S
C596 C595 1.524 . S
C597 C594 1.403 . S
C597 C598 1.392 . S
C597 C601 1.495 . S
C598 C597 1.392 . S
C598 C599 1.385 . S
C598 C600 1.478 . S
C599 H593 0.930 . S
C599 C595 1.400 . S
C599 C598 1.385 . S
C600 C598 1.478 . S
C600 C602 1.381 . S
C600 C606 1.383 . S
C601 C597 1.495 . S
C601 H607 0.959 . S
C601 H608 0.961 . S
C601 H609 0.960 . S
C602 C600 1.381 . S
C602 C603 1.394 1_554 S
C602 H610 0.930 . S
C603 C602 1.394 1_556 S
C603 C604 1.383 . S
C603 H611 0.929 . S
C604 C603 1.383 . S
C604 C605 1.377 . S
C605 H589 0.930 . S
C605 C604 1.377 . S
C605 C606 1.379 1_556 S
C606 H590 0.931 . S
C606 C600 1.383 . S
C606 C605 1.379 1_554 S
H607 C601 0.959 . S
H608 C601 0.961 . S
H609 C601 0.960 . S
H610 C602 0.930 . S
H611 C603 0.929 . S
H612 C620 0.929 . S
H613 C622 0.930 . S
H614 C624 0.930 . S
H615 C627 0.929 . S
H616 C630 0.930 . S
H617 C632 0.960 . S
H618 C632 0.960 . S
H619 C632 0.960 . S
C620 H612 0.929 . S
C620 C621 1.377 . S
C620 C622 1.384 . S
C621 C620 1.377 . S
C621 C627 1.390 . S
C622 H613 0.930 . S
C622 C620 1.384 . S
C622 C623 1.372 . S
C623 C622 1.372 . S
C623 C624 1.400 . S
C623 C628 1.490 . S
C624 H614 0.930 . S
C624 C623 1.400 . S
C624 C627 1.386 . S
H625 C641 0.930 . S
H626 C642 0.931 . S
C627 H615 0.929 . S
C627 C621 1.390 . S
C627 C624 1.386 . S
C628 C623 1.490 . S
C628 C630 1.395 . S
C628 C631 1.403 . S
H629 C635 0.930 . S
C630 H616 0.930 . S
C630 C628 1.395 . S
C630 C633 1.403 . S
C631 C628 1.403 . S
C631 C632 1.524 . S
C631 C635 1.400 . S
C632 H617 0.960 . S
C632 H618 0.960 . S
C632 H619 0.960 . S
C632 C631 1.524 . S
C633 C630 1.403 . S
C633 C634 1.392 . S
C633 C637 1.495 . S
C634 C633 1.392 . S
C634 C635 1.385 . S
C634 C636 1.478 . S
C635 H629 0.930 . S
C635 C631 1.400 . S
C635 C634 1.385 . S
C636 C634 1.478 . S
C636 C638 1.381 . S
C636 C642 1.383 . S
C637 C633 1.495 . S
C637 H643 0.959 . S
C637 H644 0.961 . S
C637 H645 0.960 . S
C638 C636 1.381 . S
C638 C639 1.394 1_554 S
C638 H646 0.930 . S
C639 C638 1.394 1_556 S
C639 C640 1.383 . S
C639 H647 0.929 . S
C640 C639 1.383 . S
C640 C641 1.377 . S
C641 H625 0.930 . S
C641 C640 1.377 . S
C641 C642 1.379 1_556 S
C642 H626 0.931 . S
C642 C636 1.383 . S
C642 C641 1.379 1_554 S
H643 C637 0.959 . S
H644 C637 0.961 . S
H645 C637 0.960 . S
H646 C638 0.930 . S
H647 C639 0.929 . S
H648 C656 0.929 . S
H649 C658 0.930 . S
H650 C660 0.930 . S
H651 C663 0.929 . S
H652 C666 0.930 . S
H653 C668 0.960 . S
H654 C668 0.960 . S
H655 C668 0.960 . S
C656 H648 0.929 . S
C656 C657 1.377 . S
C656 C658 1.384 . S
C657 C656 1.377 . S
C657 C663 1.390 . S
C658 H649 0.930 . S
C658 C656 1.384 . S
C658 C659 1.372 . S
C659 C658 1.372 . S
C659 C660 1.400 . S
C659 C664 1.490 . S
C660 H650 0.930 . S
C660 C659 1.400 . S
C660 C663 1.386 . S
H661 C677 0.930 . S
H662 C678 0.931 . S
C663 H651 0.929 . S
C663 C657 1.390 . S
C663 C660 1.386 . S
C664 C659 1.490 . S
C664 C666 1.395 . S
C664 C667 1.403 . S
H665 C671 0.930 . S
C666 H652 0.930 . S
C666 C664 1.395 . S
C666 C669 1.403 . S
C667 C664 1.403 . S
C667 C668 1.524 . S
C667 C671 1.400 . S
C668 H653 0.960 . S
C668 H654 0.960 . S
C668 H655 0.960 . S
C668 C667 1.524 . S
C669 C666 1.403 . S
C669 C670 1.392 . S
C669 C673 1.495 . S
C670 C669 1.392 . S
C670 C671 1.385 . S
C670 C672 1.478 . S
C671 H665 0.930 . S
C671 C667 1.400 . S
C671 C670 1.385 . S
C672 C670 1.478 . S
C672 C674 1.381 . S
C672 C678 1.383 . S
C673 C669 1.495 . S
C673 H679 0.959 . S
C673 H680 0.961 . S
C673 H681 0.960 . S
C674 C672 1.381 . S
C674 C675 1.394 1_554 S
C674 H682 0.930 . S
C675 C674 1.394 1_556 S
C675 C676 1.383 . S
C675 H683 0.929 . S
C676 C675 1.383 . S
C676 C677 1.377 1_556 S
C677 H661 0.930 . S
C677 C676 1.377 1_554 S
C677 C678 1.379 . S
C678 H662 0.931 . S
C678 C672 1.383 . S
C678 C677 1.379 . S
H679 C673 0.959 . S
H680 C673 0.961 . S
H681 C673 0.960 . S
H682 C674 0.930 . S
H683 C675 0.929 . S
H684 C692 0.929 . S
H685 C694 0.930 . S
H686 C696 0.930 . S
H687 C699 0.929 . S
H688 C702 0.930 . S
H689 C704 0.960 . S
H690 C704 0.960 . S
H691 C704 0.960 . S
C692 H684 0.929 . S
C692 C693 1.377 . S
C692 C694 1.384 . S
C693 C692 1.377 . S
C693 C699 1.390 . S
C694 H685 0.930 . S
C694 C692 1.384 . S
C694 C695 1.372 . S
C695 C694 1.372 . S
C695 C696 1.400 . S
C695 C700 1.490 . S
C696 H686 0.930 . S
C696 C695 1.400 . S
C696 C699 1.386 . S
H697 C713 0.930 . S
H698 C714 0.931 . S
C699 H687 0.929 . S
C699 C693 1.390 . S
C699 C696 1.386 . S
C700 C695 1.490 . S
C700 C702 1.395 . S
C700 C703 1.403 . S
H701 C707 0.930 . S
C702 H688 0.930 . S
C702 C700 1.395 . S
C702 C705 1.403 . S
C703 C700 1.403 . S
C703 C704 1.524 . S
C703 C707 1.400 . S
C704 H689 0.960 . S
C704 H690 0.960 . S
C704 H691 0.960 . S
C704 C703 1.524 . S
C705 C702 1.403 . S
C705 C706 1.392 . S
C705 C709 1.495 . S
C706 C705 1.392 . S
C706 C707 1.385 . S
C706 C708 1.478 . S
C707 H701 0.930 . S
C707 C703 1.400 . S
C707 C706 1.385 . S
C708 C706 1.478 . S
C708 C710 1.381 . S
C708 C714 1.383 . S
C709 C705 1.495 . S
C709 H715 0.959 . S
C709 H716 0.961 . S
C709 H717 0.960 . S
C710 C708 1.381 . S
C710 C711 1.394 . S
C710 H718 0.930 . S
C711 C710 1.394 . S
C711 C712 1.383 . S
C711 H719 0.929 . S
C712 C711 1.383 . S
C712 C713 1.377 . S
C713 H697 0.930 . S
C713 C712 1.377 . S
C713 C714 1.379 . S
C714 H698 0.931 . S
C714 C708 1.383 . S
C714 C713 1.379 . S
H715 C709 0.959 . S
H716 C709 0.961 . S
H717 C709 0.960 . S
H718 C710 0.930 . S
H719 C711 0.929 . S
H720 C728 0.929 . S
H721 C730 0.930 . S
H722 C732 0.930 . S
H723 C735 0.929 . S
H724 C738 0.930 . S
H725 C740 0.960 . S
H726 C740 0.960 . S
H727 C740 0.960 . S
C728 H720 0.929 . S
C728 C729 1.377 . S
C728 C730 1.384 . S
C729 C728 1.377 . S
C729 C735 1.390 . S
C730 H721 0.930 . S
C730 C728 1.384 . S
C730 C731 1.372 . S
C731 C730 1.372 . S
C731 C732 1.400 . S
C731 C736 1.490 . S
C732 H722 0.930 . S
C732 C731 1.400 . S
C732 C735 1.386 . S
H733 C749 0.930 . S
H734 C750 0.931 . S
C735 H723 0.929 . S
C735 C729 1.390 . S
C735 C732 1.386 . S
C736 C731 1.490 . S
C736 C738 1.395 . S
C736 C739 1.403 . S
H737 C743 0.930 . S
C738 H724 0.930 . S
C738 C736 1.395 . S
C738 C741 1.403 . S
C739 C736 1.403 . S
C739 C740 1.524 . S
C739 C743 1.400 . S
C740 H725 0.960 . S
C740 H726 0.960 . S
C740 H727 0.960 . S
C740 C739 1.524 . S
C741 C738 1.403 . S
C741 C742 1.392 . S
C741 C745 1.495 . S
C742 C741 1.392 . S
C742 C743 1.385 . S
C742 C744 1.478 . S
C743 H737 0.930 . S
C743 C739 1.400 . S
C743 C742 1.385 . S
C744 C742 1.478 . S
C744 C746 1.381 . S
C744 C750 1.383 . S
C745 C741 1.495 . S
C745 H751 0.959 . S
C745 H752 0.961 . S
C745 H753 0.960 . S
C746 C744 1.381 . S
C746 C747 1.394 . S
C746 H754 0.930 . S
C747 C746 1.394 . S
C747 C748 1.383 . S
C747 H755 0.929 . S
C748 C747 1.383 . S
C748 C749 1.377 . S
C749 H733 0.930 . S
C749 C748 1.377 . S
C749 C750 1.379 . S
C750 H734 0.931 . S
C750 C744 1.383 . S
C750 C749 1.379 . S
H751 C745 0.959 . S
H752 C745 0.961 . S
H753 C745 0.960 . S
H754 C746 0.930 . S
H755 C747 0.929 . S
H756 C764 0.917 1_565 S
H757 C766 0.930 . S
H758 C768 0.930 . S
H759 C771 0.929 . S
H760 C774 0.930 . S
H761 C776 0.960 . S
H762 C776 0.960 . S
H763 C776 0.960 . S
C764 H756 0.917 1_545 S
C764 C765 1.377 . S
C764 C766 1.384 1_545 S
C765 C764 1.377 . S
C765 C771 1.390 . S
C766 H757 0.930 . S
C766 C764 1.384 1_565 S
C766 C767 1.372 . S
C767 C766 1.372 . S
C767 C768 1.400 1_565 S
C767 C772 1.490 . S
C768 H758 0.930 . S
C768 C767 1.400 1_545 S
C768 C771 1.386 . S
H769 C785 0.930 . S
H770 C786 0.931 . S
C771 H759 0.929 . S
C771 C765 1.390 . S
C771 C768 1.386 . S
C772 C767 1.490 . S
C772 C774 1.395 . S
C772 C775 1.403 . S
H773 C779 0.930 . S
C774 H760 0.930 . S
C774 C772 1.395 . S
C774 C777 1.403 . S
C775 C772 1.403 . S
C775 C776 1.524 . S
C775 C779 1.400 . S
C776 H761 0.960 . S
C776 H762 0.960 . S
C776 H763 0.960 . S
C776 C775 1.524 . S
C777 C774 1.403 . S
C777 C778 1.392 . S
C777 C781 1.495 . S
C778 C777 1.392 . S
C778 C779 1.385 . S
C778 C780 1.478 . S
C779 H773 0.930 . S
C779 C775 1.400 . S
C779 C778 1.385 . S
C780 C778 1.478 . S
C780 C782 1.381 . S
C780 C786 1.383 . S
C781 C777 1.495 . S
C781 H787 0.959 . S
C781 H788 0.961 . S
C781 H789 0.960 . S
C782 C780 1.381 . S
C782 C783 1.394 . S
C782 H790 0.930 . S
C783 C782 1.394 . S
C783 C784 1.383 . S
C783 H791 0.929 . S
C784 C783 1.383 . S
C784 C785 1.377 . S
C785 H769 0.930 . S
C785 C784 1.377 . S
C785 C786 1.379 . S
C786 H770 0.931 . S
C786 C780 1.383 . S
C786 C785 1.379 . S
H787 C781 0.959 . S
H788 C781 0.961 . S
H789 C781 0.960 . S
H790 C782 0.930 . S
H791 C783 0.929 . S
H792 C800 0.929 . S
H793 C802 0.930 . S
H794 C804 0.930 . S
H795 C807 0.929 . S
H796 C810 0.930 . S
H797 C812 0.960 . S
H798 C812 0.960 . S
H799 C812 0.960 . S
C800 H792 0.929 . S
C800 C801 1.377 . S
C800 C802 1.384 1_554 S
C801 C800 1.377 . S
C801 C807 1.390 . S
C802 H793 0.930 . S
C802 C800 1.384 1_556 S
C802 C803 1.372 1_556 S
C803 C802 1.372 1_554 S
C803 C804 1.400 . S
C803 C808 1.490 1_554 S
C804 H794 0.930 . S
C804 C803 1.400 . S
C804 C807 1.386 . S
H805 C821 0.930 . S
H806 C822 0.931 . S
C807 H795 0.929 . S
C807 C801 1.390 . S
C807 C804 1.386 . S
C808 C803 1.490 1_556 S
C808 C810 1.395 . S
C808 C811 1.403 . S
H809 C815 0.930 . S
C810 H796 0.930 . S
C810 C808 1.395 . S
C810 C813 1.403 . S
C811 C808 1.403 . S
C811 C812 1.524 . S
C811 C815 1.400 . S
C812 H797 0.960 . S
C812 H798 0.960 . S
C812 H799 0.960 . S
C812 C811 1.524 . S
C813 C810 1.403 . S
C813 C814 1.392 . S
C813 C817 1.495 . S
C814 C813 1.392 . S
C814 C815 1.385 . S
C814 C816 1.478 . S
C815 H809 0.930 . S
C815 C811 1.400 . S
C815 C814 1.385 . S
C816 C814 1.478 . S
C816 C818 1.381 . S
C816 C822 1.383 . S
C817 C813 1.495 . S
C817 H823 0.959 . S
C817 H824 0.961 . S
C817 H825 0.960 . S
C818 C816 1.381 . S
C818 C819 1.394 . S
C818 H826 0.930 . S
C819 C818 1.394 . S
C819 C820 1.383 . S
C819 H827 0.929 . S
C820 C819 1.383 . S
C820 C821 1.377 . S
C821 H805 0.930 . S
C821 C820 1.377 . S
C821 C822 1.379 . S
C822 H806 0.931 . S
C822 C816 1.383 . S
C822 C821 1.379 . S
H823 C817 0.959 . S
H824 C817 0.961 . S
H825 C817 0.960 . S
H826 C818 0.930 . S
H827 C819 0.929 . S
H828 C836 0.929 . S
H829 C838 0.930 . S
H830 C840 0.930 . S
H831 C843 0.929 . S
H832 C846 0.930 . S
H833 C848 0.960 . S
H834 C848 0.960 . S
H835 C848 0.960 . S
C836 H828 0.929 . S
C836 C837 1.377 . S
C836 C838 1.384 . S
C837 C836 1.377 . S
C837 C843 1.390 . S
C838 H829 0.930 . S
C838 C836 1.384 . S
C838 C839 1.372 . S
C839 C838 1.372 . S
C839 C840 1.400 . S
C839 C844 1.490 . S
C840 H830 0.930 . S
C840 C839 1.400 . S
C840 C843 1.386 . S
H841 C857 0.930 . S
H842 C858 0.931 . S
C843 H831 0.929 . S
C843 C837 1.390 . S
C843 C840 1.386 . S
C844 C839 1.490 . S
C844 C846 1.395 . S
C844 C847 1.403 . S
H845 C851 0.930 . S
C846 H832 0.930 . S
C846 C844 1.395 . S
C846 C849 1.403 . S
C847 C844 1.403 . S
C847 C848 1.524 . S
C847 C851 1.400 . S
C848 H833 0.960 . S
C848 H834 0.960 . S
C848 H835 0.960 . S
C848 C847 1.524 . S
C849 C846 1.403 . S
C849 C850 1.392 . S
C849 C853 1.495 . S
C850 C849 1.392 . S
C850 C851 1.385 . S
C850 C852 1.478 . S
C851 H845 0.930 . S
C851 C847 1.400 . S
C851 C850 1.385 . S
C852 C850 1.478 . S
C852 C854 1.381 1_655 S
C852 C858 1.383 . S
C853 C849 1.495 . S
C853 H859 0.959 . S
C853 H860 0.961 . S
C853 H861 0.960 . S
C854 C852 1.381 1_455 S
C854 C855 1.394 . S
C854 H862 0.930 . S
C855 C854 1.394 . S
C855 C856 1.392 . S
C855 H863 0.929 . S
C856 C855 1.392 . S
C856 C857 1.373 1_456 S
C857 H841 0.930 . S
C857 C856 1.373 1_654 S
C857 C858 1.379 1_554 S
C858 H842 0.931 . S
C858 C852 1.383 . S
C858 C857 1.379 1_556 S
H859 C853 0.959 . S
H860 C853 0.961 . S
H861 C853 0.960 . S
H862 C854 0.930 . S
H863 C855 0.929 . S
H864 C872 0.929 . S
H865 C874 0.930 . S
H866 C876 0.930 . S
H867 C879 0.929 . S
H868 C882 0.930 . S
H869 C884 0.960 1_554 S
H870 C884 0.960 . S
H871 C884 0.960 . S
C872 H864 0.929 . S
C872 C873 1.377 . S
C872 C874 1.384 . S
C873 C872 1.377 . S
C873 C879 1.390 . S
C874 H865 0.930 . S
C874 C872 1.384 . S
C874 C875 1.372 . S
C875 C874 1.372 . S
C875 C876 1.400 . S
C875 C880 1.490 . S
C876 H866 0.930 . S
C876 C875 1.400 . S
C876 C879 1.386 . S
H877 C893 0.930 . S
H878 C894 0.931 . S
C879 H867 0.929 . S
C879 C873 1.390 . S
C879 C876 1.386 . S
C880 C875 1.490 . S
C880 C882 1.395 . S
C880 C883 1.403 . S
H881 C887 0.930 1_554 S
C882 H868 0.930 . S
C882 C880 1.395 . S
C882 C885 1.403 . S
C883 C880 1.403 . S
C883 C884 1.524 . S
C883 C887 1.400 . S
C884 H869 0.960 1_556 S
C884 H870 0.960 . S
C884 H871 0.960 . S
C884 C883 1.524 . S
C885 C882 1.403 . S
C885 C886 1.392 . S
C885 C889 1.495 . S
C886 C885 1.392 . S
C886 C887 1.385 . S
C886 C888 1.478 . S
C887 H881 0.930 1_556 S
C887 C883 1.400 . S
C887 C886 1.385 . S
C888 C886 1.478 . S
C888 C890 1.381 . S
C888 C894 1.383 1_556 S
C889 C885 1.495 . S
C889 H895 0.959 . S
C889 H896 0.961 . S
C889 H897 0.960 . S
C890 C888 1.381 . S
C890 C891 1.394 1_556 S
C890 H898 0.930 . S
C891 C890 1.394 1_554 S
C891 C892 1.383 . S
C891 H899 0.929 . S
C892 C891 1.383 . S
C892 C893 1.377 . S
C893 H877 0.930 . S
C893 C892 1.377 . S
C893 C894 1.379 . S
C894 H878 0.931 . S
C894 C888 1.383 1_554 S
C894 C893 1.379 . S
H895 C889 0.959 . S
H896 C889 0.961 . S
H897 C889 0.960 . S
H898 C890 0.930 . S
H899 C891 0.929 . S
H900 C908 0.929 . S
H901 C910 0.930 . S
H902 C912 0.930 . S
H903 C915 0.929 . S
H904 C918 0.930 . S
H905 C920 0.960 . S
H906 C920 0.960 . S
H907 C920 0.960 . S
C908 H900 0.929 . S
C908 C909 1.377 . S
C908 C910 1.384 . S
C909 C908 1.377 . S
C909 C915 1.390 . S
C910 H901 0.930 . S
C910 C908 1.384 . S
C910 C911 1.372 . S
C911 C910 1.372 . S
C911 C912 1.400 . S
C911 C916 1.490 . S
C912 H902 0.930 . S
C912 C911 1.400 . S
C912 C915 1.386 . S
H913 C929 0.930 . S
H914 C930 0.931 . S
C915 H903 0.929 . S
C915 C909 1.390 . S
C915 C912 1.386 . S
C916 C911 1.490 . S
C916 C918 1.395 . S
C916 C919 1.403 . S
H917 C923 0.930 . S
C918 H904 0.930 . S
C918 C916 1.395 . S
C918 C921 1.403 . S
C919 C916 1.403 . S
C919 C920 1.524 . S
C919 C923 1.400 . S
C920 H905 0.960 . S
C920 H906 0.960 . S
C920 H907 0.960 . S
C920 C919 1.524 . S
C921 C918 1.403 . S
C921 C922 1.392 . S
C921 C925 1.495 . S
C922 C921 1.392 . S
C922 C923 1.385 . S
C922 C924 1.478 . S
C923 H917 0.930 . S
C923 C919 1.400 . S
C923 C922 1.385 . S
C924 C922 1.478 . S
C924 C926 1.381 . S
C924 C930 1.383 . S
C925 C921 1.495 . S
C925 H931 0.959 . S
C925 H932 0.961 . S
C925 H933 0.960 . S
C926 C924 1.381 . S
C926 C927 1.394 1_556 S
C926 H934 0.930 . S
C927 C926 1.394 1_554 S
C927 C928 1.383 1_554 S
C927 H935 0.929 . S
C928 C927 1.383 1_556 S
C928 C929 1.377 . S
C929 H913 0.930 . S
C929 C928 1.377 . S
C929 C930 1.379 . S
C930 H914 0.931 . S
C930 C924 1.383 . S
C930 C929 1.379 . S
H931 C925 0.959 . S
H932 C925 0.961 . S
H933 C925 0.960 . S
H934 C926 0.930 . S
H935 C927 0.929 . S
H936 C944 0.929 . S
H937 C946 0.930 . S
H938 C948 0.930 . S
H939 C951 0.929 . S
H940 C954 0.930 . S
H941 C956 0.960 . S
H942 C956 0.960 . S
H943 C956 0.960 1_554 S
C944 H936 0.929 . S
C944 C945 1.377 1_556 S
C944 C946 1.384 . S
C945 C944 1.377 1_554 S
C945 C951 1.390 . S
C946 H937 0.930 . S
C946 C944 1.384 . S
C946 C947 1.372 . S
C947 C946 1.372 . S
C947 C948 1.400 1_556 S
C947 C952 1.490 . S
C948 H938 0.930 . S
C948 C947 1.400 1_554 S
C948 C951 1.386 . S
H949 C965 0.930 . S
H950 C966 0.931 . S
C951 H939 0.929 . S
C951 C945 1.390 . S
C951 C948 1.386 . S
C952 C947 1.490 . S
C952 C954 1.395 . S
C952 C955 1.403 . S
H953 C959 0.930 . S
C954 H940 0.930 . S
C954 C952 1.395 . S
C954 C957 1.403 . S
C955 C952 1.403 . S
C955 C956 1.524 . S
C955 C959 1.400 . S
C956 H941 0.960 . S
C956 H942 0.960 . S
C956 H943 0.960 1_556 S
C956 C955 1.524 . S
C957 C954 1.403 . S
C957 C958 1.392 . S
C957 C961 1.495 . S
C958 C957 1.392 . S
C958 C959 1.385 . S
C958 C960 1.478 . S
C959 H953 0.930 . S
C959 C955 1.400 . S
C959 C958 1.385 . S
C960 C958 1.478 . S
C960 C962 1.381 . S
C960 C966 1.383 . S
C961 C957 1.495 . S
C961 H967 0.959 . S
C961 H968 0.961 . S
C961 H969 0.960 . S
C962 C960 1.381 . S
C962 C963 1.394 . S
C962 H970 0.930 . S
C963 C962 1.394 . S
C963 C964 1.383 . S
C963 H971 0.929 . S
C964 C963 1.383 . S
C964 C965 1.377 . S
C965 H949 0.930 . S
C965 C964 1.377 . S
C965 C966 1.379 . S
C966 H950 0.931 . S
C966 C960 1.383 . S
C966 C965 1.379 . S
H967 C961 0.959 . S
H968 C961 0.961 . S
H969 C961 0.960 . S
H970 C962 0.930 . S
H971 C963 0.929 . S
H972 C980 0.929 . S
H973 C982 0.930 . S
H974 C984 0.930 . S
H975 C987 0.929 . S
H976 C990 0.930 . S
H977 C992 0.960 . S
H978 C992 0.960 . S
H979 C992 0.960 . S
C980 H972 0.929 . S
C980 C981 1.377 . S
C980 C982 1.384 . S
C981 C980 1.377 . S
C981 C987 1.390 . S
C982 H973 0.930 . S
C982 C980 1.384 . S
C982 C983 1.372 . S
C983 C982 1.372 . S
C983 C984 1.400 . S
C983 C988 1.490 . S
C984 H974 0.930 . S
C984 C983 1.400 . S
C984 C987 1.386 . S
H985 C1001 0.930 . S
H986 C1002 0.931 . S
C987 H975 0.929 . S
C987 C981 1.390 . S
C987 C984 1.386 . S
C988 C983 1.490 . S
C988 C990 1.395 . S
C988 C991 1.403 . S
H989 C995 0.930 . S
C990 H976 0.930 . S
C990 C988 1.395 . S
C990 C993 1.403 . S
C991 C988 1.403 . S
C991 C992 1.524 . S
C991 C995 1.400 . S
C992 H977 0.960 . S
C992 H978 0.960 . S
C992 H979 0.960 . S
C992 C991 1.524 . S
C993 C990 1.403 . S
C993 C994 1.392 . S
C993 C997 1.495 . S
C994 C993 1.392 . S
C994 C995 1.385 . S
C994 C996 1.478 1_556 S
C995 H989 0.930 . S
C995 C991 1.400 . S
C995 C994 1.385 . S
C996 C994 1.478 1_554 S
C996 C998 1.381 1_554 S
C996 C1002 1.383 . S
C997 C993 1.495 . S
C997 H1003 0.959 . S
C997 H1004 0.961 . S
C997 H1005 0.960 . S
C998 C996 1.381 1_556 S
C998 C999 1.394 1_556 S
C998 H1006 0.930 . S
C999 C998 1.394 1_554 S
C999 C1000 1.383 . S
C999 H1007 0.929 1_554 S
C1000 C999 1.383 . S
C1000 C1001 1.377 . S
C1001 H985 0.930 . S
C1001 C1000 1.377 . S
C1001 C1002 1.379 . S
C1002 H986 0.931 . S
C1002 C996 1.383 . S
C1002 C1001 1.379 . S
H1003 C997 0.959 . S
H1004 C997 0.961 . S
H1005 C997 0.960 . S
H1006 C998 0.930 . S
H1007 C999 0.929 1_556 S
H1008 C1016 0.929 . S
H1009 C1018 0.930 . S
H1010 C1020 0.930 . S
H1011 C1023 0.929 . S
H1012 C1026 0.930 . S
H1013 C1028 0.960 . S
H1014 C1028 0.960 . S
H1015 C1028 0.960 . S
C1016 H1008 0.929 . S
C1016 C1017 1.377 . S
C1016 C1018 1.384 . S
C1017 C1016 1.377 . S
C1017 C1023 1.390 . S
C1018 H1009 0.930 . S
C1018 C1016 1.384 . S
C1018 C1019 1.372 . S
C1019 C1018 1.372 . S
C1019 C1020 1.400 . S
C1019 C1024 1.490 . S
C1020 H1010 0.930 . S
C1020 C1019 1.400 . S
C1020 C1023 1.386 . S
H1021 C1037 0.930 . S
H1022 C1038 0.931 . S
C1023 H1011 0.929 . S
C1023 C1017 1.390 . S
C1023 C1020 1.386 . S
C1024 C1019 1.490 . S
C1024 C1026 1.395 . S
C1024 C1027 1.403 1_545 S
H1025 C1031 0.930 . S
C1026 H1012 0.930 . S
C1026 C1024 1.395 . S
C1026 C1029 1.403 . S
C1027 C1024 1.403 1_565 S
C1027 C1028 1.524 . S
C1027 C1031 1.400 . S
C1028 H1013 0.960 . S
C1028 H1014 0.960 . S
C1028 H1015 0.960 . S
C1028 C1027 1.524 . S
C1029 C1026 1.403 . S
C1029 C1030 1.392 1_545 S
C1029 C1033 1.495 . S
C1030 C1029 1.392 1_565 S
C1030 C1031 1.385 . S
C1030 C1032 1.478 . S
C1031 H1025 0.930 . S
C1031 C1027 1.400 . S
C1031 C1030 1.385 . S
C1032 C1030 1.478 . S
C1032 C1034 1.381 . S
C1032 C1038 1.383 . S
C1033 C1029 1.495 . S
C1033 H1039 0.959 . S
C1033 H1040 0.961 . S
C1033 H1041 0.960 . S
C1034 C1032 1.381 . S
C1034 C1035 1.394 . S
C1034 H1042 0.930 . S
C1035 C1034 1.394 . S
C1035 C1036 1.383 . S
C1035 H1043 0.929 . S
C1036 C1035 1.383 . S
C1036 C1037 1.377 . S
C1037 H1021 0.930 . S
C1037 C1036 1.377 . S
C1037 C1038 1.379 . S
C1038 H1022 0.931 . S
C1038 C1032 1.383 . S
C1038 C1037 1.379 . S
H1039 C1033 0.959 . S
H1040 C1033 0.961 . S
H1041 C1033 0.960 . S
H1042 C1034 0.930 . S
H1043 C1035 0.929 . S
H1044 C1052 0.929 . S
H1045 C1054 0.930 . S
H1046 C1056 0.930 . S
H1047 C1059 0.929 . S
H1048 C1062 0.930 . S
H1049 C1064 0.960 . S
H1050 C1064 0.960 . S
H1051 C1064 0.960 . S
C1052 H1044 0.929 . S
C1052 C1053 1.377 . S
C1052 C1054 1.384 . S
C1053 C1052 1.377 . S
C1053 C1059 1.390 . S
C1054 H1045 0.930 . S
C1054 C1052 1.384 . S
C1054 C1055 1.372 . S
C1055 C1054 1.372 . S
C1055 C1056 1.400 . S
C1055 C1060 1.490 . S
C1056 H1046 0.930 . S
C1056 C1055 1.400 . S
C1056 C1059 1.386 . S
H1057 C1073 0.930 . S
H1058 C1074 0.931 . S
C1059 H1047 0.929 . S
C1059 C1053 1.390 . S
C1059 C1056 1.386 . S
C1060 C1055 1.490 . S
C1060 C1062 1.395 . S
C1060 C1063 1.403 . S
H1061 C1067 0.930 . S
C1062 H1048 0.930 . S
C1062 C1060 1.395 . S
C1062 C1065 1.403 . S
C1063 C1060 1.403 . S
C1063 C1064 1.524 . S
C1063 C1067 1.400 . S
C1064 H1049 0.960 . S
C1064 H1050 0.960 . S
C1064 H1051 0.960 . S
C1064 C1063 1.524 . S
C1065 C1062 1.403 . S
C1065 C1066 1.392 . S
C1065 C1069 1.495 . S
C1066 C1065 1.392 . S
C1066 C1067 1.385 . S
C1066 C1068 1.478 . S
C1067 H1061 0.930 . S
C1067 C1063 1.400 . S
C1067 C1066 1.385 . S
C1068 C1066 1.478 . S
C1068 C1070 1.381 . S
C1068 C1074 1.383 . S
C1069 C1065 1.495 . S
C1069 H1075 0.959 . S
C1069 H1076 0.961 . S
C1069 H1077 0.960 . S
C1070 C1068 1.381 . S
C1070 C1071 1.394 . S
C1070 H1078 0.930 . S
C1071 C1070 1.394 . S
C1071 C1072 1.383 . S
C1071 H1079 0.929 . S
C1072 C1071 1.383 . S
C1072 C1073 1.377 . S
C1073 H1057 0.930 . S
C1073 C1072 1.377 . S
C1073 C1074 1.379 . S
C1074 H1058 0.931 . S
C1074 C1068 1.383 . S
C1074 C1073 1.379 . S
H1075 C1069 0.959 . S
H1076 C1069 0.961 . S
H1077 C1069 0.960 . S
H1078 C1070 0.930 . S
H1079 C1071 0.929 . S
H1080 C1088 0.929 . S
H1081 C1090 0.930 . S
H1082 C1092 0.930 . S
H1083 C1095 0.929 . S
H1084 C1098 0.930 . S
H1085 C1100 0.960 . S
H1086 C1100 0.960 . S
H1087 C1100 0.960 . S
C1088 H1080 0.929 . S
C1088 C1089 1.377 . S
C1088 C1090 1.384 . S
C1089 C1088 1.377 . S
C1089 C1095 1.390 . S
C1090 H1081 0.930 . S
C1090 C1088 1.384 . S
C1090 C1091 1.372 . S
C1091 C1090 1.372 . S
C1091 C1092 1.400 . S
C1091 C1096 1.490 . S
C1092 H1082 0.930 . S
C1092 C1091 1.400 . S
C1092 C1095 1.386 . S
H1093 C1109 0.930 . S
H1094 C1110 0.931 . S
C1095 H1083 0.929 . S
C1095 C1089 1.390 . S
C1095 C1092 1.386 . S
C1096 C1091 1.490 . S
C1096 C1098 1.395 . S
C1096 C1099 1.403 . S
H1097 C1103 0.930 . S
C1098 H1084 0.930 . S
C1098 C1096 1.395 . S
C1098 C1101 1.403 . S
C1099 C1096 1.403 . S
C1099 C1100 1.524 . S
C1099 C1103 1.400 . S
C1100 H1085 0.960 . S
C1100 H1086 0.960 . S
C1100 H1087 0.960 . S
C1100 C1099 1.524 . S
C1101 C1098 1.403 . S
C1101 C1102 1.392 . S
C1101 C1105 1.495 . S
C1102 C1101 1.392 . S
C1102 C1103 1.385 . S
C1102 C1104 1.478 . S
C1103 H1097 0.930 . S
C1103 C1099 1.400 . S
C1103 C1102 1.385 . S
C1104 C1102 1.478 . S
C1104 C1106 1.381 . S
C1104 C1110 1.383 . S
C1105 C1101 1.495 . S
C1105 H1111 0.959 . S
C1105 H1112 0.961 . S
C1105 H1113 0.960 . S
C1106 C1104 1.381 . S
C1106 C1107 1.394 . S
C1106 H1114 0.930 . S
C1107 C1106 1.394 . S
C1107 C1108 1.383 . S
C1107 H1115 0.929 . S
C1108 C1107 1.383 . S
C1108 C1109 1.377 . S
C1109 H1093 0.930 . S
C1109 C1108 1.377 . S
C1109 C1110 1.379 . S
C1110 H1094 0.931 . S
C1110 C1104 1.383 . S
C1110 C1109 1.379 . S
H1111 C1105 0.959 . S
H1112 C1105 0.961 . S
H1113 C1105 0.960 . S
H1114 C1106 0.930 . S
H1115 C1107 0.929 . S
H1116 C1124 0.929 . S
H1117 C1126 0.930 . S
H1118 C1128 0.930 . S
H1119 C1131 0.929 . S
H1120 C1134 0.930 . S
H1121 C1136 0.960 . S
H1122 C1136 0.960 . S
H1123 C1136 0.960 . S
C1124 H1116 0.929 . S
C1124 C1125 1.377 . S
C1124 C1126 1.384 . S
C1125 C1124 1.377 . S
C1125 C1131 1.390 . S
C1126 H1117 0.930 . S
C1126 C1124 1.384 . S
C1126 C1127 1.372 . S
C1127 C1126 1.372 . S
C1127 C1128 1.400 . S
C1127 C1132 1.490 . S
C1128 H1118 0.930 . S
C1128 C1127 1.400 . S
C1128 C1131 1.386 . S
H1129 C1145 0.930 . S
H1130 C1146 0.931 . S
C1131 H1119 0.929 . S
C1131 C1125 1.390 . S
C1131 C1128 1.386 . S
C1132 C1127 1.490 . S
C1132 C1134 1.395 . S
C1132 C1135 1.403 . S
H1133 C1139 0.930 . S
C1134 H1120 0.930 . S
C1134 C1132 1.395 . S
C1134 C1137 1.403 . S
C1135 C1132 1.403 . S
C1135 C1136 1.524 . S
C1135 C1139 1.400 . S
C1136 H1121 0.960 . S
C1136 H1122 0.960 . S
C1136 H1123 0.960 . S
C1136 C1135 1.524 . S
C1137 C1134 1.403 . S
C1137 C1138 1.392 . S
C1137 C1141 1.495 . S
C1138 C1137 1.392 . S
C1138 C1139 1.385 . S
C1138 C1140 1.478 . S
C1139 H1133 0.930 . S
C1139 C1135 1.400 . S
C1139 C1138 1.385 . S
C1140 C1138 1.478 . S
C1140 C1142 1.381 . S
C1140 C1146 1.383 . S
C1141 C1137 1.495 . S
C1141 H1147 0.959 . S
C1141 H1148 0.961 . S
C1141 H1149 0.960 . S
C1142 C1140 1.381 . S
C1142 C1143 1.394 . S
C1142 H1150 0.930 . S
C1143 C1142 1.394 . S
C1143 C1144 1.383 . S
C1143 H1151 0.929 . S
C1144 C1143 1.383 . S
C1144 C1145 1.377 . S
C1145 H1129 0.930 . S
C1145 C1144 1.377 . S
C1145 C1146 1.379 . S
C1146 H1130 0.931 . S
C1146 C1140 1.383 . S
C1146 C1145 1.379 . S
H1147 C1141 0.959 . S
H1148 C1141 0.961 . S
H1149 C1141 0.960 . S
H1150 C1142 0.930 . S
H1151 C1143 0.929 . S
H1152 C1160 0.929 . S
H1153 C1162 0.930 . S
H1154 C1164 0.930 . S
H1155 C1167 0.929 . S
H1156 C1170 0.930 . S
H1157 C1172 0.960 . S
H1158 C1172 0.960 . S
H1159 C1172 0.960 . S
C1160 H1152 0.929 . S
C1160 C1161 1.377 . S
C1160 C1162 1.384 . S
C1161 C1160 1.377 . S
C1161 C1167 1.390 . S
C1162 H1153 0.930 . S
C1162 C1160 1.384 . S
C1162 C1163 1.372 . S
C1163 C1162 1.372 . S
C1163 C1164 1.400 . S
C1163 C1168 1.490 . S
C1164 H1154 0.930 . S
C1164 C1163 1.400 . S
C1164 C1167 1.386 . S
H1165 C1181 0.930 . S
H1166 C1182 0.931 . S
C1167 H1155 0.929 . S
C1167 C1161 1.390 . S
C1167 C1164 1.386 . S
C1168 C1163 1.490 . S
C1168 C1170 1.395 . S
C1168 C1171 1.403 . S
H1169 C1175 0.930 . S
C1170 H1156 0.930 . S
C1170 C1168 1.395 . S
C1170 C1173 1.420 . S
C1171 C1168 1.403 . S
C1171 C1172 1.524 . S
C1171 C1175 1.400 1_545 S
C1172 H1157 0.960 . S
C1172 H1158 0.960 . S
C1172 H1159 0.960 . S
C1172 C1171 1.524 . S
C1173 C1170 1.420 . S
C1173 C1174 1.389 1_545 S
C1173 C1177 1.484 1_545 S
C1174 C1173 1.389 1_565 S
C1174 C1175 1.385 . S
C1174 C1176 1.478 . S
C1175 H1169 0.930 . S
C1175 C1171 1.400 1_565 S
C1175 C1174 1.385 . S
C1176 C1174 1.478 . S
C1176 C1178 1.381 . S
C1176 C1182 1.383 . S
C1177 C1173 1.484 1_565 S
C1177 H1183 0.959 1_565 S
C1177 H1184 0.961 . S
C1177 H1185 0.960 . S
C1178 C1176 1.381 . S
C1178 C1179 1.394 . S
C1178 H1186 0.930 . S
C1179 C1178 1.394 . S
C1179 C1180 1.383 . S
C1179 H1187 0.929 . S
C1180 C1179 1.383 . S
C1180 C1181 1.377 . S
C1181 H1165 0.930 . S
C1181 C1180 1.377 . S
C1181 C1182 1.379 . S
C1182 H1166 0.931 . S
C1182 C1176 1.383 . S
C1182 C1181 1.379 . S
H1183 C1177 0.959 1_545 S
H1184 C1177 0.961 . S
H1185 C1177 0.960 . S
H1186 C1178 0.930 . S
H1187 C1179 0.929 . S
H1188 C1196 0.929 . S
H1189 C1198 0.930 . S
H1190 C1200 0.930 . S
H1191 C1203 0.929 . S
H1192 C1206 0.930 . S
H1193 C1208 0.960 . S
H1194 C1208 0.960 . S
H1195 C1208 0.960 . S
C1196 H1188 0.929 . S
C1196 C1197 1.377 . S
C1196 C1198 1.384 . S
C1197 C1196 1.377 . S
C1197 C1203 1.390 . S
C1198 H1189 0.930 . S
C1198 C1196 1.384 . S
C1198 C1199 1.372 . S
C1199 C1198 1.372 . S
C1199 C1200 1.400 . S
C1199 C1204 1.490 . S
C1200 H1190 0.930 . S
C1200 C1199 1.400 . S
C1200 C1203 1.386 . S
H1201 C1217 0.930 . S
H1202 C1218 0.931 . S
C1203 H1191 0.929 . S
C1203 C1197 1.390 . S
C1203 C1200 1.386 . S
C1204 C1199 1.490 . S
C1204 C1206 1.395 . S
C1204 C1207 1.403 1_655 S
H1205 C1211 0.930 . S
C1206 H1192 0.930 . S
C1206 C1204 1.395 . S
C1206 C1209 1.403 . S
C1207 C1204 1.403 1_455 S
C1207 C1208 1.524 . S
C1207 C1211 1.400 . S
C1208 H1193 0.960 . S
C1208 H1194 0.960 . S
C1208 H1195 0.960 . S
C1208 C1207 1.524 . S
C1209 C1206 1.403 . S
C1209 C1210 1.392 1_655 S
C1209 C1213 1.495 . S
C1210 C1209 1.392 1_455 S
C1210 C1211 1.385 . S
C1210 C1212 1.478 . S
C1211 H1205 0.930 . S
C1211 C1207 1.400 . S
C1211 C1210 1.385 . S
C1212 C1210 1.478 . S
C1212 C1214 1.381 . S
C1212 C1218 1.383 . S
C1213 C1209 1.495 . S
C1213 H1219 0.959 . S
C1213 H1220 0.961 . S
C1213 H1221 0.959 . S
C1214 C1212 1.381 . S
C1214 C1215 1.394 . S
C1214 H1222 0.930 . S
C1215 C1214 1.394 . S
C1215 C1216 1.383 . S
C1215 H1223 0.929 . S
C1216 C1215 1.383 . S
C1216 C1217 1.377 . S
C1217 H1201 0.930 . S
C1217 C1216 1.377 . S
C1217 C1218 1.379 . S
C1218 H1202 0.931 . S
C1218 C1212 1.383 . S
C1218 C1217 1.379 . S
H1219 C1213 0.959 . S
H1220 C1213 0.961 . S
H1221 C1213 0.959 . S
H1222 C1214 0.930 . S
H1223 C1215 0.929 . S
H1224 C1232 0.929 . S
H1225 C1234 0.930 . S
H1226 C1236 0.930 . S
H1227 C1239 0.929 . S
H1228 C1242 0.930 . S
H1229 C1244 0.960 . S
H1230 C1244 0.960 . S
H1231 C1244 0.960 . S
C1232 H1224 0.929 . S
C1232 C1233 1.377 . S
C1232 C1234 1.384 . S
C1233 C1232 1.377 . S
C1233 C1239 1.390 . S
C1234 H1225 0.930 . S
C1234 C1232 1.384 . S
C1234 C1235 1.372 . S
C1235 C1234 1.372 . S
C1235 C1236 1.400 . S
C1235 C1240 1.490 . S
C1236 H1226 0.930 . S
C1236 C1235 1.400 . S
C1236 C1239 1.386 . S
H1237 C1253 0.930 . S
H1238 C1254 0.931 . S
C1239 H1227 0.929 . S
C1239 C1233 1.390 . S
C1239 C1236 1.386 . S
C1240 C1235 1.490 . S
C1240 C1242 1.395 . S
C1240 C1243 1.403 . S
H1241 C1247 0.930 . S
C1242 H1228 0.930 . S
C1242 C1240 1.395 . S
C1242 C1245 1.403 . S
C1243 C1240 1.403 . S
C1243 C1244 1.524 . S
C1243 C1247 1.400 . S
C1244 H1229 0.960 . S
C1244 H1230 0.960 . S
C1244 H1231 0.960 . S
C1244 C1243 1.524 . S
C1245 C1242 1.403 . S
C1245 C1246 1.392 . S
C1245 C1249 1.495 . S
C1246 C1245 1.392 . S
C1246 C1247 1.385 . S
C1246 C1248 1.478 . S
C1247 H1241 0.930 . S
C1247 C1243 1.400 . S
C1247 C1246 1.385 . S
C1248 C1246 1.478 . S
C1248 C1250 1.381 . S
C1248 C1254 1.383 . S
C1249 C1245 1.495 . S
C1249 H1255 0.959 . S
C1249 H1256 0.961 . S
C1249 H1257 0.960 . S
C1250 C1248 1.381 . S
C1250 C1251 1.394 . S
C1250 H1258 0.930 . S
C1251 C1250 1.394 . S
C1251 C1252 1.383 . S
C1251 H1259 0.929 . S
C1252 C1251 1.383 . S
C1252 C1253 1.377 . S
C1253 H1237 0.930 . S
C1253 C1252 1.377 . S
C1253 C1254 1.379 . S
C1254 H1238 0.931 . S
C1254 C1248 1.383 . S
C1254 C1253 1.379 . S
H1255 C1249 0.959 . S
H1256 C1249 0.961 . S
H1257 C1249 0.960 . S
H1258 C1250 0.930 . S
H1259 C1251 0.929 . S
H1260 C1268 0.929 . S
H1261 C1270 0.930 . S
H1262 C1272 0.930 . S
H1263 C1275 0.929 . S
H1264 C1278 0.930 1_565 S
H1265 C1280 0.960 1_545 S
H1266 C1280 0.960 . S
H1267 C1280 0.960 . S
C1268 H1260 0.929 . S
C1268 C1269 1.377 . S
C1268 C1270 1.384 . S
C1269 C1268 1.377 . S
C1269 C1275 1.390 . S
C1270 H1261 0.930 . S
C1270 C1268 1.384 . S
C1270 C1271 1.372 . S
C1271 C1270 1.372 . S
C1271 C1272 1.400 . S
C1271 C1276 1.490 . S
C1272 H1262 0.930 . S
C1272 C1271 1.400 . S
C1272 C1275 1.386 . S
H1273 C1289 0.930 . S
H1274 C1290 0.931 . S
C1275 H1263 0.929 . S
C1275 C1269 1.390 . S
C1275 C1272 1.386 . S
C1276 C1271 1.490 . S
C1276 C1278 1.395 1_565 S
C1276 C1279 1.403 1_565 S
H1277 C1283 0.930 . S
C1278 H1264 0.930 1_545 S
C1278 C1276 1.395 1_545 S
C1278 C1281 1.403 . S
C1279 C1276 1.403 1_545 S
C1279 C1280 1.524 1_545 S
C1279 C1283 1.400 . S
C1280 H1265 0.960 1_565 S
C1280 H1266 0.960 . S
C1280 H1267 0.960 . S
C1280 C1279 1.524 1_565 S
C1281 C1278 1.403 . S
C1281 C1282 1.392 . S
C1281 C1285 1.495 . S
C1282 C1281 1.392 . S
C1282 C1283 1.385 . S
C1282 C1284 1.478 . S
C1283 H1277 0.930 . S
C1283 C1279 1.400 . S
C1283 C1282 1.385 . S
C1284 C1282 1.478 . S
C1284 C1286 1.381 . S
C1284 C1290 1.383 . S
C1285 C1281 1.495 . S
C1285 H1291 0.959 . S
C1285 H1292 0.961 . S
C1285 H1293 0.960 . S
C1286 C1284 1.381 . S
C1286 C1287 1.394 . S
C1286 H1294 0.930 . S
C1287 C1286 1.394 . S
C1287 C1288 1.383 . S
C1287 H1295 0.929 . S
C1288 C1287 1.383 . S
C1288 C1289 1.377 . S
C1289 H1273 0.930 . S
C1289 C1288 1.377 . S
C1289 C1290 1.379 . S
C1290 H1274 0.931 . S
C1290 C1284 1.383 . S
C1290 C1289 1.379 . S
H1291 C1285 0.959 . S
H1292 C1285 0.961 . S
H1293 C1285 0.960 . S
H1294 C1286 0.930 . S
H1295 C1287 0.929 . S
H1296 C1304 0.929 . S
H1297 C1306 0.930 . S
H1298 C1308 0.930 . S
H1299 C1311 0.929 . S
H1300 C1314 0.930 . S
H1301 C1316 0.960 . S
H1302 C1316 0.960 . S
H1303 C1316 0.960 . S
C1304 H1296 0.929 . S
C1304 C1305 1.377 . S
C1304 C1306 1.384 . S
C1305 C1304 1.377 . S
C1305 C1311 1.390 . S
C1306 H1297 0.930 . S
C1306 C1304 1.384 . S
C1306 C1307 1.372 . S
C1307 C1306 1.372 . S
C1307 C1308 1.400 . S
C1307 C1312 1.490 . S
C1308 H1298 0.930 . S
C1308 C1307 1.400 . S
C1308 C1311 1.386 . S
H1309 C1325 0.930 . S
H1310 C1326 0.931 . S
C1311 H1299 0.929 . S
C1311 C1305 1.390 . S
C1311 C1308 1.386 . S
C1312 C1307 1.490 . S
C1312 C1314 1.395 . S
C1312 C1315 1.403 . S
H1313 C1319 0.930 . S
C1314 H1300 0.930 . S
C1314 C1312 1.395 . S
C1314 C1317 1.403 1_655 S
C1315 C1312 1.403 . S
C1315 C1316 1.524 . S
C1315 C1319 1.400 1_655 S
C1316 H1301 0.960 . S
C1316 H1302 0.960 . S
C1316 H1303 0.960 . S
C1316 C1315 1.524 . S
C1317 C1314 1.403 1_455 S
C1317 C1318 1.392 . S
C1317 C1321 1.495 . S
C1318 C1317 1.392 . S
C1318 C1319 1.385 . S
C1318 C1320 1.478 . S
C1319 H1313 0.930 . S
C1319 C1315 1.400 1_455 S
C1319 C1318 1.385 . S
C1320 C1318 1.478 . S
C1320 C1322 1.381 . S
C1320 C1326 1.383 . S
C1321 C1317 1.495 . S
C1321 H1327 0.959 . S
C1321 H1328 0.961 . S
C1321 H1329 0.960 . S
C1322 C1320 1.381 . S
C1322 C1323 1.394 . S
C1322 H1330 0.930 . S
C1323 C1322 1.394 . S
C1323 C1324 1.383 . S
C1323 H1331 0.929 . S
C1324 C1323 1.383 . S
C1324 C1325 1.377 . S
C1325 H1309 0.930 . S
C1325 C1324 1.377 . S
C1325 C1326 1.379 . S
C1326 H1310 0.931 . S
C1326 C1320 1.383 . S
C1326 C1325 1.379 . S
H1327 C1321 0.959 . S
H1328 C1321 0.961 . S
H1329 C1321 0.960 . S
H1330 C1322 0.930 . S
H1331 C1323 0.929 . S
C369 C17 3.231 . S
C388 C2 3.229 . S
C405 C42 3.283 . S
C424 C57 3.275 . S
C441 C97 3.310 1_556 S
C460 C82 3.309 . S
C477 C122 3.233 . S
C496 C137 3.226 . S
C513 C177 3.285 . S
C532 C162 3.284 . S
C549 C202 3.310 . S
C568 C217 3.310 1_556 S
C585 C248 2.753 . S
C604 C269 2.749 1_556 S
C621 C309 2.791 . S
C640 C288 2.794 1_556 S
C657 C328 2.508 . S
C676 C349 2.530 1_556 S
C693 C231 1.841 . S
C712 C8 1.840 . S
C729 C71 2.742 . S
C748 C151 2.749 . S
C765 C88 1.228 . S
C784 C168 1.249 . S
C801 C111 2.882 . S
C820 C252 2.933 . S
C837 C282 1.142 . S
C856 C31 1.115 1_556 S
C873 C332 1.676 . S
C892 C48 1.591 . S
C909 C337 0.722 . S
C928 C29 0.700 . S
C945 C52 2.099 . S
C964 C257 2.077 . S
C981 C311 2.567 . S
C1000 C109 2.489 . S
C1017 C92 1.843 . S
C1036 C149 1.840 . S
C1053 C172 2.740 . S
C1072 C12 2.750 . S
C1089 C69 1.245 . S
C1108 C229 1.243 . S
C1125 C322 0.716 . S
C1144 C128 0.758 . S
C1161 C242 2.093 . S
C1180 C191 2.101 . S
C1197 C292 2.567 . S
C1216 C208 2.507 . S
C1233 C271 2.933 . S
C1252 C212 2.867 . S
C1269 C132 1.136 . S
C1288 C297 1.132 . S
C1305 C351 1.675 . S
C1324 C189 1.607 . S
