# Generated by pormake.
# Topology lcy-e, (6)-cn, num edge types: 1
# Building blocks:
#     Node 0, Type 0, BuildingBlock: KUMBOL_clean_sbu_1, # of connection points: 6
#     Node 1, Type 0, BuildingBlock: KUMBOL_clean_sbu_1, # of connection points: 6
#     Node 2, Type 0, BuildingBlock: KUMBOL_clean_sbu_1, # of connection points: 6
#     Node 3, Type 0, BuildingBlock: KUMBOL_clean_sbu_1, # of connection points: 6
#     Node 4, Type 0, BuildingBlock: KUMBOL_clean_sbu_1, # of connection points: 6
#     Node 5, Type 0, BuildingBlock: KUMBOL_clean_sbu_1, # of connection points: 6
#     Node 6, Type 0, BuildingBlock: KUMBOL_clean_sbu_1, # of connection points: 6
#     Node 7, Type 0, BuildingBlock: KUMBOL_clean_sbu_1, # of connection points: 6
#     Node 8, Type 0, BuildingBlock: KUMBOL_clean_sbu_1, # of connection points: 6
#     Node 9, Type 0, BuildingBlock: KUMBOL_clean_sbu_1, # of connection points: 6
#     Node 10, Type 0, BuildingBlock: KUMBOL_clean_sbu_1, # of connection points: 6
#     Node 11, Type 0, BuildingBlock: KUMBOL_clean_sbu_1, # of connection points: 6
#     Edge 12, Type (0, 0), BuildingBlock: TEMPAE_clean_linker_10, # of connection points: 2
#     Edge 13, Type (0, 0), BuildingBlock: TEMPAE_clean_linker_10, # of connection points: 2
#     Edge 14, Type (0, 0), BuildingBlock: TEMPAE_clean_linker_10, # of connection points: 2
#     Edge 15, Type (0, 0), BuildingBlock: TEMPAE_clean_linker_10, # of connection points: 2
#     Edge 16, Type (0, 0), BuildingBlock: TEMPAE_clean_linker_10, # of connection points: 2
#     Edge 17, Type (0, 0), BuildingBlock: TEMPAE_clean_linker_10, # of connection points: 2
#     Edge 18, Type (0, 0), BuildingBlock: TEMPAE_clean_linker_10, # of connection points: 2
#     Edge 19, Type (0, 0), BuildingBlock: TEMPAE_clean_linker_10, # of connection points: 2
#     Edge 20, Type (0, 0), BuildingBlock: TEMPAE_clean_linker_10, # of connection points: 2
#     Edge 21, Type (0, 0), BuildingBlock: TEMPAE_clean_linker_10, # of connection points: 2
#     Edge 22, Type (0, 0), BuildingBlock: TEMPAE_clean_linker_10, # of connection points: 2
#     Edge 23, Type (0, 0), BuildingBlock: TEMPAE_clean_linker_10, # of connection points: 2
#     Edge 24, Type (0, 0), BuildingBlock: TEMPAE_clean_linker_10, # of connection points: 2
#     Edge 25, Type (0, 0), BuildingBlock: TEMPAE_clean_linker_10, # of connection points: 2
#     Edge 26, Type (0, 0), BuildingBlock: TEMPAE_clean_linker_10, # of connection points: 2
#     Edge 27, Type (0, 0), BuildingBlock: TEMPAE_clean_linker_10, # of connection points: 2
#     Edge 28, Type (0, 0), BuildingBlock: TEMPAE_clean_linker_10, # of connection points: 2
#     Edge 29, Type (0, 0), BuildingBlock: TEMPAE_clean_linker_10, # of connection points: 2
#     Edge 30, Type (0, 0), BuildingBlock: TEMPAE_clean_linker_10, # of connection points: 2
#     Edge 31, Type (0, 0), BuildingBlock: TEMPAE_clean_linker_10, # of connection points: 2
#     Edge 32, Type (0, 0), BuildingBlock: TEMPAE_clean_linker_10, # of connection points: 2
#     Edge 33, Type (0, 0), BuildingBlock: TEMPAE_clean_linker_10, # of connection points: 2
#     Edge 34, Type (0, 0), BuildingBlock: TEMPAE_clean_linker_10, # of connection points: 2
#     Edge 35, Type (0, 0), BuildingBlock: TEMPAE_clean_linker_10, # of connection points: 2
#     Edge 36, Type (0, 0), BuildingBlock: TEMPAE_clean_linker_10, # of connection points: 2
#     Edge 37, Type (0, 0), BuildingBlock: TEMPAE_clean_linker_10, # of connection points: 2
#     Edge 38, Type (0, 0), BuildingBlock: TEMPAE_clean_linker_10, # of connection points: 2
#     Edge 39, Type (0, 0), BuildingBlock: TEMPAE_clean_linker_10, # of connection points: 2
#     Edge 40, Type (0, 0), BuildingBlock: TEMPAE_clean_linker_10, # of connection points: 2
#     Edge 41, Type (0, 0), BuildingBlock: TEMPAE_clean_linker_10, # of connection points: 2
#     Edge 42, Type (0, 0), BuildingBlock: TEMPAE_clean_linker_10, # of connection points: 2
#     Edge 43, Type (0, 0), BuildingBlock: TEMPAE_clean_linker_10, # of connection points: 2
#     Edge 44, Type (0, 0), BuildingBlock: TEMPAE_clean_linker_10, # of connection points: 2
#     Edge 45, Type (0, 0), BuildingBlock: TEMPAE_clean_linker_10, # of connection points: 2
#     Edge 46, Type (0, 0), BuildingBlock: TEMPAE_clean_linker_10, # of connection points: 2
#     Edge 47, Type (0, 0), BuildingBlock: TEMPAE_clean_linker_10, # of connection points: 2
# Relax obj value: 0.092
# Max RMSD: 0.242
# Mean RMSD: 0.240
data_MOF--net-lcy-e--node1-KUMBOL_clean_sbu_1--edge1-TEMPAE_clean_linker_10
_symmetry_space_group_name_H-M    P1
_symmetry_Int_Tables_number       1
_symmetry_cell_setting            triclinic
loop_
_symmetry_equiv_pos_as_xyz
'x, y, z'
_cell_length_a     44.593272
_cell_length_b     44.341594
_cell_length_c     44.555841
_cell_angle_alpha  89.960715
_cell_angle_beta   90.064468
_cell_angle_gamma 89.873966
loop_
_atom_site_label
_atom_site_type_symbol
_atom_site_fract_x
_atom_site_fract_y
_atom_site_fract_z
_atom_type_partial_charge
C0 C 0.05481 0.29994 0.45441 0.0
C1 C 0.05171 0.3465 0.48299 0.0
C2 C 0.06826 0.3215 0.47258 0.0
C3 C 0.02115 0.34897 0.47574 0.0
C4 C 0.02471 0.30354 0.44537 0.0
C5 C 0.00772 0.32763 0.45685 0.0
N6 N 0.0717 0.27667 0.44391 0.0
C7 C 0.061 0.25838 0.4217 0.0
C8 C 0.01295 0.28356 0.42411 0.0
C9 C 0.03141 0.26137 0.41167 0.0
Gd10 Gd 0.14644 0.20565 0.51899 0.0
Gd11 Gd 0.12092 0.27442 0.46239 0.0
N12 N 0.09788 0.31863 0.4791 0.0
C13 C 0.06659 0.36863 0.49973 0.0
C14 C 0.11293 0.34089 0.49379 0.0
C15 C 0.09745 0.36608 0.50466 0.0
H16 H 0.13687 0.33925 0.49681 0.0
H17 H 0.10934 0.38364 0.51655 0.0
H18 H 0.12753 0.15053 0.47259 0.0
H19 H 0.07528 0.2415 0.41157 0.0
H20 H 0.15111 0.10539 0.44993 0.0
H21 H 0.05467 0.38818 0.50814 0.0
H22 H 0.00795 0.36782 0.48385 0.0
H23 H 0.20145 0.24097 0.56027 0.0
H24 H 0.98997 0.28568 0.41645 0.0
H25 H 0.02281 0.24645 0.3945 0.0
H26 H 0.25224 0.10884 0.48574 0.0
H27 H 0.9844 0.33044 0.45057 0.0
H28 H 0.28219 0.19205 0.54661 0.0
H29 H 0.25489 0.23482 0.56918 0.0
N30 N 0.19858 0.20571 0.52745 0.0
C31 C 0.2132 0.1817 0.51507 0.0
C32 C 0.2131 0.22401 0.54751 0.0
C33 C 0.25883 0.19574 0.54092 0.0
C34 C 0.24355 0.21997 0.55361 0.0
C35 C 0.24348 0.17571 0.52225 0.0
H36 H 0.28021 0.14402 0.51771 0.0
N37 N 0.16797 0.16699 0.49101 0.0
C38 C 0.19741 0.16167 0.49679 0.0
C39 C 0.19478 0.11544 0.46803 0.0
C40 C 0.21147 0.1354 0.48572 0.0
C41 C 0.15113 0.14666 0.4754 0.0
C42 C 0.16442 0.12109 0.46288 0.0
O43 O 0.09783 0.27796 0.50836 0.0
O44 O 0.11694 0.24036 0.54014 0.0
O45 O 0.12073 0.16741 0.53581 0.0
O46 O 0.15888 0.18384 0.56076 0.0
O47 O 0.1603 0.28465 0.49222 0.0
O48 O 0.15876 0.25341 0.53455 0.0
O49 O 0.15665 0.20653 0.46921 0.0
O50 O 0.16771 0.25559 0.46449 0.0
O51 O 0.13574 0.31332 0.43664 0.0
O52 O 0.13154 0.26963 0.41511 0.0
O53 O 0.0986 0.20388 0.5033 0.0
O54 O 0.10246 0.22691 0.45739 0.0
C55 C 0.09977 0.26401 0.53468 0.0
C56 C 0.16552 0.27904 0.52074 0.0
C57 C 0.12244 0.15597 0.58787 0.0
C58 C 0.09962 0.1174 0.61957 0.0
C59 C 0.10763 0.16797 0.63889 0.0
C60 C 0.12013 0.17673 0.61153 0.0
C61 C 0.0974 0.1385 0.64292 0.0
C62 C 0.11219 0.12621 0.59202 0.0
C63 C 0.13739 0.16408 0.55955 0.0
C64 C 0.24124 0.12913 0.49366 0.0
C65 C 0.25718 0.14922 0.51183 0.0
H66 H 0.20493 0.0952 0.45893 0.0
C67 C 0.17339 0.22764 0.45763 0.0
C68 C 0.08673 0.21217 0.47767 0.0
C69 C 0.13018 0.31302 0.38376 0.0
C70 C 0.14364 0.34535 0.34164 0.0
C71 C 0.09415 0.32277 0.34408 0.0
C72 C 0.10164 0.30894 0.37119 0.0
C73 C 0.11496 0.34096 0.32941 0.0
C74 C 0.15129 0.3312 0.36881 0.0
C75 C 0.13877 0.29799 0.41191 0.0
H76 H 0.10613 0.184 0.65714 0.0
H77 H 0.12844 0.19949 0.60903 0.0
H78 H 0.08806 0.13201 0.66441 0.0
H79 H 0.11428 0.10989 0.57401 0.0
H80 H 0.07215 0.31937 0.3344 0.0
H81 H 0.08519 0.29502 0.38213 0.0
H82 H 0.10876 0.35152 0.30835 0.0
H83 H 0.17346 0.33444 0.37831 0.0
C84 C 0.97174 0.8006 0.70889 0.0
C85 C 0.92161 0.79684 0.72912 0.0
C86 C 0.94688 0.81406 0.72123 0.0
C87 C 0.92297 0.76526 0.72684 0.0
C88 C 0.97213 0.76927 0.70364 0.0
C89 C 0.94827 0.75145 0.71408 0.0
N90 N 0.99353 0.81883 0.69808 0.0
C91 C 0.01358 0.80787 0.67776 0.0
C92 C 0.99523 0.75729 0.68605 0.0
C93 C 0.01545 0.77685 0.67217 0.0
Gd94 Gd 0.04868 0.89497 0.78024 0.0
Gd95 Gd 0.99094 0.8702 0.71178 0.0
N96 N 0.94626 0.84454 0.72225 0.0
C97 C 0.89525 0.81203 0.7371 0.0
C98 C 0.92002 0.85947 0.72717 0.0
C99 C 0.89419 0.8435 0.73519 0.0
H100 H 0.91927 0.88378 0.72541 0.0
H101 H 0.87348 0.85539 0.73965 0.0
H102 H 0.10063 0.87022 0.72933 0.0
H103 H 0.02801 0.82317 0.66574 0.0
H104 H 0.14141 0.89187 0.69961 0.0
H105 H 0.8752 0.79969 0.74315 0.0
H106 H 0.90399 0.7515 0.73331 0.0
H107 H 0.02032 0.95175 0.82015 0.0
H108 H 0.99638 0.73334 0.68136 0.0
H109 H 0.0321 0.76815 0.65678 0.0
H110 H 0.14567 0.9951 0.73087 0.0
H111 H 0.94838 0.72724 0.7108 0.0
H112 H 0.07377 0.02997 0.80268 0.0
H113 H 0.03111 0.00579 0.82868 0.0
N114 N 0.0562 0.94594 0.78937 0.0
C115 C 0.08001 0.95852 0.77504 0.0
C116 C 0.03882 0.96228 0.80856 0.0
C117 C 0.06918 0.00628 0.79892 0.0
C118 C 0.04499 0.99276 0.81355 0.0
C119 C 0.08698 0.98922 0.77934 0.0
H120 H 0.11653 0.02568 0.76641 0.0
N121 N 0.08864 0.91163 0.75018 0.0
C122 C 0.09642 0.94107 0.75471 0.0
C123 C 0.13622 0.93635 0.71822 0.0
C124 C 0.12026 0.95421 0.73857 0.0
C125 C 0.10502 0.89386 0.73132 0.0
C126 C 0.1287 0.90603 0.71477 0.0
O127 O 0.97758 0.85505 0.75924 0.0
O128 O 0.02223 0.85186 0.78607 0.0
O129 O 0.09057 0.88129 0.80173 0.0
O130 O 0.05298 0.89827 0.82879 0.0
O131 O 0.97668 0.90926 0.7419 0.0
O132 O 1.00003 0.90765 0.78954 0.0
O133 O 0.0335 0.92863 0.7453 0.0
O134 O 0.03258 0.89791 0.70493 0.0
O135 O 0.96379 0.90357 0.68762 0.0
O136 O 0.98597 0.86794 0.66358 0.0
O137 O 0.05547 0.84939 0.75968 0.0
O138 O 0.03982 0.85634 0.71128 0.0
C139 C 0.99347 0.84628 0.78281 0.0
C140 C 0.97774 0.91521 0.7711 0.0
C141 C 0.09858 0.88361 0.85595 0.0
C142 C 0.14114 0.86173 0.88376 0.0
C143 C 0.105 0.89439 0.9089 0.0
C144 C 0.08893 0.89776 0.88236 0.0
C145 C 0.13078 0.87669 0.90964 0.0
C146 C 0.12506 0.86572 0.85656 0.0
C147 C 0.08041 0.88774 0.82836 0.0
C148 C 0.12743 0.9847 0.74312 0.0
C149 C 0.1109 1.00211 0.76345 0.0
H150 H 0.15462 0.94565 0.70536 0.0
C151 C 0.03415 0.92509 0.71617 0.0
C152 C 0.05297 0.83989 0.73203 0.0
C153 C 0.9413 0.88601 0.64248 0.0
C154 C 0.91029 0.90152 0.60001 0.0
C155 C 0.90163 0.8533 0.62437 0.0
C156 C 0.92501 0.85901 0.64438 0.0
C157 C 0.89429 0.8744 0.60229 0.0
C158 C 0.93389 0.90731 0.62017 0.0
C159 C 0.96776 0.8907 0.6617 0.0
H160 H 0.09742 0.90561 0.92909 0.0
H161 H 0.06894 0.91168 0.88252 0.0
H162 H 0.14286 0.87497 0.93067 0.0
H163 H 0.13266 0.8545 0.83634 0.0
H164 H 0.88941 0.83228 0.62571 0.0
H165 H 0.9308 0.84202 0.66087 0.0
H166 H 0.87634 0.86941 0.58666 0.0
H167 H 0.94676 0.92793 0.61811 0.0
C168 C 0.30169 0.79762 0.05105 0.0
C169 C 0.3015 0.76381 0.09394 0.0
C170 C 0.31683 0.77805 0.0702 0.0
C171 C 0.27071 0.76921 0.0979 0.0
C172 C 0.27104 0.80394 0.05564 0.0
C173 C 0.25554 0.78925 0.07884 0.0
N174 N 0.31721 0.8115 0.02878 0.0
C175 C 0.30446 0.8342 0.01258 0.0
C176 C 0.2571 0.82545 0.03727 0.0
C177 C 0.27404 0.84105 0.01601 0.0
Gd178 Gd 0.39439 0.73898 0.9587 0.0
Gd179 Gd 0.36738 0.79711 0.02377 0.0
N180 N 0.34663 0.77318 0.06577 0.0
C181 C 0.31765 0.7448 0.11317 0.0
C182 C 0.36272 0.75587 0.08526 0.0
C183 C 0.34844 0.74105 0.10894 0.0
H184 H 0.38646 0.7537 0.08275 0.0
H185 H 0.36116 0.72677 0.12393 0.0
H186 H 0.37338 0.78007 0.90029 0.0
H187 H 0.31798 0.84755 0.99763 0.0
H188 H 0.39692 0.80504 0.85641 0.0
H189 H 0.30669 0.73335 0.13162 0.0
H190 H 0.25854 0.75835 0.11594 0.0
H191 H 0.44924 0.69613 0.99081 0.0
H192 H 0.23358 0.83093 0.04007 0.0
H193 H 0.26383 0.85868 1.00261 0.0
H194 H 0.50159 0.78239 0.86709 0.0
H195 H 0.23192 0.79365 0.08256 0.0
H196 H 0.53181 0.71843 0.94821 0.0
H197 H 0.50373 0.69041 0.98697 0.0
N198 N 0.44647 0.73076 0.95749 0.0
C199 C 0.46128 0.74528 0.93506 0.0
C200 C 0.46119 0.71025 0.97516 0.0
C201 C 0.5079 0.72207 0.95059 0.0
C202 C 0.49215 0.70628 0.97255 0.0
C203 C 0.49238 0.74115 0.93094 0.0
H204 H 0.53062 0.75199 0.90307 0.0
N205 N 0.41498 0.76579 0.91878 0.0
C206 C 0.445 0.76273 0.9148 0.0
C207 C 0.44178 0.79198 0.86909 0.0
C208 C 0.45926 0.77606 0.88992 0.0
C209 C 0.39748 0.77954 0.89759 0.0
C210 C 0.4107 0.79346 0.87278 0.0
O211 O 0.34108 0.75285 0.01865 0.0
O212 O 0.37343 0.71684 0.99841 0.0
O213 O 0.36279 0.72006 0.9266 0.0
O214 O 0.4055 0.69825 0.93406 0.0
O215 O 0.41074 0.77219 0.03097 0.0
O216 O 0.40931 0.72613 1.00672 0.0
O217 O 0.40406 0.78901 0.95686 0.0
O218 O 0.41423 0.79872 1.00537 0.0
O219 O 0.38068 0.82065 0.0643 0.0
O220 O 0.37221 0.84585 0.02316 0.0
O221 O 0.34749 0.75831 0.95744 0.0
O222 O 0.35137 0.80654 0.97614 0.0
C223 C 0.34925 0.72466 0.01327 0.0
C224 C 0.41741 0.7434 0.02965 0.0
C225 C 0.3667 0.66869 0.91281 0.0
C226 C 0.34593 0.63354 0.87604 0.0
C227 C 0.35287 0.61826 0.9282 0.0
C228 C 0.36432 0.64666 0.93522 0.0
C229 C 0.34379 0.61169 0.8989 0.0
C230 C 0.35722 0.66222 0.88335 0.0
C231 C 0.38048 0.69804 0.91903 0.0
C232 C 0.49025 0.77237 0.88612 0.0
C233 C 0.50678 0.75507 0.90663 0.0
H234 H 0.45197 0.80261 0.84973 0.0
C235 C 0.42061 0.80218 0.9771 0.0
C236 C 0.33891 0.78669 0.95788 0.0
C237 C 0.37227 0.87319 0.06914 0.0
C238 C 0.38737 0.9168 0.09875 0.0
C239 C 0.33457 0.90634 0.09024 0.0
C240 C 0.34209 0.88079 0.07352 0.0
C241 C 0.35705 0.92431 0.10274 0.0
C242 C 0.39493 0.89116 0.08193 0.0
C243 C 0.38094 0.84693 0.05116 0.0
H244 H 0.35125 0.60117 0.94547 0.0
H245 H 0.3716 0.65131 0.95795 0.0
H246 H 0.335 0.58944 0.89416 0.0
H247 H 0.35961 0.67919 0.86598 0.0
H248 H 0.31125 0.91229 0.09346 0.0
H249 H 0.32443 0.86709 0.06401 0.0
H250 H 0.35083 0.94414 0.11551 0.0
H251 H 0.41834 0.88538 0.07858 0.0
C252 C 0.54582 0.21243 0.21138 0.0
C253 C 0.58958 0.21375 0.24375 0.0
C254 C 0.56559 0.19777 0.23059 0.0
C255 C 0.59364 0.24438 0.23691 0.0
C256 C 0.55019 0.24304 0.204 0.0
C257 C 0.57405 0.25897 0.21703 0.0
N258 N 0.52278 0.19661 0.19926 0.0
C259 C 0.50528 0.20901 0.17742 0.0
C260 C 0.53077 0.25658 0.18324 0.0
C261 C 0.5085 0.23932 0.16953 0.0
Gd262 Gd 0.45775 0.11409 0.27267 0.0
Gd263 Gd 0.51907 0.14607 0.21342 0.0
N264 N 0.56098 0.16811 0.23694 0.0
C265 C 0.60855 0.19858 0.26375 0.0
C266 C 0.57909 0.15351 0.25691 0.0
C267 C 0.60316 0.16836 0.27047 0.0
H268 H 0.57455 0.13084 0.26333 0.0
H269 H 0.61731 0.15655 0.28638 0.0
H270 H 0.3988 0.13715 0.23381 0.0
H271 H 0.48946 0.19527 0.16542 0.0
H272 H 0.35191 0.11556 0.21318 0.0
H273 H 0.6271 0.2101 0.27444 0.0
H274 H 0.61192 0.25699 0.24684 0.0
H275 H 0.48749 0.05984 0.31635 0.0
H276 H 0.53338 0.28004 0.17696 0.0
H277 H 0.49416 0.24919 0.15253 0.0
H278 H 0.35871 0.01016 0.2373 0.0
H279 H 0.57766 0.28253 0.21172 0.0
H280 H 0.44108 0.97766 0.29838 0.0
H281 H 0.48183 1.00514 0.32422 0.0
N282 N 0.45393 0.06232 0.28256 0.0
C283 C 0.43035 0.04811 0.2695 0.0
C284 C 0.4714 0.04761 0.30308 0.0
C285 C 0.44447 1.0014 0.29375 0.0
C286 C 0.46756 0.01679 0.30831 0.0
C287 C 0.42491 0.01725 0.27483 0.0
H288 H 0.39498 0.97983 0.26607 0.0
N289 N 0.41579 0.09478 0.24825 0.0
C290 C 0.41018 0.06502 0.25269 0.0
C291 C 0.36274 0.07019 0.2269 0.0
C292 C 0.3837 0.05177 0.2416 0.0
C293 C 0.39484 0.11317 0.2353 0.0
C294 C 0.36826 0.10106 0.22392 0.0
O295 O 0.51355 0.17136 0.25854 0.0
O296 O 0.50043 0.13275 0.2903 0.0
O297 O 0.42836 0.14685 0.29444 0.0
O298 O 0.4359 0.10326 0.3149 0.0
O299 O 0.53355 0.10337 0.23615 0.0
O300 O 0.50608 0.0953 0.28018 0.0
O301 O 0.45422 0.10401 0.2231 0.0
O302 O 0.50305 0.09802 0.21041 0.0
O303 O 0.55772 0.13882 0.1824 0.0
O304 O 0.51116 0.14185 0.16649 0.0
O305 O 0.45297 0.16189 0.25542 0.0
O306 O 0.47038 0.15929 0.20709 0.0
C307 C 0.51014 0.1602 0.28597 0.0
C308 C 0.52973 0.09019 0.26241 0.0
C309 C 0.41344 0.14117 0.34552 0.0
C310 C 0.37577 0.16317 0.37916 0.0
C311 C 0.4264 0.15212 0.39709 0.0
C312 C 0.43411 0.14046 0.36912 0.0
C313 C 0.3977 0.16367 0.40203 0.0
C314 C 0.38422 0.15234 0.35059 0.0
C315 C 0.42103 0.1285 0.31598 0.0
C316 C 0.37873 0.02083 0.24601 0.0
C317 C 0.39943 1.00355 0.26233 0.0
H318 H 0.34206 0.06087 0.21819 0.0
C319 C 0.47512 0.08945 0.20844 0.0
C320 C 0.45288 0.17145 0.22751 0.0
C321 C 0.54752 0.13486 0.12728 0.0
C322 C 0.5786 0.11655 0.08544 0.0
C323 C 0.53137 0.1422 0.07558 0.0
C324 C 0.52682 0.14605 0.10615 0.0
C325 C 0.55687 0.12753 0.06532 0.0
C326 C 0.57376 0.1199 0.1168 0.0
C327 C 0.53928 0.13766 0.15955 0.0
H328 H 0.44262 0.15187 0.41518 0.0
H329 H 0.45596 0.13046 0.36606 0.0
H330 H 0.3927 0.17273 0.42401 0.0
H331 H 0.36788 0.15147 0.33258 0.0
H332 H 0.51498 0.15063 0.05972 0.0
H333 H 0.50661 0.15763 0.11323 0.0
H334 H 0.55971 0.12481 0.04131 0.0
H335 H 0.58999 0.11105 0.13264 0.0
C336 C 0.55223 0.20539 0.54931 0.0
C337 C 0.55168 0.16432 0.51348 0.0
C338 C 0.56701 0.18778 0.52834 0.0
C339 C 0.52124 0.15922 0.51974 0.0
C340 C 0.52219 0.19919 0.55698 0.0
C341 C 0.50657 0.1765 0.54159 0.0
N342 N 0.56776 0.22736 0.56358 0.0
C343 C 0.55607 0.24134 0.58803 0.0
C344 C 0.50917 0.21525 0.58068 0.0
C345 C 0.52647 0.2359 0.59677 0.0
Gd346 Gd 0.64137 0.30083 0.48718 0.0
Gd347 Gd 0.6166 0.23613 0.5471 0.0
N348 N 0.59662 0.19304 0.52318 0.0
C349 C 0.56752 0.14633 0.49317 0.0
C350 C 0.61237 0.17457 0.50448 0.0
C351 C 0.59809 0.15128 0.48894 0.0
H352 H 0.63582 0.17754 0.50129 0.0
H353 H 0.61069 0.13716 0.4737 0.0
H354 H 0.61956 0.35616 0.53262 0.0
H355 H 0.56984 0.25645 0.60087 0.0
H356 H 0.64157 0.40156 0.55621 0.0
H357 H 0.55655 0.1282 0.48116 0.0
H358 H 0.50906 0.14145 0.50837 0.0
H359 H 0.69479 0.27213 0.44121 0.0
H360 H 0.48623 0.21102 0.58747 0.0
H361 H 0.51712 0.24739 0.61603 0.0
H362 H 0.74363 0.40143 0.5223 0.0
H363 H 0.48337 0.17168 0.54689 0.0
H364 H 0.77402 0.32452 0.45336 0.0
H365 H 0.74764 0.28186 0.42944 0.0
N366 N 0.69197 0.30665 0.47447 0.0
C367 C 0.70574 0.33082 0.48722 0.0
C368 C 0.70637 0.28968 0.4533 0.0
C369 C 0.75098 0.31978 0.45941 0.0
C370 C 0.73623 0.29558 0.44596 0.0
C371 C 0.73564 0.33806 0.4799 0.0
H372 H 0.77215 0.36926 0.4876 0.0
N373 N 0.66082 0.34173 0.51358 0.0
C374 C 0.68975 0.34885 0.50721 0.0
C375 C 0.68568 0.39343 0.53815 0.0
C376 C 0.70309 0.37474 0.51975 0.0
C377 C 0.64312 0.36094 0.52975 0.0
C378 C 0.65545 0.3867 0.54286 0.0
O379 O 0.58838 0.24375 0.50432 0.0
O380 O 0.62181 0.2591 0.46752 0.0
O381 O 0.60671 0.32947 0.46673 0.0
O382 O 0.65092 0.32645 0.44701 0.0
O383 O 0.6572 0.22461 0.51983 0.0
O384 O 0.65942 0.25321 0.47577 0.0
O385 O 0.65526 0.30159 0.53597 0.0
O386 O 0.66439 0.25273 0.5475 0.0
O387 O 0.62561 0.19694 0.57607 0.0
O388 O 0.62799 0.2428 0.59359 0.0
O389 O 0.5953 0.30405 0.50796 0.0
O390 O 0.5993 0.28376 0.55561 0.0
C391 C 0.59736 0.24515 0.47601 0.0
C392 C 0.66722 0.22948 0.49244 0.0
C393 C 0.61323 0.34888 0.41669 0.0
C394 C 0.59678 0.38997 0.38388 0.0
C395 C 0.60938 0.34089 0.36299 0.0
C396 C 0.61604 0.32995 0.39165 0.0
C397 C 0.60013 0.37078 0.35907 0.0
C398 C 0.60307 0.3788 0.41279 0.0
C399 C 0.62486 0.33955 0.4462 0.0
C400 C 0.73298 0.38169 0.51279 0.0
C401 C 0.74919 0.36342 0.49294 0.0
H402 H 0.69511 0.41359 0.54809 0.0
C403 C 0.67277 0.2809 0.5474 0.0
C404 C 0.5867 0.30245 0.53616 0.0
C405 C 0.6262 0.20352 0.63016 0.0
C406 C 0.64061 0.17217 0.67322 0.0
C407 C 0.60328 0.21172 0.67896 0.0
C408 C 0.60632 0.21941 0.64883 0.0
C409 C 0.62021 0.18831 0.69108 0.0
C410 C 0.64368 0.1799 0.64262 0.0
C411 C 0.63184 0.21407 0.59913 0.0
H412 H 0.61199 0.32635 0.34367 0.0
H413 H 0.6242 0.30706 0.39417 0.0
H414 H 0.59568 0.37901 0.33659 0.0
H415 H 0.60145 0.39374 0.43198 0.0
H416 H 0.58803 0.2243 0.69312 0.0
H417 H 0.59373 0.23844 0.64056 0.0
H418 H 0.61768 0.183 0.71469 0.0
H419 H 0.65974 0.16793 0.62877 0.0
C420 C 0.96853 0.46072 0.70752 0.0
C421 C 0.99523 0.45547 0.66036 0.0
C422 C 0.98283 0.44257 0.68648 0.0
C423 C 0.9936 0.48681 0.65602 0.0
C424 C 0.96568 0.49202 0.70253 0.0
C425 C 0.97878 0.50502 0.677 0.0
N426 N 0.95608 0.44758 0.73207 0.0
C427 C 0.93761 0.46375 0.75035 0.0
C428 C 0.94864 0.50913 0.7227 0.0
C429 C 0.93388 0.49473 0.74625 0.0
Gd430 Gd 0.02018 0.36534 0.80007 0.0
Gd431 Gd 0.96132 0.39511 0.73543 0.0
N432 N 0.98419 0.41226 0.69132 0.0
C433 C 0.00883 0.43643 0.63934 0.0
C434 C 0.99565 0.39352 0.67004 0.0
C435 C 0.00877 0.4053 0.6441 0.0
H436 H 0.9937 0.36953 0.67248 0.0
H437 H 0.01832 0.39035 0.62753 0.0
H438 H 0.98219 0.38707 0.85953 0.0
H439 H 0.9243 0.45251 0.76695 0.0
H440 H 0.96537 0.36514 0.90786 0.0
H441 H 0.01881 0.44546 0.61909 0.0
H442 H 1.00324 0.49712 0.63621 0.0
H443 H 0.05837 0.30937 0.76335 0.0
H444 H 0.94556 0.53316 0.71944 0.0
H445 H 0.91882 0.50724 0.76064 0.0
H446 H 0.99434 0.26101 0.90122 0.0
H447 H 0.977 0.52905 0.67293 0.0
H448 H 0.04664 0.22839 0.81336 0.0
H449 H 0.06683 0.25523 0.76922 0.0
N450 N 0.0294 0.31309 0.80144 0.0
C451 C 0.01904 0.29895 0.82649 0.0
C452 C 0.04732 0.29793 0.78158 0.0
C453 C 0.04161 0.2521 0.81024 0.0
C454 C 0.05296 0.26715 0.78524 0.0
C455 C 0.02513 0.26813 0.83165 0.0
H456 H 0.02018 0.23092 0.86279 0.0
N457 N 0.99777 0.34523 0.84245 0.0
C458 C 1.00375 0.31571 0.84799 0.0
C459 C 0.98084 0.32038 0.89693 0.0
C460 C 0.99508 0.30238 0.87536 0.0
C461 C 0.98498 0.36321 0.86373 0.0
C462 C 0.97584 0.35095 0.89111 0.0
O463 O 0.00696 0.41994 0.73962 0.0
O464 O 0.04111 0.38573 0.75963 0.0
O465 O 0.04149 0.39795 0.83059 0.0
O466 O 0.06163 0.35407 0.82269 0.0
O467 O 0.98408 0.35043 0.72648 0.0
O468 O 0.02992 0.35152 0.75141 0.0
O469 O 0.97079 0.35332 0.8036 0.0
O470 O 0.9553 0.34825 0.75482 0.0
O471 O 0.93323 0.38168 0.69702 0.0
O472 O 0.91397 0.40505 0.73477 0.0
O473 O 1.00014 0.4119 0.80202 0.0
O474 O 0.95214 0.40698 0.78424 0.0
C475 C 0.03473 0.41156 0.74671 0.0
C476 C 0.01271 0.34352 0.72846 0.0
C477 C 0.0918 0.38935 0.84964 0.0
C478 C 0.12226 0.40695 0.89194 0.0
C479 C 0.14606 0.39064 0.84565 0.0
C480 C 0.11806 0.38431 0.83309 0.0
C481 C 0.14818 0.40173 0.87489 0.0
C482 C 0.09397 0.4009 0.87915 0.0
C483 C 0.06253 0.37896 0.83811 0.0
C484 C 1.00101 0.2717 0.88041 0.0
C485 C 0.01565 0.25454 0.85847 0.0
H486 H 0.97388 0.31094 0.91824 0.0
C487 C 0.95483 0.33947 0.783 0.0
C488 C 0.97163 0.41909 0.80298 0.0
C489 C 0.88087 0.37335 0.70754 0.0
C490 C 0.83931 0.35138 0.67866 0.0
C491 C 0.83729 0.3526 0.73308 0.0
C492 C 0.86537 0.36625 0.73413 0.0
C493 C 0.82432 0.34531 0.70563 0.0
C494 C 0.86769 0.36563 0.67956 0.0
C495 C 0.90868 0.39185 0.70923 0.0
H496 H 0.16623 0.38652 0.83279 0.0
H497 H 0.11696 0.37499 0.81065 0.0
H498 H 0.17015 0.40607 0.88436 0.0
H499 H 0.07386 0.40422 0.89241 0.0
H500 H 0.82538 0.34788 0.7537 0.0
H501 H 0.87456 0.37193 0.75591 0.0
H502 H 0.80237 0.33486 0.70539 0.0
H503 H 0.87908 0.37112 0.6588 0.0
C504 C 0.9545 0.79806 0.05368 0.0
C505 C 0.95598 0.84407 0.02411 0.0
C506 C 0.94014 0.81909 0.03548 0.0
C507 C 0.98673 0.84694 0.03024 0.0
C508 C 0.98486 0.80202 0.06154 0.0
C509 C 1.00112 0.82603 0.04901 0.0
N510 N 0.93826 0.77495 0.06533 0.0
C511 C 0.94997 0.75705 0.08736 0.0
C512 C 0.99763 0.78245 0.08268 0.0
C513 C 0.97991 0.76033 0.09616 0.0
Gd514 Gd 0.86238 0.70502 0.99058 0.0
Gd515 Gd 0.88868 0.77175 0.04842 0.0
N516 N 0.91032 0.8159 0.03012 0.0
C517 C 0.94015 0.86597 0.00784 0.0
C518 C 0.89442 0.83801 0.01607 0.0
C519 C 0.90912 0.86329 1.00447 0.0
H520 H 0.87037 0.83647 0.01451 0.0
H521 H 0.89649 0.88091 0.99338 0.0
H522 H 0.88283 0.64496 0.02847 0.0
H523 H 0.93633 0.74008 0.0981 0.0
H524 H 0.85945 0.5992 0.05029 0.0
H525 H 0.95145 0.88561 0.99888 0.0
H526 H 0.99936 0.86581 0.02141 0.0
H527 H 0.8073 0.73962 0.94906 0.0
H528 H 0.02086 0.78482 0.08942 0.0
H529 H 0.98933 0.74566 0.11317 0.0
H530 H 0.75454 0.61213 0.02962 0.0
H531 H 0.0246 0.82915 0.05442 0.0
H532 H 0.72462 0.6969 0.97034 0.0
H533 H 0.75288 0.73662 0.9438 0.0
N534 N 0.81011 0.70512 0.98263 0.0
C535 C 0.79517 0.68208 0.99617 0.0
C536 C 0.79541 0.72366 0.96287 0.0
C537 C 0.74856 0.69897 0.97397 0.0
C538 C 0.7644 0.72148 0.95903 0.0
C539 C 0.76403 0.67833 0.99201 0.0
H540 H 0.7256 0.65017 1.00174 0.0
N541 N 0.8414 0.66448 0.01583 0.0
C542 C 0.81139 0.66073 0.01242 0.0
C543 C 0.81458 0.61282 0.0382 0.0
C544 C 0.79707 0.63493 0.02404 0.0
C545 C 0.85881 0.64243 0.02818 0.0
C546 C 0.84564 0.6165 0.04008 0.0
O547 O 0.91406 0.77092 1.0029 0.0
O548 O 0.88422 0.74425 0.96895 0.0
O549 O 0.89382 0.67377 0.96896 0.0
O550 O 0.84905 0.6799 0.95129 0.0
O551 O 0.84804 0.78348 0.02088 0.0
O552 O 0.84816 0.75343 0.9777 0.0
O553 O 0.85298 0.7033 0.04034 0.0
O554 O 0.84229 0.7524 0.04664 0.0
O555 O 0.87601 0.81057 0.07584 0.0
O556 O 0.87861 0.76584 0.0956 0.0
O557 O 0.90985 0.70226 0.0078 0.0
O558 O 0.90611 0.72416 0.05438 0.0
C559 C 0.90698 0.76201 0.97524 0.0
C560 C 0.8407 0.77822 0.99279 0.0
C561 C 0.88464 0.65814 0.91825 0.0
C562 C 0.9041 0.61971 0.88358 0.0
C563 C 0.881 0.66606 0.86465 0.0
C564 C 0.87624 0.67619 0.89382 0.0
C565 C 0.89418 0.63797 0.85952 0.0
C566 C 0.8992 0.63034 0.91311 0.0
C567 C 0.87438 0.66558 0.94878 0.0
C568 C 0.76598 0.63165 0.02057 0.0
C569 C 0.74949 0.65336 1.00475 0.0
H570 H 0.80441 0.59262 0.04727 0.0
C571 C 0.83672 0.72432 0.05294 0.0
C572 C 0.92128 0.70898 0.03408 0.0
C573 C 0.88039 0.80758 0.12925 0.0
C574 C 0.86768 0.84038 0.17159 0.0
C575 C 0.91221 0.80869 0.17344 0.0
C576 C 0.90584 0.79755 0.1449 0.0
C577 C 0.89337 0.82998 0.18667 0.0
C578 C 0.8611 0.82893 0.14282 0.0
C579 C 0.87236 0.79432 0.09995 0.0
H580 H 0.87363 0.67968 0.84585 0.0
H581 H 0.86494 0.69756 0.89728 0.0
H582 H 0.89586 0.63046 0.83649 0.0
H583 H 0.90594 0.61686 0.93225 0.0
H584 H 0.93175 0.80063 0.18547 0.0
H585 H 0.92055 0.78075 0.13537 0.0
H586 H 0.89869 0.83814 0.20897 0.0
H587 H 0.84113 0.83653 0.13112 0.0
C588 C 0.55054 0.55307 0.21428 0.0
C589 C 0.51934 0.54933 0.1696 0.0
C590 C 0.53101 0.56637 0.19366 0.0
C591 C 0.52725 0.51883 0.16667 0.0
C592 C 0.5591 0.52262 0.21083 0.0
C593 C 0.54704 0.50552 0.18722 0.0
N594 N 0.56187 0.57002 0.23708 0.0
C595 C 0.58379 0.55878 0.25538 0.0
C596 C 0.58013 0.51041 0.23078 0.0
C597 C 0.59292 0.52873 0.25277 0.0
Gd598 Gd 0.48596 0.64801 0.30212 0.0
Gd599 Gd 0.54503 0.61998 0.23844 0.0
N600 N 0.52314 0.59581 0.19727 0.0
C601 C 0.49983 0.56342 0.14929 0.0
C602 C 0.50435 0.60966 0.17746 0.0
C603 C 0.49235 0.59374 0.15323 0.0
H604 H 0.49822 0.63271 0.18063 0.0
H605 H 0.4772 0.60478 0.13774 0.0
H606 H 0.52499 0.62529 0.36075 0.0
H607 H 0.59445 0.57294 0.27196 0.0
H608 H 0.54741 0.64722 0.40677 0.0
H609 H 0.49033 0.55107 0.13059 0.0
H610 H 0.51831 0.50537 0.14847 0.0
H611 H 0.4453 0.70398 0.26914 0.0
H612 H 0.58727 0.48712 0.22886 0.0
H613 H 0.61004 0.51981 0.26751 0.0
H614 H 0.5202 0.75169 0.40144 0.0
H615 H 0.55322 0.48204 0.1844 0.0
H616 H 0.46186 0.785 0.31757 0.0
H617 H 0.43803 0.75834 0.27516 0.0
N618 N 0.47757 0.70026 0.30443 0.0
C619 C 0.49025 0.71433 0.32841 0.0
C620 C 0.45808 0.71549 0.28614 0.0
C621 C 0.46652 0.76127 0.31405 0.0
C622 C 0.4531 0.74634 0.29005 0.0
C623 C 0.48449 0.74508 0.33416 0.0
H624 H 0.49095 0.78183 0.36546 0.0
N625 N 0.51146 0.66763 0.34326 0.0
C626 C 0.50725 0.69747 0.3486 0.0
C627 C 0.53375 0.69258 0.39575 0.0
C628 C 0.51827 0.71073 0.37513 0.0
C629 C 0.5243 0.64934 0.36435 0.0
C630 C 0.53654 0.66166 0.39045 0.0
O631 O 0.49974 0.5946 0.24096 0.0
O632 O 0.46581 0.62874 0.26087 0.0
O633 O 0.46484 0.61547 0.33244 0.0
O634 O 0.44503 0.6596 0.32573 0.0
O635 O 0.52179 0.66424 0.23051 0.0
O636 O 0.47542 0.66405 0.25348 0.0
O637 O 0.53557 0.65793 0.30588 0.0
O638 O 0.54717 0.66715 0.25745 0.0
O639 O 0.56822 0.63289 0.1975 0.0
O640 O 0.59338 0.62501 0.2387 0.0
O641 O 0.5045 0.60046 0.30421 0.0
O642 O 0.55268 0.60562 0.2865 0.0
C643 C 0.47195 0.60311 0.24756 0.0
C644 C 0.4933 0.67145 0.23071 0.0
C645 C 0.4148 0.62318 0.35098 0.0
C646 C 0.384 0.60303 0.39173 0.0
C647 C 0.36103 0.61823 0.34453 0.0
C648 C 0.38903 0.62653 0.33322 0.0
C649 C 0.3585 0.60654 0.37356 0.0
C650 C 0.4122 0.61143 0.38033 0.0
C651 C 0.44409 0.6344 0.34064 0.0
C652 C 0.51224 0.74119 0.38098 0.0
C653 C 0.49552 0.75834 0.36051 0.0
H654 H 0.54264 0.70201 0.41633 0.0
C655 C 0.5498 0.67381 0.28584 0.0
C656 C 0.53259 0.59157 0.30288 0.0
C657 C 0.62053 0.62367 0.19286 0.0
C658 C 0.66372 0.63751 0.16234 0.0
C659 C 0.6548 0.58506 0.17529 0.0
C660 C 0.62906 0.59328 0.19117 0.0
C661 C 0.67207 0.60702 0.16096 0.0
C662 C 0.63789 0.6458 0.17834 0.0
C663 C 0.59444 0.63318 0.21054 0.0
H664 H 0.34116 0.62114 0.33086 0.0
H665 H 0.39049 0.63602 0.31087 0.0
H666 H 0.33654 0.60051 0.38201 0.0
H667 H 0.43196 0.60923 0.39439 0.0
H668 H 0.66149 0.56161 0.17422 0.0
H669 H 0.61603 0.57602 0.20223 0.0
H670 H 0.69209 0.60027 0.14892 0.0
H671 H 0.63153 0.66938 0.17975 0.0
C672 C 0.21145 0.54275 0.21535 0.0
C673 C 0.24176 0.58815 0.21866 0.0
C674 C 0.22946 0.56438 0.20162 0.0
C675 C 0.23516 0.59035 0.24937 0.0
C676 C 0.2044 0.54529 0.24611 0.0
C677 C 0.21643 0.56908 0.26302 0.0
N678 N 0.20015 0.51978 0.19859 0.0
C679 C 0.18026 0.49985 0.21073 0.0
C680 C 0.18463 0.52442 0.2588 0.0
C681 C 0.17206 0.50205 0.2408 0.0
Gd682 Gd 0.2728 0.46157 0.11408 0.0
Gd683 Gd 0.21069 0.52223 0.1472 0.0
N684 N 0.23536 0.5619 0.17175 0.0
C685 C 0.26039 0.60903 0.20433 0.0
C686 C 0.25349 0.58222 0.15773 0.0
C687 C 0.2664 0.60594 0.17376 0.0
H688 H 0.25899 0.57953 0.13455 0.0
H689 H 0.28109 0.62173 0.16254 0.0
H690 H 0.23228 0.40361 0.13973 0.0
H691 H 0.16935 0.48325 0.19678 0.0
H692 H 0.20896 0.35721 0.11967 0.0
H693 H 0.27039 0.6275 0.21669 0.0
H694 H 0.24429 0.60855 0.26275 0.0
H695 H 0.31544 0.48941 0.05904 0.0
H696 H 0.17818 0.52596 0.28218 0.0
H697 H 0.15531 0.48705 0.24971 0.0
H698 H 0.23708 0.35667 0.01566 0.0
H699 H 0.2112 0.57136 0.28665 0.0
H700 H 0.30237 0.43496 0.9809 0.0
H701 H 0.32584 0.47899 1.00559 0.0
N702 N 0.28419 0.45367 0.06351 0.0
C703 C 0.27203 0.42869 0.05082 0.0
C704 C 0.30387 0.47122 0.04793 0.0
C705 C 0.2972 0.43992 1.00413 0.0
C706 C 0.31035 0.4649 0.01791 0.0
C707 C 0.27807 0.42123 0.02068 0.0
H708 H 0.26925 0.38939 0.9849 0.0
N709 N 0.24886 0.41776 0.09731 0.0
C710 C 0.25381 0.41025 0.06816 0.0
C711 C 0.22442 0.36499 0.0745 0.0
C712 C 0.24132 0.38385 0.05584 0.0
C713 C 0.23424 0.39843 0.11615 0.0
C714 C 0.22122 0.37211 0.10488 0.0
O715 O 0.25709 0.51801 0.16952 0.0
O716 O 0.28922 0.50586 0.13071 0.0
O717 O 0.29678 0.43292 0.14738 0.0
O718 O 0.3172 0.44525 0.10458 0.0
O719 O 0.23325 0.53837 0.10544 0.0
O720 O 0.27521 0.50902 0.09226 0.0
O721 O 0.22416 0.45665 0.101 0.0
O722 O 0.20105 0.50308 0.10106 0.0
O723 O 0.1845 0.56181 0.13252 0.0
O724 O 0.16398 0.5265 0.15837 0.0
O725 O 0.25497 0.45821 0.16132 0.0
O726 O 0.20598 0.47221 0.15477 0.0
C727 C 0.28416 0.51657 0.15751 0.0
C728 C 0.25752 0.53328 0.08935 0.0
C729 C 0.34822 0.41444 0.13658 0.0
C730 C 0.37746 0.37221 0.15759 0.0
C731 C 0.40175 0.41096 0.12736 0.0
C732 C 0.37462 0.42597 0.1239 0.0
C733 C 0.40315 0.38428 0.14366 0.0
C734 C 0.34965 0.38746 0.15371 0.0
C735 C 0.31967 0.43013 0.12941 0.0
C736 C 0.24667 0.37675 0.0256 0.0
C737 C 0.26505 0.39535 0.00809 0.0
H738 H 0.21445 0.3445 0.06586 0.0
C739 C 0.207 0.47704 0.08832 0.0
C740 C 0.22677 0.45729 0.16955 0.0
C741 C 0.13186 0.55219 0.12511 0.0
C742 C 0.09057 0.58003 0.10147 0.0
C743 C 0.08863 0.52544 0.105 0.0
C744 C 0.11655 0.5251 0.11899 0.0
C745 C 0.07571 0.55266 0.09633 0.0
C746 C 0.11866 0.57986 0.1162 0.0
C747 C 0.15957 0.55135 0.14364 0.0
H748 H 0.4218 0.41986 0.11698 0.0
H749 H 0.37425 0.44654 0.11076 0.0
H750 H 0.42459 0.37283 0.14493 0.0
H751 H 0.32939 0.37834 0.16356 0.0
H752 H 0.07685 0.5045 0.10106 0.0
H753 H 0.12576 0.5035 0.12569 0.0
H754 H 0.05386 0.5524 0.08564 0.0
H755 H 0.12991 0.60097 0.12094 0.0
C756 C 0.70244 0.96903 0.80162 0.0
C757 C 0.72688 0.92054 0.79555 0.0
C758 C 0.71818 0.94503 0.81375 0.0
C759 C 0.72133 0.92158 0.76455 0.0
C760 C 0.69423 0.96874 0.77107 0.0
C761 C 0.7049 0.94562 0.75232 0.0
N762 N 0.69238 0.99092 0.8204 0.0
C763 C 0.6709 0.01077 0.81107 0.0
C764 C 0.6739 0.9905 0.7608 0.0
C765 C 0.66135 0.01084 0.7812 0.0
Gd766 Gd 0.77197 0.05219 0.8964 0.0
Gd767 Gd 0.70994 0.9886 0.87002 0.0
N768 N 0.72258 0.94446 0.84387 0.0
C769 C 0.73925 0.89502 0.80933 0.0
C770 C 0.73231 0.91879 0.85764 0.0
C771 C 0.74103 0.89378 0.84057 0.0
H772 H 0.73284 0.91744 0.88182 0.0
H773 H 0.74858 0.87334 0.85141 0.0
H774 H 0.72881 0.10826 0.87352 0.0
H775 H 0.66094 0.0265 0.82668 0.0
H776 H 0.70521 0.1542 0.89489 0.0
H777 H 0.74592 0.87558 0.79621 0.0
H778 H 0.72829 0.9032 0.75012 0.0
H779 H 0.81576 0.02173 0.95125 0.0
H780 H 0.66655 0.99076 0.73762 0.0
H781 H 0.64407 0.02637 0.77413 0.0
H782 H 0.73626 0.15308 0.99805 0.0
H783 H 0.69935 0.94535 0.72865 0.0
H784 H 0.80271 0.07453 0.03018 0.0
H785 H 0.82633 0.03124 1.00443 0.0
N786 N 0.78338 0.05712 0.94747 0.0
C787 C 0.77078 0.08162 0.96094 0.0
C788 C 0.80373 0.03959 0.96249 0.0
C789 C 0.79715 0.06991 0.00696 0.0
C790 C 0.81042 0.04536 0.99256 0.0
C791 C 0.77747 0.08868 0.99107 0.0
H792 H 0.76946 0.12003 0.02747 0.0
N793 N 0.74571 0.09326 0.91529 0.0
C794 C 0.75156 0.10019 0.94443 0.0
C795 C 0.72173 0.14551 0.93959 0.0
C796 C 0.73926 0.12636 0.95749 0.0
C797 C 0.73058 0.11286 0.89717 0.0
C798 C 0.71772 0.13894 0.90917 0.0
O799 O 0.75494 0.98816 0.84442 0.0
O800 O 0.79157 0.01202 0.87408 0.0
O801 O 0.79328 0.08324 0.86424 0.0
O802 O 0.81266 0.07547 0.9081 0.0
O803 O 0.74254 0.97079 0.90396 0.0
O804 O 0.78218 1.00432 0.91443 0.0
O805 O 0.72348 0.05329 0.91122 0.0
O806 O 0.71247 1.00385 0.91815 0.0
O807 O 0.68326 0.95128 0.88644 0.0
O808 O 0.66217 0.99458 0.87832 0.0
O809 O 0.75395 0.05474 0.84915 0.0
O810 O 0.70636 0.03798 0.85759 0.0
C811 C 0.78315 0.99465 0.85169 0.0
C812 C 0.76816 0.97787 0.91697 0.0
C813 C 0.84462 0.09893 0.87252 0.0
C814 C 0.87781 0.13783 0.85151 0.0
C815 C 0.89853 0.09402 0.8776 0.0
C816 C 0.86983 0.08274 0.88239 0.0
C817 C 0.90252 0.1214 0.86276 0.0
C818 C 0.8487 0.12626 0.85667 0.0
C819 C 0.81439 0.09047 0.88312 0.0
C820 C 0.7456 0.13311 0.9876 0.0
C821 C 0.7646 0.11433 1.00433 0.0
H822 H 0.71202 0.16592 0.94879 0.0
C823 C 0.71155 0.03175 0.92732 0.0
C824 C 0.72624 0.05106 0.8402 0.0
C825 C 0.63131 0.95077 0.87742 0.0
C826 C 0.58958 0.91761 0.88988 0.0
C827 C 0.59669 0.93482 0.8386 0.0
C828 C 0.62208 0.95096 0.84734 0.0
C829 C 0.5806 0.9181 0.85968 0.0
C830 C 0.61488 0.93418 0.89875 0.0
C831 C 0.65847 0.96672 0.88708 0.0
H832 H 0.91781 0.08186 0.88614 0.0
H833 H 0.86732 0.06195 0.89492 0.0
H834 H 0.92514 0.12995 0.86075 0.0
H835 H 0.82917 0.13873 0.84914 0.0
H836 H 0.58956 0.9351 0.81538 0.0
H837 H 0.63454 0.96336 0.83061 0.0
H838 H 0.56102 0.90561 0.85248 0.0
H839 H 0.62202 0.93375 0.92203 0.0
C840 C 0.79607 0.0456 0.29927 0.0
C841 C 0.76451 0.09037 0.2966 0.0
C842 C 0.77737 0.06656 0.31321 0.0
C843 C 0.77003 0.09247 0.26567 0.0
C844 C 0.80241 0.04831 0.26839 0.0
C845 C 0.7889 0.0715 0.25161 0.0
N846 N 0.80926 0.02359 0.31612 0.0
C847 C 0.83066 1.00522 0.30405 0.0
C848 C 0.82298 0.02828 0.25549 0.0
C849 C 0.83756 0.00705 0.27353 0.0
Gd850 Gd 0.73538 0.95992 0.39587 0.0
Gd851 Gd 0.7961 0.0234 0.36701 0.0
N852 N 0.77201 0.06381 0.34317 0.0
C853 C 0.74695 0.11174 0.31171 0.0
C854 C 0.75673 0.08565 0.35827 0.0
C855 C 0.74342 0.10959 0.34276 0.0
H856 H 0.75485 0.08458 0.38213 0.0
H857 H 0.73059 0.12642 0.35475 0.0
H858 H 0.78399 0.90753 0.37338 0.0
H859 H 0.84277 0.98939 0.318 0.0
H860 H 0.8052 0.85996 0.39337 0.0
H861 H 0.73668 0.13037 0.29975 0.0
H862 H 0.76024 0.11055 0.25252 0.0
H863 H 0.69605 0.99276 0.45224 0.0
H864 H 0.82853 0.0297 0.23187 0.0
H865 H 0.85452 0.99246 0.2641 0.0
H866 H 0.7665 0.85434 0.4938 0.0
H867 H 0.79343 0.07383 0.22784 0.0
H868 H 0.70523 0.9358 0.52908 0.0
H869 H 0.68504 0.98195 0.50522 0.0
N870 N 0.72446 0.95442 0.44672 0.0
C871 C 0.73563 0.92877 0.45927 0.0
C872 C 0.7062 0.97327 0.46264 0.0
C873 C 0.71081 0.94079 0.50595 0.0
C874 C 0.69944 0.96694 0.4926 0.0
C875 C 0.72888 0.92117 0.48921 0.0
H876 H 0.73508 0.88799 0.5244 0.0
N877 N 0.76181 0.9187 0.41387 0.0
C878 C 0.75396 0.90995 0.44209 0.0
C879 C 0.78383 0.86476 0.43651 0.0
C880 C 0.76513 0.88283 0.4543 0.0
C881 C 0.77948 0.90106 0.39621 0.0
C882 C 0.79104 0.87394 0.40736 0.0
O883 O 0.74958 0.0236 0.34502 0.0
O884 O 0.71286 0.99714 0.37162 0.0
O885 O 0.71731 0.92305 0.36896 0.0
O886 O 0.69165 0.94153 0.40603 0.0
O887 O 0.77198 0.02695 0.41141 0.0
O888 O 0.72415 0.00807 0.40929 0.0
O889 O 0.77796 0.96667 0.42303 0.0
O890 O 0.8162 0.98402 0.3922 0.0
O891 O 0.81852 0.05363 0.39885 0.0
O892 O 0.8371 0.04621 0.35493 0.0
O893 O 0.7555 0.95716 0.34919 0.0
O894 O 0.80372 0.97483 0.35416 0.0
C895 C 0.72176 0.01466 0.34973 0.0
C896 C 0.74309 0.02995 0.41591 0.0
C897 C 0.66445 0.91451 0.36885 0.0
C898 C 0.63087 0.87625 0.34822 0.0
C899 C 0.61332 0.92771 0.35544 0.0
C900 C 0.64141 0.93602 0.36651 0.0
C901 C 0.60794 0.89796 0.34668 0.0
C902 C 0.65925 0.88471 0.35911 0.0
C903 C 0.69266 0.92156 0.38461 0.0
C904 C 0.75797 0.87501 0.48398 0.0
C905 C 0.74013 0.89423 0.50144 0.0
H906 H 0.79291 0.84378 0.4451 0.0
C907 C 0.80637 0.97304 0.41788 0.0
C908 C 0.78338 0.95893 0.33995 0.0
C909 C 0.87165 0.05704 0.39288 0.0
C910 C 0.91734 0.08172 0.41059 0.0
C911 C 0.91756 0.02814 0.39927 0.0
C912 C 0.88731 0.02956 0.39139 0.0
C913 C 0.93253 0.05405 0.40868 0.0
C914 C 0.88674 0.0832 0.40272 0.0
C915 C 0.84087 0.05902 0.3808 0.0
H916 H 0.59546 0.94424 0.35419 0.0
H917 H 0.64487 0.959 0.37398 0.0
H918 H 0.58579 0.89181 0.33879 0.0
H919 H 0.67676 0.86784 0.36133 0.0
H920 H 0.92954 0.00695 0.39772 0.0
H921 H 0.87628 0.00931 0.38348 0.0
H922 H 0.95612 0.05256 0.4144 0.0
H923 H 0.87502 0.10463 0.4035 0.0
C924 C 0.20512 0.55191 0.55712 0.0
C925 C 0.16386 0.51616 0.55535 0.0
C926 C 0.18767 0.52989 0.57102 0.0
C927 C 0.15807 0.52447 0.52549 0.0
C928 C 0.19828 0.56139 0.52769 0.0
C929 C 0.17512 0.54712 0.51176 0.0
N930 N 0.22764 0.56521 0.57286 0.0
C931 C 0.24213 0.58993 0.56183 0.0
C932 C 0.21426 0.58563 0.5155 0.0
C933 C 0.23586 0.60033 0.53286 0.0
Gd934 Gd 0.30205 0.49087 0.64799 0.0
Gd935 Gd 0.2348 0.54672 0.62127 0.0
N936 N 0.19349 0.52245 0.60008 0.0
C937 C 0.14619 0.49487 0.57037 0.0
C938 C 0.17551 0.50289 0.61525 0.0
C939 C 0.15187 0.48845 0.60055 0.0
H940 H 0.17939 0.49839 0.63855 0.0
H941 H 0.13797 0.47251 0.61251 0.0
H942 H 0.3588 0.53473 0.62914 0.0
H943 H 0.25879 0.60143 0.57521 0.0
H944 H 0.40409 0.55651 0.65285 0.0
H945 H 0.12775 0.48376 0.55907 0.0
H946 H 0.13998 0.51402 0.51304 0.0
H947 H 0.27037 0.44525 0.70087 0.0
H948 H 0.20956 0.59366 0.493 0.0
H949 H 0.2478 0.61953 0.52387 0.0
H950 H 0.39937 0.52139 0.75432 0.0
H951 H 0.1698 0.55387 0.48899 0.0
H952 H 0.31688 0.45924 0.78304 0.0
H953 H 0.27585 0.43533 0.7545 0.0
N954 N 0.30393 0.47972 0.69963 0.0
C955 C 0.32717 0.49251 0.71475 0.0
C956 C 0.2865 0.45835 0.7133 0.0
C957 C 0.31339 0.46526 0.75973 0.0
C958 C 0.29017 0.45177 0.74373 0.0
C959 C 0.33295 0.4849 0.74499 0.0
H960 H 0.36396 0.48956 0.78211 0.0
N961 N 0.34174 0.51705 0.66985 0.0
C962 C 0.34692 0.51116 0.6993 0.0
C963 C 0.39339 0.53911 0.69671 0.0
C964 C 0.37313 0.52185 0.71343 0.0
C965 C 0.36248 0.53195 0.65289 0.0
C966 C 0.38811 0.54403 0.66622 0.0
O967 O 0.23838 0.501 0.59625 0.0
O968 O 0.26205 0.46794 0.62922 0.0
O969 O 0.3317 0.47066 0.61448 0.0
O970 O 0.32906 0.4517 0.65902 0.0
O971 O 0.22816 0.52335 0.6654 0.0
O972 O 0.25424 0.47828 0.66423 0.0
O973 O 0.30355 0.54126 0.65588 0.0
O974 O 0.25527 0.54984 0.66729 0.0
O975 O 0.19365 0.56911 0.63474 0.0
O976 O 0.23456 0.59516 0.62845 0.0
O977 O 0.30413 0.50862 0.60048 0.0
O978 O 0.28092 0.55541 0.60159 0.0
C979 C 0.24556 0.47338 0.60536 0.0
C980 C 0.23101 0.49494 0.67291 0.0
C981 C 0.34891 0.4201 0.621 0.0
C982 C 0.38596 0.38589 0.59868 0.0
C983 C 0.33793 0.36682 0.61669 0.0
C984 C 0.32934 0.39581 0.62533 0.0
C985 C 0.366 0.36182 0.60367 0.0
C986 C 0.37708 0.41513 0.60751 0.0
C987 C 0.3418 0.45023 0.63286 0.0
C988 C 0.37914 0.51374 0.74324 0.0
C989 C 0.35896 0.49561 0.75907 0.0
H990 H 0.41365 0.54786 0.70688 0.0
C991 C 0.28357 0.55445 0.67272 0.0
C992 C 0.29909 0.53551 0.58908 0.0
C993 C 0.18826 0.62193 0.6278 0.0
C994 C 0.15979 0.66625 0.64309 0.0
C995 C 0.16509 0.65404 0.59027 0.0
C996 C 0.18186 0.62849 0.59769 0.0
C997 C 0.15405 0.67283 0.61284 0.0
C998 C 0.17712 0.64087 0.65055 0.0
C999 C 0.20632 0.59558 0.63631 0.0
H1000 H 0.32296 0.34803 0.62053 0.0
H1001 H 0.30772 0.39917 0.63592 0.0
H1002 H 0.37227 0.3389 0.59806 0.0
H1003 H 0.39213 0.43401 0.60425 0.0
H1004 H 0.16044 0.65919 0.56698 0.0
H1005 H 0.18955 0.61389 0.57995 0.0
H1006 H 0.14091 0.69249 0.60673 0.0
H1007 H 0.18171 0.6358 0.67393 0.0
C1008 C 0.15859 0.32491 0.55144 0.0
C1009 C 0.17817 0.30441 0.53774 0.0
C1010 C 0.16843 0.35369 0.56009 0.0
C1011 C 0.19893 0.36162 0.55619 0.0
C1012 C 0.21915 0.34024 0.54381 0.0
C1013 C 0.20835 0.31209 0.53411 0.0
C1014 C 0.14604 0.37589 0.57275 0.0
C1015 C 0.25219 0.34699 0.54099 0.0
C1016 C 0.22194 0.44474 0.562 0.0
C1017 C 0.23161 0.44608 0.5919 0.0
C1018 C 0.21159 0.41724 0.54969 0.0
C1019 C 0.21012 0.391 0.568 0.0
C1020 C 0.21917 0.39264 0.59827 0.0
C1021 C 0.23008 0.4198 0.60957 0.0
C1022 C 0.20267 0.41609 0.51707 0.0
C1023 C 0.21755 0.36557 0.61889 0.0
H1024 H 0.13508 0.31921 0.55349 0.0
H1025 H 0.22332 0.29631 0.52307 0.0
H1026 H 0.1524 0.38217 0.59599 0.0
H1027 H 0.14617 0.3969 0.5592 0.0
H1028 H 0.12287 0.36671 0.57306 0.0
H1029 H 0.26432 0.32934 0.52809 0.0
H1030 H 0.25566 0.36911 0.52989 0.0
H1031 H 0.26231 0.34843 0.56371 0.0
H1032 H 0.22337 0.46474 0.54809 0.0
H1033 H 0.23788 0.42013 0.63256 0.0
H1034 H 0.17878 0.4094 0.5151 0.0
H1035 H 0.21616 0.39873 0.50523 0.0
H1036 H 0.20586 0.43811 0.50561 0.0
H1037 H 0.19386 0.35857 0.62169 0.0
H1038 H 0.22702 0.37026 0.64148 0.0
H1039 H 0.22987 0.34623 0.609 0.0
C1040 C 0.83004 0.96576 0.85549 0.0
C1041 C 0.80833 0.97913 0.83699 0.0
C1042 C 0.85763 0.95624 0.84419 0.0
C1043 C 0.86435 0.9612 0.81362 0.0
C1044 C 0.8425 0.97457 0.79455 0.0
C1045 C 0.81443 0.98314 0.80646 0.0
C1046 C 0.87957 0.94079 0.86506 0.0
C1047 C 0.84882 0.97996 0.76176 0.0
C1048 C 0.94732 0.95739 0.79308 0.0
C1049 C 0.94982 0.92736 0.78391 0.0
C1050 C 0.91939 0.96909 0.80231 0.0
C1051 C 0.89358 0.95034 0.80171 0.0
C1052 C 0.89636 0.91995 0.79265 0.0
C1053 C 0.92447 0.90892 0.78423 0.0
C1054 C 0.91749 1.00132 0.81294 0.0
C1055 C 0.86973 0.89894 0.79139 0.0
H1056 H 0.82591 0.96379 0.87932 0.0
H1057 H 0.79801 0.99436 0.79236 0.0
H1058 H 0.88346 0.91734 0.85731 0.0
H1059 H 0.90147 0.9526 0.86468 0.0
H1060 H 0.87135 0.9399 0.88858 0.0
H1061 H 0.83174 0.99486 0.75121 0.0
H1062 H 0.87128 0.99025 0.75873 0.0
H1063 H 0.84891 0.95802 0.74979 0.0
H1064 H 0.96701 0.97168 0.7927 0.0
H1065 H 0.92677 0.88546 0.77834 0.0
H1066 H 0.90968 1.00188 0.83658 0.0
H1067 H 0.9008 0.0139 0.7993 0.0
H1068 H 0.93943 0.01307 0.81152 0.0
H1069 H 0.87681 0.87494 0.79245 0.0
H1070 H 0.8577 0.90266 0.76988 0.0
H1071 H 0.85361 0.90307 0.80986 0.0
C1072 C 0.30762 0.6883 0.00882 0.0
C1073 C 0.33179 0.69954 0.02531 0.0
C1074 C 0.29532 0.65996 0.01556 0.0
C1075 C 0.30723 0.64289 0.03975 0.0
C1076 C 0.3314 0.65463 0.0568 0.0
C1077 C 0.34364 0.68267 0.04906 0.0
C1078 C 0.26991 0.64828 0.99645 0.0
C1079 C 0.34458 0.63747 0.083 0.0
C1080 C 0.25414 0.58816 0.07693 0.0
C1081 C 0.26801 0.56003 0.07185 0.0
C1082 C 0.26729 0.6151 0.06754 0.0
C1083 C 0.29286 0.61408 0.04899 0.0
C1084 C 0.30495 0.58574 0.04043 0.0
C1085 C 0.29301 0.55904 0.05281 0.0
C1086 C 0.25466 0.64462 0.07895 0.0
C1087 C 0.33022 0.58365 0.01804 0.0
H1088 H 0.29926 0.70105 0.98977 0.0
H1089 H 0.363 0.69112 0.0611 0.0
H1090 H 0.27175 0.62356 0.99299 0.0
H1091 H 0.24829 0.65288 0.00784 0.0
H1092 H 0.26926 0.65954 0.97418 0.0
H1093 H 0.36151 0.65093 0.09545 0.0
H1094 H 0.32658 0.6307 0.09881 0.0
H1095 H 0.35554 0.61655 0.07485 0.0
H1096 H 0.23397 0.58964 0.09037 0.0
H1097 H 0.30324 0.53762 0.04753 0.0
H1098 H 0.24457 0.65749 0.06015 0.0
H1099 H 0.27282 0.65866 0.08869 0.0
H1100 H 0.23722 0.64126 0.09642 0.0
H1101 H 0.32207 0.59174 0.99589 0.0
H1102 H 0.33865 0.56021 0.01544 0.0
H1103 H 0.34913 0.59842 0.02467 0.0
C1104 C 0.55744 0.05773 0.30061 0.0
C1105 C 0.55639 0.07271 0.27292 0.0
C1106 C 0.58454 0.0452 0.31123 0.0
C1107 C 0.61148 0.05035 0.29514 0.0
C1108 C 0.61043 0.06486 0.26703 0.0
C1109 C 0.58277 0.07381 0.25547 0.0
C1110 C 0.58443 0.02707 0.33989 0.0
C1111 C 0.63852 0.07197 0.24936 0.0
C1112 C 0.68345 0.0536 0.34037 0.0
C1113 C 0.69755 0.02692 0.33149 0.0
C1114 C 0.65545 0.06165 0.32848 0.0
C1115 C 0.64104 0.04195 0.30798 0.0
C1116 C 0.65569 0.01522 0.29853 0.0
C1117 C 0.68385 0.00803 0.31052 0.0
C1118 C 0.64115 0.09096 0.3382 0.0
C1119 C 0.641 0.99312 0.27737 0.0
H1120 H 0.53748 0.05597 0.31414 0.0
H1121 H 0.5826 0.08427 0.23348 0.0
H1122 H 0.59934 0.00708 0.33786 0.0
H1123 H 0.59295 0.04111 0.35861 0.0
H1124 H 0.56149 0.0193 0.34573 0.0
H1125 H 0.63447 0.08971 0.23219 0.0
H1126 H 0.65686 0.07976 0.26431 0.0
H1127 H 0.64638 0.05137 0.23765 0.0
H1128 H 0.69364 0.06741 0.35764 0.0
H1129 H 0.69449 0.98678 0.30475 0.0
H1130 H 0.62033 0.08631 0.35095 0.0
H1131 H 0.6348 0.10453 0.31822 0.0
H1132 H 0.65628 0.1046 0.35262 0.0
H1133 H 0.62381 0.98016 0.28989 0.0
H1134 H 0.65749 0.97693 0.26784 0.0
H1135 H 0.62948 1.00475 0.25859 0.0
C1136 C 0.69442 0.18109 0.49964 0.0
C1137 C 0.68453 0.20377 0.47975 0.0
C1138 C 0.70173 0.15222 0.48949 0.0
C1139 C 0.70318 0.14669 0.45834 0.0
C1140 C 0.6965 0.17038 0.43789 0.0
C1141 C 0.6863 0.19845 0.44882 0.0
C1142 C 0.70669 0.12755 0.51246 0.0
C1143 C 0.69972 0.16586 0.40452 0.0
C1144 C 0.75279 0.07965 0.44022 0.0
C1145 C 0.73207 0.05833 0.42968 0.0
C1146 C 0.74376 0.10884 0.44811 0.0
C1147 C 0.71294 0.11644 0.44753 0.0
C1148 C 0.69161 0.09439 0.43881 0.0
C1149 C 0.70149 0.06571 0.42953 0.0
C1150 C 0.76741 0.13168 0.45648 0.0
C1151 C 0.65834 0.10049 0.44037 0.0
H1152 H 0.69379 0.18494 0.52366 0.0
H1153 H 0.67885 0.2157 0.43326 0.0
H1154 H 0.69862 0.10538 0.50426 0.0
H1155 H 0.73095 0.12554 0.5175 0.0
H1156 H 0.69498 0.13269 0.53387 0.0
H1157 H 0.6955 0.18696 0.39172 0.0
H1158 H 0.72271 0.15773 0.39945 0.0
H1159 H 0.68381 0.14837 0.39665 0.0
H1160 H 0.77646 0.07411 0.44078 0.0
H1161 H 0.68528 0.04926 0.4218 0.0
H1162 H 0.76687 0.13579 0.481 0.0
H1163 H 0.76303 0.15352 0.44508 0.0
H1164 H 0.79034 0.12392 0.45049 0.0
H1165 H 0.65114 0.09897 0.46416 0.0
H1166 H 0.64526 0.08384 0.42715 0.0
H1167 H 0.65271 0.12345 0.43228 0.0
C1168 C 0.06353 0.44333 0.70959 0.0
C1169 C 0.06131 0.4294 0.73768 0.0
C1170 C 0.09109 0.45509 0.69944 0.0
C1171 C 0.11702 0.45247 0.7178 0.0
C1172 C 0.11445 0.43969 0.74674 0.0
C1173 C 0.08674 0.4284 0.75628 0.0
C1174 C 0.0926 0.46897 0.66858 0.0
C1175 C 0.14122 0.43726 0.76738 0.0
C1176 C 0.19556 0.4522 0.68363 0.0
C1177 C 0.20488 0.48186 0.68893 0.0
C1178 C 0.16674 0.44251 0.69226 0.0
C1179 C 0.14707 0.46277 0.70715 0.0
C1180 C 0.15693 0.49231 0.71371 0.0
C1181 C 0.18561 0.50142 0.70461 0.0
C1182 C 0.15697 0.41086 0.68465 0.0
C1183 C 0.13675 0.51484 0.72919 0.0
H1184 H 0.04429 0.44368 0.69497 0.0
H1185 H 0.08516 0.41781 0.77817 0.0
H1186 H 0.10683 0.48947 0.66859 0.0
H1187 H 0.10282 0.45251 0.65287 0.0
H1188 H 0.06997 0.47502 0.65996 0.0
H1189 H 0.13535 0.42734 0.78944 0.0
H1190 H 0.15883 0.42312 0.75679 0.0
H1191 H 0.15099 0.45991 0.77129 0.0
H1192 H 0.21008 0.43707 0.67143 0.0
H1193 H 0.19251 0.52449 0.70873 0.0
H1194 H 0.13677 0.41172 0.67011 0.0
H1195 H 0.15073 0.39861 0.70544 0.0
H1196 H 0.17474 0.39792 0.67282 0.0
H1197 H 0.11814 0.52116 0.71385 0.0
H1198 H 0.14892 0.53568 0.73569 0.0
H1199 H 0.12658 0.50487 0.74961 0.0
C1200 C 0.79175 0.94801 0.95916 0.0
C1201 C 0.78435 0.95135 0.92883 0.0
C1202 C 0.80143 0.91972 0.97029 0.0
C1203 C 0.80231 0.89431 0.95077 0.0
C1204 C 0.79516 0.89811 0.92012 0.0
C1205 C 0.78759 0.92671 0.90954 0.0
C1206 C 0.81094 0.91716 1.00266 0.0
C1207 C 0.79302 0.87188 0.89853 0.0
C1208 C 0.84782 0.82265 0.96054 0.0
C1209 C 0.82827 0.8044 0.97695 0.0
C1210 C 0.84032 0.85262 0.95378 0.0
C1211 C 0.81153 0.86383 0.9615 0.0
C1212 C 0.79083 0.84457 0.97625 0.0
C1213 C 0.79996 0.81546 0.98486 0.0
C1214 C 0.86324 0.87223 0.93822 0.0
C1215 C 0.75924 0.85444 0.98354 0.0
H1216 H 0.78928 0.96709 0.97415 0.0
H1217 H 0.78301 0.92967 0.8859 0.0
H1218 H 0.79927 0.89823 0.01387 0.0
H1219 H 0.83535 0.91223 1.00363 0.0
H1220 H 0.80643 0.93819 0.01544 0.0
H1221 H 0.79732 0.87926 0.87511 0.0
H1222 H 0.8086 0.85316 0.90369 0.0
H1223 H 0.76996 0.86259 0.89977 0.0
H1224 H 0.87007 0.81438 0.95529 0.0
H1225 H 0.78516 0.80149 0.99825 0.0
H1226 H 0.86396 0.89495 0.94866 0.0
H1227 H 0.85697 0.87524 0.91432 0.0
H1228 H 0.88606 0.86215 0.93896 0.0
H1229 H 0.75894 0.86523 1.00599 0.0
H1230 H 0.74384 0.8348 0.98446 0.0
H1231 H 0.75039 0.87084 0.9669 0.0
C1232 C 0.41674 0.59533 0.24617 0.0
C1233 C 0.44539 0.58617 0.2365 0.0
C1234 C 0.39061 0.58261 0.23443 0.0
C1235 C 0.39288 0.55962 0.21267 0.0
C1236 C 0.42161 0.5491 0.20371 0.0
C1237 C 0.4476 0.56246 0.21588 0.0
C1238 C 0.36054 0.59449 0.24481 0.0
C1239 C 0.42491 0.52446 0.18062 0.0
C1240 C 0.32084 0.5156 0.19954 0.0
C1241 C 0.31007 0.52924 0.17336 0.0
C1242 C 0.34843 0.52446 0.21202 0.0
C1243 C 0.36499 0.54804 0.19837 0.0
C1244 C 0.35367 0.56225 0.1722 0.0
C1245 C 0.32659 0.55226 0.15972 0.0
C1246 C 0.36011 0.50831 0.23948 0.0
C1247 C 0.36989 0.5883 0.15765 0.0
H1248 H 0.4145 0.61311 0.2627 0.0
H1249 H 0.46947 0.55472 0.20882 0.0
H1250 H 0.34704 0.60212 0.22528 0.0
H1251 H 0.34781 0.57625 0.25605 0.0
H1252 H 0.36274 0.61362 0.26074 0.0
H1253 H 0.44838 0.51614 0.179 0.0
H1254 H 0.40999 0.50523 0.18607 0.0
H1255 H 0.41805 0.5332 0.1583 0.0
H1256 H 0.3083 0.49722 0.2095 0.0
H1257 H 0.31827 0.56242 0.13916 0.0
H1258 H 0.36184 0.5243 0.25853 0.0
H1259 H 0.38299 0.49947 0.2351 0.0
H1260 H 0.34545 0.48927 0.24628 0.0
H1261 H 0.37025 0.60779 0.17327 0.0
H1262 H 0.35907 0.59555 0.13637 0.0
H1263 H 0.39353 0.5821 0.15292 0.0
C1264 C 0.53703 0.20308 0.31267 0.0
C1265 C 0.51952 0.17687 0.31347 0.0
C1266 C 0.54769 0.21629 0.33952 0.0
C1267 C 0.54035 0.20313 0.36768 0.0
C1268 C 0.52158 0.17758 0.3685 0.0
C1269 C 0.51163 0.16484 0.34159 0.0
C1270 C 0.56764 0.24363 0.33773 0.0
C1271 C 0.51257 0.16312 0.3979 0.0
C1272 C 0.59452 0.21015 0.43316 0.0
C1273 C 0.58005 0.23115 0.45162 0.0
C1274 C 0.58187 0.20103 0.40583 0.0
C1275 C 0.55433 0.21384 0.39624 0.0
C1276 C 0.53931 0.23475 0.41514 0.0
C1277 C 0.55238 0.24314 0.44272 0.0
C1278 C 0.59809 0.17771 0.38716 0.0
C1279 C 0.51016 0.24926 0.40571 0.0
H1280 H 0.54309 0.21275 0.29121 0.0
H1281 H 0.49814 0.14467 0.34267 0.0
H1282 H 0.56022 0.26103 0.35402 0.0
H1283 H 0.59091 0.23713 0.34377 0.0
H1284 H 0.56785 0.25363 0.31485 0.0
H1285 H 0.50067 0.14141 0.39463 0.0
H1286 H 0.53252 0.15881 0.41217 0.0
H1287 H 0.4976 0.17868 0.4104 0.0
H1288 H 0.61626 0.2014 0.43986 0.0
H1289 H 0.54177 0.2602 0.45656 0.0
H1290 H 0.60344 0.18716 0.36474 0.0
H1291 H 0.5834 0.15786 0.38359 0.0
H1292 H 0.61925 0.16993 0.39789 0.0
H1293 H 0.51469 0.26588 0.38764 0.0
H1294 H 0.4991 0.26119 0.42463 0.0
H1295 H 0.4944 0.23228 0.39653 0.0
C1296 C 0.09297 0.26515 0.59025 0.0
C1297 C 0.08536 0.27712 0.56194 0.0
C1298 C 0.0812 0.27686 0.61685 0.0
C1299 C 0.06097 0.30133 0.61558 0.0
C1300 C 0.05298 0.31371 0.58723 0.0
C1301 C 0.06545 0.30158 0.56071 0.0
C1302 C 0.09036 0.26272 0.64638 0.0
C1303 C 0.03184 0.34015 0.58478 0.0
C1304 C 0.01127 0.30896 0.68448 0.0
C1305 C 0.0268 0.33046 0.70142 0.0
C1306 C 0.02176 0.29985 0.65618 0.0
C1307 C 0.04808 0.31304 0.64422 0.0
C1308 C 0.06371 0.33502 0.6612 0.0
C1309 C 0.05315 0.34311 0.68983 0.0
C1310 C 1.00464 0.27611 0.63904 0.0
C1311 C 0.09158 0.34997 0.64911 0.0
H1312 H 0.10861 0.24656 0.59196 0.0
H1313 H 0.05957 0.31122 0.53917 0.0
H1314 H 0.0995 0.28013 0.66172 0.0
H1315 H 0.07046 0.25271 0.65746 0.0
H1316 H 0.10754 0.24477 0.64357 0.0
H1317 H 0.02252 0.34246 0.56175 0.0
H1318 H 0.01301 0.33812 0.60091 0.0
H1319 H 0.04433 0.36107 0.59012 0.0
H1320 H 0.99063 0.29957 0.69325 0.0
H1321 H 0.0647 0.36042 0.70252 0.0
H1322 H 0.01904 0.25595 0.63571 0.0
H1323 H 0.9985 0.28478 0.61648 0.0
H1324 H 0.98388 0.26904 0.65086 0.0
H1325 H 0.11018 0.33333 0.64831 0.0
H1326 H 0.09871 0.36935 0.66317 0.0
H1327 H 0.08771 0.35806 0.62585 0.0
C1328 C 0.96002 0.84937 0.82754 0.0
C1329 C 0.97852 0.83205 0.80886 0.0
C1330 C 0.95001 0.83832 0.85535 0.0
C1331 C 0.9593 0.80938 0.86516 0.0
C1332 C 0.9779 0.79165 0.84627 0.0
C1333 C 0.98727 0.80323 0.81836 0.0
C1334 C 0.92988 0.85785 0.87451 0.0
C1335 C 0.9879 0.76045 0.85546 0.0
C1336 C 0.94865 0.79099 0.94875 0.0
C1337 C 0.92156 0.77505 0.94799 0.0
C1338 C 0.96176 0.80179 0.92188 0.0
C1339 C 0.94724 0.79681 0.89386 0.0
C1340 C 0.92002 0.78075 0.89314 0.0
C1341 C 0.90763 0.77029 0.91992 0.0
C1342 C 0.99118 0.81839 0.92339 0.0
C1343 C 0.90339 0.7751 0.86407 0.0
H1344 H 0.95463 0.87222 0.82122 0.0
H1345 H 1.00208 0.79003 0.8042 0.0
H1346 H 0.90856 0.8459 0.87929 0.0
H1347 H 0.94084 0.86239 0.89641 0.0
H1348 H 0.92455 0.87972 0.86358 0.0
H1349 H 1.00615 0.75175 0.84087 0.0
H1350 H 0.9958 0.76038 0.87909 0.0
H1351 H 0.96865 0.74472 0.85398 0.0
H1352 H 0.9597 0.79469 0.97011 0.0
H1353 H 0.88647 0.7584 0.91853 0.0
H1354 H 0.98807 0.84186 0.91533 0.0
H1355 H 0.00777 0.80744 0.90836 0.0
H1356 H 1.00046 0.81903 0.94653 0.0
H1357 H 0.89519 0.79684 0.85482 0.0
H1358 H 0.88386 0.75987 0.86709 0.0
H1359 H 0.91855 0.76494 0.84714 0.0
C1360 C 0.45153 0.6931 0.19836 0.0
C1361 C 0.48191 0.68632 0.20287 0.0
C1362 C 0.44122 0.70332 0.17014 0.0
C1363 C 0.46129 0.70451 0.14541 0.0
C1364 C 0.49193 0.69796 0.15004 0.0
C1365 C 0.50201 0.69071 0.17886 0.0
C1366 C 0.40889 0.71264 0.16679 0.0
C1367 C 0.51423 0.69799 0.12447 0.0
C1368 C 0.42964 0.70124 0.06564 0.0
C1369 C 0.43336 0.73115 0.05627 0.0
C1370 C 0.43861 0.69215 0.09466 0.0
C1371 C 0.45097 0.71363 0.11482 0.0
C1372 C 0.45565 0.74354 0.10496 0.0
C1373 C 0.44755 0.75165 0.07571 0.0
C1374 C 0.43472 0.65966 0.10385 0.0
C1375 C 0.46754 0.76762 0.1258 0.0
H1376 H 0.43581 0.69019 0.21664 0.0
H1377 H 0.52572 0.68616 0.18185 0.0
H1378 H 0.40725 0.73414 0.1541 0.0
H1379 H 0.39657 0.69516 0.15401 0.0
H1380 H 0.39773 0.7156 0.18888 0.0
H1381 H 0.53542 0.68626 0.13056 0.0
H1382 H 0.50467 0.68684 0.10433 0.0
H1383 H 0.51979 0.72153 0.11825 0.0
H1384 H 0.41864 0.68532 0.05085 0.0
H1385 H 0.45064 0.77485 0.06868 0.0
H1386 H 0.41916 0.65813 0.12318 0.0
H1387 H 0.45661 0.65027 0.11121 0.0
H1388 H 0.42578 0.64554 0.08531 0.0
H1389 H 0.45088 0.77181 0.14382 0.0
H1390 H 0.47188 0.78924 0.11396 0.0
H1391 H 0.4886 0.76025 0.13681 0.0
C1392 C 0.15803 0.39543 0.3218 0.0
C1393 C 0.16491 0.36489 0.32539 0.0
C1394 C 0.173 0.413 0.30042 0.0
C1395 C 0.19473 0.39942 0.28159 0.0
C1396 C 0.20396 0.36937 0.28742 0.0
C1397 C 0.18886 0.35234 0.30936 0.0
C1398 C 0.1633 0.44522 0.29636 0.0
C1399 C 0.22808 0.35451 0.26886 0.0
C1400 C 0.19341 0.42433 0.19993 0.0
C1401 C 0.21914 0.44211 0.19799 0.0
C1402 C 0.18552 0.41024 0.227 0.0
C1403 C 0.20358 0.41442 0.25292 0.0
C1404 C 0.22958 0.43264 0.25104 0.0
C1405 C 0.2372 0.44605 0.22347 0.0
C1406 C 0.15774 0.39086 0.22785 0.0
C1407 C 0.24875 0.43902 0.27821 0.0
H1408 H 0.13965 0.40514 0.33449 0.0
H1409 H 0.19428 0.32869 0.3124 0.0
H1410 H 0.18227 0.45952 0.28899 0.0
H1411 H 0.14536 0.44592 0.27912 0.0
H1412 H 0.15397 0.4547 0.31746 0.0
H1413 H 0.23489 0.33228 0.27818 0.0
H1414 H 0.21978 0.35116 0.24561 0.0
H1415 H 0.24813 0.36924 0.26759 0.0
H1416 H 0.17951 0.42136 0.18017 0.0
H1417 H 0.25685 0.46035 0.22204 0.0
H1418 H 0.14143 0.4004 0.24408 0.0
H1419 H 0.16359 0.3678 0.23562 0.0
H1420 H 0.14668 0.38916 0.20556 0.0
H1421 H 0.23801 0.45717 0.29159 0.0
H1422 H 0.27153 0.44675 0.27176 0.0
H1423 H 0.2509 0.41889 0.29285 0.0
C1424 C 0.87749 0.94129 0.57787 0.0
C1425 C 0.90266 0.92256 0.57539 0.0
C1426 C 0.86546 0.95583 0.55249 0.0
C1427 C 0.87857 0.95084 0.52393 0.0
C1428 C 0.9054 0.93375 0.52188 0.0
C1429 C 0.91719 0.91985 0.54771 0.0
C1430 C 0.83724 0.97427 0.55603 0.0
C1431 C 0.92 0.92779 0.49192 0.0
C1432 C 0.82445 0.94037 0.45934 0.0
C1433 C 0.82767 0.96685 0.44273 0.0
C1434 C 0.84033 0.93534 0.48592 0.0
C1435 C 0.86103 0.95722 0.49605 0.0
C1436 C 0.86529 0.98391 0.47894 0.0
C1437 C 0.84832 0.98853 0.45252 0.0
C1438 C 0.83399 0.90683 0.50346 0.0
C1439 C 0.8865 0.00825 0.48919 0.0
H1440 H 0.86619 0.94317 0.59933 0.0
H1441 H 0.93653 0.90511 0.54588 0.0
H1442 H 0.83645 0.99312 0.53965 0.0
H1443 H 0.81749 0.95963 0.55202 0.0
H1444 H 0.83538 0.98362 0.57909 0.0
H1445 H 0.94104 0.91452 0.49412 0.0
H1446 H 0.9043 0.9152 0.4772 0.0
H1447 H 0.92514 0.94946 0.4806 0.0
H1448 H 0.80935 0.92338 0.45154 0.0
H1449 H 0.85031 0.00953 0.44028 0.0
H1450 H 0.81878 0.91228 0.52241 0.0
H1451 H 0.85478 0.89688 0.51294 0.0
H1452 H 0.82291 0.88945 0.48941 0.0
H1453 H 0.87554 0.02154 0.50723 0.0
H1454 H 0.89238 0.02385 0.47058 0.0
H1455 H 0.90742 0.99852 0.49861 0.0
C1456 C 0.31955 0.58514 0.70338 0.0
C1457 C 0.29245 0.5694 0.70112 0.0
C1458 C 0.32793 0.59943 0.73033 0.0
C1459 C 0.30917 0.59714 0.75593 0.0
C1460 C 0.28158 0.58152 0.75354 0.0
C1461 C 0.2734 0.56821 0.72612 0.0
C1462 C 0.35709 0.61655 0.73146 0.0
C1463 C 0.26095 0.57826 0.78018 0.0
C1464 C 0.34601 0.59758 0.83295 0.0
C1465 C 0.33756 0.62564 0.84457 0.0
C1466 C 0.33708 0.58849 0.80423 0.0
C1467 C 0.3197 0.60797 0.78601 0.0
C1468 C 0.31161 0.63678 0.79725 0.0
C1469 C 0.32079 0.64536 0.82636 0.0
C1470 C 0.34639 0.55787 0.79334 0.0
C1471 C 0.29357 0.65867 0.77857 0.0
H1472 H 0.3341 0.58653 0.68396 0.0
H1473 H 0.25236 0.5561 0.72451 0.0
H1474 H 0.3541 0.63831 0.74339 0.0
H1475 H 0.37402 0.60318 0.74398 0.0
H1476 H 0.36605 0.62111 0.70865 0.0
H1477 H 0.24097 0.56425 0.77501 0.0
H1478 H 0.27318 0.56781 0.79926 0.0
H1479 H 0.25322 0.60086 0.78759 0.0
H1480 H 0.35969 0.58254 0.84644 0.0
H1481 H 0.31425 0.66721 0.8351 0.0
H1482 H 0.36158 0.561 0.77403 0.0
H1483 H 0.32651 0.54501 0.7856 0.0
H1484 H 0.35828 0.54449 0.81079 0.0
H1485 H 0.30853 0.66926 0.76172 0.0
H1486 H 0.28353 0.67682 0.79252 0.0
H1487 H 0.27537 0.64705 0.76618 0.0
C1488 C 0.61146 0.07144 0.07436 0.0
C1489 C 0.60581 0.1025 0.07183 0.0
C1490 C 0.63113 0.05672 0.05418 0.0
C1491 C 0.64488 0.07338 0.03071 0.0
C1492 C 0.64075 0.10502 0.02954 0.0
C1493 C 0.62165 0.11913 0.05025 0.0
C1494 C 0.63576 0.02313 0.05685 0.0
C1495 C 0.65448 0.12375 1.00479 0.0
C1496 C 0.70908 0.04521 0.98167 0.0
C1497 C 0.69429 0.03918 0.95465 0.0
C1498 C 0.69329 0.05529 0.00708 0.0
C1499 C 0.66165 0.05806 1.00583 0.0
C1500 C 0.6464 0.04928 0.97923 0.0
C1501 C 0.66295 0.04017 0.95387 0.0
C1502 C 0.71059 0.06412 0.03481 0.0
C1503 C 0.61261 0.04982 0.97736 0.0
H1504 H 0.59907 0.05838 0.09073 0.0
H1505 H 0.6172 0.14309 0.04809 0.0
H1506 H 0.62375 0.01157 0.03833 0.0
H1507 H 0.65989 0.01737 0.05473 0.0
H1508 H 0.62728 0.01421 0.07854 0.0
H1509 H 0.65126 0.14832 0.00848 0.0
H1510 H 0.67884 0.11906 1.00288 0.0
H1511 H 0.64397 0.11762 0.98304 0.0
H1512 H 0.73306 0.04209 0.98294 0.0
H1513 H 0.65142 0.03432 0.93324 0.0
H1514 H 0.69981 0.05486 0.05525 0.0
H1515 H 0.71058 0.08905 0.03694 0.0
H1516 H 0.73422 0.0562 0.03399 0.0
H1517 H 0.60343 0.03151 0.99159 0.0
H1518 H 0.60442 0.04642 0.95405 0.0
H1519 H 0.60353 0.07148 0.98593 0.0
C1520 C 0.6889 0.15039 0.69305 0.0
C1521 C 0.65801 0.14757 0.68779 0.0
C1522 C 0.70353 0.13171 0.71423 0.0
C1523 C 0.68677 0.10995 0.73046 0.0
C1524 C 0.65621 0.10546 0.72302 0.0
C1525 C 0.64229 0.12424 0.70184 0.0
C1526 C 0.73628 0.13688 0.7209 0.0
C1527 C 0.63761 0.08199 0.73877 0.0
C1528 C 0.72342 0.05318 0.78411 0.0
C1529 C 0.71684 0.06614 0.81206 0.0
C1530 C 0.71396 0.06702 0.75718 0.0
C1531 C 0.69927 0.09541 0.75822 0.0
C1532 C 0.69414 0.1092 0.78649 0.0
C1533 C 0.70211 0.09397 0.81301 0.0
C1534 C 0.7189 0.05087 0.72781 0.0
C1535 C 0.67987 0.14002 0.78878 0.0
H1536 H 0.7011 0.16854 0.6823 0.0
H1537 H 0.61843 0.122 0.69765 0.0
H1538 H 0.73858 0.14782 0.74318 0.0
H1539 H 0.74855 0.11512 0.72193 0.0
H1540 H 0.74706 0.15151 0.70378 0.0
H1541 H 0.61431 0.08092 0.73 0.0
H1542 H 0.64824 0.05965 0.73561 0.0
H1543 H 0.63672 0.08677 0.7632 0.0
H1544 H 0.73495 0.03163 0.78343 0.0
H1545 H 0.69689 0.104 0.8345 0.0
H1546 H 0.73135 0.06553 0.71199 0.0
H1547 H 0.69696 0.04572 0.71727 0.0
H1548 H 0.73148 0.02941 0.73075 0.0
H1549 H 0.69309 0.15655 0.77559 0.0
H1550 H 0.67846 0.1481 0.81233 0.0
H1551 H 0.65693 0.13951 0.77914 0.0
C1552 C 0.2065 0.46352 0.03418 0.0
C1553 C 0.19057 0.46882 0.06066 0.0
C1554 C 0.19195 0.45387 0.00793 0.0
C1555 C 0.16038 0.45025 0.00784 0.0
C1556 C 0.14394 0.457 0.03427 0.0
C1557 C 0.15928 0.46612 0.06046 0.0
C1558 C 0.2105 0.44718 0.98039 0.0
C1559 C 0.11028 0.45408 0.03507 0.0
C1560 C 0.12695 0.44891 0.92905 0.0
C1561 C 0.12571 0.41791 0.92323 0.0
C1562 C 0.13645 0.45981 0.95718 0.0
C1563 C 0.14504 0.43919 0.98 0.0
C1564 C 0.14223 0.4078 0.97464 0.0
C1565 C 0.13274 0.39755 0.94627 0.0
C1566 C 0.13923 0.4934 0.96178 0.0
C1567 C 0.1512 0.38497 0.99816 0.0
H1568 H 0.23038 0.46743 0.03388 0.0
H1569 H 0.14689 0.47067 0.08088 0.0
H1570 H 0.20987 0.42261 0.9757 0.0
H1571 H 0.20114 0.45891 0.96048 0.0
H1572 H 0.23424 0.45413 0.98313 0.0
H1573 H 0.10058 0.46306 0.05622 0.0
H1574 H 0.10005 0.46624 0.01583 0.0
H1575 H 0.10403 0.42997 0.03293 0.0
H1576 H 0.12194 0.46463 0.91106 0.0
H1577 H 0.13217 0.37356 0.94161 0.0
H1578 H 0.16329 0.49961 0.96316 0.0
H1579 H 0.12861 0.50016 0.98326 0.0
H1580 H 0.12876 0.50643 0.94321 0.0
H1581 H 0.17601 0.38434 1.00004 0.0
H1582 H 0.14319 0.36195 0.99252 0.0
H1583 H 0.14219 0.39139 0.02047 0.0
C1584 C 0.81129 0.91896 0.31238 0.0
C1585 C 0.79155 0.94344 0.31182 0.0
C1586 C 0.81886 0.90363 0.28586 0.0
C1587 C 0.80766 0.91402 0.25785 0.0
C1588 C 0.78794 0.93916 0.25723 0.0
C1589 C 0.7795 0.95308 0.28437 0.0
C1590 C 0.83919 0.87643 0.28778 0.0
C1591 C 0.77569 0.95138 0.22808 0.0
C1592 C 0.86114 0.89013 0.19646 0.0
C1593 C 0.84837 0.86298 0.18687 0.0
C1594 C 0.84658 0.90857 0.21747 0.0
C1595 C 0.81866 0.89951 0.22957 0.0
C1596 C 0.80421 0.87369 0.21759 0.0
C1597 C 0.81932 0.8556 0.19637 0.0
C1598 C 0.86198 0.93683 0.22814 0.0
C1599 C 0.77402 0.86358 0.22895 0.0
H1600 H 0.82054 0.91153 0.33365 0.0
H1601 H 0.76421 0.97213 0.28407 0.0
H1602 H 0.82853 0.85688 0.2765 0.0
H1603 H 0.86056 0.88115 0.27595 0.0
H1604 H 0.84437 0.87006 0.31134 0.0
H1605 H 0.76587 0.97427 0.23089 0.0
H1606 H 0.79344 0.95245 0.21068 0.0
H1607 H 0.75789 0.93611 0.2197 0.0
H1608 H 0.88343 0.89605 0.18875 0.0
H1609 H 0.80931 0.83464 0.18891 0.0
H1610 H 0.8676 0.93476 0.25233 0.0
H1611 H 0.84658 0.95632 0.22549 0.0
H1612 H 0.88291 0.94154 0.21549 0.0
H1613 H 0.7773 0.84921 0.24909 0.0
H1614 H 0.76199 0.85007 0.21176 0.0
H1615 H 0.75974 0.88301 0.23544 0.0
C1616 C 0.29919 0.5524 0.53554 0.0
C1617 C 0.31523 0.54365 0.56107 0.0
C1618 C 0.31382 0.56183 0.50928 0.0
C1619 C 0.34555 0.56069 0.50773 0.0
C1620 C 0.3619 0.54955 0.53272 0.0
C1621 C 0.34655 0.54134 0.55915 0.0
C1622 C 0.29514 0.57364 0.4835 0.0
C1623 C 0.39557 0.54637 0.53159 0.0
C1624 C 0.37303 0.56072 0.42694 0.0
C1625 C 0.38031 0.59111 0.42263 0.0
C1626 C 0.36383 0.55001 0.45518 0.0
C1627 C 0.36115 0.57037 0.47957 0.0
C1628 C 0.3701 0.6008 0.47566 0.0
C1629 C 0.37971 0.61079 0.44722 0.0
C1630 C 0.35496 0.51735 0.45833 0.0
C1631 C 0.36743 0.62335 0.50085 0.0
H1632 H 0.2751 0.55087 0.53571 0.0
H1633 H 0.3591 0.53311 0.57824 0.0
H1634 H 0.30337 0.56515 0.46161 0.0
H1635 H 0.27117 0.56736 0.48574 0.0
H1636 H 0.29671 0.59862 0.48305 0.0
H1637 H 0.40462 0.53449 0.55162 0.0
H1638 H 0.40237 0.53379 0.51117 0.0
H1639 H 0.40598 0.56903 0.5303 0.0
H1640 H 0.37337 0.54558 0.40784 0.0
H1641 H 0.38509 0.63437 0.44379 0.0
H1642 H 0.3302 0.51572 0.46019 0.0
H1643 H 0.36472 0.50753 0.47908 0.0
H1644 H 0.36229 0.50364 0.4388 0.0
H1645 H 0.34341 0.62902 0.50424 0.0
H1646 H 0.37982 0.6445 0.49592 0.0
H1647 H 0.376 0.61376 0.5222 0.0
C1648 C 0.20358 0.19173 0.42618 0.0
C1649 C 0.20091 0.21974 0.44051 0.0
C1650 C 0.23023 0.18331 0.41146 0.0
C1651 C 0.25507 0.20325 0.41133 0.0
C1652 C 0.25192 0.23216 0.42456 0.0
C1653 C 0.22487 0.24012 0.43877 0.0
C1654 C 0.23215 0.15254 0.39718 0.0
C1655 C 0.2776 0.25425 0.42477 0.0
C1656 C 0.33237 0.16714 0.41466 0.0
C1657 C 0.34419 0.17268 0.38603 0.0
C1658 C 0.30384 0.17735 0.42285 0.0
C1659 C 0.28546 0.19236 0.40171 0.0
C1660 C 0.29658 0.19721 0.3723 0.0
C1661 C 0.32585 0.18743 0.36481 0.0
C1662 C 0.29323 0.17188 0.45435 0.0
C1663 C 0.27756 0.21228 0.34861 0.0
H1664 H 0.18489 0.17619 0.42669 0.0
H1665 H 0.2229 0.26197 0.44949 0.0
H1666 H 0.24355 0.15387 0.37509 0.0
H1667 H 0.24553 0.13731 0.41174 0.0
H1668 H 0.20963 0.14233 0.39402 0.0
H1669 H 0.27164 0.2758 0.43602 0.0
H1670 H 0.2972 0.24421 0.43649 0.0
H1671 H 0.2846 0.25923 0.4014 0.0
H1672 H 0.34548 0.15468 0.43098 0.0
H1673 H 0.33446 0.19181 0.34251 0.0
H1674 H 0.27275 0.15804 0.45315 0.0
H1675 H 0.28728 0.19355 0.4653 0.0
H1676 H 0.31013 0.15999 0.46839 0.0
H1677 H 0.26111 0.19571 0.33986 0.0
H1678 H 0.29129 0.2205 0.32951 0.0
H1679 H 0.26471 0.23151 0.35803 0.0
C1680 C 0.05865 0.0799 0.62616 0.0
C1681 C 0.08936 0.08614 0.62482 0.0
C1682 C 0.04829 0.05172 0.63617 0.0
C1683 C 0.06919 0.0296 0.64581 0.0
C1684 C 0.10033 0.03537 0.643 0.0
C1685 C 0.11006 0.06357 0.6323 0.0
C1686 C 0.01495 0.04643 0.63831 0.0
C1687 C 0.12334 0.01246 0.65308 0.0
C1688 C 0.04439 0.98015 0.71064 0.0
C1689 C 0.04118 0.95175 0.69714 0.0
C1690 C 0.05387 1.00531 0.69423 0.0
C1691 C 0.05868 1.00267 0.66296 0.0
C1692 C 0.05381 0.97451 0.64871 0.0
C1693 C 0.04546 0.94924 0.66604 0.0
C1694 C 0.05953 0.03458 0.71064 0.0
C1695 C 0.05703 0.97118 0.61518 0.0
H1696 H 0.04271 0.0975 0.62043 0.0
H1697 H 0.13383 0.06858 0.63135 0.0
H1698 H 0.00917 0.02349 0.63027 0.0
H1699 H 0.00783 0.04807 0.6621 0.0
H1700 H 1.002 0.06327 0.62509 0.0
H1701 H 0.14667 0.0204 0.64952 0.0
H1702 H 0.12026 0.0074 0.67727 0.0
H1703 H 0.12018 0.99104 0.64064 0.0
H1704 H 0.03994 0.98278 0.73435 0.0
H1705 H 0.04233 0.92757 0.65524 0.0
H1706 H 0.04589 0.053 0.70074 0.0
H1707 H 0.08346 0.04098 0.70824 0.0
H1708 H 0.0542 0.03301 0.73493 0.0
H1709 H 0.03894 0.98415 0.60387 0.0
H1710 H 0.05555 0.94727 0.60791 0.0
H1711 H 0.0787 0.98063 0.60747 0.0
C1712 C 0.17298 0.82495 0.91228 0.0
C1713 C 0.16884 0.84266 0.88642 0.0
C1714 C 0.20112 0.81288 0.91979 0.0
C1715 C 0.2258 0.81756 0.90043 0.0
C1716 C 0.22102 0.83227 0.87252 0.0
C1717 C 0.19265 0.845 0.86593 0.0
C1718 C 0.20486 0.79727 0.94971 0.0
C1719 C 0.24623 0.83549 0.85021 0.0
C1720 C 0.30184 0.82524 0.93876 0.0
C1721 C 0.31192 0.79531 0.93986 0.0
C1722 C 0.274 0.83273 0.92586 0.0
C1723 C 0.25684 0.81022 0.9112 0.0
C1724 C 0.26845 0.78049 0.90941 0.0
C1725 C 0.29537 0.77326 0.92437 0.0
C1726 C 0.26232 0.86454 0.92926 0.0
C1727 C 0.25211 0.75583 0.89282 0.0
H1728 H 0.15444 0.82203 0.92773 0.0
H1729 H 0.18965 0.85812 0.84561 0.0
H1730 H 0.216 0.77511 0.94678 0.0
H1731 H 0.21941 0.81114 0.96447 0.0
H1732 H 0.18308 0.79363 0.96123 0.0
H1733 H 0.23856 0.84561 0.82872 0.0
H1734 H 0.26423 0.84983 0.85973 0.0
H1735 H 0.25626 0.81303 0.84558 0.0
H1736 H 0.31534 0.84286 0.94859 0.0
H1737 H 0.30313 0.75007 0.92419 0.0
H1738 H 0.24047 0.86419 0.9412 0.0
H1739 H 0.2584 0.87476 0.90689 0.0
H1740 H 0.278 0.87916 0.94202 0.0
H1741 H 0.23682 0.74404 0.90852 0.0
H1742 H 0.26812 0.73882 0.88392 0.0
H1743 H 0.2386 0.76487 0.87391 0.0
C1744 C 0.49007 0.04287 0.17981 0.0
C1745 C 0.4675 0.06199 0.19096 0.0
C1746 C 0.48283 0.0166 0.16361 0.0
C1747 C 0.45235 0.00879 0.15936 0.0
C1748 C 0.42961 0.02792 0.17076 0.0
C1749 C 0.4375 0.05469 0.1854 0.0
C1750 C 0.50771 0.99761 0.15055 0.0
C1751 C 0.39679 0.02006 0.16758 0.0
C1752 C 0.4188 0.96291 0.09648 0.0
C1753 C 0.4106 0.93661 0.1117 0.0
C1754 C 0.43535 0.98552 0.11097 0.0
C1755 C 0.44344 0.98182 0.14153 0.0
C1756 C 0.43732 0.95412 0.15617 0.0
C1757 C 0.4209 0.93175 0.14101 0.0
C1758 C 0.44148 0.01463 0.09451 0.0
C1759 C 0.44585 0.94915 0.18859 0.0
H1760 H 0.51341 0.04853 0.18351 0.0
H1761 H 0.42002 0.07006 0.19222 0.0
H1762 H 0.50583 0.974 0.15851 0.0
H1763 H 0.50568 0.99716 0.12573 0.0
H1764 H 0.53028 0.00632 0.15654 0.0
H1765 H 0.38185 0.03838 0.17557 0.0
H1766 H 0.39107 0.01528 0.14385 0.0
H1767 H 0.39199 0.99935 0.18073 0.0
H1768 H 0.41068 0.96657 0.07382 0.0
H1769 H 0.41449 0.91128 0.15266 0.0
H1770 H 0.46476 0.02232 0.09873 0.0
H1771 H 0.42611 0.03245 0.10291 0.0
H1772 H 0.43803 0.0123 0.06993 0.0
H1773 H 0.4699 0.95441 0.19211 0.0
H1774 H 0.44167 0.92558 0.19596 0.0
H1775 H 0.4327 0.96462 0.20311 0.0
C1776 C 0.80336 0.36248 0.63705 0.0
C1777 C 0.82391 0.3426 0.65041 0.0
C1778 C 0.78146 0.35193 0.6168 0.0
C1779 C 0.77975 0.3207 0.61017 0.0
C1780 C 0.80193 0.30097 0.62189 0.0
C1781 C 0.82368 0.31217 0.64192 0.0
C1782 C 0.75871 0.37386 0.6043 0.0
C1783 C 0.80134 0.26763 0.61514 0.0
C1784 C 0.70046 0.29238 0.5947 0.0
C1785 C 0.7005 0.28947 0.56346 0.0
C1786 C 0.72651 0.30129 0.6102 0.0
C1787 C 0.75295 0.30842 0.59395 0.0
C1788 C 0.75323 0.3045 0.5624 0.0
C1789 C 0.72723 0.29418 0.54772 0.0
C1790 C 0.72569 0.30325 0.644 0.0
C1791 C 0.7806 0.31207 0.54403 0.0
H1792 H 0.8031 0.38589 0.64403 0.0
H1793 H 0.83923 0.29671 0.65264 0.0
H1794 H 0.75521 0.36989 0.57995 0.0
H1795 H 0.73684 0.37037 0.61564 0.0
H1796 H 0.76562 0.39766 0.60769 0.0
H1797 H 0.82126 0.25569 0.62435 0.0
H1798 H 0.78085 0.25747 0.62493 0.0
H1799 H 0.80044 0.26379 0.59057 0.0
H1800 H 0.68001 0.28773 0.60699 0.0
H1801 H 0.72783 0.28976 0.5239 0.0
H1802 H 0.7294 0.3269 0.65117 0.0
H1803 H 0.74404 0.2894 0.65377 0.0
H1804 H 0.70401 0.29536 0.65338 0.0
H1805 H 0.78347 0.33691 0.54353 0.0
H1806 H 0.77873 0.30377 0.52059 0.0
H1807 H 0.80114 0.30242 0.55428 0.0
C1808 C 0.93233 0.45343 0.82511 0.0
C1809 C 0.96252 0.44504 0.82223 0.0
C1810 C 0.92422 0.48101 0.83843 0.0
C1811 C 0.94662 0.49958 0.85136 0.0
C1812 C 0.97671 0.48938 0.85177 0.0
C1813 C 0.98439 0.46259 0.83674 0.0
C1814 C 0.89192 0.49112 0.83692 0.0
C1815 C 1.00088 0.50701 0.86771 0.0
C1816 C 0.93328 0.58428 0.85019 0.0
C1817 C 0.91809 0.58938 0.87737 0.0
C1818 C 0.94286 0.55536 0.84173 0.0
C1819 C 0.93895 0.53079 0.86162 0.0
C1820 C 0.92632 0.53608 0.89031 0.0
C1821 C 0.91532 0.56502 0.89753 0.0
C1822 C 0.95604 0.55099 0.81083 0.0
C1823 C 0.92356 0.51112 0.91318 0.0
H1824 H 0.91508 0.43921 0.81551 0.0
H1825 H 0.00774 0.45583 0.83581 0.0
H1826 H 0.88342 0.49616 0.85973 0.0
H1827 H 0.89031 0.51221 0.82357 0.0
H1828 H 0.87716 0.47388 0.82651 0.0
H1829 H 0.02314 0.4958 0.86632 0.0
H1830 H 1.00279 0.52998 0.85807 0.0
H1831 H 0.99477 0.50967 0.89171 0.0
H1832 H 0.93726 0.60283 0.83492 0.0
H1833 H 0.90384 0.56809 0.91869 0.0
H1834 H 0.94259 0.53416 0.79841 0.0
H1835 H 0.9792 0.54204 0.81247 0.0
H1836 H 0.95654 0.57221 0.79758 0.0
H1837 H 0.90232 0.49873 0.90939 0.0
H1838 H 0.92304 0.52029 0.93638 0.0
H1839 H 0.94236 0.49478 0.91144 0.0
C1840 C 0.78739 0.7385 0.07619 0.0
C1841 C 0.80905 0.7164 0.06964 0.0
C1842 C 0.7608 0.73109 0.09147 0.0
C1843 C 0.75548 0.70075 0.09978 0.0
C1844 C 0.77725 0.67844 0.09311 0.0
C1845 C 0.80407 0.68672 0.079 0.0
C1846 C 0.73886 0.7558 0.09932 0.0
C1847 C 0.77215 0.64565 0.1008 0.0
C1848 C 0.70689 0.67288 0.16342 0.0
C1849 C 0.6829 0.66022 0.14762 0.0
C1850 C 0.72947 0.68886 0.14832 0.0
C1851 C 0.72804 0.6919 0.11669 0.0
C1852 C 0.70241 0.6814 0.10107 0.0
C1853 C 0.68014 0.66549 0.11677 0.0
C1854 C 0.75619 0.70009 0.16584 0.0
C1855 C 0.69973 0.6847 0.06749 0.0
H1856 H 0.79122 0.76169 0.0695 0.0
H1857 H 0.82116 0.66981 0.07523 0.0
H1858 H 0.71576 0.74942 0.09267 0.0
H1859 H 0.73879 0.75918 0.12399 0.0
H1860 H 0.74464 0.77756 0.08841 0.0
H1861 H 0.79173 0.63126 0.09513 0.0
H1862 H 0.76744 0.64306 0.12508 0.0
H1863 H 0.75228 0.63722 0.08838 0.0
H1864 H 0.70894 0.66866 0.18732 0.0
H1865 H 0.66145 0.65566 0.10468 0.0
H1866 H 0.7621 0.72334 0.15883 0.0
H1867 H 0.77586 0.68548 0.16114 0.0
H1868 H 0.75201 0.69992 0.19041 0.0
H1869 H 0.70377 0.70841 0.06068 0.0
H1870 H 0.67736 0.67765 0.05906 0.0
H1871 H 0.71709 0.67062 0.05654 0.0
C1872 C 0.55941 0.43228 0.38607 0.0
C1873 C 0.5882 0.42193 0.37881 0.0
C1874 C 0.54961 0.46112 0.37693 0.0
C1875 C 0.56914 0.47994 0.36021 0.0
C1876 C 0.59885 0.4701 0.3545 0.0
C1877 C 0.60793 0.44117 0.3637 0.0
C1878 C 0.5179 0.47072 0.38388 0.0
C1879 C 0.6207 0.48967 0.33755 0.0
C1880 C 0.5356 0.53555 0.30409 0.0
C1881 C 0.54104 0.56323 0.31808 0.0
C1882 C 0.54462 0.50832 0.31758 0.0
C1883 C 0.55805 0.50871 0.34646 0.0
C1884 C 0.56231 0.5367 0.36121 0.0
C1885 C 0.55432 0.56369 0.34654 0.0
C1886 C 0.54057 0.47922 0.30052 0.0
C1887 C 0.57499 0.53816 0.39258 0.0
H1888 H 0.54413 0.41732 0.3977 0.0
H1889 H 0.63028 0.43316 0.3583 0.0
H1890 H 0.51711 0.49471 0.39092 0.0
H1891 H 0.50396 0.4685 0.36336 0.0
H1892 H 0.50777 0.45662 0.40181 0.0
H1893 H 0.64282 0.47853 0.33444 0.0
H1894 H 0.61135 0.49533 0.31519 0.0
H1895 H 0.62417 0.51119 0.34974 0.0
H1896 H 0.52511 0.5353 0.28211 0.0
H1897 H 0.55841 0.58512 0.3574 0.0
H1898 H 0.52634 0.46351 0.3136 0.0
H1899 H 0.56267 0.46812 0.29728 0.0
H1900 H 0.53012 0.48282 0.27815 0.0
H1901 H 0.55928 0.52698 0.40835 0.0
H1902 H 0.57856 0.56173 0.40022 0.0
H1903 H 0.59661 0.52582 0.39388 0.0
C1904 C 0.40738 0.33832 0.19143 0.0
C1905 C 0.38093 0.34333 0.17491 0.0
C1906 C 0.41521 0.30956 0.20202 0.0
C1907 C 0.39537 0.28512 0.19756 0.0
C1908 C 0.36713 0.29055 0.1838 0.0
C1909 C 0.36037 0.3195 0.17223 0.0
C1910 C 0.44579 0.30501 0.21598 0.0
C1911 C 0.34445 0.26555 0.1807 0.0
C1912 C 0.43197 0.20788 0.18955 0.0
C1913 C 0.43433 0.19836 0.21946 0.0
C1914 C 0.41926 0.23593 0.18211 0.0
C1915 C 0.40568 0.25372 0.20477 0.0
C1916 C 0.4048 0.24251 0.23458 0.0
C1917 C 0.41984 0.21545 0.24171 0.0
C1918 C 0.42193 0.2472 0.15023 0.0
C1919 C 0.38913 0.25952 0.25934 0.0
H1920 H 0.42296 0.35675 0.19474 0.0
H1921 H 0.33969 0.32303 0.15992 0.0
H1922 H 0.44374 0.294 0.2382 0.0
H1923 H 0.45939 0.28989 0.2015 0.0
H1924 H 0.4581 0.32657 0.2189 0.0
H1925 H 0.32307 0.27356 0.17064 0.0
H1926 H 0.3536 0.24717 0.16653 0.0
H1927 H 0.33973 0.2557 0.20312 0.0
H1928 H 0.44085 0.1938 0.17186 0.0
H1929 H 0.42059 0.20802 0.26489 0.0
H1930 H 0.43408 0.26903 0.14997 0.0
H1931 H 0.39938 0.25124 0.14056 0.0
H1932 H 0.43414 0.23108 0.13555 0.0
H1933 H 0.40497 0.27576 0.26963 0.0
H1934 H 0.38146 0.24395 0.27729 0.0
H1935 H 0.3695 0.27232 0.25075 0.0
C1936 C 0.922 0.29526 0.76918 0.0
C1937 C 0.93712 0.31209 0.79122 0.0
C1938 C 0.90745 0.268 0.77639 0.0
C1939 C 0.90923 0.25648 0.80601 0.0
C1940 C 0.92336 0.27396 0.82851 0.0
C1941 C 0.93592 0.30199 0.82102 0.0
C1942 C 0.89019 0.25153 0.75234 0.0
C1943 C 0.92687 0.26233 0.8602 0.0
C1944 C 0.86342 0.19206 0.83945 0.0
C1945 C 0.88309 0.16744 0.83595 0.0
C1946 C 0.87056 0.22078 0.82783 0.0
C1947 C 0.89849 0.22536 0.81333 0.0
C1948 C 0.91773 0.20039 0.80857 0.0
C1949 C 0.9094 0.17178 0.81913 0.0
C1950 C 0.84885 0.24655 0.83228 0.0
C1951 C 0.94793 0.20409 0.79368 0.0
H1952 H 0.92165 0.30325 0.74619 0.0
H1953 H 0.94522 0.31576 0.8386 0.0
H1954 H 0.89974 0.22871 0.74878 0.0
H1955 H 0.8666 0.2485 0.75967 0.0
H1956 H 0.89027 0.26382 0.7306 0.0
H1957 H 0.93377 0.28033 0.87601 0.0
H1958 H 0.9058 0.25229 0.86866 0.0
H1959 H 0.94414 0.24426 0.86039 0.0
H1960 H 0.84299 0.18932 0.85226 0.0
H1961 H 0.92423 0.15286 0.81498 0.0
H1962 H 0.8461 0.25945 0.8111 0.0
H1963 H 0.85776 0.26235 0.84938 0.0
H1964 H 0.8265 0.2386 0.83987 0.0
H1965 H 0.94497 0.21221 0.77033 0.0
H1966 H 0.96089 0.18267 0.79307 0.0
H1967 H 0.96137 0.22124 0.80584 0.0
C1968 C 0.07153 0.61289 0.06052 0.0
C1969 C 0.07536 0.608 0.09136 0.0
C1970 C 0.04968 0.63307 0.04974 0.0
C1971 C 0.03104 0.64856 0.07035 0.0
C1972 C 0.03658 0.64558 0.10157 0.0
C1973 C 0.05865 0.62519 0.11174 0.0
C1974 C 0.04489 0.63572 0.01631 0.0
C1975 C 0.01742 0.66188 0.12428 0.0
C1976 C 0.97674 0.70924 0.04242 0.0
C1977 C 0.94946 0.69365 0.04272 0.0
C1978 C 1.00356 0.69511 0.05156 0.0
C1979 C 1.00325 0.6642 0.05962 0.0
C1980 C 0.97593 0.64795 0.05802 0.0
C1981 C 0.94933 0.66301 0.05006 0.0
C1982 C 0.03195 0.71347 0.05334 0.0
C1983 C 0.97477 0.61456 0.0646 0.0
H1984 H 0.08423 0.59927 0.04479 0.0
H1985 H 0.06122 0.62103 0.13559 0.0
H1986 H 0.02384 0.62401 0.01002 0.0
H1987 H 0.04246 0.65969 0.0096 0.0
H1988 H 0.06366 0.62555 1.00339 0.0
H1989 H 0.02735 0.66104 0.14713 0.0
H1990 H 0.01423 0.68582 0.11768 0.0
H1991 H 0.99492 0.65126 0.12509 0.0
H1992 H 0.97702 0.73264 0.0354 0.0
H1993 H 0.92842 0.65076 0.04968 0.0
H1994 H 0.05089 0.70141 0.04257 0.0
H1995 H 0.03799 0.71688 0.07727 0.0
H1996 H 0.02937 0.73594 0.04258 0.0
H1997 H 0.9893 0.60226 0.04851 0.0
H1998 H 0.95167 0.60537 0.0629 0.0
H1999 H 0.98351 0.60994 0.08747 0.0
C2000 C 0.60264 0.82886 0.3572 0.0
C2001 C 0.624 0.84451 0.3404 0.0
C2002 C 0.59284 0.80017 0.34845 0.0
C2003 C 0.60429 0.78675 0.322 0.0
C2004 C 0.62681 0.80205 0.3055 0.0
C2005 C 0.63651 0.83079 0.31498 0.0
C2006 C 0.56875 0.78505 0.36647 0.0
C2007 C 0.63965 0.78873 0.27714 0.0
C2008 C 0.58857 0.70251 0.31417 0.0
C2009 C 0.56404 0.70245 0.2946 0.0
C2010 C 0.60283 0.72966 0.32208 0.0
C2011 C 0.59147 0.75748 0.31115 0.0
C2012 C 0.5664 0.75736 0.29148 0.0
C2013 C 0.55331 0.72979 0.28307 0.0
C2014 C 0.62996 0.72858 0.3423 0.0
C2015 C 0.55257 0.78633 0.28021 0.0
H2016 H 0.59301 0.83951 0.37688 0.0
H2017 H 0.65295 0.84304 0.30188 0.0
H2018 H 0.54865 0.78323 0.35209 0.0
H2019 H 0.57576 0.76191 0.37292 0.0
H2020 H 0.56274 0.7978 0.38706 0.0
H2021 H 0.65988 0.80108 0.26945 0.0
H2022 H 0.64557 0.76465 0.28056 0.0
H2023 H 0.62251 0.78975 0.25909 0.0
H2024 H 0.59689 0.68123 0.32287 0.0
H2025 H 0.53409 0.72962 0.26813 0.0
H2026 H 0.62462 0.73939 0.3641 0.0
H2027 H 0.64868 0.74144 0.33208 0.0
H2028 H 0.63763 0.70512 0.34662 0.0
H2029 H 0.54038 0.79744 0.29888 0.0
H2030 H 0.53643 0.78234 0.26161 0.0
H2031 H 0.57009 0.80216 0.27232 0.0
C2032 C 0.54759 0.34252 0.52585 0.0
C2033 C 0.55971 0.32047 0.54513 0.0
C2034 C 0.5207 0.35772 0.53296 0.0
C2035 C 0.50442 0.34931 0.55894 0.0
C2036 C 0.51687 0.32762 0.57869 0.0
C2037 C 0.54502 0.31496 0.57231 0.0
C2038 C 0.50985 0.38287 0.51285 0.0
C2039 C 0.49983 0.31625 0.60571 0.0
C2040 C 0.44203 0.39419 0.59668 0.0
C2041 C 0.41625 0.37988 0.58547 0.0
C2042 C 0.47086 0.38589 0.58672 0.0
C2043 C 0.47414 0.36235 0.56544 0.0
C2044 C 0.44817 0.34894 0.55296 0.0
C2045 C 0.41966 0.35813 0.56282 0.0
C2046 C 0.49793 0.40113 0.60024 0.0
C2047 C 0.45045 0.32377 0.53025 0.0
H2048 H 0.55921 0.34813 0.50526 0.0
H2049 H 0.55515 0.30041 0.5886 0.0
H2050 H 0.48734 0.37757 0.50374 0.0
H2051 H 0.50764 0.40393 0.52612 0.0
H2052 H 0.52536 0.38708 0.49381 0.0
H2053 H 0.51449 0.30356 0.62145 0.0
H2054 H 0.48902 0.33491 0.61822 0.0
H2055 H 0.48176 0.30092 0.59793 0.0
H2056 H 0.43983 0.41095 0.61423 0.0
H2057 H 0.39992 0.34757 0.55331 0.0
H2058 H 0.51415 0.40737 0.58242 0.0
H2059 H 0.50951 0.3853 0.61571 0.0
H2060 H 0.49175 0.42169 0.61306 0.0
H2061 H 0.46216 0.33184 0.50985 0.0
H2062 H 0.42811 0.31502 0.5235 0.0
H2063 H 0.46386 0.30488 0.53965 0.0
C2064 C 0.11687 0.68416 0.67375 0.0
C2065 C 0.14728 0.68622 0.66636 0.0
C2066 C 0.10271 0.70711 0.69017 0.0
C2067 C 0.1194 0.73282 0.6988 0.0
C2068 C 0.15076 0.73351 0.69383 0.0
C2069 C 0.16438 0.71017 0.67746 0.0
C2070 C 0.06942 0.70504 0.69576 0.0
C2071 C 0.16946 0.75989 0.7041 0.0
C2072 C 0.08117 0.80907 0.69436 0.0
C2073 C 0.07126 0.81327 0.72381 0.0
C2074 C 0.09581 0.78244 0.68592 0.0
C2075 C 0.10352 0.76082 0.70807 0.0
C2076 C 0.096 0.76622 0.73844 0.0
C2077 C 0.07919 0.79198 0.74581 0.0
C2078 C 0.10235 0.77715 0.65308 0.0
C2079 C 0.10484 0.74471 0.76319 0.0
H2080 H 0.1038 0.66544 0.66518 0.0
H2081 H 0.18797 0.71154 0.67176 0.0
H2082 H 0.06359 0.71354 0.71841 0.0
H2083 H 0.05745 0.71922 0.67907 0.0
H2084 H 0.06119 0.6815 0.69361 0.0
H2085 H 0.19384 0.75572 0.70111 0.0
H2086 H 0.16321 0.78035 0.69114 0.0
H2087 H 0.16496 0.76471 0.72813 0.0
H2088 H 0.07688 0.82631 0.67768 0.0
H2089 H 0.0722 0.79535 0.76888 0.0
H2090 H 0.0924 0.7554 0.64585 0.0
H2091 H 0.12691 0.77563 0.64946 0.0
H2092 H 0.0932 0.79536 0.63856 0.0
H2093 H 0.08689 0.72769 0.7661 0.0
H2094 H 0.10749 0.75679 0.78488 0.0
H2095 H 0.12607 0.7327 0.75808 0.0
C2096 C 0.45019 0.83252 0.94051 0.0
C2097 C 0.44824 0.81832 0.96845 0.0
C2098 C 0.4763 0.84781 0.9319 0.0
C2099 C 0.50106 0.84916 0.95184 0.0
C2100 C 0.4992 0.83481 0.98017 0.0
C2101 C 0.47271 0.81971 0.98823 0.0
C2102 C 0.47743 0.86236 0.90128 0.0
C2103 C 0.52513 0.83546 1.00193 0.0
C2104 C 0.57147 0.86818 0.90873 0.0
C2105 C 0.57214 0.89957 0.91157 0.0
C2106 C 0.55032 0.85096 0.92443 0.0
C2107 C 0.52869 0.86563 0.94256 0.0
C2108 C 0.5312 0.8971 0.9477 0.0
C2109 C 0.55301 0.91374 0.93209 0.0
C2110 C 0.54974 0.81744 0.91919 0.0
C2111 C 0.50933 0.91391 0.96738 0.0
H2112 H 0.43114 0.83188 0.92542 0.0
H2113 H 0.4713 0.80866 0.0099 0.0
H2114 H 0.484 0.8864 0.90332 0.0
H2115 H 0.49463 0.85088 0.88738 0.0
H2116 H 0.45557 0.86111 0.88936 0.0
H2117 H 0.5212 0.82083 0.02179 0.0
H2118 H 0.54604 0.82804 0.99062 0.0
H2119 H 0.52872 0.85892 0.0098 0.0
H2120 H 0.58655 0.85723 0.89305 0.0
H2121 H 0.5537 0.93808 0.93437 0.0
H2122 H 0.53618 0.81304 0.89884 0.0
H2123 H 0.53984 0.805 0.93837 0.0
H2124 H 0.57266 0.80856 0.91496 0.0
H2125 H 0.49069 0.92254 0.95324 0.0
H2126 H 0.52033 0.93358 0.97818 0.0
H2127 H 0.49965 0.89938 0.98514 0.0
C2128 C 0.93694 0.11509 0.45104 0.0
C2129 C 0.93442 0.10857 0.42041 0.0
C2130 C 0.95867 0.13549 0.46158 0.0
C2131 C 0.9784 0.14955 0.44095 0.0
C2132 C 0.97444 0.14452 0.40977 0.0
C2133 C 0.95263 0.12389 0.39989 0.0
C2134 C 0.9619 0.14028 0.49495 0.0
C2135 C 0.99481 0.15912 0.38699 0.0
C2136 C 0.03154 0.21216 0.46643 0.0
C2137 C 0.05876 0.1965 0.46873 0.0
C2138 C 1.00505 0.19739 0.45739 0.0
C2139 C 1.0056 0.16591 0.4519 0.0
C2140 C 0.03272 0.14975 0.45619 0.0
C2141 C 0.05886 0.16526 0.46443 0.0
C2142 C 0.97678 0.21561 0.45302 0.0
C2143 C 0.03418 0.11595 0.45215 0.0
H2144 H 0.92307 0.10288 0.46689 0.0
H2145 H 0.95092 0.11848 0.37621 0.0
H2146 H 0.98276 0.12918 0.50294 0.0
H2147 H 0.96381 0.16466 0.50014 0.0
H2148 H 0.94266 0.13082 0.50764 0.0
H2149 H 0.98616 0.15658 0.36374 0.0
H2150 H 0.99755 0.18349 0.39194 0.0
H2151 H 0.01735 0.14852 0.38823 0.0
H2152 H 0.03095 0.23599 0.47171 0.0
H2153 H 0.07935 0.15277 0.46755 0.0
H2154 H 0.95723 0.20407 0.4632 0.0
H2155 H 0.97222 0.21793 0.42864 0.0
H2156 H 0.97868 0.23855 0.46284 0.0
H2157 H 0.0192 0.10487 0.46866 0.0
H2158 H 0.05724 0.10692 0.45523 0.0
H2159 H 0.02619 0.10963 0.42943 0.0
loop_
_geom_bond_atom_site_label_1
_geom_bond_atom_site_label_2
_geom_bond_distance
_geom_bond_site_symmetry_2
_ccdc_geom_bond_type
C0 C2 1.422 . S
C0 C4 1.415 . S
C0 N6 1.369 . S
C1 C2 1.421 . S
C1 C3 1.417 . S
C1 C13 1.422 . S
C2 C0 1.422 . S
C2 C1 1.421 . S
C2 N12 1.359 . S
C3 C1 1.417 . S
C3 C5 1.329 1_455 S
C3 H22 0.930 1_455 S
C4 C0 1.415 . S
C4 C5 1.437 1_455 S
C4 C8 1.413 1_455 S
C5 C3 1.329 1_655 S
C5 C4 1.437 1_655 S
C5 H27 0.929 . S
N6 C0 1.369 . S
N6 C7 1.338 . S
N6 Gd11 2.622 . S
C7 N6 1.338 . S
C7 C9 1.416 . S
C7 H19 0.929 . S
C8 C4 1.413 1_655 S
C8 C9 1.330 1_655 S
C8 H24 0.931 . S
C9 C7 1.416 . S
C9 C8 1.330 1_455 S
C9 H25 0.911 1_455 S
Gd10 N30 2.622 . S
Gd10 N37 2.570 . S
Gd10 O44 2.353 . S
Gd10 O45 2.468 . S
Gd10 O46 2.427 . S
Gd10 O48 2.388 . S
Gd10 O49 2.386 . S
Gd10 O53 2.307 . S
Gd10 C63 2.805 . S
Gd11 N6 2.622 . S
Gd11 N12 2.570 . S
Gd11 O43 2.386 . S
Gd11 O47 2.307 . S
Gd11 O50 2.353 . S
Gd11 O51 2.468 . S
Gd11 O52 2.427 . S
Gd11 O54 2.388 . S
Gd11 C75 2.805 . S
N12 C2 1.359 . S
N12 Gd11 2.570 . S
N12 C14 1.343 . S
C13 C1 1.422 . S
C13 C15 1.321 . S
C13 H21 0.931 . S
C14 N12 1.343 . S
C14 C15 1.390 . S
C14 H16 0.931 . S
C15 C13 1.321 . S
C15 C14 1.390 . S
C15 H17 0.930 . S
H16 C14 0.931 . S
H17 C15 0.930 . S
H18 C41 0.931 . S
H19 C7 0.929 . S
H20 C42 0.930 . S
H21 C13 0.931 . S
H22 C3 0.930 1_655 S
H23 C32 0.929 . S
H24 C8 0.931 . S
H25 C9 0.911 1_655 S
H26 C64 0.930 . S
H27 C5 0.929 . S
H28 C33 0.931 . S
H29 C34 0.930 . S
N30 Gd10 2.622 . S
N30 C31 1.369 . S
N30 C32 1.338 . S
C31 N30 1.369 . S
C31 C35 1.415 . S
C31 C38 1.422 . S
C32 H23 0.929 . S
C32 N30 1.338 . S
C32 C34 1.378 . S
C33 H28 0.931 . S
C33 C34 1.348 . S
C33 C35 1.413 . S
C34 H29 0.930 . S
C34 C32 1.378 . S
C34 C33 1.348 . S
C35 C31 1.415 . S
C35 C33 1.413 . S
C35 C65 1.437 . S
H36 C65 0.929 . S
N37 Gd10 2.570 . S
N37 C38 1.359 . S
N37 C41 1.343 . S
C38 C31 1.422 . S
C38 N37 1.359 . S
C38 C40 1.421 . S
C39 C40 1.422 . S
C39 C42 1.321 . S
C39 H66 0.931 . S
C40 C38 1.421 . S
C40 C39 1.422 . S
C40 C64 1.417 . S
C41 H18 0.931 . S
C41 N37 1.343 . S
C41 C42 1.390 . S
C42 H20 0.930 . S
C42 C39 1.321 . S
C42 C41 1.390 . S
O43 Gd11 2.386 . S
O43 C55 1.265 . S
O44 Gd10 2.353 . S
O44 C55 1.242 . S
O45 Gd10 2.468 . S
O45 C63 1.263 . S
O46 Gd10 2.427 . S
O46 C63 1.252 . S
O47 Gd11 2.307 . S
O47 C56 1.261 . S
O48 Gd10 2.388 . S
O48 C56 1.252 . S
O49 Gd10 2.386 . S
O49 C67 1.265 . S
O50 Gd11 2.353 . S
O50 C67 1.242 . S
O51 Gd11 2.468 . S
O51 C75 1.263 . S
O52 Gd11 2.427 . S
O52 C75 1.252 . S
O53 Gd10 2.307 . S
O53 C68 1.261 . S
O54 Gd11 2.388 . S
O54 C68 1.252 . S
C55 O43 1.265 . S
C55 O44 1.242 . S
C56 O47 1.261 . S
C56 O48 1.252 . S
C57 C60 1.394 . S
C57 C62 1.370 . S
C57 C63 1.500 . S
C58 C61 1.383 . S
C58 C62 1.395 . S
C59 C60 1.396 . S
C59 C61 1.365 . S
C59 H76 0.929 . S
C60 C57 1.394 . S
C60 C59 1.396 . S
C60 H77 0.930 . S
C61 C58 1.383 . S
C61 C59 1.365 . S
C61 H78 0.931 . S
C62 C57 1.370 . S
C62 C58 1.395 . S
C62 H79 0.930 . S
C63 Gd10 2.805 . S
C63 O45 1.263 . S
C63 O46 1.252 . S
C63 C57 1.500 . S
C64 H26 0.930 . S
C64 C40 1.417 . S
C64 C65 1.329 . S
C65 C35 1.437 . S
C65 H36 0.929 . S
C65 C64 1.329 . S
H66 C39 0.931 . S
C67 O49 1.265 . S
C67 O50 1.242 . S
C68 O53 1.261 . S
C68 O54 1.252 . S
C69 C72 1.394 . S
C69 C74 1.370 . S
C69 C75 1.500 . S
C70 C73 1.383 . S
C70 C74 1.395 . S
C71 C72 1.396 . S
C71 C73 1.365 . S
C71 H80 0.929 . S
C72 C69 1.394 . S
C72 C71 1.396 . S
C72 H81 0.930 . S
C73 C70 1.383 . S
C73 C71 1.365 . S
C73 H82 0.931 . S
C74 C69 1.370 . S
C74 C70 1.395 . S
C74 H83 0.930 . S
C75 Gd11 2.805 . S
C75 O51 1.263 . S
C75 O52 1.252 . S
C75 C69 1.500 . S
H76 C59 0.929 . S
H77 C60 0.930 . S
H78 C61 0.931 . S
H79 C62 0.930 . S
H80 C71 0.929 . S
H81 C72 0.930 . S
H82 C73 0.931 . S
H83 C74 0.930 . S
C84 C86 1.422 . S
C84 C88 1.415 . S
C84 N90 1.369 . S
C85 C86 1.421 . S
C85 C87 1.417 . S
C85 C97 1.422 . S
C86 C84 1.422 . S
C86 C85 1.421 . S
C86 N96 1.359 . S
C87 C85 1.417 . S
C87 C89 1.329 . S
C87 H106 0.930 . S
C88 C84 1.415 . S
C88 C89 1.437 . S
C88 C92 1.413 . S
C89 C87 1.329 . S
C89 C88 1.437 . S
C89 H111 0.929 . S
N90 C84 1.369 . S
N90 C91 1.338 . S
N90 Gd95 2.622 . S
C91 N90 1.338 . S
C91 C93 1.378 . S
C91 H103 0.929 1_655 S
C92 C88 1.413 . S
C92 C93 1.348 . S
C92 H108 0.931 . S
C93 C91 1.378 . S
C93 C92 1.348 . S
C93 H109 0.930 1_655 S
Gd94 N114 2.622 . S
Gd94 N121 2.570 . S
Gd94 O128 2.353 . S
Gd94 O129 2.468 . S
Gd94 O130 2.427 . S
Gd94 O132 2.388 1_455 S
Gd94 O133 2.386 . S
Gd94 O137 2.307 . S
Gd94 C147 2.805 . S
Gd95 N90 2.622 . S
Gd95 N96 2.570 . S
Gd95 O127 2.386 . S
Gd95 O131 2.307 . S
Gd95 O134 2.353 1_655 S
Gd95 O135 2.468 . S
Gd95 O136 2.427 . S
Gd95 O138 2.388 1_655 S
Gd95 C159 2.805 . S
N96 C86 1.359 . S
N96 Gd95 2.570 . S
N96 C98 1.343 . S
C97 C85 1.422 . S
C97 C99 1.321 . S
C97 H105 0.931 . S
C98 N96 1.343 . S
C98 C99 1.390 . S
C98 H100 0.931 . S
C99 C97 1.321 . S
C99 C98 1.390 . S
C99 H101 0.930 . S
H100 C98 0.931 . S
H101 C99 0.930 . S
H102 C125 0.931 . S
H103 C91 0.929 1_455 S
H104 C126 0.930 . S
H105 C97 0.931 . S
H106 C87 0.930 . S
H107 C116 0.929 . S
H108 C92 0.931 . S
H109 C93 0.930 1_455 S
H110 C148 0.922 1_545 S
H111 C89 0.929 . S
H112 C117 0.931 . S
H113 C118 0.930 1_545 S
N114 Gd94 2.622 . S
N114 C115 1.369 . S
N114 C116 1.338 . S
C115 N114 1.369 . S
C115 C119 1.415 . S
C115 C122 1.422 . S
C116 H107 0.929 . S
C116 N114 1.338 . S
C116 C118 1.378 . S
C117 H112 0.931 . S
C117 C118 1.348 1_545 S
C117 C119 1.413 1_545 S
C118 H113 0.930 1_565 S
C118 C116 1.378 . S
C118 C117 1.348 1_565 S
C119 C115 1.415 . S
C119 C117 1.413 1_565 S
C119 C149 1.437 1_565 S
H120 C149 0.929 . S
N121 Gd94 2.570 . S
N121 C122 1.359 . S
N121 C125 1.343 . S
C122 C115 1.422 . S
C122 N121 1.359 . S
C122 C124 1.421 . S
C123 C124 1.422 . S
C123 C126 1.321 . S
C123 H150 0.931 . S
C124 C122 1.421 . S
C124 C123 1.422 . S
C124 C148 1.417 . S
C125 H102 0.931 . S
C125 N121 1.343 . S
C125 C126 1.390 . S
C126 H104 0.930 . S
C126 C123 1.321 . S
C126 C125 1.390 . S
O127 Gd95 2.386 . S
O127 C139 1.265 . S
O128 Gd94 2.353 . S
O128 C139 1.242 1_455 S
O129 Gd94 2.468 . S
O129 C147 1.263 . S
O130 Gd94 2.427 . S
O130 C147 1.252 . S
O131 Gd95 2.307 . S
O131 C140 1.261 . S
O132 Gd94 2.388 1_655 S
O132 C140 1.252 . S
O133 Gd94 2.386 . S
O133 C151 1.265 . S
O134 Gd95 2.353 1_455 S
O134 C151 1.242 . S
O135 Gd95 2.468 . S
O135 C159 1.263 . S
O136 Gd95 2.427 . S
O136 C159 1.252 . S
O137 Gd94 2.307 . S
O137 C152 1.261 . S
O138 Gd95 2.388 1_455 S
O138 C152 1.252 . S
C139 O127 1.265 . S
C139 O128 1.242 1_655 S
C140 O131 1.261 . S
C140 O132 1.252 . S
C141 C144 1.394 . S
C141 C146 1.370 . S
C141 C147 1.500 . S
C142 C145 1.383 . S
C142 C146 1.395 . S
C143 C144 1.396 . S
C143 C145 1.365 . S
C143 H160 0.929 . S
C144 C141 1.394 . S
C144 C143 1.396 . S
C144 H161 0.930 . S
C145 C142 1.383 . S
C145 C143 1.365 . S
C145 H162 0.931 . S
C146 C141 1.370 . S
C146 C142 1.395 . S
C146 H163 0.930 . S
C147 Gd94 2.805 . S
C147 O129 1.263 . S
C147 O130 1.252 . S
C147 C141 1.500 . S
C148 H110 0.922 1_565 S
C148 C124 1.417 . S
C148 C149 1.329 1_565 S
C149 C119 1.437 1_545 S
C149 H120 0.929 . S
C149 C148 1.329 1_545 S
H150 C123 0.931 . S
C151 O133 1.265 . S
C151 O134 1.242 . S
C152 O137 1.261 . S
C152 O138 1.252 . S
C153 C156 1.394 . S
C153 C158 1.370 . S
C153 C159 1.500 . S
C154 C157 1.383 . S
C154 C158 1.395 . S
C155 C156 1.396 . S
C155 C157 1.365 . S
C155 H164 0.929 . S
C156 C153 1.394 . S
C156 C155 1.396 . S
C156 H165 0.930 . S
C157 C154 1.383 . S
C157 C155 1.365 . S
C157 H166 0.931 . S
C158 C153 1.370 . S
C158 C154 1.395 . S
C158 H167 0.930 . S
C159 Gd95 2.805 . S
C159 O135 1.263 . S
C159 O136 1.252 . S
C159 C153 1.500 . S
H160 C143 0.929 . S
H161 C144 0.930 . S
H162 C145 0.931 . S
H163 C146 0.930 . S
H164 C155 0.929 . S
H165 C156 0.930 . S
H166 C157 0.931 . S
H167 C158 0.930 . S
C168 C170 1.422 . S
C168 C172 1.415 . S
C168 N174 1.369 . S
C169 C170 1.421 . S
C169 C171 1.417 . S
C169 C181 1.422 . S
C170 C168 1.422 . S
C170 C169 1.421 . S
C170 N180 1.359 . S
C171 C169 1.417 . S
C171 C173 1.329 . S
C171 H190 0.930 . S
C172 C168 1.415 . S
C172 C173 1.437 . S
C172 C176 1.413 . S
C173 C171 1.329 . S
C173 C172 1.437 . S
C173 H195 0.929 . S
N174 C168 1.369 . S
N174 C175 1.338 . S
N174 Gd179 2.622 . S
C175 N174 1.338 . S
C175 C177 1.378 . S
C175 H187 0.929 1_554 S
C176 C172 1.413 . S
C176 C177 1.348 . S
C176 H192 0.931 . S
C177 C175 1.378 . S
C177 C176 1.348 . S
C177 H193 0.930 1_554 S
Gd178 N198 2.622 . S
Gd178 N205 2.570 . S
Gd178 O212 2.353 . S
Gd178 O213 2.468 . S
Gd178 O214 2.427 . S
Gd178 O216 2.388 1_556 S
Gd178 O217 2.386 . S
Gd178 O221 2.307 . S
Gd178 C231 2.805 . S
Gd179 N174 2.622 . S
Gd179 N180 2.570 . S
Gd179 O211 2.386 . S
Gd179 O215 2.307 . S
Gd179 O218 2.353 1_554 S
Gd179 O219 2.468 . S
Gd179 O220 2.427 . S
Gd179 O222 2.388 1_554 S
Gd179 C243 2.805 . S
N180 C170 1.359 . S
N180 Gd179 2.570 . S
N180 C182 1.343 . S
C181 C169 1.422 . S
C181 C183 1.321 . S
C181 H189 0.931 . S
C182 N180 1.343 . S
C182 C183 1.390 . S
C182 H184 0.931 . S
C183 C181 1.321 . S
C183 C182 1.390 . S
C183 H185 0.930 . S
H184 C182 0.931 . S
H185 C183 0.930 . S
H186 C209 0.931 . S
H187 C175 0.929 1_556 S
H188 C210 0.930 . S
H189 C181 0.931 . S
H190 C171 0.930 . S
H191 C200 0.929 . S
H192 C176 0.931 . S
H193 C177 0.930 1_556 S
H194 C232 0.930 . S
H195 C173 0.929 . S
H196 C201 0.931 . S
H197 C202 0.930 . S
N198 Gd178 2.622 . S
N198 C199 1.369 . S
N198 C200 1.338 . S
C199 N198 1.369 . S
C199 C203 1.415 . S
C199 C206 1.422 . S
C200 H191 0.929 . S
C200 N198 1.338 . S
C200 C202 1.378 . S
C201 H196 0.931 . S
C201 C202 1.348 . S
C201 C203 1.413 . S
C202 H197 0.930 . S
C202 C200 1.378 . S
C202 C201 1.348 . S
C203 C199 1.415 . S
C203 C201 1.413 . S
C203 C233 1.437 . S
H204 C233 0.929 . S
N205 Gd178 2.570 . S
N205 C206 1.359 . S
N205 C209 1.343 . S
C206 C199 1.422 . S
C206 N205 1.359 . S
C206 C208 1.421 . S
C207 C208 1.422 . S
C207 C210 1.321 . S
C207 H234 0.931 . S
C208 C206 1.421 . S
C208 C207 1.422 . S
C208 C232 1.417 . S
C209 H186 0.931 . S
C209 N205 1.343 . S
C209 C210 1.390 . S
C210 H188 0.930 . S
C210 C207 1.321 . S
C210 C209 1.390 . S
O211 Gd179 2.386 . S
O211 C223 1.265 . S
O212 Gd178 2.353 . S
O212 C223 1.242 1_556 S
O213 Gd178 2.468 . S
O213 C231 1.263 . S
O214 Gd178 2.427 . S
O214 C231 1.252 . S
O215 Gd179 2.307 . S
O215 C224 1.261 . S
O216 Gd178 2.388 1_554 S
O216 C224 1.252 . S
O217 Gd178 2.386 . S
O217 C235 1.265 . S
O218 Gd179 2.353 1_556 S
O218 C235 1.242 . S
O219 Gd179 2.468 . S
O219 C243 1.263 . S
O220 Gd179 2.427 . S
O220 C243 1.252 . S
O221 Gd178 2.307 . S
O221 C236 1.261 . S
O222 Gd179 2.388 1_556 S
O222 C236 1.252 . S
C223 O211 1.265 . S
C223 O212 1.242 1_554 S
C224 O215 1.261 . S
C224 O216 1.252 . S
C225 C228 1.394 . S
C225 C230 1.370 . S
C225 C231 1.500 . S
C226 C229 1.383 . S
C226 C230 1.395 . S
C227 C228 1.396 . S
C227 C229 1.365 . S
C227 H244 0.929 . S
C228 C225 1.394 . S
C228 C227 1.396 . S
C228 H245 0.930 . S
C229 C226 1.383 . S
C229 C227 1.365 . S
C229 H246 0.931 . S
C230 C225 1.370 . S
C230 C226 1.395 . S
C230 H247 0.930 . S
C231 Gd178 2.805 . S
C231 O213 1.263 . S
C231 O214 1.252 . S
C231 C225 1.500 . S
C232 H194 0.930 . S
C232 C208 1.417 . S
C232 C233 1.329 . S
C233 C203 1.437 . S
C233 H204 0.929 . S
C233 C232 1.329 . S
H234 C207 0.931 . S
C235 O217 1.265 . S
C235 O218 1.242 . S
C236 O221 1.261 . S
C236 O222 1.252 . S
C237 C240 1.394 . S
C237 C242 1.370 . S
C237 C243 1.500 . S
C238 C241 1.383 . S
C238 C242 1.395 . S
C239 C240 1.396 . S
C239 C241 1.365 . S
C239 H248 0.929 . S
C240 C237 1.394 . S
C240 C239 1.396 . S
C240 H249 0.930 . S
C241 C238 1.383 . S
C241 C239 1.365 . S
C241 H250 0.931 . S
C242 C237 1.370 . S
C242 C238 1.395 . S
C242 H251 0.930 . S
C243 Gd179 2.805 . S
C243 O219 1.263 . S
C243 O220 1.252 . S
C243 C237 1.500 . S
H244 C227 0.929 . S
H245 C228 0.930 . S
H246 C229 0.931 . S
H247 C230 0.930 . S
H248 C239 0.929 . S
H249 C240 0.930 . S
H250 C241 0.931 . S
H251 C242 0.930 . S
C252 C254 1.422 . S
C252 C256 1.415 . S
C252 N258 1.369 . S
C253 C254 1.421 . S
C253 C255 1.417 . S
C253 C265 1.422 . S
C254 C252 1.422 . S
C254 C253 1.421 . S
C254 N264 1.359 . S
C255 C253 1.417 . S
C255 C257 1.329 . S
C255 H274 0.930 . S
C256 C252 1.415 . S
C256 C257 1.437 . S
C256 C260 1.413 . S
C257 C255 1.329 . S
C257 C256 1.437 . S
C257 H279 0.929 . S
N258 C252 1.369 . S
N258 C259 1.338 . S
N258 Gd263 2.622 . S
C259 N258 1.338 . S
C259 C261 1.378 . S
C259 H271 0.929 . S
C260 C256 1.413 . S
C260 C261 1.348 . S
C260 H276 0.931 . S
C261 C259 1.378 . S
C261 C260 1.348 . S
C261 H277 0.930 . S
Gd262 N282 2.622 . S
Gd262 N289 2.570 . S
Gd262 O296 2.353 . S
Gd262 O297 2.468 . S
Gd262 O298 2.427 . S
Gd262 O300 2.388 . S
Gd262 O301 2.386 . S
Gd262 O305 2.307 . S
Gd262 C315 2.805 . S
Gd263 N258 2.622 . S
Gd263 N264 2.570 . S
Gd263 O295 2.386 . S
Gd263 O299 2.307 . S
Gd263 O302 2.353 . S
Gd263 O303 2.468 . S
Gd263 O304 2.427 . S
Gd263 O306 2.388 . S
Gd263 C327 2.805 . S
N264 C254 1.359 . S
N264 Gd263 2.570 . S
N264 C266 1.343 . S
C265 C253 1.422 . S
C265 C267 1.321 . S
C265 H273 0.931 . S
C266 N264 1.343 . S
C266 C267 1.390 . S
C266 H268 0.931 . S
C267 C265 1.321 . S
C267 C266 1.390 . S
C267 H269 0.930 . S
H268 C266 0.931 . S
H269 C267 0.930 . S
H270 C293 0.931 . S
H271 C259 0.929 . S
H272 C294 0.930 . S
H273 C265 0.931 . S
H274 C255 0.930 . S
H275 C284 0.929 . S
H276 C260 0.931 . S
H277 C261 0.930 . S
H278 C316 0.930 . S
H279 C257 0.929 . S
H280 C285 0.931 . S
H281 C286 0.930 1_565 S
N282 Gd262 2.622 . S
N282 C283 1.369 . S
N282 C284 1.338 . S
C283 N282 1.369 . S
C283 C287 1.415 . S
C283 C290 1.422 . S
C284 H275 0.929 . S
C284 N282 1.338 . S
C284 C286 1.378 . S
C285 H280 0.931 . S
C285 C286 1.348 1_565 S
C285 C287 1.413 1_565 S
C286 H281 0.930 1_545 S
C286 C284 1.378 . S
C286 C285 1.348 1_545 S
C287 C283 1.415 . S
C287 C285 1.413 1_545 S
C287 C317 1.437 1_545 S
H288 C317 0.929 . S
N289 Gd262 2.570 . S
N289 C290 1.359 . S
N289 C293 1.343 . S
C290 C283 1.422 . S
C290 N289 1.359 . S
C290 C292 1.421 . S
C291 C292 1.422 . S
C291 C294 1.321 . S
C291 H318 0.931 . S
C292 C290 1.421 . S
C292 C291 1.422 . S
C292 C316 1.417 . S
C293 H270 0.931 . S
C293 N289 1.343 . S
C293 C294 1.390 . S
C294 H272 0.930 . S
C294 C291 1.321 . S
C294 C293 1.390 . S
O295 Gd263 2.386 . S
O295 C307 1.265 . S
O296 Gd262 2.353 . S
O296 C307 1.242 . S
O297 Gd262 2.468 . S
O297 C315 1.263 . S
O298 Gd262 2.427 . S
O298 C315 1.252 . S
O299 Gd263 2.307 . S
O299 C308 1.261 . S
O300 Gd262 2.388 . S
O300 C308 1.252 . S
O301 Gd262 2.386 . S
O301 C319 1.265 . S
O302 Gd263 2.353 . S
O302 C319 1.242 . S
O303 Gd263 2.468 . S
O303 C327 1.263 . S
O304 Gd263 2.427 . S
O304 C327 1.252 . S
O305 Gd262 2.307 . S
O305 C320 1.261 . S
O306 Gd263 2.388 . S
O306 C320 1.252 . S
C307 O295 1.265 . S
C307 O296 1.242 . S
C308 O299 1.261 . S
C308 O300 1.252 . S
C309 C312 1.394 . S
C309 C314 1.370 . S
C309 C315 1.500 . S
C310 C313 1.383 . S
C310 C314 1.395 . S
C311 C312 1.396 . S
C311 C313 1.365 . S
C311 H328 0.929 . S
C312 C309 1.394 . S
C312 C311 1.396 . S
C312 H329 0.930 . S
C313 C310 1.383 . S
C313 C311 1.365 . S
C313 H330 0.931 . S
C314 C309 1.370 . S
C314 C310 1.395 . S
C314 H331 0.930 . S
C315 Gd262 2.805 . S
C315 O297 1.263 . S
C315 O298 1.252 . S
C315 C309 1.500 . S
C316 H278 0.930 . S
C316 C292 1.417 . S
C316 C317 1.329 1_545 S
C317 C287 1.437 1_565 S
C317 H288 0.929 . S
C317 C316 1.329 1_565 S
H318 C291 0.931 . S
C319 O301 1.265 . S
C319 O302 1.242 . S
C320 O305 1.261 . S
C320 O306 1.252 . S
C321 C324 1.394 . S
C321 C326 1.370 . S
C321 C327 1.500 . S
C322 C325 1.383 . S
C322 C326 1.395 . S
C323 C324 1.396 . S
C323 C325 1.365 . S
C323 H332 0.929 . S
C324 C321 1.394 . S
C324 C323 1.396 . S
C324 H333 0.930 . S
C325 C322 1.383 . S
C325 C323 1.365 . S
C325 H334 0.931 . S
C326 C321 1.370 . S
C326 C322 1.395 . S
C326 H335 0.930 . S
C327 Gd263 2.805 . S
C327 O303 1.263 . S
C327 O304 1.252 . S
C327 C321 1.500 . S
H328 C311 0.929 . S
H329 C312 0.930 . S
H330 C313 0.931 . S
H331 C314 0.930 . S
H332 C323 0.929 . S
H333 C324 0.930 . S
H334 C325 0.931 . S
H335 C326 0.930 . S
C336 C338 1.422 . S
C336 C340 1.415 . S
C336 N342 1.369 . S
C337 C338 1.421 . S
C337 C339 1.417 . S
C337 C349 1.422 . S
C338 C336 1.422 . S
C338 C337 1.421 . S
C338 N348 1.359 . S
C339 C337 1.417 . S
C339 C341 1.329 . S
C339 H358 0.930 . S
C340 C336 1.415 . S
C340 C341 1.437 . S
C340 C344 1.413 . S
C341 C339 1.329 . S
C341 C340 1.437 . S
C341 H363 0.929 . S
N342 C336 1.369 . S
N342 C343 1.338 . S
N342 Gd347 2.622 . S
C343 N342 1.338 . S
C343 C345 1.378 . S
C343 H355 0.929 . S
C344 C340 1.413 . S
C344 C345 1.348 . S
C344 H360 0.931 . S
C345 C343 1.378 . S
C345 C344 1.348 . S
C345 H361 0.930 . S
Gd346 N366 2.622 . S
Gd346 N373 2.570 . S
Gd346 O380 2.353 . S
Gd346 O381 2.468 . S
Gd346 O382 2.427 . S
Gd346 O384 2.388 . S
Gd346 O385 2.386 . S
Gd346 O389 2.307 . S
Gd346 C399 2.805 . S
Gd347 N342 2.622 . S
Gd347 N348 2.570 . S
Gd347 O379 2.386 . S
Gd347 O383 2.307 . S
Gd347 O386 2.353 . S
Gd347 O387 2.468 . S
Gd347 O388 2.427 . S
Gd347 O390 2.388 . S
Gd347 C411 2.805 . S
N348 C338 1.359 . S
N348 Gd347 2.570 . S
N348 C350 1.343 . S
C349 C337 1.422 . S
C349 C351 1.321 . S
C349 H357 0.931 . S
C350 N348 1.343 . S
C350 C351 1.390 . S
C350 H352 0.931 . S
C351 C349 1.321 . S
C351 C350 1.390 . S
C351 H353 0.930 . S
H352 C350 0.931 . S
H353 C351 0.930 . S
H354 C377 0.931 . S
H355 C343 0.929 . S
H356 C378 0.930 . S
H357 C349 0.931 . S
H358 C339 0.930 . S
H359 C368 0.929 . S
H360 C344 0.931 . S
H361 C345 0.930 . S
H362 C400 0.930 . S
H363 C341 0.929 . S
H364 C369 0.931 . S
H365 C370 0.930 . S
N366 Gd346 2.622 . S
N366 C367 1.369 . S
N366 C368 1.338 . S
C367 N366 1.369 . S
C367 C371 1.415 . S
C367 C374 1.422 . S
C368 H359 0.929 . S
C368 N366 1.338 . S
C368 C370 1.378 . S
C369 H364 0.931 . S
C369 C370 1.348 . S
C369 C371 1.413 . S
C370 H365 0.930 . S
C370 C368 1.378 . S
C370 C369 1.348 . S
C371 C367 1.415 . S
C371 C369 1.413 . S
C371 C401 1.437 . S
H372 C401 0.929 . S
N373 Gd346 2.570 . S
N373 C374 1.359 . S
N373 C377 1.343 . S
C374 C367 1.422 . S
C374 N373 1.359 . S
C374 C376 1.421 . S
C375 C376 1.422 . S
C375 C378 1.321 . S
C375 H402 0.931 . S
C376 C374 1.421 . S
C376 C375 1.422 . S
C376 C400 1.417 . S
C377 H354 0.931 . S
C377 N373 1.343 . S
C377 C378 1.390 . S
C378 H356 0.930 . S
C378 C375 1.321 . S
C378 C377 1.390 . S
O379 Gd347 2.386 . S
O379 C391 1.265 . S
O380 Gd346 2.353 . S
O380 C391 1.242 . S
O381 Gd346 2.468 . S
O381 C399 1.263 . S
O382 Gd346 2.427 . S
O382 C399 1.252 . S
O383 Gd347 2.307 . S
O383 C392 1.261 . S
O384 Gd346 2.388 . S
O384 C392 1.252 . S
O385 Gd346 2.386 . S
O385 C403 1.265 . S
O386 Gd347 2.353 . S
O386 C403 1.242 . S
O387 Gd347 2.468 . S
O387 C411 1.263 . S
O388 Gd347 2.427 . S
O388 C411 1.252 . S
O389 Gd346 2.307 . S
O389 C404 1.261 . S
O390 Gd347 2.388 . S
O390 C404 1.252 . S
C391 O379 1.265 . S
C391 O380 1.242 . S
C392 O383 1.261 . S
C392 O384 1.252 . S
C393 C396 1.394 . S
C393 C398 1.370 . S
C393 C399 1.500 . S
C394 C397 1.383 . S
C394 C398 1.395 . S
C395 C396 1.396 . S
C395 C397 1.365 . S
C395 H412 0.929 . S
C396 C393 1.394 . S
C396 C395 1.396 . S
C396 H413 0.930 . S
C397 C394 1.383 . S
C397 C395 1.365 . S
C397 H414 0.931 . S
C398 C393 1.370 . S
C398 C394 1.395 . S
C398 H415 0.930 . S
C399 Gd346 2.805 . S
C399 O381 1.263 . S
C399 O382 1.252 . S
C399 C393 1.500 . S
C400 H362 0.930 . S
C400 C376 1.417 . S
C400 C401 1.329 . S
C401 C371 1.437 . S
C401 H372 0.929 . S
C401 C400 1.329 . S
H402 C375 0.931 . S
C403 O385 1.265 . S
C403 O386 1.242 . S
C404 O389 1.261 . S
C404 O390 1.252 . S
C405 C408 1.394 . S
C405 C410 1.370 . S
C405 C411 1.500 . S
C406 C409 1.383 . S
C406 C410 1.395 . S
C407 C408 1.396 . S
C407 C409 1.365 . S
C407 H416 0.929 . S
C408 C405 1.394 . S
C408 C407 1.396 . S
C408 H417 0.930 . S
C409 C406 1.383 . S
C409 C407 1.365 . S
C409 H418 0.931 . S
C410 C405 1.370 . S
C410 C406 1.395 . S
C410 H419 0.930 . S
C411 Gd347 2.805 . S
C411 O387 1.263 . S
C411 O388 1.252 . S
C411 C405 1.500 . S
H412 C395 0.929 . S
H413 C396 0.930 . S
H414 C397 0.931 . S
H415 C398 0.930 . S
H416 C407 0.929 . S
H417 C408 0.930 . S
H418 C409 0.931 . S
H419 C410 0.930 . S
C420 C422 1.422 . S
C420 C424 1.415 . S
C420 N426 1.369 . S
C421 C422 1.421 . S
C421 C423 1.417 . S
C421 C433 1.422 . S
C422 C420 1.422 . S
C422 C421 1.421 . S
C422 N432 1.359 . S
C423 C421 1.417 . S
C423 C425 1.329 . S
C423 H442 0.930 . S
C424 C420 1.415 . S
C424 C425 1.437 . S
C424 C428 1.413 . S
C425 C423 1.329 . S
C425 C424 1.437 . S
C425 H447 0.929 . S
N426 C420 1.369 . S
N426 C427 1.338 . S
N426 Gd431 2.622 . S
C427 N426 1.338 . S
C427 C429 1.378 . S
C427 H439 0.929 . S
C428 C424 1.413 . S
C428 C429 1.348 . S
C428 H444 0.931 . S
C429 C427 1.378 . S
C429 C428 1.348 . S
C429 H445 0.930 . S
Gd430 N450 2.622 . S
Gd430 N457 2.569 . S
Gd430 O464 2.353 . S
Gd430 O465 2.468 . S
Gd430 O466 2.427 . S
Gd430 O468 2.388 . S
Gd430 O469 2.386 1_455 S
Gd430 O473 2.307 1_455 S
Gd430 C483 2.805 . S
Gd431 N426 2.622 . S
Gd431 N432 2.570 . S
Gd431 O463 2.386 . S
Gd431 O467 2.307 . S
Gd431 O470 2.353 . S
Gd431 O471 2.468 . S
Gd431 O472 2.427 . S
Gd431 O474 2.388 . S
Gd431 C495 2.805 . S
N432 C422 1.359 . S
N432 Gd431 2.570 . S
N432 C434 1.343 . S
C433 C421 1.422 . S
C433 C435 1.321 . S
C433 H441 0.931 1_655 S
C434 N432 1.343 . S
C434 C435 1.390 . S
C434 H436 0.931 . S
C435 C433 1.321 . S
C435 C434 1.390 . S
C435 H437 0.930 1_655 S
H436 C434 0.931 . S
H437 C435 0.930 1_455 S
H438 C461 0.931 . S
H439 C427 0.929 . S
H440 C462 0.930 . S
H441 C433 0.931 1_455 S
H442 C423 0.930 . S
H443 C452 0.929 . S
H444 C428 0.931 . S
H445 C429 0.930 . S
H446 C484 0.930 . S
H447 C425 0.929 . S
H448 C453 0.931 . S
H449 C454 0.930 . S
N450 Gd430 2.622 . S
N450 C451 1.369 . S
N450 C452 1.338 . S
C451 N450 1.369 . S
C451 C455 1.415 . S
C451 C458 1.422 . S
C452 H443 0.929 . S
C452 N450 1.338 . S
C452 C454 1.378 . S
C453 H448 0.931 . S
C453 C454 1.348 . S
C453 C455 1.413 . S
C454 H449 0.930 . S
C454 C452 1.378 . S
C454 C453 1.348 . S
C455 C451 1.415 . S
C455 C453 1.413 . S
C455 C485 1.437 . S
H456 C485 0.929 . S
N457 Gd430 2.569 . S
N457 C458 1.358 . S
N457 C461 1.345 1_455 S
C458 C451 1.422 . S
C458 N457 1.358 . S
C458 C460 1.421 1_455 S
C459 C460 1.422 . S
C459 C462 1.321 . S
C459 H486 0.931 . S
C460 C458 1.421 1_655 S
C460 C459 1.422 . S
C460 C484 1.417 . S
C461 H438 0.931 . S
C461 N457 1.345 1_655 S
C461 C462 1.390 . S
C462 H440 0.930 . S
C462 C459 1.321 . S
C462 C461 1.390 . S
O463 Gd431 2.386 . S
O463 C475 1.265 1_655 S
O464 Gd430 2.353 . S
O464 C475 1.242 . S
O465 Gd430 2.468 . S
O465 C483 1.263 . S
O466 Gd430 2.427 . S
O466 C483 1.252 . S
O467 Gd431 2.307 . S
O467 C476 1.261 1_655 S
O468 Gd430 2.388 . S
O468 C476 1.252 . S
O469 Gd430 2.386 1_655 S
O469 C487 1.265 . S
O470 Gd431 2.353 . S
O470 C487 1.242 . S
O471 Gd431 2.468 . S
O471 C495 1.263 . S
O472 Gd431 2.427 . S
O472 C495 1.252 . S
O473 Gd430 2.307 1_655 S
O473 C488 1.261 . S
O474 Gd431 2.388 . S
O474 C488 1.252 . S
C475 O463 1.265 1_455 S
C475 O464 1.242 . S
C476 O467 1.261 1_455 S
C476 O468 1.252 . S
C477 C480 1.394 . S
C477 C482 1.370 . S
C477 C483 1.500 . S
C478 C481 1.383 . S
C478 C482 1.395 . S
C479 C480 1.396 . S
C479 C481 1.365 . S
C479 H496 0.929 . S
C480 C477 1.394 . S
C480 C479 1.396 . S
C480 H497 0.930 . S
C481 C478 1.383 . S
C481 C479 1.365 . S
C481 H498 0.931 . S
C482 C477 1.370 . S
C482 C478 1.395 . S
C482 H499 0.930 . S
C483 Gd430 2.805 . S
C483 O465 1.263 . S
C483 O466 1.252 . S
C483 C477 1.500 . S
C484 H446 0.930 . S
C484 C460 1.417 . S
C484 C485 1.329 1_655 S
C485 C455 1.437 . S
C485 H456 0.929 . S
C485 C484 1.329 1_455 S
H486 C459 0.931 . S
C487 O469 1.265 . S
C487 O470 1.242 . S
C488 O473 1.261 . S
C488 O474 1.252 . S
C489 C492 1.394 . S
C489 C494 1.370 . S
C489 C495 1.500 . S
C490 C493 1.383 . S
C490 C494 1.395 . S
C491 C492 1.396 . S
C491 C493 1.365 . S
C491 H500 0.929 . S
C492 C489 1.394 . S
C492 C491 1.396 . S
C492 H501 0.930 . S
C493 C490 1.383 . S
C493 C491 1.365 . S
C493 H502 0.931 . S
C494 C489 1.370 . S
C494 C490 1.395 . S
C494 H503 0.930 . S
C495 Gd431 2.805 . S
C495 O471 1.263 . S
C495 O472 1.252 . S
C495 C489 1.500 . S
H496 C479 0.929 . S
H497 C480 0.930 . S
H498 C481 0.931 . S
H499 C482 0.930 . S
H500 C491 0.929 . S
H501 C492 0.930 . S
H502 C493 0.931 . S
H503 C494 0.930 . S
C504 C506 1.422 . S
C504 C508 1.415 . S
C504 N510 1.369 . S
C505 C506 1.421 . S
C505 C507 1.417 . S
C505 C517 1.422 . S
C506 C504 1.422 . S
C506 C505 1.421 . S
C506 N516 1.359 . S
C507 C505 1.417 . S
C507 C509 1.329 1_655 S
C507 H526 0.930 . S
C508 C504 1.415 . S
C508 C509 1.437 1_655 S
C508 C512 1.413 1_655 S
C509 C507 1.329 1_455 S
C509 C508 1.437 1_455 S
C509 H531 0.929 . S
N510 C504 1.369 . S
N510 C511 1.338 . S
N510 Gd515 2.622 . S
C511 N510 1.338 . S
C511 C513 1.378 . S
C511 H523 0.929 . S
C512 C508 1.413 1_455 S
C512 C513 1.348 1_455 S
C512 H528 0.931 . S
C513 C511 1.378 . S
C513 C512 1.348 1_655 S
C513 H529 0.930 1_655 S
Gd514 N534 2.622 . S
Gd514 N541 2.570 . S
Gd514 O548 2.353 . S
Gd514 O549 2.468 . S
Gd514 O550 2.427 . S
Gd514 O552 2.388 . S
Gd514 O553 2.386 1_556 S
Gd514 O557 2.307 1_556 S
Gd514 C567 2.805 . S
Gd515 N510 2.622 . S
Gd515 N516 2.570 . S
Gd515 O547 2.365 1_554 S
Gd515 O551 2.307 . S
Gd515 O554 2.353 . S
Gd515 O555 2.468 . S
Gd515 O556 2.427 . S
Gd515 O558 2.388 . S
Gd515 C579 2.805 . S
N516 C506 1.359 . S
N516 Gd515 2.570 . S
N516 C518 1.343 . S
C517 C505 1.422 . S
C517 C519 1.321 . S
C517 H525 0.931 1_554 S
C518 N516 1.343 . S
C518 C519 1.390 . S
C518 H520 0.931 . S
C519 C517 1.321 . S
C519 C518 1.390 . S
C519 H521 0.930 1_554 S
H520 C518 0.931 . S
H521 C519 0.930 1_556 S
H522 C545 0.931 . S
H523 C511 0.929 . S
H524 C546 0.930 . S
H525 C517 0.931 1_556 S
H526 C507 0.930 . S
H527 C536 0.929 . S
H528 C512 0.931 . S
H529 C513 0.930 1_455 S
H530 C568 0.930 . S
H531 C509 0.929 . S
H532 C537 0.931 . S
H533 C538 0.930 . S
N534 Gd514 2.622 . S
N534 C535 1.369 . S
N534 C536 1.338 . S
C535 N534 1.369 . S
C535 C539 1.415 . S
C535 C542 1.422 . S
C536 H527 0.929 . S
C536 N534 1.338 . S
C536 C538 1.378 . S
C537 H532 0.931 . S
C537 C538 1.348 . S
C537 C539 1.413 . S
C538 H533 0.930 . S
C538 C536 1.378 . S
C538 C537 1.348 . S
C539 C535 1.415 . S
C539 C537 1.413 . S
C539 C569 1.437 . S
H540 C569 0.929 . S
N541 Gd514 2.570 . S
N541 C542 1.359 . S
N541 C545 1.343 1_556 S
C542 C535 1.422 . S
C542 N541 1.359 . S
C542 C544 1.421 1_556 S
C543 C544 1.422 . S
C543 C546 1.321 . S
C543 H570 0.931 . S
C544 C542 1.421 1_554 S
C544 C543 1.422 . S
C544 C568 1.417 . S
C545 H522 0.931 . S
C545 N541 1.343 1_554 S
C545 C546 1.390 . S
C546 H524 0.930 . S
C546 C543 1.321 . S
C546 C545 1.390 . S
O547 Gd515 2.365 1_556 S
O547 C559 1.288 . S
O548 Gd514 2.353 . S
O548 C559 1.242 . S
O549 Gd514 2.468 . S
O549 C567 1.263 . S
O550 Gd514 2.427 . S
O550 C567 1.252 . S
O551 Gd515 2.307 . S
O551 C560 1.261 1_554 S
O552 Gd514 2.388 . S
O552 C560 1.252 . S
O553 Gd514 2.386 1_554 S
O553 C571 1.265 . S
O554 Gd515 2.353 . S
O554 C571 1.242 . S
O555 Gd515 2.468 . S
O555 C579 1.263 . S
O556 Gd515 2.427 . S
O556 C579 1.252 . S
O557 Gd514 2.307 1_554 S
O557 C572 1.261 . S
O558 Gd515 2.388 . S
O558 C572 1.252 . S
C559 O547 1.288 . S
C559 O548 1.242 . S
C560 O551 1.261 1_556 S
C560 O552 1.252 . S
C561 C564 1.394 . S
C561 C566 1.370 . S
C561 C567 1.500 . S
C562 C565 1.383 . S
C562 C566 1.395 . S
C563 C564 1.396 . S
C563 C565 1.365 . S
C563 H580 0.929 . S
C564 C561 1.394 . S
C564 C563 1.396 . S
C564 H581 0.930 . S
C565 C562 1.383 . S
C565 C563 1.365 . S
C565 H582 0.931 . S
C566 C561 1.370 . S
C566 C562 1.395 . S
C566 H583 0.930 . S
C567 Gd514 2.805 . S
C567 O549 1.263 . S
C567 O550 1.252 . S
C567 C561 1.500 . S
C568 H530 0.930 . S
C568 C544 1.417 . S
C568 C569 1.329 1_554 S
C569 C539 1.437 . S
C569 H540 0.929 . S
C569 C568 1.329 1_556 S
H570 C543 0.931 . S
C571 O553 1.265 . S
C571 O554 1.242 . S
C572 O557 1.261 . S
C572 O558 1.252 . S
C573 C576 1.394 . S
C573 C578 1.370 . S
C573 C579 1.500 . S
C574 C577 1.383 . S
C574 C578 1.395 . S
C575 C576 1.396 . S
C575 C577 1.365 . S
C575 H584 0.929 . S
C576 C573 1.394 . S
C576 C575 1.396 . S
C576 H585 0.930 . S
C577 C574 1.383 . S
C577 C575 1.365 . S
C577 H586 0.931 . S
C578 C573 1.370 . S
C578 C574 1.395 . S
C578 H587 0.930 . S
C579 Gd515 2.805 . S
C579 O555 1.263 . S
C579 O556 1.252 . S
C579 C573 1.500 . S
H580 C563 0.929 . S
H581 C564 0.930 . S
H582 C565 0.931 . S
H583 C566 0.930 . S
H584 C575 0.929 . S
H585 C576 0.930 . S
H586 C577 0.931 . S
H587 C578 0.930 . S
C588 C590 1.422 . S
C588 C592 1.415 . S
C588 N594 1.369 . S
C589 C590 1.421 . S
C589 C591 1.417 . S
C589 C601 1.422 . S
C590 C588 1.422 . S
C590 C589 1.421 . S
C590 N600 1.359 . S
C591 C589 1.417 . S
C591 C593 1.329 . S
C591 H610 0.930 . S
C592 C588 1.415 . S
C592 C593 1.437 . S
C592 C596 1.413 . S
C593 C591 1.329 . S
C593 C592 1.437 . S
C593 H615 0.929 . S
N594 C588 1.369 . S
N594 C595 1.338 . S
N594 Gd599 2.622 . S
C595 N594 1.338 . S
C595 C597 1.378 . S
C595 H607 0.929 . S
C596 C592 1.413 . S
C596 C597 1.348 . S
C596 H612 0.931 . S
C597 C595 1.378 . S
C597 C596 1.348 . S
C597 H613 0.930 . S
Gd598 N618 2.622 . S
Gd598 N625 2.570 . S
Gd598 O632 2.353 . S
Gd598 O633 2.468 . S
Gd598 O634 2.427 . S
Gd598 O636 2.388 . S
Gd598 O637 2.386 . S
Gd598 O641 2.307 . S
Gd598 C651 2.805 . S
Gd599 N594 2.622 . S
Gd599 N600 2.570 . S
Gd599 O631 2.386 . S
Gd599 O635 2.307 . S
Gd599 O638 2.353 . S
Gd599 O639 2.468 . S
Gd599 O640 2.427 . S
Gd599 O642 2.388 . S
Gd599 C663 2.805 . S
N600 C590 1.359 . S
N600 Gd599 2.570 . S
N600 C602 1.343 . S
C601 C589 1.422 . S
C601 C603 1.321 . S
C601 H609 0.931 . S
C602 N600 1.343 . S
C602 C603 1.390 . S
C602 H604 0.931 . S
C603 C601 1.321 . S
C603 C602 1.390 . S
C603 H605 0.930 . S
H604 C602 0.931 . S
H605 C603 0.930 . S
H606 C629 0.931 . S
H607 C595 0.929 . S
H608 C630 0.930 . S
H609 C601 0.931 . S
H610 C591 0.930 . S
H611 C620 0.929 . S
H612 C596 0.931 . S
H613 C597 0.930 . S
H614 C652 0.930 . S
H615 C593 0.929 . S
H616 C621 0.931 . S
H617 C622 0.930 . S
N618 Gd598 2.622 . S
N618 C619 1.369 . S
N618 C620 1.338 . S
C619 N618 1.369 . S
C619 C623 1.415 . S
C619 C626 1.422 . S
C620 H611 0.929 . S
C620 N618 1.338 . S
C620 C622 1.378 . S
C621 H616 0.931 . S
C621 C622 1.348 . S
C621 C623 1.413 . S
C622 H617 0.930 . S
C622 C620 1.378 . S
C622 C621 1.348 . S
C623 C619 1.415 . S
C623 C621 1.413 . S
C623 C653 1.437 . S
H624 C653 0.929 . S
N625 Gd598 2.570 . S
N625 C626 1.359 . S
N625 C629 1.343 . S
C626 C619 1.422 . S
C626 N625 1.359 . S
C626 C628 1.421 . S
C627 C628 1.422 . S
C627 C630 1.321 . S
C627 H654 0.931 . S
C628 C626 1.421 . S
C628 C627 1.422 . S
C628 C652 1.417 . S
C629 H606 0.931 . S
C629 N625 1.343 . S
C629 C630 1.390 . S
C630 H608 0.930 . S
C630 C627 1.321 . S
C630 C629 1.390 . S
O631 Gd599 2.386 . S
O631 C643 1.265 . S
O632 Gd598 2.353 . S
O632 C643 1.242 . S
O633 Gd598 2.468 . S
O633 C651 1.263 . S
O634 Gd598 2.427 . S
O634 C651 1.252 . S
O635 Gd599 2.307 . S
O635 C644 1.261 . S
O636 Gd598 2.388 . S
O636 C644 1.252 . S
O637 Gd598 2.386 . S
O637 C655 1.265 . S
O638 Gd599 2.353 . S
O638 C655 1.242 . S
O639 Gd599 2.468 . S
O639 C663 1.263 . S
O640 Gd599 2.427 . S
O640 C663 1.252 . S
O641 Gd598 2.307 . S
O641 C656 1.261 . S
O642 Gd599 2.388 . S
O642 C656 1.252 . S
C643 O631 1.265 . S
C643 O632 1.242 . S
C644 O635 1.261 . S
C644 O636 1.252 . S
C645 C648 1.394 . S
C645 C650 1.370 . S
C645 C651 1.500 . S
C646 C649 1.383 . S
C646 C650 1.395 . S
C647 C648 1.396 . S
C647 C649 1.365 . S
C647 H664 0.929 . S
C648 C645 1.394 . S
C648 C647 1.396 . S
C648 H665 0.930 . S
C649 C646 1.383 . S
C649 C647 1.365 . S
C649 H666 0.931 . S
C650 C645 1.370 . S
C650 C646 1.395 . S
C650 H667 0.930 . S
C651 Gd598 2.805 . S
C651 O633 1.263 . S
C651 O634 1.252 . S
C651 C645 1.500 . S
C652 H614 0.930 . S
C652 C628 1.417 . S
C652 C653 1.329 . S
C653 C623 1.437 . S
C653 H624 0.929 . S
C653 C652 1.329 . S
H654 C627 0.931 . S
C655 O637 1.265 . S
C655 O638 1.242 . S
C656 O641 1.261 . S
C656 O642 1.252 . S
C657 C660 1.394 . S
C657 C662 1.370 . S
C657 C663 1.500 . S
C658 C661 1.383 . S
C658 C662 1.395 . S
C659 C660 1.396 . S
C659 C661 1.365 . S
C659 H668 0.929 . S
C660 C657 1.394 . S
C660 C659 1.396 . S
C660 H669 0.930 . S
C661 C658 1.383 . S
C661 C659 1.365 . S
C661 H670 0.931 . S
C662 C657 1.370 . S
C662 C658 1.395 . S
C662 H671 0.930 . S
C663 Gd599 2.805 . S
C663 O639 1.263 . S
C663 O640 1.252 . S
C663 C657 1.500 . S
H664 C647 0.929 . S
H665 C648 0.930 . S
H666 C649 0.931 . S
H667 C650 0.930 . S
H668 C659 0.929 . S
H669 C660 0.930 . S
H670 C661 0.931 . S
H671 C662 0.930 . S
C672 C674 1.422 . S
C672 C676 1.415 . S
C672 N678 1.369 . S
C673 C674 1.421 . S
C673 C675 1.417 . S
C673 C685 1.422 . S
C674 C672 1.422 . S
C674 C673 1.421 . S
C674 N684 1.359 . S
C675 C673 1.417 . S
C675 C677 1.329 . S
C675 H694 0.930 . S
C676 C672 1.415 . S
C676 C677 1.437 . S
C676 C680 1.413 . S
C677 C675 1.329 . S
C677 C676 1.437 . S
C677 H699 0.929 . S
N678 C672 1.369 . S
N678 C679 1.338 . S
N678 Gd683 2.622 . S
C679 N678 1.338 . S
C679 C681 1.378 . S
C679 H691 0.929 . S
C680 C676 1.413 . S
C680 C681 1.348 . S
C680 H696 0.931 . S
C681 C679 1.378 . S
C681 C680 1.348 . S
C681 H697 0.930 . S
Gd682 N702 2.622 . S
Gd682 N709 2.570 . S
Gd682 O716 2.353 . S
Gd682 O717 2.468 . S
Gd682 O718 2.427 . S
Gd682 O720 2.388 . S
Gd682 O721 2.386 . S
Gd682 O725 2.307 . S
Gd682 C735 2.805 . S
Gd683 N678 2.622 . S
Gd683 N684 2.570 . S
Gd683 O715 2.386 . S
Gd683 O719 2.307 . S
Gd683 O722 2.353 . S
Gd683 O723 2.468 . S
Gd683 O724 2.427 . S
Gd683 O726 2.388 . S
Gd683 C747 2.805 . S
N684 C674 1.359 . S
N684 Gd683 2.570 . S
N684 C686 1.343 . S
C685 C673 1.422 . S
C685 C687 1.321 . S
C685 H693 0.931 . S
C686 N684 1.343 . S
C686 C687 1.390 . S
C686 H688 0.931 . S
C687 C685 1.321 . S
C687 C686 1.390 . S
C687 H689 0.930 . S
H688 C686 0.931 . S
H689 C687 0.930 . S
H690 C713 0.931 . S
H691 C679 0.929 . S
H692 C714 0.930 . S
H693 C685 0.931 . S
H694 C675 0.930 . S
H695 C704 0.929 . S
H696 C680 0.931 . S
H697 C681 0.930 . S
H698 C736 0.921 1_556 S
H699 C677 0.929 . S
H700 C705 0.931 . S
H701 C706 0.930 1_556 S
N702 Gd682 2.622 . S
N702 C703 1.369 . S
N702 C704 1.338 . S
C703 N702 1.369 . S
C703 C707 1.415 . S
C703 C710 1.422 . S
C704 H695 0.929 . S
C704 N702 1.338 . S
C704 C706 1.378 . S
C705 H700 0.931 . S
C705 C706 1.348 1_556 S
C705 C707 1.413 1_556 S
C706 H701 0.930 1_554 S
C706 C704 1.378 . S
C706 C705 1.348 1_554 S
C707 C703 1.415 . S
C707 C705 1.413 1_554 S
C707 C737 1.437 1_554 S
H708 C737 0.929 . S
N709 Gd682 2.570 . S
N709 C710 1.359 . S
N709 C713 1.343 . S
C710 C703 1.422 . S
C710 N709 1.359 . S
C710 C712 1.421 . S
C711 C712 1.422 . S
C711 C714 1.321 . S
C711 H738 0.931 . S
C712 C710 1.421 . S
C712 C711 1.422 . S
C712 C736 1.417 . S
C713 H690 0.931 . S
C713 N709 1.343 . S
C713 C714 1.390 . S
C714 H692 0.930 . S
C714 C711 1.321 . S
C714 C713 1.390 . S
O715 Gd683 2.386 . S
O715 C727 1.265 . S
O716 Gd682 2.353 . S
O716 C727 1.242 . S
O717 Gd682 2.468 . S
O717 C735 1.263 . S
O718 Gd682 2.427 . S
O718 C735 1.252 . S
O719 Gd683 2.307 . S
O719 C728 1.261 . S
O720 Gd682 2.388 . S
O720 C728 1.252 . S
O721 Gd682 2.386 . S
O721 C739 1.265 . S
O722 Gd683 2.353 . S
O722 C739 1.242 . S
O723 Gd683 2.468 . S
O723 C747 1.263 . S
O724 Gd683 2.427 . S
O724 C747 1.252 . S
O725 Gd682 2.307 . S
O725 C740 1.261 . S
O726 Gd683 2.388 . S
O726 C740 1.252 . S
C727 O715 1.265 . S
C727 O716 1.242 . S
C728 O719 1.261 . S
C728 O720 1.252 . S
C729 C732 1.394 . S
C729 C734 1.370 . S
C729 C735 1.500 . S
C730 C733 1.383 . S
C730 C734 1.395 . S
C731 C732 1.396 . S
C731 C733 1.365 . S
C731 H748 0.929 . S
C732 C729 1.394 . S
C732 C731 1.396 . S
C732 H749 0.930 . S
C733 C730 1.383 . S
C733 C731 1.365 . S
C733 H750 0.931 . S
C734 C729 1.370 . S
C734 C730 1.395 . S
C734 H751 0.930 . S
C735 Gd682 2.805 . S
C735 O717 1.263 . S
C735 O718 1.252 . S
C735 C729 1.500 . S
C736 H698 0.921 1_554 S
C736 C712 1.417 . S
C736 C737 1.329 1_554 S
C737 C707 1.437 1_556 S
C737 H708 0.929 . S
C737 C736 1.329 1_556 S
H738 C711 0.931 . S
C739 O721 1.265 . S
C739 O722 1.242 . S
C740 O725 1.261 . S
C740 O726 1.252 . S
C741 C744 1.394 . S
C741 C746 1.370 . S
C741 C747 1.500 . S
C742 C745 1.383 . S
C742 C746 1.395 . S
C743 C744 1.396 . S
C743 C745 1.365 . S
C743 H752 0.929 . S
C744 C741 1.394 . S
C744 C743 1.396 . S
C744 H753 0.930 . S
C745 C742 1.383 . S
C745 C743 1.365 . S
C745 H754 0.931 . S
C746 C741 1.370 . S
C746 C742 1.395 . S
C746 H755 0.930 . S
C747 Gd683 2.805 . S
C747 O723 1.263 . S
C747 O724 1.252 . S
C747 C741 1.500 . S
H748 C731 0.929 . S
H749 C732 0.930 . S
H750 C733 0.931 . S
H751 C734 0.930 . S
H752 C743 0.929 . S
H753 C744 0.930 . S
H754 C745 0.931 . S
H755 C746 0.930 . S
C756 C758 1.422 . S
C756 C760 1.415 . S
C756 N762 1.369 . S
C757 C758 1.421 . S
C757 C759 1.417 . S
C757 C769 1.422 . S
C758 C756 1.422 . S
C758 C757 1.421 . S
C758 N768 1.359 . S
C759 C757 1.417 . S
C759 C761 1.329 . S
C759 H778 0.930 . S
C760 C756 1.415 . S
C760 C761 1.437 . S
C760 C764 1.413 . S
C761 C759 1.329 . S
C761 C760 1.437 . S
C761 H783 0.929 . S
N762 C756 1.369 . S
N762 C763 1.338 . S
N762 Gd767 2.622 . S
C763 N762 1.338 . S
C763 C765 1.378 . S
C763 H775 0.929 1_565 S
C764 C760 1.413 . S
C764 C765 1.348 . S
C764 H780 0.931 . S
C765 C763 1.378 . S
C765 C764 1.348 . S
C765 H781 0.930 1_565 S
Gd766 N786 2.622 . S
Gd766 N793 2.570 . S
Gd766 O800 2.353 . S
Gd766 O801 2.468 . S
Gd766 O802 2.427 . S
Gd766 O804 2.388 1_545 S
Gd766 O805 2.386 . S
Gd766 O809 2.307 . S
Gd766 C819 2.805 . S
Gd767 N762 2.622 . S
Gd767 N768 2.570 . S
Gd767 O799 2.386 . S
Gd767 O803 2.307 . S
Gd767 O806 2.353 1_565 S
Gd767 O807 2.468 . S
Gd767 O808 2.427 . S
Gd767 O810 2.388 1_565 S
Gd767 C831 2.805 . S
N768 C758 1.359 . S
N768 Gd767 2.570 . S
N768 C770 1.343 . S
C769 C757 1.422 . S
C769 C771 1.321 . S
C769 H777 0.931 . S
C770 N768 1.343 . S
C770 C771 1.390 . S
C770 H772 0.931 . S
C771 C769 1.321 . S
C771 C770 1.390 . S
C771 H773 0.930 . S
H772 C770 0.931 . S
H773 C771 0.930 . S
H774 C797 0.931 . S
H775 C763 0.929 1_545 S
H776 C798 0.930 . S
H777 C769 0.931 . S
H778 C759 0.930 . S
H779 C788 0.929 . S
H780 C764 0.931 . S
H781 C765 0.930 1_545 S
H782 C820 0.930 . S
H783 C761 0.929 . S
H784 C789 0.931 . S
H785 C790 0.930 1_554 S
N786 Gd766 2.622 . S
N786 C787 1.369 . S
N786 C788 1.338 . S
C787 N786 1.369 . S
C787 C791 1.415 . S
C787 C794 1.422 . S
C788 H779 0.929 . S
C788 N786 1.338 . S
C788 C790 1.378 . S
C789 H784 0.931 . S
C789 C790 1.348 1_554 S
C789 C791 1.413 1_554 S
C790 H785 0.930 1_556 S
C790 C788 1.378 . S
C790 C789 1.348 1_556 S
C791 C787 1.415 . S
C791 C789 1.413 1_556 S
C791 C821 1.437 1_556 S
H792 C821 0.929 . S
N793 Gd766 2.570 . S
N793 C794 1.359 . S
N793 C797 1.343 . S
C794 C787 1.422 . S
C794 N793 1.359 . S
C794 C796 1.421 . S
C795 C796 1.422 . S
C795 C798 1.321 . S
C795 H822 0.931 . S
C796 C794 1.421 . S
C796 C795 1.422 . S
C796 C820 1.417 . S
C797 H774 0.931 . S
C797 N793 1.343 . S
C797 C798 1.390 . S
C798 H776 0.930 . S
C798 C795 1.321 . S
C798 C797 1.390 . S
O799 Gd767 2.386 . S
O799 C811 1.265 . S
O800 Gd766 2.353 . S
O800 C811 1.242 1_545 S
O801 Gd766 2.468 . S
O801 C819 1.263 . S
O802 Gd766 2.427 . S
O802 C819 1.252 . S
O803 Gd767 2.307 . S
O803 C812 1.261 . S
O804 Gd766 2.388 1_565 S
O804 C812 1.252 . S
O805 Gd766 2.386 . S
O805 C823 1.265 . S
O806 Gd767 2.353 1_545 S
O806 C823 1.242 . S
O807 Gd767 2.468 . S
O807 C831 1.263 . S
O808 Gd767 2.427 . S
O808 C831 1.252 . S
O809 Gd766 2.307 . S
O809 C824 1.261 . S
O810 Gd767 2.388 1_545 S
O810 C824 1.252 . S
C811 O799 1.265 . S
C811 O800 1.242 1_565 S
C812 O803 1.261 . S
C812 O804 1.252 . S
C813 C816 1.394 . S
C813 C818 1.370 . S
C813 C819 1.500 . S
C814 C817 1.383 . S
C814 C818 1.395 . S
C815 C816 1.396 . S
C815 C817 1.365 . S
C815 H832 0.929 . S
C816 C813 1.394 . S
C816 C815 1.396 . S
C816 H833 0.930 . S
C817 C814 1.383 . S
C817 C815 1.365 . S
C817 H834 0.931 . S
C818 C813 1.370 . S
C818 C814 1.395 . S
C818 H835 0.930 . S
C819 Gd766 2.805 . S
C819 O801 1.263 . S
C819 O802 1.252 . S
C819 C813 1.500 . S
C820 H782 0.930 . S
C820 C796 1.417 . S
C820 C821 1.329 1_556 S
C821 C791 1.437 1_554 S
C821 H792 0.929 . S
C821 C820 1.329 1_554 S
H822 C795 0.931 . S
C823 O805 1.265 . S
C823 O806 1.242 . S
C824 O809 1.261 . S
C824 O810 1.252 . S
C825 C828 1.394 . S
C825 C830 1.370 . S
C825 C831 1.500 . S
C826 C829 1.383 . S
C826 C830 1.395 . S
C827 C828 1.396 . S
C827 C829 1.365 . S
C827 H836 0.929 . S
C828 C825 1.394 . S
C828 C827 1.396 . S
C828 H837 0.930 . S
C829 C826 1.383 . S
C829 C827 1.365 . S
C829 H838 0.931 . S
C830 C825 1.370 . S
C830 C826 1.395 . S
C830 H839 0.930 . S
C831 Gd767 2.805 . S
C831 O807 1.263 . S
C831 O808 1.252 . S
C831 C825 1.500 . S
H832 C815 0.929 . S
H833 C816 0.930 . S
H834 C817 0.931 . S
H835 C818 0.930 . S
H836 C827 0.929 . S
H837 C828 0.930 . S
H838 C829 0.931 . S
H839 C830 0.930 . S
C840 C842 1.422 . S
C840 C844 1.415 . S
C840 N846 1.369 . S
C841 C842 1.421 . S
C841 C843 1.417 . S
C841 C853 1.422 . S
C842 C840 1.422 . S
C842 C841 1.421 . S
C842 N852 1.359 . S
C843 C841 1.417 . S
C843 C845 1.329 . S
C843 H862 0.930 . S
C844 C840 1.415 . S
C844 C845 1.437 . S
C844 C848 1.413 . S
C845 C843 1.329 . S
C845 C844 1.437 . S
C845 H867 0.929 . S
N846 C840 1.369 . S
N846 C847 1.338 . S
N846 Gd851 2.622 . S
C847 N846 1.338 . S
C847 C849 1.378 . S
C847 H859 0.929 1_545 S
C848 C844 1.413 . S
C848 C849 1.348 . S
C848 H864 0.931 . S
C849 C847 1.378 . S
C849 C848 1.348 . S
C849 H865 0.930 1_545 S
Gd850 N870 2.622 . S
Gd850 N877 2.570 . S
Gd850 O884 2.353 . S
Gd850 O885 2.468 . S
Gd850 O886 2.427 . S
Gd850 O888 2.388 1_565 S
Gd850 O889 2.386 . S
Gd850 O893 2.307 . S
Gd850 C903 2.805 . S
Gd851 N846 2.622 . S
Gd851 N852 2.570 . S
Gd851 O883 2.386 . S
Gd851 O887 2.307 . S
Gd851 O890 2.353 1_545 S
Gd851 O891 2.468 . S
Gd851 O892 2.427 . S
Gd851 O894 2.388 1_545 S
Gd851 C915 2.805 . S
N852 C842 1.359 . S
N852 Gd851 2.570 . S
N852 C854 1.343 . S
C853 C841 1.422 . S
C853 C855 1.321 . S
C853 H861 0.931 . S
C854 N852 1.343 . S
C854 C855 1.390 . S
C854 H856 0.931 . S
C855 C853 1.321 . S
C855 C854 1.390 . S
C855 H857 0.930 . S
H856 C854 0.931 . S
H857 C855 0.930 . S
H858 C881 0.931 . S
H859 C847 0.929 1_565 S
H860 C882 0.930 . S
H861 C853 0.931 . S
H862 C843 0.930 . S
H863 C872 0.929 . S
H864 C848 0.931 . S
H865 C849 0.930 1_565 S
H866 C904 0.930 . S
H867 C845 0.929 . S
H868 C873 0.931 . S
H869 C874 0.930 . S
N870 Gd850 2.622 . S
N870 C871 1.369 . S
N870 C872 1.338 . S
C871 N870 1.369 . S
C871 C875 1.415 . S
C871 C878 1.422 . S
C872 H863 0.929 . S
C872 N870 1.338 . S
C872 C874 1.378 . S
C873 H868 0.931 . S
C873 C874 1.348 . S
C873 C875 1.413 . S
C874 H869 0.930 . S
C874 C872 1.378 . S
C874 C873 1.348 . S
C875 C871 1.415 . S
C875 C873 1.413 . S
C875 C905 1.437 . S
H876 C905 0.929 . S
N877 Gd850 2.570 . S
N877 C878 1.359 . S
N877 C881 1.343 . S
C878 C871 1.422 . S
C878 N877 1.359 . S
C878 C880 1.421 . S
C879 C880 1.422 . S
C879 C882 1.321 . S
C879 H906 0.931 . S
C880 C878 1.421 . S
C880 C879 1.422 . S
C880 C904 1.417 . S
C881 H858 0.931 . S
C881 N877 1.343 . S
C881 C882 1.390 . S
C882 H860 0.930 . S
C882 C879 1.321 . S
C882 C881 1.390 . S
O883 Gd851 2.386 . S
O883 C895 1.265 . S
O884 Gd850 2.353 . S
O884 C895 1.242 1_565 S
O885 Gd850 2.468 . S
O885 C903 1.263 . S
O886 Gd850 2.427 . S
O886 C903 1.252 . S
O887 Gd851 2.307 . S
O887 C896 1.261 . S
O888 Gd850 2.388 1_545 S
O888 C896 1.252 . S
O889 Gd850 2.386 . S
O889 C907 1.265 . S
O890 Gd851 2.353 1_565 S
O890 C907 1.242 . S
O891 Gd851 2.468 . S
O891 C915 1.263 . S
O892 Gd851 2.427 . S
O892 C915 1.252 . S
O893 Gd850 2.307 . S
O893 C908 1.261 . S
O894 Gd851 2.388 1_565 S
O894 C908 1.252 . S
C895 O883 1.265 . S
C895 O884 1.242 1_545 S
C896 O887 1.261 . S
C896 O888 1.252 . S
C897 C900 1.394 . S
C897 C902 1.370 . S
C897 C903 1.500 . S
C898 C901 1.383 . S
C898 C902 1.395 . S
C899 C900 1.396 . S
C899 C901 1.365 . S
C899 H916 0.929 . S
C900 C897 1.394 . S
C900 C899 1.396 . S
C900 H917 0.930 . S
C901 C898 1.383 . S
C901 C899 1.365 . S
C901 H918 0.931 . S
C902 C897 1.370 . S
C902 C898 1.395 . S
C902 H919 0.930 . S
C903 Gd850 2.805 . S
C903 O885 1.263 . S
C903 O886 1.252 . S
C903 C897 1.500 . S
C904 H866 0.930 . S
C904 C880 1.417 . S
C904 C905 1.329 . S
C905 C875 1.437 . S
C905 H876 0.929 . S
C905 C904 1.329 . S
H906 C879 0.931 . S
C907 O889 1.265 . S
C907 O890 1.242 . S
C908 O893 1.261 . S
C908 O894 1.252 . S
C909 C912 1.394 . S
C909 C914 1.370 . S
C909 C915 1.500 . S
C910 C913 1.383 . S
C910 C914 1.395 . S
C911 C912 1.396 . S
C911 C913 1.365 . S
C911 H920 0.929 . S
C912 C909 1.394 . S
C912 C911 1.396 . S
C912 H921 0.930 . S
C913 C910 1.383 . S
C913 C911 1.365 . S
C913 H922 0.931 . S
C914 C909 1.370 . S
C914 C910 1.395 . S
C914 H923 0.930 . S
C915 Gd851 2.805 . S
C915 O891 1.263 . S
C915 O892 1.252 . S
C915 C909 1.500 . S
H916 C899 0.929 . S
H917 C900 0.930 . S
H918 C901 0.931 . S
H919 C902 0.930 . S
H920 C911 0.929 . S
H921 C912 0.930 . S
H922 C913 0.931 . S
H923 C914 0.930 . S
C924 C926 1.422 . S
C924 C928 1.415 . S
C924 N930 1.369 . S
C925 C926 1.421 . S
C925 C927 1.417 . S
C925 C937 1.422 . S
C926 C924 1.422 . S
C926 C925 1.421 . S
C926 N936 1.359 . S
C927 C925 1.417 . S
C927 C929 1.329 . S
C927 H946 0.930 . S
C928 C924 1.415 . S
C928 C929 1.437 . S
C928 C932 1.413 . S
C929 C927 1.329 . S
C929 C928 1.437 . S
C929 H951 0.929 . S
N930 C924 1.369 . S
N930 C931 1.338 . S
N930 Gd935 2.622 . S
C931 N930 1.338 . S
C931 C933 1.378 . S
C931 H943 0.929 . S
C932 C928 1.413 . S
C932 C933 1.348 . S
C932 H948 0.931 . S
C933 C931 1.378 . S
C933 C932 1.348 . S
C933 H949 0.930 . S
Gd934 N954 2.622 . S
Gd934 N961 2.570 . S
Gd934 O968 2.353 . S
Gd934 O969 2.468 . S
Gd934 O970 2.427 . S
Gd934 O972 2.388 . S
Gd934 O973 2.386 . S
Gd934 O977 2.307 . S
Gd934 C987 2.805 . S
Gd935 N930 2.622 . S
Gd935 N936 2.570 . S
Gd935 O967 2.386 . S
Gd935 O971 2.307 . S
Gd935 O974 2.353 . S
Gd935 O975 2.468 . S
Gd935 O976 2.427 . S
Gd935 O978 2.388 . S
Gd935 C999 2.805 . S
N936 C926 1.359 . S
N936 Gd935 2.570 . S
N936 C938 1.343 . S
C937 C925 1.422 . S
C937 C939 1.321 . S
C937 H945 0.931 . S
C938 N936 1.343 . S
C938 C939 1.390 . S
C938 H940 0.931 . S
C939 C937 1.321 . S
C939 C938 1.390 . S
C939 H941 0.930 . S
H940 C938 0.931 . S
H941 C939 0.930 . S
H942 C965 0.931 . S
H943 C931 0.929 . S
H944 C966 0.930 . S
H945 C937 0.931 . S
H946 C927 0.930 . S
H947 C956 0.929 . S
H948 C932 0.931 . S
H949 C933 0.930 . S
H950 C988 0.930 . S
H951 C929 0.929 . S
H952 C957 0.931 . S
H953 C958 0.930 . S
N954 Gd934 2.622 . S
N954 C955 1.369 . S
N954 C956 1.338 . S
C955 N954 1.369 . S
C955 C959 1.415 . S
C955 C962 1.422 . S
C956 H947 0.929 . S
C956 N954 1.338 . S
C956 C958 1.378 . S
C957 H952 0.931 . S
C957 C958 1.348 . S
C957 C959 1.413 . S
C958 H953 0.930 . S
C958 C956 1.378 . S
C958 C957 1.348 . S
C959 C955 1.415 . S
C959 C957 1.413 . S
C959 C989 1.437 . S
H960 C989 0.929 . S
N961 Gd934 2.570 . S
N961 C962 1.359 . S
N961 C965 1.343 . S
C962 C955 1.422 . S
C962 N961 1.359 . S
C962 C964 1.421 . S
C963 C964 1.422 . S
C963 C966 1.321 . S
C963 H990 0.931 . S
C964 C962 1.421 . S
C964 C963 1.422 . S
C964 C988 1.417 . S
C965 H942 0.931 . S
C965 N961 1.343 . S
C965 C966 1.390 . S
C966 H944 0.930 . S
C966 C963 1.321 . S
C966 C965 1.390 . S
O967 Gd935 2.386 . S
O967 C979 1.265 . S
O968 Gd934 2.353 . S
O968 C979 1.242 . S
O969 Gd934 2.468 . S
O969 C987 1.263 . S
O970 Gd934 2.427 . S
O970 C987 1.252 . S
O971 Gd935 2.307 . S
O971 C980 1.261 . S
O972 Gd934 2.388 . S
O972 C980 1.252 . S
O973 Gd934 2.386 . S
O973 C991 1.265 . S
O974 Gd935 2.353 . S
O974 C991 1.242 . S
O975 Gd935 2.468 . S
O975 C999 1.263 . S
O976 Gd935 2.427 . S
O976 C999 1.252 . S
O977 Gd934 2.307 . S
O977 C992 1.261 . S
O978 Gd935 2.388 . S
O978 C992 1.252 . S
C979 O967 1.265 . S
C979 O968 1.242 . S
C980 O971 1.261 . S
C980 O972 1.252 . S
C981 C984 1.394 . S
C981 C986 1.370 . S
C981 C987 1.500 . S
C982 C985 1.383 . S
C982 C986 1.395 . S
C983 C984 1.396 . S
C983 C985 1.365 . S
C983 H1000 0.929 . S
C984 C981 1.394 . S
C984 C983 1.396 . S
C984 H1001 0.930 . S
C985 C982 1.383 . S
C985 C983 1.365 . S
C985 H1002 0.931 . S
C986 C981 1.370 . S
C986 C982 1.395 . S
C986 H1003 0.930 . S
C987 Gd934 2.805 . S
C987 O969 1.263 . S
C987 O970 1.252 . S
C987 C981 1.500 . S
C988 H950 0.930 . S
C988 C964 1.417 . S
C988 C989 1.329 . S
C989 C959 1.437 . S
C989 H960 0.929 . S
C989 C988 1.329 . S
H990 C963 0.931 . S
C991 O973 1.265 . S
C991 O974 1.242 . S
C992 O977 1.261 . S
C992 O978 1.252 . S
C993 C996 1.394 . S
C993 C998 1.370 . S
C993 C999 1.500 . S
C994 C997 1.383 . S
C994 C998 1.395 . S
C995 C996 1.396 . S
C995 C997 1.365 . S
C995 H1004 0.929 . S
C996 C993 1.394 . S
C996 C995 1.396 . S
C996 H1005 0.930 . S
C997 C994 1.383 . S
C997 C995 1.365 . S
C997 H1006 0.931 . S
C998 C993 1.370 . S
C998 C994 1.395 . S
C998 H1007 0.930 . S
C999 Gd935 2.805 . S
C999 O975 1.263 . S
C999 O976 1.252 . S
C999 C993 1.500 . S
H1000 C983 0.929 . S
H1001 C984 0.930 . S
H1002 C985 0.931 . S
H1003 C986 0.930 . S
H1004 C995 0.929 . S
H1005 C996 0.930 . S
H1006 C997 0.931 . S
H1007 C998 0.930 . S
C1008 C1009 1.391 . S
C1008 C1010 1.394 . S
C1008 H1024 0.931 . S
C1009 C1008 1.391 . S
C1009 C1013 1.376 . S
C1010 C1008 1.394 . S
C1010 C1011 1.369 . S
C1010 C1014 1.531 . S
C1011 C1010 1.369 . S
C1011 C1012 1.410 . S
C1011 C1019 1.503 . S
C1012 C1011 1.410 . S
C1012 C1013 1.392 . S
C1012 C1015 1.511 . S
C1013 C1009 1.376 . S
C1013 C1012 1.392 . S
C1013 H1025 0.929 . S
C1014 C1010 1.531 . S
C1014 H1026 0.960 . S
C1014 H1027 0.962 . S
C1014 H1028 0.960 . S
C1015 C1012 1.511 . S
C1015 H1029 0.961 . S
C1015 H1030 0.961 . S
C1015 H1031 0.961 . S
C1016 C1017 1.370 . S
C1016 C1018 1.363 . S
C1016 H1032 0.931 . S
C1017 C1016 1.370 . S
C1017 C1021 1.408 . S
C1018 C1016 1.363 . S
C1018 C1019 1.370 . S
C1018 C1022 1.524 . S
C1019 C1011 1.503 . S
C1019 C1018 1.370 . S
C1019 C1020 1.403 . S
C1020 C1019 1.403 . S
C1020 C1021 1.404 . S
C1020 C1023 1.539 . S
C1021 C1017 1.408 . S
C1021 C1020 1.404 . S
C1021 H1033 0.930 . S
C1022 C1018 1.524 . S
C1022 H1034 0.956 . S
C1022 H1035 0.961 . S
C1022 H1036 0.961 . S
C1023 C1020 1.539 . S
C1023 H1037 0.958 . S
C1023 H1038 0.961 . S
C1023 H1039 0.960 . S
H1024 C1008 0.931 . S
H1025 C1013 0.929 . S
H1026 C1014 0.960 . S
H1027 C1014 0.962 . S
H1028 C1014 0.960 . S
H1029 C1015 0.961 . S
H1030 C1015 0.961 . S
H1031 C1015 0.961 . S
H1032 C1016 0.931 . S
H1033 C1021 0.930 . S
H1034 C1022 0.956 . S
H1035 C1022 0.961 . S
H1036 C1022 0.961 . S
H1037 C1023 0.958 . S
H1038 C1023 0.961 . S
H1039 C1023 0.960 . S
C1040 C1041 1.391 . S
C1040 C1042 1.394 . S
C1040 H1056 0.931 . S
C1041 C1040 1.391 . S
C1041 C1045 1.376 . S
C1042 C1040 1.394 . S
C1042 C1043 1.369 . S
C1042 C1046 1.531 . S
C1043 C1042 1.369 . S
C1043 C1044 1.410 . S
C1043 C1051 1.503 . S
C1044 C1043 1.410 . S
C1044 C1045 1.392 . S
C1044 C1047 1.511 . S
C1045 C1041 1.376 . S
C1045 C1044 1.392 . S
C1045 H1057 0.929 . S
C1046 C1042 1.531 . S
C1046 H1058 0.960 . S
C1046 H1059 0.962 . S
C1046 H1060 0.960 . S
C1047 C1044 1.511 . S
C1047 H1061 0.961 . S
C1047 H1062 0.961 . S
C1047 H1063 0.961 . S
C1048 C1049 1.370 . S
C1048 C1050 1.363 . S
C1048 H1064 0.931 . S
C1049 C1048 1.370 . S
C1049 C1053 1.408 . S
C1050 C1048 1.363 . S
C1050 C1051 1.370 . S
C1050 C1054 1.524 . S
C1051 C1043 1.503 . S
C1051 C1050 1.370 . S
C1051 C1052 1.403 . S
C1052 C1051 1.403 . S
C1052 C1053 1.404 . S
C1052 C1055 1.539 . S
C1053 C1049 1.408 . S
C1053 C1052 1.404 . S
C1053 H1065 0.930 . S
C1054 C1050 1.524 . S
C1054 H1066 0.956 . S
C1054 H1067 0.961 1_565 S
C1054 H1068 0.961 1_565 S
C1055 C1052 1.539 . S
C1055 H1069 0.958 . S
C1055 H1070 0.961 . S
C1055 H1071 0.960 . S
H1056 C1040 0.931 . S
H1057 C1045 0.929 . S
H1058 C1046 0.960 . S
H1059 C1046 0.962 . S
H1060 C1046 0.960 . S
H1061 C1047 0.961 . S
H1062 C1047 0.961 . S
H1063 C1047 0.961 . S
H1064 C1048 0.931 . S
H1065 C1053 0.930 . S
H1066 C1054 0.956 . S
H1067 C1054 0.961 1_545 S
H1068 C1054 0.961 1_545 S
H1069 C1055 0.958 . S
H1070 C1055 0.961 . S
H1071 C1055 0.960 . S
C1072 C1073 1.391 . S
C1072 C1074 1.394 . S
C1072 H1088 0.931 1_554 S
C1073 C1072 1.391 . S
C1073 C1077 1.376 . S
C1074 C1072 1.394 . S
C1074 C1075 1.369 . S
C1074 C1078 1.529 1_554 S
C1075 C1074 1.369 . S
C1075 C1076 1.410 . S
C1075 C1083 1.503 . S
C1076 C1075 1.410 . S
C1076 C1077 1.392 . S
C1076 C1079 1.511 . S
C1077 C1073 1.376 . S
C1077 C1076 1.392 . S
C1077 H1089 0.929 . S
C1078 C1074 1.529 1_556 S
C1078 H1090 0.960 . S
C1078 H1091 0.958 1_556 S
C1078 H1092 0.966 . S
C1079 C1076 1.511 . S
C1079 H1093 0.961 . S
C1079 H1094 0.961 . S
C1079 H1095 0.961 . S
C1080 C1081 1.370 . S
C1080 C1082 1.363 . S
C1080 H1096 0.931 . S
C1081 C1080 1.370 . S
C1081 C1085 1.408 . S
C1082 C1080 1.363 . S
C1082 C1083 1.370 . S
C1082 C1086 1.524 . S
C1083 C1075 1.503 . S
C1083 C1082 1.370 . S
C1083 C1084 1.403 . S
C1084 C1083 1.403 . S
C1084 C1085 1.404 . S
C1084 C1087 1.539 . S
C1085 C1081 1.408 . S
C1085 C1084 1.404 . S
C1085 H1097 0.930 . S
C1086 C1082 1.524 . S
C1086 H1098 0.956 . S
C1086 H1099 0.961 . S
C1086 H1100 0.961 . S
C1087 C1084 1.539 . S
C1087 H1101 0.958 1_554 S
C1087 H1102 0.961 . S
C1087 H1103 0.960 . S
H1088 C1072 0.931 1_556 S
H1089 C1077 0.929 . S
H1090 C1078 0.960 . S
H1091 C1078 0.958 1_554 S
H1092 C1078 0.966 . S
H1093 C1079 0.961 . S
H1094 C1079 0.961 . S
H1095 C1079 0.961 . S
H1096 C1080 0.931 . S
H1097 C1085 0.930 . S
H1098 C1086 0.956 . S
H1099 C1086 0.961 . S
H1100 C1086 0.961 . S
H1101 C1087 0.958 1_556 S
H1102 C1087 0.961 . S
H1103 C1087 0.960 . S
C1104 C1105 1.391 . S
C1104 C1106 1.394 . S
C1104 H1120 0.931 . S
C1105 C1104 1.391 . S
C1105 C1109 1.376 . S
C1106 C1104 1.394 . S
C1106 C1107 1.369 . S
C1106 C1110 1.531 . S
C1107 C1106 1.369 . S
C1107 C1108 1.410 . S
C1107 C1115 1.503 . S
C1108 C1107 1.410 . S
C1108 C1109 1.392 . S
C1108 C1111 1.511 . S
C1109 C1105 1.376 . S
C1109 C1108 1.392 . S
C1109 H1121 0.929 . S
C1110 C1106 1.531 . S
C1110 H1122 0.960 1_545 S
C1110 H1123 0.962 . S
C1110 H1124 0.960 1_545 S
C1111 C1108 1.511 . S
C1111 H1125 0.961 . S
C1111 H1126 0.961 . S
C1111 H1127 0.961 . S
C1112 C1113 1.370 . S
C1112 C1114 1.363 . S
C1112 H1128 0.931 . S
C1113 C1112 1.370 . S
C1113 C1117 1.398 1_545 S
C1114 C1112 1.363 . S
C1114 C1115 1.370 . S
C1114 C1118 1.524 . S
C1115 C1107 1.503 . S
C1115 C1114 1.370 . S
C1115 C1116 1.403 . S
C1116 C1115 1.403 . S
C1116 C1117 1.398 1_545 S
C1116 C1119 1.539 1_545 S
C1117 C1113 1.398 1_565 S
C1117 C1116 1.398 1_565 S
C1117 H1129 0.945 . S
C1118 C1114 1.524 . S
C1118 H1130 0.956 . S
C1118 H1131 0.961 . S
C1118 H1132 0.961 . S
C1119 C1116 1.539 1_565 S
C1119 H1133 0.958 . S
C1119 H1134 0.961 . S
C1119 H1135 0.960 1_565 S
H1120 C1104 0.931 . S
H1121 C1109 0.929 . S
H1122 C1110 0.960 1_565 S
H1123 C1110 0.962 . S
H1124 C1110 0.960 1_565 S
H1125 C1111 0.961 . S
H1126 C1111 0.961 . S
H1127 C1111 0.961 . S
H1128 C1112 0.931 . S
H1129 C1117 0.945 . S
H1130 C1118 0.956 . S
H1131 C1118 0.961 . S
H1132 C1118 0.961 . S
H1133 C1119 0.958 . S
H1134 C1119 0.961 . S
H1135 C1119 0.960 1_545 S
C1136 C1137 1.391 . S
C1136 C1138 1.394 . S
C1136 H1152 0.931 . S
C1137 C1136 1.391 . S
C1137 C1141 1.376 . S
C1138 C1136 1.394 . S
C1138 C1139 1.369 . S
C1138 C1142 1.531 . S
C1139 C1138 1.369 . S
C1139 C1140 1.410 . S
C1139 C1147 1.503 . S
C1140 C1139 1.410 . S
C1140 C1141 1.392 . S
C1140 C1143 1.511 . S
C1141 C1137 1.376 . S
C1141 C1140 1.392 . S
C1141 H1153 0.929 . S
C1142 C1138 1.531 . S
C1142 H1154 0.960 . S
C1142 H1155 0.962 . S
C1142 H1156 0.960 . S
C1143 C1140 1.511 . S
C1143 H1157 0.961 . S
C1143 H1158 0.961 . S
C1143 H1159 0.961 . S
C1144 C1145 1.370 . S
C1144 C1146 1.363 . S
C1144 H1160 0.931 . S
C1145 C1144 1.370 . S
C1145 C1149 1.408 . S
C1146 C1144 1.363 . S
C1146 C1147 1.370 . S
C1146 C1150 1.524 . S
C1147 C1139 1.503 . S
C1147 C1146 1.370 . S
C1147 C1148 1.403 . S
C1148 C1147 1.403 . S
C1148 C1149 1.404 . S
C1148 C1151 1.539 . S
C1149 C1145 1.408 . S
C1149 C1148 1.404 . S
C1149 H1161 0.930 . S
C1150 C1146 1.524 . S
C1150 H1162 0.956 . S
C1150 H1163 0.961 . S
C1150 H1164 0.961 . S
C1151 C1148 1.539 . S
C1151 H1165 0.958 . S
C1151 H1166 0.961 . S
C1151 H1167 0.960 . S
H1152 C1136 0.931 . S
H1153 C1141 0.929 . S
H1154 C1142 0.960 . S
H1155 C1142 0.962 . S
H1156 C1142 0.960 . S
H1157 C1143 0.961 . S
H1158 C1143 0.961 . S
H1159 C1143 0.961 . S
H1160 C1144 0.931 . S
H1161 C1149 0.930 . S
H1162 C1150 0.956 . S
H1163 C1150 0.961 . S
H1164 C1150 0.961 . S
H1165 C1151 0.958 . S
H1166 C1151 0.961 . S
H1167 C1151 0.960 . S
C1168 C1169 1.391 . S
C1168 C1170 1.394 . S
C1168 H1184 0.931 . S
C1169 C1168 1.391 . S
C1169 C1173 1.376 . S
C1170 C1168 1.394 . S
C1170 C1171 1.369 . S
C1170 C1174 1.531 . S
C1171 C1170 1.369 . S
C1171 C1172 1.410 . S
C1171 C1179 1.503 . S
C1172 C1171 1.410 . S
C1172 C1173 1.392 . S
C1172 C1175 1.511 . S
C1173 C1169 1.376 . S
C1173 C1172 1.392 . S
C1173 H1185 0.929 . S
C1174 C1170 1.531 . S
C1174 H1186 0.960 . S
C1174 H1187 0.962 . S
C1174 H1188 0.960 . S
C1175 C1172 1.511 . S
C1175 H1189 0.961 . S
C1175 H1190 0.961 . S
C1175 H1191 0.961 . S
C1176 C1177 1.370 . S
C1176 C1178 1.363 . S
C1176 H1192 0.931 . S
C1177 C1176 1.370 . S
C1177 C1181 1.408 . S
C1178 C1176 1.363 . S
C1178 C1179 1.370 . S
C1178 C1182 1.524 . S
C1179 C1171 1.503 . S
C1179 C1178 1.370 . S
C1179 C1180 1.403 . S
C1180 C1179 1.403 . S
C1180 C1181 1.404 . S
C1180 C1183 1.539 . S
C1181 C1177 1.408 . S
C1181 C1180 1.404 . S
C1181 H1193 0.930 . S
C1182 C1178 1.524 . S
C1182 H1194 0.956 . S
C1182 H1195 0.961 . S
C1182 H1196 0.961 . S
C1183 C1180 1.539 . S
C1183 H1197 0.958 . S
C1183 H1198 0.961 . S
C1183 H1199 0.960 . S
H1184 C1168 0.931 . S
H1185 C1173 0.929 . S
H1186 C1174 0.960 . S
H1187 C1174 0.962 . S
H1188 C1174 0.960 . S
H1189 C1175 0.961 . S
H1190 C1175 0.961 . S
H1191 C1175 0.961 . S
H1192 C1176 0.931 . S
H1193 C1181 0.930 . S
H1194 C1182 0.956 . S
H1195 C1182 0.961 . S
H1196 C1182 0.961 . S
H1197 C1183 0.958 . S
H1198 C1183 0.961 . S
H1199 C1183 0.960 . S
C1200 C1201 1.391 . S
C1200 C1202 1.394 . S
C1200 H1216 0.931 . S
C1201 C1200 1.391 . S
C1201 C1205 1.376 . S
C1202 C1200 1.394 . S
C1202 C1203 1.369 . S
C1202 C1206 1.531 1_556 S
C1203 C1202 1.369 . S
C1203 C1204 1.410 . S
C1203 C1211 1.503 . S
C1204 C1203 1.410 . S
C1204 C1205 1.392 . S
C1204 C1207 1.511 . S
C1205 C1201 1.376 . S
C1205 C1204 1.392 . S
C1205 H1217 0.929 . S
C1206 C1202 1.531 1_554 S
C1206 H1218 0.960 . S
C1206 H1219 0.962 . S
C1206 H1220 0.960 . S
C1207 C1204 1.511 . S
C1207 H1221 0.961 . S
C1207 H1222 0.961 . S
C1207 H1223 0.961 . S
C1208 C1209 1.370 . S
C1208 C1210 1.363 . S
C1208 H1224 0.931 . S
C1209 C1208 1.370 . S
C1209 C1213 1.408 . S
C1210 C1208 1.363 . S
C1210 C1211 1.370 . S
C1210 C1214 1.524 . S
C1211 C1203 1.503 . S
C1211 C1210 1.370 . S
C1211 C1212 1.403 . S
C1212 C1211 1.403 . S
C1212 C1213 1.404 . S
C1212 C1215 1.539 . S
C1213 C1209 1.408 . S
C1213 C1212 1.404 . S
C1213 H1225 0.938 . S
C1214 C1210 1.524 . S
C1214 H1226 0.956 . S
C1214 H1227 0.961 . S
C1214 H1228 0.961 . S
C1215 C1212 1.539 . S
C1215 H1229 0.958 1_556 S
C1215 H1230 0.961 . S
C1215 H1231 0.960 . S
H1216 C1200 0.931 . S
H1217 C1205 0.929 . S
H1218 C1206 0.960 . S
H1219 C1206 0.962 . S
H1220 C1206 0.960 . S
H1221 C1207 0.961 . S
H1222 C1207 0.961 . S
H1223 C1207 0.961 . S
H1224 C1208 0.931 . S
H1225 C1213 0.938 . S
H1226 C1214 0.956 . S
H1227 C1214 0.961 . S
H1228 C1214 0.961 . S
H1229 C1215 0.958 1_554 S
H1230 C1215 0.961 . S
H1231 C1215 0.960 . S
C1232 C1233 1.391 . S
C1232 C1234 1.394 . S
C1232 H1248 0.931 . S
C1233 C1232 1.391 . S
C1233 C1237 1.376 . S
C1234 C1232 1.394 . S
C1234 C1235 1.369 . S
C1234 C1238 1.531 . S
C1235 C1234 1.369 . S
C1235 C1236 1.410 . S
C1235 C1243 1.503 . S
C1236 C1235 1.410 . S
C1236 C1237 1.392 . S
C1236 C1239 1.511 . S
C1237 C1233 1.376 . S
C1237 C1236 1.392 . S
C1237 H1249 0.929 . S
C1238 C1234 1.531 . S
C1238 H1250 0.960 . S
C1238 H1251 0.962 . S
C1238 H1252 0.960 . S
C1239 C1236 1.511 . S
C1239 H1253 0.961 . S
C1239 H1254 0.961 . S
C1239 H1255 0.961 . S
C1240 C1241 1.370 . S
C1240 C1242 1.363 . S
C1240 H1256 0.931 . S
C1241 C1240 1.370 . S
C1241 C1245 1.408 . S
C1242 C1240 1.363 . S
C1242 C1243 1.370 . S
C1242 C1246 1.524 . S
C1243 C1235 1.503 . S
C1243 C1242 1.370 . S
C1243 C1244 1.403 . S
C1244 C1243 1.403 . S
C1244 C1245 1.404 . S
C1244 C1247 1.539 . S
C1245 C1241 1.408 . S
C1245 C1244 1.404 . S
C1245 H1257 0.930 . S
C1246 C1242 1.524 . S
C1246 H1258 0.956 . S
C1246 H1259 0.961 . S
C1246 H1260 0.961 . S
C1247 C1244 1.539 . S
C1247 H1261 0.958 . S
C1247 H1262 0.961 . S
C1247 H1263 0.960 . S
H1248 C1232 0.931 . S
H1249 C1237 0.929 . S
H1250 C1238 0.960 . S
H1251 C1238 0.962 . S
H1252 C1238 0.960 . S
H1253 C1239 0.961 . S
H1254 C1239 0.961 . S
H1255 C1239 0.961 . S
H1256 C1240 0.931 . S
H1257 C1245 0.930 . S
H1258 C1246 0.956 . S
H1259 C1246 0.961 . S
H1260 C1246 0.961 . S
H1261 C1247 0.958 . S
H1262 C1247 0.961 . S
H1263 C1247 0.960 . S
C1264 C1265 1.391 . S
C1264 C1266 1.394 . S
C1264 H1280 0.931 . S
C1265 C1264 1.391 . S
C1265 C1269 1.376 . S
C1266 C1264 1.394 . S
C1266 C1267 1.369 . S
C1266 C1270 1.531 . S
C1267 C1266 1.369 . S
C1267 C1268 1.410 . S
C1267 C1275 1.503 . S
C1268 C1267 1.410 . S
C1268 C1269 1.392 . S
C1268 C1271 1.511 . S
C1269 C1265 1.376 . S
C1269 C1268 1.392 . S
C1269 H1281 0.929 . S
C1270 C1266 1.531 . S
C1270 H1282 0.960 . S
C1270 H1283 0.962 . S
C1270 H1284 0.960 . S
C1271 C1268 1.511 . S
C1271 H1285 0.961 . S
C1271 H1286 0.961 . S
C1271 H1287 0.961 . S
C1272 C1273 1.370 . S
C1272 C1274 1.363 . S
C1272 H1288 0.931 . S
C1273 C1272 1.370 . S
C1273 C1277 1.408 . S
C1274 C1272 1.363 . S
C1274 C1275 1.370 . S
C1274 C1278 1.524 . S
C1275 C1267 1.503 . S
C1275 C1274 1.370 . S
C1275 C1276 1.403 . S
C1276 C1275 1.403 . S
C1276 C1277 1.404 . S
C1276 C1279 1.539 . S
C1277 C1273 1.408 . S
C1277 C1276 1.404 . S
C1277 H1289 0.930 . S
C1278 C1274 1.524 . S
C1278 H1290 0.956 . S
C1278 H1291 0.961 . S
C1278 H1292 0.961 . S
C1279 C1276 1.539 . S
C1279 H1293 0.958 . S
C1279 H1294 0.961 . S
C1279 H1295 0.960 . S
H1280 C1264 0.931 . S
H1281 C1269 0.929 . S
H1282 C1270 0.960 . S
H1283 C1270 0.962 . S
H1284 C1270 0.960 . S
H1285 C1271 0.961 . S
H1286 C1271 0.961 . S
H1287 C1271 0.961 . S
H1288 C1272 0.931 . S
H1289 C1277 0.930 . S
H1290 C1278 0.956 . S
H1291 C1278 0.961 . S
H1292 C1278 0.961 . S
H1293 C1279 0.958 . S
H1294 C1279 0.961 . S
H1295 C1279 0.960 . S
C1296 C1297 1.391 . S
C1296 C1298 1.394 . S
C1296 H1312 0.931 . S
C1297 C1296 1.391 . S
C1297 C1301 1.376 . S
C1298 C1296 1.394 . S
C1298 C1299 1.369 . S
C1298 C1302 1.531 . S
C1299 C1298 1.369 . S
C1299 C1300 1.410 . S
C1299 C1307 1.503 . S
C1300 C1299 1.410 . S
C1300 C1301 1.392 . S
C1300 C1303 1.511 . S
C1301 C1297 1.376 . S
C1301 C1300 1.392 . S
C1301 H1313 0.929 . S
C1302 C1298 1.531 . S
C1302 H1314 0.960 . S
C1302 H1315 0.962 . S
C1302 H1316 0.960 . S
C1303 C1300 1.511 . S
C1303 H1317 0.961 . S
C1303 H1318 0.961 . S
C1303 H1319 0.961 . S
C1304 C1305 1.370 . S
C1304 C1306 1.363 . S
C1304 H1320 0.931 1_455 S
C1305 C1304 1.370 . S
C1305 C1309 1.408 . S
C1306 C1304 1.363 . S
C1306 C1307 1.370 . S
C1306 C1310 1.524 1_455 S
C1307 C1299 1.503 . S
C1307 C1306 1.370 . S
C1307 C1308 1.403 . S
C1308 C1307 1.403 . S
C1308 C1309 1.404 . S
C1308 C1311 1.539 . S
C1309 C1305 1.408 . S
C1309 C1308 1.404 . S
C1309 H1321 0.930 . S
C1310 C1306 1.524 1_655 S
C1310 H1322 0.956 1_655 S
C1310 H1323 0.961 . S
C1310 H1324 0.961 . S
C1311 C1308 1.539 . S
C1311 H1325 0.958 . S
C1311 H1326 0.961 . S
C1311 H1327 0.960 . S
H1312 C1296 0.931 . S
H1313 C1301 0.929 . S
H1314 C1302 0.960 . S
H1315 C1302 0.962 . S
H1316 C1302 0.960 . S
H1317 C1303 0.961 . S
H1318 C1303 0.961 . S
H1319 C1303 0.961 . S
H1320 C1304 0.931 1_655 S
H1321 C1309 0.930 . S
H1322 C1310 0.956 1_455 S
H1323 C1310 0.961 . S
H1324 C1310 0.961 . S
H1325 C1311 0.958 . S
H1326 C1311 0.961 . S
H1327 C1311 0.960 . S
C1328 C1329 1.391 . S
C1328 C1330 1.394 . S
C1328 H1344 0.931 . S
C1329 C1328 1.391 . S
C1329 C1333 1.376 . S
C1330 C1328 1.394 . S
C1330 C1331 1.369 . S
C1330 C1334 1.531 . S
C1331 C1330 1.369 . S
C1331 C1332 1.410 . S
C1331 C1339 1.503 . S
C1332 C1331 1.410 . S
C1332 C1333 1.392 . S
C1332 C1335 1.511 . S
C1333 C1329 1.376 . S
C1333 C1332 1.392 . S
C1333 H1345 0.947 . S
C1334 C1330 1.531 . S
C1334 H1346 0.960 . S
C1334 H1347 0.962 . S
C1334 H1348 0.960 . S
C1335 C1332 1.511 . S
C1335 H1349 0.967 . S
C1335 H1350 0.961 . S
C1335 H1351 0.961 . S
C1336 C1337 1.370 . S
C1336 C1338 1.363 . S
C1336 H1352 0.931 . S
C1337 C1336 1.370 . S
C1337 C1341 1.408 . S
C1338 C1336 1.363 . S
C1338 C1339 1.370 . S
C1338 C1342 1.524 . S
C1339 C1331 1.503 . S
C1339 C1338 1.370 . S
C1339 C1340 1.403 . S
C1340 C1339 1.403 . S
C1340 C1341 1.404 . S
C1340 C1343 1.539 . S
C1341 C1337 1.408 . S
C1341 C1340 1.404 . S
C1341 H1353 0.930 . S
C1342 C1338 1.524 . S
C1342 H1354 0.956 . S
C1342 H1355 0.961 1_655 S
C1342 H1356 0.961 1_655 S
C1343 C1340 1.539 . S
C1343 H1357 0.958 . S
C1343 H1358 0.961 . S
C1343 H1359 0.960 . S
H1344 C1328 0.931 . S
H1345 C1333 0.947 . S
H1346 C1334 0.960 . S
H1347 C1334 0.962 . S
H1348 C1334 0.960 . S
H1349 C1335 0.967 . S
H1350 C1335 0.961 . S
H1351 C1335 0.961 . S
H1352 C1336 0.931 . S
H1353 C1341 0.930 . S
H1354 C1342 0.956 . S
H1355 C1342 0.961 1_455 S
H1356 C1342 0.961 1_455 S
H1357 C1343 0.958 . S
H1358 C1343 0.961 . S
H1359 C1343 0.960 . S
C1360 C1361 1.391 . S
C1360 C1362 1.394 . S
C1360 H1376 0.931 . S
C1361 C1360 1.391 . S
C1361 C1365 1.376 . S
C1362 C1360 1.394 . S
C1362 C1363 1.369 . S
C1362 C1366 1.531 . S
C1363 C1362 1.369 . S
C1363 C1364 1.410 . S
C1363 C1371 1.503 . S
C1364 C1363 1.410 . S
C1364 C1365 1.392 . S
C1364 C1367 1.511 . S
C1365 C1361 1.376 . S
C1365 C1364 1.392 . S
C1365 H1377 0.929 . S
C1366 C1362 1.531 . S
C1366 H1378 0.960 . S
C1366 H1379 0.962 . S
C1366 H1380 0.960 . S
C1367 C1364 1.511 . S
C1367 H1381 0.961 . S
C1367 H1382 0.961 . S
C1367 H1383 0.961 . S
C1368 C1369 1.370 . S
C1368 C1370 1.363 . S
C1368 H1384 0.931 . S
C1369 C1368 1.370 . S
C1369 C1373 1.408 . S
C1370 C1368 1.363 . S
C1370 C1371 1.370 . S
C1370 C1374 1.524 . S
C1371 C1363 1.503 . S
C1371 C1370 1.370 . S
C1371 C1372 1.403 . S
C1372 C1371 1.403 . S
C1372 C1373 1.404 . S
C1372 C1375 1.539 . S
C1373 C1369 1.408 . S
C1373 C1372 1.404 . S
C1373 H1385 0.930 . S
C1374 C1370 1.524 . S
C1374 H1386 0.956 . S
C1374 H1387 0.961 . S
C1374 H1388 0.961 . S
C1375 C1372 1.539 . S
C1375 H1389 0.958 . S
C1375 H1390 0.961 . S
C1375 H1391 0.960 . S
H1376 C1360 0.931 . S
H1377 C1365 0.929 . S
H1378 C1366 0.960 . S
H1379 C1366 0.962 . S
H1380 C1366 0.960 . S
H1381 C1367 0.961 . S
H1382 C1367 0.961 . S
H1383 C1367 0.961 . S
H1384 C1368 0.931 . S
H1385 C1373 0.930 . S
H1386 C1374 0.956 . S
H1387 C1374 0.961 . S
H1388 C1374 0.961 . S
H1389 C1375 0.958 . S
H1390 C1375 0.961 . S
H1391 C1375 0.960 . S
C1392 C1393 1.391 . S
C1392 C1394 1.394 . S
C1392 H1408 0.931 . S
C1393 C1392 1.391 . S
C1393 C1397 1.376 . S
C1394 C1392 1.394 . S
C1394 C1395 1.369 . S
C1394 C1398 1.531 . S
C1395 C1394 1.369 . S
C1395 C1396 1.410 . S
C1395 C1403 1.503 . S
C1396 C1395 1.410 . S
C1396 C1397 1.392 . S
C1396 C1399 1.511 . S
C1397 C1393 1.376 . S
C1397 C1396 1.392 . S
C1397 H1409 0.929 . S
C1398 C1394 1.531 . S
C1398 H1410 0.960 . S
C1398 H1411 0.962 . S
C1398 H1412 0.960 . S
C1399 C1396 1.511 . S
C1399 H1413 0.961 . S
C1399 H1414 0.961 . S
C1399 H1415 0.961 . S
C1400 C1401 1.370 . S
C1400 C1402 1.363 . S
C1400 H1416 0.931 . S
C1401 C1400 1.370 . S
C1401 C1405 1.408 . S
C1402 C1400 1.363 . S
C1402 C1403 1.370 . S
C1402 C1406 1.524 . S
C1403 C1395 1.503 . S
C1403 C1402 1.370 . S
C1403 C1404 1.403 . S
C1404 C1403 1.403 . S
C1404 C1405 1.404 . S
C1404 C1407 1.539 . S
C1405 C1401 1.408 . S
C1405 C1404 1.404 . S
C1405 H1417 0.930 . S
C1406 C1402 1.524 . S
C1406 H1418 0.956 . S
C1406 H1419 0.961 . S
C1406 H1420 0.961 . S
C1407 C1404 1.539 . S
C1407 H1421 0.958 . S
C1407 H1422 0.961 . S
C1407 H1423 0.960 . S
H1408 C1392 0.931 . S
H1409 C1397 0.929 . S
H1410 C1398 0.960 . S
H1411 C1398 0.962 . S
H1412 C1398 0.960 . S
H1413 C1399 0.961 . S
H1414 C1399 0.961 . S
H1415 C1399 0.961 . S
H1416 C1400 0.931 . S
H1417 C1405 0.930 . S
H1418 C1406 0.956 . S
H1419 C1406 0.961 . S
H1420 C1406 0.961 . S
H1421 C1407 0.958 . S
H1422 C1407 0.961 . S
H1423 C1407 0.960 . S
C1424 C1425 1.391 . S
C1424 C1426 1.394 . S
C1424 H1440 0.931 . S
C1425 C1424 1.391 . S
C1425 C1429 1.376 . S
C1426 C1424 1.394 . S
C1426 C1427 1.369 . S
C1426 C1430 1.531 . S
C1427 C1426 1.369 . S
C1427 C1428 1.410 . S
C1427 C1435 1.503 . S
C1428 C1427 1.410 . S
C1428 C1429 1.392 . S
C1428 C1431 1.511 . S
C1429 C1425 1.376 . S
C1429 C1428 1.392 . S
C1429 H1441 0.929 . S
C1430 C1426 1.531 . S
C1430 H1442 0.960 . S
C1430 H1443 0.962 . S
C1430 H1444 0.960 . S
C1431 C1428 1.511 . S
C1431 H1445 0.961 . S
C1431 H1446 0.961 . S
C1431 H1447 0.961 . S
C1432 C1433 1.370 . S
C1432 C1434 1.363 . S
C1432 H1448 0.931 . S
C1433 C1432 1.370 . S
C1433 C1437 1.408 . S
C1434 C1432 1.363 . S
C1434 C1435 1.370 . S
C1434 C1438 1.524 . S
C1435 C1427 1.503 . S
C1435 C1434 1.370 . S
C1435 C1436 1.403 . S
C1436 C1435 1.403 . S
C1436 C1437 1.404 . S
C1436 C1439 1.539 . S
C1437 C1433 1.408 . S
C1437 C1436 1.404 . S
C1437 H1449 0.930 . S
C1438 C1434 1.524 . S
C1438 H1450 0.956 . S
C1438 H1451 0.961 . S
C1438 H1452 0.961 . S
C1439 C1436 1.539 . S
C1439 H1453 0.958 1_565 S
C1439 H1454 0.951 1_565 S
C1439 H1455 0.960 . S
H1440 C1424 0.931 . S
H1441 C1429 0.929 . S
H1442 C1430 0.960 . S
H1443 C1430 0.962 . S
H1444 C1430 0.960 . S
H1445 C1431 0.961 . S
H1446 C1431 0.961 . S
H1447 C1431 0.961 . S
H1448 C1432 0.931 . S
H1449 C1437 0.930 . S
H1450 C1438 0.956 . S
H1451 C1438 0.961 . S
H1452 C1438 0.961 . S
H1453 C1439 0.958 1_545 S
H1454 C1439 0.951 1_545 S
H1455 C1439 0.960 . S
C1456 C1457 1.391 . S
C1456 C1458 1.394 . S
C1456 H1472 0.931 . S
C1457 C1456 1.391 . S
C1457 C1461 1.376 . S
C1458 C1456 1.394 . S
C1458 C1459 1.369 . S
C1458 C1462 1.531 . S
C1459 C1458 1.369 . S
C1459 C1460 1.410 . S
C1459 C1467 1.503 . S
C1460 C1459 1.410 . S
C1460 C1461 1.392 . S
C1460 C1463 1.511 . S
C1461 C1457 1.376 . S
C1461 C1460 1.392 . S
C1461 H1473 0.929 . S
C1462 C1458 1.531 . S
C1462 H1474 0.960 . S
C1462 H1475 0.962 . S
C1462 H1476 0.960 . S
C1463 C1460 1.511 . S
C1463 H1477 0.961 . S
C1463 H1478 0.961 . S
C1463 H1479 0.961 . S
C1464 C1465 1.370 . S
C1464 C1466 1.363 . S
C1464 H1480 0.931 . S
C1465 C1464 1.370 . S
C1465 C1469 1.408 . S
C1466 C1464 1.363 . S
C1466 C1467 1.370 . S
C1466 C1470 1.524 . S
C1467 C1459 1.503 . S
C1467 C1466 1.370 . S
C1467 C1468 1.403 . S
C1468 C1467 1.403 . S
C1468 C1469 1.404 . S
C1468 C1471 1.539 . S
C1469 C1465 1.408 . S
C1469 C1468 1.404 . S
C1469 H1481 0.930 . S
C1470 C1466 1.524 . S
C1470 H1482 0.956 . S
C1470 H1483 0.961 . S
C1470 H1484 0.961 . S
C1471 C1468 1.539 . S
C1471 H1485 0.958 . S
C1471 H1486 0.961 . S
C1471 H1487 0.960 . S
H1472 C1456 0.931 . S
H1473 C1461 0.929 . S
H1474 C1462 0.960 . S
H1475 C1462 0.962 . S
H1476 C1462 0.960 . S
H1477 C1463 0.961 . S
H1478 C1463 0.961 . S
H1479 C1463 0.961 . S
H1480 C1464 0.931 . S
H1481 C1469 0.930 . S
H1482 C1470 0.956 . S
H1483 C1470 0.961 . S
H1484 C1470 0.961 . S
H1485 C1471 0.958 . S
H1486 C1471 0.961 . S
H1487 C1471 0.960 . S
C1488 C1489 1.391 . S
C1488 C1490 1.394 . S
C1488 H1504 0.931 . S
C1489 C1488 1.391 . S
C1489 C1493 1.376 . S
C1490 C1488 1.394 . S
C1490 C1491 1.369 . S
C1490 C1494 1.531 . S
C1491 C1490 1.369 . S
C1491 C1492 1.410 . S
C1491 C1499 1.503 1_554 S
C1492 C1491 1.410 . S
C1492 C1493 1.392 . S
C1492 C1495 1.511 . S
C1493 C1489 1.376 . S
C1493 C1492 1.392 . S
C1493 H1505 0.929 . S
C1494 C1490 1.531 . S
C1494 H1506 0.961 1_545 S
C1494 H1507 0.962 . S
C1494 H1508 0.960 1_545 S
C1495 C1492 1.511 . S
C1495 H1509 0.961 . S
C1495 H1510 0.961 1_554 S
C1495 H1511 0.961 1_554 S
C1496 C1497 1.370 . S
C1496 C1498 1.363 . S
C1496 H1512 0.931 . S
C1497 C1496 1.370 . S
C1497 C1501 1.408 . S
C1498 C1496 1.363 . S
C1498 C1499 1.370 . S
C1498 C1502 1.524 1_556 S
C1499 C1491 1.503 1_556 S
C1499 C1498 1.370 . S
C1499 C1500 1.403 . S
C1500 C1499 1.403 . S
C1500 C1501 1.404 . S
C1500 C1503 1.539 . S
C1501 C1497 1.408 . S
C1501 C1500 1.404 . S
C1501 H1513 0.930 . S
C1502 C1498 1.524 1_554 S
C1502 H1514 0.956 . S
C1502 H1515 0.961 . S
C1502 H1516 0.961 . S
C1503 C1500 1.539 . S
C1503 H1517 0.958 . S
C1503 H1518 0.961 . S
C1503 H1519 0.960 . S
H1504 C1488 0.931 . S
H1505 C1493 0.929 . S
H1506 C1494 0.961 1_565 S
H1507 C1494 0.962 . S
H1508 C1494 0.960 1_565 S
H1509 C1495 0.961 . S
H1510 C1495 0.961 1_556 S
H1511 C1495 0.961 1_556 S
H1512 C1496 0.931 . S
H1513 C1501 0.930 . S
H1514 C1502 0.956 . S
H1515 C1502 0.961 . S
H1516 C1502 0.961 . S
H1517 C1503 0.958 . S
H1518 C1503 0.961 . S
H1519 C1503 0.960 . S
C1520 C1521 1.391 . S
C1520 C1522 1.394 . S
C1520 H1536 0.931 . S
C1521 C1520 1.391 . S
C1521 C1525 1.376 . S
C1522 C1520 1.394 . S
C1522 C1523 1.369 . S
C1522 C1526 1.531 . S
C1523 C1522 1.369 . S
C1523 C1524 1.410 . S
C1523 C1531 1.503 . S
C1524 C1523 1.410 . S
C1524 C1525 1.392 . S
C1524 C1527 1.511 . S
C1525 C1521 1.376 . S
C1525 C1524 1.392 . S
C1525 H1537 0.929 . S
C1526 C1522 1.531 . S
C1526 H1538 0.960 . S
C1526 H1539 0.962 . S
C1526 H1540 0.960 . S
C1527 C1524 1.511 . S
C1527 H1541 0.961 . S
C1527 H1542 0.961 . S
C1527 H1543 0.961 . S
C1528 C1529 1.370 . S
C1528 C1530 1.363 . S
C1528 H1544 0.931 . S
C1529 C1528 1.370 . S
C1529 C1533 1.408 . S
C1530 C1528 1.363 . S
C1530 C1531 1.370 . S
C1530 C1534 1.524 . S
C1531 C1523 1.503 . S
C1531 C1530 1.370 . S
C1531 C1532 1.403 . S
C1532 C1531 1.403 . S
C1532 C1533 1.404 . S
C1532 C1535 1.539 . S
C1533 C1529 1.408 . S
C1533 C1532 1.404 . S
C1533 H1545 0.930 . S
C1534 C1530 1.524 . S
C1534 H1546 0.956 . S
C1534 H1547 0.961 . S
C1534 H1548 0.961 . S
C1535 C1532 1.539 . S
C1535 H1549 0.958 . S
C1535 H1550 0.961 . S
C1535 H1551 0.960 . S
H1536 C1520 0.931 . S
H1537 C1525 0.929 . S
H1538 C1526 0.960 . S
H1539 C1526 0.962 . S
H1540 C1526 0.960 . S
H1541 C1527 0.961 . S
H1542 C1527 0.961 . S
H1543 C1527 0.961 . S
H1544 C1528 0.931 . S
H1545 C1533 0.930 . S
H1546 C1534 0.956 . S
H1547 C1534 0.961 . S
H1548 C1534 0.961 . S
H1549 C1535 0.958 . S
H1550 C1535 0.961 . S
H1551 C1535 0.960 . S
C1552 C1553 1.391 . S
C1552 C1554 1.394 . S
C1552 H1568 0.931 . S
C1553 C1552 1.391 . S
C1553 C1557 1.376 . S
C1554 C1552 1.394 . S
C1554 C1555 1.369 1_554 S
C1554 C1558 1.531 1_554 S
C1555 C1554 1.369 1_556 S
C1555 C1556 1.410 1_556 S
C1555 C1563 1.503 . S
C1556 C1555 1.410 1_554 S
C1556 C1557 1.392 . S
C1556 C1559 1.511 . S
C1557 C1553 1.376 . S
C1557 C1556 1.392 . S
C1557 H1569 0.929 . S
C1558 C1554 1.531 1_556 S
C1558 H1570 0.960 . S
C1558 H1571 0.962 . S
C1558 H1572 0.960 . S
C1559 C1556 1.511 . S
C1559 H1573 0.961 . S
C1559 H1574 0.961 1_554 S
C1559 H1575 0.961 . S
C1560 C1561 1.370 . S
C1560 C1562 1.363 . S
C1560 H1576 0.931 . S
C1561 C1560 1.370 . S
C1561 C1565 1.408 . S
C1562 C1560 1.363 . S
C1562 C1563 1.370 . S
C1562 C1566 1.524 . S
C1563 C1555 1.503 . S
C1563 C1562 1.370 . S
C1563 C1564 1.403 . S
C1564 C1563 1.403 . S
C1564 C1565 1.404 . S
C1564 C1567 1.539 . S
C1565 C1561 1.408 . S
C1565 C1564 1.404 . S
C1565 H1577 0.930 . S
C1566 C1562 1.524 . S
C1566 H1578 0.956 . S
C1566 H1579 0.961 . S
C1566 H1580 0.961 . S
C1567 C1564 1.539 . S
C1567 H1581 0.958 . S
C1567 H1582 0.961 . S
C1567 H1583 0.960 . S
H1568 C1552 0.931 . S
H1569 C1557 0.929 . S
H1570 C1558 0.960 . S
H1571 C1558 0.962 . S
H1572 C1558 0.960 . S
H1573 C1559 0.961 . S
H1574 C1559 0.961 1_556 S
H1575 C1559 0.961 . S
H1576 C1560 0.931 . S
H1577 C1565 0.930 . S
H1578 C1566 0.956 . S
H1579 C1566 0.961 . S
H1580 C1566 0.961 . S
H1581 C1567 0.958 . S
H1582 C1567 0.961 . S
H1583 C1567 0.960 . S
C1584 C1585 1.391 . S
C1584 C1586 1.394 . S
C1584 H1600 0.931 . S
C1585 C1584 1.391 . S
C1585 C1589 1.376 . S
C1586 C1584 1.394 . S
C1586 C1587 1.369 . S
C1586 C1590 1.531 . S
C1587 C1586 1.369 . S
C1587 C1588 1.410 . S
C1587 C1595 1.503 . S
C1588 C1587 1.410 . S
C1588 C1589 1.392 . S
C1588 C1591 1.511 . S
C1589 C1585 1.376 . S
C1589 C1588 1.392 . S
C1589 H1601 0.929 . S
C1590 C1586 1.531 . S
C1590 H1602 0.960 . S
C1590 H1603 0.962 . S
C1590 H1604 0.960 . S
C1591 C1588 1.511 . S
C1591 H1605 0.961 . S
C1591 H1606 0.961 . S
C1591 H1607 0.961 . S
C1592 C1593 1.370 . S
C1592 C1594 1.363 . S
C1592 H1608 0.931 . S
C1593 C1592 1.370 . S
C1593 C1597 1.408 . S
C1594 C1592 1.363 . S
C1594 C1595 1.370 . S
C1594 C1598 1.524 . S
C1595 C1587 1.503 . S
C1595 C1594 1.370 . S
C1595 C1596 1.403 . S
C1596 C1595 1.403 . S
C1596 C1597 1.404 . S
C1596 C1599 1.539 . S
C1597 C1593 1.408 . S
C1597 C1596 1.404 . S
C1597 H1609 0.930 . S
C1598 C1594 1.524 . S
C1598 H1610 0.956 . S
C1598 H1611 0.961 . S
C1598 H1612 0.961 . S
C1599 C1596 1.539 . S
C1599 H1613 0.958 . S
C1599 H1614 0.961 . S
C1599 H1615 0.960 . S
H1600 C1584 0.931 . S
H1601 C1589 0.929 . S
H1602 C1590 0.960 . S
H1603 C1590 0.962 . S
H1604 C1590 0.960 . S
H1605 C1591 0.961 . S
H1606 C1591 0.961 . S
H1607 C1591 0.961 . S
H1608 C1592 0.931 . S
H1609 C1597 0.930 . S
H1610 C1598 0.956 . S
H1611 C1598 0.961 . S
H1612 C1598 0.961 . S
H1613 C1599 0.958 . S
H1614 C1599 0.961 . S
H1615 C1599 0.960 . S
C1616 C1617 1.391 . S
C1616 C1618 1.394 . S
C1616 H1632 0.931 . S
C1617 C1616 1.391 . S
C1617 C1621 1.376 . S
C1618 C1616 1.394 . S
C1618 C1619 1.369 . S
C1618 C1622 1.531 . S
C1619 C1618 1.369 . S
C1619 C1620 1.410 . S
C1619 C1627 1.503 . S
C1620 C1619 1.410 . S
C1620 C1621 1.392 . S
C1620 C1623 1.511 . S
C1621 C1617 1.376 . S
C1621 C1620 1.392 . S
C1621 H1633 0.929 . S
C1622 C1618 1.531 . S
C1622 H1634 0.960 . S
C1622 H1635 0.962 . S
C1622 H1636 0.960 . S
C1623 C1620 1.511 . S
C1623 H1637 0.961 . S
C1623 H1638 0.961 . S
C1623 H1639 0.961 . S
C1624 C1625 1.370 . S
C1624 C1626 1.363 . S
C1624 H1640 0.931 . S
C1625 C1624 1.370 . S
C1625 C1629 1.408 . S
C1626 C1624 1.363 . S
C1626 C1627 1.370 . S
C1626 C1630 1.524 . S
C1627 C1619 1.503 . S
C1627 C1626 1.370 . S
C1627 C1628 1.403 . S
C1628 C1627 1.403 . S
C1628 C1629 1.404 . S
C1628 C1631 1.539 . S
C1629 C1625 1.408 . S
C1629 C1628 1.404 . S
C1629 H1641 0.930 . S
C1630 C1626 1.524 . S
C1630 H1642 0.956 . S
C1630 H1643 0.961 . S
C1630 H1644 0.961 . S
C1631 C1628 1.539 . S
C1631 H1645 0.958 . S
C1631 H1646 0.961 . S
C1631 H1647 0.960 . S
H1632 C1616 0.931 . S
H1633 C1621 0.929 . S
H1634 C1622 0.960 . S
H1635 C1622 0.962 . S
H1636 C1622 0.960 . S
H1637 C1623 0.961 . S
H1638 C1623 0.961 . S
H1639 C1623 0.961 . S
H1640 C1624 0.931 . S
H1641 C1629 0.930 . S
H1642 C1630 0.956 . S
H1643 C1630 0.961 . S
H1644 C1630 0.961 . S
H1645 C1631 0.958 . S
H1646 C1631 0.961 . S
H1647 C1631 0.960 . S
C1648 C1649 1.391 . S
C1648 C1650 1.394 . S
C1648 H1664 0.931 . S
C1649 C1648 1.391 . S
C1649 C1653 1.376 . S
C1650 C1648 1.394 . S
C1650 C1651 1.369 . S
C1650 C1654 1.531 . S
C1651 C1650 1.369 . S
C1651 C1652 1.410 . S
C1651 C1659 1.503 . S
C1652 C1651 1.410 . S
C1652 C1653 1.392 . S
C1652 C1655 1.511 . S
C1653 C1649 1.376 . S
C1653 C1652 1.392 . S
C1653 H1665 0.929 . S
C1654 C1650 1.531 . S
C1654 H1666 0.960 . S
C1654 H1667 0.962 . S
C1654 H1668 0.960 . S
C1655 C1652 1.511 . S
C1655 H1669 0.961 . S
C1655 H1670 0.961 . S
C1655 H1671 0.961 . S
C1656 C1657 1.370 . S
C1656 C1658 1.363 . S
C1656 H1672 0.931 . S
C1657 C1656 1.370 . S
C1657 C1661 1.408 . S
C1658 C1656 1.363 . S
C1658 C1659 1.370 . S
C1658 C1662 1.524 . S
C1659 C1651 1.503 . S
C1659 C1658 1.370 . S
C1659 C1660 1.403 . S
C1660 C1659 1.403 . S
C1660 C1661 1.404 . S
C1660 C1663 1.539 . S
C1661 C1657 1.408 . S
C1661 C1660 1.404 . S
C1661 H1673 0.930 . S
C1662 C1658 1.524 . S
C1662 H1674 0.956 . S
C1662 H1675 0.961 . S
C1662 H1676 0.961 . S
C1663 C1660 1.539 . S
C1663 H1677 0.958 . S
C1663 H1678 0.961 . S
C1663 H1679 0.960 . S
H1664 C1648 0.931 . S
H1665 C1653 0.929 . S
H1666 C1654 0.960 . S
H1667 C1654 0.962 . S
H1668 C1654 0.960 . S
H1669 C1655 0.961 . S
H1670 C1655 0.961 . S
H1671 C1655 0.961 . S
H1672 C1656 0.931 . S
H1673 C1661 0.930 . S
H1674 C1662 0.956 . S
H1675 C1662 0.961 . S
H1676 C1662 0.961 . S
H1677 C1663 0.958 . S
H1678 C1663 0.961 . S
H1679 C1663 0.960 . S
C1680 C1681 1.391 . S
C1680 C1682 1.394 . S
C1680 H1696 0.931 . S
C1681 C1680 1.391 . S
C1681 C1685 1.376 . S
C1682 C1680 1.394 . S
C1682 C1683 1.369 . S
C1682 C1686 1.531 . S
C1683 C1682 1.369 . S
C1683 C1684 1.410 . S
C1683 C1691 1.475 1_545 S
C1684 C1683 1.410 . S
C1684 C1685 1.392 . S
C1684 C1687 1.511 . S
C1685 C1681 1.376 . S
C1685 C1684 1.392 . S
C1685 H1697 0.929 . S
C1686 C1682 1.531 . S
C1686 H1698 0.960 . S
C1686 H1699 0.962 1_455 S
C1686 H1700 0.960 1_455 S
C1687 C1684 1.511 . S
C1687 H1701 0.961 . S
C1687 H1702 0.961 . S
C1687 H1703 0.961 . S
C1688 C1689 1.370 . S
C1688 C1690 1.363 . S
C1688 H1704 0.931 . S
C1689 C1688 1.370 . S
C1689 C1693 1.408 . S
C1690 C1688 1.363 . S
C1690 C1691 1.374 . S
C1690 C1694 1.524 1_565 S
C1691 C1683 1.475 1_565 S
C1691 C1690 1.374 . S
C1691 C1692 1.428 . S
C1692 C1691 1.428 . S
C1692 C1693 1.404 . S
C1692 C1695 1.539 . S
C1693 C1689 1.408 . S
C1693 C1692 1.404 . S
C1693 H1705 0.930 . S
C1694 C1690 1.524 1_545 S
C1694 H1706 0.956 . S
C1694 H1707 0.961 . S
C1694 H1708 0.961 . S
C1695 C1692 1.539 . S
C1695 H1709 0.958 . S
C1695 H1710 0.961 . S
C1695 H1711 0.960 . S
H1696 C1680 0.931 . S
H1697 C1685 0.929 . S
H1698 C1686 0.960 . S
H1699 C1686 0.962 1_655 S
H1700 C1686 0.960 1_655 S
H1701 C1687 0.961 . S
H1702 C1687 0.961 . S
H1703 C1687 0.961 . S
H1704 C1688 0.931 . S
H1705 C1693 0.930 . S
H1706 C1694 0.956 . S
H1707 C1694 0.961 . S
H1708 C1694 0.961 . S
H1709 C1695 0.958 . S
H1710 C1695 0.961 . S
H1711 C1695 0.960 . S
C1712 C1713 1.391 . S
C1712 C1714 1.394 . S
C1712 H1728 0.931 . S
C1713 C1712 1.391 . S
C1713 C1717 1.376 . S
C1714 C1712 1.394 . S
C1714 C1715 1.369 . S
C1714 C1718 1.531 . S
C1715 C1714 1.369 . S
C1715 C1716 1.410 . S
C1715 C1723 1.503 . S
C1716 C1715 1.410 . S
C1716 C1717 1.392 . S
C1716 C1719 1.511 . S
C1717 C1713 1.376 . S
C1717 C1716 1.392 . S
C1717 H1729 0.929 . S
C1718 C1714 1.531 . S
C1718 H1730 0.960 . S
C1718 H1731 0.962 . S
C1718 H1732 0.960 . S
C1719 C1716 1.511 . S
C1719 H1733 0.961 . S
C1719 H1734 0.961 . S
C1719 H1735 0.961 . S
C1720 C1721 1.370 . S
C1720 C1722 1.363 . S
C1720 H1736 0.931 . S
C1721 C1720 1.370 . S
C1721 C1725 1.408 . S
C1722 C1720 1.363 . S
C1722 C1723 1.370 . S
C1722 C1726 1.524 . S
C1723 C1715 1.503 . S
C1723 C1722 1.370 . S
C1723 C1724 1.403 . S
C1724 C1723 1.403 . S
C1724 C1725 1.404 . S
C1724 C1727 1.539 . S
C1725 C1721 1.408 . S
C1725 C1724 1.404 . S
C1725 H1737 0.930 . S
C1726 C1722 1.524 . S
C1726 H1738 0.956 . S
C1726 H1739 0.961 . S
C1726 H1740 0.961 . S
C1727 C1724 1.539 . S
C1727 H1741 0.958 . S
C1727 H1742 0.961 . S
C1727 H1743 0.960 . S
H1728 C1712 0.931 . S
H1729 C1717 0.929 . S
H1730 C1718 0.960 . S
H1731 C1718 0.962 . S
H1732 C1718 0.960 . S
H1733 C1719 0.961 . S
H1734 C1719 0.961 . S
H1735 C1719 0.961 . S
H1736 C1720 0.931 . S
H1737 C1725 0.930 . S
H1738 C1726 0.956 . S
H1739 C1726 0.961 . S
H1740 C1726 0.961 . S
H1741 C1727 0.958 . S
H1742 C1727 0.961 . S
H1743 C1727 0.960 . S
C1744 C1745 1.391 . S
C1744 C1746 1.394 . S
C1744 H1760 0.931 . S
C1745 C1744 1.391 . S
C1745 C1749 1.376 . S
C1746 C1744 1.394 . S
C1746 C1747 1.369 1_545 S
C1746 C1750 1.531 1_545 S
C1747 C1746 1.369 1_565 S
C1747 C1748 1.410 1_565 S
C1747 C1755 1.503 . S
C1748 C1747 1.410 1_545 S
C1748 C1749 1.392 . S
C1748 C1751 1.501 1_545 S
C1749 C1745 1.376 . S
C1749 C1748 1.392 . S
C1749 H1761 0.929 . S
C1750 C1746 1.531 1_565 S
C1750 H1762 0.960 . S
C1750 H1763 0.962 . S
C1750 H1764 0.969 . S
C1751 C1748 1.501 1_565 S
C1751 H1765 0.943 1_565 S
C1751 H1766 0.977 . S
C1751 H1767 0.973 . S
C1752 C1753 1.370 . S
C1752 C1754 1.363 . S
C1752 H1768 0.931 . S
C1753 C1752 1.370 . S
C1753 C1757 1.408 . S
C1754 C1752 1.363 . S
C1754 C1755 1.370 . S
C1754 C1758 1.524 . S
C1755 C1747 1.503 . S
C1755 C1754 1.370 . S
C1755 C1756 1.403 . S
C1756 C1755 1.403 . S
C1756 C1757 1.404 . S
C1756 C1759 1.539 . S
C1757 C1753 1.408 . S
C1757 C1756 1.404 . S
C1757 H1769 0.930 . S
C1758 C1754 1.524 . S
C1758 H1770 0.956 1_565 S
C1758 H1771 0.961 1_565 S
C1758 H1772 0.961 . S
C1759 C1756 1.539 . S
C1759 H1773 0.958 . S
C1759 H1774 0.961 . S
C1759 H1775 0.960 . S
H1760 C1744 0.931 . S
H1761 C1749 0.929 . S
H1762 C1750 0.960 . S
H1763 C1750 0.962 . S
H1764 C1750 0.969 . S
H1765 C1751 0.943 1_545 S
H1766 C1751 0.977 . S
H1767 C1751 0.973 . S
H1768 C1752 0.931 . S
H1769 C1757 0.930 . S
H1770 C1758 0.956 1_545 S
H1771 C1758 0.961 1_545 S
H1772 C1758 0.961 . S
H1773 C1759 0.958 . S
H1774 C1759 0.961 . S
H1775 C1759 0.960 . S
C1776 C1777 1.391 . S
C1776 C1778 1.394 . S
C1776 H1792 0.931 . S
C1777 C1776 1.391 . S
C1777 C1781 1.376 . S
C1778 C1776 1.394 . S
C1778 C1779 1.369 . S
C1778 C1782 1.531 . S
C1779 C1778 1.369 . S
C1779 C1780 1.410 . S
C1779 C1787 1.503 . S
C1780 C1779 1.410 . S
C1780 C1781 1.392 . S
C1780 C1783 1.511 . S
C1781 C1777 1.376 . S
C1781 C1780 1.392 . S
C1781 H1793 0.929 . S
C1782 C1778 1.531 . S
C1782 H1794 0.960 . S
C1782 H1795 0.962 . S
C1782 H1796 0.960 . S
C1783 C1780 1.511 . S
C1783 H1797 0.961 . S
C1783 H1798 0.961 . S
C1783 H1799 0.961 . S
C1784 C1785 1.370 . S
C1784 C1786 1.363 . S
C1784 H1800 0.931 . S
C1785 C1784 1.370 . S
C1785 C1789 1.408 . S
C1786 C1784 1.363 . S
C1786 C1787 1.370 . S
C1786 C1790 1.524 . S
C1787 C1779 1.503 . S
C1787 C1786 1.370 . S
C1787 C1788 1.403 . S
C1788 C1787 1.403 . S
C1788 C1789 1.404 . S
C1788 C1791 1.539 . S
C1789 C1785 1.408 . S
C1789 C1788 1.404 . S
C1789 H1801 0.930 . S
C1790 C1786 1.524 . S
C1790 H1802 0.956 . S
C1790 H1803 0.961 . S
C1790 H1804 0.961 . S
C1791 C1788 1.539 . S
C1791 H1805 0.958 . S
C1791 H1806 0.961 . S
C1791 H1807 0.960 . S
H1792 C1776 0.931 . S
H1793 C1781 0.929 . S
H1794 C1782 0.960 . S
H1795 C1782 0.962 . S
H1796 C1782 0.960 . S
H1797 C1783 0.961 . S
H1798 C1783 0.961 . S
H1799 C1783 0.961 . S
H1800 C1784 0.931 . S
H1801 C1789 0.930 . S
H1802 C1790 0.956 . S
H1803 C1790 0.961 . S
H1804 C1790 0.961 . S
H1805 C1791 0.958 . S
H1806 C1791 0.961 . S
H1807 C1791 0.960 . S
C1808 C1809 1.391 . S
C1808 C1810 1.394 . S
C1808 H1824 0.931 . S
C1809 C1808 1.391 . S
C1809 C1813 1.376 . S
C1810 C1808 1.394 . S
C1810 C1811 1.369 . S
C1810 C1814 1.531 . S
C1811 C1810 1.369 . S
C1811 C1812 1.410 . S
C1811 C1819 1.503 . S
C1812 C1811 1.410 . S
C1812 C1813 1.392 . S
C1812 C1815 1.511 . S
C1813 C1809 1.376 . S
C1813 C1812 1.392 . S
C1813 H1825 0.929 . S
C1814 C1810 1.531 . S
C1814 H1826 0.960 . S
C1814 H1827 0.962 . S
C1814 H1828 0.960 . S
C1815 C1812 1.511 . S
C1815 H1829 0.961 1_655 S
C1815 H1830 0.961 . S
C1815 H1831 0.961 . S
C1816 C1817 1.370 . S
C1816 C1818 1.363 . S
C1816 H1832 0.931 . S
C1817 C1816 1.370 . S
C1817 C1821 1.408 . S
C1818 C1816 1.363 . S
C1818 C1819 1.370 . S
C1818 C1822 1.524 . S
C1819 C1811 1.503 . S
C1819 C1818 1.370 . S
C1819 C1820 1.403 . S
C1820 C1819 1.403 . S
C1820 C1821 1.404 . S
C1820 C1823 1.539 . S
C1821 C1817 1.408 . S
C1821 C1820 1.404 . S
C1821 H1833 0.930 . S
C1822 C1818 1.524 . S
C1822 H1834 0.956 . S
C1822 H1835 0.961 . S
C1822 H1836 0.961 . S
C1823 C1820 1.539 . S
C1823 H1837 0.958 . S
C1823 H1838 0.961 . S
C1823 H1839 0.960 . S
H1824 C1808 0.931 . S
H1825 C1813 0.929 . S
H1826 C1814 0.960 . S
H1827 C1814 0.962 . S
H1828 C1814 0.960 . S
H1829 C1815 0.961 1_455 S
H1830 C1815 0.961 . S
H1831 C1815 0.961 . S
H1832 C1816 0.931 . S
H1833 C1821 0.930 . S
H1834 C1822 0.956 . S
H1835 C1822 0.961 . S
H1836 C1822 0.961 . S
H1837 C1823 0.958 . S
H1838 C1823 0.961 . S
H1839 C1823 0.960 . S
C1840 C1841 1.391 . S
C1840 C1842 1.394 . S
C1840 H1856 0.931 . S
C1841 C1840 1.391 . S
C1841 C1845 1.376 . S
C1842 C1840 1.394 . S
C1842 C1843 1.369 . S
C1842 C1846 1.531 . S
C1843 C1842 1.369 . S
C1843 C1844 1.410 . S
C1843 C1851 1.503 . S
C1844 C1843 1.410 . S
C1844 C1845 1.392 . S
C1844 C1847 1.511 . S
C1845 C1841 1.376 . S
C1845 C1844 1.392 . S
C1845 H1857 0.929 . S
C1846 C1842 1.531 . S
C1846 H1858 0.960 . S
C1846 H1859 0.962 . S
C1846 H1860 0.960 . S
C1847 C1844 1.511 . S
C1847 H1861 0.961 . S
C1847 H1862 0.961 . S
C1847 H1863 0.961 . S
C1848 C1849 1.370 . S
C1848 C1850 1.363 . S
C1848 H1864 0.931 . S
C1849 C1848 1.370 . S
C1849 C1853 1.408 . S
C1850 C1848 1.363 . S
C1850 C1851 1.370 . S
C1850 C1854 1.524 . S
C1851 C1843 1.503 . S
C1851 C1850 1.370 . S
C1851 C1852 1.403 . S
C1852 C1851 1.403 . S
C1852 C1853 1.404 . S
C1852 C1855 1.539 . S
C1853 C1849 1.408 . S
C1853 C1852 1.404 . S
C1853 H1865 0.930 . S
C1854 C1850 1.524 . S
C1854 H1866 0.956 . S
C1854 H1867 0.961 . S
C1854 H1868 0.961 . S
C1855 C1852 1.539 . S
C1855 H1869 0.958 . S
C1855 H1870 0.961 . S
C1855 H1871 0.960 . S
H1856 C1840 0.931 . S
H1857 C1845 0.929 . S
H1858 C1846 0.960 . S
H1859 C1846 0.962 . S
H1860 C1846 0.960 . S
H1861 C1847 0.961 . S
H1862 C1847 0.961 . S
H1863 C1847 0.961 . S
H1864 C1848 0.931 . S
H1865 C1853 0.930 . S
H1866 C1854 0.956 . S
H1867 C1854 0.961 . S
H1868 C1854 0.961 . S
H1869 C1855 0.958 . S
H1870 C1855 0.961 . S
H1871 C1855 0.960 . S
C1872 C1873 1.391 . S
C1872 C1874 1.394 . S
C1872 H1888 0.931 . S
C1873 C1872 1.391 . S
C1873 C1877 1.376 . S
C1874 C1872 1.394 . S
C1874 C1875 1.369 . S
C1874 C1878 1.531 . S
C1875 C1874 1.369 . S
C1875 C1876 1.410 . S
C1875 C1883 1.503 . S
C1876 C1875 1.410 . S
C1876 C1877 1.392 . S
C1876 C1879 1.511 . S
C1877 C1873 1.376 . S
C1877 C1876 1.392 . S
C1877 H1889 0.929 . S
C1878 C1874 1.531 . S
C1878 H1890 0.960 . S
C1878 H1891 0.962 . S
C1878 H1892 0.960 . S
C1879 C1876 1.511 . S
C1879 H1893 0.961 . S
C1879 H1894 0.961 . S
C1879 H1895 0.961 . S
C1880 C1881 1.370 . S
C1880 C1882 1.363 . S
C1880 H1896 0.931 . S
C1881 C1880 1.370 . S
C1881 C1885 1.408 . S
C1882 C1880 1.363 . S
C1882 C1883 1.370 . S
C1882 C1886 1.524 . S
C1883 C1875 1.503 . S
C1883 C1882 1.370 . S
C1883 C1884 1.403 . S
C1884 C1883 1.403 . S
C1884 C1885 1.404 . S
C1884 C1887 1.539 . S
C1885 C1881 1.408 . S
C1885 C1884 1.404 . S
C1885 H1897 0.930 . S
C1886 C1882 1.524 . S
C1886 H1898 0.956 . S
C1886 H1899 0.961 . S
C1886 H1900 0.961 . S
C1887 C1884 1.539 . S
C1887 H1901 0.958 . S
C1887 H1902 0.961 . S
C1887 H1903 0.960 . S
H1888 C1872 0.931 . S
H1889 C1877 0.929 . S
H1890 C1878 0.960 . S
H1891 C1878 0.962 . S
H1892 C1878 0.960 . S
H1893 C1879 0.961 . S
H1894 C1879 0.961 . S
H1895 C1879 0.961 . S
H1896 C1880 0.931 . S
H1897 C1885 0.930 . S
H1898 C1886 0.956 . S
H1899 C1886 0.961 . S
H1900 C1886 0.961 . S
H1901 C1887 0.958 . S
H1902 C1887 0.961 . S
H1903 C1887 0.960 . S
C1904 C1905 1.391 . S
C1904 C1906 1.394 . S
C1904 H1920 0.931 . S
C1905 C1904 1.391 . S
C1905 C1909 1.376 . S
C1906 C1904 1.394 . S
C1906 C1907 1.369 . S
C1906 C1910 1.531 . S
C1907 C1906 1.369 . S
C1907 C1908 1.410 . S
C1907 C1915 1.503 . S
C1908 C1907 1.410 . S
C1908 C1909 1.392 . S
C1908 C1911 1.511 . S
C1909 C1905 1.376 . S
C1909 C1908 1.392 . S
C1909 H1921 0.929 . S
C1910 C1906 1.531 . S
C1910 H1922 0.960 . S
C1910 H1923 0.962 . S
C1910 H1924 0.960 . S
C1911 C1908 1.511 . S
C1911 H1925 0.961 . S
C1911 H1926 0.961 . S
C1911 H1927 0.961 . S
C1912 C1913 1.370 . S
C1912 C1914 1.363 . S
C1912 H1928 0.931 . S
C1913 C1912 1.370 . S
C1913 C1917 1.408 . S
C1914 C1912 1.363 . S
C1914 C1915 1.370 . S
C1914 C1918 1.524 . S
C1915 C1907 1.503 . S
C1915 C1914 1.370 . S
C1915 C1916 1.403 . S
C1916 C1915 1.403 . S
C1916 C1917 1.404 . S
C1916 C1919 1.539 . S
C1917 C1913 1.408 . S
C1917 C1916 1.404 . S
C1917 H1929 0.930 . S
C1918 C1914 1.524 . S
C1918 H1930 0.956 . S
C1918 H1931 0.961 . S
C1918 H1932 0.961 . S
C1919 C1916 1.539 . S
C1919 H1933 0.958 . S
C1919 H1934 0.961 . S
C1919 H1935 0.960 . S
H1920 C1904 0.931 . S
H1921 C1909 0.929 . S
H1922 C1910 0.960 . S
H1923 C1910 0.962 . S
H1924 C1910 0.960 . S
H1925 C1911 0.961 . S
H1926 C1911 0.961 . S
H1927 C1911 0.961 . S
H1928 C1912 0.931 . S
H1929 C1917 0.930 . S
H1930 C1918 0.956 . S
H1931 C1918 0.961 . S
H1932 C1918 0.961 . S
H1933 C1919 0.958 . S
H1934 C1919 0.961 . S
H1935 C1919 0.960 . S
C1936 C1937 1.391 . S
C1936 C1938 1.394 . S
C1936 H1952 0.931 . S
C1937 C1936 1.391 . S
C1937 C1941 1.376 . S
C1938 C1936 1.394 . S
C1938 C1939 1.369 . S
C1938 C1942 1.531 . S
C1939 C1938 1.369 . S
C1939 C1940 1.410 . S
C1939 C1947 1.503 . S
C1940 C1939 1.410 . S
C1940 C1941 1.392 . S
C1940 C1943 1.511 . S
C1941 C1937 1.376 . S
C1941 C1940 1.392 . S
C1941 H1953 0.929 . S
C1942 C1938 1.531 . S
C1942 H1954 0.960 . S
C1942 H1955 0.962 . S
C1942 H1956 0.960 . S
C1943 C1940 1.511 . S
C1943 H1957 0.961 . S
C1943 H1958 0.961 . S
C1943 H1959 0.961 . S
C1944 C1945 1.370 . S
C1944 C1946 1.363 . S
C1944 H1960 0.931 . S
C1945 C1944 1.370 . S
C1945 C1949 1.408 . S
C1946 C1944 1.363 . S
C1946 C1947 1.370 . S
C1946 C1950 1.524 . S
C1947 C1939 1.503 . S
C1947 C1946 1.370 . S
C1947 C1948 1.403 . S
C1948 C1947 1.403 . S
C1948 C1949 1.404 . S
C1948 C1951 1.539 . S
C1949 C1945 1.408 . S
C1949 C1948 1.404 . S
C1949 H1961 0.930 . S
C1950 C1946 1.524 . S
C1950 H1962 0.956 . S
C1950 H1963 0.961 . S
C1950 H1964 0.961 . S
C1951 C1948 1.539 . S
C1951 H1965 0.958 . S
C1951 H1966 0.961 . S
C1951 H1967 0.960 . S
H1952 C1936 0.931 . S
H1953 C1941 0.929 . S
H1954 C1942 0.960 . S
H1955 C1942 0.962 . S
H1956 C1942 0.960 . S
H1957 C1943 0.961 . S
H1958 C1943 0.961 . S
H1959 C1943 0.961 . S
H1960 C1944 0.931 . S
H1961 C1949 0.930 . S
H1962 C1950 0.956 . S
H1963 C1950 0.961 . S
H1964 C1950 0.961 . S
H1965 C1951 0.958 . S
H1966 C1951 0.961 . S
H1967 C1951 0.960 . S
C1968 C1969 1.391 . S
C1968 C1970 1.394 . S
C1968 H1984 0.931 . S
C1969 C1968 1.391 . S
C1969 C1973 1.376 . S
C1970 C1968 1.394 . S
C1970 C1971 1.369 . S
C1970 C1974 1.531 . S
C1971 C1970 1.369 . S
C1971 C1972 1.410 . S
C1971 C1979 1.503 1_455 S
C1972 C1971 1.410 . S
C1972 C1973 1.392 . S
C1972 C1975 1.511 . S
C1973 C1969 1.376 . S
C1973 C1972 1.392 . S
C1973 H1985 0.929 . S
C1974 C1970 1.531 . S
C1974 H1986 0.961 . S
C1974 H1987 0.958 1_554 S
C1974 H1988 0.960 1_554 S
C1975 C1972 1.511 . S
C1975 H1989 0.961 . S
C1975 H1990 0.961 1_455 S
C1975 H1991 0.947 1_455 S
C1976 C1977 1.370 . S
C1976 C1978 1.363 . S
C1976 H1992 0.931 . S
C1977 C1976 1.370 . S
C1977 C1981 1.408 . S
C1978 C1976 1.363 . S
C1978 C1979 1.370 . S
C1978 C1982 1.524 1_655 S
C1979 C1971 1.503 1_655 S
C1979 C1978 1.370 . S
C1979 C1980 1.403 . S
C1980 C1979 1.403 . S
C1980 C1981 1.404 . S
C1980 C1983 1.539 . S
C1981 C1977 1.408 . S
C1981 C1980 1.404 . S
C1981 H1993 0.930 . S
C1982 C1978 1.524 1_455 S
C1982 H1994 0.956 . S
C1982 H1995 0.961 . S
C1982 H1996 0.961 . S
C1983 C1980 1.539 . S
C1983 H1997 0.958 . S
C1983 H1998 0.961 . S
C1983 H1999 0.960 . S
H1984 C1968 0.931 . S
H1985 C1973 0.929 . S
H1986 C1974 0.961 . S
H1987 C1974 0.958 1_556 S
H1988 C1974 0.960 1_556 S
H1989 C1975 0.961 . S
H1990 C1975 0.961 1_655 S
H1991 C1975 0.947 1_655 S
H1992 C1976 0.931 . S
H1993 C1981 0.930 . S
H1994 C1982 0.956 . S
H1995 C1982 0.961 . S
H1996 C1982 0.961 . S
H1997 C1983 0.958 . S
H1998 C1983 0.961 . S
H1999 C1983 0.960 . S
C2000 C2001 1.391 . S
C2000 C2002 1.394 . S
C2000 H2016 0.931 . S
C2001 C2000 1.391 . S
C2001 C2005 1.376 . S
C2002 C2000 1.394 . S
C2002 C2003 1.369 . S
C2002 C2006 1.531 . S
C2003 C2002 1.369 . S
C2003 C2004 1.410 . S
C2003 C2011 1.503 . S
C2004 C2003 1.410 . S
C2004 C2005 1.392 . S
C2004 C2007 1.511 . S
C2005 C2001 1.376 . S
C2005 C2004 1.392 . S
C2005 H2017 0.929 . S
C2006 C2002 1.531 . S
C2006 H2018 0.960 . S
C2006 H2019 0.962 . S
C2006 H2020 0.960 . S
C2007 C2004 1.511 . S
C2007 H2021 0.961 . S
C2007 H2022 0.961 . S
C2007 H2023 0.961 . S
C2008 C2009 1.370 . S
C2008 C2010 1.363 . S
C2008 H2024 0.931 . S
C2009 C2008 1.370 . S
C2009 C2013 1.408 . S
C2010 C2008 1.363 . S
C2010 C2011 1.370 . S
C2010 C2014 1.524 . S
C2011 C2003 1.503 . S
C2011 C2010 1.370 . S
C2011 C2012 1.403 . S
C2012 C2011 1.403 . S
C2012 C2013 1.404 . S
C2012 C2015 1.539 . S
C2013 C2009 1.408 . S
C2013 C2012 1.404 . S
C2013 H2025 0.930 . S
C2014 C2010 1.524 . S
C2014 H2026 0.956 . S
C2014 H2027 0.961 . S
C2014 H2028 0.961 . S
C2015 C2012 1.539 . S
C2015 H2029 0.958 . S
C2015 H2030 0.961 . S
C2015 H2031 0.960 . S
H2016 C2000 0.931 . S
H2017 C2005 0.929 . S
H2018 C2006 0.960 . S
H2019 C2006 0.962 . S
H2020 C2006 0.960 . S
H2021 C2007 0.961 . S
H2022 C2007 0.961 . S
H2023 C2007 0.961 . S
H2024 C2008 0.931 . S
H2025 C2013 0.930 . S
H2026 C2014 0.956 . S
H2027 C2014 0.961 . S
H2028 C2014 0.961 . S
H2029 C2015 0.958 . S
H2030 C2015 0.961 . S
H2031 C2015 0.960 . S
C2032 C2033 1.391 . S
C2032 C2034 1.394 . S
C2032 H2048 0.931 . S
C2033 C2032 1.391 . S
C2033 C2037 1.376 . S
C2034 C2032 1.394 . S
C2034 C2035 1.369 . S
C2034 C2038 1.531 . S
C2035 C2034 1.369 . S
C2035 C2036 1.410 . S
C2035 C2043 1.503 . S
C2036 C2035 1.410 . S
C2036 C2037 1.392 . S
C2036 C2039 1.511 . S
C2037 C2033 1.376 . S
C2037 C2036 1.392 . S
C2037 H2049 0.929 . S
C2038 C2034 1.531 . S
C2038 H2050 0.960 . S
C2038 H2051 0.962 . S
C2038 H2052 0.960 . S
C2039 C2036 1.511 . S
C2039 H2053 0.961 . S
C2039 H2054 0.961 . S
C2039 H2055 0.961 . S
C2040 C2041 1.370 . S
C2040 C2042 1.363 . S
C2040 H2056 0.931 . S
C2041 C2040 1.370 . S
C2041 C2045 1.408 . S
C2042 C2040 1.363 . S
C2042 C2043 1.370 . S
C2042 C2046 1.524 . S
C2043 C2035 1.503 . S
C2043 C2042 1.370 . S
C2043 C2044 1.403 . S
C2044 C2043 1.403 . S
C2044 C2045 1.404 . S
C2044 C2047 1.539 . S
C2045 C2041 1.408 . S
C2045 C2044 1.404 . S
C2045 H2057 0.930 . S
C2046 C2042 1.524 . S
C2046 H2058 0.956 . S
C2046 H2059 0.961 . S
C2046 H2060 0.961 . S
C2047 C2044 1.539 . S
C2047 H2061 0.958 . S
C2047 H2062 0.961 . S
C2047 H2063 0.960 . S
H2048 C2032 0.931 . S
H2049 C2037 0.929 . S
H2050 C2038 0.960 . S
H2051 C2038 0.962 . S
H2052 C2038 0.960 . S
H2053 C2039 0.961 . S
H2054 C2039 0.961 . S
H2055 C2039 0.961 . S
H2056 C2040 0.931 . S
H2057 C2045 0.930 . S
H2058 C2046 0.956 . S
H2059 C2046 0.961 . S
H2060 C2046 0.961 . S
H2061 C2047 0.958 . S
H2062 C2047 0.961 . S
H2063 C2047 0.960 . S
C2064 C2065 1.391 . S
C2064 C2066 1.394 . S
C2064 H2080 0.931 . S
C2065 C2064 1.391 . S
C2065 C2069 1.376 . S
C2066 C2064 1.394 . S
C2066 C2067 1.369 . S
C2066 C2070 1.531 . S
C2067 C2066 1.369 . S
C2067 C2068 1.410 . S
C2067 C2075 1.503 . S
C2068 C2067 1.410 . S
C2068 C2069 1.392 . S
C2068 C2071 1.511 . S
C2069 C2065 1.376 . S
C2069 C2068 1.392 . S
C2069 H2081 0.929 . S
C2070 C2066 1.531 . S
C2070 H2082 0.960 . S
C2070 H2083 0.962 . S
C2070 H2084 0.960 . S
C2071 C2068 1.511 . S
C2071 H2085 0.961 . S
C2071 H2086 0.961 . S
C2071 H2087 0.961 . S
C2072 C2073 1.370 . S
C2072 C2074 1.363 . S
C2072 H2088 0.931 . S
C2073 C2072 1.370 . S
C2073 C2077 1.408 . S
C2074 C2072 1.363 . S
C2074 C2075 1.370 . S
C2074 C2078 1.524 . S
C2075 C2067 1.503 . S
C2075 C2074 1.370 . S
C2075 C2076 1.403 . S
C2076 C2075 1.403 . S
C2076 C2077 1.404 . S
C2076 C2079 1.539 . S
C2077 C2073 1.408 . S
C2077 C2076 1.404 . S
C2077 H2089 0.930 . S
C2078 C2074 1.524 . S
C2078 H2090 0.956 . S
C2078 H2091 0.961 . S
C2078 H2092 0.961 . S
C2079 C2076 1.539 . S
C2079 H2093 0.958 . S
C2079 H2094 0.961 . S
C2079 H2095 0.960 . S
H2080 C2064 0.931 . S
H2081 C2069 0.929 . S
H2082 C2070 0.960 . S
H2083 C2070 0.962 . S
H2084 C2070 0.960 . S
H2085 C2071 0.961 . S
H2086 C2071 0.961 . S
H2087 C2071 0.961 . S
H2088 C2072 0.931 . S
H2089 C2077 0.930 . S
H2090 C2078 0.956 . S
H2091 C2078 0.961 . S
H2092 C2078 0.961 . S
H2093 C2079 0.958 . S
H2094 C2079 0.961 . S
H2095 C2079 0.960 . S
C2096 C2097 1.391 . S
C2096 C2098 1.394 . S
C2096 H2112 0.931 . S
C2097 C2096 1.391 . S
C2097 C2101 1.376 . S
C2098 C2096 1.394 . S
C2098 C2099 1.369 . S
C2098 C2102 1.531 . S
C2099 C2098 1.369 . S
C2099 C2100 1.410 . S
C2099 C2107 1.503 . S
C2100 C2099 1.410 . S
C2100 C2101 1.392 . S
C2100 C2103 1.516 . S
C2101 C2097 1.376 . S
C2101 C2100 1.392 . S
C2101 H2113 0.950 . S
C2102 C2098 1.531 . S
C2102 H2114 0.960 . S
C2102 H2115 0.962 . S
C2102 H2116 0.960 . S
C2103 C2100 1.516 . S
C2103 H2117 0.956 1_556 S
C2103 H2118 0.964 . S
C2103 H2119 0.956 1_556 S
C2104 C2105 1.370 . S
C2104 C2106 1.363 . S
C2104 H2120 0.931 . S
C2105 C2104 1.370 . S
C2105 C2109 1.408 . S
C2106 C2104 1.363 . S
C2106 C2107 1.370 . S
C2106 C2110 1.524 . S
C2107 C2099 1.503 . S
C2107 C2106 1.370 . S
C2107 C2108 1.403 . S
C2108 C2107 1.403 . S
C2108 C2109 1.404 . S
C2108 C2111 1.539 . S
C2109 C2105 1.408 . S
C2109 C2108 1.404 . S
C2109 H2121 0.930 . S
C2110 C2106 1.524 . S
C2110 H2122 0.956 . S
C2110 H2123 0.961 . S
C2110 H2124 0.961 . S
C2111 C2108 1.539 . S
C2111 H2125 0.958 . S
C2111 H2126 0.961 . S
C2111 H2127 0.960 . S
H2112 C2096 0.931 . S
H2113 C2101 0.950 . S
H2114 C2102 0.960 . S
H2115 C2102 0.962 . S
H2116 C2102 0.960 . S
H2117 C2103 0.956 1_554 S
H2118 C2103 0.964 . S
H2119 C2103 0.956 1_554 S
H2120 C2104 0.931 . S
H2121 C2109 0.930 . S
H2122 C2110 0.956 . S
H2123 C2110 0.961 . S
H2124 C2110 0.961 . S
H2125 C2111 0.958 . S
H2126 C2111 0.961 . S
H2127 C2111 0.960 . S
C2128 C2129 1.391 . S
C2128 C2130 1.394 . S
C2128 H2144 0.931 . S
C2129 C2128 1.391 . S
C2129 C2133 1.376 . S
C2130 C2128 1.394 . S
C2130 C2131 1.369 . S
C2130 C2134 1.531 . S
C2131 C2130 1.369 . S
C2131 C2132 1.410 . S
C2131 C2139 1.484 1_655 S
C2132 C2131 1.410 . S
C2132 C2133 1.392 . S
C2132 C2135 1.511 . S
C2133 C2129 1.376 . S
C2133 C2132 1.392 . S
C2133 H2145 0.929 . S
C2134 C2130 1.531 . S
C2134 H2146 0.960 . S
C2134 H2147 0.962 . S
C2134 H2148 0.960 . S
C2135 C2132 1.511 . S
C2135 H2149 0.961 . S
C2135 H2150 0.961 1_655 S
C2135 H2151 0.961 . S
C2136 C2137 1.370 . S
C2136 C2138 1.363 . S
C2136 H2152 0.931 . S
C2137 C2136 1.370 . S
C2137 C2141 1.408 . S
C2138 C2136 1.363 . S
C2138 C2139 1.374 . S
C2138 C2142 1.524 1_455 S
C2139 C2131 1.484 1_455 S
C2139 C2138 1.374 . S
C2139 C2140 1.419 . S
C2140 C2139 1.419 . S
C2140 C2141 1.404 . S
C2140 C2143 1.539 . S
C2141 C2137 1.408 . S
C2141 C2140 1.404 . S
C2141 H2153 0.930 . S
C2142 C2138 1.524 1_655 S
C2142 H2154 0.956 . S
C2142 H2155 0.961 . S
C2142 H2156 0.961 . S
C2143 C2140 1.539 . S
C2143 H2157 0.958 . S
C2143 H2158 0.961 . S
C2143 H2159 0.960 . S
H2144 C2128 0.931 . S
H2145 C2133 0.929 . S
H2146 C2134 0.960 . S
H2147 C2134 0.962 . S
H2148 C2134 0.960 . S
H2149 C2135 0.961 . S
H2150 C2135 0.961 1_455 S
H2151 C2135 0.961 . S
H2152 C2136 0.931 . S
H2153 C2141 0.930 . S
H2154 C2142 0.956 . S
H2155 C2142 0.961 . S
H2156 C2142 0.961 . S
H2157 C2143 0.958 . S
H2158 C2143 0.961 . S
H2159 C2143 0.960 . S
C1009 C56 1.603 . S
C1017 C979 1.660 . S
C1041 C811 1.708 . S
C1049 C140 1.655 . S
C1073 C223 1.656 . S
C1081 C728 1.633 . S
C1105 C308 1.686 . S
C1113 C895 1.709 . S
C1137 C392 1.634 . S
C1145 C896 1.652 . S
C1169 C475 1.692 . S
C1177 C980 1.655 . S
C1201 C812 1.686 . S
C1209 C560 1.677 . S
C1233 C643 1.654 . S
C1241 C727 1.660 . S
C1265 C307 1.665 . S
C1273 C391 1.670 . S
C1297 C55 1.686 . S
C1305 C476 1.643 . S
C1329 C139 1.679 . S
C1337 C559 1.668 . S
C1361 C644 1.700 . S
C1369 C224 1.690 . S
C1393 C70 1.460 . S
C1401 C740 1.642 . S
C1425 C154 1.431 . S
C1433 C907 1.656 . S
C1457 C991 1.664 . S
C1465 C226 1.640 . S
C1489 C322 1.363 . S
C1497 C823 1.614 . S
C1521 C406 1.350 . S
C1529 C824 1.644 . S
C1553 C739 1.651 . S
C1561 C478 1.606 . S
C1585 C908 1.649 . S
C1593 C574 1.407 . S
C1617 C992 1.692 . S
C1625 C646 1.650 . S
C1649 C67 1.653 . S
C1657 C310 1.625 . S
C1681 C58 1.571 . S
C1689 C151 1.600 . S
C1713 C142 1.638 . S
C1721 C236 1.657 . S
C1745 C319 1.562 . S
C1753 C238 1.401 . S
C1777 C490 1.455 . S
C1785 C403 1.644 . S
C1809 C488 1.684 . S
C1817 C562 1.626 . S
C1841 C571 1.623 . S
C1849 C658 1.446 . S
C1873 C394 1.618 . S
C1881 C656 1.671 . S
C1905 C730 1.594 . S
C1913 C320 1.615 . S
C1937 C487 1.583 . S
C1945 C814 1.587 . S
C1969 C742 1.345 . S
C1977 C572 1.630 . S
C2001 C898 1.617 . S
C2009 C655 1.637 . S
C2033 C404 1.640 . S
C2041 C982 1.613 . S
C2065 C994 1.432 . S
C2073 C152 1.647 . S
C2097 C235 1.654 . S
C2105 C826 1.412 . S
C2129 C910 1.384 . S
C2137 C68 1.666 . S
