# Generated by pormake.
# Topology ung, (4)-cn, num edge types: 1
# Building blocks:
#     Node 0, Type 0, BuildingBlock: MUDLON_clean_sbu_0, # of connection points: 4
#     Node 1, Type 0, BuildingBlock: MUDLON_clean_sbu_0, # of connection points: 4
#     Node 2, Type 0, BuildingBlock: MUDLON_clean_sbu_0, # of connection points: 4
#     Node 3, Type 0, BuildingBlock: MUDLON_clean_sbu_0, # of connection points: 4
#     Node 4, Type 0, BuildingBlock: MUDLON_clean_sbu_0, # of connection points: 4
#     Node 5, Type 0, BuildingBlock: MUDLON_clean_sbu_0, # of connection points: 4
#     Node 6, Type 0, BuildingBlock: MUDLON_clean_sbu_0, # of connection points: 4
#     Node 7, Type 0, BuildingBlock: MUDLON_clean_sbu_0, # of connection points: 4
#     Node 8, Type 0, BuildingBlock: MUDLON_clean_sbu_0, # of connection points: 4
#     Node 9, Type 0, BuildingBlock: MUDLON_clean_sbu_0, # of connection points: 4
#     Node 10, Type 0, BuildingBlock: MUDLON_clean_sbu_0, # of connection points: 4
#     Node 11, Type 0, BuildingBlock: MUDLON_clean_sbu_0, # of connection points: 4
#     Node 12, Type 0, BuildingBlock: MUDLON_clean_sbu_0, # of connection points: 4
#     Node 13, Type 0, BuildingBlock: MUDLON_clean_sbu_0, # of connection points: 4
#     Node 14, Type 0, BuildingBlock: MUDLON_clean_sbu_0, # of connection points: 4
#     Node 15, Type 0, BuildingBlock: MUDLON_clean_sbu_0, # of connection points: 4
#     Node 16, Type 0, BuildingBlock: MUDLON_clean_sbu_0, # of connection points: 4
#     Node 17, Type 0, BuildingBlock: MUDLON_clean_sbu_0, # of connection points: 4
#     Edge 18, Type (0, 0), BuildingBlock: TEMPAE_clean_linker_10, # of connection points: 2
#     Edge 19, Type (0, 0), BuildingBlock: TEMPAE_clean_linker_10, # of connection points: 2
#     Edge 20, Type (0, 0), BuildingBlock: TEMPAE_clean_linker_10, # of connection points: 2
#     Edge 21, Type (0, 0), BuildingBlock: TEMPAE_clean_linker_10, # of connection points: 2
#     Edge 22, Type (0, 0), BuildingBlock: TEMPAE_clean_linker_10, # of connection points: 2
#     Edge 23, Type (0, 0), BuildingBlock: TEMPAE_clean_linker_10, # of connection points: 2
#     Edge 24, Type (0, 0), BuildingBlock: TEMPAE_clean_linker_10, # of connection points: 2
#     Edge 25, Type (0, 0), BuildingBlock: TEMPAE_clean_linker_10, # of connection points: 2
#     Edge 26, Type (0, 0), BuildingBlock: TEMPAE_clean_linker_10, # of connection points: 2
#     Edge 27, Type (0, 0), BuildingBlock: TEMPAE_clean_linker_10, # of connection points: 2
#     Edge 28, Type (0, 0), BuildingBlock: TEMPAE_clean_linker_10, # of connection points: 2
#     Edge 29, Type (0, 0), BuildingBlock: TEMPAE_clean_linker_10, # of connection points: 2
#     Edge 30, Type (0, 0), BuildingBlock: TEMPAE_clean_linker_10, # of connection points: 2
#     Edge 31, Type (0, 0), BuildingBlock: TEMPAE_clean_linker_10, # of connection points: 2
#     Edge 32, Type (0, 0), BuildingBlock: TEMPAE_clean_linker_10, # of connection points: 2
#     Edge 33, Type (0, 0), BuildingBlock: TEMPAE_clean_linker_10, # of connection points: 2
#     Edge 34, Type (0, 0), BuildingBlock: TEMPAE_clean_linker_10, # of connection points: 2
#     Edge 35, Type (0, 0), BuildingBlock: TEMPAE_clean_linker_10, # of connection points: 2
#     Edge 36, Type (0, 0), BuildingBlock: TEMPAE_clean_linker_10, # of connection points: 2
#     Edge 37, Type (0, 0), BuildingBlock: TEMPAE_clean_linker_10, # of connection points: 2
#     Edge 38, Type (0, 0), BuildingBlock: TEMPAE_clean_linker_10, # of connection points: 2
#     Edge 39, Type (0, 0), BuildingBlock: TEMPAE_clean_linker_10, # of connection points: 2
#     Edge 40, Type (0, 0), BuildingBlock: TEMPAE_clean_linker_10, # of connection points: 2
#     Edge 41, Type (0, 0), BuildingBlock: TEMPAE_clean_linker_10, # of connection points: 2
#     Edge 42, Type (0, 0), BuildingBlock: TEMPAE_clean_linker_10, # of connection points: 2
#     Edge 43, Type (0, 0), BuildingBlock: TEMPAE_clean_linker_10, # of connection points: 2
#     Edge 44, Type (0, 0), BuildingBlock: TEMPAE_clean_linker_10, # of connection points: 2
#     Edge 45, Type (0, 0), BuildingBlock: TEMPAE_clean_linker_10, # of connection points: 2
#     Edge 46, Type (0, 0), BuildingBlock: TEMPAE_clean_linker_10, # of connection points: 2
#     Edge 47, Type (0, 0), BuildingBlock: TEMPAE_clean_linker_10, # of connection points: 2
#     Edge 48, Type (0, 0), BuildingBlock: TEMPAE_clean_linker_10, # of connection points: 2
#     Edge 49, Type (0, 0), BuildingBlock: TEMPAE_clean_linker_10, # of connection points: 2
#     Edge 50, Type (0, 0), BuildingBlock: TEMPAE_clean_linker_10, # of connection points: 2
#     Edge 51, Type (0, 0), BuildingBlock: TEMPAE_clean_linker_10, # of connection points: 2
#     Edge 52, Type (0, 0), BuildingBlock: TEMPAE_clean_linker_10, # of connection points: 2
#     Edge 53, Type (0, 0), BuildingBlock: TEMPAE_clean_linker_10, # of connection points: 2
# Relax obj value: 0.034
# Max RMSD: 0.246
# Mean RMSD: 0.245
data_MOF--net-ung--node1-MUDLON_clean_sbu_0--edge1-TEMPAE_clean_linker_10
_symmetry_space_group_name_H-M    P1
_symmetry_Int_Tables_number       1
_symmetry_cell_setting            triclinic
loop_
_symmetry_equiv_pos_as_xyz
'x, y, z'
_cell_length_a     78.122899
_cell_length_b     79.110837
_cell_length_c     23.80301
_cell_angle_alpha  89.670365
_cell_angle_beta   90.600017
_cell_angle_gamma 121.20553
loop_
_atom_site_label
_atom_site_type_symbol
_atom_site_fract_x
_atom_site_fract_y
_atom_site_fract_z
_atom_type_partial_charge
Mg0 Mg 0.0421 0.64575 0.26321 0.0
C1 C 0.02753 0.60811 0.33667 0.0
O2 O 0.01942 0.59829 0.28996 0.0
C3 C 1.0056 0.64222 0.20208 0.0
O4 O 1.00438 0.62643 0.18011 0.0
C5 C 0.0532 0.62056 0.19201 0.0
O6 O 0.05976 0.61795 0.24042 0.0
O7 O 0.04673 0.63235 0.1894 0.0
O8 O 0.0362 0.62686 0.33648 0.0
O9 O 0.06667 0.67452 0.29132 0.0
C10 C 0.06208 0.67946 0.33706 0.0
O11 O 0.0446 0.66706 0.35925 0.0
O12 O 0.01871 0.65178 0.23997 0.0
Mg13 Mg 0.47775 0.51142 0.27266 0.0
C14 C 0.44546 0.49791 0.35462 0.0
O15 O 0.45896 0.49515 0.37916 0.0
C16 C 0.50323 0.53031 0.17398 0.0
O17 O 0.50737 0.51682 0.18922 0.0
C18 C 0.46091 0.47752 0.1968 0.0
O19 O 0.45483 0.48908 0.1769 0.0
O20 O 0.47187 0.48301 0.24085 0.0
O21 O 0.44916 0.50559 0.30573 0.0
O22 O 0.49895 0.52421 0.34271 0.0
C23 C 0.51108 0.54283 0.34292 0.0
O24 O 0.51149 0.55321 0.29913 0.0
O25 O 0.49027 0.53186 0.20181 0.0
Mg26 Mg 0.60913 0.07721 0.26203 0.0
C27 C 0.59401 0.07624 0.14387 0.0
O28 O 0.61335 0.08776 0.13605 0.0
C29 C 0.62254 0.05866 0.34542 0.0
O30 O 0.62658 0.07535 0.36888 0.0
C31 C 0.58189 0.06985 0.35594 0.0
O32 O 0.5773 0.05209 0.34005 0.0
O33 O 0.59568 0.08475 0.32995 0.0
O34 O 0.58783 0.06837 0.19196 0.0
O35 O 0.63781 0.10145 0.23075 0.0
C36 C 0.652 0.09819 0.22381 0.0
O37 O 0.64956 0.08129 0.241 0.0
O38 O 0.61424 0.05445 0.29699 0.0
Mg39 Mg 0.04665 0.51671 0.76409 0.0
C40 C 0.03792 0.53804 0.68081 0.0
O41 O 0.02255 0.5297 0.71485 0.0
C42 C 0.06357 0.49988 0.83784 0.0
O43 O 0.04601 0.49497 0.8582 0.0
C44 C 0.02991 0.52757 0.87012 0.0
O45 O 0.01394 0.50972 0.86835 0.0
O46 O 0.04346 0.53272 0.83351 0.0
O47 O 0.05264 0.53575 0.69111 0.0
O48 O 0.02172 0.48803 0.73631 0.0
C49 C 0.02574 0.48362 0.68878 0.0
O50 O 0.04283 0.4964 0.66532 0.0
O51 O 0.06938 0.5104 0.79344 0.0
Mg52 Mg 0.61019 0.64974 0.77311 0.0
C53 C 0.58938 0.61913 0.68691 0.0
O54 O 0.60105 0.61418 0.71305 0.0
C55 C 0.63054 0.69319 0.80184 0.0
O56 O 0.64572 0.69247 0.78158 0.0
C57 C 0.57885 0.61978 0.84766 0.0
O58 O 0.56843 0.62182 0.80737 0.0
O59 O 0.59788 0.62976 0.84497 0.0
O60 O 0.58939 0.63443 0.70346 0.0
O61 O 0.63939 0.65565 0.74387 0.0
C62 C 0.6424 0.65815 0.69113 0.0
O63 O 0.62822 0.65708 0.65848 0.0
O64 O 0.61324 0.67758 0.80061 0.0
Mg65 Mg 0.47835 0.08242 0.75954 0.0
C66 C 0.50073 0.07344 0.84073 0.0
O67 O 0.49006 0.05723 0.81107 0.0
C68 C 0.46507 0.10206 0.68198 0.0
O69 O 0.45928 0.08474 0.65962 0.0
C70 C 0.50869 0.08337 0.68406 0.0
O71 O 0.51954 0.09668 0.72232 0.0
O72 O 0.48971 0.07382 0.68858 0.0
O73 O 0.49925 0.08837 0.82898 0.0
O74 O 0.44913 0.06001 0.79199 0.0
C75 C 0.44553 0.06442 0.84006 0.0
O76 O 0.45934 0.08098 0.86368 0.0
O77 O 0.47477 0.10648 0.72828 0.0
Mg78 Mg 0.71015 0.97894 0.60012 0.0
C79 C 0.71952 0.959 0.68708 0.0
O80 O 0.73657 0.97128 0.66252 0.0
C81 C 0.69219 0.99491 0.52629 0.0
O82 O 0.71058 1.00204 0.50869 0.0
C83 C 0.70844 0.94807 0.52674 0.0
O84 O 0.69543 0.93788 0.56617 0.0
O85 O 0.71815 0.96687 0.52971 0.0
O86 O 0.70381 0.95862 0.67006 0.0
O87 O 0.73325 0.0078 0.63221 0.0
C88 C 0.7269 0.01375 0.67202 0.0
O89 O 0.70821 1.00237 0.68771 0.0
O90 O 0.68631 0.98321 0.56823 0.0
Mg91 Mg 0.14222 0.84626 0.59433 0.0
C92 C 0.1089 0.8286 0.67328 0.0
O93 O 0.12237 0.82514 0.69471 0.0
C94 C 0.17205 0.88031 0.52443 0.0
O95 O 0.18305 0.88176 0.56836 0.0
C96 C 0.12899 0.81406 0.51423 0.0
O97 O 0.12314 0.82568 0.49332 0.0
O98 O 0.13869 0.819 0.56055 0.0
O99 O 0.11282 0.83803 0.62703 0.0
O100 O 0.16289 0.86014 0.66505 0.0
C101 C 0.16033 0.87262 0.69142 0.0
O102 O 0.146 0.87554 0.67444 0.0
O103 O 0.15349 0.86714 0.52432 0.0
Mg104 Mg 0.2737 0.40898 0.60365 0.0
C105 C 0.24229 0.40983 0.67141 0.0
O106 O 0.23172 0.39778 0.63032 0.0
C107 C 0.30952 0.42526 0.53413 0.0
O108 O 0.29773 0.40709 0.51603 0.0
C109 C 0.25705 0.41767 0.50374 0.0
O110 O 0.27135 0.43512 0.5213 0.0
O111 O 0.25409 0.4024 0.5305 0.0
O112 O 0.26126 0.418 0.67077 0.0
O113 O 0.27646 0.38467 0.63765 0.0
C114 C 0.28016 0.38562 0.69021 0.0
O115 O 0.28103 0.40016 0.71908 0.0
O116 O 0.30351 0.43129 0.57462 0.0
Mg117 Mg 0.7104 0.84758 0.10028 0.0
C118 C 0.71809 0.87272 0.19905 0.0
O119 O 0.73596 0.87712 0.18281 0.0
C120 C 0.67477 0.81603 0.02963 0.0
O121 O 0.67422 0.83132 1.01018 0.0
C122 C 0.71853 0.86566 0.98155 0.0
O123 O 0.71543 0.84834 0.96648 0.0
O124 O 0.71857 0.86937 0.0335 0.0
O125 O 0.70287 0.85966 0.17169 0.0
O126 O 0.73403 0.84286 0.13126 0.0
C127 C 0.72865 0.83173 0.17443 0.0
O128 O 0.71056 0.82501 0.19393 0.0
O129 O 0.68701 0.81861 0.06915 0.0
Mg130 Mg 0.27605 0.98289 0.09726 0.0
C131 C 0.24591 0.96069 0.18304 0.0
O132 O 0.23961 0.97115 0.15677 0.0
C133 C 0.31023 0.9995 0.02279 0.0
O134 O 0.29833 1.00534 1.00323 0.0
C135 C 0.24652 0.95104 0.02272 0.0
O136 O 0.24963 0.94131 0.06244 0.0
O137 O 0.25549 0.9698 0.02604 0.0
O138 O 0.26211 0.96213 0.16685 0.0
O139 O 0.28125 0.01142 0.12686 0.0
C140 C 0.28349 0.01452 0.17967 0.0
O141 O 0.28217 1.00058 0.21284 0.0
O142 O 0.3048 0.98859 0.06644 0.0
Mg143 Mg 0.14091 0.41096 0.09851 0.0
C144 C 0.17235 0.41076 0.16993 0.0
O145 O 0.17084 0.39952 0.12746 0.0
C146 C 0.12587 0.42923 0.02116 0.0
O147 O 0.12029 0.41186 0.99946 0.0
C148 C 0.16743 0.41939 1.0019 0.0
O149 O 0.17211 0.43695 0.01999 0.0
O150 O 0.1538 0.4042 0.0273 0.0
O151 O 0.16176 0.41873 0.16932 0.0
O152 O 0.11161 0.3872 0.12683 0.0
C153 C 0.10967 0.37704 0.1706 0.0
O154 O 0.1258 0.37944 0.19595 0.0
O155 O 0.13578 0.43405 0.06716 0.0
Mg156 Mg 0.37595 0.31265 0.92878 0.0
C157 C 0.36618 0.27612 0.99701 0.0
O158 O 0.37037 0.27098 0.94909 0.0
C159 C 0.3367 0.31226 0.89131 0.0
O160 O 0.32622 0.29434 0.91226 0.0
C161 C 0.36966 0.28958 0.8243 0.0
O162 O 0.35226 0.28806 0.83121 0.0
O163 O 0.38369 0.29982 0.85937 0.0
O164 O 0.36568 0.29193 0.99926 0.0
O165 O 0.40031 0.34003 0.96518 0.0
C166 C 0.39523 0.34423 1.01131 0.0
O167 O 0.37726 0.33183 0.03067 0.0
O168 O 0.3557 0.32162 0.89486 0.0
Mg169 Mg 0.81139 0.18009 0.93589 0.0
C170 C 0.76647 0.16081 0.95623 0.0
O171 O 0.76568 0.14761 0.92139 0.0
C172 C 0.84377 0.20419 0.85753 0.0
O173 O 0.8511 0.19628 0.89143 0.0
C174 C 0.79999 0.14818 0.85372 0.0
O175 O 0.79937 0.16214 0.8253 0.0
O176 O 0.80533 0.15138 0.90525 0.0
O177 O 0.78327 0.17646 0.96571 0.0
O178 O 0.83136 0.19316 1.00837 0.0
C179 C 0.83322 0.20959 0.02208 0.0
O180 O 0.82382 0.21621 0.99144 0.0
O181 O 0.82614 0.20061 0.86643 0.0
Mg182 Mg 0.93972 0.73998 0.93532 0.0
C183 C 0.92299 0.74808 0.83404 0.0
O184 O 0.93824 0.76554 0.8478 0.0
C185 C 0.94336 0.71255 0.01755 0.0
O186 O 0.94006 0.72325 0.05271 0.0
C187 C 0.90983 0.73386 0.01971 0.0
O188 O 0.90228 0.71654 0.99535 0.0
O189 O 0.92663 0.74807 1.00296 0.0
O190 O 0.91947 0.73318 0.86376 0.0
O191 O 0.96922 0.76263 0.90501 0.0
C192 C 0.97463 0.75668 0.86294 0.0
O193 O 0.96247 0.7386 0.84468 0.0
O194 O 0.94345 0.71573 0.96496 0.0
Mg195 Mg 0.37866 0.18213 0.42878 0.0
C196 C 0.37066 0.20579 0.34815 0.0
O197 O 0.35643 0.20006 0.38551 0.0
C198 C 0.39882 0.16996 0.50752 0.0
O199 O 0.3811 0.1641 0.52851 0.0
C200 C 0.38237 0.21302 0.50499 0.0
O201 O 0.39718 0.22258 0.46958 0.0
O202 O 0.3706 0.19449 0.49834 0.0
O203 O 0.38387 0.20111 0.35569 0.0
O204 O 0.35677 0.15192 0.40238 0.0
C205 C 0.34163 0.14669 0.37057 0.0
O206 O 0.33683 0.15974 0.35594 0.0
O207 O 0.40352 0.17959 0.46148 0.0
Mg208 Mg 0.94621 0.3148 0.43884 0.0
C209 C 0.90837 0.28848 0.36748 0.0
O210 O 0.89956 0.28362 0.41658 0.0
C211 C 0.96241 0.34929 0.51115 0.0
O212 O 0.96897 0.3382 0.53168 0.0
C213 C 0.92377 0.27709 0.51366 0.0
O214 O 0.92257 0.26727 0.46797 0.0
O215 O 0.9332 0.29587 0.51224 0.0
O216 O 0.92685 0.30177 0.36508 0.0
O217 O 0.97567 0.32067 0.41415 0.0
C218 C 0.97762 0.31153 0.37321 0.0
O219 O 0.96149 0.29685 0.34971 0.0
O220 O 0.95129 0.34327 0.4674 0.0
Mg221 Mg 0.80917 0.74692 0.43047 0.0
C222 C 0.83558 0.74082 0.50772 0.0
O223 O 0.83009 0.72669 0.47047 0.0
C224 C 0.79829 0.76754 0.34971 0.0
O225 O 0.79296 0.75039 0.32693 0.0
C226 C 0.83914 0.74789 0.35293 0.0
O227 O 0.85029 0.76197 0.38898 0.0
O228 O 0.82026 0.73783 0.35988 0.0
O229 O 0.82926 0.7527 0.50203 0.0
O230 O 0.77891 0.72609 0.45955 0.0
C231 C 0.77419 0.71198 0.4939 0.0
O232 O 0.78772 0.70773 0.50933 0.0
O233 O 0.80699 0.77159 0.39756 0.0
C234 C 0.01815 0.53676 0.95648 0.0
C235 C 0.03292 0.54159 0.91597 0.0
C236 C 0.02131 0.54982 1.00077 0.0
C237 C 0.03969 0.5681 1.00484 0.0
C238 C 0.05456 0.57311 0.96383 0.0
C239 C 0.05099 0.55986 0.91996 0.0
C240 C 1.00503 0.54399 0.04351 0.0
C241 C 0.07439 0.5924 0.96665 0.0
C242 C 0.04233 0.60956 0.09246 0.0
C243 C 0.0509 0.60798 0.1429 0.0
C244 C 0.03861 0.5967 0.04723 0.0
C245 C 0.04357 0.58189 0.05242 0.0
C246 C 0.05248 0.5804 0.10288 0.0
C247 C 0.05604 0.59345 0.14742 0.0
C248 C 0.02917 0.59884 0.99409 0.0
C249 C 0.05807 0.56487 0.11003 0.0
H250 H 1.00415 0.52273 0.95378 0.0
H251 H 0.06254 0.56379 0.88901 0.0
H252 H 1.01061 0.54316 0.08587 0.0
H253 H 1.00081 0.55538 0.04535 0.0
H254 H 0.99142 0.52949 0.03375 0.0
H255 H 0.08427 0.59423 0.93099 0.0
H256 H 0.07191 0.605 0.96653 0.0
H257 H 0.08228 0.59319 1.00647 0.0
H258 H 0.03824 0.62067 0.08851 0.0
H259 H 0.0626 0.59204 0.1862 0.0
H260 H 0.01479 0.58493 0.98556 0.0
H261 H 0.03906 0.6015 0.95779 0.0
H262 H 0.02629 0.61117 0.9966 0.0
H263 H 0.04456 0.54993 0.10513 0.0
H264 H 0.06498 0.56573 0.15175 0.0
H265 H 0.06874 0.56658 0.07691 0.0
C266 C 0.54779 0.59237 0.8911 0.0
C267 C 0.56828 0.60657 0.89582 0.0
C268 C 0.53715 0.5801 0.93646 0.0
C269 C 0.54713 0.58225 0.98827 0.0
C270 C 0.56781 0.59657 0.99343 0.0
C271 C 0.57819 0.60846 0.94696 0.0
C272 C 0.51523 0.56476 0.92878 0.0
C273 C 0.57892 0.59944 0.04817 0.0
C274 C 0.51456 0.56143 0.11841 0.0
C275 C 0.51403 0.54358 0.12612 0.0
C276 C 0.52555 0.57434 0.07427 0.0
C277 C 0.53596 0.56911 0.03648 0.0
C278 C 0.53526 0.551 0.04379 0.0
C279 C 0.52445 0.53856 0.08867 0.0
C280 C 0.52611 0.59362 0.0682 0.0
C281 C 0.54583 0.54467 1.00392 0.0
H282 H 0.54003 0.59074 0.85164 0.0
H283 H 0.59398 0.61949 0.95102 0.0
H284 H 0.51263 0.54982 0.9375 0.0
H285 H 0.50618 0.56739 0.95916 0.0
H286 H 0.50972 0.56487 0.88564 0.0
H287 H 0.59486 0.61153 0.04575 0.0
H288 H 0.57162 0.60291 0.0822 0.0
H289 H 0.57834 0.58558 0.06013 0.0
H290 H 0.50667 0.56548 0.14743 0.0
H291 H 0.52404 0.52474 0.09414 0.0
H292 H 0.51961 0.59412 0.027 0.0
H293 H 0.54184 0.60616 0.06916 0.0
H294 H 0.51771 0.59579 0.10196 0.0
H295 H 0.54009 0.54376 0.9605 0.0
H296 H 0.54377 0.5301 0.01535 0.0
H297 H 0.56208 0.55582 1.00362 0.0
C298 C 0.5593 0.0659 0.11032 0.0
C299 C 0.57978 0.07453 0.09917 0.0
C300 C 0.54608 0.06576 0.06946 0.0
C301 C 0.55347 0.07434 0.01607 0.0
C302 C 0.57405 0.08276 1.0043 0.0
C303 C 0.58693 0.08279 0.04594 0.0
C304 C 0.52424 0.05664 0.08363 0.0
C305 C 0.5825 0.09186 0.94774 0.0
C306 C 0.51734 0.05806 0.89207 0.0
C307 C 0.51421 0.07394 0.88603 0.0
C308 C 0.52996 0.05798 0.9343 0.0
C309 C 0.53965 0.07411 0.97192 0.0
C310 C 0.53647 0.09015 0.96642 0.0
C311 C 0.52385 0.08991 0.92335 0.0
C312 C 0.53307 0.04069 0.93829 0.0
C313 C 0.54646 0.10756 1.00595 0.0
H314 H 0.55365 0.05959 0.15138 0.0
H315 H 0.60271 0.08949 0.03684 0.0
H316 H 0.51981 0.06782 0.07898 0.0
H317 H 0.51487 0.04446 0.05391 0.0
H318 H 0.52087 0.05069 0.12712 0.0
H319 H 0.59883 0.09773 0.94518 0.0
H320 H 0.57478 0.08069 0.9141 0.0
H321 H 0.57982 0.1041 0.93913 0.0
H322 H 0.51003 0.04566 0.86338 0.0
H323 H 0.52146 0.10219 0.91913 0.0
H324 H 0.52871 0.03381 0.98049 0.0
H325 H 0.54915 0.04589 0.93289 0.0
H326 H 0.52428 0.0292 0.90612 0.0
H327 H 0.5425 0.10243 0.04999 0.0
H328 H 0.54207 0.11861 0.99701 0.0
H329 H 0.56296 0.11493 1.0026 0.0
C330 C 0.56032 0.0562 0.44062 0.0
C331 C 0.57111 0.07206 0.40355 0.0
C332 C 0.54979 0.05768 0.48582 0.0
C333 C 0.54972 0.07536 0.49375 0.0
C334 C 0.56042 0.09139 0.45618 0.0
C335 C 0.57116 0.08962 0.4118 0.0
C336 C 0.53895 0.0404 0.52553 0.0
C337 C 0.56048 0.11038 0.46283 0.0
C338 C 0.50846 0.07247 0.585 0.0
C339 C 0.51871 0.08046 0.63577 0.0
C340 C 0.51841 0.07096 0.5381 0.0
C341 C 0.53898 0.07723 0.54252 0.0
C342 C 0.54926 0.08495 0.59406 0.0
C343 C 0.53906 0.08663 0.63981 0.0
C344 C 0.507 0.0629 0.48364 0.0
C345 C 0.57106 0.09138 0.60098 0.0
H346 H 0.5603 0.04261 0.43475 0.0
H347 H 0.57935 0.10187 0.3831 0.0
H348 H 0.54492 0.04501 0.56883 0.0
H349 H 0.5228 0.03538 0.52645 0.0
H350 H 0.54047 0.02769 0.51349 0.0
H351 H 0.56887 0.12116 0.42887 0.0
H352 H 0.54489 0.10724 0.46277 0.0
H353 H 0.56735 0.11731 0.50382 0.0
H354 H 0.49278 0.06785 0.58151 0.0
H355 H 0.54706 0.09273 0.67903 0.0
H356 H 0.50714 0.04948 0.47117 0.0
H357 H 0.51437 0.07395 0.44963 0.0
H358 H 0.4912 0.05905 0.48672 0.0
H359 H 0.57317 0.07887 0.5915 0.0
H360 H 0.57679 0.09676 0.64412 0.0
H361 H 0.58026 0.10338 0.57076 0.0
C362 C 0.03878 0.60863 0.43603 0.0
C363 C 0.02863 0.59779 0.38772 0.0
C364 C 0.04102 0.59933 0.48357 0.0
C365 C 0.03287 0.57864 0.48307 0.0
C366 C 0.0225 0.56758 0.43465 0.0
C367 C 0.02052 0.57728 0.38758 0.0
C368 C 0.05211 0.61165 0.53439 0.0
C369 C 0.01349 0.54548 0.4326 0.0
C370 C 0.05224 0.55615 0.58979 0.0
C371 C 0.03729 0.54901 0.63074 0.0
C372 C 0.05104 0.56585 0.54144 0.0
C373 C 0.03454 0.56849 0.53402 0.0
C374 C 0.01953 0.56147 0.5755 0.0
C375 C 0.02109 0.55184 0.62318 0.0
C376 C 0.06735 0.57317 0.49813 0.0
C377 C 1.00174 0.56404 0.56941 0.0
H378 H 0.04518 0.62449 0.43662 0.0
H379 H 0.01272 0.56878 0.35048 0.0
H380 H 0.04207 0.60657 0.57125 0.0
H381 H 0.0649 0.60978 0.54494 0.0
H382 H 0.05789 0.62762 0.5277 0.0
H383 H 1.00617 0.53906 0.39152 0.0
H384 H 0.02526 0.54187 0.44048 0.0
H385 H 1.0022 0.53828 0.46621 0.0
H386 H 0.06477 0.55399 0.5952 0.0
H387 H 1.00945 0.54643 0.65456 0.0
H388 H 0.07428 0.58933 0.49208 0.0
H389 H 0.06087 0.56602 0.45706 0.0
H390 H 0.07925 0.57009 0.51024 0.0
H391 H 1.00688 0.57996 0.56559 0.0
H392 H 0.99141 0.55781 0.60561 0.0
H393 H 0.99327 0.55668 0.53045 0.0
C394 C 0.58274 0.59534 0.6094 0.0
C395 C 0.57756 0.60763 0.63724 0.0
C396 C 0.57207 0.58444 0.56182 0.0
C397 C 0.55553 0.58554 0.54205 0.0
C398 C 0.55004 0.59773 0.57037 0.0
C399 C 0.56125 0.6088 0.61735 0.0
C400 C 0.57868 0.57196 0.53224 0.0
C401 C 0.53231 0.59906 0.55103 0.0
C402 C 0.5393 0.57266 0.3894 0.0
C403 C 0.52314 0.55315 0.39356 0.0
C404 C 0.55006 0.58328 0.43729 0.0
C405 C 0.54433 0.5743 0.49088 0.0
C406 C 0.52811 0.55454 0.49537 0.0
C407 C 0.51781 0.54413 0.44659 0.0
C408 C 0.56752 0.60416 0.43052 0.0
C409 C 0.52141 0.54453 0.55181 0.0
H410 H 0.59543 0.59448 0.62423 0.0
H411 H 0.55712 0.61819 0.63888 0.0
H412 H 0.56627 0.5563 0.53116 0.0
H413 H 0.58254 0.57693 0.48805 0.0
H414 H 0.59187 0.57272 0.55294 0.0
H415 H 0.52954 0.60862 0.57882 0.0
H416 H 0.53482 0.60509 0.50772 0.0
H417 H 0.51866 0.5841 0.54983 0.0
H418 H 0.54354 0.5797 0.34854 0.0
H419 H 0.50521 0.52913 0.45017 0.0
H420 H 0.58127 0.60546 0.44888 0.0
H421 H 0.56463 0.61455 0.45364 0.0
H422 H 0.57037 0.60882 0.3858 0.0
H423 H 0.53389 0.5441 0.57305 0.0
H424 H 0.50842 0.52918 0.54822 0.0
H425 H 0.51722 0.55311 0.57915 0.0
C426 C 0.73242 0.89368 0.28468 0.0
C427 C 0.71619 0.88331 0.24753 0.0
C428 C 0.73143 0.90442 0.32994 0.0
C429 C 0.71387 0.90509 0.33791 0.0
C430 C 0.69741 0.89468 0.30052 0.0
C431 C 0.69869 0.88376 0.25601 0.0
C432 C 0.74916 0.91496 0.36942 0.0
C433 C 0.67851 0.89522 0.30731 0.0
C434 C 0.70394 0.91733 0.48363 0.0
C435 C 0.7107 0.93753 0.47879 0.0
C436 C 0.70496 0.90666 0.43823 0.0
C437 C 0.71263 0.91631 0.38627 0.0
C438 C 0.71951 0.93671 0.38104 0.0
C439 C 0.71863 0.94714 0.42756 0.0
C440 C 0.69786 0.88504 0.44598 0.0
C441 C 0.72758 0.94747 0.32614 0.0
H442 H 0.74596 0.89332 0.27863 0.0
H443 H 0.68616 0.87589 0.22725 0.0
H444 H 0.75477 0.93103 0.36963 0.0
H445 H 0.74455 0.90948 0.41293 0.0
H446 H 0.76164 0.91283 0.35765 0.0
H447 H 0.66725 0.88675 0.27393 0.0
H448 H 0.67173 0.88899 0.34875 0.0
H449 H 0.68208 0.91074 0.30628 0.0
H450 H 0.69789 0.90982 0.52319 0.0
H451 H 0.72372 0.9627 0.42342 0.0
H452 H 0.7102 0.88244 0.43669 0.0
H453 H 0.68549 0.87597 0.41605 0.0
H454 H 0.69254 0.8798 0.48931 0.0
H455 H 0.74086 0.9468 0.3137 0.0
H456 H 0.73193 0.96323 0.32858 0.0
H457 H 0.71615 0.94015 0.29243 0.0
C458 C 0.20082 0.90964 0.4788 0.0
C459 C 0.1818 0.89253 0.47403 0.0
C460 C 0.21109 0.92068 0.43122 0.0
C461 C 0.20229 0.91427 0.37732 0.0
C462 C 0.183 0.89708 0.3722 0.0
C463 C 0.1729 0.88651 0.4207 0.0
C464 C 0.23143 0.93914 0.43865 0.0
C465 C 0.17321 0.88967 0.31541 0.0
C466 C 0.221 0.95204 0.25921 0.0
C467 C 0.23476 0.94853 0.23225 0.0
C468 C 0.21033 0.94099 0.30629 0.0
C469 C 0.2132 0.92577 0.32648 0.0
C470 C 0.22687 0.92195 0.29904 0.0
C471 C 0.23765 0.93351 0.25252 0.0
C472 C 0.19622 0.94582 0.33493 0.0
C473 C 0.23012 0.90565 0.31886 0.0
H474 H 0.20776 0.91442 0.51992 0.0
H475 H 0.15829 0.87319 0.41666 0.0
H476 H 0.24288 0.93753 0.41622 0.0
H477 H 0.23139 0.952 0.41995 0.0
H478 H 0.23596 0.94239 0.48354 0.0
H479 H 0.15824 0.87598 0.31853 0.0
H480 H 0.17151 0.90117 0.29374 0.0
H481 H 0.18286 0.8866 0.28872 0.0
H482 H 0.21877 0.96372 0.24406 0.0
H483 H 0.24817 0.93066 0.23168 0.0
H484 H 0.20097 0.95004 0.37928 0.0
H485 H 0.18088 0.9326 0.33548 0.0
H486 H 0.19564 0.95809 0.31388 0.0
H487 H 0.23616 0.90871 0.36241 0.0
H488 H 0.24066 0.90404 0.29164 0.0
H489 H 0.21564 0.89138 0.3196 0.0
C490 C 0.2262 0.39893 0.44323 0.0
C491 C 0.24451 0.41628 0.45465 0.0
C492 C 0.21402 0.398 0.39788 0.0
C493 C 0.22044 0.41472 0.36273 0.0
C494 C 0.23901 0.4322 0.37382 0.0
C495 C 0.25072 0.43279 0.41974 0.0
C496 C 0.19424 0.37915 0.38769 0.0
C497 C 0.24657 0.45025 0.33694 0.0
C498 C 0.19916 0.40675 0.21433 0.0
C499 C 0.18511 0.41266 0.21901 0.0
C500 C 0.21073 0.40738 0.26068 0.0
C501 C 0.20808 0.41386 0.31338 0.0
C502 C 0.19396 0.41991 0.31844 0.0
C503 C 0.18273 0.41936 0.2711 0.0
C504 C 0.22583 0.4011 0.25319 0.0
C505 C 0.19059 0.42679 0.37402 0.0
H506 H 0.22124 0.38616 0.47022 0.0
H507 H 0.26489 0.44625 0.42806 0.0
H508 H 0.18191 0.38223 0.38823 0.0
H509 H 0.19411 0.37318 0.34554 0.0
H510 H 0.19115 0.36764 0.41965 0.0
H511 H 0.26134 0.46269 0.35127 0.0
H512 H 0.248 0.44652 0.29305 0.0
H513 H 0.2357 0.45529 0.33648 0.0
H514 H 0.20116 0.40161 0.17422 0.0
H515 H 0.1718 0.4238 0.27517 0.0
H516 H 0.22229 0.38855 0.28156 0.0
H517 H 0.24101 0.41342 0.26482 0.0
H518 H 0.22618 0.39657 0.20933 0.0
H519 H 0.18612 0.41502 0.40608 0.0
H520 H 0.17884 0.43068 0.37123 0.0
H521 H 0.20471 0.43991 0.38899 0.0
C522 C 0.17768 0.40012 0.94185 0.0
C523 C 0.17816 0.41773 0.95319 0.0
C524 C 0.18848 0.39888 0.89671 0.0
C525 C 0.19973 0.41555 0.86162 0.0
C526 C 0.20006 0.43327 0.87258 0.0
C527 C 0.1894 0.43418 0.91838 0.0
C528 C 0.18794 0.37979 0.88672 0.0
C529 C 0.21157 0.45127 0.83569 0.0
C530 C 0.24156 0.41911 0.77169 0.0
C531 C 0.23191 0.41236 0.71951 0.0
C532 C 0.23123 0.42004 0.81849 0.0
C533 C 0.21087 0.4144 0.8127 0.0
C534 C 0.20119 0.40797 0.75983 0.0
C535 C 0.21177 0.40689 0.71406 0.0
C536 C 0.24202 0.4268 0.87431 0.0
C537 C 0.17963 0.40219 0.75158 0.0
H538 H 0.16913 0.3874 0.96878 0.0
H539 H 0.18977 0.44783 0.92663 0.0
H540 H 0.18157 0.37391 0.84447 0.0
H541 H 0.20337 0.38251 0.88765 0.0
H542 H 0.17888 0.36835 0.91857 0.0
H543 H 0.21019 0.46388 0.84969 0.0
H544 H 0.22765 0.45602 0.83569 0.0
H545 H 0.20607 0.44759 0.79168 0.0
H546 H 0.25706 0.42318 0.77633 0.0
H547 H 0.20422 0.40172 0.67382 0.0
H548 H 0.23408 0.41508 0.90634 0.0
H549 H 0.242 0.44007 0.88898 0.0
H550 H 0.25776 0.43041 0.87204 0.0
H551 H 0.16986 0.38965 0.77963 0.0
H552 H 0.17439 0.39782 0.70754 0.0
H553 H 0.17776 0.4147 0.76312 0.0
C554 C 0.72114 0.89765 0.95492 0.0
C555 C 0.71947 0.87982 0.93857 0.0
C556 C 0.72071 0.91059 0.91502 0.0
C557 C 0.7186 0.90565 0.85727 0.0
C558 C 0.71708 0.88777 0.84042 0.0
C559 C 0.71754 0.87509 0.88122 0.0
C560 C 0.72246 0.92954 0.93471 0.0
C561 C 0.71493 0.88201 0.77922 0.0
C562 C 0.70087 0.93101 0.75555 0.0
C563 C 0.71898 0.94556 0.73182 0.0
C564 C 0.70049 0.91793 0.79661 0.0
C565 C 0.71864 0.91948 0.81434 0.0
C566 C 0.73694 0.93426 0.79087 0.0
C567 C 0.73688 0.94708 0.75002 0.0
C568 C 0.68068 0.90236 0.82073 0.0
C569 C 0.75662 0.93647 0.80864 0.0
H570 H 0.72257 0.90145 0.99909 0.0
H571 H 0.71616 0.86133 0.86812 0.0
H572 H 0.73578 0.94241 0.91571 0.0
H573 H 0.70916 0.93007 0.92065 0.0
H574 H 0.72377 0.93112 0.98116 0.0
H575 H 0.71369 0.86751 0.77305 0.0
H576 H 0.70143 0.88125 0.76089 0.0
H577 H 0.72802 0.89342 0.75544 0.0
H578 H 0.68698 0.92971 0.74171 0.0
H579 H 0.75098 0.95828 0.7321 0.0
H580 H 0.6809 0.90401 0.86704 0.0
H581 H 0.67809 0.88744 0.81211 0.0
H582 H 0.66794 0.90322 0.80301 0.0
H583 H 0.7589 0.93909 0.85458 0.0
H584 H 0.76957 0.94885 0.78669 0.0
H585 H 0.75642 0.92261 0.79978 0.0
C586 C 0.21997 0.9197 0.97827 0.0
C587 C 0.23356 0.94011 0.97403 0.0
C588 C 0.20816 0.90873 0.93218 0.0
C589 C 0.2102 0.91831 0.88014 0.0
C590 C 0.22389 0.93893 0.87551 0.0
C591 C 0.23528 0.94964 0.92271 0.0
C592 C 0.19346 0.88686 0.93926 0.0
C593 C 0.22664 0.94963 0.82055 0.0
C594 C 0.19171 0.88568 0.74963 0.0
C595 C 0.17316 0.884 0.73987 0.0
C596 C 0.20411 0.8971 0.79456 0.0
C597 C 0.19764 0.90675 0.83104 0.0
C598 C 0.17883 0.90492 0.8216 0.0
C599 C 0.16692 0.8937 0.77597 0.0
C600 C 0.22417 0.8989 0.80291 0.0
C601 C 0.17119 0.91465 0.86005 0.0
H602 H 0.21849 0.91226 0.01789 0.0
H603 H 0.24588 0.96537 0.91905 0.0
H604 H 0.17811 0.88341 0.92872 0.0
H605 H 0.19709 0.87835 0.90987 0.0
H606 H 0.1935 0.8817 0.98273 0.0
H607 H 0.23817 0.96561 0.82357 0.0
H608 H 0.23109 0.94288 0.78741 0.0
H609 H 0.21229 0.94811 0.8069 0.0
H610 H 0.19667 0.87834 0.72166 0.0
H611 H 0.15255 0.89239 0.7689 0.0
H612 H 0.22472 0.89275 0.84444 0.0
H613 H 0.23625 0.9147 0.8027 0.0
H614 H 0.2273 0.89103 0.76984 0.0
H615 H 0.17019 0.90917 0.90363 0.0
H616 H 0.15622 0.91176 0.84693 0.0
H617 H 0.1818 0.93086 0.86081 0.0
C618 C 0.38799 0.27515 0.77765 0.0
C619 C 0.3722 0.27875 0.77759 0.0
C620 C 0.3897 0.264 0.73458 0.0
C621 C 0.37546 0.25654 0.69006 0.0
C622 C 0.35965 0.26035 0.68955 0.0
C623 C 0.35815 0.27127 0.73342 0.0
C624 C 0.40666 0.26008 0.73687 0.0
C625 C 0.34436 0.25298 0.64246 0.0
C626 C 0.39013 0.24458 0.55073 0.0
C627 C 0.38009 0.22386 0.55215 0.0
C628 C 0.38878 0.25535 0.59532 0.0
C629 C 0.37733 0.24521 0.64306 0.0
C630 C 0.36721 0.22429 0.64496 0.0
C631 C 0.36858 0.21384 0.59925 0.0
C632 C 0.3995 0.2776 0.59108 0.0
C633 C 0.35502 0.21296 0.69538 0.0
H634 H 0.3988 0.28074 0.81185 0.0
H635 H 0.34593 0.27404 0.73289 0.0
H636 H 0.40061 0.24392 0.73633 0.0
H637 H 0.41619 0.26643 0.69924 0.0
H638 H 0.41619 0.26647 0.775 0.0
H639 H 0.33301 0.25727 0.6482 0.0
H640 H 0.35193 0.25899 0.60173 0.0
H641 H 0.33653 0.23664 0.63972 0.0
H642 H 0.399 0.25245 0.51438 0.0
H643 H 0.36091 0.19785 0.60082 0.0
H644 H 0.41024 0.28446 0.62657 0.0
H645 H 0.38856 0.2825 0.5941 0.0
H646 H 0.4078 0.28324 0.55108 0.0
H647 H 0.36449 0.21816 0.73388 0.0
H648 H 0.34857 0.19678 0.69113 0.0
H649 H 0.34261 0.21572 0.70135 0.0
C650 C 0.8754 0.22052 0.80225 0.0
C651 C 0.85556 0.21588 0.80826 0.0
C652 C 0.88664 0.23063 0.75481 0.0
C653 C 0.87788 0.23625 0.712 0.0
C654 C 0.85794 0.23185 0.71799 0.0
C655 C 0.84702 0.22175 0.76612 0.0
C656 C 0.90788 0.23512 0.75029 0.0
C657 C 0.84808 0.23762 0.67324 0.0
C658 C 0.91294 0.27722 0.61238 0.0
C659 C 0.91259 0.26652 0.56502 0.0
C660 C 0.90162 0.26758 0.66022 0.0
C661 C 0.88964 0.24669 0.66097 0.0
C662 C 0.88931 0.23578 0.61354 0.0
C663 C 0.90077 0.24582 0.56616 0.0
C664 C 0.90245 0.27976 0.70996 0.0
C665 C 0.8768 0.21349 0.61281 0.0
H666 H 0.88219 0.21612 0.8346 0.0
H667 H 0.83169 0.21818 0.7703 0.0
H668 H 0.90936 0.22791 0.71236 0.0
H669 H 0.91832 0.25127 0.7455 0.0
H670 H 0.91259 0.22998 0.78761 0.0
H671 H 0.83258 0.23337 0.68451 0.0
H672 H 0.85698 0.25382 0.66621 0.0
H673 H 0.84758 0.23042 0.63289 0.0
H674 H 0.92197 0.29322 0.612 0.0
H675 H 0.90033 0.23741 0.5298 0.0
H676 H 0.90797 0.27566 0.74768 0.0
H677 H 0.88721 0.27663 0.71955 0.0
H678 H 0.91236 0.29588 0.70252 0.0
H679 H 0.88156 0.20738 0.64754 0.0
H680 H 0.87801 0.20718 0.57251 0.0
H681 H 0.86084 0.20852 0.61978 0.0
C682 C 0.89033 0.73031 0.78112 0.0
C683 C 0.91006 0.7463 0.7857 0.0
C684 C 0.87775 0.72933 0.73687 0.0
C685 C 0.88523 0.74448 0.69573 0.0
C686 C 0.90526 0.76045 0.69969 0.0
C687 C 0.91734 0.76124 0.74484 0.0
C688 C 0.8564 0.7122 0.73446 0.0
C689 C 0.91397 0.77667 0.6561 0.0
C690 C 0.85957 0.73288 0.5527 0.0
C691 C 0.84856 0.74231 0.55564 0.0
C692 C 0.87156 0.7335 0.5979 0.0
C693 C 0.87231 0.74351 0.64779 0.0
C694 C 0.86116 0.75301 0.65118 0.0
C695 C 0.84955 0.75245 0.60482 0.0
C696 C 0.88353 0.72354 0.59207 0.0
C697 C 0.86139 0.76363 0.70392 0.0
H698 H 0.88458 0.71881 0.81282 0.0
H699 H 0.93262 0.77359 0.74794 0.0
H700 H 0.84598 0.71779 0.73465 0.0
H701 H 0.85371 0.70387 0.69477 0.0
H702 H 0.85274 0.70186 0.77032 0.0
H703 H 0.92992 0.7879 0.66482 0.0
H704 H 0.91283 0.77027 0.61389 0.0
H705 H 0.90531 0.78421 0.65453 0.0
H706 H 0.85897 0.7251 0.51469 0.0
H707 H 0.84095 0.75963 0.60749 0.0
H708 H 0.87913 0.71207 0.62499 0.0
H709 H 0.89969 0.73452 0.59827 0.0
H710 H 0.88141 0.71649 0.5503 0.0
H711 H 0.85658 0.75336 0.74025 0.0
H712 H 0.85143 0.76975 0.70046 0.0
H713 H 0.87684 0.77593 0.71307 0.0
C714 C 0.83868 0.73836 0.25248 0.0
C715 C 0.84867 0.74457 0.30432 0.0
C716 C 0.84841 0.73688 0.205 0.0
C717 C 0.86837 0.74115 0.21004 0.0
C718 C 0.87828 0.74688 0.2628 0.0
C719 C 0.86841 0.74881 0.30905 0.0
C720 C 0.83748 0.73114 0.14922 0.0
C721 C 0.89931 0.75097 0.27047 0.0
C722 C 0.88689 0.71947 0.10126 0.0
C723 C 0.89942 0.73603 0.06823 0.0
C724 C 0.87681 0.72097 0.14763 0.0
C725 C 0.87885 0.73937 0.16046 0.0
C726 C 0.89127 0.75612 0.12678 0.0
C727 C 0.90166 0.75431 0.08149 0.0
C728 C 0.86421 0.7029 0.18337 0.0
C729 C 0.89349 0.7759 0.13838 0.0
H730 H 0.82349 0.73531 0.2486 0.0
H731 H 0.87614 0.75352 0.34921 0.0
H732 H 0.84607 0.74288 0.11772 0.0
H733 H 0.83627 0.71739 0.13347 0.0
H734 H 0.82219 0.72875 0.15204 0.0
H735 H 0.90462 0.75455 0.31472 0.0
H736 H 0.90001 0.73792 0.25722 0.0
H737 H 0.90976 0.76353 0.24347 0.0
H738 H 0.88526 0.70534 0.09148 0.0
H739 H 0.91123 0.7671 0.05579 0.0
H740 H 0.84848 0.69931 0.18362 0.0
H741 H 0.86973 0.7059 0.22747 0.0
H742 H 0.86444 0.68976 0.16821 0.0
H743 H 0.87854 0.77437 0.13855 0.0
H744 H 0.90297 0.78723 0.10676 0.0
H745 H 0.90027 0.78125 0.18057 0.0
C746 C 0.35226 0.21519 0.28092 0.0
C747 C 0.37015 0.21625 0.29679 0.0
C748 C 0.35106 0.22461 0.2322 0.0
C749 C 0.36828 0.23574 0.19888 0.0
C750 C 0.38647 0.23704 0.21488 0.0
C751 C 0.38714 0.22709 0.26336 0.0
C752 C 0.33128 0.22249 0.21613 0.0
C753 C 0.40525 0.24904 0.18095 0.0
C754 C 0.36182 0.24606 0.04608 0.0
C755 C 0.36514 0.26525 0.04912 0.0
C756 C 0.36257 0.23621 0.09452 0.0
C757 C 0.36716 0.24592 0.1472 0.0
C758 C 0.37037 0.26523 0.1506 0.0
C759 C 0.36912 0.27458 0.10164 0.0
C760 C 0.35857 0.21546 0.08926 0.0
C761 C 0.37554 0.27618 0.20581 0.0
H762 H 0.33899 0.20669 0.3062 0.0
H763 H 0.40102 0.22802 0.27549 0.0
H764 H 0.33282 0.23723 0.21471 0.0
H765 H 0.32669 0.21599 0.17347 0.0
H766 H 0.31919 0.213 0.246 0.0
H767 H 0.41829 0.24897 0.1997 0.0
H768 H 0.40282 0.24311 0.13759 0.0
H769 H 0.4089 0.26456 0.17774 0.0
H770 H 0.35872 0.23876 1.00566 0.0
H771 H 0.37193 0.28949 0.10428 0.0
H772 H 0.34615 0.20535 0.11733 0.0
H773 H 0.37199 0.21506 0.10276 0.0
H774 H 0.35461 0.20976 0.04557 0.0
H775 H 0.36342 0.26776 0.23653 0.0
H776 H 0.37784 0.29121 0.20127 0.0
H777 H 0.38939 0.27756 0.22366 0.0
C778 C 0.87738 0.26189 0.31919 0.0
C779 C 0.89749 0.27722 0.31621 0.0
C780 C 0.86719 0.25043 0.27173 0.0
C781 C 0.87732 0.25436 0.21988 0.0
C782 C 0.8976 0.26981 0.21654 0.0
C783 C 0.90743 0.28105 0.26465 0.0
C784 C 0.84554 0.23417 0.27702 0.0
C785 C 0.90892 0.27451 0.16206 0.0
C786 C 0.85515 0.21446 0.10643 0.0
C787 C 0.845 0.221 0.07215 0.0
C788 C 0.86587 0.22522 0.15447 0.0
C789 C 0.86641 0.24288 0.16859 0.0
C790 C 0.8563 0.24958 0.13391 0.0
C791 C 0.84579 0.23861 0.08626 0.0
C792 C 0.87653 0.21764 0.19033 0.0
C793 C 0.85644 0.26829 0.14738 0.0
H794 H 0.86958 0.25872 0.3588 0.0
H795 H 0.92299 0.29277 0.26187 0.0
H796 H 0.83608 0.23716 0.2485 0.0
H797 H 0.84366 0.21985 0.26406 0.0
H798 H 0.83994 0.23268 0.32056 0.0
H799 H 0.92478 0.28662 0.16677 0.0
H800 H 0.90857 0.26118 0.14615 0.0
H801 H 0.90162 0.2789 0.12973 0.0
H802 H 0.85464 0.2009 0.09589 0.0
H803 H 0.83802 0.24385 0.06018 0.0
H804 H 0.87043 0.21465 0.23354 0.0
H805 H 0.89268 0.22904 0.19362 0.0
H806 H 0.87497 0.20388 0.17319 0.0
H807 H 0.84976 0.26697 0.18928 0.0
H808 H 0.84798 0.27159 0.11584 0.0
H809 H 0.87206 0.28101 0.14927 0.0
C810 C 0.06842 0.70394 0.41216 0.0
C811 C 0.07516 0.69903 0.36401 0.0
C812 C 0.07948 0.72272 0.43666 0.0
C813 C 0.09796 0.73705 0.41295 0.0
C814 C 0.10534 0.73199 0.36579 0.0
C815 C 0.0938 0.71304 0.34162 0.0
C816 C 0.0709 0.72748 0.48655 0.0
C817 C 0.12511 0.74678 0.33981 0.0
C818 C 0.11055 0.78958 0.43779 0.0
C819 C 0.12297 0.79509 0.48562 0.0
C820 C 0.1031 0.7711 0.41228 0.0
C821 C 0.10833 0.75774 0.43462 0.0
C822 C 0.12165 0.76354 0.48121 0.0
C823 C 0.12874 0.78212 0.50643 0.0
C824 C 0.08878 0.76551 0.3631 0.0
C825 C 0.12781 0.74983 0.50573 0.0
H826 H 0.05411 0.69324 0.43013 0.0
H827 H 0.0992 0.70935 0.30469 0.0
H828 H 0.08193 0.73336 0.52162 0.0
H829 H 0.0676 0.73911 0.47481 0.0
H830 H 0.0569 0.71437 0.50189 0.0
H831 H 0.12988 0.73991 0.3078 0.0
H832 H 0.12388 0.75874 0.31937 0.0
H833 H 0.13693 0.75373 0.37269 0.0
H834 H 0.10606 0.79949 0.42104 0.0
H835 H 0.13845 0.7863 0.54305 0.0
H836 H 0.07375 0.75321 0.37546 0.0
H837 H 0.09381 0.7602 0.32753 0.0
H838 H 0.08733 0.77806 0.34827 0.0
H839 H 0.11484 0.73726 0.5269 0.0
H840 H 0.1402 0.75741 0.53686 0.0
H841 H 0.13259 0.74359 0.47195 0.0
C842 C 0.41018 0.49121 0.35524 0.0
C843 C 0.42591 0.49068 0.38247 0.0
C844 C 0.39116 0.48266 0.38008 0.0
C845 C 0.3878 0.47328 0.43317 0.0
C846 C 0.40386 0.47344 0.46173 0.0
C847 C 0.42266 0.48215 0.43618 0.0
C848 C 0.37447 0.48297 0.34852 0.0
C849 C 0.40096 0.46355 0.51823 0.0
C850 C 0.3413 0.45821 0.52051 0.0
C851 C 0.32931 0.43804 0.50747 0.0
C852 C 0.36012 0.4701 0.49527 0.0
C853 C 0.36718 0.46157 0.45661 0.0
C854 C 0.35501 0.44129 0.44287 0.0
C855 C 0.33626 0.42985 0.4682 0.0
C856 C 0.37258 0.4917 0.51059 0.0
C857 C 0.362 0.4315 0.4024 0.0
H858 H 0.41255 0.49784 0.3139 0.0
H859 H 0.43471 0.48177 0.45791 0.0
H860 H 0.36322 0.46778 0.33454 0.0
H861 H 0.36672 0.48805 0.37638 0.0
H862 H 0.37998 0.49272 0.31101 0.0
H863 H 0.41528 0.46624 0.53678 0.0
H864 H 0.39401 0.46891 0.54804 0.0
H865 H 0.39065 0.44736 0.51362 0.0
H866 H 0.336 0.4647 0.55047 0.0
H867 H 0.32715 0.4143 0.45773 0.0
H868 H 0.37723 0.50092 0.47203 0.0
H869 H 0.38643 0.49465 0.53273 0.0
H870 H 0.36441 0.49641 0.53809 0.0
H871 H 0.36602 0.43944 0.36163 0.0
H872 H 0.35045 0.41576 0.39463 0.0
H873 H 0.37565 0.43223 0.41939 0.0
C874 C 0.68751 0.01589 0.45654 0.0
C875 C 0.67936 1.00135 0.4986 0.0
C876 C 0.6763 0.02314 0.43121 0.0
C877 C 0.65627 0.01559 0.44778 0.0
C878 C 0.64767 1.00046 0.48895 0.0
C879 C 0.65936 0.99358 0.51415 0.0
C880 C 0.68617 0.03941 0.38794 0.0
C881 C 0.6263 0.99189 0.50727 0.0
C882 C 0.63884 0.0519 0.42613 0.0
C883 C 0.62909 0.04612 0.37371 0.0
C884 C 0.6469 0.04152 0.45184 0.0
C885 C 0.64509 0.02477 0.42481 0.0
C886 C 0.63442 0.01825 0.37319 0.0
C887 C 0.6266 0.02904 0.3481 0.0
C888 C 0.65824 0.04911 0.50667 0.0
C889 C 0.63198 1.00034 0.34334 0.0
H890 H 0.70292 0.02201 0.44402 0.0
H891 H 0.65289 0.98227 0.54634 0.0
H892 H 0.67717 0.03503 0.34856 0.0
H893 H 0.68693 0.05296 0.40369 0.0
H894 H 0.70158 0.04307 0.37792 0.0
H895 H 0.62127 0.97902 0.53579 0.0
H896 H 0.62481 1.00335 0.52945 0.0
H897 H 0.61617 0.98718 0.47011 0.0
H898 H 0.64074 0.06497 0.44661 0.0
H899 H 0.61899 0.02438 0.3078 0.0
H900 H 0.67432 0.05452 0.49996 0.0
H901 H 0.65264 0.03702 0.53809 0.0
H902 H 0.65698 0.06137 0.52441 0.0
H903 H 0.64668 1.00367 0.32717 0.0
H904 H 0.62129 0.99576 0.30745 0.0
H905 H 0.62668 0.98775 0.37295 0.0
C906 C 0.66978 0.12578 0.15376 0.0
C907 C 0.6698 0.11166 0.18972 0.0
C908 C 0.68541 0.13645 0.11538 0.0
C909 C 0.70147 0.13299 0.11321 0.0
C910 C 0.70204 0.11951 0.15149 0.0
C911 C 0.68621 0.10901 0.18905 0.0
C912 C 0.68426 0.1507 0.07538 0.0
C913 C 0.71895 0.11548 0.15114 0.0
C914 C 0.73029 0.13869 0.97998 0.0
C915 C 0.74884 0.15577 0.99149 0.0
C916 C 0.71433 0.1318 0.01775 0.0
C917 C 0.71697 0.14216 0.06855 0.0
C918 C 0.73525 0.16007 0.07882 0.0
C919 C 0.75095 0.1667 0.0401 0.0
C920 C 0.69503 0.11276 1.00474 0.0
C921 C 0.73867 0.17159 0.13233 0.0
H922 H 0.65712 0.12788 0.15382 0.0
H923 H 0.68645 0.09825 0.21695 0.0
H924 H 0.69868 0.16502 0.07487 0.0
H925 H 0.68141 0.14461 0.03214 0.0
H926 H 0.67213 0.15344 0.08657 0.0
H927 H 0.7179 0.10566 0.18618 0.0
H928 H 0.71874 0.10837 0.11088 0.0
H929 H 0.73357 0.12954 0.15427 0.0
H930 H 0.72843 0.13023 0.94235 0.0
H931 H 0.7652 0.17994 0.04943 0.0
H932 H 0.68204 0.11463 1.01068 0.0
H933 H 0.69329 0.10106 0.03421 0.0
H934 H 0.69459 0.10762 0.96111 0.0
H935 H 0.72579 0.17342 0.14079 0.0
H936 H 0.75253 0.18643 0.13069 0.0
H937 H 0.73999 0.16331 0.16821 0.0
C938 C 0.96264 0.69532 1.01159 0.0
C939 C 0.94904 0.69863 0.04014 0.0
C940 C 0.97048 0.68461 0.03696 0.0
C941 C 0.96416 0.67662 0.09154 0.0
C942 C 0.94948 0.67891 0.11896 0.0
C943 C 0.94232 0.69011 0.09327 0.0
C944 C 0.98635 0.68283 1.00667 0.0
C945 C 0.94193 0.6702 0.17644 0.0
C946 C 0.97713 0.63881 0.14305 0.0
C947 C 0.99394 0.65047 0.17726 0.0
C948 C 0.96698 0.64697 0.11581 0.0
C949 C 0.9741 0.66738 0.12185 0.0
C950 C 0.99095 0.67916 0.15678 0.0
C951 C 1.0005 0.67052 0.1845 0.0
C952 C 0.94876 0.63381 0.08016 0.0
C953 C 0.99922 0.70103 0.16379 0.0
H954 H 0.96799 0.70202 0.9707 0.0
H955 H 0.93169 0.69251 0.11532 0.0
H956 H 1.00073 0.6911 0.03013 0.0
H957 H 0.98225 0.66716 1.00493 0.0
H958 H 0.98869 0.68873 0.96315 0.0
H959 H 0.92887 0.67127 0.18905 0.0
H960 H 0.93756 0.65443 0.17738 0.0
H961 H 0.95403 0.67811 0.20808 0.0
H962 H 0.97194 0.62329 0.13736 0.0
H963 H 0.01358 0.6797 0.21043 0.0
H964 H 0.95168 0.63873 0.03574 0.0
H965 H 0.93589 0.63496 0.09411 0.0
H966 H 0.9445 0.61807 0.08216 0.0
H967 H 1.00341 0.70845 0.12222 0.0
H968 H 0.01259 0.70817 0.19184 0.0
H969 H 0.98763 0.70352 0.18148 0.0
C970 C 0.42656 0.37797 0.01894 0.0
C971 C 0.4082 0.36326 0.04108 0.0
C972 C 0.43772 0.39663 0.04488 0.0
C973 C 0.43023 0.40069 0.09375 0.0
C974 C 0.41216 0.3856 0.11751 0.0
C975 C 0.40145 0.36712 0.09109 0.0
C976 C 0.45706 0.41227 0.01867 0.0
C977 C 0.40353 0.38926 0.16934 0.0
C978 C 0.46092 0.44576 0.18754 0.0
C979 C 0.45441 0.45836 0.16868 0.0
C980 C 0.45391 0.42725 0.16197 0.0
C981 C 0.43994 0.42116 0.11692 0.0
C982 C 0.43377 0.43407 0.09684 0.0
C983 C 0.44112 0.45247 0.12275 0.0
C984 C 0.461 0.41399 0.18417 0.0
C985 C 0.41878 0.42816 0.04926 0.0
H986 H 0.43197 0.3751 0.98054 0.0
H987 H 0.38737 0.35584 0.10895 0.0
H988 H 0.455 0.42396 0.99982 0.0
H989 H 0.46901 0.4194 0.05113 0.0
H990 H 0.46213 0.40611 0.98533 0.0
H991 H 0.39013 0.37557 0.18493 0.0
H992 H 0.4149 0.39545 0.20353 0.0
H993 H 0.39919 0.40029 0.15969 0.0
H994 H 0.47129 0.45023 0.22271 0.0
H995 H 0.43603 0.46209 0.10756 0.0
H996 H 0.46614 0.40855 0.14914 0.0
H997 H 0.4484 0.40086 0.20466 0.0
H998 H 0.47339 0.42164 0.21525 0.0
H999 H 0.42389 0.42362 1.01208 0.0
H1000 H 0.41635 0.4403 0.03661 0.0
H1001 H 0.40421 0.41525 0.06215 0.0
C1002 C 0.96011 0.37977 0.52266 0.0
C1003 C 0.96857 0.36852 0.53835 0.0
C1004 C 0.96653 0.39821 0.54799 0.0
C1005 C 0.98196 0.40566 0.58927 0.0
C1006 C 0.99021 0.39414 0.60596 0.0
C1007 C 0.98335 0.37574 0.58062 0.0
C1008 C 0.95717 0.40993 0.52965 0.0
C1009 C 1.00687 0.40157 0.64917 0.0
C1010 C 0.0181 0.46059 0.60851 0.0
C1011 C 0.01267 0.46416 0.66122 0.0
C1012 C 1.00757 0.44187 0.58346 0.0
C1013 C 0.991 0.4262 0.61141 0.0
C1014 C 0.9847 0.42991 0.66317 0.0
C1015 C 0.99567 0.44886 0.68765 0.0
C1016 C 0.01495 0.43862 0.52848 0.0
C1017 C 0.96691 0.41366 0.69385 0.0
H1018 H 0.94856 0.37424 0.49041 0.0
H1019 H 0.99 0.3672 0.59321 0.0
H1020 H 0.95251 0.41492 0.56681 0.0
H1021 H 0.96833 0.42335 0.50668 0.0
H1022 H 0.94394 0.40124 0.5018 0.0
H1023 H 1.01099 0.39041 0.65952 0.0
H1024 H 0.02036 0.41505 0.63312 0.0
H1025 H 1.00241 0.40572 0.6884 0.0
H1026 H 0.03107 0.47232 0.58728 0.0
H1027 H 0.99128 0.4515 0.72816 0.0
H1028 H 1.00249 0.43142 0.49755 0.0
H1029 H 0.02075 0.42858 0.53529 0.0
H1030 H 0.02707 0.45264 0.51004 0.0
H1031 H 0.95404 0.40548 0.6646 0.0
H1032 H 0.96226 0.41946 0.72921 0.0
H1033 H 0.97073 0.40293 0.71094 0.0
C1034 C 0.66216 0.65819 0.60968 0.0
C1035 C 0.66171 0.66311 0.66594 0.0
C1036 C 0.68034 0.66441 0.58254 0.0
C1037 C 0.69859 0.67627 0.61192 0.0
C1038 C 0.69823 0.68077 0.66934 0.0
C1039 C 0.67974 0.67393 0.69591 0.0
C1040 C 0.68 0.65885 0.52176 0.0
C1041 C 0.71735 0.69364 0.7019 0.0
C1042 C 0.74715 0.68424 0.55047 0.0
C1043 C 0.7544 0.7022 0.52176 0.0
C1044 C 0.72893 0.67549 0.57965 0.0
C1045 C 0.71794 0.68517 0.58123 0.0
C1046 C 0.72522 0.70332 0.55238 0.0
C1047 C 0.74321 0.71147 0.52254 0.0
C1048 C 0.72142 0.6559 0.60866 0.0
C1049 C 0.71414 0.71428 0.5536 0.0
H1050 H 0.64822 0.64964 0.58651 0.0
H1051 H 0.67944 0.67786 0.7393 0.0
H1052 H 0.68598 0.67224 0.49502 0.0
H1053 H 0.68973 0.65263 0.51583 0.0
H1054 H 0.66465 0.64789 0.50676 0.0
H1055 H 0.71456 0.69473 0.74703 0.0
H1056 H 0.72747 0.68776 0.69861 0.0
H1057 H 0.72529 0.70873 0.68364 0.0
H1058 H 0.7557 0.67697 0.54999 0.0
H1059 H 0.74878 0.72546 0.501 0.0
H1060 H 0.70631 0.64488 0.59238 0.0
H1061 H 0.71998 0.65745 0.65436 0.0
H1062 H 0.73152 0.65008 0.60252 0.0
H1063 H 0.69904 0.70506 0.53455 0.0
H1064 H 0.72215 0.72855 0.53058 0.0
H1065 H 0.71205 0.71727 0.59772 0.0
C1066 C 0.43069 0.16913 0.51397 0.0
C1067 C 0.41186 0.16379 0.53537 0.0
C1068 C 0.4421 0.16179 0.53835 0.0
C1069 C 0.43438 0.14864 0.58466 0.0
C1070 C 0.41574 0.14382 0.60753 0.0
C1071 C 0.40482 0.15152 0.58291 0.0
C1072 C 0.46206 0.16754 0.5133 0.0
C1073 C 0.40678 0.1297 0.65644 0.0
C1074 C 0.44682 0.10863 0.6065 0.0
C1075 C 0.45904 0.1152 0.65477 0.0
C1076 C 0.43944 0.1198 0.58201 0.0
C1077 C 0.44453 0.13819 0.60586 0.0
C1078 C 0.45761 0.14539 0.65307 0.0
C1079 C 0.46463 0.13375 0.67722 0.0
C1080 C 0.42539 0.11141 0.5321 0.0
C1081 C 0.46362 0.16505 0.67923 0.0
H1082 H 0.43633 0.17871 0.47754 0.0
H1083 H 0.39036 0.14734 0.60012 0.0
H1084 H 0.47361 0.17214 0.54684 0.0
H1085 H 0.46093 0.15459 0.49176 0.0
H1086 H 0.46713 0.17976 0.48239 0.0
H1087 H 0.39275 0.12842 0.6715 0.0
H1088 H 0.40342 0.1148 0.64369 0.0
H1089 H 0.41761 0.1346 0.69196 0.0
H1090 H 0.44246 0.09439 0.58849 0.0
H1091 H 0.47418 0.13903 0.71423 0.0
H1092 H 0.43072 0.12229 0.49726 0.0
H1093 H 0.41033 0.10831 0.54401 0.0
H1094 H 0.4239 0.0975 0.51641 0.0
H1095 H 0.46869 0.17666 0.64641 0.0
H1096 H 0.47576 0.16968 0.71101 0.0
H1097 H 0.4505 0.16408 0.7 0.0
C1098 C 0.34235 0.99952 1.01196 0.0
C1099 C 0.3297 1.00632 0.99498 0.0
C1100 C 0.36108 1.00668 0.98639 0.0
C1101 C 0.36736 0.02112 0.94336 0.0
C1102 C 0.35445 0.02769 0.9254 0.0
C1103 C 0.33582 0.02017 0.95115 0.0
C1104 C 0.37433 0.99915 1.00625 0.0
C1105 C 0.36059 0.04322 0.88014 0.0
C1106 C 0.42237 0.05843 0.91941 0.0
C1107 C 0.42595 0.05208 0.86827 0.0
C1108 C 0.40362 0.04802 0.94533 0.0
C1109 C 0.38798 0.03066 0.91989 0.0
C1110 C 0.39168 0.02365 0.86949 0.0
C1111 C 0.41061 0.0345 0.8441 0.0
C1112 C 0.40034 0.05614 0.99876 0.0
C1113 C 0.37544 1.00508 0.8414 0.0
H1114 H 0.33771 0.98873 0.0455 0.0
H1115 H 0.32619 0.02553 0.93752 0.0
H1116 H 0.37943 0.9942 0.96994 0.0
H1117 H 0.38789 0.01126 0.02716 0.0
H1118 H 0.36659 0.98667 0.03632 0.0
H1119 H 0.34847 0.0461 0.86921 0.0
H1120 H 0.37388 0.05727 0.89446 0.0
H1121 H 0.36489 0.03856 0.84156 0.0
H1122 H 0.43411 0.07192 0.93874 0.0
H1123 H 0.41326 0.02939 0.80482 0.0
H1124 H 0.39404 0.04456 0.03173 0.0
H1125 H 0.38933 0.06077 0.99079 0.0
H1126 H 0.41438 0.06906 0.01517 0.0
H1127 H 0.36828 0.99284 0.8723 0.0
H1128 H 0.38126 1.00041 0.80612 0.0
H1129 H 0.36364 0.00761 0.82475 0.0
C1130 C 0.09443 0.49734 0.84616 0.0
C1131 C 0.07549 0.49239 0.86566 0.0
C1132 C 0.10507 0.48933 0.87157 0.0
C1133 C 0.09647 0.47593 0.91708 0.0
C1134 C 0.07761 0.47132 0.93769 0.0
C1135 C 0.06744 0.47964 0.91197 0.0
C1136 C 0.12524 0.49476 0.84878 0.0
C1137 C 0.06775 0.45699 0.98572 0.0
C1138 C 0.10822 0.43565 0.94352 0.0
C1139 C 0.11994 0.44224 0.99273 0.0
C1140 C 0.10123 0.44688 0.91729 0.0
C1141 C 0.10615 0.46532 0.94044 0.0
C1142 C 0.11865 0.47248 0.98882 0.0
C1143 C 0.12535 0.46082 0.01456 0.0
C1144 C 0.08783 0.43857 0.86608 0.0
C1145 C 0.12439 0.49215 0.01444 0.0
H1146 H 0.10083 0.50726 0.81066 0.0
H1147 H 0.05286 0.47573 0.92765 0.0
H1148 H 0.13641 0.49951 0.88344 0.0
H1149 H 0.12424 0.48163 0.82889 0.0
H1150 H 0.13074 0.50679 0.81708 0.0
H1151 H 0.05352 0.45574 0.99863 0.0
H1152 H 0.06452 0.44212 0.97317 0.0
H1153 H 0.07798 0.46168 0.02264 0.0
H1154 H 0.10403 0.42139 0.92596 0.0
H1155 H 0.13452 0.46611 0.05229 0.0
H1156 H 0.09363 0.44949 0.83132 0.0
H1157 H 0.07264 0.4355 0.87614 0.0
H1158 H 0.08651 0.42466 0.85109 0.0
H1159 H 0.13018 0.50382 0.98168 0.0
H1160 H 0.13592 0.49661 0.04805 0.0
H1161 H 0.11097 0.49131 0.03275 0.0
C1162 C 0.65317 0.72857 0.82933 0.0
C1163 C 0.63419 0.71129 0.83142 0.0
C1164 C 0.65774 0.74526 0.8614 0.0
C1165 C 0.64301 0.74474 0.89678 0.0
C1166 C 0.6236 0.72759 0.89777 0.0
C1167 C 0.6194 0.71108 0.86498 0.0
C1168 C 0.67858 0.76327 0.85865 0.0
C1169 C 0.60748 0.72645 0.93486 0.0
C1170 C 0.66473 0.78047 0.01979 0.0
C1171 C 0.66393 0.79675 0.9996 0.0
C1172 C 0.65704 0.76307 0.98795 0.0
C1173 C 0.6484 0.76189 0.93439 0.0
C1174 C 0.64663 0.77788 0.91501 0.0
C1175 C 0.65436 0.79509 0.94787 0.0
C1176 C 0.65908 0.74631 1.01049 0.0
C1177 C 0.63753 0.77725 0.85822 0.0
H1178 H 0.66468 0.72895 0.80337 0.0
H1179 H 0.60471 0.6978 0.86701 0.0
H1180 H 0.67784 0.77656 0.84812 0.0
H1181 H 0.68603 0.76589 0.90033 0.0
H1182 H 0.688 0.76168 0.827 0.0
H1183 H 0.5928 0.71267 0.92789 0.0
H1184 H 0.61188 0.72704 0.97961 0.0
H1185 H 0.60573 0.73932 0.92714 0.0
H1186 H 0.67197 0.78153 0.05981 0.0
H1187 H 0.65363 0.80755 0.93179 0.0
H1188 H 0.66988 0.74471 0.98453 0.0
H1189 H 0.64452 0.73216 1.00783 0.0
H1190 H 0.66441 0.74875 0.05483 0.0
H1191 H 0.6475 0.77763 0.82474 0.0
H1192 H 0.6353 0.78991 0.85181 0.0
H1193 H 0.62291 0.7633 0.85314 0.0
C1194 C 0.7311 0.04033 0.73701 0.0
C1195 C 0.73976 0.03315 0.70003 0.0
C1196 C 0.74257 0.05879 0.76318 0.0
C1197 C 0.76336 0.07041 0.7528 0.0
C1198 C 0.77236 0.06308 0.71667 0.0
C1199 C 0.76043 0.04458 0.69038 0.0
C1200 C 0.73227 0.06609 0.80073 0.0
C1201 C 0.79452 0.07494 0.70509 0.0
C1202 C 0.78511 0.12546 0.77152 0.0
C1203 C 0.79265 0.12865 0.82677 0.0
C1204 C 0.77631 0.10678 0.74627 0.0
C1205 C 0.77515 0.09079 0.77662 0.0
C1206 C 0.78357 0.09407 0.83145 0.0
C1207 C 0.79213 0.11294 0.85604 0.0
C1208 C 0.76738 0.10397 0.688 0.0
C1209 C 0.78287 0.07746 0.86488 0.0
H1210 H 0.71516 0.03165 0.74483 0.0
H1211 H 0.76728 0.0391 0.66222 0.0
H1212 H 0.73955 0.06997 0.84276 0.0
H1213 H 0.73366 0.07971 0.78262 0.0
H1214 H 0.71612 0.05496 0.80612 0.0
H1215 H 0.79951 0.06653 0.67983 0.0
H1216 H 0.79824 0.08863 0.68196 0.0
H1217 H 0.80312 0.07949 0.74518 0.0
H1218 H 0.7855 0.13747 0.74827 0.0
H1219 H 0.79801 0.11527 0.89857 0.0
H1220 H 0.75089 0.094 0.69003 0.0
H1221 H 0.77315 0.09687 0.6602 0.0
H1222 H 0.7707 0.11815 0.66858 0.0
H1223 H 0.76717 0.06663 0.87661 0.0
H1224 H 0.79206 0.08284 0.90391 0.0
H1225 H 0.78824 0.0695 0.83915 0.0
C1226 C 0.08618 0.81087 0.75366 0.0
C1227 C 0.0895 0.82094 0.7024 0.0
C1228 C 0.06765 0.80229 0.78071 0.0
C1229 C 0.05193 0.80382 0.75617 0.0
C1230 C 0.05536 0.81461 0.70552 0.0
C1231 C 0.07411 0.82302 0.67914 0.0
C1232 C 0.06468 0.79088 0.83449 0.0
C1233 C 0.03902 0.81668 0.67824 0.0
C1234 C 0.9998 0.76146 0.79103 0.0
C1235 C 0.9941 0.76938 0.83458 0.0
C1236 C 0.01829 0.77272 0.76424 0.0
C1237 C 0.03151 0.79252 0.781 0.0
C1238 C 0.0257 0.80083 0.82394 0.0
C1239 C 1.00707 0.78914 0.85042 0.0
C1240 C 0.02391 0.76317 0.71902 0.0
C1241 C 0.03932 0.82194 0.84269 0.0
H1242 H 0.09798 0.80928 0.77235 0.0
H1243 H 0.07655 0.83086 0.63975 0.0
H1244 H 0.05872 0.79618 0.8677 0.0
H1245 H 0.0535 0.77501 0.82736 0.0
H1246 H 0.07877 0.79222 0.85015 0.0
H1247 H 0.0446 0.82714 0.64226 0.0
H1248 H 0.02694 0.80205 0.66279 0.0
H1249 H 0.03226 0.82186 0.70935 0.0
H1250 H 0.98992 0.74624 0.77825 0.0
H1251 H 1.00275 0.79543 0.88374 0.0
H1252 H 0.03719 0.76256 0.73277 0.0
H1253 H 0.02803 0.77212 0.67999 0.0
H1254 H 0.01158 0.74792 0.70906 0.0
H1255 H 0.05302 0.82358 0.86248 0.0
H1256 H 0.03201 0.82668 0.87334 0.0
H1257 H 0.04413 0.83202 0.80593 0.0
C1258 C 0.28869 0.35896 0.68754 0.0
C1259 C 0.28515 0.37188 0.71846 0.0
C1260 C 0.29547 0.34752 0.71425 0.0
C1261 C 0.29873 0.34902 0.77321 0.0
C1262 C 0.29435 0.3614 0.80477 0.0
C1263 C 0.28764 0.37265 0.77709 0.0
C1264 C 0.29992 0.33446 0.67911 0.0
C1265 C 0.29754 0.36343 0.86766 0.0
C1266 C 0.30583 0.31134 0.85468 0.0
C1267 C 0.32673 0.32138 0.86082 0.0
C1268 C 0.29647 0.31994 0.82534 0.0
C1269 C 0.30828 0.33903 0.80155 0.0
C1270 C 0.32938 0.34912 0.8072 0.0
C1271 C 0.33831 0.34021 0.8367 0.0
C1272 C 0.27394 0.30873 0.82034 0.0
C1273 C 0.34256 0.3695 0.78265 0.0
H1274 H 0.28679 0.35824 0.64228 0.0
H1275 H 0.2848 0.38245 0.80152 0.0
H1276 H 0.31627 0.34039 0.67952 0.0
H1277 H 0.29254 0.31934 0.69707 0.0
H1278 H 0.29487 0.3335 0.63481 0.0
H1279 H 0.29197 0.37247 0.8866 0.0
H1280 H 0.28984 0.34865 0.88788 0.0
H1281 H 0.31374 0.37049 0.87749 0.0
H1282 H 0.29674 0.29677 0.87293 0.0
H1283 H 0.35447 0.34811 0.84091 0.0
H1284 H 0.26936 0.3073 0.77551 0.0
H1285 H 0.26799 0.31702 0.84172 0.0
H1286 H 0.26693 0.29372 0.83911 0.0
H1287 H 0.33955 0.36933 0.73694 0.0
H1288 H 0.35874 0.37508 0.789 0.0
H1289 H 0.33909 0.38005 0.8024 0.0
C1290 C 0.99982 0.30846 0.30376 0.0
C1291 C 0.99753 0.31903 0.34724 0.0
C1292 C 0.01798 0.31631 0.27474 0.0
C1293 C 0.03422 0.3353 0.28909 0.0
C1294 C 0.03219 0.3458 0.334 0.0
C1295 C 0.01394 0.33751 0.3627 0.0
C1296 C 0.0196 0.30451 0.22771 0.0
C1297 C 0.0491 0.36613 0.35051 0.0
C1298 C 0.08746 0.35268 0.24354 0.0
C1299 C 0.08976 0.36471 0.19717 0.0
C1300 C 0.06929 0.34252 0.27281 0.0
C1301 C 0.05305 0.3446 0.25575 0.0
C1302 C 0.05509 0.35627 0.20801 0.0
C1303 C 0.07335 0.36608 0.17914 0.0
C1304 C 0.06765 0.33 0.32294 0.0
C1305 C 0.03819 0.35896 0.18855 0.0
H1306 H 0.98727 0.29414 0.2916 0.0
H1307 H 0.01234 0.34584 0.39608 0.0
H1308 H 0.02156 0.31227 0.18716 0.0
H1309 H 0.03296 0.30321 0.2342 0.0
H1310 H 1.00615 0.28942 0.22437 0.0
H1311 H 0.04541 0.37206 0.38763 0.0
H1312 H 0.06281 0.36573 0.36019 0.0
H1313 H 0.05264 0.3765 0.31486 0.0
H1314 H 0.1 0.35145 0.2577 0.0
H1315 H 0.07496 0.37537 0.14351 0.0
H1316 H 0.05429 0.31494 0.31851 0.0
H1317 H 0.0657 0.33654 0.36166 0.0
H1318 H 0.0811 0.32876 0.32837 0.0
H1319 H 0.02448 0.34437 0.18079 0.0
H1320 H 0.04189 0.36791 0.14952 0.0
H1321 H 0.03465 0.36639 0.22191 0.0
C1322 C 0.79574 0.79807 0.34716 0.0
C1323 C 0.79233 0.7806 0.3218 0.0
C1324 C 0.78809 0.80914 0.32293 0.0
C1325 C 0.77664 0.80248 0.27258 0.0
C1326 C 0.774 0.78539 0.24559 0.0
C1327 C 0.78194 0.77476 0.27031 0.0
C1328 C 0.7915 0.82747 0.35252 0.0
C1329 C 0.76179 0.77763 0.19211 0.0
C1330 C 0.73425 0.8117 0.24539 0.0
C1331 C 0.74181 0.82563 0.20167 0.0
C1332 C 0.74574 0.80467 0.27011 0.0
C1333 C 0.76545 0.81183 0.25117 0.0
C1334 C 0.77351 0.82646 0.20856 0.0
C1335 C 0.76155 0.83312 0.18403 0.0
C1336 C 0.73642 0.78893 0.31501 0.0
C1337 C 0.79456 0.83464 0.18778 0.0
H1338 H 0.80387 0.80278 0.38671 0.0
H1339 H 0.77934 0.7614 0.24997 0.0
H1340 H 0.79634 0.8398 0.3222 0.0
H1341 H 0.77727 0.82454 0.37125 0.0
H1342 H 0.80293 0.83221 0.38653 0.0
H1343 H 0.76242 0.76504 0.17412 0.0
H1344 H 0.74592 0.77261 0.20077 0.0
H1345 H 0.76715 0.7895 0.1601 0.0
H1346 H 0.71906 0.80585 0.2596 0.0
H1347 H 0.76758 0.84399 0.15061 0.0
H1348 H 0.74611 0.79358 0.35308 0.0
H1349 H 0.73508 0.77507 0.29964 0.0
H1350 H 0.72132 0.78569 0.32713 0.0
H1351 H 0.8052 0.83929 0.22374 0.0
H1352 H 0.79939 0.84746 0.15919 0.0
H1353 H 0.79546 0.82297 0.16482 0.0
C1354 C 0.29997 0.05141 0.17382 0.0
C1355 C 0.28887 0.03383 0.20428 0.0
C1356 C 0.3074 0.06989 0.19988 0.0
C1357 C 0.30322 0.07073 0.25731 0.0
C1358 C 0.29107 0.05297 0.2872 0.0
C1359 C 0.28425 0.03476 0.26054 0.0
C1360 C 0.32055 0.08848 0.16676 0.0
C1361 C 0.28585 0.05317 0.34801 0.0
C1362 C 0.34013 0.11535 0.34427 0.0
C1363 C 0.33111 0.12675 0.34447 0.0
C1364 C 0.33128 0.09722 0.31565 0.0
C1365 C 0.31274 0.09007 0.28736 0.0
C1366 C 0.3033 0.10128 0.28851 0.0
C1367 C 0.3127 0.11957 0.31659 0.0
C1368 C 0.34197 0.08587 0.31496 0.0
C1369 C 0.28333 0.09395 0.25997 0.0
H1370 H 0.30367 0.05075 0.13045 0.0
H1371 H 0.27551 0.02119 0.28411 0.0
H1372 H 0.31491 0.09874 0.16973 0.0
H1373 H 0.33592 0.0962 0.18479 0.0
H1374 H 0.32135 0.08537 0.12172 0.0
H1375 H 0.27462 0.03819 0.36348 0.0
H1376 H 0.29953 0.05902 0.37449 0.0
H1377 H 0.27988 0.06307 0.35371 0.0
H1378 H 0.35443 0.12083 0.36524 0.0
H1379 H 0.30562 0.12828 0.31661 0.0
H1380 H 0.34475 0.08344 0.27095 0.0
H1381 H 0.33245 0.07111 0.33436 0.0
H1382 H 0.35651 0.09367 0.33791 0.0
H1383 H 0.28459 0.09222 0.21426 0.0
H1384 H 0.2777 0.10415 0.26604 0.0
H1385 H 0.2721 0.07919 0.27664 0.0
loop_
_geom_bond_atom_site_label_1
_geom_bond_atom_site_label_2
_geom_bond_distance
_geom_bond_site_symmetry_2
_ccdc_geom_bond_type
Mg0 O7 2.141 . S
Mg0 O8 2.048 . S
Mg0 O9 2.048 . S
Mg0 O12 2.141 . S
C1 O2 1.313 . S
C1 O8 1.195 . S
O2 C1 1.313 . S
C3 O4 1.245 1_455 S
C3 O12 1.289 . S
O4 C3 1.245 1_655 S
C5 O6 1.195 1_455 S
C5 O7 1.289 . S
O6 C5 1.195 1_655 S
O7 Mg0 2.141 . S
O7 C5 1.289 . S
O8 Mg0 2.048 . S
O8 C1 1.195 . S
O9 Mg0 2.048 . S
O9 C10 1.195 . S
C10 O9 1.195 . S
C10 O11 1.313 . S
O11 C10 1.313 . S
O12 Mg0 2.141 . S
O12 C3 1.289 . S
Mg13 O20 2.141 . S
Mg13 O21 2.048 . S
Mg13 O22 2.048 . S
Mg13 O25 2.141 . S
C14 O15 1.313 . S
C14 O21 1.195 . S
O15 C14 1.313 . S
C16 O17 1.245 . S
C16 O25 1.289 . S
O17 C16 1.245 . S
C18 O19 1.245 . S
C18 O20 1.289 . S
O19 C18 1.245 . S
O20 Mg13 2.141 . S
O20 C18 1.289 . S
O21 Mg13 2.048 . S
O21 C14 1.195 . S
O22 Mg13 2.048 . S
O22 C23 1.195 . S
C23 O22 1.195 . S
C23 O24 1.313 . S
O24 C23 1.313 . S
O25 Mg13 2.141 . S
O25 C16 1.289 . S
Mg26 O33 2.141 . S
Mg26 O34 2.048 . S
Mg26 O35 2.048 . S
Mg26 O38 2.141 . S
C27 O28 1.313 . S
C27 O34 1.195 . S
O28 C27 1.313 . S
C29 O30 1.245 . S
C29 O38 1.289 . S
O30 C29 1.245 . S
C31 O32 1.245 . S
C31 O33 1.289 . S
O32 C31 1.245 . S
O33 Mg26 2.141 . S
O33 C31 1.289 . S
O34 Mg26 2.048 . S
O34 C27 1.195 . S
O35 Mg26 2.048 . S
O35 C36 1.195 . S
C36 O35 1.195 . S
C36 O37 1.313 . S
O37 C36 1.313 . S
O38 Mg26 2.141 . S
O38 C29 1.289 . S
Mg39 O46 2.141 . S
Mg39 O47 2.048 . S
Mg39 O48 2.048 . S
Mg39 O51 2.141 . S
C40 O41 1.313 . S
C40 O47 1.195 . S
O41 C40 1.313 . S
C42 O43 1.245 . S
C42 O51 1.289 . S
O43 C42 1.245 . S
C44 O45 1.245 . S
C44 O46 1.289 . S
O45 C44 1.245 . S
O46 Mg39 2.141 . S
O46 C44 1.289 . S
O47 Mg39 2.048 . S
O47 C40 1.195 . S
O48 Mg39 2.048 . S
O48 C49 1.195 . S
C49 O48 1.195 . S
C49 O50 1.313 . S
O50 C49 1.313 . S
O51 Mg39 2.141 . S
O51 C42 1.289 . S
Mg52 O59 2.141 . S
Mg52 O60 2.048 . S
Mg52 O61 2.048 . S
Mg52 O64 2.141 . S
C53 O54 1.313 . S
C53 O60 1.195 . S
O54 C53 1.313 . S
C55 O56 1.245 . S
C55 O64 1.289 . S
O56 C55 1.245 . S
C57 O58 1.245 . S
C57 O59 1.289 . S
O58 C57 1.245 . S
O59 Mg52 2.141 . S
O59 C57 1.289 . S
O60 Mg52 2.048 . S
O60 C53 1.195 . S
O61 Mg52 2.048 . S
O61 C62 1.195 . S
C62 O61 1.195 . S
C62 O63 1.313 . S
O63 C62 1.313 . S
O64 Mg52 2.141 . S
O64 C55 1.289 . S
Mg65 O72 2.141 . S
Mg65 O73 2.048 . S
Mg65 O74 2.048 . S
Mg65 O77 2.141 . S
C66 O67 1.313 . S
C66 O73 1.195 . S
O67 C66 1.313 . S
C68 O69 1.245 . S
C68 O77 1.289 . S
O69 C68 1.245 . S
C70 O71 1.245 . S
C70 O72 1.289 . S
O71 C70 1.245 . S
O72 Mg65 2.141 . S
O72 C70 1.289 . S
O73 Mg65 2.048 . S
O73 C66 1.195 . S
O74 Mg65 2.048 . S
O74 C75 1.195 . S
C75 O74 1.195 . S
C75 O76 1.313 . S
O76 C75 1.313 . S
O77 Mg65 2.141 . S
O77 C68 1.289 . S
Mg78 O85 2.141 . S
Mg78 O86 2.048 . S
Mg78 O87 2.048 . S
Mg78 O90 2.141 . S
C79 O80 1.313 . S
C79 O86 1.195 . S
O80 C79 1.313 . S
C81 O82 1.245 . S
C81 O90 1.289 . S
O82 C81 1.245 . S
C83 O84 1.245 . S
C83 O85 1.289 . S
O84 C83 1.245 . S
O85 Mg78 2.141 . S
O85 C83 1.289 . S
O86 Mg78 2.048 . S
O86 C79 1.195 . S
O87 Mg78 2.048 . S
O87 C88 1.225 . S
C88 O87 1.225 . S
C88 O89 1.335 . S
O89 C88 1.335 . S
O90 Mg78 2.141 . S
O90 C81 1.289 . S
Mg91 O98 2.141 . S
Mg91 O99 2.048 . S
Mg91 O100 2.048 . S
Mg91 O103 2.141 . S
C92 O93 1.313 . S
C92 O99 1.195 . S
O93 C92 1.313 . S
C94 O95 1.245 . S
C94 O103 1.289 . S
O95 C94 1.245 . S
C96 O97 1.245 . S
C96 O98 1.289 . S
O97 C96 1.245 . S
O98 Mg91 2.141 . S
O98 C96 1.289 . S
O99 Mg91 2.048 . S
O99 C92 1.195 . S
O100 Mg91 2.048 . S
O100 C101 1.195 . S
C101 O100 1.195 . S
C101 O102 1.313 . S
O102 C101 1.313 . S
O103 Mg91 2.141 . S
O103 C94 1.289 . S
Mg104 O111 2.141 . S
Mg104 O112 2.048 . S
Mg104 O113 2.048 . S
Mg104 O116 2.141 . S
C105 O106 1.313 . S
C105 O112 1.195 . S
O106 C105 1.313 . S
C107 O108 1.245 . S
C107 O116 1.289 . S
O108 C107 1.245 . S
C109 O110 1.245 . S
C109 O111 1.289 . S
O110 C109 1.245 . S
O111 Mg104 2.141 . S
O111 C109 1.289 . S
O112 Mg104 2.048 . S
O112 C105 1.195 . S
O113 Mg104 2.048 . S
O113 C114 1.195 . S
C114 O113 1.195 . S
C114 O115 1.313 . S
O115 C114 1.313 . S
O116 Mg104 2.141 . S
O116 C107 1.289 . S
Mg117 O124 2.141 . S
Mg117 O125 2.048 . S
Mg117 O126 2.048 . S
Mg117 O129 2.141 . S
C118 O119 1.313 . S
C118 O125 1.195 . S
O119 C118 1.313 . S
C120 O121 1.245 1_554 S
C120 O129 1.288 . S
O121 C120 1.245 1_556 S
C122 O123 1.245 . S
C122 O124 1.289 1_556 S
O123 C122 1.245 . S
O124 Mg117 2.141 . S
O124 C122 1.289 1_554 S
O125 Mg117 2.048 . S
O125 C118 1.195 . S
O126 Mg117 2.048 . S
O126 C127 1.195 . S
C127 O126 1.195 . S
C127 O128 1.313 . S
O128 C127 1.313 . S
O129 Mg117 2.141 . S
O129 C120 1.288 . S
Mg130 O137 2.141 . S
Mg130 O138 2.048 . S
Mg130 O139 2.048 . S
Mg130 O142 2.141 . S
C131 O132 1.313 . S
C131 O138 1.195 . S
O132 C131 1.313 . S
C133 O134 1.244 1_564 S
C133 O142 1.296 . S
O134 C133 1.244 1_546 S
C135 O136 1.245 . S
C135 O137 1.289 1_556 S
O136 C135 1.245 . S
O137 Mg130 2.141 . S
O137 C135 1.289 1_554 S
O138 Mg130 2.048 . S
O138 C131 1.195 . S
O139 Mg130 2.048 . S
O139 C140 1.195 1_565 S
C140 O139 1.195 1_545 S
C140 O141 1.313 . S
O141 C140 1.313 . S
O142 Mg130 2.141 . S
O142 C133 1.296 . S
Mg143 O150 2.141 . S
Mg143 O151 2.048 . S
Mg143 O152 2.048 . S
Mg143 O155 2.141 . S
C144 O145 1.313 . S
C144 O151 1.195 . S
O145 C144 1.313 . S
C146 O147 1.245 . S
C146 O155 1.289 1_556 S
O147 C146 1.245 . S
C148 O149 1.245 . S
C148 O150 1.289 1_556 S
O149 C148 1.245 . S
O150 Mg143 2.141 . S
O150 C148 1.289 1_554 S
O151 Mg143 2.048 . S
O151 C144 1.195 . S
O152 Mg143 2.048 . S
O152 C153 1.195 . S
C153 O152 1.195 . S
C153 O154 1.313 . S
O154 C153 1.313 . S
O155 Mg143 2.141 . S
O155 C146 1.289 1_554 S
Mg156 O163 2.141 . S
Mg156 O164 2.048 . S
Mg156 O165 2.048 . S
Mg156 O168 2.141 . S
C157 O158 1.313 . S
C157 O164 1.195 1_554 S
O158 C157 1.313 . S
C159 O160 1.245 . S
C159 O168 1.289 . S
O160 C159 1.245 . S
C161 O162 1.245 . S
C161 O163 1.289 . S
O162 C161 1.245 . S
O163 Mg156 2.141 . S
O163 C161 1.289 . S
O164 Mg156 2.048 . S
O164 C157 1.195 1_556 S
O165 Mg156 2.048 . S
O165 C166 1.195 1_556 S
C166 O165 1.195 1_554 S
C166 O167 1.313 . S
O167 C166 1.313 . S
O168 Mg156 2.141 . S
O168 C159 1.289 . S
Mg169 O176 2.141 . S
Mg169 O177 2.048 . S
Mg169 O178 2.048 . S
Mg169 O181 2.141 . S
C170 O171 1.313 . S
C170 O177 1.195 . S
O171 C170 1.313 . S
C172 O173 1.245 . S
C172 O181 1.289 . S
O173 C172 1.245 . S
C174 O175 1.245 . S
C174 O176 1.289 . S
O175 C174 1.245 . S
O176 Mg169 2.141 . S
O176 C174 1.289 . S
O177 Mg169 2.048 . S
O177 C170 1.195 . S
O178 Mg169 2.048 . S
O178 C179 1.195 . S
C179 O178 1.195 . S
C179 O180 1.313 . S
O180 C179 1.313 . S
O181 Mg169 2.141 . S
O181 C172 1.289 . S
Mg182 O189 2.141 . S
Mg182 O190 2.048 . S
Mg182 O191 2.048 . S
Mg182 O194 2.141 . S
C183 O184 1.313 . S
C183 O190 1.195 . S
O184 C183 1.313 . S
C185 O186 1.245 . S
C185 O194 1.289 . S
O186 C185 1.245 . S
C187 O188 1.245 . S
C187 O189 1.289 . S
O188 C187 1.245 . S
O189 Mg182 2.141 . S
O189 C187 1.289 . S
O190 Mg182 2.048 . S
O190 C183 1.195 . S
O191 Mg182 2.048 . S
O191 C192 1.195 . S
C192 O191 1.195 . S
C192 O193 1.313 . S
O193 C192 1.313 . S
O194 Mg182 2.141 . S
O194 C185 1.289 . S
Mg195 O202 2.141 . S
Mg195 O203 2.048 . S
Mg195 O204 2.048 . S
Mg195 O207 2.141 . S
C196 O197 1.313 . S
C196 O203 1.195 . S
O197 C196 1.313 . S
C198 O199 1.245 . S
C198 O207 1.289 . S
O199 C198 1.245 . S
C200 O201 1.245 . S
C200 O202 1.289 . S
O201 C200 1.245 . S
O202 Mg195 2.141 . S
O202 C200 1.289 . S
O203 Mg195 2.048 . S
O203 C196 1.195 . S
O204 Mg195 2.048 . S
O204 C205 1.195 . S
C205 O204 1.195 . S
C205 O206 1.313 . S
O206 C205 1.313 . S
O207 Mg195 2.141 . S
O207 C198 1.289 . S
Mg208 O215 2.141 . S
Mg208 O216 2.048 . S
Mg208 O217 2.048 . S
Mg208 O220 2.141 . S
C209 O210 1.313 . S
C209 O216 1.195 . S
O210 C209 1.313 . S
C211 O212 1.245 . S
C211 O220 1.289 . S
O212 C211 1.245 . S
C213 O214 1.245 . S
C213 O215 1.289 . S
O214 C213 1.245 . S
O215 Mg208 2.141 . S
O215 C213 1.289 . S
O216 Mg208 2.048 . S
O216 C209 1.195 . S
O217 Mg208 2.048 . S
O217 C218 1.195 . S
C218 O217 1.195 . S
C218 O219 1.313 . S
O219 C218 1.313 . S
O220 Mg208 2.141 . S
O220 C211 1.289 . S
Mg221 O228 2.141 . S
Mg221 O229 2.048 . S
Mg221 O230 2.048 . S
Mg221 O233 2.141 . S
C222 O223 1.313 . S
C222 O229 1.195 . S
O223 C222 1.313 . S
C224 O225 1.245 . S
C224 O233 1.289 . S
O225 C224 1.245 . S
C226 O227 1.245 . S
C226 O228 1.289 . S
O227 C226 1.245 . S
O228 Mg221 2.141 . S
O228 C226 1.289 . S
O229 Mg221 2.048 . S
O229 C222 1.195 . S
O230 Mg221 2.048 . S
O230 C231 1.195 . S
C231 O230 1.195 . S
C231 O232 1.313 . S
O232 C231 1.313 . S
O233 Mg221 2.141 . S
O233 C224 1.289 . S
C234 C235 1.391 . S
C234 C236 1.394 . S
C234 H250 0.931 . S
C235 C234 1.391 . S
C235 C239 1.376 . S
C236 C234 1.394 . S
C236 C237 1.369 . S
C236 C240 1.531 1_455 S
C237 C236 1.369 . S
C237 C238 1.410 . S
C237 C245 1.503 1_556 S
C238 C237 1.410 . S
C238 C239 1.392 . S
C238 C241 1.511 . S
C239 C235 1.376 . S
C239 C238 1.392 . S
C239 H251 0.929 . S
C240 C236 1.531 1_655 S
C240 H252 0.960 1_556 S
C240 H253 0.962 . S
C240 H254 0.960 . S
C241 C238 1.511 . S
C241 H255 0.961 . S
C241 H256 0.961 1_556 S
C241 H257 0.961 1_556 S
C242 C243 1.370 . S
C242 C244 1.363 . S
C242 H258 0.931 . S
C243 C242 1.370 . S
C243 C247 1.408 . S
C244 C242 1.363 . S
C244 C245 1.370 . S
C244 C248 1.524 1_554 S
C245 C237 1.503 1_554 S
C245 C244 1.370 . S
C245 C246 1.403 . S
C246 C245 1.403 . S
C246 C247 1.404 . S
C246 C249 1.539 . S
C247 C243 1.408 . S
C247 C246 1.404 . S
C247 H259 0.930 . S
C248 C244 1.524 1_556 S
C248 H260 0.956 . S
C248 H261 0.961 . S
C248 H262 0.961 . S
C249 C246 1.539 . S
C249 H263 0.958 . S
C249 H264 0.961 . S
C249 H265 0.960 . S
H250 C234 0.931 . S
H251 C239 0.929 . S
H252 C240 0.960 1_554 S
H253 C240 0.962 . S
H254 C240 0.960 . S
H255 C241 0.961 . S
H256 C241 0.961 1_554 S
H257 C241 0.961 1_554 S
H258 C242 0.931 . S
H259 C247 0.930 . S
H260 C248 0.956 . S
H261 C248 0.961 . S
H262 C248 0.961 . S
H263 C249 0.958 . S
H264 C249 0.961 . S
H265 C249 0.960 . S
C266 C267 1.391 . S
C266 C268 1.394 . S
C266 H282 0.931 . S
C267 C266 1.391 . S
C267 C271 1.376 . S
C268 C266 1.394 . S
C268 C269 1.369 . S
C268 C272 1.531 . S
C269 C268 1.369 . S
C269 C270 1.410 . S
C269 C277 1.503 1_556 S
C270 C269 1.410 . S
C270 C271 1.392 . S
C270 C273 1.511 1_556 S
C271 C267 1.376 . S
C271 C270 1.392 . S
C271 H283 0.929 . S
C272 C268 1.531 . S
C272 H284 0.979 . S
C272 H285 0.962 . S
C272 H286 0.960 . S
C273 C270 1.511 1_554 S
C273 H287 0.961 . S
C273 H288 0.961 . S
C273 H289 0.961 . S
C274 C275 1.370 . S
C274 C276 1.363 . S
C274 H290 0.931 . S
C275 C274 1.370 . S
C275 C279 1.408 . S
C276 C274 1.363 . S
C276 C277 1.370 . S
C276 C280 1.524 1_554 S
C277 C269 1.503 1_554 S
C277 C276 1.370 . S
C277 C278 1.403 . S
C278 C277 1.403 . S
C278 C279 1.404 . S
C278 C281 1.539 . S
C279 C275 1.408 . S
C279 C278 1.404 . S
C279 H291 0.930 . S
C280 C276 1.524 1_556 S
C280 H292 0.956 . S
C280 H293 0.961 . S
C280 H294 0.961 . S
C281 C278 1.539 . S
C281 H295 0.958 . S
C281 H296 0.961 . S
C281 H297 0.960 . S
H282 C266 0.931 . S
H283 C271 0.929 . S
H284 C272 0.979 . S
H285 C272 0.962 . S
H286 C272 0.960 . S
H287 C273 0.961 . S
H288 C273 0.961 . S
H289 C273 0.961 . S
H290 C274 0.931 . S
H291 C279 0.930 . S
H292 C280 0.956 . S
H293 C280 0.961 . S
H294 C280 0.961 . S
H295 C281 0.958 . S
H296 C281 0.961 . S
H297 C281 0.960 . S
C298 C299 1.391 . S
C298 C300 1.394 . S
C298 H314 0.931 . S
C299 C298 1.391 . S
C299 C303 1.376 . S
C300 C298 1.394 . S
C300 C301 1.369 . S
C300 C304 1.531 . S
C301 C300 1.369 . S
C301 C302 1.410 . S
C301 C309 1.503 1_554 S
C302 C301 1.410 . S
C302 C303 1.392 . S
C302 C305 1.511 1_554 S
C303 C299 1.376 . S
C303 C302 1.392 . S
C303 H315 0.929 . S
C304 C300 1.531 . S
C304 H316 0.960 . S
C304 H317 0.962 . S
C304 H318 0.960 . S
C305 C302 1.511 1_556 S
C305 H319 0.961 . S
C305 H320 0.961 . S
C305 H321 0.961 . S
C306 C307 1.370 . S
C306 C308 1.363 . S
C306 H322 0.931 . S
C307 C306 1.370 . S
C307 C311 1.408 . S
C308 C306 1.363 . S
C308 C309 1.370 . S
C308 C312 1.524 1_556 S
C309 C301 1.503 1_556 S
C309 C308 1.370 . S
C309 C310 1.403 . S
C310 C309 1.403 . S
C310 C311 1.404 . S
C310 C313 1.539 . S
C311 C307 1.408 . S
C311 C310 1.404 . S
C311 H323 0.930 . S
C312 C308 1.524 1_554 S
C312 H324 0.956 . S
C312 H325 0.961 . S
C312 H326 0.961 . S
C313 C310 1.539 . S
C313 H327 0.958 . S
C313 H328 0.961 . S
C313 H329 0.960 . S
H314 C298 0.931 . S
H315 C303 0.929 . S
H316 C304 0.960 . S
H317 C304 0.962 . S
H318 C304 0.960 . S
H319 C305 0.961 . S
H320 C305 0.961 . S
H321 C305 0.961 . S
H322 C306 0.931 . S
H323 C311 0.930 . S
H324 C312 0.956 . S
H325 C312 0.961 . S
H326 C312 0.961 . S
H327 C313 0.958 . S
H328 C313 0.961 . S
H329 C313 0.960 . S
C330 C331 1.391 . S
C330 C332 1.394 . S
C330 H346 0.931 . S
C331 C330 1.391 . S
C331 C335 1.376 . S
C332 C330 1.394 . S
C332 C333 1.369 . S
C332 C336 1.531 . S
C333 C332 1.369 . S
C333 C334 1.410 . S
C333 C341 1.503 . S
C334 C333 1.410 . S
C334 C335 1.392 . S
C334 C337 1.511 . S
C335 C331 1.376 . S
C335 C334 1.392 . S
C335 H347 0.929 . S
C336 C332 1.531 . S
C336 H348 0.960 . S
C336 H349 0.962 . S
C336 H350 0.960 . S
C337 C334 1.511 . S
C337 H351 0.961 . S
C337 H352 0.961 . S
C337 H353 0.961 . S
C338 C339 1.370 . S
C338 C340 1.363 . S
C338 H354 0.931 . S
C339 C338 1.370 . S
C339 C343 1.408 . S
C340 C338 1.363 . S
C340 C341 1.370 . S
C340 C344 1.524 . S
C341 C333 1.503 . S
C341 C340 1.370 . S
C341 C342 1.403 . S
C342 C341 1.403 . S
C342 C343 1.404 . S
C342 C345 1.539 . S
C343 C339 1.408 . S
C343 C342 1.404 . S
C343 H355 0.930 . S
C344 C340 1.524 . S
C344 H356 0.956 . S
C344 H357 0.961 . S
C344 H358 0.961 . S
C345 C342 1.539 . S
C345 H359 0.958 . S
C345 H360 0.961 . S
C345 H361 0.960 . S
H346 C330 0.931 . S
H347 C335 0.929 . S
H348 C336 0.960 . S
H349 C336 0.962 . S
H350 C336 0.960 . S
H351 C337 0.961 . S
H352 C337 0.961 . S
H353 C337 0.961 . S
H354 C338 0.931 . S
H355 C343 0.930 . S
H356 C344 0.956 . S
H357 C344 0.961 . S
H358 C344 0.961 . S
H359 C345 0.958 . S
H360 C345 0.961 . S
H361 C345 0.960 . S
C362 C363 1.391 . S
C362 C364 1.394 . S
C362 H378 0.931 . S
C363 C362 1.391 . S
C363 C367 1.376 . S
C364 C362 1.394 . S
C364 C365 1.369 . S
C364 C368 1.531 . S
C365 C364 1.369 . S
C365 C366 1.410 . S
C365 C373 1.503 . S
C366 C365 1.410 . S
C366 C367 1.392 . S
C366 C369 1.511 1_455 S
C367 C363 1.376 . S
C367 C366 1.392 . S
C367 H379 0.929 . S
C368 C364 1.531 . S
C368 H380 0.960 . S
C368 H381 0.962 . S
C368 H382 0.960 . S
C369 C366 1.511 1_655 S
C369 H383 0.961 . S
C369 H384 0.961 . S
C369 H385 0.961 . S
C370 C371 1.370 . S
C370 C372 1.363 . S
C370 H386 0.931 . S
C371 C370 1.370 . S
C371 C375 1.408 . S
C372 C370 1.363 . S
C372 C373 1.370 . S
C372 C376 1.524 . S
C373 C365 1.503 . S
C373 C372 1.370 . S
C373 C374 1.403 . S
C374 C373 1.403 . S
C374 C375 1.404 . S
C374 C377 1.539 . S
C375 C371 1.408 . S
C375 C374 1.404 . S
C375 H387 0.930 . S
C376 C372 1.524 . S
C376 H388 0.956 . S
C376 H389 0.961 . S
C376 H390 0.961 . S
C377 C374 1.539 . S
C377 H391 0.958 . S
C377 H392 0.961 . S
C377 H393 0.960 . S
H378 C362 0.931 . S
H379 C367 0.929 . S
H380 C368 0.960 . S
H381 C368 0.962 . S
H382 C368 0.960 . S
H383 C369 0.961 . S
H384 C369 0.961 . S
H385 C369 0.961 . S
H386 C370 0.931 . S
H387 C375 0.930 . S
H388 C376 0.956 . S
H389 C376 0.961 . S
H390 C376 0.961 . S
H391 C377 0.958 . S
H392 C377 0.961 . S
H393 C377 0.960 . S
C394 C395 1.391 . S
C394 C396 1.394 . S
C394 H410 0.931 . S
C395 C394 1.391 . S
C395 C399 1.376 . S
C396 C394 1.394 . S
C396 C397 1.369 . S
C396 C400 1.531 . S
C397 C396 1.369 . S
C397 C398 1.410 . S
C397 C405 1.503 . S
C398 C397 1.410 . S
C398 C399 1.392 . S
C398 C401 1.511 . S
C399 C395 1.376 . S
C399 C398 1.392 . S
C399 H411 0.929 . S
C400 C396 1.531 . S
C400 H412 0.960 . S
C400 H413 0.962 . S
C400 H414 0.960 . S
C401 C398 1.511 . S
C401 H415 0.961 . S
C401 H416 0.961 . S
C401 H417 0.961 . S
C402 C403 1.370 . S
C402 C404 1.363 . S
C402 H418 0.931 . S
C403 C402 1.370 . S
C403 C407 1.408 . S
C404 C402 1.363 . S
C404 C405 1.370 . S
C404 C408 1.524 . S
C405 C397 1.503 . S
C405 C404 1.370 . S
C405 C406 1.403 . S
C406 C405 1.403 . S
C406 C407 1.404 . S
C406 C409 1.539 . S
C407 C403 1.408 . S
C407 C406 1.404 . S
C407 H419 0.930 . S
C408 C404 1.524 . S
C408 H420 0.956 . S
C408 H421 0.961 . S
C408 H422 0.961 . S
C409 C406 1.539 . S
C409 H423 0.958 . S
C409 H424 0.961 . S
C409 H425 0.960 . S
H410 C394 0.931 . S
H411 C399 0.929 . S
H412 C400 0.960 . S
H413 C400 0.962 . S
H414 C400 0.960 . S
H415 C401 0.961 . S
H416 C401 0.961 . S
H417 C401 0.961 . S
H418 C402 0.931 . S
H419 C407 0.930 . S
H420 C408 0.956 . S
H421 C408 0.961 . S
H422 C408 0.961 . S
H423 C409 0.958 . S
H424 C409 0.961 . S
H425 C409 0.960 . S
C426 C427 1.391 . S
C426 C428 1.394 . S
C426 H442 0.931 . S
C427 C426 1.391 . S
C427 C431 1.376 . S
C428 C426 1.394 . S
C428 C429 1.369 . S
C428 C432 1.531 . S
C429 C428 1.369 . S
C429 C430 1.410 . S
C429 C437 1.503 . S
C430 C429 1.410 . S
C430 C431 1.392 . S
C430 C433 1.511 . S
C431 C427 1.376 . S
C431 C430 1.392 . S
C431 H443 0.929 . S
C432 C428 1.531 . S
C432 H444 0.960 . S
C432 H445 0.962 . S
C432 H446 0.960 . S
C433 C430 1.511 . S
C433 H447 0.961 . S
C433 H448 0.961 . S
C433 H449 0.961 . S
C434 C435 1.370 . S
C434 C436 1.363 . S
C434 H450 0.931 . S
C435 C434 1.370 . S
C435 C439 1.408 . S
C436 C434 1.363 . S
C436 C437 1.370 . S
C436 C440 1.524 . S
C437 C429 1.503 . S
C437 C436 1.370 . S
C437 C438 1.403 . S
C438 C437 1.403 . S
C438 C439 1.404 . S
C438 C441 1.539 . S
C439 C435 1.408 . S
C439 C438 1.404 . S
C439 H451 0.930 . S
C440 C436 1.524 . S
C440 H452 0.956 . S
C440 H453 0.961 . S
C440 H454 0.961 . S
C441 C438 1.539 . S
C441 H455 0.958 . S
C441 H456 0.961 . S
C441 H457 0.960 . S
H442 C426 0.931 . S
H443 C431 0.929 . S
H444 C432 0.960 . S
H445 C432 0.962 . S
H446 C432 0.960 . S
H447 C433 0.961 . S
H448 C433 0.961 . S
H449 C433 0.961 . S
H450 C434 0.931 . S
H451 C439 0.930 . S
H452 C440 0.956 . S
H453 C440 0.961 . S
H454 C440 0.961 . S
H455 C441 0.958 . S
H456 C441 0.961 . S
H457 C441 0.960 . S
C458 C459 1.391 . S
C458 C460 1.394 . S
C458 H474 0.931 . S
C459 C458 1.391 . S
C459 C463 1.376 . S
C460 C458 1.394 . S
C460 C461 1.369 . S
C460 C464 1.531 . S
C461 C460 1.369 . S
C461 C462 1.410 . S
C461 C469 1.503 . S
C462 C461 1.410 . S
C462 C463 1.392 . S
C462 C465 1.511 . S
C463 C459 1.376 . S
C463 C462 1.392 . S
C463 H475 0.929 . S
C464 C460 1.531 . S
C464 H476 0.960 . S
C464 H477 0.962 . S
C464 H478 0.960 . S
C465 C462 1.511 . S
C465 H479 0.961 . S
C465 H480 0.961 . S
C465 H481 0.961 . S
C466 C467 1.370 . S
C466 C468 1.363 . S
C466 H482 0.931 . S
C467 C466 1.370 . S
C467 C471 1.408 . S
C468 C466 1.363 . S
C468 C469 1.370 . S
C468 C472 1.524 . S
C469 C461 1.503 . S
C469 C468 1.370 . S
C469 C470 1.403 . S
C470 C469 1.403 . S
C470 C471 1.404 . S
C470 C473 1.539 . S
C471 C467 1.408 . S
C471 C470 1.404 . S
C471 H483 0.930 . S
C472 C468 1.524 . S
C472 H484 0.956 . S
C472 H485 0.961 . S
C472 H486 0.961 . S
C473 C470 1.539 . S
C473 H487 0.958 . S
C473 H488 0.961 . S
C473 H489 0.960 . S
H474 C458 0.931 . S
H475 C463 0.929 . S
H476 C464 0.960 . S
H477 C464 0.962 . S
H478 C464 0.960 . S
H479 C465 0.961 . S
H480 C465 0.961 . S
H481 C465 0.961 . S
H482 C466 0.931 . S
H483 C471 0.930 . S
H484 C472 0.956 . S
H485 C472 0.961 . S
H486 C472 0.961 . S
H487 C473 0.958 . S
H488 C473 0.961 . S
H489 C473 0.960 . S
C490 C491 1.391 . S
C490 C492 1.394 . S
C490 H506 0.931 . S
C491 C490 1.391 . S
C491 C495 1.376 . S
C492 C490 1.394 . S
C492 C493 1.369 . S
C492 C496 1.531 . S
C493 C492 1.369 . S
C493 C494 1.410 . S
C493 C501 1.503 . S
C494 C493 1.410 . S
C494 C495 1.392 . S
C494 C497 1.511 . S
C495 C491 1.376 . S
C495 C494 1.392 . S
C495 H507 0.929 . S
C496 C492 1.531 . S
C496 H508 0.960 . S
C496 H509 0.962 . S
C496 H510 0.960 . S
C497 C494 1.511 . S
C497 H511 0.961 . S
C497 H512 0.961 . S
C497 H513 0.961 . S
C498 C499 1.370 . S
C498 C500 1.363 . S
C498 H514 0.931 . S
C499 C498 1.370 . S
C499 C503 1.408 . S
C500 C498 1.363 . S
C500 C501 1.370 . S
C500 C504 1.524 . S
C501 C493 1.503 . S
C501 C500 1.370 . S
C501 C502 1.403 . S
C502 C501 1.403 . S
C502 C503 1.404 . S
C502 C505 1.539 . S
C503 C499 1.408 . S
C503 C502 1.404 . S
C503 H515 0.930 . S
C504 C500 1.524 . S
C504 H516 0.956 . S
C504 H517 0.961 . S
C504 H518 0.961 . S
C505 C502 1.539 . S
C505 H519 0.958 . S
C505 H520 0.961 . S
C505 H521 0.960 . S
H506 C490 0.931 . S
H507 C495 0.929 . S
H508 C496 0.960 . S
H509 C496 0.962 . S
H510 C496 0.960 . S
H511 C497 0.961 . S
H512 C497 0.961 . S
H513 C497 0.961 . S
H514 C498 0.931 . S
H515 C503 0.930 . S
H516 C504 0.956 . S
H517 C504 0.961 . S
H518 C504 0.961 . S
H519 C505 0.958 . S
H520 C505 0.961 . S
H521 C505 0.960 . S
C522 C523 1.391 . S
C522 C524 1.394 . S
C522 H538 0.931 . S
C523 C522 1.391 . S
C523 C527 1.376 . S
C524 C522 1.394 . S
C524 C525 1.369 . S
C524 C528 1.531 . S
C525 C524 1.369 . S
C525 C526 1.410 . S
C525 C533 1.503 . S
C526 C525 1.410 . S
C526 C527 1.392 . S
C526 C529 1.511 . S
C527 C523 1.376 . S
C527 C526 1.392 . S
C527 H539 0.929 . S
C528 C524 1.531 . S
C528 H540 0.960 . S
C528 H541 0.962 . S
C528 H542 0.960 . S
C529 C526 1.511 . S
C529 H543 0.961 . S
C529 H544 0.961 . S
C529 H545 0.961 . S
C530 C531 1.370 . S
C530 C532 1.363 . S
C530 H546 0.931 . S
C531 C530 1.370 . S
C531 C535 1.408 . S
C532 C530 1.363 . S
C532 C533 1.370 . S
C532 C536 1.524 . S
C533 C525 1.503 . S
C533 C532 1.370 . S
C533 C534 1.403 . S
C534 C533 1.403 . S
C534 C535 1.404 . S
C534 C537 1.539 . S
C535 C531 1.408 . S
C535 C534 1.404 . S
C535 H547 0.930 . S
C536 C532 1.524 . S
C536 H548 0.956 . S
C536 H549 0.961 . S
C536 H550 0.961 . S
C537 C534 1.539 . S
C537 H551 0.958 . S
C537 H552 0.961 . S
C537 H553 0.960 . S
H538 C522 0.931 . S
H539 C527 0.929 . S
H540 C528 0.960 . S
H541 C528 0.962 . S
H542 C528 0.960 . S
H543 C529 0.961 . S
H544 C529 0.961 . S
H545 C529 0.961 . S
H546 C530 0.931 . S
H547 C535 0.930 . S
H548 C536 0.956 . S
H549 C536 0.961 . S
H550 C536 0.961 . S
H551 C537 0.958 . S
H552 C537 0.961 . S
H553 C537 0.960 . S
C554 C555 1.391 . S
C554 C556 1.394 . S
C554 H570 0.931 . S
C555 C554 1.391 . S
C555 C559 1.376 . S
C556 C554 1.394 . S
C556 C557 1.369 . S
C556 C560 1.531 . S
C557 C556 1.369 . S
C557 C558 1.410 . S
C557 C565 1.503 . S
C558 C557 1.410 . S
C558 C559 1.392 . S
C558 C561 1.511 . S
C559 C555 1.376 . S
C559 C558 1.392 . S
C559 H571 0.929 . S
C560 C556 1.531 . S
C560 H572 0.960 . S
C560 H573 0.962 . S
C560 H574 0.960 . S
C561 C558 1.511 . S
C561 H575 0.961 . S
C561 H576 0.961 . S
C561 H577 0.961 . S
C562 C563 1.370 . S
C562 C564 1.363 . S
C562 H578 0.931 . S
C563 C562 1.370 . S
C563 C567 1.408 . S
C564 C562 1.363 . S
C564 C565 1.370 . S
C564 C568 1.524 . S
C565 C557 1.503 . S
C565 C564 1.370 . S
C565 C566 1.403 . S
C566 C565 1.403 . S
C566 C567 1.404 . S
C566 C569 1.539 . S
C567 C563 1.408 . S
C567 C566 1.404 . S
C567 H579 0.930 . S
C568 C564 1.524 . S
C568 H580 0.956 . S
C568 H581 0.961 . S
C568 H582 0.961 . S
C569 C566 1.539 . S
C569 H583 0.958 . S
C569 H584 0.961 . S
C569 H585 0.960 . S
H570 C554 0.931 . S
H571 C559 0.929 . S
H572 C560 0.960 . S
H573 C560 0.962 . S
H574 C560 0.960 . S
H575 C561 0.961 . S
H576 C561 0.961 . S
H577 C561 0.961 . S
H578 C562 0.931 . S
H579 C567 0.930 . S
H580 C568 0.956 . S
H581 C568 0.961 . S
H582 C568 0.961 . S
H583 C569 0.958 . S
H584 C569 0.961 . S
H585 C569 0.960 . S
C586 C587 1.391 . S
C586 C588 1.394 . S
C586 H602 0.931 . S
C587 C586 1.391 . S
C587 C591 1.376 . S
C588 C586 1.394 . S
C588 C589 1.369 . S
C588 C592 1.531 . S
C589 C588 1.369 . S
C589 C590 1.410 . S
C589 C597 1.503 . S
C590 C589 1.410 . S
C590 C591 1.392 . S
C590 C593 1.511 . S
C591 C587 1.376 . S
C591 C590 1.392 . S
C591 H603 0.929 . S
C592 C588 1.531 . S
C592 H604 0.960 . S
C592 H605 0.962 . S
C592 H606 0.960 . S
C593 C590 1.511 . S
C593 H607 0.961 . S
C593 H608 0.961 . S
C593 H609 0.961 . S
C594 C595 1.370 . S
C594 C596 1.363 . S
C594 H610 0.931 . S
C595 C594 1.370 . S
C595 C599 1.408 . S
C596 C594 1.363 . S
C596 C597 1.370 . S
C596 C600 1.524 . S
C597 C589 1.503 . S
C597 C596 1.370 . S
C597 C598 1.403 . S
C598 C597 1.403 . S
C598 C599 1.404 . S
C598 C601 1.539 . S
C599 C595 1.408 . S
C599 C598 1.404 . S
C599 H611 0.930 . S
C600 C596 1.524 . S
C600 H612 0.956 . S
C600 H613 0.961 . S
C600 H614 0.961 . S
C601 C598 1.539 . S
C601 H615 0.958 . S
C601 H616 0.961 . S
C601 H617 0.960 . S
H602 C586 0.931 . S
H603 C591 0.929 . S
H604 C592 0.960 . S
H605 C592 0.962 . S
H606 C592 0.960 . S
H607 C593 0.961 . S
H608 C593 0.961 . S
H609 C593 0.961 . S
H610 C594 0.931 . S
H611 C599 0.930 . S
H612 C600 0.956 . S
H613 C600 0.961 . S
H614 C600 0.961 . S
H615 C601 0.958 . S
H616 C601 0.961 . S
H617 C601 0.960 . S
C618 C619 1.391 . S
C618 C620 1.394 . S
C618 H634 0.931 . S
C619 C618 1.391 . S
C619 C623 1.376 . S
C620 C618 1.394 . S
C620 C621 1.369 . S
C620 C624 1.531 . S
C621 C620 1.369 . S
C621 C622 1.410 . S
C621 C629 1.503 . S
C622 C621 1.410 . S
C622 C623 1.392 . S
C622 C625 1.511 . S
C623 C619 1.376 . S
C623 C622 1.392 . S
C623 H635 0.929 . S
C624 C620 1.531 . S
C624 H636 0.960 . S
C624 H637 0.962 . S
C624 H638 0.960 . S
C625 C622 1.511 . S
C625 H639 0.961 . S
C625 H640 0.961 . S
C625 H641 0.961 . S
C626 C627 1.370 . S
C626 C628 1.363 . S
C626 H642 0.931 . S
C627 C626 1.370 . S
C627 C631 1.408 . S
C628 C626 1.363 . S
C628 C629 1.370 . S
C628 C632 1.524 . S
C629 C621 1.503 . S
C629 C628 1.370 . S
C629 C630 1.403 . S
C630 C629 1.403 . S
C630 C631 1.404 . S
C630 C633 1.539 . S
C631 C627 1.408 . S
C631 C630 1.404 . S
C631 H643 0.930 . S
C632 C628 1.524 . S
C632 H644 0.956 . S
C632 H645 0.961 . S
C632 H646 0.961 . S
C633 C630 1.539 . S
C633 H647 0.958 . S
C633 H648 0.961 . S
C633 H649 0.960 . S
H634 C618 0.931 . S
H635 C623 0.929 . S
H636 C624 0.960 . S
H637 C624 0.962 . S
H638 C624 0.960 . S
H639 C625 0.961 . S
H640 C625 0.961 . S
H641 C625 0.961 . S
H642 C626 0.931 . S
H643 C631 0.930 . S
H644 C632 0.956 . S
H645 C632 0.961 . S
H646 C632 0.961 . S
H647 C633 0.958 . S
H648 C633 0.961 . S
H649 C633 0.960 . S
C650 C651 1.391 . S
C650 C652 1.394 . S
C650 H666 0.931 . S
C651 C650 1.391 . S
C651 C655 1.376 . S
C652 C650 1.394 . S
C652 C653 1.369 . S
C652 C656 1.531 . S
C653 C652 1.369 . S
C653 C654 1.410 . S
C653 C661 1.503 . S
C654 C653 1.410 . S
C654 C655 1.392 . S
C654 C657 1.511 . S
C655 C651 1.376 . S
C655 C654 1.392 . S
C655 H667 0.929 . S
C656 C652 1.531 . S
C656 H668 0.960 . S
C656 H669 0.962 . S
C656 H670 0.960 . S
C657 C654 1.511 . S
C657 H671 0.961 . S
C657 H672 0.961 . S
C657 H673 0.961 . S
C658 C659 1.370 . S
C658 C660 1.363 . S
C658 H674 0.931 . S
C659 C658 1.370 . S
C659 C663 1.408 . S
C660 C658 1.363 . S
C660 C661 1.370 . S
C660 C664 1.524 . S
C661 C653 1.503 . S
C661 C660 1.370 . S
C661 C662 1.403 . S
C662 C661 1.403 . S
C662 C663 1.404 . S
C662 C665 1.539 . S
C663 C659 1.408 . S
C663 C662 1.404 . S
C663 H675 0.930 . S
C664 C660 1.524 . S
C664 H676 0.956 . S
C664 H677 0.961 . S
C664 H678 0.961 . S
C665 C662 1.539 . S
C665 H679 0.958 . S
C665 H680 0.961 . S
C665 H681 0.960 . S
H666 C650 0.931 . S
H667 C655 0.929 . S
H668 C656 0.960 . S
H669 C656 0.962 . S
H670 C656 0.960 . S
H671 C657 0.961 . S
H672 C657 0.961 . S
H673 C657 0.961 . S
H674 C658 0.931 . S
H675 C663 0.930 . S
H676 C664 0.956 . S
H677 C664 0.961 . S
H678 C664 0.961 . S
H679 C665 0.958 . S
H680 C665 0.961 . S
H681 C665 0.960 . S
C682 C683 1.391 . S
C682 C684 1.394 . S
C682 H698 0.931 . S
C683 C682 1.391 . S
C683 C687 1.376 . S
C684 C682 1.394 . S
C684 C685 1.369 . S
C684 C688 1.531 . S
C685 C684 1.369 . S
C685 C686 1.410 . S
C685 C693 1.503 . S
C686 C685 1.410 . S
C686 C687 1.392 . S
C686 C689 1.511 . S
C687 C683 1.376 . S
C687 C686 1.392 . S
C687 H699 0.929 . S
C688 C684 1.531 . S
C688 H700 0.960 . S
C688 H701 0.962 . S
C688 H702 0.960 . S
C689 C686 1.511 . S
C689 H703 0.961 . S
C689 H704 0.961 . S
C689 H705 0.961 . S
C690 C691 1.370 . S
C690 C692 1.363 . S
C690 H706 0.931 . S
C691 C690 1.370 . S
C691 C695 1.408 . S
C692 C690 1.363 . S
C692 C693 1.370 . S
C692 C696 1.524 . S
C693 C685 1.503 . S
C693 C692 1.370 . S
C693 C694 1.403 . S
C694 C693 1.403 . S
C694 C695 1.404 . S
C694 C697 1.539 . S
C695 C691 1.408 . S
C695 C694 1.404 . S
C695 H707 0.930 . S
C696 C692 1.524 . S
C696 H708 0.956 . S
C696 H709 0.961 . S
C696 H710 0.961 . S
C697 C694 1.539 . S
C697 H711 0.958 . S
C697 H712 0.961 . S
C697 H713 0.960 . S
H698 C682 0.931 . S
H699 C687 0.929 . S
H700 C688 0.960 . S
H701 C688 0.962 . S
H702 C688 0.960 . S
H703 C689 0.961 . S
H704 C689 0.961 . S
H705 C689 0.961 . S
H706 C690 0.931 . S
H707 C695 0.930 . S
H708 C696 0.956 . S
H709 C696 0.961 . S
H710 C696 0.961 . S
H711 C697 0.958 . S
H712 C697 0.961 . S
H713 C697 0.960 . S
C714 C715 1.391 . S
C714 C716 1.394 . S
C714 H730 0.931 . S
C715 C714 1.391 . S
C715 C719 1.376 . S
C716 C714 1.394 . S
C716 C717 1.369 . S
C716 C720 1.531 . S
C717 C716 1.369 . S
C717 C718 1.410 . S
C717 C725 1.503 . S
C718 C717 1.410 . S
C718 C719 1.392 . S
C718 C721 1.511 . S
C719 C715 1.376 . S
C719 C718 1.392 . S
C719 H731 0.929 . S
C720 C716 1.531 . S
C720 H732 0.960 . S
C720 H733 0.962 . S
C720 H734 0.960 . S
C721 C718 1.511 . S
C721 H735 0.961 . S
C721 H736 0.961 . S
C721 H737 0.961 . S
C722 C723 1.370 . S
C722 C724 1.363 . S
C722 H738 0.931 . S
C723 C722 1.370 . S
C723 C727 1.408 . S
C724 C722 1.363 . S
C724 C725 1.370 . S
C724 C728 1.524 . S
C725 C717 1.503 . S
C725 C724 1.370 . S
C725 C726 1.403 . S
C726 C725 1.403 . S
C726 C727 1.404 . S
C726 C729 1.539 . S
C727 C723 1.408 . S
C727 C726 1.404 . S
C727 H739 0.930 . S
C728 C724 1.524 . S
C728 H740 0.956 . S
C728 H741 0.961 . S
C728 H742 0.961 . S
C729 C726 1.539 . S
C729 H743 0.958 . S
C729 H744 0.961 . S
C729 H745 0.960 . S
H730 C714 0.931 . S
H731 C719 0.929 . S
H732 C720 0.960 . S
H733 C720 0.962 . S
H734 C720 0.960 . S
H735 C721 0.961 . S
H736 C721 0.961 . S
H737 C721 0.961 . S
H738 C722 0.931 . S
H739 C727 0.930 . S
H740 C728 0.956 . S
H741 C728 0.961 . S
H742 C728 0.961 . S
H743 C729 0.958 . S
H744 C729 0.961 . S
H745 C729 0.960 . S
C746 C747 1.391 . S
C746 C748 1.394 . S
C746 H762 0.931 . S
C747 C746 1.391 . S
C747 C751 1.376 . S
C748 C746 1.394 . S
C748 C749 1.369 . S
C748 C752 1.531 . S
C749 C748 1.369 . S
C749 C750 1.410 . S
C749 C757 1.503 . S
C750 C749 1.410 . S
C750 C751 1.392 . S
C750 C753 1.511 . S
C751 C747 1.376 . S
C751 C750 1.392 . S
C751 H763 0.929 . S
C752 C748 1.531 . S
C752 H764 0.960 . S
C752 H765 0.962 . S
C752 H766 0.960 . S
C753 C750 1.511 . S
C753 H767 0.961 . S
C753 H768 0.961 . S
C753 H769 0.961 . S
C754 C755 1.370 . S
C754 C756 1.363 . S
C754 H770 0.931 . S
C755 C754 1.370 . S
C755 C759 1.408 . S
C756 C754 1.363 . S
C756 C757 1.370 . S
C756 C760 1.524 . S
C757 C749 1.503 . S
C757 C756 1.370 . S
C757 C758 1.403 . S
C758 C757 1.403 . S
C758 C759 1.404 . S
C758 C761 1.539 . S
C759 C755 1.408 . S
C759 C758 1.404 . S
C759 H771 0.930 . S
C760 C756 1.524 . S
C760 H772 0.956 . S
C760 H773 0.961 . S
C760 H774 0.961 . S
C761 C758 1.539 . S
C761 H775 0.958 . S
C761 H776 0.961 . S
C761 H777 0.960 . S
H762 C746 0.931 . S
H763 C751 0.929 . S
H764 C752 0.960 . S
H765 C752 0.962 . S
H766 C752 0.960 . S
H767 C753 0.961 . S
H768 C753 0.961 . S
H769 C753 0.961 . S
H770 C754 0.931 . S
H771 C759 0.930 . S
H772 C760 0.956 . S
H773 C760 0.961 . S
H774 C760 0.961 . S
H775 C761 0.958 . S
H776 C761 0.961 . S
H777 C761 0.960 . S
C778 C779 1.391 . S
C778 C780 1.394 . S
C778 H794 0.931 . S
C779 C778 1.391 . S
C779 C783 1.376 . S
C780 C778 1.394 . S
C780 C781 1.369 . S
C780 C784 1.531 . S
C781 C780 1.369 . S
C781 C782 1.410 . S
C781 C789 1.503 . S
C782 C781 1.410 . S
C782 C783 1.392 . S
C782 C785 1.511 . S
C783 C779 1.376 . S
C783 C782 1.392 . S
C783 H795 0.929 . S
C784 C780 1.531 . S
C784 H796 0.960 . S
C784 H797 0.962 . S
C784 H798 0.960 . S
C785 C782 1.511 . S
C785 H799 0.961 . S
C785 H800 0.961 . S
C785 H801 0.961 . S
C786 C787 1.370 . S
C786 C788 1.363 . S
C786 H802 0.931 . S
C787 C786 1.370 . S
C787 C791 1.408 . S
C788 C786 1.363 . S
C788 C789 1.370 . S
C788 C792 1.524 . S
C789 C781 1.503 . S
C789 C788 1.370 . S
C789 C790 1.403 . S
C790 C789 1.403 . S
C790 C791 1.404 . S
C790 C793 1.539 . S
C791 C787 1.408 . S
C791 C790 1.404 . S
C791 H803 0.930 . S
C792 C788 1.524 . S
C792 H804 0.956 . S
C792 H805 0.961 . S
C792 H806 0.961 . S
C793 C790 1.539 . S
C793 H807 0.958 . S
C793 H808 0.961 . S
C793 H809 0.960 . S
H794 C778 0.931 . S
H795 C783 0.929 . S
H796 C784 0.960 . S
H797 C784 0.962 . S
H798 C784 0.960 . S
H799 C785 0.961 . S
H800 C785 0.961 . S
H801 C785 0.961 . S
H802 C786 0.931 . S
H803 C791 0.930 . S
H804 C792 0.956 . S
H805 C792 0.961 . S
H806 C792 0.961 . S
H807 C793 0.958 . S
H808 C793 0.961 . S
H809 C793 0.960 . S
C810 C811 1.391 . S
C810 C812 1.394 . S
C810 H826 0.931 . S
C811 C810 1.391 . S
C811 C815 1.376 . S
C812 C810 1.394 . S
C812 C813 1.369 . S
C812 C816 1.531 . S
C813 C812 1.369 . S
C813 C814 1.410 . S
C813 C821 1.503 . S
C814 C813 1.410 . S
C814 C815 1.392 . S
C814 C817 1.511 . S
C815 C811 1.376 . S
C815 C814 1.392 . S
C815 H827 0.929 . S
C816 C812 1.531 . S
C816 H828 0.960 . S
C816 H829 0.962 . S
C816 H830 0.960 . S
C817 C814 1.511 . S
C817 H831 0.961 . S
C817 H832 0.961 . S
C817 H833 0.961 . S
C818 C819 1.370 . S
C818 C820 1.363 . S
C818 H834 0.931 . S
C819 C818 1.370 . S
C819 C823 1.408 . S
C820 C818 1.363 . S
C820 C821 1.370 . S
C820 C824 1.524 . S
C821 C813 1.503 . S
C821 C820 1.370 . S
C821 C822 1.403 . S
C822 C821 1.403 . S
C822 C823 1.404 . S
C822 C825 1.539 . S
C823 C819 1.408 . S
C823 C822 1.404 . S
C823 H835 0.930 . S
C824 C820 1.524 . S
C824 H836 0.956 . S
C824 H837 0.961 . S
C824 H838 0.961 . S
C825 C822 1.539 . S
C825 H839 0.958 . S
C825 H840 0.961 . S
C825 H841 0.960 . S
H826 C810 0.931 . S
H827 C815 0.929 . S
H828 C816 0.960 . S
H829 C816 0.962 . S
H830 C816 0.960 . S
H831 C817 0.961 . S
H832 C817 0.961 . S
H833 C817 0.961 . S
H834 C818 0.931 . S
H835 C823 0.930 . S
H836 C824 0.956 . S
H837 C824 0.961 . S
H838 C824 0.961 . S
H839 C825 0.958 . S
H840 C825 0.961 . S
H841 C825 0.960 . S
C842 C843 1.391 . S
C842 C844 1.394 . S
C842 H858 0.931 . S
C843 C842 1.391 . S
C843 C847 1.376 . S
C844 C842 1.394 . S
C844 C845 1.369 . S
C844 C848 1.531 . S
C845 C844 1.369 . S
C845 C846 1.410 . S
C845 C853 1.503 . S
C846 C845 1.410 . S
C846 C847 1.392 . S
C846 C849 1.511 . S
C847 C843 1.376 . S
C847 C846 1.392 . S
C847 H859 0.929 . S
C848 C844 1.531 . S
C848 H860 0.960 . S
C848 H861 0.962 . S
C848 H862 0.960 . S
C849 C846 1.511 . S
C849 H863 0.961 . S
C849 H864 0.961 . S
C849 H865 0.961 . S
C850 C851 1.370 . S
C850 C852 1.363 . S
C850 H866 0.931 . S
C851 C850 1.370 . S
C851 C855 1.408 . S
C852 C850 1.363 . S
C852 C853 1.370 . S
C852 C856 1.524 . S
C853 C845 1.503 . S
C853 C852 1.370 . S
C853 C854 1.403 . S
C854 C853 1.403 . S
C854 C855 1.404 . S
C854 C857 1.539 . S
C855 C851 1.408 . S
C855 C854 1.404 . S
C855 H867 0.930 . S
C856 C852 1.524 . S
C856 H868 0.956 . S
C856 H869 0.961 . S
C856 H870 0.961 . S
C857 C854 1.539 . S
C857 H871 0.958 . S
C857 H872 0.961 . S
C857 H873 0.960 . S
H858 C842 0.931 . S
H859 C847 0.929 . S
H860 C848 0.960 . S
H861 C848 0.962 . S
H862 C848 0.960 . S
H863 C849 0.961 . S
H864 C849 0.961 . S
H865 C849 0.961 . S
H866 C850 0.931 . S
H867 C855 0.930 . S
H868 C856 0.956 . S
H869 C856 0.961 . S
H870 C856 0.961 . S
H871 C857 0.958 . S
H872 C857 0.961 . S
H873 C857 0.960 . S
C874 C875 1.391 . S
C874 C876 1.394 . S
C874 H890 0.923 1_545 S
C875 C874 1.391 . S
C875 C879 1.376 . S
C876 C874 1.394 . S
C876 C877 1.369 . S
C876 C880 1.531 . S
C877 C876 1.369 . S
C877 C878 1.410 . S
C877 C885 1.503 . S
C878 C877 1.410 . S
C878 C879 1.392 . S
C878 C881 1.511 . S
C879 C875 1.376 . S
C879 C878 1.392 . S
C879 H891 0.929 . S
C880 C876 1.531 . S
C880 H892 0.960 . S
C880 H893 0.962 . S
C880 H894 0.960 . S
C881 C878 1.511 . S
C881 H895 0.961 . S
C881 H896 0.961 . S
C881 H897 0.961 . S
C882 C883 1.370 . S
C882 C884 1.363 . S
C882 H898 0.931 . S
C883 C882 1.370 . S
C883 C887 1.408 . S
C884 C882 1.363 . S
C884 C885 1.370 . S
C884 C888 1.524 . S
C885 C877 1.503 . S
C885 C884 1.370 . S
C885 C886 1.403 . S
C886 C885 1.403 . S
C886 C887 1.404 . S
C886 C889 1.539 . S
C887 C883 1.408 . S
C887 C886 1.404 . S
C887 H899 0.930 . S
C888 C884 1.524 . S
C888 H900 0.956 1_545 S
C888 H901 0.961 . S
C888 H902 0.961 1_545 S
C889 C886 1.539 . S
C889 H903 0.958 . S
C889 H904 0.961 . S
C889 H905 0.960 . S
H890 C874 0.923 1_565 S
H891 C879 0.929 . S
H892 C880 0.960 . S
H893 C880 0.962 . S
H894 C880 0.960 . S
H895 C881 0.961 . S
H896 C881 0.961 . S
H897 C881 0.961 . S
H898 C882 0.931 . S
H899 C887 0.930 . S
H900 C888 0.956 1_565 S
H901 C888 0.961 . S
H902 C888 0.961 1_565 S
H903 C889 0.958 . S
H904 C889 0.961 . S
H905 C889 0.960 . S
C906 C907 1.391 . S
C906 C908 1.394 . S
C906 H922 0.931 . S
C907 C906 1.391 . S
C907 C911 1.376 . S
C908 C906 1.394 . S
C908 C909 1.369 . S
C908 C912 1.531 . S
C909 C908 1.369 . S
C909 C910 1.410 . S
C909 C917 1.503 . S
C910 C909 1.410 . S
C910 C911 1.392 . S
C910 C913 1.511 . S
C911 C907 1.376 . S
C911 C910 1.392 . S
C911 H923 0.929 . S
C912 C908 1.531 . S
C912 H924 0.960 . S
C912 H925 0.962 . S
C912 H926 0.960 . S
C913 C910 1.511 . S
C913 H927 0.959 1_554 S
C913 H928 0.961 . S
C913 H929 0.961 . S
C914 C915 1.370 . S
C914 C916 1.363 . S
C914 H930 0.931 1_554 S
C915 C914 1.370 . S
C915 C919 1.408 . S
C916 C914 1.363 . S
C916 C917 1.370 . S
C916 C920 1.524 . S
C917 C909 1.503 . S
C917 C916 1.370 . S
C917 C918 1.403 . S
C918 C917 1.403 . S
C918 C919 1.404 . S
C918 C921 1.539 . S
C919 C915 1.408 . S
C919 C918 1.404 . S
C919 H931 0.930 . S
C920 C916 1.524 . S
C920 H932 0.956 . S
C920 H933 0.961 . S
C920 H934 0.961 1_554 S
C921 C918 1.539 . S
C921 H935 0.958 . S
C921 H936 0.961 . S
C921 H937 0.960 . S
H922 C906 0.931 . S
H923 C911 0.929 . S
H924 C912 0.960 . S
H925 C912 0.962 . S
H926 C912 0.960 . S
H927 C913 0.959 1_556 S
H928 C913 0.961 . S
H929 C913 0.961 . S
H930 C914 0.931 1_556 S
H931 C919 0.930 . S
H932 C920 0.956 . S
H933 C920 0.961 . S
H934 C920 0.961 1_556 S
H935 C921 0.958 . S
H936 C921 0.961 . S
H937 C921 0.960 . S
C938 C939 1.391 . S
C938 C940 1.394 . S
C938 H954 0.931 . S
C939 C938 1.391 . S
C939 C943 1.376 . S
C940 C938 1.394 . S
C940 C941 1.369 . S
C940 C944 1.531 1_655 S
C941 C940 1.369 . S
C941 C942 1.410 . S
C941 C949 1.503 . S
C942 C941 1.410 . S
C942 C943 1.392 . S
C942 C945 1.511 . S
C943 C939 1.376 . S
C943 C942 1.392 . S
C943 H955 0.929 . S
C944 C940 1.531 1_455 S
C944 H956 0.960 . S
C944 H957 0.962 . S
C944 H958 0.960 . S
C945 C942 1.511 . S
C945 H959 0.961 . S
C945 H960 0.961 . S
C945 H961 0.961 . S
C946 C947 1.379 . S
C946 C948 1.345 1_455 S
C946 H962 0.919 . S
C947 C946 1.379 . S
C947 C951 1.408 . S
C948 C946 1.345 1_655 S
C948 C949 1.370 . S
C948 C952 1.524 . S
C949 C941 1.503 . S
C949 C948 1.370 . S
C949 C950 1.389 1_655 S
C950 C949 1.389 1_455 S
C950 C951 1.433 . S
C950 C953 1.523 1_455 S
C951 C947 1.408 . S
C951 C950 1.433 . S
C951 H963 0.930 . S
C952 C948 1.524 . S
C952 H964 0.956 1_554 S
C952 H965 0.961 . S
C952 H966 0.961 1_554 S
C953 C950 1.523 1_655 S
C953 H967 0.957 1_655 S
C953 H968 0.961 . S
C953 H969 0.961 . S
H954 C938 0.931 . S
H955 C943 0.929 . S
H956 C944 0.960 . S
H957 C944 0.962 . S
H958 C944 0.960 . S
H959 C945 0.961 . S
H960 C945 0.961 . S
H961 C945 0.961 . S
H962 C946 0.919 . S
H963 C951 0.930 . S
H964 C952 0.956 1_556 S
H965 C952 0.961 . S
H966 C952 0.961 1_556 S
H967 C953 0.957 1_455 S
H968 C953 0.961 . S
H969 C953 0.961 . S
C970 C971 1.391 . S
C970 C972 1.394 . S
C970 H986 0.931 1_554 S
C971 C970 1.391 . S
C971 C975 1.376 . S
C972 C970 1.394 . S
C972 C973 1.369 . S
C972 C976 1.531 1_554 S
C973 C972 1.369 . S
C973 C974 1.410 . S
C973 C981 1.503 . S
C974 C973 1.410 . S
C974 C975 1.392 . S
C974 C977 1.511 . S
C975 C971 1.376 . S
C975 C974 1.392 . S
C975 H987 0.929 . S
C976 C972 1.531 1_556 S
C976 H988 0.960 1_556 S
C976 H989 0.962 . S
C976 H990 0.960 . S
C977 C974 1.511 . S
C977 H991 0.961 . S
C977 H992 0.961 . S
C977 H993 0.961 . S
C978 C979 1.370 . S
C978 C980 1.363 . S
C978 H994 0.931 . S
C979 C978 1.370 . S
C979 C983 1.408 . S
C980 C978 1.363 . S
C980 C981 1.370 . S
C980 C984 1.524 . S
C981 C973 1.503 . S
C981 C980 1.370 . S
C981 C982 1.403 . S
C982 C981 1.403 . S
C982 C983 1.404 . S
C982 C985 1.539 . S
C983 C979 1.408 . S
C983 C982 1.404 . S
C983 H995 0.930 . S
C984 C980 1.524 . S
C984 H996 0.956 . S
C984 H997 0.961 . S
C984 H998 0.961 . S
C985 C982 1.539 . S
C985 H999 0.958 . S
C985 H1000 0.961 . S
C985 H1001 0.960 . S
H986 C970 0.931 1_556 S
H987 C975 0.929 . S
H988 C976 0.960 1_554 S
H989 C976 0.962 . S
H990 C976 0.960 . S
H991 C977 0.961 . S
H992 C977 0.961 . S
H993 C977 0.961 . S
H994 C978 0.931 . S
H995 C983 0.930 . S
H996 C984 0.956 . S
H997 C984 0.961 . S
H998 C984 0.961 . S
H999 C985 0.958 . S
H1000 C985 0.961 . S
H1001 C985 0.960 . S
C1002 C1003 1.391 . S
C1002 C1004 1.394 . S
C1002 H1018 0.931 . S
C1003 C1002 1.391 . S
C1003 C1007 1.376 . S
C1004 C1002 1.394 . S
C1004 C1005 1.369 . S
C1004 C1008 1.531 . S
C1005 C1004 1.369 . S
C1005 C1006 1.410 . S
C1005 C1013 1.503 . S
C1006 C1005 1.410 . S
C1006 C1007 1.392 . S
C1006 C1009 1.511 1_655 S
C1007 C1003 1.376 . S
C1007 C1006 1.392 . S
C1007 H1019 0.929 . S
C1008 C1004 1.531 . S
C1008 H1020 0.960 . S
C1008 H1021 0.962 . S
C1008 H1022 0.960 . S
C1009 C1006 1.511 1_455 S
C1009 H1023 0.961 . S
C1009 H1024 0.961 . S
C1009 H1025 0.961 . S
C1010 C1011 1.370 . S
C1010 C1012 1.363 1_455 S
C1010 H1026 0.931 1_455 S
C1011 C1010 1.370 . S
C1011 C1015 1.408 . S
C1012 C1010 1.363 1_655 S
C1012 C1013 1.370 . S
C1012 C1016 1.524 . S
C1013 C1005 1.503 . S
C1013 C1012 1.370 . S
C1013 C1014 1.403 1_655 S
C1014 C1013 1.403 1_455 S
C1014 C1015 1.404 . S
C1014 C1017 1.539 . S
C1015 C1011 1.408 . S
C1015 C1014 1.404 . S
C1015 H1027 0.930 . S
C1016 C1012 1.524 . S
C1016 H1028 0.956 . S
C1016 H1029 0.961 . S
C1016 H1030 0.961 . S
C1017 C1014 1.539 . S
C1017 H1031 0.958 . S
C1017 H1032 0.961 . S
C1017 H1033 0.960 . S
H1018 C1002 0.931 . S
H1019 C1007 0.929 . S
H1020 C1008 0.960 . S
H1021 C1008 0.962 . S
H1022 C1008 0.960 . S
H1023 C1009 0.961 . S
H1024 C1009 0.961 . S
H1025 C1009 0.961 . S
H1026 C1010 0.931 1_655 S
H1027 C1015 0.930 . S
H1028 C1016 0.956 . S
H1029 C1016 0.961 . S
H1030 C1016 0.961 . S
H1031 C1017 0.958 . S
H1032 C1017 0.961 . S
H1033 C1017 0.960 . S
C1034 C1035 1.391 . S
C1034 C1036 1.394 . S
C1034 H1050 0.931 . S
C1035 C1034 1.391 . S
C1035 C1039 1.376 . S
C1036 C1034 1.394 . S
C1036 C1037 1.369 . S
C1036 C1040 1.531 . S
C1037 C1036 1.369 . S
C1037 C1038 1.410 . S
C1037 C1045 1.503 . S
C1038 C1037 1.410 . S
C1038 C1039 1.392 . S
C1038 C1041 1.511 . S
C1039 C1035 1.376 . S
C1039 C1038 1.392 . S
C1039 H1051 0.929 . S
C1040 C1036 1.531 . S
C1040 H1052 0.960 . S
C1040 H1053 0.962 . S
C1040 H1054 0.960 . S
C1041 C1038 1.511 . S
C1041 H1055 0.961 . S
C1041 H1056 0.961 . S
C1041 H1057 0.961 . S
C1042 C1043 1.370 . S
C1042 C1044 1.363 . S
C1042 H1058 0.931 . S
C1043 C1042 1.370 . S
C1043 C1047 1.408 . S
C1044 C1042 1.363 . S
C1044 C1045 1.370 . S
C1044 C1048 1.524 . S
C1045 C1037 1.503 . S
C1045 C1044 1.370 . S
C1045 C1046 1.403 . S
C1046 C1045 1.403 . S
C1046 C1047 1.404 . S
C1046 C1049 1.539 . S
C1047 C1043 1.408 . S
C1047 C1046 1.404 . S
C1047 H1059 0.930 . S
C1048 C1044 1.524 . S
C1048 H1060 0.956 . S
C1048 H1061 0.961 . S
C1048 H1062 0.961 . S
C1049 C1046 1.539 . S
C1049 H1063 0.958 . S
C1049 H1064 0.961 . S
C1049 H1065 0.960 . S
H1050 C1034 0.931 . S
H1051 C1039 0.929 . S
H1052 C1040 0.960 . S
H1053 C1040 0.962 . S
H1054 C1040 0.960 . S
H1055 C1041 0.961 . S
H1056 C1041 0.961 . S
H1057 C1041 0.961 . S
H1058 C1042 0.931 . S
H1059 C1047 0.930 . S
H1060 C1048 0.956 . S
H1061 C1048 0.961 . S
H1062 C1048 0.961 . S
H1063 C1049 0.958 . S
H1064 C1049 0.961 . S
H1065 C1049 0.960 . S
C1066 C1067 1.391 . S
C1066 C1068 1.394 . S
C1066 H1082 0.931 . S
C1067 C1066 1.391 . S
C1067 C1071 1.376 . S
C1068 C1066 1.394 . S
C1068 C1069 1.369 . S
C1068 C1072 1.531 . S
C1069 C1068 1.369 . S
C1069 C1070 1.410 . S
C1069 C1077 1.503 . S
C1070 C1069 1.410 . S
C1070 C1071 1.392 . S
C1070 C1073 1.511 . S
C1071 C1067 1.376 . S
C1071 C1070 1.392 . S
C1071 H1083 0.929 . S
C1072 C1068 1.531 . S
C1072 H1084 0.960 . S
C1072 H1085 0.962 . S
C1072 H1086 0.960 . S
C1073 C1070 1.511 . S
C1073 H1087 0.961 . S
C1073 H1088 0.961 . S
C1073 H1089 0.961 . S
C1074 C1075 1.370 . S
C1074 C1076 1.363 . S
C1074 H1090 0.931 . S
C1075 C1074 1.370 . S
C1075 C1079 1.408 . S
C1076 C1074 1.363 . S
C1076 C1077 1.370 . S
C1076 C1080 1.524 . S
C1077 C1069 1.503 . S
C1077 C1076 1.370 . S
C1077 C1078 1.403 . S
C1078 C1077 1.403 . S
C1078 C1079 1.404 . S
C1078 C1081 1.539 . S
C1079 C1075 1.408 . S
C1079 C1078 1.404 . S
C1079 H1091 0.930 . S
C1080 C1076 1.524 . S
C1080 H1092 0.956 . S
C1080 H1093 0.961 . S
C1080 H1094 0.961 . S
C1081 C1078 1.539 . S
C1081 H1095 0.958 . S
C1081 H1096 0.961 . S
C1081 H1097 0.960 . S
H1082 C1066 0.931 . S
H1083 C1071 0.929 . S
H1084 C1072 0.960 . S
H1085 C1072 0.962 . S
H1086 C1072 0.960 . S
H1087 C1073 0.961 . S
H1088 C1073 0.961 . S
H1089 C1073 0.961 . S
H1090 C1074 0.931 . S
H1091 C1079 0.930 . S
H1092 C1080 0.956 . S
H1093 C1080 0.961 . S
H1094 C1080 0.961 . S
H1095 C1081 0.958 . S
H1096 C1081 0.961 . S
H1097 C1081 0.960 . S
C1098 C1099 1.391 . S
C1098 C1100 1.394 . S
C1098 H1114 0.931 1_545 S
C1099 C1098 1.391 . S
C1099 C1103 1.376 . S
C1100 C1098 1.394 . S
C1100 C1101 1.369 . S
C1100 C1104 1.531 . S
C1101 C1100 1.369 . S
C1101 C1102 1.410 . S
C1101 C1109 1.503 . S
C1102 C1101 1.410 . S
C1102 C1103 1.392 . S
C1102 C1105 1.511 . S
C1103 C1099 1.376 . S
C1103 C1102 1.392 . S
C1103 H1115 0.929 1_556 S
C1104 C1100 1.531 . S
C1104 H1116 0.960 . S
C1104 H1117 0.962 1_545 S
C1104 H1118 0.960 1_545 S
C1105 C1102 1.511 . S
C1105 H1119 0.961 1_556 S
C1105 H1120 0.961 . S
C1105 H1121 0.961 . S
C1106 C1107 1.370 . S
C1106 C1108 1.363 . S
C1106 H1122 0.931 . S
C1107 C1106 1.370 . S
C1107 C1111 1.408 . S
C1108 C1106 1.363 . S
C1108 C1109 1.370 . S
C1108 C1112 1.524 . S
C1109 C1101 1.503 . S
C1109 C1108 1.370 . S
C1109 C1110 1.403 . S
C1110 C1109 1.403 . S
C1110 C1111 1.404 . S
C1110 C1113 1.539 . S
C1111 C1107 1.408 . S
C1111 C1110 1.404 . S
C1111 H1123 0.930 . S
C1112 C1108 1.524 . S
C1112 H1124 0.956 . S
C1112 H1125 0.961 . S
C1112 H1126 0.961 . S
C1113 C1110 1.539 . S
C1113 H1127 0.958 . S
C1113 H1128 0.961 . S
C1113 H1129 0.960 . S
H1114 C1098 0.931 1_565 S
H1115 C1103 0.929 1_554 S
H1116 C1104 0.960 . S
H1117 C1104 0.962 1_565 S
H1118 C1104 0.960 1_565 S
H1119 C1105 0.961 1_554 S
H1120 C1105 0.961 . S
H1121 C1105 0.961 . S
H1122 C1106 0.931 . S
H1123 C1111 0.930 . S
H1124 C1112 0.956 . S
H1125 C1112 0.961 . S
H1126 C1112 0.961 . S
H1127 C1113 0.958 . S
H1128 C1113 0.961 . S
H1129 C1113 0.960 . S
C1130 C1131 1.391 . S
C1130 C1132 1.394 . S
C1130 H1146 0.931 . S
C1131 C1130 1.391 . S
C1131 C1135 1.376 . S
C1132 C1130 1.394 . S
C1132 C1133 1.369 . S
C1132 C1136 1.531 . S
C1133 C1132 1.369 . S
C1133 C1134 1.410 . S
C1133 C1141 1.503 . S
C1134 C1133 1.410 . S
C1134 C1135 1.392 . S
C1134 C1137 1.511 . S
C1135 C1131 1.376 . S
C1135 C1134 1.392 . S
C1135 H1147 0.929 . S
C1136 C1132 1.531 . S
C1136 H1148 0.960 . S
C1136 H1149 0.962 . S
C1136 H1150 0.960 . S
C1137 C1134 1.511 . S
C1137 H1151 0.961 . S
C1137 H1152 0.961 . S
C1137 H1153 0.961 . S
C1138 C1139 1.370 . S
C1138 C1140 1.363 . S
C1138 H1154 0.931 . S
C1139 C1138 1.370 . S
C1139 C1143 1.408 1_556 S
C1140 C1138 1.363 . S
C1140 C1141 1.370 . S
C1140 C1144 1.524 . S
C1141 C1133 1.503 . S
C1141 C1140 1.370 . S
C1141 C1142 1.403 . S
C1142 C1141 1.403 . S
C1142 C1143 1.404 1_556 S
C1142 C1145 1.539 1_556 S
C1143 C1139 1.408 1_554 S
C1143 C1142 1.404 1_554 S
C1143 H1155 0.930 . S
C1144 C1140 1.524 . S
C1144 H1156 0.956 . S
C1144 H1157 0.961 . S
C1144 H1158 0.961 . S
C1145 C1142 1.539 1_554 S
C1145 H1159 0.958 . S
C1145 H1160 0.961 . S
C1145 H1161 0.960 . S
H1146 C1130 0.931 . S
H1147 C1135 0.929 . S
H1148 C1136 0.960 . S
H1149 C1136 0.962 . S
H1150 C1136 0.960 . S
H1151 C1137 0.961 . S
H1152 C1137 0.961 . S
H1153 C1137 0.961 . S
H1154 C1138 0.931 . S
H1155 C1143 0.930 . S
H1156 C1144 0.956 . S
H1157 C1144 0.961 . S
H1158 C1144 0.961 . S
H1159 C1145 0.958 . S
H1160 C1145 0.961 . S
H1161 C1145 0.960 . S
C1162 C1163 1.391 . S
C1162 C1164 1.394 . S
C1162 H1178 0.931 . S
C1163 C1162 1.391 . S
C1163 C1167 1.376 . S
C1164 C1162 1.394 . S
C1164 C1165 1.369 . S
C1164 C1168 1.531 . S
C1165 C1164 1.369 . S
C1165 C1166 1.410 . S
C1165 C1173 1.503 . S
C1166 C1165 1.410 . S
C1166 C1167 1.392 . S
C1166 C1169 1.511 . S
C1167 C1163 1.376 . S
C1167 C1166 1.392 . S
C1167 H1179 0.929 . S
C1168 C1164 1.531 . S
C1168 H1180 0.960 . S
C1168 H1181 0.962 . S
C1168 H1182 0.960 . S
C1169 C1166 1.511 . S
C1169 H1183 0.961 . S
C1169 H1184 0.961 . S
C1169 H1185 0.961 . S
C1170 C1171 1.370 . S
C1170 C1172 1.363 . S
C1170 H1186 0.931 1_556 S
C1171 C1170 1.370 . S
C1171 C1175 1.408 . S
C1172 C1170 1.363 . S
C1172 C1173 1.370 . S
C1172 C1176 1.524 1_556 S
C1173 C1165 1.503 . S
C1173 C1172 1.370 . S
C1173 C1174 1.403 . S
C1174 C1173 1.403 . S
C1174 C1175 1.404 . S
C1174 C1177 1.539 . S
C1175 C1171 1.408 . S
C1175 C1174 1.404 . S
C1175 H1187 0.930 . S
C1176 C1172 1.524 1_554 S
C1176 H1188 0.956 1_554 S
C1176 H1189 0.961 . S
C1176 H1190 0.961 . S
C1177 C1174 1.539 . S
C1177 H1191 0.958 . S
C1177 H1192 0.961 . S
C1177 H1193 0.960 . S
H1178 C1162 0.931 . S
H1179 C1167 0.929 . S
H1180 C1168 0.960 . S
H1181 C1168 0.962 . S
H1182 C1168 0.960 . S
H1183 C1169 0.961 . S
H1184 C1169 0.961 . S
H1185 C1169 0.961 . S
H1186 C1170 0.931 1_554 S
H1187 C1175 0.930 . S
H1188 C1176 0.956 1_556 S
H1189 C1176 0.961 . S
H1190 C1176 0.961 . S
H1191 C1177 0.958 . S
H1192 C1177 0.961 . S
H1193 C1177 0.960 . S
C1194 C1195 1.391 . S
C1194 C1196 1.394 . S
C1194 H1210 0.931 . S
C1195 C1194 1.391 . S
C1195 C1199 1.376 . S
C1196 C1194 1.394 . S
C1196 C1197 1.369 . S
C1196 C1200 1.531 . S
C1197 C1196 1.369 . S
C1197 C1198 1.410 . S
C1197 C1205 1.503 . S
C1198 C1197 1.410 . S
C1198 C1199 1.392 . S
C1198 C1201 1.511 . S
C1199 C1195 1.376 . S
C1199 C1198 1.392 . S
C1199 H1211 0.929 . S
C1200 C1196 1.531 . S
C1200 H1212 0.960 . S
C1200 H1213 0.962 . S
C1200 H1214 0.960 . S
C1201 C1198 1.511 . S
C1201 H1215 0.961 . S
C1201 H1216 0.961 . S
C1201 H1217 0.961 . S
C1202 C1203 1.370 . S
C1202 C1204 1.363 . S
C1202 H1218 0.931 . S
C1203 C1202 1.370 . S
C1203 C1207 1.408 . S
C1204 C1202 1.363 . S
C1204 C1205 1.370 . S
C1204 C1208 1.524 . S
C1205 C1197 1.503 . S
C1205 C1204 1.370 . S
C1205 C1206 1.403 . S
C1206 C1205 1.403 . S
C1206 C1207 1.404 . S
C1206 C1209 1.539 . S
C1207 C1203 1.408 . S
C1207 C1206 1.404 . S
C1207 H1219 0.930 . S
C1208 C1204 1.524 . S
C1208 H1220 0.956 . S
C1208 H1221 0.961 . S
C1208 H1222 0.961 . S
C1209 C1206 1.539 . S
C1209 H1223 0.958 . S
C1209 H1224 0.961 . S
C1209 H1225 0.960 . S
H1210 C1194 0.931 . S
H1211 C1199 0.929 . S
H1212 C1200 0.960 . S
H1213 C1200 0.962 . S
H1214 C1200 0.960 . S
H1215 C1201 0.961 . S
H1216 C1201 0.961 . S
H1217 C1201 0.961 . S
H1218 C1202 0.931 . S
H1219 C1207 0.930 . S
H1220 C1208 0.956 . S
H1221 C1208 0.961 . S
H1222 C1208 0.961 . S
H1223 C1209 0.958 . S
H1224 C1209 0.961 . S
H1225 C1209 0.960 . S
C1226 C1227 1.391 . S
C1226 C1228 1.394 . S
C1226 H1242 0.931 . S
C1227 C1226 1.391 . S
C1227 C1231 1.376 . S
C1228 C1226 1.394 . S
C1228 C1229 1.369 . S
C1228 C1232 1.531 . S
C1229 C1228 1.369 . S
C1229 C1230 1.410 . S
C1229 C1237 1.503 . S
C1230 C1229 1.410 . S
C1230 C1231 1.392 . S
C1230 C1233 1.511 . S
C1231 C1227 1.376 . S
C1231 C1230 1.392 . S
C1231 H1243 0.929 . S
C1232 C1228 1.531 . S
C1232 H1244 0.960 . S
C1232 H1245 0.962 . S
C1232 H1246 0.960 . S
C1233 C1230 1.511 . S
C1233 H1247 0.961 . S
C1233 H1248 0.961 . S
C1233 H1249 0.961 . S
C1234 C1235 1.370 . S
C1234 C1236 1.363 1_655 S
C1234 H1250 0.931 . S
C1235 C1234 1.370 . S
C1235 C1239 1.408 . S
C1236 C1234 1.363 1_455 S
C1236 C1237 1.370 . S
C1236 C1240 1.524 . S
C1237 C1229 1.503 . S
C1237 C1236 1.370 . S
C1237 C1238 1.403 . S
C1238 C1237 1.403 . S
C1238 C1239 1.404 1_455 S
C1238 C1241 1.539 . S
C1239 C1235 1.408 . S
C1239 C1238 1.404 1_655 S
C1239 H1251 0.930 . S
C1240 C1236 1.524 . S
C1240 H1252 0.956 . S
C1240 H1253 0.961 . S
C1240 H1254 0.961 . S
C1241 C1238 1.539 . S
C1241 H1255 0.958 . S
C1241 H1256 0.961 . S
C1241 H1257 0.960 . S
H1242 C1226 0.931 . S
H1243 C1231 0.929 . S
H1244 C1232 0.960 . S
H1245 C1232 0.962 . S
H1246 C1232 0.960 . S
H1247 C1233 0.961 . S
H1248 C1233 0.961 . S
H1249 C1233 0.961 . S
H1250 C1234 0.931 . S
H1251 C1239 0.930 . S
H1252 C1240 0.956 . S
H1253 C1240 0.961 . S
H1254 C1240 0.961 . S
H1255 C1241 0.958 . S
H1256 C1241 0.961 . S
H1257 C1241 0.960 . S
C1258 C1259 1.391 . S
C1258 C1260 1.394 . S
C1258 H1274 0.931 . S
C1259 C1258 1.391 . S
C1259 C1263 1.376 . S
C1260 C1258 1.394 . S
C1260 C1261 1.369 . S
C1260 C1264 1.531 . S
C1261 C1260 1.369 . S
C1261 C1262 1.410 . S
C1261 C1269 1.503 . S
C1262 C1261 1.410 . S
C1262 C1263 1.392 . S
C1262 C1265 1.511 . S
C1263 C1259 1.376 . S
C1263 C1262 1.392 . S
C1263 H1275 0.929 . S
C1264 C1260 1.531 . S
C1264 H1276 0.960 . S
C1264 H1277 0.962 . S
C1264 H1278 0.960 . S
C1265 C1262 1.511 . S
C1265 H1279 0.961 . S
C1265 H1280 0.961 . S
C1265 H1281 0.961 . S
C1266 C1267 1.370 . S
C1266 C1268 1.363 . S
C1266 H1282 0.931 . S
C1267 C1266 1.370 . S
C1267 C1271 1.408 . S
C1268 C1266 1.363 . S
C1268 C1269 1.370 . S
C1268 C1272 1.524 . S
C1269 C1261 1.503 . S
C1269 C1268 1.370 . S
C1269 C1270 1.403 . S
C1270 C1269 1.403 . S
C1270 C1271 1.404 . S
C1270 C1273 1.539 . S
C1271 C1267 1.408 . S
C1271 C1270 1.404 . S
C1271 H1283 0.930 . S
C1272 C1268 1.524 . S
C1272 H1284 0.956 . S
C1272 H1285 0.961 . S
C1272 H1286 0.961 . S
C1273 C1270 1.539 . S
C1273 H1287 0.958 . S
C1273 H1288 0.961 . S
C1273 H1289 0.960 . S
H1274 C1258 0.931 . S
H1275 C1263 0.929 . S
H1276 C1264 0.960 . S
H1277 C1264 0.962 . S
H1278 C1264 0.960 . S
H1279 C1265 0.961 . S
H1280 C1265 0.961 . S
H1281 C1265 0.961 . S
H1282 C1266 0.931 . S
H1283 C1271 0.930 . S
H1284 C1272 0.956 . S
H1285 C1272 0.961 . S
H1286 C1272 0.961 . S
H1287 C1273 0.958 . S
H1288 C1273 0.961 . S
H1289 C1273 0.960 . S
C1290 C1291 1.391 . S
C1290 C1292 1.394 1_655 S
C1290 H1306 0.931 . S
C1291 C1290 1.391 . S
C1291 C1295 1.376 . S
C1292 C1290 1.394 1_455 S
C1292 C1293 1.369 . S
C1292 C1296 1.531 . S
C1293 C1292 1.369 . S
C1293 C1294 1.410 . S
C1293 C1301 1.503 . S
C1294 C1293 1.410 . S
C1294 C1295 1.392 1_455 S
C1294 C1297 1.511 . S
C1295 C1291 1.376 . S
C1295 C1294 1.392 1_655 S
C1295 H1307 0.929 . S
C1296 C1292 1.531 . S
C1296 H1308 0.960 . S
C1296 H1309 0.962 . S
C1296 H1310 0.960 1_455 S
C1297 C1294 1.511 . S
C1297 H1311 0.961 . S
C1297 H1312 0.961 . S
C1297 H1313 0.961 . S
C1298 C1299 1.370 . S
C1298 C1300 1.363 . S
C1298 H1314 0.931 . S
C1299 C1298 1.370 . S
C1299 C1303 1.408 . S
C1300 C1298 1.363 . S
C1300 C1301 1.370 . S
C1300 C1304 1.524 . S
C1301 C1293 1.503 . S
C1301 C1300 1.370 . S
C1301 C1302 1.403 . S
C1302 C1301 1.403 . S
C1302 C1303 1.404 . S
C1302 C1305 1.539 . S
C1303 C1299 1.408 . S
C1303 C1302 1.404 . S
C1303 H1315 0.930 . S
C1304 C1300 1.524 . S
C1304 H1316 0.956 . S
C1304 H1317 0.961 . S
C1304 H1318 0.961 . S
C1305 C1302 1.539 . S
C1305 H1319 0.958 . S
C1305 H1320 0.961 . S
C1305 H1321 0.960 . S
H1306 C1290 0.931 . S
H1307 C1295 0.929 . S
H1308 C1296 0.960 . S
H1309 C1296 0.962 . S
H1310 C1296 0.960 1_655 S
H1311 C1297 0.961 . S
H1312 C1297 0.961 . S
H1313 C1297 0.961 . S
H1314 C1298 0.931 . S
H1315 C1303 0.930 . S
H1316 C1304 0.956 . S
H1317 C1304 0.961 . S
H1318 C1304 0.961 . S
H1319 C1305 0.958 . S
H1320 C1305 0.961 . S
H1321 C1305 0.960 . S
C1322 C1323 1.391 . S
C1322 C1324 1.394 . S
C1322 H1338 0.931 . S
C1323 C1322 1.391 . S
C1323 C1327 1.376 . S
C1324 C1322 1.394 . S
C1324 C1325 1.369 . S
C1324 C1328 1.531 . S
C1325 C1324 1.369 . S
C1325 C1326 1.410 . S
C1325 C1333 1.503 . S
C1326 C1325 1.410 . S
C1326 C1327 1.392 . S
C1326 C1329 1.511 . S
C1327 C1323 1.376 . S
C1327 C1326 1.392 . S
C1327 H1339 0.929 . S
C1328 C1324 1.531 . S
C1328 H1340 0.960 . S
C1328 H1341 0.962 . S
C1328 H1342 0.960 . S
C1329 C1326 1.511 . S
C1329 H1343 0.961 . S
C1329 H1344 0.961 . S
C1329 H1345 0.961 . S
C1330 C1331 1.370 . S
C1330 C1332 1.363 . S
C1330 H1346 0.931 . S
C1331 C1330 1.370 . S
C1331 C1335 1.408 . S
C1332 C1330 1.363 . S
C1332 C1333 1.370 . S
C1332 C1336 1.524 . S
C1333 C1325 1.503 . S
C1333 C1332 1.370 . S
C1333 C1334 1.403 . S
C1334 C1333 1.403 . S
C1334 C1335 1.404 . S
C1334 C1337 1.539 . S
C1335 C1331 1.408 . S
C1335 C1334 1.404 . S
C1335 H1347 0.930 . S
C1336 C1332 1.524 . S
C1336 H1348 0.956 . S
C1336 H1349 0.961 . S
C1336 H1350 0.961 . S
C1337 C1334 1.539 . S
C1337 H1351 0.958 . S
C1337 H1352 0.961 . S
C1337 H1353 0.960 . S
H1338 C1322 0.931 . S
H1339 C1327 0.929 . S
H1340 C1328 0.960 . S
H1341 C1328 0.962 . S
H1342 C1328 0.960 . S
H1343 C1329 0.961 . S
H1344 C1329 0.961 . S
H1345 C1329 0.961 . S
H1346 C1330 0.931 . S
H1347 C1335 0.930 . S
H1348 C1336 0.956 . S
H1349 C1336 0.961 . S
H1350 C1336 0.961 . S
H1351 C1337 0.958 . S
H1352 C1337 0.961 . S
H1353 C1337 0.960 . S
C1354 C1355 1.391 . S
C1354 C1356 1.394 . S
C1354 H1370 0.931 . S
C1355 C1354 1.391 . S
C1355 C1359 1.376 . S
C1356 C1354 1.394 . S
C1356 C1357 1.369 . S
C1356 C1360 1.531 . S
C1357 C1356 1.369 . S
C1357 C1358 1.410 . S
C1357 C1365 1.503 . S
C1358 C1357 1.410 . S
C1358 C1359 1.392 . S
C1358 C1361 1.511 . S
C1359 C1355 1.376 . S
C1359 C1358 1.392 . S
C1359 H1371 0.929 . S
C1360 C1356 1.531 . S
C1360 H1372 0.960 . S
C1360 H1373 0.962 . S
C1360 H1374 0.960 . S
C1361 C1358 1.511 . S
C1361 H1375 0.961 . S
C1361 H1376 0.961 . S
C1361 H1377 0.961 . S
C1362 C1363 1.370 . S
C1362 C1364 1.363 . S
C1362 H1378 0.931 . S
C1363 C1362 1.370 . S
C1363 C1367 1.408 . S
C1364 C1362 1.363 . S
C1364 C1365 1.370 . S
C1364 C1368 1.524 . S
C1365 C1357 1.503 . S
C1365 C1364 1.370 . S
C1365 C1366 1.403 . S
C1366 C1365 1.403 . S
C1366 C1367 1.404 . S
C1366 C1369 1.539 . S
C1367 C1363 1.408 . S
C1367 C1366 1.404 . S
C1367 H1379 0.930 . S
C1368 C1364 1.524 . S
C1368 H1380 0.956 . S
C1368 H1381 0.961 . S
C1368 H1382 0.961 . S
C1369 C1366 1.539 . S
C1369 H1383 0.958 . S
C1369 H1384 0.961 . S
C1369 H1385 0.960 . S
H1370 C1354 0.931 . S
H1371 C1359 0.929 . S
H1372 C1360 0.960 . S
H1373 C1360 0.962 . S
H1374 C1360 0.960 . S
H1375 C1361 0.961 . S
H1376 C1361 0.961 . S
H1377 C1361 0.961 . S
H1378 C1362 0.931 . S
H1379 C1367 0.930 . S
H1380 C1368 0.956 . S
H1381 C1368 0.961 . S
H1382 C1368 0.961 . S
H1383 C1369 0.958 . S
H1384 C1369 0.961 . S
H1385 C1369 0.960 . S
C235 C44 1.875 . S
C243 C5 1.988 . S
C267 C57 1.871 . S
C275 C16 1.890 . S
C299 C27 1.883 . S
C307 C66 1.939 . S
C331 C31 1.995 . S
C339 C70 1.883 . S
C363 C1 1.863 . S
C371 C40 1.947 . S
C395 C53 1.949 . S
C403 C23 1.949 . S
C427 C118 1.981 . S
C435 C83 1.977 . S
C459 C94 1.922 . S
C467 C131 1.989 . S
C491 C109 1.979 . S
C499 C144 1.962 . S
C523 C148 1.893 . S
C531 C105 1.886 . S
C555 C122 1.843 . S
C563 C79 1.874 . S
C587 C135 1.861 . S
C595 C101 1.962 . S
C619 C161 2.000 . S
C627 C200 1.887 . S
C651 C172 1.914 . S
C659 C213 1.888 . S
C683 C183 1.886 . S
C691 C222 1.954 . S
C715 C226 1.923 . S
C723 C187 1.998 1_554 S
C747 C196 1.941 . S
C755 C157 1.904 . S
C779 C209 1.949 . S
C787 C179 1.963 1_554 S
C811 C10 1.600 . S
C819 C96 1.613 . S
C843 C14 1.583 . S
C851 C107 1.549 . S
C875 C81 1.490 1_545 S
C883 C29 1.498 . S
C907 C36 1.648 . S
C915 C170 1.614 1_554 S
C939 C185 1.503 1_554 S
C947 C3 1.474 . S
C971 C166 1.599 . S
C979 C18 1.598 . S
C1003 C211 1.598 . S
C1011 C49 1.548 . S
C1035 C62 1.625 . S
C1043 C231 1.611 . S
C1067 C198 1.538 . S
C1075 C68 1.528 . S
C1099 C133 1.620 1_546 S
C1107 C75 1.574 . S
C1131 C42 1.551 . S
C1139 C146 1.543 . S
C1163 C55 1.541 . S
C1171 C120 1.557 1_556 S
C1195 C88 1.528 1_545 S
C1203 C174 1.580 . S
C1227 C92 1.566 . S
C1235 C192 1.644 . S
C1259 C114 1.571 . S
C1267 C159 1.530 . S
C1291 C218 1.613 . S
C1299 C153 1.593 . S
C1323 C224 1.575 . S
C1331 C127 1.512 . S
C1355 C140 1.551 . S
C1363 C205 1.583 . S
