# Generated by pormake.
# Topology wkj, (6)-cn, num edge types: 1
# Building blocks:
#     Node 0, Type 0, BuildingBlock: BETDIP_clean_sbu_0, # of connection points: 6
#     Node 1, Type 0, BuildingBlock: BETDIP_clean_sbu_0, # of connection points: 6
#     Node 2, Type 0, BuildingBlock: BETDIP_clean_sbu_0, # of connection points: 6
#     Node 3, Type 0, BuildingBlock: BETDIP_clean_sbu_0, # of connection points: 6
#     Node 4, Type 0, BuildingBlock: BETDIP_clean_sbu_0, # of connection points: 6
#     Node 5, Type 0, BuildingBlock: BETDIP_clean_sbu_0, # of connection points: 6
#     Node 6, Type 0, BuildingBlock: BETDIP_clean_sbu_0, # of connection points: 6
#     Node 7, Type 0, BuildingBlock: BETDIP_clean_sbu_0, # of connection points: 6
#     Node 8, Type 0, BuildingBlock: BETDIP_clean_sbu_0, # of connection points: 6
#     Node 9, Type 0, BuildingBlock: BETDIP_clean_sbu_0, # of connection points: 6
#     Node 10, Type 0, BuildingBlock: BETDIP_clean_sbu_0, # of connection points: 6
#     Node 11, Type 0, BuildingBlock: BETDIP_clean_sbu_0, # of connection points: 6
#     Edge 12, Type (0, 0), BuildingBlock: XIVTED_clean_linker_0, # of connection points: 2
#     Edge 13, Type (0, 0), BuildingBlock: XIVTED_clean_linker_0, # of connection points: 2
#     Edge 14, Type (0, 0), BuildingBlock: XIVTED_clean_linker_0, # of connection points: 2
#     Edge 15, Type (0, 0), BuildingBlock: XIVTED_clean_linker_0, # of connection points: 2
#     Edge 16, Type (0, 0), BuildingBlock: XIVTED_clean_linker_0, # of connection points: 2
#     Edge 17, Type (0, 0), BuildingBlock: XIVTED_clean_linker_0, # of connection points: 2
#     Edge 18, Type (0, 0), BuildingBlock: XIVTED_clean_linker_0, # of connection points: 2
#     Edge 19, Type (0, 0), BuildingBlock: XIVTED_clean_linker_0, # of connection points: 2
#     Edge 20, Type (0, 0), BuildingBlock: XIVTED_clean_linker_0, # of connection points: 2
#     Edge 21, Type (0, 0), BuildingBlock: XIVTED_clean_linker_0, # of connection points: 2
#     Edge 22, Type (0, 0), BuildingBlock: XIVTED_clean_linker_0, # of connection points: 2
#     Edge 23, Type (0, 0), BuildingBlock: XIVTED_clean_linker_0, # of connection points: 2
#     Edge 24, Type (0, 0), BuildingBlock: XIVTED_clean_linker_0, # of connection points: 2
#     Edge 25, Type (0, 0), BuildingBlock: XIVTED_clean_linker_0, # of connection points: 2
#     Edge 26, Type (0, 0), BuildingBlock: XIVTED_clean_linker_0, # of connection points: 2
#     Edge 27, Type (0, 0), BuildingBlock: XIVTED_clean_linker_0, # of connection points: 2
#     Edge 28, Type (0, 0), BuildingBlock: XIVTED_clean_linker_0, # of connection points: 2
#     Edge 29, Type (0, 0), BuildingBlock: XIVTED_clean_linker_0, # of connection points: 2
#     Edge 30, Type (0, 0), BuildingBlock: XIVTED_clean_linker_0, # of connection points: 2
#     Edge 31, Type (0, 0), BuildingBlock: XIVTED_clean_linker_0, # of connection points: 2
#     Edge 32, Type (0, 0), BuildingBlock: XIVTED_clean_linker_0, # of connection points: 2
#     Edge 33, Type (0, 0), BuildingBlock: XIVTED_clean_linker_0, # of connection points: 2
#     Edge 34, Type (0, 0), BuildingBlock: XIVTED_clean_linker_0, # of connection points: 2
#     Edge 35, Type (0, 0), BuildingBlock: XIVTED_clean_linker_0, # of connection points: 2
#     Edge 36, Type (0, 0), BuildingBlock: XIVTED_clean_linker_0, # of connection points: 2
#     Edge 37, Type (0, 0), BuildingBlock: XIVTED_clean_linker_0, # of connection points: 2
#     Edge 38, Type (0, 0), BuildingBlock: XIVTED_clean_linker_0, # of connection points: 2
#     Edge 39, Type (0, 0), BuildingBlock: XIVTED_clean_linker_0, # of connection points: 2
#     Edge 40, Type (0, 0), BuildingBlock: XIVTED_clean_linker_0, # of connection points: 2
#     Edge 41, Type (0, 0), BuildingBlock: XIVTED_clean_linker_0, # of connection points: 2
#     Edge 42, Type (0, 0), BuildingBlock: XIVTED_clean_linker_0, # of connection points: 2
#     Edge 43, Type (0, 0), BuildingBlock: XIVTED_clean_linker_0, # of connection points: 2
#     Edge 44, Type (0, 0), BuildingBlock: XIVTED_clean_linker_0, # of connection points: 2
#     Edge 45, Type (0, 0), BuildingBlock: XIVTED_clean_linker_0, # of connection points: 2
#     Edge 46, Type (0, 0), BuildingBlock: XIVTED_clean_linker_0, # of connection points: 2
#     Edge 47, Type (0, 0), BuildingBlock: XIVTED_clean_linker_0, # of connection points: 2
# Relax obj value: 0.776
# Max RMSD: 0.175
# Mean RMSD: 0.175
data_MOF--net-wkj--node1-BETDIP_clean_sbu_0--edge1-XIVTED_clean_linker_0
_symmetry_space_group_name_H-M    P1
_symmetry_Int_Tables_number       1
_symmetry_cell_setting            triclinic
loop_
_symmetry_equiv_pos_as_xyz
'x, y, z'
_cell_length_a     48.262472
_cell_length_b     48.179816
_cell_length_c     30.880875
_cell_angle_alpha  90.218638
_cell_angle_beta   89.592149
_cell_angle_gamma 119.81538
loop_
_atom_site_label
_atom_site_type_symbol
_atom_site_fract_x
_atom_site_fract_y
_atom_site_fract_z
_atom_type_partial_charge
Tb0 Tb 0.47453 0.09108 0.35019 0.0
Tb1 Tb 0.53868 0.11266 0.32956 0.0
C2 C 0.41861 0.07249 0.37777 0.0
C3 C 0.40228 0.06725 0.41949 0.0
C4 C 0.41767 0.06788 0.45805 0.0
C5 C 0.40287 0.06575 0.49778 0.0
C6 C 0.37236 0.06272 0.49949 0.0
C7 C 0.35675 0.06149 0.46073 0.0
C8 C 0.37176 0.06396 0.42096 0.0
C9 C 0.50296 0.14824 0.30945 0.0
C10 C 0.52544 0.1166 0.43312 0.0
C11 C 0.59154 0.14734 0.2928 0.0
C12 C 0.61478 0.18161 0.29137 0.0
C13 C 0.60728 0.20423 0.30806 0.0
C14 C 0.6266 0.23667 0.298 0.0
C15 C 0.65344 0.24679 0.27067 0.0
C16 C 0.66241 0.22415 0.25807 0.0
C17 C 0.64318 0.19189 0.26826 0.0
C18 C 0.51671 0.06016 0.3725 0.0
C19 C 0.48414 0.06205 0.25823 0.0
O20 O 0.42918 0.05311 0.36739 0.0
O21 O 0.43955 0.10218 0.36951 0.0
O22 O 0.51428 0.13962 0.34048 0.0
O23 O 0.47666 0.12321 0.29818 0.0
O24 O 0.49487 0.10121 0.41963 0.0
O25 O 0.54774 0.12723 0.40139 0.0
O26 O 0.58858 0.13279 0.3295 0.0
O27 O 0.56393 0.1391 0.27522 0.0
O28 O 0.50074 0.0667 0.34596 0.0
O29 O 0.54686 0.07952 0.36585 0.0
O30 O 0.51531 0.0805 0.26894 0.0
O31 O 0.46316 0.06214 0.2871 0.0
H32 H 0.44112 0.0702 0.45755 0.0
H33 H 0.41511 0.06599 0.52717 0.0
H34 H 0.33319 0.05904 0.46125 0.0
H35 H 0.35971 0.06369 0.39135 0.0
H36 H 0.58547 0.19657 0.32646 0.0
H37 H 0.61923 0.25339 0.30903 0.0
H38 H 0.68257 0.23055 0.23672 0.0
H39 H 0.64935 0.17469 0.25537 0.0
Tb40 Tb 0.37283 0.47276 0.69585 0.0
Tb41 Tb 0.4239 0.53302 0.68244 0.0
C42 C 0.32979 0.41743 0.71805 0.0
C43 C 0.31429 0.39878 0.75685 0.0
C44 C 0.3224 0.41268 0.79801 0.0
C45 C 0.30821 0.39405 0.8347 0.0
C46 C 0.28579 0.36124 0.83067 0.0
C47 C 0.27714 0.3477 0.78918 0.0
C48 C 0.2913 0.36641 0.7525 0.0
C49 C 0.35351 0.50805 0.65239 0.0
C50 C 0.40696 0.52315 0.78293 0.0
C51 C 0.45583 0.58996 0.65655 0.0
C52 C 0.45282 0.60819 0.62028 0.0
C53 C 0.44187 0.62985 0.62882 0.0
C54 C 0.43388 0.64362 0.59494 0.0
C55 C 0.43739 0.63656 0.55187 0.0
C56 C 0.45035 0.61659 0.54327 0.0
C57 C 0.45786 0.60239 0.57716 0.0
C58 C 0.43942 0.49347 0.72189 0.0
C59 C 0.41077 0.48274 0.60249 0.0
O60 O 0.35968 0.42553 0.71223 0.0
O61 O 0.32466 0.44099 0.70993 0.0
O62 O 0.37233 0.51694 0.68504 0.0
O63 O 0.34853 0.4801 0.6415 0.0
O64 O 0.38391 0.49431 0.76699 0.0
O65 O 0.42606 0.54379 0.7533 0.0
O66 O 0.43264 0.57992 0.68493 0.0
O67 O 0.46365 0.56809 0.64773 0.0
O68 O 0.42078 0.4873 0.69089 0.0
O69 O 0.45298 0.52399 0.72899 0.0
O70 O 0.42531 0.51342 0.61532 0.0
O71 O 0.38951 0.46149 0.63101 0.0
H72 H 0.34015 0.43768 0.80182 0.0
H73 H 0.31587 0.40504 0.86626 0.0
H74 H 0.25993 0.32255 0.78517 0.0
H75 H 0.28472 0.35547 0.72074 0.0
H76 H 0.43808 0.63499 0.66182 0.0
H77 H 0.42409 0.65903 0.60238 0.0
H78 H 0.45298 0.61048 0.51028 0.0
H79 H 0.46633 0.58591 0.56947 0.0
Tb80 Tb 0.90295 0.38507 1.02797 0.0
Tb81 Tb 0.86662 0.41435 1.00501 0.0
C82 C 0.93353 0.35826 1.05204 0.0
C83 C 0.95116 0.35294 1.08625 0.0
C84 C 0.94104 0.34873 0.12958 0.0
C85 C 0.95596 0.33937 0.16017 0.0
C86 C 0.98116 0.33419 0.1478 0.0
C87 C 0.99173 0.33935 1.10461 0.0
C88 C 0.97676 0.34857 1.07408 0.0
C89 C 0.84743 0.34555 0.98679 0.0
C90 C 0.87635 0.41016 1.11027 0.0
C91 C 0.81992 0.41684 0.97396 0.0
C92 C 0.79649 0.39556 0.94229 0.0
C93 C 0.8024 0.37365 0.92009 0.0
C94 C 0.77943 0.351 0.89292 0.0
C95 C 0.75007 0.34994 0.88689 0.0
C96 C 0.74409 0.37198 0.90914 0.0
C97 C 0.76711 0.39448 0.93718 0.0
C98 C 0.91919 0.45678 1.04094 0.0
C99 C 0.91936 0.41511 0.93223 0.0
O100 O 0.94698 0.38626 1.03334 0.0
O101 O 0.90278 0.34609 1.05753 0.0
O102 O 0.85192 0.3651 1.01711 0.0
O103 O 0.87509 0.34919 0.9775 0.0
O104 O 0.89416 0.39734 1.09679 0.0
O105 O 0.86093 0.41675 1.07913 0.0
O106 O 0.81878 0.40254 1.01026 0.0
O107 O 0.84927 0.43439 0.95969 0.0
O108 O 0.91576 0.43361 1.01752 0.0
O109 O 0.89405 0.4598 1.03723 0.0
O110 O 0.89223 0.4165 0.93935 0.0
O111 O 0.93012 0.40605 0.96591 0.0
H112 H 0.92128 0.352 0.13954 0.0
H113 H 0.94782 0.33623 0.19351 0.0
H114 H 0.01104 0.33549 1.09422 0.0
H115 H 0.98461 0.35143 1.0406 0.0
H116 H 0.82491 0.37409 0.92376 0.0
H117 H 0.78529 0.33512 0.87523 0.0
H118 H 0.72184 0.37194 0.90454 0.0
H119 H 0.76203 0.41096 0.95475 0.0
Tb120 Tb 0.51608 0.91208 0.351 0.0
Tb121 Tb 0.45038 0.88171 0.32931 0.0
C122 C 0.57364 0.93838 0.37431 0.0
C123 C 0.5947 0.94909 0.41183 0.0
C124 C 0.58316 0.93726 0.45336 0.0
C125 C 0.60439 0.94557 0.48782 0.0
C126 C 0.63741 0.96583 0.48118 0.0
C127 C 0.64872 0.97802 0.43959 0.0
C128 C 0.62747 0.96959 0.40513 0.0
C129 C 0.49377 0.85467 0.30992 0.0
C130 C 0.46557 0.88536 0.43433 0.0
C131 C 0.39885 0.83835 0.29802 0.0
C132 C 0.39282 0.81053 0.2718 0.0
C133 C 0.41819 0.8107 0.24932 0.0
C134 C 0.41377 0.78343 0.22773 0.0
C135 C 0.38375 0.75533 0.22789 0.0
C136 C 0.35832 0.75512 0.25076 0.0
C137 C 0.36293 0.78253 0.27288 0.0
C138 C 0.46469 0.93379 0.37021 0.0
C139 C 0.50331 0.93499 0.25789 0.0
O140 O 0.55921 0.95431 0.36445 0.0
O141 O 0.55495 0.90757 0.37064 0.0
O142 O 0.48087 0.86193 0.34038 0.0
O143 O 0.51912 0.88107 0.2995 0.0
O144 O 0.49616 0.90169 0.42058 0.0
O145 O 0.44308 0.87322 0.40314 0.0
O146 O 0.4085 0.83765 0.33703 0.0
O147 O 0.41604 0.86642 0.27995 0.0
O148 O 0.48351 0.92957 0.34557 0.0
O149 O 0.43563 0.91124 0.36318 0.0
O150 O 0.47361 0.90959 0.26488 0.0
O151 O 0.52393 0.94183 0.29038 0.0
H152 H 0.55789 0.92134 0.45898 0.0
H153 H 0.5949 0.93644 0.51977 0.0
H154 H 0.67398 0.99368 0.4336 0.0
H155 H 0.6367 0.97866 0.37305 0.0
H156 H 0.44152 0.83201 0.24845 0.0
H157 H 0.4337 0.78485 0.20952 0.0
H158 H 0.33491 0.73391 0.25126 0.0
H159 H 0.34326 0.78185 0.2909 0.0
Tb160 Tb 0.62322 0.52456 0.69213 0.0
Tb161 Tb 0.57166 0.46482 0.67926 0.0
C162 C 0.66714 0.57974 0.71278 0.0
C163 C 0.68036 0.60136 0.74963 0.0
C164 C 0.67242 0.59023 0.79224 0.0
C165 C 0.68377 0.61191 0.82659 0.0
C166 C 0.70291 0.64493 0.81862 0.0
C167 C 0.7115 0.65576 0.77588 0.0
C168 C 0.70034 0.63406 0.74162 0.0
C169 C 0.64179 0.48761 0.64994 0.0
C170 C 0.58731 0.4755 0.77973 0.0
C171 C 0.54204 0.40851 0.6508 0.0
C172 C 0.55403 0.39196 0.62253 0.0
C173 C 0.58323 0.39329 0.63157 0.0
C174 C 0.59704 0.38196 0.60164 0.0
C175 C 0.58222 0.36942 0.56174 0.0
C176 C 0.55209 0.36643 0.55387 0.0
C177 C 0.53814 0.37756 0.58404 0.0
C178 C 0.5555 0.50428 0.71748 0.0
C179 C 0.58478 0.51544 0.59981 0.0
O180 O 0.6388 0.57333 0.7004 0.0
O181 O 0.67027 0.55438 0.71283 0.0
O182 O 0.62271 0.47968 0.68236 0.0
O183 O 0.64796 0.51585 0.63869 0.0
O184 O 0.61049 0.50422 0.76361 0.0
O185 O 0.56868 0.45448 0.75026 0.0
O186 O 0.55474 0.41603 0.68916 0.0
O187 O 0.54009 0.4321 0.63322 0.0
O188 O 0.57538 0.51078 0.68768 0.0
O189 O 0.54046 0.4735 0.7228 0.0
O190 O 0.56873 0.48498 0.61348 0.0
O191 O 0.6075 0.53614 0.62707 0.0
H192 H 0.65686 0.56502 0.79883 0.0
H193 H 0.67631 0.603 0.85922 0.0
H194 H 0.7262 0.68105 0.76896 0.0
H195 H 0.70666 0.64289 0.70874 0.0
H196 H 0.59622 0.40434 0.66097 0.0
H197 H 0.62002 0.38431 0.60902 0.0
H198 H 0.54016 0.35739 0.52323 0.0
H199 H 0.51572 0.3764 0.5763 0.0
Tb200 Tb 0.09119 0.601 1.02845 0.0
Tb201 Tb 0.11183 0.55758 1.00859 0.0
C202 C 0.07287 0.63921 1.05295 0.0
C203 C 0.05958 0.64815 1.08951 0.0
C204 C 0.06326 0.64093 0.13224 0.0
C205 C 0.05199 0.65169 0.16646 0.0
C206 C 0.03679 0.66963 0.15829 0.0
C207 C 0.03277 0.67631 0.11535 0.0
C208 C 0.04419 0.6657 1.08123 0.0
C209 C 0.14728 0.62869 0.98471 0.0
C210 C 0.11165 0.57125 1.11246 0.0
C211 C 0.14741 0.5384 0.97616 0.0
C212 C 0.17969 0.55658 0.95735 0.0
C213 C 0.20295 0.58527 0.97643 0.0
C214 C 0.23048 0.60624 0.95335 0.0
C215 C 0.23479 0.5993 0.91036 0.0
C216 C 0.21304 0.56892 0.89339 0.0
C217 C 0.18578 0.5478 0.91672 0.0
C218 C 0.05761 0.52794 1.05015 0.0
C219 C 0.06561 0.56592 0.93459 0.0
O220 O 0.05418 0.61183 1.03431 0.0
O221 O 0.10206 0.64464 1.05706 0.0
O222 O 0.13943 0.6092 1.01618 0.0
O223 O 0.12242 0.63078 0.97569 0.0
O224 O 0.09845 0.58861 1.09852 0.0
O225 O 0.1218 0.55886 1.08122 0.0
O226 O 0.145 0.54203 1.01754 0.0
O227 O 0.12507 0.53995 0.95459 0.0
O228 O 0.06586 0.55062 1.02356 0.0
O229 O 0.0769 0.51673 1.0455 0.0
O230 O 0.08403 0.55302 0.94505 0.0
O231 O 0.06396 0.58525 0.96465 0.0
H232 H 0.07502 0.62727 0.13909 0.0
H233 H 0.05482 0.64567 0.19927 0.0
H234 H 0.02122 0.69012 1.1082 0.0
H235 H 0.04133 0.67154 1.0483 0.0
H236 H 0.19893 0.5926 1.00797 0.0
H237 H 0.247 0.62898 0.96797 0.0
H238 H 0.21511 0.56248 0.8604 0.0
H239 H 0.16819 0.52575 0.90152 0.0
Tb240 Tb 0.90282 0.5258 0.53773 0.0
Tb241 Tb 0.90094 0.46952 0.54867 0.0
C242 C 0.91751 0.58387 0.53297 0.0
C243 C 0.92127 0.60586 0.49803 0.0
C244 C 0.9094 0.59405 0.45673 0.0
C245 C 0.91718 0.61504 0.422 0.0
C246 C 0.93716 0.64818 0.42799 0.0
C247 C 0.94726 0.66001 0.47006 0.0
C248 C 0.93937 0.63892 0.50488 0.0
C249 C 0.84346 0.48323 0.55934 0.0
C250 C 0.88827 0.48085 0.4477 0.0
C251 C 0.87597 0.40951 0.55054 0.0
C252 C 0.85215 0.38272 0.57698 0.0
C253 C 0.8228 0.36102 0.55799 0.0
C254 C 0.79752 0.33872 0.58337 0.0
C255 C 0.80144 0.33723 0.62804 0.0
C256 C 0.83154 0.35728 0.64654 0.0
C257 C 0.85669 0.38003 0.62126 0.0
C258 C 0.95631 0.51573 0.51304 0.0
C259 C 0.93382 0.51285 0.63019 0.0
O260 O 0.93829 0.57405 0.53278 0.0
O261 O 0.88861 0.56048 0.53991 0.0
O262 O 0.86885 0.48595 0.57728 0.0
O263 O 0.8522 0.50244 0.52675 0.0
O264 O 0.89402 0.50947 0.46456 0.0
O265 O 0.88989 0.46119 0.47662 0.0
O266 O 0.86425 0.42484 0.52968 0.0
O267 O 0.904 0.429 0.56721 0.0
O268 O 0.92833 0.50865 0.50645 0.0
O269 O 0.95402 0.49371 0.53946 0.0
O270 O 0.92103 0.48317 0.61529 0.0
O271 O 0.92972 0.53331 0.60427 0.0
H272 H 0.89547 0.56853 0.45094 0.0
H273 H 0.90946 0.60502 0.38997 0.0
H274 H 0.96254 0.6854 0.47566 0.0
H275 H 0.94863 0.64832 0.53673 0.0
H276 H 0.81885 0.3625 0.52377 0.0
H277 H 0.77455 0.32356 0.56847 0.0
H278 H 0.83501 0.35685 0.68111 0.0
H279 H 0.87904 0.39639 0.63677 0.0
Tb280 Tb 0.37558 0.89298 0.86509 0.0
Tb281 Tb 0.42384 0.87972 0.88297 0.0
C282 C 0.33635 0.91311 0.85942 0.0
C283 C 0.32891 0.9324 0.82996 0.0
C284 C 0.33166 0.96126 0.84472 0.0
C285 C 0.32551 0.98032 0.81688 0.0
C286 C 0.31595 0.97046 0.77409 0.0
C287 C 0.31215 0.94101 0.75989 0.0
C288 C 0.31864 0.9222 0.78749 0.0
C289 C 0.35081 0.83091 0.88553 0.0
C290 C 0.41008 0.88413 0.77719 0.0
C291 C 0.44801 0.84392 0.88697 0.0
C292 C 0.4436 0.81628 0.913 0.0
C293 C 0.42285 0.78494 0.89839 0.0
C294 C 0.41592 0.75862 0.92441 0.0
C295 C 0.43003 0.76307 0.96525 0.0
C296 C 0.45255 0.79424 0.97851 0.0
C297 C 0.45928 0.82061 0.95264 0.0
C298 C 0.4456 0.93993 0.8638 0.0
C299 C 0.41171 0.9164 0.96238 0.0
O300 O 0.36332 0.92814 0.88005 0.0
O301 O 0.33081 0.88525 0.84554 0.0
O302 O 0.37378 0.85458 0.90503 0.0
O303 O 0.34393 0.84245 0.85254 0.0
O304 O 0.3897 0.89342 0.79294 0.0
O305 O 0.42589 0.87765 0.80786 0.0
O306 O 0.42375 0.83843 0.86267 0.0
O307 O 0.46065 0.87207 0.90558 0.0
O308 O 0.42329 0.91588 0.84639 0.0
O309 O 0.46004 0.93029 0.89004 0.0
O310 O 0.42627 0.89991 0.95059 0.0
O311 O 0.39082 0.9163 0.93336 0.0
H312 H 0.33922 0.96939 0.87755 0.0
H313 H 0.32871 0.00296 0.82854 0.0
H314 H 0.30549 0.93312 0.72678 0.0
H315 H 0.31614 0.89998 0.7752 0.0
H316 H 0.41099 0.78074 0.86743 0.0
H317 H 0.39862 0.73488 0.91332 0.0
H318 H 0.46353 0.79849 1.01012 0.0
H319 H 0.47582 0.84438 0.96444 0.0
Tb320 Tb 0.46884 0.37633 0.20583 0.0
Tb321 Tb 0.52576 0.4289 0.21678 0.0
C322 C 0.41499 0.33069 0.18348 0.0
C323 C 0.39032 0.32419 0.15147 0.0
C324 C 0.38751 0.34927 0.13331 0.0
C325 C 0.36253 0.34261 1.10516 0.0
C326 C 0.34016 0.31081 1.09451 0.0
C327 C 0.34337 0.28576 1.11222 0.0
C328 C 0.36825 0.29245 0.14077 0.0
C329 C 0.50738 0.35921 0.24627 0.0
C330 C 0.51826 0.41004 0.1183 0.0
C331 C 0.58056 0.46272 0.24825 0.0
C332 C 0.60593 0.45492 0.25513 0.0
C333 C 0.60357 0.42735 0.23596 0.0
C334 C 0.61965 0.41278 0.25394 0.0
C335 C 0.63777 0.42528 0.29181 0.0
C336 C 0.64335 0.45527 0.30709 0.0
C337 C 0.62741 0.46987 0.28895 0.0
C338 C 0.48571 0.44248 0.17554 0.0
C339 C 0.47528 0.41745 0.2954 0.0
O340 O 0.41918 0.35202 0.21252 0.0
O341 O 0.44205 0.33449 0.16893 0.0
O342 O 0.51453 0.37846 0.21426 0.0
O343 O 0.47884 0.35175 0.25742 0.0
O344 O 0.48851 0.38942 0.13415 0.0
O345 O 0.53975 0.4265 0.14834 0.0
O346 O 0.57359 0.46527 0.20827 0.0
O347 O 0.55501 0.44514 0.27132 0.0
O348 O 0.47896 0.42357 0.20668 0.0
O349 O 0.51641 0.45771 0.17067 0.0
O350 O 0.50425 0.43664 0.2786 0.0
O351 O 0.45639 0.3915 0.27122 0.0
H352 H 0.40444 0.37393 0.14118 0.0
H353 H 0.36106 0.3624 1.09109 0.0
H354 H 0.32654 0.2611 1.10424 0.0
H355 H 0.37012 0.27286 0.15477 0.0
H356 H 0.58693 0.41537 0.20982 0.0
H357 H 0.61535 0.39013 0.24073 0.0
H358 H 0.65696 0.46577 0.33622 0.0
H359 H 0.62933 0.49102 0.3043 0.0
Tb360 Tb 0.08598 0.46136 0.54296 0.0
Tb361 Tb 0.09471 0.5217 0.55387 0.0
C362 C 0.07323 0.40519 0.52376 0.0
C363 C 0.0773 0.38816 0.48729 0.0
C364 C 0.06505 0.35509 0.49027 0.0
C365 C 0.06463 0.33768 0.4538 0.0
C366 C 0.07632 0.35321 0.41388 0.0
C367 C 0.09078 0.38679 0.41207 0.0
C368 C 0.09123 0.40413 0.44854 0.0
C369 C 0.14131 0.49846 0.58388 0.0
C370 C 0.10223 0.50893 0.45397 0.0
C371 C 0.11796 0.57995 0.57333 0.0
C372 C 0.14065 0.60287 0.60492 0.0
C373 C 0.17085 0.62669 0.59016 0.0
C374 C 0.19451 0.64614 0.61947 0.0
C375 C 0.18814 0.64261 0.66403 0.0
C376 C 0.15729 0.62025 0.67871 0.0
C377 C 0.13374 0.6004 0.64941 0.0
C378 C 0.03865 0.48091 0.51796 0.0
C379 C 0.05739 0.4734 0.63424 0.0
O380 O 0.05384 0.41629 0.51744 0.0
O381 O 0.09926 0.42597 0.54305 0.0
O382 O 0.13055 0.50618 0.55098 0.0
O383 O 0.11897 0.47072 0.59644 0.0
O384 O 0.09808 0.48115 0.47139 0.0
O385 O 0.10208 0.52964 0.48228 0.0
O386 O 0.13078 0.56893 0.54581 0.0
O387 O 0.08992 0.55753 0.58695 0.0
O388 O 0.05218 0.47555 0.54839 0.0
O389 O 0.05561 0.511 0.50915 0.0
O390 O 0.07633 0.50401 0.62253 0.0
O391 O 0.0552 0.45157 0.60488 0.0
H392 H 0.05448 0.34254 0.52026 0.0
H393 H 0.05359 0.31191 0.45625 0.0
H394 H 0.09956 0.39952 0.38175 0.0
H395 H 0.10098 0.42972 0.44588 0.0
H396 H 0.17661 0.62932 0.5559 0.0
H397 H 0.21808 0.66319 0.60744 0.0
H398 H 0.15192 0.61679 0.71305 0.0
H399 H 0.11066 0.5824 0.66173 0.0
Tb400 Tb 0.5914 0.08534 0.86359 0.0
Tb401 Tb 0.58561 0.13433 0.88127 0.0
C402 C 0.60093 0.04089 0.8389 0.0
C403 C 0.62504 0.03934 0.81144 0.0
C404 C 0.63629 0.05772 0.77363 0.0
C405 C 0.65787 0.05466 0.74664 0.0
C406 C 0.66893 0.03342 0.75717 0.0
C407 C 0.65919 0.0167 0.79666 0.0
C408 C 0.63728 0.01954 0.82345 0.0
C409 C 0.64738 0.13919 0.88652 0.0
C410 C 0.57913 0.11682 0.77688 0.0
C411 C 0.59748 0.18874 0.90846 0.0
C412 C 0.61485 0.213 0.94222 0.0
C413 C 0.64805 0.23401 0.93911 0.0
C414 C 0.66371 0.2585 0.96948 0.0
C415 C 0.64648 0.26263 1.00336 0.0
C416 C 0.61326 0.24173 1.00602 0.0
C417 C 0.59766 0.21737 0.97571 0.0
C418 C 0.52902 0.09154 0.86061 0.0
C419 C 0.56989 0.07752 0.95925 0.0
O420 O 0.5812 0.04805 0.81988 0.0
O421 O 0.6116 0.05631 0.87512 0.0
O422 O 0.6274 0.13588 0.85842 0.0
O423 O 0.63466 0.11203 0.90599 0.0
O424 O 0.58356 0.09355 0.79268 0.0
O425 O 0.57999 0.13754 0.80706 0.0
O426 O 0.61474 0.18403 0.87998 0.0
O427 O 0.5722 0.16201 0.91984 0.0
O428 O 0.54798 0.08604 0.88297 0.0
O429 O 0.5432 0.12036 0.84591 0.0
O430 O 0.58132 0.10934 0.95037 0.0
O431 O 0.56604 0.06054 0.92394 0.0
H432 H 0.62766 0.07369 0.76415 0.0
H433 H 0.66429 0.06759 0.71628 0.0
H434 H 0.66757 0.00052 0.80611 0.0
H435 H 0.62934 0.00571 0.85309 0.0
H436 H 0.66196 0.23178 0.91307 0.0
H437 H 0.68927 0.27417 0.96637 0.0
H438 H 0.59927 0.24359 1.03226 0.0
H439 H 0.57203 0.20195 0.97847 0.0
Tb440 Tb 0.52698 0.624 0.20687 0.0
Tb441 Tb 0.46872 0.57193 0.21941 0.0
C442 C 0.58158 0.66897 0.18557 0.0
C443 C 0.60268 0.68243 0.14811 0.0
C444 C 0.59109 0.67413 1.10585 0.0
C445 C 0.61228 0.68564 1.07085 0.0
C446 C 0.64527 0.70533 1.07779 0.0
C447 C 0.65654 0.71434 0.12018 0.0
C448 C 0.63532 0.703 0.15511 0.0
C449 C 0.48923 0.64216 0.24741 0.0
C450 C 0.47697 0.59039 0.12041 0.0
C451 C 0.41361 0.54 0.25143 0.0
C452 C 0.38868 0.54874 0.25629 0.0
C453 C 0.39182 0.57562 0.23426 0.0
C454 C 0.37779 0.59268 0.25119 0.0
C455 C 0.36118 0.58346 0.29092 0.0
C456 C 0.35377 0.55353 0.30854 0.0
C457 C 0.36763 0.53642 0.29143 0.0
C458 C 0.50817 0.55693 0.1791 0.0
C459 C 0.5195 0.5833 0.29713 0.0
O460 O 0.57591 0.64081 0.19805 0.0
O461 O 0.55587 0.67138 0.18609 0.0
O462 O 0.48177 0.62285 0.21523 0.0
O463 O 0.5169 0.64772 0.2601 0.0
O464 O 0.50665 0.6115 0.13567 0.0
O465 O 0.4555 0.57379 0.15073 0.0
O466 O 0.42079 0.53567 0.21212 0.0
O467 O 0.43907 0.55818 0.27406 0.0
O468 O 0.51497 0.57637 0.20963 0.0
O469 O 0.47748 0.54172 0.17465 0.0
O470 O 0.49035 0.56432 0.28084 0.0
O471 O 0.53864 0.60917 0.27274 0.0
H472 H 0.56592 0.65814 1.10003 0.0
H473 H 0.60302 0.67784 1.03852 0.0
H474 H 0.68182 0.72946 0.12632 0.0
H475 H 0.64451 0.70961 0.1877 0.0
H476 H 0.40802 0.5855 0.20691 0.0
H477 H 0.38323 0.6151 0.23607 0.0
H478 H 0.34097 0.5453 0.33894 0.0
H479 H 0.36497 0.51573 0.30884 0.0
H480 H 0.4839 0.16747 0.23765 0.0
H481 H 0.53128 0.34493 0.31873 0.0
H482 H 0.53692 0.20673 0.35496 0.0
H483 H 0.50097 0.3119 0.18886 0.0
H484 H 0.53431 0.29615 0.33324 0.0
H485 H 0.48992 0.21985 0.22039 0.0
C486 C 0.49711 0.18715 0.25981 0.0
C487 C 0.50997 0.18205 0.29791 0.0
C488 C 0.52754 0.2997 0.30128 0.0
C489 C 0.51654 0.24341 0.27832 0.0
C490 C 0.52611 0.32791 0.29275 0.0
C491 C 0.51682 0.33354 0.25191 0.0
C492 C 0.51858 0.27578 0.26927 0.0
C493 C 0.50926 0.30954 0.22037 0.0
C494 C 0.50053 0.21732 0.24981 0.0
C495 C 0.52669 0.20905 0.32506 0.0
N496 N 0.50999 0.28199 0.22978 0.0
N497 N 0.52916 0.23812 0.31504 0.0
H498 H 0.31662 0.52182 0.70978 0.0
H499 H 0.19442 0.52038 0.52805 0.0
H500 H 0.32743 0.50912 0.57398 0.0
H501 H 0.16762 0.49662 0.6617 0.0
H502 H 0.24748 0.52693 0.54453 0.0
H503 H 0.26731 0.52341 0.69347 0.0
C504 C 0.30931 0.52033 0.67638 0.0
C505 C 0.32708 0.51594 0.64325 0.0
C506 C 0.23018 0.52073 0.57046 0.0
C507 C 0.26951 0.51736 0.62404 0.0
C508 C 0.19979 0.5173 0.56107 0.0
C509 C 0.17608 0.50826 0.5935 0.0
C510 C 0.23768 0.51569 0.6129 0.0
C511 C 0.18486 0.50389 0.6355 0.0
C512 C 0.28073 0.52083 0.66706 0.0
C513 C 0.31517 0.51307 0.60072 0.0
N514 N 0.21452 0.50772 0.64387 0.0
N515 N 0.28763 0.51395 0.59247 0.0
H516 H 0.78835 0.31259 1.02982 0.0
H517 H 0.69137 0.18986 0.8366 0.0
H518 H 0.8344 0.31189 0.9103 0.0
H519 H 0.66937 0.16097 0.96985 0.0
H520 H 0.73877 0.23975 0.86033 0.0
H521 H 0.73984 0.26321 1.00635 0.0
C522 C 0.78828 0.30242 0.99847 0.0
C523 C 0.81602 0.31678 0.97228 0.0
C524 C 0.72345 0.22269 0.8845 0.0
C525 C 0.7596 0.26 0.94451 0.0
C526 C 0.69626 0.19402 0.8709 0.0
C527 C 0.67614 0.17058 0.90103 0.0
C528 C 0.73033 0.22921 0.92894 0.0
C529 C 0.68413 0.17788 0.94518 0.0
C530 C 0.76048 0.27402 0.98512 0.0
C531 C 0.81397 0.3019 0.93195 0.0
N532 N 0.71009 0.2064 0.95767 0.0
N533 N 0.78653 0.27488 0.91933 0.0
H534 H 0.48825 0.68428 0.18618 0.0
H535 H 0.45973 0.79718 0.35558 0.0
H536 H 0.47558 0.66426 0.32271 0.0
H537 H 0.51547 0.83476 0.23917 0.0
H538 H 0.45465 0.74457 0.33933 0.0
H539 H 0.48705 0.73433 0.19971 0.0
C540 C 0.4842 0.68974 0.21886 0.0
C541 C 0.48129 0.66906 0.25311 0.0
C542 C 0.46788 0.76424 0.31715 0.0
C543 C 0.48043 0.72762 0.26923 0.0
C544 C 0.47074 0.7945 0.3264 0.0
C545 C 0.48835 0.82116 0.29908 0.0
C546 C 0.482 0.7597 0.27951 0.0
C547 C 0.50186 0.81541 0.26163 0.0
C548 C 0.484 0.71877 0.22671 0.0
C549 C 0.47735 0.67873 0.29497 0.0
N550 N 0.4983 0.78571 0.25299 0.0
N551 N 0.47684 0.70676 0.30169 0.0
H552 H 0.67998 0.47649 0.70772 0.0
H553 H 0.78795 0.46174 0.51627 0.0
H554 H 0.66374 0.47944 0.57151 0.0
H555 H 0.82401 0.48604 0.64609 0.0
H556 H 0.73804 0.45846 0.53996 0.0
H557 H 0.72733 0.47111 0.69005 0.0
C558 C 0.6857 0.47511 0.6741 0.0
C559 C 0.66698 0.47785 0.64115 0.0
C560 C 0.75648 0.46406 0.56373 0.0
C561 C 0.72219 0.4721 0.62041 0.0
C562 C 0.78518 0.4656 0.55024 0.0
C563 C 0.81071 0.4737 0.57899 0.0
C564 C 0.75227 0.47073 0.60691 0.0
C565 C 0.80517 0.47901 0.62255 0.0
C566 C 0.71315 0.47244 0.66399 0.0
C567 C 0.67675 0.47696 0.59822 0.0
N568 N 0.77686 0.47759 0.63499 0.0
N569 N 0.70314 0.47408 0.58933 0.0
H570 H 0.34101 0.80374 0.97028 0.0
H571 H 0.16435 0.66076 0.90834 0.0
H572 H 0.30027 0.78412 0.84254 0.0
H573 H 0.20601 0.65869 1.03018 0.0
H574 H 0.21459 0.70753 0.88692 0.0
H575 H 0.29393 0.75323 0.99594 0.0
C576 C 0.32258 0.78889 0.94747 0.0
C577 C 0.32509 0.79883 0.90388 0.0
C578 C 0.21314 0.69702 0.91837 0.0
C579 C 0.27035 0.74083 0.93347 0.0
C580 C 0.18421 0.66992 0.93063 0.0
C581 C 0.18045 0.65512 0.97115 0.0
C582 C 0.23935 0.71064 0.94682 0.0
C583 C 0.20753 0.66879 0.99843 0.0
C584 C 0.29549 0.75998 0.96224 0.0
C585 C 0.29988 0.77815 0.87638 0.0
N586 N 0.23554 0.69575 0.98602 0.0
N587 N 0.274 0.75091 0.89153 0.0
H588 H 0.70412 0.27943 1.041 0.0
H589 H 0.62275 0.27894 0.24378 0.0
H590 H 0.62678 0.29997 1.04649 0.0
H591 H 0.7155 0.28606 0.24148 0.0
H592 H 0.63614 0.30963 0.17774 0.0
H593 H 0.72119 0.30322 1.11216 0.0
C594 C 0.69126 0.28985 1.05649 0.0
C595 C 0.66293 0.28613 1.03868 0.0
C596 C 0.65409 0.30538 0.19214 0.0
C597 C 0.6817 0.31242 0.12117 0.0
C598 C 0.64651 0.28791 0.23053 0.0
C599 C 0.66712 0.27768 0.24665 0.0
C600 C 0.68185 0.31155 0.16923 0.0
C601 C 0.6979 0.29135 0.22838 0.0
C602 C 0.70101 0.30346 1.09745 0.0
C603 C 0.64773 0.30071 1.06013 0.0
N604 N 0.70384 0.3063 0.18942 0.0
N605 N 0.65664 0.31225 1.10088 0.0
H606 H 0.31636 0.57633 0.35299 0.0
H607 H 0.37852 0.63157 0.54705 0.0
H608 H 0.40616 0.64716 0.29732 0.0
H609 H 0.46613 0.66412 0.47499 0.0
H610 H 0.35263 0.63532 0.48129 0.0
H611 H 0.3315 0.60541 0.42095 0.0
C612 C 0.33872 0.59873 0.35443 0.0
C613 C 0.36091 0.60798 0.32024 0.0
C614 C 0.37761 0.64208 0.4799 0.0
C615 C 0.37849 0.64179 0.39796 0.0
C616 C 0.39252 0.64029 0.51756 0.0
C617 C 0.42423 0.64663 0.51596 0.0
C618 C 0.39458 0.64994 0.4405 0.0
C619 C 0.44136 0.6581 0.47719 0.0
C620 C 0.34743 0.61556 0.3935 0.0
C621 C 0.38874 0.63807 0.3233 0.0
N622 N 0.42615 0.65886 0.44083 0.0
N623 N 0.39735 0.6532 0.3621 0.0
H624 H 0.73011 0.28681 0.87153 0.0
H625 H 0.74618 0.33934 0.6296 0.0
H626 H 0.72271 0.3663 0.82204 0.0
H627 H 0.79363 0.29469 0.69201 0.0
H628 H 0.70879 0.32361 0.69065 0.0
H629 H 0.72155 0.26439 0.79834 0.0
C630 C 0.72517 0.29873 0.84555 0.0
C631 C 0.7289 0.32925 0.85208 0.0
C632 C 0.72653 0.31608 0.69007 0.0
C633 C 0.71916 0.30399 0.76909 0.0
C634 C 0.74786 0.32502 0.6553 0.0
C635 C 0.77345 0.31897 0.65655 0.0
C636 C 0.73097 0.30108 0.72608 0.0
C637 C 0.77462 0.30042 0.6905 0.0
C638 C 0.72033 0.28597 0.80389 0.0
C639 C 0.72113 0.34323 0.81802 0.0
N640 N 0.75406 0.29265 0.72445 0.0
N641 N 0.7177 0.33102 0.77746 0.0
H642 H 0.46372 0.74666 1.02088 0.0
H643 H 0.33302 0.72016 0.17446 0.0
H644 H 0.36776 0.71949 0.98272 0.0
H645 H 0.4228 0.72961 0.21421 0.0
H646 H 0.33637 0.69552 1.10746 0.0
H647 H 0.44284 0.71783 1.08882 0.0
C648 C 0.43814 0.73376 1.02628 0.0
C649 C 0.41758 0.73662 0.9971 0.0
C650 C 0.35496 0.702 0.13128 0.0
C651 C 0.39355 0.70449 1.07514 0.0
C652 C 0.35289 0.71594 0.16993 0.0
C653 C 0.37863 0.72868 0.19876 0.0
C654 C 0.38341 0.70197 0.12111 0.0
C655 C 0.4033 0.72173 0.19153 0.0
C656 C 0.42612 0.71719 1.06506 0.0
C657 C 0.38458 0.71863 1.0049 0.0
N658 N 0.40576 0.70997 0.15258 0.0
N659 N 0.37365 0.70421 1.04385 0.0
H660 H 0.59927 0.36074 0.30538 0.0
H661 H 0.64613 0.40484 0.54222 0.0
H662 H 0.68827 0.44117 0.34742 0.0
H663 H 0.55907 0.32234 0.4992 0.0
H664 H 0.67113 0.4056 0.47348 0.0
H665 H 0.59544 0.33401 0.3731 0.0
C666 C 0.61878 0.37245 0.32799 0.0
C667 C 0.64328 0.40422 0.32151 0.0
C668 C 0.64681 0.38676 0.47936 0.0
C669 C 0.63814 0.37397 0.40032 0.0
C670 C 0.63245 0.38617 0.51894 0.0
C671 C 0.59993 0.36417 0.52601 0.0
C672 C 0.62836 0.36572 0.44627 0.0
C673 C 0.58376 0.34061 0.49444 0.0
C674 C 0.61635 0.35713 0.36719 0.0
C675 C 0.668 0.41744 0.35203 0.0
N676 N 0.59785 0.34254 0.45549 0.0
N677 N 0.66421 0.4028 0.39087 0.0
H678 H 0.25126 0.66282 0.91298 0.0
H679 H 0.19001 0.6762 0.73646 0.0
H680 H 0.2676 0.59668 0.83768 0.0
H681 H 0.24522 0.64396 0.66369 0.0
H682 H 0.2247 0.68653 0.79808 0.0
H683 H 0.26138 0.69551 0.84905 0.0
C684 C 0.25786 0.65545 0.88343 0.0
C685 C 0.256 0.62545 0.88007 0.0
C686 C 0.23043 0.67857 0.76828 0.0
C687 C 0.26557 0.66196 0.80619 0.0
C688 C 0.21025 0.6724 0.73311 0.0
C689 C 0.21433 0.65847 0.69556 0.0
C690 C 0.25426 0.6698 0.76614 0.0
C691 C 0.24106 0.65433 0.69246 0.0
C692 C 0.26313 0.67404 0.84655 0.0
C693 C 0.26637 0.6184 0.84109 0.0
N694 N 0.25941 0.65894 0.72785 0.0
N695 N 0.26939 0.63579 0.80507 0.0
H696 H 0.46777 0.94227 1.01449 0.0
H697 H 0.42164 0.02385 0.21992 0.0
H698 H 0.37862 0.94175 1.01566 0.0
H699 H 0.51826 0.04888 0.19046 0.0
H700 H 0.404 0.99117 0.15282 0.0
H701 H 0.48333 0.97596 1.07963 0.0
C702 C 0.45087 0.94849 1.02822 0.0
C703 C 0.42103 0.93741 1.00689 0.0
C704 C 0.42918 0.00358 0.16053 0.0
C705 C 0.44035 0.97822 1.08802 0.0
C706 C 0.43966 0.02281 0.20003 0.0
C707 C 0.47232 0.04046 0.21396 0.0
C708 C 0.45078 0.00013 0.1321 0.0
C709 C 0.49296 0.03649 0.18377 0.0
C710 C 0.46029 0.96842 1.06669 0.0
C711 C 0.40179 0.94844 1.02896 0.0
N712 N 0.48212 0.01738 0.14622 0.0
N713 N 0.41135 0.96713 1.06709 0.0
H714 H 0.42 0.38154 0.35081 0.0
H715 H 0.45842 0.51956 0.53891 0.0
H716 H 0.50469 0.47395 0.34841 0.0
H717 H 0.38448 0.42201 0.55666 0.0
H718 H 0.47265 0.50448 0.46908 0.0
H719 H 0.40483 0.39576 0.42104 0.0
C720 C 0.43572 0.40496 0.36428 0.0
C721 C 0.46428 0.42605 0.3409 0.0
C722 C 0.45331 0.48602 0.48787 0.0
C723 C 0.44585 0.44355 0.42585 0.0
C724 C 0.44481 0.49481 0.52881 0.0
C725 C 0.41963 0.47262 0.55649 0.0
C726 C 0.43692 0.45412 0.47149 0.0
C727 C 0.40396 0.44086 0.53853 0.0
C728 C 0.4268 0.41322 0.40549 0.0
C729 C 0.48254 0.45604 0.36306 0.0
N730 N 0.41256 0.43304 0.49861 0.0
N731 N 0.47317 0.46349 0.40253 0.0
H732 H 0.07394 0.50015 0.7195 0.0
H733 H 0.89943 0.40935 0.84264 0.0
H734 H 0.99277 0.42487 0.65477 0.0
H735 H 0.98588 0.44133 0.91462 0.0
H736 H 0.93096 0.42101 0.77438 0.0
H737 H 0.04266 0.48566 0.78788 0.0
C738 C 0.04958 0.48053 0.71891 0.0
C739 C 0.03724 0.46394 0.67898 0.0
C740 C 0.94334 0.42563 0.80494 0.0
C741 C -0.00122 0.44726 0.76118 0.0
C742 C 0.92497 0.41903 0.8449 0.0
C743 C 0.93889 0.42392 0.88695 0.0
C744 C 0.97717 0.43858 0.80467 0.0
C745 C 0.97284 0.43661 0.88463 0.0
C746 C 0.03132 0.4721 0.75897 0.0
C747 C 0.00465 0.43877 0.68322 0.0
N748 N 0.99008 0.4436 0.84567 0.0
N749 N 0.98714 0.4319 0.72203 0.0
H750 H 0.54846 0.00155 0.24502 0.0
H751 H 0.57787 0.09913 1.05054 0.0
H752 H 0.4852 0.92142 0.16665 0.0
H753 H 0.54183 0.01122 0.97959 0.0
H754 H 0.56472 0.06797 0.11905 0.0
H755 H 0.56551 0.03583 0.17972 0.0
C756 C 0.53779 0.99055 0.21441 0.0
C757 C 0.51421 0.95716 0.21431 0.0
C758 C 0.55968 0.05507 1.08875 0.0
C759 C 0.53563 0.99887 0.13384 0.0
C760 C 0.56722 0.07341 1.04837 0.0
C761 C 0.56144 0.05915 1.00612 0.0
C762 C 0.54549 0.02085 1.08973 0.0
C763 C 0.54734 0.02483 1.00933 0.0
C764 C 0.5479 0.01081 0.17598 0.0
C765 C 0.50277 0.94637 0.17117 0.0
N766 N 0.5402 0.00784 1.04855 0.0
N767 N 0.5136 0.96634 0.13442 0.0
H768 H 0.53495 0.47992 0.53884 0.0
H769 H 0.57578 0.61803 0.35049 0.0
H770 H 0.61292 0.5759 0.55291 0.0
H771 H 0.48922 0.52716 0.3509 0.0
H772 H 0.59117 0.60326 0.41961 0.0
H773 H 0.52057 0.49558 0.47011 0.0
C774 C 0.54943 0.50444 0.52815 0.0
C775 C 0.5758 0.52599 0.55448 0.0
C776 C 0.56873 0.58626 0.40494 0.0
C777 C 0.55825 0.54523 0.47077 0.0
C778 C 0.55967 0.59485 0.36437 0.0
C779 C 0.53052 0.57439 0.3421 0.0
C780 C 0.54921 0.55619 0.42578 0.0
C781 C 0.51182 0.54463 0.3647 0.0
C782 C 0.54082 0.51359 0.48785 0.0
C783 C 0.5925 0.55751 0.53583 0.0
N784 N 0.52131 0.53685 0.40354 0.0
N785 N 0.58373 0.56569 0.49657 0.0
H786 H 0.0387 0.59958 0.89079 0.0
H787 H 0.94851 0.47547 0.68664 0.0
H788 H 0.0459 0.51525 0.86998 0.0
H789 H 0.96562 0.57183 0.68272 0.0
H790 H 0.97775 0.48788 0.75548 0.0
H791 H 0.00928 0.58909 0.82164 0.0
C792 C 0.03436 0.57867 0.87234 0.0
C793 C 0.04623 0.55882 0.88906 0.0
C794 C 0.97582 0.50665 0.73973 0.0
C795 C 0.0097 0.54553 0.80511 0.0
C796 C 0.95832 0.49948 0.69942 0.0
C797 C 0.95331 0.52212 0.67575 0.0
C798 C 0.98984 0.53723 0.75982 0.0
C799 C 0.9678 0.55267 0.69744 0.0
C800 C 0.01709 0.57261 0.8317 0.0
C801 C 0.0384 0.53214 0.86074 0.0
N802 N 0.98463 0.5589 0.73678 0.0
N803 N 0.02109 0.52652 0.82207 0.0
H804 H 0.55464 0.06736 0.44145 0.0
H805 H 0.42281 0.92708 0.43403 0.0
H806 H 0.4558 0.02964 0.40817 0.0
H807 H 0.52362 0.96878 0.40886 0.0
H808 H 0.43477 0.95504 0.50288 0.0
H809 H 0.53792 0.04123 0.51154 0.0
C810 C 0.52933 0.053 0.44833 0.0
C811 C 0.50624 0.04691 0.41631 0.0
C812 C 0.4544 0.95731 0.48302 0.0
C813 C 0.48823 0.01442 0.49333 0.0
C814 C 0.44759 0.94264 0.44257 0.0
C815 C 0.4725 0.94905 0.41309 0.0
C816 C 0.48553 0.98239 0.48994 0.0
C817 C 0.50379 0.96633 0.42813 0.0
C818 C 0.51979 0.03941 0.48937 0.0
C819 C 0.47423 0.03148 0.4294 0.0
N820 N 0.50952 0.98203 0.46645 0.0
N821 N 0.46607 0.01677 0.46864 0.0
H822 H 0.46198 0.45078 0.71453 0.0
H823 H 0.58511 0.5272 0.80139 0.0
H824 H 0.41119 0.47493 0.80745 0.0
H825 H 0.52589 0.54107 0.71337 0.0
H826 H 0.54007 0.49981 0.85223 0.0
H827 H 0.49332 0.44819 0.77505 0.0
C828 C 0.45724 0.45597 0.74702 0.0
C829 C 0.43815 0.47 0.75409 0.0
C830 C 0.53736 0.51021 0.82266 0.0
C831 C 0.47914 0.47495 0.81739 0.0
C832 C 0.56219 0.52381 0.79247 0.0
C833 C 0.55516 0.52721 0.74935 0.0
C834 C 0.50791 0.50629 0.81051 0.0
C835 C 0.53032 0.53377 0.74447 0.0
C836 C 0.47544 0.45496 0.78172 0.0
C837 C 0.43153 0.47317 0.7978 0.0
N838 N 0.5068 0.52248 0.77488 0.0
N839 N 0.45297 0.47686 0.82867 0.0
H840 H 0.91882 0.49792 1.101 0.0
H841 H 0.05659 0.4933 0.12071 0.0
H842 H 0.95694 0.43536 1.07579 0.0
H843 H 0.03252 0.56444 1.08214 0.0
H844 H 0.02711 0.48623 0.18832 0.0
H845 H 0.95074 0.51651 0.16671 0.0
C846 C 0.9341 0.48821 1.1092 0.0
C847 C 0.93787 0.46742 1.08083 0.0
C848 C 0.02892 0.50399 0.1653 0.0
C849 C 0.9739 0.48841 0.15566 0.0
C850 C 0.0443 0.50669 0.12569 0.0
C851 C 0.04242 0.52573 1.09249 0.0
C852 C 0.00651 0.51448 0.16591 0.0
C853 C 0.03012 0.54576 1.10363 0.0
C854 C 0.95106 0.49768 0.14779 0.0
C855 C 0.95562 0.45354 1.09472 0.0
N856 N 0.0142 0.54105 0.14177 0.0
N857 N 0.97266 0.46396 0.1316 0.0
H858 H 0.04739 0.4521 0.44127 0.0
H859 H 0.02308 0.54151 0.50958 0.0
H860 H 0.97198 0.44863 0.5172 0.0
H861 H 0.94556 0.52652 0.42754 0.0
H862 H 0.04905 0.53469 0.44365 0.0
H863 H 0.03449 0.47741 0.3818 0.0
C864 C 0.02808 0.45693 0.44544 0.0
C865 C 0.01585 0.45706 0.48686 0.0
C866 C 0.02525 0.53129 0.44153 0.0
C867 C 0.99605 0.47789 0.41775 0.0
C868 C 0.01081 0.5355 0.47884 0.0
C869 C 0.97898 0.5282 0.47599 0.0
C870 C 0.00438 0.51132 0.40896 0.0
C871 C 0.96667 0.52506 0.43373 0.0
C872 C 0.01969 0.46965 0.41065 0.0
C873 C 0.98534 0.45353 0.4872 0.0
N874 N 0.97881 0.51512 0.40121 0.0
N875 N 0.97634 0.4647 0.45283 0.0
H876 H 0.4156 0.96251 0.81373 0.0
H877 H 0.50602 0.08471 0.94332 0.0
H878 H 0.46344 0.97706 0.93608 0.0
H879 H 0.47947 0.0847 0.81084 0.0
H880 H 0.44919 0.05975 0.96355 0.0
H881 H 0.40282 0.00413 0.83276 0.0
C882 C 0.42366 0.97479 0.84448 0.0
C883 C 0.44172 0.9675 0.87274 0.0
C884 C 0.45597 0.06525 0.9298 0.0
C885 C 0.4267 0.01449 0.89502 0.0
C886 C 0.48813 0.07793 0.91834 0.0
C887 C 0.49624 0.08008 0.87414 0.0
C888 C 0.43402 0.04834 0.89679 0.0
C889 C 0.47315 0.07696 0.84411 0.0
C890 C 0.41531 0.99759 0.856 0.0
C891 C 0.45036 0.98277 0.91282 0.0
N892 N 0.44203 0.06246 0.85698 0.0
N893 N 0.44264 0.00541 0.92282 0.0
H894 H 0.53117 0.58901 1.09637 0.0
H895 H 0.44724 0.4702 0.17834 0.0
H896 H 0.54286 0.52501 0.17826 0.0
H897 H 0.46662 0.41232 1.0916 0.0
H898 H 0.44967 0.50217 0.11509 0.0
H899 H 0.50207 0.54585 1.04378 0.0
C900 C 0.52702 0.56548 1.10363 0.0
C901 C 0.53052 0.55684 0.1459 0.0
C902 C 0.45443 0.48265 1.1106 0.0
C903 C 0.50673 0.51109 1.08252 0.0
C904 C 0.45241 0.46403 0.14671 0.0
C905 C 0.46331 0.44205 0.14238 0.0
C906 C 0.47439 0.48366 1.07626 0.0
C907 C 0.46666 0.43397 1.09946 0.0
C908 C 0.51229 0.54161 1.07237 0.0
C909 C 0.53552 0.53079 0.14816 0.0
N910 N 0.47371 0.45575 1.06741 0.0
N911 N 0.52265 0.508 0.11691 0.0
H912 H 0.26987 0.95606 0.71302 0.0
H913 H 0.39733 0.09821 0.57275 0.0
H914 H 0.3577 0.03402 0.7623 0.0
H915 H 0.31126 0.01859 0.52226 0.0
H916 H 0.37481 0.08428 0.64572 0.0
H917 H 0.27574 0.98761 0.64835 0.0
C918 C 0.28996 0.98016 0.71065 0.0
C919 C 0.31383 0.99215 0.74231 0.0
C920 C 0.36052 0.07023 0.61864 0.0
C921 C 0.32098 0.02809 0.66842 0.0
C922 C 0.37344 0.0781 0.57707 0.0
C923 C 0.35643 0.05895 0.54178 0.0
C924 C 0.33066 0.04266 0.62493 0.0
C925 C 0.32529 0.03371 0.54877 0.0
C926 C 0.29331 0.99817 0.67379 0.0
C927 C 0.33896 0.02372 0.73835 0.0
N928 N 0.31366 0.02582 0.58974 0.0
N929 N 0.34231 0.04034 0.70146 0.0
H930 H 0.30061 0.33612 1.09184 0.0
H931 H 0.28099 0.30282 0.84235 0.0
H932 H 0.32303 0.27115 1.02434 0.0
H933 H 0.26592 0.37343 0.90817 0.0
H934 H 0.27715 0.27706 0.9116 0.0
H935 H 0.26951 0.33577 1.02961 0.0
C936 C 0.2984 0.32128 1.06417 0.0
C937 C 0.31512 0.30442 1.06251 0.0
C938 C 0.27387 0.29771 0.91084 0.0
C939 C 0.28006 0.30418 0.9912 0.0
C940 C 0.27587 0.31235 0.87122 0.0
C941 C 0.27475 0.34088 0.86979 0.0
C942 C 0.27117 0.312 0.94915 0.0
C943 C 0.268 0.35206 0.90815 0.0
C944 C 0.28058 0.32098 1.02874 0.0
C945 C 0.31085 0.28486 1.02657 0.0
N946 N 0.26718 0.33801 0.94647 0.0
N947 N 0.29434 0.28589 0.9918 0.0
H948 H 0.95297 0.2882 0.2102 0.0
H949 H 0.11296 0.36463 0.34033 0.0
H950 H 0.04512 0.35736 0.15869 0.0
H951 H 0.0198 0.30012 0.3937 0.0
H952 H 0.09158 0.34702 0.26769 0.0
H953 H 0.97949 0.2783 0.27032 0.0
C954 C 0.97882 0.30104 0.21137 0.0
C955 C 0.99689 0.3243 0.18025 0.0
C956 C 0.07604 0.33603 0.29537 0.0
C957 C 0.02739 0.31316 0.24874 0.0
C958 C 0.08826 0.34607 0.33683 0.0
C959 C 0.06785 0.33475 0.37297 0.0
C960 C 0.04318 0.31488 0.29029 0.0
C961 C 0.03634 0.30999 0.36676 0.0
C962 C 0.99397 0.2952 0.24544 0.0
C963 C 0.03029 0.33952 0.18238 0.0
N964 N 0.02473 0.30153 0.3261 0.0
N965 N 0.04448 0.33418 0.21662 0.0
H966 H 0.66184 0.97434 0.73988 0.0
H967 H 0.68654 0.02562 0.50072 0.0
H968 H 0.71402 0.07262 0.6971 0.0
H969 H 0.63878 0.92799 0.54594 0.0
H970 H 0.71407 0.04279 0.5699 0.0
H971 H 0.67267 0.95762 0.67087 0.0
C972 C 0.67654 0.99265 0.71665 0.0
C973 C 0.68561 0.02489 0.7236 0.0
C974 C 0.6982 0.0175 0.56438 0.0
C975 C 0.69675 0.00553 0.64345 0.0
C976 C 0.68248 0.00767 0.52481 0.0
C977 C 0.65948 0.97547 0.51831 0.0
C978 C 0.69041 0.99499 0.59773 0.0
C979 C 0.65541 0.95323 0.55039 0.0
C980 C 0.6825 0.98296 0.67681 0.0
C981 C 0.70503 0.0473 0.69221 0.0
N982 N 0.67016 0.96349 0.5891 0.0
N983 N 0.709 0.03713 0.65282 0.0
H984 H 0.69872 0.69972 1.07564 0.0
H985 H 0.69623 0.69785 0.81961 0.0
H986 H 0.64274 0.72721 0.99706 0.0
H987 H 0.72592 0.64392 0.89899 0.0
H988 H 0.69618 0.72776 0.88362 0.0
H989 H 0.72772 0.6991 1.01087 0.0
C990 C 0.69322 0.70662 1.04493 0.0
C991 C 0.66784 0.71282 1.04136 0.0
C992 C 0.70351 0.70996 0.88679 0.0
C993 C 0.70054 0.71171 0.96742 0.0
C994 C 0.7037 0.69299 0.8503 0.0
C995 C 0.7104 0.66793 0.85438 0.0
C996 C 0.71 0.70169 0.92746 0.0
C997 C 0.71986 0.66257 0.89483 0.0
C998 C 0.70967 0.70609 1.008 0.0
C999 C 0.66166 0.72153 1.00087 0.0
N1000 N 0.71884 0.67895 0.93006 0.0
N1001 N 0.67753 0.72017 0.96523 0.0
H1002 H 0.97866 0.66632 0.16455 0.0
H1003 H -0.00042 0.69405 0.41658 0.0
H1004 H 0.06648 0.69752 0.23419 0.0
H1005 H 0.90862 0.6488 0.35153 0.0
H1006 H 0.02623 0.71395 0.34725 0.0
H1007 H 0.95558 0.67694 0.22887 0.0
C1008 C 0.9933 0.67603 0.19313 0.0
C1009 C 0.02424 0.68033 0.19454 0.0
C1010 C 0.00038 0.70035 0.3482 0.0
C1011 C 0.998 0.69233 0.26806 0.0
C1012 C 0.98505 0.68922 0.38794 0.0
C1013 C 0.95184 0.66886 0.38965 0.0
C1014 C 0.98237 0.69068 0.31003 0.0
C1015 C 0.93438 0.66354 0.35138 0.0
C1016 C 0.98011 0.68206 0.2298 0.0
C1017 C 0.0422 0.69301 0.23226 0.0
N1018 N 0.94992 0.67367 0.31289 0.0
N1019 N 0.02865 0.69813 0.26776 0.0
H1020 H 0.58257 0.12685 0.47648 0.0
H1021 H 0.54069 0.13874 0.7331 0.0
H1022 H 0.4894 0.11026 0.5119 0.0
H1023 H 0.59913 0.09784 0.69896 0.0
H1024 H 0.52786 0.13859 0.65528 0.0
H1025 H 0.59469 0.12634 0.55431 0.0
C1026 C 0.56443 0.12352 0.49997 0.0
C1027 C 0.53447 0.11879 0.48433 0.0
C1028 C 0.54369 0.12973 0.66423 0.0
C1029 C 0.54941 0.11892 0.57937 0.0
C1030 C 0.55139 0.12992 0.70987 0.0
C1031 C 0.57162 0.11836 0.72581 0.0
C1032 C 0.55672 0.11887 0.63088 0.0
C1033 C 0.58356 0.10721 0.69092 0.0
C1034 C 0.57155 0.12304 0.54565 0.0
C1035 C 0.51293 0.11426 0.51964 0.0
N1036 N 0.57653 0.10821 0.64698 0.0
N1037 N 0.5208 0.11489 0.56361 0.0
H1038 H 0.37567 0.49104 0.86427 0.0
H1039 H 0.51002 0.6197 1.03901 0.0
H1040 H 0.45942 0.57704 0.82314 0.0
H1041 H 0.42085 0.54016 1.08075 0.0
H1042 H 0.49345 0.60414 0.96259 0.0
H1043 H 0.39178 0.50682 0.94082 0.0
C1044 C 0.39739 0.51337 0.87039 0.0
C1045 C 0.41537 0.53228 0.83396 0.0
C1046 C 0.47716 0.58987 0.98814 0.0
C1047 C 0.43539 0.55138 0.92702 0.0
C1048 C 0.48684 0.59903 1.03304 0.0
C1049 C 0.46731 0.58207 1.06958 0.0
C1050 C 0.44719 0.56268 0.97665 0.0
C1051 C 0.43753 0.55507 1.05597 0.0
C1052 C 0.40686 0.52257 0.91536 0.0
C1053 C 0.44367 0.56091 0.84779 0.0
N1054 N 0.42893 0.54665 1.0125 0.0
N1055 N 0.45233 0.56904 0.89129 0.0
H1056 H 0.89964 0.39488 0.18636 0.0
H1057 H 0.87625 0.50789 0.37023 0.0
H1058 H 0.8556 0.45044 0.15337 0.0
H1059 H 0.895 0.43243 0.40396 0.0
H1060 H 0.87263 0.49169 0.29288 0.0
H1061 H 0.90198 0.41143 0.26283 0.0
C1062 C 0.89013 0.41042 0.19446 0.0
C1063 C 0.87679 0.42018 0.16053 0.0
C1064 C 0.87753 0.47844 0.31692 0.0
C1065 C 0.88041 0.44111 0.25325 0.0
C1066 C 0.87968 0.48791 0.36223 0.0
C1067 C 0.88577 0.47189 0.39668 0.0
C1068 C 0.88206 0.45257 0.30311 0.0
C1069 C 0.88996 0.44611 0.38081 0.0
C1070 C 0.89162 0.42015 0.23931 0.0
C1071 C 0.86573 0.44112 0.17635 0.0
N1072 N 0.88828 0.43785 0.33697 0.0
N1073 N 0.86793 0.4506 0.2199 0.0
H1074 H 0.40604 0.86751 0.47792 0.0
H1075 H 0.4628 0.88426 0.73372 0.0
H1076 H 0.50365 0.90053 0.51191 0.0
H1077 H 0.37672 0.88407 0.69904 0.0
H1078 H 0.47563 0.88472 0.65584 0.0
H1079 H 0.39314 0.86784 0.55575 0.0
C1080 C 0.42508 0.87455 0.50115 0.0
C1081 C 0.45644 0.88374 0.4853 0.0
C1082 C 0.4538 0.88452 0.66468 0.0
C1083 C 0.44084 0.88385 0.57993 0.0
C1084 C 0.44617 0.8842 0.71034 0.0
C1085 C 0.41817 0.8842 0.72606 0.0
C1086 C 0.43334 0.88408 0.63126 0.0
C1087 C 0.39863 0.88416 0.69107 0.0
C1088 C 0.41747 0.87489 0.54674 0.0
C1089 C 0.47904 0.89289 0.52002 0.0
N1090 N 0.40627 0.88382 0.6471 0.0
N1091 N 0.47091 0.89239 0.56391 0.0
H1092 H 0.61884 0.50794 0.86024 0.0
H1093 H 0.48466 0.38088 1.03766 0.0
H1094 H 0.53451 0.42216 0.82082 0.0
H1095 H 0.57464 0.45964 1.07752 0.0
H1096 H 0.50093 0.3961 0.96093 0.0
H1097 H 0.60298 0.49259 0.93712 0.0
C1098 C 0.59704 0.48575 0.86682 0.0
C1099 C 0.57882 0.46673 0.83081 0.0
C1100 C 0.51744 0.41028 0.98613 0.0
C1101 C 0.55912 0.44817 0.92419 0.0
C1102 C 0.50794 0.40134 1.0312 0.0
C1103 C 0.52777 0.41821 1.06731 0.0
C1104 C 0.54754 0.43715 0.97403 0.0
C1105 C 0.5577 0.44486 1.0531 0.0
C1106 C 0.58772 0.4768 0.91197 0.0
C1107 C 0.55043 0.43831 0.84516 0.0
N1108 N 0.56613 0.45309 1.00945 0.0
N1109 N 0.54192 0.43042 0.88883 0.0
H1110 H 0.10287 0.56124 0.41109 0.0
H1111 H 0.12508 0.52591 0.15398 0.0
H1112 H 0.1069 0.47726 0.37441 0.0
H1113 H 0.09708 0.59432 0.19168 0.0
H1114 H 0.12271 0.51051 0.23102 0.0
H1115 H 0.10454 0.57508 0.33403 0.0
C1116 C 0.10418 0.5453 0.38744 0.0
C1117 C 0.10461 0.51742 0.40262 0.0
C1118 C 0.11719 0.52908 0.22305 0.0
C1119 C 0.10732 0.53467 0.30817 0.0
C1120 C 0.11873 0.53831 0.17789 0.0
C1121 C 0.11175 0.56238 0.16323 0.0
C1122 C 0.10891 0.54376 0.25711 0.0
C1123 C 0.10321 0.57607 0.19879 0.0
C1124 C 0.10517 0.55357 0.34214 0.0
C1125 C 0.10652 0.49901 0.36707 0.0
N1126 N 0.10236 0.567 0.24224 0.0
N1127 N 0.10796 0.50787 0.32327 0.0
loop_
_geom_bond_atom_site_label_1
_geom_bond_atom_site_label_2
_geom_bond_distance
_geom_bond_site_symmetry_2
_ccdc_geom_bond_type
Tb0 C2 2.809 . S
Tb0 O20 2.484 . S
Tb0 O21 2.440 . S
Tb0 O22 2.658 . S
Tb0 O23 2.409 . S
Tb0 O24 2.378 . S
Tb0 O28 2.325 . S
Tb0 O31 2.341 . S
Tb1 C11 2.809 . S
Tb1 O22 2.325 . S
Tb1 O25 2.341 . S
Tb1 O26 2.484 . S
Tb1 O27 2.440 . S
Tb1 O28 2.658 . S
Tb1 O29 2.409 . S
Tb1 O30 2.378 . S
C2 Tb0 2.809 . S
C2 C3 1.514 . S
C2 O20 1.248 . S
C2 O21 1.266 . S
C3 C2 1.514 . S
C3 C4 1.359 . S
C3 C8 1.348 . S
C4 C3 1.359 . S
C4 C5 1.380 . S
C4 H32 0.929 . S
C5 C4 1.380 . S
C5 C6 1.347 . S
C5 H33 0.931 . S
C6 C5 1.347 . S
C6 C7 1.369 . S
C7 C6 1.369 . S
C7 C8 1.408 . S
C7 H34 0.930 . S
C8 C3 1.348 . S
C8 C7 1.408 . S
C8 H35 0.930 . S
C9 O22 1.281 . S
C9 O23 1.254 . S
C10 O24 1.236 . S
C10 O25 1.266 . S
C11 Tb1 2.809 . S
C11 C12 1.514 . S
C11 O26 1.248 . S
C11 O27 1.266 . S
C12 C11 1.514 . S
C12 C13 1.359 . S
C12 C17 1.348 . S
C13 C12 1.359 . S
C13 C14 1.380 . S
C13 H36 0.929 . S
C14 C13 1.380 . S
C14 C15 1.347 . S
C14 H37 0.931 . S
C15 C14 1.347 . S
C15 C16 1.369 . S
C16 C15 1.369 . S
C16 C17 1.408 . S
C16 H38 0.930 . S
C17 C12 1.348 . S
C17 C16 1.408 . S
C17 H39 0.930 . S
C18 O28 1.281 . S
C18 O29 1.254 . S
C19 O30 1.236 . S
C19 O31 1.266 . S
O20 Tb0 2.484 . S
O20 C2 1.248 . S
O21 Tb0 2.440 . S
O21 C2 1.266 . S
O22 Tb0 2.658 . S
O22 Tb1 2.325 . S
O22 C9 1.281 . S
O23 Tb0 2.409 . S
O23 C9 1.254 . S
O24 Tb0 2.378 . S
O24 C10 1.236 . S
O25 Tb1 2.341 . S
O25 C10 1.266 . S
O26 Tb1 2.484 . S
O26 C11 1.248 . S
O27 Tb1 2.440 . S
O27 C11 1.266 . S
O28 Tb0 2.325 . S
O28 Tb1 2.658 . S
O28 C18 1.281 . S
O29 Tb1 2.409 . S
O29 C18 1.254 . S
O30 Tb1 2.378 . S
O30 C19 1.236 . S
O31 Tb0 2.341 . S
O31 C19 1.266 . S
H32 C4 0.929 . S
H33 C5 0.931 . S
H34 C7 0.930 . S
H35 C8 0.930 . S
H36 C13 0.929 . S
H37 C14 0.931 . S
H38 C16 0.930 . S
H39 C17 0.930 . S
Tb40 C42 2.809 . S
Tb40 O60 2.484 . S
Tb40 O61 2.440 . S
Tb40 O62 2.658 . S
Tb40 O63 2.409 . S
Tb40 O64 2.378 . S
Tb40 O68 2.325 . S
Tb40 O71 2.341 . S
Tb41 C51 2.809 . S
Tb41 O62 2.325 . S
Tb41 O65 2.341 . S
Tb41 O66 2.484 . S
Tb41 O67 2.440 . S
Tb41 O68 2.658 . S
Tb41 O69 2.409 . S
Tb41 O70 2.378 . S
C42 Tb40 2.809 . S
C42 C43 1.514 . S
C42 O60 1.248 . S
C42 O61 1.266 . S
C43 C42 1.514 . S
C43 C44 1.359 . S
C43 C48 1.348 . S
C44 C43 1.359 . S
C44 C45 1.380 . S
C44 H72 0.929 . S
C45 C44 1.380 . S
C45 C46 1.347 . S
C45 H73 0.931 . S
C46 C45 1.347 . S
C46 C47 1.369 . S
C47 C46 1.369 . S
C47 C48 1.408 . S
C47 H74 0.930 . S
C48 C43 1.348 . S
C48 C47 1.408 . S
C48 H75 0.930 . S
C49 O62 1.281 . S
C49 O63 1.254 . S
C50 O64 1.236 . S
C50 O65 1.266 . S
C51 Tb41 2.809 . S
C51 C52 1.514 . S
C51 O66 1.248 . S
C51 O67 1.266 . S
C52 C51 1.514 . S
C52 C53 1.359 . S
C52 C57 1.348 . S
C53 C52 1.359 . S
C53 C54 1.380 . S
C53 H76 0.929 . S
C54 C53 1.380 . S
C54 C55 1.347 . S
C54 H77 0.931 . S
C55 C54 1.347 . S
C55 C56 1.369 . S
C56 C55 1.369 . S
C56 C57 1.408 . S
C56 H78 0.930 . S
C57 C52 1.348 . S
C57 C56 1.408 . S
C57 H79 0.930 . S
C58 O68 1.281 . S
C58 O69 1.254 . S
C59 O70 1.236 . S
C59 O71 1.266 . S
O60 Tb40 2.484 . S
O60 C42 1.248 . S
O61 Tb40 2.440 . S
O61 C42 1.266 . S
O62 Tb40 2.658 . S
O62 Tb41 2.325 . S
O62 C49 1.281 . S
O63 Tb40 2.409 . S
O63 C49 1.254 . S
O64 Tb40 2.378 . S
O64 C50 1.236 . S
O65 Tb41 2.341 . S
O65 C50 1.266 . S
O66 Tb41 2.484 . S
O66 C51 1.248 . S
O67 Tb41 2.440 . S
O67 C51 1.266 . S
O68 Tb40 2.325 . S
O68 Tb41 2.658 . S
O68 C58 1.281 . S
O69 Tb41 2.409 . S
O69 C58 1.254 . S
O70 Tb41 2.378 . S
O70 C59 1.236 . S
O71 Tb40 2.341 . S
O71 C59 1.266 . S
H72 C44 0.929 . S
H73 C45 0.931 . S
H74 C47 0.930 . S
H75 C48 0.930 . S
H76 C53 0.929 . S
H77 C54 0.931 . S
H78 C56 0.930 . S
H79 C57 0.930 . S
Tb80 C82 2.809 1_556 S
Tb80 O100 2.484 . S
Tb80 O101 2.440 . S
Tb80 O102 2.658 . S
Tb80 O103 2.409 . S
Tb80 O104 2.378 . S
Tb80 O108 2.325 . S
Tb80 O111 2.341 . S
Tb81 C91 2.809 . S
Tb81 O102 2.325 . S
Tb81 O105 2.341 . S
Tb81 O106 2.484 . S
Tb81 O107 2.440 . S
Tb81 O108 2.658 . S
Tb81 O109 2.409 . S
Tb81 O110 2.378 . S
C82 Tb80 2.809 1_554 S
C82 C83 1.514 . S
C82 O100 1.248 1_554 S
C82 O101 1.266 1_554 S
C83 C82 1.514 . S
C83 C84 1.359 . S
C83 C88 1.348 . S
C84 C83 1.359 . S
C84 C85 1.380 . S
C84 H112 0.929 . S
C85 C84 1.380 . S
C85 C86 1.347 . S
C85 H113 0.931 . S
C86 C85 1.347 . S
C86 C87 1.369 . S
C87 C86 1.369 . S
C87 C88 1.408 . S
C87 H114 0.930 . S
C88 C83 1.348 . S
C88 C87 1.408 . S
C88 H115 0.930 . S
C89 O102 1.281 . S
C89 O103 1.254 . S
C90 O104 1.236 . S
C90 O105 1.266 . S
C91 Tb81 2.809 . S
C91 C92 1.514 . S
C91 O106 1.248 . S
C91 O107 1.266 . S
C92 C91 1.514 . S
C92 C93 1.359 . S
C92 C97 1.348 . S
C93 C92 1.359 . S
C93 C94 1.380 . S
C93 H116 0.929 . S
C94 C93 1.380 . S
C94 C95 1.347 . S
C94 H117 0.931 . S
C95 C94 1.347 . S
C95 C96 1.369 . S
C96 C95 1.369 . S
C96 C97 1.408 . S
C96 H118 0.930 . S
C97 C92 1.348 . S
C97 C96 1.408 . S
C97 H119 0.930 . S
C98 O108 1.281 . S
C98 O109 1.254 . S
C99 O110 1.236 . S
C99 O111 1.266 . S
O100 Tb80 2.484 . S
O100 C82 1.248 1_556 S
O101 Tb80 2.440 . S
O101 C82 1.266 1_556 S
O102 Tb80 2.658 . S
O102 Tb81 2.325 . S
O102 C89 1.281 . S
O103 Tb80 2.409 . S
O103 C89 1.254 . S
O104 Tb80 2.378 . S
O104 C90 1.236 . S
O105 Tb81 2.341 . S
O105 C90 1.266 . S
O106 Tb81 2.484 . S
O106 C91 1.248 . S
O107 Tb81 2.440 . S
O107 C91 1.266 . S
O108 Tb80 2.325 . S
O108 Tb81 2.658 . S
O108 C98 1.281 . S
O109 Tb81 2.409 . S
O109 C98 1.254 . S
O110 Tb81 2.378 . S
O110 C99 1.236 . S
O111 Tb80 2.341 . S
O111 C99 1.266 . S
H112 C84 0.929 . S
H113 C85 0.931 . S
H114 C87 0.930 . S
H115 C88 0.930 . S
H116 C93 0.929 . S
H117 C94 0.931 . S
H118 C96 0.930 . S
H119 C97 0.930 . S
Tb120 C122 2.809 . S
Tb120 O140 2.484 . S
Tb120 O141 2.440 . S
Tb120 O142 2.658 . S
Tb120 O143 2.409 . S
Tb120 O144 2.378 . S
Tb120 O148 2.325 . S
Tb120 O151 2.341 . S
Tb121 C131 2.809 . S
Tb121 O142 2.325 . S
Tb121 O145 2.341 . S
Tb121 O146 2.484 . S
Tb121 O147 2.440 . S
Tb121 O148 2.658 . S
Tb121 O149 2.409 . S
Tb121 O150 2.378 . S
C122 Tb120 2.809 . S
C122 C123 1.514 . S
C122 O140 1.248 . S
C122 O141 1.266 . S
C123 C122 1.514 . S
C123 C124 1.359 . S
C123 C128 1.348 . S
C124 C123 1.359 . S
C124 C125 1.380 . S
C124 H152 0.929 . S
C125 C124 1.380 . S
C125 C126 1.347 . S
C125 H153 0.931 . S
C126 C125 1.347 . S
C126 C127 1.369 . S
C127 C126 1.369 . S
C127 C128 1.408 . S
C127 H154 0.930 . S
C128 C123 1.348 . S
C128 C127 1.408 . S
C128 H155 0.930 . S
C129 O142 1.281 . S
C129 O143 1.254 . S
C130 O144 1.236 . S
C130 O145 1.266 . S
C131 Tb121 2.809 . S
C131 C132 1.514 . S
C131 O146 1.248 . S
C131 O147 1.266 . S
C132 C131 1.514 . S
C132 C133 1.359 . S
C132 C137 1.348 . S
C133 C132 1.359 . S
C133 C134 1.380 . S
C133 H156 0.929 . S
C134 C133 1.380 . S
C134 C135 1.347 . S
C134 H157 0.931 . S
C135 C134 1.347 . S
C135 C136 1.369 . S
C136 C135 1.369 . S
C136 C137 1.408 . S
C136 H158 0.930 . S
C137 C132 1.348 . S
C137 C136 1.408 . S
C137 H159 0.930 . S
C138 O148 1.281 . S
C138 O149 1.254 . S
C139 O150 1.236 . S
C139 O151 1.266 . S
O140 Tb120 2.484 . S
O140 C122 1.248 . S
O141 Tb120 2.440 . S
O141 C122 1.266 . S
O142 Tb120 2.658 . S
O142 Tb121 2.325 . S
O142 C129 1.281 . S
O143 Tb120 2.409 . S
O143 C129 1.254 . S
O144 Tb120 2.378 . S
O144 C130 1.236 . S
O145 Tb121 2.341 . S
O145 C130 1.266 . S
O146 Tb121 2.484 . S
O146 C131 1.248 . S
O147 Tb121 2.440 . S
O147 C131 1.266 . S
O148 Tb120 2.325 . S
O148 Tb121 2.658 . S
O148 C138 1.281 . S
O149 Tb121 2.409 . S
O149 C138 1.254 . S
O150 Tb121 2.378 . S
O150 C139 1.236 . S
O151 Tb120 2.341 . S
O151 C139 1.266 . S
H152 C124 0.929 . S
H153 C125 0.931 . S
H154 C127 0.930 . S
H155 C128 0.930 . S
H156 C133 0.929 . S
H157 C134 0.931 . S
H158 C136 0.930 . S
H159 C137 0.930 . S
Tb160 C162 2.809 . S
Tb160 O180 2.484 . S
Tb160 O181 2.440 . S
Tb160 O182 2.658 . S
Tb160 O183 2.409 . S
Tb160 O184 2.378 . S
Tb160 O188 2.325 . S
Tb160 O191 2.341 . S
Tb161 C171 2.809 . S
Tb161 O182 2.325 . S
Tb161 O185 2.341 . S
Tb161 O186 2.484 . S
Tb161 O187 2.440 . S
Tb161 O188 2.658 . S
Tb161 O189 2.409 . S
Tb161 O190 2.378 . S
C162 Tb160 2.809 . S
C162 C163 1.514 . S
C162 O180 1.248 . S
C162 O181 1.266 . S
C163 C162 1.514 . S
C163 C164 1.359 . S
C163 C168 1.348 . S
C164 C163 1.359 . S
C164 C165 1.380 . S
C164 H192 0.929 . S
C165 C164 1.380 . S
C165 C166 1.347 . S
C165 H193 0.931 . S
C166 C165 1.347 . S
C166 C167 1.369 . S
C167 C166 1.369 . S
C167 C168 1.408 . S
C167 H194 0.930 . S
C168 C163 1.348 . S
C168 C167 1.408 . S
C168 H195 0.930 . S
C169 O182 1.281 . S
C169 O183 1.254 . S
C170 O184 1.236 . S
C170 O185 1.266 . S
C171 Tb161 2.809 . S
C171 C172 1.514 . S
C171 O186 1.248 . S
C171 O187 1.266 . S
C172 C171 1.514 . S
C172 C173 1.359 . S
C172 C177 1.348 . S
C173 C172 1.359 . S
C173 C174 1.380 . S
C173 H196 0.929 . S
C174 C173 1.380 . S
C174 C175 1.347 . S
C174 H197 0.931 . S
C175 C174 1.347 . S
C175 C176 1.369 . S
C176 C175 1.369 . S
C176 C177 1.408 . S
C176 H198 0.930 . S
C177 C172 1.348 . S
C177 C176 1.408 . S
C177 H199 0.930 . S
C178 O188 1.281 . S
C178 O189 1.254 . S
C179 O190 1.236 . S
C179 O191 1.266 . S
O180 Tb160 2.484 . S
O180 C162 1.248 . S
O181 Tb160 2.440 . S
O181 C162 1.266 . S
O182 Tb160 2.658 . S
O182 Tb161 2.325 . S
O182 C169 1.281 . S
O183 Tb160 2.409 . S
O183 C169 1.254 . S
O184 Tb160 2.378 . S
O184 C170 1.236 . S
O185 Tb161 2.341 . S
O185 C170 1.266 . S
O186 Tb161 2.484 . S
O186 C171 1.248 . S
O187 Tb161 2.440 . S
O187 C171 1.266 . S
O188 Tb160 2.325 . S
O188 Tb161 2.658 . S
O188 C178 1.281 . S
O189 Tb161 2.409 . S
O189 C178 1.254 . S
O190 Tb161 2.378 . S
O190 C179 1.236 . S
O191 Tb160 2.341 . S
O191 C179 1.266 . S
H192 C164 0.929 . S
H193 C165 0.931 . S
H194 C167 0.930 . S
H195 C168 0.930 . S
H196 C173 0.929 . S
H197 C174 0.931 . S
H198 C176 0.930 . S
H199 C177 0.930 . S
Tb200 C202 2.809 1_556 S
Tb200 O220 2.484 . S
Tb200 O221 2.440 . S
Tb200 O222 2.658 . S
Tb200 O223 2.409 . S
Tb200 O224 2.378 . S
Tb200 O228 2.325 . S
Tb200 O231 2.341 . S
Tb201 C211 2.809 . S
Tb201 O222 2.325 . S
Tb201 O225 2.341 . S
Tb201 O226 2.484 . S
Tb201 O227 2.440 . S
Tb201 O228 2.658 . S
Tb201 O229 2.409 . S
Tb201 O230 2.378 . S
C202 Tb200 2.809 1_554 S
C202 C203 1.514 . S
C202 O220 1.248 1_554 S
C202 O221 1.266 1_554 S
C203 C202 1.514 . S
C203 C204 1.359 . S
C203 C208 1.348 . S
C204 C203 1.359 . S
C204 C205 1.380 . S
C204 H232 0.929 . S
C205 C204 1.380 . S
C205 C206 1.347 . S
C205 H233 0.931 . S
C206 C205 1.347 . S
C206 C207 1.369 . S
C207 C206 1.369 . S
C207 C208 1.408 . S
C207 H234 0.930 . S
C208 C203 1.348 . S
C208 C207 1.408 . S
C208 H235 0.930 . S
C209 O222 1.281 . S
C209 O223 1.254 . S
C210 O224 1.236 . S
C210 O225 1.266 . S
C211 Tb201 2.809 . S
C211 C212 1.514 . S
C211 O226 1.248 . S
C211 O227 1.266 . S
C212 C211 1.514 . S
C212 C213 1.359 . S
C212 C217 1.348 . S
C213 C212 1.359 . S
C213 C214 1.380 . S
C213 H236 0.929 . S
C214 C213 1.380 . S
C214 C215 1.347 . S
C214 H237 0.931 . S
C215 C214 1.347 . S
C215 C216 1.369 . S
C216 C215 1.369 . S
C216 C217 1.408 . S
C216 H238 0.930 . S
C217 C212 1.348 . S
C217 C216 1.408 . S
C217 H239 0.930 . S
C218 O228 1.281 . S
C218 O229 1.254 . S
C219 O230 1.236 . S
C219 O231 1.266 . S
O220 Tb200 2.484 . S
O220 C202 1.248 1_556 S
O221 Tb200 2.440 . S
O221 C202 1.266 1_556 S
O222 Tb200 2.658 . S
O222 Tb201 2.325 . S
O222 C209 1.281 . S
O223 Tb200 2.409 . S
O223 C209 1.254 . S
O224 Tb200 2.378 . S
O224 C210 1.236 . S
O225 Tb201 2.341 . S
O225 C210 1.266 . S
O226 Tb201 2.484 . S
O226 C211 1.248 . S
O227 Tb201 2.440 . S
O227 C211 1.266 . S
O228 Tb200 2.325 . S
O228 Tb201 2.658 . S
O228 C218 1.281 . S
O229 Tb201 2.409 . S
O229 C218 1.254 . S
O230 Tb201 2.378 . S
O230 C219 1.236 . S
O231 Tb200 2.341 . S
O231 C219 1.266 . S
H232 C204 0.929 . S
H233 C205 0.931 . S
H234 C207 0.930 . S
H235 C208 0.930 . S
H236 C213 0.929 . S
H237 C214 0.931 . S
H238 C216 0.930 . S
H239 C217 0.930 . S
Tb240 C242 2.809 . S
Tb240 O260 2.484 . S
Tb240 O261 2.440 . S
Tb240 O262 2.658 . S
Tb240 O263 2.409 . S
Tb240 O264 2.378 . S
Tb240 O268 2.325 . S
Tb240 O271 2.341 . S
Tb241 C251 2.809 . S
Tb241 O262 2.325 . S
Tb241 O265 2.341 . S
Tb241 O266 2.484 . S
Tb241 O267 2.440 . S
Tb241 O268 2.658 . S
Tb241 O269 2.409 . S
Tb241 O270 2.378 . S
C242 Tb240 2.809 . S
C242 C243 1.514 . S
C242 O260 1.248 . S
C242 O261 1.266 . S
C243 C242 1.514 . S
C243 C244 1.359 . S
C243 C248 1.348 . S
C244 C243 1.359 . S
C244 C245 1.380 . S
C244 H272 0.929 . S
C245 C244 1.380 . S
C245 C246 1.347 . S
C245 H273 0.931 . S
C246 C245 1.347 . S
C246 C247 1.369 . S
C247 C246 1.369 . S
C247 C248 1.408 . S
C247 H274 0.930 . S
C248 C243 1.348 . S
C248 C247 1.408 . S
C248 H275 0.930 . S
C249 O262 1.281 . S
C249 O263 1.254 . S
C250 O264 1.236 . S
C250 O265 1.266 . S
C251 Tb241 2.809 . S
C251 C252 1.514 . S
C251 O266 1.248 . S
C251 O267 1.266 . S
C252 C251 1.514 . S
C252 C253 1.359 . S
C252 C257 1.348 . S
C253 C252 1.359 . S
C253 C254 1.380 . S
C253 H276 0.929 . S
C254 C253 1.380 . S
C254 C255 1.347 . S
C254 H277 0.931 . S
C255 C254 1.347 . S
C255 C256 1.369 . S
C256 C255 1.369 . S
C256 C257 1.408 . S
C256 H278 0.930 . S
C257 C252 1.348 . S
C257 C256 1.408 . S
C257 H279 0.930 . S
C258 O268 1.281 . S
C258 O269 1.254 . S
C259 O270 1.236 . S
C259 O271 1.266 . S
O260 Tb240 2.484 . S
O260 C242 1.248 . S
O261 Tb240 2.440 . S
O261 C242 1.266 . S
O262 Tb240 2.658 . S
O262 Tb241 2.325 . S
O262 C249 1.281 . S
O263 Tb240 2.409 . S
O263 C249 1.254 . S
O264 Tb240 2.378 . S
O264 C250 1.236 . S
O265 Tb241 2.341 . S
O265 C250 1.266 . S
O266 Tb241 2.484 . S
O266 C251 1.248 . S
O267 Tb241 2.440 . S
O267 C251 1.266 . S
O268 Tb240 2.325 . S
O268 Tb241 2.658 . S
O268 C258 1.281 . S
O269 Tb241 2.409 . S
O269 C258 1.254 . S
O270 Tb241 2.378 . S
O270 C259 1.236 . S
O271 Tb240 2.341 . S
O271 C259 1.266 . S
H272 C244 0.929 . S
H273 C245 0.931 . S
H274 C247 0.930 . S
H275 C248 0.930 . S
H276 C253 0.929 . S
H277 C254 0.931 . S
H278 C256 0.930 . S
H279 C257 0.930 . S
Tb280 C282 2.809 . S
Tb280 O300 2.484 . S
Tb280 O301 2.440 . S
Tb280 O302 2.658 . S
Tb280 O303 2.409 . S
Tb280 O304 2.378 . S
Tb280 O308 2.325 . S
Tb280 O311 2.341 . S
Tb281 C291 2.809 . S
Tb281 O302 2.325 . S
Tb281 O305 2.341 . S
Tb281 O306 2.484 . S
Tb281 O307 2.440 . S
Tb281 O308 2.658 . S
Tb281 O309 2.409 . S
Tb281 O310 2.378 . S
C282 Tb280 2.809 . S
C282 C283 1.514 . S
C282 O300 1.248 . S
C282 O301 1.266 . S
C283 C282 1.514 . S
C283 C284 1.359 . S
C283 C288 1.348 . S
C284 C283 1.359 . S
C284 C285 1.380 . S
C284 H312 0.929 . S
C285 C284 1.380 . S
C285 C286 1.347 . S
C285 H313 0.931 . S
C286 C285 1.347 . S
C286 C287 1.369 . S
C287 C286 1.369 . S
C287 C288 1.408 . S
C287 H314 0.930 . S
C288 C283 1.348 . S
C288 C287 1.408 . S
C288 H315 0.930 . S
C289 O302 1.281 . S
C289 O303 1.254 . S
C290 O304 1.236 . S
C290 O305 1.266 . S
C291 Tb281 2.809 . S
C291 C292 1.514 . S
C291 O306 1.248 . S
C291 O307 1.266 . S
C292 C291 1.514 . S
C292 C293 1.359 . S
C292 C297 1.348 . S
C293 C292 1.359 . S
C293 C294 1.380 . S
C293 H316 0.929 . S
C294 C293 1.380 . S
C294 C295 1.347 . S
C294 H317 0.931 . S
C295 C294 1.347 . S
C295 C296 1.369 . S
C296 C295 1.369 . S
C296 C297 1.408 . S
C296 H318 0.930 . S
C297 C292 1.348 . S
C297 C296 1.408 . S
C297 H319 0.930 . S
C298 O308 1.281 . S
C298 O309 1.254 . S
C299 O310 1.236 . S
C299 O311 1.266 . S
O300 Tb280 2.484 . S
O300 C282 1.248 . S
O301 Tb280 2.440 . S
O301 C282 1.266 . S
O302 Tb280 2.658 . S
O302 Tb281 2.325 . S
O302 C289 1.281 . S
O303 Tb280 2.409 . S
O303 C289 1.254 . S
O304 Tb280 2.378 . S
O304 C290 1.236 . S
O305 Tb281 2.341 . S
O305 C290 1.266 . S
O306 Tb281 2.484 . S
O306 C291 1.248 . S
O307 Tb281 2.440 . S
O307 C291 1.266 . S
O308 Tb280 2.325 . S
O308 Tb281 2.658 . S
O308 C298 1.281 . S
O309 Tb281 2.409 . S
O309 C298 1.254 . S
O310 Tb281 2.378 . S
O310 C299 1.236 . S
O311 Tb280 2.341 . S
O311 C299 1.266 . S
H312 C284 0.929 . S
H313 C285 0.931 . S
H314 C287 0.930 . S
H315 C288 0.930 . S
H316 C293 0.929 . S
H317 C294 0.931 . S
H318 C296 0.930 . S
H319 C297 0.930 . S
Tb320 C322 2.809 1_554 S
Tb320 O340 2.484 . S
Tb320 O341 2.440 . S
Tb320 O342 2.658 . S
Tb320 O343 2.409 . S
Tb320 O344 2.378 . S
Tb320 O348 2.325 . S
Tb320 O351 2.341 . S
Tb321 C331 2.809 . S
Tb321 O342 2.325 . S
Tb321 O345 2.341 . S
Tb321 O346 2.484 . S
Tb321 O347 2.440 . S
Tb321 O348 2.658 . S
Tb321 O349 2.409 . S
Tb321 O350 2.378 . S
C322 Tb320 2.809 1_556 S
C322 C323 1.514 . S
C322 O340 1.248 1_556 S
C322 O341 1.266 1_556 S
C323 C322 1.514 . S
C323 C324 1.359 . S
C323 C328 1.348 . S
C324 C323 1.359 . S
C324 C325 1.380 . S
C324 H352 0.929 . S
C325 C324 1.380 . S
C325 C326 1.347 . S
C325 H353 0.931 . S
C326 C325 1.347 . S
C326 C327 1.369 . S
C327 C326 1.369 . S
C327 C328 1.408 . S
C327 H354 0.930 . S
C328 C323 1.348 . S
C328 C327 1.408 . S
C328 H355 0.930 . S
C329 O342 1.281 . S
C329 O343 1.254 . S
C330 O344 1.236 . S
C330 O345 1.266 . S
C331 Tb321 2.809 . S
C331 C332 1.514 . S
C331 O346 1.248 . S
C331 O347 1.266 . S
C332 C331 1.514 . S
C332 C333 1.359 . S
C332 C337 1.348 . S
C333 C332 1.359 . S
C333 C334 1.380 . S
C333 H356 0.929 . S
C334 C333 1.380 . S
C334 C335 1.347 . S
C334 H357 0.931 . S
C335 C334 1.347 . S
C335 C336 1.369 . S
C336 C335 1.369 . S
C336 C337 1.408 . S
C336 H358 0.930 . S
C337 C332 1.348 . S
C337 C336 1.408 . S
C337 H359 0.930 . S
C338 O348 1.281 . S
C338 O349 1.254 . S
C339 O350 1.236 . S
C339 O351 1.266 . S
O340 Tb320 2.484 . S
O340 C322 1.248 1_554 S
O341 Tb320 2.440 . S
O341 C322 1.266 1_554 S
O342 Tb320 2.658 . S
O342 Tb321 2.325 . S
O342 C329 1.281 . S
O343 Tb320 2.409 . S
O343 C329 1.254 . S
O344 Tb320 2.378 . S
O344 C330 1.236 . S
O345 Tb321 2.341 . S
O345 C330 1.266 . S
O346 Tb321 2.484 . S
O346 C331 1.248 . S
O347 Tb321 2.440 . S
O347 C331 1.266 . S
O348 Tb320 2.325 . S
O348 Tb321 2.658 . S
O348 C338 1.281 . S
O349 Tb321 2.409 . S
O349 C338 1.254 . S
O350 Tb321 2.378 . S
O350 C339 1.236 . S
O351 Tb320 2.341 . S
O351 C339 1.266 . S
H352 C324 0.929 . S
H353 C325 0.931 . S
H354 C327 0.930 . S
H355 C328 0.930 . S
H356 C333 0.929 . S
H357 C334 0.931 . S
H358 C336 0.930 . S
H359 C337 0.930 . S
Tb360 C362 2.809 . S
Tb360 O380 2.484 . S
Tb360 O381 2.440 . S
Tb360 O382 2.658 . S
Tb360 O383 2.409 . S
Tb360 O384 2.378 . S
Tb360 O388 2.325 . S
Tb360 O391 2.341 . S
Tb361 C371 2.809 . S
Tb361 O382 2.325 . S
Tb361 O385 2.341 . S
Tb361 O386 2.484 . S
Tb361 O387 2.440 . S
Tb361 O388 2.658 . S
Tb361 O389 2.409 . S
Tb361 O390 2.378 . S
C362 Tb360 2.809 . S
C362 C363 1.514 . S
C362 O380 1.248 . S
C362 O381 1.266 . S
C363 C362 1.514 . S
C363 C364 1.359 . S
C363 C368 1.348 . S
C364 C363 1.359 . S
C364 C365 1.380 . S
C364 H392 0.929 . S
C365 C364 1.380 . S
C365 C366 1.347 . S
C365 H393 0.931 . S
C366 C365 1.347 . S
C366 C367 1.369 . S
C367 C366 1.369 . S
C367 C368 1.408 . S
C367 H394 0.930 . S
C368 C363 1.348 . S
C368 C367 1.408 . S
C368 H395 0.930 . S
C369 O382 1.281 . S
C369 O383 1.254 . S
C370 O384 1.236 . S
C370 O385 1.266 . S
C371 Tb361 2.809 . S
C371 C372 1.514 . S
C371 O386 1.248 . S
C371 O387 1.266 . S
C372 C371 1.514 . S
C372 C373 1.359 . S
C372 C377 1.348 . S
C373 C372 1.359 . S
C373 C374 1.380 . S
C373 H396 0.929 . S
C374 C373 1.380 . S
C374 C375 1.347 . S
C374 H397 0.931 . S
C375 C374 1.347 . S
C375 C376 1.369 . S
C376 C375 1.369 . S
C376 C377 1.408 . S
C376 H398 0.930 . S
C377 C372 1.348 . S
C377 C376 1.408 . S
C377 H399 0.930 . S
C378 O388 1.281 . S
C378 O389 1.254 . S
C379 O390 1.236 . S
C379 O391 1.266 . S
O380 Tb360 2.484 . S
O380 C362 1.248 . S
O381 Tb360 2.440 . S
O381 C362 1.266 . S
O382 Tb360 2.658 . S
O382 Tb361 2.325 . S
O382 C369 1.281 . S
O383 Tb360 2.409 . S
O383 C369 1.254 . S
O384 Tb360 2.378 . S
O384 C370 1.236 . S
O385 Tb361 2.341 . S
O385 C370 1.266 . S
O386 Tb361 2.484 . S
O386 C371 1.248 . S
O387 Tb361 2.440 . S
O387 C371 1.266 . S
O388 Tb360 2.325 . S
O388 Tb361 2.658 . S
O388 C378 1.281 . S
O389 Tb361 2.409 . S
O389 C378 1.254 . S
O390 Tb361 2.378 . S
O390 C379 1.236 . S
O391 Tb360 2.341 . S
O391 C379 1.266 . S
H392 C364 0.929 . S
H393 C365 0.931 . S
H394 C367 0.930 . S
H395 C368 0.930 . S
H396 C373 0.929 . S
H397 C374 0.931 . S
H398 C376 0.930 . S
H399 C377 0.930 . S
Tb400 C402 2.809 . S
Tb400 O420 2.484 . S
Tb400 O421 2.440 . S
Tb400 O422 2.658 . S
Tb400 O423 2.409 . S
Tb400 O424 2.378 . S
Tb400 O428 2.325 . S
Tb400 O431 2.341 . S
Tb401 C411 2.809 . S
Tb401 O422 2.325 . S
Tb401 O425 2.341 . S
Tb401 O426 2.484 . S
Tb401 O427 2.440 . S
Tb401 O428 2.658 . S
Tb401 O429 2.409 . S
Tb401 O430 2.378 . S
C402 Tb400 2.809 . S
C402 C403 1.514 . S
C402 O420 1.248 . S
C402 O421 1.266 . S
C403 C402 1.514 . S
C403 C404 1.359 . S
C403 C408 1.348 . S
C404 C403 1.359 . S
C404 C405 1.380 . S
C404 H432 0.929 . S
C405 C404 1.380 . S
C405 C406 1.347 . S
C405 H433 0.931 . S
C406 C405 1.347 . S
C406 C407 1.369 . S
C407 C406 1.369 . S
C407 C408 1.408 . S
C407 H434 0.930 . S
C408 C403 1.348 . S
C408 C407 1.408 . S
C408 H435 0.930 . S
C409 O422 1.281 . S
C409 O423 1.254 . S
C410 O424 1.236 . S
C410 O425 1.266 . S
C411 Tb401 2.809 . S
C411 C412 1.514 . S
C411 O426 1.248 . S
C411 O427 1.266 . S
C412 C411 1.514 . S
C412 C413 1.359 . S
C412 C417 1.348 . S
C413 C412 1.359 . S
C413 C414 1.380 . S
C413 H436 0.929 . S
C414 C413 1.380 . S
C414 C415 1.347 . S
C414 H437 0.931 . S
C415 C414 1.347 . S
C415 C416 1.369 . S
C416 C415 1.369 . S
C416 C417 1.408 . S
C416 H438 0.930 . S
C417 C412 1.348 . S
C417 C416 1.408 . S
C417 H439 0.930 . S
C418 O428 1.281 . S
C418 O429 1.254 . S
C419 O430 1.236 . S
C419 O431 1.266 . S
O420 Tb400 2.484 . S
O420 C402 1.248 . S
O421 Tb400 2.440 . S
O421 C402 1.266 . S
O422 Tb400 2.658 . S
O422 Tb401 2.325 . S
O422 C409 1.281 . S
O423 Tb400 2.409 . S
O423 C409 1.254 . S
O424 Tb400 2.378 . S
O424 C410 1.236 . S
O425 Tb401 2.341 . S
O425 C410 1.266 . S
O426 Tb401 2.484 . S
O426 C411 1.248 . S
O427 Tb401 2.440 . S
O427 C411 1.266 . S
O428 Tb400 2.325 . S
O428 Tb401 2.658 . S
O428 C418 1.281 . S
O429 Tb401 2.409 . S
O429 C418 1.254 . S
O430 Tb401 2.378 . S
O430 C419 1.236 . S
O431 Tb400 2.341 . S
O431 C419 1.266 . S
H432 C404 0.929 . S
H433 C405 0.931 . S
H434 C407 0.930 . S
H435 C408 0.930 . S
H436 C413 0.929 . S
H437 C414 0.931 . S
H438 C416 0.930 . S
H439 C417 0.930 . S
Tb440 C442 2.809 1_554 S
Tb440 O460 2.484 . S
Tb440 O461 2.440 . S
Tb440 O462 2.658 . S
Tb440 O463 2.409 . S
Tb440 O464 2.378 . S
Tb440 O468 2.325 . S
Tb440 O471 2.341 . S
Tb441 C451 2.809 . S
Tb441 O462 2.325 . S
Tb441 O465 2.341 . S
Tb441 O466 2.484 . S
Tb441 O467 2.440 . S
Tb441 O468 2.658 . S
Tb441 O469 2.409 . S
Tb441 O470 2.378 . S
C442 Tb440 2.809 1_556 S
C442 C443 1.514 . S
C442 O460 1.248 1_556 S
C442 O461 1.266 1_556 S
C443 C442 1.514 . S
C443 C444 1.359 . S
C443 C448 1.348 . S
C444 C443 1.359 . S
C444 C445 1.380 . S
C444 H472 0.929 . S
C445 C444 1.380 . S
C445 C446 1.347 . S
C445 H473 0.931 . S
C446 C445 1.347 . S
C446 C447 1.369 . S
C447 C446 1.369 . S
C447 C448 1.408 . S
C447 H474 0.930 . S
C448 C443 1.348 . S
C448 C447 1.408 . S
C448 H475 0.930 . S
C449 O462 1.281 . S
C449 O463 1.254 . S
C450 O464 1.236 . S
C450 O465 1.266 . S
C451 Tb441 2.809 . S
C451 C452 1.514 . S
C451 O466 1.248 . S
C451 O467 1.266 . S
C452 C451 1.514 . S
C452 C453 1.359 . S
C452 C457 1.348 . S
C453 C452 1.359 . S
C453 C454 1.380 . S
C453 H476 0.929 . S
C454 C453 1.380 . S
C454 C455 1.347 . S
C454 H477 0.931 . S
C455 C454 1.347 . S
C455 C456 1.369 . S
C456 C455 1.369 . S
C456 C457 1.408 . S
C456 H478 0.930 . S
C457 C452 1.348 . S
C457 C456 1.408 . S
C457 H479 0.930 . S
C458 O468 1.281 . S
C458 O469 1.254 . S
C459 O470 1.236 . S
C459 O471 1.266 . S
O460 Tb440 2.484 . S
O460 C442 1.248 1_554 S
O461 Tb440 2.440 . S
O461 C442 1.266 1_554 S
O462 Tb440 2.658 . S
O462 Tb441 2.325 . S
O462 C449 1.281 . S
O463 Tb440 2.409 . S
O463 C449 1.254 . S
O464 Tb440 2.378 . S
O464 C450 1.236 . S
O465 Tb441 2.341 . S
O465 C450 1.266 . S
O466 Tb441 2.484 . S
O466 C451 1.248 . S
O467 Tb441 2.440 . S
O467 C451 1.266 . S
O468 Tb440 2.325 . S
O468 Tb441 2.658 . S
O468 C458 1.281 . S
O469 Tb441 2.409 . S
O469 C458 1.254 . S
O470 Tb441 2.378 . S
O470 C459 1.236 . S
O471 Tb440 2.341 . S
O471 C459 1.266 . S
H472 C444 0.929 . S
H473 C445 0.931 . S
H474 C447 0.930 . S
H475 C448 0.930 . S
H476 C453 0.929 . S
H477 C454 0.931 . S
H478 C456 0.930 . S
H479 C457 0.930 . S
H480 C486 0.930 . S
H481 C490 0.930 . S
H482 C495 0.929 . S
H483 C493 0.929 . S
H484 C488 0.929 . S
H485 C494 0.929 . S
C486 H480 0.930 . S
C486 C487 1.367 . S
C486 C494 1.378 . S
C487 C486 1.367 . S
C487 C495 1.433 . S
C488 H484 0.929 . S
C488 C490 1.378 . S
C488 C492 1.350 . S
C489 C492 1.463 . S
C489 C494 1.350 . S
C489 N497 1.427 . S
C490 H481 0.930 . S
C490 C488 1.378 . S
C490 C491 1.367 . S
C491 C490 1.367 . S
C491 C493 1.433 . S
C492 C488 1.350 . S
C492 C489 1.463 . S
C492 N496 1.427 . S
C493 H483 0.929 . S
C493 C491 1.433 . S
C493 N496 1.384 . S
C494 H485 0.929 . S
C494 C486 1.378 . S
C494 C489 1.350 . S
C495 H482 0.929 . S
C495 C487 1.433 . S
C495 N497 1.384 . S
N496 C492 1.427 . S
N496 C493 1.384 . S
N497 C489 1.427 . S
N497 C495 1.384 . S
H498 C504 0.930 . S
H499 C508 0.930 . S
H500 C513 0.929 . S
H501 C511 0.929 . S
H502 C506 0.929 . S
H503 C512 0.929 . S
C504 H498 0.930 . S
C504 C505 1.367 . S
C504 C512 1.378 . S
C505 C504 1.367 . S
C505 C513 1.433 . S
C506 H502 0.929 . S
C506 C508 1.378 . S
C506 C510 1.350 . S
C507 C510 1.463 . S
C507 C512 1.350 . S
C507 N515 1.427 . S
C508 H499 0.930 . S
C508 C506 1.378 . S
C508 C509 1.367 . S
C509 C508 1.367 . S
C509 C511 1.433 . S
C510 C506 1.350 . S
C510 C507 1.463 . S
C510 N514 1.427 . S
C511 H501 0.929 . S
C511 C509 1.433 . S
C511 N514 1.384 . S
C512 H503 0.929 . S
C512 C504 1.378 . S
C512 C507 1.350 . S
C513 H500 0.929 . S
C513 C505 1.433 . S
C513 N515 1.384 . S
N514 C510 1.427 . S
N514 C511 1.384 . S
N515 C507 1.427 . S
N515 C513 1.384 . S
H516 C522 0.930 . S
H517 C526 0.930 . S
H518 C531 0.929 . S
H519 C529 0.929 . S
H520 C524 0.929 . S
H521 C530 0.929 . S
C522 H516 0.930 . S
C522 C523 1.367 . S
C522 C530 1.378 . S
C523 C522 1.367 . S
C523 C531 1.433 . S
C524 H520 0.929 . S
C524 C526 1.378 . S
C524 C528 1.350 . S
C525 C528 1.463 . S
C525 C530 1.350 . S
C525 N533 1.427 . S
C526 H517 0.930 . S
C526 C524 1.378 . S
C526 C527 1.367 . S
C527 C526 1.367 . S
C527 C529 1.433 . S
C528 C524 1.350 . S
C528 C525 1.463 . S
C528 N532 1.427 . S
C529 H519 0.929 . S
C529 C527 1.433 . S
C529 N532 1.384 . S
C530 H521 0.929 . S
C530 C522 1.378 . S
C530 C525 1.350 . S
C531 H518 0.929 . S
C531 C523 1.433 . S
C531 N533 1.384 . S
N532 C528 1.427 . S
N532 C529 1.384 . S
N533 C525 1.427 . S
N533 C531 1.384 . S
H534 C540 0.930 . S
H535 C544 0.930 . S
H536 C549 0.929 . S
H537 C547 0.929 . S
H538 C542 0.929 . S
H539 C548 0.929 . S
C540 H534 0.930 . S
C540 C541 1.367 . S
C540 C548 1.378 . S
C541 C540 1.367 . S
C541 C549 1.433 . S
C542 H538 0.929 . S
C542 C544 1.378 . S
C542 C546 1.350 . S
C543 C546 1.463 . S
C543 C548 1.350 . S
C543 N551 1.427 . S
C544 H535 0.930 . S
C544 C542 1.378 . S
C544 C545 1.367 . S
C545 C544 1.367 . S
C545 C547 1.433 . S
C546 C542 1.350 . S
C546 C543 1.463 . S
C546 N550 1.427 . S
C547 H537 0.929 . S
C547 C545 1.433 . S
C547 N550 1.384 . S
C548 H539 0.929 . S
C548 C540 1.378 . S
C548 C543 1.350 . S
C549 H536 0.929 . S
C549 C541 1.433 . S
C549 N551 1.384 . S
N550 C546 1.427 . S
N550 C547 1.384 . S
N551 C543 1.427 . S
N551 C549 1.384 . S
H552 C558 0.930 . S
H553 C562 0.930 . S
H554 C567 0.929 . S
H555 C565 0.929 . S
H556 C560 0.929 . S
H557 C566 0.929 . S
C558 H552 0.930 . S
C558 C559 1.367 . S
C558 C566 1.378 . S
C559 C558 1.367 . S
C559 C567 1.433 . S
C560 H556 0.929 . S
C560 C562 1.378 . S
C560 C564 1.350 . S
C561 C564 1.463 . S
C561 C566 1.350 . S
C561 N569 1.427 . S
C562 H553 0.930 . S
C562 C560 1.378 . S
C562 C563 1.367 . S
C563 C562 1.367 . S
C563 C565 1.433 . S
C564 C560 1.350 . S
C564 C561 1.463 . S
C564 N568 1.427 . S
C565 H555 0.929 . S
C565 C563 1.433 . S
C565 N568 1.384 . S
C566 H557 0.929 . S
C566 C558 1.378 . S
C566 C561 1.350 . S
C567 H554 0.929 . S
C567 C559 1.433 . S
C567 N569 1.384 . S
N568 C564 1.427 . S
N568 C565 1.384 . S
N569 C561 1.427 . S
N569 C567 1.384 . S
H570 C576 0.930 . S
H571 C580 0.930 . S
H572 C585 0.929 . S
H573 C583 0.929 . S
H574 C578 0.929 . S
H575 C584 0.929 . S
C576 H570 0.930 . S
C576 C577 1.367 . S
C576 C584 1.378 . S
C577 C576 1.367 . S
C577 C585 1.433 . S
C578 H574 0.929 . S
C578 C580 1.378 . S
C578 C582 1.350 . S
C579 C582 1.463 . S
C579 C584 1.350 . S
C579 N587 1.427 . S
C580 H571 0.930 . S
C580 C578 1.378 . S
C580 C581 1.367 . S
C581 C580 1.367 . S
C581 C583 1.433 . S
C582 C578 1.350 . S
C582 C579 1.463 . S
C582 N586 1.427 . S
C583 H573 0.929 . S
C583 C581 1.433 . S
C583 N586 1.384 . S
C584 H575 0.929 . S
C584 C576 1.378 . S
C584 C579 1.350 . S
C585 H572 0.929 . S
C585 C577 1.433 . S
C585 N587 1.384 . S
N586 C582 1.427 . S
N586 C583 1.384 . S
N587 C579 1.427 . S
N587 C585 1.384 . S
H588 C594 0.930 . S
H589 C598 0.930 . S
H590 C603 0.929 . S
H591 C601 0.929 . S
H592 C596 0.929 1_556 S
H593 C602 0.929 1_554 S
C594 H588 0.930 . S
C594 C595 1.367 . S
C594 C602 1.378 . S
C595 C594 1.367 . S
C595 C603 1.433 . S
C596 H592 0.929 1_554 S
C596 C598 1.378 . S
C596 C600 1.350 . S
C597 C600 1.463 1_556 S
C597 C602 1.350 . S
C597 N605 1.427 . S
C598 H589 0.930 . S
C598 C596 1.378 . S
C598 C599 1.367 . S
C599 C598 1.367 . S
C599 C601 1.433 . S
C600 C596 1.350 . S
C600 C597 1.463 1_554 S
C600 N604 1.427 . S
C601 H591 0.929 . S
C601 C599 1.433 . S
C601 N604 1.384 . S
C602 H593 0.929 1_556 S
C602 C594 1.378 . S
C602 C597 1.350 . S
C603 H590 0.929 . S
C603 C595 1.433 . S
C603 N605 1.384 . S
N604 C600 1.427 . S
N604 C601 1.384 . S
N605 C597 1.427 . S
N605 C603 1.384 . S
H606 C612 0.930 . S
H607 C616 0.930 . S
H608 C621 0.929 . S
H609 C619 0.929 . S
H610 C614 0.929 . S
H611 C620 0.929 . S
C612 H606 0.930 . S
C612 C613 1.367 . S
C612 C620 1.378 . S
C613 C612 1.367 . S
C613 C621 1.433 . S
C614 H610 0.929 . S
C614 C616 1.378 . S
C614 C618 1.350 . S
C615 C618 1.463 . S
C615 C620 1.350 . S
C615 N623 1.427 . S
C616 H607 0.930 . S
C616 C614 1.378 . S
C616 C617 1.367 . S
C617 C616 1.367 . S
C617 C619 1.433 . S
C618 C614 1.350 . S
C618 C615 1.463 . S
C618 N622 1.427 . S
C619 H609 0.929 . S
C619 C617 1.433 . S
C619 N622 1.384 . S
C620 H611 0.929 . S
C620 C612 1.378 . S
C620 C615 1.350 . S
C621 H608 0.929 . S
C621 C613 1.433 . S
C621 N623 1.384 . S
N622 C618 1.427 . S
N622 C619 1.384 . S
N623 C615 1.427 . S
N623 C621 1.384 . S
H624 C630 0.930 . S
H625 C634 0.930 . S
H626 C639 0.929 . S
H627 C637 0.929 . S
H628 C632 0.929 . S
H629 C638 0.929 . S
C630 H624 0.930 . S
C630 C631 1.367 . S
C630 C638 1.378 . S
C631 C630 1.367 . S
C631 C639 1.433 . S
C632 H628 0.929 . S
C632 C634 1.378 . S
C632 C636 1.350 . S
C633 C636 1.463 . S
C633 C638 1.350 . S
C633 N641 1.427 . S
C634 H625 0.930 . S
C634 C632 1.378 . S
C634 C635 1.367 . S
C635 C634 1.367 . S
C635 C637 1.433 . S
C636 C632 1.350 . S
C636 C633 1.463 . S
C636 N640 1.427 . S
C637 H627 0.929 . S
C637 C635 1.433 . S
C637 N640 1.384 . S
C638 H629 0.929 . S
C638 C630 1.378 . S
C638 C633 1.350 . S
C639 H626 0.929 . S
C639 C631 1.433 . S
C639 N641 1.384 . S
N640 C636 1.427 . S
N640 C637 1.384 . S
N641 C633 1.427 . S
N641 C639 1.384 . S
H642 C648 0.930 . S
H643 C652 0.930 . S
H644 C657 0.929 . S
H645 C655 0.929 . S
H646 C650 0.929 . S
H647 C656 0.929 . S
C648 H642 0.930 . S
C648 C649 1.367 . S
C648 C656 1.378 . S
C649 C648 1.367 . S
C649 C657 1.433 . S
C650 H646 0.929 . S
C650 C652 1.378 . S
C650 C654 1.350 . S
C651 C654 1.463 1_556 S
C651 C656 1.350 . S
C651 N659 1.427 . S
C652 H643 0.930 . S
C652 C650 1.378 . S
C652 C653 1.367 . S
C653 C652 1.367 . S
C653 C655 1.433 . S
C654 C650 1.350 . S
C654 C651 1.463 1_554 S
C654 N658 1.427 . S
C655 H645 0.929 . S
C655 C653 1.433 . S
C655 N658 1.384 . S
C656 H647 0.929 . S
C656 C648 1.378 . S
C656 C651 1.350 . S
C657 H644 0.929 . S
C657 C649 1.433 . S
C657 N659 1.384 . S
N658 C654 1.427 . S
N658 C655 1.384 . S
N659 C651 1.427 . S
N659 C657 1.384 . S
H660 C666 0.930 . S
H661 C670 0.930 . S
H662 C675 0.929 . S
H663 C673 0.929 . S
H664 C668 0.929 . S
H665 C674 0.929 . S
C666 H660 0.930 . S
C666 C667 1.367 . S
C666 C674 1.378 . S
C667 C666 1.367 . S
C667 C675 1.433 . S
C668 H664 0.929 . S
C668 C670 1.378 . S
C668 C672 1.350 . S
C669 C672 1.463 . S
C669 C674 1.350 . S
C669 N677 1.427 . S
C670 H661 0.930 . S
C670 C668 1.378 . S
C670 C671 1.367 . S
C671 C670 1.367 . S
C671 C673 1.433 . S
C672 C668 1.350 . S
C672 C669 1.463 . S
C672 N676 1.427 . S
C673 H663 0.929 . S
C673 C671 1.433 . S
C673 N676 1.384 . S
C674 H665 0.929 . S
C674 C666 1.378 . S
C674 C669 1.350 . S
C675 H662 0.929 . S
C675 C667 1.433 . S
C675 N677 1.384 . S
N676 C672 1.427 . S
N676 C673 1.384 . S
N677 C669 1.427 . S
N677 C675 1.384 . S
H678 C684 0.930 . S
H679 C688 0.930 . S
H680 C693 0.929 . S
H681 C691 0.929 . S
H682 C686 0.929 . S
H683 C692 0.929 . S
C684 H678 0.930 . S
C684 C685 1.367 . S
C684 C692 1.378 . S
C685 C684 1.367 . S
C685 C693 1.433 . S
C686 H682 0.929 . S
C686 C688 1.378 . S
C686 C690 1.350 . S
C687 C690 1.463 . S
C687 C692 1.350 . S
C687 N695 1.427 . S
C688 H679 0.930 . S
C688 C686 1.378 . S
C688 C689 1.367 . S
C689 C688 1.367 . S
C689 C691 1.433 . S
C690 C686 1.350 . S
C690 C687 1.463 . S
C690 N694 1.427 . S
C691 H681 0.929 . S
C691 C689 1.433 . S
C691 N694 1.384 . S
C692 H683 0.929 . S
C692 C684 1.378 . S
C692 C687 1.350 . S
C693 H680 0.929 . S
C693 C685 1.433 . S
C693 N695 1.384 . S
N694 C690 1.427 . S
N694 C691 1.384 . S
N695 C687 1.427 . S
N695 C693 1.384 . S
H696 C702 0.930 1_545 S
H697 C706 0.930 1_565 S
H698 C711 0.929 . S
H699 C709 0.929 . S
H700 C704 0.929 . S
H701 C710 0.929 . S
C702 H696 0.930 1_565 S
C702 C703 1.367 . S
C702 C710 1.378 1_565 S
C703 C702 1.367 . S
C703 C711 1.433 . S
C704 H700 0.929 . S
C704 C706 1.378 1_565 S
C704 C708 1.350 1_565 S
C705 C708 1.463 1_566 S
C705 C710 1.350 1_565 S
C705 N713 1.427 . S
C706 H697 0.930 1_545 S
C706 C704 1.378 1_545 S
C706 C707 1.367 . S
C707 C706 1.367 . S
C707 C709 1.433 . S
C708 C704 1.350 1_545 S
C708 C705 1.463 1_544 S
C708 N712 1.427 . S
C709 H699 0.929 . S
C709 C707 1.433 . S
C709 N712 1.384 . S
C710 H701 0.929 . S
C710 C702 1.378 1_545 S
C710 C705 1.350 1_545 S
C711 H698 0.929 . S
C711 C703 1.433 . S
C711 N713 1.384 . S
N712 C708 1.427 . S
N712 C709 1.384 . S
N713 C705 1.427 . S
N713 C711 1.384 . S
H714 C720 0.930 . S
H715 C724 0.930 . S
H716 C729 0.929 . S
H717 C727 0.929 . S
H718 C722 0.929 . S
H719 C728 0.929 . S
C720 H714 0.930 . S
C720 C721 1.367 . S
C720 C728 1.378 . S
C721 C720 1.367 . S
C721 C729 1.433 . S
C722 H718 0.929 . S
C722 C724 1.378 . S
C722 C726 1.350 . S
C723 C726 1.463 . S
C723 C728 1.350 . S
C723 N731 1.427 . S
C724 H715 0.930 . S
C724 C722 1.378 . S
C724 C725 1.367 . S
C725 C724 1.367 . S
C725 C727 1.433 . S
C726 C722 1.350 . S
C726 C723 1.463 . S
C726 N730 1.427 . S
C727 H717 0.929 . S
C727 C725 1.433 . S
C727 N730 1.384 . S
C728 H719 0.929 . S
C728 C720 1.378 . S
C728 C723 1.350 . S
C729 H716 0.929 . S
C729 C721 1.433 . S
C729 N731 1.384 . S
N730 C726 1.427 . S
N730 C727 1.384 . S
N731 C723 1.427 . S
N731 C729 1.384 . S
H732 C738 0.930 . S
H733 C742 0.930 . S
H734 C747 0.929 1_655 S
H735 C745 0.929 1_455 S
H736 C740 0.929 . S
H737 C746 0.929 . S
C738 H732 0.930 . S
C738 C739 1.367 . S
C738 C746 1.378 . S
C739 C738 1.367 . S
C739 C747 1.433 . S
C740 H736 0.929 . S
C740 C742 1.378 . S
C740 C744 1.350 . S
C741 C744 1.463 1_455 S
C741 C746 1.350 . S
C741 N749 1.427 1_455 S
C742 H733 0.930 . S
C742 C740 1.378 . S
C742 C743 1.367 . S
C743 C742 1.367 . S
C743 C745 1.433 . S
C744 C740 1.350 . S
C744 C741 1.463 1_655 S
C744 N748 1.427 1_655 S
C745 H735 0.929 1_655 S
C745 C743 1.433 . S
C745 N748 1.384 1_655 S
C746 H737 0.929 . S
C746 C738 1.378 . S
C746 C741 1.350 . S
C747 H734 0.929 1_455 S
C747 C739 1.433 . S
C747 N749 1.384 1_455 S
N748 C744 1.427 1_455 S
N748 C745 1.384 1_455 S
N749 C741 1.427 1_655 S
N749 C747 1.384 1_655 S
H750 C756 0.930 . S
H751 C760 0.930 . S
H752 C765 0.929 . S
H753 C763 0.929 . S
H754 C758 0.929 . S
H755 C764 0.929 . S
C756 H750 0.930 . S
C756 C757 1.367 . S
C756 C764 1.378 . S
C757 C756 1.367 . S
C757 C765 1.433 . S
C758 H754 0.929 . S
C758 C760 1.378 . S
C758 C762 1.350 . S
C759 C762 1.463 1_564 S
C759 C764 1.350 . S
C759 N767 1.427 1_565 S
C760 H751 0.930 . S
C760 C758 1.378 . S
C760 C761 1.367 . S
C761 C760 1.367 . S
C761 C763 1.433 . S
C762 C758 1.350 . S
C762 C759 1.463 1_546 S
C762 N766 1.427 1_545 S
C763 H753 0.929 . S
C763 C761 1.433 . S
C763 N766 1.384 1_545 S
C764 H755 0.929 . S
C764 C756 1.378 . S
C764 C759 1.350 . S
C765 H752 0.929 . S
C765 C757 1.433 . S
C765 N767 1.384 1_565 S
N766 C762 1.427 1_565 S
N766 C763 1.384 1_565 S
N767 C759 1.427 1_545 S
N767 C765 1.384 1_545 S
H768 C774 0.930 . S
H769 C778 0.930 . S
H770 C783 0.929 . S
H771 C781 0.929 . S
H772 C776 0.929 . S
H773 C782 0.929 . S
C774 H768 0.930 . S
C774 C775 1.367 . S
C774 C782 1.378 . S
C775 C774 1.367 . S
C775 C783 1.433 . S
C776 H772 0.929 . S
C776 C778 1.378 . S
C776 C780 1.350 . S
C777 C780 1.463 . S
C777 C782 1.350 . S
C777 N785 1.427 . S
C778 H769 0.930 . S
C778 C776 1.378 . S
C778 C779 1.367 . S
C779 C778 1.367 . S
C779 C781 1.433 . S
C780 C776 1.350 . S
C780 C777 1.463 . S
C780 N784 1.427 . S
C781 H771 0.929 . S
C781 C779 1.433 . S
C781 N784 1.384 . S
C782 H773 0.929 . S
C782 C774 1.378 . S
C782 C777 1.350 . S
C783 H770 0.929 . S
C783 C775 1.433 . S
C783 N785 1.384 . S
N784 C780 1.427 . S
N784 C781 1.384 . S
N785 C777 1.427 . S
N785 C783 1.384 . S
H786 C792 0.930 . S
H787 C796 0.930 . S
H788 C801 0.929 1_655 S
H789 C799 0.929 1_455 S
H790 C794 0.929 . S
H791 C800 0.929 . S
C792 H786 0.930 . S
C792 C793 1.367 . S
C792 C800 1.378 . S
C793 C792 1.367 . S
C793 C801 1.433 . S
C794 H790 0.929 . S
C794 C796 1.378 . S
C794 C798 1.350 . S
C795 C798 1.463 1_455 S
C795 C800 1.350 . S
C795 N803 1.427 1_455 S
C796 H787 0.930 . S
C796 C794 1.378 . S
C796 C797 1.367 . S
C797 C796 1.367 . S
C797 C799 1.433 . S
C798 C794 1.350 . S
C798 C795 1.463 1_655 S
C798 N802 1.427 1_655 S
C799 H789 0.929 1_655 S
C799 C797 1.433 . S
C799 N802 1.384 1_655 S
C800 H791 0.929 . S
C800 C792 1.378 . S
C800 C795 1.350 . S
C801 H788 0.929 1_455 S
C801 C793 1.433 . S
C801 N803 1.384 1_455 S
N802 C798 1.427 1_455 S
N802 C799 1.384 1_455 S
N803 C795 1.427 1_655 S
N803 C801 1.384 1_655 S
H804 C810 0.930 . S
H805 C814 0.930 . S
H806 C819 0.929 . S
H807 C817 0.929 . S
H808 C812 0.929 . S
H809 C818 0.929 . S
C810 H804 0.930 . S
C810 C811 1.367 . S
C810 C818 1.378 . S
C811 C810 1.367 . S
C811 C819 1.433 . S
C812 H808 0.929 . S
C812 C814 1.378 . S
C812 C816 1.350 . S
C813 C816 1.463 1_545 S
C813 C818 1.350 . S
C813 N821 1.427 . S
C814 H805 0.930 . S
C814 C812 1.378 . S
C814 C815 1.367 . S
C815 C814 1.367 . S
C815 C817 1.433 . S
C816 C812 1.350 . S
C816 C813 1.463 1_565 S
C816 N820 1.427 . S
C817 H807 0.929 . S
C817 C815 1.433 . S
C817 N820 1.384 . S
C818 H809 0.929 . S
C818 C810 1.378 . S
C818 C813 1.350 . S
C819 H806 0.929 . S
C819 C811 1.433 . S
C819 N821 1.384 . S
N820 C816 1.427 . S
N820 C817 1.384 . S
N821 C813 1.427 . S
N821 C819 1.384 . S
H822 C828 0.930 . S
H823 C832 0.930 . S
H824 C837 0.929 . S
H825 C835 0.929 . S
H826 C830 0.929 . S
H827 C836 0.929 . S
C828 H822 0.930 . S
C828 C829 1.367 . S
C828 C836 1.378 . S
C829 C828 1.367 . S
C829 C837 1.433 . S
C830 H826 0.929 . S
C830 C832 1.378 . S
C830 C834 1.350 . S
C831 C834 1.463 . S
C831 C836 1.350 . S
C831 N839 1.427 . S
C832 H823 0.930 . S
C832 C830 1.378 . S
C832 C833 1.367 . S
C833 C832 1.367 . S
C833 C835 1.433 . S
C834 C830 1.350 . S
C834 C831 1.463 . S
C834 N838 1.427 . S
C835 H825 0.929 . S
C835 C833 1.433 . S
C835 N838 1.384 . S
C836 H827 0.929 . S
C836 C828 1.378 . S
C836 C831 1.350 . S
C837 H824 0.929 . S
C837 C829 1.433 . S
C837 N839 1.384 . S
N838 C834 1.427 . S
N838 C835 1.384 . S
N839 C831 1.427 . S
N839 C837 1.384 . S
H840 C846 0.930 . S
H841 C850 0.930 . S
H842 C855 0.929 . S
H843 C853 0.929 . S
H844 C848 0.929 . S
H845 C854 0.929 . S
C846 H840 0.930 . S
C846 C847 1.367 . S
C846 C854 1.378 . S
C847 C846 1.367 . S
C847 C855 1.433 . S
C848 H844 0.929 . S
C848 C850 1.378 . S
C848 C852 1.350 . S
C849 C852 1.463 1_655 S
C849 C854 1.350 . S
C849 N857 1.427 . S
C850 H841 0.930 . S
C850 C848 1.378 . S
C850 C851 1.367 . S
C851 C850 1.367 . S
C851 C853 1.433 . S
C852 C848 1.350 . S
C852 C849 1.463 1_455 S
C852 N856 1.427 . S
C853 H843 0.929 . S
C853 C851 1.433 . S
C853 N856 1.384 . S
C854 H845 0.929 . S
C854 C846 1.378 . S
C854 C849 1.350 . S
C855 H842 0.929 . S
C855 C847 1.433 . S
C855 N857 1.384 . S
N856 C852 1.427 . S
N856 C853 1.384 . S
N857 C849 1.427 . S
N857 C855 1.384 . S
H858 C864 0.930 . S
H859 C868 0.930 . S
H860 C873 0.929 . S
H861 C871 0.929 . S
H862 C866 0.929 . S
H863 C872 0.929 . S
C864 H858 0.930 . S
C864 C865 1.367 . S
C864 C872 1.378 . S
C865 C864 1.367 . S
C865 C873 1.433 . S
C866 H862 0.929 . S
C866 C868 1.378 . S
C866 C870 1.350 . S
C867 C870 1.463 1_455 S
C867 C872 1.350 . S
C867 N875 1.427 . S
C868 H859 0.930 . S
C868 C866 1.378 . S
C868 C869 1.367 . S
C869 C868 1.367 . S
C869 C871 1.433 . S
C870 C866 1.350 . S
C870 C867 1.463 1_655 S
C870 N874 1.427 . S
C871 H861 0.929 . S
C871 C869 1.433 . S
C871 N874 1.384 . S
C872 H863 0.929 . S
C872 C864 1.378 . S
C872 C867 1.350 . S
C873 H860 0.929 . S
C873 C865 1.433 . S
C873 N875 1.384 . S
N874 C870 1.427 . S
N874 C871 1.384 . S
N875 C867 1.427 . S
N875 C873 1.384 . S
H876 C882 0.930 . S
H877 C886 0.930 . S
H878 C891 0.929 . S
H879 C889 0.929 . S
H880 C884 0.929 . S
H881 C890 0.929 . S
C882 H876 0.930 . S
C882 C883 1.367 . S
C882 C890 1.378 . S
C883 C882 1.367 . S
C883 C891 1.433 . S
C884 H880 0.929 . S
C884 C886 1.378 . S
C884 C888 1.350 . S
C885 C888 1.463 1_565 S
C885 C890 1.350 . S
C885 N893 1.427 . S
C886 H877 0.930 . S
C886 C884 1.378 . S
C886 C887 1.367 . S
C887 C886 1.367 . S
C887 C889 1.433 . S
C888 C884 1.350 . S
C888 C885 1.463 1_545 S
C888 N892 1.427 . S
C889 H879 0.929 . S
C889 C887 1.433 . S
C889 N892 1.384 . S
C890 H881 0.929 . S
C890 C882 1.378 . S
C890 C885 1.350 . S
C891 H878 0.929 . S
C891 C883 1.433 . S
C891 N893 1.384 . S
N892 C888 1.427 . S
N892 C889 1.384 . S
N893 C885 1.427 . S
N893 C891 1.384 . S
H894 C900 0.930 . S
H895 C904 0.930 . S
H896 C909 0.929 . S
H897 C907 0.929 . S
H898 C902 0.929 . S
H899 C908 0.929 . S
C900 H894 0.930 . S
C900 C901 1.367 . S
C900 C908 1.378 . S
C901 C900 1.367 . S
C901 C909 1.433 . S
C902 H898 0.929 . S
C902 C904 1.378 . S
C902 C906 1.350 . S
C903 C906 1.463 . S
C903 C908 1.350 . S
C903 N911 1.427 . S
C904 H895 0.930 . S
C904 C902 1.378 . S
C904 C905 1.367 . S
C905 C904 1.367 . S
C905 C907 1.433 . S
C906 C902 1.350 . S
C906 C903 1.463 . S
C906 N910 1.427 . S
C907 H897 0.929 . S
C907 C905 1.433 . S
C907 N910 1.384 . S
C908 H899 0.929 . S
C908 C900 1.378 . S
C908 C903 1.350 . S
C909 H896 0.929 . S
C909 C901 1.433 . S
C909 N911 1.384 . S
N910 C906 1.427 . S
N910 C907 1.384 . S
N911 C903 1.427 . S
N911 C909 1.384 . S
H912 C918 0.930 . S
H913 C922 0.930 . S
H914 C927 0.929 . S
H915 C925 0.929 . S
H916 C920 0.929 . S
H917 C926 0.929 . S
C918 H912 0.930 . S
C918 C919 1.367 . S
C918 C926 1.378 . S
C919 C918 1.367 . S
C919 C927 1.433 . S
C920 H916 0.929 . S
C920 C922 1.378 . S
C920 C924 1.350 . S
C921 C924 1.463 1_565 S
C921 C926 1.350 . S
C921 N929 1.427 . S
C922 H913 0.930 . S
C922 C920 1.378 . S
C922 C923 1.367 . S
C923 C922 1.367 . S
C923 C925 1.433 . S
C924 C920 1.350 . S
C924 C921 1.463 1_545 S
C924 N928 1.427 . S
C925 H915 0.929 . S
C925 C923 1.433 . S
C925 N928 1.384 . S
C926 H917 0.929 . S
C926 C918 1.378 . S
C926 C921 1.350 . S
C927 H914 0.929 . S
C927 C919 1.433 . S
C927 N929 1.384 . S
N928 C924 1.427 . S
N928 C925 1.384 . S
N929 C921 1.427 . S
N929 C927 1.384 . S
H930 C936 0.930 . S
H931 C940 0.930 . S
H932 C945 0.929 . S
H933 C943 0.929 . S
H934 C938 0.929 . S
H935 C944 0.929 . S
C936 H930 0.930 . S
C936 C937 1.367 . S
C936 C944 1.378 . S
C937 C936 1.367 . S
C937 C945 1.433 . S
C938 H934 0.929 . S
C938 C940 1.378 . S
C938 C942 1.350 . S
C939 C942 1.463 . S
C939 C944 1.350 . S
C939 N947 1.427 . S
C940 H931 0.930 . S
C940 C938 1.378 . S
C940 C941 1.367 . S
C941 C940 1.367 . S
C941 C943 1.433 . S
C942 C938 1.350 . S
C942 C939 1.463 . S
C942 N946 1.427 . S
C943 H933 0.929 . S
C943 C941 1.433 . S
C943 N946 1.384 . S
C944 H935 0.929 . S
C944 C936 1.378 . S
C944 C939 1.350 . S
C945 H932 0.929 . S
C945 C937 1.433 . S
C945 N947 1.384 . S
N946 C942 1.427 . S
N946 C943 1.384 . S
N947 C939 1.427 . S
N947 C945 1.384 . S
H948 C954 0.930 . S
H949 C958 0.930 . S
H950 C963 0.929 . S
H951 C961 0.929 . S
H952 C956 0.929 . S
H953 C962 0.929 . S
C954 H948 0.930 . S
C954 C955 1.367 . S
C954 C962 1.378 . S
C955 C954 1.367 . S
C955 C963 1.433 . S
C956 H952 0.929 . S
C956 C958 1.378 . S
C956 C960 1.350 . S
C957 C960 1.463 1_655 S
C957 C962 1.350 . S
C957 N965 1.427 . S
C958 H949 0.930 . S
C958 C956 1.378 . S
C958 C959 1.367 . S
C959 C958 1.367 . S
C959 C961 1.433 . S
C960 C956 1.350 . S
C960 C957 1.463 1_455 S
C960 N964 1.427 . S
C961 H951 0.929 . S
C961 C959 1.433 . S
C961 N964 1.384 . S
C962 H953 0.929 . S
C962 C954 1.378 . S
C962 C957 1.350 . S
C963 H950 0.929 . S
C963 C955 1.433 . S
C963 N965 1.384 . S
N964 C960 1.427 . S
N964 C961 1.384 . S
N965 C957 1.427 . S
N965 C963 1.384 . S
H966 C972 0.930 . S
H967 C976 0.930 . S
H968 C981 0.929 . S
H969 C979 0.929 . S
H970 C974 0.929 1_545 S
H971 C980 0.929 1_565 S
C972 H966 0.930 . S
C972 C973 1.367 . S
C972 C980 1.378 . S
C973 C972 1.367 . S
C973 C981 1.433 . S
C974 H970 0.929 1_565 S
C974 C976 1.378 . S
C974 C978 1.350 . S
C975 C978 1.463 1_545 S
C975 C980 1.350 . S
C975 N983 1.427 . S
C976 H967 0.930 . S
C976 C974 1.378 . S
C976 C977 1.367 . S
C977 C976 1.367 . S
C977 C979 1.433 . S
C978 C974 1.350 . S
C978 C975 1.463 1_565 S
C978 N982 1.427 . S
C979 H969 0.929 . S
C979 C977 1.433 . S
C979 N982 1.384 . S
C980 H971 0.929 1_545 S
C980 C972 1.378 . S
C980 C975 1.350 . S
C981 H968 0.929 . S
C981 C973 1.433 . S
C981 N983 1.384 . S
N982 C978 1.427 . S
N982 C979 1.384 . S
N983 C975 1.427 . S
N983 C981 1.384 . S
H984 C990 0.930 . S
H985 C994 0.930 . S
H986 C999 0.929 . S
H987 C997 0.929 . S
H988 C992 0.929 . S
H989 C998 0.929 . S
C990 H984 0.930 . S
C990 C991 1.367 . S
C990 C998 1.378 . S
C991 C990 1.367 . S
C991 C999 1.433 . S
C992 H988 0.929 . S
C992 C994 1.378 . S
C992 C996 1.350 . S
C993 C996 1.463 . S
C993 C998 1.350 . S
C993 N1001 1.427 . S
C994 H985 0.930 . S
C994 C992 1.378 . S
C994 C995 1.367 . S
C995 C994 1.367 . S
C995 C997 1.433 . S
C996 C992 1.350 . S
C996 C993 1.463 . S
C996 N1000 1.427 . S
C997 H987 0.929 . S
C997 C995 1.433 . S
C997 N1000 1.384 . S
C998 H989 0.929 . S
C998 C990 1.378 . S
C998 C993 1.350 . S
C999 H986 0.929 . S
C999 C991 1.433 . S
C999 N1001 1.384 . S
N1000 C996 1.427 . S
N1000 C997 1.384 . S
N1001 C993 1.427 . S
N1001 C999 1.384 . S
H1002 C1008 0.930 . S
H1003 C1012 0.930 . S
H1004 C1017 0.929 . S
H1005 C1015 0.929 . S
H1006 C1010 0.929 1_455 S
H1007 C1016 0.929 1_655 S
C1008 H1002 0.930 . S
C1008 C1009 1.367 . S
C1008 C1016 1.378 . S
C1009 C1008 1.367 . S
C1009 C1017 1.433 . S
C1010 H1006 0.929 1_655 S
C1010 C1012 1.378 . S
C1010 C1014 1.350 . S
C1011 C1014 1.463 1_455 S
C1011 C1016 1.350 . S
C1011 N1019 1.427 . S
C1012 H1003 0.930 . S
C1012 C1010 1.378 . S
C1012 C1013 1.367 . S
C1013 C1012 1.367 . S
C1013 C1015 1.433 . S
C1014 C1010 1.350 . S
C1014 C1011 1.463 1_655 S
C1014 N1018 1.427 . S
C1015 H1005 0.929 . S
C1015 C1013 1.433 . S
C1015 N1018 1.384 . S
C1016 H1007 0.929 1_455 S
C1016 C1008 1.378 . S
C1016 C1011 1.350 . S
C1017 H1004 0.929 . S
C1017 C1009 1.433 . S
C1017 N1019 1.384 . S
N1018 C1014 1.427 . S
N1018 C1015 1.384 . S
N1019 C1011 1.427 . S
N1019 C1017 1.384 . S
H1020 C1026 0.930 . S
H1021 C1030 0.930 . S
H1022 C1035 0.929 . S
H1023 C1033 0.929 . S
H1024 C1028 0.929 . S
H1025 C1034 0.929 . S
C1026 H1020 0.930 . S
C1026 C1027 1.367 . S
C1026 C1034 1.378 . S
C1027 C1026 1.367 . S
C1027 C1035 1.433 . S
C1028 H1024 0.929 . S
C1028 C1030 1.378 . S
C1028 C1032 1.350 . S
C1029 C1032 1.463 . S
C1029 C1034 1.350 . S
C1029 N1037 1.427 . S
C1030 H1021 0.930 . S
C1030 C1028 1.378 . S
C1030 C1031 1.367 . S
C1031 C1030 1.367 . S
C1031 C1033 1.433 . S
C1032 C1028 1.350 . S
C1032 C1029 1.463 . S
C1032 N1036 1.427 . S
C1033 H1023 0.929 . S
C1033 C1031 1.433 . S
C1033 N1036 1.384 . S
C1034 H1025 0.929 . S
C1034 C1026 1.378 . S
C1034 C1029 1.350 . S
C1035 H1022 0.929 . S
C1035 C1027 1.433 . S
C1035 N1037 1.384 . S
N1036 C1032 1.427 . S
N1036 C1033 1.384 . S
N1037 C1029 1.427 . S
N1037 C1035 1.384 . S
H1038 C1044 0.930 . S
H1039 C1048 0.930 . S
H1040 C1053 0.929 . S
H1041 C1051 0.929 . S
H1042 C1046 0.929 . S
H1043 C1052 0.929 . S
C1044 H1038 0.930 . S
C1044 C1045 1.367 . S
C1044 C1052 1.378 . S
C1045 C1044 1.367 . S
C1045 C1053 1.433 . S
C1046 H1042 0.929 . S
C1046 C1048 1.378 . S
C1046 C1050 1.350 . S
C1047 C1050 1.463 . S
C1047 C1052 1.350 . S
C1047 N1055 1.427 . S
C1048 H1039 0.930 . S
C1048 C1046 1.378 . S
C1048 C1049 1.367 . S
C1049 C1048 1.367 . S
C1049 C1051 1.433 . S
C1050 C1046 1.350 . S
C1050 C1047 1.463 . S
C1050 N1054 1.427 . S
C1051 H1041 0.929 . S
C1051 C1049 1.433 . S
C1051 N1054 1.384 . S
C1052 H1043 0.929 . S
C1052 C1044 1.378 . S
C1052 C1047 1.350 . S
C1053 H1040 0.929 . S
C1053 C1045 1.433 . S
C1053 N1055 1.384 . S
N1054 C1050 1.427 . S
N1054 C1051 1.384 . S
N1055 C1047 1.427 . S
N1055 C1053 1.384 . S
H1056 C1062 0.930 . S
H1057 C1066 0.930 . S
H1058 C1071 0.929 . S
H1059 C1069 0.929 . S
H1060 C1064 0.929 . S
H1061 C1070 0.929 . S
C1062 H1056 0.930 . S
C1062 C1063 1.367 . S
C1062 C1070 1.378 . S
C1063 C1062 1.367 . S
C1063 C1071 1.433 . S
C1064 H1060 0.929 . S
C1064 C1066 1.378 . S
C1064 C1068 1.350 . S
C1065 C1068 1.463 . S
C1065 C1070 1.350 . S
C1065 N1073 1.427 . S
C1066 H1057 0.930 . S
C1066 C1064 1.378 . S
C1066 C1067 1.367 . S
C1067 C1066 1.367 . S
C1067 C1069 1.433 . S
C1068 C1064 1.350 . S
C1068 C1065 1.463 . S
C1068 N1072 1.427 . S
C1069 H1059 0.929 . S
C1069 C1067 1.433 . S
C1069 N1072 1.384 . S
C1070 H1061 0.929 . S
C1070 C1062 1.378 . S
C1070 C1065 1.350 . S
C1071 H1058 0.929 . S
C1071 C1063 1.433 . S
C1071 N1073 1.384 . S
N1072 C1068 1.427 . S
N1072 C1069 1.384 . S
N1073 C1065 1.427 . S
N1073 C1071 1.384 . S
H1074 C1080 0.930 . S
H1075 C1084 0.930 . S
H1076 C1089 0.929 . S
H1077 C1087 0.929 . S
H1078 C1082 0.929 . S
H1079 C1088 0.929 . S
C1080 H1074 0.930 . S
C1080 C1081 1.367 . S
C1080 C1088 1.378 . S
C1081 C1080 1.367 . S
C1081 C1089 1.433 . S
C1082 H1078 0.929 . S
C1082 C1084 1.378 . S
C1082 C1086 1.350 . S
C1083 C1086 1.463 . S
C1083 C1088 1.350 . S
C1083 N1091 1.427 . S
C1084 H1075 0.930 . S
C1084 C1082 1.378 . S
C1084 C1085 1.367 . S
C1085 C1084 1.367 . S
C1085 C1087 1.433 . S
C1086 C1082 1.350 . S
C1086 C1083 1.463 . S
C1086 N1090 1.427 . S
C1087 H1077 0.929 . S
C1087 C1085 1.433 . S
C1087 N1090 1.384 . S
C1088 H1079 0.929 . S
C1088 C1080 1.378 . S
C1088 C1083 1.350 . S
C1089 H1076 0.929 . S
C1089 C1081 1.433 . S
C1089 N1091 1.384 . S
N1090 C1086 1.427 . S
N1090 C1087 1.384 . S
N1091 C1083 1.427 . S
N1091 C1089 1.384 . S
H1092 C1098 0.930 . S
H1093 C1102 0.930 . S
H1094 C1107 0.929 . S
H1095 C1105 0.929 . S
H1096 C1100 0.929 . S
H1097 C1106 0.929 . S
C1098 H1092 0.930 . S
C1098 C1099 1.367 . S
C1098 C1106 1.378 . S
C1099 C1098 1.367 . S
C1099 C1107 1.433 . S
C1100 H1096 0.929 . S
C1100 C1102 1.378 . S
C1100 C1104 1.350 . S
C1101 C1104 1.463 . S
C1101 C1106 1.350 . S
C1101 N1109 1.427 . S
C1102 H1093 0.930 . S
C1102 C1100 1.378 . S
C1102 C1103 1.367 . S
C1103 C1102 1.367 . S
C1103 C1105 1.433 . S
C1104 C1100 1.350 . S
C1104 C1101 1.463 . S
C1104 N1108 1.427 . S
C1105 H1095 0.929 . S
C1105 C1103 1.433 . S
C1105 N1108 1.384 . S
C1106 H1097 0.929 . S
C1106 C1098 1.378 . S
C1106 C1101 1.350 . S
C1107 H1094 0.929 . S
C1107 C1099 1.433 . S
C1107 N1109 1.384 . S
N1108 C1104 1.427 . S
N1108 C1105 1.384 . S
N1109 C1101 1.427 . S
N1109 C1107 1.384 . S
H1110 C1116 0.930 . S
H1111 C1120 0.930 . S
H1112 C1125 0.929 . S
H1113 C1123 0.929 . S
H1114 C1118 0.929 . S
H1115 C1124 0.929 . S
C1116 H1110 0.930 . S
C1116 C1117 1.367 . S
C1116 C1124 1.378 . S
C1117 C1116 1.367 . S
C1117 C1125 1.433 . S
C1118 H1114 0.929 . S
C1118 C1120 1.378 . S
C1118 C1122 1.350 . S
C1119 C1122 1.463 . S
C1119 C1124 1.350 . S
C1119 N1127 1.427 . S
C1120 H1111 0.930 . S
C1120 C1118 1.378 . S
C1120 C1121 1.367 . S
C1121 C1120 1.367 . S
C1121 C1123 1.433 . S
C1122 C1118 1.350 . S
C1122 C1119 1.463 . S
C1122 N1126 1.427 . S
C1123 H1113 0.929 . S
C1123 C1121 1.433 . S
C1123 N1126 1.384 . S
C1124 H1115 0.929 . S
C1124 C1116 1.378 . S
C1124 C1119 1.350 . S
C1125 H1112 0.929 . S
C1125 C1117 1.433 . S
C1125 N1127 1.384 . S
N1126 C1122 1.427 . S
N1126 C1123 1.384 . S
N1127 C1119 1.427 . S
N1127 C1125 1.384 . S
C487 C9 1.091 . S
C491 C329 1.100 . S
C505 C49 1.099 . S
C509 C369 1.110 . S
C523 C89 1.111 . S
C527 C409 1.106 . S
C541 C449 1.108 . S
C545 C129 1.110 . S
C559 C169 1.106 . S
C563 C249 1.093 . S
C577 C289 1.091 . S
C581 C209 1.099 . S
C595 C415 1.566 . S
C599 C15 1.567 . S
C613 C455 1.567 . S
C617 C55 1.562 . S
C631 C95 1.567 . S
C635 C255 1.561 . S
C649 C295 1.561 . S
C653 C135 1.555 . S
C667 C335 1.566 . S
C671 C175 1.567 . S
C685 C215 1.557 . S
C689 C375 1.564 . S
C703 C299 4.259 . S
C707 C19 4.259 . S
C721 C339 4.262 . S
C725 C59 4.261 . S
C739 C379 4.262 . S
C743 C99 4.262 . S
C757 C139 4.262 . S
C761 C419 4.260 . S
C775 C179 4.262 . S
C779 C459 4.261 . S
C793 C219 4.262 . S
C797 C259 4.261 . S
C811 C18 0.498 . S
C815 C138 0.518 . S
C829 C58 0.509 . S
C833 C178 0.531 . S
C847 C98 0.497 . S
C851 C218 0.516 . S
C865 C378 0.537 . S
C869 C258 0.516 . S
C883 C298 0.512 . S
C887 C418 0.495 . S
C901 C458 0.541 . S
C905 C338 0.523 . S
C919 C286 0.707 . S
C923 C6 0.693 . S
C937 C326 0.669 . S
C941 C46 0.673 . S
C955 C86 0.671 . S
C959 C366 0.687 . S
C973 C406 0.668 . S
C977 C126 0.676 . S
C991 C446 0.670 . S
C995 C166 0.672 . S
C1009 C206 0.668 . S
C1013 C246 0.677 . S
C1027 C10 4.714 . S
C1031 C410 4.715 . S
C1045 C50 4.715 . S
C1049 C450 4.715 1_556 S
C1063 C90 4.714 1_554 S
C1067 C250 4.715 . S
C1081 C130 4.714 . S
C1085 C290 4.715 . S
C1099 C170 4.714 . S
C1103 C330 4.715 1_556 S
C1117 C370 4.715 . S
C1121 C210 4.714 1_554 S
