# Generated by pormake.
# Topology cbo, (4)-cn, num edge types: 1
# Building blocks:
#     Node 0, Type 0, BuildingBlock: GALJAG_clean_sbu_0, # of connection points: 4
#     Node 1, Type 0, BuildingBlock: GALJAG_clean_sbu_0, # of connection points: 4
#     Node 2, Type 0, BuildingBlock: GALJAG_clean_sbu_0, # of connection points: 4
#     Node 3, Type 0, BuildingBlock: GALJAG_clean_sbu_0, # of connection points: 4
#     Node 4, Type 0, BuildingBlock: GALJAG_clean_sbu_0, # of connection points: 4
#     Node 5, Type 0, BuildingBlock: GALJAG_clean_sbu_0, # of connection points: 4
#     Node 6, Type 0, BuildingBlock: GALJAG_clean_sbu_0, # of connection points: 4
#     Node 7, Type 0, BuildingBlock: GALJAG_clean_sbu_0, # of connection points: 4
#     Node 8, Type 0, BuildingBlock: GALJAG_clean_sbu_0, # of connection points: 4
#     Node 9, Type 0, BuildingBlock: GALJAG_clean_sbu_0, # of connection points: 4
#     Node 10, Type 0, BuildingBlock: GALJAG_clean_sbu_0, # of connection points: 4
#     Node 11, Type 0, BuildingBlock: GALJAG_clean_sbu_0, # of connection points: 4
#     Node 12, Type 0, BuildingBlock: GALJAG_clean_sbu_0, # of connection points: 4
#     Node 13, Type 0, BuildingBlock: GALJAG_clean_sbu_0, # of connection points: 4
#     Node 14, Type 0, BuildingBlock: GALJAG_clean_sbu_0, # of connection points: 4
#     Node 15, Type 0, BuildingBlock: GALJAG_clean_sbu_0, # of connection points: 4
#     Node 16, Type 0, BuildingBlock: GALJAG_clean_sbu_0, # of connection points: 4
#     Node 17, Type 0, BuildingBlock: GALJAG_clean_sbu_0, # of connection points: 4
#     Node 18, Type 0, BuildingBlock: GALJAG_clean_sbu_0, # of connection points: 4
#     Node 19, Type 0, BuildingBlock: GALJAG_clean_sbu_0, # of connection points: 4
#     Node 20, Type 0, BuildingBlock: GALJAG_clean_sbu_0, # of connection points: 4
#     Node 21, Type 0, BuildingBlock: GALJAG_clean_sbu_0, # of connection points: 4
#     Node 22, Type 0, BuildingBlock: GALJAG_clean_sbu_0, # of connection points: 4
#     Node 23, Type 0, BuildingBlock: GALJAG_clean_sbu_0, # of connection points: 4
#     Edge 24, Type (0, 0), BuildingBlock: AJUNOK_clean_linker_0, # of connection points: 2
#     Edge 25, Type (0, 0), BuildingBlock: AJUNOK_clean_linker_0, # of connection points: 2
#     Edge 26, Type (0, 0), BuildingBlock: AJUNOK_clean_linker_0, # of connection points: 2
#     Edge 27, Type (0, 0), BuildingBlock: AJUNOK_clean_linker_0, # of connection points: 2
#     Edge 28, Type (0, 0), BuildingBlock: AJUNOK_clean_linker_0, # of connection points: 2
#     Edge 29, Type (0, 0), BuildingBlock: AJUNOK_clean_linker_0, # of connection points: 2
#     Edge 30, Type (0, 0), BuildingBlock: AJUNOK_clean_linker_0, # of connection points: 2
#     Edge 31, Type (0, 0), BuildingBlock: AJUNOK_clean_linker_0, # of connection points: 2
#     Edge 32, Type (0, 0), BuildingBlock: AJUNOK_clean_linker_0, # of connection points: 2
#     Edge 33, Type (0, 0), BuildingBlock: AJUNOK_clean_linker_0, # of connection points: 2
#     Edge 34, Type (0, 0), BuildingBlock: AJUNOK_clean_linker_0, # of connection points: 2
#     Edge 35, Type (0, 0), BuildingBlock: AJUNOK_clean_linker_0, # of connection points: 2
#     Edge 36, Type (0, 0), BuildingBlock: AJUNOK_clean_linker_0, # of connection points: 2
#     Edge 37, Type (0, 0), BuildingBlock: AJUNOK_clean_linker_0, # of connection points: 2
#     Edge 38, Type (0, 0), BuildingBlock: AJUNOK_clean_linker_0, # of connection points: 2
#     Edge 39, Type (0, 0), BuildingBlock: AJUNOK_clean_linker_0, # of connection points: 2
#     Edge 40, Type (0, 0), BuildingBlock: AJUNOK_clean_linker_0, # of connection points: 2
#     Edge 41, Type (0, 0), BuildingBlock: AJUNOK_clean_linker_0, # of connection points: 2
#     Edge 42, Type (0, 0), BuildingBlock: AJUNOK_clean_linker_0, # of connection points: 2
#     Edge 43, Type (0, 0), BuildingBlock: AJUNOK_clean_linker_0, # of connection points: 2
#     Edge 44, Type (0, 0), BuildingBlock: AJUNOK_clean_linker_0, # of connection points: 2
#     Edge 45, Type (0, 0), BuildingBlock: AJUNOK_clean_linker_0, # of connection points: 2
#     Edge 46, Type (0, 0), BuildingBlock: AJUNOK_clean_linker_0, # of connection points: 2
#     Edge 47, Type (0, 0), BuildingBlock: AJUNOK_clean_linker_0, # of connection points: 2
#     Edge 48, Type (0, 0), BuildingBlock: AJUNOK_clean_linker_0, # of connection points: 2
#     Edge 49, Type (0, 0), BuildingBlock: AJUNOK_clean_linker_0, # of connection points: 2
#     Edge 50, Type (0, 0), BuildingBlock: AJUNOK_clean_linker_0, # of connection points: 2
#     Edge 51, Type (0, 0), BuildingBlock: AJUNOK_clean_linker_0, # of connection points: 2
#     Edge 52, Type (0, 0), BuildingBlock: AJUNOK_clean_linker_0, # of connection points: 2
#     Edge 53, Type (0, 0), BuildingBlock: AJUNOK_clean_linker_0, # of connection points: 2
#     Edge 54, Type (0, 0), BuildingBlock: AJUNOK_clean_linker_0, # of connection points: 2
#     Edge 55, Type (0, 0), BuildingBlock: AJUNOK_clean_linker_0, # of connection points: 2
#     Edge 56, Type (0, 0), BuildingBlock: AJUNOK_clean_linker_0, # of connection points: 2
#     Edge 57, Type (0, 0), BuildingBlock: AJUNOK_clean_linker_0, # of connection points: 2
#     Edge 58, Type (0, 0), BuildingBlock: AJUNOK_clean_linker_0, # of connection points: 2
#     Edge 59, Type (0, 0), BuildingBlock: AJUNOK_clean_linker_0, # of connection points: 2
#     Edge 60, Type (0, 0), BuildingBlock: AJUNOK_clean_linker_0, # of connection points: 2
#     Edge 61, Type (0, 0), BuildingBlock: AJUNOK_clean_linker_0, # of connection points: 2
#     Edge 62, Type (0, 0), BuildingBlock: AJUNOK_clean_linker_0, # of connection points: 2
#     Edge 63, Type (0, 0), BuildingBlock: AJUNOK_clean_linker_0, # of connection points: 2
#     Edge 64, Type (0, 0), BuildingBlock: AJUNOK_clean_linker_0, # of connection points: 2
#     Edge 65, Type (0, 0), BuildingBlock: AJUNOK_clean_linker_0, # of connection points: 2
#     Edge 66, Type (0, 0), BuildingBlock: AJUNOK_clean_linker_0, # of connection points: 2
#     Edge 67, Type (0, 0), BuildingBlock: AJUNOK_clean_linker_0, # of connection points: 2
#     Edge 68, Type (0, 0), BuildingBlock: AJUNOK_clean_linker_0, # of connection points: 2
#     Edge 69, Type (0, 0), BuildingBlock: AJUNOK_clean_linker_0, # of connection points: 2
#     Edge 70, Type (0, 0), BuildingBlock: AJUNOK_clean_linker_0, # of connection points: 2
#     Edge 71, Type (0, 0), BuildingBlock: AJUNOK_clean_linker_0, # of connection points: 2
# Relax obj value: 0.104
# Max RMSD: 0.141
# Mean RMSD: 0.141
data_MOF--net-cbo--node1-GALJAG_clean_sbu_0--edge1-AJUNOK_clean_linker_0
_symmetry_space_group_name_H-M    P1
_symmetry_Int_Tables_number       1
_symmetry_cell_setting            triclinic
loop_
_symmetry_equiv_pos_as_xyz
'x, y, z'
_cell_length_a     38.786156
_cell_length_b     38.79846
_cell_length_c     38.76122
_cell_angle_alpha  90.005566
_cell_angle_beta   89.936943
_cell_angle_gamma 90.071822
loop_
_atom_site_label
_atom_site_type_symbol
_atom_site_fract_x
_atom_site_fract_y
_atom_site_fract_z
_atom_type_partial_charge
In0 In 0.08004 0.15717 0.30581 0.0
O1 O 0.0366 0.11764 0.30165 0.0
O2 O 0.0244 0.1683 0.31916 0.0
C3 C 0.13607 0.12019 0.28706 0.0
C4 C 0.09304 0.16933 0.37266 0.0
C5 C 0.07721 0.20251 0.25303 0.0
O6 O 0.10574 0.10935 0.28221 0.0
O7 O 0.13783 0.14887 0.30212 0.0
O8 O 0.08525 0.21148 0.28328 0.0
O9 O 0.06998 0.17103 0.24983 0.0
C10 C 0.01377 0.13831 0.31232 0.0
O11 O 0.09805 0.1918 0.34958 0.0
O12 O 0.08181 0.14069 0.36196 0.0
In13 In 0.40898 0.84106 0.79887 0.0
O14 O 0.39133 0.80724 0.84334 0.0
O15 O 0.40795 0.85842 0.85485 0.0
C16 C 0.40735 0.79334 0.74812 0.0
C17 C 0.47586 0.85785 0.80488 0.0
C18 C 0.35435 0.88004 0.78022 0.0
O19 O 0.39918 0.78656 0.77888 0.0
O20 O 0.41737 0.82386 0.74331 0.0
O21 O 0.38482 0.88777 0.77169 0.0
O22 O 0.35192 0.85362 0.79888 0.0
C23 C 0.39671 0.82997 0.86607 0.0
O24 O 0.45367 0.87942 0.79474 0.0
O25 O 0.46436 0.82805 0.81102 0.0
In26 In 0.58009 0.32773 0.68802 0.0
O27 O 0.53976 0.36988 0.69272 0.0
O28 O 0.52355 0.32073 0.67419 0.0
C29 C 0.63211 0.36535 0.71544 0.0
C30 C 0.59378 0.31868 0.62061 0.0
C31 C 0.5797 0.27641 0.73543 0.0
O32 O 0.60106 0.36917 0.72414 0.0
O33 O 0.63674 0.3438 0.69161 0.0
O34 O 0.59667 0.2746 0.70772 0.0
O35 O 0.56164 0.30319 0.73819 0.0
C36 C 0.5153 0.35125 0.68201 0.0
O37 O 0.59351 0.29397 0.64185 0.0
O38 O 0.58702 0.34786 0.63335 0.0
In39 In 0.91576 0.6582 0.19143 0.0
O40 O 0.95894 0.61842 0.1977 0.0
O41 O 0.97127 0.66743 0.17629 0.0
C42 C 0.86128 0.62292 0.21626 0.0
C43 C 0.90062 0.66213 0.12394 0.0
C44 C 0.91321 0.70921 0.23881 0.0
O45 O 0.89197 0.61421 0.22299 0.0
O46 O 0.85847 0.64862 0.19661 0.0
O47 O 0.90123 0.7126 0.20875 0.0
O48 O 0.92795 0.6808 0.24419 0.0
C49 C 0.98174 0.63791 0.1849 0.0
O50 O 0.90933 0.68833 0.1413 0.0
O51 O 0.90005 0.63416 0.1406 0.0
In52 In 0.30189 0.07493 0.15691 0.0
O53 O 0.35156 0.07893 0.18894 0.0
O54 O 0.35407 0.08893 0.13512 0.0
C55 C 0.25326 0.07703 0.20659 0.0
C56 C 0.30279 0.00953 0.13383 0.0
C57 C 0.27821 0.13079 0.12306 0.0
O58 O 0.28422 0.08561 0.21218 0.0
O59 O 0.24738 0.06652 0.17635 0.0
O60 O 0.27286 0.10046 0.1124 0.0
O61 O 0.2958 0.13265 0.15032 0.0
C62 C 0.36995 0.08759 0.16341 0.0
O63 O 0.3028 0.03505 0.11364 0.0
O64 O 0.30255 0.01704 0.16547 0.0
In65 In 0.18487 0.9148 0.6531 0.0
O66 O 0.13655 0.908 0.68614 0.0
O67 O 0.13333 0.89662 0.63247 0.0
C68 C 0.23498 0.91828 0.7014 0.0
C69 C 0.17895 0.98005 0.63023 0.0
C70 C 0.20739 0.85838 0.61936 0.0
O71 O 0.20497 0.90756 0.70808 0.0
O72 O 0.23919 0.92813 0.67072 0.0
O73 O 0.20723 0.88788 0.60548 0.0
O74 O 0.19589 0.8576 0.64979 0.0
C75 C 0.11819 0.89759 0.6613 0.0
O76 O 0.19438 0.95711 0.61302 0.0
O77 O 0.16641 0.96988 0.65847 0.0
In78 In 0.80436 0.40654 0.84117 0.0
O79 O 0.7996 0.44897 0.88142 0.0
O80 O 0.81315 0.46318 0.83002 0.0
C81 C 0.78896 0.35039 0.87928 0.0
C82 C 0.87134 0.39615 0.82726 0.0
C83 C 0.74993 0.40536 0.7977 0.0
O84 O 0.78255 0.3806 0.88955 0.0
O85 O 0.80421 0.34883 0.85064 0.0
O86 O 0.78048 0.40105 0.78725 0.0
O87 O 0.74735 0.41115 0.82954 0.0
C88 C 0.80717 0.47282 0.86055 0.0
O89 O 0.84789 0.39029 0.8054 0.0
O90 O 0.86098 0.4073 0.85606 0.0
In91 In 0.68994 0.58243 0.34269 0.0
O92 O 0.68335 0.54123 0.38419 0.0
O93 O 0.69493 0.52501 0.33296 0.0
C94 C 0.70686 0.63848 0.38071 0.0
C95 C 0.62328 0.59142 0.32548 0.0
C96 C 0.74266 0.58395 0.29737 0.0
O97 O 0.71499 0.60828 0.38964 0.0
O98 O 0.68906 0.63999 0.35364 0.0
O99 O 0.71155 0.58637 0.28799 0.0
O100 O 0.74688 0.57994 0.32938 0.0
C101 C 0.68888 0.51643 0.36378 0.0
O102 O 0.64771 0.59997 0.30569 0.0
O103 O 0.63249 0.57815 0.35368 0.0
In104 In 0.15536 0.30223 0.07961 0.0
O105 O 0.11665 0.29782 0.0356 0.0
O106 O 0.16705 0.31697 0.02437 0.0
C107 C 0.11636 0.28128 0.1335 0.0
C108 C 0.16573 0.36931 0.09273 0.0
C109 C 0.2028 0.25124 0.07945 0.0
O110 O 0.10845 0.27454 0.10267 0.0
O111 O 0.14288 0.29969 0.13679 0.0
O112 O 0.20925 0.28101 0.09087 0.0
O113 O 0.17303 0.24778 0.06704 0.0
C114 C 0.1373 0.30973 0.01333 0.0
O115 O 0.18902 0.34698 0.09707 0.0
O116 O 0.13718 0.35776 0.08216 0.0
In117 In 0.65979 0.18245 0.91288 0.0
O118 O 0.62005 0.1909 0.95555 0.0
O119 O 0.66805 0.16763 0.96868 0.0
C120 C 0.62435 0.20193 0.85602 0.0
C121 C 0.66879 0.11511 0.90022 0.0
C122 C 0.70856 0.23209 0.91658 0.0
O123 O 0.61229 0.20547 0.88607 0.0
O124 O 0.65364 0.18804 0.85492 0.0
O125 O 0.71557 0.20126 0.90902 0.0
O126 O 0.6772 0.2375 0.9231 0.0
C127 C 0.63877 0.1777 0.97871 0.0
O128 O 0.69237 0.13705 0.89534 0.0
O129 O 0.64063 0.12715 0.9112 0.0
In130 In 0.83352 0.80839 0.41432 0.0
O131 O 0.80205 0.85786 0.40934 0.0
O132 O 0.85564 0.85955 0.3972 0.0
C133 C 0.78442 0.75904 0.41829 0.0
C134 C 0.85757 0.81291 0.47917 0.0
C135 C 0.86626 0.78607 0.3572 0.0
O136 O 0.77852 0.78843 0.40561 0.0
O137 O 0.81457 0.75517 0.4296 0.0
O138 O 0.88001 0.78458 0.38673 0.0
O139 O 0.83636 0.79876 0.35679 0.0
C140 C 0.82742 0.87562 0.39904 0.0
O141 O 0.87401 0.79752 0.45561 0.0
O142 O 0.82945 0.82624 0.4698 0.0
In143 In 0.33278 0.69038 0.5733 0.0
O144 O 0.37424 0.69962 0.5323 0.0
O145 O 0.32764 0.67473 0.51729 0.0
C146 C 0.36636 0.71344 0.62952 0.0
C147 C 0.32661 0.62265 0.58679 0.0
C148 C 0.28283 0.73895 0.57326 0.0
O149 O 0.37801 0.71801 0.59939 0.0
O150 O 0.33844 0.69685 0.63097 0.0
O151 O 0.27848 0.70948 0.58636 0.0
O152 O 0.31166 0.74314 0.55891 0.0
C153 C 0.35686 0.68595 0.50837 0.0
O154 O 0.30149 0.64059 0.5764 0.0
O155 O 0.35465 0.63889 0.59009 0.0
In156 In 0.91277 0.82749 0.69019 0.0
O157 O 0.95472 0.86854 0.69689 0.0
O158 O 0.96797 0.82101 0.6728 0.0
C159 C 0.85629 0.8605 0.7134 0.0
C160 C 0.89822 0.82163 0.6228 0.0
C161 C 0.91406 0.77832 0.73948 0.0
O162 O 0.88631 0.87245 0.71795 0.0
O163 O 0.85512 0.83256 0.69684 0.0
O164 O 0.90127 0.77316 0.70999 0.0
O165 O 0.92749 0.80764 0.74336 0.0
C166 C 0.97769 0.85051 0.68238 0.0
O167 O 0.90791 0.79615 0.64068 0.0
O168 O 0.89583 0.84976 0.63903 0.0
In169 In 0.57595 0.15783 0.18743 0.0
O170 O 0.58229 0.18898 0.13785 0.0
O171 O 0.59484 0.13548 0.13701 0.0
C172 C 0.57131 0.20765 0.23609 0.0
C173 C 0.51174 0.13273 0.17958 0.0
C174 C 0.63323 0.12583 0.20996 0.0
O175 O 0.58348 0.21329 0.2064 0.0
O176 O 0.56056 0.17734 0.2406 0.0
O177 O 0.60373 0.11216 0.21264 0.0
O178 O 0.63345 0.15528 0.19627 0.0
C179 C 0.59337 0.16357 0.12065 0.0
O180 O 0.53413 0.11719 0.19737 0.0
O181 O 0.5217 0.16075 0.16642 0.0
In182 In 0.41692 0.6575 0.29975 0.0
O183 O 0.45521 0.61304 0.30554 0.0
O184 O 0.4751 0.66384 0.30028 0.0
C185 C 0.36085 0.62462 0.27508 0.0
C186 C 0.40252 0.6683 0.36691 0.0
C187 C 0.41762 0.70547 0.24954 0.0
O188 O 0.39098 0.61277 0.27131 0.0
O189 O 0.35928 0.65254 0.29166 0.0
O190 O 0.40879 0.71242 0.28017 0.0
O191 O 0.42687 0.67466 0.24476 0.0
C192 C 0.48147 0.63223 0.30406 0.0
O193 O 0.41489 0.69178 0.34798 0.0
O194 O 0.39801 0.63979 0.35201 0.0
In195 In 0.08278 0.34693 0.80502 0.0
O196 O 0.04021 0.38752 0.81052 0.0
O197 O 0.02577 0.33487 0.80499 0.0
C198 C 0.13834 0.38298 0.78406 0.0
C199 C 0.09647 0.33511 0.87189 0.0
C200 C 0.08514 0.30147 0.75271 0.0
O201 O 0.10796 0.39307 0.77782 0.0
O202 O 0.14024 0.35535 0.80102 0.0
O203 O 0.09348 0.29333 0.78319 0.0
O204 O 0.07539 0.33225 0.74902 0.0
C205 C 0.01613 0.36566 0.8084 0.0
O206 O 0.08857 0.31098 0.85143 0.0
O207 O 0.09641 0.36483 0.85875 0.0
In208 In 0.68639 0.90622 0.83973 0.0
O209 O 0.63881 0.90467 0.80461 0.0
O210 O 0.63334 0.88984 0.85717 0.0
C211 C 0.73693 0.90223 0.79219 0.0
C212 C 0.68313 0.97164 0.86243 0.0
C213 C 0.70843 0.85132 0.87592 0.0
O214 O 0.70617 0.8936 0.78567 0.0
O215 O 0.74169 0.91372 0.82225 0.0
O216 O 0.71536 0.88186 0.88502 0.0
O217 O 0.69023 0.84888 0.84912 0.0
C218 C 0.61915 0.89362 0.8282 0.0
O219 O 0.68025 0.94622 0.88254 0.0
O220 O 0.68787 0.96401 0.83119 0.0
In221 In 0.80329 0.0829 0.3336 0.0
O222 O 0.85271 0.08835 0.30217 0.0
O223 O 0.85406 0.10147 0.35561 0.0
C224 C 0.75432 0.08248 0.2841 0.0
C225 C 0.81115 0.01781 0.35597 0.0
C226 C 0.77854 0.13795 0.36776 0.0
O227 O 0.78398 0.095 0.27924 0.0
O228 O 0.75018 0.0687 0.31323 0.0
O229 O 0.77376 0.10751 0.37845 0.0
O230 O 0.79628 0.1403 0.34059 0.0
C231 C 0.87024 0.09925 0.32741 0.0
O232 O 0.79734 0.04075 0.37453 0.0
O233 O 0.82033 0.02769 0.32637 0.0
In234 In 0.18964 0.57834 0.15152 0.0
O235 O 0.18233 0.538 0.10917 0.0
O236 O 0.18786 0.52067 0.16094 0.0
C237 C 0.21411 0.63203 0.11489 0.0
C238 C 0.12306 0.59399 0.16281 0.0
C239 C 0.2406 0.58106 0.19861 0.0
O240 O 0.22078 0.6012 0.10669 0.0
O241 O 0.19485 0.63537 0.14086 0.0
O242 O 0.21055 0.59198 0.205 0.0
O243 O 0.24431 0.56798 0.16907 0.0
C244 C 0.18351 0.51277 0.12971 0.0
O245 O 0.14216 0.58265 0.18668 0.0
O246 O 0.13738 0.59634 0.1337 0.0
In247 In 0.3082 0.41631 0.65743 0.0
O248 O 0.29866 0.45651 0.61528 0.0
O249 O 0.32717 0.47156 0.65964 0.0
C250 C 0.28531 0.3582 0.62716 0.0
C251 C 0.37482 0.3994 0.66562 0.0
C252 C 0.25839 0.42145 0.70598 0.0
O253 O 0.28493 0.38695 0.61175 0.0
O254 O 0.29734 0.35907 0.65734 0.0
O255 O 0.2884 0.41094 0.71278 0.0
O256 O 0.25413 0.43059 0.6751 0.0
C257 C 0.31444 0.48026 0.63103 0.0
O258 O 0.35702 0.41211 0.68981 0.0
O259 O 0.35911 0.39571 0.63735 0.0
In260 In 0.83435 0.68212 0.91619 0.0
O261 O 0.8749 0.69068 0.95838 0.0
O262 O 0.82931 0.66296 0.97109 0.0
C263 C 0.86883 0.70363 0.85978 0.0
C264 C 0.8244 0.61553 0.90052 0.0
C265 C 0.78617 0.73233 0.918 0.0
O266 O 0.88213 0.70457 0.88956 0.0
O267 O 0.8387 0.69143 0.85876 0.0
O268 O 0.77996 0.70244 0.90684 0.0
O269 O 0.81629 0.73639 0.92941 0.0
C270 C 0.8579 0.67465 0.98111 0.0
O271 O 0.80072 0.63413 0.91294 0.0
O272 O 0.85298 0.63051 0.89614 0.0
In273 In 0.33981 0.80317 0.07543 0.0
O274 O 0.38145 0.81286 0.035 0.0
O275 O 0.33061 0.80144 0.01766 0.0
C276 C 0.37866 0.78476 0.13036 0.0
C277 C 0.32132 0.86858 0.089 0.0
C278 C 0.2946 0.75037 0.07502 0.0
O279 O 0.38604 0.77562 0.09999 0.0
O280 O 0.35273 0.80407 0.13255 0.0
O281 O 0.28513 0.78141 0.07777 0.0
O282 O 0.32666 0.74628 0.07153 0.0
C283 C 0.36132 0.80877 0.00973 0.0
O284 O 0.30261 0.84317 0.09706 0.0
O285 O 0.34886 0.86101 0.07344 0.0
In286 In 0.15644 0.19182 0.58029 0.0
O287 O 0.11275 0.18617 0.54121 0.0
O288 O 0.16378 0.19313 0.52225 0.0
C289 C 0.12218 0.2186 0.63449 0.0
C290 C 0.1652 0.12406 0.59233 0.0
C291 C 0.20692 0.23933 0.58387 0.0
O292 O 0.1131 0.22427 0.60369 0.0
O293 O 0.14755 0.19858 0.63761 0.0
O294 O 0.21088 0.20889 0.59479 0.0
O295 O 0.17816 0.24507 0.56987 0.0
C296 C 0.13236 0.18863 0.51531 0.0
O297 O 0.18901 0.14257 0.57992 0.0
O298 O 0.13745 0.1398 0.59846 0.0
In299 In 0.64944 0.30665 0.40932 0.0
O300 O 0.68715 0.34853 0.39239 0.0
O301 O 0.63841 0.36421 0.41194 0.0
C302 C 0.69583 0.25515 0.40669 0.0
C303 C 0.6295 0.30728 0.47588 0.0
C304 C 0.6103 0.28808 0.35445 0.0
O305 O 0.70436 0.28644 0.40356 0.0
O306 O 0.6641 0.25011 0.41192 0.0
O307 O 0.60242 0.28015 0.38502 0.0
O308 O 0.63686 0.30658 0.35195 0.0
C309 C 0.6671 0.37314 0.39943 0.0
O310 O 0.60925 0.31519 0.45165 0.0
O311 O 0.6596 0.2993 0.46655 0.0
C312 C 0.10852 0.27589 0.19708 0.0
C313 C 0.09964 0.26489 0.16364 0.0
C314 C 0.09903 0.25675 0.22621 0.0
C315 C 0.08059 0.22571 0.22294 0.0
H316 H 0.12436 0.29861 0.20074 0.0
H317 H 0.10796 0.26534 0.25125 0.0
S318 S 0.0469 0.18817 0.14156 0.0
N319 N 0.06804 0.22302 0.12924 0.0
N320 N 0.0504 0.18686 0.18399 0.0
C321 C 0.06937 0.21574 0.18988 0.0
C322 C 0.07881 0.23541 0.16021 0.0
C323 C 0.41286 0.77808 0.68577 0.0
C324 C 0.40173 0.7691 0.71917 0.0
C325 C 0.40315 0.75857 0.65694 0.0
C326 C 0.38164 0.72961 0.66046 0.0
H327 H 0.42807 0.80116 0.68164 0.0
H328 H 0.41101 0.76736 0.63159 0.0
S329 S 0.3491 0.69262 0.74259 0.0
N330 N 0.37095 0.72721 0.75438 0.0
N331 N 0.35239 0.69079 0.70017 0.0
C332 C 0.37211 0.7191 0.69387 0.0
C333 C 0.38227 0.73877 0.72326 0.0
C334 C 0.61223 0.22826 0.76284 0.0
C335 C 0.5854 0.25254 0.7647 0.0
C336 C 0.62327 0.21051 0.79227 0.0
C337 C 0.60786 0.2162 0.82466 0.0
H338 H 0.62613 0.22429 0.73894 0.0
H339 H 0.64516 0.19333 0.78981 0.0
S340 S 0.53311 0.27315 0.84229 0.0
N341 N 0.54102 0.27842 0.80076 0.0
N342 N 0.5618 0.24492 0.85605 0.0
C343 C 0.57925 0.23837 0.82637 0.0
C344 C 0.56804 0.25656 0.79636 0.0
C345 C 0.91961 0.72756 0.30022 0.0
C346 C 0.9059 0.73374 0.26716 0.0
C347 C 0.90814 0.7461 0.32906 0.0
C348 C 0.88229 0.77124 0.32593 0.0
H349 H 0.93825 0.70717 0.30418 0.0
H350 H 0.91827 0.73935 0.3542 0.0
S351 S 0.84162 0.8008 0.24453 0.0
N352 N 0.86792 0.7696 0.23249 0.0
N353 N 0.84614 0.80418 0.28674 0.0
C354 C 0.87007 0.77932 0.29275 0.0
C355 C 0.88197 0.76067 0.26333 0.0
C356 C 0.19149 0.07104 0.22378 0.0
C357 C 0.22497 0.08272 0.23166 0.0
C358 C 0.16297 0.08121 0.24352 0.0
C359 C 0.16684 0.10372 0.27165 0.0
H360 H 0.187 0.05516 0.20123 0.0
H361 H 0.13754 0.07304 0.23533 0.0
S362 S 0.24944 0.13747 0.30625 0.0
N363 N 0.26074 0.1147 0.27208 0.0
N364 N 0.20708 0.13411 0.30894 0.0
C365 C 0.20039 0.11354 0.28135 0.0
C366 C 0.22949 0.10294 0.26143 0.0
C367 C 0.32678 0.9154 0.73415 0.0
C368 C 0.32359 0.89653 0.76494 0.0
C369 C 0.29763 0.92439 0.71483 0.0
C370 C 0.26425 0.91501 0.72569 0.0
H371 H 0.35201 0.92132 0.7237 0.0
H372 H 0.30151 0.93716 0.69026 0.0
S373 S 0.24179 0.87123 0.80783 0.0
N374 N 0.28432 0.87296 0.80787 0.0
N375 N 0.22953 0.89002 0.77166 0.0
C376 C 0.26057 0.89888 0.75798 0.0
C377 C 0.29028 0.88959 0.77757 0.0
C378 C 0.7234 0.38865 0.74129 0.0
C379 C 0.71933 0.40036 0.7754 0.0
C380 C 0.69482 0.37897 0.72136 0.0
C381 C 0.66112 0.38095 0.73469 0.0
H382 H 0.74891 0.38558 0.73033 0.0
H383 H 0.69929 0.36879 0.69572 0.0
S384 S 0.63627 0.41222 0.82173 0.0
N385 N 0.6787 0.41524 0.82097 0.0
N386 N 0.62516 0.39727 0.78346 0.0
C387 C 0.65655 0.39429 0.76811 0.0
C388 C 0.68562 0.40392 0.78849 0.0
C389 C 0.83474 0.5911 0.26551 0.0
C390 C 0.83094 0.60748 0.23342 0.0
C391 C 0.80588 0.58208 0.28535 0.0
C392 C 0.77218 0.58871 0.27361 0.0
H393 H 0.86016 0.58694 0.27629 0.0
H394 H 0.81008 0.57097 0.31064 0.0
S395 S 0.74845 0.62678 0.18909 0.0
N396 N 0.79101 0.62692 0.18921 0.0
N397 N 0.73674 0.60956 0.22626 0.0
C398 C 0.76804 0.60287 0.24048 0.0
C399 C 0.79745 0.61239 0.22045 0.0
C400 C 0.27017 0.19452 0.12081 0.0
C401 C 0.26266 0.16175 0.1071 0.0
C402 C 0.25224 0.22386 0.10994 0.0
C403 C 0.22595 0.22152 0.08513 0.0
H404 H 0.2891 0.19741 0.14112 0.0
H405 H 0.2578 0.24821 0.12247 0.0
S406 S 0.19977 0.14271 0.03758 0.0
N407 N 0.22981 0.12936 0.06459 0.0
N408 N 0.19588 0.18454 0.04435 0.0
C409 C 0.21976 0.18935 0.06953 0.0
C410 C 0.2382 0.15946 0.08046 0.0
C411 C 0.74425 0.32273 0.91617 0.0
C412 C 0.77396 0.31945 0.89566 0.0
C413 C 0.72435 0.29384 0.9248 0.0
C414 C 0.7337 0.26063 0.9136 0.0
H415 H 0.73487 0.34797 0.92355 0.0
H416 H 0.70051 0.29784 0.93883 0.0
S417 S 0.81278 0.23774 0.86476 0.0
N418 N 0.81434 0.28013 0.86827 0.0
N419 N 0.77723 0.22569 0.88493 0.0
C420 C 0.76511 0.25668 0.89587 0.0
C421 C 0.78518 0.28617 0.88676 0.0
C422 C 0.73235 0.73185 0.39204 0.0
C423 C 0.76008 0.7298 0.41524 0.0
C424 C 0.7135 0.70241 0.38291 0.0
C425 C 0.7216 0.66985 0.39678 0.0
H426 H 0.72647 0.75592 0.37913 0.0
H427 H 0.69373 0.70493 0.36339 0.0
S428 S 0.78765 0.65198 0.46357 0.0
N429 N 0.79161 0.69359 0.45556 0.0
N430 N 0.75612 0.63826 0.43849 0.0
C431 C 0.7472 0.66805 0.42235 0.0
C432 C 0.7665 0.69802 0.43156 0.0
C433 C 0.21708 0.79489 0.6182 0.0
C434 C 0.22232 0.82737 0.60288 0.0
C435 C 0.2349 0.76571 0.60665 0.0
C436 C 0.25897 0.768 0.57961 0.0
H437 H 0.20003 0.79216 0.64019 0.0
H438 H 0.23123 0.74167 0.6204 0.0
S439 S 0.27877 0.84603 0.52784 0.0
N440 N 0.25056 0.85934 0.55684 0.0
N441 N 0.28446 0.80454 0.5354 0.0
C442 C 0.26278 0.79981 0.56256 0.0
C443 C 0.24434 0.82949 0.57413 0.0
C444 C 0.87076 0.71198 0.79607 0.0
C445 C 0.88544 0.71828 0.82867 0.0
C446 C 0.88208 0.72968 0.76669 0.0
C447 C 0.90825 0.75467 0.76886 0.0
H448 H 0.84936 0.69421 0.7934 0.0
H449 H 0.86876 0.72517 0.74255 0.0
S450 S 0.95836 0.77739 0.84717 0.0
N451 N 0.93012 0.74849 0.86067 0.0
N452 N 0.95116 0.78214 0.80546 0.0
C453 C 0.92478 0.75952 0.8008 0.0
C454 C 0.91345 0.74121 0.83072 0.0
C455 C 0.59716 0.2607 0.26175 0.0
C456 C 0.57458 0.23251 0.2649 0.0
C457 C 0.60666 0.28024 0.29064 0.0
C458 C 0.5938 0.27242 0.32372 0.0
H459 H 0.60933 0.26646 0.23725 0.0
H460 H 0.62572 0.30039 0.28724 0.0
S461 S 0.52884 0.20524 0.34453 0.0
N462 N 0.53588 0.20073 0.30275 0.0
N463 N 0.55361 0.23754 0.35703 0.0
C464 C 0.5688 0.24629 0.32665 0.0
C465 C 0.55924 0.22628 0.29723 0.0
C466 C 0.42342 0.71957 0.187 0.0
C467 C 0.41357 0.72984 0.22042 0.0
C468 C 0.41433 0.73901 0.15795 0.0
C469 C 0.39484 0.76936 0.16126 0.0
H470 H 0.43684 0.69541 0.18298 0.0
H471 H 0.42081 0.72903 0.13269 0.0
S472 S 0.36745 0.81043 0.24332 0.0
N473 N 0.38699 0.77463 0.25539 0.0
N474 N 0.36973 0.8111 0.20079 0.0
C475 C 0.38719 0.78135 0.19466 0.0
C476 C 0.3966 0.76163 0.22428 0.0
C477 C 0.1183 0.22783 0.69803 0.0
C478 C 0.10745 0.23689 0.66459 0.0
C479 C 0.10941 0.24789 0.72672 0.0
C480 C 0.08957 0.27793 0.72301 0.0
H481 H 0.1349 0.20575 0.70201 0.0
H482 H 0.11952 0.24061 0.75171 0.0
S483 S 0.05123 0.3107 0.64165 0.0
N484 N 0.0731 0.27616 0.62988 0.0
N485 N 0.05653 0.31402 0.68378 0.0
C486 C 0.07685 0.28619 0.69003 0.0
C487 C 0.08573 0.26561 0.66081 0.0
C488 C 0.79932 0.90754 0.7771 0.0
C489 C 0.76604 0.896 0.76824 0.0
C490 C 0.82832 0.89766 0.75791 0.0
C491 C 0.82512 0.87559 0.72935 0.0
H492 H 0.80324 0.92331 0.79984 0.0
H493 H 0.85353 0.90595 0.76661 0.0
S494 S 0.74343 0.84169 0.69275 0.0
N495 N 0.73131 0.86409 0.72688 0.0
N496 N 0.78581 0.84527 0.691 0.0
C497 C 0.79184 0.86555 0.71896 0.0
C498 C 0.76227 0.87584 0.73833 0.0
C499 C 0.66265 0.08596 0.251 0.0
C500 C 0.6649 0.11025 0.22423 0.0
C501 C 0.69219 0.07533 0.26886 0.0
C502 C 0.72503 0.08838 0.26036 0.0
H503 H 0.63775 0.07653 0.25952 0.0
H504 H 0.68898 0.05801 0.29055 0.0
S505 S 0.74519 0.14809 0.18829 0.0
N506 N 0.70285 0.14384 0.18721 0.0
N507 N 0.75838 0.12367 0.22054 0.0
C508 C 0.72787 0.11056 0.23181 0.0
C509 C 0.69777 0.12159 0.21383 0.0
C510 C 0.29719 0.62335 0.26579 0.0
C511 C 0.32988 0.60908 0.25903 0.0
C512 C 0.26792 0.61256 0.24761 0.0
C513 C 0.27027 0.58728 0.22174 0.0
H514 H 0.29431 0.64394 0.28446 0.0
H515 H 0.24365 0.62538 0.25269 0.0
S516 S 0.34892 0.53868 0.1971 0.0
N517 N 0.36219 0.56591 0.22702 0.0
N518 N 0.30721 0.54581 0.19261 0.0
C519 C 0.30237 0.57134 0.21614 0.0
C520 C 0.33217 0.58217 0.23485 0.0
C521 C 0.19581 0.42813 0.71959 0.0
C522 C 0.22905 0.41816 0.73026 0.0
C523 C 0.16647 0.4189 0.73863 0.0
C524 C 0.16934 0.39916 0.76886 0.0
H525 H 0.19219 0.44158 0.69537 0.0
H526 H 0.14133 0.42538 0.72836 0.0
S527 S 0.25063 0.37184 0.81116 0.0
N528 N 0.26327 0.39153 0.77556 0.0
N529 N 0.20812 0.37398 0.81116 0.0
C530 C 0.20251 0.39151 0.78133 0.0
C531 C 0.2324 0.4011 0.76208 0.0
C532 C 0.77288 0.79513 0.92241 0.0
C533 C 0.76222 0.76163 0.91328 0.0
C534 C 0.75398 0.82415 0.91224 0.0
C535 C 0.72387 0.82069 0.89242 0.0
H536 H 0.79694 0.79914 0.93599 0.0
H537 H 0.76417 0.84946 0.91822 0.0
S538 S 0.68173 0.73864 0.86692 0.0
N539 N 0.71715 0.72662 0.88718 0.0
N540 N 0.68176 0.78118 0.86792 0.0
C541 C 0.71147 0.78732 0.88546 0.0
C542 C 0.73061 0.75777 0.89596 0.0
C543 C 0.26343 0.65821 0.08294 0.0
C544 C 0.23102 0.66205 0.09867 0.0
C545 C 0.28312 0.68707 0.07365 0.0
C546 C 0.2709 0.72076 0.07937 0.0
H547 H 0.27459 0.63283 0.07966 0.0
H548 H 0.3087 0.68289 0.06323 0.0
S549 S 0.18524 0.74437 0.11493 0.0
N550 N 0.18589 0.70184 0.11614 0.0
N551 N 0.22264 0.75611 0.09825 0.0
C552 C 0.23739 0.72485 0.09264 0.0
C553 C 0.21752 0.69546 0.10244 0.0
C554 C 0.2459 0.32878 0.58561 0.0
C555 C 0.26998 0.32649 0.61255 0.0
C556 C 0.22691 0.29987 0.57513 0.0
C557 C 0.23165 0.26753 0.59092 0.0
H558 H 0.24035 0.35342 0.5737 0.0
H559 H 0.20743 0.30322 0.55542 0.0
S560 S 0.29494 0.24703 0.65962 0.0
N561 N 0.29997 0.2887 0.6526 0.0
N562 N 0.26457 0.2343 0.63265 0.0
C563 C 0.25737 0.26441 0.61625 0.0
C564 C 0.27643 0.29393 0.62717 0.0
C565 C 0.70987 0.19249 0.41009 0.0
C566 C 0.72016 0.22626 0.40161 0.0
C567 C 0.73016 0.164 0.40112 0.0
C568 C 0.7612 0.16825 0.3829 0.0
H569 H 0.68536 0.18789 0.42272 0.0
H570 H 0.72047 0.13841 0.40681 0.0
S571 S 0.80168 0.25134 0.35807 0.0
N572 N 0.76512 0.26244 0.37687 0.0
N573 N 0.80296 0.20883 0.35953 0.0
C574 C 0.77277 0.20192 0.376 0.0
C575 C 0.75233 0.23097 0.38551 0.0
C576 C 0.13861 0.20129 0.45265 0.0
C577 C 0.1201 0.18531 0.47947 0.0
C578 C 0.12893 0.1969 0.41814 0.0
C579 C 0.10102 0.17559 0.40925 0.0
H580 H 0.16087 0.2172 0.45837 0.0
H581 H 0.14409 0.20938 0.39822 0.0
S582 S 0.04355 0.12879 0.46975 0.0
N583 N 0.07173 0.14846 0.49492 0.0
N584 N 0.05424 0.13926 0.42984 0.0
C585 C 0.08202 0.1598 0.43578 0.0
C586 C 0.09136 0.16494 0.47099 0.0
C587 C 0.35411 0.79626 0.94714 0.0
C588 C 0.37222 0.81328 0.97354 0.0
C589 C 0.36283 0.80117 0.91242 0.0
C590 C 0.38934 0.82398 0.90288 0.0
H591 H 0.33303 0.77898 0.95335 0.0
H592 H 0.34811 0.78767 0.89288 0.0
S593 S 0.44498 0.87437 0.9621 0.0
N594 N 0.4185 0.85312 0.98788 0.0
N595 N 0.4342 0.86314 0.92245 0.0
C596 C 0.4078 0.84102 0.92898 0.0
C597 C 0.39943 0.83543 0.9644 0.0
C598 C 0.59591 0.33357 0.52402 0.0
C599 C 0.6193 0.30844 0.5125 0.0
C600 C 0.58776 0.33668 0.55913 0.0
C601 C 0.60195 0.31412 0.5837 0.0
H602 H 0.58462 0.35159 0.50593 0.0
H603 H 0.57016 0.35685 0.56709 0.0
S604 S 0.66315 0.24283 0.56633 0.0
N605 N 0.65599 0.26018 0.5281 0.0
N606 N 0.63968 0.26519 0.59395 0.0
C607 C 0.62456 0.28823 0.57234 0.0
C608 C 0.63353 0.28563 0.53674 0.0
C609 C 0.90203 0.69184 0.06668 0.0
C610 C 0.89067 0.66416 0.08722 0.0
C611 C 0.89216 0.6946 0.03196 0.0
C612 C 0.86995 0.6702 0.01693 0.0
H613 H 0.91871 0.71148 0.07747 0.0
H614 H 0.90126 0.71643 0.01708 0.0
S615 S 0.83346 0.59261 0.05945 0.0
N616 N 0.85671 0.61145 0.08973 0.0
N617 N 0.83756 0.61709 0.02485 0.0
C618 C 0.85863 0.6423 0.03711 0.0
C619 C 0.86916 0.63914 0.07218 0.0
C620 C 0.42557 0.08935 0.19636 0.0
C621 C 0.40671 0.09745 0.16643 0.0
C622 C 0.46002 0.0999 0.20011 0.0
C623 C 0.47643 0.11954 0.17439 0.0
H624 H 0.4136 0.07492 0.2171 0.0
H625 H 0.47356 0.09351 0.22369 0.0
S626 S 0.43909 0.14627 0.09054 0.0
N627 N 0.4077 0.12507 0.11001 0.0
N628 N 0.47196 0.14543 0.11752 0.0
C629 C 0.45809 0.12733 0.14418 0.0
C630 C 0.42334 0.11612 0.14008 0.0
C631 C 0.02821 0.88724 0.69858 0.0
C632 C 0.01313 0.86296 0.67628 0.0
C633 C 0.06234 0.89831 0.69368 0.0
C634 C 0.08214 0.88613 0.66579 0.0
H635 H 0.0138 0.89721 0.72035 0.0
H636 H 0.07321 0.91667 0.71171 0.0
S637 S 0.05399 0.82326 0.59935 0.0
N638 N 0.02029 0.82749 0.62504 0.0
N639 N 0.08398 0.84891 0.61532 0.0
C640 C 0.06706 0.86237 0.64295 0.0
C641 C 0.03266 0.8506 0.64833 0.0
C642 C 0.96872 0.4021 0.83209 0.0
C643 C 0.97936 0.37483 0.81076 0.0
C644 C 0.93359 0.409 0.83713 0.0
C645 C 0.90809 0.38949 0.82024 0.0
H646 H 0.98758 0.4174 0.84588 0.0
H647 H 0.92634 0.42969 0.85445 0.0
S648 S 0.92282 0.31665 0.76011 0.0
N649 N 0.96187 0.3289 0.77184 0.0
N650 N 0.8959 0.34264 0.78043 0.0
C651 C 0.91848 0.36298 0.7979 0.0
C652 C 0.95415 0.35543 0.79341 0.0
C653 C 0.54437 0.63802 0.29255 0.0
C654 C 0.51706 0.61929 0.30739 0.0
C655 C 0.57868 0.62784 0.29724 0.0
C656 C 0.58688 0.59909 0.31767 0.0
H657 H 0.53923 0.66094 0.27745 0.0
H658 H 0.59895 0.64339 0.28588 0.0
S659 S 0.52482 0.54059 0.36107 0.0
N660 N 0.50037 0.56972 0.34197 0.0
N661 N 0.56502 0.55119 0.35174 0.0
C662 C 0.55982 0.57972 0.33209 0.0
C663 C 0.52483 0.58965 0.32666 0.0
C664 C 0.19196 0.41565 0.1285 0.0
C665 C 0.17112 0.40605 0.10049 0.0
C666 C 0.19587 0.45035 0.13767 0.0
C667 C 0.17989 0.47664 0.11851 0.0
H668 H 0.20456 0.39616 0.14402 0.0
H669 H 0.21158 0.45664 0.1599 0.0
S670 S 0.12432 0.46492 0.04161 0.0
N671 N 0.13505 0.42536 0.05308 0.0
N672 N 0.1434 0.4908 0.06956 0.0
C673 C 0.15985 0.46742 0.08978 0.0
C674 C 0.15517 0.43202 0.08098 0.0
C675 C 0.69769 0.03368 0.85537 0.0
C676 C 0.68057 0.0077 0.87403 0.0
C677 C 0.69455 0.06838 0.86472 0.0
C678 C 0.67341 0.0783 0.89242 0.0
H679 H 0.71363 0.02716 0.83335 0.0
H680 H 0.70797 0.08764 0.84954 0.0
S681 S 0.62377 0.02023 0.94999 0.0
N682 N 0.64271 0.99409 0.92219 0.0
N683 N 0.63586 0.05958 0.93905 0.0
C684 C 0.65637 0.05262 0.91148 0.0
C685 C 0.66024 0.01719 0.90248 0.0
C686 C 0.79367 0.96711 0.39179 0.0
C687 C 0.81632 0.98203 0.36769 0.0
C688 C 0.79731 0.93254 0.40181 0.0
C689 C 0.82424 0.9121 0.3887 0.0
H690 H 0.77254 0.982 0.40238 0.0
H691 H 0.77903 0.92182 0.42005 0.0
S692 S 0.89119 0.93959 0.32595 0.0
N693 N 0.86689 0.97406 0.33146 0.0
N694 N 0.87428 0.90949 0.35089 0.0
C695 C 0.84748 0.927 0.36516 0.0
C696 C 0.84336 0.96189 0.35448 0.0
C697 C 0.34448 0.53694 0.62971 0.0
C698 C 0.31759 0.51579 0.61771 0.0
C699 C 0.34754 0.57121 0.61887 0.0
C700 C 0.32341 0.58587 0.59616 0.0
H701 H 0.36336 0.52697 0.64769 0.0
H702 H 0.36857 0.58654 0.62902 0.0
S703 S 0.24843 0.54131 0.55688 0.0
N704 N 0.26677 0.51163 0.58126 0.0
N705 N 0.27204 0.57647 0.56148 0.0
C706 C 0.29648 0.56498 0.58376 0.0
C707 C 0.29373 0.52981 0.59434 0.0
C708 C 0.85714 0.84136 0.53665 0.0
C709 C 0.86964 0.81496 0.51519 0.0
C710 C 0.86704 0.84352 0.57127 0.0
C711 C 0.88924 0.81894 0.58592 0.0
H712 H 0.8396 0.8606 0.52661 0.0
H713 H 0.85668 0.86428 0.58682 0.0
S714 S 0.92936 0.74487 0.5407 0.0
N715 N 0.90587 0.76403 0.51082 0.0
N716 N 0.9239 0.76764 0.5763 0.0
C717 C 0.90202 0.79243 0.56478 0.0
C718 C 0.89241 0.79058 0.52928 0.0
C719 C 0.60279 0.19633 0.02888 0.0
C720 C 0.62717 0.17356 0.01473 0.0
C721 C 0.5921 0.19314 0.06334 0.0
C722 C 0.6048 0.16655 0.08443 0.0
H723 H 0.59234 0.21709 0.01342 0.0
H724 H 0.57354 0.21142 0.0734 0.0
S725 S 0.66828 0.0996 0.05917 0.0
N726 N 0.66339 0.12335 0.02419 0.0
N727 N 0.64276 0.11684 0.08857 0.0
C728 C 0.62879 0.14331 0.07036 0.0
C729 C 0.64014 0.14696 0.03558 0.0
C730 C 0.36783 0.65116 0.41802 0.0
C731 C 0.39215 0.67364 0.40319 0.0
C732 C 0.35656 0.65559 0.45199 0.0
C733 C 0.36969 0.68223 0.47272 0.0
H734 H 0.35695 0.63018 0.40311 0.0
H735 H 0.33759 0.63775 0.46217 0.0
S736 S 0.43419 0.74784 0.44646 0.0
N737 N 0.42905 0.72362 0.41178 0.0
N738 N 0.40846 0.7314 0.47622 0.0
C739 C 0.39436 0.70469 0.45847 0.0
C740 C 0.40539 0.70057 0.42352 0.0
C741 C 0.10401 0.29415 0.96043 0.0
C742 C 0.12702 0.31641 0.97742 0.0
C743 C 0.09441 0.30011 0.92605 0.0
C744 C 0.1067 0.32909 0.90803 0.0
H745 H 0.09384 0.2717 0.97361 0.0
H746 H 0.07695 0.28216 0.91364 0.0
S747 S 0.16652 0.39582 0.9417 0.0
N748 N 0.1615 0.36862 0.97407 0.0
N749 N 0.14271 0.38048 0.90992 0.0
C750 C 0.12927 0.35183 0.92503 0.0
C751 C 0.13965 0.3453 0.95964 0.0
C752 C 0.56375 0.89999 0.79566 0.0
C753 C 0.58266 0.88448 0.82242 0.0
C754 C 0.52889 0.8917 0.79032 0.0
C755 C 0.51224 0.86695 0.81096 0.0
H756 H 0.57581 0.91895 0.77904 0.0
H757 H 0.51506 0.90432 0.7696 0.0
S758 S 0.55031 0.81895 0.88433 0.0
N759 N 0.582 0.8435 0.86995 0.0
N760 N 0.51697 0.82737 0.85931 0.0
C761 C 0.53093 0.85115 0.83761 0.0
C762 C 0.56604 0.86006 0.84351 0.0
C763 C 0.92781 0.09372 0.29898 0.0
C764 C 0.9068 0.10924 0.32416 0.0
C765 C 0.96269 0.10276 0.29569 0.0
C766 C 0.97738 0.12827 0.31685 0.0
H767 H 0.91733 0.07419 0.28198 0.0
H768 H 0.97807 0.09016 0.27606 0.0
S769 S 0.93329 0.17673 0.38657 0.0
N770 N 0.90324 0.15103 0.37079 0.0
N771 N 0.96847 0.1687 0.36395 0.0
C772 C 0.9566 0.14408 0.34198 0.0
C773 C 0.92137 0.13437 0.34582 0.0
C774 C 0.06697 0.59076 0.19484 0.0
C775 C 0.08716 0.6053 0.16842 0.0
C776 C 0.03261 0.60108 0.19986 0.0
C777 C 0.01773 0.62689 0.1792 0.0
H778 H 0.07761 0.57096 0.21139 0.0
H779 H 0.01777 0.5891 0.2203 0.0
S780 S 0.06009 0.67353 0.10707 0.0
N781 N 0.08988 0.64687 0.12151 0.0
N782 N 0.02583 0.66677 0.13145 0.0
C783 C 0.03784 0.64186 0.15299 0.0
C784 C 0.07244 0.63092 0.14746 0.0
C785 C 0.424 0.36156 0.64934 0.0
C786 C 0.41083 0.38814 0.6702 0.0
C787 C 0.45774 0.34952 0.65365 0.0
C788 C 0.47976 0.36422 0.67838 0.0
H789 H 0.40793 0.34954 0.6299 0.0
H790 H 0.46676 0.32882 0.6372 0.0
S791 S 0.45793 0.43484 0.73906 0.0
N792 N 0.42232 0.42877 0.71653 0.0
N793 N 0.4862 0.40684 0.72393 0.0
C794 C 0.46709 0.3911 0.69912 0.0
C795 C 0.43247 0.40286 0.69524 0.0
C796 C 0.83794 0.5652 0.86333 0.0
C797 C 0.81907 0.57922 0.89091 0.0
C798 C 0.83336 0.53085 0.85332 0.0
C799 C 0.81045 0.50912 0.87115 0.0
H800 H 0.85609 0.58099 0.84908 0.0
H801 H 0.84836 0.5211 0.83185 0.0
S802 S 0.75532 0.53332 0.9455 0.0
N803 N 0.77646 0.56902 0.93579 0.0
N804 N 0.76868 0.50394 0.91769 0.0
C805 C 0.79161 0.52273 0.89897 0.0
C806 C 0.79568 0.55797 0.90865 0.0
C807 C 0.32611 0.93192 0.07956 0.0
C808 C 0.31326 0.90427 0.0992 0.0
C809 C 0.3214 0.96608 0.09029 0.0
C810 C 0.30454 0.97364 0.12149 0.0
H811 H 0.34023 0.92711 0.05591 0.0
H812 H 0.33213 0.98663 0.07467 0.0
S813 S 0.26526 0.91053 0.18175 0.0
N814 N 0.28177 0.88669 0.15055 0.0
N815 N 0.27387 0.9509 0.17129 0.0
C816 C 0.29105 0.94627 0.14106 0.0
C817 C 0.29513 0.91154 0.12973 0.0
C818 C 0.14952 0.03683 0.63291 0.0
C819 C 0.17574 0.01621 0.6188 0.0
C820 C 0.14617 0.07149 0.6237 0.0
C821 C 0.1693 0.0871 0.6005 0.0
H822 H 0.1313 0.02611 0.65122 0.0
H823 H 0.12556 0.0863 0.63537 0.0
S824 S 0.24243 0.04431 0.55613 0.0
N825 N 0.22502 0.01363 0.58005 0.0
N826 N 0.21916 0.07924 0.56324 0.0
C827 C 0.19565 0.06681 0.58609 0.0
C828 C 0.19872 0.03122 0.59507 0.0
C829 C 0.65812 0.43598 0.40963 0.0
C830 C 0.6755 0.40951 0.39195 0.0
C831 C 0.66371 0.47069 0.40132 0.0
C832 C 0.68623 0.48006 0.37448 0.0
H833 H 0.63978 0.42982 0.42982 0.0
H834 H 0.64933 0.49023 0.41516 0.0
S835 S 0.73906 0.42076 0.32123 0.0
N836 N 0.71736 0.39513 0.34746 0.0
N837 N 0.72709 0.46037 0.3312 0.0
C838 C 0.70429 0.45394 0.35707 0.0
C839 C 0.69915 0.41864 0.366 0.0
loop_
_geom_bond_atom_site_label_1
_geom_bond_atom_site_label_2
_geom_bond_distance
_geom_bond_site_symmetry_2
_ccdc_geom_bond_type
In0 O1 2.294 . S
In0 O2 2.326 . S
In0 O6 2.266 . S
In0 O7 2.326 . S
In0 O8 2.266 . S
In0 O9 2.326 . S
In0 O11 2.294 . S
In0 O12 2.326 . S
O1 In0 2.294 . S
O1 C10 1.240 . S
O2 In0 2.326 . S
O2 C10 1.252 . S
C3 O6 1.252 . S
C3 O7 1.260 . S
C4 O11 1.240 . S
C4 O12 1.252 . S
C5 O8 1.252 . S
C5 O9 1.260 . S
O6 In0 2.266 . S
O6 C3 1.252 . S
O7 In0 2.326 . S
O7 C3 1.260 . S
O8 In0 2.266 . S
O8 C5 1.252 . S
O9 In0 2.326 . S
O9 C5 1.260 . S
C10 O1 1.240 . S
C10 O2 1.252 . S
O11 In0 2.294 . S
O11 C4 1.240 . S
O12 In0 2.326 . S
O12 C4 1.252 . S
In13 O14 2.294 . S
In13 O15 2.326 . S
In13 O19 2.266 . S
In13 O20 2.326 . S
In13 O21 2.266 . S
In13 O22 2.326 . S
In13 O24 2.294 . S
In13 O25 2.326 . S
O14 In13 2.294 . S
O14 C23 1.240 . S
O15 In13 2.326 . S
O15 C23 1.252 . S
C16 O19 1.252 . S
C16 O20 1.260 . S
C17 O24 1.240 . S
C17 O25 1.252 . S
C18 O21 1.252 . S
C18 O22 1.260 . S
O19 In13 2.266 . S
O19 C16 1.252 . S
O20 In13 2.326 . S
O20 C16 1.260 . S
O21 In13 2.266 . S
O21 C18 1.252 . S
O22 In13 2.326 . S
O22 C18 1.260 . S
C23 O14 1.240 . S
C23 O15 1.252 . S
O24 In13 2.294 . S
O24 C17 1.240 . S
O25 In13 2.326 . S
O25 C17 1.252 . S
In26 O27 2.294 . S
In26 O28 2.326 . S
In26 O32 2.266 . S
In26 O33 2.326 . S
In26 O34 2.266 . S
In26 O35 2.326 . S
In26 O37 2.294 . S
In26 O38 2.326 . S
O27 In26 2.294 . S
O27 C36 1.240 . S
O28 In26 2.326 . S
O28 C36 1.252 . S
C29 O32 1.252 . S
C29 O33 1.260 . S
C30 O37 1.240 . S
C30 O38 1.252 . S
C31 O34 1.252 . S
C31 O35 1.260 . S
O32 In26 2.266 . S
O32 C29 1.252 . S
O33 In26 2.326 . S
O33 C29 1.260 . S
O34 In26 2.266 . S
O34 C31 1.252 . S
O35 In26 2.326 . S
O35 C31 1.260 . S
C36 O27 1.240 . S
C36 O28 1.252 . S
O37 In26 2.294 . S
O37 C30 1.240 . S
O38 In26 2.326 . S
O38 C30 1.252 . S
In39 O40 2.294 . S
In39 O41 2.326 . S
In39 O45 2.266 . S
In39 O46 2.326 . S
In39 O47 2.266 . S
In39 O48 2.326 . S
In39 O50 2.294 . S
In39 O51 2.326 . S
O40 In39 2.294 . S
O40 C49 1.240 . S
O41 In39 2.326 . S
O41 C49 1.252 . S
C42 O45 1.252 . S
C42 O46 1.260 . S
C43 O50 1.240 . S
C43 O51 1.252 . S
C44 O47 1.252 . S
C44 O48 1.260 . S
O45 In39 2.266 . S
O45 C42 1.252 . S
O46 In39 2.326 . S
O46 C42 1.260 . S
O47 In39 2.266 . S
O47 C44 1.252 . S
O48 In39 2.326 . S
O48 C44 1.260 . S
C49 O40 1.240 . S
C49 O41 1.252 . S
O50 In39 2.294 . S
O50 C43 1.240 . S
O51 In39 2.326 . S
O51 C43 1.252 . S
In52 O53 2.294 . S
In52 O54 2.326 . S
In52 O58 2.266 . S
In52 O59 2.326 . S
In52 O60 2.266 . S
In52 O61 2.326 . S
In52 O63 2.294 . S
In52 O64 2.326 . S
O53 In52 2.294 . S
O53 C62 1.240 . S
O54 In52 2.326 . S
O54 C62 1.252 . S
C55 O58 1.252 . S
C55 O59 1.260 . S
C56 O63 1.240 . S
C56 O64 1.252 . S
C57 O60 1.252 . S
C57 O61 1.260 . S
O58 In52 2.266 . S
O58 C55 1.252 . S
O59 In52 2.326 . S
O59 C55 1.260 . S
O60 In52 2.266 . S
O60 C57 1.252 . S
O61 In52 2.326 . S
O61 C57 1.260 . S
C62 O53 1.240 . S
C62 O54 1.252 . S
O63 In52 2.294 . S
O63 C56 1.240 . S
O64 In52 2.326 . S
O64 C56 1.252 . S
In65 O66 2.294 . S
In65 O67 2.326 . S
In65 O71 2.266 . S
In65 O72 2.326 . S
In65 O73 2.266 . S
In65 O74 2.326 . S
In65 O76 2.294 . S
In65 O77 2.326 . S
O66 In65 2.294 . S
O66 C75 1.240 . S
O67 In65 2.326 . S
O67 C75 1.252 . S
C68 O71 1.252 . S
C68 O72 1.260 . S
C69 O76 1.240 . S
C69 O77 1.252 . S
C70 O73 1.252 . S
C70 O74 1.260 . S
O71 In65 2.266 . S
O71 C68 1.252 . S
O72 In65 2.326 . S
O72 C68 1.260 . S
O73 In65 2.266 . S
O73 C70 1.252 . S
O74 In65 2.326 . S
O74 C70 1.260 . S
C75 O66 1.240 . S
C75 O67 1.252 . S
O76 In65 2.294 . S
O76 C69 1.240 . S
O77 In65 2.326 . S
O77 C69 1.252 . S
In78 O79 2.294 . S
In78 O80 2.326 . S
In78 O84 2.266 . S
In78 O85 2.326 . S
In78 O86 2.266 . S
In78 O87 2.326 . S
In78 O89 2.294 . S
In78 O90 2.326 . S
O79 In78 2.294 . S
O79 C88 1.240 . S
O80 In78 2.326 . S
O80 C88 1.252 . S
C81 O84 1.252 . S
C81 O85 1.260 . S
C82 O89 1.240 . S
C82 O90 1.252 . S
C83 O86 1.252 . S
C83 O87 1.260 . S
O84 In78 2.266 . S
O84 C81 1.252 . S
O85 In78 2.326 . S
O85 C81 1.260 . S
O86 In78 2.266 . S
O86 C83 1.252 . S
O87 In78 2.326 . S
O87 C83 1.260 . S
C88 O79 1.240 . S
C88 O80 1.252 . S
O89 In78 2.294 . S
O89 C82 1.240 . S
O90 In78 2.326 . S
O90 C82 1.252 . S
In91 O92 2.294 . S
In91 O93 2.326 . S
In91 O97 2.266 . S
In91 O98 2.326 . S
In91 O99 2.266 . S
In91 O100 2.326 . S
In91 O102 2.294 . S
In91 O103 2.326 . S
O92 In91 2.294 . S
O92 C101 1.240 . S
O93 In91 2.326 . S
O93 C101 1.252 . S
C94 O97 1.252 . S
C94 O98 1.260 . S
C95 O102 1.240 . S
C95 O103 1.252 . S
C96 O99 1.252 . S
C96 O100 1.260 . S
O97 In91 2.266 . S
O97 C94 1.252 . S
O98 In91 2.326 . S
O98 C94 1.260 . S
O99 In91 2.266 . S
O99 C96 1.252 . S
O100 In91 2.326 . S
O100 C96 1.260 . S
C101 O92 1.240 . S
C101 O93 1.252 . S
O102 In91 2.294 . S
O102 C95 1.240 . S
O103 In91 2.326 . S
O103 C95 1.252 . S
In104 O105 2.294 . S
In104 O106 2.326 . S
In104 O110 2.266 . S
In104 O111 2.326 . S
In104 O112 2.266 . S
In104 O113 2.326 . S
In104 O115 2.294 . S
In104 O116 2.326 . S
O105 In104 2.294 . S
O105 C114 1.240 . S
O106 In104 2.326 . S
O106 C114 1.252 . S
C107 O110 1.252 . S
C107 O111 1.260 . S
C108 O115 1.240 . S
C108 O116 1.252 . S
C109 O112 1.252 . S
C109 O113 1.260 . S
O110 In104 2.266 . S
O110 C107 1.252 . S
O111 In104 2.326 . S
O111 C107 1.260 . S
O112 In104 2.266 . S
O112 C109 1.252 . S
O113 In104 2.326 . S
O113 C109 1.260 . S
C114 O105 1.240 . S
C114 O106 1.252 . S
O115 In104 2.294 . S
O115 C108 1.240 . S
O116 In104 2.326 . S
O116 C108 1.252 . S
In117 O118 2.294 . S
In117 O119 2.326 . S
In117 O123 2.266 . S
In117 O124 2.326 . S
In117 O125 2.266 . S
In117 O126 2.326 . S
In117 O128 2.294 . S
In117 O129 2.326 . S
O118 In117 2.294 . S
O118 C127 1.240 . S
O119 In117 2.326 . S
O119 C127 1.252 . S
C120 O123 1.252 . S
C120 O124 1.260 . S
C121 O128 1.240 . S
C121 O129 1.252 . S
C122 O125 1.252 . S
C122 O126 1.260 . S
O123 In117 2.266 . S
O123 C120 1.252 . S
O124 In117 2.326 . S
O124 C120 1.260 . S
O125 In117 2.266 . S
O125 C122 1.252 . S
O126 In117 2.326 . S
O126 C122 1.260 . S
C127 O118 1.240 . S
C127 O119 1.252 . S
O128 In117 2.294 . S
O128 C121 1.240 . S
O129 In117 2.326 . S
O129 C121 1.252 . S
In130 O131 2.294 . S
In130 O132 2.326 . S
In130 O136 2.266 . S
In130 O137 2.326 . S
In130 O138 2.266 . S
In130 O139 2.326 . S
In130 O141 2.294 . S
In130 O142 2.326 . S
O131 In130 2.294 . S
O131 C140 1.240 . S
O132 In130 2.326 . S
O132 C140 1.252 . S
C133 O136 1.252 . S
C133 O137 1.260 . S
C134 O141 1.240 . S
C134 O142 1.252 . S
C135 O138 1.252 . S
C135 O139 1.260 . S
O136 In130 2.266 . S
O136 C133 1.252 . S
O137 In130 2.326 . S
O137 C133 1.260 . S
O138 In130 2.266 . S
O138 C135 1.252 . S
O139 In130 2.326 . S
O139 C135 1.260 . S
C140 O131 1.240 . S
C140 O132 1.252 . S
O141 In130 2.294 . S
O141 C134 1.240 . S
O142 In130 2.326 . S
O142 C134 1.252 . S
In143 O144 2.294 . S
In143 O145 2.326 . S
In143 O149 2.266 . S
In143 O150 2.326 . S
In143 O151 2.266 . S
In143 O152 2.326 . S
In143 O154 2.294 . S
In143 O155 2.326 . S
O144 In143 2.294 . S
O144 C153 1.240 . S
O145 In143 2.326 . S
O145 C153 1.252 . S
C146 O149 1.252 . S
C146 O150 1.260 . S
C147 O154 1.240 . S
C147 O155 1.252 . S
C148 O151 1.252 . S
C148 O152 1.260 . S
O149 In143 2.266 . S
O149 C146 1.252 . S
O150 In143 2.326 . S
O150 C146 1.260 . S
O151 In143 2.266 . S
O151 C148 1.252 . S
O152 In143 2.326 . S
O152 C148 1.260 . S
C153 O144 1.240 . S
C153 O145 1.252 . S
O154 In143 2.294 . S
O154 C147 1.240 . S
O155 In143 2.326 . S
O155 C147 1.252 . S
In156 O157 2.294 . S
In156 O158 2.326 . S
In156 O162 2.266 . S
In156 O163 2.326 . S
In156 O164 2.266 . S
In156 O165 2.326 . S
In156 O167 2.294 . S
In156 O168 2.326 . S
O157 In156 2.294 . S
O157 C166 1.240 . S
O158 In156 2.326 . S
O158 C166 1.252 . S
C159 O162 1.252 . S
C159 O163 1.260 . S
C160 O167 1.240 . S
C160 O168 1.252 . S
C161 O164 1.252 . S
C161 O165 1.260 . S
O162 In156 2.266 . S
O162 C159 1.252 . S
O163 In156 2.326 . S
O163 C159 1.260 . S
O164 In156 2.266 . S
O164 C161 1.252 . S
O165 In156 2.326 . S
O165 C161 1.260 . S
C166 O157 1.240 . S
C166 O158 1.252 . S
O167 In156 2.294 . S
O167 C160 1.240 . S
O168 In156 2.326 . S
O168 C160 1.252 . S
In169 O170 2.294 . S
In169 O171 2.326 . S
In169 O175 2.266 . S
In169 O176 2.326 . S
In169 O177 2.266 . S
In169 O178 2.326 . S
In169 O180 2.294 . S
In169 O181 2.326 . S
O170 In169 2.294 . S
O170 C179 1.240 . S
O171 In169 2.326 . S
O171 C179 1.252 . S
C172 O175 1.252 . S
C172 O176 1.260 . S
C173 O180 1.240 . S
C173 O181 1.252 . S
C174 O177 1.252 . S
C174 O178 1.260 . S
O175 In169 2.266 . S
O175 C172 1.252 . S
O176 In169 2.326 . S
O176 C172 1.260 . S
O177 In169 2.266 . S
O177 C174 1.252 . S
O178 In169 2.326 . S
O178 C174 1.260 . S
C179 O170 1.240 . S
C179 O171 1.252 . S
O180 In169 2.294 . S
O180 C173 1.240 . S
O181 In169 2.326 . S
O181 C173 1.252 . S
In182 O183 2.294 . S
In182 O184 2.326 . S
In182 O188 2.266 . S
In182 O189 2.326 . S
In182 O190 2.266 . S
In182 O191 2.326 . S
In182 O193 2.294 . S
In182 O194 2.326 . S
O183 In182 2.294 . S
O183 C192 1.240 . S
O184 In182 2.326 . S
O184 C192 1.252 . S
C185 O188 1.252 . S
C185 O189 1.260 . S
C186 O193 1.240 . S
C186 O194 1.252 . S
C187 O190 1.252 . S
C187 O191 1.260 . S
O188 In182 2.266 . S
O188 C185 1.252 . S
O189 In182 2.326 . S
O189 C185 1.260 . S
O190 In182 2.266 . S
O190 C187 1.252 . S
O191 In182 2.326 . S
O191 C187 1.260 . S
C192 O183 1.240 . S
C192 O184 1.252 . S
O193 In182 2.294 . S
O193 C186 1.240 . S
O194 In182 2.326 . S
O194 C186 1.252 . S
In195 O196 2.294 . S
In195 O197 2.326 . S
In195 O201 2.266 . S
In195 O202 2.326 . S
In195 O203 2.266 . S
In195 O204 2.326 . S
In195 O206 2.294 . S
In195 O207 2.326 . S
O196 In195 2.294 . S
O196 C205 1.240 . S
O197 In195 2.326 . S
O197 C205 1.252 . S
C198 O201 1.252 . S
C198 O202 1.260 . S
C199 O206 1.240 . S
C199 O207 1.252 . S
C200 O203 1.252 . S
C200 O204 1.260 . S
O201 In195 2.266 . S
O201 C198 1.252 . S
O202 In195 2.326 . S
O202 C198 1.260 . S
O203 In195 2.266 . S
O203 C200 1.252 . S
O204 In195 2.326 . S
O204 C200 1.260 . S
C205 O196 1.240 . S
C205 O197 1.252 . S
O206 In195 2.294 . S
O206 C199 1.240 . S
O207 In195 2.326 . S
O207 C199 1.252 . S
In208 O209 2.294 . S
In208 O210 2.326 . S
In208 O214 2.266 . S
In208 O215 2.326 . S
In208 O216 2.266 . S
In208 O217 2.326 . S
In208 O219 2.294 . S
In208 O220 2.326 . S
O209 In208 2.294 . S
O209 C218 1.240 . S
O210 In208 2.326 . S
O210 C218 1.252 . S
C211 O214 1.252 . S
C211 O215 1.260 . S
C212 O219 1.240 . S
C212 O220 1.252 . S
C213 O216 1.252 . S
C213 O217 1.260 . S
O214 In208 2.266 . S
O214 C211 1.252 . S
O215 In208 2.326 . S
O215 C211 1.260 . S
O216 In208 2.266 . S
O216 C213 1.252 . S
O217 In208 2.326 . S
O217 C213 1.260 . S
C218 O209 1.240 . S
C218 O210 1.252 . S
O219 In208 2.294 . S
O219 C212 1.240 . S
O220 In208 2.326 . S
O220 C212 1.252 . S
In221 O222 2.294 . S
In221 O223 2.326 . S
In221 O227 2.266 . S
In221 O228 2.326 . S
In221 O229 2.266 . S
In221 O230 2.326 . S
In221 O232 2.294 . S
In221 O233 2.326 . S
O222 In221 2.294 . S
O222 C231 1.240 . S
O223 In221 2.326 . S
O223 C231 1.252 . S
C224 O227 1.252 . S
C224 O228 1.260 . S
C225 O232 1.240 . S
C225 O233 1.252 . S
C226 O229 1.252 . S
C226 O230 1.260 . S
O227 In221 2.266 . S
O227 C224 1.252 . S
O228 In221 2.326 . S
O228 C224 1.260 . S
O229 In221 2.266 . S
O229 C226 1.252 . S
O230 In221 2.326 . S
O230 C226 1.260 . S
C231 O222 1.240 . S
C231 O223 1.252 . S
O232 In221 2.294 . S
O232 C225 1.240 . S
O233 In221 2.326 . S
O233 C225 1.252 . S
In234 O235 2.294 . S
In234 O236 2.326 . S
In234 O240 2.266 . S
In234 O241 2.326 . S
In234 O242 2.266 . S
In234 O243 2.326 . S
In234 O245 2.294 . S
In234 O246 2.326 . S
O235 In234 2.294 . S
O235 C244 1.240 . S
O236 In234 2.326 . S
O236 C244 1.252 . S
C237 O240 1.252 . S
C237 O241 1.260 . S
C238 O245 1.240 . S
C238 O246 1.252 . S
C239 O242 1.252 . S
C239 O243 1.260 . S
O240 In234 2.266 . S
O240 C237 1.252 . S
O241 In234 2.326 . S
O241 C237 1.260 . S
O242 In234 2.266 . S
O242 C239 1.252 . S
O243 In234 2.326 . S
O243 C239 1.260 . S
C244 O235 1.240 . S
C244 O236 1.252 . S
O245 In234 2.294 . S
O245 C238 1.240 . S
O246 In234 2.326 . S
O246 C238 1.252 . S
In247 O248 2.294 . S
In247 O249 2.326 . S
In247 O253 2.266 . S
In247 O254 2.326 . S
In247 O255 2.266 . S
In247 O256 2.326 . S
In247 O258 2.294 . S
In247 O259 2.326 . S
O248 In247 2.294 . S
O248 C257 1.240 . S
O249 In247 2.326 . S
O249 C257 1.252 . S
C250 O253 1.252 . S
C250 O254 1.260 . S
C251 O258 1.240 . S
C251 O259 1.252 . S
C252 O255 1.252 . S
C252 O256 1.260 . S
O253 In247 2.266 . S
O253 C250 1.252 . S
O254 In247 2.326 . S
O254 C250 1.260 . S
O255 In247 2.266 . S
O255 C252 1.252 . S
O256 In247 2.326 . S
O256 C252 1.260 . S
C257 O248 1.240 . S
C257 O249 1.252 . S
O258 In247 2.294 . S
O258 C251 1.240 . S
O259 In247 2.326 . S
O259 C251 1.252 . S
In260 O261 2.294 . S
In260 O262 2.326 . S
In260 O266 2.266 . S
In260 O267 2.326 . S
In260 O268 2.266 . S
In260 O269 2.326 . S
In260 O271 2.294 . S
In260 O272 2.326 . S
O261 In260 2.294 . S
O261 C270 1.240 . S
O262 In260 2.326 . S
O262 C270 1.252 . S
C263 O266 1.252 . S
C263 O267 1.260 . S
C264 O271 1.240 . S
C264 O272 1.252 . S
C265 O268 1.252 . S
C265 O269 1.260 . S
O266 In260 2.266 . S
O266 C263 1.252 . S
O267 In260 2.326 . S
O267 C263 1.260 . S
O268 In260 2.266 . S
O268 C265 1.252 . S
O269 In260 2.326 . S
O269 C265 1.260 . S
C270 O261 1.240 . S
C270 O262 1.252 . S
O271 In260 2.294 . S
O271 C264 1.240 . S
O272 In260 2.326 . S
O272 C264 1.252 . S
In273 O274 2.294 . S
In273 O275 2.326 . S
In273 O279 2.266 . S
In273 O280 2.326 . S
In273 O281 2.266 . S
In273 O282 2.326 . S
In273 O284 2.294 . S
In273 O285 2.326 . S
O274 In273 2.294 . S
O274 C283 1.240 . S
O275 In273 2.326 . S
O275 C283 1.252 . S
C276 O279 1.252 . S
C276 O280 1.260 . S
C277 O284 1.240 . S
C277 O285 1.252 . S
C278 O281 1.252 . S
C278 O282 1.260 . S
O279 In273 2.266 . S
O279 C276 1.252 . S
O280 In273 2.326 . S
O280 C276 1.260 . S
O281 In273 2.266 . S
O281 C278 1.252 . S
O282 In273 2.326 . S
O282 C278 1.260 . S
C283 O274 1.240 . S
C283 O275 1.252 . S
O284 In273 2.294 . S
O284 C277 1.240 . S
O285 In273 2.326 . S
O285 C277 1.252 . S
In286 O287 2.294 . S
In286 O288 2.326 . S
In286 O292 2.266 . S
In286 O293 2.326 . S
In286 O294 2.266 . S
In286 O295 2.326 . S
In286 O297 2.294 . S
In286 O298 2.326 . S
O287 In286 2.294 . S
O287 C296 1.240 . S
O288 In286 2.326 . S
O288 C296 1.252 . S
C289 O292 1.252 . S
C289 O293 1.260 . S
C290 O297 1.240 . S
C290 O298 1.252 . S
C291 O294 1.252 . S
C291 O295 1.260 . S
O292 In286 2.266 . S
O292 C289 1.252 . S
O293 In286 2.326 . S
O293 C289 1.260 . S
O294 In286 2.266 . S
O294 C291 1.252 . S
O295 In286 2.326 . S
O295 C291 1.260 . S
C296 O287 1.240 . S
C296 O288 1.252 . S
O297 In286 2.294 . S
O297 C290 1.240 . S
O298 In286 2.326 . S
O298 C290 1.252 . S
In299 O300 2.294 . S
In299 O301 2.326 . S
In299 O305 2.266 . S
In299 O306 2.326 . S
In299 O307 2.266 . S
In299 O308 2.326 . S
In299 O310 2.294 . S
In299 O311 2.326 . S
O300 In299 2.294 . S
O300 C309 1.240 . S
O301 In299 2.326 . S
O301 C309 1.252 . S
C302 O305 1.252 . S
C302 O306 1.260 . S
C303 O310 1.240 . S
C303 O311 1.252 . S
C304 O307 1.252 . S
C304 O308 1.260 . S
O305 In299 2.266 . S
O305 C302 1.252 . S
O306 In299 2.326 . S
O306 C302 1.260 . S
O307 In299 2.266 . S
O307 C304 1.252 . S
O308 In299 2.326 . S
O308 C304 1.260 . S
C309 O300 1.240 . S
C309 O301 1.252 . S
O310 In299 2.294 . S
O310 C303 1.240 . S
O311 In299 2.326 . S
O311 C303 1.252 . S
C312 C313 1.369 . S
C312 C314 1.419 . S
C312 H316 0.930 . S
C313 C312 1.369 . S
C313 C322 1.429 . S
C314 C312 1.419 . S
C314 C315 1.363 . S
C314 H317 0.929 . S
C315 C314 1.363 . S
C315 C321 1.428 . S
H316 C312 0.930 . S
H317 C314 0.929 . S
S318 N319 1.613 . S
S318 N320 1.610 . S
N319 S318 1.613 . S
N319 C322 1.350 . S
N320 S318 1.610 . S
N320 C321 1.351 . S
C321 C315 1.428 . S
C321 N320 1.351 . S
C321 C322 1.434 . S
C322 C313 1.429 . S
C322 N319 1.350 . S
C322 C321 1.434 . S
C323 C324 1.369 . S
C323 C325 1.419 . S
C323 H327 0.930 . S
C324 C323 1.369 . S
C324 C333 1.429 . S
C325 C323 1.419 . S
C325 C326 1.363 . S
C325 H328 0.929 . S
C326 C325 1.363 . S
C326 C332 1.428 . S
H327 C323 0.930 . S
H328 C325 0.929 . S
S329 N330 1.613 . S
S329 N331 1.610 . S
N330 S329 1.613 . S
N330 C333 1.350 . S
N331 S329 1.610 . S
N331 C332 1.351 . S
C332 C326 1.428 . S
C332 N331 1.351 . S
C332 C333 1.434 . S
C333 C324 1.429 . S
C333 N330 1.350 . S
C333 C332 1.434 . S
C334 C335 1.369 . S
C334 C336 1.419 . S
C334 H338 0.930 . S
C335 C334 1.369 . S
C335 C344 1.429 . S
C336 C334 1.419 . S
C336 C337 1.363 . S
C336 H339 0.929 . S
C337 C336 1.363 . S
C337 C343 1.428 . S
H338 C334 0.930 . S
H339 C336 0.929 . S
S340 N341 1.613 . S
S340 N342 1.610 . S
N341 S340 1.613 . S
N341 C344 1.350 . S
N342 S340 1.610 . S
N342 C343 1.351 . S
C343 C337 1.428 . S
C343 N342 1.351 . S
C343 C344 1.434 . S
C344 C335 1.429 . S
C344 N341 1.350 . S
C344 C343 1.434 . S
C345 C346 1.369 . S
C345 C347 1.419 . S
C345 H349 0.930 . S
C346 C345 1.369 . S
C346 C355 1.429 . S
C347 C345 1.419 . S
C347 C348 1.363 . S
C347 H350 0.929 . S
C348 C347 1.363 . S
C348 C354 1.428 . S
H349 C345 0.930 . S
H350 C347 0.929 . S
S351 N352 1.613 . S
S351 N353 1.610 . S
N352 S351 1.613 . S
N352 C355 1.350 . S
N353 S351 1.610 . S
N353 C354 1.351 . S
C354 C348 1.428 . S
C354 N353 1.351 . S
C354 C355 1.434 . S
C355 C346 1.429 . S
C355 N352 1.350 . S
C355 C354 1.434 . S
C356 C357 1.369 . S
C356 C358 1.419 . S
C356 H360 0.930 . S
C357 C356 1.369 . S
C357 C366 1.429 . S
C358 C356 1.419 . S
C358 C359 1.363 . S
C358 H361 0.929 . S
C359 C358 1.363 . S
C359 C365 1.428 . S
H360 C356 0.930 . S
H361 C358 0.929 . S
S362 N363 1.613 . S
S362 N364 1.610 . S
N363 S362 1.613 . S
N363 C366 1.350 . S
N364 S362 1.610 . S
N364 C365 1.351 . S
C365 C359 1.428 . S
C365 N364 1.351 . S
C365 C366 1.434 . S
C366 C357 1.429 . S
C366 N363 1.350 . S
C366 C365 1.434 . S
C367 C368 1.369 . S
C367 C369 1.419 . S
C367 H371 0.930 . S
C368 C367 1.369 . S
C368 C377 1.429 . S
C369 C367 1.419 . S
C369 C370 1.363 . S
C369 H372 0.929 . S
C370 C369 1.363 . S
C370 C376 1.428 . S
H371 C367 0.930 . S
H372 C369 0.929 . S
S373 N374 1.613 . S
S373 N375 1.610 . S
N374 S373 1.613 . S
N374 C377 1.350 . S
N375 S373 1.610 . S
N375 C376 1.351 . S
C376 C370 1.428 . S
C376 N375 1.351 . S
C376 C377 1.434 . S
C377 C368 1.429 . S
C377 N374 1.350 . S
C377 C376 1.434 . S
C378 C379 1.369 . S
C378 C380 1.419 . S
C378 H382 0.930 . S
C379 C378 1.369 . S
C379 C388 1.429 . S
C380 C378 1.419 . S
C380 C381 1.363 . S
C380 H383 0.929 . S
C381 C380 1.363 . S
C381 C387 1.428 . S
H382 C378 0.930 . S
H383 C380 0.929 . S
S384 N385 1.613 . S
S384 N386 1.610 . S
N385 S384 1.613 . S
N385 C388 1.350 . S
N386 S384 1.610 . S
N386 C387 1.351 . S
C387 C381 1.428 . S
C387 N386 1.351 . S
C387 C388 1.434 . S
C388 C379 1.429 . S
C388 N385 1.350 . S
C388 C387 1.434 . S
C389 C390 1.369 . S
C389 C391 1.419 . S
C389 H393 0.930 . S
C390 C389 1.369 . S
C390 C399 1.429 . S
C391 C389 1.419 . S
C391 C392 1.363 . S
C391 H394 0.929 . S
C392 C391 1.363 . S
C392 C398 1.428 . S
H393 C389 0.930 . S
H394 C391 0.929 . S
S395 N396 1.613 . S
S395 N397 1.610 . S
N396 S395 1.613 . S
N396 C399 1.350 . S
N397 S395 1.610 . S
N397 C398 1.351 . S
C398 C392 1.428 . S
C398 N397 1.351 . S
C398 C399 1.434 . S
C399 C390 1.429 . S
C399 N396 1.350 . S
C399 C398 1.434 . S
C400 C401 1.369 . S
C400 C402 1.419 . S
C400 H404 0.930 . S
C401 C400 1.369 . S
C401 C410 1.429 . S
C402 C400 1.419 . S
C402 C403 1.363 . S
C402 H405 0.929 . S
C403 C402 1.363 . S
C403 C409 1.428 . S
H404 C400 0.930 . S
H405 C402 0.929 . S
S406 N407 1.613 . S
S406 N408 1.610 . S
N407 S406 1.613 . S
N407 C410 1.350 . S
N408 S406 1.610 . S
N408 C409 1.351 . S
C409 C403 1.428 . S
C409 N408 1.351 . S
C409 C410 1.434 . S
C410 C401 1.429 . S
C410 N407 1.350 . S
C410 C409 1.434 . S
C411 C412 1.369 . S
C411 C413 1.419 . S
C411 H415 0.930 . S
C412 C411 1.369 . S
C412 C421 1.429 . S
C413 C411 1.419 . S
C413 C414 1.363 . S
C413 H416 0.929 . S
C414 C413 1.363 . S
C414 C420 1.428 . S
H415 C411 0.930 . S
H416 C413 0.929 . S
S417 N418 1.613 . S
S417 N419 1.610 . S
N418 S417 1.613 . S
N418 C421 1.350 . S
N419 S417 1.610 . S
N419 C420 1.351 . S
C420 C414 1.428 . S
C420 N419 1.351 . S
C420 C421 1.434 . S
C421 C412 1.429 . S
C421 N418 1.350 . S
C421 C420 1.434 . S
C422 C423 1.369 . S
C422 C424 1.419 . S
C422 H426 0.930 . S
C423 C422 1.369 . S
C423 C432 1.429 . S
C424 C422 1.419 . S
C424 C425 1.363 . S
C424 H427 0.929 . S
C425 C424 1.363 . S
C425 C431 1.428 . S
H426 C422 0.930 . S
H427 C424 0.929 . S
S428 N429 1.613 . S
S428 N430 1.610 . S
N429 S428 1.613 . S
N429 C432 1.350 . S
N430 S428 1.610 . S
N430 C431 1.351 . S
C431 C425 1.428 . S
C431 N430 1.351 . S
C431 C432 1.434 . S
C432 C423 1.429 . S
C432 N429 1.350 . S
C432 C431 1.434 . S
C433 C434 1.369 . S
C433 C435 1.419 . S
C433 H437 0.930 . S
C434 C433 1.369 . S
C434 C443 1.429 . S
C435 C433 1.419 . S
C435 C436 1.363 . S
C435 H438 0.929 . S
C436 C435 1.363 . S
C436 C442 1.428 . S
H437 C433 0.930 . S
H438 C435 0.929 . S
S439 N440 1.613 . S
S439 N441 1.610 . S
N440 S439 1.613 . S
N440 C443 1.350 . S
N441 S439 1.610 . S
N441 C442 1.351 . S
C442 C436 1.428 . S
C442 N441 1.351 . S
C442 C443 1.434 . S
C443 C434 1.429 . S
C443 N440 1.350 . S
C443 C442 1.434 . S
C444 C445 1.369 . S
C444 C446 1.419 . S
C444 H448 0.930 . S
C445 C444 1.369 . S
C445 C454 1.429 . S
C446 C444 1.419 . S
C446 C447 1.363 . S
C446 H449 0.929 . S
C447 C446 1.363 . S
C447 C453 1.428 . S
H448 C444 0.930 . S
H449 C446 0.929 . S
S450 N451 1.613 . S
S450 N452 1.610 . S
N451 S450 1.613 . S
N451 C454 1.350 . S
N452 S450 1.610 . S
N452 C453 1.351 . S
C453 C447 1.428 . S
C453 N452 1.351 . S
C453 C454 1.434 . S
C454 C445 1.429 . S
C454 N451 1.350 . S
C454 C453 1.434 . S
C455 C456 1.369 . S
C455 C457 1.419 . S
C455 H459 0.930 . S
C456 C455 1.369 . S
C456 C465 1.429 . S
C457 C455 1.419 . S
C457 C458 1.363 . S
C457 H460 0.929 . S
C458 C457 1.363 . S
C458 C464 1.428 . S
H459 C455 0.930 . S
H460 C457 0.929 . S
S461 N462 1.613 . S
S461 N463 1.610 . S
N462 S461 1.613 . S
N462 C465 1.350 . S
N463 S461 1.610 . S
N463 C464 1.351 . S
C464 C458 1.428 . S
C464 N463 1.351 . S
C464 C465 1.434 . S
C465 C456 1.429 . S
C465 N462 1.350 . S
C465 C464 1.434 . S
C466 C467 1.369 . S
C466 C468 1.419 . S
C466 H470 0.930 . S
C467 C466 1.369 . S
C467 C476 1.429 . S
C468 C466 1.419 . S
C468 C469 1.363 . S
C468 H471 0.929 . S
C469 C468 1.363 . S
C469 C475 1.428 . S
H470 C466 0.930 . S
H471 C468 0.929 . S
S472 N473 1.613 . S
S472 N474 1.610 . S
N473 S472 1.613 . S
N473 C476 1.350 . S
N474 S472 1.610 . S
N474 C475 1.351 . S
C475 C469 1.428 . S
C475 N474 1.351 . S
C475 C476 1.434 . S
C476 C467 1.429 . S
C476 N473 1.350 . S
C476 C475 1.434 . S
C477 C478 1.369 . S
C477 C479 1.419 . S
C477 H481 0.930 . S
C478 C477 1.369 . S
C478 C487 1.429 . S
C479 C477 1.419 . S
C479 C480 1.363 . S
C479 H482 0.929 . S
C480 C479 1.363 . S
C480 C486 1.428 . S
H481 C477 0.930 . S
H482 C479 0.929 . S
S483 N484 1.613 . S
S483 N485 1.610 . S
N484 S483 1.613 . S
N484 C487 1.350 . S
N485 S483 1.610 . S
N485 C486 1.351 . S
C486 C480 1.428 . S
C486 N485 1.351 . S
C486 C487 1.434 . S
C487 C478 1.429 . S
C487 N484 1.350 . S
C487 C486 1.434 . S
C488 C489 1.369 . S
C488 C490 1.419 . S
C488 H492 0.930 . S
C489 C488 1.369 . S
C489 C498 1.429 . S
C490 C488 1.419 . S
C490 C491 1.363 . S
C490 H493 0.929 . S
C491 C490 1.363 . S
C491 C497 1.428 . S
H492 C488 0.930 . S
H493 C490 0.929 . S
S494 N495 1.613 . S
S494 N496 1.610 . S
N495 S494 1.613 . S
N495 C498 1.350 . S
N496 S494 1.610 . S
N496 C497 1.351 . S
C497 C491 1.428 . S
C497 N496 1.351 . S
C497 C498 1.434 . S
C498 C489 1.429 . S
C498 N495 1.350 . S
C498 C497 1.434 . S
C499 C500 1.369 . S
C499 C501 1.419 . S
C499 H503 0.930 . S
C500 C499 1.369 . S
C500 C509 1.429 . S
C501 C499 1.419 . S
C501 C502 1.363 . S
C501 H504 0.929 . S
C502 C501 1.363 . S
C502 C508 1.428 . S
H503 C499 0.930 . S
H504 C501 0.929 . S
S505 N506 1.613 . S
S505 N507 1.610 . S
N506 S505 1.613 . S
N506 C509 1.350 . S
N507 S505 1.610 . S
N507 C508 1.351 . S
C508 C502 1.428 . S
C508 N507 1.351 . S
C508 C509 1.434 . S
C509 C500 1.429 . S
C509 N506 1.350 . S
C509 C508 1.434 . S
C510 C511 1.369 . S
C510 C512 1.419 . S
C510 H514 0.930 . S
C511 C510 1.369 . S
C511 C520 1.429 . S
C512 C510 1.419 . S
C512 C513 1.363 . S
C512 H515 0.929 . S
C513 C512 1.363 . S
C513 C519 1.428 . S
H514 C510 0.930 . S
H515 C512 0.929 . S
S516 N517 1.613 . S
S516 N518 1.610 . S
N517 S516 1.613 . S
N517 C520 1.350 . S
N518 S516 1.610 . S
N518 C519 1.351 . S
C519 C513 1.428 . S
C519 N518 1.351 . S
C519 C520 1.434 . S
C520 C511 1.429 . S
C520 N517 1.350 . S
C520 C519 1.434 . S
C521 C522 1.369 . S
C521 C523 1.419 . S
C521 H525 0.930 . S
C522 C521 1.369 . S
C522 C531 1.429 . S
C523 C521 1.419 . S
C523 C524 1.363 . S
C523 H526 0.929 . S
C524 C523 1.363 . S
C524 C530 1.428 . S
H525 C521 0.930 . S
H526 C523 0.929 . S
S527 N528 1.613 . S
S527 N529 1.610 . S
N528 S527 1.613 . S
N528 C531 1.350 . S
N529 S527 1.610 . S
N529 C530 1.351 . S
C530 C524 1.428 . S
C530 N529 1.351 . S
C530 C531 1.434 . S
C531 C522 1.429 . S
C531 N528 1.350 . S
C531 C530 1.434 . S
C532 C533 1.369 . S
C532 C534 1.419 . S
C532 H536 0.930 . S
C533 C532 1.369 . S
C533 C542 1.429 . S
C534 C532 1.419 . S
C534 C535 1.363 . S
C534 H537 0.929 . S
C535 C534 1.363 . S
C535 C541 1.428 . S
H536 C532 0.930 . S
H537 C534 0.929 . S
S538 N539 1.613 . S
S538 N540 1.610 . S
N539 S538 1.613 . S
N539 C542 1.350 . S
N540 S538 1.610 . S
N540 C541 1.351 . S
C541 C535 1.428 . S
C541 N540 1.351 . S
C541 C542 1.434 . S
C542 C533 1.429 . S
C542 N539 1.350 . S
C542 C541 1.434 . S
C543 C544 1.369 . S
C543 C545 1.419 . S
C543 H547 0.930 . S
C544 C543 1.369 . S
C544 C553 1.429 . S
C545 C543 1.419 . S
C545 C546 1.363 . S
C545 H548 0.929 . S
C546 C545 1.363 . S
C546 C552 1.428 . S
H547 C543 0.930 . S
H548 C545 0.929 . S
S549 N550 1.613 . S
S549 N551 1.610 . S
N550 S549 1.613 . S
N550 C553 1.350 . S
N551 S549 1.610 . S
N551 C552 1.351 . S
C552 C546 1.428 . S
C552 N551 1.351 . S
C552 C553 1.434 . S
C553 C544 1.429 . S
C553 N550 1.350 . S
C553 C552 1.434 . S
C554 C555 1.369 . S
C554 C556 1.419 . S
C554 H558 0.930 . S
C555 C554 1.369 . S
C555 C564 1.429 . S
C556 C554 1.419 . S
C556 C557 1.363 . S
C556 H559 0.929 . S
C557 C556 1.363 . S
C557 C563 1.428 . S
H558 C554 0.930 . S
H559 C556 0.929 . S
S560 N561 1.613 . S
S560 N562 1.610 . S
N561 S560 1.613 . S
N561 C564 1.350 . S
N562 S560 1.610 . S
N562 C563 1.351 . S
C563 C557 1.428 . S
C563 N562 1.351 . S
C563 C564 1.434 . S
C564 C555 1.429 . S
C564 N561 1.350 . S
C564 C563 1.434 . S
C565 C566 1.369 . S
C565 C567 1.419 . S
C565 H569 0.930 . S
C566 C565 1.369 . S
C566 C575 1.429 . S
C567 C565 1.419 . S
C567 C568 1.363 . S
C567 H570 0.929 . S
C568 C567 1.363 . S
C568 C574 1.428 . S
H569 C565 0.930 . S
H570 C567 0.929 . S
S571 N572 1.613 . S
S571 N573 1.610 . S
N572 S571 1.613 . S
N572 C575 1.350 . S
N573 S571 1.610 . S
N573 C574 1.351 . S
C574 C568 1.428 . S
C574 N573 1.351 . S
C574 C575 1.434 . S
C575 C566 1.429 . S
C575 N572 1.350 . S
C575 C574 1.434 . S
C576 C577 1.369 . S
C576 C578 1.419 . S
C576 H580 0.930 . S
C577 C576 1.369 . S
C577 C586 1.429 . S
C578 C576 1.419 . S
C578 C579 1.363 . S
C578 H581 0.929 . S
C579 C578 1.363 . S
C579 C585 1.428 . S
H580 C576 0.930 . S
H581 C578 0.929 . S
S582 N583 1.613 . S
S582 N584 1.610 . S
N583 S582 1.613 . S
N583 C586 1.350 . S
N584 S582 1.610 . S
N584 C585 1.351 . S
C585 C579 1.428 . S
C585 N584 1.351 . S
C585 C586 1.434 . S
C586 C577 1.429 . S
C586 N583 1.350 . S
C586 C585 1.434 . S
C587 C588 1.369 . S
C587 C589 1.419 . S
C587 H591 0.930 . S
C588 C587 1.369 . S
C588 C597 1.429 . S
C589 C587 1.419 . S
C589 C590 1.363 . S
C589 H592 0.929 . S
C590 C589 1.363 . S
C590 C596 1.428 . S
H591 C587 0.930 . S
H592 C589 0.929 . S
S593 N594 1.613 1_556 S
S593 N595 1.610 . S
N594 S593 1.613 1_554 S
N594 C597 1.350 1_554 S
N595 S593 1.610 . S
N595 C596 1.351 . S
C596 C590 1.428 . S
C596 N595 1.351 . S
C596 C597 1.434 . S
C597 C588 1.429 . S
C597 N594 1.350 1_556 S
C597 C596 1.434 . S
C598 C599 1.369 . S
C598 C600 1.419 . S
C598 H602 0.930 . S
C599 C598 1.369 . S
C599 C608 1.429 . S
C600 C598 1.419 . S
C600 C601 1.363 . S
C600 H603 0.929 . S
C601 C600 1.363 . S
C601 C607 1.428 . S
H602 C598 0.930 . S
H603 C600 0.929 . S
S604 N605 1.613 . S
S604 N606 1.610 . S
N605 S604 1.613 . S
N605 C608 1.350 . S
N606 S604 1.610 . S
N606 C607 1.351 . S
C607 C601 1.428 . S
C607 N606 1.351 . S
C607 C608 1.434 . S
C608 C599 1.429 . S
C608 N605 1.350 . S
C608 C607 1.434 . S
C609 C610 1.369 . S
C609 C611 1.419 . S
C609 H613 0.930 . S
C610 C609 1.369 . S
C610 C619 1.429 . S
C611 C609 1.419 . S
C611 C612 1.363 . S
C611 H614 0.929 . S
C612 C611 1.363 . S
C612 C618 1.428 . S
H613 C609 0.930 . S
H614 C611 0.929 . S
S615 N616 1.613 . S
S615 N617 1.610 . S
N616 S615 1.613 . S
N616 C619 1.350 . S
N617 S615 1.610 . S
N617 C618 1.351 . S
C618 C612 1.428 . S
C618 N617 1.351 . S
C618 C619 1.434 . S
C619 C610 1.429 . S
C619 N616 1.350 . S
C619 C618 1.434 . S
C620 C621 1.369 . S
C620 C622 1.419 . S
C620 H624 0.930 . S
C621 C620 1.369 . S
C621 C630 1.429 . S
C622 C620 1.419 . S
C622 C623 1.363 . S
C622 H625 0.929 . S
C623 C622 1.363 . S
C623 C629 1.428 . S
H624 C620 0.930 . S
H625 C622 0.929 . S
S626 N627 1.613 . S
S626 N628 1.610 . S
N627 S626 1.613 . S
N627 C630 1.350 . S
N628 S626 1.610 . S
N628 C629 1.351 . S
C629 C623 1.428 . S
C629 N628 1.351 . S
C629 C630 1.434 . S
C630 C621 1.429 . S
C630 N627 1.350 . S
C630 C629 1.434 . S
C631 C632 1.369 . S
C631 C633 1.419 . S
C631 H635 0.930 . S
C632 C631 1.369 . S
C632 C641 1.429 . S
C633 C631 1.419 . S
C633 C634 1.363 . S
C633 H636 0.929 . S
C634 C633 1.363 . S
C634 C640 1.428 . S
H635 C631 0.930 . S
H636 C633 0.929 . S
S637 N638 1.613 . S
S637 N639 1.610 . S
N638 S637 1.613 . S
N638 C641 1.350 . S
N639 S637 1.610 . S
N639 C640 1.351 . S
C640 C634 1.428 . S
C640 N639 1.351 . S
C640 C641 1.434 . S
C641 C632 1.429 . S
C641 N638 1.350 . S
C641 C640 1.434 . S
C642 C643 1.369 . S
C642 C644 1.419 . S
C642 H646 0.940 . S
C643 C642 1.369 . S
C643 C652 1.429 . S
C644 C642 1.419 . S
C644 C645 1.363 . S
C644 H647 0.929 . S
C645 C644 1.363 . S
C645 C651 1.428 . S
H646 C642 0.940 . S
H647 C644 0.929 . S
S648 N649 1.613 . S
S648 N650 1.610 . S
N649 S648 1.613 . S
N649 C652 1.350 . S
N650 S648 1.610 . S
N650 C651 1.351 . S
C651 C645 1.428 . S
C651 N650 1.351 . S
C651 C652 1.434 . S
C652 C643 1.429 . S
C652 N649 1.350 . S
C652 C651 1.434 . S
C653 C654 1.369 . S
C653 C655 1.419 . S
C653 H657 0.930 . S
C654 C653 1.369 . S
C654 C663 1.429 . S
C655 C653 1.419 . S
C655 C656 1.363 . S
C655 H658 0.929 . S
C656 C655 1.363 . S
C656 C662 1.428 . S
H657 C653 0.930 . S
H658 C655 0.929 . S
S659 N660 1.613 . S
S659 N661 1.610 . S
N660 S659 1.613 . S
N660 C663 1.350 . S
N661 S659 1.610 . S
N661 C662 1.351 . S
C662 C656 1.428 . S
C662 N661 1.351 . S
C662 C663 1.434 . S
C663 C654 1.429 . S
C663 N660 1.350 . S
C663 C662 1.434 . S
C664 C665 1.369 . S
C664 C666 1.419 . S
C664 H668 0.930 . S
C665 C664 1.369 . S
C665 C674 1.429 . S
C666 C664 1.419 . S
C666 C667 1.363 . S
C666 H669 0.929 . S
C667 C666 1.363 . S
C667 C673 1.428 . S
H668 C664 0.930 . S
H669 C666 0.929 . S
S670 N671 1.613 . S
S670 N672 1.610 . S
N671 S670 1.613 . S
N671 C674 1.350 . S
N672 S670 1.610 . S
N672 C673 1.351 . S
C673 C667 1.428 . S
C673 N672 1.351 . S
C673 C674 1.434 . S
C674 C665 1.429 . S
C674 N671 1.350 . S
C674 C673 1.434 . S
C675 C676 1.369 . S
C675 C677 1.419 . S
C675 H679 0.930 . S
C676 C675 1.369 . S
C676 C685 1.429 . S
C677 C675 1.419 . S
C677 C678 1.363 . S
C677 H680 0.929 . S
C678 C677 1.363 . S
C678 C684 1.428 . S
H679 C675 0.930 . S
H680 C677 0.929 . S
S681 N682 1.613 1_545 S
S681 N683 1.610 . S
N682 S681 1.613 1_565 S
N682 C685 1.350 1_565 S
N683 S681 1.610 . S
N683 C684 1.351 . S
C684 C678 1.428 . S
C684 N683 1.351 . S
C684 C685 1.434 . S
C685 C676 1.429 . S
C685 N682 1.350 1_545 S
C685 C684 1.434 . S
C686 C687 1.369 . S
C686 C688 1.419 . S
C686 H690 0.930 . S
C687 C686 1.369 . S
C687 C696 1.429 . S
C688 C686 1.419 . S
C688 C689 1.363 . S
C688 H691 0.929 . S
C689 C688 1.363 . S
C689 C695 1.428 . S
H690 C686 0.930 . S
H691 C688 0.929 . S
S692 N693 1.613 . S
S692 N694 1.610 . S
N693 S692 1.613 . S
N693 C696 1.350 . S
N694 S692 1.610 . S
N694 C695 1.351 . S
C695 C689 1.428 . S
C695 N694 1.351 . S
C695 C696 1.434 . S
C696 C687 1.429 . S
C696 N693 1.350 . S
C696 C695 1.434 . S
C697 C698 1.369 . S
C697 C699 1.419 . S
C697 H701 0.930 . S
C698 C697 1.369 . S
C698 C707 1.429 . S
C699 C697 1.419 . S
C699 C700 1.363 . S
C699 H702 0.929 . S
C700 C699 1.363 . S
C700 C706 1.428 . S
H701 C697 0.930 . S
H702 C699 0.929 . S
S703 N704 1.613 . S
S703 N705 1.610 . S
N704 S703 1.613 . S
N704 C707 1.350 . S
N705 S703 1.610 . S
N705 C706 1.351 . S
C706 C700 1.428 . S
C706 N705 1.351 . S
C706 C707 1.434 . S
C707 C698 1.429 . S
C707 N704 1.350 . S
C707 C706 1.434 . S
C708 C709 1.369 . S
C708 C710 1.419 . S
C708 H712 0.930 . S
C709 C708 1.369 . S
C709 C718 1.429 . S
C710 C708 1.419 . S
C710 C711 1.363 . S
C710 H713 0.929 . S
C711 C710 1.363 . S
C711 C717 1.428 . S
H712 C708 0.930 . S
H713 C710 0.929 . S
S714 N715 1.613 . S
S714 N716 1.610 . S
N715 S714 1.613 . S
N715 C718 1.350 . S
N716 S714 1.610 . S
N716 C717 1.351 . S
C717 C711 1.428 . S
C717 N716 1.351 . S
C717 C718 1.434 . S
C718 C709 1.429 . S
C718 N715 1.350 . S
C718 C717 1.434 . S
C719 C720 1.369 . S
C719 C721 1.419 . S
C719 H723 0.930 . S
C720 C719 1.369 . S
C720 C729 1.429 . S
C721 C719 1.419 . S
C721 C722 1.363 . S
C721 H724 0.929 . S
C722 C721 1.363 . S
C722 C728 1.428 . S
H723 C719 0.930 . S
H724 C721 0.929 . S
S725 N726 1.613 . S
S725 N727 1.610 . S
N726 S725 1.613 . S
N726 C729 1.350 . S
N727 S725 1.610 . S
N727 C728 1.351 . S
C728 C722 1.428 . S
C728 N727 1.351 . S
C728 C729 1.434 . S
C729 C720 1.429 . S
C729 N726 1.350 . S
C729 C728 1.434 . S
C730 C731 1.369 . S
C730 C732 1.419 . S
C730 H734 0.930 . S
C731 C730 1.369 . S
C731 C740 1.429 . S
C732 C730 1.419 . S
C732 C733 1.363 . S
C732 H735 0.929 . S
C733 C732 1.363 . S
C733 C739 1.428 . S
H734 C730 0.930 . S
H735 C732 0.929 . S
S736 N737 1.613 . S
S736 N738 1.610 . S
N737 S736 1.613 . S
N737 C740 1.350 . S
N738 S736 1.610 . S
N738 C739 1.351 . S
C739 C733 1.428 . S
C739 N738 1.351 . S
C739 C740 1.434 . S
C740 C731 1.429 . S
C740 N737 1.350 . S
C740 C739 1.434 . S
C741 C742 1.369 . S
C741 C743 1.419 . S
C741 H745 0.930 . S
C742 C741 1.369 . S
C742 C751 1.429 . S
C743 C741 1.419 . S
C743 C744 1.363 . S
C743 H746 0.929 . S
C744 C743 1.363 . S
C744 C750 1.428 . S
H745 C741 0.930 . S
H746 C743 0.929 . S
S747 N748 1.613 . S
S747 N749 1.610 . S
N748 S747 1.613 . S
N748 C751 1.350 . S
N749 S747 1.610 . S
N749 C750 1.351 . S
C750 C744 1.428 . S
C750 N749 1.351 . S
C750 C751 1.434 . S
C751 C742 1.429 . S
C751 N748 1.350 . S
C751 C750 1.434 . S
C752 C753 1.369 . S
C752 C754 1.419 . S
C752 H756 0.930 . S
C753 C752 1.369 . S
C753 C762 1.429 . S
C754 C752 1.419 . S
C754 C755 1.363 . S
C754 H757 0.929 . S
C755 C754 1.363 . S
C755 C761 1.428 . S
H756 C752 0.930 . S
H757 C754 0.929 . S
S758 N759 1.613 . S
S758 N760 1.610 . S
N759 S758 1.613 . S
N759 C762 1.350 . S
N760 S758 1.610 . S
N760 C761 1.351 . S
C761 C755 1.428 . S
C761 N760 1.351 . S
C761 C762 1.434 . S
C762 C753 1.429 . S
C762 N759 1.350 . S
C762 C761 1.434 . S
C763 C764 1.369 . S
C763 C765 1.419 . S
C763 H767 0.930 . S
C764 C763 1.369 . S
C764 C773 1.429 . S
C765 C763 1.419 . S
C765 C766 1.363 . S
C765 H768 0.929 . S
C766 C765 1.363 . S
C766 C772 1.428 . S
H767 C763 0.930 . S
H768 C765 0.929 . S
S769 N770 1.613 . S
S769 N771 1.610 . S
N770 S769 1.613 . S
N770 C773 1.350 . S
N771 S769 1.610 . S
N771 C772 1.351 . S
C772 C766 1.428 . S
C772 N771 1.351 . S
C772 C773 1.434 . S
C773 C764 1.429 . S
C773 N770 1.350 . S
C773 C772 1.434 . S
C774 C775 1.369 . S
C774 C776 1.419 . S
C774 H778 0.930 . S
C775 C774 1.369 . S
C775 C784 1.429 . S
C776 C774 1.419 . S
C776 C777 1.363 . S
C776 H779 0.929 . S
C777 C776 1.363 . S
C777 C783 1.428 . S
H778 C774 0.930 . S
H779 C776 0.929 . S
S780 N781 1.613 . S
S780 N782 1.610 . S
N781 S780 1.613 . S
N781 C784 1.350 . S
N782 S780 1.610 . S
N782 C783 1.351 . S
C783 C777 1.428 . S
C783 N782 1.351 . S
C783 C784 1.434 . S
C784 C775 1.429 . S
C784 N781 1.350 . S
C784 C783 1.434 . S
C785 C786 1.369 . S
C785 C787 1.419 . S
C785 H789 0.930 . S
C786 C785 1.369 . S
C786 C795 1.429 . S
C787 C785 1.419 . S
C787 C788 1.363 . S
C787 H790 0.929 . S
C788 C787 1.363 . S
C788 C794 1.428 . S
H789 C785 0.930 . S
H790 C787 0.929 . S
S791 N792 1.613 . S
S791 N793 1.610 . S
N792 S791 1.613 . S
N792 C795 1.350 . S
N793 S791 1.610 . S
N793 C794 1.351 . S
C794 C788 1.428 . S
C794 N793 1.351 . S
C794 C795 1.434 . S
C795 C786 1.429 . S
C795 N792 1.350 . S
C795 C794 1.434 . S
C796 C797 1.369 . S
C796 C798 1.419 . S
C796 H800 0.930 . S
C797 C796 1.369 . S
C797 C806 1.429 . S
C798 C796 1.419 . S
C798 C799 1.363 . S
C798 H801 0.929 . S
C799 C798 1.363 . S
C799 C805 1.428 . S
H800 C796 0.930 . S
H801 C798 0.929 . S
S802 N803 1.613 . S
S802 N804 1.610 . S
N803 S802 1.613 . S
N803 C806 1.350 . S
N804 S802 1.610 . S
N804 C805 1.351 . S
C805 C799 1.428 . S
C805 N804 1.351 . S
C805 C806 1.434 . S
C806 C797 1.429 . S
C806 N803 1.350 . S
C806 C805 1.434 . S
C807 C808 1.369 . S
C807 C809 1.419 . S
C807 H811 0.930 . S
C808 C807 1.369 . S
C808 C817 1.429 . S
C809 C807 1.419 . S
C809 C810 1.363 . S
C809 H812 0.917 1_565 S
C810 C809 1.363 . S
C810 C816 1.428 . S
H811 C807 0.930 . S
H812 C809 0.917 1_545 S
S813 N814 1.613 . S
S813 N815 1.610 . S
N814 S813 1.613 . S
N814 C817 1.350 . S
N815 S813 1.610 . S
N815 C816 1.351 . S
C816 C810 1.428 . S
C816 N815 1.351 . S
C816 C817 1.434 . S
C817 C808 1.429 . S
C817 N814 1.350 . S
C817 C816 1.434 . S
C818 C819 1.369 . S
C818 C820 1.419 . S
C818 H822 0.930 . S
C819 C818 1.369 . S
C819 C828 1.429 . S
C820 C818 1.419 . S
C820 C821 1.363 . S
C820 H823 0.929 . S
C821 C820 1.363 . S
C821 C827 1.428 . S
H822 C818 0.930 . S
H823 C820 0.929 . S
S824 N825 1.613 . S
S824 N826 1.610 . S
N825 S824 1.613 . S
N825 C828 1.350 . S
N826 S824 1.610 . S
N826 C827 1.351 . S
C827 C821 1.428 . S
C827 N826 1.351 . S
C827 C828 1.434 . S
C828 C819 1.429 . S
C828 N825 1.350 . S
C828 C827 1.434 . S
C829 C830 1.369 . S
C829 C831 1.419 . S
C829 H833 0.930 . S
C830 C829 1.369 . S
C830 C839 1.429 . S
C831 C829 1.419 . S
C831 C832 1.363 . S
C831 H834 0.929 . S
C832 C831 1.363 . S
C832 C838 1.428 . S
H833 C829 0.930 . S
H834 C831 0.929 . S
S835 N836 1.613 . S
S835 N837 1.610 . S
N836 S835 1.613 . S
N836 C839 1.350 . S
N837 S835 1.610 . S
N837 C838 1.351 . S
C838 C832 1.428 . S
C838 N837 1.351 . S
C838 C839 1.434 . S
C839 C830 1.429 . S
C839 N836 1.350 . S
C839 C838 1.434 . S
C313 C107 1.263 . S
C315 C5 1.294 . S
C324 C16 1.294 . S
C326 C146 1.264 . S
C335 C31 1.295 . S
C337 C120 1.269 . S
C346 C44 1.295 . S
C348 C135 1.267 . S
C357 C55 1.296 . S
C359 C3 1.270 . S
C368 C18 1.268 . S
C370 C68 1.295 . S
C379 C83 1.293 . S
C381 C29 1.264 . S
C390 C42 1.263 . S
C392 C96 1.294 . S
C401 C57 1.271 . S
C403 C109 1.295 . S
C412 C81 1.269 . S
C414 C122 1.295 . S
C423 C133 1.295 . S
C425 C94 1.269 . S
C434 C70 1.271 . S
C436 C148 1.295 . S
C445 C263 1.270 . S
C447 C161 1.295 . S
C456 C172 1.296 . S
C458 C304 1.270 . S
C467 C187 1.295 . S
C469 C276 1.269 . S
C478 C289 1.263 . S
C480 C200 1.294 . S
C489 C211 1.294 . S
C491 C159 1.264 . S
C500 C174 1.271 . S
C502 C224 1.295 . S
C511 C185 1.265 . S
C513 C239 1.294 . S
C522 C252 1.295 . S
C524 C198 1.269 . S
C533 C265 1.294 . S
C535 C213 1.266 . S
C544 C237 1.271 . S
C546 C278 1.295 . S
C555 C250 1.263 . S
C557 C291 1.294 . S
C566 C302 1.295 . S
C568 C226 1.268 . S
C577 C296 1.493 . S
C579 C4 1.493 . S
C588 C283 1.493 1_556 S
C590 C23 1.492 . S
C599 C303 1.492 . S
C601 C30 1.492 . S
C610 C43 1.493 . S
C612 C270 1.492 1_554 S
C621 C62 1.493 . S
C623 C173 1.492 . S
C632 C166 1.491 1_455 S
C634 C75 1.493 . S
C643 C205 1.492 1_655 S
C645 C82 1.492 . S
C654 C192 1.493 . S
C656 C95 1.492 . S
C665 C108 1.492 . S
C667 C244 1.493 . S
C676 C212 1.492 1_545 S
C678 C121 1.493 . S
C687 C225 1.491 1_565 S
C689 C140 1.493 . S
C698 C257 1.493 . S
C700 C147 1.492 . S
C709 C134 1.492 . S
C711 C160 1.492 . S
C720 C127 1.492 1_554 S
C722 C179 1.493 . S
C731 C186 1.491 . S
C733 C153 1.493 . S
C742 C114 1.492 1_556 S
C744 C199 1.493 . S
C753 C218 1.493 . S
C755 C17 1.492 . S
C764 C231 1.493 . S
C766 C10 1.492 1_655 S
C775 C238 1.493 . S
C777 C49 1.492 1_455 S
C786 C251 1.492 . S
C788 C36 1.493 . S
C797 C264 1.491 . S
C799 C88 1.493 . S
C808 C277 1.492 . S
C810 C56 1.492 1_565 S
C819 C69 1.492 1_545 S
C821 C290 1.492 . S
C830 C309 1.492 . S
C832 C101 1.492 . S
