# Generated by pormake.
# Topology wkc, (5)-cn, num edge types: 1
# Building blocks:
#     Node 0, Type 0, BuildingBlock: XOMCOT_clean_sbu_1, # of connection points: 5
#     Node 1, Type 0, BuildingBlock: XOMCOT_clean_sbu_1, # of connection points: 5
#     Node 2, Type 0, BuildingBlock: XOMCOT_clean_sbu_1, # of connection points: 5
#     Node 3, Type 0, BuildingBlock: XOMCOT_clean_sbu_1, # of connection points: 5
#     Node 4, Type 0, BuildingBlock: XOMCOT_clean_sbu_1, # of connection points: 5
#     Node 5, Type 0, BuildingBlock: XOMCOT_clean_sbu_1, # of connection points: 5
#     Node 6, Type 0, BuildingBlock: XOMCOT_clean_sbu_1, # of connection points: 5
#     Node 7, Type 0, BuildingBlock: XOMCOT_clean_sbu_1, # of connection points: 5
#     Node 8, Type 0, BuildingBlock: XOMCOT_clean_sbu_1, # of connection points: 5
#     Node 9, Type 0, BuildingBlock: XOMCOT_clean_sbu_1, # of connection points: 5
#     Node 10, Type 0, BuildingBlock: XOMCOT_clean_sbu_1, # of connection points: 5
#     Node 11, Type 0, BuildingBlock: XOMCOT_clean_sbu_1, # of connection points: 5
#     Edge 12, Type (0, 0), BuildingBlock: AJUNOK_clean_linker_0, # of connection points: 2
#     Edge 13, Type (0, 0), BuildingBlock: AJUNOK_clean_linker_0, # of connection points: 2
#     Edge 14, Type (0, 0), BuildingBlock: AJUNOK_clean_linker_0, # of connection points: 2
#     Edge 15, Type (0, 0), BuildingBlock: AJUNOK_clean_linker_0, # of connection points: 2
#     Edge 16, Type (0, 0), BuildingBlock: AJUNOK_clean_linker_0, # of connection points: 2
#     Edge 17, Type (0, 0), BuildingBlock: AJUNOK_clean_linker_0, # of connection points: 2
#     Edge 18, Type (0, 0), BuildingBlock: AJUNOK_clean_linker_0, # of connection points: 2
#     Edge 19, Type (0, 0), BuildingBlock: AJUNOK_clean_linker_0, # of connection points: 2
#     Edge 20, Type (0, 0), BuildingBlock: AJUNOK_clean_linker_0, # of connection points: 2
#     Edge 21, Type (0, 0), BuildingBlock: AJUNOK_clean_linker_0, # of connection points: 2
#     Edge 22, Type (0, 0), BuildingBlock: AJUNOK_clean_linker_0, # of connection points: 2
#     Edge 23, Type (0, 0), BuildingBlock: AJUNOK_clean_linker_0, # of connection points: 2
#     Edge 24, Type (0, 0), BuildingBlock: AJUNOK_clean_linker_0, # of connection points: 2
#     Edge 25, Type (0, 0), BuildingBlock: AJUNOK_clean_linker_0, # of connection points: 2
#     Edge 26, Type (0, 0), BuildingBlock: AJUNOK_clean_linker_0, # of connection points: 2
#     Edge 27, Type (0, 0), BuildingBlock: AJUNOK_clean_linker_0, # of connection points: 2
#     Edge 28, Type (0, 0), BuildingBlock: AJUNOK_clean_linker_0, # of connection points: 2
#     Edge 29, Type (0, 0), BuildingBlock: AJUNOK_clean_linker_0, # of connection points: 2
#     Edge 30, Type (0, 0), BuildingBlock: AJUNOK_clean_linker_0, # of connection points: 2
#     Edge 31, Type (0, 0), BuildingBlock: AJUNOK_clean_linker_0, # of connection points: 2
#     Edge 32, Type (0, 0), BuildingBlock: AJUNOK_clean_linker_0, # of connection points: 2
#     Edge 33, Type (0, 0), BuildingBlock: AJUNOK_clean_linker_0, # of connection points: 2
#     Edge 34, Type (0, 0), BuildingBlock: AJUNOK_clean_linker_0, # of connection points: 2
#     Edge 35, Type (0, 0), BuildingBlock: AJUNOK_clean_linker_0, # of connection points: 2
#     Edge 36, Type (0, 0), BuildingBlock: AJUNOK_clean_linker_0, # of connection points: 2
#     Edge 37, Type (0, 0), BuildingBlock: AJUNOK_clean_linker_0, # of connection points: 2
#     Edge 38, Type (0, 0), BuildingBlock: AJUNOK_clean_linker_0, # of connection points: 2
#     Edge 39, Type (0, 0), BuildingBlock: AJUNOK_clean_linker_0, # of connection points: 2
#     Edge 40, Type (0, 0), BuildingBlock: AJUNOK_clean_linker_0, # of connection points: 2
#     Edge 41, Type (0, 0), BuildingBlock: AJUNOK_clean_linker_0, # of connection points: 2
# Relax obj value: 0.262
# Max RMSD: 0.209
# Mean RMSD: 0.209
data_MOF--net-wkc--node1-XOMCOT_clean_sbu_1--edge1-AJUNOK_clean_linker_0
_symmetry_space_group_name_H-M    P1
_symmetry_Int_Tables_number       1
_symmetry_cell_setting            triclinic
loop_
_symmetry_equiv_pos_as_xyz
'x, y, z'
_cell_length_a     28.311672
_cell_length_b     28.333468
_cell_length_c     35.843704
_cell_angle_alpha  90.044812
_cell_angle_beta   89.959343
_cell_angle_gamma 119.91087
loop_
_atom_site_label
_atom_site_type_symbol
_atom_site_fract_x
_atom_site_fract_y
_atom_site_fract_z
_atom_type_partial_charge
C0 C 0.36306 0.51933 0.06433 0.0
C1 C 0.36547 0.56267 0.08333 0.0
N2 N 0.32787 0.57329 0.06877 0.0
N3 N 0.3239 0.50251 0.03804 0.0
C4 C 0.30341 0.53635 0.04127 0.0
H5 H 0.38971 0.50261 0.06825 0.0
Co6 Co 0.30979 0.45108 0.00063 0.0
C7 C 0.19127 0.37694 0.01038 0.0
O8 O 0.20152 0.33661 0.00792 0.0
N9 N 0.29819 0.4019 0.96075 0.0
C10 C 0.26551 0.35172 0.90932 0.0
C11 C 0.25477 0.37744 0.93774 0.0
C12 C 0.33629 0.39348 0.94369 0.0
N13 N 0.31733 0.36231 0.9125 0.0
O14 O 0.3233 0.50582 0.96394 0.0
H15 H 0.21794 0.37967 0.94009 0.0
H16 H 0.37808 0.41204 0.9531 0.0
O17 O 0.22994 0.42608 0.00474 0.0
C18 C 0.37484 0.53791 0.96331 0.0
O19 O 0.40565 0.5269 0.98485 0.0
N20 N 0.30217 0.39997 0.03806 0.0
C21 C 0.30877 0.3439 0.10009 0.0
C22 C 0.27602 0.36785 0.10099 0.0
C23 C 0.27368 0.39601 0.06997 0.0
C24 C 0.33298 0.37529 0.03642 0.0
C25 C 0.33596 0.3461 0.06685 0.0
H26 H 0.25133 0.41756 0.07259 0.0
H27 H 0.35819 0.38063 0.01258 0.0
H28 H 0.27272 0.53532 0.02276 0.0
H29 H 0.39492 0.58656 0.10459 0.0
H30 H 0.23648 0.32683 0.88824 0.0
H31 H 0.25516 0.36804 0.12629 0.0
H32 H 0.36151 0.32775 0.06497 0.0
C33 C 0.86458 0.33028 0.24143 0.0
C34 C 0.82261 0.33119 0.26026 0.0
N35 N 0.77682 0.30349 0.23995 0.0
N36 N 0.84505 0.30153 0.20957 0.0
C37 C 0.79137 0.28515 0.20985 0.0
H38 H 0.907 0.35217 0.24942 0.0
Co39 Co 0.88244 0.29525 0.16856 0.0
C40 C 0.82269 0.17288 0.15501 0.0
O41 O 0.86222 0.17488 0.13464 0.0
N42 N 0.91998 0.2905 0.12605 0.0
C43 C 0.93664 0.28683 0.06547 0.0
C44 C 0.89686 0.27393 0.09201 0.0
C45 C 0.97422 0.31335 0.11921 0.0
N46 N 0.98526 0.31192 0.08265 0.0
O47 O 0.84119 0.31544 0.1359 0.0
H48 H 0.85366 0.25537 0.08652 0.0
H49 H 1.00565 0.33339 0.13994 0.0
O50 O 0.82641 0.21729 0.16674 0.0
C51 C 0.85279 0.3649 0.13972 0.0
O52 O 0.88817 0.3949 0.16544 0.0
N53 N 0.92606 0.2814 0.20136 0.0
C54 C 0.98971 0.283 0.26126 0.0
C55 C 0.9416 0.23528 0.25199 0.0
C56 C 0.91004 0.23542 0.22216 0.0
C57 C 0.97369 0.32765 0.20941 0.0
C58 C 1.00636 0.3293 0.23903 0.0
H59 H 0.87127 0.1996 0.2182 0.0
H60 H 0.98428 0.36479 0.19446 0.0
H61 H 0.76398 0.26219 0.18738 0.0
H62 H 0.82621 0.35358 0.28559 0.0
H63 H 0.9304 0.27888 0.03582 0.0
H64 H 0.92691 0.19901 0.26898 0.0
H65 H 1.04215 0.36764 0.24608 0.0
C66 C 0.56096 0.85346 0.39196 0.0
C67 C 0.51811 0.81248 0.41119 0.0
N68 N 0.50561 0.76456 0.39517 0.0
N69 N 0.57555 0.8315 0.36399 0.0
C70 C 0.54097 0.77737 0.36655 0.0
H71 H 0.57841 0.8967 0.39672 0.0
Co72 Co 0.62383 0.86915 0.32511 0.0
C73 C 0.69915 0.82451 0.32932 0.0
O74 O 0.73955 0.87448 0.32445 0.0
N75 N 0.67017 0.90755 0.2841 0.0
C76 C 0.7185 0.92864 0.23152 0.0
C77 C 0.69346 0.89006 0.25889 0.0
C78 C 0.67812 0.95513 0.26932 0.0
N79 N 0.70916 0.97021 0.2379 0.0
O80 O 0.56672 0.82718 0.28994 0.0
H81 H 0.69088 0.85074 0.2592 0.0
H82 H 0.65806 0.97611 0.28015 0.0
O83 O 0.64984 0.81508 0.32707 0.0
C84 C 0.53338 0.84516 0.29165 0.0
O85 O 0.54522 0.88688 0.3135 0.0
N86 N 0.67687 0.91327 0.36104 0.0
C87 C 0.72854 0.97584 0.42384 0.0
C88 C 0.71368 0.92095 0.42268 0.0
C89 C 0.68694 0.89013 0.39137 0.0
C90 C 0.69355 0.96751 0.36134 0.0
C91 C 0.72016 0.99974 0.39227 0.0
H92 H 0.66967 0.84661 0.3933 0.0
H93 H 0.68189 0.98534 0.33936 0.0
H94 H 0.54004 0.74819 0.34663 0.0
H95 H 0.49561 0.81802 0.43353 0.0
H96 H 0.74141 0.92553 0.20844 0.0
H97 H 0.71802 0.90085 0.44707 0.0
H98 H 0.73039 0.04204 0.39259 0.0
C99 C 0.74719 0.55667 0.57138 0.0
C100 C 0.7458 0.51371 0.5904 0.0
N101 N 0.77345 0.49521 0.57033 0.0
N102 N 0.77612 0.56546 0.53964 0.0
C103 C 0.79219 0.52791 0.5402 0.0
H104 H 0.72552 0.5776 0.57914 0.0
Co105 Co 0.7834 0.60897 0.4982 0.0
C106 C 0.90602 0.67441 0.48941 0.0
O107 O 0.90341 0.71489 0.47365 0.0
N108 N 0.78958 0.65098 0.45522 0.0
C109 C 0.80483 0.67639 0.3955 0.0
C110 C 0.81513 0.64984 0.42366 0.0
C111 C 0.76265 0.67746 0.44493 0.0
N112 N 0.77136 0.6934 0.40871 0.0
O113 O 0.76341 0.54738 0.46595 0.0
H114 H 0.83836 0.62916 0.4209 0.0
H115 H 0.73625 0.68414 0.46317 0.0
O116 O 0.86172 0.63071 0.4975 0.0
C117 C 0.71305 0.51232 0.47034 0.0
O118 O 0.68454 0.52252 0.49467 0.0
N119 N 0.79614 0.66624 0.53065 0.0
C120 C 0.78725 0.7203 0.59272 0.0
C121 C 0.83596 0.72082 0.5854 0.0
C122 C 0.83929 0.69264 0.55452 0.0
C123 C 0.74959 0.66822 0.53644 0.0
C124 C 0.74435 0.69533 0.56719 0.0
H125 H 0.87437 0.68782 0.55275 0.0
H126 H 0.71406 0.64342 0.51954 0.0
H127 H 0.81514 0.52307 0.51786 0.0
H128 H 0.72305 0.4951 0.61563 0.0
H129 H 0.81932 0.68109 0.36704 0.0
H130 H 0.86914 0.73811 0.60533 0.0
H131 H 0.70558 0.69298 0.57263 0.0
C132 C 0.21949 0.71765 0.72793 0.0
C133 C 0.25999 0.71322 0.74605 0.0
N134 N 0.30751 0.74563 0.72858 0.0
N135 N 0.24168 0.75341 0.69957 0.0
C136 C 0.29538 0.76996 0.70083 0.0
H137 H 0.17633 0.69438 0.73391 0.0
Co138 Co 0.20513 0.76733 0.66148 0.0
C139 C 0.25619 0.88835 0.66699 0.0
O140 O 0.2075 0.88287 0.66356 0.0
N141 N 0.16788 0.77866 0.62126 0.0
C142 C 0.14829 0.80872 0.56943 0.0
C143 C 0.18632 0.82049 0.59695 0.0
C144 C 0.12019 0.7403 0.60584 0.0
N145 N 0.10608 0.75791 0.57476 0.0
O146 O 0.24586 0.75214 0.6252 0.0
H147 H 0.22609 0.85653 0.59768 0.0
H148 H 0.09852 0.69899 0.61596 0.0
O149 O 0.2619 0.84622 0.66468 0.0
C150 C 0.22923 0.70116 0.62531 0.0
O151 O 0.18902 0.66945 0.64769 0.0
N152 N 0.16203 0.77695 0.69807 0.0
C153 C 0.0996 0.76989 0.7604 0.0
C154 C 0.1554 0.80721 0.75961 0.0
C155 C 0.18595 0.80931 0.72857 0.0
C156 C 0.10725 0.74137 0.69816 0.0
C157 C 0.07519 0.73749 0.72891 0.0
H158 H 0.22954 0.83324 0.73072 0.0
H159 H 0.08859 0.71236 0.67596 0.0
H160 H 0.3246 0.79763 0.68073 0.0
H161 H 0.25451 0.68598 0.7689 0.0
H162 H 0.15242 0.83581 0.54687 0.0
H163 H 0.17616 0.83108 0.78406 0.0
H164 H 1.03232 0.707 0.72902 0.0
C165 C 0.52786 0.20503 0.90117 0.0
C166 C 0.57201 0.24655 0.91928 0.0
N167 N 0.58698 0.29323 0.9007 0.0
N168 N 0.5149 0.22586 0.87164 0.0
C169 C 0.55112 0.27966 0.87245 0.0
H170 H 0.50858 0.16212 0.90775 0.0
Co171 Co 0.46794 0.18943 0.83197 0.0
C172 C 0.3977 0.2408 0.83281 0.0
O173 O 0.35496 0.19255 0.82698 0.0
N174 N 0.42266 0.15289 0.79012 0.0
C175 C 0.37911 0.13784 0.73584 0.0
C176 C 0.40484 0.17465 0.76403 0.0
C177 C 0.4107 0.10402 0.77519 0.0
N178 N 0.38327 0.09317 0.74232 0.0
O179 O 0.52674 0.23037 0.79762 0.0
H180 H 0.41162 0.21567 0.76436 0.0
H181 H 0.42464 0.0781 0.78702 0.0
O182 O 0.44542 0.24602 0.83326 0.0
C183 C 0.56117 0.21386 0.80024 0.0
O184 O 0.55076 0.1738 0.82332 0.0
N185 N 0.41293 0.1459 0.86678 0.0
C186 C 0.35851 0.08324 0.92894 0.0
C187 C 0.37138 0.1375 0.92683 0.0
C188 C 0.39977 0.16846 0.89593 0.0
C189 C 0.3985 0.09225 0.86802 0.0
C190 C 0.37074 0.05997 0.8987 0.0
H191 H 0.41618 0.2117 0.8977 0.0
H192 H 0.4134 0.07547 0.84731 0.0
H193 H 0.55286 0.30788 0.85144 0.0
H194 H 0.59366 0.24222 0.94272 0.0
H195 H 0.35872 0.14433 0.71266 0.0
H196 H 0.36456 0.15725 0.95045 0.0
H197 H 0.36289 1.01847 0.90012 0.0
C198 C 0.56508 0.71609 0.76423 0.0
C199 C 0.52223 0.71261 0.74385 0.0
N200 N 0.50595 0.74518 0.75988 0.0
N201 N 0.57581 0.75082 0.79292 0.0
C202 C 0.5392 0.76786 0.78949 0.0
H203 H 0.58509 0.69253 0.75969 0.0
Co204 Co 0.62216 0.76319 0.83347 0.0
C205 C 0.68994 0.88477 0.83229 0.0
O206 O 0.73315 0.88014 0.83868 0.0
N207 N 0.66677 0.77331 0.87615 0.0
C208 C 0.70948 0.80283 0.93067 0.0
C209 C 0.68381 0.81318 0.90199 0.0
C210 C 0.6792 0.73702 0.8917 0.0
N211 N 0.70613 0.75426 0.92469 0.0
O212 O 0.562 0.74422 0.86683 0.0
H213 H 0.67656 0.84713 0.90113 0.0
H214 H 0.66599 0.69713 0.88019 0.0
O215 O 0.6426 0.84184 0.83166 0.0
C216 C 0.52866 0.69308 0.86455 0.0
O217 O 0.54062 0.6637 0.84224 0.0
N218 N 0.67886 0.77618 0.79957 0.0
C219 C 0.73786 0.77123 0.73878 0.0
C220 C 0.72102 0.80987 0.7398 0.0
C221 C 0.69064 0.81089 0.77001 0.0
C222 C 0.69684 0.73959 0.79944 0.0
C223 C 0.7269 0.7368 0.7695 0.0
H224 H 0.6718 0.83556 0.76745 0.0
H225 H 0.68343 0.7086 0.8205 0.0
H226 H 0.53523 0.79431 0.8095 0.0
H227 H 0.5023 0.68535 0.72065 0.0
H228 H 0.72926 0.82989 0.95389 0.0
H229 H 0.72638 0.83533 0.71581 0.0
H230 H 0.73782 0.70519 0.76908 0.0
C231 C 0.87398 0.55167 0.92993 0.0
C232 C 0.83382 0.50875 0.91019 0.0
N233 N 0.78555 0.49369 0.92666 0.0
N234 N 0.85113 0.5637 0.95875 0.0
C235 C 0.79727 0.52789 0.95584 0.0
H236 H 0.91725 0.56984 0.92513 0.0
Co237 Co 0.88544 0.60839 0.99986 0.0
C238 C 0.82793 0.67409 0.00679 0.0
O239 O 0.87028 0.7144 0.02325 0.0
N240 N 0.91997 0.65149 0.04258 0.0
C241 C 0.92992 0.67738 0.10219 0.0
C242 C 0.89318 0.65078 0.07398 0.0
C243 C 0.97323 0.67781 0.05297 0.0
N244 N 0.98037 0.69398 0.08913 0.0
O245 O 0.84203 0.54815 0.0326 0.0
H246 H 0.8493 0.63016 0.07666 0.0
H247 H 1.00626 0.68401 0.03488 0.0
O248 O 0.82923 0.63087 0.99807 0.0
C249 C 0.85818 0.51337 0.03154 0.0
O250 O 0.89805 0.52209 0.00869 0.0
N251 N 0.93147 0.66455 0.96712 0.0
C252 C 0.99609 0.7177 0.9055 0.0
C253 C 0.94848 0.71958 0.91231 0.0
C254 C 0.91612 0.69186 0.94298 0.0
C255 C 0.97954 0.66532 0.96188 0.0
C256 C 1.01259 0.69176 0.93126 0.0
H257 H 0.8768 0.68846 0.94455 0.0
H258 H 0.98939 0.64022 0.97922 0.0
H259 H 0.76761 0.52473 0.97622 0.0
H260 H 0.84038 0.48753 0.88744 0.0
H261 H 0.92007 0.68223 0.13062 0.0
H262 H 0.93378 0.73783 0.89224 0.0
H263 H 0.04858 0.68845 0.92625 0.0
C264 C 0.34627 0.85489 0.0989 0.0
C265 C 0.34848 0.81379 0.07981 0.0
N266 N 0.31779 0.76681 0.09829 0.0
N267 N 0.31362 0.83355 0.12894 0.0
C268 C 0.29656 0.77982 0.12756 0.0
H269 H 0.36944 0.89789 0.09252 0.0
Co270 Co 0.30425 0.86992 0.16939 0.0
C271 C 0.18407 0.82399 0.16799 0.0
O272 O 0.19302 0.87341 0.17475 0.0
N273 N 0.29673 0.90612 0.21206 0.0
C274 C 0.26852 0.91923 0.26712 0.0
C275 C 0.2571 0.88368 0.23807 0.0
C276 C 0.33408 0.95404 0.22791 0.0
N277 N 0.31768 0.96372 0.26132 0.0
O278 O 0.32141 0.82741 0.20282 0.0
H279 H 0.22246 0.84297 0.23701 0.0
H280 H 0.37403 0.98002 0.21626 0.0
O281 O 0.22453 0.8153 0.16818 0.0
C282 C 0.37261 0.84528 0.20002 0.0
O283 O 0.40132 0.88642 0.17749 0.0
N284 N 0.29364 0.91492 0.13528 0.0
C285 C 0.30406 0.97917 0.07358 0.0
C286 C 0.26244 0.92498 0.07494 0.0
C287 C 0.25868 0.89319 0.10562 0.0
C288 C 0.33271 0.96861 0.13492 0.0
C289 C 0.3383 1.00167 0.10448 0.0
H290 H 0.23151 0.84988 0.10333 0.0
H291 H 0.36356 0.98486 0.15616 0.0
H292 H 0.27137 0.75127 0.14888 0.0
H293 H 0.37371 0.81865 0.05578 0.0
H294 H 0.24155 0.91199 0.29038 0.0
H295 H 0.23668 0.90587 0.05089 0.0
H296 H 0.37193 0.04319 0.10376 0.0
C297 C 0.52096 0.33667 0.27419 0.0
C298 C 0.56434 0.34053 0.25431 0.0
N299 N 0.57905 0.30627 0.2696 0.0
N300 N 0.50841 0.30018 0.3019 0.0
C301 C 0.54434 0.28234 0.29836 0.0
H302 H 0.50181 0.36112 0.2701 0.0
Co303 Co 0.46074 0.28709 0.34159 0.0
C304 C 0.39454 0.16552 0.34029 0.0
O305 O 0.35068 0.1694 0.34563 0.0
N306 N 0.41505 0.2769 0.38339 0.0
C307 C 0.37189 0.24974 0.43797 0.0
C308 C 0.3964 0.2373 0.4095 0.0
C309 C 0.40453 0.31481 0.39837 0.0
N310 N 0.3775 0.29912 0.43137 0.0
O311 O 0.52002 0.3068 0.3757 0.0
H312 H 0.40216 0.20241 0.40917 0.0
H313 H 0.41935 0.35476 0.38642 0.0
O314 O 0.44156 0.20884 0.34037 0.0
C315 C 0.55206 0.35823 0.37419 0.0
O316 O 0.53936 0.38719 0.35207 0.0
N317 N 0.40468 0.27286 0.30669 0.0
C318 C 0.35064 0.27775 0.24321 0.0
C319 C 0.36894 0.24044 0.24529 0.0
C320 C 0.39655 0.23924 0.27697 0.0
C321 C 0.38414 0.3074 0.3057 0.0
C322 C 0.35649 0.31018 0.27422 0.0
H323 H 0.417 0.21602 0.27539 0.0
H324 H 0.39391 0.33713 0.32733 0.0
H325 H 0.54669 0.2543 0.31774 0.0
H326 H 0.58565 0.3692 0.23208 0.0
H327 H 0.35156 0.2238 0.46159 0.0
H328 H 0.36699 0.21648 0.22114 0.0
H329 H 0.34452 0.34098 0.27277 0.0
C330 C 0.22158 0.50384 0.42314 0.0
C331 C 0.26382 0.54585 0.40397 0.0
N332 N 0.31005 0.56223 0.42349 0.0
N333 N 0.24132 0.49349 0.45444 0.0
C334 C 0.29541 0.52901 0.45339 0.0
H335 H 0.17894 0.48529 0.41601 0.0
Co336 Co 0.20444 0.45229 0.49646 0.0
C337 C 0.2651 0.39072 0.51283 0.0
O338 O 0.22767 0.35598 0.53569 0.0
N339 N 0.16754 0.41251 0.53992 0.0
C340 C 0.15176 0.39562 0.60092 0.0
C341 C 0.19108 0.42143 0.57398 0.0
C342 C 0.11347 0.38061 0.54714 0.0
N343 N 0.10299 0.37023 0.58398 0.0
O344 O 0.24705 0.51537 0.52748 0.0
H345 H 0.23429 0.44657 0.57913 0.0
H346 H 0.08181 0.36721 0.52632 0.0
O347 O 0.25965 0.42917 0.49863 0.0
C348 C 0.23269 0.55119 0.52307 0.0
O349 O 0.19491 0.54194 0.49823 0.0
N350 N 0.15941 0.39368 0.46514 0.0
C351 C 0.09691 0.33387 0.40438 0.0
C352 C 0.14197 0.32971 0.41577 0.0
C353 C 0.17312 0.36043 0.44605 0.0
C354 C 0.11328 0.39484 0.45607 0.0
C355 C 0.08123 0.36505 0.4259 0.0
H356 H 0.20985 0.35979 0.45183 0.0
H357 H 0.10391 0.42278 0.47043 0.0
H358 H 0.32299 0.53254 0.47549 0.0
H359 H 0.26011 0.56567 0.37923 0.0
H360 H 0.15838 0.39572 0.63067 0.0
H361 H 0.15491 0.30544 0.40007 0.0
H362 H 0.04699 0.36981 0.41779 0.0
C363 C 0.72991 0.20264 0.6029 0.0
C364 C 0.72733 0.2435 0.58402 0.0
N365 N 0.76435 0.29164 0.59892 0.0
N366 N 0.76847 0.22486 0.62957 0.0
C367 C 0.78863 0.27908 0.62656 0.0
H368 H 0.70342 0.15936 0.59881 0.0
Co369 Co 0.78084 0.18697 0.66744 0.0
C370 C 0.89985 0.23036 0.66008 0.0
O371 O 0.88935 0.17984 0.66355 0.0
N372 N 0.7906 0.14847 0.7076 0.0
C373 C 0.82128 0.13028 0.75975 0.0
C374 C 0.83264 0.16753 0.73183 0.0
C375 C 0.75248 0.1009 0.7234 0.0
N376 N 0.77027 0.08828 0.755 0.0
O377 O 0.76687 0.22852 0.70367 0.0
H378 H 0.86894 0.20707 0.73048 0.0
H379 H 0.71127 0.07728 0.71306 0.0
O380 O 0.86101 0.24106 0.66444 0.0
C381 C 0.71532 0.20924 0.7035 0.0
O382 O 0.68522 0.16726 0.68193 0.0
N383 N 0.78865 0.14332 0.63042 0.0
C384 C 0.78011 0.08151 0.56774 0.0
C385 C 0.81762 0.13704 0.5684 0.0
C386 C 0.82034 0.16744 0.59959 0.0
C387 C 0.75273 0.08866 0.6303 0.0
C388 C 0.74797 0.05683 0.5992 0.0
H389 H 0.84493 0.21117 0.59755 0.0
H390 H 0.7241 0.07005 0.65271 0.0
H391 H 0.81872 0.30856 0.64544 0.0
H392 H 0.69788 0.23781 0.56271 0.0
H393 H 0.84933 0.1344 0.78161 0.0
H394 H 0.84119 0.1576 0.54379 0.0
H395 H 0.71686 1.0142 0.59871 0.0
C396 C 0.4098 0.30813 0.88288 0.0
C397 C 0.38781 0.28385 0.84816 0.0
C398 C 0.38832 0.33586 0.90309 0.0
C399 C 0.34508 0.34183 0.88888 0.0
H400 H 0.44119 0.30252 0.89582 0.0
H401 H 0.40388 0.35006 0.93086 0.0
S402 S 0.28476 0.29894 0.79409 0.0
N403 N 0.32708 0.27499 0.79774 0.0
N404 N 0.29019 0.33114 0.83366 0.0
C405 C 0.32755 0.32321 0.8521 0.0
C406 C 0.3481 0.29336 0.83227 0.0
C407 C 0.12447 0.333 0.06192 0.0
C408 C 0.1402 0.36558 0.02953 0.0
C409 C 0.07477 0.3174 0.07985 0.0
C410 C 1.03805 0.33239 0.0655 0.0
H411 H 0.15071 0.31901 0.07343 0.0
H412 H 0.06403 0.29181 0.10439 0.0
S413 S 0.06026 0.41906 0.98241 0.0
N414 N 0.11611 0.41439 0.98489 0.0
N415 N 1.02144 0.38332 0.01781 0.0
C416 C 0.05347 0.36565 0.03349 0.0
C417 C 0.10491 0.38278 0.01574 0.0
C418 C 0.77651 0.07083 0.15888 0.0
C419 C 0.78365 0.12005 0.17349 0.0
C420 C 0.74959 1.02193 0.17917 0.0
C421 C 0.72945 1.01976 0.21562 0.0
H422 H 0.79352 0.07028 0.13191 0.0
H423 H 0.74609 0.98586 0.16624 0.0
S424 S 0.73324 0.13696 0.26555 0.0
N425 N 0.76306 0.16253 0.22522 0.0
N426 N 0.71602 0.07212 0.26428 0.0
C427 C 0.73379 0.06835 0.2298 0.0
C428 C 0.75988 0.11793 0.20855 0.0
C429 C 0.78367 0.76188 0.36124 0.0
C430 C 0.7503 0.72265 0.38769 0.0
C431 C 0.76539 0.79216 0.3411 0.0
C432 C 0.71255 0.78427 0.34602 0.0
H433 H 0.82508 0.77053 0.3569 0.0
H434 H 0.79366 0.82321 0.32214 0.0
S435 S 0.60696 0.68293 0.40949 0.0
N436 N 0.6603 0.67487 0.41596 0.0
N437 N 0.62583 0.73169 0.37807 0.0
C438 C 0.67777 0.74347 0.37123 0.0
C439 C 0.6967 0.7129 0.39216 0.0
C440 C 0.05602 0.75059 0.51583 0.0
C441 C 0.0572 0.73009 0.55159 0.0
C442 C 1.00777 0.72993 0.49491 0.0
C443 C 0.95829 0.6866 0.50801 0.0
H444 H 0.09232 0.78416 0.50397 0.0
H445 H 1.00894 0.74945 0.46867 0.0
S446 S 0.93875 0.61266 0.5974 0.0
N447 N 1.0035 0.66056 0.59781 0.0
N448 N 0.9144 0.61973 0.55733 0.0
C449 C 0.95943 0.66245 0.54217 0.0
C450 C 1.00831 0.68462 0.56419 0.0
C451 C 0.32219 0.94396 0.71737 0.0
C452 C 0.30028 0.94102 0.68167 0.0
C453 C 0.35107 0.99394 0.73642 0.0
C454 C 0.36068 0.04337 0.72014 0.0
H455 H 0.31409 0.90719 0.73183 0.0
H456 H 0.36344 0.99309 0.76482 0.0
S457 S 0.32371 0.05789 0.62272 0.0
N458 N 0.29646 0.99159 0.62856 0.0
N459 N 0.355 0.08587 0.66229 0.0
C460 C 0.34398 0.0411 0.68262 0.0
C461 C 0.31284 0.98994 0.66393 0.0
C462 C 0.76921 0.66857 0.95219 0.0
C463 C 0.78726 0.68583 0.98895 0.0
C464 C 0.74125 0.68963 0.93184 0.0
C465 C 0.72866 0.7277 0.94766 0.0
H466 H 0.77964 0.64115 0.93812 0.0
H467 H 0.73169 0.67765 0.90294 0.0
S468 S 0.75492 0.77473 0.04647 0.0
N469 N 0.78387 0.73688 0.04211 0.0
N470 N 0.72775 0.77297 0.0054 0.0
C471 C 0.74183 0.74084 0.98576 0.0
C472 C 0.77181 0.72071 0.00597 0.0
C473 C 0.08547 0.79206 0.15674 0.0
C474 C 0.13031 0.78404 0.15143 0.0
C475 C 1.03676 0.76196 0.13678 0.0
C476 C 1.03061 0.72273 0.1102 0.0
H477 H 0.08846 0.8231 0.17583 0.0
H478 H 1.00415 0.7708 0.14133 0.0
S479 S 0.13354 0.6822 0.08775 0.0
N480 N 0.16387 0.73107 0.11906 0.0
N481 N 0.07222 0.67443 0.08164 0.0
C482 C 0.07424 0.71267 0.10548 0.0
C483 C 0.12393 0.74312 0.12615 0.0
C484 C 0.40717 0.1114 0.28959 0.0
C485 C 0.38665 0.11328 0.325 0.0
C486 C 0.38617 0.06218 0.26956 0.0
C487 C 0.34515 1.01238 0.28464 0.0
H488 H 0.43697 0.14853 0.27604 0.0
H489 H 0.40047 0.064 0.24134 0.0
S490 S 0.2908 0.9945 0.38152 0.0
N491 N 0.33038 0.06093 0.37694 0.0
N492 N 0.29513 0.96792 0.34156 0.0
C493 C 0.3297 1.01333 0.32212 0.0
C494 C 0.34947 0.06379 0.34172 0.0
C495 C 0.31925 0.38943 0.45731 0.0
C496 C 0.30322 0.37535 0.49481 0.0
C497 C 0.34495 0.36579 0.4372 0.0
C498 C 0.35715 0.32805 0.45388 0.0
H499 H 0.30893 0.4164 0.44253 0.0
H500 H 0.35304 0.37547 0.40787 0.0
S501 S 0.33606 0.28841 0.55411 0.0
N502 N 0.30864 0.32758 0.54929 0.0
N503 N 0.36005 0.28611 0.51258 0.0
C504 C 0.34604 0.31783 0.49242 0.0
C505 C 0.31855 0.34084 0.51258 0.0
C506 C 0.96839 0.24961 0.61005 0.0
C507 C 0.9508 0.26903 0.64024 0.0
C508 C 1.01701 0.28349 0.5909 0.0
C509 C 0.05081 0.33776 0.6018 0.0
H510 H 0.94428 0.20764 0.60105 0.0
H511 H 1.02924 0.26673 0.56816 0.0
S512 S 1.02318 0.40937 0.67798 0.0
N513 N 0.97014 0.34697 0.67891 0.0
N514 N 0.06299 0.4102 0.6439 0.0
C515 C 1.03366 0.35806 0.63159 0.0
C516 C 0.98323 0.32386 0.6505 0.0
C517 C 0.67938 0.94028 0.78167 0.0
C518 C 0.69921 0.93757 0.81715 0.0
C519 C 0.70097 0.98997 0.76212 0.0
C520 C 0.7422 0.03919 0.77769 0.0
H521 H 0.64971 0.90342 0.76773 0.0
H522 H 0.68719 0.98909 0.73386 0.0
S523 S 0.79635 0.055 0.87432 0.0
N524 N 0.75574 0.98875 0.8694 0.0
N525 N 0.79273 0.08243 0.83457 0.0
C526 C 0.7575 0.03742 0.815 0.0
C527 C 0.73685 0.98663 0.83423 0.0
C528 C 0.31137 0.69593 0.05525 0.0
C529 C 0.31643 0.71602 0.09175 0.0
C530 C 0.31334 0.64825 0.04804 0.0
C531 C 0.32126 0.61945 0.07706 0.0
H532 H 0.30631 0.71758 0.03213 0.0
H533 H 0.31049 0.63487 0.01941 0.0
S534 S 0.33666 0.65513 0.1776 0.0
N535 N 0.32983 0.70362 0.15724 0.0
N536 N 0.33264 0.61367 0.14378 0.0
C537 C 0.32561 0.63875 0.11375 0.0
C538 C 0.32334 0.68707 0.12109 0.0
C539 C 0.70479 0.29473 0.28282 0.0
C540 C 0.72559 0.3014 0.24643 0.0
C541 C 0.65634 0.29516 0.29005 0.0
C542 C 0.627 0.30267 0.26115 0.0
H543 H 0.72639 0.28942 0.30588 0.0
H544 H 0.64266 0.29111 0.31867 0.0
S545 S 0.6646 0.32249 0.16086 0.0
N546 N 0.71383 0.31681 0.18118 0.0
N547 N 0.6219 0.31579 0.19456 0.0
C548 C 0.64714 0.30884 0.22454 0.0
C549 C 0.69656 0.30855 0.2172 0.0
C550 C 0.42946 0.67619 0.37387 0.0
C551 C 0.4589 0.71208 0.40315 0.0
C552 C 0.38146 0.62686 0.38082 0.0
C553 C 0.36135 0.61131 0.41728 0.0
H554 H 0.44259 0.68709 0.34525 0.0
H555 H 0.35952 0.60083 0.35748 0.0
S556 S 0.42366 0.69045 0.50375 0.0
N557 N 0.46537 0.7278 0.47007 0.0
N558 N 0.37437 0.63616 0.48303 0.0
C559 C 0.39082 0.64646 0.44686 0.0
C560 C 0.43972 0.69658 0.4398 0.0
C561 C 0.78118 0.43095 0.61289 0.0
C562 C 0.77447 0.4455 0.57662 0.0
C563 C 0.7795 0.38139 0.61986 0.0
C564 C 0.77042 0.34427 0.59082 0.0
H565 H 0.78743 0.45804 0.63604 0.0
H566 H 0.78362 0.37134 0.64835 0.0
S567 S 0.75035 0.36307 0.4908 0.0
N568 N 0.75791 0.41856 0.51135 0.0
N569 N 0.75616 0.32629 0.52427 0.0
C570 C 0.7644 0.35873 0.55434 0.0
C571 C 0.76614 0.40913 0.54727 0.0
C572 C 0.37634 0.74971 0.77252 0.0
C573 C 0.3588 0.7482 0.73566 0.0
C574 C 0.425 0.74992 0.78018 0.0
C575 C 0.45763 0.74794 0.75123 0.0
H576 H 0.35208 0.75061 0.79559 0.0
H577 H 0.43639 0.75015 0.80903 0.0
S578 S 0.42903 0.74232 0.64985 0.0
N579 N 0.37718 0.74365 0.66989 0.0
N580 N 0.46902 0.74479 0.68423 0.0
C581 C 0.44057 0.74654 0.71421 0.0
C582 C 0.39114 0.74661 0.70643 0.0
C583 C 0.70053 0.41414 0.94914 0.0
C584 C 0.73438 0.44493 0.91935 0.0
C585 C 0.65228 0.36483 0.94282 0.0
C586 C 0.6358 0.34474 0.9065 0.0
H587 H 0.71212 0.42745 0.97767 0.0
H588 H 0.62763 0.34211 0.96649 0.0
S589 S 0.71001 0.40918 0.81892 0.0
N590 N 0.74763 0.45177 0.85215 0.0
N591 N 0.65771 0.3585 0.84036 0.0
C592 C 0.66907 0.3751 0.87644 0.0
C593 C 0.71819 0.42528 0.88286 0.0
C594 C 0.28588 0.275 0.1946 0.0
C595 C 0.33928 0.29234 0.20632 0.0
C596 C 0.27601 0.29007 0.15943 0.0
C597 C 0.31933 0.32301 0.13514 0.0
H598 H 0.25179 0.25004 0.21275 0.0
H599 H 0.2343 0.27646 0.15134 0.0
S600 S 0.46677 0.38017 0.15452 0.0
N601 N 0.43577 0.34397 0.19194 0.0
N602 N 0.41775 0.37365 0.12635 0.0
C603 C 0.37293 0.34025 0.14686 0.0
C604 C 0.38276 0.32464 0.1824 0.0
C605 C 1.01328 0.28394 0.36514 0.0
C606 C 0.07041 0.31216 0.36786 0.0
C607 C 0.9874 0.27153 0.33034 0.0
C608 C 1.01777 0.28725 0.29702 0.0
H609 H 0.98847 0.27329 0.39012 0.0
H610 H 0.94338 0.25226 0.32961 0.0
S611 S 0.16821 0.35774 0.28882 0.0
N612 N 0.15656 0.35267 0.3342 0.0
N613 N 0.10765 0.32833 0.26878 0.0
C614 C 0.07478 0.31277 0.29931 0.0
C615 C 0.10118 0.32538 0.33473 0.0
C616 C 0.78715 1.00906 0.48095 0.0
C617 C 0.74325 1.00477 0.45989 0.0
C618 C 0.79903 0.03356 0.51634 0.0
C619 C 0.76641 0.05304 0.53176 0.0
H620 H 0.81244 0.99358 0.46991 0.0
H621 H 0.83362 0.03722 0.53172 0.0
S622 S 0.64611 0.04987 0.48863 0.0
N623 N 0.66663 1.02101 0.45746 0.0
N624 N 0.68891 0.06665 0.52398 0.0
C625 C 0.72234 0.0486 0.51119 0.0
C626 C 0.71069 1.02446 0.47519 0.0
C627 C 0.73557 0.69492 0.65204 0.0
C628 C 0.77721 0.73527 0.63007 0.0
C629 C 0.72501 0.70663 0.68788 0.0
C630 C 0.75549 0.75923 0.70297 0.0
H631 H 0.71095 0.65388 0.64139 0.0
H632 H 0.69152 0.67464 0.70343 0.0
S633 S 0.8701 0.8787 0.6571 0.0
N634 N 0.85033 0.82922 0.62606 0.0
N635 N 0.82979 0.85176 0.69365 0.0
C636 C 0.79779 0.79984 0.6815 0.0
C637 C 0.80898 0.78767 0.64502 0.0
C638 C 0.04507 0.70448 0.81028 0.0
C639 C 0.06982 0.75782 0.79618 0.0
C640 C 1.0219 0.69234 0.84588 0.0
C641 C 1.02224 0.73299 0.86852 0.0
H642 H 0.04504 0.67213 0.79411 0.0
H643 H 1.00343 0.65073 0.85578 0.0
S644 S 0.08 0.87848 0.84421 0.0
N645 N 0.09241 0.85147 0.80723 0.0
N646 N 0.04762 0.82814 0.87426 0.0
C647 C 0.04563 0.78621 0.85457 0.0
C648 C 0.06992 0.7988 0.81839 0.0
C649 C 0.28168 1.01879 0.01845 0.0
C650 C 0.31855 1.00779 0.03746 0.0
C651 C 0.29441 0.04306 0.98298 0.0
C652 C 0.34357 0.05535 0.96529 0.0
H653 H 0.24304 1.00874 0.03114 0.0
H654 H 0.26568 0.05193 0.96919 0.0
S655 S 0.4529 0.03347 0.0032 0.0
N656 N 0.40566 1.01043 0.036 0.0
N657 N 0.42926 0.05544 0.96934 0.0
C658 C 0.38041 0.04418 0.98398 0.0
C659 C 0.36793 1.02044 0.02011 0.0
C660 C 0.44785 0.63298 0.9519 0.0
C661 C 0.40228 0.58533 0.93827 0.0
C662 C 0.48616 0.67217 0.92756 0.0
C663 C 0.48047 0.66426 0.88885 0.0
H664 H 0.45613 0.63796 0.9816 0.0
H665 H 0.52293 0.7058 0.93914 0.0
S666 S 0.36422 0.55106 0.83916 0.0
N667 N 0.35 0.53628 0.88381 0.0
N668 N 0.42241 0.60936 0.83787 0.0
C669 C 0.43245 0.61955 0.87493 0.0
C670 C 0.39307 0.58014 0.89973 0.0
C671 C 0.84128 0.42081 0.04739 0.0
C672 C 0.83912 0.46758 0.05813 0.0
C673 C 0.83925 0.38347 0.07392 0.0
C674 C 0.83598 0.39231 0.11213 0.0
H675 H 0.84835 0.41496 0.01847 0.0
H676 H 0.84543 0.35051 0.0647 0.0
S677 S 0.8196 0.50292 0.15423 0.0
N678 N 0.82551 0.51616 0.10905 0.0
N679 N 0.8228 0.4466 0.15909 0.0
C680 C 0.82846 0.4359 0.12291 0.0
C681 C 0.82966 0.47343 0.09582 0.0
C682 C 0.48821 0.82447 0.22959 0.0
C683 C 0.48387 0.82406 0.26855 0.0
C684 C 0.44809 0.82526 0.20704 0.0
C685 C 0.40223 0.82497 0.22275 0.0
H686 H 0.5252 0.82992 0.21664 0.0
H687 H 0.4552 0.83056 0.17722 0.0
S688 S 0.3674 0.81304 0.32309 0.0
N689 N 0.42678 0.81518 0.32177 0.0
N690 N 0.35111 0.81594 0.27923 0.0
C691 C 0.39441 0.81794 0.26136 0.0
C692 C 0.43551 0.81779 0.28435 0.0
C693 C 0.64651 0.43447 0.38329 0.0
C694 C 0.60114 0.38737 0.3977 0.0
C695 C 0.68735 0.47246 0.40685 0.0
C696 C 0.68342 0.46489 0.44562 0.0
H697 H 0.64851 0.44393 0.35384 0.0
H698 H 0.71903 0.51028 0.395 0.0
S699 S 0.578 0.34432 0.49662 0.0
N700 N 0.55897 0.3317 0.45247 0.0
N701 N 0.63502 0.40374 0.497 0.0
C702 C 0.64119 0.41555 0.45997 0.0
C703 C 0.60013 0.37646 0.4359 0.0
C704 C 0.24717 0.64395 0.53563 0.0
C705 C 0.25054 0.59855 0.54827 0.0
C706 C 0.24708 0.68195 0.56074 0.0
C707 C 0.24974 0.67527 0.59928 0.0
H708 H 0.24047 0.64794 0.50632 0.0
H709 H 0.23954 0.71341 0.55017 0.0
S710 S 0.26974 0.57002 0.64625 0.0
N711 N 0.26547 0.5545 0.60148 0.0
N712 N 0.26402 0.62518 0.64872 0.0
C713 C 0.2589 0.63356 0.61197 0.0
C714 C 0.2598 0.59536 0.5864 0.0
C715 C 0.64033 0.22925 0.71311 0.0
C716 C 0.68715 0.23 0.72732 0.0
C717 C 0.602 0.23125 0.7369 0.0
C718 C 0.60902 0.23318 0.77567 0.0
H719 H 0.63116 0.22282 0.68356 0.0
H720 H 0.56428 0.2256 0.72512 0.0
S721 S 0.729 0.24595 0.82639 0.0
N722 N 0.74214 0.24111 0.78206 0.0
N723 N 0.66965 0.24391 0.827 0.0
C724 C 0.65829 0.23973 0.78992 0.0
C725 C 0.69765 0.23848 0.76564 0.0
loop_
_geom_bond_atom_site_label_1
_geom_bond_atom_site_label_2
_geom_bond_distance
_geom_bond_site_symmetry_2
_ccdc_geom_bond_type
C0 C1 1.351 . S
C0 N3 1.368 . S
C0 H5 0.931 . S
C1 C0 1.351 . S
C1 N2 1.373 . S
C1 H29 0.930 . S
N2 C1 1.373 . S
N2 C4 1.340 . S
N3 C0 1.368 . S
N3 C4 1.321 . S
N3 Co6 2.135 1_554 S
C4 N2 1.340 . S
C4 N3 1.321 . S
C4 H28 0.930 . S
H5 C0 0.931 . S
Co6 N3 2.135 1_556 S
Co6 N9 2.121 . S
Co6 O14 2.055 . S
Co6 O17 2.039 . S
Co6 N20 2.140 1_556 S
C7 O8 1.227 . S
C7 O17 1.265 1_554 S
O8 C7 1.227 . S
N9 Co6 2.121 . S
N9 C11 1.375 . S
N9 C12 1.313 . S
C10 C11 1.338 . S
C10 N13 1.377 . S
C10 H30 0.930 . S
C11 N9 1.375 . S
C11 C10 1.338 . S
C11 H15 0.931 . S
C12 N9 1.313 . S
C12 N13 1.344 . S
C12 H16 0.930 . S
N13 C10 1.377 . S
N13 C12 1.344 . S
O14 Co6 2.055 . S
O14 C18 1.253 . S
H15 C11 0.931 . S
H16 C12 0.930 . S
O17 Co6 2.039 . S
O17 C7 1.265 1_556 S
C18 O14 1.253 . S
C18 O19 1.227 . S
O19 C18 1.227 . S
N20 Co6 2.140 1_554 S
N20 C23 1.346 . S
N20 C24 1.345 . S
C21 C22 1.387 . S
C21 C25 1.391 . S
C22 C21 1.387 . S
C22 C23 1.369 . S
C22 H31 0.929 . S
C23 N20 1.346 . S
C23 C22 1.369 . S
C23 H26 0.928 . S
C24 N20 1.345 . S
C24 C25 1.371 . S
C24 H27 0.931 . S
C25 C21 1.391 . S
C25 C24 1.371 . S
C25 H32 0.930 . S
H26 C23 0.928 . S
H27 C24 0.931 . S
H28 C4 0.930 . S
H29 C1 0.930 . S
H30 C10 0.930 . S
H31 C22 0.929 . S
H32 C25 0.930 . S
C33 C34 1.351 . S
C33 N36 1.368 . S
C33 H38 0.931 . S
C34 C33 1.351 . S
C34 N35 1.373 . S
C34 H62 0.930 . S
N35 C34 1.373 . S
N35 C37 1.340 . S
N36 C33 1.368 . S
N36 C37 1.321 . S
N36 Co39 2.135 . S
C37 N35 1.340 . S
C37 N36 1.321 . S
C37 H61 0.930 . S
H38 C33 0.931 . S
Co39 N36 2.135 . S
Co39 N42 2.121 . S
Co39 O47 2.055 . S
Co39 O50 2.039 . S
Co39 N53 2.140 . S
C40 O41 1.227 . S
C40 O50 1.265 . S
O41 C40 1.227 . S
N42 Co39 2.121 . S
N42 C44 1.375 . S
N42 C45 1.313 . S
C43 C44 1.338 . S
C43 N46 1.377 . S
C43 H63 0.930 . S
C44 N42 1.375 . S
C44 C43 1.338 . S
C44 H48 0.931 . S
C45 N42 1.313 . S
C45 N46 1.344 . S
C45 H49 0.930 . S
N46 C43 1.377 . S
N46 C45 1.344 . S
O47 Co39 2.055 . S
O47 C51 1.253 . S
H48 C44 0.931 . S
H49 C45 0.930 . S
O50 Co39 2.039 . S
O50 C40 1.265 . S
C51 O47 1.253 . S
C51 O52 1.227 . S
O52 C51 1.227 . S
N53 Co39 2.140 . S
N53 C56 1.346 . S
N53 C57 1.345 . S
C54 C55 1.387 . S
C54 C58 1.391 . S
C55 C54 1.387 . S
C55 C56 1.369 . S
C55 H64 0.929 . S
C56 N53 1.346 . S
C56 C55 1.369 . S
C56 H59 0.928 . S
C57 N53 1.345 . S
C57 C58 1.371 . S
C57 H60 0.931 . S
C58 C54 1.391 . S
C58 C57 1.371 . S
C58 H65 0.930 1_655 S
H59 C56 0.928 . S
H60 C57 0.931 . S
H61 C37 0.930 . S
H62 C34 0.930 . S
H63 C43 0.930 . S
H64 C55 0.929 . S
H65 C58 0.930 1_455 S
C66 C67 1.351 . S
C66 N69 1.368 . S
C66 H71 0.931 . S
C67 C66 1.351 . S
C67 N68 1.373 . S
C67 H95 0.930 . S
N68 C67 1.373 . S
N68 C70 1.340 . S
N69 C66 1.368 . S
N69 C70 1.321 . S
N69 Co72 2.135 . S
C70 N68 1.340 . S
C70 N69 1.321 . S
C70 H94 0.930 . S
H71 C66 0.931 . S
Co72 N69 2.135 . S
Co72 N75 2.121 . S
Co72 O80 2.055 . S
Co72 O83 2.039 . S
Co72 N86 2.140 . S
C73 O74 1.227 . S
C73 O83 1.265 . S
O74 C73 1.227 . S
N75 Co72 2.121 . S
N75 C77 1.375 . S
N75 C78 1.313 . S
C76 C77 1.338 . S
C76 N79 1.377 . S
C76 H96 0.930 . S
C77 N75 1.375 . S
C77 C76 1.338 . S
C77 H81 0.931 . S
C78 N75 1.313 . S
C78 N79 1.344 . S
C78 H82 0.930 . S
N79 C76 1.377 . S
N79 C78 1.344 . S
O80 Co72 2.055 . S
O80 C84 1.253 . S
H81 C77 0.931 . S
H82 C78 0.930 . S
O83 Co72 2.039 . S
O83 C73 1.265 . S
C84 O80 1.253 . S
C84 O85 1.227 . S
O85 C84 1.227 . S
N86 Co72 2.140 . S
N86 C89 1.346 . S
N86 C90 1.345 . S
C87 C88 1.387 . S
C87 C91 1.391 . S
C88 C87 1.387 . S
C88 C89 1.369 . S
C88 H97 0.929 . S
C89 N86 1.346 . S
C89 C88 1.369 . S
C89 H92 0.928 . S
C90 N86 1.345 . S
C90 C91 1.371 . S
C90 H93 0.931 . S
C91 C87 1.391 . S
C91 C90 1.371 . S
C91 H98 0.930 1_565 S
H92 C89 0.928 . S
H93 C90 0.931 . S
H94 C70 0.930 . S
H95 C67 0.930 . S
H96 C76 0.930 . S
H97 C88 0.929 . S
H98 C91 0.930 1_545 S
C99 C100 1.351 . S
C99 N102 1.368 . S
C99 H104 0.931 . S
C100 C99 1.351 . S
C100 N101 1.373 . S
C100 H128 0.930 . S
N101 C100 1.373 . S
N101 C103 1.340 . S
N102 C99 1.368 . S
N102 C103 1.321 . S
N102 Co105 2.135 . S
C103 N101 1.340 . S
C103 N102 1.321 . S
C103 H127 0.930 . S
H104 C99 0.931 . S
Co105 N102 2.135 . S
Co105 N108 2.121 . S
Co105 O113 2.055 . S
Co105 O116 2.039 . S
Co105 N119 2.140 . S
C106 O107 1.227 . S
C106 O116 1.265 . S
O107 C106 1.227 . S
N108 Co105 2.121 . S
N108 C110 1.375 . S
N108 C111 1.313 . S
C109 C110 1.338 . S
C109 N112 1.377 . S
C109 H129 0.930 . S
C110 N108 1.375 . S
C110 C109 1.338 . S
C110 H114 0.931 . S
C111 N108 1.313 . S
C111 N112 1.344 . S
C111 H115 0.930 . S
N112 C109 1.377 . S
N112 C111 1.344 . S
O113 Co105 2.055 . S
O113 C117 1.253 . S
H114 C110 0.931 . S
H115 C111 0.930 . S
O116 Co105 2.039 . S
O116 C106 1.265 . S
C117 O113 1.253 . S
C117 O118 1.227 . S
O118 C117 1.227 . S
N119 Co105 2.140 . S
N119 C122 1.346 . S
N119 C123 1.345 . S
C120 C121 1.387 . S
C120 C124 1.391 . S
C121 C120 1.387 . S
C121 C122 1.369 . S
C121 H130 0.929 . S
C122 N119 1.346 . S
C122 C121 1.369 . S
C122 H125 0.928 . S
C123 N119 1.345 . S
C123 C124 1.371 . S
C123 H126 0.931 . S
C124 C120 1.391 . S
C124 C123 1.371 . S
C124 H131 0.930 . S
H125 C122 0.928 . S
H126 C123 0.931 . S
H127 C103 0.930 . S
H128 C100 0.930 . S
H129 C109 0.930 . S
H130 C121 0.929 . S
H131 C124 0.930 . S
C132 C133 1.351 . S
C132 N135 1.368 . S
C132 H137 0.931 . S
C133 C132 1.351 . S
C133 N134 1.373 . S
C133 H161 0.930 . S
N134 C133 1.373 . S
N134 C136 1.340 . S
N135 C132 1.368 . S
N135 C136 1.321 . S
N135 Co138 2.135 . S
C136 N134 1.340 . S
C136 N135 1.321 . S
C136 H160 0.930 . S
H137 C132 0.931 . S
Co138 N135 2.135 . S
Co138 N141 2.121 . S
Co138 O146 2.055 . S
Co138 O149 2.039 . S
Co138 N152 2.140 . S
C139 O140 1.227 . S
C139 O149 1.265 . S
O140 C139 1.227 . S
N141 Co138 2.121 . S
N141 C143 1.375 . S
N141 C144 1.313 . S
C142 C143 1.338 . S
C142 N145 1.377 . S
C142 H162 0.930 . S
C143 N141 1.375 . S
C143 C142 1.338 . S
C143 H147 0.931 . S
C144 N141 1.313 . S
C144 N145 1.344 . S
C144 H148 0.930 . S
N145 C142 1.377 . S
N145 C144 1.344 . S
O146 Co138 2.055 . S
O146 C150 1.253 . S
H147 C143 0.931 . S
H148 C144 0.930 . S
O149 Co138 2.039 . S
O149 C139 1.265 . S
C150 O146 1.253 . S
C150 O151 1.227 . S
O151 C150 1.227 . S
N152 Co138 2.140 . S
N152 C155 1.346 . S
N152 C156 1.345 . S
C153 C154 1.387 . S
C153 C157 1.391 . S
C154 C153 1.387 . S
C154 C155 1.369 . S
C154 H163 0.929 . S
C155 N152 1.346 . S
C155 C154 1.369 . S
C155 H158 0.928 . S
C156 N152 1.345 . S
C156 C157 1.371 . S
C156 H159 0.931 . S
C157 C153 1.391 . S
C157 C156 1.371 . S
C157 H164 0.930 1_455 S
H158 C155 0.928 . S
H159 C156 0.931 . S
H160 C136 0.930 . S
H161 C133 0.930 . S
H162 C142 0.930 . S
H163 C154 0.929 . S
H164 C157 0.930 1_655 S
C165 C166 1.351 . S
C165 N168 1.368 . S
C165 H170 0.931 . S
C166 C165 1.351 . S
C166 N167 1.373 . S
C166 H194 0.930 . S
N167 C166 1.373 . S
N167 C169 1.340 . S
N168 C165 1.368 . S
N168 C169 1.321 . S
N168 Co171 2.135 . S
C169 N167 1.340 . S
C169 N168 1.321 . S
C169 H193 0.930 . S
H170 C165 0.931 . S
Co171 N168 2.135 . S
Co171 N174 2.121 . S
Co171 O179 2.055 . S
Co171 O182 2.039 . S
Co171 N185 2.140 . S
C172 O173 1.227 . S
C172 O182 1.265 . S
O173 C172 1.227 . S
N174 Co171 2.121 . S
N174 C176 1.375 . S
N174 C177 1.313 . S
C175 C176 1.338 . S
C175 N178 1.377 . S
C175 H195 0.930 . S
C176 N174 1.375 . S
C176 C175 1.338 . S
C176 H180 0.931 . S
C177 N174 1.313 . S
C177 N178 1.344 . S
C177 H181 0.930 . S
N178 C175 1.377 . S
N178 C177 1.344 . S
O179 Co171 2.055 . S
O179 C183 1.253 . S
H180 C176 0.931 . S
H181 C177 0.930 . S
O182 Co171 2.039 . S
O182 C172 1.265 . S
C183 O179 1.253 . S
C183 O184 1.227 . S
O184 C183 1.227 . S
N185 Co171 2.140 . S
N185 C188 1.346 . S
N185 C189 1.345 . S
C186 C187 1.387 . S
C186 C190 1.391 . S
C187 C186 1.387 . S
C187 C188 1.369 . S
C187 H196 0.929 . S
C188 N185 1.346 . S
C188 C187 1.369 . S
C188 H191 0.928 . S
C189 N185 1.345 . S
C189 C190 1.371 . S
C189 H192 0.931 . S
C190 C186 1.391 . S
C190 C189 1.371 . S
C190 H197 0.930 1_545 S
H191 C188 0.928 . S
H192 C189 0.931 . S
H193 C169 0.930 . S
H194 C166 0.930 . S
H195 C175 0.930 . S
H196 C187 0.929 . S
H197 C190 0.930 1_565 S
C198 C199 1.351 . S
C198 N201 1.368 . S
C198 H203 0.931 . S
C199 C198 1.351 . S
C199 N200 1.373 . S
C199 H227 0.930 . S
N200 C199 1.373 . S
N200 C202 1.340 . S
N201 C198 1.368 . S
N201 C202 1.321 . S
N201 Co204 2.135 . S
C202 N200 1.340 . S
C202 N201 1.321 . S
C202 H226 0.930 . S
H203 C198 0.931 . S
Co204 N201 2.135 . S
Co204 N207 2.121 . S
Co204 O212 2.055 . S
Co204 O215 2.039 . S
Co204 N218 2.140 . S
C205 O206 1.227 . S
C205 O215 1.265 . S
O206 C205 1.227 . S
N207 Co204 2.121 . S
N207 C209 1.375 . S
N207 C210 1.313 . S
C208 C209 1.338 . S
C208 N211 1.377 . S
C208 H228 0.930 . S
C209 N207 1.375 . S
C209 C208 1.338 . S
C209 H213 0.931 . S
C210 N207 1.313 . S
C210 N211 1.344 . S
C210 H214 0.930 . S
N211 C208 1.377 . S
N211 C210 1.344 . S
O212 Co204 2.055 . S
O212 C216 1.253 . S
H213 C209 0.931 . S
H214 C210 0.930 . S
O215 Co204 2.039 . S
O215 C205 1.265 . S
C216 O212 1.253 . S
C216 O217 1.227 . S
O217 C216 1.227 . S
N218 Co204 2.140 . S
N218 C221 1.346 . S
N218 C222 1.345 . S
C219 C220 1.387 . S
C219 C223 1.391 . S
C220 C219 1.387 . S
C220 C221 1.369 . S
C220 H229 0.929 . S
C221 N218 1.346 . S
C221 C220 1.369 . S
C221 H224 0.928 . S
C222 N218 1.345 . S
C222 C223 1.371 . S
C222 H225 0.931 . S
C223 C219 1.391 . S
C223 C222 1.371 . S
C223 H230 0.930 . S
H224 C221 0.928 . S
H225 C222 0.931 . S
H226 C202 0.930 . S
H227 C199 0.930 . S
H228 C208 0.930 . S
H229 C220 0.929 . S
H230 C223 0.930 . S
C231 C232 1.351 . S
C231 N234 1.368 . S
C231 H236 0.931 . S
C232 C231 1.351 . S
C232 N233 1.373 . S
C232 H260 0.930 . S
N233 C232 1.373 . S
N233 C235 1.340 . S
N234 C231 1.368 . S
N234 C235 1.321 . S
N234 Co237 2.135 1_556 S
C235 N233 1.340 . S
C235 N234 1.321 . S
C235 H259 0.930 . S
H236 C231 0.931 . S
Co237 N234 2.135 1_554 S
Co237 N240 2.121 . S
Co237 O245 2.055 . S
Co237 O248 2.039 . S
Co237 N251 2.140 1_554 S
C238 O239 1.227 . S
C238 O248 1.265 1_556 S
O239 C238 1.227 . S
N240 Co237 2.121 . S
N240 C242 1.375 . S
N240 C243 1.313 . S
C241 C242 1.338 . S
C241 N244 1.377 . S
C241 H261 0.930 . S
C242 N240 1.375 . S
C242 C241 1.338 . S
C242 H246 0.931 . S
C243 N240 1.313 . S
C243 N244 1.344 . S
C243 H247 0.930 . S
N244 C241 1.377 . S
N244 C243 1.344 . S
O245 Co237 2.055 . S
O245 C249 1.253 . S
H246 C242 0.931 . S
H247 C243 0.930 . S
O248 Co237 2.039 . S
O248 C238 1.265 1_554 S
C249 O245 1.253 . S
C249 O250 1.227 . S
O250 C249 1.227 . S
N251 Co237 2.140 1_556 S
N251 C254 1.346 . S
N251 C255 1.345 . S
C252 C253 1.387 . S
C252 C256 1.391 . S
C253 C252 1.387 . S
C253 C254 1.369 . S
C253 H262 0.929 . S
C254 N251 1.346 . S
C254 C253 1.369 . S
C254 H257 0.928 . S
C255 N251 1.345 . S
C255 C256 1.371 . S
C255 H258 0.931 . S
C256 C252 1.391 . S
C256 C255 1.371 . S
C256 H263 0.930 1_655 S
H257 C254 0.928 . S
H258 C255 0.931 . S
H259 C235 0.930 . S
H260 C232 0.930 . S
H261 C241 0.930 . S
H262 C253 0.929 . S
H263 C256 0.930 1_455 S
C264 C265 1.351 . S
C264 N267 1.368 . S
C264 H269 0.931 . S
C265 C264 1.351 . S
C265 N266 1.373 . S
C265 H293 0.930 . S
N266 C265 1.373 . S
N266 C268 1.340 . S
N267 C264 1.368 . S
N267 C268 1.321 . S
N267 Co270 2.135 . S
C268 N266 1.340 . S
C268 N267 1.321 . S
C268 H292 0.930 . S
H269 C264 0.931 . S
Co270 N267 2.135 . S
Co270 N273 2.121 . S
Co270 O278 2.055 . S
Co270 O281 2.039 . S
Co270 N284 2.140 . S
C271 O272 1.227 . S
C271 O281 1.265 . S
O272 C271 1.227 . S
N273 Co270 2.121 . S
N273 C275 1.375 . S
N273 C276 1.313 . S
C274 C275 1.338 . S
C274 N277 1.377 . S
C274 H294 0.930 . S
C275 N273 1.375 . S
C275 C274 1.338 . S
C275 H279 0.931 . S
C276 N273 1.313 . S
C276 N277 1.344 . S
C276 H280 0.930 . S
N277 C274 1.377 . S
N277 C276 1.344 . S
O278 Co270 2.055 . S
O278 C282 1.253 . S
H279 C275 0.931 . S
H280 C276 0.930 . S
O281 Co270 2.039 . S
O281 C271 1.265 . S
C282 O278 1.253 . S
C282 O283 1.227 . S
O283 C282 1.227 . S
N284 Co270 2.140 . S
N284 C287 1.346 . S
N284 C288 1.345 . S
C285 C286 1.387 . S
C285 C289 1.391 . S
C286 C285 1.387 . S
C286 C287 1.369 . S
C286 H295 0.929 . S
C287 N284 1.346 . S
C287 C286 1.369 . S
C287 H290 0.928 . S
C288 N284 1.345 . S
C288 C289 1.371 . S
C288 H291 0.931 . S
C289 C285 1.391 . S
C289 C288 1.371 . S
C289 H296 0.930 1_565 S
H290 C287 0.928 . S
H291 C288 0.931 . S
H292 C268 0.930 . S
H293 C265 0.930 . S
H294 C274 0.930 . S
H295 C286 0.929 . S
H296 C289 0.930 1_545 S
C297 C298 1.351 . S
C297 N300 1.368 . S
C297 H302 0.931 . S
C298 C297 1.351 . S
C298 N299 1.373 . S
C298 H326 0.930 . S
N299 C298 1.373 . S
N299 C301 1.340 . S
N300 C297 1.368 . S
N300 C301 1.321 . S
N300 Co303 2.135 . S
C301 N299 1.340 . S
C301 N300 1.321 . S
C301 H325 0.930 . S
H302 C297 0.931 . S
Co303 N300 2.135 . S
Co303 N306 2.121 . S
Co303 O311 2.055 . S
Co303 O314 2.039 . S
Co303 N317 2.140 . S
C304 O305 1.227 . S
C304 O314 1.265 . S
O305 C304 1.227 . S
N306 Co303 2.121 . S
N306 C308 1.375 . S
N306 C309 1.313 . S
C307 C308 1.338 . S
C307 N310 1.377 . S
C307 H327 0.930 . S
C308 N306 1.375 . S
C308 C307 1.338 . S
C308 H312 0.931 . S
C309 N306 1.313 . S
C309 N310 1.344 . S
C309 H313 0.930 . S
N310 C307 1.377 . S
N310 C309 1.344 . S
O311 Co303 2.055 . S
O311 C315 1.253 . S
H312 C308 0.931 . S
H313 C309 0.930 . S
O314 Co303 2.039 . S
O314 C304 1.265 . S
C315 O311 1.253 . S
C315 O316 1.227 . S
O316 C315 1.227 . S
N317 Co303 2.140 . S
N317 C320 1.346 . S
N317 C321 1.345 . S
C318 C319 1.387 . S
C318 C322 1.391 . S
C319 C318 1.387 . S
C319 C320 1.369 . S
C319 H328 0.929 . S
C320 N317 1.346 . S
C320 C319 1.369 . S
C320 H323 0.928 . S
C321 N317 1.345 . S
C321 C322 1.371 . S
C321 H324 0.931 . S
C322 C318 1.391 . S
C322 C321 1.371 . S
C322 H329 0.930 . S
H323 C320 0.928 . S
H324 C321 0.931 . S
H325 C301 0.930 . S
H326 C298 0.930 . S
H327 C307 0.930 . S
H328 C319 0.929 . S
H329 C322 0.930 . S
C330 C331 1.351 . S
C330 N333 1.368 . S
C330 H335 0.931 . S
C331 C330 1.351 . S
C331 N332 1.373 . S
C331 H359 0.930 . S
N332 C331 1.373 . S
N332 C334 1.340 . S
N333 C330 1.368 . S
N333 C334 1.321 . S
N333 Co336 2.135 . S
C334 N332 1.340 . S
C334 N333 1.321 . S
C334 H358 0.930 . S
H335 C330 0.931 . S
Co336 N333 2.135 . S
Co336 N339 2.121 . S
Co336 O344 2.055 . S
Co336 O347 2.039 . S
Co336 N350 2.140 . S
C337 O338 1.227 . S
C337 O347 1.265 . S
O338 C337 1.227 . S
N339 Co336 2.121 . S
N339 C341 1.375 . S
N339 C342 1.313 . S
C340 C341 1.338 . S
C340 N343 1.377 . S
C340 H360 0.930 . S
C341 N339 1.375 . S
C341 C340 1.338 . S
C341 H345 0.931 . S
C342 N339 1.313 . S
C342 N343 1.344 . S
C342 H346 0.930 . S
N343 C340 1.377 . S
N343 C342 1.344 . S
O344 Co336 2.055 . S
O344 C348 1.253 . S
H345 C341 0.931 . S
H346 C342 0.930 . S
O347 Co336 2.039 . S
O347 C337 1.265 . S
C348 O344 1.253 . S
C348 O349 1.227 . S
O349 C348 1.227 . S
N350 Co336 2.140 . S
N350 C353 1.346 . S
N350 C354 1.345 . S
C351 C352 1.387 . S
C351 C355 1.391 . S
C352 C351 1.387 . S
C352 C353 1.369 . S
C352 H361 0.929 . S
C353 N350 1.346 . S
C353 C352 1.369 . S
C353 H356 0.928 . S
C354 N350 1.345 . S
C354 C355 1.371 . S
C354 H357 0.931 . S
C355 C351 1.391 . S
C355 C354 1.371 . S
C355 H362 0.930 1_455 S
H356 C353 0.928 . S
H357 C354 0.931 . S
H358 C334 0.930 . S
H359 C331 0.930 . S
H360 C340 0.930 . S
H361 C352 0.929 . S
H362 C355 0.930 1_655 S
C363 C364 1.351 . S
C363 N366 1.368 . S
C363 H368 0.931 . S
C364 C363 1.351 . S
C364 N365 1.373 . S
C364 H392 0.930 . S
N365 C364 1.373 . S
N365 C367 1.340 . S
N366 C363 1.368 . S
N366 C367 1.321 . S
N366 Co369 2.135 . S
C367 N365 1.340 . S
C367 N366 1.321 . S
C367 H391 0.930 . S
H368 C363 0.931 . S
Co369 N366 2.135 . S
Co369 N372 2.121 . S
Co369 O377 2.055 . S
Co369 O380 2.039 . S
Co369 N383 2.140 . S
C370 O371 1.227 . S
C370 O380 1.265 . S
O371 C370 1.227 . S
N372 Co369 2.121 . S
N372 C374 1.375 . S
N372 C375 1.313 . S
C373 C374 1.338 . S
C373 N376 1.377 . S
C373 H393 0.930 . S
C374 N372 1.375 . S
C374 C373 1.338 . S
C374 H378 0.931 . S
C375 N372 1.313 . S
C375 N376 1.344 . S
C375 H379 0.930 . S
N376 C373 1.377 . S
N376 C375 1.344 . S
O377 Co369 2.055 . S
O377 C381 1.253 . S
H378 C374 0.931 . S
H379 C375 0.930 . S
O380 Co369 2.039 . S
O380 C370 1.265 . S
C381 O377 1.253 . S
C381 O382 1.227 . S
O382 C381 1.227 . S
N383 Co369 2.140 . S
N383 C386 1.346 . S
N383 C387 1.345 . S
C384 C385 1.387 . S
C384 C388 1.391 . S
C385 C384 1.387 . S
C385 C386 1.369 . S
C385 H394 0.929 . S
C386 N383 1.346 . S
C386 C385 1.369 . S
C386 H389 0.928 . S
C387 N383 1.345 . S
C387 C388 1.371 . S
C387 H390 0.931 . S
C388 C384 1.391 . S
C388 C387 1.371 . S
C388 H395 0.930 1_545 S
H389 C386 0.928 . S
H390 C387 0.931 . S
H391 C367 0.930 . S
H392 C364 0.930 . S
H393 C373 0.930 . S
H394 C385 0.929 . S
H395 C388 0.930 1_565 S
C396 C397 1.369 . S
C396 C398 1.419 . S
C396 H400 0.930 . S
C397 C396 1.369 . S
C397 C406 1.429 . S
C398 C396 1.419 . S
C398 C399 1.363 . S
C398 H401 0.929 . S
C399 C398 1.363 . S
C399 C405 1.428 . S
H400 C396 0.930 . S
H401 C398 0.929 . S
S402 N403 1.613 . S
S402 N404 1.610 . S
N403 S402 1.613 . S
N403 C406 1.350 . S
N404 S402 1.610 . S
N404 C405 1.351 . S
C405 C399 1.428 . S
C405 N404 1.351 . S
C405 C406 1.434 . S
C406 C397 1.429 . S
C406 N403 1.350 . S
C406 C405 1.434 . S
C407 C408 1.369 . S
C407 C409 1.419 . S
C407 H411 0.930 . S
C408 C407 1.369 . S
C408 C417 1.429 . S
C409 C407 1.419 . S
C409 C410 1.363 . S
C409 H412 0.929 . S
C410 C409 1.363 . S
C410 C416 1.428 . S
H411 C407 0.930 . S
H412 C409 0.929 . S
S413 N414 1.613 1_655 S
S413 N415 1.610 1_556 S
N414 S413 1.613 1_455 S
N414 C417 1.350 1_556 S
N415 S413 1.610 1_554 S
N415 C416 1.351 1_655 S
C416 C410 1.428 . S
C416 N415 1.351 1_455 S
C416 C417 1.434 . S
C417 C408 1.429 . S
C417 N414 1.350 1_554 S
C417 C416 1.434 . S
C418 C419 1.369 . S
C418 C420 1.419 . S
C418 H422 0.930 . S
C419 C418 1.369 . S
C419 C428 1.429 . S
C420 C418 1.419 . S
C420 C421 1.363 . S
C420 H423 0.929 1_545 S
C421 C420 1.363 . S
C421 C427 1.428 . S
H422 C418 0.930 . S
H423 C420 0.929 1_565 S
S424 N425 1.613 . S
S424 N426 1.610 . S
N425 S424 1.613 . S
N425 C428 1.350 . S
N426 S424 1.610 . S
N426 C427 1.351 . S
C427 C421 1.428 . S
C427 N426 1.351 . S
C427 C428 1.434 . S
C428 C419 1.429 . S
C428 N425 1.350 . S
C428 C427 1.434 . S
C429 C430 1.369 . S
C429 C431 1.419 . S
C429 H433 0.930 . S
C430 C429 1.369 . S
C430 C439 1.429 . S
C431 C429 1.419 . S
C431 C432 1.363 . S
C431 H434 0.929 . S
C432 C431 1.363 . S
C432 C438 1.428 . S
H433 C429 0.930 . S
H434 C431 0.929 . S
S435 N436 1.613 . S
S435 N437 1.610 . S
N436 S435 1.613 . S
N436 C439 1.350 . S
N437 S435 1.610 . S
N437 C438 1.351 . S
C438 C432 1.428 . S
C438 N437 1.351 . S
C438 C439 1.434 . S
C439 C430 1.429 . S
C439 N436 1.350 . S
C439 C438 1.434 . S
C440 C441 1.369 . S
C440 C442 1.419 . S
C440 H444 0.930 . S
C441 C440 1.369 . S
C441 C450 1.429 . S
C442 C440 1.419 . S
C442 C443 1.363 . S
C442 H445 0.929 . S
C443 C442 1.363 . S
C443 C449 1.428 . S
H444 C440 0.930 . S
H445 C442 0.929 . S
S446 N447 1.613 . S
S446 N448 1.610 . S
N447 S446 1.613 . S
N447 C450 1.350 . S
N448 S446 1.610 . S
N448 C449 1.351 . S
C449 C443 1.428 . S
C449 N448 1.351 . S
C449 C450 1.434 . S
C450 C441 1.429 . S
C450 N447 1.350 . S
C450 C449 1.434 . S
C451 C452 1.369 . S
C451 C453 1.419 . S
C451 H455 0.930 . S
C452 C451 1.369 . S
C452 C461 1.429 . S
C453 C451 1.419 . S
C453 C454 1.363 . S
C453 H456 0.929 . S
C454 C453 1.363 . S
C454 C460 1.428 . S
H455 C451 0.930 . S
H456 C453 0.929 . S
S457 N458 1.613 1_545 S
S457 N459 1.610 . S
N458 S457 1.613 1_565 S
N458 C461 1.350 . S
N459 S457 1.610 . S
N459 C460 1.351 1_545 S
C460 C454 1.428 . S
C460 N459 1.351 1_565 S
C460 C461 1.434 . S
C461 C452 1.429 . S
C461 N458 1.350 . S
C461 C460 1.434 . S
C462 C463 1.369 . S
C462 C464 1.419 . S
C462 H466 0.930 . S
C463 C462 1.369 . S
C463 C472 1.429 . S
C464 C462 1.419 . S
C464 C465 1.363 . S
C464 H467 0.929 . S
C465 C464 1.363 . S
C465 C471 1.428 . S
H466 C462 0.930 . S
H467 C464 0.929 . S
S468 N469 1.613 . S
S468 N470 1.610 1_554 S
N469 S468 1.613 . S
N469 C472 1.350 1_554 S
N470 S468 1.610 1_556 S
N470 C471 1.351 . S
C471 C465 1.428 . S
C471 N470 1.351 . S
C471 C472 1.434 . S
C472 C463 1.429 . S
C472 N469 1.350 1_556 S
C472 C471 1.434 . S
C473 C474 1.369 . S
C473 C475 1.419 . S
C473 H477 0.930 . S
C474 C473 1.369 . S
C474 C483 1.429 . S
C475 C473 1.419 . S
C475 C476 1.363 . S
C475 H478 0.929 1_455 S
C476 C475 1.363 . S
C476 C482 1.428 . S
H477 C473 0.930 . S
H478 C475 0.929 1_655 S
S479 N480 1.613 . S
S479 N481 1.610 . S
N480 S479 1.613 . S
N480 C483 1.350 . S
N481 S479 1.610 . S
N481 C482 1.351 . S
C482 C476 1.428 . S
C482 N481 1.351 . S
C482 C483 1.434 . S
C483 C474 1.429 . S
C483 N480 1.350 . S
C483 C482 1.434 . S
C484 C485 1.369 . S
C484 C486 1.419 . S
C484 H488 0.930 . S
C485 C484 1.369 . S
C485 C494 1.429 . S
C486 C484 1.419 . S
C486 C487 1.363 . S
C486 H489 0.929 . S
C487 C486 1.363 . S
C487 C493 1.428 . S
H488 C484 0.930 . S
H489 C486 0.929 . S
S490 N491 1.613 . S
S490 N492 1.610 . S
N491 S490 1.613 . S
N491 C494 1.350 . S
N492 S490 1.610 . S
N492 C493 1.351 . S
C493 C487 1.428 . S
C493 N492 1.351 . S
C493 C494 1.434 . S
C494 C485 1.429 . S
C494 N491 1.350 . S
C494 C493 1.434 . S
C495 C496 1.369 . S
C495 C497 1.419 . S
C495 H499 0.930 . S
C496 C495 1.369 . S
C496 C505 1.429 . S
C497 C495 1.419 . S
C497 C498 1.363 . S
C497 H500 0.929 . S
C498 C497 1.363 . S
C498 C504 1.428 . S
H499 C495 0.930 . S
H500 C497 0.929 . S
S501 N502 1.613 . S
S501 N503 1.610 . S
N502 S501 1.613 . S
N502 C505 1.350 . S
N503 S501 1.610 . S
N503 C504 1.351 . S
C504 C498 1.428 . S
C504 N503 1.351 . S
C504 C505 1.434 . S
C505 C496 1.429 . S
C505 N502 1.350 . S
C505 C504 1.434 . S
C506 C507 1.369 . S
C506 C508 1.419 . S
C506 H510 0.930 . S
C507 C506 1.369 . S
C507 C516 1.429 . S
C508 C506 1.419 . S
C508 C509 1.363 . S
C508 H511 0.929 . S
C509 C508 1.363 . S
C509 C515 1.428 . S
H510 C506 0.930 . S
H511 C508 0.929 . S
S512 N513 1.613 1_455 S
S512 N514 1.610 . S
N513 S512 1.613 1_655 S
N513 C516 1.350 . S
N514 S512 1.610 . S
N514 C515 1.351 1_455 S
C515 C509 1.428 . S
C515 N514 1.351 1_655 S
C515 C516 1.434 . S
C516 C507 1.429 . S
C516 N513 1.350 . S
C516 C515 1.434 . S
C517 C518 1.369 . S
C517 C519 1.419 . S
C517 H521 0.930 . S
C518 C517 1.369 . S
C518 C527 1.429 . S
C519 C517 1.419 . S
C519 C520 1.363 . S
C519 H522 0.929 . S
C520 C519 1.363 . S
C520 C526 1.428 . S
H521 C517 0.930 . S
H522 C519 0.929 . S
S523 N524 1.613 . S
S523 N525 1.610 1_565 S
N524 S523 1.613 . S
N524 C527 1.350 . S
N525 S523 1.610 1_545 S
N525 C526 1.351 1_545 S
C526 C520 1.428 . S
C526 N525 1.351 1_565 S
C526 C527 1.434 . S
C527 C518 1.429 . S
C527 N524 1.350 . S
C527 C526 1.434 . S
C528 C529 1.369 . S
C528 C530 1.419 . S
C528 H532 0.930 . S
C529 C528 1.369 . S
C529 C538 1.429 . S
C530 C528 1.419 . S
C530 C531 1.363 . S
C530 H533 0.929 . S
C531 C530 1.363 . S
C531 C537 1.428 . S
H532 C528 0.930 . S
H533 C530 0.929 . S
S534 N535 1.613 . S
S534 N536 1.610 . S
N535 S534 1.613 . S
N535 C538 1.350 . S
N536 S534 1.610 . S
N536 C537 1.351 . S
C537 C531 1.428 . S
C537 N536 1.351 . S
C537 C538 1.434 . S
C538 C529 1.429 . S
C538 N535 1.350 . S
C538 C537 1.434 . S
C539 C540 1.369 . S
C539 C541 1.419 . S
C539 H543 0.930 . S
C540 C539 1.369 . S
C540 C549 1.429 . S
C541 C539 1.419 . S
C541 C542 1.363 . S
C541 H544 0.929 . S
C542 C541 1.363 . S
C542 C548 1.428 . S
H543 C539 0.930 . S
H544 C541 0.929 . S
S545 N546 1.613 . S
S545 N547 1.610 . S
N546 S545 1.613 . S
N546 C549 1.350 . S
N547 S545 1.610 . S
N547 C548 1.351 . S
C548 C542 1.428 . S
C548 N547 1.351 . S
C548 C549 1.434 . S
C549 C540 1.429 . S
C549 N546 1.350 . S
C549 C548 1.434 . S
C550 C551 1.369 . S
C550 C552 1.419 . S
C550 H554 0.930 . S
C551 C550 1.369 . S
C551 C560 1.429 . S
C552 C550 1.419 . S
C552 C553 1.363 . S
C552 H555 0.929 . S
C553 C552 1.363 . S
C553 C559 1.428 . S
H554 C550 0.930 . S
H555 C552 0.929 . S
S556 N557 1.613 . S
S556 N558 1.610 . S
N557 S556 1.613 . S
N557 C560 1.350 . S
N558 S556 1.610 . S
N558 C559 1.351 . S
C559 C553 1.428 . S
C559 N558 1.351 . S
C559 C560 1.434 . S
C560 C551 1.429 . S
C560 N557 1.350 . S
C560 C559 1.434 . S
C561 C562 1.369 . S
C561 C563 1.419 . S
C561 H565 0.930 . S
C562 C561 1.369 . S
C562 C571 1.429 . S
C563 C561 1.419 . S
C563 C564 1.363 . S
C563 H566 0.929 . S
C564 C563 1.363 . S
C564 C570 1.428 . S
H565 C561 0.930 . S
H566 C563 0.929 . S
S567 N568 1.613 . S
S567 N569 1.610 . S
N568 S567 1.613 . S
N568 C571 1.350 . S
N569 S567 1.610 . S
N569 C570 1.351 . S
C570 C564 1.428 . S
C570 N569 1.351 . S
C570 C571 1.434 . S
C571 C562 1.429 . S
C571 N568 1.350 . S
C571 C570 1.434 . S
C572 C573 1.369 . S
C572 C574 1.419 . S
C572 H576 0.930 . S
C573 C572 1.369 . S
C573 C582 1.429 . S
C574 C572 1.419 . S
C574 C575 1.363 . S
C574 H577 0.929 . S
C575 C574 1.363 . S
C575 C581 1.428 . S
H576 C572 0.930 . S
H577 C574 0.929 . S
S578 N579 1.613 . S
S578 N580 1.610 . S
N579 S578 1.613 . S
N579 C582 1.350 . S
N580 S578 1.610 . S
N580 C581 1.351 . S
C581 C575 1.428 . S
C581 N580 1.351 . S
C581 C582 1.434 . S
C582 C573 1.429 . S
C582 N579 1.350 . S
C582 C581 1.434 . S
C583 C584 1.369 . S
C583 C585 1.419 . S
C583 H587 0.930 . S
C584 C583 1.369 . S
C584 C593 1.429 . S
C585 C583 1.419 . S
C585 C586 1.363 . S
C585 H588 0.929 . S
C586 C585 1.363 . S
C586 C592 1.428 . S
H587 C583 0.930 . S
H588 C585 0.929 . S
S589 N590 1.613 . S
S589 N591 1.610 . S
N590 S589 1.613 . S
N590 C593 1.350 . S
N591 S589 1.610 . S
N591 C592 1.351 . S
C592 C586 1.428 . S
C592 N591 1.351 . S
C592 C593 1.434 . S
C593 C584 1.429 . S
C593 N590 1.350 . S
C593 C592 1.434 . S
C594 C595 1.369 . S
C594 C596 1.419 . S
C594 H598 0.930 . S
C595 C594 1.369 . S
C595 C604 1.429 . S
C596 C594 1.419 . S
C596 C597 1.363 . S
C596 H599 0.929 . S
C597 C596 1.363 . S
C597 C603 1.428 . S
H598 C594 0.930 . S
H599 C596 0.929 . S
S600 N601 1.613 . S
S600 N602 1.610 . S
N601 S600 1.613 . S
N601 C604 1.350 . S
N602 S600 1.610 . S
N602 C603 1.351 . S
C603 C597 1.428 . S
C603 N602 1.351 . S
C603 C604 1.434 . S
C604 C595 1.429 . S
C604 N601 1.350 . S
C604 C603 1.434 . S
C605 C606 1.369 1_655 S
C605 C607 1.419 . S
C605 H609 0.930 . S
C606 C605 1.369 1_455 S
C606 C615 1.429 . S
C607 C605 1.419 . S
C607 C608 1.363 . S
C607 H610 0.929 . S
C608 C607 1.363 . S
C608 C614 1.428 1_655 S
H609 C605 0.930 . S
H610 C607 0.929 . S
S611 N612 1.613 . S
S611 N613 1.610 . S
N612 S611 1.613 . S
N612 C615 1.350 . S
N613 S611 1.610 . S
N613 C614 1.351 . S
C614 C608 1.428 1_455 S
C614 N613 1.351 . S
C614 C615 1.434 . S
C615 C606 1.429 . S
C615 N612 1.350 . S
C615 C614 1.434 . S
C616 C617 1.369 . S
C616 C618 1.419 . S
C616 H620 0.930 . S
C617 C616 1.369 . S
C617 C626 1.429 1_565 S
C618 C616 1.419 . S
C618 C619 1.363 1_565 S
C618 H621 0.929 . S
C619 C618 1.363 1_545 S
C619 C625 1.428 . S
H620 C616 0.930 . S
H621 C618 0.929 . S
S622 N623 1.613 . S
S622 N624 1.610 . S
N623 S622 1.613 . S
N623 C626 1.350 . S
N624 S622 1.610 . S
N624 C625 1.351 . S
C625 C619 1.428 . S
C625 N624 1.351 . S
C625 C626 1.434 . S
C626 C617 1.429 1_545 S
C626 N623 1.350 . S
C626 C625 1.434 . S
C627 C628 1.369 . S
C627 C629 1.419 . S
C627 H631 0.930 . S
C628 C627 1.369 . S
C628 C637 1.429 . S
C629 C627 1.419 . S
C629 C630 1.363 . S
C629 H632 0.929 . S
C630 C629 1.363 . S
C630 C636 1.428 . S
H631 C627 0.930 . S
H632 C629 0.929 . S
S633 N634 1.613 . S
S633 N635 1.610 . S
N634 S633 1.613 . S
N634 C637 1.350 . S
N635 S633 1.610 . S
N635 C636 1.351 . S
C636 C630 1.428 . S
C636 N635 1.351 . S
C636 C637 1.434 . S
C637 C628 1.429 . S
C637 N634 1.350 . S
C637 C636 1.434 . S
C638 C639 1.369 1_655 S
C638 C640 1.419 . S
C638 H642 0.930 . S
C639 C638 1.369 1_455 S
C639 C648 1.429 . S
C640 C638 1.419 . S
C640 C641 1.363 . S
C640 H643 0.929 . S
C641 C640 1.363 . S
C641 C647 1.428 1_655 S
H642 C638 0.930 . S
H643 C640 0.929 . S
S644 N645 1.613 . S
S644 N646 1.610 . S
N645 S644 1.613 . S
N645 C648 1.350 . S
N646 S644 1.610 . S
N646 C647 1.351 . S
C647 C641 1.428 1_455 S
C647 N646 1.351 . S
C647 C648 1.434 . S
C648 C639 1.429 . S
C648 N645 1.350 . S
C648 C647 1.434 . S
C649 C650 1.369 . S
C649 C651 1.419 1_554 S
C649 H653 0.930 . S
C650 C649 1.369 . S
C650 C659 1.429 1_565 S
C651 C649 1.419 1_556 S
C651 C652 1.363 1_565 S
C651 H654 0.929 . S
C652 C651 1.363 1_545 S
C652 C658 1.428 . S
H653 C649 0.930 . S
H654 C651 0.929 . S
S655 N656 1.613 . S
S655 N657 1.610 1_554 S
N656 S655 1.613 . S
N656 C659 1.350 . S
N657 S655 1.610 1_556 S
N657 C658 1.351 . S
C658 C652 1.428 . S
C658 N657 1.351 . S
C658 C659 1.434 1_556 S
C659 C650 1.429 1_545 S
C659 N656 1.350 . S
C659 C658 1.434 1_554 S
C660 C661 1.369 . S
C660 C662 1.419 . S
C660 H664 0.930 . S
C661 C660 1.369 . S
C661 C670 1.429 . S
C662 C660 1.419 . S
C662 C663 1.363 . S
C662 H665 0.929 . S
C663 C662 1.363 . S
C663 C669 1.428 . S
H664 C660 0.930 . S
H665 C662 0.929 . S
S666 N667 1.613 . S
S666 N668 1.610 . S
N667 S666 1.613 . S
N667 C670 1.350 . S
N668 S666 1.610 . S
N668 C669 1.351 . S
C669 C663 1.428 . S
C669 N668 1.351 . S
C669 C670 1.434 . S
C670 C661 1.429 . S
C670 N667 1.350 . S
C670 C669 1.434 . S
C671 C672 1.369 . S
C671 C673 1.419 . S
C671 H675 0.930 . S
C672 C671 1.369 . S
C672 C681 1.429 . S
C673 C671 1.419 . S
C673 C674 1.363 . S
C673 H676 0.929 . S
C674 C673 1.363 . S
C674 C680 1.428 . S
H675 C671 0.930 . S
H676 C673 0.929 . S
S677 N678 1.613 . S
S677 N679 1.610 . S
N678 S677 1.613 . S
N678 C681 1.350 . S
N679 S677 1.610 . S
N679 C680 1.351 . S
C680 C674 1.428 . S
C680 N679 1.351 . S
C680 C681 1.434 . S
C681 C672 1.429 . S
C681 N678 1.350 . S
C681 C680 1.434 . S
C682 C683 1.369 . S
C682 C684 1.419 . S
C682 H686 0.930 . S
C683 C682 1.369 . S
C683 C692 1.429 . S
C684 C682 1.419 . S
C684 C685 1.363 . S
C684 H687 0.929 . S
C685 C684 1.363 . S
C685 C691 1.428 . S
H686 C682 0.930 . S
H687 C684 0.929 . S
S688 N689 1.613 . S
S688 N690 1.610 . S
N689 S688 1.613 . S
N689 C692 1.350 . S
N690 S688 1.610 . S
N690 C691 1.351 . S
C691 C685 1.428 . S
C691 N690 1.351 . S
C691 C692 1.434 . S
C692 C683 1.429 . S
C692 N689 1.350 . S
C692 C691 1.434 . S
C693 C694 1.369 . S
C693 C695 1.419 . S
C693 H697 0.930 . S
C694 C693 1.369 . S
C694 C703 1.429 . S
C695 C693 1.419 . S
C695 C696 1.363 . S
C695 H698 0.929 . S
C696 C695 1.363 . S
C696 C702 1.428 . S
H697 C693 0.930 . S
H698 C695 0.929 . S
S699 N700 1.613 . S
S699 N701 1.610 . S
N700 S699 1.613 . S
N700 C703 1.350 . S
N701 S699 1.610 . S
N701 C702 1.351 . S
C702 C696 1.428 . S
C702 N701 1.351 . S
C702 C703 1.434 . S
C703 C694 1.429 . S
C703 N700 1.350 . S
C703 C702 1.434 . S
C704 C705 1.369 . S
C704 C706 1.419 . S
C704 H708 0.930 . S
C705 C704 1.369 . S
C705 C714 1.429 . S
C706 C704 1.419 . S
C706 C707 1.363 . S
C706 H709 0.929 . S
C707 C706 1.363 . S
C707 C713 1.428 . S
H708 C704 0.930 . S
H709 C706 0.929 . S
S710 N711 1.613 . S
S710 N712 1.610 . S
N711 S710 1.613 . S
N711 C714 1.350 . S
N712 S710 1.610 . S
N712 C713 1.351 . S
C713 C707 1.428 . S
C713 N712 1.351 . S
C713 C714 1.434 . S
C714 C705 1.429 . S
C714 N711 1.350 . S
C714 C713 1.434 . S
C715 C716 1.369 . S
C715 C717 1.419 . S
C715 H719 0.930 . S
C716 C715 1.369 . S
C716 C725 1.429 . S
C717 C715 1.419 . S
C717 C718 1.363 . S
C717 H720 0.929 . S
C718 C717 1.363 . S
C718 C724 1.428 . S
H719 C715 0.930 . S
H720 C717 0.929 . S
S721 N722 1.613 . S
S721 N723 1.610 . S
N722 S721 1.613 . S
N722 C725 1.350 . S
N723 S721 1.610 . S
N723 C724 1.351 . S
C724 C718 1.428 . S
C724 N723 1.351 . S
C724 C725 1.434 . S
C725 C716 1.429 . S
C725 N722 1.350 . S
C725 C724 1.434 . S
C397 C172 1.576 . S
C399 N13 1.686 . S
C408 C7 1.577 . S
C410 N46 1.686 1_455 S
C419 C40 1.565 . S
C421 N79 1.685 1_545 S
C430 N112 1.684 . S
C432 C73 1.567 . S
C441 N145 1.685 1_655 S
C443 C106 1.573 . S
C452 C139 1.576 . S
C454 N178 1.686 1_565 S
C463 C238 1.576 . S
C465 N211 1.686 . S
C474 C271 1.566 . S
C476 N244 1.685 1_455 S
C485 C304 1.572 . S
C487 N277 1.686 1_545 S
C496 C337 1.577 . S
C498 N310 1.686 . S
C507 C370 1.576 . S
C509 N343 1.686 1_655 S
C518 C205 1.576 . S
C520 N376 1.686 1_565 S
C529 N266 1.276 . S
C531 N2 1.282 . S
C540 N35 1.276 . S
C542 N299 1.274 . S
C551 N68 1.283 . S
C553 N332 1.275 . S
C562 N101 1.275 . S
C564 N365 1.282 . S
C573 N134 1.272 . S
C575 N200 1.280 . S
C584 N233 1.277 . S
C586 N167 1.273 . S
C595 C318 1.238 . S
C597 C21 1.238 . S
C606 C351 1.236 . S
C608 C54 1.238 . S
C617 C87 1.238 . S
C619 C384 1.236 . S
C628 C120 1.235 . S
C630 C219 1.235 . S
C639 C153 1.234 . S
C641 C252 1.237 . S
C650 C285 1.238 . S
C652 C186 1.236 . S
C661 C18 1.327 . S
C663 C216 1.330 . S
C672 C249 1.330 . S
C674 C51 1.328 . S
C683 C84 1.330 . S
C685 C282 1.330 . S
C694 C315 1.327 . S
C696 C117 1.331 . S
C705 C348 1.330 . S
C707 C150 1.328 . S
C716 C381 1.335 . S
C718 C183 1.325 . S
