# Generated by pormake.
# Topology wji, (4)-cn, num edge types: 1
# Building blocks:
#     Node 0, Type 0, BuildingBlock: AZAVOO_clean_sbu_0, # of connection points: 4
#     Node 1, Type 0, BuildingBlock: AZAVOO_clean_sbu_0, # of connection points: 4
#     Node 2, Type 0, BuildingBlock: AZAVOO_clean_sbu_0, # of connection points: 4
#     Node 3, Type 0, BuildingBlock: AZAVOO_clean_sbu_0, # of connection points: 4
#     Node 4, Type 0, BuildingBlock: AZAVOO_clean_sbu_0, # of connection points: 4
#     Node 5, Type 0, BuildingBlock: AZAVOO_clean_sbu_0, # of connection points: 4
#     Node 6, Type 0, BuildingBlock: AZAVOO_clean_sbu_0, # of connection points: 4
#     Node 7, Type 0, BuildingBlock: AZAVOO_clean_sbu_0, # of connection points: 4
#     Node 8, Type 0, BuildingBlock: AZAVOO_clean_sbu_0, # of connection points: 4
#     Node 9, Type 0, BuildingBlock: AZAVOO_clean_sbu_0, # of connection points: 4
#     Node 10, Type 0, BuildingBlock: AZAVOO_clean_sbu_0, # of connection points: 4
#     Node 11, Type 0, BuildingBlock: AZAVOO_clean_sbu_0, # of connection points: 4
#     Edge 12, Type (0, 0), BuildingBlock: TEMPAE_clean_linker_10, # of connection points: 2
#     Edge 13, Type (0, 0), BuildingBlock: TEMPAE_clean_linker_10, # of connection points: 2
#     Edge 14, Type (0, 0), BuildingBlock: TEMPAE_clean_linker_10, # of connection points: 2
#     Edge 15, Type (0, 0), BuildingBlock: TEMPAE_clean_linker_10, # of connection points: 2
#     Edge 16, Type (0, 0), BuildingBlock: TEMPAE_clean_linker_10, # of connection points: 2
#     Edge 17, Type (0, 0), BuildingBlock: TEMPAE_clean_linker_10, # of connection points: 2
#     Edge 18, Type (0, 0), BuildingBlock: TEMPAE_clean_linker_10, # of connection points: 2
#     Edge 19, Type (0, 0), BuildingBlock: TEMPAE_clean_linker_10, # of connection points: 2
#     Edge 20, Type (0, 0), BuildingBlock: TEMPAE_clean_linker_10, # of connection points: 2
#     Edge 21, Type (0, 0), BuildingBlock: TEMPAE_clean_linker_10, # of connection points: 2
#     Edge 22, Type (0, 0), BuildingBlock: TEMPAE_clean_linker_10, # of connection points: 2
#     Edge 23, Type (0, 0), BuildingBlock: TEMPAE_clean_linker_10, # of connection points: 2
#     Edge 24, Type (0, 0), BuildingBlock: TEMPAE_clean_linker_10, # of connection points: 2
#     Edge 25, Type (0, 0), BuildingBlock: TEMPAE_clean_linker_10, # of connection points: 2
#     Edge 26, Type (0, 0), BuildingBlock: TEMPAE_clean_linker_10, # of connection points: 2
#     Edge 27, Type (0, 0), BuildingBlock: TEMPAE_clean_linker_10, # of connection points: 2
#     Edge 28, Type (0, 0), BuildingBlock: TEMPAE_clean_linker_10, # of connection points: 2
#     Edge 29, Type (0, 0), BuildingBlock: TEMPAE_clean_linker_10, # of connection points: 2
#     Edge 30, Type (0, 0), BuildingBlock: TEMPAE_clean_linker_10, # of connection points: 2
#     Edge 31, Type (0, 0), BuildingBlock: TEMPAE_clean_linker_10, # of connection points: 2
#     Edge 32, Type (0, 0), BuildingBlock: TEMPAE_clean_linker_10, # of connection points: 2
#     Edge 33, Type (0, 0), BuildingBlock: TEMPAE_clean_linker_10, # of connection points: 2
#     Edge 34, Type (0, 0), BuildingBlock: TEMPAE_clean_linker_10, # of connection points: 2
#     Edge 35, Type (0, 0), BuildingBlock: TEMPAE_clean_linker_10, # of connection points: 2
# Relax obj value: 0.176
# Max RMSD: 0.105
# Mean RMSD: 0.105
data_MOF--net-wji--node1-AZAVOO_clean_sbu_0--edge1-TEMPAE_clean_linker_10
_symmetry_space_group_name_H-M    P1
_symmetry_Int_Tables_number       1
_symmetry_cell_setting            triclinic
loop_
_symmetry_equiv_pos_as_xyz
'x, y, z'
_cell_length_a     58.859151
_cell_length_b     58.850013
_cell_length_c     21.996228
_cell_angle_alpha  90.031129
_cell_angle_beta   90.01986
_cell_angle_gamma 119.97919
loop_
_atom_site_label
_atom_site_type_symbol
_atom_site_fract_x
_atom_site_fract_y
_atom_site_fract_z
_atom_type_partial_charge
Mg0 Mg 0.42123 0.3222 0.37547 0.0
O1 O 0.40228 0.33446 0.45064 0.0
O2 O 0.40043 0.3693 0.41668 0.0
Mg3 Mg 0.4155 0.37758 0.3186 0.0
C4 C 0.39665 0.35262 0.45826 0.0
C5 C 0.40894 0.27614 0.46328 0.0
O6 O 0.38505 0.26986 0.44668 0.0
O7 O 0.46127 0.35809 0.39687 0.0
O8 O 0.45653 0.38997 0.35425 0.0
O9 O 0.38171 0.29556 0.3325 0.0
O10 O 0.40752 0.3372 0.30948 0.0
C11 C 0.47048 0.38206 0.38149 0.0
C12 C 0.38566 0.31587 0.30138 0.0
O13 O 0.4282 0.29706 0.44269 0.0
Mg14 Mg 0.0882 0.40696 0.59488 0.0
O15 O 0.05682 0.39055 0.66993 0.0
O16 O 0.01914 0.38369 0.62908 0.0
Mg17 Mg 0.026 0.39342 0.52721 0.0
C18 C 0.03254 0.3835 0.6746 0.0
C19 C 0.14331 0.43768 0.65129 0.0
O20 O 0.14702 0.44957 0.59864 0.0
O21 O 0.0894 0.44643 0.59985 0.0
O22 O 0.05216 0.43691 0.55185 0.0
O23 O 0.07835 0.36613 0.56758 0.0
O24 O 0.06024 0.38804 0.52884 0.0
C25 C 0.07361 0.45331 0.5779 0.0
C26 C 0.06152 0.36691 0.53107 0.0
O27 O 0.12041 0.41947 0.66502 0.0
Mg28 Mg 0.6977 0.09128 0.70109 0.0
O29 O 0.67828 0.05904 0.77343 0.0
O30 O 0.64542 0.02359 0.72941 0.0
Mg31 Mg 0.64534 0.03255 0.62781 0.0
C32 C 0.65909 0.03553 0.77617 0.0
C33 C 0.7374 0.14389 0.75812 0.0
O34 O 0.74172 0.14882 0.6997 0.0
O35 O 0.66228 0.09779 0.70393 0.0
O36 O 0.6328 0.06243 0.65251 0.0
O37 O 0.72519 0.07649 0.67531 0.0
O38 O 0.68636 0.0635 0.63373 0.0
C39 C 0.63966 0.08417 0.67944 0.0
C40 C 0.70693 0.06134 0.63775 0.0
O41 O 0.71929 0.12141 0.7748 0.0
Mg42 Mg 0.58608 0.67872 0.89303 0.0
O43 O 0.60108 0.66412 0.97207 0.0
O44 O 0.60485 0.63048 0.93665 0.0
Mg45 Mg 0.59493 0.62538 0.83501 0.0
C46 C 0.60646 0.64577 0.9798 0.0
C47 C 0.56964 0.71794 0.93244 0.0
O48 O 0.56818 0.71818 0.87284 0.0
O49 O 0.5453 0.64218 0.90239 0.0
O50 O 0.55228 0.61184 0.85912 0.0
O51 O 0.62736 0.70745 0.86425 0.0
O52 O 0.60445 0.66639 0.83258 0.0
C53 C 0.53698 0.61881 0.88331 0.0
C54 C 0.62635 0.68821 0.83354 0.0
O55 O 0.57576 0.70225 0.95727 0.0
Mg56 Mg 0.89961 0.58224 0.04067 0.0
O57 O 0.9309 0.59911 0.11611 0.0
O58 O 0.96665 0.59911 0.08215 0.0
Mg59 Mg 0.95904 0.58447 0.98361 0.0
C60 C 0.95425 0.60347 0.12393 0.0
C61 C 0.84591 0.57082 0.08927 0.0
O62 O 0.84055 0.56506 0.03141 0.0
O63 O 0.8925 0.54089 0.05991 0.0
O64 O 0.92852 0.54393 0.01807 0.0
O65 O 0.91473 0.6224 0.00011 0.0
O66 O 0.9282 0.59479 0.97477 0.0
C67 C 0.90633 0.53063 0.04436 0.0
C68 C 0.93021 0.61741 0.96816 0.0
O69 O 0.86885 0.57789 0.10844 0.0
Mg70 Mg 0.30255 0.90282 0.17921 0.0
O71 O 0.32119 0.9351 0.25217 0.0
O72 O 0.35364 0.97083 0.20803 0.0
Mg73 Mg 0.35434 0.962 0.10667 0.0
C74 C 0.34008 0.9588 0.2548 0.0
C75 C 0.25697 0.85779 0.24614 0.0
O76 O 0.2453 0.86204 0.2002 0.0
O77 O 0.33855 0.89764 0.18349 0.0
O78 O 0.36818 0.93323 0.13322 0.0
O79 O 0.27426 0.91655 0.15309 0.0
O80 O 0.31347 0.93069 0.11252 0.0
C81 C 0.36141 0.91163 0.16067 0.0
C82 C 0.29251 0.9322 0.11623 0.0
O83 O 0.28167 0.87192 0.25162 0.0
Mg84 Mg 0.692 0.59405 0.47706 0.0
O85 O 0.67353 0.60672 0.40179 0.0
O86 O 0.64054 0.61014 0.44253 0.0
Mg87 Mg 0.6393 0.60162 0.5446 0.0
C88 C 0.65461 0.6114 0.39699 0.0
C89 C 0.72709 0.59973 0.36676 0.0
O90 O 0.72915 0.62302 0.36687 0.0
O91 O 0.65621 0.55273 0.47421 0.0
O92 O 0.62602 0.55888 0.52107 0.0
O93 O 0.72021 0.63633 0.5009 0.0
O94 O 0.68054 0.61206 0.5399 0.0
C95 C 0.63317 0.5439 0.49582 0.0
C96 C 0.70143 0.63456 0.53481 0.0
O97 O 0.71289 0.58308 0.40664 0.0
Mg98 Mg 0.09363 0.68509 0.61862 0.0
O99 O 0.06185 0.6698 0.54438 0.0
O100 O 0.02422 0.63953 0.5865 0.0
Mg101 Mg 0.03153 0.63718 0.68821 0.0
C102 C 0.03749 0.65274 0.54049 0.0
C103 C 0.14244 0.72824 0.56211 0.0
O104 O 0.14069 0.73722 0.61558 0.0
O105 O 0.09453 0.64656 0.61401 0.0
O106 O 0.05739 0.61962 0.66331 0.0
O107 O 0.08401 0.71635 0.64479 0.0
O108 O 0.06583 0.67655 0.68472 0.0
C109 C 0.07858 0.62415 0.63687 0.0
C110 C 0.06708 0.69892 0.68132 0.0
O111 O 0.12537 0.70495 0.54758 0.0
Mg112 Mg 0.42496 0.09469 0.75792 0.0
O113 O 0.40648 0.06506 0.67934 0.0
O114 O 0.40244 0.02709 0.71055 0.0
Mg115 Mg 0.41578 0.03158 0.80978 0.0
C116 C 0.39999 0.04115 0.66975 0.0
C117 C 0.43113 0.14673 0.71921 0.0
O118 O 0.42684 0.1457 0.77805 0.0
O119 O 0.4651 0.09813 0.73999 0.0
O120 O 0.45778 0.06014 0.77997 0.0
O121 O 0.38512 0.08266 0.79646 0.0
O122 O 0.40893 0.06467 0.82106 0.0
C123 C 0.4731 0.08238 0.75574 0.0
C124 C 0.38744 0.06514 0.82701 0.0
O125 O 0.43281 0.12813 0.69435 0.0
Mg126 Mg 0.31043 0.40588 0.95183 0.0
O127 O 0.32655 0.39022 0.87745 0.0
O128 O 0.35805 0.3847 0.91954 0.0
Mg129 Mg 0.36055 0.39481 0.02097 0.0
C130 C 0.34435 0.38388 0.87362 0.0
C131 C 0.28647 0.43655 0.8931 0.0
O132 O 0.29591 0.44965 0.94399 0.0
O133 O 0.34789 0.44597 0.94635 0.0
O134 O 0.37654 0.43789 0.99467 0.0
O135 O 0.28047 0.36463 0.979 0.0
O136 O 0.3204 0.38774 0.01772 0.0
C137 C 0.37075 0.45364 0.96804 0.0
C138 C 0.29853 0.36606 0.015 0.0
O139 O 0.29006 0.41744 0.88132 0.0
Mg140 Mg 0.89239 0.30896 0.16861 0.0
O141 O 0.92488 0.3252 0.0963 0.0
O142 O 0.95963 0.36096 0.13364 0.0
Mg143 Mg 0.9503 0.36595 0.2326 0.0
C144 C 0.94807 0.34466 0.09046 0.0
C145 C 0.86684 0.2676 0.06619 0.0
O146 O 0.88794 0.26601 0.07722 0.0
O147 O 0.88487 0.34312 0.15072 0.0
O148 O 0.91957 0.37563 0.19817 0.0
O149 O 0.90809 0.28424 0.21007 0.0
O150 O 0.91973 0.32464 0.23725 0.0
C151 C 0.89783 0.3668 0.16976 0.0
C152 C 0.92238 0.30445 0.24396 0.0
O153 O 0.86296 0.28372 0.09652 0.0
Mg154 Mg 0.57291 0.89958 0.27668 0.0
O155 O 0.5927 0.93 0.20042 0.0
O156 O 0.59727 0.96806 0.23275 0.0
Mg157 Mg 0.58263 0.96257 0.3311 0.0
C158 C 0.59978 0.9541 0.19171 0.0
C159 C 0.5832 0.86747 0.18114 0.0
O160 O 0.60691 0.88756 0.18917 0.0
O161 O 0.53383 0.8976 0.25602 0.0
O162 O 0.54088 0.93543 0.29657 0.0
O163 O 0.61206 0.91035 0.31775 0.0
O164 O 0.58863 0.92885 0.34164 0.0
C165 C 0.52589 0.91353 0.27041 0.0
C166 C 0.60981 0.92786 0.34864 0.0
O167 O 0.56421 0.86672 0.21028 0.0
C168 C 0.30539 0.32842 0.03036 0.0
C169 C 0.29526 0.34393 0.05171 0.0
C170 C 0.31286 0.31506 0.07136 0.0
C171 C 0.31082 0.31819 0.13464 0.0
C172 C 0.2971 0.33075 0.15545 0.0
C173 C 0.28956 0.34365 0.11345 0.0
C174 C 0.32641 0.30092 0.04725 0.0
C175 C 0.2941 0.33419 0.22238 0.0
C176 C 0.34081 0.29342 0.25291 0.0
C177 C 0.36598 0.31541 0.25876 0.0
C178 C 0.32253 0.29351 0.21164 0.0
C179 C 0.3296 0.31627 0.17652 0.0
C180 C 0.35512 0.33832 0.18202 0.0
C181 C 0.37294 0.33746 0.22243 0.0
C182 C 0.29568 0.26949 0.20655 0.0
C183 C 0.36375 0.36307 0.14536 0.0
H184 H 0.30992 0.32886 0.98243 0.0
H185 H 0.28185 0.35588 0.12966 0.0
H186 H 0.34796 0.31432 0.04864 0.0
H187 H 0.32177 0.28352 0.07555 0.0
H188 H 0.32069 0.29454 0.99941 0.0
H189 H 0.27871 0.33948 0.23091 0.0
H190 H 0.28912 0.31604 0.24785 0.0
H191 H 0.31298 0.35017 0.2405 0.0
H192 H 0.33537 0.2762 0.28054 0.0
H193 H 0.39253 0.35427 0.22524 0.0
H194 H 0.2886 0.26602 0.15883 0.0
H195 H 0.28158 0.2724 0.23416 0.0
H196 H 0.29561 0.25169 0.22366 0.0
H197 H 0.36305 0.35866 0.09614 0.0
H198 H 0.38401 0.37872 0.15673 0.0
H199 H 0.35031 0.37087 0.15349 0.0
C200 C 0.0201 0.32523 0.51316 0.0
C201 C 0.04433 0.34496 0.49159 0.0
C202 C -0.00036 0.31017 0.47232 0.0
C203 C 0.00363 0.3157 0.40926 0.0
C204 C 0.0292 0.33306 0.38742 0.0
C205 C 0.04927 0.34769 0.42912 0.0
C206 C 0.97292 0.291 0.49715 0.0
C207 C 0.03449 0.33923 0.3206 0.0
C208 C 0.94952 0.28638 0.28937 0.0
C209 C 0.94185 0.30543 0.288 0.0
C210 C 0.96892 0.28859 0.33047 0.0
C211 C 0.98093 0.31049 0.37016 0.0
C212 C 0.9725 0.3292 0.37003 0.0
C213 C 0.95302 0.32629 0.32945 0.0
C214 C 0.977 0.26799 0.32982 0.0
C215 C 0.98459 0.35291 0.41156 0.0
H216 H 0.01638 0.32327 0.5617 0.0
H217 H 0.06813 0.36309 0.41281 0.0
H218 H 0.96103 0.30079 0.50072 0.0
H219 H 0.96246 0.27386 0.46643 0.0
H220 H 0.97434 0.28401 0.54314 0.0
H221 H 0.05579 0.34905 0.31018 0.0
H222 H 0.02411 0.32112 0.29289 0.0
H223 H 0.02712 0.35253 0.30682 0.0
H224 H 0.94076 0.27006 0.25781 0.0
H225 H 0.94672 0.34073 0.32995 0.0
H226 H 0.9824 0.26467 0.37597 0.0
H227 H 0.99439 0.27462 0.30004 0.0
H228 H 0.96111 0.24905 0.31163 0.0
H229 H 0.98226 0.3466 0.45974 0.0
H230 H 0.9756 0.36547 0.40576 0.0
H231 H 0.00592 0.36506 0.40231 0.0
C232 C 0.65425 0.94623 0.39771 0.0
C233 C 0.63064 0.94639 0.3902 0.0
C234 C 0.67342 0.96338 0.43922 0.0
C235 C 0.66892 0.98127 0.4729 0.0
C236 C 0.64511 0.98145 0.46513 0.0
C237 C 0.62629 0.9639 0.4245 0.0
C238 C 0.6984 0.9624 0.44666 0.0
C239 C 0.63922 1e-05 0.50034 0.0
C240 C 0.69449 0.01518 0.62148 0.0
C241 C 0.70819 0.04118 0.60147 0.0
C242 C 0.68487 0.99444 0.57954 0.0
C243 C 0.68855 0.00018 0.51656 0.0
C244 C 0.70562 0.02626 0.49728 0.0
C245 C 0.71521 0.04658 0.54026 0.0
C246 C 0.66756 0.96682 0.60215 0.0
C247 C 0.71035 0.03325 0.43075 0.0
H248 H 0.65768 0.9326 0.37161 0.0
H249 H 0.60793 0.96381 0.42024 0.0
H250 H 0.71464 0.97943 0.42311 0.0
H251 H 0.70386 0.96366 0.49534 0.0
H252 H 0.69665 0.9442 0.42703 0.0
H253 H 0.6204 0.99856 0.48639 0.0
H254 H 0.63809 0.99551 0.54957 0.0
H255 H 0.65513 0.02058 0.49385 0.0
H256 H 0.6889 0.01113 0.66894 0.0
H257 H 0.72562 0.06681 0.52501 0.0
H258 H 0.67005 0.95254 0.57409 0.0
H259 H 0.64672 0.96174 0.59893 0.0
H260 H 0.67184 0.96478 0.65041 0.0
H261 H 0.71272 0.01838 0.40501 0.0
H262 H 0.72802 0.05281 0.42373 0.0
H263 H 0.69315 0.03378 0.41166 0.0
C264 C 0.72205 0.6713 0.60909 0.0
C265 C 0.70268 0.65727 0.56549 0.0
C266 C 0.71802 0.68608 0.65364 0.0
C267 C 0.69399 0.68615 0.6544 0.0
C268 C 0.67642 0.67526 0.60478 0.0
C269 C 0.68107 0.66093 0.5608 0.0
C270 C 0.73801 0.69895 0.70354 0.0
C271 C 0.65087 0.67545 0.60251 0.0
C272 C 0.6524 0.66898 0.79432 0.0
C273 C 0.64913 0.69082 0.79986 0.0
C274 C 0.66927 0.66829 0.75069 0.0
C275 C 0.68357 0.69027 0.71227 0.0
C276 C 0.68295 0.71368 0.72321 0.0
C277 C 0.66549 0.71364 0.76693 0.0
C278 C 0.66958 0.64296 0.74175 0.0
C279 C 0.69889 0.73801 0.68565 0.0
H280 H 0.739 0.6687 0.61205 0.0
H281 H 0.66656 0.65065 0.5257 0.0
H282 H 0.73817 0.71673 0.72099 0.0
H283 H 0.73309 0.68503 0.74189 0.0
H284 H 0.75799 0.70445 0.68732 0.0
H285 H 0.64102 0.66893 0.55763 0.0
H286 H 0.63739 0.66206 0.63791 0.0
H287 H 0.6542 0.69538 0.61203 0.0
H288 H 0.64074 0.65185 0.82203 0.0
H289 H 0.66333 0.73079 0.77207 0.0
H290 H 0.69001 0.64676 0.74106 0.0
H291 H 0.66046 0.63409 0.69737 0.0
H292 H 0.6587 0.62842 0.77808 0.0
H293 H 0.71693 0.73896 0.66744 0.0
H294 H 0.70448 0.75593 0.713 0.0
H295 H 0.68691 0.73806 0.64676 0.0
C296 C 0.02359 0.6945 0.69712 0.0
C297 C 0.04911 0.70355 0.71802 0.0
C298 C 0.00317 0.68833 0.73847 0.0
C299 C 0.00862 0.69053 0.80163 0.0
C300 C 0.03498 0.70339 0.82184 0.0
C301 C 0.05503 0.70965 0.77949 0.0
C302 C 0.97542 0.67579 0.71503 0.0
C303 C 0.04171 0.70661 0.88862 0.0
C304 C 0.95418 0.66233 0.92058 0.0
C305 C 0.94997 0.63675 0.92607 0.0
C306 C 0.97284 0.68022 0.8793 0.0
C307 C 0.9878 0.67232 0.84391 0.0
C308 C 0.9834 0.64644 0.84927 0.0
C309 C 0.96442 0.62903 0.88962 0.0
C310 C 0.97668 0.70749 0.87446 0.0
C311 C 0.99873 0.63693 0.81233 0.0
H312 H 0.01914 0.68974 0.64936 0.0
H313 H 0.07489 0.71659 0.7953 0.0
H314 H 0.96637 0.65413 0.7169 0.0
H315 H 0.96341 0.68139 0.74347 0.0
H316 H 0.97487 0.68146 0.66711 0.0
H317 H 0.06264 0.72143 0.89651 0.0
H318 H 0.02922 0.71253 0.91399 0.0
H319 H 0.03806 0.68756 0.90735 0.0
H320 H 0.9429 0.66837 0.94833 0.0
H321 H 0.96087 0.60915 0.89219 0.0
H322 H 0.98099 0.71484 0.82703 0.0
H323 H 0.99357 0.72104 0.90318 0.0
H324 H 0.95913 0.70813 0.89061 0.0
H325 H 0.99484 0.63757 0.76321 0.0
H326 H 0.99354 0.61652 0.82393 0.0
H327 H 0.02009 0.64985 0.8199 0.0
C328 C 0.34289 0.04643 0.87553 0.0
C329 C 0.36643 0.04617 0.86745 0.0
C330 C 0.32376 0.02919 0.91689 0.0
C331 C 0.32822 0.01109 0.94975 0.0
C332 C 0.35183 0.01064 0.94098 0.0
C333 C 0.37063 0.0283 0.9006 0.0
C334 C 0.29895 0.03039 0.92531 0.0
C335 C 0.35767 0.99185 0.97525 0.0
C336 C 0.30462 0.9782 0.09953 0.0
C337 C 0.29069 0.95209 0.08027 0.0
C338 C 0.31354 0.99868 0.05716 0.0
C339 C 0.30896 0.99257 0.99445 0.0
C340 C 0.29157 0.96639 0.97623 0.0
C341 C 0.28267 0.94632 0.01968 0.0
C342 C 0.33121 0.02643 0.07873 0.0
C343 C 0.28585 0.95902 0.91004 0.0
H344 H 0.33957 0.06031 0.85027 0.0
H345 H 0.38891 0.02828 0.89591 0.0
H346 H 0.28248 0.0134 0.90215 0.0
H347 H 0.29381 0.02924 0.97418 0.0
H348 H 0.30072 0.04864 0.90592 0.0
H349 H 0.3762 0.99295 0.96014 0.0
H350 H 0.35937 0.99645 0.02451 0.0
H351 H 0.34148 0.97136 0.96922 0.0
H352 H 0.31093 0.98253 0.14655 0.0
H353 H 0.27204 0.926 0.00503 0.0
H354 H 0.32836 0.04057 0.05104 0.0
H355 H 0.35197 0.03144 0.07396 0.0
H356 H 0.32761 0.02876 0.12731 0.0
H357 H 0.28338 0.9739 0.88461 0.0
H358 H 0.26792 0.93955 0.90424 0.0
H359 H 0.30262 0.95809 0.88966 0.0
C360 C 0.61702 0.49983 0.44685 0.0
C361 C 0.61317 0.51586 0.48792 0.0
C362 C 0.59637 0.47464 0.43215 0.0
C363 C 0.57142 0.46547 0.45899 0.0
C364 C 0.56812 0.48071 0.50415 0.0
C365 C 0.58902 0.50565 0.5181 0.0
C366 C 0.60076 0.45873 0.38464 0.0
C367 C 0.54188 0.47165 0.53415 0.0
C368 C 0.50933 0.42656 0.36829 0.0
C369 C 0.4979 0.40192 0.39655 0.0
C370 C 0.534 0.44688 0.38589 0.0
C371 C 0.54776 0.44255 0.43301 0.0
C372 C 0.53716 0.41728 0.45925 0.0
C373 C 0.51225 0.39718 0.4407 0.0
C374 C 0.54461 0.47348 0.35636 0.0
C375 C 0.55144 0.41186 0.50904 0.0
H376 H 0.63569 0.50741 0.42379 0.0
H377 H 0.58599 0.51765 0.55085 0.0
H378 H 0.59087 0.43771 0.39761 0.0
H379 H 0.5922 0.46012 0.34081 0.0
H380 H 0.62196 0.4659 0.37748 0.0
H381 H 0.54336 0.48427 0.57328 0.0
H382 H 0.52805 0.47208 0.50047 0.0
H383 H 0.53335 0.45115 0.55034 0.0
H384 H 0.49863 0.43028 0.33327 0.0
H385 H 0.50364 0.37814 0.46245 0.0
H386 H 0.56492 0.48079 0.34006 0.0
H387 H 0.54527 0.48777 0.39027 0.0
H388 H 0.53242 0.47303 0.3173 0.0
H389 H 0.57262 0.42085 0.49823 0.0
H390 H 0.54317 0.39049 0.51652 0.0
H391 H 0.54981 0.42074 0.55214 0.0
C392 C 0.0646 0.48928 0.55117 0.0
C393 C 0.07973 0.48094 0.58331 0.0
C394 C 0.06848 0.51461 0.55865 0.0
C395 C 0.08795 0.53215 0.59949 0.0
C396 C 0.10413 0.52436 0.63006 0.0
C397 C 0.09986 0.49882 0.62156 0.0
C398 C 0.05084 0.52214 0.52491 0.0
C399 C 0.12514 0.54257 0.67382 0.0
C400 C 0.1016 0.60239 0.58854 0.0
C401 C 0.08392 0.60212 0.63169 0.0
C402 C 0.1043 0.58017 0.57955 0.0
C403 C 0.08905 0.55732 0.61475 0.0
C404 C 0.07235 0.55755 0.66068 0.0
C405 C 0.06997 0.57987 0.66847 0.0
C406 C 0.12239 0.58068 0.53031 0.0
C407 C 0.05586 0.53369 0.69953 0.0
H408 H 0.04924 0.47581 0.52079 0.0
H409 H 0.11176 0.49262 0.64632 0.0
H410 H 0.03801 0.52474 0.55776 0.0
H411 H 0.0627 0.5411 0.50107 0.0
H412 H 0.0382 0.50708 0.49102 0.0
H413 H 0.13823 0.53494 0.68771 0.0
H414 H 0.13721 0.56226 0.65321 0.0
H415 H 0.11583 0.54508 0.71518 0.0
H416 H 0.11254 0.61953 0.56012 0.0
H417 H 0.05658 0.5796 0.70267 0.0
H418 H 0.11057 0.56817 0.49179 0.0
H419 H 0.1346 0.57253 0.54737 0.0
H420 H 0.1355 0.60083 0.51297 0.0
H421 H 0.04078 0.51776 0.67086 0.0
H422 H 0.04576 0.53786 0.73686 0.0
H423 H 0.0682 0.52628 0.7197 0.0
C424 C 0.51794 0.11072 0.70969 0.0
C425 C 0.50085 0.08947 0.74637 0.0
C426 C 0.54361 0.11585 0.69791 0.0
C427 C 0.55221 0.09931 0.7233 0.0
C428 C 0.53546 0.07871 0.76273 0.0
C429 C 0.51012 0.0741 0.77375 0.0
C430 C 0.56105 0.13819 0.65624 0.0
C431 C 0.54378 0.06058 0.79098 0.0
C432 C 0.59788 0.08114 0.64552 0.0
C433 C 0.61981 0.09258 0.68409 0.0
C434 C 0.5766 0.08511 0.65468 0.0
C435 C 0.57719 0.10098 0.70366 0.0
C436 C 0.60018 0.11445 0.73955 0.0
C437 C 0.62131 0.11008 0.72937 0.0
C438 C 0.55257 0.07043 0.61505 0.0
C439 C 0.60172 0.13189 0.79153 0.0
H440 H 0.51106 0.12285 0.68877 0.0
H441 H 0.49732 0.05793 0.8031 0.0
H442 H 0.58125 0.14935 0.67483 0.0
H443 H 0.5623 0.13023 0.61142 0.0
H444 H 0.55344 0.15187 0.64905 0.0
H445 H 0.52911 0.0467 0.82394 0.0
H446 H 0.54652 0.04901 0.75481 0.0
H447 H 0.56281 0.07208 0.81482 0.0
H448 H 0.59678 0.06805 0.60949 0.0
H449 H 0.63829 0.11921 0.75898 0.0
H450 H 0.54538 0.08365 0.59954 0.0
H451 H 0.53662 0.05444 0.64183 0.0
H452 H 0.55644 0.06162 0.5745 0.0
H453 H 0.59304 0.14414 0.7785 0.0
H454 H 0.62227 0.14493 0.80666 0.0
H455 H 0.59032 0.11955 0.83062 0.0
C456 C 0.49314 0.6011 0.93465 0.0
C457 C 0.5091 0.59842 0.89122 0.0
C458 C 0.46789 0.58009 0.94748 0.0
C459 C 0.45853 0.55601 0.91601 0.0
C460 C 0.47389 0.55391 0.8693 0.0
C461 C 0.49893 0.57508 0.85757 0.0
C462 C 0.45194 0.58314 0.99714 0.0
C463 C 0.46463 0.52869 0.83426 0.0
C464 C 0.41577 0.49043 0.99094 0.0
C465 C 0.39183 0.48132 0.96032 0.0
C466 C 0.4371 0.51544 0.97967 0.0
C467 C 0.43455 0.53189 0.93665 0.0
C468 C 0.41001 0.52354 0.90829 0.0
C469 C 0.38888 0.49829 0.92044 0.0
C470 C 0.46288 0.52359 0.01117 0.0
C471 C 0.40647 0.54065 0.86263 0.0
H472 H 0.5008 0.61912 0.96059 0.0
H473 H 0.51092 0.573 0.82309 0.0
H474 H 0.43117 0.57463 0.98295 0.0
H475 H 0.45225 0.57234 0.03816 0.0
H476 H 0.45978 0.60404 0.00975 0.0
H477 H 0.47776 0.53108 0.79555 0.0
H478 H 0.46386 0.51339 0.86507 0.0
H479 H 0.44453 0.52143 0.81642 0.0
H480 H 0.41817 0.47768 0.02262 0.0
H481 H 0.37041 0.49153 0.89692 0.0
H482 H 0.47085 0.54336 0.03161 0.0
H483 H 0.47741 0.52469 0.97741 0.0
H484 H 0.46095 0.50961 0.04747 0.0
H485 H 0.41555 0.56115 0.87932 0.0
H486 H 0.38544 0.53337 0.85256 0.0
H487 H 0.41644 0.54099 0.81958 0.0
C488 C 0.89827 0.40832 0.19243 0.0
C489 C 0.88866 0.38556 0.15689 0.0
C490 C 0.89451 0.42905 0.17506 0.0
C491 C 0.8807 0.42695 0.12079 0.0
C492 C 0.86856 0.40297 0.08814 0.0
C493 C 0.87273 0.38245 0.10655 0.0
C494 C 0.90767 0.45415 0.21162 0.0
C495 C 0.85304 0.39977 0.03102 0.0
C496 C 0.87436 0.48718 0.09183 0.0
C497 C 0.89728 0.50272 0.0582 0.0
C498 C 0.86739 0.46146 0.10902 0.0
C499 C 0.88393 0.45136 0.09282 0.0
C500 C 0.90621 0.46644 0.05602 0.0
C501 C 0.9125 0.49179 0.03901 0.0
C502 C 0.84314 0.44572 0.14703 0.0
C503 C 0.92448 0.45651 0.03771 0.0
H504 H 0.91002 0.41057 0.23238 0.0
H505 H 0.86495 0.36475 0.07935 0.0
H506 H 0.9247 0.46937 0.18584 0.0
H507 H 0.89398 0.46165 0.2195 0.0
H508 H 0.91479 0.45148 0.25634 0.0
H509 H 0.84009 0.37876 0.01928 0.0
H510 H 0.84091 0.40924 0.03598 0.0
H511 H 0.86675 0.40942 0.9926 0.0
H512 H 0.86227 0.4953 0.10621 0.0
H513 H 0.93001 0.50337 0.01216 0.0
H514 H 0.84885 0.44672 0.19545 0.0
H515 H 0.83277 0.42476 0.13331 0.0
H516 H 0.82937 0.4534 0.14336 0.0
H517 H 0.93421 0.45434 0.07874 0.0
H518 H 0.93992 0.46996 0.00557 0.0
H519 H 0.91331 0.43693 0.01605 0.0
C520 C 0.37921 0.88639 0.21543 0.0
C521 C 0.38166 0.90401 0.1695 0.0
C522 C 0.40033 0.88261 0.23026 0.0
C523 C 0.42431 0.89677 0.1983 0.0
C524 C 0.4261 0.91289 0.14874 0.0
C525 C 0.40479 0.91632 0.135 0.0
C526 C 0.39759 0.86502 0.28295 0.0
C527 C 0.45124 0.92822 0.11316 0.0
C528 C 0.48901 0.92264 0.2801 0.0
C529 C 0.49872 0.90711 0.25584 0.0
C530 C 0.46426 0.91854 0.26385 0.0
C531 C 0.44869 0.89836 0.22218 0.0
C532 C 0.45775 0.88176 0.19955 0.0
C533 C 0.48273 0.88634 0.21667 0.0
C534 C 0.45533 0.93665 0.28931 0.0
C535 C 0.44156 0.85993 0.15539 0.0
H536 H 0.36134 0.87664 0.24202 0.0
H537 H 0.40669 0.92959 0.09863 0.0
H538 H 0.40662 0.85287 0.27205 0.0
H539 H 0.40805 0.87725 0.32305 0.0
H540 H 0.37673 0.85187 0.29556 0.0
H541 H 0.44842 0.93722 0.07153 0.0
H542 H 0.46617 0.94412 0.14215 0.0
H543 H 0.4592 0.91539 0.09976 0.0
H544 H 0.50099 0.9385 0.31112 0.0
H545 H 0.49 0.87414 0.19797 0.0
H546 H 0.43557 0.9251 0.30992 0.0
H547 H 0.45384 0.94855 0.25205 0.0
H548 H 0.46899 0.95021 0.32432 0.0
H549 H 0.42097 0.84834 0.17127 0.0
H550 H 0.44956 0.84653 0.14896 0.0
H551 H 0.44124 0.86843 0.11061 0.0
C552 C 0.37462 0.37861 0.80252 0.0
C553 C 0.35016 0.37652 0.81344 0.0
C554 C 0.38116 0.37344 0.74477 0.0
C555 C 0.36262 0.36546 0.69694 0.0
C556 C 0.33757 0.36247 0.70815 0.0
C557 C 0.33174 0.36831 0.76607 0.0
C558 C 0.40825 0.37732 0.73449 0.0
C559 C 0.31709 0.35353 0.65867 0.0
C560 C 0.38903 0.37937 0.53542 0.0
C561 C 0.38662 0.3553 0.51819 0.0
C562 C 0.38111 0.38284 0.59322 0.0
C563 C 0.36999 0.36157 0.63455 0.0
C564 C 0.36682 0.33699 0.6169 0.0
C565 C 0.37543 0.33422 0.55917 0.0
C566 C 0.38528 0.4095 0.61059 0.0
C567 C 0.35458 0.31371 0.65924 0.0
H568 H 0.38904 0.3851 0.83871 0.0
H569 H 0.31272 0.36645 0.77424 0.0
H570 H 0.40684 0.35905 0.71649 0.0
H571 H 0.41872 0.39287 0.69996 0.0
H572 H 0.42017 0.38298 0.77677 0.0
H573 H 0.29797 0.35036 0.67583 0.0
H574 H 0.32392 0.36841 0.62194 0.0
H575 H 0.31405 0.33498 0.63813 0.0
H576 H 0.39783 0.39583 0.50428 0.0
H577 H 0.37334 0.31551 0.54609 0.0
H578 H 0.39852 0.41715 0.65058 0.0
H579 H 0.36637 0.40792 0.62385 0.0
H580 H 0.39396 0.42395 0.573 0.0
H581 H 0.36702 0.31786 0.70027 0.0
H582 H 0.35211 0.29558 0.6374 0.0
H583 H 0.33511 0.31009 0.67474 0.0
C584 C 0.95286 0.32869 0.98801 0.0
C585 C 0.96146 0.34907 0.03078 0.0
C586 C 0.96459 0.33295 0.93033 0.0
C587 C 0.98508 0.35832 0.9145 0.0
C588 C 0.99399 0.37891 0.95763 0.0
C589 C 0.98225 0.37398 0.01537 0.0
C590 C 0.95486 0.31036 0.88609 0.0
C591 C 0.01547 0.40634 0.94225 0.0
C592 C 0.03086 0.36833 0.78206 0.0
C593 C 0.01978 0.37584 0.73521 0.0
C594 C 0.01943 0.36195 0.8402 0.0
C595 C 0.99666 0.36361 0.85221 0.0
C596 C 0.98531 0.37103 0.80503 0.0
C597 C 0.99685 0.37681 0.74704 0.0
C598 C 0.03184 0.35362 0.88892 0.0
C599 C 0.9613 0.37347 0.81615 0.0
H600 H 0.93692 0.30934 0.99961 0.0
H601 H 0.98891 0.3899 0.04789 0.0
H602 H 0.94628 0.31447 0.84556 0.0
H603 H 0.97146 0.30803 0.8701 0.0
H604 H 0.93975 0.29154 0.90649 0.0
H605 H 0.02038 0.42011 0.98107 0.0
H606 H 0.03347 0.40612 0.92833 0.0
H607 H 0.00932 0.41395 0.90319 0.0
H608 H 0.04848 0.36737 0.77326 0.0
H609 H 0.98824 0.38276 0.7113 0.0
H610 H 0.0171 0.33437 0.90804 0.0
H611 H 0.03882 0.36801 0.92678 0.0
H612 H 0.0487 0.35202 0.87147 0.0
H613 H 0.94491 0.35454 0.83268 0.0
H614 H 0.95476 0.37929 0.77457 0.0
H615 H 0.96552 0.38831 0.85209 0.0
C616 C 0.61996 0.95443 0.09091 0.0
C617 C 0.61022 0.96599 0.13132 0.0
C618 C 0.62917 0.96517 0.03296 0.0
C619 C 0.62814 0.98769 0.0145 0.0
C620 C 0.61838 -0.00054 0.05514 0.0
C621 C 0.60979 0.98862 0.11318 0.0
C622 C 0.6399 0.95235 0.99138 0.0
C623 C 0.61652 0.02322 0.0369 0.0
C624 C 0.6698 0.03098 0.88428 0.0
C625 C 0.65176 0.02215 0.83606 0.0
C626 C 0.66266 0.01934 0.94207 0.0
C627 C 0.63669 0.99873 0.95227 0.0
C628 C 0.61849 0.98949 0.90358 0.0
C629 C 0.62632 0.00113 0.84597 0.0
C630 C 0.68277 0.02941 0.99248 0.0
C631 C 0.5905 0.96786 0.9128 0.0
H632 H 0.6205 0.93702 0.10468 0.0
H633 H 0.60212 0.99758 0.14387 0.0
H634 H 0.62769 0.9451 0.94973 0.0
H635 H 0.66007 0.96694 0.97683 0.0
H636 H 0.64037 0.93562 0.01347 0.0
H637 H 0.60843 0.03 0.07377 0.0
H638 H 0.6362 0.03959 0.02441 0.0
H639 H 0.6038 0.01857 0.99621 0.0
H640 H 0.68956 0.04707 0.87691 0.0
H641 H 0.6122 0.99428 0.8091 0.0
H642 H 0.684 0.01292 0.01352 0.0
H643 H 0.67674 0.03846 0.02863 0.0
H644 H 0.70258 0.04424 0.97611 0.0
H645 H 0.59006 0.95014 0.93145 0.0
H646 H 0.57897 0.96242 0.86993 0.0
H647 H 0.58074 0.97421 0.94645 0.0
C648 C 0.61172 0.61739 0.05655 0.0
C649 C 0.61441 0.64173 0.04099 0.0
C650 C 0.6186 0.61296 0.11463 0.0
C651 C 0.6289 0.63352 0.15793 0.0
C652 C 0.63205 0.65827 0.14225 0.0
C653 C 0.62452 0.66201 0.08416 0.0
C654 C 0.61449 0.58614 0.12992 0.0
C655 C 0.64339 0.68081 0.18684 0.0
C656 C 0.62362 0.61499 0.32491 0.0
C657 C 0.64841 0.61795 0.33639 0.0
C658 C 0.61707 0.62013 0.26714 0.0
C659 C 0.63592 0.62889 0.21994 0.0
C660 C 0.66117 0.63246 0.23154 0.0
C661 C 0.66703 0.62671 0.28946 0.0
C662 C 0.58979 0.61564 0.25629 0.0
C663 C 0.68194 0.64218 0.18266 0.0
H664 H 0.60375 0.60155 0.02362 0.0
H665 H 0.62682 0.68092 0.07232 0.0
H666 H 0.6334 0.58769 0.14319 0.0
H667 H 0.60106 0.57788 0.16937 0.0
H668 H 0.60612 0.57221 0.09124 0.0
H669 H 0.64539 0.69906 0.16693 0.0
H670 H 0.63068 0.67558 0.22764 0.0
H671 H 0.66299 0.68478 0.20233 0.0
H672 H 0.60905 0.60807 0.36077 0.0
H673 H 0.68629 0.62922 0.29806 0.0
H674 H 0.57994 0.60062 0.22027 0.0
H675 H 0.59083 0.63396 0.23999 0.0
H676 H 0.57749 0.60899 0.29793 0.0
H677 H 0.67531 0.62794 0.14453 0.0
H678 H 0.70096 0.64506 0.19979 0.0
H679 H 0.68509 0.66106 0.16401 0.0
C680 C 0.00163 0.62318 0.46909 0.0
C681 C 0.02448 0.64724 0.48015 0.0
C682 C 0.99002 0.61692 0.41118 0.0
C683 C 0.00119 0.63536 0.36335 0.0
C684 C 0.02377 0.66002 0.37469 0.0
C685 C 0.03531 0.66556 0.43276 0.0
C686 C 0.96622 0.59024 0.40076 0.0
C687 C 0.03597 0.68041 0.32524 0.0
C688 C 0.98793 0.60923 0.20138 0.0
C689 C 0.96697 0.61281 0.18417 0.0
C690 C -0.0007 0.61661 0.25937 0.0
C691 C 0.98985 0.62835 0.30093 0.0
C692 C 0.96914 0.63263 0.28336 0.0
C693 C 0.95777 0.62457 0.22544 0.0
C694 C 0.02104 0.61127 0.27665 0.0
C695 C 0.95885 0.64553 0.32594 0.0
H696 H 0.99322 0.60884 0.5053 0.0
H697 H 0.05284 0.68427 0.44104 0.0
H698 H 0.94977 0.59236 0.38281 0.0
H699 H 0.97077 0.57936 0.36615 0.0
H700 H 0.95962 0.57831 0.44299 0.0
H701 H 0.05244 0.69922 0.3424 0.0
H702 H 0.04347 0.67302 0.28845 0.0
H703 H 0.02098 0.68425 0.30478 0.0
H704 H 0.99506 0.59999 0.17002 0.0
H705 H 0.94169 0.62756 0.2124 0.0
H706 H 0.01499 0.59799 0.31658 0.0
H707 H 0.03883 0.6298 0.28999 0.0
H708 H 0.02626 0.60214 0.23899 0.0
H709 H 0.9503 0.63318 0.36693 0.0
H710 H 0.9436 0.6487 0.30429 0.0
H711 H 0.97517 0.66474 0.34148 0.0
C712 C 0.37263 0.99384 0.32379 0.0
C713 C 0.34741 0.97231 0.31461 0.0
C714 C 0.38061 0.00567 0.38121 0.0
C715 C 0.36279 0.99608 0.43052 0.0
C716 C 0.33701 0.97493 0.42111 0.0
C717 C 0.32971 0.96313 0.36345 0.0
C718 C 0.4084 0.02789 0.38954 0.0
C719 C 0.31729 0.96445 0.47225 0.0
C720 C 0.39099 0.00719 0.59033 0.0
C721 C 0.38987 0.02941 0.60901 0.0
C722 C 0.38223 0.99619 0.53246 0.0
C723 C 0.3716 0.00734 0.49254 0.0
C724 C 0.36996 0.02949 0.51145 0.0
C725 C 0.37937 0.04043 0.56922 0.0
C726 C 0.38477 0.97286 0.51369 0.0
C727 C 0.35831 0.04165 0.47062 0.0
H728 H 0.3865 0.00098 0.28648 0.0
H729 H 0.31013 0.94662 0.35667 0.0
H730 H 0.4084 0.04534 0.40855 0.0
H731 H 0.41879 0.02202 0.42257 0.0
H732 H 0.4196 0.03356 0.34624 0.0
H733 H 0.29752 0.94921 0.45649 0.0
H734 H 0.32397 0.95579 0.50791 0.0
H735 H 0.31567 0.98066 0.49369 0.0
H736 H 0.39925 0.99865 0.62056 0.0
H737 H 0.37827 0.0575 0.58345 0.0
H738 H 0.39717 0.97774 0.47238 0.0
H739 H 0.36522 0.95607 0.50202 0.0
H740 H 0.39359 0.96658 0.54997 0.0
H741 H 0.37009 0.04903 0.42844 0.0
H742 H 0.3575 0.05816 0.49297 0.0
H743 H 0.33815 0.02662 0.45693 0.0
C744 C 0.43898 0.26515 0.52041 0.0
C745 C 0.41345 0.25843 0.5028 0.0
C746 C 0.44359 0.24808 0.55602 0.0
C747 C 0.42216 0.22373 0.57433 0.0
C748 C 0.39634 0.21693 0.55719 0.0
C749 C 0.39229 0.23438 0.5217 0.0
C750 C 0.47138 0.25602 0.57372 0.0
C751 C 0.37299 0.19111 0.57595 0.0
C752 C 0.43272 0.16734 0.61855 0.0
C753 C 0.43123 0.16776 0.68214 0.0
C754 C 0.43044 0.18587 0.58286 0.0
C755 C 0.42664 0.20526 0.61151 0.0
C756 C 0.42597 0.2063 0.6757 0.0
C757 C 0.42828 0.18754 0.71024 0.0
C758 C 0.43132 0.18421 0.51446 0.0
C759 C 0.42204 0.22676 0.70787 0.0
H760 H 0.45545 0.28371 0.50607 0.0
H761 H 0.37251 0.22903 0.50829 0.0
H762 H 0.47312 0.25605 0.62394 0.0
H763 H 0.47653 0.24156 0.55571 0.0
H764 H 0.48584 0.27578 0.55634 0.0
H765 H 0.35417 0.18884 0.55906 0.0
H766 H 0.37511 0.17462 0.5582 0.0
H767 H 0.37205 0.18947 0.62624 0.0
H768 H 0.43503 0.15214 0.59649 0.0
H769 H 0.42721 0.18808 0.75937 0.0
H770 H 0.44637 0.20334 0.49552 0.0
H771 H 0.41214 0.17974 0.49495 0.0
H772 H 0.43577 0.16883 0.49937 0.0
H773 H 0.43688 0.24669 0.69244 0.0
H774 H 0.42342 0.22579 0.75807 0.0
H775 H 0.40246 0.22399 0.69628 0.0
C776 C 0.26278 0.46097 0.87037 0.0
C777 C 0.26921 0.44183 0.85388 0.0
C778 C 0.24402 0.464 0.8375 0.0
C779 C 0.23143 0.44746 0.78714 0.0
C780 C 0.23878 0.42901 0.7685 0.0
C781 C 0.25761 0.42645 0.80205 0.0
C782 C 0.23683 0.48405 0.85831 0.0
C783 C 0.22587 0.4111 0.71478 0.0
C784 C 0.16194 0.42855 0.74394 0.0
C785 C 0.1659 0.44291 0.69028 0.0
C786 C 0.18322 0.43075 0.77735 0.0
C787 C 0.20907 0.44778 0.7567 0.0
C788 C 0.21327 0.4634 0.70445 0.0
C789 C 0.19159 0.46076 0.67175 0.0
C790 C 0.17796 0.41385 0.83311 0.0
C791 C 0.24058 0.48196 0.68146 0.0
H792 H 0.27177 0.47307 0.91015 0.0
H793 H 0.26261 0.41175 0.78871 0.0
H794 H 0.23696 0.49609 0.81937 0.0
H795 H 0.21665 0.47388 0.87714 0.0
H796 H 0.25041 0.49731 0.89385 0.0
H797 H 0.2351 0.39911 0.70369 0.0
H798 H 0.20481 0.39765 0.72477 0.0
H799 H 0.22693 0.42271 0.6741 0.0
H800 H 0.14216 0.41486 0.75884 0.0
H801 H 0.19482 0.47206 0.63054 0.0
H802 H 0.18936 0.42606 0.87239 0.0
H803 H 0.18442 0.39935 0.82471 0.0
H804 H 0.15685 0.40307 0.84556 0.0
H805 H 0.25326 0.49445 0.71902 0.0
H806 H 0.2406 0.49484 0.64451 0.0
H807 H 0.24948 0.47053 0.66374 0.0
C808 C 0.85123 0.23178 0.98876 0.0
C809 C 0.84757 0.25049 0.01999 0.0
C810 C 0.83286 0.21502 0.94585 0.0
C811 C 0.81033 0.21707 0.93375 0.0
C812 C 0.80663 0.23608 0.96458 0.0
C813 C 0.8253 0.25255 0.00742 0.0
C814 C 0.83744 0.19495 0.91382 0.0
C815 C 0.78289 0.2389 0.9526 0.0
C816 C 0.77522 0.18795 0.7848 0.0
C817 C 0.75482 0.16339 0.80358 0.0
C818 C 0.79309 0.20589 0.8269 0.0
C819 C 0.79052 0.19907 0.88921 0.0
C820 C 0.76957 0.1746 0.90868 0.0
C821 C 0.75193 0.15707 0.86563 0.0
C822 C 0.81512 0.23188 0.80453 0.0
C823 C 0.7662 0.16667 0.97481 0.0
H824 H 0.8684 0.23007 0.99814 0.0
H825 H 0.82235 0.26701 0.03123 0.0
H826 H 0.82102 0.17491 0.9235 0.0
H827 H 0.83795 0.19786 0.86391 0.0
H828 H 0.85608 0.19605 0.928 0.0
H829 H 0.78318 0.255 0.9796 0.0
H830 H 0.78186 0.24282 0.90365 0.0
H831 H 0.76476 0.2203 0.9638 0.0
H832 H 0.77753 0.19303 0.73697 0.0
H833 H 0.7362 0.13815 0.88054 0.0
H834 H 0.83424 0.23307 0.81336 0.0
H835 H 0.81515 0.24825 0.82964 0.0
H836 H 0.81358 0.23474 0.7551 0.0
H837 H 0.78345 0.1654 0.99051 0.0
H838 H 0.74824 0.14743 0.98282 0.0
H839 H 0.76515 0.18172 0.00313 0.0
C840 C 0.60021 0.846 0.11112 0.0
C841 C 0.57899 0.84533 0.14171 0.0
C842 C 0.59688 0.82461 0.07625 0.0
C843 C 0.57172 0.802 0.07183 0.0
C844 C 0.55009 0.80138 0.10152 0.0
C845 C 0.55398 0.82307 0.13615 0.0
C846 C 0.62041 0.82603 0.04502 0.0
C847 C 0.52296 0.77762 0.09757 0.0
C848 C 0.56247 0.75625 0.94087 0.0
C849 C 0.56726 0.7377 0.96923 0.0
C850 C 0.56294 0.77682 0.97414 0.0
C851 C 0.56832 0.77884 0.03722 0.0
C852 C 0.57209 0.75958 0.06658 0.0
C853 C 0.5715 0.73921 0.03222 0.0
C854 C 0.5587 0.79694 0.94136 0.0
C855 C 0.57778 0.76106 0.13387 0.0
H856 H 0.61957 0.86315 0.115 0.0
H857 H 0.53747 0.82242 0.15956 0.0
H858 H 0.62393 0.81042 0.06284 0.0
H859 H 0.61664 0.82255 0.99552 0.0
H860 H 0.6385 0.84529 0.05173 0.0
H861 H 0.50805 0.78065 0.12141 0.0
H862 H 0.51702 0.77276 0.0493 0.0
H863 H 0.52302 0.76041 0.11793 0.0
H864 H 0.55906 0.75516 0.89226 0.0
H865 H 0.57511 0.72489 0.05452 0.0
H866 H 0.57709 0.81622 0.94216 0.0
H867 H 0.54343 0.7995 0.96474 0.0
H868 H 0.55272 0.79144 0.89325 0.0
H869 H 0.59692 0.77882 0.14369 0.0
H870 H 0.5785 0.7436 0.15048 0.0
H871 H 0.56261 0.76282 0.15994 0.0
C872 C 0.73983 0.56849 0.32275 0.0
C873 C 0.74216 0.59342 0.32288 0.0
C874 C 0.75509 0.56271 0.28368 0.0
C875 C 0.77313 0.58235 0.24401 0.0
C876 C 0.7751 0.60733 0.24282 0.0
C877 C 0.75954 0.61255 0.28221 0.0
C878 C 0.75236 0.5358 0.28587 0.0
C879 C 0.79415 0.62877 0.20105 0.0
C880 C 0.83315 0.58015 0.19051 0.0
C881 C 0.82638 0.57154 0.13029 0.0
C882 C 0.81571 0.58315 0.22846 0.0
C883 C 0.79087 0.5773 0.20569 0.0
C884 C 0.78354 0.56774 0.14567 0.0
C885 C 0.80143 0.565 0.10859 0.0
C886 C 0.82419 0.59336 0.29232 0.0
C887 C 0.75713 0.56112 0.12008 0.0
H888 H 0.72632 0.55354 0.35382 0.0
H889 H 0.76139 0.63182 0.28188 0.0
H890 H 0.74846 0.52706 0.23969 0.0
H891 H 0.77099 0.53743 0.30186 0.0
H892 H 0.73631 0.52225 0.31664 0.0
H893 H 0.79251 0.64675 0.20389 0.0
H894 H 0.81452 0.63401 0.2129 0.0
H895 H 0.79069 0.62177 0.15328 0.0
H896 H 0.85236 0.58517 0.20772 0.0
H897 H 0.79601 0.55823 0.06218 0.0
H898 H 0.80961 0.57972 0.32566 0.0
H899 H 0.82513 0.61257 0.29743 0.0
H900 H 0.8437 0.59589 0.30392 0.0
H901 H 0.74122 0.5472 0.15054 0.0
H902 H 0.7538 0.55233 0.07394 0.0
H903 H 0.75562 0.57915 0.11748 0.0
C904 C 0.17578 0.77308 0.52823 0.0
C905 C 0.1621 0.74596 0.51761 0.0
C906 C 0.19256 0.79057 0.48417 0.0
C907 C 0.19609 0.78065 0.42855 0.0
C908 C 0.18331 0.75323 0.41862 0.0
C909 C 0.16625 0.73617 0.46316 0.0
C910 C 0.20561 0.81972 0.49613 0.0
C911 C 0.18703 0.74198 0.36025 0.0
C912 C 0.21413 0.82617 0.29322 0.0
C913 C 0.24144 0.83724 0.29125 0.0
C914 C 0.1991 0.80735 0.33708 0.0
C915 C 0.21167 0.79915 0.37938 0.0
C916 C 0.23915 0.80969 0.37658 0.0
C917 C 0.25377 0.82882 0.33279 0.0
C918 C 0.16985 0.79681 0.33919 0.0
C919 C 0.25312 0.80107 0.42041 0.0
H920 H 0.17265 0.7808 0.57019 0.0
H921 H 0.15587 0.7152 0.45494 0.0
H922 H 0.22711 0.82907 0.48957 0.0
H923 H 0.19828 0.82883 0.46314 0.0
H924 H 0.20179 0.82418 0.54285 0.0
H925 H 0.17778 0.72028 0.36208 0.0
H926 H 0.17826 0.74719 0.32188 0.0
H927 H 0.20822 0.75051 0.35028 0.0
H928 H 0.20449 0.83263 0.26129 0.0
H929 H 0.27487 0.83717 0.33109 0.0
H930 H 0.16446 0.80193 0.38338 0.0
H931 H 0.15917 0.7751 0.33575 0.0
H932 H 0.16304 0.80474 0.30204 0.0
H933 H 0.25137 0.80694 0.46733 0.0
H934 H 0.27427 0.80976 0.40937 0.0
H935 H 0.24385 0.77938 0.41998 0.0
loop_
_geom_bond_atom_site_label_1
_geom_bond_atom_site_label_2
_geom_bond_distance
_geom_bond_site_symmetry_2
_ccdc_geom_bond_type
Mg0 O1 2.028 . S
Mg0 O7 1.986 . S
Mg0 O9 2.114 . S
Mg0 O10 2.251 . S
Mg0 O13 2.010 . S
O1 Mg0 2.028 . S
O1 C4 1.250 . S
O2 Mg3 2.028 . S
O2 C4 1.248 . S
Mg3 O2 2.028 . S
Mg3 O8 2.032 . S
Mg3 O10 2.079 . S
C4 O1 1.250 . S
C4 O2 1.248 . S
C5 O6 1.264 . S
C5 O13 1.249 . S
O6 C5 1.264 . S
O7 Mg0 1.986 . S
O7 C11 1.246 . S
O8 Mg3 2.032 . S
O8 C11 1.259 . S
O9 Mg0 2.114 . S
O9 C12 1.252 . S
O10 Mg0 2.251 . S
O10 Mg3 2.079 . S
O10 C12 1.273 . S
C11 O7 1.246 . S
C11 O8 1.259 . S
C12 O9 1.252 . S
C12 O10 1.273 . S
O13 Mg0 2.010 . S
O13 C5 1.249 . S
Mg14 O15 2.028 . S
Mg14 O21 1.986 . S
Mg14 O23 2.114 . S
Mg14 O24 2.251 . S
Mg14 O27 2.010 . S
O15 Mg14 2.028 . S
O15 C18 1.250 . S
O16 Mg17 2.028 . S
O16 C18 1.248 . S
Mg17 O16 2.028 . S
Mg17 O22 2.032 . S
Mg17 O24 2.079 . S
C18 O15 1.250 . S
C18 O16 1.248 . S
C19 O20 1.264 . S
C19 O27 1.249 . S
O20 C19 1.264 . S
O21 Mg14 1.986 . S
O21 C25 1.246 . S
O22 Mg17 2.032 . S
O22 C25 1.259 . S
O23 Mg14 2.114 . S
O23 C26 1.252 . S
O24 Mg14 2.251 . S
O24 Mg17 2.079 . S
O24 C26 1.273 . S
C25 O21 1.246 . S
C25 O22 1.259 . S
C26 O23 1.252 . S
C26 O24 1.273 . S
O27 Mg14 2.010 . S
O27 C19 1.249 . S
Mg28 O29 2.028 . S
Mg28 O35 1.986 . S
Mg28 O37 2.114 . S
Mg28 O38 2.251 . S
Mg28 O41 2.010 . S
O29 Mg28 2.028 . S
O29 C32 1.250 . S
O30 Mg31 2.028 . S
O30 C32 1.248 . S
Mg31 O30 2.028 . S
Mg31 O36 2.032 . S
Mg31 O38 2.079 . S
C32 O29 1.250 . S
C32 O30 1.248 . S
C33 O34 1.264 . S
C33 O41 1.249 . S
O34 C33 1.264 . S
O35 Mg28 1.986 . S
O35 C39 1.246 . S
O36 Mg31 2.032 . S
O36 C39 1.259 . S
O37 Mg28 2.114 . S
O37 C40 1.252 . S
O38 Mg28 2.251 . S
O38 Mg31 2.079 . S
O38 C40 1.273 . S
C39 O35 1.246 . S
C39 O36 1.259 . S
C40 O37 1.252 . S
C40 O38 1.273 . S
O41 Mg28 2.010 . S
O41 C33 1.249 . S
Mg42 O43 2.028 . S
Mg42 O49 1.986 . S
Mg42 O51 2.114 . S
Mg42 O52 2.251 . S
Mg42 O55 2.010 . S
O43 Mg42 2.028 . S
O43 C46 1.250 1_556 S
O44 Mg45 2.028 . S
O44 C46 1.248 1_556 S
Mg45 O44 2.028 . S
Mg45 O50 2.032 . S
Mg45 O52 2.079 . S
C46 O43 1.250 1_554 S
C46 O44 1.248 1_554 S
C47 O48 1.264 . S
C47 O55 1.249 . S
O48 C47 1.264 . S
O49 Mg42 1.986 . S
O49 C53 1.246 . S
O50 Mg45 2.032 . S
O50 C53 1.259 . S
O51 Mg42 2.114 . S
O51 C54 1.252 . S
O52 Mg42 2.251 . S
O52 Mg45 2.079 . S
O52 C54 1.273 . S
C53 O49 1.246 . S
C53 O50 1.259 . S
C54 O51 1.252 . S
C54 O52 1.273 . S
O55 Mg42 2.010 . S
O55 C47 1.249 . S
Mg56 O57 2.028 . S
Mg56 O63 1.986 . S
Mg56 O65 2.114 . S
Mg56 O66 2.251 . S
Mg56 O69 2.010 . S
O57 Mg56 2.028 . S
O57 C60 1.250 . S
O58 Mg59 2.028 . S
O58 C60 1.248 . S
Mg59 O58 2.028 . S
Mg59 O64 2.032 . S
Mg59 O66 2.079 . S
C60 O57 1.250 . S
C60 O58 1.248 . S
C61 O62 1.264 . S
C61 O69 1.249 . S
O62 C61 1.264 . S
O63 Mg56 1.986 . S
O63 C67 1.246 . S
O64 Mg59 2.032 . S
O64 C67 1.259 . S
O65 Mg56 2.114 . S
O65 C68 1.252 1_554 S
O66 Mg56 2.251 . S
O66 Mg59 2.079 . S
O66 C68 1.273 1_554 S
C67 O63 1.246 . S
C67 O64 1.259 . S
C68 O65 1.252 1_556 S
C68 O66 1.273 1_556 S
O69 Mg56 2.010 . S
O69 C61 1.249 . S
Mg70 O71 2.028 . S
Mg70 O77 1.986 . S
Mg70 O79 2.114 . S
Mg70 O80 2.251 . S
Mg70 O83 2.010 . S
O71 Mg70 2.028 . S
O71 C74 1.250 . S
O72 Mg73 2.028 . S
O72 C74 1.248 . S
Mg73 O72 2.028 . S
Mg73 O78 2.032 . S
Mg73 O80 2.079 . S
C74 O71 1.250 . S
C74 O72 1.248 . S
C75 O76 1.264 . S
C75 O83 1.249 . S
O76 C75 1.264 . S
O77 Mg70 1.986 . S
O77 C81 1.246 . S
O78 Mg73 2.032 . S
O78 C81 1.259 . S
O79 Mg70 2.114 . S
O79 C82 1.252 . S
O80 Mg70 2.251 . S
O80 Mg73 2.079 . S
O80 C82 1.273 . S
C81 O77 1.246 . S
C81 O78 1.259 . S
C82 O79 1.252 . S
C82 O80 1.273 . S
O83 Mg70 2.010 . S
O83 C75 1.249 . S
Mg84 O85 2.028 . S
Mg84 O91 1.986 . S
Mg84 O93 2.114 . S
Mg84 O94 2.251 . S
Mg84 O97 2.010 . S
O85 Mg84 2.028 . S
O85 C88 1.250 . S
O86 Mg87 2.028 . S
O86 C88 1.248 . S
Mg87 O86 2.028 . S
Mg87 O92 2.032 . S
Mg87 O94 2.079 . S
C88 O85 1.250 . S
C88 O86 1.248 . S
C89 O90 1.264 . S
C89 O97 1.249 . S
O90 C89 1.264 . S
O91 Mg84 1.986 . S
O91 C95 1.246 . S
O92 Mg87 2.032 . S
O92 C95 1.259 . S
O93 Mg84 2.114 . S
O93 C96 1.252 . S
O94 Mg84 2.251 . S
O94 Mg87 2.079 . S
O94 C96 1.273 . S
C95 O91 1.246 . S
C95 O92 1.259 . S
C96 O93 1.252 . S
C96 O94 1.273 . S
O97 Mg84 2.010 . S
O97 C89 1.249 . S
Mg98 O99 2.028 . S
Mg98 O105 1.986 . S
Mg98 O107 2.114 . S
Mg98 O108 2.251 . S
Mg98 O111 2.010 . S
O99 Mg98 2.028 . S
O99 C102 1.250 . S
O100 Mg101 2.028 . S
O100 C102 1.248 . S
Mg101 O100 2.028 . S
Mg101 O106 2.032 . S
Mg101 O108 2.079 . S
C102 O99 1.250 . S
C102 O100 1.248 . S
C103 O104 1.264 . S
C103 O111 1.249 . S
O104 C103 1.264 . S
O105 Mg98 1.986 . S
O105 C109 1.246 . S
O106 Mg101 2.032 . S
O106 C109 1.259 . S
O107 Mg98 2.114 . S
O107 C110 1.252 . S
O108 Mg98 2.251 . S
O108 Mg101 2.079 . S
O108 C110 1.273 . S
C109 O105 1.246 . S
C109 O106 1.259 . S
C110 O107 1.252 . S
C110 O108 1.273 . S
O111 Mg98 2.010 . S
O111 C103 1.249 . S
Mg112 O113 2.028 . S
Mg112 O119 1.986 . S
Mg112 O121 2.114 . S
Mg112 O122 2.251 . S
Mg112 O125 2.010 . S
O113 Mg112 2.028 . S
O113 C116 1.250 . S
O114 Mg115 2.028 . S
O114 C116 1.248 . S
Mg115 O114 2.028 . S
Mg115 O120 2.032 . S
Mg115 O122 2.079 . S
C116 O113 1.250 . S
C116 O114 1.248 . S
C117 O118 1.264 . S
C117 O125 1.249 . S
O118 C117 1.264 . S
O119 Mg112 1.986 . S
O119 C123 1.246 . S
O120 Mg115 2.032 . S
O120 C123 1.259 . S
O121 Mg112 2.114 . S
O121 C124 1.252 . S
O122 Mg112 2.251 . S
O122 Mg115 2.079 . S
O122 C124 1.273 . S
C123 O119 1.246 . S
C123 O120 1.259 . S
C124 O121 1.252 . S
C124 O122 1.273 . S
O125 Mg112 2.010 . S
O125 C117 1.249 . S
Mg126 O127 2.028 . S
Mg126 O133 1.986 . S
Mg126 O135 2.114 . S
Mg126 O136 2.251 . S
Mg126 O139 2.010 . S
O127 Mg126 2.028 . S
O127 C130 1.250 . S
O128 Mg129 2.028 . S
O128 C130 1.248 . S
Mg129 O128 2.028 . S
Mg129 O134 2.032 . S
Mg129 O136 2.079 . S
C130 O127 1.250 . S
C130 O128 1.248 . S
C131 O132 1.264 . S
C131 O139 1.249 . S
O132 C131 1.264 . S
O133 Mg126 1.986 . S
O133 C137 1.246 . S
O134 Mg129 2.032 . S
O134 C137 1.259 . S
O135 Mg126 2.114 . S
O135 C138 1.252 1_556 S
O136 Mg126 2.251 . S
O136 Mg129 2.079 . S
O136 C138 1.273 1_556 S
C137 O133 1.246 . S
C137 O134 1.259 . S
C138 O135 1.252 1_554 S
C138 O136 1.273 1_554 S
O139 Mg126 2.010 . S
O139 C131 1.249 . S
Mg140 O141 2.028 . S
Mg140 O147 1.986 . S
Mg140 O149 2.114 . S
Mg140 O150 2.251 . S
Mg140 O153 2.010 . S
O141 Mg140 2.028 . S
O141 C144 1.250 1_554 S
O142 Mg143 2.028 . S
O142 C144 1.248 1_554 S
Mg143 O142 2.028 . S
Mg143 O148 2.032 . S
Mg143 O150 2.079 . S
C144 O141 1.250 1_556 S
C144 O142 1.248 1_556 S
C145 O146 1.264 . S
C145 O153 1.249 . S
O146 C145 1.264 . S
O147 Mg140 1.986 . S
O147 C151 1.246 . S
O148 Mg143 2.032 . S
O148 C151 1.259 . S
O149 Mg140 2.114 . S
O149 C152 1.252 . S
O150 Mg140 2.251 . S
O150 Mg143 2.079 . S
O150 C152 1.273 . S
C151 O147 1.246 . S
C151 O148 1.259 . S
C152 O149 1.252 . S
C152 O150 1.273 . S
O153 Mg140 2.010 . S
O153 C145 1.249 . S
Mg154 O155 2.028 . S
Mg154 O161 1.986 . S
Mg154 O163 2.114 . S
Mg154 O164 2.251 . S
Mg154 O167 2.010 . S
O155 Mg154 2.028 . S
O155 C158 1.250 . S
O156 Mg157 2.028 . S
O156 C158 1.248 . S
Mg157 O156 2.028 . S
Mg157 O162 2.032 . S
Mg157 O164 2.079 . S
C158 O155 1.250 . S
C158 O156 1.248 . S
C159 O160 1.264 . S
C159 O167 1.249 . S
O160 C159 1.264 . S
O161 Mg154 1.986 . S
O161 C165 1.246 . S
O162 Mg157 2.032 . S
O162 C165 1.259 . S
O163 Mg154 2.114 . S
O163 C166 1.252 . S
O164 Mg154 2.251 . S
O164 Mg157 2.079 . S
O164 C166 1.273 . S
C165 O161 1.246 . S
C165 O162 1.259 . S
C166 O163 1.252 . S
C166 O164 1.273 . S
O167 Mg154 2.010 . S
O167 C159 1.249 . S
C168 C169 1.391 . S
C168 C170 1.394 . S
C168 H184 0.931 1_554 S
C169 C168 1.391 . S
C169 C173 1.376 . S
C170 C168 1.394 . S
C170 C171 1.369 . S
C170 C174 1.531 . S
C171 C170 1.369 . S
C171 C172 1.410 . S
C171 C179 1.503 . S
C172 C171 1.410 . S
C172 C173 1.392 . S
C172 C175 1.511 . S
C173 C169 1.376 . S
C173 C172 1.392 . S
C173 H185 0.929 . S
C174 C170 1.531 . S
C174 H186 0.960 . S
C174 H187 0.962 . S
C174 H188 0.960 . S
C175 C172 1.511 . S
C175 H189 0.961 . S
C175 H190 0.961 . S
C175 H191 0.961 . S
C176 C177 1.370 . S
C176 C178 1.363 . S
C176 H192 0.931 . S
C177 C176 1.370 . S
C177 C181 1.408 . S
C178 C176 1.363 . S
C178 C179 1.370 . S
C178 C182 1.524 . S
C179 C171 1.503 . S
C179 C178 1.370 . S
C179 C180 1.403 . S
C180 C179 1.403 . S
C180 C181 1.404 . S
C180 C183 1.539 . S
C181 C177 1.408 . S
C181 C180 1.404 . S
C181 H193 0.930 . S
C182 C178 1.524 . S
C182 H194 0.956 . S
C182 H195 0.961 . S
C182 H196 0.961 . S
C183 C180 1.539 . S
C183 H197 0.958 . S
C183 H198 0.961 . S
C183 H199 0.960 . S
H184 C168 0.931 1_556 S
H185 C173 0.929 . S
H186 C174 0.960 . S
H187 C174 0.962 . S
H188 C174 0.960 . S
H189 C175 0.961 . S
H190 C175 0.961 . S
H191 C175 0.961 . S
H192 C176 0.931 . S
H193 C181 0.930 . S
H194 C182 0.956 . S
H195 C182 0.961 . S
H196 C182 0.961 . S
H197 C183 0.958 . S
H198 C183 0.961 . S
H199 C183 0.960 . S
C200 C201 1.391 . S
C200 C202 1.394 . S
C200 H216 0.931 . S
C201 C200 1.391 . S
C201 C205 1.376 . S
C202 C200 1.394 . S
C202 C203 1.369 . S
C202 C206 1.531 1_455 S
C203 C202 1.369 . S
C203 C204 1.410 . S
C203 C211 1.503 1_455 S
C204 C203 1.410 . S
C204 C205 1.392 . S
C204 C207 1.511 . S
C205 C201 1.376 . S
C205 C204 1.392 . S
C205 H217 0.929 . S
C206 C202 1.531 1_655 S
C206 H218 0.960 . S
C206 H219 0.962 . S
C206 H220 0.960 . S
C207 C204 1.511 . S
C207 H221 0.961 . S
C207 H222 0.961 . S
C207 H223 0.961 . S
C208 C209 1.370 . S
C208 C210 1.363 . S
C208 H224 0.931 . S
C209 C208 1.370 . S
C209 C213 1.408 . S
C210 C208 1.363 . S
C210 C211 1.370 . S
C210 C214 1.524 1_655 S
C211 C203 1.503 1_655 S
C211 C210 1.370 . S
C211 C212 1.403 . S
C212 C211 1.403 . S
C212 C213 1.404 . S
C212 C215 1.539 . S
C213 C209 1.408 . S
C213 C212 1.404 . S
C213 H225 0.930 . S
C214 C210 1.524 1_455 S
C214 H226 0.956 . S
C214 H227 0.961 . S
C214 H228 0.961 . S
C215 C212 1.539 . S
C215 H229 0.958 . S
C215 H230 0.961 . S
C215 H231 0.960 . S
H216 C200 0.931 . S
H217 C205 0.929 . S
H218 C206 0.960 . S
H219 C206 0.962 . S
H220 C206 0.960 . S
H221 C207 0.961 . S
H222 C207 0.961 . S
H223 C207 0.961 . S
H224 C208 0.931 . S
H225 C213 0.930 . S
H226 C214 0.956 . S
H227 C214 0.961 . S
H228 C214 0.961 . S
H229 C215 0.958 . S
H230 C215 0.961 . S
H231 C215 0.960 . S
C232 C233 1.391 . S
C232 C234 1.394 . S
C232 H248 0.931 . S
C233 C232 1.391 . S
C233 C237 1.376 . S
C234 C232 1.394 . S
C234 C235 1.369 . S
C234 C238 1.533 1_565 S
C235 C234 1.369 . S
C235 C236 1.410 . S
C235 C243 1.503 1_565 S
C236 C235 1.410 . S
C236 C237 1.392 . S
C236 C239 1.511 . S
C237 C233 1.376 . S
C237 C236 1.392 . S
C237 H249 0.929 . S
C238 C234 1.533 1_545 S
C238 H250 0.992 . S
C238 H251 0.939 1_545 S
C238 H252 0.964 . S
C239 C236 1.511 . S
C239 H253 0.961 . S
C239 H254 0.961 . S
C239 H255 0.961 1_565 S
C240 C241 1.370 . S
C240 C242 1.363 . S
C240 H256 0.931 . S
C241 C240 1.370 . S
C241 C245 1.408 . S
C242 C240 1.363 . S
C242 C243 1.370 . S
C242 C246 1.524 1_545 S
C243 C235 1.503 1_545 S
C243 C242 1.370 . S
C243 C244 1.403 . S
C244 C243 1.403 . S
C244 C245 1.404 . S
C244 C247 1.539 . S
C245 C241 1.408 . S
C245 C244 1.404 . S
C245 H257 0.930 . S
C246 C242 1.524 1_565 S
C246 H258 0.956 . S
C246 H259 0.961 . S
C246 H260 0.961 . S
C247 C244 1.539 . S
C247 H261 0.958 . S
C247 H262 0.961 . S
C247 H263 0.960 . S
H248 C232 0.931 . S
H249 C237 0.929 . S
H250 C238 0.992 . S
H251 C238 0.939 1_565 S
H252 C238 0.964 . S
H253 C239 0.961 . S
H254 C239 0.961 . S
H255 C239 0.961 1_545 S
H256 C240 0.931 . S
H257 C245 0.930 . S
H258 C246 0.956 . S
H259 C246 0.961 . S
H260 C246 0.961 . S
H261 C247 0.958 . S
H262 C247 0.961 . S
H263 C247 0.960 . S
C264 C265 1.391 . S
C264 C266 1.394 . S
C264 H280 0.931 . S
C265 C264 1.391 . S
C265 C269 1.376 . S
C266 C264 1.394 . S
C266 C267 1.369 . S
C266 C270 1.531 . S
C267 C266 1.369 . S
C267 C268 1.410 . S
C267 C275 1.503 . S
C268 C267 1.410 . S
C268 C269 1.392 . S
C268 C271 1.511 . S
C269 C265 1.376 . S
C269 C268 1.392 . S
C269 H281 0.929 . S
C270 C266 1.531 . S
C270 H282 0.960 . S
C270 H283 0.962 . S
C270 H284 0.960 . S
C271 C268 1.511 . S
C271 H285 0.961 . S
C271 H286 0.961 . S
C271 H287 0.961 . S
C272 C273 1.370 . S
C272 C274 1.363 . S
C272 H288 0.931 . S
C273 C272 1.370 . S
C273 C277 1.408 . S
C274 C272 1.363 . S
C274 C275 1.370 . S
C274 C278 1.524 . S
C275 C267 1.503 . S
C275 C274 1.370 . S
C275 C276 1.403 . S
C276 C275 1.403 . S
C276 C277 1.404 . S
C276 C279 1.539 . S
C277 C273 1.408 . S
C277 C276 1.404 . S
C277 H289 0.930 . S
C278 C274 1.524 . S
C278 H290 0.956 . S
C278 H291 0.961 . S
C278 H292 0.961 . S
C279 C276 1.539 . S
C279 H293 0.958 . S
C279 H294 0.961 . S
C279 H295 0.960 . S
H280 C264 0.931 . S
H281 C269 0.929 . S
H282 C270 0.960 . S
H283 C270 0.962 . S
H284 C270 0.960 . S
H285 C271 0.961 . S
H286 C271 0.961 . S
H287 C271 0.961 . S
H288 C272 0.931 . S
H289 C277 0.930 . S
H290 C278 0.956 . S
H291 C278 0.961 . S
H292 C278 0.961 . S
H293 C279 0.958 . S
H294 C279 0.961 . S
H295 C279 0.960 . S
C296 C297 1.391 . S
C296 C298 1.394 . S
C296 H312 0.931 . S
C297 C296 1.391 . S
C297 C301 1.376 . S
C298 C296 1.394 . S
C298 C299 1.369 . S
C298 C302 1.531 1_455 S
C299 C298 1.369 . S
C299 C300 1.410 . S
C299 C307 1.503 1_455 S
C300 C299 1.410 . S
C300 C301 1.392 . S
C300 C303 1.511 . S
C301 C297 1.376 . S
C301 C300 1.392 . S
C301 H313 0.929 . S
C302 C298 1.531 1_655 S
C302 H314 0.960 . S
C302 H315 0.962 . S
C302 H316 0.960 . S
C303 C300 1.511 . S
C303 H317 0.961 . S
C303 H318 0.961 . S
C303 H319 0.961 . S
C304 C305 1.370 . S
C304 C306 1.363 . S
C304 H320 0.931 . S
C305 C304 1.370 . S
C305 C309 1.408 . S
C306 C304 1.363 . S
C306 C307 1.370 . S
C306 C310 1.524 1_655 S
C307 C299 1.503 1_655 S
C307 C306 1.370 . S
C307 C308 1.403 . S
C308 C307 1.403 . S
C308 C309 1.404 . S
C308 C311 1.539 . S
C309 C305 1.408 . S
C309 C308 1.404 . S
C309 H321 0.930 . S
C310 C306 1.524 1_455 S
C310 H322 0.960 . S
C310 H323 0.961 . S
C310 H324 0.961 . S
C311 C308 1.539 . S
C311 H325 0.958 . S
C311 H326 0.961 . S
C311 H327 0.960 . S
H312 C296 0.931 . S
H313 C301 0.929 . S
H314 C302 0.960 . S
H315 C302 0.962 . S
H316 C302 0.960 . S
H317 C303 0.961 . S
H318 C303 0.961 . S
H319 C303 0.961 . S
H320 C304 0.931 . S
H321 C309 0.930 . S
H322 C310 0.960 . S
H323 C310 0.961 . S
H324 C310 0.961 . S
H325 C311 0.958 . S
H326 C311 0.961 . S
H327 C311 0.960 . S
C328 C329 1.391 . S
C328 C330 1.394 . S
C328 H344 0.931 . S
C329 C328 1.391 . S
C329 C333 1.376 . S
C330 C328 1.394 . S
C330 C331 1.369 . S
C330 C334 1.530 . S
C331 C330 1.369 . S
C331 C332 1.410 . S
C331 C339 1.503 1_546 S
C332 C331 1.410 . S
C332 C333 1.392 . S
C332 C335 1.511 . S
C333 C329 1.376 . S
C333 C332 1.392 . S
C333 H345 0.929 . S
C334 C330 1.530 . S
C334 H346 0.948 1_545 S
C334 H347 0.971 . S
C334 H348 0.959 . S
C335 C332 1.511 . S
C335 H349 0.961 . S
C335 H350 0.961 1_556 S
C335 H351 0.961 1_545 S
C336 C337 1.370 . S
C336 C338 1.363 . S
C336 H352 0.931 . S
C337 C336 1.370 . S
C337 C341 1.408 . S
C338 C336 1.363 . S
C338 C339 1.370 . S
C338 C342 1.524 1_565 S
C339 C331 1.503 1_564 S
C339 C338 1.370 . S
C339 C340 1.403 . S
C340 C339 1.403 . S
C340 C341 1.404 . S
C340 C343 1.539 1_554 S
C341 C337 1.408 . S
C341 C340 1.404 . S
C341 H353 0.930 . S
C342 C338 1.524 1_545 S
C342 H354 0.956 . S
C342 H355 0.961 . S
C342 H356 0.961 . S
C343 C340 1.539 1_556 S
C343 H357 0.958 . S
C343 H358 0.961 . S
C343 H359 0.960 . S
H344 C328 0.931 . S
H345 C333 0.929 . S
H346 C334 0.948 1_565 S
H347 C334 0.971 . S
H348 C334 0.959 . S
H349 C335 0.961 . S
H350 C335 0.961 1_554 S
H351 C335 0.961 1_565 S
H352 C336 0.931 . S
H353 C341 0.930 . S
H354 C342 0.956 . S
H355 C342 0.961 . S
H356 C342 0.961 . S
H357 C343 0.958 . S
H358 C343 0.961 . S
H359 C343 0.960 . S
C360 C361 1.391 . S
C360 C362 1.394 . S
C360 H376 0.931 . S
C361 C360 1.391 . S
C361 C365 1.376 . S
C362 C360 1.394 . S
C362 C363 1.369 . S
C362 C366 1.531 . S
C363 C362 1.369 . S
C363 C364 1.410 . S
C363 C371 1.503 . S
C364 C363 1.410 . S
C364 C365 1.392 . S
C364 C367 1.511 . S
C365 C361 1.376 . S
C365 C364 1.392 . S
C365 H377 0.929 . S
C366 C362 1.531 . S
C366 H378 0.960 . S
C366 H379 0.962 . S
C366 H380 0.960 . S
C367 C364 1.511 . S
C367 H381 0.961 . S
C367 H382 0.961 . S
C367 H383 0.961 . S
C368 C369 1.370 . S
C368 C370 1.363 . S
C368 H384 0.931 . S
C369 C368 1.370 . S
C369 C373 1.408 . S
C370 C368 1.363 . S
C370 C371 1.370 . S
C370 C374 1.524 . S
C371 C363 1.503 . S
C371 C370 1.370 . S
C371 C372 1.403 . S
C372 C371 1.403 . S
C372 C373 1.404 . S
C372 C375 1.539 . S
C373 C369 1.408 . S
C373 C372 1.404 . S
C373 H385 0.930 . S
C374 C370 1.524 . S
C374 H386 0.956 . S
C374 H387 0.961 . S
C374 H388 0.961 . S
C375 C372 1.539 . S
C375 H389 0.958 . S
C375 H390 0.961 . S
C375 H391 0.960 . S
H376 C360 0.931 . S
H377 C365 0.929 . S
H378 C366 0.960 . S
H379 C366 0.962 . S
H380 C366 0.960 . S
H381 C367 0.961 . S
H382 C367 0.961 . S
H383 C367 0.961 . S
H384 C368 0.931 . S
H385 C373 0.930 . S
H386 C374 0.956 . S
H387 C374 0.961 . S
H388 C374 0.961 . S
H389 C375 0.958 . S
H390 C375 0.961 . S
H391 C375 0.960 . S
C392 C393 1.391 . S
C392 C394 1.394 . S
C392 H408 0.931 . S
C393 C392 1.391 . S
C393 C397 1.376 . S
C394 C392 1.394 . S
C394 C395 1.369 . S
C394 C398 1.531 . S
C395 C394 1.369 . S
C395 C396 1.410 . S
C395 C403 1.503 . S
C396 C395 1.410 . S
C396 C397 1.392 . S
C396 C399 1.511 . S
C397 C393 1.376 . S
C397 C396 1.392 . S
C397 H409 0.929 . S
C398 C394 1.531 . S
C398 H410 0.960 . S
C398 H411 0.962 . S
C398 H412 0.960 . S
C399 C396 1.511 . S
C399 H413 0.961 . S
C399 H414 0.961 . S
C399 H415 0.961 . S
C400 C401 1.370 . S
C400 C402 1.363 . S
C400 H416 0.931 . S
C401 C400 1.370 . S
C401 C405 1.408 . S
C402 C400 1.363 . S
C402 C403 1.370 . S
C402 C406 1.524 . S
C403 C395 1.503 . S
C403 C402 1.370 . S
C403 C404 1.403 . S
C404 C403 1.403 . S
C404 C405 1.404 . S
C404 C407 1.539 . S
C405 C401 1.408 . S
C405 C404 1.404 . S
C405 H417 0.930 . S
C406 C402 1.524 . S
C406 H418 0.956 . S
C406 H419 0.961 . S
C406 H420 0.961 . S
C407 C404 1.539 . S
C407 H421 0.958 . S
C407 H422 0.961 . S
C407 H423 0.960 . S
H408 C392 0.931 . S
H409 C397 0.929 . S
H410 C398 0.960 . S
H411 C398 0.962 . S
H412 C398 0.960 . S
H413 C399 0.961 . S
H414 C399 0.961 . S
H415 C399 0.961 . S
H416 C400 0.931 . S
H417 C405 0.930 . S
H418 C406 0.956 . S
H419 C406 0.961 . S
H420 C406 0.961 . S
H421 C407 0.958 . S
H422 C407 0.961 . S
H423 C407 0.960 . S
C424 C425 1.391 . S
C424 C426 1.394 . S
C424 H440 0.931 . S
C425 C424 1.391 . S
C425 C429 1.376 . S
C426 C424 1.394 . S
C426 C427 1.369 . S
C426 C430 1.531 . S
C427 C426 1.369 . S
C427 C428 1.410 . S
C427 C435 1.503 . S
C428 C427 1.410 . S
C428 C429 1.392 . S
C428 C431 1.511 . S
C429 C425 1.376 . S
C429 C428 1.392 . S
C429 H441 0.929 . S
C430 C426 1.531 . S
C430 H442 0.960 . S
C430 H443 0.962 . S
C430 H444 0.960 . S
C431 C428 1.511 . S
C431 H445 0.961 . S
C431 H446 0.961 . S
C431 H447 0.961 . S
C432 C433 1.370 . S
C432 C434 1.363 . S
C432 H448 0.931 . S
C433 C432 1.370 . S
C433 C437 1.408 . S
C434 C432 1.363 . S
C434 C435 1.370 . S
C434 C438 1.524 . S
C435 C427 1.503 . S
C435 C434 1.370 . S
C435 C436 1.403 . S
C436 C435 1.403 . S
C436 C437 1.404 . S
C436 C439 1.539 . S
C437 C433 1.408 . S
C437 C436 1.404 . S
C437 H449 0.930 . S
C438 C434 1.524 . S
C438 H450 0.956 . S
C438 H451 0.961 . S
C438 H452 0.961 . S
C439 C436 1.539 . S
C439 H453 0.958 . S
C439 H454 0.961 . S
C439 H455 0.960 . S
H440 C424 0.931 . S
H441 C429 0.929 . S
H442 C430 0.960 . S
H443 C430 0.962 . S
H444 C430 0.960 . S
H445 C431 0.961 . S
H446 C431 0.961 . S
H447 C431 0.961 . S
H448 C432 0.931 . S
H449 C437 0.930 . S
H450 C438 0.956 . S
H451 C438 0.961 . S
H452 C438 0.961 . S
H453 C439 0.958 . S
H454 C439 0.961 . S
H455 C439 0.960 . S
C456 C457 1.391 . S
C456 C458 1.394 . S
C456 H472 0.931 1_556 S
C457 C456 1.391 . S
C457 C461 1.376 . S
C458 C456 1.394 . S
C458 C459 1.369 . S
C458 C462 1.531 1_556 S
C459 C458 1.369 . S
C459 C460 1.410 . S
C459 C467 1.503 . S
C460 C459 1.410 . S
C460 C461 1.392 . S
C460 C463 1.511 . S
C461 C457 1.376 . S
C461 C460 1.392 . S
C461 H473 0.929 . S
C462 C458 1.531 1_554 S
C462 H474 0.960 . S
C462 H475 0.962 . S
C462 H476 0.960 . S
C463 C460 1.511 . S
C463 H477 0.961 . S
C463 H478 0.961 . S
C463 H479 0.961 . S
C464 C465 1.370 . S
C464 C466 1.363 . S
C464 H480 0.931 . S
C465 C464 1.370 . S
C465 C469 1.408 . S
C466 C464 1.363 . S
C466 C467 1.370 . S
C466 C470 1.524 . S
C467 C459 1.503 . S
C467 C466 1.370 . S
C467 C468 1.403 . S
C468 C467 1.403 . S
C468 C469 1.404 . S
C468 C471 1.539 . S
C469 C465 1.408 . S
C469 C468 1.404 . S
C469 H481 0.930 . S
C470 C466 1.524 . S
C470 H482 0.956 . S
C470 H483 0.961 . S
C470 H484 0.961 . S
C471 C468 1.539 . S
C471 H485 0.958 1_556 S
C471 H486 0.961 . S
C471 H487 0.960 . S
H472 C456 0.931 1_554 S
H473 C461 0.929 . S
H474 C462 0.960 . S
H475 C462 0.962 . S
H476 C462 0.960 . S
H477 C463 0.961 . S
H478 C463 0.961 . S
H479 C463 0.961 . S
H480 C464 0.931 . S
H481 C469 0.930 . S
H482 C470 0.956 . S
H483 C470 0.961 . S
H484 C470 0.961 . S
H485 C471 0.958 1_554 S
H486 C471 0.961 . S
H487 C471 0.960 . S
C488 C489 1.391 . S
C488 C490 1.394 . S
C488 H504 0.931 . S
C489 C488 1.391 . S
C489 C493 1.376 . S
C490 C488 1.394 . S
C490 C491 1.369 . S
C490 C494 1.531 . S
C491 C490 1.369 . S
C491 C492 1.410 . S
C491 C499 1.503 . S
C492 C491 1.410 . S
C492 C493 1.392 . S
C492 C495 1.511 1_554 S
C493 C489 1.376 . S
C493 C492 1.392 . S
C493 H505 0.928 1_554 S
C494 C490 1.531 . S
C494 H506 0.960 . S
C494 H507 0.962 . S
C494 H508 0.960 . S
C495 C492 1.511 1_556 S
C495 H509 0.961 . S
C495 H510 0.961 . S
C495 H511 0.961 . S
C496 C497 1.370 . S
C496 C498 1.363 . S
C496 H512 0.931 . S
C497 C496 1.370 . S
C497 C501 1.408 . S
C498 C496 1.363 . S
C498 C499 1.370 . S
C498 C502 1.524 . S
C499 C491 1.503 . S
C499 C498 1.370 . S
C499 C500 1.403 . S
C500 C499 1.403 . S
C500 C501 1.404 . S
C500 C503 1.539 . S
C501 C497 1.408 . S
C501 C500 1.404 . S
C501 H513 0.930 . S
C502 C498 1.524 . S
C502 H514 0.956 . S
C502 H515 0.961 . S
C502 H516 0.961 . S
C503 C500 1.539 . S
C503 H517 0.958 . S
C503 H518 0.961 . S
C503 H519 0.960 . S
H504 C488 0.931 . S
H505 C493 0.928 1_556 S
H506 C494 0.960 . S
H507 C494 0.962 . S
H508 C494 0.960 . S
H509 C495 0.961 . S
H510 C495 0.961 . S
H511 C495 0.961 . S
H512 C496 0.931 . S
H513 C501 0.930 . S
H514 C502 0.956 . S
H515 C502 0.961 . S
H516 C502 0.961 . S
H517 C503 0.958 . S
H518 C503 0.961 . S
H519 C503 0.960 . S
C520 C521 1.391 . S
C520 C522 1.394 . S
C520 H536 0.931 . S
C521 C520 1.391 . S
C521 C525 1.376 . S
C522 C520 1.394 . S
C522 C523 1.369 . S
C522 C526 1.531 . S
C523 C522 1.369 . S
C523 C524 1.410 . S
C523 C531 1.503 . S
C524 C523 1.410 . S
C524 C525 1.392 . S
C524 C527 1.511 . S
C525 C521 1.376 . S
C525 C524 1.392 . S
C525 H537 0.929 . S
C526 C522 1.531 . S
C526 H538 0.960 . S
C526 H539 0.962 . S
C526 H540 0.960 . S
C527 C524 1.511 . S
C527 H541 0.961 . S
C527 H542 0.961 . S
C527 H543 0.961 . S
C528 C529 1.370 . S
C528 C530 1.363 . S
C528 H544 0.931 . S
C529 C528 1.370 . S
C529 C533 1.408 . S
C530 C528 1.363 . S
C530 C531 1.370 . S
C530 C534 1.524 . S
C531 C523 1.503 . S
C531 C530 1.370 . S
C531 C532 1.403 . S
C532 C531 1.403 . S
C532 C533 1.404 . S
C532 C535 1.539 . S
C533 C529 1.408 . S
C533 C532 1.404 . S
C533 H545 0.930 . S
C534 C530 1.524 . S
C534 H546 0.956 . S
C534 H547 0.961 . S
C534 H548 0.961 . S
C535 C532 1.539 . S
C535 H549 0.958 . S
C535 H550 0.961 . S
C535 H551 0.960 . S
H536 C520 0.931 . S
H537 C525 0.929 . S
H538 C526 0.960 . S
H539 C526 0.962 . S
H540 C526 0.960 . S
H541 C527 0.961 . S
H542 C527 0.961 . S
H543 C527 0.961 . S
H544 C528 0.931 . S
H545 C533 0.930 . S
H546 C534 0.956 . S
H547 C534 0.961 . S
H548 C534 0.961 . S
H549 C535 0.958 . S
H550 C535 0.961 . S
H551 C535 0.960 . S
C552 C553 1.391 . S
C552 C554 1.394 . S
C552 H568 0.931 . S
C553 C552 1.391 . S
C553 C557 1.376 . S
C554 C552 1.394 . S
C554 C555 1.369 . S
C554 C558 1.531 . S
C555 C554 1.369 . S
C555 C556 1.410 . S
C555 C563 1.503 . S
C556 C555 1.410 . S
C556 C557 1.392 . S
C556 C559 1.511 . S
C557 C553 1.376 . S
C557 C556 1.392 . S
C557 H569 0.929 . S
C558 C554 1.531 . S
C558 H570 0.960 . S
C558 H571 0.962 . S
C558 H572 0.960 . S
C559 C556 1.511 . S
C559 H573 0.961 . S
C559 H574 0.961 . S
C559 H575 0.961 . S
C560 C561 1.370 . S
C560 C562 1.363 . S
C560 H576 0.931 . S
C561 C560 1.370 . S
C561 C565 1.408 . S
C562 C560 1.363 . S
C562 C563 1.370 . S
C562 C566 1.524 . S
C563 C555 1.503 . S
C563 C562 1.370 . S
C563 C564 1.403 . S
C564 C563 1.403 . S
C564 C565 1.404 . S
C564 C567 1.539 . S
C565 C561 1.408 . S
C565 C564 1.404 . S
C565 H577 0.930 . S
C566 C562 1.524 . S
C566 H578 0.956 . S
C566 H579 0.961 . S
C566 H580 0.961 . S
C567 C564 1.539 . S
C567 H581 0.958 . S
C567 H582 0.961 . S
C567 H583 0.960 . S
H568 C552 0.931 . S
H569 C557 0.929 . S
H570 C558 0.960 . S
H571 C558 0.962 . S
H572 C558 0.960 . S
H573 C559 0.961 . S
H574 C559 0.961 . S
H575 C559 0.961 . S
H576 C560 0.931 . S
H577 C565 0.930 . S
H578 C566 0.956 . S
H579 C566 0.961 . S
H580 C566 0.961 . S
H581 C567 0.958 . S
H582 C567 0.961 . S
H583 C567 0.960 . S
C584 C585 1.391 . S
C584 C586 1.394 . S
C584 H600 0.931 . S
C585 C584 1.391 . S
C585 C589 1.376 . S
C586 C584 1.394 . S
C586 C587 1.369 . S
C586 C590 1.531 . S
C587 C586 1.369 . S
C587 C588 1.410 . S
C587 C595 1.503 1_655 S
C588 C587 1.410 . S
C588 C589 1.392 . S
C588 C591 1.511 . S
C589 C585 1.376 . S
C589 C588 1.392 . S
C589 H601 0.929 . S
C590 C586 1.531 . S
C590 H602 0.960 . S
C590 H603 0.962 . S
C590 H604 0.960 . S
C591 C588 1.511 . S
C591 H605 0.961 1_655 S
C591 H606 0.961 1_655 S
C591 H607 0.961 . S
C592 C593 1.370 . S
C592 C594 1.363 . S
C592 H608 0.931 . S
C593 C592 1.370 . S
C593 C597 1.408 . S
C594 C592 1.363 . S
C594 C595 1.370 . S
C594 C598 1.524 . S
C595 C587 1.503 1_455 S
C595 C594 1.370 . S
C595 C596 1.403 1_455 S
C596 C595 1.403 1_655 S
C596 C597 1.404 1_655 S
C596 C599 1.539 . S
C597 C593 1.408 . S
C597 C596 1.404 1_455 S
C597 H609 0.930 . S
C598 C594 1.524 . S
C598 H610 0.956 . S
C598 H611 0.961 . S
C598 H612 0.961 . S
C599 C596 1.539 . S
C599 H613 0.958 . S
C599 H614 0.961 . S
C599 H615 0.960 . S
H600 C584 0.931 . S
H601 C589 0.929 . S
H602 C590 0.960 . S
H603 C590 0.962 . S
H604 C590 0.960 . S
H605 C591 0.961 1_455 S
H606 C591 0.961 1_455 S
H607 C591 0.961 . S
H608 C592 0.931 . S
H609 C597 0.930 . S
H610 C598 0.956 . S
H611 C598 0.961 . S
H612 C598 0.961 . S
H613 C599 0.958 . S
H614 C599 0.961 . S
H615 C599 0.960 . S
C616 C617 1.391 . S
C616 C618 1.394 . S
C616 H632 0.931 . S
C617 C616 1.391 . S
C617 C621 1.376 . S
C618 C616 1.394 . S
C618 C619 1.369 . S
C618 C622 1.531 1_554 S
C619 C618 1.369 . S
C619 C620 1.410 . S
C619 C627 1.503 1_564 S
C620 C619 1.410 . S
C620 C621 1.392 . S
C620 C623 1.511 1_565 S
C621 C617 1.376 . S
C621 C620 1.392 . S
C621 H633 0.929 . S
C622 C618 1.531 1_556 S
C622 H634 0.960 . S
C622 H635 0.962 . S
C622 H636 0.960 . S
C623 C620 1.511 1_545 S
C623 H637 0.961 . S
C623 H638 0.961 . S
C623 H639 0.961 . S
C624 C625 1.370 . S
C624 C626 1.363 . S
C624 H640 0.931 . S
C625 C624 1.370 . S
C625 C629 1.408 . S
C626 C624 1.363 . S
C626 C627 1.370 . S
C626 C630 1.524 1_556 S
C627 C619 1.503 1_546 S
C627 C626 1.370 . S
C627 C628 1.403 . S
C628 C627 1.403 . S
C628 C629 1.404 . S
C628 C631 1.539 1_545 S
C629 C625 1.408 . S
C629 C628 1.404 . S
C629 H641 0.930 . S
C630 C626 1.524 1_554 S
C630 H642 0.956 . S
C630 H643 0.961 . S
C630 H644 0.961 . S
C631 C628 1.539 1_565 S
C631 H645 0.958 . S
C631 H646 0.961 . S
C631 H647 0.960 . S
H632 C616 0.931 . S
H633 C621 0.929 . S
H634 C622 0.960 . S
H635 C622 0.962 . S
H636 C622 0.960 . S
H637 C623 0.961 . S
H638 C623 0.961 . S
H639 C623 0.961 . S
H640 C624 0.931 . S
H641 C629 0.930 . S
H642 C630 0.956 . S
H643 C630 0.961 . S
H644 C630 0.961 . S
H645 C631 0.958 . S
H646 C631 0.961 . S
H647 C631 0.960 . S
C648 C649 1.391 . S
C648 C650 1.394 . S
C648 H664 0.931 . S
C649 C648 1.391 . S
C649 C653 1.376 . S
C650 C648 1.394 . S
C650 C651 1.369 . S
C650 C654 1.531 . S
C651 C650 1.369 . S
C651 C652 1.410 . S
C651 C659 1.503 . S
C652 C651 1.410 . S
C652 C653 1.392 . S
C652 C655 1.511 . S
C653 C649 1.376 . S
C653 C652 1.392 . S
C653 H665 0.929 . S
C654 C650 1.531 . S
C654 H666 0.960 . S
C654 H667 0.962 . S
C654 H668 0.960 . S
C655 C652 1.511 . S
C655 H669 0.961 . S
C655 H670 0.961 . S
C655 H671 0.961 . S
C656 C657 1.370 . S
C656 C658 1.363 . S
C656 H672 0.931 . S
C657 C656 1.370 . S
C657 C661 1.408 . S
C658 C656 1.363 . S
C658 C659 1.370 . S
C658 C662 1.524 . S
C659 C651 1.503 . S
C659 C658 1.370 . S
C659 C660 1.403 . S
C660 C659 1.403 . S
C660 C661 1.404 . S
C660 C663 1.539 . S
C661 C657 1.408 . S
C661 C660 1.404 . S
C661 H673 0.930 . S
C662 C658 1.524 . S
C662 H674 0.956 . S
C662 H675 0.961 . S
C662 H676 0.961 . S
C663 C660 1.539 . S
C663 H677 0.958 . S
C663 H678 0.961 . S
C663 H679 0.960 . S
H664 C648 0.931 . S
H665 C653 0.929 . S
H666 C654 0.960 . S
H667 C654 0.962 . S
H668 C654 0.960 . S
H669 C655 0.961 . S
H670 C655 0.961 . S
H671 C655 0.961 . S
H672 C656 0.931 . S
H673 C661 0.930 . S
H674 C662 0.956 . S
H675 C662 0.961 . S
H676 C662 0.961 . S
H677 C663 0.958 . S
H678 C663 0.961 . S
H679 C663 0.960 . S
C680 C681 1.391 . S
C680 C682 1.394 . S
C680 H696 0.931 . S
C681 C680 1.391 . S
C681 C685 1.376 . S
C682 C680 1.394 . S
C682 C683 1.369 . S
C682 C686 1.531 . S
C683 C682 1.369 . S
C683 C684 1.410 . S
C683 C691 1.503 1_455 S
C684 C683 1.410 . S
C684 C685 1.392 . S
C684 C687 1.511 1_455 S
C685 C681 1.376 . S
C685 C684 1.392 . S
C685 H697 0.929 . S
C686 C682 1.531 . S
C686 H698 0.960 . S
C686 H699 0.962 . S
C686 H700 0.960 . S
C687 C684 1.511 1_655 S
C687 H701 0.961 . S
C687 H702 0.961 . S
C687 H703 0.961 . S
C688 C689 1.370 . S
C688 C690 1.363 . S
C688 H704 0.931 . S
C689 C688 1.370 . S
C689 C693 1.408 . S
C690 C688 1.363 . S
C690 C691 1.370 . S
C690 C694 1.524 1_655 S
C691 C683 1.503 1_655 S
C691 C690 1.370 . S
C691 C692 1.403 . S
C692 C691 1.403 . S
C692 C693 1.404 . S
C692 C695 1.539 . S
C693 C689 1.408 . S
C693 C692 1.404 . S
C693 H705 0.930 . S
C694 C690 1.524 1_455 S
C694 H706 0.956 . S
C694 H707 0.961 . S
C694 H708 0.961 . S
C695 C692 1.539 . S
C695 H709 0.958 . S
C695 H710 0.961 . S
C695 H711 0.960 . S
H696 C680 0.931 . S
H697 C685 0.929 . S
H698 C686 0.960 . S
H699 C686 0.962 . S
H700 C686 0.960 . S
H701 C687 0.961 . S
H702 C687 0.961 . S
H703 C687 0.961 . S
H704 C688 0.931 . S
H705 C693 0.930 . S
H706 C694 0.956 . S
H707 C694 0.961 . S
H708 C694 0.961 . S
H709 C695 0.958 . S
H710 C695 0.961 . S
H711 C695 0.960 . S
C712 C713 1.391 . S
C712 C714 1.394 . S
C712 H728 0.931 . S
C713 C712 1.391 . S
C713 C717 1.376 . S
C714 C712 1.394 . S
C714 C715 1.369 . S
C714 C718 1.531 1_565 S
C715 C714 1.369 . S
C715 C716 1.410 . S
C715 C723 1.503 1_565 S
C716 C715 1.410 . S
C716 C717 1.392 . S
C716 C719 1.511 . S
C717 C713 1.376 . S
C717 C716 1.392 . S
C717 H729 0.929 . S
C718 C714 1.531 1_545 S
C718 H730 0.960 . S
C718 H731 0.962 . S
C718 H732 0.960 . S
C719 C716 1.511 . S
C719 H733 0.961 . S
C719 H734 0.961 . S
C719 H735 0.961 . S
C720 C721 1.370 . S
C720 C722 1.363 . S
C720 H736 0.931 . S
C721 C720 1.370 . S
C721 C725 1.408 . S
C722 C720 1.363 . S
C722 C723 1.370 . S
C722 C726 1.524 1_545 S
C723 C715 1.503 1_545 S
C723 C722 1.370 . S
C723 C724 1.403 . S
C724 C723 1.403 . S
C724 C725 1.404 . S
C724 C727 1.539 . S
C725 C721 1.408 . S
C725 C724 1.404 . S
C725 H737 0.930 . S
C726 C722 1.524 1_565 S
C726 H738 0.956 . S
C726 H739 0.961 . S
C726 H740 0.961 . S
C727 C724 1.539 . S
C727 H741 0.958 . S
C727 H742 0.961 . S
C727 H743 0.960 . S
H728 C712 0.931 . S
H729 C717 0.929 . S
H730 C718 0.960 . S
H731 C718 0.962 . S
H732 C718 0.960 . S
H733 C719 0.961 . S
H734 C719 0.961 . S
H735 C719 0.961 . S
H736 C720 0.931 . S
H737 C725 0.930 . S
H738 C726 0.956 . S
H739 C726 0.961 . S
H740 C726 0.961 . S
H741 C727 0.958 . S
H742 C727 0.961 . S
H743 C727 0.960 . S
C744 C745 1.391 . S
C744 C746 1.394 . S
C744 H760 0.931 . S
C745 C744 1.391 . S
C745 C749 1.376 . S
C746 C744 1.394 . S
C746 C747 1.369 . S
C746 C750 1.531 . S
C747 C746 1.369 . S
C747 C748 1.410 . S
C747 C755 1.503 . S
C748 C747 1.410 . S
C748 C749 1.392 . S
C748 C751 1.511 . S
C749 C745 1.376 . S
C749 C748 1.392 . S
C749 H761 0.929 . S
C750 C746 1.531 . S
C750 H762 0.960 . S
C750 H763 0.962 . S
C750 H764 0.960 . S
C751 C748 1.511 . S
C751 H765 0.961 . S
C751 H766 0.961 . S
C751 H767 0.961 . S
C752 C753 1.370 . S
C752 C754 1.363 . S
C752 H768 0.931 . S
C753 C752 1.370 . S
C753 C757 1.408 . S
C754 C752 1.363 . S
C754 C755 1.370 . S
C754 C758 1.524 . S
C755 C747 1.503 . S
C755 C754 1.370 . S
C755 C756 1.403 . S
C756 C755 1.403 . S
C756 C757 1.404 . S
C756 C759 1.539 . S
C757 C753 1.408 . S
C757 C756 1.404 . S
C757 H769 0.930 . S
C758 C754 1.524 . S
C758 H770 0.956 . S
C758 H771 0.961 . S
C758 H772 0.961 . S
C759 C756 1.539 . S
C759 H773 0.958 . S
C759 H774 0.961 . S
C759 H775 0.960 . S
H760 C744 0.931 . S
H761 C749 0.929 . S
H762 C750 0.960 . S
H763 C750 0.962 . S
H764 C750 0.960 . S
H765 C751 0.961 . S
H766 C751 0.961 . S
H767 C751 0.961 . S
H768 C752 0.931 . S
H769 C757 0.930 . S
H770 C758 0.956 . S
H771 C758 0.961 . S
H772 C758 0.961 . S
H773 C759 0.958 . S
H774 C759 0.961 . S
H775 C759 0.960 . S
C776 C777 1.391 . S
C776 C778 1.394 . S
C776 H792 0.931 . S
C777 C776 1.391 . S
C777 C781 1.376 . S
C778 C776 1.394 . S
C778 C779 1.369 . S
C778 C782 1.531 . S
C779 C778 1.369 . S
C779 C780 1.410 . S
C779 C787 1.503 . S
C780 C779 1.410 . S
C780 C781 1.392 . S
C780 C783 1.511 . S
C781 C777 1.376 . S
C781 C780 1.392 . S
C781 H793 0.929 . S
C782 C778 1.531 . S
C782 H794 0.960 . S
C782 H795 0.962 . S
C782 H796 0.960 . S
C783 C780 1.511 . S
C783 H797 0.961 . S
C783 H798 0.961 . S
C783 H799 0.961 . S
C784 C785 1.370 . S
C784 C786 1.363 . S
C784 H800 0.931 . S
C785 C784 1.370 . S
C785 C789 1.408 . S
C786 C784 1.363 . S
C786 C787 1.370 . S
C786 C790 1.524 . S
C787 C779 1.503 . S
C787 C786 1.370 . S
C787 C788 1.403 . S
C788 C787 1.403 . S
C788 C789 1.404 . S
C788 C791 1.539 . S
C789 C785 1.408 . S
C789 C788 1.404 . S
C789 H801 0.930 . S
C790 C786 1.524 . S
C790 H802 0.956 . S
C790 H803 0.961 . S
C790 H804 0.961 . S
C791 C788 1.539 . S
C791 H805 0.958 . S
C791 H806 0.961 . S
C791 H807 0.960 . S
H792 C776 0.931 . S
H793 C781 0.929 . S
H794 C782 0.960 . S
H795 C782 0.962 . S
H796 C782 0.960 . S
H797 C783 0.961 . S
H798 C783 0.961 . S
H799 C783 0.961 . S
H800 C784 0.931 . S
H801 C789 0.930 . S
H802 C790 0.956 . S
H803 C790 0.961 . S
H804 C790 0.961 . S
H805 C791 0.958 . S
H806 C791 0.961 . S
H807 C791 0.960 . S
C808 C809 1.391 1_556 S
C808 C810 1.394 . S
C808 H824 0.931 1_556 S
C809 C808 1.391 1_554 S
C809 C813 1.378 . S
C810 C808 1.394 . S
C810 C811 1.369 . S
C810 C814 1.531 . S
C811 C810 1.369 . S
C811 C812 1.410 . S
C811 C819 1.503 . S
C812 C811 1.410 . S
C812 C813 1.387 1_556 S
C812 C815 1.511 . S
C813 C809 1.378 . S
C813 C812 1.387 1_554 S
C813 H825 0.932 . S
C814 C810 1.531 . S
C814 H826 0.960 . S
C814 H827 0.962 . S
C814 H828 0.960 . S
C815 C812 1.511 . S
C815 H829 0.961 . S
C815 H830 0.961 . S
C815 H831 0.961 . S
C816 C817 1.370 . S
C816 C818 1.363 . S
C816 H832 0.931 . S
C817 C816 1.370 . S
C817 C821 1.408 . S
C818 C816 1.363 . S
C818 C819 1.370 . S
C818 C822 1.524 . S
C819 C811 1.503 . S
C819 C818 1.370 . S
C819 C820 1.403 . S
C820 C819 1.403 . S
C820 C821 1.404 . S
C820 C823 1.539 . S
C821 C817 1.408 . S
C821 C820 1.404 . S
C821 H833 0.930 . S
C822 C818 1.524 . S
C822 H834 0.956 . S
C822 H835 0.961 . S
C822 H836 0.961 . S
C823 C820 1.539 . S
C823 H837 0.958 1_556 S
C823 H838 0.961 1_556 S
C823 H839 0.960 1_556 S
H824 C808 0.931 1_554 S
H825 C813 0.932 . S
H826 C814 0.960 . S
H827 C814 0.962 . S
H828 C814 0.960 . S
H829 C815 0.961 . S
H830 C815 0.961 . S
H831 C815 0.961 . S
H832 C816 0.931 . S
H833 C821 0.930 . S
H834 C822 0.956 . S
H835 C822 0.961 . S
H836 C822 0.961 . S
H837 C823 0.958 1_554 S
H838 C823 0.961 1_554 S
H839 C823 0.960 1_554 S
C840 C841 1.391 . S
C840 C842 1.394 . S
C840 H856 0.931 . S
C841 C840 1.391 . S
C841 C845 1.376 . S
C842 C840 1.394 . S
C842 C843 1.369 . S
C842 C846 1.531 . S
C843 C842 1.369 . S
C843 C844 1.410 . S
C843 C851 1.503 . S
C844 C843 1.410 . S
C844 C845 1.392 . S
C844 C847 1.511 . S
C845 C841 1.376 . S
C845 C844 1.392 . S
C845 H857 0.929 . S
C846 C842 1.531 . S
C846 H858 0.960 . S
C846 H859 0.962 . S
C846 H860 0.960 . S
C847 C844 1.511 . S
C847 H861 0.961 . S
C847 H862 0.961 . S
C847 H863 0.961 . S
C848 C849 1.370 . S
C848 C850 1.363 1_556 S
C848 H864 0.931 . S
C849 C848 1.370 . S
C849 C853 1.408 1_556 S
C850 C848 1.363 1_554 S
C850 C851 1.370 . S
C850 C854 1.524 1_554 S
C851 C843 1.503 . S
C851 C850 1.370 . S
C851 C852 1.403 . S
C852 C851 1.403 . S
C852 C853 1.404 . S
C852 C855 1.539 . S
C853 C849 1.408 1_554 S
C853 C852 1.404 . S
C853 H865 0.930 . S
C854 C850 1.524 1_556 S
C854 H866 0.956 . S
C854 H867 0.961 1_556 S
C854 H868 0.961 . S
C855 C852 1.539 . S
C855 H869 0.958 . S
C855 H870 0.961 . S
C855 H871 0.960 . S
H856 C840 0.931 . S
H857 C845 0.929 . S
H858 C846 0.960 . S
H859 C846 0.962 . S
H860 C846 0.960 . S
H861 C847 0.961 . S
H862 C847 0.961 . S
H863 C847 0.961 . S
H864 C848 0.931 . S
H865 C853 0.930 . S
H866 C854 0.956 . S
H867 C854 0.961 1_554 S
H868 C854 0.961 . S
H869 C855 0.958 . S
H870 C855 0.961 . S
H871 C855 0.960 . S
C872 C873 1.391 . S
C872 C874 1.394 . S
C872 H888 0.931 . S
C873 C872 1.391 . S
C873 C877 1.376 . S
C874 C872 1.394 . S
C874 C875 1.369 . S
C874 C878 1.531 . S
C875 C874 1.369 . S
C875 C876 1.410 . S
C875 C883 1.503 . S
C876 C875 1.410 . S
C876 C877 1.392 . S
C876 C879 1.511 . S
C877 C873 1.376 . S
C877 C876 1.392 . S
C877 H889 0.929 . S
C878 C874 1.531 . S
C878 H890 0.960 . S
C878 H891 0.962 . S
C878 H892 0.960 . S
C879 C876 1.511 . S
C879 H893 0.961 . S
C879 H894 0.961 . S
C879 H895 0.961 . S
C880 C881 1.370 . S
C880 C882 1.363 . S
C880 H896 0.931 . S
C881 C880 1.370 . S
C881 C885 1.408 . S
C882 C880 1.363 . S
C882 C883 1.370 . S
C882 C886 1.524 . S
C883 C875 1.503 . S
C883 C882 1.370 . S
C883 C884 1.403 . S
C884 C883 1.403 . S
C884 C885 1.404 . S
C884 C887 1.539 . S
C885 C881 1.408 . S
C885 C884 1.404 . S
C885 H897 0.930 . S
C886 C882 1.524 . S
C886 H898 0.956 . S
C886 H899 0.961 . S
C886 H900 0.961 . S
C887 C884 1.539 . S
C887 H901 0.958 . S
C887 H902 0.961 . S
C887 H903 0.960 . S
H888 C872 0.931 . S
H889 C877 0.929 . S
H890 C878 0.960 . S
H891 C878 0.962 . S
H892 C878 0.960 . S
H893 C879 0.961 . S
H894 C879 0.961 . S
H895 C879 0.961 . S
H896 C880 0.931 . S
H897 C885 0.930 . S
H898 C886 0.956 . S
H899 C886 0.961 . S
H900 C886 0.961 . S
H901 C887 0.958 . S
H902 C887 0.961 . S
H903 C887 0.960 . S
C904 C905 1.391 . S
C904 C906 1.394 . S
C904 H920 0.931 . S
C905 C904 1.391 . S
C905 C909 1.376 . S
C906 C904 1.394 . S
C906 C907 1.369 . S
C906 C910 1.531 . S
C907 C906 1.369 . S
C907 C908 1.410 . S
C907 C915 1.503 . S
C908 C907 1.410 . S
C908 C909 1.392 . S
C908 C911 1.511 . S
C909 C905 1.376 . S
C909 C908 1.392 . S
C909 H921 0.929 . S
C910 C906 1.531 . S
C910 H922 0.960 . S
C910 H923 0.962 . S
C910 H924 0.960 . S
C911 C908 1.511 . S
C911 H925 0.961 . S
C911 H926 0.961 . S
C911 H927 0.961 . S
C912 C913 1.370 . S
C912 C914 1.363 . S
C912 H928 0.931 . S
C913 C912 1.370 . S
C913 C917 1.408 . S
C914 C912 1.363 . S
C914 C915 1.370 . S
C914 C918 1.524 . S
C915 C907 1.503 . S
C915 C914 1.370 . S
C915 C916 1.403 . S
C916 C915 1.403 . S
C916 C917 1.404 . S
C916 C919 1.539 . S
C917 C913 1.408 . S
C917 C916 1.404 . S
C917 H929 0.930 . S
C918 C914 1.524 . S
C918 H930 0.956 . S
C918 H931 0.961 . S
C918 H932 0.961 . S
C919 C916 1.539 . S
C919 H933 0.958 . S
C919 H934 0.961 . S
C919 H935 0.960 . S
H920 C904 0.931 . S
H921 C909 0.929 . S
H922 C910 0.960 . S
H923 C910 0.962 . S
H924 C910 0.960 . S
H925 C911 0.961 . S
H926 C911 0.961 . S
H927 C911 0.961 . S
H928 C912 0.931 . S
H929 C917 0.930 . S
H930 C918 0.956 . S
H931 C918 0.961 . S
H932 C918 0.961 . S
H933 C919 0.958 . S
H934 C919 0.961 . S
H935 C919 0.960 . S
C169 C138 1.263 . S
C177 C12 1.279 . S
C201 C26 1.261 . S
C209 C152 1.281 . S
C233 C166 1.269 . S
C241 C40 1.290 . S
C265 C96 1.289 . S
C273 C54 1.296 . S
C297 C110 1.261 . S
C305 C68 1.280 . S
C329 C124 1.269 . S
C337 C82 1.290 . S
C361 C95 1.435 . S
C369 C11 1.454 . S
C393 C25 1.478 . S
C401 C109 1.471 . S
C425 C123 1.491 . S
C433 C39 1.477 . S
C457 C53 1.488 . S
C465 C137 1.476 . S
C489 C151 1.433 . S
C497 C67 1.453 . S
C521 C81 1.490 . S
C529 C165 1.477 . S
C553 C130 1.064 . S
C561 C4 1.040 . S
C585 C144 1.041 . S
C593 C18 1.011 . S
C617 C158 1.019 . S
C625 C32 1.010 . S
C649 C46 0.982 . S
C657 C88 1.031 . S
C681 C102 0.983 . S
C689 C60 1.031 . S
C713 C74 1.017 . S
C721 C116 1.046 . S
C745 C5 1.303 . S
C753 C117 1.250 . S
C777 C131 1.250 . S
C785 C19 1.231 . S
C809 C145 1.208 . S
C817 C33 1.269 . S
C841 C159 1.221 . S
C849 C47 1.273 . S
C873 C89 1.279 . S
C881 C61 1.232 . S
C905 C103 1.202 . S
C913 C75 1.266 . S
