# Generated by pormake.
# Topology kag, (6)-cn, num edge types: 1
# Building blocks:
#     Node 0, Type 0, BuildingBlock: UKALOJ_clean_sbu_0, # of connection points: 6
#     Node 1, Type 0, BuildingBlock: UKALOJ_clean_sbu_0, # of connection points: 6
#     Node 2, Type 0, BuildingBlock: UKALOJ_clean_sbu_0, # of connection points: 6
#     Edge 3, Type (0, 0), BuildingBlock: ZUJKAS_clean_linker_0, # of connection points: 2
#     Edge 4, Type (0, 0), BuildingBlock: ZUJKAS_clean_linker_0, # of connection points: 2
#     Edge 5, Type (0, 0), BuildingBlock: ZUJKAS_clean_linker_0, # of connection points: 2
#     Edge 6, Type (0, 0), BuildingBlock: ZUJKAS_clean_linker_0, # of connection points: 2
#     Edge 7, Type (0, 0), BuildingBlock: ZUJKAS_clean_linker_0, # of connection points: 2
#     Edge 8, Type (0, 0), BuildingBlock: ZUJKAS_clean_linker_0, # of connection points: 2
#     Edge 9, Type (0, 0), BuildingBlock: ZUJKAS_clean_linker_0, # of connection points: 2
#     Edge 10, Type (0, 0), BuildingBlock: ZUJKAS_clean_linker_0, # of connection points: 2
#     Edge 11, Type (0, 0), BuildingBlock: ZUJKAS_clean_linker_0, # of connection points: 2
# Relax obj value: 0.133
# Max RMSD: 0.168
# Mean RMSD: 0.168
data_MOF--net-kag--node1-UKALOJ_clean_sbu_0--edge1-ZUJKAS_clean_linker_0
_symmetry_space_group_name_H-M    P1
_symmetry_Int_Tables_number       1
_symmetry_cell_setting            triclinic
loop_
_symmetry_equiv_pos_as_xyz
'x, y, z'
_cell_length_a     37.584613
_cell_length_b     37.503642
_cell_length_c     24.618587
_cell_angle_alpha  89.922473
_cell_angle_beta   90.090112
_cell_angle_gamma 120.04595
loop_
_atom_site_label
_atom_site_type_symbol
_atom_site_fract_x
_atom_site_fract_y
_atom_site_fract_z
_atom_type_partial_charge
Zn0 Zn -0.00646 0.45107 0.96952 0.0
O1 O 0.03653 0.51348 0.95605 0.0
C2 C 0.05992 0.43318 0.99054 0.0
Zn3 Zn 0.00914 0.45778 0.05765 0.0
C4 C 0.05759 0.53602 0.99545 0.0
O5 O 0.05282 0.52034 0.04258 0.0
C6 C 0.94369 0.37324 0.03162 0.0
O7 O 0.96545 0.47549 0.07552 0.0
O8 O 0.94937 0.46831 0.98895 0.0
N9 N 0.02774 0.46495 0.13695 0.0
C10 C 0.0073 0.45721 0.18443 0.0
C11 C 0.07039 0.47969 0.20334 0.0
N12 N 0.06691 0.47895 0.14886 0.0
N13 N 0.03347 0.46639 0.2267 0.0
C14 C -0.00483 0.45152 0.84269 0.0
C15 C 0.93187 0.42803 0.82401 0.0
N16 N 0.97482 0.44372 0.89025 0.0
N17 N 0.93553 0.4291 0.87849 0.0
N18 N 0.96882 0.44173 0.80052 0.0
H19 H 0.05681 0.4887 0.87432 0.0
H20 H 0.05227 0.4911 0.80152 0.0
H21 H 0.04861 0.44599 0.83273 0.0
C22 C 0.04088 0.47072 0.83768 0.0
C23 C 0.96163 0.43866 0.18922 0.0
H24 H 0.94561 0.42087 0.15252 0.0
H25 H 0.95438 0.46373 0.19407 0.0
H26 H 0.94986 0.41824 0.2253 0.0
O27 O 0.96498 0.39532 0.07125 0.0
O28 O 0.94997 0.38889 0.98435 0.0
C29 C 0.94425 0.47764 0.0368 0.0
O30 O 0.0385 0.43461 0.95152 0.0
O31 O 0.05323 0.44086 0.03848 0.0
Zn32 Zn 0.45367 0.01334 0.97503 0.0
O33 O 0.47021 0.96893 0.95637 0.0
C34 C 0.36904 0.94838 1.00125 0.0
Zn35 Zn 0.44713 -0.003 0.063 0.0
C36 C 0.47212 0.94705 0.9944 0.0
O37 O 0.46329 0.95197 0.04264 0.0
C38 C 0.43068 0.0648 0.04319 0.0
O39 O 0.50965 0.03933 0.07622 0.0
O40 O 0.51637 0.05629 0.98991 0.0
N41 N 0.43979 0.97803 0.14227 0.0
C42 C 0.44769 -0.0016 0.18989 0.0
C43 C 0.42337 0.93483 0.20845 0.0
N44 N 0.42468 0.93857 0.15397 0.0
N45 N 0.43742 0.97189 0.23203 0.0
C46 C 0.45289 0.01176 0.84818 0.0
C47 C 0.47641 0.07519 0.82946 0.0
N48 N 0.46083 0.03221 0.89574 0.0
N49 N 0.47545 0.07159 0.88394 0.0
N50 N 0.46261 0.03813 0.80597 0.0
H51 H 0.4582 0.95803 0.83861 0.0
H52 H 0.41337 0.95453 0.80696 0.0
H53 H 0.41551 0.95001 0.87977 0.0
C54 C 0.43361 0.96592 0.84323 0.0
C55 C 0.46745 0.04427 0.19499 0.0
H56 H 0.48586 0.06009 0.1586 0.0
H57 H 0.48749 0.05536 0.23146 0.0
H58 H 0.44311 0.05252 0.19939 0.0
O59 O 0.43173 0.04277 0.08174 0.0
O60 O 0.43796 0.05819 0.995 0.0
C61 C 0.53214 0.06055 0.03689 0.0
O62 O 0.39104 0.96986 0.96169 0.0
O63 O 0.38484 0.95413 0.04836 0.0
Zn64 Zn 0.54959 0.56242 0.05738 0.0
O65 O 0.53116 0.50084 0.07587 0.0
C66 C 0.63361 0.57961 0.03243 0.0
Zn67 Zn 0.55653 0.55275 0.96951 0.0
C68 C 0.52872 0.47694 0.03778 0.0
O69 O 0.53816 0.49089 0.98964 0.0
C70 C 0.57546 0.63782 0.98946 0.0
O71 O 0.49471 0.53453 0.95539 0.0
O72 O 0.4873 0.54432 0.04157 0.0
N73 N 0.56383 0.54105 0.89027 0.0
C74 C 0.55647 0.55393 0.84256 0.0
C75 C 0.579 0.51325 0.82425 0.0
N76 N 0.57784 0.51581 0.87872 0.0
N77 N 0.56598 0.53706 0.80053 0.0
C78 C 0.54999 0.56132 0.18428 0.0
C79 C 0.52814 0.60252 0.20282 0.0
N80 N 0.54249 0.57418 0.13664 0.0
N81 N 0.52888 0.59973 0.14834 0.0
N82 N 0.54103 0.57855 0.22641 0.0
H83 H 0.58555 0.53505 0.15265 0.0
H84 H 0.54294 0.5016 0.19492 0.0
H85 H 0.58874 0.5426 0.22529 0.0
C86 C 0.56814 0.53382 0.18941 0.0
C87 C 0.53797 0.58109 0.83722 0.0
H88 H 0.52025 0.57955 0.87382 0.0
H89 H 0.51757 0.57222 0.80112 0.0
H90 H 0.563 0.6134 0.8319 0.0
O91 O 0.57409 0.6146 0.95097 0.0
O92 O 0.56731 0.62367 0.03755 0.0
C93 C 0.47205 0.53359 0.99419 0.0
O94 O 0.6117 0.57984 0.07153 0.0
O95 O 0.61817 0.57013 0.98507 0.0
H96 H 0.01699 0.41965 0.74488 0.0
H97 H 0.02912 0.42516 0.64661 0.0
H98 H 0.94755 0.47406 0.62756 0.0
H99 H 0.9364 0.4697 0.72604 0.0
H100 H 0.97019 0.38733 0.56382 0.0
H101 H 0.05137 0.55779 0.54574 0.0
H102 H 0.04458 0.53181 0.60994 0.0
H103 H 0.00289 0.5357 0.58041 0.0
C104 C 0.00255 0.43256 0.71985 0.0
C105 C 0.97669 0.44538 0.74306 0.0
C106 C 0.0091 0.43525 0.66374 0.0
C107 C -0.01014 0.45077 0.63 0.0
C108 C 0.96344 0.4629 0.65302 0.0
H109 H 0.98563 0.48869 0.28274 0.0
H110 H 0.97331 0.48267 0.38096 0.0
C111 C 0.95688 0.46016 0.70907 0.0
C112 C -0.00371 0.45299 0.57049 0.0
H113 H 0.03186 0.51981 0.46342 0.0
C114 C 0.98387 0.41629 0.54183 0.0
C115 C 0.014 0.49082 0.54203 0.0
C116 C 0.02934 0.53135 0.57106 0.0
C117 C -0.01197 0.41631 0.48518 0.0
C118 C 0.00573 0.45415 0.45671 0.0
C119 C 0.01818 0.49085 0.48539 0.0
C120 C 0.01207 0.45641 0.39717 0.0
C121 C 0.97266 0.37577 0.45616 0.0
C122 C 0.03824 0.44407 0.37392 0.0
C123 C 0.04489 0.44708 0.31788 0.0
C124 C 0.02543 0.46239 0.28413 0.0
C125 C -0.00022 0.47539 0.30756 0.0
C126 C -0.00687 0.4724 0.36365 0.0
H127 H 0.95053 0.34936 0.48143 0.0
H128 H 0.95753 0.37535 0.4172 0.0
H129 H -0.00092 0.37133 0.44698 0.0
H130 H 0.05393 0.43258 0.3992 0.0
H131 H 0.0652 0.43738 0.30074 0.0
H132 H 0.46394 0.93868 0.30738 0.0
H133 H 0.46731 0.94963 0.40595 0.0
H134 H 0.42066 0.03303 0.38506 0.0
H135 H 0.41606 0.02106 0.28684 0.0
H136 H 0.51167 0.02408 0.46372 0.0
H137 H 0.34366 0.9513 0.49957 0.0
H138 H 0.36472 0.94422 0.43734 0.0
H139 H 0.36351 0.99093 0.44863 0.0
C140 C 0.45442 0.95929 0.32402 0.0
C141 C 0.4405 0.97963 0.28954 0.0
C142 C 0.45641 0.96559 0.38013 0.0
C143 C 0.44394 0.99189 0.40279 0.0
C144 C 0.43003 0.01227 0.36843 0.0
H145 H 0.43513 0.07083 0.73114 0.0
H146 H 0.43129 0.05985 0.63256 0.0
C147 C 0.42805 0.00598 0.31228 0.0
C148 C 0.44602 -0.0017 0.46233 0.0
H149 H 0.38733 0.98595 0.57422 0.0
C150 C 0.4845 0.01562 0.48798 0.0
C151 C 0.41049 0.98724 0.49374 0.0
C152 C 0.36818 0.96705 0.46863 0.0
C153 C 0.48851 0.02283 0.54419 0.0
C154 C 0.45298 0.0117 0.57562 0.0
C155 C 0.4145 -0.00558 0.54996 0.0
C156 C 0.45508 0.01794 0.63521 0.0
C157 C 0.53086 0.04312 0.56923 0.0
C158 C 0.46936 -0.00227 0.66929 0.0
C159 C 0.47165 0.00408 0.72544 0.0
C160 C 0.45913 0.03027 0.74848 0.0
C161 C 0.44475 0.05035 0.71428 0.0
C162 C 0.44246 0.04402 0.65816 0.0
H163 H 0.55532 0.05914 0.53828 0.0
H164 H 0.53421 0.06575 0.60077 0.0
H165 H 0.53574 0.01926 0.58887 0.0
H166 H 0.47883 0.97712 0.65245 0.0
H167 H 0.48399 0.98918 0.75063 0.0
H168 H 0.58921 0.60777 0.74473 0.0
H169 H 0.58373 0.61468 0.64648 0.0
H170 H 0.5331 0.48374 0.62751 0.0
H171 H 0.53739 0.47665 0.726 0.0
H172 H 0.62043 0.59311 0.56329 0.0
H173 H 0.45026 0.5053 0.54623 0.0
H174 H 0.47649 0.52406 0.61032 0.0
H175 H 0.47194 0.47825 0.58046 0.0
C176 C 0.57594 0.58039 0.71973 0.0
C177 C 0.56258 0.54149 0.743 0.0
C178 C 0.57327 0.58441 0.66361 0.0
C179 C 0.55724 0.54961 0.62988 0.0
C180 C 0.54465 0.51085 0.65294 0.0
H181 H 0.51794 0.50809 0.28271 0.0
H182 H 0.52404 0.50163 0.38091 0.0
C183 C 0.54736 0.50685 0.70901 0.0
C184 C 0.55488 0.55398 0.57036 0.0
H185 H 0.48783 0.52356 0.46366 0.0
C186 C 0.59145 0.5781 0.54148 0.0
C187 C 0.51701 0.53424 0.54209 0.0
C188 C 0.47662 0.50929 0.57132 0.0
C189 C 0.59126 0.58243 0.48483 0.0
C190 C 0.55339 0.56265 0.45656 0.0
C191 C 0.51682 0.53857 0.48546 0.0
C192 C 0.55097 0.56683 0.397 0.0
C193 C 0.63166 0.60738 0.45561 0.0
C194 C 0.56365 0.60552 0.37365 0.0
C195 C 0.56059 0.60925 0.31759 0.0
C196 C 0.54491 0.57441 0.2839 0.0
C197 C 0.53154 0.5356 0.30745 0.0
C198 C 0.53457 0.53185 0.36355 0.0
H199 H 0.65801 0.61136 0.4807 0.0
H200 H 0.63179 0.59263 0.41659 0.0
H201 H 0.63635 0.63843 0.4465 0.0
H202 H 0.57546 0.63277 0.39886 0.0
H203 H 0.57059 0.63939 0.30038 0.0
H204 H 0.09302 0.43052 0.89246 0.0
H205 H 0.159 0.43377 0.87759 0.0
H206 H 0.17351 0.4278 0.05065 0.0
H207 H 0.10776 0.42388 0.06576 0.0
H208 H 0.23017 0.49774 0.91511 0.0
H209 H 0.21397 0.3531 0.99624 0.0
H210 H 0.17008 0.3585 0.97946 0.0
H211 H 0.19554 0.37605 0.0441 0.0
C212 C 0.10973 0.4287 0.9272 0.0
C213 C 0.09534 0.42729 0.9803 0.0
C214 C 0.14741 0.4306 0.91863 0.0
C215 C 0.17095 0.43061 0.96297 0.0
C216 C 0.15548 0.42687 1.01575 0.0
H217 H 0.41327 0.51985 0.06952 0.0
H218 H 0.3398 0.49213 0.05378 0.0
C219 C 0.11797 0.42501 0.02434 0.0
C220 C 0.214 0.44057 0.95545 0.0
H221 H 0.28309 0.41266 0.99779 0.0
C222 C 0.24167 0.47867 0.93188 0.0
C223 C 0.22887 0.41566 0.97744 0.0
C224 C 0.20041 0.37336 1.0002 0.0
C225 C 0.28415 0.4938 0.93313 0.0
C226 C 0.29909 0.47 0.95822 0.0
C227 C 0.27138 0.43094 0.97909 0.0
C228 C 0.34344 0.48647 0.96682 0.0
C229 C 0.31293 0.5361 0.9105 0.0
C230 C 0.36956 0.49243 0.92297 0.0
C231 C 0.41155 0.5083 0.93176 0.0
C232 C 0.42798 0.51844 0.9846 0.0
C233 C 0.40161 0.51253 0.02836 0.0
C234 C 0.35965 0.49652 0.01951 0.0
H235 H 0.29655 0.55267 0.89853 0.0
H236 H 0.3369 0.55495 0.94091 0.0
H237 H 0.3287 0.53319 0.87413 0.0
H238 H 0.35741 0.48456 0.88207 0.0
H239 H 0.43106 0.51241 0.8972 0.0
H240 H 0.57515 0.07829 0.13227 0.0
H241 H 0.64927 0.12324 0.1451 0.0
H242 H 0.66354 0.15081 0.97375 0.0
H243 H 0.58968 0.10589 0.96031 0.0
H244 H 0.72117 0.12807 0.02291 0.0
H245 H 0.71022 0.2519 0.13351 0.0
H246 H 0.67936 0.19983 0.15751 0.0
H247 H 0.66846 0.21403 0.09263 0.0
C248 C 0.59405 0.09402 0.09733 0.0
C249 C 0.57656 0.08868 0.04526 0.0
C250 C 0.63631 0.11965 0.10479 0.0
C251 C 0.66162 0.1403 0.06038 0.0
C252 C 0.64435 0.13496 1.00844 0.0
H253 H 0.89424 0.3179 0.95543 0.0
H254 H 0.82914 0.255 0.97083 0.0
C255 C 0.60215 0.10948 1.00092 0.0
C256 C 0.70618 0.16813 0.06759 0.0
H257 H 0.77611 0.26404 0.11249 0.0
C258 C 0.73335 0.1576 0.04312 0.0
C259 C 0.72175 0.20629 0.09455 0.0
C260 C 0.69361 0.21905 0.12091 0.0
C261 C 0.77584 0.18512 0.04305 0.0
C262 C 0.79124 0.22435 0.06706 0.0
C263 C 0.7642 0.23389 0.09416 0.0
C264 C 0.83401 0.25792 0.05856 0.0
C265 C 0.80371 0.17221 1.01632 0.0
C266 C 0.85861 0.28037 0.10279 0.0
C267 C 0.89586 0.31674 0.0941 0.0
C268 C 0.90878 0.33134 0.041 0.0
C269 C 0.88516 0.30751 0.99683 0.0
C270 C 0.84804 0.27127 1.00555 0.0
H271 H 0.79035 0.13828 0.0184 0.0
H272 H 0.80732 0.18102 0.97277 0.0
H273 H 0.8346 0.18733 0.03553 0.0
H274 H 0.84813 0.2707 0.14401 0.0
H275 H 0.91336 0.33444 0.12899 0.0
H276 H 0.49284 0.92845 0.89614 0.0
H277 H 0.52087 0.88297 0.87902 0.0
H278 H 0.51348 0.85509 0.04998 0.0
H279 H 0.48544 0.9003 0.06765 0.0
H280 H 0.59376 0.88096 0.99219 0.0
H281 H 0.45447 0.75268 0.89432 0.0
H282 H 0.47241 0.80467 0.8718 0.0
H283 H 0.45126 0.78932 0.93861 0.0
C284 C 0.49687 0.9124 0.93005 0.0
C285 C 0.48678 0.91787 0.98326 0.0
C286 C 0.51291 0.88652 0.92015 0.0
C287 C 0.51913 0.86582 0.96327 0.0
C288 C 0.50891 0.87099 1.01627 0.0
H289 H 0.58544 0.696 0.06335 0.0
H290 H 0.58093 0.75753 0.04685 0.0
C291 C 0.49273 0.89666 0.02621 0.0
C292 C 0.53635 0.83865 0.95378 0.0
H293 H 0.50966 0.74189 0.91187 0.0
C294 C 0.57572 0.85076 0.97389 0.0
C295 C 0.51285 0.79965 0.92923 0.0
C296 C 0.4703 0.78544 0.90731 0.0
C297 C 0.59156 0.82396 0.97226 0.0
C298 C 0.56691 0.78383 0.95111 0.0
C299 C 0.52852 0.7727 0.92805 0.0
C300 C 0.57741 0.7511 0.9593 0.0
C301 C 0.63412 0.83856 0.99434 0.0
C302 C 0.57732 0.72713 0.9155 0.0
C303 C 0.57959 0.69153 0.92489 0.0
C304 C 0.58146 0.67918 0.97828 0.0
C305 C 0.58395 0.7046 0.02173 0.0
C306 C 0.58175 0.74008 1.01233 0.0
H307 H 0.65393 0.87244 0.98955 0.0
H308 H 0.63202 0.83152 0.0384 0.0
H309 H 0.64905 0.82314 0.97374 0.0
H310 H 0.5737 0.73499 0.87429 0.0
H311 H 0.57759 0.67261 0.89058 0.0
H312 H 0.90126 0.49382 0.96108 0.0
H313 H 0.85704 0.52321 0.97603 0.0
H314 H 0.87848 0.52677 0.14856 0.0
H315 H 0.92309 0.49732 0.1341 0.0
H316 H 0.79341 0.49131 0.11442 0.0
H317 H 0.8949 0.64412 0.02167 0.0
H318 H 0.88799 0.60163 0.98041 0.0
H319 H 0.91358 0.61071 0.04493 0.0
C320 C 0.89661 0.50076 1.00228 0.0
C321 C 0.91576 0.49332 0.04643 0.0
C322 C 0.87162 0.51788 1.01066 0.0
C323 C 0.8653 0.52788 0.06324 0.0
C324 C 0.88351 0.51968 0.10763 0.0
H325 H 0.67234 0.58973 0.13042 0.0
H326 H 0.73441 0.58562 0.14756 0.0
C327 C 0.90881 0.50274 0.09927 0.0
C328 C 0.83802 0.54515 0.07134 0.0
H329 H 0.82354 0.62382 0.03013 0.0
C330 C 0.8002 0.52069 0.09718 0.0
C331 C 0.8473 0.58354 0.04887 0.0
C332 C 0.88833 0.61175 0.02284 0.0
C333 C 0.76998 0.53219 0.09751 0.0
C334 C 0.77841 0.56959 0.07232 0.0
C335 C 0.81723 0.59521 0.0494 0.0
C336 C 0.74557 0.57962 0.06277 0.0
C337 C 0.72837 0.50287 0.12141 0.0
C338 C 0.73287 0.58007 1.00933 0.0
C339 C 0.6978 0.58278 0.99935 0.0
C340 C 0.67476 0.58507 0.04273 0.0
C341 C 0.68927 0.5877 0.09614 0.0
C342 C 0.72454 0.58509 0.10607 0.0
H343 H 0.7249 0.47235 0.13111 0.0
H344 H 0.72421 0.51611 0.15953 0.0
H345 H 0.70348 0.49821 0.09289 0.0
H346 H 0.74885 0.57609 0.97534 0.0
H347 H 0.68767 0.58101 0.95772 0.0
H348 H 0.0758 0.57904 0.89997 0.0
H349 H 0.12058 0.65333 0.88721 0.0
H350 H 0.14761 0.6677 0.0587 0.0
H351 H 0.10284 0.59368 0.07208 0.0
H352 H 0.12464 0.72508 1.00957 0.0
H353 H 0.24887 0.7152 0.89915 0.0
H354 H 0.197 0.68406 0.8749 0.0
H355 H 0.21114 0.67315 0.93981 0.0
C356 C 0.09141 0.59799 0.93495 0.0
C357 C 0.08592 0.58048 0.98705 0.0
C358 C 0.11694 0.64035 0.92753 0.0
C359 C 0.13736 0.66575 0.97201 0.0
C360 C 0.13195 0.64844 0.02395 0.0
H361 H 0.31368 0.89899 0.07737 0.0
H362 H 0.25092 0.83377 0.06184 0.0
C363 C 0.10655 0.60615 0.03144 0.0
C364 C 0.1649 0.71045 0.9649 0.0
H365 H 0.26043 0.78105 0.92009 0.0
C366 C 0.15413 0.73747 0.98938 0.0
C367 C 0.20302 0.72632 0.93797 0.0
C368 C 0.21605 0.69835 0.9116 0.0
C369 C 0.18135 0.78011 0.98951 0.0
C370 C 0.22053 0.79581 0.96551 0.0
C371 C 0.23032 0.76892 0.9384 0.0
C372 C 0.25383 0.83875 0.97412 0.0
C373 C 0.1682 0.80781 1.01629 0.0
C374 C 0.27619 0.8635 0.92994 0.0
C375 C 0.31247 0.90083 0.93871 0.0
C376 C 0.32709 0.91367 0.99183 0.0
C377 C 0.30329 0.88996 0.03596 0.0
C378 C 0.26713 0.85277 0.02715 0.0
H379 H 0.13431 0.79421 1.01418 0.0
H380 H 0.17698 0.81144 0.05985 0.0
H381 H 0.18311 0.83878 0.99714 0.0
H382 H 0.26655 0.85305 0.88869 0.0
H383 H 0.33015 0.91839 0.90386 0.0
H384 H 0.51037 0.41604 0.96385 0.0
H385 H 0.48207 0.34268 0.98156 0.0
H386 H 0.48325 0.36432 0.15369 0.0
H387 H 0.51152 0.43802 0.13646 0.0
H388 H 0.5192 0.31497 0.11861 0.0
H389 H 0.36311 0.25927 0.03494 0.0
H390 H 0.40388 0.29455 0.99121 0.0
H391 H 0.39647 0.31201 0.05592 0.0
C392 C 0.50465 0.4053 1.00551 0.0
C393 C 0.51314 0.43285 0.04876 0.0
C394 C 0.48817 0.36334 1.01549 0.0
C395 C 0.47993 0.34817 0.06881 0.0
C396 C 0.48902 0.37554 0.11223 0.0
H397 H 0.42457 0.09518 0.14206 0.0
H398 H 0.42865 0.16151 0.15907 0.0
C399 C 0.50526 0.41757 0.10228 0.0
C400 C 0.46364 0.30387 0.07869 0.0
H401 H 0.3846 0.2091 0.04379 0.0
C402 C 0.48941 0.29163 0.10345 0.0
C403 C 0.42471 0.2738 0.059 0.0
C404 C 0.39522 0.28547 0.03421 0.0
C405 C 0.47858 0.25002 0.10527 0.0
C406 C 0.44054 0.22002 0.08272 0.0
C407 C 0.41369 0.23217 0.06106 0.0
C408 C 0.43101 0.17714 0.07399 0.0
C409 C 0.50915 0.23886 0.12772 0.0
C410 C 0.42865 0.16311 0.02065 0.0
C411 C 0.42601 0.1253 1.01083 0.0
C412 C 0.42574 0.10078 0.05425 0.0
C413 C 0.42516 0.11355 0.10778 0.0
C414 C 0.4277 0.15151 0.11758 0.0
H415 H 0.53967 0.26647 0.13548 0.0
H416 H 0.49747 0.22214 0.1667 0.0
H417 H 0.51328 0.21831 0.09919 0.0
H418 H 0.43095 0.18237 0.98644 0.0
H419 H 0.42612 0.11625 0.96909 0.0
loop_
_geom_bond_atom_site_label_1
_geom_bond_atom_site_label_2
_geom_bond_distance
_geom_bond_site_symmetry_2
_ccdc_geom_bond_type
Zn0 O1 2.055 . S
Zn0 O8 2.046 1_455 S
Zn0 N16 2.036 . S
Zn0 O28 2.053 1_455 S
Zn0 O30 2.066 . S
O1 Zn0 2.055 . S
O1 C4 1.259 . S
C2 O30 1.256 . S
C2 O31 1.244 1_556 S
Zn3 O5 2.046 . S
Zn3 O7 2.055 1_455 S
Zn3 N9 2.036 . S
Zn3 O27 2.066 1_455 S
Zn3 O31 2.053 . S
C4 O1 1.259 . S
C4 O5 1.254 1_556 S
O5 Zn3 2.046 . S
O5 C4 1.254 1_554 S
C6 O27 1.256 . S
C6 O28 1.244 1_554 S
O7 Zn3 2.055 1_655 S
O7 C29 1.259 . S
O8 Zn0 2.046 1_655 S
O8 C29 1.254 1_556 S
N9 Zn3 2.036 . S
N9 C10 1.298 1_455 S
N9 N12 1.398 . S
C10 N9 1.298 1_655 S
C10 N13 1.367 1_655 S
C10 C23 1.481 . S
C11 N12 1.299 . S
C11 N13 1.379 . S
N12 N9 1.398 . S
N12 C11 1.299 . S
N13 C10 1.367 1_455 S
N13 C11 1.379 . S
C14 N16 1.298 . S
C14 N18 1.367 . S
C14 C22 1.481 . S
C15 N17 1.299 . S
C15 N18 1.379 1_655 S
N16 Zn0 2.036 . S
N16 C14 1.298 . S
N16 N17 1.398 1_455 S
N17 C15 1.299 . S
N17 N16 1.398 1_655 S
N18 C14 1.367 . S
N18 C15 1.379 1_455 S
H19 C22 0.980 . S
H20 C22 0.981 . S
H21 C22 0.981 . S
C22 C14 1.481 . S
C22 H19 0.980 . S
C22 H20 0.981 . S
C22 H21 0.981 . S
C23 C10 1.481 . S
C23 H24 0.980 . S
C23 H25 0.981 . S
C23 H26 0.981 . S
H24 C23 0.980 . S
H25 C23 0.981 . S
H26 C23 0.981 . S
O27 Zn3 2.066 1_655 S
O27 C6 1.256 . S
O28 Zn0 2.053 1_655 S
O28 C6 1.244 1_556 S
C29 O7 1.259 . S
C29 O8 1.254 1_554 S
O30 Zn0 2.066 . S
O30 C2 1.256 . S
O31 C2 1.244 1_554 S
O31 Zn3 2.053 . S
Zn32 O33 2.055 1_545 S
Zn32 O40 2.046 . S
Zn32 N48 2.036 . S
Zn32 O60 2.053 . S
Zn32 O62 2.066 1_545 S
O33 Zn32 2.055 1_565 S
O33 C36 1.259 . S
C34 O62 1.256 . S
C34 O63 1.244 1_556 S
Zn35 O37 2.046 1_545 S
Zn35 O39 2.055 . S
Zn35 N41 2.036 . S
Zn35 O59 2.066 . S
Zn35 O63 2.053 1_545 S
C36 O33 1.259 . S
C36 O37 1.254 1_556 S
O37 Zn35 2.046 1_565 S
O37 C36 1.254 1_554 S
C38 O59 1.256 . S
C38 O60 1.244 1_554 S
O39 Zn35 2.055 . S
O39 C61 1.259 . S
O40 Zn32 2.046 . S
O40 C61 1.254 1_556 S
N41 Zn35 2.036 . S
N41 C42 1.298 . S
N41 N44 1.398 1_545 S
C42 N41 1.298 . S
C42 N45 1.367 . S
C42 C55 1.481 . S
C43 N44 1.299 . S
C43 N45 1.379 1_565 S
N44 N41 1.398 1_565 S
N44 C43 1.299 . S
N45 C42 1.367 . S
N45 C43 1.379 1_545 S
C46 N48 1.298 1_565 S
C46 N50 1.367 1_565 S
C46 C54 1.481 . S
C47 N49 1.299 . S
C47 N50 1.379 . S
N48 Zn32 2.036 . S
N48 C46 1.298 1_545 S
N48 N49 1.398 . S
N49 C47 1.299 . S
N49 N48 1.398 . S
N50 C46 1.367 1_545 S
N50 C47 1.379 . S
H51 C54 0.980 . S
H52 C54 0.981 . S
H53 C54 0.981 . S
C54 C46 1.481 . S
C54 H51 0.980 . S
C54 H52 0.981 . S
C54 H53 0.981 . S
C55 C42 1.481 . S
C55 H56 0.980 . S
C55 H57 0.981 . S
C55 H58 0.981 . S
H56 C55 0.980 . S
H57 C55 0.981 . S
H58 C55 0.981 . S
O59 Zn35 2.066 . S
O59 C38 1.256 . S
O60 Zn32 2.053 . S
O60 C38 1.244 1_556 S
C61 O39 1.259 . S
C61 O40 1.254 1_554 S
O62 Zn32 2.066 1_565 S
O62 C34 1.256 . S
O63 C34 1.244 1_554 S
O63 Zn35 2.053 1_565 S
Zn64 O65 2.055 . S
Zn64 O72 2.046 . S
Zn64 N80 2.036 . S
Zn64 O92 2.053 . S
Zn64 O94 2.066 . S
O65 Zn64 2.055 . S
O65 C68 1.259 . S
C66 O94 1.256 . S
C66 O95 1.244 1_554 S
Zn67 O69 2.046 . S
Zn67 O71 2.055 . S
Zn67 N73 2.036 . S
Zn67 O91 2.066 . S
Zn67 O95 2.053 . S
C68 O65 1.259 . S
C68 O69 1.254 1_554 S
O69 Zn67 2.046 . S
O69 C68 1.254 1_556 S
C70 O91 1.256 . S
C70 O92 1.244 1_556 S
O71 Zn67 2.055 . S
O71 C93 1.259 . S
O72 Zn64 2.046 . S
O72 C93 1.254 1_554 S
N73 Zn67 2.036 . S
N73 C74 1.298 . S
N73 N76 1.398 . S
C74 N73 1.298 . S
C74 N77 1.367 . S
C74 C87 1.481 . S
C75 N76 1.299 . S
C75 N77 1.379 . S
N76 N73 1.398 . S
N76 C75 1.299 . S
N77 C74 1.367 . S
N77 C75 1.379 . S
C78 N80 1.298 . S
C78 N82 1.367 . S
C78 C86 1.481 . S
C79 N81 1.299 . S
C79 N82 1.379 . S
N80 Zn64 2.036 . S
N80 C78 1.298 . S
N80 N81 1.398 . S
N81 C79 1.299 . S
N81 N80 1.398 . S
N82 C78 1.367 . S
N82 C79 1.379 . S
H83 C86 0.980 . S
H84 C86 0.981 . S
H85 C86 0.981 . S
C86 C78 1.481 . S
C86 H83 0.980 . S
C86 H84 0.981 . S
C86 H85 0.981 . S
C87 C74 1.481 . S
C87 H88 0.980 . S
C87 H89 0.981 . S
C87 H90 0.981 . S
H88 C87 0.980 . S
H89 C87 0.981 . S
H90 C87 0.981 . S
O91 Zn67 2.066 . S
O91 C70 1.256 . S
O92 Zn64 2.053 . S
O92 C70 1.244 1_554 S
C93 O71 1.259 . S
C93 O72 1.254 1_556 S
O94 Zn64 2.066 . S
O94 C66 1.256 . S
O95 C66 1.244 1_556 S
O95 Zn67 2.053 . S
H96 C104 0.929 . S
H97 C106 0.930 . S
H98 C108 0.930 . S
H99 C111 0.929 . S
H100 C114 0.930 . S
H101 C116 0.960 . S
H102 C116 0.960 . S
H103 C116 0.960 1_655 S
C104 H96 0.929 . S
C104 C105 1.377 . S
C104 C106 1.384 . S
C105 C104 1.377 . S
C105 C111 1.390 1_455 S
C106 H97 0.930 . S
C106 C104 1.384 . S
C106 C107 1.372 . S
C107 C106 1.372 . S
C107 C108 1.400 1_455 S
C107 C112 1.490 . S
C108 H98 0.930 . S
C108 C107 1.400 1_655 S
C108 C111 1.386 . S
H109 C125 0.930 . S
H110 C126 0.931 . S
C111 H99 0.929 . S
C111 C105 1.390 1_655 S
C111 C108 1.386 . S
C112 C107 1.490 . S
C112 C114 1.395 . S
C112 C115 1.403 . S
H113 C119 0.930 . S
C114 H100 0.930 . S
C114 C112 1.395 . S
C114 C117 1.403 . S
C115 C112 1.403 . S
C115 C116 1.524 . S
C115 C119 1.400 . S
C116 H101 0.960 . S
C116 H102 0.960 . S
C116 H103 0.960 1_455 S
C116 C115 1.524 . S
C117 C114 1.403 . S
C117 C118 1.392 . S
C117 C121 1.495 . S
C118 C117 1.392 . S
C118 C119 1.385 . S
C118 C120 1.478 . S
C119 H113 0.930 . S
C119 C115 1.400 . S
C119 C118 1.385 . S
C120 C118 1.478 . S
C120 C122 1.381 . S
C120 C126 1.383 1_455 S
C121 C117 1.495 . S
C121 H127 0.959 . S
C121 H128 0.961 1_455 S
C121 H129 0.960 . S
C122 C120 1.381 . S
C122 C123 1.394 . S
C122 H130 0.930 . S
C123 C122 1.394 . S
C123 C124 1.383 1_455 S
C123 H131 0.929 . S
C124 C123 1.383 1_655 S
C124 C125 1.377 . S
C125 H109 0.930 . S
C125 C124 1.377 . S
C125 C126 1.379 . S
C126 H110 0.931 . S
C126 C120 1.383 1_655 S
C126 C125 1.379 . S
H127 C121 0.959 . S
H128 C121 0.961 1_655 S
H129 C121 0.960 . S
H130 C122 0.930 . S
H131 C123 0.929 . S
H132 C140 0.929 1_565 S
H133 C142 0.930 . S
H134 C144 0.930 . S
H135 C147 0.929 . S
H136 C150 0.930 . S
H137 C152 0.960 . S
H138 C152 0.960 . S
H139 C152 0.960 1_545 S
C140 H132 0.929 1_545 S
C140 C141 1.377 . S
C140 C142 1.384 1_545 S
C141 C140 1.377 . S
C141 C147 1.390 . S
C142 H133 0.930 . S
C142 C140 1.384 1_565 S
C142 C143 1.372 1_565 S
C143 C142 1.372 1_545 S
C143 C144 1.400 . S
C143 C148 1.490 . S
C144 H134 0.930 . S
C144 C143 1.400 . S
C144 C147 1.386 . S
H145 C161 0.930 . S
H146 C162 0.931 . S
C147 H135 0.929 . S
C147 C141 1.390 . S
C147 C144 1.386 . S
C148 C143 1.490 . S
C148 C150 1.395 . S
C148 C151 1.404 1_545 S
H149 C155 0.930 . S
C150 H136 0.930 . S
C150 C148 1.395 . S
C150 C153 1.403 . S
C151 C148 1.404 1_565 S
C151 C152 1.522 . S
C151 C155 1.401 . S
C152 H137 0.960 . S
C152 H138 0.960 . S
C152 H139 0.960 1_565 S
C152 C151 1.522 . S
C153 C150 1.403 . S
C153 C154 1.392 . S
C153 C157 1.495 . S
C154 C153 1.392 . S
C154 C155 1.385 1_545 S
C154 C156 1.478 . S
C155 H149 0.930 . S
C155 C151 1.401 . S
C155 C154 1.385 1_565 S
C156 C154 1.478 . S
C156 C158 1.381 1_545 S
C156 C162 1.383 . S
C157 C153 1.495 . S
C157 H163 0.959 . S
C157 H164 0.961 . S
C157 H165 0.960 . S
C158 C156 1.381 1_565 S
C158 C159 1.394 . S
C158 H166 0.930 . S
C159 C158 1.394 . S
C159 C160 1.383 . S
C159 H167 0.929 . S
C160 C159 1.383 . S
C160 C161 1.377 1_565 S
C161 H145 0.930 . S
C161 C160 1.377 1_545 S
C161 C162 1.379 . S
C162 H146 0.931 . S
C162 C156 1.383 . S
C162 C161 1.379 . S
H163 C157 0.959 . S
H164 C157 0.961 . S
H165 C157 0.960 . S
H166 C158 0.930 . S
H167 C159 0.929 . S
H168 C176 0.929 . S
H169 C178 0.930 . S
H170 C180 0.930 . S
H171 C183 0.929 . S
H172 C186 0.930 . S
H173 C188 0.960 . S
H174 C188 0.960 . S
H175 C188 0.960 . S
C176 H168 0.929 . S
C176 C177 1.377 . S
C176 C178 1.384 . S
C177 C176 1.377 . S
C177 C183 1.390 . S
C178 H169 0.930 . S
C178 C176 1.384 . S
C178 C179 1.372 . S
C179 C178 1.372 . S
C179 C180 1.400 . S
C179 C184 1.490 . S
C180 H170 0.930 . S
C180 C179 1.400 . S
C180 C183 1.386 . S
H181 C197 0.930 . S
H182 C198 0.931 . S
C183 H171 0.929 . S
C183 C177 1.390 . S
C183 C180 1.386 . S
C184 C179 1.490 . S
C184 C186 1.395 . S
C184 C187 1.403 . S
H185 C191 0.930 . S
C186 H172 0.930 . S
C186 C184 1.395 . S
C186 C189 1.403 . S
C187 C184 1.403 . S
C187 C188 1.524 . S
C187 C191 1.400 . S
C188 H173 0.960 . S
C188 H174 0.960 . S
C188 H175 0.960 . S
C188 C187 1.524 . S
C189 C186 1.403 . S
C189 C190 1.392 . S
C189 C193 1.495 . S
C190 C189 1.392 . S
C190 C191 1.385 . S
C190 C192 1.478 . S
C191 H185 0.930 . S
C191 C187 1.400 . S
C191 C190 1.385 . S
C192 C190 1.478 . S
C192 C194 1.381 . S
C192 C198 1.383 . S
C193 C189 1.495 . S
C193 H199 0.959 . S
C193 H200 0.961 . S
C193 H201 0.960 . S
C194 C192 1.381 . S
C194 C195 1.394 . S
C194 H202 0.930 . S
C195 C194 1.394 . S
C195 C196 1.383 . S
C195 H203 0.929 . S
C196 C195 1.383 . S
C196 C197 1.377 . S
C197 H181 0.930 . S
C197 C196 1.377 . S
C197 C198 1.379 . S
C198 H182 0.931 . S
C198 C192 1.383 . S
C198 C197 1.379 . S
H199 C193 0.959 . S
H200 C193 0.961 . S
H201 C193 0.960 . S
H202 C194 0.930 . S
H203 C195 0.929 . S
H204 C212 0.929 . S
H205 C214 0.930 . S
H206 C216 0.930 . S
H207 C219 0.929 . S
H208 C222 0.930 . S
H209 C224 0.960 . S
H210 C224 0.968 . S
H211 C224 0.960 . S
C212 H204 0.929 . S
C212 C213 1.377 . S
C212 C214 1.384 . S
C213 C212 1.377 . S
C213 C219 1.390 1_556 S
C214 H205 0.930 . S
C214 C212 1.384 . S
C214 C215 1.372 . S
C215 C214 1.372 . S
C215 C216 1.400 1_556 S
C215 C220 1.490 . S
C216 H206 0.930 . S
C216 C215 1.400 1_554 S
C216 C219 1.386 . S
H217 C233 0.930 . S
H218 C234 0.931 . S
C219 H207 0.929 . S
C219 C213 1.390 1_554 S
C219 C216 1.386 . S
C220 C215 1.490 . S
C220 C222 1.395 . S
C220 C223 1.403 1_556 S
H221 C227 0.930 . S
C222 H208 0.930 . S
C222 C220 1.395 . S
C222 C225 1.403 . S
C223 C220 1.403 1_554 S
C223 C224 1.524 . S
C223 C227 1.400 . S
C224 H209 0.960 . S
C224 H210 0.968 . S
C224 H211 0.960 . S
C224 C223 1.524 . S
C225 C222 1.403 . S
C225 C226 1.392 . S
C225 C229 1.495 . S
C226 C225 1.392 . S
C226 C227 1.385 1_556 S
C226 C228 1.478 . S
C227 H221 0.930 . S
C227 C223 1.400 . S
C227 C226 1.385 1_554 S
C228 C226 1.478 . S
C228 C230 1.381 . S
C228 C234 1.383 1_556 S
C229 C225 1.495 . S
C229 H235 0.959 . S
C229 H236 0.961 . S
C229 H237 0.960 . S
C230 C228 1.381 . S
C230 C231 1.394 . S
C230 H238 0.930 . S
C231 C230 1.394 . S
C231 C232 1.383 . S
C231 H239 0.929 . S
C232 C231 1.383 . S
C232 C233 1.377 1_556 S
C233 H217 0.930 . S
C233 C232 1.377 1_554 S
C233 C234 1.379 . S
C234 H218 0.931 . S
C234 C228 1.383 1_554 S
C234 C233 1.379 . S
H235 C229 0.959 . S
H236 C229 0.961 . S
H237 C229 0.960 . S
H238 C230 0.930 . S
H239 C231 0.929 . S
H240 C248 0.929 . S
H241 C250 0.930 . S
H242 C252 0.930 . S
H243 C255 0.929 . S
H244 C258 0.930 . S
H245 C260 0.960 . S
H246 C260 0.960 . S
H247 C260 0.960 . S
C248 H240 0.929 . S
C248 C249 1.377 . S
C248 C250 1.384 . S
C249 C248 1.377 . S
C249 C255 1.390 1_554 S
C250 H241 0.930 . S
C250 C248 1.384 . S
C250 C251 1.372 . S
C251 C250 1.372 . S
C251 C252 1.400 1_554 S
C251 C256 1.490 . S
C252 H242 0.930 . S
C252 C251 1.400 1_556 S
C252 C255 1.386 . S
H253 C269 0.930 . S
H254 C270 0.931 . S
C255 H243 0.929 . S
C255 C249 1.390 1_556 S
C255 C252 1.386 . S
C256 C251 1.490 . S
C256 C258 1.395 1_554 S
C256 C259 1.403 . S
H257 C263 0.930 . S
C258 H244 0.930 . S
C258 C256 1.395 1_556 S
C258 C261 1.403 . S
C259 C256 1.403 . S
C259 C260 1.524 . S
C259 C263 1.400 . S
C260 H245 0.960 . S
C260 H246 0.960 . S
C260 H247 0.960 . S
C260 C259 1.524 . S
C261 C258 1.403 . S
C261 C262 1.392 1_556 S
C261 C265 1.495 . S
C262 C261 1.392 1_554 S
C262 C263 1.385 . S
C262 C264 1.478 . S
C263 H257 0.930 . S
C263 C259 1.400 . S
C263 C262 1.385 . S
C264 C262 1.478 . S
C264 C266 1.381 . S
C264 C270 1.383 1_554 S
C265 C261 1.495 . S
C265 H271 0.959 . S
C265 H272 0.961 . S
C265 H273 0.960 . S
C266 C264 1.381 . S
C266 C267 1.394 . S
C266 H274 0.930 . S
C267 C266 1.394 . S
C267 C268 1.383 . S
C267 H275 0.929 . S
C268 C267 1.383 . S
C268 C269 1.377 1_554 S
C269 H253 0.930 . S
C269 C268 1.377 1_556 S
C269 C270 1.379 . S
C270 H254 0.931 . S
C270 C264 1.383 1_556 S
C270 C269 1.379 . S
H271 C265 0.959 . S
H272 C265 0.961 . S
H273 C265 0.960 . S
H274 C266 0.930 . S
H275 C267 0.929 . S
H276 C284 0.929 . S
H277 C286 0.930 . S
H278 C288 0.930 . S
H279 C291 0.929 . S
H280 C294 0.930 . S
H281 C296 0.960 . S
H282 C296 0.960 . S
H283 C296 0.960 . S
C284 H276 0.929 . S
C284 C285 1.377 . S
C284 C286 1.384 . S
C285 C284 1.377 . S
C285 C291 1.390 1_556 S
C286 H277 0.930 . S
C286 C284 1.384 . S
C286 C287 1.372 . S
C287 C286 1.372 . S
C287 C288 1.400 1_556 S
C287 C292 1.490 . S
C288 H278 0.930 . S
C288 C287 1.400 1_554 S
C288 C291 1.386 . S
H289 C305 0.930 . S
H290 C306 0.931 . S
C291 H279 0.929 . S
C291 C285 1.390 1_554 S
C291 C288 1.386 . S
C292 C287 1.490 . S
C292 C294 1.395 . S
C292 C295 1.403 1_556 S
H293 C299 0.930 . S
C294 H280 0.930 . S
C294 C292 1.395 . S
C294 C297 1.403 . S
C295 C292 1.403 1_554 S
C295 C296 1.524 . S
C295 C299 1.400 . S
C296 H281 0.960 . S
C296 H282 0.960 . S
C296 H283 0.960 . S
C296 C295 1.524 . S
C297 C294 1.403 . S
C297 C298 1.392 . S
C297 C301 1.495 . S
C298 C297 1.392 . S
C298 C299 1.385 1_556 S
C298 C300 1.478 . S
C299 H293 0.930 . S
C299 C295 1.400 . S
C299 C298 1.385 1_554 S
C300 C298 1.478 . S
C300 C302 1.381 . S
C300 C306 1.383 1_556 S
C301 C297 1.495 . S
C301 H307 0.959 . S
C301 H308 0.961 . S
C301 H309 0.960 . S
C302 C300 1.381 . S
C302 C303 1.394 . S
C302 H310 0.930 . S
C303 C302 1.394 . S
C303 C304 1.383 . S
C303 H311 0.929 . S
C304 C303 1.383 . S
C304 C305 1.377 1_556 S
C305 H289 0.930 . S
C305 C304 1.377 1_554 S
C305 C306 1.379 . S
C306 H290 0.931 . S
C306 C300 1.383 1_554 S
C306 C305 1.379 . S
H307 C301 0.959 . S
H308 C301 0.961 . S
H309 C301 0.960 . S
H310 C302 0.930 . S
H311 C303 0.929 . S
H312 C320 0.929 . S
H313 C322 0.930 . S
H314 C324 0.930 . S
H315 C327 0.929 . S
H316 C330 0.930 . S
H317 C332 0.960 . S
H318 C332 0.960 . S
H319 C332 0.960 1_554 S
C320 H312 0.929 . S
C320 C321 1.377 1_556 S
C320 C322 1.384 . S
C321 C320 1.377 1_554 S
C321 C327 1.390 . S
C322 H313 0.930 . S
C322 C320 1.384 . S
C322 C323 1.372 1_556 S
C323 C322 1.372 1_554 S
C323 C324 1.400 . S
C323 C328 1.490 . S
C324 H314 0.930 . S
C324 C323 1.400 . S
C324 C327 1.386 . S
H325 C341 0.930 . S
H326 C342 0.931 . S
C327 H315 0.929 . S
C327 C321 1.390 . S
C327 C324 1.386 . S
C328 C323 1.490 . S
C328 C330 1.395 . S
C328 C331 1.403 1_554 S
H329 C335 0.931 . S
C330 H316 0.930 . S
C330 C328 1.395 . S
C330 C333 1.403 . S
C331 C328 1.403 1_556 S
C331 C332 1.524 . S
C331 C335 1.400 1_556 S
C332 H317 0.960 . S
C332 H318 0.960 . S
C332 H319 0.960 1_556 S
C332 C331 1.524 . S
C333 C330 1.403 . S
C333 C334 1.392 . S
C333 C337 1.495 . S
C334 C333 1.392 . S
C334 C335 1.385 . S
C334 C336 1.478 . S
C335 H329 0.931 . S
C335 C331 1.400 1_554 S
C335 C334 1.385 . S
C336 C334 1.478 . S
C336 C338 1.381 1_554 S
C336 C342 1.383 . S
C337 C333 1.495 . S
C337 H343 0.959 . S
C337 H344 0.961 . S
C337 H345 0.960 1_554 S
C338 C336 1.381 1_556 S
C338 C339 1.394 . S
C338 H346 0.930 . S
C339 C338 1.394 . S
C339 C340 1.383 1_556 S
C339 H347 0.929 . S
C340 C339 1.383 1_554 S
C340 C341 1.377 . S
C341 H325 0.930 . S
C341 C340 1.377 . S
C341 C342 1.379 . S
C342 H326 0.931 . S
C342 C336 1.383 . S
C342 C341 1.379 . S
H343 C337 0.959 . S
H344 C337 0.961 . S
H345 C337 0.960 1_556 S
H346 C338 0.930 . S
H347 C339 0.929 . S
H348 C356 0.929 . S
H349 C358 0.930 . S
H350 C360 0.930 . S
H351 C363 0.929 . S
H352 C366 0.930 . S
H353 C368 0.960 . S
H354 C368 0.960 . S
H355 C368 0.960 . S
C356 H348 0.929 . S
C356 C357 1.377 . S
C356 C358 1.384 . S
C357 C356 1.377 . S
C357 C363 1.390 1_556 S
C358 H349 0.930 . S
C358 C356 1.384 . S
C358 C359 1.372 . S
C359 C358 1.372 . S
C359 C360 1.400 1_556 S
C359 C364 1.490 . S
C360 H350 0.930 . S
C360 C359 1.400 1_554 S
C360 C363 1.386 . S
H361 C377 0.930 . S
H362 C378 0.931 . S
C363 H351 0.929 . S
C363 C357 1.390 1_554 S
C363 C360 1.386 . S
C364 C359 1.490 . S
C364 C366 1.395 1_556 S
C364 C367 1.403 . S
H365 C371 0.930 . S
C366 H352 0.930 . S
C366 C364 1.395 1_554 S
C366 C369 1.403 . S
C367 C364 1.403 . S
C367 C368 1.524 . S
C367 C371 1.400 . S
C368 H353 0.960 . S
C368 H354 0.960 . S
C368 H355 0.960 . S
C368 C367 1.524 . S
C369 C366 1.403 . S
C369 C370 1.392 1_554 S
C369 C373 1.495 . S
C370 C369 1.392 1_556 S
C370 C371 1.385 . S
C370 C372 1.478 . S
C371 H365 0.930 . S
C371 C367 1.400 . S
C371 C370 1.385 . S
C372 C370 1.478 . S
C372 C374 1.381 . S
C372 C378 1.383 1_556 S
C373 C369 1.495 . S
C373 H379 0.959 . S
C373 H380 0.961 . S
C373 H381 0.960 . S
C374 C372 1.381 . S
C374 C375 1.394 . S
C374 H382 0.930 . S
C375 C374 1.394 . S
C375 C376 1.383 . S
C375 H383 0.929 . S
C376 C375 1.383 . S
C376 C377 1.377 1_556 S
C377 H361 0.930 . S
C377 C376 1.377 1_554 S
C377 C378 1.379 . S
C378 H362 0.931 . S
C378 C372 1.383 1_554 S
C378 C377 1.379 . S
H379 C373 0.959 . S
H380 C373 0.961 . S
H381 C373 0.960 . S
H382 C374 0.930 . S
H383 C375 0.929 . S
H384 C392 0.929 . S
H385 C394 0.930 . S
H386 C396 0.930 . S
H387 C399 0.929 . S
H388 C402 0.930 . S
H389 C404 0.960 . S
H390 C404 0.960 1_556 S
H391 C404 0.960 . S
C392 H384 0.929 . S
C392 C393 1.377 1_556 S
C392 C394 1.384 . S
C393 C392 1.377 1_554 S
C393 C399 1.390 . S
C394 H385 0.930 . S
C394 C392 1.384 . S
C394 C395 1.372 1_556 S
C395 C394 1.372 1_554 S
C395 C396 1.400 . S
C395 C400 1.490 . S
C396 H386 0.930 . S
C396 C395 1.400 . S
C396 C399 1.386 . S
H397 C413 0.930 . S
H398 C414 0.931 . S
C399 H387 0.929 . S
C399 C393 1.390 . S
C399 C396 1.386 . S
C400 C395 1.490 . S
C400 C402 1.395 1_554 S
C400 C403 1.403 . S
H401 C407 0.930 . S
C402 H388 0.930 . S
C402 C400 1.395 1_556 S
C402 C405 1.403 . S
C403 C400 1.403 . S
C403 C404 1.524 . S
C403 C407 1.400 . S
C404 H389 0.960 . S
C404 H390 0.960 1_554 S
C404 H391 0.960 . S
C404 C403 1.524 . S
C405 C402 1.403 . S
C405 C406 1.392 1_556 S
C405 C409 1.495 . S
C406 C405 1.392 1_554 S
C406 C407 1.385 . S
C406 C408 1.478 . S
C407 H401 0.930 . S
C407 C403 1.400 . S
C407 C406 1.385 . S
C408 C406 1.478 . S
C408 C410 1.381 1_554 S
C408 C414 1.383 . S
C409 C405 1.495 . S
C409 H415 0.959 . S
C409 H416 0.961 1_556 S
C409 H417 0.960 . S
C410 C408 1.381 1_556 S
C410 C411 1.394 . S
C410 H418 0.930 . S
C411 C410 1.394 . S
C411 C412 1.383 1_556 S
C411 H419 0.929 . S
C412 C411 1.383 1_554 S
C412 C413 1.377 . S
C413 H397 0.930 . S
C413 C412 1.377 . S
C413 C414 1.379 . S
C414 H398 0.931 . S
C414 C408 1.383 . S
C414 C413 1.379 . S
H415 C409 0.959 . S
H416 C409 0.961 1_554 S
H417 C409 0.960 . S
H418 C410 0.930 . S
H419 C411 0.929 . S
C105 N18 1.476 . S
C124 N13 1.473 1_655 S
C141 N45 1.465 . S
C160 N50 1.449 1_565 S
C177 N77 1.477 . S
C196 N82 1.477 . S
C213 C2 1.077 . S
C232 C93 1.078 . S
C249 C61 1.079 . S
C268 C6 1.081 . S
C285 C36 1.079 . S
C304 C70 1.083 . S
C321 C29 1.078 . S
C340 C66 1.060 . S
C357 C4 1.079 . S
C376 C34 1.081 . S
C393 C68 1.078 . S
C412 C38 1.059 . S
