# Generated by pormake.
# Topology umy, (4)-cn, num edge types: 1
# Building blocks:
#     Node 0, Type 0, BuildingBlock: CEKHIL_clean_sbu_0, # of connection points: 4
#     Node 1, Type 0, BuildingBlock: CEKHIL_clean_sbu_0, # of connection points: 4
#     Node 2, Type 0, BuildingBlock: CEKHIL_clean_sbu_0, # of connection points: 4
#     Node 3, Type 0, BuildingBlock: CEKHIL_clean_sbu_0, # of connection points: 4
#     Node 4, Type 0, BuildingBlock: CEKHIL_clean_sbu_0, # of connection points: 4
#     Node 5, Type 0, BuildingBlock: CEKHIL_clean_sbu_0, # of connection points: 4
#     Node 6, Type 0, BuildingBlock: CEKHIL_clean_sbu_0, # of connection points: 4
#     Node 7, Type 0, BuildingBlock: CEKHIL_clean_sbu_0, # of connection points: 4
#     Node 8, Type 0, BuildingBlock: CEKHIL_clean_sbu_0, # of connection points: 4
#     Node 9, Type 0, BuildingBlock: CEKHIL_clean_sbu_0, # of connection points: 4
#     Node 10, Type 0, BuildingBlock: CEKHIL_clean_sbu_0, # of connection points: 4
#     Node 11, Type 0, BuildingBlock: CEKHIL_clean_sbu_0, # of connection points: 4
#     Edge 12, Type (0, 0), BuildingBlock: XUDNAN_clean_linker_2, # of connection points: 2
#     Edge 13, Type (0, 0), BuildingBlock: XUDNAN_clean_linker_2, # of connection points: 2
#     Edge 14, Type (0, 0), BuildingBlock: XUDNAN_clean_linker_2, # of connection points: 2
#     Edge 15, Type (0, 0), BuildingBlock: XUDNAN_clean_linker_2, # of connection points: 2
#     Edge 16, Type (0, 0), BuildingBlock: XUDNAN_clean_linker_2, # of connection points: 2
#     Edge 17, Type (0, 0), BuildingBlock: XUDNAN_clean_linker_2, # of connection points: 2
#     Edge 18, Type (0, 0), BuildingBlock: XUDNAN_clean_linker_2, # of connection points: 2
#     Edge 19, Type (0, 0), BuildingBlock: XUDNAN_clean_linker_2, # of connection points: 2
#     Edge 20, Type (0, 0), BuildingBlock: XUDNAN_clean_linker_2, # of connection points: 2
#     Edge 21, Type (0, 0), BuildingBlock: XUDNAN_clean_linker_2, # of connection points: 2
#     Edge 22, Type (0, 0), BuildingBlock: XUDNAN_clean_linker_2, # of connection points: 2
#     Edge 23, Type (0, 0), BuildingBlock: XUDNAN_clean_linker_2, # of connection points: 2
#     Edge 24, Type (0, 0), BuildingBlock: XUDNAN_clean_linker_2, # of connection points: 2
#     Edge 25, Type (0, 0), BuildingBlock: XUDNAN_clean_linker_2, # of connection points: 2
#     Edge 26, Type (0, 0), BuildingBlock: XUDNAN_clean_linker_2, # of connection points: 2
#     Edge 27, Type (0, 0), BuildingBlock: XUDNAN_clean_linker_2, # of connection points: 2
#     Edge 28, Type (0, 0), BuildingBlock: XUDNAN_clean_linker_2, # of connection points: 2
#     Edge 29, Type (0, 0), BuildingBlock: XUDNAN_clean_linker_2, # of connection points: 2
#     Edge 30, Type (0, 0), BuildingBlock: XUDNAN_clean_linker_2, # of connection points: 2
#     Edge 31, Type (0, 0), BuildingBlock: XUDNAN_clean_linker_2, # of connection points: 2
#     Edge 32, Type (0, 0), BuildingBlock: XUDNAN_clean_linker_2, # of connection points: 2
#     Edge 33, Type (0, 0), BuildingBlock: XUDNAN_clean_linker_2, # of connection points: 2
#     Edge 34, Type (0, 0), BuildingBlock: XUDNAN_clean_linker_2, # of connection points: 2
#     Edge 35, Type (0, 0), BuildingBlock: XUDNAN_clean_linker_2, # of connection points: 2
# Relax obj value: 0.117
# Max RMSD: 0.082
# Mean RMSD: 0.082
data_MOF--net-umy--node1-CEKHIL_clean_sbu_0--edge1-XUDNAN_clean_linker_2
_symmetry_space_group_name_H-M    P1
_symmetry_Int_Tables_number       1
_symmetry_cell_setting            triclinic
loop_
_symmetry_equiv_pos_as_xyz
'x, y, z'
_cell_length_a     37.571886
_cell_length_b     37.589611
_cell_length_c     51.377603
_cell_angle_alpha  90.092813
_cell_angle_beta   90.031184
_cell_angle_gamma 119.97143
loop_
_atom_site_label
_atom_site_type_symbol
_atom_site_fract_x
_atom_site_fract_y
_atom_site_fract_z
_atom_type_partial_charge
Co0 Co 0.05303 0.34195 0.13469 0.0
O1 O 0.03321 0.3622 0.10731 0.0
O2 O 0.08374 0.40202 0.13399 0.0
C3 C 0.99039 0.29703 0.15116 0.0
O4 O 0.07903 0.33072 0.16647 0.0
Co5 Co 0.03081 0.25075 0.13247 0.0
O6 O 0.04656 0.26172 0.16967 0.0
C7 C 0.09712 0.31004 0.09893 0.0
C8 C 0.05908 0.399 0.11521 0.0
C9 C 0.06927 0.29747 0.17918 0.0
O10 O 0.09402 0.33909 0.11019 0.0
O11 O 0.07255 0.27198 0.10365 0.0
O12 O 0.00842 0.33575 0.15696 0.0
O13 O 0.00839 0.28737 0.13323 0.0
Co14 Co 0.71379 0.06028 0.30969 0.0
O15 O 0.66981 0.04501 0.28481 0.0
O16 O 0.69317 0.09839 0.31139 0.0
C17 C 0.69089 0.99667 0.32601 0.0
O18 O 0.75615 0.08383 0.33933 0.0
Co19 Co 0.77388 0.02681 0.30416 0.0
O20 O 0.7865 0.04526 0.34087 0.0
C21 C 0.78461 0.09392 0.26989 0.0
C22 C 0.66693 0.07589 0.29353 0.0
C23 C 0.77868 0.07165 0.35086 0.0
O24 O 0.75629 0.09608 0.28281 0.0
O25 O 0.79441 0.06637 0.27421 0.0
O26 O 0.67522 0.01882 0.3337 0.0
O27 O 0.71649 0.01166 0.30681 0.0
Co28 Co 0.64497 0.70027 0.46781 0.0
O29 O 0.62056 0.65821 0.44114 0.0
O30 O 0.58619 0.67739 0.46719 0.0
C31 C 0.6874 0.68009 0.48522 0.0
O32 O 0.65725 0.73941 0.49828 0.0
Co33 Co 0.73716 0.76607 0.46867 0.0
O34 O 0.7252 0.78031 0.50363 0.0
C35 C 0.68235 0.77572 0.43203 0.0
C36 C 0.58545 0.65376 0.44849 0.0
C37 C 0.68832 0.76693 0.51107 0.0
O38 O 0.65152 0.74419 0.44238 0.0
O39 O 0.71964 0.78771 0.43838 0.0
O40 O 0.64861 0.6613 0.4912 0.0
O41 O 0.69839 0.7074 0.46705 0.0
Co42 Co 0.96225 0.66526 0.62317 0.0
O43 O 0.98485 0.6472 0.59585 0.0
O44 O 0.93677 0.60561 0.62321 0.0
C45 C 0.023 0.71703 0.63861 0.0
O46 O 0.93273 0.67228 0.6544 0.0
Co47 Co 0.97368 0.75317 0.62289 0.0
O48 O 0.95112 0.73885 0.65873 0.0
C49 C 0.91245 0.69 0.58777 0.0
C50 C 0.96069 0.60988 0.60374 0.0
C51 C 0.93267 0.70195 0.667 0.0
O52 O 0.91825 0.66233 0.59866 0.0
O53 O 0.93414 0.72832 0.59312 0.0
O54 O 0.01009 0.6793 0.6456 0.0
O55 O 1.00116 0.72141 0.62088 0.0
Co56 Co 0.29677 0.95423 0.79545 0.0
O57 O 0.3399 0.9815 0.77021 0.0
O58 O 0.32568 0.92388 0.79019 0.0
C59 C 0.3129 0.01174 0.81888 0.0
O60 O 0.25697 0.91874 0.82388 0.0
Co61 Co 0.22764 0.97602 0.80112 0.0
O62 O 0.21525 0.94368 0.83365 0.0
C63 C 0.22551 0.92469 0.75695 0.0
C64 C 0.34957 0.95337 0.77453 0.0
C65 C 0.2292 0.91957 0.83817 0.0
O66 O 0.25519 0.92144 0.76709 0.0
O67 O 0.21295 0.94812 0.76623 0.0
O68 O 0.33287 0.99219 0.8222 0.0
O69 O 0.28645 0.99826 0.80008 0.0
Co70 Co 0.35752 0.30361 0.96701 0.0
O71 O 0.38212 0.34747 0.94141 0.0
O72 O 0.41622 0.3264 0.96617 0.0
C73 C 0.31534 0.3226 0.98627 0.0
O74 O 0.34571 0.26305 0.99632 0.0
Co75 Co 0.26543 0.23755 0.96778 0.0
O76 O 0.27795 0.22187 1.00207 0.0
C77 C 0.31976 0.22888 0.93016 0.0
C78 C 0.41719 0.35142 0.94846 0.0
C79 C 0.31504 0.23508 0.00903 0.0
O80 O 0.35066 0.26081 0.94029 0.0
O81 O 0.2826 0.21623 0.9371 0.0
O82 O 0.35429 0.34123 0.99181 0.0
O83 O 0.3039 0.29639 0.9673 0.0
Co84 Co 0.65994 0.95568 0.70966 0.0
O85 O 0.6423 0.98036 0.73574 0.0
O86 O 0.60028 0.92555 0.71265 0.0
C87 C 0.70359 0.01554 0.68938 0.0
O88 O 0.66627 0.92316 0.67996 0.0
Co89 Co 0.75003 0.97563 0.70657 0.0
O90 O 0.73338 0.94746 0.67235 0.0
C91 C 0.69545 0.91556 0.74552 0.0
C92 C 0.60485 0.95327 0.7296 0.0
C93 C 0.69569 0.92448 0.66632 0.0
O94 O 0.66515 0.91867 0.73631 0.0
O95 O 0.73246 0.93788 0.73755 0.0
O96 O 0.66444 0.99664 0.68471 0.0
O97 O 0.71496 0.99983 0.70781 0.0
Co98 Co 0.7175 0.65568 0.8688 0.0
O99 O 0.67326 0.63055 0.89417 0.0
O100 O 0.69378 0.59688 0.86863 0.0
C101 C 0.69889 0.6989 0.85072 0.0
O102 O 0.75827 0.66791 0.83938 0.0
Co103 Co 0.78432 0.74716 0.86883 0.0
O104 O 0.79945 0.73567 0.83403 0.0
C105 C 0.79135 0.69162 0.90627 0.0
C106 C 0.66855 0.5955 0.88635 0.0
C107 C 0.78616 0.69874 0.82673 0.0
O108 O 0.75967 0.66113 0.8956 0.0
O109 O 0.8045 0.72897 0.89961 0.0
O110 O 0.68033 0.66028 0.84434 0.0
O111 O 0.72525 0.70953 0.86955 0.0
Co112 Co 0.06065 0.7055 0.04114 0.0
O113 O 0.03627 0.66416 0.06772 0.0
O114 O 0.08998 0.67511 0.04412 0.0
C115 C 1.0008 0.69056 0.02119 0.0
O116 O 0.09231 0.7432 0.01086 0.0
Co117 Co 0.04202 0.77689 0.03902 0.0
O118 O 0.06694 0.78535 0.00395 0.0
C119 C 0.10286 0.78131 0.07698 0.0
C120 C 0.06285 0.6531 0.0616 0.0
C121 C 0.08941 0.77036 0.99718 0.0
O122 O 0.09921 0.74798 0.06725 0.0
O123 O 0.08045 0.79633 0.06975 0.0
O124 O 0.01833 0.66894 0.01672 0.0
O125 O 0.01739 0.71766 0.03956 0.0
Co126 Co 0.35879 0.0562 0.20655 0.0
O127 O 0.38326 0.03794 0.23292 0.0
O128 O 0.41737 0.09301 0.20823 0.0
C129 C 0.31808 0.99436 0.18752 0.0
O130 O 0.34709 0.08428 0.17651 0.0
Co131 Co 0.26618 0.02818 0.20324 0.0
O132 O 0.27947 0.05447 0.16854 0.0
C133 C 0.31857 0.09363 0.24042 0.0
C134 C 0.41827 0.06947 0.22634 0.0
C135 C 0.3166 0.07975 0.16258 0.0
O136 O 0.3501 0.09138 0.2329 0.0
O137 O 0.28227 0.07046 0.23155 0.0
O138 O 0.35709 0.01535 0.18226 0.0
O139 O 0.30565 0.0092 0.20585 0.0
Co140 Co 0.29057 0.34554 0.36885 0.0
O141 O 0.33958 0.37612 0.3896 0.0
O142 O 0.30985 0.40383 0.36657 0.0
C143 C 0.31004 0.30372 0.34966 0.0
O144 O 0.2419 0.325 0.34402 0.0
Co145 Co 0.23326 0.25198 0.37695 0.0
O146 O 0.20364 0.25612 0.34613 0.0
C147 C 0.23124 0.30993 0.41464 0.0
C148 C 0.33967 0.40902 0.38188 0.0
C149 C 0.21163 0.29049 0.33636 0.0
O150 O 0.25421 0.3403 0.39961 0.0
O151 O 0.22311 0.27308 0.41037 0.0
O152 O 0.32282 0.34037 0.34059 0.0
O153 O 0.28933 0.29494 0.37101 0.0
Co154 Co 0.95815 0.29772 0.54076 0.0
O155 O 0.97909 0.34666 0.56195 0.0
O156 O 0.9259 0.32466 0.53538 0.0
C157 C 0.02035 0.31081 0.52537 0.0
O158 O 0.92909 0.25003 0.5149 0.0
Co159 Co 0.98452 0.2328 0.55265 0.0
O160 O 0.95519 0.20793 0.51963 0.0
C161 C 0.91995 0.23415 0.58467 0.0
C162 C 0.95093 0.35251 0.55166 0.0
C163 C 0.93168 0.21834 0.50812 0.0
O164 O 0.92017 0.26206 0.56984 0.0
O165 O 0.94577 0.22155 0.5823 0.0
O166 O 1.00137 0.32802 0.51473 0.0
O167 O 1.00319 0.28986 0.54605 0.0
H168 H 0.1212 0.63167 0.07639 0.0
H169 H 0.99033 0.58374 0.06628 0.0
H170 H 0.97677 0.5146 0.0778 0.0
H171 H 0.12567 0.54372 0.05286 0.0
H172 H 0.16114 0.54577 0.07727 0.0
H173 H 0.16177 0.59213 0.06757 0.0
H174 H 0.15155 0.60643 0.11549 0.0
H175 H 0.15115 0.56024 0.12536 0.0
H176 H 0.10869 0.56765 0.13366 0.0
H177 H 0.97674 0.45073 0.08692 0.0
H178 H 0.98871 0.39487 0.10008 0.0
H179 H 0.11875 0.48202 0.10997 0.0
C180 C 0.08979 0.60651 0.07675 0.0
C181 C 0.05672 0.61294 0.07037 0.0
C182 C 0.016 0.57952 0.07126 0.0
C183 C 0.008 0.54007 0.07762 0.0
C184 C 0.04098 0.53452 0.0837 0.0
C185 C 0.08101 0.56673 0.08398 0.0
C186 C 0.11015 0.55186 0.09272 0.0
C187 C 0.14154 0.55879 0.07132 0.0
C188 C 0.13166 0.5728 0.11833 0.0
C189 C 0.08017 0.50626 0.09675 0.0
C190 C 0.04059 0.49723 0.09096 0.0
C191 C 0.00748 0.4574 0.09185 0.0
C192 C 0.01471 0.42581 0.09921 0.0
C193 C 0.0546 0.43401 0.10614 0.0
C194 C 0.08789 0.47491 0.10497 0.0
H195 H 0.59032 0.01935 0.2761 0.0
H196 H 0.66873 0.14953 0.29103 0.0
H197 H 0.61328 0.16206 0.27593 0.0
H198 H 0.53941 0.02684 0.21901 0.0
H199 H 0.48999 0.98411 0.22765 0.0
H200 H 0.53626 0.9858 0.2388 0.0
H201 H 0.51096 0.97831 0.28644 0.0
H202 H 0.46465 0.97673 0.27544 0.0
H203 H 0.49698 0.01432 0.29927 0.0
H204 H 0.5504 0.16048 0.25663 0.0
H205 H 0.48297 0.14448 0.23841 0.0
H206 H 0.44288 0.01456 0.24042 0.0
C207 C 0.59587 0.05052 0.27603 0.0
C208 C 0.63398 0.08362 0.28441 0.0
C209 C 0.63982 0.12384 0.28458 0.0
C210 C 0.60852 0.1312 0.27601 0.0
C211 C 0.57124 0.09787 0.2679 0.0
C212 C 0.56459 0.05824 0.2682 0.0
C213 C 0.52122 0.02764 0.25947 0.0
C214 C 0.52177 0.00476 0.23476 0.0
C215 C 0.49703 0.99747 0.28147 0.0
C216 C 0.50461 0.05624 0.25385 0.0
C217 C 0.53415 0.09669 0.25854 0.0
C218 C 0.52689 0.12889 0.25328 0.0
C219 C 0.48856 0.11955 0.24292 0.0
C220 C 0.45763 0.07833 0.23845 0.0
C221 C 0.4657 0.04629 0.24423 0.0
H222 H 0.5632 0.57565 0.43293 0.0
H223 H 0.51893 0.66205 0.43814 0.0
H224 H 0.452 0.60986 0.41967 0.0
H225 H 0.50975 0.52289 0.37366 0.0
H226 H 0.49781 0.47298 0.38543 0.0
H227 H 0.54325 0.51824 0.39683 0.0
H228 H 0.51902 0.49813 0.44448 0.0
H229 H 0.4735 0.45289 0.43322 0.0
H230 H 0.46901 0.48921 0.45392 0.0
H231 H 0.39 0.54807 0.40012 0.0
H232 H 0.33553 0.47955 0.38514 0.0
H233 H 0.41807 0.43163 0.39682 0.0
C234 C 0.53955 0.58365 0.42978 0.0
C235 C 0.54623 0.62296 0.43652 0.0
C236 C 0.51433 0.63211 0.43289 0.0
C237 C 0.47633 0.60273 0.42237 0.0
C238 C 0.47047 0.56405 0.4161 0.0
C239 C 0.50102 0.55428 0.41999 0.0
C240 C 0.48581 0.50958 0.41353 0.0
C241 C 0.51063 0.50571 0.39102 0.0
C242 C 0.4869 0.48608 0.43773 0.0
C243 C 0.44205 0.4958 0.4053 0.0
C244 C 0.43399 0.52782 0.40651 0.0
C245 C 0.3959 0.5227 0.39926 0.0
C246 C 0.36519 0.48376 0.39074 0.0
C247 C 0.3725 0.4503 0.39006 0.0
C248 C 0.41148 0.45657 0.39743 0.0
H249 H 0.91239 0.52657 0.61444 0.0
H250 H 0.01207 0.61319 0.56529 0.0
H251 H 0.01723 0.55627 0.54554 0.0
H252 H 0.95255 0.46003 0.62675 0.0
H253 H 0.90368 0.41315 0.62532 0.0
H254 H 0.90607 0.46036 0.63499 0.0
H255 H 0.85446 0.451 0.59854 0.0
H256 H 0.85192 0.40371 0.58873 0.0
H257 H 0.86557 0.44422 0.56537 0.0
H258 H 0.01487 0.49145 0.53263 0.0
H259 H 1.00415 0.42148 0.52687 0.0
H260 H 0.90512 0.37469 0.5831 0.0
C261 C 0.93505 0.53347 0.59937 0.0
C262 C 0.96181 0.57454 0.59143 0.0
C263 C 0.99113 0.58216 0.57171 0.0
C264 C 0.99432 0.54996 0.56032 0.0
C265 C 0.96778 0.51001 0.56864 0.0
C266 C 0.93854 0.50145 0.5876 0.0
C267 C 0.91444 0.45557 0.59318 0.0
C268 C 0.91951 0.44678 0.62176 0.0
C269 C 0.86889 0.43757 0.58603 0.0
C270 C 0.93541 0.43994 0.57483 0.0
C271 C 0.96594 0.47204 0.56079 0.0
C272 C 0.99073 0.46601 0.54326 0.0
C273 C 0.98442 0.42622 0.54008 0.0
C274 C 0.95349 0.39287 0.55419 0.0
C275 C 0.92847 0.39969 0.57173 0.0
H276 H 0.52303 0.89437 0.73852 0.0
H277 H 0.60866 0.02566 0.73859 0.0
H278 H 0.55204 0.03874 0.74797 0.0
H279 H 0.43641 0.89627 0.71042 0.0
H280 H 0.39849 0.85723 0.73127 0.0
H281 H 0.44531 0.85712 0.72389 0.0
H282 H 0.46104 0.85861 0.77307 0.0
H283 H 0.41403 0.85826 0.78061 0.0
H284 H 0.46223 0.89839 0.79335 0.0
H285 H 0.48693 0.03867 0.75369 0.0
H286 H 0.41753 0.02567 0.76383 0.0
H287 H 0.37262 0.89451 0.76568 0.0
C288 C 0.52969 0.92576 0.74072 0.0
C289 C 0.57027 0.95905 0.73777 0.0
C290 C 0.57795 0.99971 0.74096 0.0
C291 C 0.54592 0.0075 0.74608 0.0
C292 C 0.50631 0.97428 0.74858 0.0
C293 C 0.49802 0.93417 0.74673 0.0
C294 C 0.45268 0.90441 0.75185 0.0
C295 C 0.43201 0.87714 0.72793 0.0
C296 C 0.44718 0.87838 0.77617 0.0
C297 C 0.43698 0.93421 0.75647 0.0
C298 C 0.46854 0.97428 0.75392 0.0
C299 C 0.462 0.00746 0.75609 0.0
C300 C 0.42232 0.9997 0.76166 0.0
C301 C 0.38964 0.95912 0.7656 0.0
C302 C 0.39707 0.92585 0.76286 0.0
H303 H 0.44358 0.43298 0.93915 0.0
H304 H 0.48047 0.34085 0.93369 0.0
H305 H 0.54861 0.3933 0.91728 0.0
H306 H 0.49843 0.49376 0.88283 0.0
H307 H 0.51375 0.5423 0.89844 0.0
H308 H 0.467 0.49707 0.90816 0.0
H309 H 0.49279 0.5086 0.95586 0.0
H310 H 0.53976 0.5537 0.94626 0.0
H311 H 0.54164 0.51273 0.96321 0.0
H312 H 0.61194 0.45502 0.90071 0.0
H313 H 0.66815 0.52301 0.88713 0.0
H314 H 0.59342 0.5774 0.90688 0.0
C315 C 0.46591 0.42391 0.93409 0.0
C316 C 0.45674 0.38282 0.93722 0.0
C317 C 0.48695 0.37214 0.9312 0.0
C318 C 0.52567 0.4017 0.92189 0.0
C319 C 0.53407 0.44208 0.91929 0.0
C320 C 0.50528 0.4534 0.92544 0.0
C321 C 0.52319 0.49942 0.92223 0.0
C322 C 0.49916 0.50867 0.90169 0.0
C323 C 0.52441 0.51981 0.94845 0.0
C324 C 0.56623 0.512 0.91286 0.0
C325 C 0.57166 0.47831 0.91117 0.0
C326 C 0.60819 0.48169 0.90217 0.0
C327 C 0.63995 0.52044 0.8945 0.0
C328 C 0.63535 0.55554 0.8962 0.0
C329 C 0.59807 0.55123 0.90577 0.0
H330 H 0.10755 0.25989 0.06406 0.0
H331 H 0.1668 0.38511 0.09324 0.0
H332 H 0.22759 0.40236 0.06625 0.0
H333 H 0.19613 0.24944 0.06247 0.0
H334 H 0.1827 0.22017 0.03267 0.0
H335 H 0.14292 0.21781 0.05337 0.0
H336 H 0.11392 0.23999 0.01484 0.0
H337 H 0.15353 0.24223 0.99397 0.0
H338 H 0.14734 0.28657 0.99745 0.0
H339 H 0.28457 0.4044 0.03939 0.0
H340 H 0.33136 0.39264 0.01152 0.0
H341 H 0.23401 0.26773 0.99712 0.0
C342 C 0.13311 0.29108 0.0646 0.0
C343 C 0.13223 0.32111 0.0809 0.0
C344 C 0.16645 0.36154 0.0809 0.0
C345 C 0.20126 0.37164 0.06567 0.0
C346 C 0.20132 0.34119 0.05017 0.0
C347 C 0.16794 0.30187 0.04921 0.0
C348 C 0.17608 0.27483 0.03101 0.0
C349 C 0.17436 0.23842 0.04577 0.0
C350 C 0.14592 0.26004 0.00795 0.0
C351 C 0.2195 0.30491 0.02221 0.0
C352 C 0.23356 0.34294 0.03368 0.0
C353 C 0.27364 0.37497 0.02997 0.0
C354 C 0.30003 0.36798 0.01417 0.0
C355 C 0.28617 0.32952 1.00189 0.0
C356 C 0.24521 0.29772 0.00582 0.0
H357 H 0.84691 0.10044 0.23799 0.0
H358 H 0.7764 0.16013 0.25645 0.0
H359 H 0.81806 0.21519 0.2253 0.0
H360 H 0.94364 0.19102 0.23291 0.0
H361 H 0.96156 0.17311 0.20615 0.0
H362 H 0.92455 0.13683 0.22863 0.0
H363 H 0.8752 0.09846 0.19027 0.0
H364 H 0.91212 0.1348 0.16769 0.0
H365 H 0.86049 0.12637 0.16839 0.0
H366 H 0.87098 0.26691 0.19558 0.0
H367 H 0.93061 0.31115 0.16803 0.0
H368 H 0.96528 0.21709 0.16633 0.0
C369 C 0.8398 0.12478 0.23529 0.0
C370 C 0.80814 0.12573 0.24981 0.0
C371 C 0.80027 0.15844 0.24566 0.0
C372 C 0.82379 0.18993 0.22794 0.0
C373 C 0.85494 0.18824 0.21425 0.0
C374 C 0.86287 0.15642 0.21754 0.0
C375 C 0.89921 0.16288 0.20103 0.0
C376 C 0.93431 0.16616 0.21821 0.0
C377 C 0.88595 0.12858 0.18063 0.0
C378 C 0.9109 0.20369 0.1883 0.0
C379 C 0.88488 0.21768 0.19629 0.0
C380 C 0.89109 0.25596 0.18885 0.0
C381 C 0.92508 0.28087 0.17321 0.0
C382 C 0.95228 0.26739 0.1648 0.0
C383 C 0.94458 0.22789 0.17203 0.0
H384 H 0.73716 0.83693 0.39932 0.0
H385 H 0.6092 0.77312 0.42325 0.0
H386 H 0.59679 0.82012 0.39642 0.0
H387 H 0.75183 0.93696 0.40008 0.0
H388 H 0.78397 0.95447 0.37158 0.0
H389 H 0.78254 0.91422 0.39127 0.0
H390 H 0.76227 0.86669 0.35081 0.0
H391 H 0.7638 0.90695 0.33099 0.0
H392 H 0.71794 0.85719 0.33188 0.0
H393 H 0.60016 0.8791 0.37177 0.0
H394 H 0.61753 0.94206 0.34706 0.0
H395 H 0.74132 0.96436 0.33549 0.0
C396 C 0.70637 0.8324 0.39862 0.0
C397 C 0.67418 0.80121 0.4135 0.0
C398 C 0.63437 0.79651 0.412 0.0
C399 C 0.627 0.82318 0.39684 0.0
C400 C 0.65953 0.85404 0.38288 0.0
C401 C 0.69828 0.8584 0.38324 0.0
C402 C 0.72802 0.89472 0.36679 0.0
C403 C 0.76368 0.92698 0.38343 0.0
C404 C 0.74394 0.88053 0.34374 0.0
C405 C 0.70012 0.9106 0.35764 0.0
C406 C 0.66083 0.88683 0.36735 0.0
C407 C 0.63055 0.8974 0.36358 0.0
C408 C 0.64071 0.93325 0.3496 0.0
C409 C 0.68054 0.95771 0.33913 0.0
C410 C 0.71042 0.94584 0.34287 0.0
H411 H 0.77005 0.73238 0.49242 0.0
H412 H 0.67134 0.60971 0.5103 0.0
H413 H 0.72002 0.59621 0.53489 0.0
H414 H 0.85333 0.70892 0.48688 0.0
H415 H 0.89016 0.75577 0.50286 0.0
H416 H 0.84858 0.75421 0.48443 0.0
H417 H 0.82606 0.77942 0.52482 0.0
H418 H 0.86766 0.78128 0.5433 0.0
H419 H 0.81565 0.75145 0.55495 0.0
H420 H 0.77956 0.59692 0.55871 0.0
H421 H 0.84263 0.61427 0.58358 0.0
H422 H 0.90117 0.73783 0.55215 0.0
C423 C 0.75887 0.70247 0.50116 0.0
C424 C 0.71704 0.67188 0.4992 0.0
C425 C 0.70333 0.63349 0.51148 0.0
C426 C 0.73079 0.62549 0.52537 0.0
C427 C 0.77184 0.65638 0.52709 0.0
C428 C 0.78571 0.69428 0.51555 0.0
C429 C 0.83038 0.72345 0.52224 0.0
C430 C 0.85719 0.73634 0.49763 0.0
C431 C 0.8352 0.76111 0.53722 0.0
C432 C 0.8394 0.6962 0.5395 0.0
C433 C 0.8055 0.65739 0.5417 0.0
C434 C 0.80633 0.6272 0.55705 0.0
C435 C 0.8424 0.63726 0.57102 0.0
C436 C 0.87694 0.6774 0.56989 0.0
C437 C 0.87539 0.70685 0.55348 0.0
H438 H 0.06864 0.71861 0.68152 0.0
H439 H 0.05556 0.79729 0.62518 0.0
H440 H 0.11061 0.85827 0.64716 0.0
H441 H 0.08482 0.78227 0.73637 0.0
H442 H 0.12217 0.77247 0.7518 0.0
H443 H 0.08388 0.7345 0.73055 0.0
H444 H 0.14117 0.73435 0.70263 0.0
H445 H 0.17969 0.77249 0.72377 0.0
H446 H 0.18122 0.78194 0.68929 0.0
H447 H 0.16221 0.91086 0.67691 0.0
H448 H 0.20777 0.9521 0.71294 0.0
H449 H 0.19084 0.84112 0.74988 0.0
C450 C 0.07781 0.74866 0.67362 0.0
C451 C 0.05778 0.75308 0.65151 0.0
C452 C 0.07037 0.793 0.64201 0.0
C453 C 0.10176 0.82791 0.65433 0.0
C454 C 0.12063 0.82261 0.67614 0.0
C455 C 0.10932 0.78407 0.68574 0.0
C456 C 0.13339 0.78738 0.71032 0.0
C457 C 0.10433 0.76801 0.73364 0.0
C458 C 0.16048 0.76788 0.70625 0.0
C459 C 0.15936 0.83376 0.71324 0.0
C460 C 0.15148 0.85335 0.69318 0.0
C461 C 0.16921 0.89593 0.69246 0.0
C462 C 0.19507 0.91911 0.71297 0.0
C463 C 0.20348 0.89987 0.73382 0.0
C464 C 0.18593 0.85665 0.73372 0.0
H465 H 0.26023 0.03986 0.83265 0.0
H466 H 0.38571 0.06557 0.8413 0.0
H467 H 0.40217 0.12681 0.86779 0.0
H468 H 0.28149 0.14564 0.83036 0.0
H469 H 0.23754 0.13558 0.84982 0.0
H470 H 0.23614 0.09547 0.82982 0.0
H471 H 0.21813 0.04835 0.87019 0.0
H472 H 0.21923 0.08821 0.89026 0.0
H473 H 0.25104 0.06646 0.89842 0.0
H474 H 0.4053 0.18533 0.89321 0.0
H475 H 0.39313 0.23249 0.9202 0.0
H476 H 0.2643 0.16662 0.89801 0.0
C477 C 0.29123 0.0587 0.83992 0.0
C478 C 0.32187 0.04828 0.83471 0.0
C479 C 0.36184 0.07307 0.84503 0.0
C480 C 0.37153 0.10804 0.85998 0.0
C481 C 0.34073 0.11754 0.86483 0.0
C482 C 0.30122 0.0933 0.85546 0.0
C483 C 0.27319 0.10873 0.86523 0.0
C484 C 0.25609 0.12215 0.84245 0.0
C485 C 0.23834 0.07599 0.88202 0.0
C486 C 0.30313 0.14535 0.88152 0.0
C487 C 0.34206 0.15022 0.88065 0.0
C488 C 0.37492 0.18179 0.89409 0.0
C489 C 0.3677 0.20859 0.90931 0.0
C490 C 0.32775 0.20343 0.91136 0.0
C491 C 0.29522 0.17154 0.89693 0.0
H492 H 0.75253 0.77982 0.83839 0.0
H493 H 0.62522 0.68366 0.83163 0.0
H494 H 0.60934 0.73099 0.80759 0.0
H495 H 0.73579 0.86766 0.8439 0.0
H496 H 0.77912 0.90031 0.82365 0.0
H497 H 0.77974 0.86045 0.84276 0.0
H498 H 0.79353 0.83016 0.80118 0.0
H499 H 0.79314 0.86999 0.78199 0.0
H500 H 0.75907 0.81682 0.77383 0.0
H501 H 0.60743 0.78827 0.78358 0.0
H502 H 0.62086 0.84827 0.75697 0.0
H503 H 0.7506 0.90604 0.77619 0.0
C504 C 0.72123 0.76907 0.83221 0.0
C505 C 0.6899 0.72829 0.83718 0.0
C506 C 0.64955 0.71487 0.82813 0.0
C507 C 0.64022 0.74159 0.81457 0.0
C508 C 0.67176 0.78154 0.80979 0.0
C509 C 0.71159 0.79511 0.818 0.0
C510 C 0.74043 0.83825 0.80817 0.0
C511 C 0.75991 0.86845 0.83099 0.0
C512 C 0.77349 0.83882 0.79023 0.0
C513 C 0.71064 0.84669 0.7931 0.0
C514 C 0.67107 0.81385 0.7947 0.0
C515 C 0.6383 0.8142 0.7822 0.0
C516 C 0.64624 0.84859 0.76719 0.0
C517 C 0.68678 0.88207 0.76438 0.0
C518 C 0.71922 0.8811 0.7779 0.0
H519 H 0.85583 0.74693 0.93724 0.0
H520 H 0.78217 0.61681 0.91943 0.0
H521 H 0.82564 0.6027 0.94865 0.0
H522 H 0.95219 0.7518 0.93919 0.0
H523 H 0.97236 0.78732 0.96607 0.0
H524 H 0.93414 0.78745 0.94498 0.0
H525 H 0.88739 0.77669 0.98469 0.0
H526 H 0.92559 0.77674 0.00596 0.0
H527 H 0.87377 0.73394 0.0062 0.0
H528 H 0.88084 0.60313 0.97604 0.0
H529 H 0.94119 0.61744 1.00274 0.0
H530 H 0.97746 0.74649 0.00563 0.0
C531 C 0.84844 0.71537 0.93972 0.0
C532 C 0.81536 0.68299 0.92589 0.0
C533 C 0.80704 0.6422 0.92976 0.0
C534 C 0.83167 0.63383 0.94633 0.0
C535 C 0.86433 0.66646 0.95925 0.0
C536 C 0.8725 0.70637 0.95645 0.0
C537 C 0.91007 0.73583 0.97229 0.0
C538 C 0.9442 0.76746 0.95457 0.0
C539 C 0.8985 0.75705 0.99355 0.0
C540 C 0.92216 0.7063 0.98402 0.0
C541 C 0.89537 0.66647 0.97608 0.0
C542 C 0.90156 0.63407 0.98275 0.0
C543 C 0.936 0.64252 0.99786 0.0
C544 C 0.96364 0.68291 0.00654 0.0
C545 C 0.95634 0.71517 0.99974 0.0
H546 H 0.23713 0.96682 0.17526 0.0
H547 H 0.33527 0.93919 0.16481 0.0
H548 H 0.28887 0.87818 0.13844 0.0
H549 H 0.15103 0.86184 0.17744 0.0
H550 H 0.1177 0.87347 0.15855 0.0
H551 H 0.15726 0.91259 0.17865 0.0
H552 H 0.18675 0.96038 0.1386 0.0
H553 H 0.14718 0.92152 0.11843 0.0
H554 H 0.20046 0.94219 0.10995 0.0
H555 H 0.23177 0.82037 0.11289 0.0
H556 H 0.17146 0.775 0.08591 0.0
H557 H 0.11203 0.84338 0.11001 0.0
C558 C 0.24862 0.94757 0.16771 0.0
C559 C 0.28963 0.95734 0.17235 0.0
C560 C 0.30389 0.93206 0.16158 0.0
C561 C 0.27771 0.89728 0.14669 0.0
C562 C 0.23749 0.88855 0.14232 0.0
C563 C 0.22317 0.91331 0.1522 0.0
C564 C 0.17983 0.89918 0.14276 0.0
C565 C 0.14968 0.88598 0.16572 0.0
C566 C 0.17849 0.93281 0.12647 0.0
C567 C 0.17199 0.86262 0.12605 0.0
C568 C 0.20539 0.85661 0.12643 0.0
C569 C 0.20546 0.82482 0.11244 0.0
C570 C 0.1709 0.79904 0.09724 0.0
C571 C 0.13685 0.80548 0.09574 0.0
C572 C 0.13746 0.83752 0.11067 0.0
H573 H 0.29118 0.14832 0.23719 0.0
H574 H 0.3593 0.11029 0.28689 0.0
H575 H 0.36568 0.16102 0.32023 0.0
H576 H 0.35346 0.25763 0.25303 0.0
H577 H 0.31047 0.26629 0.25118 0.0
H578 H 0.311 0.22676 0.23158 0.0
H579 H 0.24097 0.17301 0.25113 0.0
H580 H 0.24029 0.21233 0.27083 0.0
H581 H 0.2356 0.16695 0.28596 0.0
H582 H 0.35839 0.21124 0.34962 0.0
H583 H 0.34624 0.26361 0.37067 0.0
H584 H 0.29032 0.27487 0.29975 0.0
C585 C 0.3075 0.15084 0.25511 0.0
C586 C 0.32439 0.12523 0.25975 0.0
C587 C 0.34614 0.12967 0.28312 0.0
C588 C 0.34978 0.15828 0.30211 0.0
C589 C 0.33247 0.18291 0.29705 0.0
C590 C 0.31252 0.18009 0.27388 0.0
C591 C 0.29792 0.21111 0.27285 0.0
C592 C 0.31951 0.2423 0.25086 0.0
C593 C 0.25091 0.18955 0.27004 0.0
C594 C 0.3118 0.23115 0.29935 0.0
C595 C 0.33124 0.21408 0.31313 0.0
C596 C 0.34404 0.22541 0.3388 0.0
C597 C 0.33696 0.25503 0.35061 0.0
C598 C 0.31821 0.27363 0.33658 0.0
C599 C 0.3057 0.26174 0.3106 0.0
H600 H 0.18671 0.34965 0.41502 0.0
H601 H 0.2253 0.28095 0.46366 0.0
H602 H 0.17978 0.27949 0.49883 0.0
H603 H 0.17099 0.40884 0.46825 0.0
H604 H 0.12566 0.40413 0.45292 0.0
H605 H 0.16629 0.40595 0.43328 0.0
H606 H 0.11397 0.33728 0.41144 0.0
H607 H 0.07332 0.33496 0.43119 0.0
H608 H 0.08347 0.29289 0.43146 0.0
H609 H 0.12517 0.27855 0.52661 0.0
H610 H 0.06519 0.2788 0.54576 0.0
H611 H 0.05898 0.34599 0.47891 0.0
C612 C 0.18668 0.33578 0.43349 0.0
C613 C 0.21019 0.31624 0.43696 0.0
C614 C 0.20803 0.29667 0.46088 0.0
C615 C 0.18223 0.29565 0.48091 0.0
C616 C 0.1584 0.31399 0.47665 0.0
C617 C 0.1604 0.33385 0.4536 0.0
C618 C 0.12841 0.34733 0.45311 0.0
C619 C 0.14908 0.39436 0.45182 0.0
C620 C 0.098 0.32688 0.43046 0.0
C621 C 0.10766 0.33122 0.47922 0.0
C622 C 0.12581 0.31249 0.49254 0.0
C623 C 0.11102 0.29358 0.51652 0.0
C624 C 0.07679 0.29375 0.52719 0.0
C625 C 0.05741 0.31251 0.51391 0.0
C626 C 0.07333 0.33171 0.48965 0.0
H627 H 0.91393 0.17972 0.62244 0.0
H628 H 0.84753 0.23557 0.58878 0.0
H629 H 0.78634 0.18856 0.61454 0.0
H630 H 0.83407 0.07917 0.62024 0.0
H631 H 0.84586 0.06342 0.65063 0.0
H632 H 0.88608 0.10473 0.63237 0.0
H633 H 0.90501 0.15299 0.67232 0.0
H634 H 0.86515 0.11163 0.69088 0.0
H635 H 0.8658 0.15973 0.68792 0.0
H636 H 0.72988 0.12936 0.63916 0.0
H637 H 0.684 0.06668 0.66384 0.0
H638 H 0.78741 0.05021 0.68263 0.0
C639 C 0.8869 0.18289 0.62088 0.0
C640 C 0.88575 0.2116 0.6035 0.0
C641 C 0.84948 0.21424 0.60204 0.0
C642 C 0.81446 0.18749 0.61654 0.0
C643 C 0.81629 0.15857 0.63268 0.0
C644 C 0.85182 0.15659 0.63526 0.0
C645 C 0.84517 0.12131 0.65282 0.0
C646 C 0.85327 0.09034 0.63813 0.0
C647 C 0.87186 0.13738 0.67745 0.0
C648 C 0.79998 0.10299 0.65921 0.0
C649 C 0.78395 0.125 0.64738 0.0
C650 C 0.7423 0.1124 0.64887 0.0
C651 C 0.71644 0.07658 0.66283 0.0
C652 C 0.73219 0.05374 0.67534 0.0
C653 C 0.77464 0.06741 0.67364 0.0
H654 H 0.23037 0.34119 0.29367 0.0
H655 H 0.12936 0.23902 0.33359 0.0
H656 H 0.08131 0.23664 0.30006 0.0
H657 H 0.17248 0.39012 0.26904 0.0
H658 H 0.19831 0.40289 0.23803 0.0
H659 H 0.22461 0.40028 0.2667 0.0
H660 H 0.23926 0.34748 0.24381 0.0
H661 H 0.21326 0.35011 0.21508 0.0
H662 H 0.19709 0.30126 0.23037 0.0
H663 H 0.04503 0.24163 0.26179 0.0
H664 H 0.02266 0.24959 0.21827 0.0
H665 H 0.14629 0.34722 0.20092 0.0
C666 C 0.198 0.31885 0.29549 0.0
C667 C 0.18342 0.29044 0.3163 0.0
C668 C 0.1411 0.26097 0.31779 0.0
C669 C 0.11355 0.25961 0.29896 0.0
C670 C 0.12879 0.28771 0.27859 0.0
C671 C 0.17001 0.31656 0.27649 0.0
C672 C 0.17858 0.34041 0.25119 0.0
C673 C 0.19443 0.38614 0.25657 0.0
C674 C 0.20883 0.33444 0.2341 0.0
C675 C 0.13585 0.31984 0.23925 0.0
C676 C 0.10765 0.29002 0.25574 0.0
C677 C 0.06668 0.26509 0.24879 0.0
C678 C 0.0543 0.2698 0.22402 0.0
C679 C 0.08272 0.29908 0.20636 0.0
C680 C 0.12384 0.3252 0.21428 0.0
H681 H 0.89816 0.23624 0.46505 0.0
H682 H 0.90381 0.13684 0.50425 0.0
H683 H 0.86104 0.08894 0.47003 0.0
H684 H 0.79188 0.17399 0.44029 0.0
H685 H 0.8032 0.20014 0.40943 0.0
H686 H 0.83179 0.22704 0.43808 0.0
H687 H 0.89984 0.24558 0.41461 0.0
H688 H 0.87149 0.21881 0.38592 0.0
H689 H 0.90651 0.20519 0.40077 0.0
H690 H 0.82199 0.05229 0.43146 0.0
H691 H 0.78904 0.02823 0.38879 0.0
H692 H 0.80686 0.14937 0.37237 0.0
C693 C 0.88986 0.20428 0.46652 0.0
C694 C 0.90447 0.19038 0.48739 0.0
C695 C 0.8934 0.14841 0.48843 0.0
C696 C 0.86883 0.12079 0.46914 0.0
C697 C 0.85544 0.13538 0.44873 0.0
C698 C 0.86546 0.17603 0.44708 0.0
C699 C 0.84867 0.18353 0.42197 0.0
C700 C 0.817 0.19697 0.4278 0.0
C701 C 0.88372 0.21515 0.4048 0.0
C702 C 0.82831 0.14088 0.40976 0.0
C703 C 0.83251 0.11374 0.42582 0.0
C704 C 0.81822 0.0731 0.41875 0.0
C705 C 0.79969 0.05979 0.39439 0.0
C706 C 0.7954 0.08689 0.37724 0.0
C707 C 0.80927 0.12787 0.38523 0.0
H708 H 0.74954 0.91939 0.63245 0.0
H709 H 0.61922 0.86759 0.6479 0.0
H710 H 0.60311 0.82102 0.61024 0.0
H711 H 0.74224 0.91694 0.56265 0.0
H712 H 0.78182 0.90371 0.55824 0.0
H713 H 0.78286 0.93293 0.58634 0.0
H714 H 0.78459 0.87859 0.61649 0.0
H715 H 0.78335 0.8491 0.58849 0.0
H716 H 0.74499 0.82551 0.61354 0.0
H717 H 0.60138 0.77956 0.57098 0.0
H718 H 0.61398 0.74784 0.53263 0.0
H719 H 0.74554 0.82708 0.54317 0.0
C720 C 0.71754 0.89837 0.62797 0.0
C721 C 0.68565 0.89724 0.64325 0.0
C722 C 0.64424 0.86916 0.63654 0.0
C723 C 0.63477 0.8425 0.6152 0.0
C724 C 0.667 0.8443 0.60072 0.0
C725 C 0.70754 0.87162 0.60679 0.0
C726 C 0.73652 0.86756 0.58813 0.0
C727 C 0.76237 0.90767 0.57294 0.0
C728 C 0.76397 0.8544 0.60253 0.0
C729 C 0.70595 0.83365 0.57057 0.0
C730 C 0.66602 0.82058 0.57817 0.0
C731 C 0.63253 0.78958 0.56485 0.0
C732 C 0.64006 0.77171 0.54308 0.0
C733 C 0.68078 0.78488 0.53477 0.0
C734 C 0.71403 0.81617 0.54892 0.0
H735 H 0.92813 0.75686 0.70031 0.0
H736 H 0.88274 0.62652 0.68928 0.0
H737 H 0.84065 0.61158 0.729 0.0
H738 H 0.93432 0.75671 0.77057 0.0
H739 H 0.91813 0.79416 0.77461 0.0
H740 H 0.94528 0.7945 0.74564 0.0
H741 H 0.8858 0.78929 0.71726 0.0
H742 H 0.85837 0.78871 0.74613 0.0
H743 H 0.83421 0.74772 0.72265 0.0
H744 H 0.80177 0.61078 0.76923 0.0
H745 H 0.77099 0.62417 0.8077 0.0
H746 H 0.84237 0.75519 0.79248 0.0
C747 C 0.90954 0.72513 0.70623 0.0
C748 C 0.90881 0.69286 0.69155 0.0
C749 C 0.88397 0.65182 0.70015 0.0
C750 C 0.85987 0.643 0.72268 0.0
C751 C 0.86104 0.67554 0.73648 0.0
C752 C 0.88541 0.71579 0.72866 0.0
C753 C 0.88101 0.74514 0.74684 0.0
C754 C 0.92213 0.77434 0.76021 0.0
C755 C 0.86382 0.76912 0.73235 0.0
C756 C 0.85011 0.7151 0.76605 0.0
C757 C 0.83894 0.6751 0.75972 0.0
C758 C 0.81042 0.64199 0.77442 0.0
C759 C 0.79303 0.64996 0.79624 0.0
C760 C 0.80424 0.69078 0.80326 0.0
C761 C 0.83317 0.72365 0.7878 0.0
H762 H 0.16775 0.91027 0.87091 0.0
H763 H 0.25258 0.8655 0.85698 0.0
H764 H 0.22496 0.82043 0.89555 0.0
H765 H 0.17512 0.91407 0.93962 0.0
H766 H 0.12165 0.89784 0.94455 0.0
H767 H 0.14724 0.92509 0.9154 0.0
H768 H 0.09209 0.86567 0.88732 0.0
H769 H 0.06631 0.83821 0.9164 0.0
H770 H 0.08228 0.81408 0.89235 0.0
H771 H 0.18838 0.78134 0.93695 0.0
H772 H 0.14688 0.7526 0.97689 0.0
H773 H 0.08704 0.82405 0.96236 0.0
C774 C 0.18056 0.89094 0.87577 0.0
C775 C 0.2124 0.89151 0.86082 0.0
C776 C 0.22813 0.8656 0.86806 0.0
C777 C 0.21262 0.83988 0.88994 0.0
C778 C 0.18133 0.84033 0.90429 0.0
C779 C 0.16549 0.86519 0.89739 0.0
C780 C 0.13253 0.86082 0.9161 0.0
C781 C 0.1449 0.90189 0.92972 0.0
C782 C 0.09084 0.84367 0.90221 0.0
C783 C 0.13249 0.8299 0.93486 0.0
C784 C 0.16063 0.8182 0.92778 0.0
C785 C 0.16617 0.79023 0.94259 0.0
C786 C 0.14244 0.77405 0.96524 0.0
C787 C 0.11368 0.78604 0.97288 0.0
C788 C 0.10872 0.81416 0.95724 0.0
H789 H 0.26037 0.08173 0.12917 0.0
H790 H 0.39155 0.13804 0.14355 0.0
H791 H 0.40519 0.18383 0.10599 0.0
H792 H 0.26619 0.0844 0.05902 0.0
H793 H 0.2253 0.09589 0.05517 0.0
H794 H 0.2259 0.06707 0.08297 0.0
H795 H 0.22264 0.12013 0.11369 0.0
H796 H 0.22225 0.14924 0.08599 0.0
H797 H 0.26091 0.1737 0.11088 0.0
H798 H 0.40463 0.22425 0.0674 0.0
H799 H 0.39012 0.25558 0.02979 0.0
H800 H 0.2592 0.17304 0.04061 0.0
C801 C 0.29202 0.10352 0.12441 0.0
C802 C 0.32488 0.1062 0.1394 0.0
C803 C 0.36581 0.1353 0.13243 0.0
C804 C 0.3739 0.16151 0.11112 0.0
C805 C 0.34077 0.15826 0.09696 0.0
C806 C 0.30066 0.12994 0.10324 0.0
C807 C 0.27063 0.13291 0.08493 0.0
C808 C 0.24553 0.09268 0.06962 0.0
C809 C 0.24245 0.14471 0.09976 0.0
C810 C 0.30015 0.16742 0.06739 0.0
C811 C 0.34045 0.18159 0.07468 0.0
C812 C 0.3732 0.21337 0.06147 0.0
C813 C 0.36458 0.23099 0.04011 0.0
C814 C 0.32348 0.21683 0.03213 0.0
C815 C 0.29094 0.18466 0.04614 0.0
loop_
_geom_bond_atom_site_label_1
_geom_bond_atom_site_label_2
_geom_bond_distance
_geom_bond_site_symmetry_2
_ccdc_geom_bond_type
Co0 O1 2.216 . S
Co0 O2 2.091 . S
Co0 O4 2.004 . S
Co0 O10 2.021 . S
Co0 O12 2.137 1_455 S
Co0 O13 2.244 . S
O1 Co0 2.216 . S
O1 C8 1.247 . S
O2 Co0 2.091 . S
O2 C8 1.261 . S
C3 O12 1.247 . S
C3 O13 1.272 1_655 S
O4 Co0 2.004 . S
O4 C9 1.259 . S
Co5 O6 2.061 . S
Co5 O11 2.052 . S
Co5 O13 2.135 . S
O6 Co5 2.061 . S
O6 C9 1.235 . S
C7 O10 1.238 . S
C7 O11 1.241 . S
C8 O1 1.247 . S
C8 O2 1.261 . S
C9 O4 1.259 . S
C9 O6 1.235 . S
O10 Co0 2.021 . S
O10 C7 1.238 . S
O11 Co5 2.052 . S
O11 C7 1.241 . S
O12 Co0 2.137 1_655 S
O12 C3 1.247 . S
O13 Co0 2.244 . S
O13 C3 1.272 1_455 S
O13 Co5 2.135 . S
Co14 O15 2.216 . S
Co14 O16 2.091 . S
Co14 O18 2.004 . S
Co14 O24 2.021 . S
Co14 O26 2.137 1_545 S
Co14 O27 2.244 . S
O15 Co14 2.216 . S
O15 C22 1.247 . S
O16 Co14 2.091 . S
O16 C22 1.261 . S
C17 O26 1.247 . S
C17 O27 1.272 1_565 S
O18 Co14 2.004 . S
O18 C23 1.259 . S
Co19 O20 2.061 . S
Co19 O25 2.052 . S
Co19 O27 2.135 . S
O20 Co19 2.061 . S
O20 C23 1.235 . S
C21 O24 1.238 . S
C21 O25 1.241 . S
C22 O15 1.247 . S
C22 O16 1.261 . S
C23 O18 1.259 . S
C23 O20 1.235 . S
O24 Co14 2.021 . S
O24 C21 1.238 . S
O25 Co19 2.052 . S
O25 C21 1.241 . S
O26 Co14 2.137 1_565 S
O26 C17 1.247 . S
O27 Co14 2.244 . S
O27 C17 1.272 1_545 S
O27 Co19 2.135 . S
Co28 O29 2.216 . S
Co28 O30 2.091 . S
Co28 O32 2.004 . S
Co28 O38 2.021 . S
Co28 O40 2.137 . S
Co28 O41 2.244 . S
O29 Co28 2.216 . S
O29 C36 1.247 . S
O30 Co28 2.091 . S
O30 C36 1.261 . S
C31 O40 1.247 . S
C31 O41 1.272 . S
O32 Co28 2.004 . S
O32 C37 1.259 . S
Co33 O34 2.061 . S
Co33 O39 2.052 . S
Co33 O41 2.135 . S
O34 Co33 2.061 . S
O34 C37 1.235 . S
C35 O38 1.238 . S
C35 O39 1.241 . S
C36 O29 1.247 . S
C36 O30 1.261 . S
C37 O32 1.259 . S
C37 O34 1.235 . S
O38 Co28 2.021 . S
O38 C35 1.238 . S
O39 Co33 2.052 . S
O39 C35 1.241 . S
O40 Co28 2.137 . S
O40 C31 1.247 . S
O41 Co28 2.244 . S
O41 C31 1.272 . S
O41 Co33 2.135 . S
Co42 O43 2.216 . S
Co42 O44 2.091 . S
Co42 O46 2.004 . S
Co42 O52 2.021 . S
Co42 O54 2.137 1_655 S
Co42 O55 2.244 . S
O43 Co42 2.216 . S
O43 C50 1.247 . S
O44 Co42 2.091 . S
O44 C50 1.261 . S
C45 O54 1.247 . S
C45 O55 1.272 1_455 S
O46 Co42 2.004 . S
O46 C51 1.259 . S
Co47 O48 2.061 . S
Co47 O53 2.052 . S
Co47 O55 2.135 . S
O48 Co47 2.061 . S
O48 C51 1.235 . S
C49 O52 1.238 . S
C49 O53 1.241 . S
C50 O43 1.247 . S
C50 O44 1.261 . S
C51 O46 1.259 . S
C51 O48 1.235 . S
O52 Co42 2.021 . S
O52 C49 1.238 . S
O53 Co47 2.052 . S
O53 C49 1.241 . S
O54 Co42 2.137 1_455 S
O54 C45 1.247 . S
O55 Co42 2.244 . S
O55 C45 1.272 1_655 S
O55 Co47 2.135 . S
Co56 O57 2.216 . S
Co56 O58 2.091 . S
Co56 O60 2.004 . S
Co56 O66 2.021 . S
Co56 O68 2.137 1_565 S
Co56 O69 2.244 . S
O57 Co56 2.216 . S
O57 C64 1.247 . S
O58 Co56 2.091 . S
O58 C64 1.261 . S
C59 O68 1.247 . S
C59 O69 1.272 1_545 S
O60 Co56 2.004 . S
O60 C65 1.259 . S
Co61 O62 2.061 . S
Co61 O67 2.052 . S
Co61 O69 2.135 . S
O62 Co61 2.061 . S
O62 C65 1.235 . S
C63 O66 1.238 . S
C63 O67 1.241 . S
C64 O57 1.247 . S
C64 O58 1.261 . S
C65 O60 1.259 . S
C65 O62 1.235 . S
O66 Co56 2.021 . S
O66 C63 1.238 . S
O67 Co61 2.052 . S
O67 C63 1.241 . S
O68 Co56 2.137 1_545 S
O68 C59 1.247 . S
O69 Co56 2.244 . S
O69 C59 1.272 1_565 S
O69 Co61 2.135 . S
Co70 O71 2.216 . S
Co70 O72 2.091 . S
Co70 O74 1.969 1_556 S
Co70 O80 2.021 . S
Co70 O82 2.137 . S
Co70 O83 2.244 . S
O71 Co70 2.216 . S
O71 C78 1.247 . S
O72 Co70 2.091 . S
O72 C78 1.261 . S
C73 O82 1.247 . S
C73 O83 1.272 . S
O74 Co70 1.969 1_554 S
O74 C79 1.274 . S
Co75 O76 2.062 1_556 S
Co75 O81 2.052 . S
Co75 O83 2.135 . S
O76 Co75 2.062 1_554 S
O76 C79 1.235 . S
C77 O80 1.238 . S
C77 O81 1.241 . S
C78 O71 1.247 . S
C78 O72 1.261 . S
C79 O74 1.274 . S
C79 O76 1.235 . S
O80 Co70 2.021 . S
O80 C77 1.238 . S
O81 Co75 2.052 . S
O81 C77 1.241 . S
O82 Co70 2.137 . S
O82 C73 1.247 . S
O83 Co70 2.244 . S
O83 C73 1.272 . S
O83 Co75 2.135 . S
Co84 O85 2.216 . S
Co84 O86 2.091 . S
Co84 O88 2.004 . S
Co84 O94 2.021 . S
Co84 O96 2.137 1_565 S
Co84 O97 2.244 . S
O85 Co84 2.216 . S
O85 C92 1.247 . S
O86 Co84 2.091 . S
O86 C92 1.261 . S
C87 O96 1.247 . S
C87 O97 1.272 1_545 S
O88 Co84 2.004 . S
O88 C93 1.259 . S
Co89 O90 2.061 . S
Co89 O95 2.052 . S
Co89 O97 2.135 . S
O90 Co89 2.061 . S
O90 C93 1.235 . S
C91 O94 1.238 . S
C91 O95 1.241 . S
C92 O85 1.247 . S
C92 O86 1.261 . S
C93 O88 1.259 . S
C93 O90 1.235 . S
O94 Co84 2.021 . S
O94 C91 1.238 . S
O95 Co89 2.052 . S
O95 C91 1.241 . S
O96 Co84 2.137 1_545 S
O96 C87 1.247 . S
O97 Co84 2.244 . S
O97 C87 1.272 1_565 S
O97 Co89 2.135 . S
Co98 O99 2.216 . S
Co98 O100 2.091 . S
Co98 O102 2.004 . S
Co98 O108 2.021 . S
Co98 O110 2.137 . S
Co98 O111 2.244 . S
O99 Co98 2.216 . S
O99 C106 1.247 . S
O100 Co98 2.091 . S
O100 C106 1.261 . S
C101 O110 1.247 . S
C101 O111 1.272 . S
O102 Co98 2.004 . S
O102 C107 1.259 . S
Co103 O104 2.061 . S
Co103 O109 2.052 . S
Co103 O111 2.135 . S
O104 Co103 2.061 . S
O104 C107 1.235 . S
C105 O108 1.238 . S
C105 O109 1.241 . S
C106 O99 1.247 . S
C106 O100 1.261 . S
C107 O102 1.259 . S
C107 O104 1.235 . S
O108 Co98 2.021 . S
O108 C105 1.238 . S
O109 Co103 2.052 . S
O109 C105 1.241 . S
O110 Co98 2.137 . S
O110 C101 1.247 . S
O111 Co98 2.244 . S
O111 C101 1.272 . S
O111 Co103 2.135 . S
Co112 O113 2.216 . S
Co112 O114 2.091 . S
Co112 O116 1.969 1_554 S
Co112 O122 2.021 . S
Co112 O124 2.137 1_455 S
Co112 O125 2.244 . S
O113 Co112 2.216 . S
O113 C120 1.247 . S
O114 Co112 2.091 . S
O114 C120 1.261 . S
C115 O124 1.247 . S
C115 O125 1.272 1_655 S
O116 Co112 1.969 1_556 S
O116 C121 1.274 . S
Co117 O118 2.062 1_554 S
Co117 O123 2.052 . S
Co117 O125 2.135 . S
O118 Co117 2.062 1_556 S
O118 C121 1.235 . S
C119 O122 1.238 . S
C119 O123 1.241 . S
C120 O113 1.247 . S
C120 O114 1.261 . S
C121 O116 1.274 . S
C121 O118 1.235 . S
O122 Co112 2.021 . S
O122 C119 1.238 . S
O123 Co117 2.052 . S
O123 C119 1.241 . S
O124 Co112 2.137 1_655 S
O124 C115 1.247 . S
O125 Co112 2.244 . S
O125 C115 1.272 1_455 S
O125 Co117 2.135 . S
Co126 O127 2.216 . S
Co126 O128 2.091 . S
Co126 O130 2.004 . S
Co126 O136 2.021 . S
Co126 O138 2.137 1_545 S
Co126 O139 2.244 . S
O127 Co126 2.216 . S
O127 C134 1.247 . S
O128 Co126 2.091 . S
O128 C134 1.261 . S
C129 O138 1.247 . S
C129 O139 1.272 1_565 S
O130 Co126 2.004 . S
O130 C135 1.259 . S
Co131 O132 2.061 . S
Co131 O137 2.052 . S
Co131 O139 2.135 . S
O132 Co131 2.061 . S
O132 C135 1.235 . S
C133 O136 1.238 . S
C133 O137 1.241 . S
C134 O127 1.247 . S
C134 O128 1.261 . S
C135 O130 1.259 . S
C135 O132 1.235 . S
O136 Co126 2.021 . S
O136 C133 1.238 . S
O137 Co131 2.052 . S
O137 C133 1.241 . S
O138 Co126 2.137 1_565 S
O138 C129 1.247 . S
O139 Co126 2.244 . S
O139 C129 1.272 1_545 S
O139 Co131 2.135 . S
Co140 O141 2.216 . S
Co140 O142 2.091 . S
Co140 O144 2.004 . S
Co140 O150 2.021 . S
Co140 O152 2.137 . S
Co140 O153 2.244 . S
O141 Co140 2.216 . S
O141 C148 1.247 . S
O142 Co140 2.091 . S
O142 C148 1.261 . S
C143 O152 1.247 . S
C143 O153 1.272 . S
O144 Co140 2.004 . S
O144 C149 1.259 . S
Co145 O146 2.061 . S
Co145 O151 2.052 . S
Co145 O153 2.135 . S
O146 Co145 2.061 . S
O146 C149 1.235 . S
C147 O150 1.238 . S
C147 O151 1.241 . S
C148 O141 1.247 . S
C148 O142 1.261 . S
C149 O144 1.259 . S
C149 O146 1.235 . S
O150 Co140 2.021 . S
O150 C147 1.238 . S
O151 Co145 2.052 . S
O151 C147 1.241 . S
O152 Co140 2.137 . S
O152 C143 1.247 . S
O153 Co140 2.244 . S
O153 C143 1.272 . S
O153 Co145 2.135 . S
Co154 O155 2.216 . S
Co154 O156 2.091 . S
Co154 O158 2.004 . S
Co154 O164 2.021 . S
Co154 O166 2.137 1_655 S
Co154 O167 2.244 . S
O155 Co154 2.216 . S
O155 C162 1.247 . S
O156 Co154 2.091 . S
O156 C162 1.261 . S
C157 O166 1.247 . S
C157 O167 1.272 1_455 S
O158 Co154 2.004 . S
O158 C163 1.259 . S
Co159 O160 2.061 . S
Co159 O165 2.052 . S
Co159 O167 2.135 . S
O160 Co159 2.061 . S
O160 C163 1.235 . S
C161 O164 1.238 . S
C161 O165 1.241 . S
C162 O155 1.247 . S
C162 O156 1.261 . S
C163 O158 1.259 . S
C163 O160 1.235 . S
O164 Co154 2.021 . S
O164 C161 1.238 . S
O165 Co159 2.052 . S
O165 C161 1.241 . S
O166 Co154 2.137 1_455 S
O166 C157 1.247 . S
O167 Co154 2.244 . S
O167 C157 1.272 1_655 S
O167 Co159 2.135 . S
H168 C180 0.930 . S
H169 C182 0.930 1_655 S
H170 C183 0.930 1_655 S
H171 C187 0.959 . S
H172 C187 0.959 . S
H173 C187 0.961 . S
H174 C188 0.960 . S
H175 C188 0.961 . S
H176 C188 0.959 . S
H177 C191 0.929 1_655 S
H178 C192 0.931 1_655 S
H179 C194 0.930 . S
C180 H168 0.930 . S
C180 C181 1.399 . S
C180 C185 1.399 . S
C181 C180 1.399 . S
C181 C182 1.376 . S
C182 H169 0.930 1_455 S
C182 C181 1.376 . S
C182 C183 1.388 . S
C183 H170 0.930 1_455 S
C183 C182 1.388 . S
C183 C184 1.390 . S
C184 C183 1.390 . S
C184 C185 1.394 . S
C184 C190 1.465 . S
C185 C180 1.399 . S
C185 C184 1.394 . S
C185 C186 1.516 . S
C186 C185 1.516 . S
C186 C187 1.502 . S
C186 C188 1.561 . S
C186 C189 1.526 . S
C187 H171 0.959 . S
C187 H172 0.959 . S
C187 H173 0.961 . S
C187 C186 1.502 . S
C188 H174 0.960 . S
C188 H175 0.961 . S
C188 H176 0.959 . S
C188 C186 1.561 . S
C189 C186 1.526 . S
C189 C190 1.396 . S
C189 C194 1.390 . S
C190 C184 1.465 . S
C190 C189 1.396 . S
C190 C191 1.399 . S
C191 H177 0.929 1_455 S
C191 C190 1.399 . S
C191 C192 1.385 . S
C192 H178 0.931 1_455 S
C192 C191 1.385 . S
C192 C193 1.389 . S
C193 C192 1.389 . S
C193 C194 1.387 . S
C194 H179 0.930 . S
C194 C189 1.390 . S
C194 C193 1.387 . S
H195 C207 0.930 1_565 S
H196 C209 0.930 . S
H197 C210 0.930 . S
H198 C214 0.959 . S
H199 C214 0.959 . S
H200 C214 0.961 . S
H201 C215 0.960 . S
H202 C215 0.961 . S
H203 C215 0.959 . S
H204 C218 0.929 . S
H205 C219 0.931 . S
H206 C221 0.930 1_565 S
C207 H195 0.930 1_545 S
C207 C208 1.399 . S
C207 C212 1.399 . S
C208 C207 1.399 . S
C208 C209 1.376 . S
C209 H196 0.930 . S
C209 C208 1.376 . S
C209 C210 1.388 . S
C210 H197 0.930 . S
C210 C209 1.388 . S
C210 C211 1.390 . S
C211 C210 1.390 . S
C211 C212 1.394 . S
C211 C217 1.465 . S
C212 C207 1.399 . S
C212 C211 1.394 . S
C212 C213 1.516 1_545 S
C213 C212 1.516 1_565 S
C213 C214 1.502 . S
C213 C215 1.561 . S
C213 C216 1.526 1_565 S
C214 H198 0.959 . S
C214 H199 0.959 . S
C214 H200 0.961 . S
C214 C213 1.502 . S
C215 H201 0.960 . S
C215 H202 0.961 . S
C215 H203 0.959 . S
C215 C213 1.561 . S
C216 C213 1.526 1_545 S
C216 C217 1.396 . S
C216 C221 1.390 . S
C217 C211 1.465 . S
C217 C216 1.396 . S
C217 C218 1.399 . S
C218 H204 0.929 . S
C218 C217 1.399 . S
C218 C219 1.385 . S
C219 H205 0.931 . S
C219 C218 1.385 . S
C219 C220 1.389 . S
C220 C219 1.389 . S
C220 C221 1.387 . S
C221 H206 0.930 1_545 S
C221 C216 1.390 . S
C221 C220 1.387 . S
H222 C234 0.930 . S
H223 C236 0.930 . S
H224 C237 0.930 . S
H225 C241 0.959 . S
H226 C241 0.959 . S
H227 C241 0.961 . S
H228 C242 0.960 . S
H229 C242 0.961 . S
H230 C242 0.959 . S
H231 C245 0.929 . S
H232 C246 0.931 . S
H233 C248 0.930 . S
C234 H222 0.930 . S
C234 C235 1.399 . S
C234 C239 1.399 . S
C235 C234 1.399 . S
C235 C236 1.376 . S
C236 H223 0.930 . S
C236 C235 1.376 . S
C236 C237 1.388 . S
C237 H224 0.930 . S
C237 C236 1.388 . S
C237 C238 1.390 . S
C238 C237 1.390 . S
C238 C239 1.394 . S
C238 C244 1.465 . S
C239 C234 1.399 . S
C239 C238 1.394 . S
C239 C240 1.516 . S
C240 C239 1.516 . S
C240 C241 1.502 . S
C240 C242 1.561 . S
C240 C243 1.526 . S
C241 H225 0.959 . S
C241 H226 0.959 . S
C241 H227 0.961 . S
C241 C240 1.502 . S
C242 H228 0.960 . S
C242 H229 0.961 . S
C242 H230 0.959 . S
C242 C240 1.561 . S
C243 C240 1.526 . S
C243 C244 1.396 . S
C243 C248 1.390 . S
C244 C238 1.465 . S
C244 C243 1.396 . S
C244 C245 1.399 . S
C245 H231 0.929 . S
C245 C244 1.399 . S
C245 C246 1.385 . S
C246 H232 0.931 . S
C246 C245 1.385 . S
C246 C247 1.389 . S
C247 C246 1.389 . S
C247 C248 1.387 . S
C248 H233 0.930 . S
C248 C243 1.390 . S
C248 C247 1.387 . S
H249 C261 0.930 . S
H250 C263 0.930 . S
H251 C264 0.930 . S
H252 C268 0.959 . S
H253 C268 0.959 . S
H254 C268 0.961 . S
H255 C269 0.960 . S
H256 C269 0.961 . S
H257 C269 0.959 . S
H258 C272 0.929 . S
H259 C273 0.931 . S
H260 C275 0.930 . S
C261 H249 0.930 . S
C261 C262 1.399 . S
C261 C266 1.399 . S
C262 C261 1.399 . S
C262 C263 1.376 1_655 S
C263 H250 0.930 . S
C263 C262 1.376 1_455 S
C263 C264 1.388 . S
C264 H251 0.930 . S
C264 C263 1.388 . S
C264 C265 1.390 1_455 S
C265 C264 1.390 1_655 S
C265 C266 1.394 . S
C265 C271 1.465 . S
C266 C261 1.399 . S
C266 C265 1.394 . S
C266 C267 1.516 . S
C267 C266 1.516 . S
C267 C268 1.502 . S
C267 C269 1.561 . S
C267 C270 1.526 . S
C268 H252 0.959 . S
C268 H253 0.959 . S
C268 H254 0.961 . S
C268 C267 1.502 . S
C269 H255 0.960 . S
C269 H256 0.961 . S
C269 H257 0.959 . S
C269 C267 1.561 . S
C270 C267 1.526 . S
C270 C271 1.396 . S
C270 C275 1.390 . S
C271 C265 1.465 . S
C271 C270 1.396 . S
C271 C272 1.399 1_655 S
C272 H258 0.929 . S
C272 C271 1.399 1_455 S
C272 C273 1.385 . S
C273 H259 0.931 . S
C273 C272 1.385 . S
C273 C274 1.389 1_455 S
C274 C273 1.389 1_655 S
C274 C275 1.387 . S
C275 H260 0.930 . S
C275 C270 1.390 . S
C275 C274 1.387 . S
H276 C288 0.930 . S
H277 C290 0.932 . S
H278 C291 0.930 . S
H279 C295 0.959 . S
H280 C295 0.959 . S
H281 C295 0.961 . S
H282 C296 0.960 . S
H283 C296 0.961 . S
H284 C296 0.959 . S
H285 C299 0.929 . S
H286 C300 0.913 1_545 S
H287 C302 0.930 . S
C288 H276 0.930 . S
C288 C289 1.399 . S
C288 C293 1.399 . S
C289 C288 1.399 . S
C289 C290 1.371 1_565 S
C290 H277 0.932 . S
C290 C289 1.371 1_545 S
C290 C291 1.392 . S
C291 H278 0.930 . S
C291 C290 1.392 . S
C291 C292 1.390 1_545 S
C292 C291 1.390 1_565 S
C292 C293 1.394 . S
C292 C298 1.465 . S
C293 C288 1.399 . S
C293 C292 1.394 . S
C293 C294 1.516 . S
C294 C293 1.516 . S
C294 C295 1.502 . S
C294 C296 1.561 . S
C294 C297 1.526 . S
C295 H279 0.959 . S
C295 H280 0.959 . S
C295 H281 0.961 . S
C295 C294 1.502 . S
C296 H282 0.960 . S
C296 H283 0.961 . S
C296 H284 0.959 . S
C296 C294 1.561 . S
C297 C294 1.526 . S
C297 C298 1.396 . S
C297 C302 1.390 . S
C298 C292 1.465 . S
C298 C297 1.396 . S
C298 C299 1.399 1_565 S
C299 H285 0.929 . S
C299 C298 1.399 1_545 S
C299 C300 1.391 1_545 S
C300 H286 0.913 1_565 S
C300 C299 1.391 1_565 S
C300 C301 1.401 . S
C301 C300 1.401 . S
C301 C302 1.387 . S
C302 H287 0.930 . S
C302 C297 1.390 . S
C302 C301 1.387 . S
H303 C315 0.930 . S
H304 C317 0.930 . S
H305 C318 0.930 . S
H306 C322 0.959 . S
H307 C322 0.959 . S
H308 C322 0.961 . S
H309 C323 0.960 . S
H310 C323 0.961 . S
H311 C323 0.959 . S
H312 C326 0.929 . S
H313 C327 0.931 . S
H314 C329 0.930 . S
C315 H303 0.930 . S
C315 C316 1.399 . S
C315 C320 1.399 . S
C316 C315 1.399 . S
C316 C317 1.376 . S
C317 H304 0.930 . S
C317 C316 1.376 . S
C317 C318 1.388 . S
C318 H305 0.930 . S
C318 C317 1.388 . S
C318 C319 1.390 . S
C319 C318 1.390 . S
C319 C320 1.394 . S
C319 C325 1.465 . S
C320 C315 1.399 . S
C320 C319 1.394 . S
C320 C321 1.516 . S
C321 C320 1.516 . S
C321 C322 1.502 . S
C321 C323 1.561 . S
C321 C324 1.526 . S
C322 H306 0.959 . S
C322 H307 0.959 . S
C322 H308 0.961 . S
C322 C321 1.502 . S
C323 H309 0.960 . S
C323 H310 0.961 . S
C323 H311 0.959 . S
C323 C321 1.561 . S
C324 C321 1.526 . S
C324 C325 1.396 . S
C324 C329 1.390 . S
C325 C319 1.465 . S
C325 C324 1.396 . S
C325 C326 1.399 . S
C326 H312 0.929 . S
C326 C325 1.399 . S
C326 C327 1.385 . S
C327 H313 0.931 . S
C327 C326 1.385 . S
C327 C328 1.389 . S
C328 C327 1.389 . S
C328 C329 1.387 . S
C329 H314 0.930 . S
C329 C324 1.390 . S
C329 C328 1.387 . S
H330 C342 0.930 . S
H331 C344 0.930 . S
H332 C345 0.930 . S
H333 C349 0.959 . S
H334 C349 0.959 . S
H335 C349 0.961 1_554 S
H336 C350 0.960 . S
H337 C350 0.961 . S
H338 C350 0.959 . S
H339 C353 0.929 . S
H340 C354 0.931 . S
H341 C356 0.964 . S
C342 H330 0.930 . S
C342 C343 1.399 . S
C342 C347 1.399 . S
C343 C342 1.399 . S
C343 C344 1.376 . S
C344 H331 0.930 . S
C344 C343 1.376 . S
C344 C345 1.388 . S
C345 H332 0.930 . S
C345 C344 1.388 . S
C345 C346 1.390 . S
C346 C345 1.390 . S
C346 C347 1.394 . S
C346 C352 1.465 . S
C347 C342 1.399 . S
C347 C346 1.394 . S
C347 C348 1.516 . S
C348 C347 1.516 . S
C348 C349 1.502 1_554 S
C348 C350 1.561 . S
C348 C351 1.526 . S
C349 H333 0.959 . S
C349 H334 0.959 . S
C349 H335 0.961 1_556 S
C349 C348 1.502 1_556 S
C350 H336 0.960 . S
C350 H337 0.961 . S
C350 H338 0.959 . S
C350 C348 1.561 . S
C351 C348 1.526 . S
C351 C352 1.396 . S
C351 C356 1.359 1_554 S
C352 C346 1.465 . S
C352 C351 1.396 . S
C352 C353 1.399 . S
C353 H339 0.929 . S
C353 C352 1.399 . S
C353 C354 1.385 . S
C354 H340 0.931 . S
C354 C353 1.385 . S
C354 C355 1.416 . S
C355 C354 1.416 . S
C355 C356 1.384 1_554 S
C356 H341 0.964 . S
C356 C351 1.359 1_556 S
C356 C355 1.384 1_556 S
H357 C369 0.930 . S
H358 C371 0.930 . S
H359 C372 0.930 . S
H360 C376 0.959 . S
H361 C376 0.959 . S
H362 C376 0.961 . S
H363 C377 0.960 . S
H364 C377 0.961 . S
H365 C377 0.959 . S
H366 C380 0.929 . S
H367 C381 0.931 . S
H368 C383 0.930 . S
C369 H357 0.930 . S
C369 C370 1.399 . S
C369 C374 1.399 . S
C370 C369 1.399 . S
C370 C371 1.376 . S
C371 H358 0.930 . S
C371 C370 1.376 . S
C371 C372 1.388 . S
C372 H359 0.930 . S
C372 C371 1.388 . S
C372 C373 1.390 . S
C373 C372 1.390 . S
C373 C374 1.394 . S
C373 C379 1.465 . S
C374 C369 1.399 . S
C374 C373 1.394 . S
C374 C375 1.516 . S
C375 C374 1.516 . S
C375 C376 1.502 . S
C375 C377 1.561 . S
C375 C378 1.526 . S
C376 H360 0.959 . S
C376 H361 0.959 . S
C376 H362 0.961 . S
C376 C375 1.502 . S
C377 H363 0.960 . S
C377 H364 0.961 . S
C377 H365 0.959 . S
C377 C375 1.561 . S
C378 C375 1.526 . S
C378 C379 1.396 . S
C378 C383 1.390 . S
C379 C373 1.465 . S
C379 C378 1.396 . S
C379 C380 1.399 . S
C380 H366 0.929 . S
C380 C379 1.399 . S
C380 C381 1.385 . S
C381 H367 0.931 . S
C381 C380 1.385 . S
C381 C382 1.389 . S
C382 C381 1.389 . S
C382 C383 1.387 . S
C383 H368 0.930 . S
C383 C378 1.390 . S
C383 C382 1.387 . S
H384 C396 0.930 . S
H385 C398 0.930 . S
H386 C399 0.930 . S
H387 C403 0.959 . S
H388 C403 0.959 . S
H389 C403 0.961 . S
H390 C404 0.960 . S
H391 C404 0.961 . S
H392 C404 0.959 . S
H393 C407 0.929 . S
H394 C408 0.931 . S
H395 C410 0.930 . S
C396 H384 0.930 . S
C396 C397 1.399 . S
C396 C401 1.399 . S
C397 C396 1.399 . S
C397 C398 1.376 . S
C398 H385 0.930 . S
C398 C397 1.376 . S
C398 C399 1.388 . S
C399 H386 0.930 . S
C399 C398 1.388 . S
C399 C400 1.390 . S
C400 C399 1.390 . S
C400 C401 1.394 . S
C400 C406 1.465 . S
C401 C396 1.399 . S
C401 C400 1.394 . S
C401 C402 1.516 . S
C402 C401 1.516 . S
C402 C403 1.502 . S
C402 C404 1.561 . S
C402 C405 1.526 . S
C403 H387 0.959 . S
C403 H388 0.959 . S
C403 H389 0.961 . S
C403 C402 1.502 . S
C404 H390 0.960 . S
C404 H391 0.961 . S
C404 H392 0.959 . S
C404 C402 1.561 . S
C405 C402 1.526 . S
C405 C406 1.396 . S
C405 C410 1.390 . S
C406 C400 1.465 . S
C406 C405 1.396 . S
C406 C407 1.399 . S
C407 H393 0.929 . S
C407 C406 1.399 . S
C407 C408 1.385 . S
C408 H394 0.931 . S
C408 C407 1.385 . S
C408 C409 1.389 . S
C409 C408 1.389 . S
C409 C410 1.387 . S
C410 H395 0.930 . S
C410 C405 1.390 . S
C410 C409 1.387 . S
H411 C423 0.930 . S
H412 C425 0.930 . S
H413 C426 0.930 . S
H414 C430 0.959 . S
H415 C430 0.959 . S
H416 C430 0.961 . S
H417 C431 0.960 . S
H418 C431 0.961 . S
H419 C431 0.959 . S
H420 C434 0.929 . S
H421 C435 0.931 . S
H422 C437 0.930 . S
C423 H411 0.930 . S
C423 C424 1.399 . S
C423 C428 1.399 . S
C424 C423 1.399 . S
C424 C425 1.376 . S
C425 H412 0.930 . S
C425 C424 1.376 . S
C425 C426 1.388 . S
C426 H413 0.930 . S
C426 C425 1.388 . S
C426 C427 1.390 . S
C427 C426 1.390 . S
C427 C428 1.394 . S
C427 C433 1.465 . S
C428 C423 1.399 . S
C428 C427 1.394 . S
C428 C429 1.516 . S
C429 C428 1.516 . S
C429 C430 1.502 . S
C429 C431 1.561 . S
C429 C432 1.526 . S
C430 H414 0.959 . S
C430 H415 0.959 . S
C430 H416 0.961 . S
C430 C429 1.502 . S
C431 H417 0.960 . S
C431 H418 0.961 . S
C431 H419 0.959 . S
C431 C429 1.561 . S
C432 C429 1.526 . S
C432 C433 1.396 . S
C432 C437 1.390 . S
C433 C427 1.465 . S
C433 C432 1.396 . S
C433 C434 1.399 . S
C434 H420 0.929 . S
C434 C433 1.399 . S
C434 C435 1.385 . S
C435 H421 0.931 . S
C435 C434 1.385 . S
C435 C436 1.389 . S
C436 C435 1.389 . S
C436 C437 1.387 . S
C437 H422 0.930 . S
C437 C432 1.390 . S
C437 C436 1.387 . S
H438 C450 0.930 . S
H439 C452 0.930 . S
H440 C453 0.930 . S
H441 C457 0.959 . S
H442 C457 0.959 . S
H443 C457 0.961 . S
H444 C458 0.960 . S
H445 C458 0.961 . S
H446 C458 0.959 . S
H447 C461 0.929 . S
H448 C462 0.931 . S
H449 C464 0.930 . S
C450 H438 0.930 . S
C450 C451 1.399 . S
C450 C455 1.399 . S
C451 C450 1.399 . S
C451 C452 1.376 . S
C452 H439 0.930 . S
C452 C451 1.376 . S
C452 C453 1.388 . S
C453 H440 0.930 . S
C453 C452 1.388 . S
C453 C454 1.390 . S
C454 C453 1.390 . S
C454 C455 1.394 . S
C454 C460 1.465 . S
C455 C450 1.399 . S
C455 C454 1.394 . S
C455 C456 1.516 . S
C456 C455 1.516 . S
C456 C457 1.502 . S
C456 C458 1.561 . S
C456 C459 1.526 . S
C457 H441 0.959 . S
C457 H442 0.959 . S
C457 H443 0.961 . S
C457 C456 1.502 . S
C458 H444 0.960 . S
C458 H445 0.961 . S
C458 H446 0.959 . S
C458 C456 1.561 . S
C459 C456 1.526 . S
C459 C460 1.396 . S
C459 C464 1.390 . S
C460 C454 1.465 . S
C460 C459 1.396 . S
C460 C461 1.399 . S
C461 H447 0.929 . S
C461 C460 1.399 . S
C461 C462 1.385 . S
C462 H448 0.931 . S
C462 C461 1.385 . S
C462 C463 1.389 . S
C463 C462 1.389 . S
C463 C464 1.387 . S
C464 H449 0.930 . S
C464 C459 1.390 . S
C464 C463 1.387 . S
H465 C477 0.930 . S
H466 C479 0.930 . S
H467 C480 0.930 . S
H468 C484 0.959 . S
H469 C484 0.959 . S
H470 C484 0.961 . S
H471 C485 0.960 . S
H472 C485 0.961 . S
H473 C485 0.959 . S
H474 C488 0.929 . S
H475 C489 0.931 . S
H476 C491 0.930 . S
C477 H465 0.930 . S
C477 C478 1.399 . S
C477 C482 1.399 . S
C478 C477 1.399 . S
C478 C479 1.376 . S
C479 H466 0.930 . S
C479 C478 1.376 . S
C479 C480 1.388 . S
C480 H467 0.930 . S
C480 C479 1.388 . S
C480 C481 1.390 . S
C481 C480 1.390 . S
C481 C482 1.394 . S
C481 C487 1.465 . S
C482 C477 1.399 . S
C482 C481 1.394 . S
C482 C483 1.516 . S
C483 C482 1.516 . S
C483 C484 1.502 . S
C483 C485 1.561 . S
C483 C486 1.526 . S
C484 H468 0.959 . S
C484 H469 0.959 . S
C484 H470 0.961 . S
C484 C483 1.502 . S
C485 H471 0.960 . S
C485 H472 0.961 . S
C485 H473 0.959 . S
C485 C483 1.561 . S
C486 C483 1.526 . S
C486 C487 1.396 . S
C486 C491 1.390 . S
C487 C481 1.465 . S
C487 C486 1.396 . S
C487 C488 1.399 . S
C488 H474 0.929 . S
C488 C487 1.399 . S
C488 C489 1.385 . S
C489 H475 0.931 . S
C489 C488 1.385 . S
C489 C490 1.389 . S
C490 C489 1.389 . S
C490 C491 1.387 . S
C491 H476 0.930 . S
C491 C486 1.390 . S
C491 C490 1.387 . S
H492 C504 0.930 . S
H493 C506 0.930 . S
H494 C507 0.930 . S
H495 C511 0.959 . S
H496 C511 0.959 . S
H497 C511 0.961 . S
H498 C512 0.960 . S
H499 C512 0.961 . S
H500 C512 0.959 . S
H501 C515 0.929 . S
H502 C516 0.931 . S
H503 C518 0.930 . S
C504 H492 0.930 . S
C504 C505 1.399 . S
C504 C509 1.399 . S
C505 C504 1.399 . S
C505 C506 1.376 . S
C506 H493 0.930 . S
C506 C505 1.376 . S
C506 C507 1.388 . S
C507 H494 0.930 . S
C507 C506 1.388 . S
C507 C508 1.390 . S
C508 C507 1.390 . S
C508 C509 1.394 . S
C508 C514 1.465 . S
C509 C504 1.399 . S
C509 C508 1.394 . S
C509 C510 1.516 . S
C510 C509 1.516 . S
C510 C511 1.502 . S
C510 C512 1.561 . S
C510 C513 1.526 . S
C511 H495 0.959 . S
C511 H496 0.959 . S
C511 H497 0.961 . S
C511 C510 1.502 . S
C512 H498 0.960 . S
C512 H499 0.961 . S
C512 H500 0.959 . S
C512 C510 1.561 . S
C513 C510 1.526 . S
C513 C514 1.396 . S
C513 C518 1.390 . S
C514 C508 1.465 . S
C514 C513 1.396 . S
C514 C515 1.399 . S
C515 H501 0.929 . S
C515 C514 1.399 . S
C515 C516 1.385 . S
C516 H502 0.931 . S
C516 C515 1.385 . S
C516 C517 1.389 . S
C517 C516 1.389 . S
C517 C518 1.387 . S
C518 H503 0.930 . S
C518 C513 1.390 . S
C518 C517 1.387 . S
H519 C531 0.930 . S
H520 C533 0.930 . S
H521 C534 0.930 . S
H522 C538 0.959 . S
H523 C538 0.959 . S
H524 C538 0.961 . S
H525 C539 0.960 . S
H526 C539 0.961 1_554 S
H527 C539 0.959 . S
H528 C542 0.929 . S
H529 C543 0.931 . S
H530 C545 0.930 . S
C531 H519 0.930 . S
C531 C532 1.399 . S
C531 C536 1.399 . S
C532 C531 1.399 . S
C532 C533 1.376 . S
C533 H520 0.930 . S
C533 C532 1.376 . S
C533 C534 1.388 . S
C534 H521 0.930 . S
C534 C533 1.388 . S
C534 C535 1.390 . S
C535 C534 1.390 . S
C535 C536 1.394 . S
C535 C541 1.465 . S
C536 C531 1.399 . S
C536 C535 1.394 . S
C536 C537 1.516 . S
C537 C536 1.516 . S
C537 C538 1.502 1_556 S
C537 C539 1.561 . S
C537 C540 1.526 . S
C538 H522 0.959 . S
C538 H523 0.959 . S
C538 H524 0.961 . S
C538 C537 1.502 1_554 S
C539 H525 0.960 . S
C539 H526 0.961 1_556 S
C539 H527 0.959 . S
C539 C537 1.561 . S
C540 C537 1.526 . S
C540 C541 1.396 . S
C540 C545 1.390 1_556 S
C541 C535 1.465 . S
C541 C540 1.396 . S
C541 C542 1.399 . S
C542 H528 0.929 . S
C542 C541 1.399 . S
C542 C543 1.385 . S
C543 H529 0.931 . S
C543 C542 1.385 . S
C543 C544 1.389 . S
C544 C543 1.389 . S
C544 C545 1.387 1_556 S
C545 H530 0.930 . S
C545 C540 1.390 1_554 S
C545 C544 1.387 1_554 S
H546 C558 0.930 . S
H547 C560 0.930 . S
H548 C561 0.930 . S
H549 C565 0.959 . S
H550 C565 0.959 . S
H551 C565 0.961 . S
H552 C566 0.960 . S
H553 C566 0.961 . S
H554 C566 0.959 . S
H555 C569 0.929 . S
H556 C570 0.931 . S
H557 C572 0.930 . S
C558 H546 0.930 . S
C558 C559 1.399 . S
C558 C563 1.399 . S
C559 C558 1.399 . S
C559 C560 1.376 . S
C560 H547 0.930 . S
C560 C559 1.376 . S
C560 C561 1.388 . S
C561 H548 0.930 . S
C561 C560 1.388 . S
C561 C562 1.390 . S
C562 C561 1.390 . S
C562 C563 1.394 . S
C562 C568 1.465 . S
C563 C558 1.399 . S
C563 C562 1.394 . S
C563 C564 1.516 . S
C564 C563 1.516 . S
C564 C565 1.502 . S
C564 C566 1.561 . S
C564 C567 1.526 . S
C565 H549 0.959 . S
C565 H550 0.959 . S
C565 H551 0.961 . S
C565 C564 1.502 . S
C566 H552 0.960 . S
C566 H553 0.961 . S
C566 H554 0.959 . S
C566 C564 1.561 . S
C567 C564 1.526 . S
C567 C568 1.396 . S
C567 C572 1.390 . S
C568 C562 1.465 . S
C568 C567 1.396 . S
C568 C569 1.399 . S
C569 H555 0.929 . S
C569 C568 1.399 . S
C569 C570 1.385 . S
C570 H556 0.931 . S
C570 C569 1.385 . S
C570 C571 1.389 . S
C571 C570 1.389 . S
C571 C572 1.387 . S
C572 H557 0.930 . S
C572 C567 1.390 . S
C572 C571 1.387 . S
H573 C585 0.930 . S
H574 C587 0.930 . S
H575 C588 0.930 . S
H576 C592 0.959 . S
H577 C592 0.959 . S
H578 C592 0.961 . S
H579 C593 0.960 . S
H580 C593 0.961 . S
H581 C593 0.959 . S
H582 C596 0.929 . S
H583 C597 0.931 . S
H584 C599 0.930 . S
C585 H573 0.930 . S
C585 C586 1.399 . S
C585 C590 1.399 . S
C586 C585 1.399 . S
C586 C587 1.376 . S
C587 H574 0.930 . S
C587 C586 1.376 . S
C587 C588 1.388 . S
C588 H575 0.930 . S
C588 C587 1.388 . S
C588 C589 1.390 . S
C589 C588 1.390 . S
C589 C590 1.394 . S
C589 C595 1.465 . S
C590 C585 1.399 . S
C590 C589 1.394 . S
C590 C591 1.516 . S
C591 C590 1.516 . S
C591 C592 1.502 . S
C591 C593 1.561 . S
C591 C594 1.526 . S
C592 H576 0.959 . S
C592 H577 0.959 . S
C592 H578 0.961 . S
C592 C591 1.502 . S
C593 H579 0.960 . S
C593 H580 0.961 . S
C593 H581 0.959 . S
C593 C591 1.561 . S
C594 C591 1.526 . S
C594 C595 1.396 . S
C594 C599 1.390 . S
C595 C589 1.465 . S
C595 C594 1.396 . S
C595 C596 1.399 . S
C596 H582 0.929 . S
C596 C595 1.399 . S
C596 C597 1.385 . S
C597 H583 0.931 . S
C597 C596 1.385 . S
C597 C598 1.389 . S
C598 C597 1.389 . S
C598 C599 1.387 . S
C599 H584 0.930 . S
C599 C594 1.390 . S
C599 C598 1.387 . S
H600 C612 0.930 . S
H601 C614 0.930 . S
H602 C615 0.930 . S
H603 C619 0.959 . S
H604 C619 0.959 . S
H605 C619 0.961 . S
H606 C620 0.960 . S
H607 C620 0.961 . S
H608 C620 0.959 . S
H609 C623 0.929 . S
H610 C624 0.931 . S
H611 C626 0.930 . S
C612 H600 0.930 . S
C612 C613 1.399 . S
C612 C617 1.399 . S
C613 C612 1.399 . S
C613 C614 1.376 . S
C614 H601 0.930 . S
C614 C613 1.376 . S
C614 C615 1.388 . S
C615 H602 0.930 . S
C615 C614 1.388 . S
C615 C616 1.390 . S
C616 C615 1.390 . S
C616 C617 1.394 . S
C616 C622 1.465 . S
C617 C612 1.399 . S
C617 C616 1.394 . S
C617 C618 1.516 . S
C618 C617 1.516 . S
C618 C619 1.502 . S
C618 C620 1.561 . S
C618 C621 1.526 . S
C619 H603 0.959 . S
C619 H604 0.959 . S
C619 H605 0.961 . S
C619 C618 1.502 . S
C620 H606 0.960 . S
C620 H607 0.961 . S
C620 H608 0.959 . S
C620 C618 1.561 . S
C621 C618 1.526 . S
C621 C622 1.396 . S
C621 C626 1.390 . S
C622 C616 1.465 . S
C622 C621 1.396 . S
C622 C623 1.399 . S
C623 H609 0.929 . S
C623 C622 1.399 . S
C623 C624 1.385 . S
C624 H610 0.931 . S
C624 C623 1.385 . S
C624 C625 1.389 . S
C625 C624 1.389 . S
C625 C626 1.387 . S
C626 H611 0.930 . S
C626 C621 1.390 . S
C626 C625 1.387 . S
H627 C639 0.930 . S
H628 C641 0.930 . S
H629 C642 0.930 . S
H630 C646 0.959 . S
H631 C646 0.959 . S
H632 C646 0.961 . S
H633 C647 0.960 . S
H634 C647 0.961 . S
H635 C647 0.959 . S
H636 C650 0.929 . S
H637 C651 0.931 . S
H638 C653 0.930 . S
C639 H627 0.930 . S
C639 C640 1.399 . S
C639 C644 1.399 . S
C640 C639 1.399 . S
C640 C641 1.376 . S
C641 H628 0.930 . S
C641 C640 1.376 . S
C641 C642 1.388 . S
C642 H629 0.930 . S
C642 C641 1.388 . S
C642 C643 1.390 . S
C643 C642 1.390 . S
C643 C644 1.394 . S
C643 C649 1.465 . S
C644 C639 1.399 . S
C644 C643 1.394 . S
C644 C645 1.516 . S
C645 C644 1.516 . S
C645 C646 1.502 . S
C645 C647 1.561 . S
C645 C648 1.526 . S
C646 H630 0.959 . S
C646 H631 0.959 . S
C646 H632 0.961 . S
C646 C645 1.502 . S
C647 H633 0.960 . S
C647 H634 0.961 . S
C647 H635 0.959 . S
C647 C645 1.561 . S
C648 C645 1.526 . S
C648 C649 1.396 . S
C648 C653 1.390 . S
C649 C643 1.465 . S
C649 C648 1.396 . S
C649 C650 1.399 . S
C650 H636 0.929 . S
C650 C649 1.399 . S
C650 C651 1.385 . S
C651 H637 0.931 . S
C651 C650 1.385 . S
C651 C652 1.389 . S
C652 C651 1.389 . S
C652 C653 1.387 . S
C653 H638 0.930 . S
C653 C648 1.390 . S
C653 C652 1.387 . S
H654 C666 0.930 . S
H655 C668 0.930 . S
H656 C669 0.930 . S
H657 C673 0.959 . S
H658 C673 0.959 . S
H659 C673 0.961 . S
H660 C674 0.960 . S
H661 C674 0.961 . S
H662 C674 0.959 . S
H663 C677 0.929 . S
H664 C678 0.931 . S
H665 C680 0.930 . S
C666 H654 0.930 . S
C666 C667 1.399 . S
C666 C671 1.399 . S
C667 C666 1.399 . S
C667 C668 1.376 . S
C668 H655 0.930 . S
C668 C667 1.376 . S
C668 C669 1.388 . S
C669 H656 0.930 . S
C669 C668 1.388 . S
C669 C670 1.390 . S
C670 C669 1.390 . S
C670 C671 1.394 . S
C670 C676 1.465 . S
C671 C666 1.399 . S
C671 C670 1.394 . S
C671 C672 1.516 . S
C672 C671 1.516 . S
C672 C673 1.502 . S
C672 C674 1.561 . S
C672 C675 1.526 . S
C673 H657 0.959 . S
C673 H658 0.959 . S
C673 H659 0.961 . S
C673 C672 1.502 . S
C674 H660 0.960 . S
C674 H661 0.961 . S
C674 H662 0.959 . S
C674 C672 1.561 . S
C675 C672 1.526 . S
C675 C676 1.396 . S
C675 C680 1.390 . S
C676 C670 1.465 . S
C676 C675 1.396 . S
C676 C677 1.399 . S
C677 H663 0.929 . S
C677 C676 1.399 . S
C677 C678 1.385 . S
C678 H664 0.931 . S
C678 C677 1.385 . S
C678 C679 1.389 . S
C679 C678 1.389 . S
C679 C680 1.387 . S
C680 H665 0.930 . S
C680 C675 1.390 . S
C680 C679 1.387 . S
H681 C693 0.930 . S
H682 C695 0.930 . S
H683 C696 0.930 . S
H684 C700 0.959 . S
H685 C700 0.959 . S
H686 C700 0.961 . S
H687 C701 0.960 . S
H688 C701 0.961 . S
H689 C701 0.959 . S
H690 C704 0.929 . S
H691 C705 0.931 . S
H692 C707 0.930 . S
C693 H681 0.930 . S
C693 C694 1.399 . S
C693 C698 1.399 . S
C694 C693 1.399 . S
C694 C695 1.376 . S
C695 H682 0.930 . S
C695 C694 1.376 . S
C695 C696 1.388 . S
C696 H683 0.930 . S
C696 C695 1.388 . S
C696 C697 1.390 . S
C697 C696 1.390 . S
C697 C698 1.394 . S
C697 C703 1.465 . S
C698 C693 1.399 . S
C698 C697 1.394 . S
C698 C699 1.516 . S
C699 C698 1.516 . S
C699 C700 1.502 . S
C699 C701 1.561 . S
C699 C702 1.526 . S
C700 H684 0.959 . S
C700 H685 0.959 . S
C700 H686 0.961 . S
C700 C699 1.502 . S
C701 H687 0.960 . S
C701 H688 0.961 . S
C701 H689 0.959 . S
C701 C699 1.561 . S
C702 C699 1.526 . S
C702 C703 1.396 . S
C702 C707 1.390 . S
C703 C697 1.465 . S
C703 C702 1.396 . S
C703 C704 1.399 . S
C704 H690 0.929 . S
C704 C703 1.399 . S
C704 C705 1.385 . S
C705 H691 0.931 . S
C705 C704 1.385 . S
C705 C706 1.389 . S
C706 C705 1.389 . S
C706 C707 1.387 . S
C707 H692 0.930 . S
C707 C702 1.390 . S
C707 C706 1.387 . S
H708 C720 0.930 . S
H709 C722 0.930 . S
H710 C723 0.930 . S
H711 C727 0.959 . S
H712 C727 0.959 . S
H713 C727 0.961 . S
H714 C728 0.960 . S
H715 C728 0.961 . S
H716 C728 0.959 . S
H717 C731 0.929 . S
H718 C732 0.931 . S
H719 C734 0.930 . S
C720 H708 0.930 . S
C720 C721 1.399 . S
C720 C725 1.399 . S
C721 C720 1.399 . S
C721 C722 1.376 . S
C722 H709 0.930 . S
C722 C721 1.376 . S
C722 C723 1.388 . S
C723 H710 0.930 . S
C723 C722 1.388 . S
C723 C724 1.390 . S
C724 C723 1.390 . S
C724 C725 1.394 . S
C724 C730 1.465 . S
C725 C720 1.399 . S
C725 C724 1.394 . S
C725 C726 1.516 . S
C726 C725 1.516 . S
C726 C727 1.502 . S
C726 C728 1.561 . S
C726 C729 1.526 . S
C727 H711 0.959 . S
C727 H712 0.959 . S
C727 H713 0.961 . S
C727 C726 1.502 . S
C728 H714 0.960 . S
C728 H715 0.961 . S
C728 H716 0.959 . S
C728 C726 1.561 . S
C729 C726 1.526 . S
C729 C730 1.396 . S
C729 C734 1.390 . S
C730 C724 1.465 . S
C730 C729 1.396 . S
C730 C731 1.399 . S
C731 H717 0.929 . S
C731 C730 1.399 . S
C731 C732 1.385 . S
C732 H718 0.931 . S
C732 C731 1.385 . S
C732 C733 1.389 . S
C733 C732 1.389 . S
C733 C734 1.387 . S
C734 H719 0.930 . S
C734 C729 1.390 . S
C734 C733 1.387 . S
H735 C747 0.930 . S
H736 C749 0.930 . S
H737 C750 0.930 . S
H738 C754 0.959 . S
H739 C754 0.959 . S
H740 C754 0.961 . S
H741 C755 0.960 . S
H742 C755 0.961 . S
H743 C755 0.959 . S
H744 C758 0.929 . S
H745 C759 0.931 . S
H746 C761 0.930 . S
C747 H735 0.930 . S
C747 C748 1.399 . S
C747 C752 1.399 . S
C748 C747 1.399 . S
C748 C749 1.376 . S
C749 H736 0.930 . S
C749 C748 1.376 . S
C749 C750 1.388 . S
C750 H737 0.930 . S
C750 C749 1.388 . S
C750 C751 1.390 . S
C751 C750 1.390 . S
C751 C752 1.394 . S
C751 C757 1.465 . S
C752 C747 1.399 . S
C752 C751 1.394 . S
C752 C753 1.516 . S
C753 C752 1.516 . S
C753 C754 1.502 . S
C753 C755 1.561 . S
C753 C756 1.526 . S
C754 H738 0.959 . S
C754 H739 0.959 . S
C754 H740 0.961 . S
C754 C753 1.502 . S
C755 H741 0.960 . S
C755 H742 0.961 . S
C755 H743 0.959 . S
C755 C753 1.561 . S
C756 C753 1.526 . S
C756 C757 1.396 . S
C756 C761 1.390 . S
C757 C751 1.465 . S
C757 C756 1.396 . S
C757 C758 1.399 . S
C758 H744 0.929 . S
C758 C757 1.399 . S
C758 C759 1.385 . S
C759 H745 0.931 . S
C759 C758 1.385 . S
C759 C760 1.389 . S
C760 C759 1.389 . S
C760 C761 1.387 . S
C761 H746 0.930 . S
C761 C756 1.390 . S
C761 C760 1.387 . S
H762 C774 0.930 . S
H763 C776 0.930 . S
H764 C777 0.930 . S
H765 C781 0.959 . S
H766 C781 0.959 . S
H767 C781 0.961 . S
H768 C782 0.960 . S
H769 C782 0.961 . S
H770 C782 0.959 . S
H771 C785 0.929 . S
H772 C786 0.931 . S
H773 C788 0.930 . S
C774 H762 0.930 . S
C774 C775 1.399 . S
C774 C779 1.399 . S
C775 C774 1.399 . S
C775 C776 1.376 . S
C776 H763 0.930 . S
C776 C775 1.376 . S
C776 C777 1.388 . S
C777 H764 0.930 . S
C777 C776 1.388 . S
C777 C778 1.390 . S
C778 C777 1.390 . S
C778 C779 1.394 . S
C778 C784 1.465 . S
C779 C774 1.399 . S
C779 C778 1.394 . S
C779 C780 1.516 . S
C780 C779 1.516 . S
C780 C781 1.502 . S
C780 C782 1.561 . S
C780 C783 1.526 . S
C781 H765 0.959 . S
C781 H766 0.959 . S
C781 H767 0.961 . S
C781 C780 1.502 . S
C782 H768 0.960 . S
C782 H769 0.961 . S
C782 H770 0.959 . S
C782 C780 1.561 . S
C783 C780 1.526 . S
C783 C784 1.396 . S
C783 C788 1.390 . S
C784 C778 1.465 . S
C784 C783 1.396 . S
C784 C785 1.399 . S
C785 H771 0.929 . S
C785 C784 1.399 . S
C785 C786 1.385 . S
C786 H772 0.931 . S
C786 C785 1.385 . S
C786 C787 1.389 . S
C787 C786 1.389 . S
C787 C788 1.387 . S
C788 H773 0.930 . S
C788 C783 1.390 . S
C788 C787 1.387 . S
H789 C801 0.930 . S
H790 C803 0.930 . S
H791 C804 0.930 . S
H792 C808 0.959 . S
H793 C808 0.959 . S
H794 C808 0.961 . S
H795 C809 0.960 . S
H796 C809 0.961 . S
H797 C809 0.959 . S
H798 C812 0.929 . S
H799 C813 0.931 . S
H800 C815 0.930 . S
C801 H789 0.930 . S
C801 C802 1.399 . S
C801 C806 1.399 . S
C802 C801 1.399 . S
C802 C803 1.376 . S
C803 H790 0.930 . S
C803 C802 1.376 . S
C803 C804 1.388 . S
C804 H791 0.930 . S
C804 C803 1.388 . S
C804 C805 1.390 . S
C805 C804 1.390 . S
C805 C806 1.394 . S
C805 C811 1.465 . S
C806 C801 1.399 . S
C806 C805 1.394 . S
C806 C807 1.516 . S
C807 C806 1.516 . S
C807 C808 1.502 . S
C807 C809 1.561 . S
C807 C810 1.526 . S
C808 H792 0.959 . S
C808 H793 0.959 . S
C808 H794 0.961 . S
C808 C807 1.502 . S
C809 H795 0.960 . S
C809 H796 0.961 . S
C809 H797 0.959 . S
C809 C807 1.561 . S
C810 C807 1.526 . S
C810 C811 1.396 . S
C810 C815 1.390 . S
C811 C805 1.465 . S
C811 C810 1.396 . S
C811 C812 1.399 . S
C812 H798 0.929 . S
C812 C811 1.399 . S
C812 C813 1.385 . S
C813 H799 0.931 . S
C813 C812 1.385 . S
C813 C814 1.389 . S
C814 C813 1.389 . S
C814 C815 1.387 . S
C815 H800 0.930 . S
C815 C810 1.390 . S
C815 C814 1.387 . S
C181 C120 1.396 . S
C193 C8 1.419 . S
C208 C22 1.375 . S
C220 C134 1.397 . S
C235 C36 1.403 . S
C247 C148 1.374 . S
C262 C50 1.416 . S
C274 C162 1.404 . S
C289 C92 1.404 . S
C301 C64 1.415 . S
C316 C78 1.407 . S
C328 C106 1.374 . S
C343 C7 1.472 . S
C355 C73 1.477 1_554 S
C370 C21 1.480 . S
C382 C3 1.496 . S
C397 C35 1.494 . S
C409 C17 1.502 . S
C424 C31 1.495 . S
C436 C49 1.481 . S
C451 C45 1.541 . S
C463 C63 1.525 . S
C478 C59 1.525 . S
C490 C77 1.524 . S
C505 C101 1.493 . S
C517 C91 1.475 . S
C532 C105 1.479 . S
C544 C115 1.495 1_556 S
C559 C129 1.537 . S
C571 C119 1.533 . S
C586 C133 1.525 . S
C598 C143 1.541 . S
C613 C147 1.526 . S
C625 C157 1.541 . S
C640 C161 1.516 . S
C652 C87 1.518 . S
C667 C149 1.236 . S
C679 C9 1.239 . S
C694 C163 1.235 . S
C706 C23 1.236 . S
C721 C93 1.264 . S
C733 C37 1.268 . S
C748 C51 1.281 . S
C760 C107 1.283 . S
C775 C65 1.266 . S
C787 C121 1.263 . S
C802 C135 1.255 . S
C814 C79 1.259 . S
