# Generated by pormake.
# Topology mdf, (4)-cn, num edge types: 1
# Building blocks:
#     Node 0, Type 0, BuildingBlock: QUQFOY_clean_sbu_3, # of connection points: 4
#     Node 1, Type 0, BuildingBlock: QUQFOY_clean_sbu_3, # of connection points: 4
#     Node 2, Type 0, BuildingBlock: QUQFOY_clean_sbu_3, # of connection points: 4
#     Node 3, Type 0, BuildingBlock: QUQFOY_clean_sbu_3, # of connection points: 4
#     Node 4, Type 0, BuildingBlock: QUQFOY_clean_sbu_3, # of connection points: 4
#     Node 5, Type 0, BuildingBlock: QUQFOY_clean_sbu_3, # of connection points: 4
#     Node 6, Type 0, BuildingBlock: QUQFOY_clean_sbu_3, # of connection points: 4
#     Node 7, Type 0, BuildingBlock: QUQFOY_clean_sbu_3, # of connection points: 4
#     Edge 8, Type (0, 0), BuildingBlock: TEMPAE_clean_linker_10, # of connection points: 2
#     Edge 9, Type (0, 0), BuildingBlock: TEMPAE_clean_linker_10, # of connection points: 2
#     Edge 10, Type (0, 0), BuildingBlock: TEMPAE_clean_linker_10, # of connection points: 2
#     Edge 11, Type (0, 0), BuildingBlock: TEMPAE_clean_linker_10, # of connection points: 2
#     Edge 12, Type (0, 0), BuildingBlock: TEMPAE_clean_linker_10, # of connection points: 2
#     Edge 13, Type (0, 0), BuildingBlock: TEMPAE_clean_linker_10, # of connection points: 2
#     Edge 14, Type (0, 0), BuildingBlock: TEMPAE_clean_linker_10, # of connection points: 2
#     Edge 15, Type (0, 0), BuildingBlock: TEMPAE_clean_linker_10, # of connection points: 2
#     Edge 16, Type (0, 0), BuildingBlock: TEMPAE_clean_linker_10, # of connection points: 2
#     Edge 17, Type (0, 0), BuildingBlock: TEMPAE_clean_linker_10, # of connection points: 2
#     Edge 18, Type (0, 0), BuildingBlock: TEMPAE_clean_linker_10, # of connection points: 2
#     Edge 19, Type (0, 0), BuildingBlock: TEMPAE_clean_linker_10, # of connection points: 2
#     Edge 20, Type (0, 0), BuildingBlock: TEMPAE_clean_linker_10, # of connection points: 2
#     Edge 21, Type (0, 0), BuildingBlock: TEMPAE_clean_linker_10, # of connection points: 2
#     Edge 22, Type (0, 0), BuildingBlock: TEMPAE_clean_linker_10, # of connection points: 2
#     Edge 23, Type (0, 0), BuildingBlock: TEMPAE_clean_linker_10, # of connection points: 2
# Relax obj value: 0.015
# Max RMSD: 0.038
# Mean RMSD: 0.038
data_MOF--net-mdf--node1-QUQFOY_clean_sbu_3--edge1-TEMPAE_clean_linker_10
_symmetry_space_group_name_H-M    P1
_symmetry_Int_Tables_number       1
_symmetry_cell_setting            triclinic
loop_
_symmetry_equiv_pos_as_xyz
'x, y, z'
_cell_length_a     39.542835
_cell_length_b     39.565114
_cell_length_c     12.086732
_cell_angle_alpha  89.856528
_cell_angle_beta   89.979967
_cell_angle_gamma 92.281837
loop_
_atom_site_label
_atom_site_type_symbol
_atom_site_fract_x
_atom_site_fract_y
_atom_site_fract_z
_atom_type_partial_charge
C0 C 0.26152 0.54224 0.14473 0.0
O1 O 0.24911 0.51607 0.09692 0.0
Cd2 Cd 0.21645 0.47523 0.20251 0.0
O3 O 0.25604 0.54737 0.24685 0.0
Cd4 Cd 0.22652 0.52547 0.41094 0.0
C5 C 0.27682 0.45886 0.40285 0.0
O6 O 0.17697 0.50571 0.30982 0.0
O7 O 0.18056 0.48712 0.47691 0.0
O8 O 0.21688 0.58536 0.42685 0.0
C9 C 0.16353 0.48875 0.38835 0.0
O10 O 0.25891 0.44974 0.31965 0.0
C11 C 0.21784 0.58631 0.53157 0.0
O12 O 0.27214 0.48692 0.45122 0.0
O13 O 0.22397 0.5589 0.58164 0.0
C14 C 0.44019 0.70142 0.83321 0.0
O15 O 0.46526 0.70903 0.89514 0.0
Cd16 Cd 0.51089 0.74614 0.83285 0.0
O17 O 0.43807 0.71408 0.73692 0.0
Cd18 Cd 0.46719 0.75357 0.61114 0.0
C19 C 0.53328 0.70234 0.59813 0.0
O20 O 0.48708 0.79424 0.748 0.0
O21 O 0.51004 0.7988 0.58584 0.0
O22 O 0.41316 0.77878 0.59355 0.0
C23 C 0.50667 0.81067 0.68249 0.0
O24 O 0.54012 0.71353 0.69465 0.0
C25 C 0.41114 0.777 0.48913 0.0
O26 O 0.50641 0.7106 0.54794 0.0
O27 O 0.43532 0.76323 0.43885 0.0
C28 C 0.21858 0.92325 0.62774 0.0
O29 O 0.22218 0.94743 0.55898 0.0
Cd30 Cd 0.24795 0.00135 0.60662 0.0
O31 O 0.22781 0.92693 0.72776 0.0
Cd32 Cd 0.2532 0.97008 0.84948 0.0
C33 C 0.19322 0.02794 0.80687 0.0
O34 O 0.29585 0.99068 0.72001 0.0
O35 O 0.29018 0.02039 0.86871 0.0
O36 O 0.29215 0.93221 0.93046 0.0
C37 C 0.30647 0.01507 0.78024 0.0
O38 O 0.20618 0.03179 0.71096 0.0
C39 C 0.27718 0.9284 0.02245 0.0
O40 O 0.20391 0.00564 0.87333 0.0
O41 O 0.25035 0.94445 0.03708 0.0
C42 C 0.05843 0.74662 0.37289 0.0
O43 O 0.03235 0.73573 0.42521 0.0
Cd44 Cd 0.98424 0.71377 0.32545 0.0
O45 O 0.05878 0.74755 0.26752 0.0
Cd46 Cd 0.02611 0.73433 0.09883 0.0
C47 C 0.96221 0.7843 0.173 0.0
O48 O 0.01033 0.6814 0.18427 0.0
O49 O 0.98648 0.68932 0.02737 0.0
O50 O 0.0844 0.73222 0.03744 0.0
C51 C 0.99087 0.66995 0.10936 0.0
O52 O 0.95572 0.76293 0.25006 0.0
C53 C 0.07849 0.73668 0.93554 0.0
O54 O 0.98756 0.78101 0.10929 0.0
O55 O 0.04792 0.741 0.90851 0.0
C56 C 0.77358 0.03469 0.69483 0.0
O57 O 0.76126 0.0079 0.65046 0.0
Cd58 Cd 0.72859 0.96845 0.76067 0.0
O59 O 0.76849 0.04085 0.7966 0.0
Cd60 Cd 0.74006 0.02069 0.96552 0.0
C61 C 0.78844 0.95255 0.96411 0.0
O62 O 0.69062 0.00183 0.86373 0.0
O63 O 0.6921 0.98457 0.03259 0.0
O64 O 0.73324 0.08115 0.97369 0.0
C65 C 0.67588 0.98613 0.94239 0.0
O66 O 0.77048 0.94339 0.88104 0.0
C67 C 0.73263 0.08326 0.0782 0.0
O68 O 0.78446 0.98109 0.01032 0.0
O69 O 0.73687 0.05614 0.13235 0.0
C70 C 0.9387 0.19777 0.33027 0.0
O71 O 0.96441 0.2074 0.38651 0.0
Cd72 Cd 0.00758 0.24463 0.31034 0.0
O73 O 0.93468 0.20837 0.232 0.0
Cd74 Cd 0.96105 0.2461 0.09394 0.0
C75 C 0.02781 0.19571 0.08477 0.0
O76 O 0.97954 0.28998 0.22297 0.0
O77 O 0.00123 0.29331 0.05918 0.0
O78 O 0.90245 0.26046 0.07106 0.0
C79 C -0.00228 0.30652 0.15374 0.0
O80 O 0.03602 0.20945 0.17666 0.0
C81 C 0.90359 0.2635 0.96672 0.0
O82 O 8e-05 0.20241 0.03698 0.0
O83 O 0.93145 0.2572 0.91975 0.0
C84 C 0.71839 0.43344 0.15474 0.0
O85 O 0.73323 0.45492 0.09132 0.0
Cd86 Cd 0.76131 0.50393 0.16842 0.0
O87 O 0.72074 0.43585 0.25938 0.0
Cd88 Cd 0.74982 0.46763 0.40736 0.0
C89 C 0.69942 0.53189 0.34904 0.0
O90 O 0.79947 0.48034 0.29697 0.0
O91 O 0.79708 0.50802 0.44948 0.0
O92 O 0.75753 0.40999 0.4639 0.0
C93 C 0.81352 0.50134 0.36266 0.0
O94 O 0.717 0.53572 0.26103 0.0
C95 C 0.75625 0.41524 0.56716 0.0
O96 O 0.70489 0.5079 0.41651 0.0
O97 O 0.75107 0.44532 0.59806 0.0
C98 C 0.55204 0.27265 0.79943 0.0
O99 O 0.53079 0.25476 0.85504 0.0
Cd100 Cd 0.48306 0.22952 0.76052 0.0
O101 O 0.55081 0.27368 0.69438 0.0
Cd102 Cd 0.52344 0.24847 0.53092 0.0
C103 C 0.45872 0.29717 0.59299 0.0
O104 O 0.50712 0.19593 0.62072 0.0
O105 O 0.48289 0.20452 0.46431 0.0
O106 O 0.58256 0.24132 0.49529 0.0
C107 C 0.4868 0.18518 0.54674 0.0
O108 O 0.45419 0.27702 0.67479 0.0
C109 C 0.58093 0.24368 0.39092 0.0
O110 O 0.48341 0.29387 0.52633 0.0
O111 O 0.5522 0.24968 0.34935 0.0
C112 C 0.38122 0.6773 0.81975 0.0
C113 C 0.41286 0.678 0.87245 0.0
C114 C 0.35479 0.65542 0.85598 0.0
C115 C 0.36041 0.63345 0.94588 0.0
C116 C 0.39241 0.6337 -0.00149 0.0
C117 C 0.41823 0.65623 0.96166 0.0
C118 C 0.32074 0.65626 0.79951 0.0
C119 C 0.39929 0.6103 0.09416 0.0
C120 C 0.28817 0.59972 0.12346 0.0
C121 C 0.28387 0.5665 0.08444 0.0
C122 C 0.31208 0.62228 0.07571 0.0
C123 C 0.33249 0.61106 0.98816 0.0
C124 C 0.3274 0.57796 0.94548 0.0
C125 C 0.30282 0.55606 0.99374 0.0
C126 C 0.31631 0.65769 0.12162 0.0
C127 C 0.34895 0.5652 0.8525 0.0
H128 H 0.37689 0.69427 0.75109 0.0
H129 H 0.44272 0.65657 0.00202 0.0
H130 H 0.31307 0.63072 0.76858 0.0
H131 H 0.30122 0.66365 0.85981 0.0
H132 H 0.32082 0.67431 0.72896 0.0
H133 H 0.426 0.6126 0.12257 0.0
H134 H 0.38256 0.61605 0.1648 0.0
H135 H 0.39349 0.58367 0.06987 0.0
H136 H 0.27319 0.60794 0.19286 0.0
H137 H 0.29956 0.53033 0.96381 0.0
H138 H 0.31532 0.67659 0.05386 0.0
H139 H 0.34145 0.66101 0.1617 0.0
H140 H 0.29653 0.66322 0.18358 0.0
H141 H 0.34853 0.58276 0.7809 0.0
H142 H 0.34037 0.53955 0.82441 0.0
H143 H 0.37562 0.56424 0.88046 0.0
C144 C 0.36443 0.81733 0.48448 0.0
C145 C 0.3834 0.7932 0.42978 0.0
C146 C 0.34171 0.83708 0.42645 0.0
C147 C 0.3374 0.83203 0.31155 0.0
C148 C 0.35388 0.80538 0.25829 0.0
C149 C 0.37723 0.78662 0.31767 0.0
C150 C 0.32421 0.86489 0.48641 0.0
C151 C 0.34814 0.79791 0.13722 0.0
C152 C 0.27061 0.8813 0.15973 0.0
C153 C 0.29107 0.90608 0.10671 0.0
C154 C 0.28508 0.85661 0.22678 0.0
C155 C 0.3206 0.85793 0.24413 0.0
C156 C 0.34092 0.88423 0.19524 0.0
C157 C 0.32597 0.9075 0.12525 0.0
C158 C 0.26216 0.82924 0.27688 0.0
C159 C 0.37864 0.88756 0.21539 0.0
H160 H 0.36876 0.82224 0.57164 0.0
H161 H 0.39126 0.76745 0.27568 0.0
H162 H 0.33302 0.88985 0.45275 0.0
H163 H 0.29649 0.86237 0.47283 0.0
H164 H 0.32915 0.86458 0.57687 0.0
H165 H 0.35804 0.77308 0.11317 0.0
H166 H 0.32071 0.79798 0.11754 0.0
H167 H 0.3611 0.81789 0.08632 0.0
H168 H 0.24356 0.88019 0.14445 0.0
H169 H 0.34165 0.92686 0.08424 0.0
H170 H 0.25131 0.83871 0.35508 0.0
H171 H 0.27565 0.80584 0.29546 0.0
H172 H 0.24066 0.82273 0.22066 0.0
H173 H 0.38396 0.88739 0.30555 0.0
H174 H 0.39014 0.91117 0.17921 0.0
H175 H 0.39124 0.86573 0.17839 0.0
C176 C 0.0838 0.77611 0.53646 0.0
C177 C 0.08792 0.76095 0.43309 0.0
C178 C 0.10979 0.79685 0.58158 0.0
C179 C 0.14038 0.80197 0.52191 0.0
C180 C 0.14629 0.78271 0.42615 0.0
C181 C 0.11972 0.76273 0.3816 0.0
C182 C 0.10342 0.81561 0.68759 0.0
C183 C 0.17977 0.78529 0.36613 0.0
C184 C 0.17703 0.89146 0.51017 0.0
C185 C 0.2012 0.89132 0.59443 0.0
C186 C 0.15723 0.86236 0.48617 0.0
C187 C 0.16263 0.83204 0.54537 0.0
C188 C 0.18819 0.83131 0.6271 0.0
C189 C 0.20687 0.8612 0.65186 0.0
C190 C 0.12962 0.8645 0.40015 0.0
C191 C 0.19559 0.79968 0.69136 0.0
H192 H 0.05947 0.77396 0.57784 0.0
H193 H 0.12335 0.74986 0.30364 0.0
H194 H 0.12435 0.81178 0.7468 0.0
H195 H 0.10267 0.84314 0.67021 0.0
H196 H 0.07921 0.80712 0.72743 0.0
H197 H 0.18297 0.76348 0.30989 0.0
H198 H 0.18118 0.80881 0.3159 0.0
H199 H 0.20108 0.78653 0.42601 0.0
H200 H 0.17247 0.91479 0.46635 0.0
H201 H 0.22578 0.861 0.7168 0.0
H202 H 0.10487 0.85612 0.43636 0.0
H203 H 0.1348 0.84745 0.33 0.0
H204 H 0.12742 0.89054 0.36704 0.0
H205 H 0.18624 0.80226 0.77742 0.0
H206 H 0.22335 0.79663 0.6963 0.0
H207 H 0.1837 0.77642 0.65507 0.0
C208 C 0.09615 0.71685 0.75028 0.0
C209 C 0.10504 0.73105 0.85266 0.0
C210 C 0.12026 0.70064 0.68646 0.0
C211 C 0.154 0.69943 0.72548 0.0
C212 C 0.16404 0.71861 0.81922 0.0
C213 C 0.13924 0.73375 0.88324 0.0
C214 C 0.10868 0.68144 0.5846 0.0
C215 C 0.20032 0.72041 0.85781 0.0
C216 C 0.1908 0.61324 0.69237 0.0
C217 C 0.20765 0.61675 0.59108 0.0
C218 C 0.17435 0.6405 0.73895 0.0
C219 C 0.1758 0.67237 0.68453 0.0
C220 C 0.19524 0.67674 0.58688 0.0
C221 C 0.21062 0.64868 0.5404 0.0
C222 C 0.15355 0.63448 0.84263 0.0
C223 C 0.19947 0.71075 0.5307 0.0
H224 H 0.06979 0.71532 0.72538 0.0
H225 H 0.14633 0.74568 0.96096 0.0
H226 H 0.12602 0.68711 0.51429 0.0
H227 H 0.10911 0.65386 0.60129 0.0
H228 H 0.08262 0.68768 0.55952 0.0
H229 H 0.2054 0.74243 0.91308 0.0
H230 H 0.2058 0.69706 0.90441 0.0
H231 H 0.2179 0.72226 0.78626 0.0
H232 H 0.18844 0.58856 0.73145 0.0
H233 H 0.22423 0.65151 0.46282 0.0
H234 H 0.12666 0.63978 0.82597 0.0
H235 H 0.16257 0.65186 0.9091 0.0
H236 H 0.15479 0.6081 0.87366 0.0
H237 H 0.1752 0.72377 0.52746 0.0
H238 H 0.2095 0.70862 0.44525 0.0
H239 H 0.21752 0.72699 0.57917 0.0
C240 C 0.79762 0.09284 0.66415 0.0
C241 C 0.79435 0.05908 0.62956 0.0
C242 C 0.81922 0.11604 0.60884 0.0
C243 C 0.83844 0.10495 0.51821 0.0
C244 C 0.83445 0.07117 0.48051 0.0
C245 C 0.81211 0.04862 0.53628 0.0
C246 C 0.82227 0.15211 0.64963 0.0
C247 C 0.85481 0.05852 0.38448 0.0
C248 C 0.88054 0.17115 0.33221 0.0
C249 C 0.9131 0.17399 0.37825 0.0
C250 C 0.85588 0.14863 0.37661 0.0
C251 C 0.86429 0.1282 0.46786 0.0
C252 C 0.89721 0.13068 0.51389 0.0
C253 C 0.92119 0.15382 0.46903 0.0
C254 C 0.82075 0.14709 0.32711 0.0
C255 C 0.90708 0.10895 0.61072 0.0
H256 H 0.78348 0.10109 0.73541 0.0
H257 H 0.80957 0.0225 0.50959 0.0
H258 H 0.84797 0.15734 0.68386 0.0
H259 H 0.81884 0.17 0.58009 0.0
H260 H 0.80341 0.15729 0.71498 0.0
H261 H 0.84727 0.03212 0.36147 0.0
H262 H 0.85179 0.07502 0.31111 0.0
H263 H 0.88209 0.05954 0.40638 0.0
H264 H 0.87415 0.1869 0.26234 0.0
H265 H 0.9464 0.1558 0.5042 0.0
H266 H 0.80198 0.15404 0.39054 0.0
H267 H 0.8139 0.12094 0.30012 0.0
H268 H 0.81853 0.16436 0.25507 0.0
H269 H 0.89133 0.11467 0.68376 0.0
H270 H 0.93415 0.11298 0.63361 0.0
H271 H 0.90231 0.08182 0.59071 0.0
C272 C 0.84251 0.27698 0.95227 0.0
C273 C 0.87506 0.27764 0.90569 0.0
C274 C 0.81644 0.29501 0.90363 0.0
C275 C 0.82357 0.31493 0.80847 0.0
C276 C 0.85597 0.31433 0.75835 0.0
C277 C 0.88118 0.2953 0.80682 0.0
C278 C 0.78177 0.29378 0.95638 0.0
C279 C 0.86467 0.33536 0.65696 0.0
C280 C 0.76226 0.35442 0.61269 0.0
C281 C 0.7652 0.38839 0.64536 0.0
C282 C 0.7783 0.32923 0.67249 0.0
C283 C 0.79847 0.33854 0.76496 0.0
C284 C 0.79879 0.37229 0.80427 0.0
C285 C 0.78174 0.39682 0.74443 0.0
C286 C 0.77595 0.29326 0.63101 0.0
C287 C 0.81981 0.38326 0.90303 0.0
H288 H 0.83762 0.26302 0.02831 0.0
H289 H 0.90632 0.29592 0.77083 0.0
H290 H 0.77729 0.31825 -0.00262 0.0
H291 H 0.76182 0.28985 0.89266 0.0
H292 H 0.77898 0.27331 0.01921 0.0
H293 H 0.89081 0.33156 0.62711 0.0
H294 H 0.84676 0.32892 0.58891 0.0
H295 H 0.86222 0.36258 0.67609 0.0
H296 H 0.74891 0.34776 0.53699 0.0
H297 H 0.78387 0.42305 0.77014 0.0
H298 H 0.77418 0.27504 0.70091 0.0
H299 H 0.79911 0.28795 0.58329 0.0
H300 H 0.75373 0.2888 0.57596 0.0
H301 H 0.81539 0.3656 0.97336 0.0
H302 H 0.81419 0.40922 0.93055 0.0
H303 H 0.84706 0.38279 0.88112 0.0
C304 C 0.66688 0.39603 0.15984 0.0
C305 C 0.69736 0.40575 0.10788 0.0
C306 C 0.64514 0.37127 0.1132 0.0
C307 C 0.65481 0.35518 0.01437 0.0
C308 C 0.68673 0.36325 0.96582 0.0
C309 C 0.7074 0.38915 0.01191 0.0
C310 C 0.61113 0.36359 0.16656 0.0
C311 C 0.69867 0.34531 0.86378 0.0
C312 C 0.59901 0.27894 0.93575 0.0
C313 C 0.57836 0.29314 0.8555 0.0
C314 C 0.62545 0.29837 0.98441 0.0
C315 C 0.62983 0.333 0.95572 0.0
C316 C 0.60875 0.34733 0.87501 0.0
C317 C 0.58366 0.32696 0.82422 0.0
C318 C 0.64836 0.28183 0.06646 0.0
C319 C 0.61212 0.38435 0.84417 0.0
H320 H 0.65935 0.4089 0.23451 0.0
H321 H 0.73142 0.39629 0.97334 0.0
H322 H 0.59061 0.36986 0.1082 0.0
H323 H 0.60813 0.33622 0.18579 0.0
H324 H 0.60776 0.37806 0.24417 0.0
H325 H 0.72653 0.34826 0.85383 0.0
H326 H 0.69151 0.31791 0.86721 0.0
H327 H 0.68664 0.3561 0.78946 0.0
H328 H 0.59506 0.25252 0.9582 0.0
H329 H 0.56755 0.33766 0.76167 0.0
H330 H 0.63915 0.28637 0.15158 0.0
H331 H 0.67475 0.29232 0.06044 0.0
H332 H 0.64855 0.25409 0.05332 0.0
H333 H 0.60902 0.40017 0.91895 0.0
H334 H 0.5931 0.39158 0.78169 0.0
H335 H 0.63773 0.39036 0.81033 0.0
C336 C 0.70391 0.11268 0.23098 0.0
C337 C 0.72211 0.11462 0.13177 0.0
C338 C 0.68596 0.14028 0.26831 0.0
C339 C 0.68717 0.17084 0.20652 0.0
C340 C 0.7086 0.17407 0.11302 0.0
C341 C 0.72535 0.14565 0.07543 0.0
C342 C 0.66342 0.1357 0.36865 0.0
C343 C 0.71217 0.20668 0.04822 0.0
C344 C 0.6041 0.2141 0.22871 0.0
C345 C 0.60986 0.23383 0.32317 0.0
C346 C 0.63007 0.19529 0.18374 0.0
C347 C 0.66268 0.19723 0.23271 0.0
C348 C 0.66958 0.22059 0.31892 0.0
C349 C 0.64286 0.23819 0.36474 0.0
C350 C 0.62175 0.17105 0.09049 0.0
C351 C 0.70444 0.22492 0.36893 0.0
H352 H 0.70141 0.08874 0.2747 0.0
H353 H 0.73984 0.14734 -0.00073 0.0
H354 H 0.66891 0.15612 0.42943 0.0
H355 H 0.63653 0.13732 0.34347 0.0
H356 H 0.6666 0.11096 0.41027 0.0
H357 H 0.73651 0.20842 0.00218 0.0
H358 H 0.69134 0.2077 0.98701 0.0
H359 H 0.71072 0.22904 0.10302 0.0
H360 H 0.57861 0.21083 0.19636 0.0
H361 H 0.6474 0.25388 0.43708 0.0
H362 H 0.62314 0.14465 0.12099 0.0
H363 H 0.64044 0.17448 0.02264 0.0
H364 H 0.59605 0.17449 0.05622 0.0
H365 H 0.70869 0.20381 0.4272 0.0
H366 H 0.70747 0.24906 0.41537 0.0
H367 H 0.72426 0.22435 0.30398 0.0
C368 C 0.30601 0.4041 0.39552 0.0
C369 C 0.30406 0.43672 0.43987 0.0
C370 C 0.33218 0.38302 0.42509 0.0
C371 C 0.35727 0.39482 0.50064 0.0
C372 C 0.35543 0.4276 0.54657 0.0
C373 C 0.32875 0.44816 0.51593 0.0
C374 C 0.33302 0.3481 0.37504 0.0
C375 C 0.38182 0.44104 0.62713 0.0
C376 C 0.40532 0.32571 0.64143 0.0
C377 C 0.43422 0.32409 0.57434 0.0
C378 C 0.38071 0.34951 0.62099 0.0
C379 C 0.3851 0.37241 0.5316 0.0
C380 C 0.41478 0.37181 0.46611 0.0
C381 C 0.43895 0.34759 0.48802 0.0
C382 C 0.34933 0.3492 0.69238 0.0
C383 C 0.42045 0.396 0.37047 0.0
H384 H 0.28702 0.3949 0.3371 0.0
H385 H 0.32753 0.47336 0.55027 0.0
H386 H 0.35691 0.34546 0.32825 0.0
H387 H 0.33242 0.32869 0.4415 0.0
H388 H 0.31141 0.34266 0.31824 0.0
H389 H 0.37666 0.46697 0.65597 0.0
H390 H 0.38287 0.42408 0.70017 0.0
H391 H 0.40717 0.44147 0.58762 0.0
H392 H 0.40142 0.3078 0.70866 0.0
H393 H 0.46128 0.34673 0.43623 0.0
H394 H 0.32691 0.34145 0.64197 0.0
H395 H 0.34506 0.37494 0.72433 0.0
H396 H 0.35094 0.33156 0.76367 0.0
H397 H 0.40141 0.39035 0.30497 0.0
H398 H 0.4461 0.3943 0.33388 0.0
H399 H 0.41705 0.4224 0.39782 0.0
C400 C 0.64159 0.93294 0.97394 0.0
C401 C 0.64569 0.96431 0.9208 0.0
C402 C 0.61625 0.90943 0.94018 0.0
C403 C 0.59403 0.91807 0.85362 0.0
C404 C 0.59655 0.9507 0.80549 0.0
C405 C 0.62279 0.97329 0.83848 0.0
C406 C 0.61477 0.87461 0.99185 0.0
C407 C 0.57262 0.96118 0.71551 0.0
C408 C 0.55963 0.84655 0.67366 0.0
C409 C 0.52797 0.83945 0.722 0.0
C410 C 0.58132 0.87223 0.7157 0.0
C411 C 0.57056 0.89185 0.80606 0.0
C412 C 0.53806 0.88562 0.85246 0.0
C413 C 0.51729 0.85906 0.81086 0.0
C414 C 0.61611 0.87771 0.66545 0.0
C415 C 0.52539 0.90678 0.94645 0.0
H416 H 0.65949 0.92595 0.03713 0.0
H417 H 0.6259 -0.00227 0.79809 0.0
H418 H 0.58872 0.8678 0.02028 0.0
H419 H 0.62163 0.85565 0.92899 0.0
H420 H 0.6323 0.87273 0.06321 0.0
H421 H 0.57484 0.98878 0.6985 0.0
H422 H 0.57822 0.94752 0.63801 0.0
H423 H 0.54605 0.95435 0.73864 0.0
H424 H 0.56794 0.83123 0.60534 0.0
H425 H 0.49262 0.85368 0.84753 0.0
H426 H 0.63573 0.87428 0.72968 0.0
H427 H 0.61939 0.90397 0.63382 0.0
H428 H 0.62064 0.85999 0.59634 0.0
H429 H 0.54113 0.90308 0.02111 0.0
H430 H 0.49858 0.90024 0.96763 0.0
H431 H 0.5277 0.93402 0.92444 0.0
C432 C 0.08445 0.17043 0.07139 0.0
C433 C 0.05064 0.17088 0.03638 0.0
C434 C 0.10633 0.14634 0.03108 0.0
C435 C 0.09405 0.12169 0.9549 0.0
C436 C 0.05997 0.12197 0.91883 0.0
C437 C 0.0387 0.14678 0.95935 0.0
C438 C 0.14266 0.1473 0.0701 0.0
C439 C 0.04591 0.09583 0.83861 0.0
C440 C 0.16065 0.08025 0.78125 0.0
C441 C 0.16625 0.05065 0.84176 0.0
C442 C 0.13661 0.10314 0.81562 0.0
C443 C 0.1173 0.09609 0.91206 0.0
C444 C 0.12198 0.06574 0.97158 0.0
C445 C 0.14662 0.04349 0.93624 0.0
C446 C 0.13279 0.13547 0.75086 0.0
C447 C 0.1015 0.05714 0.074 0.0
H448 H 0.09394 0.18909 0.13039 0.0
H449 H 0.01254 0.14683 0.93262 0.0
H450 H 0.14821 0.12321 0.11221 0.0
H451 H 0.16001 0.14999 -0.00184 0.0
H452 H 0.14835 0.16849 0.1282 0.0
H453 H 0.0188 0.09935 0.81942 0.0
H454 H 0.06052 0.09707 0.76026 0.0
H455 H 0.04856 0.07011 0.87358 0.0
H456 H 0.17574 0.08609 0.7083 0.0
H457 H 0.15059 0.02056 0.98294 0.0
H458 H 0.14028 0.15749 0.80335 0.0
H459 H 0.10595 0.13828 0.7271 0.0
H460 H 0.14854 0.13639 0.6747 0.0
H461 H 0.10795 0.07565 0.14026 0.0
H462 H 0.10617 0.03134 0.10551 0.0
H463 H 0.07409 0.0589 0.05637 0.0
C464 C 0.9371 0.63614 0.07985 0.0
C465 C 0.96894 0.63966 0.13008 0.0
C466 C 0.91376 0.61059 0.11375 0.0
C467 C 0.92289 0.58775 0.19808 0.0
C468 C 0.9559 0.58972 0.24311 0.0
C469 C 0.97846 0.61593 0.20935 0.0
C470 C 0.87864 0.60941 0.06445 0.0
C471 C 0.96683 0.56526 0.33102 0.0
C472 C 0.85121 0.55308 0.37822 0.0
C473 C 0.8437 0.52178 0.32837 0.0
C474 C 0.87739 0.57455 0.33758 0.0
C475 C 0.89687 0.56408 0.24641 0.0
C476 C 0.89047 0.5318 0.19921 0.0
C477 C 0.86368 0.51111 0.24016 0.0
C478 C 0.88335 0.60897 0.38954 0.0
C479 C 0.9113 0.5195 0.10376 0.0
H480 H 0.9297 0.65452 0.01868 0.0
H481 H 0.00325 0.61846 0.24743 0.0
H482 H 0.87167 0.58351 0.03529 0.0
H483 H 0.86002 0.61597 0.12889 0.0
H484 H 0.87641 0.62728 0.99403 0.0
H485 H -0.00546 0.56732 0.3462 0.0
H486 H 0.95359 0.57046 0.40974 0.0
H487 H 0.95982 0.53885 0.30702 0.0
H488 H 0.83576 0.56143 0.44623 0.0
H489 H 0.85805 0.48676 0.20203 0.0
H490 H 0.87909 0.62898 0.32715 0.0
H491 H 0.90996 0.61216 0.41778 0.0
H492 H 0.86639 0.61295 0.46125 0.0
H493 H 0.9068 0.53516 0.02937 0.0
H494 H 0.90505 0.49262 0.0832 0.0
H495 H 0.93867 0.52224 0.12345 0.0
C496 C 0.35683 0.02748 0.66071 0.0
C497 C 0.33487 0.03769 0.74426 0.0
C498 C 0.38355 0.04898 0.6239 0.0
C499 C 0.3879 0.08162 0.67048 0.0
C500 C 0.36589 0.09199 0.75522 0.0
C501 C 0.33978 0.06974 0.79186 0.0
C502 C 0.40698 0.03689 0.53494 0.0
C503 C 0.36953 0.12682 0.80583 0.0
C504 C 0.47049 0.13305 0.65302 0.0
C505 C 0.46348 0.15592 0.56814 0.0
C506 C 0.44669 0.10755 0.68372 0.0
C507 C 0.41499 0.10538 0.62941 0.0
C508 C 0.40831 0.12756 0.54069 0.0
C509 C 0.43283 0.15242 0.51038 0.0
C510 C 0.45494 0.08382 0.77711 0.0
C511 C 0.37463 0.1262 0.48165 0.0
H512 H 0.35322 0.00257 0.62438 0.0
H513 H 0.32277 0.07772 0.8562 0.0
H514 H 0.40523 0.05315 0.46045 0.0
H515 H 0.43359 0.03894 0.56408 0.0
H516 H 0.40097 0.01026 0.51069 0.0
H517 H 0.35023 0.13096 0.8707 0.0
H518 H 0.39502 0.13062 0.84314 0.0
H519 H 0.36711 0.14637 0.74059 0.0
H520 H 0.49431 0.13556 0.6972 0.0
H521 H 0.4273 0.17012 0.44483 0.0
H522 H 0.44938 0.05719 0.75239 0.0
H523 H 0.43883 0.08903 0.84978 0.0
H524 H 0.48189 0.08656 0.8027 0.0
H525 H 0.36851 0.1002 0.45166 0.0
H526 H 0.37423 0.14387 0.41013 0.0
H527 H 0.35434 0.13285 0.54024 0.0
C528 C 0.81666 0.89721 0.95854 0.0
C529 C 0.81467 0.92966 0.00426 0.0
C530 C 0.84166 0.87527 0.99205 0.0
C531 C 0.86548 0.88596 0.07328 0.0
C532 C 0.86362 0.91857 0.12053 0.0
C533 C 0.83815 0.94005 0.08563 0.0
C534 C 0.84262 0.84063 0.93998 0.0
C535 C 0.88867 0.93083 0.20716 0.0
C536 C 0.90919 0.81431 0.2167 0.0
C537 C 0.93907 0.81243 0.15456 0.0
C538 C 0.88567 0.83907 0.1943 0.0
C539 C 0.89219 0.86267 0.10797 0.0
C540 C 0.92292 0.86185 0.04802 0.0
C541 C 0.94595 0.83671 0.07183 0.0
C542 C 0.85313 0.83902 0.2598 0.0
C543 C 0.93086 0.88669 0.95565 0.0
H544 H 0.79862 0.88881 0.89592 0.0
H545 H 0.83689 0.96508 0.12125 0.0
H546 H 0.86726 0.83771 0.89782 0.0
H547 H 0.84032 0.8208 0.0049 0.0
H548 H 0.82203 0.83609 0.87865 0.0
H549 H 0.88359 0.95672 0.23657 0.0
H550 H 0.88789 0.91336 0.27914 0.0
H551 H 0.91471 0.93088 0.17293 0.0
H552 H 0.90363 0.7958 0.2811 0.0
H553 H 0.96904 0.83567 0.02381 0.0
H554 H 0.83151 0.83195 0.20493 0.0
H555 H 0.84878 0.86468 0.29226 0.0
H556 H 0.85317 0.82095 0.3303 0.0
H557 H 0.91305 0.8819 0.88599 0.0
H558 H 0.95711 0.88476 0.9242 0.0
H559 H 0.92742 0.91295 0.98427 0.0
C560 C 0.049 0.34452 0.13528 0.0
C561 C 0.0181 0.33665 0.18763 0.0
C562 C 0.07013 0.37135 0.17267 0.0
C563 C 0.05954 0.3913 0.26242 0.0
C564 C 0.02766 0.38437 0.31246 0.0
C565 C 0.00749 0.3567 0.27549 0.0
C566 C 0.10429 0.37754 0.11865 0.0
C567 C 0.01514 0.40581 0.40596 0.0
C568 C 0.13092 0.43472 0.42265 0.0
C569 C 0.1339 0.46597 0.36819 0.0
C570 C 0.1059 0.41051 0.39175 0.0
C571 C 0.08281 0.41827 0.30671 0.0
C572 C 0.08425 0.45073 0.25707 0.0
C573 C 0.11021 0.47406 0.28718 0.0
C574 C 0.1056 0.37592 0.44502 0.0
C575 C 0.05934 0.46027 0.16879 0.0
H576 H 0.05729 0.32889 0.06771 0.0
H577 H 0.9834 0.35072 0.3153 0.0
H578 H 0.10661 0.40375 0.08598 0.0
H579 H 0.12462 0.37481 0.18094 0.0
H580 H 0.10861 0.35973 0.04963 0.0
H581 H 0.98854 0.39894 0.42895 0.0
H582 H 0.03133 0.40272 0.47991 0.0
H583 H 0.01689 0.43296 0.38249 0.0
H584 H 0.14938 0.42841 0.48494 0.0
H585 H 0.1124 0.4984 0.24584 0.0
H586 H 0.11214 0.35681 0.38228 0.0
H587 H 0.07997 0.36881 0.47664 0.0
H588 H 0.12391 0.37467 0.51448 0.0
H589 H 0.06461 0.4464 0.09143 0.0
H590 H 0.06082 0.48782 0.15044 0.0
H591 H 0.03311 0.45299 0.19454 0.0
C592 C 0.54615 0.6565 0.46247 0.0
C593 C 0.5568 0.67865 0.54712 0.0
C594 C 0.56783 0.63213 0.42128 0.0
C595 C 0.60097 0.63027 0.46492 0.0
C596 C 0.61215 0.65335 0.5476 0.0
C597 C 0.58991 0.67708 0.58798 0.0
C598 C 0.55499 0.60776 0.33358 0.0
C599 C 0.64744 0.65256 0.59526 0.0
C600 C 0.64948 0.54943 0.45972 0.0
C601 C 0.67267 0.55603 0.37373 0.0
C602 C 0.62498 0.57276 0.48695 0.0
C603 C 0.62387 0.6036 0.42762 0.0
C604 C 0.64661 0.61005 0.33893 0.0
C605 C 0.67063 0.58612 0.31271 0.0
C606 C 0.60096 0.56483 0.58152 0.0
C607 C 0.64645 0.64279 0.27448 0.0
H608 H 0.52056 0.65751 0.43084 0.0
H609 H 0.59848 0.69433 0.65261 0.0
H610 H 0.57242 0.60835 0.26159 0.0
H611 H 0.55432 0.5816 0.36706 0.0
H612 H 0.52922 0.61357 0.30445 0.0
H613 H 0.65272 0.67335 0.6552 0.0
H614 H 0.65082 0.62809 0.63807 0.0
H615 H 0.66651 0.65458 0.52796 0.0
H616 H 0.65063 0.52612 0.50666 0.0
H617 H 0.6884 0.59146 0.24605 0.0
H618 H 0.57444 0.56818 0.55497 0.0
H619 H 0.60628 0.58268 0.65058 0.0
H620 H 0.60319 0.53861 0.61308 0.0
H621 H 0.62059 0.64742 0.24395 0.0
H622 H 0.66403 0.64286 0.20275 0.0
H623 H 0.65403 0.66418 0.32954 0.0
loop_
_geom_bond_atom_site_label_1
_geom_bond_atom_site_label_2
_geom_bond_distance
_geom_bond_site_symmetry_2
_ccdc_geom_bond_type
C0 O1 1.306 . S
C0 O3 1.160 . S
O1 C0 1.306 . S
O1 Cd2 2.228 . S
Cd2 O1 2.228 . S
Cd2 O6 2.273 . S
Cd2 O10 2.277 . S
O3 C0 1.160 . S
O3 Cd4 2.203 . S
Cd4 O3 2.203 . S
Cd4 O6 2.411 . S
Cd4 O7 2.333 . S
Cd4 O8 2.352 . S
Cd4 O12 2.277 . S
Cd4 O13 2.356 . S
C5 O10 1.209 . S
C5 O12 1.226 . S
O6 Cd2 2.273 . S
O6 Cd4 2.411 . S
O6 C9 1.320 . S
O7 Cd4 2.333 . S
O7 C9 1.214 . S
O8 Cd4 2.352 . S
O8 C11 1.258 . S
C9 O6 1.320 . S
C9 O7 1.214 . S
O10 Cd2 2.277 . S
O10 C5 1.209 . S
C11 O8 1.258 . S
C11 O13 1.282 . S
O12 Cd4 2.277 . S
O12 C5 1.226 . S
O13 Cd4 2.356 . S
O13 C11 1.282 . S
C14 O15 1.306 . S
C14 O17 1.160 . S
O15 C14 1.306 . S
O15 Cd16 2.228 . S
Cd16 O15 2.228 . S
Cd16 O20 2.273 . S
Cd16 O24 2.277 . S
O17 C14 1.160 . S
O17 Cd18 2.203 . S
Cd18 O17 2.203 . S
Cd18 O20 2.411 . S
Cd18 O21 2.333 . S
Cd18 O22 2.352 . S
Cd18 O26 2.277 . S
Cd18 O27 2.356 . S
C19 O24 1.209 . S
C19 O26 1.226 . S
O20 Cd16 2.273 . S
O20 Cd18 2.411 . S
O20 C23 1.320 . S
O21 Cd18 2.333 . S
O21 C23 1.214 . S
O22 Cd18 2.352 . S
O22 C25 1.258 . S
C23 O20 1.320 . S
C23 O21 1.214 . S
O24 Cd16 2.277 . S
O24 C19 1.209 . S
C25 O22 1.258 . S
C25 O27 1.282 . S
O26 Cd18 2.277 . S
O26 C19 1.226 . S
O27 Cd18 2.356 . S
O27 C25 1.282 . S
C28 O29 1.306 . S
C28 O31 1.160 . S
O29 C28 1.306 . S
O29 Cd30 2.228 1_565 S
Cd30 O29 2.228 1_545 S
Cd30 O34 2.273 . S
Cd30 O38 2.277 . S
O31 C28 1.160 . S
O31 Cd32 2.203 . S
Cd32 O31 2.203 . S
Cd32 O34 2.411 1_565 S
Cd32 O35 2.333 1_565 S
Cd32 O36 2.352 . S
Cd32 O40 2.277 1_566 S
Cd32 O41 2.356 1_556 S
C33 O38 1.209 . S
C33 O40 1.226 1_556 S
O34 Cd30 2.273 . S
O34 Cd32 2.411 1_545 S
O34 C37 1.320 . S
O35 Cd32 2.333 1_545 S
O35 C37 1.214 . S
O36 Cd32 2.352 . S
O36 C39 1.258 1_556 S
C37 O34 1.320 . S
C37 O35 1.214 . S
O38 Cd30 2.277 . S
O38 C33 1.209 . S
C39 O36 1.258 1_554 S
C39 O41 1.282 . S
O40 Cd32 2.277 1_544 S
O40 C33 1.226 1_554 S
O41 Cd32 2.356 1_554 S
O41 C39 1.282 . S
C42 O43 1.306 . S
C42 O45 1.160 . S
O43 C42 1.306 . S
O43 Cd44 2.228 1_455 S
Cd44 O43 2.228 1_655 S
Cd44 O48 2.273 . S
Cd44 O52 2.277 . S
O45 C42 1.160 . S
O45 Cd46 2.203 . S
Cd46 O45 2.203 . S
Cd46 O48 2.411 1_455 S
Cd46 O49 2.333 1_455 S
Cd46 O50 2.352 . S
Cd46 O54 2.277 1_454 S
Cd46 O55 2.356 1_554 S
C47 O52 1.209 . S
C47 O54 1.226 1_554 S
O48 Cd44 2.273 . S
O48 Cd46 2.411 1_655 S
O48 C51 1.320 . S
O49 Cd46 2.333 1_655 S
O49 C51 1.214 . S
O50 Cd46 2.352 . S
O50 C53 1.258 1_554 S
C51 O48 1.320 . S
C51 O49 1.214 . S
O52 Cd44 2.277 . S
O52 C47 1.209 . S
C53 O50 1.258 1_556 S
C53 O55 1.282 . S
O54 Cd46 2.277 1_656 S
O54 C47 1.226 1_556 S
O55 Cd46 2.356 1_556 S
O55 C53 1.282 . S
C56 O57 1.306 . S
C56 O59 1.160 . S
O57 C56 1.306 . S
O57 Cd58 2.228 1_545 S
Cd58 O57 2.228 1_565 S
Cd58 O62 2.273 . S
Cd58 O66 2.277 . S
O59 C56 1.160 . S
O59 Cd60 2.203 . S
Cd60 O59 2.203 . S
Cd60 O62 2.411 1_545 S
Cd60 O63 2.333 1_545 S
Cd60 O64 2.352 . S
Cd60 O68 2.277 1_546 S
Cd60 O69 2.356 1_556 S
C61 O66 1.209 . S
C61 O68 1.226 1_556 S
O62 Cd58 2.273 . S
O62 Cd60 2.411 1_565 S
O62 C65 1.320 . S
O63 Cd60 2.333 1_565 S
O63 C65 1.214 . S
O64 Cd60 2.352 . S
O64 C67 1.258 1_556 S
C65 O62 1.320 . S
C65 O63 1.214 . S
O66 Cd58 2.277 . S
O66 C61 1.209 . S
C67 O64 1.258 1_554 S
C67 O69 1.282 . S
O68 Cd60 2.277 1_564 S
O68 C61 1.226 1_554 S
O69 Cd60 2.356 1_554 S
O69 C67 1.282 . S
C70 O71 1.306 . S
C70 O73 1.160 . S
O71 C70 1.306 . S
O71 Cd72 2.228 1_655 S
Cd72 O71 2.228 1_455 S
Cd72 O76 2.273 . S
Cd72 O80 2.277 . S
O73 C70 1.160 . S
O73 Cd74 2.203 . S
Cd74 O73 2.203 . S
Cd74 O76 2.411 1_655 S
Cd74 O77 2.333 1_655 S
Cd74 O78 2.352 . S
Cd74 O82 2.277 1_654 S
Cd74 O83 2.356 1_554 S
C75 O80 1.209 . S
C75 O82 1.226 1_554 S
O76 Cd72 2.273 . S
O76 Cd74 2.411 1_455 S
O76 C79 1.320 . S
O77 Cd74 2.333 1_455 S
O77 C79 1.214 . S
O78 Cd74 2.352 . S
O78 C81 1.258 1_554 S
C79 O76 1.320 . S
C79 O77 1.214 . S
O80 Cd72 2.277 . S
O80 C75 1.209 . S
C81 O78 1.258 1_556 S
C81 O83 1.282 . S
O82 Cd74 2.277 1_456 S
O82 C75 1.226 1_556 S
O83 Cd74 2.356 1_556 S
O83 C81 1.282 . S
C84 O85 1.306 . S
C84 O87 1.160 . S
O85 C84 1.306 . S
O85 Cd86 2.228 . S
Cd86 O85 2.228 . S
Cd86 O90 2.273 . S
Cd86 O94 2.277 . S
O87 C84 1.160 . S
O87 Cd88 2.203 . S
Cd88 O87 2.203 . S
Cd88 O90 2.411 . S
Cd88 O91 2.333 . S
Cd88 O92 2.352 . S
Cd88 O96 2.277 . S
Cd88 O97 2.356 . S
C89 O94 1.209 . S
C89 O96 1.226 . S
O90 Cd86 2.273 . S
O90 Cd88 2.411 . S
O90 C93 1.320 . S
O91 Cd88 2.333 . S
O91 C93 1.214 . S
O92 Cd88 2.352 . S
O92 C95 1.258 . S
C93 O90 1.320 . S
C93 O91 1.214 . S
O94 Cd86 2.277 . S
O94 C89 1.209 . S
C95 O92 1.258 . S
C95 O97 1.282 . S
O96 Cd88 2.277 . S
O96 C89 1.226 . S
O97 Cd88 2.356 . S
O97 C95 1.282 . S
C98 O99 1.306 . S
C98 O101 1.160 . S
O99 C98 1.306 . S
O99 Cd100 2.228 . S
Cd100 O99 2.228 . S
Cd100 O104 2.273 . S
Cd100 O108 2.277 . S
O101 C98 1.160 . S
O101 Cd102 2.203 . S
Cd102 O101 2.203 . S
Cd102 O104 2.411 . S
Cd102 O105 2.333 . S
Cd102 O106 2.352 . S
Cd102 O110 2.277 . S
Cd102 O111 2.356 . S
C103 O108 1.209 . S
C103 O110 1.226 . S
O104 Cd100 2.273 . S
O104 Cd102 2.411 . S
O104 C107 1.320 . S
O105 Cd102 2.333 . S
O105 C107 1.214 . S
O106 Cd102 2.352 . S
O106 C109 1.258 . S
C107 O104 1.320 . S
C107 O105 1.214 . S
O108 Cd100 2.277 . S
O108 C103 1.209 . S
C109 O106 1.258 . S
C109 O111 1.282 . S
O110 Cd102 2.277 . S
O110 C103 1.226 . S
O111 Cd102 2.356 . S
O111 C109 1.282 . S
C112 C113 1.391 . S
C112 C114 1.394 . S
C112 H128 0.931 . S
C113 C112 1.391 . S
C113 C117 1.376 . S
C114 C112 1.394 . S
C114 C115 1.369 . S
C114 C118 1.531 . S
C115 C114 1.369 . S
C115 C116 1.410 . S
C115 C123 1.503 1_556 S
C116 C115 1.410 . S
C116 C117 1.392 . S
C116 C119 1.511 1_556 S
C117 C113 1.376 . S
C117 C116 1.392 . S
C117 H129 0.929 . S
C118 C114 1.531 . S
C118 H130 0.960 . S
C118 H131 0.962 . S
C118 H132 0.960 . S
C119 C116 1.511 1_554 S
C119 H133 0.961 . S
C119 H134 0.961 . S
C119 H135 0.961 . S
C120 C121 1.370 . S
C120 C122 1.363 . S
C120 H136 0.931 . S
C121 C120 1.370 . S
C121 C125 1.408 . S
C122 C120 1.363 . S
C122 C123 1.370 . S
C122 C126 1.524 . S
C123 C115 1.503 1_554 S
C123 C122 1.370 . S
C123 C124 1.403 . S
C124 C123 1.403 . S
C124 C125 1.404 . S
C124 C127 1.539 1_554 S
C125 C121 1.408 . S
C125 C124 1.404 . S
C125 H137 0.930 . S
C126 C122 1.524 . S
C126 H138 0.956 . S
C126 H139 0.961 . S
C126 H140 0.961 . S
C127 C124 1.539 1_556 S
C127 H141 0.958 . S
C127 H142 0.961 . S
C127 H143 0.960 . S
H128 C112 0.931 . S
H129 C117 0.929 . S
H130 C118 0.960 . S
H131 C118 0.962 . S
H132 C118 0.960 . S
H133 C119 0.961 . S
H134 C119 0.961 . S
H135 C119 0.961 . S
H136 C120 0.931 . S
H137 C125 0.930 . S
H138 C126 0.956 . S
H139 C126 0.961 . S
H140 C126 0.961 . S
H141 C127 0.958 . S
H142 C127 0.961 . S
H143 C127 0.960 . S
C144 C145 1.391 . S
C144 C146 1.394 . S
C144 H160 0.931 . S
C145 C144 1.391 . S
C145 C149 1.376 . S
C146 C144 1.394 . S
C146 C147 1.369 . S
C146 C150 1.531 . S
C147 C146 1.369 . S
C147 C148 1.410 . S
C147 C155 1.503 . S
C148 C147 1.410 . S
C148 C149 1.392 . S
C148 C151 1.511 . S
C149 C145 1.376 . S
C149 C148 1.392 . S
C149 H161 0.929 . S
C150 C146 1.531 . S
C150 H162 0.960 . S
C150 H163 0.962 . S
C150 H164 0.960 . S
C151 C148 1.511 . S
C151 H165 0.961 . S
C151 H166 0.961 . S
C151 H167 0.961 . S
C152 C153 1.370 . S
C152 C154 1.363 . S
C152 H168 0.931 . S
C153 C152 1.370 . S
C153 C157 1.408 . S
C154 C152 1.363 . S
C154 C155 1.370 . S
C154 C158 1.524 . S
C155 C147 1.503 . S
C155 C154 1.370 . S
C155 C156 1.403 . S
C156 C155 1.403 . S
C156 C157 1.404 . S
C156 C159 1.539 . S
C157 C153 1.408 . S
C157 C156 1.404 . S
C157 H169 0.930 . S
C158 C154 1.524 . S
C158 H170 0.956 . S
C158 H171 0.961 . S
C158 H172 0.961 . S
C159 C156 1.539 . S
C159 H173 0.958 . S
C159 H174 0.961 . S
C159 H175 0.960 . S
H160 C144 0.931 . S
H161 C149 0.929 . S
H162 C150 0.960 . S
H163 C150 0.962 . S
H164 C150 0.960 . S
H165 C151 0.961 . S
H166 C151 0.961 . S
H167 C151 0.961 . S
H168 C152 0.931 . S
H169 C157 0.930 . S
H170 C158 0.956 . S
H171 C158 0.961 . S
H172 C158 0.961 . S
H173 C159 0.958 . S
H174 C159 0.961 . S
H175 C159 0.960 . S
C176 C177 1.391 . S
C176 C178 1.394 . S
C176 H192 0.931 . S
C177 C176 1.391 . S
C177 C181 1.376 . S
C178 C176 1.394 . S
C178 C179 1.369 . S
C178 C182 1.531 . S
C179 C178 1.369 . S
C179 C180 1.410 . S
C179 C187 1.503 . S
C180 C179 1.410 . S
C180 C181 1.392 . S
C180 C183 1.511 . S
C181 C177 1.376 . S
C181 C180 1.392 . S
C181 H193 0.929 . S
C182 C178 1.531 . S
C182 H194 0.960 . S
C182 H195 0.962 . S
C182 H196 0.960 . S
C183 C180 1.511 . S
C183 H197 0.961 . S
C183 H198 0.961 . S
C183 H199 0.961 . S
C184 C185 1.370 . S
C184 C186 1.363 . S
C184 H200 0.931 . S
C185 C184 1.370 . S
C185 C189 1.408 . S
C186 C184 1.363 . S
C186 C187 1.370 . S
C186 C190 1.524 . S
C187 C179 1.503 . S
C187 C186 1.370 . S
C187 C188 1.403 . S
C188 C187 1.403 . S
C188 C189 1.404 . S
C188 C191 1.539 . S
C189 C185 1.408 . S
C189 C188 1.404 . S
C189 H201 0.930 . S
C190 C186 1.524 . S
C190 H202 0.956 . S
C190 H203 0.961 . S
C190 H204 0.961 . S
C191 C188 1.539 . S
C191 H205 0.958 . S
C191 H206 0.961 . S
C191 H207 0.960 . S
H192 C176 0.931 . S
H193 C181 0.929 . S
H194 C182 0.960 . S
H195 C182 0.962 . S
H196 C182 0.960 . S
H197 C183 0.961 . S
H198 C183 0.961 . S
H199 C183 0.961 . S
H200 C184 0.931 . S
H201 C189 0.930 . S
H202 C190 0.956 . S
H203 C190 0.961 . S
H204 C190 0.961 . S
H205 C191 0.958 . S
H206 C191 0.961 . S
H207 C191 0.960 . S
C208 C209 1.391 . S
C208 C210 1.394 . S
C208 H224 0.931 . S
C209 C208 1.391 . S
C209 C213 1.376 . S
C210 C208 1.394 . S
C210 C211 1.369 . S
C210 C214 1.531 . S
C211 C210 1.369 . S
C211 C212 1.410 . S
C211 C219 1.503 . S
C212 C211 1.410 . S
C212 C213 1.392 . S
C212 C215 1.511 . S
C213 C209 1.376 . S
C213 C212 1.392 . S
C213 H225 0.929 . S
C214 C210 1.531 . S
C214 H226 0.960 . S
C214 H227 0.962 . S
C214 H228 0.960 . S
C215 C212 1.511 . S
C215 H229 0.961 . S
C215 H230 0.961 . S
C215 H231 0.961 . S
C216 C217 1.370 . S
C216 C218 1.363 . S
C216 H232 0.931 . S
C217 C216 1.370 . S
C217 C221 1.408 . S
C218 C216 1.363 . S
C218 C219 1.370 . S
C218 C222 1.524 . S
C219 C211 1.503 . S
C219 C218 1.370 . S
C219 C220 1.403 . S
C220 C219 1.403 . S
C220 C221 1.404 . S
C220 C223 1.539 . S
C221 C217 1.408 . S
C221 C220 1.404 . S
C221 H233 0.930 . S
C222 C218 1.524 . S
C222 H234 0.956 . S
C222 H235 0.961 . S
C222 H236 0.961 . S
C223 C220 1.539 . S
C223 H237 0.958 . S
C223 H238 0.961 . S
C223 H239 0.960 . S
H224 C208 0.931 . S
H225 C213 0.929 . S
H226 C214 0.960 . S
H227 C214 0.962 . S
H228 C214 0.960 . S
H229 C215 0.961 . S
H230 C215 0.961 . S
H231 C215 0.961 . S
H232 C216 0.931 . S
H233 C221 0.930 . S
H234 C222 0.956 . S
H235 C222 0.961 . S
H236 C222 0.961 . S
H237 C223 0.958 . S
H238 C223 0.961 . S
H239 C223 0.960 . S
C240 C241 1.391 . S
C240 C242 1.394 . S
C240 H256 0.931 . S
C241 C240 1.391 . S
C241 C245 1.376 . S
C242 C240 1.394 . S
C242 C243 1.369 . S
C242 C246 1.531 . S
C243 C242 1.369 . S
C243 C244 1.410 . S
C243 C251 1.503 . S
C244 C243 1.410 . S
C244 C245 1.392 . S
C244 C247 1.511 . S
C245 C241 1.376 . S
C245 C244 1.392 . S
C245 H257 0.929 . S
C246 C242 1.531 . S
C246 H258 0.960 . S
C246 H259 0.962 . S
C246 H260 0.960 . S
C247 C244 1.511 . S
C247 H261 0.961 . S
C247 H262 0.961 . S
C247 H263 0.961 . S
C248 C249 1.370 . S
C248 C250 1.363 . S
C248 H264 0.931 . S
C249 C248 1.370 . S
C249 C253 1.408 . S
C250 C248 1.363 . S
C250 C251 1.370 . S
C250 C254 1.524 . S
C251 C243 1.503 . S
C251 C250 1.370 . S
C251 C252 1.403 . S
C252 C251 1.403 . S
C252 C253 1.404 . S
C252 C255 1.539 . S
C253 C249 1.408 . S
C253 C252 1.404 . S
C253 H265 0.930 . S
C254 C250 1.524 . S
C254 H266 0.956 . S
C254 H267 0.961 . S
C254 H268 0.961 . S
C255 C252 1.539 . S
C255 H269 0.958 . S
C255 H270 0.961 . S
C255 H271 0.960 . S
H256 C240 0.931 . S
H257 C245 0.929 . S
H258 C246 0.960 . S
H259 C246 0.962 . S
H260 C246 0.960 . S
H261 C247 0.961 . S
H262 C247 0.961 . S
H263 C247 0.961 . S
H264 C248 0.931 . S
H265 C253 0.930 . S
H266 C254 0.956 . S
H267 C254 0.961 . S
H268 C254 0.961 . S
H269 C255 0.958 . S
H270 C255 0.961 . S
H271 C255 0.960 . S
C272 C273 1.391 . S
C272 C274 1.394 . S
C272 H288 0.931 . S
C273 C272 1.391 . S
C273 C277 1.376 . S
C274 C272 1.394 . S
C274 C275 1.369 . S
C274 C278 1.531 . S
C275 C274 1.369 . S
C275 C276 1.410 . S
C275 C283 1.503 . S
C276 C275 1.410 . S
C276 C277 1.392 . S
C276 C279 1.511 . S
C277 C273 1.376 . S
C277 C276 1.392 . S
C277 H289 0.929 . S
C278 C274 1.531 . S
C278 H290 0.960 . S
C278 H291 0.962 . S
C278 H292 0.960 . S
C279 C276 1.511 . S
C279 H293 0.961 . S
C279 H294 0.961 . S
C279 H295 0.961 . S
C280 C281 1.370 . S
C280 C282 1.363 . S
C280 H296 0.931 . S
C281 C280 1.370 . S
C281 C285 1.408 . S
C282 C280 1.363 . S
C282 C283 1.370 . S
C282 C286 1.524 . S
C283 C275 1.503 . S
C283 C282 1.370 . S
C283 C284 1.403 . S
C284 C283 1.403 . S
C284 C285 1.404 . S
C284 C287 1.539 . S
C285 C281 1.408 . S
C285 C284 1.404 . S
C285 H297 0.930 . S
C286 C282 1.524 . S
C286 H298 0.956 . S
C286 H299 0.961 . S
C286 H300 0.961 . S
C287 C284 1.539 . S
C287 H301 0.958 . S
C287 H302 0.961 . S
C287 H303 0.960 . S
H288 C272 0.931 . S
H289 C277 0.929 . S
H290 C278 0.960 . S
H291 C278 0.962 . S
H292 C278 0.960 . S
H293 C279 0.961 . S
H294 C279 0.961 . S
H295 C279 0.961 . S
H296 C280 0.931 . S
H297 C285 0.930 . S
H298 C286 0.956 . S
H299 C286 0.961 . S
H300 C286 0.961 . S
H301 C287 0.958 . S
H302 C287 0.961 . S
H303 C287 0.960 . S
C304 C305 1.391 . S
C304 C306 1.394 . S
C304 H320 0.931 . S
C305 C304 1.391 . S
C305 C309 1.376 . S
C306 C304 1.394 . S
C306 C307 1.369 . S
C306 C310 1.531 . S
C307 C306 1.369 . S
C307 C308 1.410 . S
C307 C315 1.503 1_554 S
C308 C307 1.410 . S
C308 C309 1.392 . S
C308 C311 1.511 1_554 S
C309 C305 1.376 . S
C309 C308 1.392 . S
C309 H321 0.929 . S
C310 C306 1.531 . S
C310 H322 0.960 . S
C310 H323 0.962 . S
C310 H324 0.960 . S
C311 C308 1.511 1_556 S
C311 H325 0.961 . S
C311 H326 0.961 . S
C311 H327 0.961 . S
C312 C313 1.370 . S
C312 C314 1.363 . S
C312 H328 0.931 . S
C313 C312 1.370 . S
C313 C317 1.408 . S
C314 C312 1.363 . S
C314 C315 1.370 . S
C314 C318 1.524 1_556 S
C315 C307 1.503 1_556 S
C315 C314 1.370 . S
C315 C316 1.403 . S
C316 C315 1.403 . S
C316 C317 1.404 . S
C316 C319 1.539 . S
C317 C313 1.408 . S
C317 C316 1.404 . S
C317 H329 0.930 . S
C318 C314 1.524 1_554 S
C318 H330 0.956 . S
C318 H331 0.961 . S
C318 H332 0.961 . S
C319 C316 1.539 . S
C319 H333 0.958 . S
C319 H334 0.961 . S
C319 H335 0.960 . S
H320 C304 0.931 . S
H321 C309 0.929 . S
H322 C310 0.960 . S
H323 C310 0.962 . S
H324 C310 0.960 . S
H325 C311 0.961 . S
H326 C311 0.961 . S
H327 C311 0.961 . S
H328 C312 0.931 . S
H329 C317 0.930 . S
H330 C318 0.956 . S
H331 C318 0.961 . S
H332 C318 0.961 . S
H333 C319 0.958 . S
H334 C319 0.961 . S
H335 C319 0.960 . S
C336 C337 1.391 . S
C336 C338 1.394 . S
C336 H352 0.931 . S
C337 C336 1.391 . S
C337 C341 1.376 . S
C338 C336 1.394 . S
C338 C339 1.369 . S
C338 C342 1.531 . S
C339 C338 1.369 . S
C339 C340 1.410 . S
C339 C347 1.503 . S
C340 C339 1.410 . S
C340 C341 1.392 . S
C340 C343 1.511 . S
C341 C337 1.376 . S
C341 C340 1.392 . S
C341 H353 0.929 . S
C342 C338 1.531 . S
C342 H354 0.960 . S
C342 H355 0.962 . S
C342 H356 0.960 . S
C343 C340 1.511 . S
C343 H357 0.961 . S
C343 H358 0.961 . S
C343 H359 0.961 . S
C344 C345 1.370 . S
C344 C346 1.363 . S
C344 H360 0.931 . S
C345 C344 1.370 . S
C345 C349 1.408 . S
C346 C344 1.363 . S
C346 C347 1.370 . S
C346 C350 1.524 . S
C347 C339 1.503 . S
C347 C346 1.370 . S
C347 C348 1.403 . S
C348 C347 1.403 . S
C348 C349 1.404 . S
C348 C351 1.539 . S
C349 C345 1.408 . S
C349 C348 1.404 . S
C349 H361 0.930 . S
C350 C346 1.524 . S
C350 H362 0.956 . S
C350 H363 0.961 . S
C350 H364 0.961 . S
C351 C348 1.539 . S
C351 H365 0.958 . S
C351 H366 0.961 . S
C351 H367 0.960 . S
H352 C336 0.931 . S
H353 C341 0.929 . S
H354 C342 0.960 . S
H355 C342 0.962 . S
H356 C342 0.960 . S
H357 C343 0.961 . S
H358 C343 0.961 . S
H359 C343 0.961 . S
H360 C344 0.931 . S
H361 C349 0.930 . S
H362 C350 0.956 . S
H363 C350 0.961 . S
H364 C350 0.961 . S
H365 C351 0.958 . S
H366 C351 0.961 . S
H367 C351 0.960 . S
C368 C369 1.391 . S
C368 C370 1.394 . S
C368 H384 0.931 . S
C369 C368 1.391 . S
C369 C373 1.376 . S
C370 C368 1.394 . S
C370 C371 1.369 . S
C370 C374 1.531 . S
C371 C370 1.369 . S
C371 C372 1.410 . S
C371 C379 1.503 . S
C372 C371 1.410 . S
C372 C373 1.392 . S
C372 C375 1.511 . S
C373 C369 1.376 . S
C373 C372 1.392 . S
C373 H385 0.929 . S
C374 C370 1.531 . S
C374 H386 0.960 . S
C374 H387 0.962 . S
C374 H388 0.960 . S
C375 C372 1.511 . S
C375 H389 0.961 . S
C375 H390 0.961 . S
C375 H391 0.961 . S
C376 C377 1.370 . S
C376 C378 1.363 . S
C376 H392 0.931 . S
C377 C376 1.370 . S
C377 C381 1.408 . S
C378 C376 1.363 . S
C378 C379 1.370 . S
C378 C382 1.524 . S
C379 C371 1.503 . S
C379 C378 1.370 . S
C379 C380 1.403 . S
C380 C379 1.403 . S
C380 C381 1.404 . S
C380 C383 1.539 . S
C381 C377 1.408 . S
C381 C380 1.404 . S
C381 H393 0.930 . S
C382 C378 1.524 . S
C382 H394 0.956 . S
C382 H395 0.961 . S
C382 H396 0.961 . S
C383 C380 1.539 . S
C383 H397 0.958 . S
C383 H398 0.961 . S
C383 H399 0.960 . S
H384 C368 0.931 . S
H385 C373 0.929 . S
H386 C374 0.960 . S
H387 C374 0.962 . S
H388 C374 0.960 . S
H389 C375 0.961 . S
H390 C375 0.961 . S
H391 C375 0.961 . S
H392 C376 0.931 . S
H393 C381 0.930 . S
H394 C382 0.956 . S
H395 C382 0.961 . S
H396 C382 0.961 . S
H397 C383 0.958 . S
H398 C383 0.961 . S
H399 C383 0.960 . S
C400 C401 1.391 . S
C400 C402 1.394 . S
C400 H416 0.931 . S
C401 C400 1.391 . S
C401 C405 1.376 . S
C402 C400 1.394 . S
C402 C403 1.369 . S
C402 C406 1.531 . S
C403 C402 1.369 . S
C403 C404 1.410 . S
C403 C411 1.503 . S
C404 C403 1.410 . S
C404 C405 1.392 . S
C404 C407 1.511 . S
C405 C401 1.376 . S
C405 C404 1.392 . S
C405 H417 0.929 . S
C406 C402 1.531 . S
C406 H418 0.960 . S
C406 H419 0.962 . S
C406 H420 0.960 . S
C407 C404 1.511 . S
C407 H421 0.961 . S
C407 H422 0.961 . S
C407 H423 0.961 . S
C408 C409 1.370 . S
C408 C410 1.363 . S
C408 H424 0.931 . S
C409 C408 1.370 . S
C409 C413 1.408 . S
C410 C408 1.363 . S
C410 C411 1.370 . S
C410 C414 1.524 . S
C411 C403 1.503 . S
C411 C410 1.370 . S
C411 C412 1.403 . S
C412 C411 1.403 . S
C412 C413 1.404 . S
C412 C415 1.539 . S
C413 C409 1.408 . S
C413 C412 1.404 . S
C413 H425 0.930 . S
C414 C410 1.524 . S
C414 H426 0.956 . S
C414 H427 0.961 . S
C414 H428 0.961 . S
C415 C412 1.539 . S
C415 H429 0.958 . S
C415 H430 0.961 . S
C415 H431 0.960 . S
H416 C400 0.931 . S
H417 C405 0.929 . S
H418 C406 0.960 . S
H419 C406 0.962 . S
H420 C406 0.960 . S
H421 C407 0.961 . S
H422 C407 0.961 . S
H423 C407 0.961 . S
H424 C408 0.931 . S
H425 C413 0.930 . S
H426 C414 0.956 . S
H427 C414 0.961 . S
H428 C414 0.961 . S
H429 C415 0.958 . S
H430 C415 0.961 . S
H431 C415 0.960 . S
C432 C433 1.391 . S
C432 C434 1.394 . S
C432 H448 0.931 . S
C433 C432 1.391 . S
C433 C437 1.381 . S
C434 C432 1.394 . S
C434 C435 1.369 . S
C434 C438 1.531 . S
C435 C434 1.369 . S
C435 C436 1.410 1_554 S
C435 C443 1.503 . S
C436 C435 1.410 1_556 S
C436 C437 1.391 1_556 S
C436 C439 1.511 . S
C437 C433 1.381 . S
C437 C436 1.391 1_554 S
C437 H449 0.925 1_554 S
C438 C434 1.531 . S
C438 H450 0.960 . S
C438 H451 0.962 . S
C438 H452 0.960 . S
C439 C436 1.511 . S
C439 H453 0.961 . S
C439 H454 0.961 . S
C439 H455 0.961 . S
C440 C441 1.370 . S
C440 C442 1.363 . S
C440 H456 0.931 . S
C441 C440 1.370 . S
C441 C445 1.408 1_556 S
C442 C440 1.363 . S
C442 C443 1.370 1_556 S
C442 C446 1.524 . S
C443 C435 1.503 . S
C443 C442 1.370 1_554 S
C443 C444 1.403 . S
C444 C443 1.403 . S
C444 C445 1.404 . S
C444 C447 1.539 . S
C445 C441 1.408 1_554 S
C445 C444 1.404 . S
C445 H457 0.930 . S
C446 C442 1.524 . S
C446 H458 0.956 . S
C446 H459 0.961 . S
C446 H460 0.961 . S
C447 C444 1.539 . S
C447 H461 0.958 . S
C447 H462 0.961 . S
C447 H463 0.960 . S
H448 C432 0.931 . S
H449 C437 0.925 1_556 S
H450 C438 0.960 . S
H451 C438 0.962 . S
H452 C438 0.960 . S
H453 C439 0.961 . S
H454 C439 0.961 . S
H455 C439 0.961 . S
H456 C440 0.931 . S
H457 C445 0.930 . S
H458 C446 0.956 . S
H459 C446 0.961 . S
H460 C446 0.961 . S
H461 C447 0.958 . S
H462 C447 0.961 . S
H463 C447 0.960 . S
C464 C465 1.391 . S
C464 C466 1.394 . S
C464 H480 0.931 . S
C465 C464 1.391 . S
C465 C469 1.376 . S
C466 C464 1.394 . S
C466 C467 1.369 . S
C466 C470 1.531 . S
C467 C466 1.369 . S
C467 C468 1.410 . S
C467 C475 1.503 . S
C468 C467 1.410 . S
C468 C469 1.392 . S
C468 C471 1.511 . S
C469 C465 1.376 . S
C469 C468 1.392 . S
C469 H481 0.929 . S
C470 C466 1.531 . S
C470 H482 0.960 . S
C470 H483 0.962 . S
C470 H484 0.960 1_554 S
C471 C468 1.511 . S
C471 H485 0.961 . S
C471 H486 0.961 . S
C471 H487 0.961 . S
C472 C473 1.370 . S
C472 C474 1.363 . S
C472 H488 0.931 . S
C473 C472 1.370 . S
C473 C477 1.408 . S
C474 C472 1.363 . S
C474 C475 1.370 . S
C474 C478 1.524 . S
C475 C467 1.503 . S
C475 C474 1.370 . S
C475 C476 1.403 . S
C476 C475 1.403 . S
C476 C477 1.404 . S
C476 C479 1.539 . S
C477 C473 1.408 . S
C477 C476 1.404 . S
C477 H489 0.930 . S
C478 C474 1.524 . S
C478 H490 0.956 . S
C478 H491 0.961 . S
C478 H492 0.961 . S
C479 C476 1.539 . S
C479 H493 0.958 . S
C479 H494 0.961 . S
C479 H495 0.960 . S
H480 C464 0.931 . S
H481 C469 0.929 . S
H482 C470 0.960 . S
H483 C470 0.962 . S
H484 C470 0.960 1_556 S
H485 C471 0.961 . S
H486 C471 0.961 . S
H487 C471 0.961 . S
H488 C472 0.931 . S
H489 C477 0.930 . S
H490 C478 0.956 . S
H491 C478 0.961 . S
H492 C478 0.961 . S
H493 C479 0.958 . S
H494 C479 0.961 . S
H495 C479 0.960 . S
C496 C497 1.391 . S
C496 C498 1.394 . S
C496 H512 0.931 . S
C497 C496 1.391 . S
C497 C501 1.376 . S
C498 C496 1.394 . S
C498 C499 1.369 . S
C498 C502 1.531 . S
C499 C498 1.369 . S
C499 C500 1.410 . S
C499 C507 1.503 . S
C500 C499 1.410 . S
C500 C501 1.392 . S
C500 C503 1.511 . S
C501 C497 1.376 . S
C501 C500 1.392 . S
C501 H513 0.929 . S
C502 C498 1.531 . S
C502 H514 0.960 . S
C502 H515 0.962 . S
C502 H516 0.960 . S
C503 C500 1.511 . S
C503 H517 0.961 . S
C503 H518 0.961 . S
C503 H519 0.961 . S
C504 C505 1.370 . S
C504 C506 1.363 . S
C504 H520 0.931 . S
C505 C504 1.370 . S
C505 C509 1.408 . S
C506 C504 1.363 . S
C506 C507 1.370 . S
C506 C510 1.524 . S
C507 C499 1.503 . S
C507 C506 1.370 . S
C507 C508 1.403 . S
C508 C507 1.403 . S
C508 C509 1.404 . S
C508 C511 1.539 . S
C509 C505 1.408 . S
C509 C508 1.404 . S
C509 H521 0.930 . S
C510 C506 1.524 . S
C510 H522 0.956 . S
C510 H523 0.961 . S
C510 H524 0.961 . S
C511 C508 1.539 . S
C511 H525 0.958 . S
C511 H526 0.961 . S
C511 H527 0.960 . S
H512 C496 0.931 . S
H513 C501 0.929 . S
H514 C502 0.960 . S
H515 C502 0.962 . S
H516 C502 0.960 . S
H517 C503 0.961 . S
H518 C503 0.961 . S
H519 C503 0.961 . S
H520 C504 0.931 . S
H521 C509 0.930 . S
H522 C510 0.956 . S
H523 C510 0.961 . S
H524 C510 0.961 . S
H525 C511 0.958 . S
H526 C511 0.961 . S
H527 C511 0.960 . S
C528 C529 1.391 . S
C528 C530 1.394 . S
C528 H544 0.931 . S
C529 C528 1.391 . S
C529 C533 1.376 . S
C530 C528 1.394 . S
C530 C531 1.369 . S
C530 C534 1.531 1_556 S
C531 C530 1.369 . S
C531 C532 1.410 . S
C531 C539 1.503 . S
C532 C531 1.410 . S
C532 C533 1.392 . S
C532 C535 1.511 . S
C533 C529 1.376 . S
C533 C532 1.392 . S
C533 H545 0.929 . S
C534 C530 1.531 1_554 S
C534 H546 0.957 1_554 S
C534 H547 0.962 . S
C534 H548 0.960 . S
C535 C532 1.511 . S
C535 H549 0.961 . S
C535 H550 0.961 . S
C535 H551 0.961 . S
C536 C537 1.370 . S
C536 C538 1.363 . S
C536 H552 0.931 . S
C537 C536 1.370 . S
C537 C541 1.408 1_554 S
C538 C536 1.363 . S
C538 C539 1.370 1_554 S
C538 C542 1.524 . S
C539 C531 1.503 . S
C539 C538 1.370 1_556 S
C539 C540 1.403 . S
C540 C539 1.403 . S
C540 C541 1.404 . S
C540 C543 1.539 . S
C541 C537 1.408 1_556 S
C541 C540 1.404 . S
C541 H553 0.930 . S
C542 C538 1.524 . S
C542 H554 0.956 . S
C542 H555 0.961 . S
C542 H556 0.961 . S
C543 C540 1.539 . S
C543 H557 0.958 . S
C543 H558 0.961 . S
C543 H559 0.960 . S
H544 C528 0.931 . S
H545 C533 0.929 . S
H546 C534 0.957 1_556 S
H547 C534 0.962 . S
H548 C534 0.960 . S
H549 C535 0.961 . S
H550 C535 0.961 . S
H551 C535 0.961 . S
H552 C536 0.931 . S
H553 C541 0.930 . S
H554 C542 0.956 . S
H555 C542 0.961 . S
H556 C542 0.961 . S
H557 C543 0.958 . S
H558 C543 0.961 . S
H559 C543 0.960 . S
C560 C561 1.391 . S
C560 C562 1.394 . S
C560 H576 0.931 . S
C561 C560 1.391 . S
C561 C565 1.376 . S
C562 C560 1.394 . S
C562 C563 1.369 . S
C562 C566 1.531 . S
C563 C562 1.369 . S
C563 C564 1.410 . S
C563 C571 1.503 . S
C564 C563 1.410 . S
C564 C565 1.392 . S
C564 C567 1.511 . S
C565 C561 1.376 . S
C565 C564 1.392 . S
C565 H577 0.929 . S
C566 C562 1.531 . S
C566 H578 0.960 . S
C566 H579 0.962 . S
C566 H580 0.960 1_554 S
C567 C564 1.511 . S
C567 H581 0.961 . S
C567 H582 0.961 . S
C567 H583 0.961 . S
C568 C569 1.370 . S
C568 C570 1.363 . S
C568 H584 0.931 . S
C569 C568 1.370 . S
C569 C573 1.408 . S
C570 C568 1.363 . S
C570 C571 1.370 . S
C570 C574 1.524 . S
C571 C563 1.503 . S
C571 C570 1.370 . S
C571 C572 1.403 . S
C572 C571 1.403 . S
C572 C573 1.404 . S
C572 C575 1.539 . S
C573 C569 1.408 . S
C573 C572 1.404 . S
C573 H585 0.930 . S
C574 C570 1.524 . S
C574 H586 0.956 . S
C574 H587 0.961 . S
C574 H588 0.961 . S
C575 C572 1.539 . S
C575 H589 0.958 . S
C575 H590 0.961 . S
C575 H591 0.960 . S
H576 C560 0.931 . S
H577 C565 0.929 . S
H578 C566 0.960 . S
H579 C566 0.962 . S
H580 C566 0.960 1_556 S
H581 C567 0.961 . S
H582 C567 0.961 . S
H583 C567 0.961 . S
H584 C568 0.931 . S
H585 C573 0.930 . S
H586 C574 0.956 . S
H587 C574 0.961 . S
H588 C574 0.961 . S
H589 C575 0.958 . S
H590 C575 0.961 . S
H591 C575 0.960 . S
C592 C593 1.391 . S
C592 C594 1.394 . S
C592 H608 0.931 . S
C593 C592 1.391 . S
C593 C597 1.376 . S
C594 C592 1.394 . S
C594 C595 1.369 . S
C594 C598 1.531 . S
C595 C594 1.369 . S
C595 C596 1.410 . S
C595 C603 1.503 . S
C596 C595 1.410 . S
C596 C597 1.392 . S
C596 C599 1.511 . S
C597 C593 1.376 . S
C597 C596 1.392 . S
C597 H609 0.929 . S
C598 C594 1.531 . S
C598 H610 0.960 . S
C598 H611 0.962 . S
C598 H612 0.960 . S
C599 C596 1.511 . S
C599 H613 0.961 . S
C599 H614 0.961 . S
C599 H615 0.961 . S
C600 C601 1.370 . S
C600 C602 1.363 . S
C600 H616 0.931 . S
C601 C600 1.370 . S
C601 C605 1.408 . S
C602 C600 1.363 . S
C602 C603 1.370 . S
C602 C606 1.524 . S
C603 C595 1.503 . S
C603 C602 1.370 . S
C603 C604 1.403 . S
C604 C603 1.403 . S
C604 C605 1.404 . S
C604 C607 1.539 . S
C605 C601 1.408 . S
C605 C604 1.404 . S
C605 H617 0.930 . S
C606 C602 1.524 . S
C606 H618 0.956 . S
C606 H619 0.961 . S
C606 H620 0.961 . S
C607 C604 1.539 . S
C607 H621 0.958 . S
C607 H622 0.961 . S
C607 H623 0.960 . S
H608 C592 0.931 . S
H609 C597 0.929 . S
H610 C598 0.960 . S
H611 C598 0.962 . S
H612 C598 0.960 . S
H613 C599 0.961 . S
H614 C599 0.961 . S
H615 C599 0.961 . S
H616 C600 0.931 . S
H617 C605 0.930 . S
H618 C606 0.956 . S
H619 C606 0.961 . S
H620 C606 0.961 . S
H621 C607 0.958 . S
H622 C607 0.961 . S
H623 C607 0.960 . S
C113 C14 1.433 . S
C121 C0 1.432 . S
C145 C25 1.420 . S
C153 C39 1.431 . S
C177 C42 1.437 . S
C185 C28 1.444 . S
C209 C53 1.430 . S
C217 C11 1.437 . S
C241 C56 1.440 . S
C249 C70 1.433 . S
C273 C81 1.433 . S
C281 C95 1.430 . S
C305 C84 1.422 . S
C313 C98 1.439 . S
C337 C67 1.421 . S
C345 C109 1.434 . S
C369 C5 1.452 . S
C377 C103 1.452 . S
C401 C65 1.445 . S
C409 C23 1.464 . S
C433 C75 1.443 . S
C441 C33 1.454 . S
C465 C51 1.450 . S
C473 C93 1.461 . S
C497 C37 1.468 . S
C505 C107 1.458 . S
C529 C61 1.438 . S
C537 C47 1.454 . S
C561 C79 1.452 . S
C569 C9 1.460 . S
C593 C19 1.453 . S
C601 C89 1.447 . S
