# Generated by pormake.
# Topology vby, (6)-cn, num edge types: 1
# Building blocks:
#     Node 0, Type 0, BuildingBlock: KUMBUR_clean_sbu_1, # of connection points: 6
#     Node 1, Type 0, BuildingBlock: KUMBUR_clean_sbu_1, # of connection points: 6
#     Node 2, Type 0, BuildingBlock: KUMBUR_clean_sbu_1, # of connection points: 6
#     Node 3, Type 0, BuildingBlock: KUMBUR_clean_sbu_1, # of connection points: 6
#     Node 4, Type 0, BuildingBlock: KUMBUR_clean_sbu_1, # of connection points: 6
#     Node 5, Type 0, BuildingBlock: KUMBUR_clean_sbu_1, # of connection points: 6
#     Node 6, Type 0, BuildingBlock: KUMBUR_clean_sbu_1, # of connection points: 6
#     Node 7, Type 0, BuildingBlock: KUMBUR_clean_sbu_1, # of connection points: 6
#     Edge 8, Type (0, 0), BuildingBlock: EZIPEK_clean_linker_0, # of connection points: 2
#     Edge 9, Type (0, 0), BuildingBlock: EZIPEK_clean_linker_0, # of connection points: 2
#     Edge 10, Type (0, 0), BuildingBlock: EZIPEK_clean_linker_0, # of connection points: 2
#     Edge 11, Type (0, 0), BuildingBlock: EZIPEK_clean_linker_0, # of connection points: 2
#     Edge 12, Type (0, 0), BuildingBlock: EZIPEK_clean_linker_0, # of connection points: 2
#     Edge 13, Type (0, 0), BuildingBlock: EZIPEK_clean_linker_0, # of connection points: 2
#     Edge 14, Type (0, 0), BuildingBlock: EZIPEK_clean_linker_0, # of connection points: 2
#     Edge 15, Type (0, 0), BuildingBlock: EZIPEK_clean_linker_0, # of connection points: 2
#     Edge 16, Type (0, 0), BuildingBlock: EZIPEK_clean_linker_0, # of connection points: 2
#     Edge 17, Type (0, 0), BuildingBlock: EZIPEK_clean_linker_0, # of connection points: 2
#     Edge 18, Type (0, 0), BuildingBlock: EZIPEK_clean_linker_0, # of connection points: 2
#     Edge 19, Type (0, 0), BuildingBlock: EZIPEK_clean_linker_0, # of connection points: 2
#     Edge 20, Type (0, 0), BuildingBlock: EZIPEK_clean_linker_0, # of connection points: 2
#     Edge 21, Type (0, 0), BuildingBlock: EZIPEK_clean_linker_0, # of connection points: 2
#     Edge 22, Type (0, 0), BuildingBlock: EZIPEK_clean_linker_0, # of connection points: 2
#     Edge 23, Type (0, 0), BuildingBlock: EZIPEK_clean_linker_0, # of connection points: 2
#     Edge 24, Type (0, 0), BuildingBlock: EZIPEK_clean_linker_0, # of connection points: 2
#     Edge 25, Type (0, 0), BuildingBlock: EZIPEK_clean_linker_0, # of connection points: 2
#     Edge 26, Type (0, 0), BuildingBlock: EZIPEK_clean_linker_0, # of connection points: 2
#     Edge 27, Type (0, 0), BuildingBlock: EZIPEK_clean_linker_0, # of connection points: 2
#     Edge 28, Type (0, 0), BuildingBlock: EZIPEK_clean_linker_0, # of connection points: 2
#     Edge 29, Type (0, 0), BuildingBlock: EZIPEK_clean_linker_0, # of connection points: 2
#     Edge 30, Type (0, 0), BuildingBlock: EZIPEK_clean_linker_0, # of connection points: 2
#     Edge 31, Type (0, 0), BuildingBlock: EZIPEK_clean_linker_0, # of connection points: 2
# Relax obj value: 0.187
# Max RMSD: 0.311
# Mean RMSD: 0.222
data_MOF--net-vby--node1-KUMBUR_clean_sbu_1--edge1-EZIPEK_clean_linker_0
_symmetry_space_group_name_H-M    P1
_symmetry_Int_Tables_number       1
_symmetry_cell_setting            triclinic
loop_
_symmetry_equiv_pos_as_xyz
'x, y, z'
_cell_length_a     11.041275
_cell_length_b     83.938812
_cell_length_c     21.655291
_cell_angle_alpha  100.87762
_cell_angle_beta   94.868028
_cell_angle_gamma 89.932865
loop_
_atom_site_label
_atom_site_type_symbol
_atom_site_fract_x
_atom_site_fract_y
_atom_site_fract_z
_atom_type_partial_charge
Tb0 Tb 0.09569 0.40557 0.04293 0.0
C1 C 0.83415 0.33774 0.00246 0.0
N2 N 0.91346 0.34646 0.04756 0.0
C3 C 0.79647 0.3401 0.12837 0.0
C4 C 0.72908 0.33053 0.01852 0.0
C5 C 0.89906 0.34706 0.10991 0.0
C6 C 0.71008 0.33197 0.08244 0.0
C7 C 0.77941 0.32721 0.89169 0.0
C8 C 0.85924 0.33613 0.94011 0.0
C9 C 0.67259 0.32034 0.90712 0.0
C10 C 0.64756 0.32198 0.97042 0.0
Tb11 Tb 0.07747 0.35748 0.01267 0.0
N12 N 0.96344 0.34296 0.92717 0.0
C13 C 0.81013 0.3253 0.82937 0.0
C14 C 0.99765 0.34017 0.86688 0.0
C15 C 0.9205 0.33165 0.81703 0.0
H16 H 0.96702 0.35279 0.14554 0.0
H17 H 0.94709 0.32977 0.76924 0.0
H18 H 0.16235 0.40553 0.8919 0.0
H19 H 0.33547 0.42909 0.2679 0.0
H20 H 0.08557 0.34417 0.85709 0.0
H21 H 0.75097 0.3186 0.79074 0.0
H22 H 0.16357 0.41557 0.19712 0.0
H23 H 0.78454 0.34093 0.17797 0.0
H24 H 0.60957 0.31355 0.87054 0.0
H25 H 0.56571 0.31644 0.98172 0.0
H26 H 0.34096 0.41098 0.84045 0.0
H27 H 0.63059 0.32657 0.09682 0.0
H28 H 0.51657 0.43799 0.22274 0.0
N29 N 0.25101 0.41027 0.98522 0.0
C30 C 0.34934 0.41772 0.02158 0.0
C31 C 0.34562 0.41259 0.8914 0.0
C32 C 0.45086 0.42237 0.9937 0.0
C33 C 0.24514 0.40874 0.921 0.0
C34 C 0.44973 0.41924 0.92789 0.0
N35 N 0.25162 0.41557 0.11345 0.0
C36 C 0.24419 0.41885 0.17716 0.0
C37 C 0.44627 0.42901 0.1259 0.0
C38 C 0.34803 0.42088 0.08736 0.0
C39 C 0.44209 0.43184 0.19156 0.0
C40 C 0.34043 0.42675 0.21728 0.0
H41 H 0.52673 0.42254 0.9048 0.0
H42 H 0.62748 0.43381 0.01074 0.0
H43 H 0.62235 0.44 0.1274 0.0
O44 O 1.02803 0.42616 0.10063 0.0
O45 O 0.25664 0.3905 0.06394 0.0
O46 O 0.23462 0.36934 0.98351 0.0
O47 O 0.08312 0.42746 0.00885 0.0
O48 O 1.02495 0.39597 0.12092 0.0
O49 O 0.11729 0.3709 0.11093 0.0
O50 O 0.13362 0.33357 0.97921 0.0
O51 O 0.9003 0.36947 0.02788 0.0
O52 O 0.90561 0.39667 0.01713 0.0
O53 O 0.20619 0.34682 0.06911 0.0
O54 O 0.10761 0.36926 0.93298 0.0
O55 O 1.01892 0.39434 0.94823 0.0
C56 C 0.30802 0.37917 0.0239 0.0
C57 C 0.96274 0.44897 0.05564 0.0
C58 C 0.93407 0.4767 0.03906 0.0
C59 C 0.81266 0.47583 0.05232 0.0
C60 C 0.84185 0.44833 0.06968 0.0
C61 C 0.76706 0.46175 0.06774 0.0
C62 C 1.00884 0.46321 0.04032 0.0
C63 C 0.05911 0.383 0.14377 0.0
C64 C 0.04582 0.43553 0.06064 0.0
C65 C 0.54927 0.43031 0.0321 0.0
C66 C 0.54609 0.43387 0.09791 0.0
C67 C 0.84623 0.38314 0.02013 0.0
C68 C 0.18101 0.31829 0.05861 0.0
C69 C 0.203 0.28925 0.05701 0.0
C70 C 0.14517 0.29103 0.11308 0.0
C71 C 0.12475 0.31971 0.11506 0.0
C72 C 0.21986 0.3029 0.02923 0.0
C73 C 0.10583 0.30616 0.1417 0.0
C74 C 0.04485 0.38069 0.9111 0.0
C75 C 0.20011 0.3328 0.03079 0.0
H76 H 0.75369 0.48612 0.05142 0.0
H77 H 0.80665 0.43751 0.08255 0.0
H78 H 0.6736 0.46142 0.07863 0.0
H79 H 0.10315 0.4639 0.03037 0.0
H80 H 0.13168 0.28066 0.13508 0.0
H81 H 0.09758 0.33137 0.13943 0.0
H82 H 0.26429 0.30158 0.98584 0.0
H83 H 0.06218 0.30742 0.18523 0.0
Tb84 Tb 1.0112 0.60727 0.9903 0.0
C85 C 0.21823 0.67282 0.13891 0.0
N86 N 0.10198 0.66721 0.13527 0.0
C87 C 0.09639 0.67635 0.24697 0.0
C88 C 0.2803 0.67962 0.19748 0.0
C89 C 1.03778 0.67 0.18762 0.0
C90 C 0.21903 0.68086 0.25212 0.0
C91 C 0.38942 0.67942 0.08451 0.0
C92 C 0.27288 0.67265 0.08314 0.0
C93 C 0.45447 0.68506 0.14299 0.0
C94 C 0.40029 0.68526 0.19933 0.0
Tb95 Tb 1.02537 0.65555 0.0355 0.0
N96 N 0.20912 0.66653 0.02734 0.0
C97 C 0.43555 0.68062 0.02712 0.0
C98 C 0.24671 0.66936 0.9717 0.0
C99 C 0.36238 0.67597 0.97054 0.0
H100 H 0.94189 0.66699 0.18397 0.0
H101 H 0.39487 0.67749 0.92621 0.0
H102 H 0.99608 0.60117 0.83133 0.0
H103 H 0.71103 0.59057 0.15242 0.0
H104 H 0.18904 0.66579 0.92833 0.0
H105 H 0.52519 0.68573 0.02615 0.0
H106 H 0.89782 0.60203 0.12326 0.0
H107 H 0.04682 0.67792 0.28861 0.0
H108 H 0.54669 0.68924 0.14526 0.0
H109 H 0.45119 0.6901 0.24393 0.0
H110 H 0.84892 0.58945 0.74363 0.0
H111 H 0.26403 0.68589 0.2981 0.0
H112 H 0.55439 0.57792 0.06917 0.0
N113 N 0.88327 0.5975 0.90308 0.0
C114 C 0.78088 0.59008 0.91552 0.0
C115 C 0.82797 0.58972 0.79176 0.0
C116 C 0.6963 0.58258 0.86619 0.0
C117 C 0.91019 0.59678 0.84211 0.0
C118 C 0.72013 0.5827 0.80381 0.0
N119 N 0.84242 0.59768 0.02499 0.0
C120 C 0.82775 0.59742 0.08672 0.0
C121 C 0.65367 0.58291 0.99271 0.0
C122 C 0.75976 0.5902 0.97825 0.0
C123 C 0.63514 0.58335 0.05616 0.0
C124 C 0.72294 0.59055 0.10331 0.0
H125 H 0.657 0.57715 0.76462 0.0
H126 H 0.52493 0.56936 0.84336 0.0
H127 H 0.48861 0.5696 0.95412 0.0
O128 O 1.03685 0.58491 0.02075 0.0
O129 O 0.83971 0.62131 0.9829 0.0
O130 O 0.85314 0.64536 0.05409 0.0
O131 O 0.10602 0.58904 0.93354 0.0
O132 O 0.06345 0.6168 0.09044 0.0
O133 O 0.97903 0.64231 0.10963 0.0
O134 O 0.89992 0.66767 0.98081 0.0
O135 O 0.19386 0.64257 0.00882 0.0
O136 O 0.18973 0.61714 0.03404 0.0
O137 O 1.01678 0.68078 0.057 0.0
O138 O 0.98309 0.64419 0.93615 0.0
O139 O 0.08269 0.6198 0.91993 0.0
C140 C 0.78728 0.63321 0.02037 0.0
C141 C 0.14093 0.56241 0.96038 0.0
C142 C 0.13223 0.53412 0.97192 0.0
C143 C 0.23293 0.5309 0.93647 0.0
C144 C 0.24028 0.5589 0.92409 0.0
C145 C 0.28685 0.54326 0.91289 0.0
C146 C 0.08702 0.54997 0.98465 0.0
C147 C 1.03227 0.62987 0.12943 0.0
C148 C 0.093 0.57897 0.97145 0.0
C149 C 0.59096 0.57519 0.88061 0.0
C150 C 0.5699 0.57536 0.94364 0.0
C151 C 0.2497 0.63001 0.02585 0.0
C152 C 0.84231 0.69414 0.03073 0.0
C153 C 0.77223 0.72153 0.02814 0.0
C154 C 0.71245 0.72136 0.08253 0.0
C155 C 0.78235 0.69417 0.08534 0.0
C156 C 0.83664 0.70783 0.00189 0.0
C157 C 0.71956 0.7079 0.11151 0.0
C158 C 0.04195 0.63292 0.90029 0.0
C159 C 0.93372 0.68192 0.01255 0.0
H160 H 0.26878 0.51875 0.9265 0.0
H161 H 0.28227 0.56828 0.9046 0.0
H162 H 0.36426 0.54068 0.88532 0.0
H163 H 1.00871 0.55245 0.0118 0.0
H164 H 0.66471 0.73197 0.10418 0.0
H165 H 0.79047 0.68402 0.10969 0.0
H166 H 0.88832 0.70827 0.96181 0.0
H167 H 0.68114 0.70855 0.15611 0.0
Tb168 Tb 0.10361 0.65874 0.53342 0.0
C169 C 0.34908 0.59622 0.46108 0.0
N170 N 0.24392 0.60203 0.43652 0.0
C171 C 0.30873 0.59425 0.33205 0.0
C172 C 0.44069 0.59013 0.42206 0.0
C173 C 0.21912 0.59976 0.37242 0.0
C174 C 0.42122 0.58977 0.35713 0.0
C175 C 0.467 0.58885 0.55151 0.0
C176 C 0.36289 0.59561 0.52531 0.0
C177 C 0.55954 0.5832 0.51286 0.0
C178 C 0.54678 0.58401 0.44849 0.0
Tb179 Tb 0.10764 0.61006 0.50958 0.0
N180 N 0.2749 0.60208 0.56241 0.0
C181 C 0.47526 0.58811 0.61591 0.0
C182 C 0.28038 0.60107 0.6248 0.0
C183 C 0.38126 0.59419 0.65263 0.0
H184 H 0.12925 0.60139 0.3514 0.0
H185 H 0.38645 0.59357 0.70226 0.0
H186 H 0.08564 0.66932 0.68946 0.0
H187 H 0.84796 0.67798 0.33681 0.0
H188 H 0.20657 0.60544 0.65283 0.0
H189 H 0.55389 0.58293 0.63775 0.0
H190 H 1.01951 0.66527 0.38811 0.0
H191 H 0.28954 0.59298 0.28148 0.0
H192 H 0.64113 0.57821 0.53255 0.0
H193 H 0.61763 0.57951 0.41865 0.0
H194 H 0.9393 0.68285 0.76009 0.0
H195 H 0.48984 0.58522 0.32563 0.0
H196 H 0.68768 0.69147 0.40005 0.0
N197 N 0.97749 0.67139 0.60494 0.0
C198 C 0.88103 0.6789 0.58014 0.0
C199 C 0.92044 0.68156 0.7095 0.0
C200 C 0.79643 0.68726 0.6191 0.0
C201 C 1.00191 0.67344 0.66892 0.0
C202 C 0.81604 0.68825 0.68445 0.0
N203 N 0.9528 0.67037 0.47929 0.0
C204 C 0.94861 0.67062 0.4162 0.0
C205 C 0.76994 0.68608 0.48799 0.0
C206 C 0.86824 0.67836 0.51533 0.0
C207 C 0.76211 0.68572 0.42289 0.0
C208 C 0.85238 0.67808 0.38699 0.0
H209 H 0.75333 0.69461 0.71604 0.0
H210 H 0.6301 0.70099 0.62089 0.0
H211 H 0.60657 0.69991 0.50617 0.0
O212 O 0.15582 0.68046 0.50646 0.0
O213 O 0.9229 0.64696 0.53256 0.0
O214 O 0.91943 0.61876 0.49655 0.0
O215 O 0.23424 0.67409 0.5924 0.0
O216 O 0.12625 0.64546 0.43753 0.0
O217 O 1.03526 0.62002 0.42706 0.0
O218 O 0.03939 0.59221 0.55551 0.0
O219 O 0.27411 0.625 0.54735 0.0
O220 O 0.25674 0.6451 0.49256 0.0
O221 O 0.07695 0.58634 0.45828 0.0
O222 O 0.04806 0.62296 0.59913 0.0
O223 O 0.15476 0.6473 0.61534 0.0
C224 C 0.86488 0.63281 0.51392 0.0
C225 C 0.20841 0.70238 0.59101 0.0
C226 C 0.2076 0.73156 0.58985 0.0
C227 C 0.18642 0.7347 0.65391 0.0
C228 C 0.18848 0.70595 0.65545 0.0
C229 C 0.17663 0.72197 0.68634 0.0
C230 C 0.21771 0.71534 0.55827 0.0
C231 C 0.06883 0.63255 0.40324 0.0
C232 C 0.22438 0.68536 0.55825 0.0
C233 C 0.69662 0.69461 0.59178 0.0
C234 C 0.68335 0.69401 0.52643 0.0
C235 C 0.3273 0.63606 0.52272 0.0
C236 C 0.96678 0.56652 0.49609 0.0
C237 C 0.93748 0.53775 0.49703 0.0
C238 C 0.81827 0.53857 0.47002 0.0
C239 C 0.84852 0.56711 0.46823 0.0
C240 C 1.01156 0.5518 0.51018 0.0
C241 C 0.77434 0.55315 0.45549 0.0
C242 C 0.09722 0.63593 0.63668 0.0
C243 C 0.04882 0.58068 0.50696 0.0
H244 H 0.17826 0.74706 0.67893 0.0
H245 H 0.1837 0.69642 0.68248 0.0
H246 H 0.16113 0.72454 0.7359 0.0
H247 H 0.23408 0.71287 0.50874 0.0
H248 H 0.75977 0.52788 0.45973 0.0
H249 H 0.81507 0.57834 0.45614 0.0
H250 H 0.10423 0.5512 0.53062 0.0
H251 H 0.68272 0.55352 0.43391 0.0
Tb252 Tb 1.00234 0.40529 0.54488 0.0
C253 C 0.19064 0.3421 0.39658 0.0
N254 N 0.07222 0.3466 0.3972 0.0
C255 C 0.0472 0.33934 0.28416 0.0
C256 C 0.24357 0.33697 0.33944 0.0
C257 C 0.99811 0.34409 0.34217 0.0
C258 C 0.17134 0.33622 0.28288 0.0
C259 C 0.37692 0.33598 0.45482 0.0
C260 C 0.25698 0.34165 0.45348 0.0
C261 C 0.4325 0.33209 0.39822 0.0
C262 C 0.36599 0.33245 0.34058 0.0
Tb263 Tb 1.00912 0.3559 0.49562 0.0
N264 N 0.20258 0.34648 0.50776 0.0
C265 C 0.43602 0.33405 0.51273 0.0
C266 C 0.2559 0.34335 0.56345 0.0
C267 C 0.37376 0.33733 0.56706 0.0
H268 H 0.90148 0.34604 0.343 0.0
H269 H 0.41724 0.33558 0.61195 0.0
H270 H 1.00643 0.41915 0.69926 0.0
H271 H 0.71558 0.4195 0.34747 0.0
H272 H 0.21065 0.34649 0.60537 0.0
H273 H 0.52813 0.32963 0.51573 0.0
H274 H 0.89869 0.40917 0.39769 0.0
H275 H 0.9893 0.33804 0.24065 0.0
H276 H 0.52624 0.32865 0.39832 0.0
H277 H 0.40925 0.32882 0.29713 0.0
H278 H 0.87081 0.43502 0.77157 0.0
H279 H 0.21039 0.33268 0.23836 0.0
H280 H 0.55505 0.43211 0.41271 0.0
N281 N 0.88422 0.41884 0.6173 0.0
C282 C 0.77915 0.42451 0.59275 0.0
C283 C 0.84349 0.43203 0.7215 0.0
C284 C 0.69923 0.43364 0.63247 0.0
C285 C 0.91964 0.42294 0.68035 0.0
C286 C 0.73175 0.43715 0.69761 0.0
N287 N 0.83685 0.4137 0.48996 0.0
C288 C 0.82674 0.41358 0.42648 0.0
C289 C 0.64977 0.42848 0.50059 0.0
C290 C 0.7545 0.42185 0.52726 0.0
C291 C 0.6341 0.42712 0.43498 0.0
C292 C 0.72424 0.41995 0.39794 0.0
H293 H 0.67283 0.44418 0.72963 0.0
H294 H 0.52915 0.44637 0.63589 0.0
H295 H 0.48515 0.44186 0.52051 0.0
O296 O 1.02848 0.42685 0.50994 0.0
O297 O 0.83611 0.39154 0.55581 0.0
O298 O 0.82516 0.36658 0.48602 0.0
O299 O 0.11237 0.42391 0.60197 0.0
O300 O 0.05094 0.39332 0.45056 0.0
O301 O 0.93134 0.37044 0.429 0.0
O302 O 0.92799 0.33998 0.54664 0.0
O303 O 0.185 0.36932 0.52056 0.0
O304 O 0.18969 0.39741 0.54815 0.0
O305 O 0.98187 0.33155 0.45373 0.0
O306 O 0.99067 0.36494 0.59605 0.0
O307 O 1.03442 0.39288 0.62657 0.0
C308 C 0.77429 0.37876 0.52318 0.0
C309 C 0.14658 0.4499 0.57087 0.0
C310 C 0.13607 0.4783 0.55927 0.0
C311 C 0.24929 0.48127 0.5942 0.0
C312 C 0.25903 0.45323 0.60625 0.0
C313 C 0.31047 0.46878 0.61729 0.0
C314 C 0.08525 0.46249 0.54672 0.0
C315 C 0.99298 0.38162 0.40961 0.0
C316 C 0.09326 0.43343 0.56125 0.0
C317 C 0.59171 0.43944 0.60591 0.0
C318 C 0.56687 0.43686 0.54022 0.0
C319 C 0.24341 0.38338 0.53669 0.0
C320 C 0.84221 0.31491 0.4869 0.0
C321 C 0.7827 0.28705 0.48805 0.0
C322 C 0.68607 0.28809 0.44281 0.0
C323 C 0.74641 0.31573 0.44086 0.0
C324 C 0.86038 0.3005 0.51029 0.0
C325 C 0.66863 0.30233 0.41906 0.0
C326 C 1.00872 0.37836 0.63881 0.0
C327 C 0.93791 0.32745 0.50185 0.0
H328 H 0.28983 0.49333 0.60399 0.0
H329 H 0.30725 0.44374 0.62526 0.0
H330 H 0.39754 0.47123 0.64442 0.0
H331 H 0.99742 0.46014 0.52003 0.0
H332 H 0.62602 0.27776 0.42491 0.0
H333 H 0.73529 0.32649 0.42022 0.0
H334 H 0.9374 0.29952 0.54389 0.0
H335 H 0.59656 0.30273 0.38236 0.0
Tb336 Tb 0.55927 0.90454 0.03753 0.0
C337 C 0.31957 0.83817 0.02667 0.0
N338 N 0.40728 0.84714 0.06588 0.0
C339 C 0.31142 0.84212 0.15567 0.0
C340 C 0.21831 0.83204 0.0506 0.0
C341 C 0.40882 0.84817 0.12943 0.0
C342 C 0.21367 0.83447 0.11611 0.0
C343 C 0.24751 0.82482 0.9206 0.0
C344 C 0.33514 0.83436 0.96259 0.0
C345 C 0.14248 0.81955 0.94376 0.0
C346 C 0.12826 0.82307 0.00865 0.0
Tb347 Tb 0.56377 0.85556 0.0178 0.0
N348 N 0.43848 0.83952 0.942 0.0
C349 C 0.26962 0.82051 0.85692 0.0
C350 C 0.46413 0.8345 0.88073 0.0
C351 C 0.3792 0.82517 0.83711 0.0
H352 H 0.4879 0.85277 0.15985 0.0
H353 H 0.39817 0.82161 0.78824 0.0
H354 H 0.5767 0.91091 0.89331 0.0
H355 H 0.81051 0.9299 0.2605 0.0
H356 H 0.54881 0.83804 0.8651 0.0
H357 H 0.20419 0.81325 0.82306 0.0
H358 H 0.64012 0.91522 0.194 0.0
H359 H 0.31338 0.84298 0.20621 0.0
H360 H 0.07347 0.81232 0.91214 0.0
H361 H 0.04894 0.81842 0.02608 0.0
H362 H 0.71253 0.92569 0.83837 0.0
H363 H 0.13841 0.82974 0.13654 0.0
H364 H 0.96997 0.94282 0.21214 0.0
N365 N 0.68614 0.91575 0.98041 0.0
C366 C 0.77983 0.92472 0.01467 0.0
C367 C 0.7348 0.92509 0.88749 0.0
C368 C 0.86089 0.93319 0.98524 0.0
C369 C 0.65889 0.91651 0.91851 0.0
C370 C 0.83819 0.9331 0.92055 0.0
N371 N 0.70636 0.91847 0.10729 0.0
C372 C 0.71037 0.92023 0.17149 0.0
C373 C 0.88835 0.93496 0.11674 0.0
C374 C 0.79134 0.92595 0.07999 0.0
C375 C 0.89622 0.9361 0.18227 0.0
C376 C 0.8064 0.92881 0.20974 0.0
H377 H 0.89712 0.93969 0.89631 0.0
H378 H 1.0229 0.94843 0.99974 0.0
H379 H 0.04868 0.94965 0.11454 0.0
O380 O 0.51401 0.92894 0.0728 0.0
O381 O 0.74166 0.89351 0.036 0.0
O382 O 0.74238 0.86532 0.00791 0.0
O383 O 0.41872 0.91513 0.98931 0.0
O384 O 0.51882 0.89551 0.12262 0.0
O385 O 0.61548 0.87071 0.11132 0.0
O386 O 0.6285 0.83218 0.98171 0.0
O387 O 0.38561 0.86781 1.00025 0.0
O388 O 0.40387 0.89263 0.06486 0.0
O389 O 0.66453 0.84315 0.07948 0.0
O390 O 0.61723 0.86456 0.93496 0.0
O391 O 0.51327 0.88857 0.94576 0.0
C392 C 0.79818 0.87952 0.02312 0.0
C393 C 0.45371 0.94288 0.98867 0.0
C394 C 0.50596 0.97095 0.98459 0.0
C395 C 0.4836 0.96736 0.91864 0.0
C396 C 0.42756 0.93989 0.92256 0.0
C397 C 0.44449 0.95196 0.88798 0.0
C398 C 0.49198 0.95864 0.01982 0.0
C399 C 0.5624 0.88295 0.14562 0.0
C400 C 0.43829 0.92951 0.02382 0.0
C401 C 0.95886 0.94196 0.02162 0.0
C402 C 0.97318 0.94272 0.08708 0.0
C403 C 0.33541 0.88124 0.02941 0.0
C404 C 0.64752 0.81451 0.05556 0.0
C405 C 0.67368 0.78525 0.04145 0.0
C406 C 0.61747 0.78519 0.09713 0.0
C407 C 0.5937 0.81415 0.11191 0.0
C408 C 0.68691 0.79991 0.02001 0.0
C409 C 0.57742 0.79957 0.132 0.0
C410 C 0.58027 0.87759 0.91345 0.0
C411 C 0.67347 0.8301 0.03691 0.0
H412 H 0.49379 0.97668 0.89086 0.0
H413 H 0.39492 0.92813 0.897 0.0
H414 H 0.42588 0.94943 0.83719 0.0
H415 H 0.50909 0.96138 0.07076 0.0
H416 H 0.6071 0.77399 0.11432 0.0
H417 H 0.56732 0.82515 0.1417 0.0
H418 H 0.73165 0.8 0.9774 0.0
H419 H 0.53639 0.79948 0.17559 0.0
Tb420 Tb 0.46801 0.10745 0.00301 0.0
C421 C 0.71057 0.17634 0.10286 0.0
N422 N 0.61403 0.16868 0.12 0.0
C423 C 0.67669 0.17877 0.22933 0.0
C424 C 0.79881 0.1845 0.14861 0.0
C425 C 0.59162 0.1708 0.18219 0.0
C426 C 0.78239 0.1853 0.2125 0.0
C427 C 0.81581 0.18467 0.01997 0.0
C428 C 0.71838 0.17652 0.03918 0.0
C429 C 0.90707 0.19214 0.06522 0.0
C430 C 0.89836 0.19203 0.12934 0.0
Tb431 Tb 0.48345 0.15607 0.03821 0.0
N432 N 0.62874 0.16908 0.99645 0.0
C433 C 0.81764 0.18529 0.95598 0.0
C434 C 0.62573 0.17062 0.93457 0.0
C435 C 0.72163 0.17839 0.91329 0.0
H436 H 0.50809 0.16648 0.19624 0.0
H437 H 0.72275 0.17886 0.86389 0.0
H438 H 0.49023 0.09875 0.84333 0.0
H439 H 0.12337 0.0836 0.12274 0.0
H440 H 0.55054 0.16577 0.90128 0.0
H441 H 0.89163 0.1913 0.93922 0.0
H442 H 0.33204 0.09211 0.10783 0.0
H443 H 0.66023 0.17995 0.27856 0.0
H444 H 0.98321 0.19833 0.05118 0.0
H445 H 0.96727 0.1981 0.16409 0.0
H446 H 0.34841 0.09626 0.74822 0.0
H447 H 0.8482 0.19149 0.2491 0.0
H448 H 0.95824 0.08366 0.03773 0.0
N449 N 0.35075 0.10237 0.90742 0.0
C450 C 0.23111 0.09937 0.91191 0.0
C451 C 0.31374 0.09754 0.79417 0.0
C452 C 0.14673 0.09682 0.85823 0.0
C453 C 0.3939 0.0995 0.84875 0.0
C454 C 0.18894 0.09682 0.79924 0.0
N455 N 0.2812 0.09844 0.01888 0.0
C456 C 0.25918 0.09261 0.07167 0.0
C457 C 0.07634 0.09187 0.97472 0.0
C458 C 0.19591 0.09681 0.96912 0.0
C459 C 0.04913 0.08758 0.03154 0.0
C460 C 0.14189 0.08757 0.07971 0.0
H461 H 0.12694 0.09504 0.75704 0.0
H462 H 0.95862 0.09135 0.82396 0.0
H463 H 0.8966 0.08755 0.92649 0.0
O464 O 0.54176 0.09024 0.05541 0.0
O465 O 0.31674 0.12223 0.04495 0.0
O466 O 0.31191 0.14385 0.99574 0.0
O467 O 0.4819 0.08333 0.9573 0.0
O468 O 0.53947 0.11811 0.09955 0.0
O469 O 0.45203 0.14349 0.11651 0.0
O470 O 0.43217 0.17846 0.01232 0.0
O471 O 0.66446 0.14449 0.04391 0.0
O472 O 0.65768 0.11647 0.00282 0.0
O473 O 0.36598 0.17091 0.09457 0.0
O474 O 0.45486 0.14372 0.93868 0.0
O475 O 0.54741 0.11888 0.9323 0.0
C476 C 0.25399 0.13336 0.02105 0.0
C477 C 0.61086 0.06512 0.9997 0.0
C478 C 0.64287 0.03643 1.00025 0.0
C479 C 0.73814 0.03667 0.96114 0.0
C480 C 0.70518 0.06516 0.96054 0.0
C481 C 0.77065 0.05105 0.94257 0.0
C482 C 0.58393 0.051 0.02201 0.0
C483 C 0.51334 0.1317 0.13697 0.0
C484 C 0.52389 0.07833 0.0078 0.0
C485 C 1.02484 0.09322 0.86458 0.0
C486 C 0.9897 0.09082 0.92283 0.0
C487 C 0.71758 0.13042 0.02539 0.0
C488 C 0.30341 0.19756 0.076 0.0
C489 C 0.26368 0.2255 0.0637 0.0
C490 C 0.19218 0.22742 0.11501 0.0
C491 C 0.23164 0.19988 0.12742 0.0
C492 C 0.31942 0.21049 0.04386 0.0
C493 C 0.17753 0.21476 0.14697 0.0
C494 C 0.51789 0.13178 0.90814 0.0
C495 C 0.37065 0.18228 0.06136 0.0
H496 H 0.78525 0.02562 0.94365 0.0
H497 H 0.72346 0.07585 0.94167 0.0
H498 H 0.84283 0.05106 0.91173 0.0
H499 H 0.50924 0.05094 0.05147 0.0
H500 H 0.14949 0.23891 0.13117 0.0
H501 H 0.2193 0.19029 0.15359 0.0
H502 H 0.37722 0.20912 0.00522 0.0
H503 H 0.12532 0.21662 0.18771 0.0
Tb504 Tb 0.59844 0.15751 0.54771 0.0
C505 C 0.86261 0.09675 0.46362 0.0
N506 N 0.75612 0.1018 0.43794 0.0
C507 C 0.82185 0.09403 0.33402 0.0
C508 C 0.95507 0.09079 0.42519 0.0
C509 C 0.73232 0.09986 0.37399 0.0
C510 C 0.93419 0.0896 0.35975 0.0
C511 C 0.98965 0.09313 0.55692 0.0
C512 C 0.87942 0.09794 0.52903 0.0
C513 C 0.08347 0.08769 0.51891 0.0
C514 C 0.06553 0.08633 0.45314 0.0
Tb515 Tb 0.61645 0.10956 0.50779 0.0
N516 N 0.78678 0.10341 0.56488 0.0
C517 C 1.00137 0.09351 0.62198 0.0
C518 C 0.79354 0.10222 0.62708 0.0
C519 C 0.90191 0.09773 0.65699 0.0
H520 H 0.64393 0.10245 0.3533 0.0
H521 H 0.90761 0.09717 0.70667 0.0
H522 H 0.68637 0.1726 0.69963 0.0
H523 H 0.2153 0.17238 0.39934 0.0
H524 H 0.71475 0.10407 0.65346 0.0
H525 H 0.08503 0.08989 0.64494 0.0
H526 H 0.4262 0.16366 0.422 0.0
H527 H 0.80366 0.09277 0.28341 0.0
H528 H 0.1692 0.08431 0.54037 0.0
H529 H 0.13672 0.08186 0.42354 0.0
H530 H 0.58703 0.18684 0.79238 0.0
H531 H 1.00364 0.0851 0.32869 0.0
H532 H 0.08694 0.18141 0.48754 0.0
N533 N 0.52352 0.17062 0.63816 0.0
C534 C 0.40568 0.17521 0.63063 0.0
C535 C 0.53488 0.18328 0.74746 0.0
C536 C 0.34604 0.18327 0.68229 0.0
C537 C 0.59038 0.17518 0.6949 0.0
C538 C 0.41167 0.18703 0.7415 0.0
N539 N 0.41056 0.16614 0.52063 0.0
C540 C 0.36919 0.16726 0.46022 0.0
C541 C 0.22854 0.1782 0.55964 0.0
C542 C 0.34728 0.17277 0.57 0.0
C543 C 0.17857 0.17736 0.49737 0.0
C544 C 0.2506 0.17229 0.44744 0.0
H545 H 0.36921 0.19329 0.7824 0.0
H546 H 0.17531 0.19349 0.71197 0.0
H547 H 0.07368 0.18861 0.60391 0.0
O548 O 0.72326 0.17019 0.50415 0.0
O549 O 0.4266 0.14246 0.51451 0.0
O550 O 0.43736 0.1171 0.54084 0.0
O551 O 0.60084 0.18284 0.5664 0.0
O552 O 0.61628 0.14735 0.44883 0.0
O553 O 0.5378 0.12106 0.42928 0.0
O554 O 0.62836 0.08598 0.52685 0.0
O555 O 0.76399 0.12594 0.49182 0.0
O556 O 0.78062 0.14781 0.57105 0.0
O557 O 0.5175 0.09054 0.44603 0.0
O558 O 0.57077 0.12012 0.60475 0.0
O559 O 0.65836 0.14591 0.62784 0.0
C560 C 0.3739 0.12993 0.53183 0.0
C561 C 0.77541 0.19712 0.55879 0.0
C562 C 0.83993 0.22527 0.56779 0.0
C563 C 0.91301 0.22421 0.62301 0.0
C564 C 0.84595 0.19635 0.61504 0.0
C565 C 0.91494 0.20986 0.64678 0.0
C566 C 0.77209 0.21164 0.53544 0.0
C567 C 0.5762 0.13416 0.40981 0.0
C568 C 0.68633 0.18432 0.53097 0.0
C569 C 0.22409 0.18763 0.67273 0.0
C570 C 0.16578 0.18495 0.61149 0.0
C571 C 0.83394 0.13608 0.53378 0.0
C572 C 0.48074 0.06598 0.48408 0.0
C573 C 0.45941 0.03815 0.50056 0.0
C574 C 0.33264 0.03954 0.49361 0.0
C575 C 0.35459 0.06713 0.47734 0.0
C576 C 0.53341 0.05142 0.49579 0.0
C577 C 0.28059 0.05397 0.48197 0.0
C578 C 0.60791 0.13344 0.6452 0.0
C579 C 0.55969 0.07954 0.47715 0.0
H580 H 0.96566 0.23464 0.64853 0.0
H581 H 0.84624 0.18541 0.6348 0.0
H582 H 0.96972 0.20921 0.69008 0.0
H583 H 0.71221 0.21262 0.49398 0.0
H584 H 0.27429 0.02943 0.49697 0.0
H585 H 0.31513 0.07829 0.46846 0.0
H586 H 0.63151 0.05036 0.50071 0.0
H587 H 0.18272 0.0549 0.47635 0.0
Tb588 Tb 0.50267 0.90569 0.5478 0.0
C589 C 0.71655 0.84135 0.42312 0.0
N590 N 0.60033 0.84643 0.41483 0.0
C591 C 0.60123 0.83758 0.30282 0.0
C592 C 0.78218 0.83508 0.37112 0.0
C593 C 0.5393 0.84337 0.35609 0.0
C594 C 0.72415 0.83375 0.31026 0.0
C595 C 0.88308 0.83511 0.49488 0.0
C596 C 0.76671 0.8413 0.48412 0.0
C597 C 0.9518 0.82995 0.44361 0.0
C598 C 0.9018 0.82986 0.38178 0.0
Tb599 Tb 0.51554 0.85686 0.50639 0.0
N600 N 0.69804 0.84647 0.53282 0.0
C601 C 0.92505 0.83374 0.55659 0.0
C602 C 0.7329 0.84373 0.59207 0.0
C603 C 0.8484 0.83774 0.60518 0.0
H604 H 0.4429 0.84539 0.35022 0.0
H605 H 0.87805 0.83618 0.65258 0.0
H606 H 0.47184 0.91584 0.70124 0.0
H607 H 0.21222 0.91359 0.34056 0.0
H608 H 0.67325 0.84671 0.62952 0.0
H609 H 1.01442 0.82902 0.56671 0.0
H610 H 0.4052 0.90856 0.39704 0.0
H611 H 0.55356 0.83582 0.25623 0.0
H612 H 0.04212 0.82557 0.45167 0.0
H613 H 0.95493 0.82527 0.34259 0.0
H614 H 0.30925 0.9265 0.76788 0.0
H615 H 0.77156 0.82907 0.26898 0.0
H616 H 1.0324 0.92132 0.39961 0.0
N617 N 0.36092 0.91463 0.61477 0.0
C618 C 0.25371 0.91868 0.58648 0.0
C619 C 0.29234 0.92425 0.71702 0.0
C620 C 0.1593 0.92498 0.62297 0.0
C621 C 0.38356 0.91793 0.67898 0.0
C622 C 0.17931 0.92769 0.68892 0.0
N623 N 0.33258 0.91037 0.48641 0.0
C624 C 0.32633 0.91046 0.42308 0.0
C625 C 0.12724 0.92008 0.4903 0.0
C626 C 0.23821 0.91618 0.52053 0.0
C627 C 0.11656 0.91851 0.42457 0.0
C628 C 0.21746 0.91402 0.391 0.0
H629 H 0.10845 0.93252 0.71852 0.0
H630 H 0.97521 0.93294 0.62103 0.0
H631 H 0.94525 0.92845 0.50347 0.0
O632 O 0.48913 0.92884 0.52486 0.0
O633 O 0.35824 0.8894 0.56848 0.0
O634 O 0.33348 0.86737 0.48943 0.0
O635 O 0.60203 0.92521 0.60638 0.0
O636 O 0.55679 0.89552 0.45439 0.0
O637 O 0.46332 0.87046 0.43127 0.0
O638 O 0.3889 0.84376 0.54748 0.0
O639 O 0.68299 0.87067 0.54758 0.0
O640 O 0.68615 0.89626 0.52323 0.0
O641 O 0.50505 0.83165 0.48014 0.0
O642 O 0.5229 0.86765 0.60691 0.0
O643 O 0.57024 0.89546 0.62955 0.0
C644 C 0.28484 0.87917 0.52871 0.0
C645 C 0.6359 0.94915 0.56402 0.0
C646 C 0.65579 0.97679 0.5455 0.0
C647 C 0.78245 0.97513 0.54834 0.0
C648 C 0.76168 0.94765 0.56589 0.0
C649 C 0.83506 0.9606 0.55847 0.0
C650 C 0.58257 0.96376 0.55351 0.0
C651 C 0.52206 0.88231 0.41386 0.0
C652 C 0.55817 0.93578 0.57365 0.0
C653 C 0.04788 0.92829 0.59276 0.0
C654 C 1.0314 0.92575 0.52659 0.0
C655 C 0.74197 0.88265 0.53135 0.0
C656 C 0.32955 0.81733 0.4887 0.0
C657 C 0.24913 0.78997 0.48445 0.0
C658 C 0.18791 0.7905 0.42535 0.0
C659 C 0.26906 0.81753 0.42926 0.0
C660 C 0.31905 0.80354 0.51631 0.0
C661 C 0.19805 0.80419 0.39798 0.0
C662 C 0.55135 0.88141 0.64665 0.0
C663 C 0.42175 0.82981 0.51665 0.0
H664 H 0.84024 0.98507 0.5425 0.0
H665 H 0.801 0.93634 0.57294 0.0
H666 H 0.93279 0.95939 0.56045 0.0
H667 H 0.48462 0.96501 0.55167 0.0
H668 H 0.13314 0.78024 0.40018 0.0
H669 H 0.27841 0.82789 0.40667 0.0
H670 H 0.36916 0.80307 0.56121 0.0
H671 H 0.15096 0.80444 0.35227 0.0
C672 C 0.51015 0.3698 0.97079 0.0
C673 C 0.44855 0.37868 0.02218 0.0
C674 C 0.64708 0.3917 0.06766 0.0
C675 C 0.70797 0.38307 0.01697 0.0
N676 N 0.69383 0.36583 0.91474 0.0
N677 N 0.48293 0.39013 0.1324 0.0
C678 C 0.63814 0.37264 0.96717 0.0
C679 C 0.52374 0.38766 0.07395 0.0
N680 N 0.45207 0.35732 0.92912 0.0
N681 N 0.7075 0.40352 0.11136 0.0
H682 H 0.40881 0.38346 0.14024 0.0
H683 H 0.5336 0.39574 0.1735 0.0
H684 H 0.79707 0.40699 0.10865 0.0
H685 H 0.66674 0.41053 0.14866 0.0
H686 H 0.49465 0.34955 0.89456 0.0
H687 H 0.36675 0.35281 0.93376 0.0
H688 H 0.64752 0.36024 0.87235 0.0
H689 H 0.78693 0.36698 0.91162 0.0
C690 C 0.44565 0.62109 0.97641 0.0
C691 C 0.38717 0.62972 0.02773 0.0
C692 C 0.58796 0.64099 0.07716 0.0
C693 C 0.64766 0.6329 0.02324 0.0
N694 N 0.61267 0.62034 0.91261 0.0
N695 N 0.406 0.6444 0.13391 0.0
C696 C 0.57087 0.62416 0.97086 0.0
C697 C 0.4595 0.63876 0.07966 0.0
N698 N 0.382 0.60966 0.93243 0.0
N699 N 0.64945 0.65168 0.12512 0.0
H700 H 0.31246 0.64387 0.13609 0.0
H701 H 0.45352 0.64832 0.17777 0.0
H702 H 0.74205 0.65378 0.1318 0.0
H703 H 0.60691 0.6596 0.15918 0.0
H704 H 0.4224 0.60167 0.89754 0.0
H705 H 0.29036 0.60718 0.93408 0.0
H706 H 0.55804 0.61572 0.87151 0.0
H707 H 0.69708 0.62397 0.90348 0.0
C708 C 0.65589 0.6418 0.47407 0.0
C709 C 0.72699 0.63303 0.51379 0.0
C710 C 0.54257 0.62919 0.56675 0.0
C711 C 0.46766 0.63685 0.52388 0.0
N712 N 0.47403 0.6568 0.45579 0.0
N713 N 0.72942 0.61544 0.58981 0.0
C714 C 0.5296 0.64483 0.48227 0.0
C715 C 0.66748 0.62579 0.55729 0.0
N716 N 0.70823 0.6468 0.4261 0.0
N717 N 0.49949 0.62695 0.62165 0.0
H718 H 0.82075 0.61277 0.58575 0.0
H719 H 0.68786 0.60851 0.6174 0.0
H720 H 0.41414 0.63065 0.63414 0.0
H721 H 0.55378 0.62355 0.6586 0.0
H722 H 0.65888 0.65067 0.38863 0.0
H723 H 0.80056 0.64563 0.42075 0.0
H724 H 0.51829 0.66386 0.42969 0.0
H725 H 0.3919 0.66189 0.46814 0.0
C726 C 0.58169 0.37413 0.57626 0.0
C727 C 0.63704 0.3791 0.52576 0.0
C728 C 0.43801 0.38918 0.48915 0.0
C729 C 0.38064 0.38327 0.53685 0.0
N730 N 0.40343 0.37429 0.63594 0.0
N731 N 0.60977 0.38814 0.42692 0.0
C732 C 0.45419 0.3768 0.58311 0.0
C733 C 0.56257 0.38573 0.48043 0.0
N734 N 0.64997 0.3661 0.61584 0.0
N735 N 0.37624 0.39904 0.45427 0.0
H736 H 0.70135 0.38664 0.42096 0.0
H737 H 0.55714 0.39046 0.38738 0.0
H738 H 0.28603 0.40223 0.45911 0.0
H739 H 0.41738 0.40522 0.42401 0.0
H740 H 0.61444 0.36064 0.64982 0.0
H741 H 0.74194 0.36378 0.61131 0.0
H742 H 0.45266 0.37122 0.67502 0.0
H743 H 0.31202 0.37653 0.64272 0.0
C744 C 1.0049 0.88947 0.07739 0.0
C745 C 0.9356 0.88 0.0247 0.0
C746 C 0.12555 0.87434 0.97314 0.0
C747 C 0.19659 0.88261 0.02731 0.0
N748 N 0.18831 0.90444 0.11942 0.0
N749 N 0.93968 0.86061 0.92602 0.0
C750 C 0.13267 0.89199 0.0764 0.0
C751 C 0.99882 0.87142 0.97422 0.0
N752 N 0.95041 0.89527 0.13121 0.0
N753 N 0.1749 0.87201 0.91682 0.0
H754 H 0.84608 0.85894 0.91928 0.0
H755 H 0.98603 0.85251 0.89395 0.0
H756 H 0.25287 0.87856 0.91281 0.0
H757 H 0.12788 0.86698 0.8738 0.0
H758 H 0.99851 0.89975 0.17454 0.0
H759 H 0.85786 0.89416 0.13437 0.0
H760 H 0.14032 0.91284 0.14948 0.0
H761 H 0.27799 0.90816 0.12136 0.0
C762 C 0.06043 0.13053 0.07644 0.0
C763 C 0.11541 0.13371 0.0228 0.0
C764 C 0.90805 0.13714 0.97515 0.0
C765 C 0.85465 0.13089 0.02333 0.0
N766 N 0.88968 0.11811 0.11376 0.0
N767 N 0.08022 0.13673 0.91419 0.0
C768 C 0.93388 0.12637 0.07188 0.0
C769 C 1.03589 0.13622 0.97037 0.0
N770 N 0.1257 0.13306 0.13358 0.0
N771 N 0.83734 0.14405 0.93334 0.0
H772 H 0.17096 0.13508 0.90816 0.0
H773 H 1.02554 0.13668 0.87247 0.0
H774 H 0.74364 0.14413 0.93322 0.0
H775 H 0.87246 0.15027 0.90134 0.0
H776 H 0.08789 0.13192 0.1751 0.0
H777 H 0.21094 0.13876 0.13992 0.0
H778 H 0.94615 0.11363 0.14746 0.0
H779 H 0.7987 0.11445 0.11053 0.0
C780 C 0.17519 0.13044 0.58757 0.0
C781 C 0.23447 0.12932 0.53156 0.0
C782 C 1.031 0.13062 0.47476 0.0
C783 C 0.97425 0.13496 0.53302 0.0
N784 N 1.0125 0.14229 0.64703 0.0
N785 N 0.20244 0.11805 0.4221 0.0
C786 C 0.05221 0.13585 0.58992 0.0
C787 C 0.15813 0.12677 0.47476 0.0
N788 N 0.22918 0.12407 0.63608 0.0
N789 N 0.96564 0.13066 0.41856 0.0
H790 H 0.29001 0.11334 0.42324 0.0
H791 H 0.14888 0.11371 0.38035 0.0
H792 H 0.87315 0.13256 0.41463 0.0
H793 H 1.00526 0.1299 0.37611 0.0
H794 H 0.18438 0.12284 0.67549 0.0
H795 H 0.31305 0.11837 0.63315 0.0
H796 H 0.06965 0.1439 0.68872 0.0
H797 H 0.92973 0.14802 0.652 0.0
C798 C 0.95655 0.88193 0.58803 0.0
C799 C 0.88072 0.88149 0.53128 0.0
C800 C 0.06715 0.87864 0.47354 0.0
C801 C 0.14477 0.88025 0.53081 0.0
N802 N 0.15287 0.88754 0.64542 0.0
N803 N 0.86651 0.87304 0.41884 0.0
C804 C 0.08654 0.88304 0.58872 0.0
C805 C 0.93712 0.8781 0.47376 0.0
N806 N 0.90547 0.8799 0.64125 0.0
N807 N 0.11729 0.87923 0.41873 0.0
H808 H 0.77241 0.87199 0.41757 0.0
H809 H 0.90098 0.86829 0.37601 0.0
H810 H 0.20888 0.88178 0.41843 0.0
H811 H 0.06726 0.87978 0.37622 0.0
H812 H 0.95566 0.87793 0.68201 0.0
H813 H 0.81296 0.87791 0.64203 0.0
H814 H 0.11375 0.89177 0.68745 0.0
H815 H 0.24607 0.88907 0.65073 0.0
C816 C 0.9832 0.5109 0.95105 0.0
C817 C 0.07228 0.52051 0.99296 0.0
C818 C 0.0618 0.50233 0.06892 0.0
C819 C 0.98237 0.49191 0.02418 0.0
N820 N 0.87618 0.48469 0.92299 0.0
N821 N 0.2033 0.52522 0.08969 0.0
C822 C 0.94487 0.49591 0.96521 0.0
C823 C 0.11316 0.51622 0.05156 0.0
N824 N 0.93465 0.51627 0.89859 0.0
N825 N 0.08497 0.49916 0.12843 0.0
H826 H 0.23899 0.53587 0.07975 0.0
H827 H 0.24751 0.52173 0.12929 0.0
H828 H 0.04905 0.48904 0.1424 0.0
H829 H 0.13203 0.5071 0.16537 0.0
H830 H 0.86037 0.51081 0.86959 0.0
H831 H 0.96239 0.52708 0.88663 0.0
H832 H 0.85006 0.48564 0.87645 0.0
H833 H 0.85006 0.48564 0.87645 0.0
C834 C 0.98977 0.50129 0.57739 0.0
C835 C 0.07183 0.4922 0.538 0.0
C836 C 0.05627 0.51219 0.46813 0.0
C837 C 0.98428 0.52206 0.5111 0.0
N838 N 0.89261 0.52713 0.60989 0.0
N839 N 0.18952 0.48907 0.44789 0.0
C840 C 0.9531 0.51686 0.56647 0.0
C841 C 0.10634 0.49764 0.48366 0.0
N842 N 0.94651 0.49496 0.62511 0.0
N843 N 0.07436 0.51657 0.41185 0.0
H844 H 0.22234 0.47789 0.45569 0.0
H845 H 0.23064 0.49332 0.41253 0.0
H846 H 0.04134 0.5273 0.39954 0.0
H847 H 0.11465 0.50913 0.37543 0.0
H848 H 0.87676 0.50012 0.65133 0.0
H849 H 0.97347 0.48377 0.63536 0.0
H850 H 0.87883 0.52489 0.65444 0.0
H851 H 0.86385 0.53859 0.6034 0.0
C852 C 0.65618 0.99349 0.03213 0.0
C853 C 0.53447 0.98816 0.01412 0.0
C854 C 0.47756 0.01513 0.99666 0.0
C855 C 0.60007 0.02063 0.0138 0.0
N856 N 0.79326 0.01654 0.06903 0.0
N857 N 0.32394 0.99522 0.00511 0.0
C858 C 0.68525 0.01029 0.03886 0.0
C859 C 0.44327 0.99959 0.00641 0.0
N860 N 0.74475 0.98247 0.03936 0.0
N861 N 0.39672 0.0238 0.96534 0.0
H862 H 0.29789 0.98374 0.01167 0.0
H863 H 0.25336 1.00347 0.00449 0.0
H864 H 0.4194 0.03448 0.95092 0.0
H865 H 0.31019 0.0194 0.94716 0.0
H866 H 0.83715 0.98544 0.04507 0.0
H867 H 0.72553 0.97017 0.03643 0.0
H868 H 0.85494 0.00981 0.09232 0.0
H869 H 0.81499 0.02889 0.07622 0.0
C870 C 0.5334 0.0101 0.46001 0.0
C871 C 0.51366 0.02262 0.51215 0.0
C872 C 0.58115 1.00481 0.58609 0.0
C873 C 0.60079 0.99229 0.53397 0.0
N874 N 0.60485 0.98284 0.42205 0.0
N875 N 0.50677 0.03189 0.62401 0.0
C876 C 0.57882 0.99488 0.47103 0.0
C877 C 0.5348 0.01998 0.57505 0.0
N878 N 0.50493 0.01271 0.39998 0.0
N879 N 0.61097 1.00229 0.64612 0.0
H880 H 0.47749 0.04335 0.61783 0.0
H881 H 0.50664 0.03036 0.67053 0.0
H882 H 0.64086 0.99117 0.65594 0.0
H883 H 0.61206 0.01128 0.6864 0.0
H884 H 0.50464 1.0038 0.35951 0.0
H885 H 0.47614 0.02389 0.39023 0.0
H886 H 0.60372 0.98424 0.37532 0.0
H887 H 0.63281 0.97133 0.42827 0.0
C888 C 0.35947 0.2679 0.05648 0.0
C889 C 0.24685 0.27284 0.03051 0.0
C890 C 0.18327 0.24441 0.99508 0.0
C891 C 0.28104 0.23993 0.0346 0.0
N892 N 0.47224 0.24647 0.09599 0.0
N893 N 0.05904 0.2663 0.9663 0.0
C894 C 0.37444 0.25134 0.06158 0.0
C895 C 0.16244 0.26117 0.9954 0.0
N896 N 0.44923 0.27925 0.07824 0.0
N897 N 0.10858 0.23256 0.95966 0.0
H898 H 0.04519 0.27851 0.9644 0.0
H899 H 0.98682 0.25868 0.94525 0.0
H900 H 0.12383 0.22027 0.95965 0.0
H901 H 1.03847 0.23469 0.92713 0.0
H902 H 0.53668 0.27651 0.09455 0.0
H903 H 0.43833 0.29142 0.07489 0.0
H904 H 0.53714 0.25437 0.12321 0.0
H905 H 0.4866 0.2343 0.09834 0.0
C906 C 0.641 0.75782 0.97378 0.0
C907 C 0.72299 0.76973 0.00932 0.0
C908 C 0.86539 0.74881 0.03115 0.0
C909 C 0.77503 0.73694 0.00425 0.0
N910 N 0.59809 0.72912 0.93287 0.0
N911 N 0.92731 0.77727 0.0517 0.0
C912 C 0.67038 0.74116 0.96888 0.0
C913 C 0.84107 0.7654 0.03039 0.0
N914 N 0.5324 0.76258 0.94858 0.0
N915 N 0.96965 0.74426 0.06147 0.0
H916 H 0.9098 0.78948 0.05172 0.0
H917 H 1.01795 0.77499 0.06401 0.0
H918 H 0.99105 0.73213 0.0608 0.0
H919 H 1.03315 0.75239 0.08862 0.0
H920 H 0.46221 0.75463 0.92737 0.0
H921 H 0.51246 0.7748 0.95 0.0
H922 H 0.52294 0.73116 0.90318 0.0
H923 H 0.61983 0.71689 0.92935 0.0
C924 C 0.1138 0.75471 0.54534 0.0
C925 C 0.21867 0.7456 0.55719 0.0
C926 C 0.3437 0.76493 0.51677 0.0
C927 C 0.24075 0.77496 0.51179 0.0
N928 N 1.03295 0.78089 0.5331 0.0
N929 N 0.43686 0.74317 0.56274 0.0
C930 C 0.12708 0.77025 0.5293 0.0
C931 C 0.33474 0.751 0.54515 0.0
N932 N 1.00102 0.74833 0.54811 0.0
N933 N 0.44879 0.76835 0.49242 0.0
H934 H 0.43401 0.73276 0.5824 0.0
H935 H 0.5246 0.74765 0.56219 0.0
H936 H 0.4589 0.77833 0.47092 0.0
H937 H 0.52236 0.76055 0.48861 0.0
H938 H 0.92087 0.75365 0.53365 0.0
H939 H 0.98796 0.73689 0.55898 0.0
H940 H 0.95191 0.77876 0.55178 0.0
H941 H 0.04007 0.79255 0.52339 0.0
C942 C 0.74872 0.26883 0.56418 0.0
C943 C 0.80403 0.27154 0.51032 0.0
C944 C 0.88999 0.24422 0.49617 0.0
C945 C 0.82658 0.2411 0.54704 0.0
N946 N 0.68048 0.24925 0.62331 0.0
N947 N 0.91894 0.26179 0.42126 0.0
C948 C 0.75198 0.2531 0.57951 0.0
C949 C 0.87259 0.25922 0.47523 0.0
N950 N 0.69452 0.28139 0.60116 0.0
N951 N 0.9691 0.23299 0.46909 0.0
H952 H 0.91304 0.27288 0.40621 0.0
H953 H 0.95724 0.25274 0.3894 0.0
H954 H 0.98197 0.22175 0.48242 0.0
H955 H 1.02807 0.23514 0.43644 0.0
H956 H 0.66457 0.2807 0.6449 0.0
H957 H 0.6879 0.29299 0.59058 0.0
H958 H 0.61419 0.25686 0.64357 0.0
H959 H 0.67998 0.23784 0.6358 0.0
C960 C 0.14231 0.38295 0.25714 0.0
C961 C 0.04086 0.38256 0.21195 0.0
C962 C 0.9055 0.37915 0.29407 0.0
C963 C 1.00739 0.38052 0.34003 0.0
N964 N 0.22324 0.37738 0.35778 0.0
N965 N 0.82428 0.38107 0.18843 0.0
C966 C 0.12594 0.38078 0.31948 0.0
C967 C 0.9221 0.38106 0.23114 0.0
N968 N 0.2548 0.3864 0.24156 0.0
N969 N 0.79456 0.37443 0.30831 0.0
H970 H 0.83351 0.37995 0.14062 0.0
H971 H 0.73514 0.38271 0.2002 0.0
H972 H 0.7816 0.37039 0.34952 0.0
H973 H 0.71823 0.37205 0.27626 0.0
H974 H 0.33101 0.38886 0.27384 0.0
H975 H 0.26743 0.38867 0.19728 0.0
H976 H 0.30976 0.37507 0.34272 0.0
H977 H 0.21465 0.37494 0.40254 0.0
C978 C 0.15549 0.62842 0.23284 0.0
C979 C 0.04066 0.62935 0.19883 0.0
C980 C 0.94399 0.62826 0.29653 0.0
C981 C 0.05871 0.63092 0.33249 0.0
N982 N 0.27682 0.63429 0.3325 0.0
N983 N 0.82251 0.63042 0.20033 0.0
C984 C 0.16502 0.63152 0.3 0.0
C985 C 0.93415 0.62959 0.23157 0.0
N986 N 0.25495 0.62333 0.20164 0.0
N987 N 0.84516 0.62349 0.3227 0.0
H988 H 0.80976 0.62912 0.15153 0.0
H989 H 0.74352 0.63296 0.22329 0.0
H990 H 0.84846 0.6213 0.36843 0.0
H991 H 0.76264 0.61988 0.29686 0.0
H992 H 0.33803 0.62093 0.22444 0.0
H993 H 0.25149 0.61962 0.153 0.0
H994 H 0.35343 0.63724 0.31167 0.0
H995 H 0.29305 0.63404 0.38024 0.0
C996 C 0.95337 0.63511 0.79017 0.0
C997 C 0.05717 0.6348 0.8336 0.0
C998 C 0.18849 0.63878 0.7509 0.0
C999 C 0.08507 0.63753 0.70624 0.0
N1000 N 0.86875 0.64026 0.68921 0.0
N1001 N 0.27507 0.63546 0.85414 0.0
C1002 C 0.96734 0.63718 0.72749 0.0
C1003 C 0.17508 0.63632 0.81342 0.0
N1004 N 0.84072 0.6326 0.80796 0.0
N1005 N 0.29811 0.64362 0.73552 0.0
H1006 H 0.26939 0.63557 0.90175 0.0
H1007 H 0.36299 0.63381 0.84038 0.0
H1008 H 0.3085 0.64768 0.69393 0.0
H1009 H 0.37544 0.64591 0.76696 0.0
H1010 H 0.76306 0.62999 0.77682 0.0
H1011 H 0.82735 0.63204 0.85408 0.0
H1012 H 0.78164 0.64219 0.70382 0.0
H1013 H 0.87635 0.64276 0.64446 0.0
C1014 C 0.07983 0.36716 0.7361 0.0
C1015 C 0.99916 0.37702 0.70685 0.0
C1016 C 0.92223 0.38641 0.81132 0.0
C1017 C 1.0272 0.37986 0.84071 0.0
N1018 N 0.22666 0.36819 0.82406 0.0
N1019 N 0.8214 0.39352 0.71597 0.0
C1020 C 0.1126 0.37155 0.80116 0.0
C1021 C 0.91418 0.38611 0.74453 0.0
N1022 N 0.11204 0.35243 0.70475 0.0
N1023 N 0.82834 0.39224 0.84596 0.0
H1024 H 0.8064 0.39195 0.66717 0.0
H1025 H 0.7613 0.40145 0.73999 0.0
H1026 H 0.82803 0.39252 0.89403 0.0
H1027 H 0.745 0.39559 0.82657 0.0
H1028 H 0.16784 0.34466 0.72646 0.0
H1029 H 0.06299 0.34693 0.663 0.0
H1030 H 0.28969 0.36235 0.7945 0.0
H1031 H 0.26306 0.37327 0.8694 0.0
C1032 C 0.65507 0.88452 0.25748 0.0
C1033 C 0.55117 0.88281 0.21396 0.0
C1034 C 0.42867 0.87845 0.29891 0.0
C1035 C 0.53068 0.88258 0.34468 0.0
N1036 N 0.73006 0.89639 0.36272 0.0
N1037 N 0.33186 0.88175 0.19847 0.0
C1038 C 0.6403 0.88782 0.32295 0.0
C1039 C 0.43569 0.88132 0.23674 0.0
N1040 N 0.76868 0.88271 0.23728 0.0
N1041 N 0.32567 0.87128 0.31236 0.0
H1042 H 0.33235 0.881 0.15034 0.0
H1043 H 0.24604 0.88331 0.21529 0.0
H1044 H 0.31561 0.86724 0.35371 0.0
H1045 H 0.25386 0.86721 0.2787 0.0
H1046 H 0.84666 0.88294 0.26827 0.0
H1047 H 0.78301 0.87865 0.1902 0.0
H1048 H 0.80349 0.90158 0.34594 0.0
H1049 H 0.72951 0.89956 0.41126 0.0
C1050 C 0.64448 0.1378 0.24055 0.0
C1051 C 0.53202 0.1323 0.20674 0.0
C1052 C 0.447 0.13084 0.30658 0.0
C1053 C 0.5612 0.13493 0.34049 0.0
N1054 N 0.75478 0.1487 0.34061 0.0
N1055 N 0.33549 0.12011 0.2075 0.0
C1056 C 0.657 0.14011 0.30791 0.0
C1057 C 0.43615 0.12786 0.23982 0.0
N1058 N 0.7405 0.14064 0.20813 0.0
N1059 N 0.34522 0.13189 0.33831 0.0
H1060 H 0.3252 0.11776 0.15869 0.0
H1061 H 0.26882 0.11485 0.2289 0.0
H1062 H 0.34921 0.13624 0.38671 0.0
H1063 H 0.25744 0.13095 0.31591 0.0
H1064 H 0.82988 0.14217 0.22807 0.0
H1065 H 0.73161 0.14055 0.15987 0.0
H1066 H 0.82024 0.15423 0.31956 0.0
H1067 H 0.76489 0.1522 0.38924 0.0
C1068 C 0.45106 0.1371 0.7984 0.0
C1069 C 0.54259 0.13176 0.83995 0.0
C1070 C 0.68254 0.12983 0.75588 0.0
C1071 C 0.58956 0.13433 0.71391 0.0
N1072 N 0.39461 0.14634 0.70127 0.0
N1073 N 0.73394 0.11722 0.84482 0.0
C1074 C 0.47694 0.13923 0.73725 0.0
C1075 C 0.65498 0.12644 0.81512 0.0
N1076 N 0.33402 0.13783 0.8138 0.0
N1077 N 0.79996 0.12978 0.74115 0.0
H1078 H 0.72406 0.11413 0.88819 0.0
H1079 H 0.80743 0.11152 0.82326 0.0
H1080 H 0.8228 0.13246 0.69869 0.0
H1081 H 0.8739 0.12863 0.77324 0.0
H1082 H 0.25952 0.14026 0.78442 0.0
H1083 H 0.31016 0.13307 0.85168 0.0
H1084 H 0.31931 0.1526 0.71852 0.0
H1085 H 0.4039 0.14621 0.6539 0.0
C1086 C 0.6623 0.88711 0.75715 0.0
C1087 C 0.55939 0.88062 0.71549 0.0
C1088 C 0.47315 0.87117 0.804 0.0
C1089 C 0.5781 0.87706 0.84402 0.0
N1090 N 0.78542 0.8865 0.85462 0.0
N1091 N 0.36423 0.86635 0.7002 0.0
C1092 C 0.67685 0.88359 0.81901 0.0
C1093 C 0.46459 0.87245 0.73913 0.0
N1094 N 0.74385 0.89735 0.73986 0.0
N1095 N 0.38233 0.86404 0.82852 0.0
H1096 H 0.34893 0.86731 0.65323 0.0
H1097 H 0.29167 0.86023 0.71297 0.0
H1098 H 0.38913 0.86265 0.87518 0.0
H1099 H 0.30114 0.85929 0.80458 0.0
H1100 H 0.81326 0.90347 0.77079 0.0
H1101 H 0.73877 0.90103 0.69665 0.0
H1102 H 0.86607 0.889 0.83632 0.0
H1103 H 0.79618 0.88541 0.9018 0.0
loop_
_geom_bond_atom_site_label_1
_geom_bond_atom_site_label_2
_geom_bond_distance
_geom_bond_site_symmetry_2
_ccdc_geom_bond_type
Tb0 N29 2.617 1_554 S
Tb0 N35 2.572 . S
Tb0 O44 2.465 . S
Tb0 O45 2.387 . S
Tb0 O47 2.428 1_454 S
Tb0 O48 2.308 . S
Tb0 O52 2.349 1_455 S
Tb0 O55 2.393 1_554 S
Tb0 C64 2.802 1_455 S
C1 N2 1.379 . S
C1 C4 1.416 . S
C1 C8 1.424 . S
N2 C1 1.379 . S
N2 C5 1.334 . S
N2 Tb11 2.617 1_655 S
C3 C5 1.390 . S
C3 C6 1.339 . S
C3 H23 0.930 . S
C4 C1 1.416 . S
C4 C6 1.416 . S
C4 C10 1.448 . S
C5 N2 1.334 . S
C5 C3 1.390 . S
C5 H16 0.930 . S
C6 C3 1.339 . S
C6 C4 1.416 . S
C6 H27 0.930 . S
C7 C8 1.413 1_556 S
C7 C9 1.427 1_556 S
C7 C13 1.416 . S
C8 C1 1.424 . S
C8 C7 1.413 1_554 S
C8 N12 1.361 1_554 S
C9 C7 1.427 1_554 S
C9 C10 1.328 . S
C9 H24 0.929 . S
C10 C4 1.448 . S
C10 C9 1.328 . S
C10 H25 0.930 . S
Tb11 N2 2.617 1_455 S
Tb11 N12 2.572 1_454 S
Tb11 O46 2.349 . S
Tb11 O49 2.393 . S
Tb11 O50 2.465 1_554 S
Tb11 O51 2.387 1_455 S
Tb11 O53 2.428 . S
Tb11 O54 2.308 1_554 S
Tb11 C75 2.802 . S
N12 C8 1.361 1_556 S
N12 Tb11 2.572 1_656 S
N12 C14 1.340 . S
C13 C7 1.416 . S
C13 C15 1.332 . S
C13 H21 0.931 . S
C14 N12 1.340 . S
C14 C15 1.407 . S
C14 H20 0.930 . S
C15 C13 1.332 . S
C15 C14 1.407 . S
C15 H17 0.929 . S
H16 C5 0.930 . S
H17 C15 0.929 . S
H18 C33 0.930 . S
H19 C40 0.929 . S
H20 C14 0.930 . S
H21 C13 0.931 . S
H22 C36 0.930 . S
H23 C3 0.930 . S
H24 C9 0.929 . S
H25 C10 0.930 . S
H26 C31 0.930 . S
H27 C6 0.930 . S
H28 C39 0.931 . S
N29 Tb0 2.617 1_556 S
N29 C30 1.379 . S
N29 C33 1.334 . S
C30 N29 1.379 . S
C30 C32 1.416 . S
C30 C38 1.424 1_556 S
C31 H26 0.930 . S
C31 C33 1.390 . S
C31 C34 1.339 . S
C32 C30 1.416 . S
C32 C34 1.416 . S
C32 C65 1.448 . S
C33 H18 0.930 . S
C33 N29 1.334 . S
C33 C31 1.390 . S
C34 C31 1.339 . S
C34 C32 1.416 . S
C34 H41 0.930 . S
N35 Tb0 2.572 . S
N35 C36 1.340 . S
N35 C38 1.361 . S
C36 H22 0.930 . S
C36 N35 1.340 . S
C36 C40 1.407 . S
C37 C38 1.413 . S
C37 C39 1.416 . S
C37 C66 1.427 . S
C38 C30 1.424 1_554 S
C38 N35 1.361 . S
C38 C37 1.413 . S
C39 H28 0.931 . S
C39 C37 1.416 . S
C39 C40 1.332 . S
C40 H19 0.929 . S
C40 C36 1.407 . S
C40 C39 1.332 . S
H41 C34 0.930 . S
H42 C65 0.930 . S
H43 C66 0.929 . S
O44 Tb0 2.465 . S
O44 C64 1.264 1_455 S
O45 Tb0 2.387 . S
O45 C56 1.264 . S
O46 Tb11 2.349 . S
O46 C56 1.243 . S
O47 Tb0 2.428 1_656 S
O47 C64 1.256 1_556 S
O48 Tb0 2.308 . S
O48 C63 1.266 . S
O49 Tb11 2.393 . S
O49 C63 1.248 . S
O50 Tb11 2.465 1_556 S
O50 C75 1.264 1_556 S
O51 Tb11 2.387 1_655 S
O51 C67 1.264 . S
O52 Tb0 2.349 1_655 S
O52 C67 1.243 . S
O53 Tb11 2.428 . S
O53 C75 1.256 . S
O54 Tb11 2.308 1_556 S
O54 C74 1.266 . S
O55 Tb0 2.393 1_556 S
O55 C74 1.248 . S
C56 O45 1.264 . S
C56 O46 1.243 . S
C57 C60 1.399 1_554 S
C57 C62 1.383 . S
C57 C64 1.496 . S
C58 C59 1.399 . S
C58 C62 1.389 . S
C59 C58 1.399 . S
C59 C61 1.380 . S
C59 H76 0.929 . S
C60 C57 1.399 1_556 S
C60 C61 1.392 1_556 S
C60 H77 0.929 . S
C61 C59 1.380 . S
C61 C60 1.392 1_554 S
C61 H78 0.929 1_554 S
C62 C57 1.383 . S
C62 C58 1.389 . S
C62 H79 0.931 . S
C63 O48 1.266 . S
C63 O49 1.248 . S
C64 Tb0 2.802 1_655 S
C64 O44 1.264 1_655 S
C64 O47 1.256 1_554 S
C64 C57 1.496 . S
C65 C32 1.448 . S
C65 H42 0.930 . S
C65 C66 1.328 1_556 S
C66 C37 1.427 . S
C66 H43 0.929 . S
C66 C65 1.328 1_554 S
C67 O51 1.264 . S
C67 O52 1.243 . S
C68 C71 1.399 1_556 S
C68 C72 1.383 . S
C68 C75 1.496 1_556 S
C69 C70 1.399 . S
C69 C72 1.389 . S
C70 C69 1.399 . S
C70 C73 1.380 1_556 S
C70 H80 0.929 . S
C71 C68 1.399 1_554 S
C71 C73 1.392 . S
C71 H81 0.929 . S
C72 C68 1.383 . S
C72 C69 1.389 . S
C72 H82 0.931 . S
C73 C70 1.380 1_554 S
C73 C71 1.392 . S
C73 H83 0.929 . S
C74 O54 1.266 . S
C74 O55 1.248 . S
C75 Tb11 2.802 . S
C75 O50 1.264 1_554 S
C75 O53 1.256 . S
C75 C68 1.496 1_554 S
H76 C59 0.929 . S
H77 C60 0.929 . S
H78 C61 0.929 1_556 S
H79 C62 0.931 . S
H80 C70 0.929 . S
H81 C71 0.929 . S
H82 C72 0.931 . S
H83 C73 0.929 . S
Tb84 N113 2.617 . S
Tb84 N119 2.572 1_556 S
Tb84 O128 2.465 1_556 S
Tb84 O129 2.387 . S
Tb84 O131 2.428 . S
Tb84 O132 2.308 1_556 S
Tb84 O136 2.349 1_656 S
Tb84 O139 2.393 . S
Tb84 C148 2.802 1_655 S
C85 N86 1.379 . S
C85 C88 1.416 . S
C85 C92 1.424 . S
N86 C85 1.379 . S
N86 C89 1.334 . S
N86 Tb95 2.617 1_455 S
C87 C89 1.390 . S
C87 C90 1.339 . S
C87 H107 0.930 . S
C88 C85 1.416 . S
C88 C90 1.416 . S
C88 C94 1.448 . S
C89 N86 1.334 . S
C89 C87 1.390 . S
C89 H100 0.930 . S
C90 C87 1.339 . S
C90 C88 1.416 . S
C90 H111 0.930 . S
C91 C92 1.413 . S
C91 C93 1.427 . S
C91 C97 1.416 1_554 S
C92 C85 1.424 . S
C92 C91 1.413 . S
C92 N96 1.361 . S
C93 C91 1.427 . S
C93 C94 1.328 . S
C93 H108 0.929 . S
C94 C88 1.448 . S
C94 C93 1.328 . S
C94 H109 0.930 . S
Tb95 N86 2.617 1_655 S
Tb95 N96 2.572 1_655 S
Tb95 O130 2.349 . S
Tb95 O133 2.393 . S
Tb95 O134 2.465 . S
Tb95 O135 2.387 1_655 S
Tb95 O137 2.428 . S
Tb95 O138 2.308 1_554 S
Tb95 C159 2.802 . S
N96 C92 1.361 . S
N96 Tb95 2.572 1_455 S
N96 C98 1.340 1_554 S
C97 C91 1.416 1_556 S
C97 C99 1.332 . S
C97 H105 0.931 . S
C98 N96 1.340 1_556 S
C98 C99 1.407 . S
C98 H104 0.930 . S
C99 C97 1.332 . S
C99 C98 1.407 . S
C99 H101 0.929 . S
H100 C89 0.930 . S
H101 C99 0.929 . S
H102 C117 0.930 . S
H103 C124 0.929 . S
H104 C98 0.930 . S
H105 C97 0.931 . S
H106 C120 0.930 . S
H107 C87 0.930 . S
H108 C93 0.929 . S
H109 C94 0.930 . S
H110 C115 0.930 . S
H111 C90 0.930 . S
H112 C123 0.931 . S
N113 Tb84 2.617 . S
N113 C114 1.379 . S
N113 C117 1.334 . S
C114 N113 1.379 . S
C114 C116 1.416 . S
C114 C122 1.424 . S
C115 H110 0.930 . S
C115 C117 1.390 . S
C115 C118 1.339 . S
C116 C114 1.416 . S
C116 C118 1.416 . S
C116 C149 1.448 . S
C117 H102 0.930 . S
C117 N113 1.334 . S
C117 C115 1.390 . S
C118 C115 1.339 . S
C118 C116 1.416 . S
C118 H125 0.930 . S
N119 Tb84 2.572 1_554 S
N119 C120 1.340 . S
N119 C122 1.361 1_554 S
C120 H106 0.930 . S
C120 N119 1.340 . S
C120 C124 1.407 . S
C121 C122 1.413 . S
C121 C123 1.416 1_556 S
C121 C150 1.427 . S
C122 C114 1.424 . S
C122 N119 1.361 1_556 S
C122 C121 1.413 . S
C123 H112 0.931 . S
C123 C121 1.416 1_554 S
C123 C124 1.332 . S
C124 H103 0.929 . S
C124 C120 1.407 . S
C124 C123 1.332 . S
H125 C118 0.930 . S
H126 C149 0.930 . S
H127 C150 0.929 . S
O128 Tb84 2.465 1_554 S
O128 C148 1.264 1_654 S
O129 Tb84 2.387 . S
O129 C140 1.264 1_556 S
O130 Tb95 2.349 . S
O130 C140 1.243 . S
O131 Tb84 2.428 . S
O131 C148 1.256 1_655 S
O132 Tb84 2.308 1_554 S
O132 C147 1.266 . S
O133 Tb95 2.393 . S
O133 C147 1.248 . S
O134 Tb95 2.465 . S
O134 C159 1.264 . S
O135 Tb95 2.387 1_455 S
O135 C151 1.264 . S
O136 Tb84 2.349 1_454 S
O136 C151 1.243 . S
O137 Tb95 2.428 . S
O137 C159 1.256 . S
O138 Tb95 2.308 1_556 S
O138 C158 1.266 . S
O139 Tb84 2.393 . S
O139 C158 1.248 . S
C140 O129 1.264 1_554 S
C140 O130 1.243 . S
C141 C144 1.399 . S
C141 C146 1.383 1_556 S
C141 C148 1.496 . S
C142 C143 1.399 1_554 S
C142 C146 1.389 . S
C143 C142 1.399 1_556 S
C143 C145 1.380 . S
C143 H160 0.929 . S
C144 C141 1.399 . S
C144 C145 1.392 . S
C144 H161 0.929 . S
C145 C143 1.380 . S
C145 C144 1.392 . S
C145 H162 0.929 . S
C146 C141 1.383 1_554 S
C146 C142 1.389 . S
C146 H163 0.931 . S
C147 O132 1.266 . S
C147 O133 1.248 . S
C148 Tb84 2.802 1_455 S
C148 O128 1.264 1_456 S
C148 O131 1.256 1_455 S
C148 C141 1.496 . S
C149 C116 1.448 . S
C149 H126 0.930 . S
C149 C150 1.328 . S
C150 C121 1.427 . S
C150 H127 0.929 . S
C150 C149 1.328 . S
C151 O135 1.264 . S
C151 O136 1.243 . S
C152 C155 1.399 . S
C152 C156 1.385 1_554 S
C152 C159 1.496 . S
C153 C154 1.405 . S
C153 C156 1.390 1_554 S
C154 C153 1.405 . S
C154 C157 1.380 . S
C154 H164 0.929 . S
C155 C152 1.399 . S
C155 C157 1.392 . S
C155 H165 0.929 . S
C156 C152 1.385 1_556 S
C156 C153 1.390 1_556 S
C156 H166 0.929 . S
C157 C154 1.380 . S
C157 C155 1.392 . S
C157 H167 0.929 . S
C158 O138 1.266 . S
C158 O139 1.248 . S
C159 Tb95 2.802 . S
C159 O134 1.264 . S
C159 O137 1.256 . S
C159 C152 1.496 . S
H160 C143 0.929 . S
H161 C144 0.929 . S
H162 C145 0.929 . S
H163 C146 0.931 . S
H164 C154 0.929 . S
H165 C155 0.929 . S
H166 C156 0.929 . S
H167 C157 0.929 . S
Tb168 N197 2.617 1_455 S
Tb168 N203 2.572 1_455 S
Tb168 O212 2.465 . S
Tb168 O213 2.387 1_455 S
Tb168 O215 2.428 . S
Tb168 O216 2.308 . S
Tb168 O220 2.349 . S
Tb168 O223 2.393 . S
Tb168 C232 2.802 . S
C169 N170 1.379 . S
C169 C172 1.416 . S
C169 C176 1.424 . S
N170 C169 1.379 . S
N170 C173 1.334 . S
N170 Tb179 2.617 . S
C171 C173 1.390 . S
C171 C174 1.339 . S
C171 H191 0.930 . S
C172 C169 1.416 . S
C172 C174 1.416 . S
C172 C178 1.448 . S
C173 N170 1.334 . S
C173 C171 1.390 . S
C173 H184 0.930 . S
C174 C171 1.339 . S
C174 C172 1.416 . S
C174 H195 0.930 . S
C175 C176 1.413 . S
C175 C177 1.427 . S
C175 C181 1.416 . S
C176 C169 1.424 . S
C176 C175 1.413 . S
C176 N180 1.361 . S
C177 C175 1.427 . S
C177 C178 1.328 . S
C177 H192 0.929 . S
C178 C172 1.448 . S
C178 C177 1.328 . S
C178 H193 0.930 . S
Tb179 N170 2.617 . S
Tb179 N180 2.572 . S
Tb179 O214 2.349 1_455 S
Tb179 O217 2.393 . S
Tb179 O218 2.465 . S
Tb179 O219 2.387 . S
Tb179 O221 2.428 1_455 S
Tb179 O222 2.308 . S
Tb179 C243 2.802 1_455 S
N180 C176 1.361 . S
N180 Tb179 2.572 . S
N180 C182 1.340 . S
C181 C175 1.416 . S
C181 C183 1.332 . S
C181 H189 0.931 . S
C182 N180 1.340 . S
C182 C183 1.407 . S
C182 H188 0.930 . S
C183 C181 1.332 . S
C183 C182 1.407 . S
C183 H185 0.929 . S
H184 C173 0.930 . S
H185 C183 0.929 . S
H186 C201 0.930 1_455 S
H187 C208 0.929 . S
H188 C182 0.930 . S
H189 C181 0.931 . S
H190 C204 0.930 . S
H191 C171 0.930 . S
H192 C177 0.929 . S
H193 C178 0.930 . S
H194 C199 0.930 . S
H195 C174 0.930 . S
H196 C207 0.931 . S
N197 Tb168 2.617 1_655 S
N197 C198 1.379 . S
N197 C201 1.334 . S
C198 N197 1.379 . S
C198 C200 1.416 . S
C198 C206 1.424 . S
C199 H194 0.930 . S
C199 C201 1.390 . S
C199 C202 1.339 . S
C200 C198 1.416 . S
C200 C202 1.416 . S
C200 C233 1.448 . S
C201 H186 0.930 1_655 S
C201 N197 1.334 . S
C201 C199 1.390 . S
C202 C199 1.339 . S
C202 C200 1.416 . S
C202 H209 0.930 . S
N203 Tb168 2.572 1_655 S
N203 C204 1.340 . S
N203 C206 1.361 . S
C204 H190 0.930 . S
C204 N203 1.340 . S
C204 C208 1.407 . S
C205 C206 1.413 . S
C205 C207 1.416 . S
C205 C234 1.427 . S
C206 C198 1.424 . S
C206 N203 1.361 . S
C206 C205 1.413 . S
C207 H196 0.931 . S
C207 C205 1.416 . S
C207 C208 1.332 . S
C208 H187 0.929 . S
C208 C204 1.407 . S
C208 C207 1.332 . S
H209 C202 0.930 . S
H210 C233 0.930 . S
H211 C234 0.929 . S
O212 Tb168 2.465 . S
O212 C232 1.264 . S
O213 Tb168 2.387 1_655 S
O213 C224 1.264 . S
O214 Tb179 2.349 1_655 S
O214 C224 1.243 . S
O215 Tb168 2.428 . S
O215 C232 1.256 . S
O216 Tb168 2.308 . S
O216 C231 1.266 . S
O217 Tb179 2.393 . S
O217 C231 1.248 . S
O218 Tb179 2.465 . S
O218 C243 1.264 1_455 S
O219 Tb179 2.387 . S
O219 C235 1.264 . S
O220 Tb168 2.349 . S
O220 C235 1.243 . S
O221 Tb179 2.428 1_655 S
O221 C243 1.256 . S
O222 Tb179 2.308 . S
O222 C242 1.266 . S
O223 Tb168 2.393 . S
O223 C242 1.248 . S
C224 O213 1.264 . S
C224 O214 1.243 . S
C225 C228 1.399 . S
C225 C230 1.383 . S
C225 C232 1.496 . S
C226 C227 1.399 . S
C226 C230 1.389 . S
C227 C226 1.399 . S
C227 C229 1.380 . S
C227 H244 0.929 . S
C228 C225 1.399 . S
C228 C229 1.392 . S
C228 H245 0.929 . S
C229 C227 1.380 . S
C229 C228 1.392 . S
C229 H246 0.929 . S
C230 C225 1.383 . S
C230 C226 1.389 . S
C230 H247 0.931 . S
C231 O216 1.266 . S
C231 O217 1.248 . S
C232 Tb168 2.802 . S
C232 O212 1.264 . S
C232 O215 1.256 . S
C232 C225 1.496 . S
C233 C200 1.448 . S
C233 H210 0.930 . S
C233 C234 1.328 . S
C234 C205 1.427 . S
C234 H211 0.929 . S
C234 C233 1.328 . S
C235 O219 1.264 . S
C235 O220 1.243 . S
C236 C239 1.399 . S
C236 C240 1.383 . S
C236 C243 1.496 . S
C237 C238 1.399 . S
C237 C240 1.389 . S
C238 C237 1.399 . S
C238 C241 1.380 . S
C238 H248 0.929 . S
C239 C236 1.399 . S
C239 C241 1.392 . S
C239 H249 0.929 . S
C240 C236 1.383 . S
C240 C237 1.389 . S
C240 H250 0.931 . S
C241 C238 1.380 . S
C241 C239 1.392 . S
C241 H251 0.929 . S
C242 O222 1.266 . S
C242 O223 1.248 . S
C243 Tb179 2.802 1_655 S
C243 O218 1.264 1_655 S
C243 O221 1.256 . S
C243 C236 1.496 . S
H244 C227 0.929 . S
H245 C228 0.929 . S
H246 C229 0.929 . S
H247 C230 0.931 . S
H248 C238 0.929 . S
H249 C239 0.929 . S
H250 C240 0.931 . S
H251 C241 0.929 . S
Tb252 N281 2.617 . S
Tb252 N287 2.572 . S
Tb252 O296 2.465 . S
Tb252 O297 2.387 . S
Tb252 O299 2.428 1_655 S
Tb252 O300 2.308 . S
Tb252 O304 2.349 1_655 S
Tb252 O307 2.393 . S
Tb252 C316 2.802 1_655 S
C253 N254 1.379 . S
C253 C256 1.416 . S
C253 C260 1.424 . S
N254 C253 1.379 . S
N254 C257 1.334 . S
N254 Tb263 2.617 1_455 S
C255 C257 1.390 . S
C255 C258 1.339 . S
C255 H275 0.930 . S
C256 C253 1.416 . S
C256 C258 1.416 . S
C256 C262 1.448 . S
C257 N254 1.334 . S
C257 C255 1.390 . S
C257 H268 0.930 1_455 S
C258 C255 1.339 . S
C258 C256 1.416 . S
C258 H279 0.930 . S
C259 C260 1.413 . S
C259 C261 1.427 . S
C259 C265 1.416 . S
C260 C253 1.424 . S
C260 C259 1.413 . S
C260 N264 1.361 . S
C261 C259 1.427 . S
C261 C262 1.328 . S
C261 H276 0.929 . S
C262 C256 1.448 . S
C262 C261 1.328 . S
C262 H277 0.930 . S
Tb263 N254 2.617 1_655 S
Tb263 N264 2.572 1_655 S
Tb263 O298 2.349 . S
Tb263 O301 2.393 . S
Tb263 O302 2.465 . S
Tb263 O303 2.387 1_655 S
Tb263 O305 2.428 . S
Tb263 O306 2.308 . S
Tb263 C327 2.802 . S
N264 C260 1.361 . S
N264 Tb263 2.572 1_455 S
N264 C266 1.340 . S
C265 C259 1.416 . S
C265 C267 1.332 . S
C265 H273 0.931 . S
C266 N264 1.340 . S
C266 C267 1.407 . S
C266 H272 0.930 . S
C267 C265 1.332 . S
C267 C266 1.407 . S
C267 H269 0.929 . S
H268 C257 0.930 1_655 S
H269 C267 0.929 . S
H270 C285 0.930 . S
H271 C292 0.929 . S
H272 C266 0.930 . S
H273 C265 0.931 . S
H274 C288 0.930 . S
H275 C255 0.930 . S
H276 C261 0.929 . S
H277 C262 0.930 . S
H278 C283 0.930 . S
H279 C258 0.930 . S
H280 C291 0.931 . S
N281 Tb252 2.617 . S
N281 C282 1.379 . S
N281 C285 1.334 . S
C282 N281 1.379 . S
C282 C284 1.416 . S
C282 C290 1.424 . S
C283 H278 0.930 . S
C283 C285 1.390 . S
C283 C286 1.339 . S
C284 C282 1.416 . S
C284 C286 1.416 . S
C284 C317 1.448 . S
C285 H270 0.930 . S
C285 N281 1.334 . S
C285 C283 1.390 . S
C286 C283 1.339 . S
C286 C284 1.416 . S
C286 H293 0.930 . S
N287 Tb252 2.572 . S
N287 C288 1.340 . S
N287 C290 1.361 . S
C288 H274 0.930 . S
C288 N287 1.340 . S
C288 C292 1.407 . S
C289 C290 1.413 . S
C289 C291 1.416 . S
C289 C318 1.427 . S
C290 C282 1.424 . S
C290 N287 1.361 . S
C290 C289 1.413 . S
C291 H280 0.931 . S
C291 C289 1.416 . S
C291 C292 1.332 . S
C292 H271 0.929 . S
C292 C288 1.407 . S
C292 C291 1.332 . S
H293 C286 0.930 . S
H294 C317 0.930 . S
H295 C318 0.929 . S
O296 Tb252 2.465 . S
O296 C316 1.264 1_655 S
O297 Tb252 2.387 . S
O297 C308 1.264 . S
O298 Tb263 2.349 . S
O298 C308 1.243 . S
O299 Tb252 2.428 1_455 S
O299 C316 1.256 . S
O300 Tb252 2.308 . S
O300 C315 1.266 . S
O301 Tb263 2.393 . S
O301 C315 1.248 . S
O302 Tb263 2.465 . S
O302 C327 1.264 . S
O303 Tb263 2.387 1_455 S
O303 C319 1.264 . S
O304 Tb252 2.349 1_455 S
O304 C319 1.243 . S
O305 Tb263 2.428 . S
O305 C327 1.256 . S
O306 Tb263 2.308 . S
O306 C326 1.266 . S
O307 Tb252 2.393 . S
O307 C326 1.248 . S
C308 O297 1.264 . S
C308 O298 1.243 . S
C309 C312 1.399 . S
C309 C314 1.383 . S
C309 C316 1.496 . S
C310 C311 1.399 . S
C310 C314 1.389 . S
C311 C310 1.399 . S
C311 C313 1.380 . S
C311 H328 0.929 . S
C312 C309 1.399 . S
C312 C313 1.392 . S
C312 H329 0.929 . S
C313 C311 1.380 . S
C313 C312 1.392 . S
C313 H330 0.929 . S
C314 C309 1.383 . S
C314 C310 1.389 . S
C314 H331 0.931 . S
C315 O300 1.266 . S
C315 O301 1.248 . S
C316 Tb252 2.802 1_455 S
C316 O296 1.264 1_455 S
C316 O299 1.256 . S
C316 C309 1.496 . S
C317 C284 1.448 . S
C317 H294 0.930 . S
C317 C318 1.328 . S
C318 C289 1.427 . S
C318 H295 0.929 . S
C318 C317 1.328 . S
C319 O303 1.264 . S
C319 O304 1.243 . S
C320 C323 1.399 . S
C320 C324 1.383 . S
C320 C327 1.496 . S
C321 C322 1.399 . S
C321 C324 1.389 . S
C322 C321 1.399 . S
C322 C325 1.380 . S
C322 H332 0.929 . S
C323 C320 1.399 . S
C323 C325 1.392 . S
C323 H333 0.929 . S
C324 C320 1.383 . S
C324 C321 1.389 . S
C324 H334 0.931 . S
C325 C322 1.380 . S
C325 C323 1.392 . S
C325 H335 0.929 . S
C326 O306 1.266 . S
C326 O307 1.248 . S
C327 Tb263 2.802 . S
C327 O302 1.264 . S
C327 O305 1.256 . S
C327 C320 1.496 . S
H328 C311 0.929 . S
H329 C312 0.929 . S
H330 C313 0.929 . S
H331 C314 0.931 . S
H332 C322 0.929 . S
H333 C323 0.929 . S
H334 C324 0.931 . S
H335 C325 0.929 . S
Tb336 N365 2.617 1_554 S
Tb336 N371 2.572 . S
Tb336 O380 2.465 . S
Tb336 O381 2.387 . S
Tb336 O383 2.428 1_554 S
Tb336 O384 2.308 . S
Tb336 O388 2.349 . S
Tb336 O391 2.393 1_554 S
Tb336 C400 2.802 . S
C337 N338 1.379 . S
C337 C340 1.416 . S
C337 C344 1.424 . S
N338 C337 1.379 . S
N338 C341 1.334 . S
N338 Tb347 2.617 . S
C339 C341 1.390 . S
C339 C342 1.339 . S
C339 H359 0.930 . S
C340 C337 1.416 . S
C340 C342 1.416 . S
C340 C346 1.448 . S
C341 N338 1.334 . S
C341 C339 1.390 . S
C341 H352 0.930 . S
C342 C339 1.339 . S
C342 C340 1.416 . S
C342 H363 0.930 . S
C343 C344 1.413 1_556 S
C343 C345 1.427 1_556 S
C343 C349 1.416 . S
C344 C337 1.424 . S
C344 C343 1.413 1_554 S
C344 N348 1.361 1_554 S
C345 C343 1.427 1_554 S
C345 C346 1.328 . S
C345 H360 0.929 . S
C346 C340 1.448 . S
C346 C345 1.328 . S
C346 H361 0.930 . S
Tb347 N338 2.617 . S
Tb347 N348 2.572 1_554 S
Tb347 O382 2.349 . S
Tb347 O385 2.393 . S
Tb347 O386 2.465 1_554 S
Tb347 O387 2.387 . S
Tb347 O389 2.428 . S
Tb347 O390 2.308 1_554 S
Tb347 C411 2.802 . S
N348 C344 1.361 1_556 S
N348 Tb347 2.572 1_556 S
N348 C350 1.340 . S
C349 C343 1.416 . S
C349 C351 1.332 . S
C349 H357 0.931 . S
C350 N348 1.340 . S
C350 C351 1.407 . S
C350 H356 0.930 . S
C351 C349 1.332 . S
C351 C350 1.407 . S
C351 H353 0.929 . S
H352 C341 0.930 . S
H353 C351 0.929 . S
H354 C369 0.930 . S
H355 C376 0.929 . S
H356 C350 0.930 . S
H357 C349 0.931 . S
H358 C372 0.930 . S
H359 C339 0.930 . S
H360 C345 0.929 . S
H361 C346 0.930 . S
H362 C367 0.930 . S
H363 C342 0.930 . S
H364 C375 0.931 1_455 S
N365 Tb336 2.617 1_556 S
N365 C366 1.379 . S
N365 C369 1.334 . S
C366 N365 1.379 . S
C366 C368 1.416 . S
C366 C374 1.424 1_556 S
C367 H362 0.930 . S
C367 C369 1.390 . S
C367 C370 1.339 . S
C368 C366 1.416 . S
C368 C370 1.416 . S
C368 C401 1.448 1_655 S
C369 H354 0.930 . S
C369 N365 1.334 . S
C369 C367 1.390 . S
C370 C367 1.339 . S
C370 C368 1.416 . S
C370 H377 0.930 . S
N371 Tb336 2.572 . S
N371 C372 1.340 . S
N371 C374 1.361 . S
C372 H358 0.930 . S
C372 N371 1.340 . S
C372 C376 1.407 . S
C373 C374 1.413 . S
C373 C375 1.416 . S
C373 C402 1.427 1_655 S
C374 C366 1.424 1_554 S
C374 N371 1.361 . S
C374 C373 1.413 . S
C375 H364 0.931 1_655 S
C375 C373 1.416 . S
C375 C376 1.332 . S
C376 H355 0.929 . S
C376 C372 1.407 . S
C376 C375 1.332 . S
H377 C370 0.930 . S
H378 C401 0.930 . S
H379 C402 0.929 . S
O380 Tb336 2.465 . S
O380 C400 1.264 . S
O381 Tb336 2.387 . S
O381 C392 1.264 . S
O382 Tb347 2.349 . S
O382 C392 1.243 . S
O383 Tb336 2.428 1_556 S
O383 C400 1.256 1_556 S
O384 Tb336 2.308 . S
O384 C399 1.266 . S
O385 Tb347 2.393 . S
O385 C399 1.248 . S
O386 Tb347 2.465 1_556 S
O386 C411 1.264 1_556 S
O387 Tb347 2.387 . S
O387 C403 1.264 . S
O388 Tb336 2.349 . S
O388 C403 1.243 . S
O389 Tb347 2.428 . S
O389 C411 1.256 . S
O390 Tb347 2.308 1_556 S
O390 C410 1.266 . S
O391 Tb336 2.393 1_556 S
O391 C410 1.248 . S
C392 O381 1.264 . S
C392 O382 1.243 . S
C393 C396 1.399 1_554 S
C393 C398 1.383 . S
C393 C400 1.496 . S
C394 C395 1.399 . S
C394 C398 1.389 . S
C395 C394 1.399 . S
C395 C397 1.380 . S
C395 H412 0.929 . S
C396 C393 1.399 1_556 S
C396 C397 1.392 1_556 S
C396 H413 0.929 . S
C397 C395 1.380 . S
C397 C396 1.392 1_554 S
C397 H414 0.929 1_554 S
C398 C393 1.383 . S
C398 C394 1.389 . S
C398 H415 0.931 . S
C399 O384 1.266 . S
C399 O385 1.248 . S
C400 Tb336 2.802 . S
C400 O380 1.264 . S
C400 O383 1.256 1_554 S
C400 C393 1.496 . S
C401 C368 1.448 1_455 S
C401 H378 0.930 . S
C401 C402 1.328 1_556 S
C402 C373 1.427 1_455 S
C402 H379 0.929 . S
C402 C401 1.328 1_554 S
C403 O387 1.264 . S
C403 O388 1.243 . S
C404 C407 1.399 1_556 S
C404 C408 1.383 . S
C404 C411 1.496 1_556 S
C405 C406 1.399 . S
C405 C408 1.389 . S
C406 C405 1.399 . S
C406 C409 1.380 1_556 S
C406 H416 0.929 . S
C407 C404 1.399 1_554 S
C407 C409 1.392 . S
C407 H417 0.929 . S
C408 C404 1.383 . S
C408 C405 1.389 . S
C408 H418 0.931 . S
C409 C406 1.380 1_554 S
C409 C407 1.392 . S
C409 H419 0.929 . S
C410 O390 1.266 . S
C410 O391 1.248 . S
C411 Tb347 2.802 . S
C411 O386 1.264 1_554 S
C411 O389 1.256 . S
C411 C404 1.496 1_554 S
H412 C395 0.929 . S
H413 C396 0.929 . S
H414 C397 0.929 1_556 S
H415 C398 0.931 . S
H416 C406 0.929 . S
H417 C407 0.929 . S
H418 C408 0.931 . S
H419 C409 0.929 . S
Tb420 N449 2.617 . S
Tb420 N455 2.572 1_556 S
Tb420 O464 2.465 1_556 S
Tb420 O465 2.387 . S
Tb420 O467 2.428 . S
Tb420 O468 2.308 1_556 S
Tb420 O472 2.349 1_556 S
Tb420 O475 2.393 . S
Tb420 C484 2.802 . S
C421 N422 1.379 . S
C421 C424 1.416 . S
C421 C428 1.424 . S
N422 C421 1.379 . S
N422 C425 1.334 . S
N422 Tb431 2.617 . S
C423 C425 1.390 . S
C423 C426 1.339 . S
C423 H443 0.930 . S
C424 C421 1.416 . S
C424 C426 1.416 . S
C424 C430 1.448 . S
C425 N422 1.334 . S
C425 C423 1.390 . S
C425 H436 0.930 . S
C426 C423 1.339 . S
C426 C424 1.416 . S
C426 H447 0.930 . S
C427 C428 1.413 . S
C427 C429 1.427 . S
C427 C433 1.416 1_554 S
C428 C421 1.424 . S
C428 C427 1.413 . S
C428 N432 1.361 . S
C429 C427 1.427 . S
C429 C430 1.328 . S
C429 H444 0.929 . S
C430 C424 1.448 . S
C430 C429 1.328 . S
C430 H445 0.930 . S
Tb431 N422 2.617 . S
Tb431 N432 2.572 . S
Tb431 O466 2.349 . S
Tb431 O469 2.393 . S
Tb431 O470 2.465 . S
Tb431 O471 2.387 . S
Tb431 O473 2.428 . S
Tb431 O474 2.308 1_554 S
Tb431 C495 2.802 . S
N432 C428 1.361 . S
N432 Tb431 2.572 . S
N432 C434 1.340 1_554 S
C433 C427 1.416 1_556 S
C433 C435 1.332 . S
C433 H441 0.931 . S
C434 N432 1.340 1_556 S
C434 C435 1.407 . S
C434 H440 0.930 . S
C435 C433 1.332 . S
C435 C434 1.407 . S
C435 H437 0.929 . S
H436 C425 0.930 . S
H437 C435 0.929 . S
H438 C453 0.930 . S
H439 C460 0.929 . S
H440 C434 0.930 . S
H441 C433 0.931 . S
H442 C456 0.930 . S
H443 C423 0.930 . S
H444 C429 0.929 . S
H445 C430 0.930 . S
H446 C451 0.930 . S
H447 C426 0.930 . S
H448 C459 0.931 1_655 S
N449 Tb420 2.617 . S
N449 C450 1.379 . S
N449 C453 1.334 . S
C450 N449 1.379 . S
C450 C452 1.416 . S
C450 C458 1.424 . S
C451 H446 0.930 . S
C451 C453 1.390 . S
C451 C454 1.339 . S
C452 C450 1.416 . S
C452 C454 1.416 . S
C452 C485 1.448 1_455 S
C453 H438 0.930 . S
C453 N449 1.334 . S
C453 C451 1.390 . S
C454 C451 1.339 . S
C454 C452 1.416 . S
C454 H461 0.930 . S
N455 Tb420 2.572 1_554 S
N455 C456 1.340 . S
N455 C458 1.361 1_554 S
C456 H442 0.930 . S
C456 N455 1.340 . S
C456 C460 1.407 . S
C457 C458 1.413 . S
C457 C459 1.416 1_556 S
C457 C486 1.427 1_455 S
C458 C450 1.424 . S
C458 N455 1.361 1_556 S
C458 C457 1.413 . S
C459 H448 0.931 1_455 S
C459 C457 1.416 1_554 S
C459 C460 1.332 . S
C460 H439 0.929 . S
C460 C456 1.407 . S
C460 C459 1.332 . S
H461 C454 0.930 . S
H462 C485 0.930 . S
H463 C486 0.929 . S
O464 Tb420 2.465 1_554 S
O464 C484 1.264 1_554 S
O465 Tb420 2.387 . S
O465 C476 1.264 1_556 S
O466 Tb431 2.349 . S
O466 C476 1.243 . S
O467 Tb420 2.428 . S
O467 C484 1.256 . S
O468 Tb420 2.308 1_554 S
O468 C483 1.266 . S
O469 Tb431 2.393 . S
O469 C483 1.248 . S
O470 Tb431 2.465 . S
O470 C495 1.264 . S
O471 Tb431 2.387 . S
O471 C487 1.264 . S
O472 Tb420 2.349 1_554 S
O472 C487 1.243 . S
O473 Tb431 2.428 . S
O473 C495 1.256 . S
O474 Tb431 2.308 1_556 S
O474 C494 1.266 . S
O475 Tb420 2.393 . S
O475 C494 1.248 . S
C476 O465 1.264 1_554 S
C476 O466 1.243 . S
C477 C480 1.399 . S
C477 C482 1.383 1_556 S
C477 C484 1.496 . S
C478 C479 1.399 1_554 S
C478 C482 1.389 . S
C479 C478 1.399 1_556 S
C479 C481 1.380 . S
C479 H496 0.929 . S
C480 C477 1.399 . S
C480 C481 1.392 . S
C480 H497 0.929 . S
C481 C479 1.380 . S
C481 C480 1.392 . S
C481 H498 0.929 . S
C482 C477 1.383 1_554 S
C482 C478 1.389 . S
C482 H499 0.931 . S
C483 O468 1.266 . S
C483 O469 1.248 . S
C484 Tb420 2.802 . S
C484 O464 1.264 1_556 S
C484 O467 1.256 . S
C484 C477 1.496 . S
C485 C452 1.448 1_655 S
C485 H462 0.930 . S
C485 C486 1.328 . S
C486 C457 1.427 1_655 S
C486 H463 0.929 . S
C486 C485 1.328 . S
C487 O471 1.264 . S
C487 O472 1.243 . S
C488 C491 1.399 . S
C488 C492 1.384 1_554 S
C488 C495 1.496 . S
C489 C490 1.404 . S
C489 C492 1.390 1_554 S
C490 C489 1.404 . S
C490 C493 1.380 . S
C490 H500 0.929 . S
C491 C488 1.399 . S
C491 C493 1.392 . S
C491 H501 0.929 . S
C492 C488 1.384 1_556 S
C492 C489 1.390 1_556 S
C492 H502 0.930 . S
C493 C490 1.380 . S
C493 C491 1.392 . S
C493 H503 0.929 . S
C494 O474 1.266 . S
C494 O475 1.248 . S
C495 Tb431 2.802 . S
C495 O470 1.264 . S
C495 O473 1.256 . S
C495 C488 1.496 . S
H496 C479 0.929 . S
H497 C480 0.929 . S
H498 C481 0.929 . S
H499 C482 0.931 . S
H500 C490 0.929 . S
H501 C491 0.929 . S
H502 C492 0.930 . S
H503 C493 0.929 . S
Tb504 N533 2.617 . S
Tb504 N539 2.572 . S
Tb504 O548 2.465 . S
Tb504 O549 2.387 . S
Tb504 O551 2.428 . S
Tb504 O552 2.308 . S
Tb504 O556 2.349 . S
Tb504 O559 2.393 . S
Tb504 C568 2.802 . S
C505 N506 1.379 . S
C505 C508 1.416 . S
C505 C512 1.424 . S
N506 C505 1.379 . S
N506 C509 1.334 . S
N506 Tb515 2.617 . S
C507 C509 1.390 . S
C507 C510 1.339 . S
C507 H527 0.930 . S
C508 C505 1.416 . S
C508 C510 1.416 . S
C508 C514 1.448 . S
C509 N506 1.334 . S
C509 C507 1.390 . S
C509 H520 0.930 . S
C510 C507 1.339 . S
C510 C508 1.416 . S
C510 H531 0.930 . S
C511 C512 1.413 . S
C511 C513 1.427 1_655 S
C511 C517 1.416 . S
C512 C505 1.424 . S
C512 C511 1.413 . S
C512 N516 1.361 . S
C513 C511 1.427 1_455 S
C513 C514 1.328 1_455 S
C513 H528 0.929 . S
C514 C508 1.448 . S
C514 C513 1.328 1_655 S
C514 H529 0.930 1_655 S
Tb515 N506 2.617 . S
Tb515 N516 2.572 . S
Tb515 O550 2.349 . S
Tb515 O553 2.393 . S
Tb515 O554 2.465 . S
Tb515 O555 2.387 . S
Tb515 O557 2.428 . S
Tb515 O558 2.308 . S
Tb515 C579 2.802 . S
N516 C512 1.361 . S
N516 Tb515 2.572 . S
N516 C518 1.340 . S
C517 C511 1.416 . S
C517 C519 1.332 . S
C517 H525 0.931 1_655 S
C518 N516 1.340 . S
C518 C519 1.407 . S
C518 H524 0.930 . S
C519 C517 1.332 . S
C519 C518 1.407 . S
C519 H521 0.929 . S
H520 C509 0.930 . S
H521 C519 0.929 . S
H522 C537 0.930 . S
H523 C544 0.929 . S
H524 C518 0.930 . S
H525 C517 0.931 1_455 S
H526 C540 0.930 . S
H527 C507 0.930 . S
H528 C513 0.929 . S
H529 C514 0.930 1_455 S
H530 C535 0.930 . S
H531 C510 0.930 . S
H532 C543 0.931 . S
N533 Tb504 2.617 . S
N533 C534 1.379 . S
N533 C537 1.334 . S
C534 N533 1.379 . S
C534 C536 1.416 . S
C534 C542 1.424 . S
C535 H530 0.930 . S
C535 C537 1.390 . S
C535 C538 1.339 . S
C536 C534 1.416 . S
C536 C538 1.416 . S
C536 C569 1.448 . S
C537 H522 0.930 . S
C537 N533 1.334 . S
C537 C535 1.390 . S
C538 C535 1.339 . S
C538 C536 1.416 . S
C538 H545 0.930 . S
N539 Tb504 2.572 . S
N539 C540 1.340 . S
N539 C542 1.361 . S
C540 H526 0.930 . S
C540 N539 1.340 . S
C540 C544 1.407 . S
C541 C542 1.413 . S
C541 C543 1.416 . S
C541 C570 1.427 . S
C542 C534 1.424 . S
C542 N539 1.361 . S
C542 C541 1.413 . S
C543 H532 0.931 . S
C543 C541 1.416 . S
C543 C544 1.332 . S
C544 H523 0.929 . S
C544 C540 1.407 . S
C544 C543 1.332 . S
H545 C538 0.930 . S
H546 C569 0.930 . S
H547 C570 0.929 . S
O548 Tb504 2.465 . S
O548 C568 1.264 . S
O549 Tb504 2.387 . S
O549 C560 1.264 . S
O550 Tb515 2.349 . S
O550 C560 1.243 . S
O551 Tb504 2.428 . S
O551 C568 1.256 . S
O552 Tb504 2.308 . S
O552 C567 1.266 . S
O553 Tb515 2.393 . S
O553 C567 1.248 . S
O554 Tb515 2.465 . S
O554 C579 1.264 . S
O555 Tb515 2.387 . S
O555 C571 1.264 . S
O556 Tb504 2.349 . S
O556 C571 1.243 . S
O557 Tb515 2.428 . S
O557 C579 1.256 . S
O558 Tb515 2.308 . S
O558 C578 1.266 . S
O559 Tb504 2.393 . S
O559 C578 1.248 . S
C560 O549 1.264 . S
C560 O550 1.243 . S
C561 C564 1.399 . S
C561 C566 1.383 . S
C561 C568 1.496 . S
C562 C563 1.399 . S
C562 C566 1.389 . S
C563 C562 1.399 . S
C563 C565 1.380 . S
C563 H580 0.929 . S
C564 C561 1.399 . S
C564 C565 1.392 . S
C564 H581 0.929 . S
C565 C563 1.380 . S
C565 C564 1.392 . S
C565 H582 0.929 . S
C566 C561 1.383 . S
C566 C562 1.389 . S
C566 H583 0.931 . S
C567 O552 1.266 . S
C567 O553 1.248 . S
C568 Tb504 2.802 . S
C568 O548 1.264 . S
C568 O551 1.256 . S
C568 C561 1.496 . S
C569 C536 1.448 . S
C569 H546 0.930 . S
C569 C570 1.328 . S
C570 C541 1.427 . S
C570 H547 0.929 . S
C570 C569 1.328 . S
C571 O555 1.264 . S
C571 O556 1.243 . S
C572 C575 1.399 . S
C572 C576 1.383 . S
C572 C579 1.496 . S
C573 C574 1.399 . S
C573 C576 1.389 . S
C574 C573 1.399 . S
C574 C577 1.380 . S
C574 H584 0.929 . S
C575 C572 1.399 . S
C575 C577 1.392 . S
C575 H585 0.929 . S
C576 C572 1.383 . S
C576 C573 1.389 . S
C576 H586 0.931 . S
C577 C574 1.380 . S
C577 C575 1.392 . S
C577 H587 0.929 . S
C578 O558 1.266 . S
C578 O559 1.248 . S
C579 Tb515 2.802 . S
C579 O554 1.264 . S
C579 O557 1.256 . S
C579 C572 1.496 . S
H580 C563 0.929 . S
H581 C564 0.929 . S
H582 C565 0.929 . S
H583 C566 0.931 . S
H584 C574 0.929 . S
H585 C575 0.929 . S
H586 C576 0.931 . S
H587 C577 0.929 . S
Tb588 N617 2.617 . S
Tb588 N623 2.572 . S
Tb588 O632 2.465 . S
Tb588 O633 2.387 . S
Tb588 O635 2.428 . S
Tb588 O636 2.308 . S
Tb588 O640 2.349 . S
Tb588 O643 2.393 . S
Tb588 C652 2.802 . S
C589 N590 1.379 . S
C589 C592 1.416 . S
C589 C596 1.424 . S
N590 C589 1.379 . S
N590 C593 1.334 . S
N590 Tb599 2.617 . S
C591 C593 1.390 . S
C591 C594 1.339 . S
C591 H611 0.930 . S
C592 C589 1.416 . S
C592 C594 1.416 . S
C592 C598 1.448 . S
C593 N590 1.334 . S
C593 C591 1.390 . S
C593 H604 0.930 . S
C594 C591 1.339 . S
C594 C592 1.416 . S
C594 H615 0.930 . S
C595 C596 1.413 . S
C595 C597 1.427 . S
C595 C601 1.416 . S
C596 C589 1.424 . S
C596 C595 1.413 . S
C596 N600 1.361 . S
C597 C595 1.427 . S
C597 C598 1.328 . S
C597 H612 0.929 . S
C598 C592 1.448 . S
C598 C597 1.328 . S
C598 H613 0.930 . S
Tb599 N590 2.617 . S
Tb599 N600 2.572 . S
Tb599 O634 2.349 . S
Tb599 O637 2.393 . S
Tb599 O638 2.465 . S
Tb599 O639 2.387 . S
Tb599 O641 2.428 . S
Tb599 O642 2.308 . S
Tb599 C663 2.802 . S
N600 C596 1.361 . S
N600 Tb599 2.572 . S
N600 C602 1.340 . S
C601 C595 1.416 . S
C601 C603 1.332 . S
C601 H609 0.931 . S
C602 N600 1.340 . S
C602 C603 1.407 . S
C602 H608 0.930 . S
C603 C601 1.332 . S
C603 C602 1.407 . S
C603 H605 0.929 . S
H604 C593 0.930 . S
H605 C603 0.929 . S
H606 C621 0.930 . S
H607 C628 0.929 . S
H608 C602 0.930 . S
H609 C601 0.931 . S
H610 C624 0.930 . S
H611 C591 0.930 . S
H612 C597 0.929 . S
H613 C598 0.930 . S
H614 C619 0.930 . S
H615 C594 0.930 . S
H616 C627 0.931 1_655 S
N617 Tb588 2.617 . S
N617 C618 1.379 . S
N617 C621 1.334 . S
C618 N617 1.379 . S
C618 C620 1.416 . S
C618 C626 1.424 . S
C619 H614 0.930 . S
C619 C621 1.390 . S
C619 C622 1.339 . S
C620 C618 1.416 . S
C620 C622 1.416 . S
C620 C653 1.448 . S
C621 H606 0.930 . S
C621 N617 1.334 . S
C621 C619 1.390 . S
C622 C619 1.339 . S
C622 C620 1.416 . S
C622 H629 0.930 . S
N623 Tb588 2.572 . S
N623 C624 1.340 . S
N623 C626 1.361 . S
C624 H610 0.930 . S
C624 N623 1.340 . S
C624 C628 1.407 . S
C625 C626 1.413 . S
C625 C627 1.416 . S
C625 C654 1.427 1_455 S
C626 C618 1.424 . S
C626 N623 1.361 . S
C626 C625 1.413 . S
C627 H616 0.931 1_455 S
C627 C625 1.416 . S
C627 C628 1.332 . S
C628 H607 0.929 . S
C628 C624 1.407 . S
C628 C627 1.332 . S
H629 C622 0.930 . S
H630 C653 0.930 1_655 S
H631 C654 0.929 . S
O632 Tb588 2.465 . S
O632 C652 1.264 . S
O633 Tb588 2.387 . S
O633 C644 1.264 . S
O634 Tb599 2.349 . S
O634 C644 1.243 . S
O635 Tb588 2.428 . S
O635 C652 1.256 . S
O636 Tb588 2.308 . S
O636 C651 1.266 . S
O637 Tb599 2.393 . S
O637 C651 1.248 . S
O638 Tb599 2.465 . S
O638 C663 1.264 . S
O639 Tb599 2.387 . S
O639 C655 1.264 . S
O640 Tb588 2.349 . S
O640 C655 1.243 . S
O641 Tb599 2.428 . S
O641 C663 1.256 . S
O642 Tb599 2.308 . S
O642 C662 1.266 . S
O643 Tb588 2.393 . S
O643 C662 1.248 . S
C644 O633 1.264 . S
C644 O634 1.243 . S
C645 C648 1.399 . S
C645 C650 1.383 . S
C645 C652 1.496 . S
C646 C647 1.399 . S
C646 C650 1.389 . S
C647 C646 1.399 . S
C647 C649 1.380 . S
C647 H664 0.929 . S
C648 C645 1.399 . S
C648 C649 1.392 . S
C648 H665 0.929 . S
C649 C647 1.380 . S
C649 C648 1.392 . S
C649 H666 0.929 . S
C650 C645 1.383 . S
C650 C646 1.389 . S
C650 H667 0.931 . S
C651 O636 1.266 . S
C651 O637 1.248 . S
C652 Tb588 2.802 . S
C652 O632 1.264 . S
C652 O635 1.256 . S
C652 C645 1.496 . S
C653 C620 1.448 . S
C653 H630 0.930 1_455 S
C653 C654 1.328 1_455 S
C654 C625 1.427 1_655 S
C654 H631 0.929 . S
C654 C653 1.328 1_655 S
C655 O639 1.264 . S
C655 O640 1.243 . S
C656 C659 1.399 . S
C656 C660 1.383 . S
C656 C663 1.496 . S
C657 C658 1.399 . S
C657 C660 1.389 . S
C658 C657 1.399 . S
C658 C661 1.380 . S
C658 H668 0.929 . S
C659 C656 1.399 . S
C659 C661 1.392 . S
C659 H669 0.929 . S
C660 C656 1.383 . S
C660 C657 1.389 . S
C660 H670 0.931 . S
C661 C658 1.380 . S
C661 C659 1.392 . S
C661 H671 0.929 . S
C662 O642 1.266 . S
C662 O643 1.248 . S
C663 Tb599 2.802 . S
C663 O638 1.264 . S
C663 O641 1.256 . S
C663 C656 1.496 . S
H664 C647 0.929 . S
H665 C648 0.929 . S
H666 C649 0.929 . S
H667 C650 0.931 . S
H668 C658 0.929 . S
H669 C659 0.929 . S
H670 C660 0.931 . S
H671 C661 0.929 . S
C672 C673 1.363 . S
C672 C678 1.379 . S
C672 N680 1.356 . S
C673 C672 1.363 . S
C673 C679 1.363 . S
C674 C675 1.363 . S
C674 C679 1.379 . S
C674 N681 1.356 . S
C675 C674 1.363 . S
C675 C678 1.363 . S
N676 C678 1.356 . S
N676 H688 0.984 1_554 S
N676 H689 0.985 1_554 S
N677 C679 1.356 . S
N677 H682 0.984 . S
N677 H683 0.985 . S
C678 C672 1.379 . S
C678 C675 1.363 . S
C678 N676 1.356 . S
C679 C673 1.363 . S
C679 C674 1.379 . S
C679 N677 1.356 . S
N680 C672 1.356 . S
N680 H686 0.984 . S
N680 H687 0.984 . S
N681 C674 1.356 . S
N681 H684 0.984 . S
N681 H685 0.985 . S
H682 N677 0.984 . S
H683 N677 0.985 . S
H684 N681 0.984 . S
H685 N681 0.985 . S
H686 N680 0.984 . S
H687 N680 0.984 . S
H688 N676 0.984 1_556 S
H689 N676 0.985 1_556 S
C690 C691 1.363 1_556 S
C690 C696 1.379 . S
C690 N698 1.356 . S
C691 C690 1.363 1_554 S
C691 C697 1.363 . S
C692 C693 1.363 . S
C692 C697 1.379 . S
C692 N699 1.356 . S
C693 C692 1.363 . S
C693 C696 1.363 1_554 S
N694 C696 1.356 . S
N694 H706 0.984 . S
N694 H707 0.985 . S
N695 C697 1.356 . S
N695 H700 0.984 . S
N695 H701 0.985 . S
C696 C690 1.379 . S
C696 C693 1.363 1_556 S
C696 N694 1.356 . S
C697 C691 1.363 . S
C697 C692 1.379 . S
C697 N695 1.356 . S
N698 C690 1.356 . S
N698 H704 0.984 . S
N698 H705 0.984 . S
N699 C692 1.356 . S
N699 H702 0.984 . S
N699 H703 0.985 . S
H700 N695 0.984 . S
H701 N695 0.985 . S
H702 N699 0.984 . S
H703 N699 0.985 . S
H704 N698 0.984 . S
H705 N698 0.984 . S
H706 N694 0.984 . S
H707 N694 0.985 . S
C708 C709 1.363 . S
C708 C714 1.379 . S
C708 N716 1.356 . S
C709 C708 1.363 . S
C709 C715 1.363 . S
C710 C711 1.363 . S
C710 C715 1.379 . S
C710 N717 1.356 . S
C711 C710 1.363 . S
C711 C714 1.363 . S
N712 C714 1.356 . S
N712 H724 0.984 . S
N712 H725 0.985 . S
N713 C715 1.356 . S
N713 H718 0.984 . S
N713 H719 0.985 . S
C714 C708 1.379 . S
C714 C711 1.363 . S
C714 N712 1.356 . S
C715 C709 1.363 . S
C715 C710 1.379 . S
C715 N713 1.356 . S
N716 C708 1.356 . S
N716 H722 0.984 . S
N716 H723 0.984 . S
N717 C710 1.356 . S
N717 H720 0.984 . S
N717 H721 0.985 . S
H718 N713 0.984 . S
H719 N713 0.985 . S
H720 N717 0.984 . S
H721 N717 0.985 . S
H722 N716 0.984 . S
H723 N716 0.984 . S
H724 N712 0.984 . S
H725 N712 0.985 . S
C726 C727 1.363 . S
C726 C732 1.379 . S
C726 N734 1.356 . S
C727 C726 1.363 . S
C727 C733 1.363 . S
C728 C729 1.363 . S
C728 C733 1.379 . S
C728 N735 1.356 . S
C729 C728 1.363 . S
C729 C732 1.363 . S
N730 C732 1.356 . S
N730 H742 0.984 . S
N730 H743 0.985 . S
N731 C733 1.356 . S
N731 H736 0.984 . S
N731 H737 0.985 . S
C732 C726 1.379 . S
C732 C729 1.363 . S
C732 N730 1.356 . S
C733 C727 1.363 . S
C733 C728 1.379 . S
C733 N731 1.356 . S
N734 C726 1.356 . S
N734 H740 0.984 . S
N734 H741 0.984 . S
N735 C728 1.356 . S
N735 H738 0.984 . S
N735 H739 0.985 . S
H736 N731 0.984 . S
H737 N731 0.985 . S
H738 N735 0.984 . S
H739 N735 0.985 . S
H740 N734 0.984 . S
H741 N734 0.984 . S
H742 N730 0.984 . S
H743 N730 0.985 . S
C744 C745 1.363 1_455 S
C744 C750 1.379 . S
C744 N752 1.356 1_455 S
C745 C744 1.363 1_655 S
C745 C751 1.363 1_554 S
C746 C747 1.363 1_556 S
C746 C751 1.379 1_455 S
C746 N753 1.356 . S
C747 C746 1.363 1_554 S
C747 C750 1.363 . S
N748 C750 1.356 . S
N748 H760 0.984 . S
N748 H761 0.985 . S
N749 C751 1.356 . S
N749 H754 0.984 . S
N749 H755 0.985 . S
C750 C744 1.379 . S
C750 C747 1.363 . S
C750 N748 1.356 . S
C751 C745 1.363 1_556 S
C751 C746 1.379 1_655 S
C751 N749 1.356 . S
N752 C744 1.356 1_655 S
N752 H758 0.984 . S
N752 H759 0.984 . S
N753 C746 1.356 . S
N753 H756 0.984 . S
N753 H757 0.985 . S
H754 N749 0.984 . S
H755 N749 0.985 . S
H756 N753 0.984 . S
H757 N753 0.985 . S
H758 N752 0.984 . S
H759 N752 0.984 . S
H760 N748 0.984 . S
H761 N748 0.985 . S
C762 C763 1.363 . S
C762 C768 1.379 1_455 S
C762 N770 1.356 . S
C763 C762 1.363 . S
C763 C769 1.363 1_454 S
C764 C765 1.363 1_556 S
C764 C769 1.379 . S
C764 N771 1.356 . S
C765 C764 1.363 1_554 S
C765 C768 1.363 . S
N766 C768 1.356 . S
N766 H778 0.984 . S
N766 H779 0.985 . S
N767 C769 1.356 1_455 S
N767 H772 0.984 . S
N767 H773 0.984 1_455 S
C768 C762 1.379 1_655 S
C768 C765 1.363 . S
C768 N766 1.356 . S
C769 C763 1.363 1_656 S
C769 C764 1.379 . S
C769 N767 1.356 1_655 S
N770 C762 1.356 . S
N770 H776 0.984 . S
N770 H777 0.984 . S
N771 C764 1.356 . S
N771 H774 0.984 . S
N771 H775 0.985 . S
H772 N767 0.984 . S
H773 N767 0.984 1_655 S
H774 N771 0.984 . S
H775 N771 0.985 . S
H776 N770 0.984 . S
H777 N770 0.984 . S
H778 N766 0.984 . S
H779 N766 0.985 . S
C780 C781 1.363 . S
C780 C786 1.379 . S
C780 N788 1.356 . S
C781 C780 1.363 . S
C781 C787 1.363 . S
C782 C783 1.363 . S
C782 C787 1.379 1_655 S
C782 N789 1.356 . S
C783 C782 1.363 . S
C783 C786 1.363 1_655 S
N784 C786 1.356 1_655 S
N784 H796 0.984 1_655 S
N784 H797 0.985 . S
N785 C787 1.356 . S
N785 H790 0.984 . S
N785 H791 0.985 . S
C786 C780 1.379 . S
C786 C783 1.363 1_455 S
C786 N784 1.356 1_455 S
C787 C781 1.363 . S
C787 C782 1.379 1_455 S
C787 N785 1.356 . S
N788 C780 1.356 . S
N788 H794 0.984 . S
N788 H795 0.984 . S
N789 C782 1.356 . S
N789 H792 0.984 . S
N789 H793 0.985 . S
H790 N785 0.984 . S
H791 N785 0.985 . S
H792 N789 0.984 . S
H793 N789 0.985 . S
H794 N788 0.984 . S
H795 N788 0.984 . S
H796 N784 0.984 1_455 S
H797 N784 0.985 . S
C798 C799 1.363 . S
C798 C804 1.379 1_655 S
C798 N806 1.356 . S
C799 C798 1.363 . S
C799 C805 1.363 . S
C800 C801 1.363 1_655 S
C800 C805 1.379 . S
C800 N807 1.356 1_655 S
C801 C800 1.363 1_455 S
C801 C804 1.363 . S
N802 C804 1.356 . S
N802 H814 0.984 . S
N802 H815 0.985 . S
N803 C805 1.356 . S
N803 H808 0.984 . S
N803 H809 0.985 . S
C804 C798 1.379 1_455 S
C804 C801 1.363 . S
C804 N802 1.356 . S
C805 C799 1.363 . S
C805 C800 1.379 . S
C805 N803 1.356 . S
N806 C798 1.356 . S
N806 H812 0.984 . S
N806 H813 0.984 . S
N807 C800 1.356 1_455 S
N807 H810 0.984 . S
N807 H811 0.985 . S
H808 N803 0.984 . S
H809 N803 0.985 . S
H810 N807 0.984 . S
H811 N807 0.985 . S
H812 N806 0.984 . S
H813 N806 0.984 . S
H814 N802 0.984 . S
H815 N802 0.985 . S
C816 C817 1.363 1_655 S
C816 C822 1.379 . S
C816 N824 1.356 . S
C817 C816 1.363 1_455 S
C817 C823 1.363 . S
C818 C819 1.363 1_455 S
C818 C823 1.379 . S
C818 N825 1.356 . S
C819 C818 1.363 1_655 S
C819 C822 1.363 . S
N820 C822 1.356 . S
N820 H832 0.984 . S
N820 H833 0.985 . S
N821 C823 1.356 . S
N821 H826 0.984 . S
N821 H827 0.985 . S
C822 C816 1.379 . S
C822 C819 1.363 . S
C822 N820 1.356 . S
C823 C817 1.363 . S
C823 C818 1.379 . S
C823 N821 1.356 . S
N824 C816 1.356 . S
N824 H830 0.984 1_554 S
N824 H831 0.984 1_655 S
N825 C818 1.356 . S
N825 H828 0.984 1_455 S
N825 H829 0.985 . S
H826 N821 0.984 . S
H827 N821 0.985 . S
H828 N825 0.984 1_655 S
H829 N825 0.985 . S
H830 N824 0.984 1_556 S
H831 N824 0.984 1_455 S
H832 N820 0.984 . S
H833 N820 0.985 . S
C834 C835 1.363 1_655 S
C834 C840 1.379 . S
C834 N842 1.356 1_655 S
C835 C834 1.363 1_455 S
C835 C841 1.363 . S
C836 C837 1.363 1_455 S
C836 C841 1.379 . S
C836 N843 1.356 1_455 S
C837 C836 1.363 1_655 S
C837 C840 1.363 . S
N838 C840 1.356 . S
N838 H850 0.984 . S
N838 H851 0.985 . S
N839 C841 1.356 . S
N839 H844 0.984 . S
N839 H845 0.985 . S
C840 C834 1.379 . S
C840 C837 1.363 . S
C840 N838 1.356 . S
C841 C835 1.363 . S
C841 C836 1.379 . S
C841 N839 1.356 . S
N842 C834 1.356 1_455 S
N842 H848 0.984 1_455 S
N842 H849 0.984 . S
N843 C836 1.356 1_655 S
N843 H846 0.984 . S
N843 H847 0.985 1_655 S
H844 N839 0.984 . S
H845 N839 0.985 . S
H846 N843 0.984 . S
H847 N843 0.985 1_455 S
H848 N842 0.984 1_655 S
H849 N842 0.984 . S
H850 N838 0.984 . S
H851 N838 0.985 . S
C852 C853 1.363 . S
C852 C858 1.379 1_565 S
C852 N860 1.356 . S
C853 C852 1.363 . S
C853 C859 1.363 1_565 S
C854 C855 1.363 . S
C854 C859 1.379 . S
C854 N861 1.356 . S
C855 C854 1.363 . S
C855 C858 1.363 . S
N856 C858 1.356 . S
N856 H868 0.984 1_545 S
N856 H869 0.985 . S
N857 C859 1.351 1_565 S
N857 H862 1.005 . S
N857 H863 0.969 1_565 S
C858 C852 1.379 1_545 S
C858 C855 1.363 . S
C858 N856 1.356 . S
C859 C853 1.363 1_545 S
C859 C854 1.379 . S
C859 N857 1.351 1_545 S
N860 C852 1.356 . S
N860 H866 0.984 . S
N860 H867 0.984 . S
N861 C854 1.356 . S
N861 H864 0.984 . S
N861 H865 0.985 . S
H862 N857 1.005 . S
H863 N857 0.969 1_545 S
H864 N861 0.984 . S
H865 N861 0.985 . S
H866 N860 0.984 . S
H867 N860 0.984 . S
H868 N856 0.984 1_565 S
H869 N856 0.985 . S
C870 C871 1.363 . S
C870 C876 1.379 1_545 S
C870 N878 1.356 . S
C871 C870 1.363 . S
C871 C877 1.363 . S
C872 C873 1.363 . S
C872 C877 1.379 1_565 S
C872 N879 1.356 . S
C873 C872 1.363 . S
C873 C876 1.363 . S
N874 C876 1.356 . S
N874 H886 0.984 . S
N874 H887 0.985 . S
N875 C877 1.356 . S
N875 H880 0.984 . S
N875 H881 0.985 . S
C876 C870 1.379 1_565 S
C876 C873 1.363 . S
C876 N874 1.356 . S
C877 C871 1.363 . S
C877 C872 1.379 1_545 S
C877 N875 1.356 . S
N878 C870 1.356 . S
N878 H884 0.984 . S
N878 H885 0.984 . S
N879 C872 1.356 . S
N879 H882 0.984 . S
N879 H883 0.985 . S
H880 N875 0.984 . S
H881 N875 0.985 . S
H882 N879 0.984 . S
H883 N879 0.985 . S
H884 N878 0.984 . S
H885 N878 0.984 . S
H886 N874 0.984 . S
H887 N874 0.985 . S
C888 C889 1.363 . S
C888 C894 1.379 . S
C888 N896 1.356 . S
C889 C888 1.363 . S
C889 C895 1.363 . S
C890 C891 1.363 . S
C890 C895 1.379 . S
C890 N897 1.356 . S
C891 C890 1.363 . S
C891 C894 1.363 . S
N892 C894 1.356 1_554 S
N892 H904 0.984 . S
N892 H905 0.985 . S
N893 C895 1.356 . S
N893 H898 0.984 . S
N893 H899 0.985 . S
C894 C888 1.379 . S
C894 C891 1.363 . S
C894 N892 1.356 1_556 S
C895 C889 1.363 . S
C895 C890 1.379 . S
C895 N893 1.356 . S
N896 C888 1.356 . S
N896 H902 0.984 1_556 S
N896 H903 0.984 . S
N897 C890 1.356 . S
N897 H900 0.984 . S
N897 H901 0.985 . S
H898 N893 0.984 . S
H899 N893 0.985 . S
H900 N897 0.984 . S
H901 N897 0.985 . S
H902 N896 0.984 1_554 S
H903 N896 0.984 . S
H904 N892 0.984 . S
H905 N892 0.985 . S
C906 C907 1.363 . S
C906 C912 1.379 . S
C906 N914 1.356 . S
C907 C906 1.363 . S
C907 C913 1.363 . S
C908 C909 1.363 . S
C908 C913 1.379 . S
C908 N915 1.356 1_556 S
C909 C908 1.363 . S
C909 C912 1.363 . S
N910 C912 1.356 . S
N910 H922 0.984 . S
N910 H923 0.985 . S
N911 C913 1.356 . S
N911 H916 0.984 . S
N911 H917 0.985 1_556 S
C912 C906 1.379 . S
C912 C909 1.363 . S
C912 N910 1.356 . S
C913 C907 1.363 . S
C913 C908 1.379 . S
C913 N911 1.356 . S
N914 C906 1.356 . S
N914 H920 0.984 . S
N914 H921 0.984 . S
N915 C908 1.356 1_554 S
N915 H918 0.984 . S
N915 H919 0.985 . S
H916 N911 0.984 . S
H917 N911 0.985 1_554 S
H918 N915 0.984 . S
H919 N915 0.985 . S
H920 N914 0.984 . S
H921 N914 0.984 . S
H922 N910 0.984 . S
H923 N910 0.985 . S
C924 C925 1.363 . S
C924 C930 1.379 . S
C924 N932 1.356 . S
C925 C924 1.363 . S
C925 C931 1.363 . S
C926 C927 1.363 . S
C926 C931 1.379 . S
C926 N933 1.356 . S
C927 C926 1.363 . S
C927 C930 1.363 . S
N928 C930 1.356 . S
N928 H940 0.984 . S
N928 H941 0.985 . S
N929 C931 1.356 . S
N929 H934 0.984 . S
N929 H935 0.985 . S
C930 C924 1.379 . S
C930 C927 1.363 . S
C930 N928 1.356 . S
C931 C925 1.363 . S
C931 C926 1.379 . S
C931 N929 1.356 . S
N932 C924 1.356 . S
N932 H938 0.984 . S
N932 H939 0.984 . S
N933 C926 1.356 . S
N933 H936 0.984 . S
N933 H937 0.985 . S
H934 N929 0.984 . S
H935 N929 0.985 . S
H936 N933 0.984 . S
H937 N933 0.985 . S
H938 N932 0.984 . S
H939 N932 0.984 . S
H940 N928 0.984 . S
H941 N928 0.985 . S
C942 C943 1.363 . S
C942 C948 1.379 . S
C942 N950 1.356 . S
C943 C942 1.363 . S
C943 C949 1.363 . S
C944 C945 1.363 . S
C944 C949 1.379 . S
C944 N951 1.356 . S
C945 C944 1.363 . S
C945 C948 1.363 . S
N946 C948 1.356 . S
N946 H958 0.984 . S
N946 H959 0.985 . S
N947 C949 1.356 . S
N947 H952 0.984 . S
N947 H953 0.985 . S
C948 C942 1.379 . S
C948 C945 1.363 . S
C948 N946 1.356 . S
C949 C943 1.363 . S
C949 C944 1.379 . S
C949 N947 1.356 . S
N950 C942 1.356 . S
N950 H956 0.984 . S
N950 H957 0.984 . S
N951 C944 1.356 . S
N951 H954 0.984 . S
N951 H955 0.985 . S
H952 N947 0.984 . S
H953 N947 0.985 . S
H954 N951 0.984 . S
H955 N951 0.985 . S
H956 N950 0.984 . S
H957 N950 0.984 . S
H958 N946 0.984 . S
H959 N946 0.985 . S
C960 C961 1.363 . S
C960 C966 1.379 . S
C960 N968 1.356 . S
C961 C960 1.363 . S
C961 C967 1.363 1_455 S
C962 C963 1.363 . S
C962 C967 1.379 . S
C962 N969 1.356 . S
C963 C962 1.363 . S
C963 C966 1.363 1_655 S
N964 C966 1.356 . S
N964 H976 0.984 . S
N964 H977 0.985 . S
N965 C967 1.356 . S
N965 H970 0.984 . S
N965 H971 0.985 . S
C966 C960 1.379 . S
C966 C963 1.363 1_455 S
C966 N964 1.356 . S
C967 C961 1.363 1_655 S
C967 C962 1.379 . S
C967 N965 1.356 . S
N968 C960 1.356 . S
N968 H974 0.984 . S
N968 H975 0.984 . S
N969 C962 1.356 . S
N969 H972 0.984 . S
N969 H973 0.985 . S
H970 N965 0.984 . S
H971 N965 0.985 . S
H972 N969 0.984 . S
H973 N969 0.985 . S
H974 N968 0.984 . S
H975 N968 0.984 . S
H976 N964 0.984 . S
H977 N964 0.985 . S
C978 C979 1.363 1_455 S
C978 C984 1.379 . S
C978 N986 1.356 . S
C979 C978 1.363 1_655 S
C979 C985 1.363 . S
C980 C981 1.363 1_655 S
C980 C985 1.379 . S
C980 N987 1.356 . S
C981 C980 1.363 1_455 S
C981 C984 1.363 . S
N982 C984 1.356 . S
N982 H994 0.984 . S
N982 H995 0.985 . S
N983 C985 1.356 . S
N983 H988 0.984 . S
N983 H989 0.985 . S
C984 C978 1.379 . S
C984 C981 1.363 . S
C984 N982 1.356 . S
C985 C979 1.363 . S
C985 C980 1.379 . S
C985 N983 1.356 . S
N986 C978 1.356 . S
N986 H992 0.984 . S
N986 H993 0.984 . S
N987 C980 1.356 . S
N987 H990 0.984 . S
N987 H991 0.985 . S
H988 N983 0.984 . S
H989 N983 0.985 . S
H990 N987 0.984 . S
H991 N987 0.985 . S
H992 N986 0.984 . S
H993 N986 0.984 . S
H994 N982 0.984 . S
H995 N982 0.985 . S
C996 C997 1.363 . S
C996 C1002 1.379 . S
C996 N1004 1.356 . S
C997 C996 1.363 . S
C997 C1003 1.363 1_655 S
C998 C999 1.363 . S
C998 C1003 1.379 . S
C998 N1005 1.356 . S
C999 C998 1.363 . S
C999 C1002 1.363 1_455 S
N1000 C1002 1.356 . S
N1000 H1012 0.984 . S
N1000 H1013 0.985 . S
N1001 C1003 1.356 . S
N1001 H1006 0.984 . S
N1001 H1007 0.985 . S
C1002 C996 1.379 . S
C1002 C999 1.363 1_655 S
C1002 N1000 1.356 . S
C1003 C997 1.363 1_455 S
C1003 C998 1.379 . S
C1003 N1001 1.356 . S
N1004 C996 1.356 . S
N1004 H1010 0.984 . S
N1004 H1011 0.984 . S
N1005 C998 1.356 . S
N1005 H1008 0.984 . S
N1005 H1009 0.985 . S
H1006 N1001 0.984 . S
H1007 N1001 0.985 . S
H1008 N1005 0.984 . S
H1009 N1005 0.985 . S
H1010 N1004 0.984 . S
H1011 N1004 0.984 . S
H1012 N1000 0.984 . S
H1013 N1000 0.985 . S
C1014 C1015 1.363 1_455 S
C1014 C1020 1.379 . S
C1014 N1022 1.356 1_455 S
C1015 C1014 1.363 1_655 S
C1015 C1021 1.363 . S
C1016 C1017 1.363 . S
C1016 C1021 1.379 1_455 S
C1016 N1023 1.356 . S
C1017 C1016 1.363 . S
C1017 C1020 1.363 . S
N1018 C1020 1.356 . S
N1018 H1030 0.984 . S
N1018 H1031 0.985 . S
N1019 C1021 1.356 . S
N1019 H1024 0.984 . S
N1019 H1025 0.985 . S
C1020 C1014 1.379 . S
C1020 C1017 1.363 . S
C1020 N1018 1.356 . S
C1021 C1015 1.363 . S
C1021 C1016 1.379 1_655 S
C1021 N1019 1.356 . S
N1022 C1014 1.356 1_655 S
N1022 H1028 0.984 1_655 S
N1022 H1029 0.984 . S
N1023 C1016 1.356 . S
N1023 H1026 0.984 . S
N1023 H1027 0.985 1_455 S
H1024 N1019 0.984 . S
H1025 N1019 0.985 . S
H1026 N1023 0.984 . S
H1027 N1023 0.985 1_655 S
H1028 N1022 0.984 1_455 S
H1029 N1022 0.984 . S
H1030 N1018 0.984 . S
H1031 N1018 0.985 . S
C1032 C1033 1.363 . S
C1032 C1038 1.379 . S
C1032 N1040 1.356 . S
C1033 C1032 1.363 . S
C1033 C1039 1.363 . S
C1034 C1035 1.363 . S
C1034 C1039 1.379 . S
C1034 N1041 1.356 . S
C1035 C1034 1.363 . S
C1035 C1038 1.363 . S
N1036 C1038 1.356 . S
N1036 H1048 0.984 . S
N1036 H1049 0.985 . S
N1037 C1039 1.356 . S
N1037 H1042 0.984 . S
N1037 H1043 0.985 . S
C1038 C1032 1.379 . S
C1038 C1035 1.363 . S
C1038 N1036 1.356 . S
C1039 C1033 1.363 . S
C1039 C1034 1.379 . S
C1039 N1037 1.356 . S
N1040 C1032 1.356 . S
N1040 H1046 0.984 . S
N1040 H1047 0.984 . S
N1041 C1034 1.356 . S
N1041 H1044 0.984 . S
N1041 H1045 0.985 . S
H1042 N1037 0.984 . S
H1043 N1037 0.985 . S
H1044 N1041 0.984 . S
H1045 N1041 0.985 . S
H1046 N1040 0.984 . S
H1047 N1040 0.984 . S
H1048 N1036 0.984 . S
H1049 N1036 0.985 . S
C1050 C1051 1.363 . S
C1050 C1056 1.379 . S
C1050 N1058 1.356 . S
C1051 C1050 1.363 . S
C1051 C1057 1.363 . S
C1052 C1053 1.363 . S
C1052 C1057 1.379 . S
C1052 N1059 1.356 . S
C1053 C1052 1.363 . S
C1053 C1056 1.363 . S
N1054 C1056 1.356 . S
N1054 H1066 0.984 . S
N1054 H1067 0.985 . S
N1055 C1057 1.356 . S
N1055 H1060 0.984 . S
N1055 H1061 0.985 . S
C1056 C1050 1.379 . S
C1056 C1053 1.363 . S
C1056 N1054 1.356 . S
C1057 C1051 1.363 . S
C1057 C1052 1.379 . S
C1057 N1055 1.356 . S
N1058 C1050 1.356 . S
N1058 H1064 0.984 . S
N1058 H1065 0.984 . S
N1059 C1052 1.356 . S
N1059 H1062 0.984 . S
N1059 H1063 0.985 . S
H1060 N1055 0.984 . S
H1061 N1055 0.985 . S
H1062 N1059 0.984 . S
H1063 N1059 0.985 . S
H1064 N1058 0.984 . S
H1065 N1058 0.984 . S
H1066 N1054 0.984 . S
H1067 N1054 0.985 . S
C1068 C1069 1.363 . S
C1068 C1074 1.379 . S
C1068 N1076 1.356 . S
C1069 C1068 1.363 . S
C1069 C1075 1.363 . S
C1070 C1071 1.363 . S
C1070 C1075 1.379 . S
C1070 N1077 1.356 . S
C1071 C1070 1.363 . S
C1071 C1074 1.363 . S
N1072 C1074 1.356 . S
N1072 H1084 0.984 . S
N1072 H1085 0.985 . S
N1073 C1075 1.356 . S
N1073 H1078 0.984 . S
N1073 H1079 0.985 . S
C1074 C1068 1.379 . S
C1074 C1071 1.363 . S
C1074 N1072 1.356 . S
C1075 C1069 1.363 . S
C1075 C1070 1.379 . S
C1075 N1073 1.356 . S
N1076 C1068 1.356 . S
N1076 H1082 0.984 . S
N1076 H1083 0.984 . S
N1077 C1070 1.356 . S
N1077 H1080 0.984 . S
N1077 H1081 0.985 . S
H1078 N1073 0.984 . S
H1079 N1073 0.985 . S
H1080 N1077 0.984 . S
H1081 N1077 0.985 . S
H1082 N1076 0.984 . S
H1083 N1076 0.984 . S
H1084 N1072 0.984 . S
H1085 N1072 0.985 . S
C1086 C1087 1.363 . S
C1086 C1092 1.379 . S
C1086 N1094 1.356 . S
C1087 C1086 1.363 . S
C1087 C1093 1.363 . S
C1088 C1089 1.363 . S
C1088 C1093 1.379 . S
C1088 N1095 1.356 . S
C1089 C1088 1.363 . S
C1089 C1092 1.363 . S
N1090 C1092 1.356 . S
N1090 H1102 0.984 . S
N1090 H1103 0.985 . S
N1091 C1093 1.356 . S
N1091 H1096 0.984 . S
N1091 H1097 0.985 . S
C1092 C1086 1.379 . S
C1092 C1089 1.363 . S
C1092 N1090 1.356 . S
C1093 C1087 1.363 . S
C1093 C1088 1.379 . S
C1093 N1091 1.356 . S
N1094 C1086 1.356 . S
N1094 H1100 0.984 . S
N1094 H1101 0.984 . S
N1095 C1088 1.356 . S
N1095 H1098 0.984 . S
N1095 H1099 0.985 . S
H1096 N1091 0.984 . S
H1097 N1091 0.985 . S
H1098 N1095 0.984 . S
H1099 N1095 0.985 . S
H1100 N1094 0.984 . S
H1101 N1094 0.984 . S
H1102 N1090 0.984 . S
H1103 N1090 0.985 . S
C673 C56 1.958 . S
C675 C67 1.958 . S
C691 C151 1.970 . S
C693 C140 1.970 . S
C709 C224 1.953 . S
C711 C235 1.953 . S
C727 C308 1.953 . S
C729 C319 1.953 . S
C745 C392 1.958 . S
C747 C403 1.958 . S
C763 C476 1.970 . S
C765 C487 1.970 . S
C781 C560 1.953 . S
C783 C571 1.953 . S
C799 C655 1.953 . S
C801 C644 1.953 . S
C817 C142 2.545 . S
C819 C58 2.123 . S
C835 C310 2.160 . S
C837 C237 2.160 . S
C853 C394 2.122 . S
C855 C478 2.544 . S
C871 C573 2.161 . S
C873 C646 2.161 . S
C889 C69 1.522 . S
C891 C489 1.936 1_556 S
C907 C405 1.523 . S
C909 C153 1.936 1_556 S
C925 C226 1.510 . S
C927 C657 1.510 . S
C943 C321 1.510 . S
C945 C562 1.510 . S
C961 C63 1.689 . S
C963 C315 1.780 . S
C979 C147 1.509 . S
C981 C231 1.482 . S
C997 C158 1.617 . S
C999 C242 1.688 . S
C1015 C326 1.592 . S
C1017 C74 1.492 . S
C1033 C399 1.689 . S
C1035 C651 1.780 . S
C1051 C483 1.510 . S
C1053 C567 1.483 . S
C1069 C494 1.617 . S
C1071 C578 1.687 . S
C1087 C662 1.592 . S
C1089 C410 1.492 . S
