# Generated by pormake.
# Topology wmt, (6)-cn, num edge types: 1
# Building blocks:
#     Node 0, Type 0, BuildingBlock: HISSIN_clean_sbu_0, # of connection points: 6
#     Node 1, Type 0, BuildingBlock: HISSIN_clean_sbu_0, # of connection points: 6
#     Node 2, Type 0, BuildingBlock: HISSIN_clean_sbu_0, # of connection points: 6
#     Node 3, Type 0, BuildingBlock: HISSIN_clean_sbu_0, # of connection points: 6
#     Node 4, Type 0, BuildingBlock: HISSIN_clean_sbu_0, # of connection points: 6
#     Node 5, Type 0, BuildingBlock: HISSIN_clean_sbu_0, # of connection points: 6
#     Node 6, Type 0, BuildingBlock: HISSIN_clean_sbu_0, # of connection points: 6
#     Node 7, Type 0, BuildingBlock: HISSIN_clean_sbu_0, # of connection points: 6
#     Node 8, Type 0, BuildingBlock: HISSIN_clean_sbu_0, # of connection points: 6
#     Node 9, Type 0, BuildingBlock: HISSIN_clean_sbu_0, # of connection points: 6
#     Node 10, Type 0, BuildingBlock: HISSIN_clean_sbu_0, # of connection points: 6
#     Node 11, Type 0, BuildingBlock: HISSIN_clean_sbu_0, # of connection points: 6
#     Node 12, Type 0, BuildingBlock: HISSIN_clean_sbu_0, # of connection points: 6
#     Node 13, Type 0, BuildingBlock: HISSIN_clean_sbu_0, # of connection points: 6
#     Node 14, Type 0, BuildingBlock: HISSIN_clean_sbu_0, # of connection points: 6
#     Node 15, Type 0, BuildingBlock: HISSIN_clean_sbu_0, # of connection points: 6
#     Node 16, Type 0, BuildingBlock: HISSIN_clean_sbu_0, # of connection points: 6
#     Node 17, Type 0, BuildingBlock: HISSIN_clean_sbu_0, # of connection points: 6
#     Node 18, Type 0, BuildingBlock: HISSIN_clean_sbu_0, # of connection points: 6
#     Node 19, Type 0, BuildingBlock: HISSIN_clean_sbu_0, # of connection points: 6
#     Node 20, Type 0, BuildingBlock: HISSIN_clean_sbu_0, # of connection points: 6
#     Node 21, Type 0, BuildingBlock: HISSIN_clean_sbu_0, # of connection points: 6
#     Node 22, Type 0, BuildingBlock: HISSIN_clean_sbu_0, # of connection points: 6
#     Node 23, Type 0, BuildingBlock: HISSIN_clean_sbu_0, # of connection points: 6
#     Node 24, Type 0, BuildingBlock: HISSIN_clean_sbu_0, # of connection points: 6
#     Node 25, Type 0, BuildingBlock: HISSIN_clean_sbu_0, # of connection points: 6
#     Node 26, Type 0, BuildingBlock: HISSIN_clean_sbu_0, # of connection points: 6
#     Node 27, Type 0, BuildingBlock: HISSIN_clean_sbu_0, # of connection points: 6
#     Node 28, Type 0, BuildingBlock: HISSIN_clean_sbu_0, # of connection points: 6
#     Node 29, Type 0, BuildingBlock: HISSIN_clean_sbu_0, # of connection points: 6
#     Node 30, Type 0, BuildingBlock: HISSIN_clean_sbu_0, # of connection points: 6
#     Node 31, Type 0, BuildingBlock: HISSIN_clean_sbu_0, # of connection points: 6
#     Node 32, Type 0, BuildingBlock: HISSIN_clean_sbu_0, # of connection points: 6
#     Node 33, Type 0, BuildingBlock: HISSIN_clean_sbu_0, # of connection points: 6
#     Node 34, Type 0, BuildingBlock: HISSIN_clean_sbu_0, # of connection points: 6
#     Node 35, Type 0, BuildingBlock: HISSIN_clean_sbu_0, # of connection points: 6
#     Edge 36, Type (0, 0), BuildingBlock: OJICUG_clean_linker_0, # of connection points: 2
#     Edge 37, Type (0, 0), BuildingBlock: OJICUG_clean_linker_0, # of connection points: 2
#     Edge 38, Type (0, 0), BuildingBlock: OJICUG_clean_linker_0, # of connection points: 2
#     Edge 39, Type (0, 0), BuildingBlock: OJICUG_clean_linker_0, # of connection points: 2
#     Edge 40, Type (0, 0), BuildingBlock: OJICUG_clean_linker_0, # of connection points: 2
#     Edge 41, Type (0, 0), BuildingBlock: OJICUG_clean_linker_0, # of connection points: 2
#     Edge 42, Type (0, 0), BuildingBlock: OJICUG_clean_linker_0, # of connection points: 2
#     Edge 43, Type (0, 0), BuildingBlock: OJICUG_clean_linker_0, # of connection points: 2
#     Edge 44, Type (0, 0), BuildingBlock: OJICUG_clean_linker_0, # of connection points: 2
#     Edge 45, Type (0, 0), BuildingBlock: OJICUG_clean_linker_0, # of connection points: 2
#     Edge 46, Type (0, 0), BuildingBlock: OJICUG_clean_linker_0, # of connection points: 2
#     Edge 47, Type (0, 0), BuildingBlock: OJICUG_clean_linker_0, # of connection points: 2
#     Edge 48, Type (0, 0), BuildingBlock: OJICUG_clean_linker_0, # of connection points: 2
#     Edge 49, Type (0, 0), BuildingBlock: OJICUG_clean_linker_0, # of connection points: 2
#     Edge 50, Type (0, 0), BuildingBlock: OJICUG_clean_linker_0, # of connection points: 2
#     Edge 51, Type (0, 0), BuildingBlock: OJICUG_clean_linker_0, # of connection points: 2
#     Edge 52, Type (0, 0), BuildingBlock: OJICUG_clean_linker_0, # of connection points: 2
#     Edge 53, Type (0, 0), BuildingBlock: OJICUG_clean_linker_0, # of connection points: 2
#     Edge 54, Type (0, 0), BuildingBlock: OJICUG_clean_linker_0, # of connection points: 2
#     Edge 55, Type (0, 0), BuildingBlock: OJICUG_clean_linker_0, # of connection points: 2
#     Edge 56, Type (0, 0), BuildingBlock: OJICUG_clean_linker_0, # of connection points: 2
#     Edge 57, Type (0, 0), BuildingBlock: OJICUG_clean_linker_0, # of connection points: 2
#     Edge 58, Type (0, 0), BuildingBlock: OJICUG_clean_linker_0, # of connection points: 2
#     Edge 59, Type (0, 0), BuildingBlock: OJICUG_clean_linker_0, # of connection points: 2
#     Edge 60, Type (0, 0), BuildingBlock: OJICUG_clean_linker_0, # of connection points: 2
#     Edge 61, Type (0, 0), BuildingBlock: OJICUG_clean_linker_0, # of connection points: 2
#     Edge 62, Type (0, 0), BuildingBlock: OJICUG_clean_linker_0, # of connection points: 2
#     Edge 63, Type (0, 0), BuildingBlock: OJICUG_clean_linker_0, # of connection points: 2
#     Edge 64, Type (0, 0), BuildingBlock: OJICUG_clean_linker_0, # of connection points: 2
#     Edge 65, Type (0, 0), BuildingBlock: OJICUG_clean_linker_0, # of connection points: 2
#     Edge 66, Type (0, 0), BuildingBlock: OJICUG_clean_linker_0, # of connection points: 2
#     Edge 67, Type (0, 0), BuildingBlock: OJICUG_clean_linker_0, # of connection points: 2
#     Edge 68, Type (0, 0), BuildingBlock: OJICUG_clean_linker_0, # of connection points: 2
#     Edge 69, Type (0, 0), BuildingBlock: OJICUG_clean_linker_0, # of connection points: 2
#     Edge 70, Type (0, 0), BuildingBlock: OJICUG_clean_linker_0, # of connection points: 2
#     Edge 71, Type (0, 0), BuildingBlock: OJICUG_clean_linker_0, # of connection points: 2
#     Edge 72, Type (0, 0), BuildingBlock: OJICUG_clean_linker_0, # of connection points: 2
#     Edge 73, Type (0, 0), BuildingBlock: OJICUG_clean_linker_0, # of connection points: 2
#     Edge 74, Type (0, 0), BuildingBlock: OJICUG_clean_linker_0, # of connection points: 2
#     Edge 75, Type (0, 0), BuildingBlock: OJICUG_clean_linker_0, # of connection points: 2
#     Edge 76, Type (0, 0), BuildingBlock: OJICUG_clean_linker_0, # of connection points: 2
#     Edge 77, Type (0, 0), BuildingBlock: OJICUG_clean_linker_0, # of connection points: 2
#     Edge 78, Type (0, 0), BuildingBlock: OJICUG_clean_linker_0, # of connection points: 2
#     Edge 79, Type (0, 0), BuildingBlock: OJICUG_clean_linker_0, # of connection points: 2
#     Edge 80, Type (0, 0), BuildingBlock: OJICUG_clean_linker_0, # of connection points: 2
#     Edge 81, Type (0, 0), BuildingBlock: OJICUG_clean_linker_0, # of connection points: 2
#     Edge 82, Type (0, 0), BuildingBlock: OJICUG_clean_linker_0, # of connection points: 2
#     Edge 83, Type (0, 0), BuildingBlock: OJICUG_clean_linker_0, # of connection points: 2
#     Edge 84, Type (0, 0), BuildingBlock: OJICUG_clean_linker_0, # of connection points: 2
#     Edge 85, Type (0, 0), BuildingBlock: OJICUG_clean_linker_0, # of connection points: 2
#     Edge 86, Type (0, 0), BuildingBlock: OJICUG_clean_linker_0, # of connection points: 2
#     Edge 87, Type (0, 0), BuildingBlock: OJICUG_clean_linker_0, # of connection points: 2
#     Edge 88, Type (0, 0), BuildingBlock: OJICUG_clean_linker_0, # of connection points: 2
#     Edge 89, Type (0, 0), BuildingBlock: OJICUG_clean_linker_0, # of connection points: 2
#     Edge 90, Type (0, 0), BuildingBlock: OJICUG_clean_linker_0, # of connection points: 2
#     Edge 91, Type (0, 0), BuildingBlock: OJICUG_clean_linker_0, # of connection points: 2
#     Edge 92, Type (0, 0), BuildingBlock: OJICUG_clean_linker_0, # of connection points: 2
#     Edge 93, Type (0, 0), BuildingBlock: OJICUG_clean_linker_0, # of connection points: 2
#     Edge 94, Type (0, 0), BuildingBlock: OJICUG_clean_linker_0, # of connection points: 2
#     Edge 95, Type (0, 0), BuildingBlock: OJICUG_clean_linker_0, # of connection points: 2
#     Edge 96, Type (0, 0), BuildingBlock: OJICUG_clean_linker_0, # of connection points: 2
#     Edge 97, Type (0, 0), BuildingBlock: OJICUG_clean_linker_0, # of connection points: 2
#     Edge 98, Type (0, 0), BuildingBlock: OJICUG_clean_linker_0, # of connection points: 2
#     Edge 99, Type (0, 0), BuildingBlock: OJICUG_clean_linker_0, # of connection points: 2
#     Edge 100, Type (0, 0), BuildingBlock: OJICUG_clean_linker_0, # of connection points: 2
#     Edge 101, Type (0, 0), BuildingBlock: OJICUG_clean_linker_0, # of connection points: 2
#     Edge 102, Type (0, 0), BuildingBlock: OJICUG_clean_linker_0, # of connection points: 2
#     Edge 103, Type (0, 0), BuildingBlock: OJICUG_clean_linker_0, # of connection points: 2
#     Edge 104, Type (0, 0), BuildingBlock: OJICUG_clean_linker_0, # of connection points: 2
#     Edge 105, Type (0, 0), BuildingBlock: OJICUG_clean_linker_0, # of connection points: 2
#     Edge 106, Type (0, 0), BuildingBlock: OJICUG_clean_linker_0, # of connection points: 2
#     Edge 107, Type (0, 0), BuildingBlock: OJICUG_clean_linker_0, # of connection points: 2
#     Edge 108, Type (0, 0), BuildingBlock: OJICUG_clean_linker_0, # of connection points: 2
#     Edge 109, Type (0, 0), BuildingBlock: OJICUG_clean_linker_0, # of connection points: 2
#     Edge 110, Type (0, 0), BuildingBlock: OJICUG_clean_linker_0, # of connection points: 2
#     Edge 111, Type (0, 0), BuildingBlock: OJICUG_clean_linker_0, # of connection points: 2
#     Edge 112, Type (0, 0), BuildingBlock: OJICUG_clean_linker_0, # of connection points: 2
#     Edge 113, Type (0, 0), BuildingBlock: OJICUG_clean_linker_0, # of connection points: 2
#     Edge 114, Type (0, 0), BuildingBlock: OJICUG_clean_linker_0, # of connection points: 2
#     Edge 115, Type (0, 0), BuildingBlock: OJICUG_clean_linker_0, # of connection points: 2
#     Edge 116, Type (0, 0), BuildingBlock: OJICUG_clean_linker_0, # of connection points: 2
#     Edge 117, Type (0, 0), BuildingBlock: OJICUG_clean_linker_0, # of connection points: 2
#     Edge 118, Type (0, 0), BuildingBlock: OJICUG_clean_linker_0, # of connection points: 2
#     Edge 119, Type (0, 0), BuildingBlock: OJICUG_clean_linker_0, # of connection points: 2
#     Edge 120, Type (0, 0), BuildingBlock: OJICUG_clean_linker_0, # of connection points: 2
#     Edge 121, Type (0, 0), BuildingBlock: OJICUG_clean_linker_0, # of connection points: 2
#     Edge 122, Type (0, 0), BuildingBlock: OJICUG_clean_linker_0, # of connection points: 2
#     Edge 123, Type (0, 0), BuildingBlock: OJICUG_clean_linker_0, # of connection points: 2
#     Edge 124, Type (0, 0), BuildingBlock: OJICUG_clean_linker_0, # of connection points: 2
#     Edge 125, Type (0, 0), BuildingBlock: OJICUG_clean_linker_0, # of connection points: 2
#     Edge 126, Type (0, 0), BuildingBlock: OJICUG_clean_linker_0, # of connection points: 2
#     Edge 127, Type (0, 0), BuildingBlock: OJICUG_clean_linker_0, # of connection points: 2
#     Edge 128, Type (0, 0), BuildingBlock: OJICUG_clean_linker_0, # of connection points: 2
#     Edge 129, Type (0, 0), BuildingBlock: OJICUG_clean_linker_0, # of connection points: 2
#     Edge 130, Type (0, 0), BuildingBlock: OJICUG_clean_linker_0, # of connection points: 2
#     Edge 131, Type (0, 0), BuildingBlock: OJICUG_clean_linker_0, # of connection points: 2
#     Edge 132, Type (0, 0), BuildingBlock: OJICUG_clean_linker_0, # of connection points: 2
#     Edge 133, Type (0, 0), BuildingBlock: OJICUG_clean_linker_0, # of connection points: 2
#     Edge 134, Type (0, 0), BuildingBlock: OJICUG_clean_linker_0, # of connection points: 2
#     Edge 135, Type (0, 0), BuildingBlock: OJICUG_clean_linker_0, # of connection points: 2
#     Edge 136, Type (0, 0), BuildingBlock: OJICUG_clean_linker_0, # of connection points: 2
#     Edge 137, Type (0, 0), BuildingBlock: OJICUG_clean_linker_0, # of connection points: 2
#     Edge 138, Type (0, 0), BuildingBlock: OJICUG_clean_linker_0, # of connection points: 2
#     Edge 139, Type (0, 0), BuildingBlock: OJICUG_clean_linker_0, # of connection points: 2
#     Edge 140, Type (0, 0), BuildingBlock: OJICUG_clean_linker_0, # of connection points: 2
#     Edge 141, Type (0, 0), BuildingBlock: OJICUG_clean_linker_0, # of connection points: 2
#     Edge 142, Type (0, 0), BuildingBlock: OJICUG_clean_linker_0, # of connection points: 2
#     Edge 143, Type (0, 0), BuildingBlock: OJICUG_clean_linker_0, # of connection points: 2
# Relax obj value: 0.479
# Max RMSD: 0.207
# Mean RMSD: 0.207
data_MOF--net-wmt--node1-HISSIN_clean_sbu_0--edge1-OJICUG_clean_linker_0
_symmetry_space_group_name_H-M    P1
_symmetry_Int_Tables_number       1
_symmetry_cell_setting            triclinic
loop_
_symmetry_equiv_pos_as_xyz
'x, y, z'
_cell_length_a     59.981115
_cell_length_b     60.077968
_cell_length_c     26.89244
_cell_angle_alpha  89.83451
_cell_angle_beta   89.978145
_cell_angle_gamma 119.95009
loop_
_atom_site_label
_atom_site_type_symbol
_atom_site_fract_x
_atom_site_fract_y
_atom_site_fract_z
_atom_type_partial_charge
Eu0 Eu 0.06521 0.47002 0.20135 0.0
Eu1 Eu 0.02403 0.41728 0.14324 0.0
C2 C 0.01164 0.46181 0.15814 0.0
C3 C 0.08756 0.51603 0.31185 0.0
C4 C 0.06306 0.50296 0.33418 0.0
C5 C 0.10253 0.54566 0.38224 0.0
C6 C 0.05828 0.5113 0.37978 0.0
C7 C 0.10724 0.53736 0.33656 0.0
C8 C 0.0779 0.53294 0.40449 0.0
C9 C 0.09225 0.50862 0.26164 0.0
O10 O 0.04364 0.4462 0.07906 0.0
O11 O 0.06746 0.48437 0.12245 0.0
C12 C 0.05834 0.47169 0.08032 0.0
O13 O 0.08946 0.46239 0.1442 0.0
O14 O 0.9911 0.39187 0.09763 0.0
O15 O 0.01309 0.377 0.13413 0.0
O16 O 0.06265 0.41997 0.15076 0.0
C17 C 0.08298 0.43897 0.12989 0.0
O18 O 0.04634 0.43691 0.25721 0.0
O19 O 0.00745 0.41482 0.22026 0.0
O20 O 0.00837 0.44289 0.1297 0.0
O21 O 0.09504 0.48838 0.25871 0.0
O22 O 0.07774 0.50908 0.22599 0.0
O23 O 0.02721 0.46927 0.19674 0.0
C24 C 0.00061 0.36508 1.05201 0.0
C25 C 0.02331 0.38178 1.02648 0.0
C26 C 0.9856 0.3371 0.98042 0.0
C27 C 0.02689 0.37659 0.97784 0.0
C28 C 0.982 0.3424 1.02943 0.0
C29 C 0.00775 0.35461 0.95371 0.0
C30 C 0.99603 0.37311 0.10013 0.0
C31 C 0.02123 0.42213 0.26099 0.0
H32 H 0.04748 0.48645 0.31597 0.0
H33 H 0.1181 0.56253 0.39947 0.0
H34 H 0.03918 0.5007 0.39575 0.0
H35 H 0.12623 0.54793 0.32007 0.0
H36 H 0.03779 0.39944 1.04353 0.0
H37 H 0.97064 0.31995 0.96274 0.0
H38 H 0.04392 0.39072 0.95824 0.0
H39 H 0.96441 0.32935 1.04893 0.0
Eu40 Eu 0.51653 0.58847 0.20372 0.0
Eu41 Eu 0.56689 0.58846 0.14804 0.0
C42 C 0.51821 0.537 0.17962 0.0
C43 C 0.47033 0.56823 0.31026 0.0
C44 C 0.47684 0.54929 0.32174 0.0
C45 C 0.44433 0.55628 0.38614 0.0
C46 C 0.46692 0.53378 0.36435 0.0
C47 C 0.45406 0.57164 0.34309 0.0
C48 C 0.45039 0.5369 0.39719 0.0
C49 C 0.4794 0.58309 0.26277 0.0
O50 O 0.53617 0.57498 0.0876 0.0
O51 O 0.50264 0.57812 0.12381 0.0
C52 C 0.51301 0.57262 0.08562 0.0
O53 O 0.5308 0.62113 0.14564 0.0
O54 O 0.58374 0.5728 0.09717 0.0
O55 O 0.60846 0.60774 0.13801 0.0
O56 O 0.57163 0.62807 0.14365 0.0
C57 C 0.5541 0.63287 0.12573 0.0
O58 O 0.54529 0.59319 0.26512 0.0
O59 O 0.57506 0.58505 0.22863 0.0
O60 O 0.54323 0.55011 0.18374 0.0
O61 O 0.50225 0.60367 0.26254 0.0
O62 O 0.47583 0.56915 0.22336 0.0
O63 O 0.5042 0.54742 0.18993 0.0
C64 C 0.62146 0.60378 0.05801 0.0
C65 C 0.61277 0.61603 1.02546 0.0
C66 C 0.65605 0.61211 1.00081 0.0
C67 C 0.62554 0.62612 0.98065 0.0
C68 C 0.64335 0.60217 1.04597 0.0
C69 C 0.64716 0.6241 0.96781 0.0
C70 C 0.60714 0.59186 0.10355 0.0
C71 C 0.56455 0.58853 0.26843 0.0
H72 H 0.48941 0.54624 0.29725 0.0
H73 H 0.43157 0.55922 0.41025 0.0
H74 H 0.47241 0.51945 0.37179 0.0
H75 H 0.44859 0.58595 0.33513 0.0
H76 H 0.59576 0.61722 1.03422 0.0
H77 H 0.67238 0.60992 0.99109 0.0
H78 H 0.61793 0.63467 0.95514 0.0
H79 H 0.65017 0.59265 0.07086 0.0
Eu80 Eu 0.3997 0.91725 0.20768 0.0
Eu81 Eu 0.39788 0.96556 0.15156 0.0
C82 C 0.44996 0.97037 0.18199 0.0
C83 C 0.41727 0.89023 0.31804 0.0
C84 C 0.43902 0.88717 0.32153 0.0
C85 C 0.42497 0.90556 0.40407 0.0
C86 C 0.45373 0.89354 0.36529 0.0
C87 C 0.4104 0.89945 0.36007 0.0
C88 C 0.44701 0.90291 0.40724 0.0
C89 C 0.40342 0.88562 0.26943 0.0
O90 O 0.40982 0.94609 0.09168 0.0
O91 O 0.41059 0.91197 0.13031 0.0
C92 C 0.41374 0.92622 0.09063 0.0
O93 O 0.36618 0.89847 0.15067 0.0
O94 O 0.4169 -0.0022 0.09997 0.0
O95 O 0.37991 0.98815 0.13155 0.0
O96 O 0.35814 0.93157 0.14428 0.0
C97 C 0.3535 0.90888 0.12976 0.0
O98 O 0.40416 0.94654 0.26708 0.0
O99 O 0.39305 0.97437 0.23156 0.0
O100 O 0.43566 0.98071 0.18992 0.0
O101 O 0.3831 0.88844 0.26738 0.0
O102 O 0.41817 0.89546 0.23051 0.0
O103 O 0.44027 0.94559 0.18718 0.0
C104 C 0.38527 0.99478 1.04624 0.0
C105 C 0.37371 0.96939 1.02934 0.0
C106 C 0.37487 0.00752 0.96809 0.0
C107 C 0.36266 0.96299 0.98258 0.0
C108 C 0.38578 0.0139 1.01566 0.0
C109 C 0.36328 0.98194 0.95099 0.0
C110 C 0.39648 0.00014 0.09593 0.0
C111 C 0.3995 0.96574 0.27077 0.0
H112 H 0.44494 0.88021 0.28993 0.0
H113 H 0.41927 0.91293 0.43535 0.0
H114 H 0.47032 0.89091 0.36635 0.0
H115 H 0.394 0.90239 0.35882 0.0
H116 H 0.37311 0.95438 1.05261 0.0
H117 H 0.3761 0.0227 0.94444 0.0
H118 H 0.35357 0.9431 0.97136 0.0
H119 H 0.39472 0.0336 1.02828 0.0
Eu120 Eu 0.47396 0.06998 0.5237 0.0
Eu121 Eu 0.42537 0.01952 0.57267 0.0
C122 C 0.47645 0.01964 0.55012 0.0
C123 C 0.51681 0.09629 0.41311 0.0
C124 C 0.5107 0.07092 0.40268 0.0
C125 C 0.54015 0.10951 0.33408 0.0
C126 C 0.51893 0.06484 0.35843 0.0
C127 C 0.53166 0.11553 0.3783 0.0
C128 C 0.53387 0.084 0.32318 0.0
C129 C 0.50768 0.10227 0.46025 0.0
O130 O 0.45471 0.03784 0.63695 0.0
O131 O 0.48827 0.075 0.6023 0.0
C132 C 0.47749 0.05928 0.64044 0.0
O133 O 0.45561 0.08771 0.57621 0.0
O134 O 0.40891 0.98458 0.61795 0.0
O135 O 0.38415 0.99288 0.57276 0.0
O136 O 0.4208 0.05078 0.60668 0.0
C137 C 0.43569 0.07581 0.6075 0.0
O138 O 0.45401 0.03822 0.46601 0.0
O139 O 0.41352 0.02126 0.4931 0.0
O140 O 0.45182 0.00719 0.54035 0.0
O141 O 0.48362 0.09685 0.46118 0.0
O142 O 0.51396 0.09495 0.50113 0.0
O143 O 0.48956 0.04473 0.54741 0.0
C144 C 0.36897 0.97504 0.65095 0.0
C145 C 0.37283 0.99667 0.67755 0.0
C146 C 0.33906 0.94754 0.71407 0.0
C147 C 0.3607 0.99386 0.72301 0.0
C148 C 0.35111 0.95045 0.66807 0.0
C149 C 0.34499 0.96926 0.74318 0.0
C150 C 0.38526 0.97853 0.60787 0.0
C151 C 0.42939 0.02478 0.45684 0.0
H152 H 0.49952 0.05565 0.42891 0.0
H153 H 0.55195 0.12503 0.30876 0.0
H154 H 0.51318 0.04493 0.35172 0.0
H155 H 0.53684 0.13527 0.38539 0.0
H156 H 0.38664 0.01574 0.66484 0.0
H157 H 0.32683 0.92837 0.72874 0.0
H158 H 0.36589 0.01099 0.74453 0.0
H159 H 0.34772 0.93357 0.6475 0.0
Eu160 Eu 0.92473 0.4084 0.52167 0.0
Eu161 Eu 0.97802 0.41418 0.57455 0.0
C162 C 0.97599 0.46181 0.53683 0.0
C163 C 0.89787 0.42612 0.41433 0.0
C164 C 0.92357 0.44431 0.40265 0.0
C165 C 0.88458 0.43976 0.33955 0.0
C166 C 0.9297 0.46015 0.36036 0.0
C167 C 0.87845 0.42398 0.38218 0.0
C168 C 0.91033 0.45828 0.32808 0.0
C169 C 0.89177 0.41077 0.46137 0.0
O170 O 0.96061 0.42891 0.63255 0.0
O171 O 0.92065 0.41886 0.60104 0.0
C172 C 0.93807 0.42781 0.6369 0.0
O173 O 0.90868 0.37487 0.57934 0.0
O174 O 0.00933 0.43336 0.62831 0.0
O175 O 0.00872 0.40496 0.57833 0.0
O176 O 0.94638 0.37558 0.60043 0.0
C177 C 0.92173 0.3671 0.60787 0.0
O178 O 0.95139 0.40922 0.45942 0.0
O179 O 0.98225 0.4032 0.4966 0.0
O180 O 0.98756 0.44871 0.52825 0.0
O181 O 0.89605 0.3914 0.46187 0.0
O182 O 0.90029 0.4244 0.50174 0.0
O183 O 0.95098 0.45016 0.53477 0.0
C184 C 0.02034 0.40385 0.66051 0.0
C185 C -0.00045 0.3793 0.67006 0.0
C186 C 0.04034 0.40142 0.73703 0.0
C187 C -0.00111 0.36606 0.71275 0.0
C188 C 0.0411 0.4147 0.69357 0.0
C189 C 0.01877 0.3772 0.74762 0.0
C190 C 0.01878 0.41846 0.61833 0.0
C191 C 0.97133 0.40568 0.45648 0.0
H192 H 0.93902 0.44651 0.42672 0.0
H193 H 0.86903 0.43777 0.31609 0.0
H194 H 0.94974 0.47375 0.35276 0.0
H195 H 0.85848 0.41033 0.39032 0.0
H196 H 0.98311 0.37076 0.64569 0.0
H197 H 0.05586 0.41083 0.76355 0.0
H198 H 0.98207 0.34764 0.71976 0.0
H199 H 0.05725 0.43376 0.68692 0.0
Eu200 Eu 0.58699 0.51975 0.52517 0.0
Eu201 Eu 0.60048 0.57272 0.58355 0.0
C202 C 0.54277 0.53011 0.56577 0.0
C203 C 0.56188 0.47468 0.41372 0.0
C204 C 0.5537 0.49031 0.39013 0.0
C205 C 0.54397 0.44463 0.34432 0.0
C206 C 0.54064 0.48308 0.34427 0.0
C207 C 0.55694 0.45184 0.39017 0.0
C208 C 0.53541 0.46002 0.32061 0.0
C209 C 0.57395 0.48115 0.46406 0.0
O210 O 0.59002 0.54351 0.64759 0.0
O211 O 0.57276 0.50534 0.60329 0.0
C212 C 0.5772 0.51794 0.64577 0.0
O213 O 0.61808 0.52569 0.58296 0.0
O214 O 0.59604 0.59797 0.63545 0.0
O215 O 0.62798 0.61388 0.58358 0.0
O216 O 0.63592 0.56879 0.58042 0.0
C217 C 0.63589 0.54853 0.59869 0.0
O218 O 0.60334 0.55318 0.47005 0.0
O219 O 0.58672 0.57549 0.50619 0.0
O220 O 0.55856 0.5489 0.59438 0.0
O221 O 0.5974 0.50066 0.4675 0.0
O222 O 0.55929 0.48113 0.4999 0.0
O223 O 0.55094 0.52273 0.52719 0.0
C224 C 0.63538 0.62993 0.66515 0.0
C225 C 0.65251 0.62146 0.67856 0.0
C226 C 0.64234 0.65108 0.74467 0.0
C227 C 0.6637 0.62694 0.72549 0.0
C228 C 0.63136 0.64583 0.69736 0.0
C229 C 0.65747 0.64043 0.76017 0.0
C230 C 0.61798 0.61793 0.62326 0.0
C231 C 0.59364 0.56845 0.46567 0.0
H232 H 0.55715 0.508 0.4075 0.0
H233 H 0.5401 0.42659 0.32805 0.0
H234 H 0.53476 0.49569 0.32725 0.0
H235 H 0.56277 0.43929 0.40768 0.0
H236 H 0.65587 0.60916 0.65409 0.0
H237 H 0.63699 0.66147 0.77036 0.0
H238 H 0.67588 0.61919 0.73566 0.0
H239 H 0.61805 0.65237 0.68758 0.0
Eu240 Eu 0.97532 0.57717 0.08708 0.0
Eu241 Eu 0.93092 0.52661 1.02735 0.0
C242 C 0.91679 0.55906 0.10398 0.0
C243 C 0.01129 0.63651 0.16858 0.0
C244 C 0.99148 0.6414 0.18096 0.0
C245 C 0.03017 0.65144 0.24961 0.0
C246 C 0.99051 0.65046 0.22812 0.0
C247 C 0.03141 0.64304 0.20209 0.0
C248 C 0.00891 0.65393 0.26421 0.0
C249 C 0.00945 0.62115 0.12493 0.0
O250 O 0.9514 0.56027 0.97321 0.0
O251 O 0.99039 0.57804 1.0094 0.0
C252 C 0.97658 0.57326 0.96909 0.0
O253 O 0.98854 0.54936 0.09569 0.0
O254 O 0.90128 0.51108 0.96916 0.0
O255 O 0.9151 0.48719 1.00114 0.0
O256 O 0.96634 0.52239 1.03103 0.0
C257 C 0.98317 0.52972 0.0675 0.0
O258 O 0.95492 0.54833 0.15073 0.0
O259 O 0.92761 0.51141 0.10629 0.0
O260 O 0.90818 0.53597 0.08488 0.0
O261 O 0.00821 0.59934 0.13504 0.0
O262 O 0.99344 0.61898 0.08983 0.0
O263 O 0.93824 0.57801 0.08598 0.0
C264 C 0.90645 0.48235 0.91476 0.0
C265 C 0.92999 0.49725 0.88976 0.0
C266 C 0.89279 0.45119 0.84697 0.0
C267 C 0.93493 0.48912 0.84405 0.0
C268 C 0.88789 0.45933 0.89268 0.0
C269 C 0.9165 0.4658 0.82197 0.0
C270 C 0.90191 0.48968 0.96521 0.0
C271 C 0.93813 0.52324 0.14869 0.0
H272 H 0.97583 0.63641 0.15553 0.0
H273 H 0.04482 0.65364 0.27575 0.0
H274 H 0.97434 0.65288 0.23732 0.0
H275 H 0.047 0.63953 0.19302 0.0
H276 H 0.94474 0.51504 0.90598 0.0
H277 H 0.87817 0.43301 0.83195 0.0
H278 H 0.95327 0.50119 0.82601 0.0
H279 H 0.8697 0.44732 0.91132 0.0
Eu280 Eu 0.42483 0.41032 0.06769 0.0
Eu281 Eu 0.47337 0.40506 1.01804 0.0
C282 C 0.43823 0.36634 0.10881 0.0
C283 C 0.37285 0.40561 0.15561 0.0
C284 C 0.34724 0.38547 0.15983 0.0
C285 C 0.37454 0.41058 0.24528 0.0
C286 C 0.33563 0.37739 0.2066 0.0
C287 C 0.38624 0.41834 0.19878 0.0
C288 C 0.3493 0.38978 0.24979 0.0
C289 C 0.38578 0.41192 0.10663 0.0
O290 O 0.44955 0.40816 0.95494 0.0
O291 O 0.41042 0.39483 0.99048 0.0
C292 C 0.42503 0.40087 0.9508 0.0
O293 O 0.45013 0.4463 1.02496 0.0
O294 O 0.48609 0.38789 0.96059 0.0
O295 O 0.51423 0.42146 1.00037 0.0
O296 O 0.48799 0.44659 1.03045 0.0
C297 C 0.47506 0.45875 1.03174 0.0
O298 O 0.45627 0.42632 0.12753 0.0
O299 O 0.48687 0.41669 0.09762 0.0
O300 O 0.45518 0.37047 0.07281 0.0
O301 O 0.40897 0.43187 0.10389 0.0
O302 O 0.38364 0.3924 0.08152 0.0
O303 O 0.42484 0.37819 0.10974 0.0
C304 C 0.5202 0.42215 0.91298 0.0
C305 C 0.54566 0.44285 0.91075 0.0
C306 C 0.51386 0.43306 0.82825 0.0
C307 C 0.55503 0.45855 0.86811 0.0
C308 C 0.50451 0.41741 0.87088 0.0
C309 C 0.53925 0.45404 0.82614 0.0
C310 C 0.50966 0.40746 0.96064 0.0
C311 C 0.4779 0.42557 0.13279 0.0
H312 H 0.3365 0.37539 0.12702 0.0
H313 H 0.3857 0.42019 0.27802 0.0
H314 H 0.3162 0.36126 0.20908 0.0
H315 H 0.40602 0.43383 0.19692 0.0
H316 H 0.55827 0.44719 0.94249 0.0
H317 H 0.50088 0.429 0.79727 0.0
H318 H 0.57475 0.47419 0.86801 0.0
H319 H 0.48477 0.40187 0.87112 0.0
Eu320 Eu 0.579 0.01805 0.06967 0.0
Eu321 Eu 0.58485 0.07077 1.02131 0.0
C322 C 0.62528 0.07343 0.1097 0.0
C323 C 0.5875 0.97377 0.15099 0.0
C324 C 0.61149 0.9946 0.16385 0.0
C325 C 0.58535 0.95434 0.23125 0.0
C326 C 0.62195 0.99571 0.21019 0.0
C327 C 0.57476 0.95319 0.18426 0.0
C328 C 0.60862 0.9762 0.24514 0.0
C329 C 0.57468 0.97602 0.10657 0.0
O330 O 0.57646 0.04051 0.96165 0.0
O331 O 0.5975 0.0219 0.9943 0.0
C332 C 0.58757 0.02672 0.95543 0.0
O333 O 0.54335 0.00872 1.02769 0.0
O334 O 0.60264 0.0982 0.95974 0.0
O335 O 0.57085 0.09678 1.0004 0.0
O336 O 0.5432 0.04568 1.03996 0.0
C337 C 0.53086 0.0206 1.03906 0.0
O338 O 0.56687 0.036 0.13242 0.0
O339 O 0.57428 0.07498 0.09983 0.0
O340 O 0.62014 0.08646 0.07546 0.0
O341 O 0.55781 0.98328 0.1148 0.0
O342 O 0.59014 0.98871 0.06992 0.0
O343 O 0.61351 0.04823 0.10947 0.0
C344 C 0.56879 0.09802 0.91275 0.0
C345 C 0.54986 0.07252 0.90225 0.0
C346 C 0.55698 0.11126 0.83576 0.0
C347 C 0.53484 0.0664 0.85899 0.0
C348 C 0.57215 0.11734 0.87905 0.0
C349 C 0.53805 0.08563 0.82483 0.0
C350 C 0.58426 0.10399 0.95934 0.0
C351 C 0.56717 0.05821 0.13675 0.0
H352 H 0.62146 0.01094 0.13932 0.0
H353 H 0.57441 0.93912 0.25779 0.0
H354 H 0.63964 0.0128 0.22003 0.0
H355 H 0.55604 0.93709 0.17512 0.0
H356 H 0.54657 0.0572 0.92773 0.0
H357 H 0.55992 0.1268 0.81119 0.0
H358 H 0.52093 0.04643 0.85211 0.0
H359 H 0.5864 0.13717 0.88632 0.0
Eu360 Eu 0.56265 0.96607 0.65225 0.0
Eu361 Eu 0.51253 0.91778 0.70678 0.0
C362 C 0.55014 0.90957 0.6278 0.0
C363 C 0.60841 -0.00174 0.55151 0.0
C364 C 0.59348 0.97476 0.52731 0.0
C365 C 0.6363 0.01452 0.47966 0.0
C366 C 0.59946 0.97129 0.47921 0.0
C367 C 0.63013 0.01803 0.52807 0.0
C368 C 0.62063 0.99128 0.45443 0.0
C369 C 0.60057 0.00136 0.60101 0.0
O370 O 0.53602 0.94758 0.7664 0.0
O371 O 0.5754 0.97471 0.73251 0.0
C372 C 0.55983 0.96667 0.77093 0.0
O373 O 0.53933 0.98184 0.68575 0.0
O374 O 0.50121 0.88966 0.76771 0.0
O375 O 0.47235 0.89478 0.72954 0.0
O376 O 0.49981 0.94582 0.68707 0.0
C377 C 0.51437 0.97061 0.68063 0.0
O378 O 0.53208 0.94669 0.59083 0.0
O379 O 0.49595 0.9144 0.63042 0.0
O380 O 0.52702 0.89904 0.6487 0.0
O381 O 0.57784 -0.00076 0.60282 0.0
O382 O 0.60362 0.98776 0.63537 0.0
O383 O 0.56814 0.93201 0.6435 0.0
C384 C 0.46882 0.89127 0.81709 0.0
C385 C 0.47549 0.91662 0.82925 0.0
C386 C 0.44392 0.87693 0.89426 0.0
C387 C 0.46652 0.92209 0.87325 0.0
C388 C 0.45299 0.87149 0.85016 0.0
C389 C 0.45044 0.90234 0.90653 0.0
C390 C 0.47766 0.88574 0.76915 0.0
C391 C 0.50769 0.92794 0.59037 0.0
H392 H 0.57679 0.95921 0.54532 0.0
H393 H 0.65287 0.03016 0.46152 0.0
H394 H 0.58672 0.95335 0.46075 0.0
H395 H 0.64198 0.03614 0.54677 0.0
H396 H 0.48752 0.93227 0.80434 0.0
H397 H 0.43136 0.86107 0.91827 0.0
H398 H 0.47244 0.94192 0.8813 0.0
H399 H 0.44736 0.85177 0.84163 0.0
Eu400 Eu 0.02212 0.58991 0.65289 0.0
Eu401 Eu 0.07216 0.5885 0.70779 0.0
C402 C 0.0801 0.63198 0.62546 0.0
C403 C 0.98536 0.60388 0.55767 0.0
C404 C -0.00211 0.59992 0.51755 0.0
C405 C 0.97703 0.63223 0.50621 0.0
C406 C 0.0004 0.61233 0.4726 0.0
C407 C 0.97473 0.61992 0.55176 0.0
C408 C 0.99031 0.62877 0.46683 0.0
C409 C 0.98603 0.59365 0.60675 0.0
O410 O 0.04813 0.59277 0.76972 0.0
O411 O 0.01345 0.59268 0.73324 0.0
C412 C 0.02622 0.59291 0.77294 0.0
O413 O 0.00728 0.55298 0.69442 0.0
O414 O 0.10173 0.60289 0.76635 0.0
O415 O 0.09274 0.56826 0.72648 0.0
O416 O 0.04212 0.5478 0.69533 0.0
C417 C 0.01752 0.53842 0.68851 0.0
O418 O 0.03771 0.57431 0.59313 0.0
O419 O 0.07449 0.57717 0.62808 0.0
O420 O 0.09132 0.62074 0.64881 0.0
O421 O 0.9876 0.57271 0.60724 0.0
O422 O 0.00177 0.61079 0.63823 0.0
O423 O 0.05781 0.62833 0.6413 0.0
C424 C 0.09729 0.56686 0.81323 0.0
C425 C 0.07158 0.54898 0.82549 0.0
C426 C 0.1108 0.55327 0.88762 0.0
C427 C 0.06556 0.53321 0.86783 0.0
C428 C 0.11683 0.56889 0.84488 0.0
C429 C 0.08507 0.53501 0.89956 0.0
C430 C 0.10339 0.58195 0.76603 0.0
C431 C 0.05827 0.57158 0.59052 0.0
H432 H 0.00649 0.58786 0.5213 0.0
H433 H 0.96922 0.64495 0.50219 0.0
H434 H 0.01053 0.60932 0.44232 0.0
H435 H 0.96535 0.62348 0.58268 0.0
H436 H 0.05606 0.54697 0.80184 0.0
H437 H 0.1264 0.55517 0.91083 0.0
H438 H 0.04554 0.51977 0.87597 0.0
H439 H 0.13679 0.58233 0.83624 0.0
Eu440 Eu 0.38915 0.41731 0.63605 0.0
Eu441 Eu 0.4018 0.46994 0.69779 0.0
C442 C 0.35301 0.44091 0.62439 0.0
C443 C 0.35571 0.3631 0.54754 0.0
C444 C 0.33779 0.3711 0.53832 0.0
C445 C 0.35034 0.3474 0.46288 0.0
C446 C 0.32711 0.36828 0.49128 0.0
C447 C 0.36086 0.34995 0.5104 0.0
C448 C 0.33466 0.35808 0.45221 0.0
C449 C 0.37287 0.37354 0.59059 0.0
O450 O 0.38549 0.43575 0.7513 0.0
O451 O 0.40203 0.41353 0.71369 0.0
C452 C 0.39496 0.42021 0.75459 0.0
O453 O 0.43113 0.44184 0.62777 0.0
O454 O 0.39078 0.48817 0.75632 0.0
O455 O 0.42873 0.50871 0.72342 0.0
O456 O 0.43828 0.46777 0.69539 0.0
C457 C 0.44666 0.4605 0.65696 0.0
O458 O 0.39955 0.4474 0.57413 0.0
O459 O 0.4154 0.4851 0.61966 0.0
O460 O 0.37049 0.46373 0.64073 0.0
O461 O 0.39477 0.39406 0.58076 0.0
O462 O 0.36261 0.37599 0.63152 0.0
O463 O 0.35342 0.42065 0.64132 0.0
C464 C 0.42607 0.51581 0.80933 0.0
C465 C 0.4374 0.50271 0.83184 0.0
C466 C 0.4413 0.54593 0.879 0.0
C467 C 0.45077 0.51129 0.87716 0.0
C468 C 0.42803 0.53738 0.83363 0.0
C469 C 0.45317 0.53321 0.90139 0.0
C470 C 0.41386 0.50831 0.75921 0.0
C471 C 0.41151 0.47289 0.57682 0.0
H472 H 0.33368 0.38151 0.56618 0.0
H473 H 0.35659 0.33945 0.43349 0.0
H474 H 0.31477 0.37618 0.48441 0.0
H475 H 0.37478 0.34376 0.51676 0.0
H476 H 0.43625 0.48603 0.81395 0.0
H477 H 0.44287 0.563 0.8958 0.0
H478 H 0.4592 0.50065 0.89325 0.0
H479 H 0.4197 0.548 0.81697 0.0
Eu480 Eu 0.74183 0.81964 0.54033 0.0
Eu481 Eu 0.69288 0.76872 0.49193 0.0
C482 C 0.68825 0.81678 0.51751 0.0
C483 C 0.76705 0.86535 0.64627 0.0
C484 C 0.74167 0.85993 0.65479 0.0
C485 C 0.77958 0.88906 0.7245 0.0
C486 C 0.73531 0.86903 0.69746 0.0
C487 C 0.78594 0.88 0.68159 0.0
C488 C 0.75414 0.88376 0.73311 0.0
C489 C 0.7734 0.85554 0.6007 0.0
O490 O 0.70735 0.7992 0.42941 0.0
O491 O 0.74511 0.8331 0.46078 0.0
C492 C 0.72833 0.82216 0.42434 0.0
O493 O 0.7613 0.80234 0.49112 0.0
O494 O 0.65569 0.74919 0.45431 0.0
O495 O 0.67275 0.72727 0.48251 0.0
O496 O 0.72588 0.77054 0.4501 0.0
C497 C 0.75078 0.78505 0.45488 0.0
O498 O 0.71121 0.79743 0.59914 0.0
O499 O 0.69662 0.75735 0.57105 0.0
O500 O 0.67743 0.7921 0.52638 0.0
O501 O 0.76893 0.83186 0.60273 0.0
O502 O 0.76545 0.86025 0.55889 0.0
O503 O 0.71324 0.83152 0.52015 0.0
C504 C 0.65587 0.71778 0.40297 0.0
C505 C 0.67299 0.73517 0.36783 0.0
C506 C 0.6455 0.6827 0.3458 0.0
C507 C 0.67645 0.72654 0.32239 0.0
C508 C 0.64216 0.69144 0.39201 0.0
C509 C 0.66297 0.70027 0.31099 0.0
C510 C 0.65567 0.72741 0.45276 0.0
C511 C 0.69911 0.77269 0.60771 0.0
H512 H 0.72664 0.84855 0.62836 0.0
H513 H 0.7947 0.9005 0.75069 0.0
H514 H 0.71548 0.86411 0.70288 0.0
H515 H 0.80564 0.88447 0.676 0.0
H516 H 0.68416 0.75551 0.37586 0.0
H517 H 0.63488 0.66234 0.3376 0.0
H518 H 0.68964 0.74058 0.29589 0.0
H519 H 0.62936 0.67772 0.41933 0.0
Eu520 Eu 0.18314 0.92212 0.53788 0.0
Eu521 Eu 0.23206 0.92155 0.47861 0.0
C522 C 0.1845 0.87035 0.51262 0.0
C523 C 0.13783 0.90188 0.64839 0.0
C524 C 0.1145 0.87832 0.65057 0.0
C525 C 0.14451 0.89594 0.73631 0.0
C526 C 0.10645 0.86365 0.69456 0.0
C527 C 0.15272 0.91051 0.69205 0.0
C528 C 0.12131 0.87216 0.73821 0.0
C529 C 0.14679 0.91609 0.59977 0.0
O530 O 0.20058 0.90992 0.41995 0.0
O531 O 0.16816 0.9139 0.45876 0.0
C532 C 0.17787 0.90863 0.4193 0.0
O533 O 0.19772 0.95583 0.48183 0.0
O534 O 0.24694 0.90444 0.42671 0.0
O535 O 0.27304 0.9409 0.46156 0.0
O536 O 0.23794 0.96158 0.48005 0.0
C537 C 0.22106 0.9673 0.46217 0.0
O538 O 0.21241 0.92563 0.59696 0.0
O539 O 0.24181 0.91778 0.55777 0.0
O540 O 0.20951 0.88349 0.51547 0.0
O541 O 0.16929 0.93715 0.59774 0.0
O542 O 0.14285 0.90174 0.56084 0.0
O543 O 0.17067 0.88137 0.51913 0.0
C544 C 0.27973 0.93585 0.37806 0.0
C545 C 0.26445 0.94196 0.34814 0.0
C546 C 0.31354 0.95387 0.31599 0.0
C547 C 0.27352 0.95384 0.30247 0.0
C548 C 0.30431 0.94178 0.36198 0.0
C549 C 0.29824 0.96016 0.28599 0.0
C550 C 0.27006 0.92448 0.42684 0.0
C551 C 0.23162 0.92082 0.59848 0.0
H552 H 0.10249 0.87101 0.61784 0.0
H553 H 0.15664 0.90312 0.7689 0.0
H554 H 0.08834 0.84571 0.6945 0.0
H555 H 0.17089 0.92839 0.69198 0.0
H556 H 0.24544 0.9376 0.36023 0.0
H557 H 0.33262 0.95846 0.30412 0.0
H558 H 0.26094 0.95776 0.27979 0.0
H559 H 0.31638 0.93735 0.38511 0.0
Eu560 Eu 0.07202 0.25271 0.53846 0.0
Eu561 Eu 0.07295 0.30314 0.48354 0.0
C562 C 0.12338 0.30516 0.51572 0.0
C563 C 0.08989 0.22659 0.64823 0.0
C564 C 0.10739 0.25219 0.66127 0.0
C565 C 0.10296 0.21272 0.72297 0.0
C566 C 0.12256 0.258 0.70433 0.0
C567 C 0.08777 0.20692 0.67971 0.0
C568 C 0.12081 0.23838 0.73586 0.0
C569 C 0.07529 0.22076 0.60048 0.0
O570 O 0.08511 0.28394 0.42399 0.0
O571 O 0.08314 0.24803 0.46078 0.0
C572 C 0.08773 0.26332 0.42213 0.0
O573 O 0.03824 0.23503 0.48136 0.0
O574 O 0.09421 0.33726 0.43723 0.0
O575 O 0.05624 0.32697 0.46437 0.0
O576 O 0.03347 0.27019 0.46829 0.0
C577 C 0.02715 0.24647 0.45768 0.0
O578 O 0.07475 0.28094 0.59852 0.0
O579 O 0.06457 0.30924 0.56245 0.0
O580 O 0.1094 0.31569 0.52544 0.0
O581 O 0.05546 0.22435 0.59912 0.0
O582 O 0.08954 0.22995 0.56078 0.0
O583 O 0.11316 0.28032 0.5201 0.0
C584 C 0.06499 0.33781 0.38111 0.0
C585 C 0.05844 0.31494 0.35617 0.0
C586 C 0.05027 0.35203 0.31043 0.0
C587 C 0.04836 0.31072 0.30869 0.0
C588 C 0.06075 0.35637 0.35839 0.0
C589 C 0.04399 0.32909 0.28521 0.0
C590 C 0.07428 0.34039 0.43204 0.0
C591 C 0.06975 0.29989 0.60204 0.0
H592 H 0.10959 0.26781 0.63766 0.0
H593 H 0.10109 0.19698 0.74572 0.0
H594 H 0.13562 0.27799 0.71301 0.0
H595 H 0.07465 0.18702 0.67047 0.0
H596 H 0.0609 0.30009 0.37363 0.0
H597 H 0.04695 0.36645 0.29328 0.0
H598 H 0.04437 0.29312 0.29021 0.0
H599 H 0.06522 0.37389 0.37776 0.0
Eu600 Eu 0.143 0.40256 0.85073 0.0
Eu601 Eu 0.0982 0.34916 0.90198 0.0
C602 C 0.15027 0.35455 0.87114 0.0
C603 C 0.18348 0.4298 0.73834 0.0
C604 C 0.17753 0.40445 0.7282 0.0
C605 C 0.20684 0.44289 0.65927 0.0
C606 C 0.18585 0.39831 0.68416 0.0
C607 C 0.19826 0.44897 0.70334 0.0
C608 C 0.20078 0.41739 0.64878 0.0
C609 C 0.17462 0.43578 0.78586 0.0
O610 O 0.12864 0.36896 0.96312 0.0
O611 O 0.15894 0.40804 0.92848 0.0
C612 C 0.15012 0.39162 0.9661 0.0
O613 O 0.12314 0.41717 0.90657 0.0
O614 O 0.08637 0.31508 0.94832 0.0
O615 O 0.0583 0.31837 0.90309 0.0
O616 O 0.09274 0.37861 0.94194 0.0
C617 C 0.10566 0.40385 0.94178 0.0
O618 O 0.1213 0.37123 0.7933 0.0
O619 O 0.08209 0.35195 0.82778 0.0
O620 O 0.12574 0.34104 0.86122 0.0
O621 O 0.15023 0.42911 0.78849 0.0
O622 O 0.18222 0.42951 0.82633 0.0
O623 O 0.16181 0.37959 0.86924 0.0
C624 C 0.04653 0.30335 0.98454 0.0
C625 C 0.03955 0.32191 0.99493 0.0
C626 C 0.03374 0.28632 0.06794 0.0
C627 C 0.03066 0.32326 1.04173 0.0
C628 C 0.0426 0.28486 1.0206 0.0
C629 C 0.0289 0.30639 0.07941 0.0
C630 C 0.06197 0.3065 0.9401 0.0
C631 C 0.09641 0.35714 0.7882 0.0
H632 H 0.16649 0.38925 0.75463 0.0
H633 H 0.21861 0.45836 0.63383 0.0
H634 H 0.18025 0.37842 0.67779 0.0
H635 H 0.20337 0.46871 0.71023 0.0
H636 H 0.04286 0.3367 0.96817 0.0
H637 H 0.03286 0.27316 0.09651 0.0
H638 H 0.02726 0.33886 1.04976 0.0
H639 H 0.04814 0.27055 1.01338 0.0
Eu640 Eu 0.58936 0.73317 0.85645 0.0
Eu641 Eu 0.63857 0.73191 0.91407 0.0
C642 C 0.64076 0.78452 0.89084 0.0
C643 C 0.56326 0.75093 0.74527 0.0
C644 C 0.58875 0.7679 0.73027 0.0
C645 C 0.54858 0.76318 0.67051 0.0
C646 C 0.59413 0.78228 0.68604 0.0
C647 C 0.54324 0.7487 0.71476 0.0
C648 C 0.57416 0.78037 0.65535 0.0
C649 C 0.55783 0.73673 0.79365 0.0
O650 O 0.61774 0.74152 0.97525 0.0
O651 O 0.58428 0.7433 0.93501 0.0
C652 C 0.59791 0.74568 0.97538 0.0
O653 O 0.5702 0.69907 0.9119 0.0
O654 O 0.67087 0.7479 0.96567 0.0
O655 O 0.66025 0.71226 0.92763 0.0
O656 O 0.60404 0.69235 0.91486 0.0
C657 C 0.58168 0.68743 0.93245 0.0
O658 O 0.61986 0.74022 0.79798 0.0
O659 O 0.64997 0.73238 0.83351 0.0
O660 O 0.65385 0.77244 0.88888 0.0
O661 O 0.56141 0.71692 0.79537 0.0
O662 O 0.56716 0.75115 0.83296 0.0
O663 O 0.61635 0.77342 0.87911 0.0
C664 C 0.67748 0.7176 1.00902 0.0
C665 C 0.66184 0.69148 1.02087 0.0
C666 C 0.69525 0.72532 0.09209 0.0
C667 C 0.66211 0.68252 0.06868 0.0
C668 C 0.69496 0.73419 1.04435 0.0
C669 C 0.67812 0.69958 0.10533 0.0
C670 C 0.67466 0.7284 0.96182 0.0
C671 C 0.64064 0.73819 0.79468 0.0
H672 H 0.60461 0.77028 0.75319 0.0
H673 H 0.53254 0.76126 0.64875 0.0
H674 H 0.61407 0.7948 0.67586 0.0
H675 H 0.52341 0.736 0.7255 0.0
H676 H 0.64853 0.67824 0.994 0.0
H677 H 0.70767 0.73915 0.11944 0.0
H678 H 0.64899 0.66256 0.07765 0.0
H679 H 0.70744 0.75437 1.03584 0.0
Eu680 Eu 0.25786 0.84725 0.8552 0.0
Eu681 Eu 0.25734 0.89633 0.91225 0.0
C682 C 0.20562 0.84841 0.8807 0.0
C683 C 0.23992 0.80303 0.74483 0.0
C684 C 0.2269 0.81503 0.72478 0.0
C685 C 0.22457 0.77326 0.67464 0.0
C686 C 0.21261 0.80607 0.6806 0.0
C687 C 0.23874 0.78216 0.71906 0.0
C688 C 0.21094 0.78482 0.65499 0.0
C689 C 0.25232 0.81061 0.79475 0.0
O690 O 0.24372 0.8652 0.9723 0.0
O691 O 0.24911 0.83324 0.93526 0.0
C692 C 0.24277 0.84266 0.97381 0.0
O693 O 0.29026 0.86037 0.91344 0.0
O694 O 0.24413 0.91413 0.96637 0.0
O695 O 0.27456 0.93781 0.91383 0.0
O696 O 0.29699 0.90101 0.91718 0.0
C697 C 0.30146 0.8832 0.93495 0.0
O698 O 0.26559 0.87798 0.79593 0.0
O699 O 0.25003 0.90165 0.83243 0.0
O700 O 0.21861 0.8734 0.8787 0.0
O701 O 0.27375 0.83264 0.79843 0.0
O702 O 0.2366 0.80734 0.83106 0.0
O703 O 0.21667 0.83472 0.87259 0.0
C704 C 0.27586 0.95486 0.99309 0.0
C705 C 0.30159 0.96186 1.00124 0.0
C706 C 0.27516 0.97416 0.07132 0.0
C707 C 0.31377 0.97417 1.04505 0.0
C708 C 0.26314 0.96226 1.02704 0.0
C709 C 0.30017 0.9789 0.08199 0.0
C710 C 0.26127 0.93743 0.95272 0.0
C711 C 0.25681 0.89412 0.79257 0.0
H712 H 0.2273 0.83106 0.74397 0.0
H713 H 0.22365 0.75675 0.6565 0.0
H714 H 0.20282 0.81581 0.66655 0.0
H715 H 0.24829 0.77233 0.7339 0.0
H716 H 0.31161 0.9562 0.97538 0.0
H717 H 0.26385 0.97728 0.09887 0.0
H718 H 0.33305 0.97798 1.05194 0.0
H719 H 0.24327 0.9571 1.02104 0.0
Eu720 Eu 0.63496 0.89631 0.40951 0.0
Eu721 Eu 0.58532 0.84621 0.35375 0.0
C722 C 0.57759 0.88242 0.43419 0.0
C723 C 0.67468 0.95383 0.49277 0.0
C724 C 0.65617 0.96121 0.50045 0.0
C725 C 0.69491 0.97377 0.57061 0.0
C726 C 0.65638 0.97378 0.54386 0.0
C727 C 0.69464 0.96105 0.5271 0.0
C728 C 0.6751 0.97927 0.58025 0.0
C729 C 0.67213 0.93692 0.45145 0.0
O730 O 0.60866 0.87549 0.29212 0.0
O731 O 0.64647 0.90463 0.32898 0.0
C732 C 0.63261 0.89464 0.289 0.0
O733 O 0.65002 0.87423 0.36948 0.0
O734 O 0.55502 0.83099 0.29658 0.0
O735 O 0.56652 0.80597 0.33168 0.0
O736 O 0.61473 0.83472 0.37037 0.0
C737 C 0.63951 0.84953 0.37563 0.0
O738 O 0.61849 0.86482 0.46939 0.0
O739 O 0.58111 0.83223 0.43373 0.0
O740 O 0.56615 0.85955 0.41259 0.0
O741 O 0.66622 0.91348 0.46351 0.0
O742 O 0.65923 0.9377 0.41301 0.0
O743 O 0.59975 0.90041 0.41638 0.0
C744 C 0.56005 0.80113 0.24507 0.0
C745 C 0.58543 0.81279 0.22675 0.0
C746 C 0.54652 0.77161 0.17448 0.0
C747 C 0.59133 0.80381 0.18323 0.0
C748 C 0.54065 0.78053 0.21826 0.0
C749 C 0.57203 0.78289 0.15649 0.0
C750 C 0.55451 0.80896 0.2942 0.0
C751 C 0.5972 0.84202 0.47172 0.0
H752 H 0.64068 0.95599 0.47433 0.0
H753 H 0.70946 0.97742 0.59826 0.0
H754 H 0.64095 0.97768 0.55055 0.0
H755 H 0.7092 0.95563 0.52154 0.0
H756 H 0.60086 0.82861 0.24675 0.0
H757 H 0.5311 0.75535 0.15548 0.0
H758 H 0.61111 0.81335 0.1705 0.0
H759 H 0.521 0.77095 0.23173 0.0
Eu760 Eu 0.09285 0.72907 0.4143 0.0
Eu761 Eu 0.14363 0.73236 0.35595 0.0
C762 C 0.10694 0.68545 0.4328 0.0
C763 C 0.04162 0.7082 0.51082 0.0
C764 C 0.04687 0.68862 0.52338 0.0
C765 C 0.01822 0.70078 0.5882 0.0
C766 C 0.03827 0.67549 0.56834 0.0
C767 C 0.0265 0.71364 0.54261 0.0
C768 C 0.02496 0.68228 0.60236 0.0
C769 C 0.05425 0.72444 0.46732 0.0
O770 O 0.11852 0.73683 0.29708 0.0
O771 O 0.08049 0.72794 0.33398 0.0
C772 C 0.09519 0.73367 0.29434 0.0
O773 O 0.11554 0.76884 0.38348 0.0
O774 O 0.1559 0.71633 0.29546 0.0
O775 O 0.18378 0.75117 0.33234 0.0
O776 O 0.15527 0.77257 0.37637 0.0
C777 C 0.14066 0.78253 0.38566 0.0
O778 O 0.12464 0.74161 0.4734 0.0
O779 O 0.15969 0.74307 0.43361 0.0
O780 O 0.12996 0.69875 0.41211 0.0
O781 O 0.07799 0.74252 0.47434 0.0
O782 O 0.05161 0.7122 0.42593 0.0
O783 O 0.08847 0.68971 0.41892 0.0
C784 C 0.18741 0.75049 0.24508 0.0
C785 C 0.17771 0.76637 0.22945 0.0
C786 C 0.2151 0.76402 0.17145 0.0
C787 C 0.18656 0.7809 0.18549 0.0
C788 C 0.20613 0.74939 0.2155 0.0
C789 C 0.20559 0.7802 0.15583 0.0
C790 C 0.17904 0.73652 0.29352 0.0
C791 C 0.14864 0.746 0.47362 0.0
H792 H 0.05876 0.68442 0.4995 0.0
H793 H 0.00819 0.70669 0.61369 0.0
H794 H 0.0433 0.66105 0.5778 0.0
H795 H 0.02234 0.72876 0.53349 0.0
H796 H 0.16349 0.76784 0.25176 0.0
H797 H 0.22995 0.76307 0.15028 0.0
H798 H 0.17833 0.79266 0.17474 0.0
H799 H 0.21416 0.73754 0.22687 0.0
Eu800 Eu 0.25026 0.35259 0.40037 0.0
Eu801 Eu 0.25484 0.40485 0.34906 0.0
C802 C 0.29434 0.40951 0.43964 0.0
C803 C 0.25735 0.31102 0.49197 0.0
C804 C 0.27411 0.30125 0.49843 0.0
C805 C 0.2655 0.32661 0.5766 0.0
C806 C 0.28682 0.30449 0.54373 0.0
C807 C 0.25293 0.32343 0.53163 0.0
C808 C 0.28303 0.31776 0.58279 0.0
C809 C 0.24865 0.31286 0.44203 0.0
O810 O 0.25082 0.3766 0.28803 0.0
O811 O 0.26684 0.35352 0.32447 0.0
C812 C 0.2594 0.3604 0.28448 0.0
O813 O 0.21494 0.34207 0.35607 0.0
O814 O 0.27305 0.43366 0.28984 0.0
O815 O 0.23921 0.42936 0.32721 0.0
O816 O 0.21308 0.37833 0.365 0.0
C817 C 0.20162 0.35327 0.36611 0.0
O818 O 0.23581 0.36949 0.46086 0.0
O819 O 0.24319 0.40832 0.42737 0.0
O820 O 0.28937 0.42198 0.40417 0.0
O821 O 0.22855 0.31595 0.43933 0.0
O822 O 0.26729 0.32852 0.41271 0.0
O823 O 0.28318 0.38439 0.44043 0.0
C824 C 0.23958 0.43215 0.2398 0.0
C825 C 0.22257 0.40643 0.22693 0.0
C826 C 0.22757 0.44538 0.16313 0.0
C827 C 0.20832 0.4002 0.18278 0.0
C828 C 0.24199 0.45159 0.20741 0.0
C829 C 0.21039 0.41954 0.15016 0.0
C830 C 0.25378 0.43808 0.28778 0.0
C831 C 0.23566 0.39151 0.46432 0.0
H832 H 0.27826 0.29222 0.46776 0.0
H833 H 0.26169 0.33634 0.60643 0.0
H834 H 0.30027 0.29753 0.54756 0.0
H835 H 0.24054 0.33164 0.5274 0.0
H836 H 0.22005 0.39101 0.2514 0.0
H837 H 0.22957 0.46091 0.13954 0.0
H838 H 0.19579 0.38011 0.17415 0.0
H839 H 0.2548 0.47157 0.21657 0.0
Eu840 Eu 0.23975 0.3025 0.97522 0.0
Eu841 Eu 0.18876 0.25699 1.036 0.0
C842 C 0.22405 0.24474 0.96479 0.0
C843 C 0.29345 0.33028 0.88268 0.0
C844 C 0.27977 0.30741 0.85605 0.0
C845 C 0.32355 0.34883 0.81432 0.0
C846 C 0.28738 0.30544 0.80829 0.0
C847 C 0.31595 0.35068 0.86259 0.0
C848 C 0.30859 0.32658 0.78592 0.0
C849 C 0.28201 0.3336 0.92789 0.0
O850 O 0.21988 0.28071 0.09389 0.0
O851 O 0.24508 0.31852 1.05284 0.0
C852 C 0.2366 0.30556 0.09446 0.0
O853 O 0.21863 0.32257 0.99597 0.0
O854 O 0.17323 0.22739 0.09468 0.0
O855 O 0.14867 0.23948 0.05923 0.0
O856 O 0.17952 0.28806 1.01838 0.0
C857 C 0.1938 0.3118 1.00265 0.0
O858 O 0.20909 0.28352 0.91452 0.0
O859 O 0.17389 0.25139 0.95688 0.0
O860 O 0.20027 0.23532 0.98072 0.0
O861 O 0.2601 0.33281 0.92074 0.0
O862 O 0.28125 0.31974 0.96603 0.0
O863 O 0.24164 0.26628 0.98456 0.0
C864 C 0.14189 0.23102 0.14572 0.0
C865 C 0.11913 0.23235 0.14775 0.0
C866 C 0.14677 0.23918 0.23536 0.0
C867 C 0.11054 0.23744 0.19255 0.0
C868 C 0.15554 0.23433 0.19029 0.0
C869 C 0.12427 0.24108 0.23705 0.0
C870 C 0.15128 0.22714 0.09662 0.0
C871 C 0.18487 0.26442 0.91573 0.0
H872 H 0.26197 0.29184 0.87073 0.0
H873 H 0.3401 0.36533 0.79808 0.0
H874 H 0.27506 0.28823 0.78733 0.0
H875 H 0.32673 0.36847 0.88296 0.0
H876 H 0.10801 0.22973 0.11433 0.0
H877 H 0.15796 0.24201 0.26875 0.0
H878 H 0.09295 0.23833 0.19235 0.0
H879 H 0.17317 0.23351 0.19034 0.0
Eu880 Eu 0.68711 0.93287 0.97571 0.0
Eu881 Eu 0.73215 0.92734 1.03526 0.0
C882 C 0.74495 0.97464 0.96079 0.0
C883 C 0.65831 0.95632 0.88288 0.0
C884 C 0.68056 0.96321 0.85498 0.0
C885 C 0.64208 0.97162 0.81666 0.0
C886 C 0.68343 0.97385 0.80793 0.0
C887 C 0.63921 0.96088 0.86406 0.0
C888 C 0.66407 0.97786 0.78784 0.0
C889 C 0.65502 0.94319 0.93019 0.0
O890 O 0.70969 0.93738 0.09117 0.0
O891 O 0.67091 0.91915 1.05302 0.0
C892 C 0.68443 0.92597 0.09403 0.0
O893 O 0.67349 0.89153 0.97134 0.0
O894 O 0.76163 0.94221 0.09377 0.0
O895 O 0.75027 0.9055 0.05992 0.0
O896 O 0.69839 0.88698 1.03147 0.0
C897 C 0.67972 0.87747 0.99857 0.0
O898 O 0.70855 0.92566 0.91286 0.0
O899 O 0.73515 0.91498 0.95709 0.0
O900 O 0.75382 0.95983 0.9773 0.0
O901 O 0.65447 0.92132 0.92642 0.0
O902 O 0.67013 0.95736 0.96588 0.0
O903 O 0.72344 0.97125 0.98024 0.0
C904 C 0.75775 0.90819 0.14648 0.0
C905 C 0.73319 0.89655 0.16861 0.0
C906 C 0.77245 0.89232 0.21561 0.0
C907 C 0.72827 0.8828 0.21358 0.0
C908 C 0.77731 0.90599 0.17058 0.0
C909 C 0.7478 0.88031 0.23779 0.0
C910 C 0.76242 0.92085 0.09677 0.0
C911 C 0.725 0.91696 0.91478 0.0
H912 H 0.69543 0.95968 0.86913 0.0
H913 H 0.62682 0.97434 0.80202 0.0
H914 H 0.70032 0.9778 0.78651 0.0
H915 H 0.62194 0.95562 0.88538 0.0
H916 H 0.71767 0.89781 0.15071 0.0
H917 H 0.78796 0.89066 0.23243 0.0
H918 H 0.70915 0.87423 0.22951 0.0
H919 H 0.79632 0.91449 0.15412 0.0
Eu920 Eu 0.06382 0.75767 0.98962 0.0
Eu921 Eu 0.06788 0.80914 1.03891 0.0
C922 C 0.02446 0.77645 0.95106 0.0
C923 C 0.04686 0.70148 0.90597 0.0
C924 C 0.03357 0.70987 0.87546 0.0
C925 C 0.04124 0.66988 0.84383 0.0
C926 C 0.02464 0.69877 0.8291 0.0
C927 C 0.05015 0.68103 0.89056 0.0
C928 C 0.02887 0.67905 0.81225 0.0
C929 C 0.05802 0.71493 0.9527 0.0
O930 O 0.07855 0.78789 0.09598 0.0
O931 O 0.05242 0.7474 0.07115 0.0
C932 C 0.06646 0.76334 0.10613 0.0
O933 O 0.10469 0.78124 1.01522 0.0
O934 O 0.05208 0.82031 0.10144 0.0
O935 O 0.08483 0.8494 0.0604 0.0
O936 O 0.10824 0.821 1.01839 0.0
C937 C 0.1183 0.80632 1.01065 0.0
O938 O 0.07857 0.78774 0.92572 0.0
O939 O 0.0808 0.82406 0.96117 0.0
O940 O 0.03315 0.79529 0.98447 0.0
O941 O 0.07923 0.73701 0.94843 0.0
O942 O 0.04172 0.71605 0.98327 0.0
O943 O 0.03132 0.75891 0.95216 0.0
C944 C 0.08624 0.85362 0.14811 0.0
C945 C 0.10428 0.84619 0.1613 0.0
C946 C 0.09794 0.8798 0.22341 0.0
C947 C 0.11892 0.85537 0.20494 0.0
C948 C 0.08319 0.8705 0.1797 0.0
C949 C 0.11616 0.87247 0.23676 0.0
C950 C 0.07119 0.84409 0.10111 0.0
C951 C 0.08381 0.81205 0.92287 0.0
H952 H 0.03081 0.72559 0.88681 0.0
H953 H 0.04476 0.65472 0.83168 0.0
H954 H 0.01568 0.70665 0.80536 0.0
H955 H 0.06025 0.67425 0.91394 0.0
H956 H 0.10719 0.83331 0.13765 0.0
H957 H 0.09533 0.89313 0.24628 0.0
H958 H 0.13228 0.84878 0.21388 0.0
H959 H 0.06955 0.87667 0.17038 0.0
Eu960 Eu 0.40302 0.14661 0.87191 0.0
Eu961 Eu 0.35456 0.09385 0.81842 0.0
C962 C 0.3468 0.13998 0.84861 0.0
C963 C 0.42556 0.19435 0.97664 0.0
C964 C 0.39994 0.18782 0.98682 0.0
C965 C 0.43846 0.21974 1.05311 0.0
C966 C 0.39371 0.19738 1.02913 0.0
C967 C 0.44472 0.21037 1.01043 0.0
C968 C 0.41285 0.21356 0.06304 0.0
C969 C 0.43219 0.18552 0.92971 0.0
O970 O 0.36994 0.12384 0.75613 0.0
O971 O 0.40495 0.15939 0.79155 0.0
C972 C 0.38945 0.14774 0.75349 0.0
O973 O 0.42356 0.13468 0.81376 0.0
O974 O 0.3208 0.07291 0.77189 0.0
O975 O 0.33794 0.05255 0.80729 0.0
O976 O 0.39195 0.09349 0.81899 0.0
C977 C 0.41271 0.11105 0.79622 0.0
O978 O 0.38125 0.11693 0.93363 0.0
O979 O 0.34291 0.08718 0.89902 0.0
O980 O 0.33595 0.11495 0.84884 0.0
O981 O 0.43231 0.16378 0.93093 0.0
O982 O 0.42087 0.18732 0.88984 0.0
O983 O 0.37121 0.15485 0.85851 0.0
C984 C 0.32209 0.04048 0.7265 0.0
C985 C 0.33729 0.05696 0.68831 0.0
C986 C 0.31043 0.00374 0.67303 0.0
C987 C 0.33923 0.04703 0.64319 0.0
C988 C 0.30858 0.01379 0.71883 0.0
C989 C 0.32609 0.02042 0.63533 0.0
C990 C 0.32141 0.0515 0.77446 0.0
C991 C 0.35725 0.098 0.93817 0.0
H992 H 0.38466 0.17544 0.96165 0.0
H993 H 0.45383 0.23225 0.07794 0.0
H994 H 0.37376 0.1918 1.0356 0.0
H995 H 0.46462 0.21588 1.00356 0.0
H996 H 0.34797 0.07759 0.69353 0.0
H997 H 0.30001 0.98315 0.66727 0.0
H998 H 0.35106 0.06024 0.61419 0.0
H999 H 0.29681 0.00085 0.74817 0.0
Eu1000 Eu 0.85199 0.25896 0.86752 0.0
Eu1001 Eu 0.9049 0.2662 0.81157 0.0
C1002 C 0.85969 0.21042 0.83917 0.0
C1003 C 0.80377 0.23454 0.97324 0.0
C1004 C 0.81077 0.21611 0.98619 0.0
C1005 C 0.77649 0.22203 1.04744 0.0
C1006 C 0.80051 0.20062 1.02882 0.0
C1007 C 0.78659 0.23737 1.0045 0.0
C1008 C 0.78311 0.20323 0.06013 0.0
C1009 C 0.81304 0.24941 0.92575 0.0
O1010 O 0.87492 0.25272 0.74916 0.0
O1011 O 0.83815 0.24779 0.78806 0.0
C1012 C 0.85028 0.24621 0.74829 0.0
O1013 O 0.86303 0.29153 0.80996 0.0
O1014 O 0.92615 0.25664 0.75866 0.0
O1015 O 0.94634 0.2914 0.80245 0.0
O1016 O 0.90492 0.30359 0.81563 0.0
C1017 C 0.88684 0.30639 0.79433 0.0
O1018 O 0.88195 0.26657 0.92847 0.0
O1019 O 0.91094 0.25778 0.89105 0.0
O1020 O 0.88447 0.22499 0.8324 0.0
O1021 O 0.83487 0.27118 0.92648 0.0
O1022 O 0.81138 0.23584 0.88681 0.0
O1023 O 0.84493 0.21926 0.85495 0.0
C1024 C 0.95961 0.29248 0.7199 0.0
C1025 C 0.94556 0.29945 0.68814 0.0
C1026 C 0.99451 0.30903 0.66013 0.0
C1027 C 0.95575 0.31077 0.64221 0.0
C1028 C 0.98433 0.29783 0.70631 0.0
C1029 C 0.98009 0.31513 0.62728 0.0
C1030 C 0.94767 0.2781 0.76542 0.0
C1031 C 0.90041 0.2607 0.93149 0.0
H1032 H 0.824 0.21346 0.96288 0.0
H1033 H 0.76304 0.22457 0.0702 0.0
H1034 H 0.80645 0.18674 1.03751 0.0
H1035 H 0.78068 0.25123 0.99535 0.0
H1036 H 0.92641 0.29545 0.69829 0.0
H1037 H 0.01325 0.31216 0.64938 0.0
H1038 H 0.94404 0.31493 0.61745 0.0
H1039 H 0.99538 0.29257 0.73061 0.0
Eu1040 Eu 0.73462 0.58748 0.8741 0.0
Eu1041 Eu 0.73798 0.6392 0.8232 0.0
C1042 C 0.78758 0.63931 0.85491 0.0
C1043 C 0.75088 0.55884 0.98346 0.0
C1044 C 0.77499 0.56008 0.98399 0.0
C1045 C 0.75619 0.5686 0.07264 0.0
C1046 C 0.7896 0.56585 1.02785 0.0
C1047 C 0.74164 0.56301 1.02866 0.0
C1048 C 0.78054 0.57034 0.07293 0.0
C1049 C 0.73642 0.55463 0.93547 0.0
O1050 O 0.75359 0.62295 0.76364 0.0
O1051 O 0.74478 0.58332 0.79517 0.0
C1052 C 0.75298 0.60062 0.75907 0.0
O1053 O 0.69922 0.56993 0.8207 0.0
O1054 O 0.75983 0.6762 0.78539 0.0
O1055 O 0.72011 0.66221 0.80656 0.0
O1056 O 0.70574 0.60709 0.78208 0.0
C1057 C 0.69431 0.58198 0.7842 0.0
O1058 O 0.74169 0.6173 0.93361 0.0
O1059 O 0.72249 0.63817 0.90091 0.0
O1060 O 0.77444 0.65081 0.86441 0.0
O1061 O 0.71728 0.55932 0.9347 0.0
O1062 O 0.7504 0.56295 0.89516 0.0
O1063 O 0.77607 0.61422 0.85582 0.0
C1064 C 0.73211 0.67922 0.72676 0.0
C1065 C 0.71498 0.68803 0.71538 0.0
C1066 C 0.72735 0.66262 0.64305 0.0
C1067 C 0.70357 0.68355 0.66826 0.0
C1068 C 0.73855 0.66695 0.68982 0.0
C1069 C 0.70909 0.67009 0.63215 0.0
C1070 C 0.73929 0.6782 0.77864 0.0
C1071 C 0.73226 0.6327 0.93944 0.0
H1072 H 0.78279 0.5569 0.95017 0.0
H1073 H 0.74856 0.57214 0.1063 0.0
H1074 H 0.808 0.56659 1.02643 0.0
H1075 H 0.72326 0.56233 1.03002 0.0
H1076 H 0.7093 0.69703 0.74371 0.0
H1077 H 0.7327 0.65294 0.61565 0.0
H1078 H 0.68948 0.68939 0.66103 0.0
H1079 H 0.75145 0.65964 0.69759 0.0
Eu1080 Eu 0.80748 0.7387 0.18752 0.0
Eu1081 Eu 0.75637 0.69091 0.24013 0.0
C1082 C 0.80515 0.68585 0.21664 0.0
C1083 C 0.85241 0.76393 0.07804 0.0
C1084 C 0.84427 0.7384 0.06437 0.0
C1085 C 0.8798 0.77833 1.00413 0.0
C1086 C 0.85365 0.73287 1.02097 0.0
C1087 C 0.87032 0.78382 1.04751 0.0
C1088 C 0.87158 0.75274 0.98995 0.0
C1089 C 0.84275 0.76966 0.12465 0.0
O1090 O 0.78698 0.70761 0.30229 0.0
O1091 O 0.82221 0.74262 0.26571 0.0
C1092 C 0.81076 0.72767 0.3045 0.0
O1093 O 0.79307 0.75973 0.23995 0.0
O1094 O 0.73737 0.65629 0.2863 0.0
O1095 O 0.71467 0.6696 0.24753 0.0
O1096 O 0.75731 0.72514 0.27444 0.0
C1097 C 0.7744 0.74965 0.27394 0.0
O1098 O 0.78541 0.7066 0.13184 0.0
O1099 O 0.7449 0.69101 0.15936 0.0
O1100 O 0.78005 0.67423 0.21203 0.0
O1101 O 0.81902 0.76525 0.12408 0.0
O1102 O 0.84785 0.76139 0.16565 0.0
O1103 O 0.81963 0.71066 0.20992 0.0
C1104 C 0.7024 0.65456 0.32876 0.0
C1105 C 0.71109 0.67791 0.35351 0.0
C1106 C 0.67516 0.63218 0.39946 0.0
C1107 C 0.70293 0.6784 0.40162 0.0
C1108 C 0.68363 0.63175 0.35108 0.0
C1109 C 0.68577 0.65542 0.42625 0.0
C1110 C 0.71478 0.65433 0.28186 0.0
C1111 C 0.76067 0.69346 0.12343 0.0
H1112 H 0.83063 0.72265 0.08739 0.0
H1113 H 0.89387 0.79426 0.98202 0.0
H1114 H 0.8465 0.71295 1.01141 0.0
H1115 H 0.87714 0.80366 1.05734 0.0
H1116 H 0.72537 0.69574 0.3368 0.0
H1117 H 0.66141 0.61418 0.41676 0.0
H1118 H 0.71186 0.69671 0.42055 0.0
H1119 H 0.67641 0.61355 0.3321 0.0
Eu1120 Eu 0.26228 0.07028 0.19421 0.0
Eu1121 Eu 0.30854 0.06669 0.25449 0.0
C1122 C 0.31394 0.12087 0.23109 0.0
C1123 C 0.23732 0.08902 0.08066 0.0
C1124 C 0.26159 0.09947 1.05766 0.0
C1125 C 0.22328 0.10562 1.01137 0.0
C1126 C 0.26672 0.11299 1.0123 0.0
C1127 C 0.21821 0.09214 1.05679 0.0
C1128 C 0.24772 0.11655 0.98845 0.0
C1129 C 0.23249 0.07666 0.13092 0.0
O1130 O 0.28695 0.07392 0.31723 0.0
O1131 O 0.25893 0.0826 0.27247 0.0
C1132 C 0.26977 0.08175 0.31486 0.0
O1133 O 0.24089 0.03795 0.25253 0.0
O1134 O 0.34037 0.07857 0.30609 0.0
O1135 O 0.32986 0.04602 0.25799 0.0
O1136 O 0.27248 0.02799 0.25219 0.0
C1137 C 0.25063 0.02417 0.27082 0.0
O1138 O 0.28387 0.05805 0.14105 0.0
O1139 O 0.3231 0.08041 0.1762 0.0
O1140 O 0.32047 0.10747 0.25947 0.0
O1141 O 0.23317 0.05528 0.13492 0.0
O1142 O 0.24449 0.09218 0.16766 0.0
O1143 O 0.29654 0.11054 0.19581 0.0
C1144 C 0.34579 0.0455 0.33861 0.0
C1145 C 0.32756 0.01964 0.34697 0.0
C1146 C 0.36235 0.048 0.42162 0.0
C1147 C 0.32577 0.00838 0.39326 0.0
C1148 C 0.36397 0.05924 0.37542 0.0
C1149 C 0.34251 0.02275 0.43169 0.0
C1150 C 0.344 0.05949 0.29536 0.0
C1151 C 0.30904 0.07089 0.1363 0.0
H1152 H 0.27678 0.0975 0.07522 0.0
H1153 H 0.20817 0.10807 0.99496 0.0
H1154 H 0.28565 0.12065 0.99591 0.0
H1155 H 0.19942 0.08457 0.0738 0.0
H1156 H 0.31376 0.00863 0.31882 0.0
H1157 H 0.37546 0.05989 0.45045 0.0
H1158 H 0.31044 0.98895 0.39986 0.0
H1159 H 0.37833 0.07923 0.36964 0.0
Eu1160 Eu 0.92456 0.18922 0.18916 0.0
Eu1161 Eu 0.93326 0.24105 0.24712 0.0
C1162 C 0.87683 0.19588 0.2255 0.0
C1163 C 0.90331 0.14406 0.07826 0.0
C1164 C 0.89513 0.15933 1.05332 0.0
C1165 C 0.88505 0.11283 1.01073 0.0
C1166 C 0.88187 0.15135 1.00781 0.0
C1167 C 0.89826 0.12082 1.05629 0.0
C1168 C 0.87635 0.12781 0.98587 0.0
C1169 C 0.91523 0.15128 0.12864 0.0
O1170 O 0.92298 0.21202 0.3113 0.0
O1171 O 0.90975 0.17427 0.26708 0.0
C1172 C 0.91222 0.18656 0.30937 0.0
O1173 O 0.95574 0.19704 0.24838 0.0
O1174 O 0.92559 0.26462 0.2977 0.0
O1175 O 0.95772 0.28279 0.24637 0.0
O1176 O 0.96999 0.23953 0.24848 0.0
C1177 C 0.97123 0.22 0.26714 0.0
O1178 O 0.93807 0.22207 0.13252 0.0
O1179 O 0.91974 0.24278 0.16884 0.0
O1180 O 0.89155 0.21555 0.2533 0.0
O1181 O 0.93773 0.17216 0.13225 0.0
O1182 O 0.8998 0.14975 0.16431 0.0
O1183 O 0.88596 0.18736 0.19039 0.0
C1184 C 0.96158 0.30225 0.32464 0.0
C1185 C 0.98384 0.30206 0.33945 0.0
C1186 C 0.96326 0.32515 0.39962 0.0
C1187 C 0.99515 0.31239 0.38515 0.0
C1188 C 0.95211 0.31496 0.35373 0.0
C1189 C 0.98417 0.3228 0.41709 0.0
C1190 C 0.94576 0.286 0.28383 0.0
C1191 C 0.92735 0.23647 0.12829 0.0
H1192 H 0.89863 0.1773 0.06947 0.0
H1193 H 0.881 0.09448 0.99574 0.0
H1194 H 0.87595 0.16371 0.98984 0.0
H1195 H 0.90407 0.10852 0.0749 0.0
H1196 H 0.99149 0.29242 0.31738 0.0
H1197 H 0.95389 0.33272 0.42288 0.0
H1198 H 0.01137 0.31054 0.39679 0.0
H1199 H 0.93489 0.31528 0.34273 0.0
Eu1200 Eu 0.30953 0.23229 0.74435 0.0
Eu1201 Eu 0.25735 0.18397 0.68754 0.0
C1202 C 0.25287 0.22077 0.77101 0.0
C1203 C 0.35299 0.28474 0.83695 0.0
C1204 C 0.35455 0.30891 0.83707 0.0
C1205 C 0.36005 0.28809 0.92605 0.0
C1206 C 0.3582 0.32226 0.88161 0.0
C1207 C 0.3563 0.27473 0.88178 0.0
C1208 C 0.36068 0.31179 0.92653 0.0
C1209 C 0.34812 0.27019 0.79021 0.0
O1210 O 0.28107 0.21377 0.62731 0.0
O1211 O 0.31926 0.24302 0.66357 0.0
C1212 C 0.30479 0.23335 0.62402 0.0
O1213 O 0.32201 0.20901 0.70055 0.0
O1214 O 0.22782 0.17112 0.62904 0.0
O1215 O 0.23515 0.14361 0.66638 0.0
O1216 O 0.28547 0.17046 0.69763 0.0
C1217 C 0.31019 0.18406 0.70487 0.0
O1218 O 0.29193 0.20014 0.8023 0.0
O1219 O 0.25357 0.16899 0.76704 0.0
O1220 O 0.24019 0.19849 0.74756 0.0
O1221 O 0.34261 0.24626 0.79363 0.0
O1222 O 0.33398 0.27333 0.75716 0.0
O1223 O 0.27568 0.23829 0.75494 0.0
C1224 C 0.23076 0.13953 0.57941 0.0
C1225 C 0.25644 0.14914 0.56425 0.0
C1226 C 0.21705 0.11083 0.50755 0.0
C1227 C 0.26239 0.13949 0.52177 0.0
C1228 C 0.21112 0.12036 0.55041 0.0
C1229 C 0.24282 0.12001 0.49283 0.0
C1230 C 0.22503 0.14807 0.6275 0.0
C1231 C 0.27015 0.17784 0.80447 0.0
H1232 H 0.35264 0.31734 0.80283 0.0
H1233 H 0.36154 0.27937 0.96028 0.0
H1234 H 0.35891 0.34063 0.8811 0.0
H1235 H 0.35553 0.25633 0.88296 0.0
H1236 H 0.27204 0.16385 0.58594 0.0
H1237 H 0.2014 0.09574 0.48665 0.0
H1238 H 0.2824 0.14742 0.5115 0.0
H1239 H 0.19119 0.11239 0.56141 0.0
Eu1240 Eu 0.76253 0.07835 0.74071 0.0
Eu1241 Eu 0.80974 0.07269 0.68524 0.0
C1242 C 0.77182 0.03139 0.76924 0.0
C1243 C 0.7079 0.06635 0.82619 0.0
C1244 C 0.70101 0.04072 0.83473 0.0
C1245 C 0.68776 0.06662 0.90404 0.0
C1246 C 0.68835 0.02839 0.8781 0.0
C1247 C 0.70057 0.07908 0.86031 0.0
C1248 C 0.68229 0.04134 0.91396 0.0
C1249 C 0.72473 0.08026 0.78433 0.0
O1250 O 0.78096 0.0681 0.62396 0.0
O1251 O 0.75314 0.07899 0.66008 0.0
C1252 C 0.7624 0.07376 0.62058 0.0
O1253 O 0.7872 0.11475 0.6998 0.0
O1254 O 0.82317 0.0562 0.6274 0.0
O1255 O 0.85037 0.09116 0.66452 0.0
O1256 O 0.82468 0.11434 0.69826 0.0
C1257 C 0.81214 0.12666 0.70416 0.0
O1258 O 0.79461 0.0927 0.79838 0.0
O1259 O 0.82376 0.08191 0.7654 0.0
O1260 O 0.79387 0.04026 0.74459 0.0
O1261 O 0.74888 0.09564 0.79544 0.0
O1262 O 0.72196 0.06641 0.74503 0.0
O1263 O 0.75494 0.03809 0.75526 0.0
C1264 C 0.8559 0.09084 0.57738 0.0
C1265 C 0.8817 0.11066 0.57316 0.0
C1266 C 0.84845 0.10225 0.49375 0.0
C1267 C 0.89069 0.12621 0.53025 0.0
C1268 C 0.83941 0.08682 0.53689 0.0
C1269 C 0.87422 0.1224 0.4898 0.0
C1270 C 0.84618 0.07663 0.62583 0.0
C1271 C 0.81579 0.0911 0.80183 0.0
H1272 H 0.70664 0.03063 0.80915 0.0
H1273 H 0.68374 0.07737 0.93135 0.0
H1274 H 0.68466 0.00918 0.88494 0.0
H1275 H 0.70584 0.09895 0.8543 0.0
H1276 H 0.89491 0.11449 0.60368 0.0
H1277 H 0.83498 0.09875 0.46392 0.0
H1278 H 0.91069 0.14119 0.52874 0.0
H1279 H 0.81933 0.07208 0.53885 0.0
Eu1280 Eu 0.92486 0.695 0.73369 0.0
Eu1281 Eu 0.92051 0.74241 0.68645 0.0
C1282 C 0.96621 0.75269 0.769 0.0
C1283 C 0.94111 0.65303 0.81095 0.0
C1284 C 0.95771 0.67438 0.83965 0.0
C1285 C 0.9415 0.62477 0.8748 0.0
C1286 C 0.96536 0.67095 0.88644 0.0
C1287 C 0.93392 0.62825 0.82765 0.0
C1288 C 0.95624 0.6461 0.90545 0.0
C1289 C 0.92982 0.65674 0.76581 0.0
O1290 O 0.90985 0.71076 0.62949 0.0
O1291 O 0.93805 0.69888 0.65309 0.0
C1292 C 0.92326 0.69978 0.61851 0.0
O1293 O 0.88437 0.67865 0.70651 0.0
O1294 O 0.93528 0.76947 0.62383 0.0
O1295 O 0.9027 0.76524 0.66647 0.0
O1296 O 0.88064 0.71451 0.71136 0.0
C1297 C 0.87067 0.68964 0.71597 0.0
O1298 O 0.91134 0.7103 0.79936 0.0
O1299 O 0.91142 0.74609 0.76602 0.0
O1300 O 0.95747 0.76277 0.73523 0.0
O1301 O 0.90902 0.6582 0.77244 0.0
O1302 O 0.94611 0.67449 0.73572 0.0
O1303 O 0.9574 0.72796 0.77225 0.0
C1304 C 0.89997 0.76706 0.57883 0.0
C1305 C 0.88124 0.74145 0.56867 0.0
C1306 C 0.88867 0.77978 0.50074 0.0
C1307 C 0.86649 0.73504 0.52501 0.0
C1308 C 0.9035 0.78616 0.54444 0.0
C1309 C 0.86994 0.75407 0.49014 0.0
C1310 C 0.91571 0.77348 0.62501 0.0
C1311 C 0.90794 0.73052 0.80373 0.0
H1312 H 0.96362 0.69369 0.82707 0.0
H1313 H 0.93428 0.60542 0.88877 0.0
H1314 H 0.97644 0.68774 0.9094 0.0
H1315 H 0.9213 0.61161 0.80554 0.0
H1316 H 0.87803 0.72629 0.59454 0.0
H1317 H 0.89176 0.79512 0.47546 0.0
H1318 H 0.85267 0.71502 0.51827 0.0
H1319 H 0.91771 0.80605 0.55137 0.0
Eu1320 Eu 0.89674 0.63778 0.31531 0.0
Eu1321 Eu 0.84831 0.58914 0.37319 0.0
C1322 C 0.88756 0.58216 0.29791 0.0
C1323 C 0.93859 0.66741 0.20914 0.0
C1324 C 0.92499 0.64218 0.19137 0.0
C1325 C 0.9624 0.68098 0.13182 0.0
C1326 C 0.92986 0.63633 0.14425 0.0
C1327 C 0.9575 0.68683 0.17952 0.0
C1328 C 0.94842 0.65563 0.11356 0.0
C1329 C 0.93223 0.67242 0.25869 0.0
O1330 O 0.87166 0.62045 0.43038 0.0
O1331 O 0.91051 0.64811 0.39475 0.0
C1332 C 0.89534 0.63991 0.43379 0.0
O1333 O 0.87246 0.65223 0.34961 0.0
O1334 O 0.83948 0.56304 0.43705 0.0
O1335 O 0.80869 0.56431 0.39747 0.0
O1336 O 0.83365 0.61539 0.35198 0.0
C1337 C 0.84744 0.64018 0.3447 0.0
O1338 O 0.86582 0.61586 0.25572 0.0
O1339 O 0.83067 0.58333 0.29704 0.0
O1340 O 0.8642 0.57097 0.31751 0.0
O1341 O 0.90918 0.66937 0.2624 0.0
O1342 O 0.93716 0.66084 0.29452 0.0
O1343 O 0.9046 0.60509 0.31306 0.0
C1344 C 0.8065 0.56396 0.48575 0.0
C1345 C 0.80148 0.5845 0.48749 0.0
C1346 C 0.79529 0.55622 0.57401 0.0
C1347 C 0.79316 0.59058 0.53157 0.0
C1348 C 0.80343 0.55 0.52965 0.0
C1349 C 0.78985 0.57656 0.57575 0.0
C1350 C 0.81547 0.55773 0.43862 0.0
C1351 C 0.84177 0.59643 0.25616 0.0
H1352 H 0.91047 0.62693 0.21407 0.0
H1353 H 0.9766 0.6964 0.1089 0.0
H1354 H 0.9191 0.61657 0.13206 0.0
H1355 H 0.96817 0.7064 0.19294 0.0
H1356 H 0.8039 0.59593 0.45455 0.0
H1357 H 0.79357 0.54518 0.60712 0.0
H1358 H 0.78894 0.60611 0.53058 0.0
H1359 H 0.80745 0.53431 0.52974 0.0
Eu1360 Eu 0.35383 0.27248 0.30719 0.0
Eu1361 Eu 0.39373 0.25813 0.36534 0.0
C1362 C 0.41341 0.30764 0.29432 0.0
C1363 C 0.33124 0.30679 0.22227 0.0
C1364 C 0.35609 0.32726 0.21255 0.0
C1365 C 0.31864 0.31006 0.13818 0.0
C1366 C 0.3625 0.33804 0.16513 0.0
C1367 C 0.31216 0.29939 0.18583 0.0
C1368 C 0.34432 0.32822 0.12663 0.0
C1369 C 0.32642 0.29023 0.2659 0.0
O1370 O 0.3769 0.27445 0.42075 0.0
O1371 O 0.33777 0.25898 0.38524 0.0
C1372 C 0.35197 0.26515 0.42553 0.0
O1373 O 0.33568 0.23073 0.29653 0.0
O1374 O 0.42359 0.26804 0.42221 0.0
O1375 O 0.40475 0.23022 0.38909 0.0
O1376 O 0.35428 0.2228 0.36369 0.0
C1377 C 0.33866 0.21489 0.32522 0.0
O1378 O 0.37281 0.2623 0.24303 0.0
O1379 O 0.39438 0.24525 0.28649 0.0
O1380 O 0.41867 0.28977 0.30863 0.0
O1381 O 0.32373 0.26783 0.25582 0.0
O1382 O 0.34107 0.30075 0.30461 0.0
O1383 O 0.39325 0.30736 0.31367 0.0
C1384 C 0.41554 0.23229 0.47448 0.0
C1385 C 0.39086 0.21933 0.49609 0.0
C1386 C 0.4317 0.21894 0.54536 0.0
C1387 C 0.3866 0.20607 0.54154 0.0
C1388 C 0.4359 0.23207 0.49982 0.0
C1389 C 0.40692 0.20548 0.56685 0.0
C1390 C 0.41991 0.24466 0.42446 0.0
C1391 C 0.3861 0.24994 0.24429 0.0
H1392 H 0.37106 0.33362 0.24037 0.0
H1393 H 0.30414 0.30214 0.10937 0.0
H1394 H 0.38217 0.35255 0.15758 0.0
H1395 H 0.29281 0.28377 0.19285 0.0
H1396 H 0.37477 0.21918 0.47746 0.0
H1397 H 0.44783 0.21881 0.5631 0.0
H1398 H 0.36733 0.19635 0.55695 0.0
H1399 H 0.45507 0.24172 0.48392 0.0
Eu1400 Eu 0.72339 0.08704 0.30686 0.0
Eu1401 Eu 0.73659 0.14084 0.36341 0.0
C1402 C 0.68686 0.10956 0.29412 0.0
C1403 C 0.69287 0.03408 0.21758 0.0
C1404 C 0.68811 0.05134 0.19098 0.0
C1405 C 0.67716 0.00459 0.14833 0.0
C1406 C 0.67853 0.04561 0.14299 0.0
C1407 C 0.68687 0.01042 0.19674 0.0
C1408 C 0.67357 0.02248 0.12058 0.0
C1409 C 0.70586 0.04229 0.26527 0.0
O1410 O 0.72214 0.10807 0.42008 0.0
O1411 O 0.73763 0.08464 0.38368 0.0
C1412 C 0.73175 0.09267 0.42419 0.0
O1413 O 0.76468 0.1118 0.29219 0.0
O1414 O 0.72656 0.16019 0.42139 0.0
O1415 O 0.76398 0.18001 0.38618 0.0
O1416 O 0.77328 0.13904 0.35819 0.0
C1417 C 0.78078 0.13089 0.31974 0.0
O1418 O 0.73288 0.11559 0.24183 0.0
O1419 O 0.74823 0.15428 0.28392 0.0
O1420 O 0.70419 0.13309 0.30723 0.0
O1421 O 0.72974 0.0606 0.26197 0.0
O1422 O 0.69323 0.04698 0.29919 0.0
O1423 O 0.68812 0.09072 0.31586 0.0
C1424 C 0.76282 0.18822 0.47225 0.0
C1425 C 0.77712 0.17741 0.4916 0.0
C1426 C 0.77606 0.21693 0.54417 0.0
C1427 C 0.79098 0.18646 0.53636 0.0
C1428 C 0.76235 0.20796 0.49928 0.0
C1429 C 0.79085 0.20654 0.56334 0.0
C1430 C 0.74979 0.1802 0.42278 0.0
C1431 C 0.74415 0.14114 0.24222 0.0
H1432 H 0.69272 0.06972 0.20673 0.0
H1433 H 0.67337 0.98657 0.13198 0.0
H1434 H 0.6765 0.06006 0.12255 0.0
H1435 H 0.69043 0.99694 0.21715 0.0
H1436 H 0.77786 0.16212 0.47172 0.0
H1437 H 0.77557 0.23253 0.56323 0.0
H1438 H 0.80171 0.17761 0.54994 0.0
H1439 H 0.75168 0.21681 0.48521 0.0
C1440 C 0.1069 0.44096 0.99461 0.0
C1441 C 0.10261 0.41571 0.9895 0.0
H1442 H 0.10446 0.46857 1.04281 0.0
C1443 C 0.09508 0.40025 1.03295 0.0
H1444 H 0.11296 0.4537 0.96271 0.0
C1445 C 0.09079 0.40884 0.0784 0.0
C1446 C 0.09353 0.43329 0.08334 0.0
H1447 H 0.09225 0.38098 1.03217 0.0
H1448 H 0.08461 0.39589 0.10992 0.0
C1449 C 0.10225 0.44958 1.0409 0.0
C1450 C 0.59155 0.67172 1.0117 0.0
C1451 C 0.57309 0.67332 0.98187 0.0
H1452 H 0.60065 0.65923 0.0792 0.0
C1453 C 0.54806 0.66304 1.00198 0.0
H1454 H 0.61114 0.67998 0.99886 0.0
C1455 C 0.54174 0.65069 1.04937 0.0
C1456 C 0.56043 0.64884 0.07852 0.0
H1457 H 0.53329 0.66416 0.98085 0.0
H1458 H 0.52211 0.64214 0.06265 0.0
C1459 C 0.5855 0.66 0.05874 0.0
C1460 C 0.34063 0.88203 1.04926 0.0
C1461 C 0.33716 0.89797 0.08336 0.0
H1462 H 0.33235 0.86465 0.97606 0.0
C1463 C 0.32092 0.90743 0.06829 0.0
H1464 H 0.35327 0.87463 0.05869 0.0
C1465 C 0.3097 0.90241 1.02077 0.0
C1466 C 0.31389 0.88744 0.9858 0.0
H1467 H 0.31741 0.91954 0.0929 0.0
H1468 H 0.29766 0.9105 1.01131 0.0
C1469 C 0.32891 0.87659 1.0014 0.0
C1470 C 0.40632 0.07472 0.67557 0.0
C1471 C 0.43016 0.08882 0.65071 0.0
H1472 H 0.38316 0.0695 0.73947 0.0
C1473 C 0.44875 0.11177 0.67406 0.0
H1474 H 0.39119 0.05711 0.65988 0.0
C1475 C 0.44356 0.11965 0.72082 0.0
C1476 C 0.41998 0.10435 0.74637 0.0
H1477 H 0.46756 0.12313 0.65726 0.0
H1478 H 0.45825 0.13727 0.73756 0.0
C1479 C 0.40161 0.08191 0.7222 0.0
C1480 C 0.92788 0.35489 0.69424 0.0
C1481 C 0.91064 0.35132 0.65522 0.0
H1482 H 0.93413 0.34466 0.76693 0.0
C1483 C 0.88426 0.33407 0.66454 0.0
H1484 H 0.94813 0.3687 0.69053 0.0
C1485 C 0.87595 0.32011 0.71032 0.0
C1486 C 0.89373 0.32333 0.74831 0.0
H1487 H 0.87016 0.33092 0.63623 0.0
H1488 H 0.85573 0.30625 0.7153 0.0
C1489 C 0.91972 0.34128 0.7392 0.0
C1490 C 0.64264 0.53763 0.68825 0.0
C1491 C 0.65239 0.55234 0.64401 0.0
H1492 H 0.64757 0.53495 0.76772 0.0
C1493 C 0.67682 0.57432 0.64651 0.0
H1494 H 0.62381 0.52058 0.6881 0.0
C1495 C 0.69032 0.58235 0.6915 0.0
C1496 C 0.68003 0.56901 0.73675 0.0
H1497 H 0.68517 0.58607 0.6137 0.0
H1498 H 0.70876 0.59997 0.69099 0.0
C1499 C 0.65626 0.54588 0.73416 0.0
C1500 C 0.91998 0.584 0.23591 0.0
C1501 C 0.89415 0.57213 0.25178 0.0
H1502 H 0.94686 0.5895 0.17836 0.0
C1503 C 0.87531 0.55434 0.21883 0.0
H1504 H 0.93522 0.59774 0.25952 0.0
C1505 C 0.88221 0.54939 0.17116 0.0
C1506 C 0.90805 0.56259 0.15472 0.0
H1507 H 0.85516 0.54502 0.22899 0.0
H1508 H 0.86727 0.53596 0.14661 0.0
C1509 C 0.92671 0.57949 0.18857 0.0
C1510 C 0.42584 0.34774 0.24576 0.0
C1511 C 0.42553 0.32431 0.24908 0.0
H1512 H 0.43066 0.37901 0.20074 0.0
C1513 C 0.43232 0.31555 0.20582 0.0
H1514 H 0.4208 0.35523 0.2778 0.0
C1515 C 0.4376 0.3292 0.15991 0.0
C1516 C 0.43622 0.35191 0.15642 0.0
H1517 H 0.43214 0.29746 0.20668 0.0
H1518 H 0.44152 0.32137 0.12701 0.0
C1519 C 0.43125 0.36127 0.20082 0.0
C1520 C 0.63513 0.06961 0.19921 0.0
C1521 C 0.64122 0.08544 0.15645 0.0
H1522 H 0.64357 0.0649 0.2744 0.0
C1523 C 0.66147 0.1111 0.16138 0.0
H1524 H 0.61939 0.04995 0.19869 0.0
C1525 C 0.67572 0.11986 0.2067 0.0
C1526 C 0.66984 0.10331 0.24847 0.0
H1527 H 0.66682 0.12412 0.13001 0.0
H1528 H 0.69191 0.13924 0.20834 0.0
C1529 C 0.64896 0.07828 0.24367 0.0
C1530 C 0.54325 0.87452 0.50198 0.0
C1531 C 0.56892 0.88735 0.48424 0.0
H1532 H 0.51682 0.87118 0.56057 0.0
C1533 C 0.5878 0.90517 0.51671 0.0
H1534 H 0.52805 0.86039 0.47878 0.0
C1535 C 0.58156 0.91077 0.56365 0.0
C1536 C 0.55598 0.89901 0.58107 0.0
H1537 H 0.60785 0.91486 0.50599 0.0
H1538 H 0.59709 0.92505 0.58594 0.0
C1539 C 0.53683 0.88049 0.54942 0.0
C1540 C 0.11483 0.6617 0.56186 0.0
C1541 C 0.089 0.6443 0.57471 0.0
H1542 H 0.14101 0.68841 0.50697 0.0
C1543 C 0.07031 0.63818 0.53748 0.0
H1544 H 0.12987 0.66675 0.58911 0.0
C1545 C 0.07665 0.64991 0.49037 0.0
C1546 C 0.10205 0.66861 0.4782 0.0
H1547 H 0.05036 0.62443 0.54519 0.0
H1548 H 0.06127 0.64507 0.46401 0.0
C1549 C 0.12124 0.67389 0.51436 0.0
C1550 C 0.34583 0.45282 0.53628 0.0
C1551 C 0.33633 0.43741 0.57973 0.0
H1552 H 0.34064 0.45654 0.45733 0.0
C1553 C 0.31207 0.41524 0.5768 0.0
H1554 H 0.36457 0.47 0.53682 0.0
C1555 C 0.29841 0.40784 0.53197 0.0
C1556 C 0.30852 0.42189 0.48733 0.0
H1557 H 0.30404 0.40281 0.60895 0.0
H1558 H 0.28011 0.39008 0.53194 0.0
C1559 C 0.33213 0.44511 0.49047 0.0
C1560 C 0.77118 0.75 0.36684 0.0
C1561 C 0.77489 0.7634 0.32142 0.0
H1562 H 0.76182 0.74676 0.44455 0.0
C1563 C 0.7758 0.78725 0.32356 0.0
H1564 H 0.77028 0.73155 0.36727 0.0
C1565 C 0.77114 0.79621 0.36918 0.0
C1566 C 0.76596 0.78184 0.4139 0.0
H1567 H 0.77826 0.79805 0.28971 0.0
H1568 H 0.76963 0.81343 0.36867 0.0
C1569 C 0.76672 0.75892 0.41188 0.0
C1570 C 0.21106 0.98976 0.38995 0.0
C1571 C 0.22787 0.98323 0.41472 0.0
H1572 H 0.20466 0.00786 0.32579 0.0
C1573 C 0.2513 0.99001 0.39072 0.0
H1574 H 0.19267 0.9847 0.40653 0.0
C1575 C 0.25758 0.00223 0.34419 0.0
C1576 C 0.24121 0.00899 0.31912 0.0
H1577 H 0.26489 0.98535 0.40736 0.0
H1578 H 0.27579 0.00676 0.328 0.0
C1579 C 0.2178 0.0028 0.34317 0.0
C1580 C -0.00222 0.21141 0.33317 0.0
C1581 C 0.98385 0.2235 0.31776 0.0
H1582 H 0.02241 0.20885 0.38927 0.0
C1583 C 0.98174 0.23997 0.35217 0.0
H1584 H -0.00026 0.19839 0.30818 0.0
C1585 C 0.99398 0.24539 0.39864 0.0
C1586 C 0.00924 0.23474 0.41345 0.0
H1587 H 0.97046 0.24893 0.34305 0.0
H1588 H 0.99216 0.25889 0.42249 0.0
C1589 C 0.01053 0.21717 0.38016 0.0
C1590 C 0.21819 0.21347 0.83617 0.0
C1591 C 0.24416 0.22533 0.82086 0.0
H1592 H 0.19123 0.21023 0.8931 0.0
C1593 C 0.26299 0.24134 0.85554 0.0
H1594 H 0.20311 0.20071 0.81109 0.0
C1595 C 0.25631 0.24605 0.90283 0.0
C1596 C 0.23043 0.23542 0.91752 0.0
H1597 H 0.28325 0.25042 0.84619 0.0
H1598 H 0.27165 0.25895 0.92736 0.0
C1599 C 0.21141 0.2187 0.88361 0.0
C1600 C 0.77742 0.00147 0.83213 0.0
C1601 C 0.76648 0.01665 0.81808 0.0
H1602 H 0.77942 0.97621 0.88754 0.0
C1603 C 0.75058 0.01925 0.85351 0.0
H1604 H 0.79009 -0.00083 0.80663 0.0
C1605 C 0.74495 0.00671 0.89982 0.0
C1606 C 0.75491 0.99077 0.91363 0.0
H1607 H 0.7426 0.03151 0.84582 0.0
H1608 H 0.73224 0.00926 0.9247 0.0
C1609 C 0.77151 0.98851 0.87901 0.0
C1610 C 0.98947 0.77936 0.89917 0.0
C1611 C 0.0116 0.77693 0.90286 0.0
H1612 H 0.95789 0.77439 0.85266 0.0
C1613 C 0.02087 0.77183 0.85844 0.0
H1614 H 0.9815 0.78302 0.93222 0.0
C1615 C 0.00774 0.76735 0.81311 0.0
C1616 C 0.98474 0.76798 0.80965 0.0
H1617 H 0.03783 0.76983 0.85913 0.0
H1618 H 0.0146 0.76138 0.7814 0.0
C1619 C 0.9761 0.77472 0.85317 0.0
C1620 C 0.03304 0.36139 0.8754 0.0
C1621 C 0.00921 0.35284 0.89917 0.0
H1622 H 0.05483 0.37571 0.80815 0.0
C1623 C 0.98774 0.34788 0.87047 0.0
H1624 H 0.04982 0.36497 0.89651 0.0
C1625 C 0.99065 0.35421 0.82028 0.0
C1626 C 0.01503 0.36537 0.79751 0.0
H1627 H 0.96915 0.34153 0.88755 0.0
H1628 H 0.97408 0.35234 0.80067 0.0
C1629 C 0.03595 0.36769 0.82495 0.0
C1630 C 0.66402 0.65528 0.89723 0.0
C1631 C 0.65767 0.63121 0.91712 0.0
H1632 H 0.67006 0.67764 0.8313 0.0
C1633 C 0.65658 0.61216 0.88569 0.0
H1634 H 0.66547 0.67038 0.92107 0.0
C1635 C 0.65873 0.61603 0.83444 0.0
C1636 C 0.66236 0.6392 0.81385 0.0
H1637 H 0.65162 0.5934 0.90025 0.0
H1638 H 0.65519 0.59996 0.81104 0.0
C1639 C 0.66651 0.65934 0.84593 0.0
C1640 C 0.342 0.98782 0.8752 0.0
C1641 C 0.35312 0.97501 0.89963 0.0
H1642 H 0.3297 0.99542 0.80552 0.0
C1643 C 0.35599 0.95635 0.87348 0.0
H1644 H 0.3387 0.00167 0.89465 0.0
C1645 C 0.34998 0.95215 0.8233 0.0
C1646 C 0.34152 0.96691 0.79765 0.0
H1647 H 0.36471 0.9462 0.89053 0.0
H1648 H 0.35456 0.93921 0.80369 0.0
C1649 C 0.33637 0.9839 0.82446 0.0
C1650 C 0.0241 0.66495 0.35221 0.0
C1651 C 0.0037 0.65507 0.31802 0.0
H1652 H 0.03558 0.66282 0.42631 0.0
C1653 C 0.97826 0.64147 0.33653 0.0
H1654 H 0.04388 0.67636 0.3401 0.0
C1655 C 0.9736 0.6353 0.38697 0.0
C1656 C 0.99429 0.64213 0.41919 0.0
H1657 H 0.96188 0.63338 0.31191 0.0
H1658 H 0.95401 0.62302 0.39967 0.0
C1659 C 0.01943 0.65772 0.40195 0.0
C1660 C 0.34188 0.3973 0.33793 0.0
C1661 C 0.33867 0.38 0.29997 0.0
H1662 H 0.34282 0.40374 0.41598 0.0
C1663 C 0.32914 0.35403 0.31211 0.0
H1664 H 0.34884 0.41736 0.32951 0.0
C1665 C 0.32586 0.34612 0.36188 0.0
C1666 C 0.33144 0.36402 0.40008 0.0
H1667 H 0.32611 0.34028 0.28344 0.0
H1668 H 0.32031 0.32641 0.37058 0.0
C1669 C 0.33821 0.38938 0.38747 0.0
C1670 C 0.62447 0.00526 0.31814 0.0
C1671 C 0.61675 0.98097 0.29764 0.0
H1672 H 0.63209 0.02762 0.38367 0.0
C1673 C 0.61447 0.96115 0.32867 0.0
H1674 H 0.62589 0.0208 0.29545 0.0
C1675 C 0.61799 0.96511 0.37984 0.0
C1676 C 0.62375 0.98887 0.40061 0.0
H1677 H 0.60893 0.94237 0.31372 0.0
H1678 H 0.61478 0.94916 0.40335 0.0
C1679 C 0.62808 0.00922 0.36899 0.0
C1680 C 0.64558 0.6784 0.22988 0.0
C1681 C 0.6667 0.69229 0.26134 0.0
H1682 H 0.63269 0.66978 0.15469 0.0
C1683 C 0.69169 0.70324 0.24184 0.0
H1684 H 0.62611 0.66986 0.2441 0.0
C1685 C 0.69555 0.70299 0.1909 0.0
C1686 C 0.67444 0.69211 0.15851 0.0
H1687 H 0.70824 0.71376 0.26565 0.0
H1688 H 0.71504 0.71319 0.17664 0.0
C1689 C 0.64942 0.67836 0.17862 0.0
C1690 C 0.31953 0.96781 0.15305 0.0
C1691 C 0.30898 0.98246 0.1343 0.0
H1692 H 0.32437 0.94912 0.21632 0.0
C1693 C 0.30126 0.99513 0.16791 0.0
H1694 H 0.32601 0.95799 0.12848 0.0
C1695 C 0.29988 0.98957 0.21843 0.0
C1696 C 0.30691 0.97192 0.2363 0.0
H1697 H 0.2939 0.0073 0.15482 0.0
H1698 H 0.29135 -0.00251 0.2429 0.0
C1699 C 0.31854 0.9626 0.20373 0.0
C1700 C 0.04607 0.34424 0.19803 0.0
C1701 C 0.03462 0.3245 0.23337 0.0
H1702 H 0.05318 0.35371 0.12124 0.0
C1703 C 0.01727 0.29939 0.21736 0.0
H1704 H 0.05963 0.36376 0.20898 0.0
C1705 C 0.01362 0.29356 0.16691 0.0
C1706 C 0.02718 0.31286 0.13164 0.0
H1707 H 0.00788 0.28393 0.24391 0.0
H1708 H 0.00138 0.27378 0.15561 0.0
C1709 C 0.04237 0.33844 0.1476 0.0
C1710 C 0.64668 0.97181 0.6531 0.0
C1711 C 0.67119 0.98575 0.63119 0.0
H1712 H 0.62513 0.95852 0.72026 0.0
C1713 C 0.69228 0.00194 0.66094 0.0
H1714 H 0.63002 0.95909 0.63127 0.0
C1715 C 0.68946 0.00153 0.71238 0.0
C1716 C 0.66554 0.98501 0.73477 0.0
H1717 H 0.71129 0.01334 0.64486 0.0
H1718 H 0.70645 0.01251 0.73462 0.0
C1719 C 0.64386 0.97149 0.70445 0.0
C1720 C 0.0431 0.67353 0.67872 0.0
C1721 C 0.02229 0.67375 0.65494 0.0
H1722 H 0.06123 0.67455 0.74765 0.0
C1723 C 0.00106 0.66981 0.68366 0.0
H1724 H 0.05991 0.67672 0.65794 0.0
C1725 C 0.00198 0.66872 0.73544 0.0
C1726 C 0.02405 0.67149 0.7593 0.0
H1727 H 0.98449 0.66927 0.66636 0.0
H1728 H 0.98628 0.66762 0.75699 0.0
C1729 C 0.0439 0.67228 0.7304 0.0
C1730 C 0.305 0.30463 0.7048 0.0
C1731 C 0.31088 0.32711 0.73112 0.0
H1732 H 0.2915 0.28395 0.63651 0.0
C1733 C 0.31267 0.34821 0.70503 0.0
H1734 H 0.3035 0.28811 0.72396 0.0
C1735 C 0.30547 0.34572 0.65533 0.0
C1736 C 0.29671 0.32225 0.63059 0.0
H1737 H 0.31704 0.3658 0.72401 0.0
H1738 H 0.30518 0.36169 0.63722 0.0
C1739 C 0.29803 0.30222 0.65475 0.0
C1740 C 0.30763 0.00043 0.55387 0.0
C1741 C 0.32865 0.01121 0.58637 0.0
H1742 H 0.29562 0.99578 0.47808 0.0
C1743 C 0.35344 0.01987 0.56776 0.0
H1744 H 0.28834 0.99389 0.56758 0.0
C1745 C 0.35767 0.02082 0.51687 0.0
C1746 C 0.33718 0.01338 0.48368 0.0
H1747 H 0.36987 0.02846 0.59228 0.0
H1748 H 0.37726 0.02984 0.50353 0.0
C1749 C 0.31188 0.00157 0.50258 0.0
C1750 C 0.98664 0.34359 0.49936 0.0
C1751 C 0.99093 0.32652 0.47079 0.0
H1752 H 0.97875 0.35269 0.5713 0.0
C1753 C -0.00296 0.30955 0.49556 0.0
H1754 H 0.98276 0.35753 0.4818 0.0
C1755 C 0.99611 0.3078 0.54724 0.0
C1756 C 0.98843 0.32249 0.57519 0.0
H1757 H 0.00029 0.29588 0.47541 0.0
H1758 H -0.00108 0.29314 0.5648 0.0
C1759 C 0.98477 0.34114 0.55095 0.0
C1760 C 0.69259 0.68161 0.5561 0.0
C1761 C 0.69621 0.66361 0.58296 0.0
H1762 H 0.68496 0.69242 0.48513 0.0
C1763 C 0.68995 0.64016 0.56026 0.0
H1764 H 0.69678 0.6997 0.5727 0.0
C1765 C 0.68373 0.63623 0.50996 0.0
C1766 C 0.68331 0.65562 0.48131 0.0
H1767 H 0.69152 0.62545 0.5806 0.0
H1768 H 0.68163 0.61898 0.493 0.0
C1769 C 0.68597 0.67751 0.50579 0.0
C1770 C 0.34243 0.33013 0.98656 0.0
C1771 C 0.36143 0.32384 0.97478 0.0
H1772 H 0.3221 0.3369 1.04484 0.0
C1773 C 0.37806 0.32462 1.01221 0.0
H1774 H 0.32952 0.32977 0.95815 0.0
C1775 C 0.37381 0.32853 0.06147 0.0
C1776 C 0.35299 0.33197 0.07419 0.0
H1777 H 0.39308 0.32016 1.00393 0.0
H1778 H 0.38535 0.32636 0.08993 0.0
C1779 C 0.33812 0.33404 1.03606 0.0
C1780 C 0.68609 0.01747 0.98638 0.0
C1781 C 0.67417 0.03007 0.96413 0.0
H1782 H 0.69483 0.00473 1.05369 0.0
C1783 C 0.65732 0.0347 0.99246 0.0
H1784 H 0.69939 0.01377 0.96584 0.0
C1785 C 0.6546 0.02933 1.04323 0.0
C1786 C 0.6689 0.01952 0.06647 0.0
H1787 H 0.64759 0.04399 0.97604 0.0
H1788 H 0.64295 0.03482 0.06487 0.0
C1789 C 0.6834 0.01215 1.03705 0.0
C1790 C 0.93288 0.62814 0.98411 0.0
C1791 C 0.95649 0.64292 0.95974 0.0
H1792 H 0.91157 0.62139 1.05088 0.0
C1793 C 0.97845 0.65904 0.98775 0.0
H1794 H 0.91553 0.61585 0.96339 0.0
C1795 C 0.97628 0.66217 1.03866 0.0
C1796 C 0.95205 0.64936 0.062 0.0
H1797 H -0.0031 0.67044 0.96962 0.0
H1798 H 0.99332 0.67543 0.05913 0.0
C1799 C 0.93061 0.63149 1.03454 0.0
C1800 C 0.05931 0.49207 0.94451 0.0
C1801 C 0.07855 0.51826 0.94524 0.0
H1802 H 0.03807 0.45673 0.9857 0.0
C1803 C 0.09134 0.52851 0.99044 0.0
H1804 H 0.04917 0.48336 0.91036 0.0
C1805 C 0.08487 0.5133 1.03357 0.0
C1806 C 0.06555 0.48718 1.03309 0.0
H1807 H 0.10604 0.54856 0.99287 0.0
H1808 H 0.09508 0.52221 0.06756 0.0
C1809 C 0.05302 0.4767 0.98772 0.0
C1810 C 0.47477 0.56329 1.03105 0.0
C1811 C 0.49775 0.56275 1.03844 0.0
H1812 H 0.44277 0.55442 0.98316 0.0
C1813 C 0.5057 0.55207 1.00052 0.0
H1814 H 0.46784 0.57118 0.05927 0.0
C1815 C 0.49123 0.54236 0.95669 0.0
C1816 C 0.46835 0.54309 0.94901 0.0
H1817 H 0.52312 0.55104 1.0047 0.0
H1818 H 0.4983 0.53464 0.92839 0.0
C1819 C 0.46039 0.55373 0.98704 0.0
C1820 C 0.42875 0.90012 1.04177 0.0
C1821 C 0.42255 0.91987 1.04314 0.0
H1822 H 0.44257 0.87942 0.99897 0.0
C1823 C 0.42539 0.93366 0.99891 0.0
H1824 H 0.42702 0.88909 0.07492 0.0
C1825 C 0.43424 0.92795 0.95489 0.0
C1826 C 0.44059 0.90827 0.95355 0.0
H1827 H 0.42077 0.94893 0.99815 0.0
H1828 H 0.43582 0.93887 0.92167 0.0
C1829 C 0.4376 0.89443 0.99784 0.0
C1830 C 0.48178 0.05198 0.73245 0.0
C1831 C 0.4924 0.06591 0.68823 0.0
H1832 H 0.48725 0.04744 0.8099 0.0
C1833 C 0.51802 0.0864 0.68966 0.0
H1834 H 0.46216 0.03615 0.73308 0.0
C1835 C 0.53257 0.09272 0.73354 0.0
C1836 C 0.52207 0.07891 0.77795 0.0
H1837 H 0.52714 0.09754 0.65651 0.0
H1838 H 0.55233 0.10824 0.73217 0.0
C1839 C 0.49635 0.05843 0.77662 0.0
C1840 C 0.90783 0.43399 0.69396 0.0
C1841 C 0.9325 0.43767 0.68394 0.0
H1842 H 0.88347 0.43997 0.74413 0.0
C1843 C 0.95196 0.45112 0.71942 0.0
H1844 H 0.89232 0.42388 0.66768 0.0
C1845 C 0.94687 0.46038 0.7635 0.0
C1846 C 0.92211 0.45647 0.77391 0.0
H1847 H 0.97127 0.45457 0.7132 0.0
H1848 H 0.96236 0.47024 0.78992 0.0
C1849 C 0.9027 0.44315 0.73821 0.0
C1850 C 0.54167 0.4601 0.73255 0.0
C1851 C 0.54915 0.47084 0.78029 0.0
H1852 H 0.54435 0.46614 0.65387 0.0
C1853 C 0.56605 0.49764 0.78342 0.0
H1854 H 0.52905 0.43962 0.72808 0.0
C1855 C 0.57503 0.5131 0.74024 0.0
C1856 C 0.56757 0.50218 0.69259 0.0
H1857 H 0.57212 0.50681 0.81934 0.0
H1858 H 0.58798 0.53355 0.74424 0.0
C1859 C 0.55071 0.47544 0.68963 0.0
C1860 C 0.94334 0.51707 0.2409 0.0
C1861 C 0.93053 0.50723 0.19546 0.0
H1862 H 0.94715 0.50973 0.31782 0.0
C1863 C 0.91066 0.48132 0.19459 0.0
H1864 H 0.95872 0.53684 0.24334 0.0
C1865 C 0.90398 0.46574 0.23736 0.0
C1866 C 0.91703 0.47537 0.28265 0.0
H1867 H 0.90025 0.47285 0.16056 0.0
H1868 H 0.88889 0.44586 0.23451 0.0
C1869 C 0.93679 0.50137 0.2837 0.0
C1870 C 0.52742 0.43923 0.23533 0.0
C1871 C 0.52095 0.45183 0.2719 0.0
H1872 H 0.51934 0.42132 0.16367 0.0
C1873 C 0.50029 0.45608 0.26164 0.0
H1874 H 0.54337 0.43588 0.24108 0.0
C1875 C 0.4864 0.44768 0.2168 0.0
C1876 C 0.49279 0.4349 0.18051 0.0
H1877 H 0.49444 0.46547 0.28875 0.0
H1878 H 0.47058 0.45121 0.21066 0.0
C1879 C 0.51365 0.43099 0.19047 0.0
C1880 C 0.5559 0.05071 0.22868 0.0
C1881 C 0.55871 0.06458 0.18462 0.0
H1882 H 0.54679 0.04618 0.30647 0.0
C1883 C 0.55331 0.08486 0.18664 0.0
H1884 H 0.56002 0.03509 0.22888 0.0
C1885 C 0.54532 0.09105 0.23108 0.0
C1886 C 0.54261 0.07734 0.27544 0.0
H1887 H 0.55496 0.09591 0.15356 0.0
H1888 H 0.54085 0.10641 0.23024 0.0
C1889 C 0.54812 0.05706 0.27336 0.0
C1890 C 0.50457 0.92925 0.4964 0.0
C1891 C 0.49248 0.92191 0.54322 0.0
H1892 H 0.4999 0.92898 0.41711 0.0
C1893 C 0.46538 0.90856 0.54477 0.0
H1894 H 0.52537 0.93953 0.49365 0.0
C1895 C 0.45079 0.90271 0.50098 0.0
C1896 C 0.46278 0.9097 0.45407 0.0
H1897 H 0.45531 0.90271 0.58003 0.0
H1898 H 0.43 0.89227 0.5039 0.0
C1899 C 0.48993 0.92305 0.45244 0.0
C1900 C 0.04928 0.54216 0.4606 0.0
C1901 C 0.07268 0.54248 0.45261 0.0
H1902 H 0.02646 0.55107 0.50931 0.0
C1903 C 0.0912 0.55237 0.49086 0.0
H1904 H 0.03459 0.53501 0.43213 0.0
C1905 C 0.08652 0.56166 0.53535 0.0
C1906 C 0.06325 0.56159 0.54307 0.0
H1907 H 0.10931 0.55269 0.48671 0.0
H1908 H 0.10131 0.56903 0.56367 0.0
C1909 C 0.04469 0.55163 0.50495 0.0
C1910 C 0.43852 0.53074 0.48867 0.0
C1911 C 0.43976 0.52018 0.44281 0.0
H1912 H 0.42899 0.52448 0.56612 0.0
C1913 C 0.43105 0.49359 0.44124 0.0
H1914 H 0.44522 0.55109 0.49171 0.0
C1915 C 0.42149 0.47813 0.48419 0.0
C1916 C 0.42066 0.48883 0.5302 0.0
H1917 H 0.43141 0.48464 0.40659 0.0
H1918 H 0.41505 0.45782 0.48139 0.0
C1919 C 0.42929 0.51538 0.53162 0.0
C1920 C 0.76119 0.87362 0.32358 0.0
C1921 C 0.74256 0.86527 0.28564 0.0
H1922 H 0.77145 0.86693 0.39612 0.0
C1923 C 0.71905 0.84234 0.29392 0.0
H1924 H 0.77938 0.89127 0.31928 0.0
C1925 C 0.71444 0.82824 0.33843 0.0
C1926 C 0.73312 0.83669 0.37628 0.0
H1927 H 0.70426 0.83502 0.26563 0.0
H1928 H 0.69614 0.81075 0.34321 0.0
C1929 C 0.75654 0.85964 0.36807 0.0
C1930 C 0.15783 0.88749 0.28469 0.0
C1931 C 0.13221 0.8825 0.28334 0.0
H1932 H 0.19214 0.89962 0.32753 0.0
C1933 C 0.12209 0.88692 0.32716 0.0
H1934 H 0.16667 0.88489 0.25179 0.0
C1935 C 0.13692 0.89569 0.3708 0.0
C1936 C 0.16238 0.90032 0.37221 0.0
H1937 H 0.10244 0.88307 0.32823 0.0
H1938 H 0.12821 0.89847 0.40372 0.0
C1939 C 0.17261 0.89619 0.32832 0.0
C1940 C 0.11545 0.23513 0.3298 0.0
C1941 C 0.1151 0.24692 0.2847 0.0
H1942 H 0.10692 0.23072 0.40791 0.0
C1943 C 0.10562 0.26418 0.28539 0.0
H1944 H 0.1224 0.22161 0.33079 0.0
C1945 C 0.09682 0.26951 0.32975 0.0
C1946 C 0.09691 0.25751 0.37474 0.0
H1947 H 0.10529 0.27386 0.25161 0.0
H1948 H 0.08979 0.28298 0.32863 0.0
C1949 C 0.10634 0.24022 0.37406 0.0
C1950 C 0.16955 0.39123 0.10137 0.0
C1951 C 0.19469 0.41263 0.10311 0.0
H1952 H 0.1359 0.36785 1.0576 0.0
C1953 C 0.20475 0.42711 0.05919 0.0
H1954 H 0.16078 0.37978 0.13437 0.0
C1955 C 0.19027 0.42037 1.01515 0.0
C1956 C 0.16527 0.39886 1.0134 0.0
H1957 H 0.22408 0.44345 0.05843 0.0
H1958 H 0.1989 0.43194 0.98221 0.0
C1959 C 0.15512 0.38441 1.05722 0.0
C1960 C 0.56817 0.75555 1.02576 0.0
C1961 C 0.59096 0.75424 1.02259 0.0
H1962 H 0.54445 0.76551 0.06932 0.0
C1963 C 0.60735 0.7622 0.06426 0.0
H1964 H 0.555 0.74972 0.99465 0.0
C1965 C 0.60128 0.77144 0.10735 0.0
C1966 C 0.57851 0.77283 0.11044 0.0
H1967 H 0.62511 0.76164 0.06346 0.0
H1968 H 0.61441 0.7773 0.13852 0.0
C1969 C 0.562 0.76456 0.06893 0.0
C1970 C 0.22232 0.78736 0.06685 0.0
C1971 C 0.21555 0.79641 0.10931 0.0
H1972 H 0.23602 0.79448 0.99156 0.0
C1973 C 0.21831 0.82113 0.10674 0.0
H1974 H 0.22022 0.76839 0.06673 0.0
C1975 C 0.22728 0.83614 0.06325 0.0
C1976 C 0.23387 0.82699 1.02076 0.0
H1977 H 0.21379 0.82913 0.13862 0.0
H1978 H 0.22901 0.85496 0.06303 0.0
C1979 C 0.23131 0.80238 1.02337 0.0
C1980 C 0.56416 0.78673 0.5659 0.0
C1981 C 0.58 0.79631 0.60827 0.0
H1982 H 0.55695 0.7932 0.49056 0.0
C1983 C 0.60155 0.82133 0.605 0.0
H1984 H 0.54763 0.76753 0.56607 0.0
C1985 C 0.60705 0.83609 0.56117 0.0
C1986 C 0.59118 0.82646 0.51893 0.0
H1987 H 0.61412 0.82979 0.63665 0.0
H1988 H 0.6238 0.85515 0.56055 0.0
C1989 C 0.56963 0.80152 0.52213 0.0
C1990 C 0.15567 0.7638 0.56129 0.0
C1991 C 0.16418 0.75528 0.52058 0.0
H1992 H 0.1634 0.77961 0.63493 0.0
C1993 C 0.18818 0.75645 0.52473 0.0
H1994 H 0.13741 0.76334 0.5597 0.0
C1995 C 0.20316 0.76582 0.56806 0.0
C1996 C 0.1948 0.77459 0.60863 0.0
H1997 H 0.19553 0.75015 0.49436 0.0
H1998 H 0.22157 0.76659 0.56935 0.0
C1999 C 0.17077 0.77339 0.60447 0.0
C2000 C 0.22353 0.38403 0.55588 0.0
C2001 C 0.22658 0.39779 0.51154 0.0
H2002 H 0.21399 0.37967 0.63344 0.0
C2003 C 0.22102 0.41798 0.5128 0.0
H2004 H 0.22776 0.36849 0.5567 0.0
C2005 C 0.2127 0.42422 0.55679 0.0
C2006 C 0.2098 0.41066 0.60144 0.0
H2007 H 0.22286 0.42894 0.47949 0.0
H2008 H 0.20816 0.43953 0.55538 0.0
C2009 C 0.21543 0.39044 0.60009 0.0
C2010 C 0.16319 0.26527 0.78174 0.0
C2011 C 0.13754 0.24472 0.78164 0.0
H2012 H 0.19814 0.28743 0.82299 0.0
C2013 C 0.128 0.23045 0.82595 0.0
H2014 H 0.17152 0.27658 0.7484 0.0
C2015 C 0.14339 0.23665 0.86884 0.0
C2016 C 0.16895 0.2573 0.86904 0.0
H2017 H 0.10836 0.21471 0.82796 0.0
H2018 H 0.13504 0.22528 0.90211 0.0
C2019 C 0.17863 0.27142 0.82463 0.0
C2020 C 0.72218 0.90977 0.82142 0.0
C2021 C 0.73286 0.9093 0.86776 0.0
H2022 H 0.72053 0.90242 0.74301 0.0
C2023 C 0.75096 0.90084 0.86904 0.0
H2024 H 0.70827 0.9162 0.8187 0.0
C2025 C 0.758 0.89292 0.82561 0.0
C2026 C 0.74712 0.89306 0.77931 0.0
H2027 H 0.75965 0.90008 0.90382 0.0
H2028 H 0.77162 0.88613 0.82861 0.0
C2029 C 0.72915 0.9017 0.77791 0.0
C2030 C 0.09221 0.81503 0.82951 0.0
C2031 C 0.094 0.82706 0.87537 0.0
H2032 H 0.09915 0.81954 0.75063 0.0
C2033 C 0.10554 0.85407 0.87562 0.0
H2034 H 0.08366 0.79436 0.82763 0.0
C2035 C 0.11469 0.86854 0.83163 0.0
C2036 C 0.11238 0.85655 0.78554 0.0
H2037 H 0.10756 0.86421 0.91006 0.0
H2038 H 0.12309 0.8892 0.83364 0.0
C2039 C 0.10104 0.82953 0.78521 0.0
C2040 C 0.41634 0.18643 0.69837 0.0
C2041 C 0.39402 0.16235 0.70553 0.0
H2042 H 0.43782 0.2188 0.65013 0.0
C2043 C 0.37588 0.15271 0.66666 0.0
H2044 H 0.43076 0.19466 0.72727 0.0
C2045 C 0.37992 0.16668 0.62221 0.0
C2046 C 0.40233 0.1907 0.61488 0.0
H2047 H 0.35838 0.13434 0.67058 0.0
H2048 H 0.36557 0.15839 0.59318 0.0
C2049 C 0.42047 0.2003 0.65379 0.0
C2050 C 0.84526 0.22936 0.65993 0.0
C2051 C 0.83538 0.23651 0.70057 0.0
H2052 H 0.83934 0.21445 0.58558 0.0
C2053 C 0.81066 0.23361 0.69552 0.0
H2054 H 0.86411 0.23112 0.66218 0.0
C2055 C 0.7964 0.22404 0.6514 0.0
C2056 C 0.80619 0.21674 0.61078 0.0
H2057 H 0.80222 0.23877 0.72578 0.0
H2058 H 0.77743 0.22199 0.64948 0.0
C2059 C 0.83088 0.21953 0.61593 0.0
C2060 C 0.7868 0.60839 0.63411 0.0
C2061 C 0.78052 0.58294 0.62294 0.0
H2062 H 0.78313 0.63394 0.68499 0.0
C2063 C 0.76489 0.56354 0.65719 0.0
H2064 H 0.79912 0.62408 0.60955 0.0
C2065 C 0.75605 0.56934 0.70094 0.0
C2066 C 0.76226 0.5947 0.71188 0.0
H2067 H 0.75905 0.54365 0.65 0.0
H2068 H 0.74405 0.55376 0.72604 0.0
C2069 C 0.77769 0.61415 0.67771 0.0
C2070 C 0.86566 0.76022 0.39805 0.0
C2071 C 0.85447 0.74711 0.44275 0.0
H2072 H 0.86103 0.76447 0.32038 0.0
C2073 C 0.82853 0.72718 0.44136 0.0
H2074 H 0.88562 0.7753 0.39693 0.0
C2075 C 0.81432 0.72069 0.39681 0.0
C2076 C 0.82557 0.73399 0.3523 0.0
H2077 H 0.81901 0.71674 0.47489 0.0
H2078 H 0.79444 0.70538 0.39743 0.0
C2079 C 0.85148 0.75382 0.35374 0.0
C2080 C 0.24115 0.0945 0.36139 0.0
C2081 C 0.26229 0.09031 0.36136 0.0
H2082 H 0.21852 0.10698 0.40186 0.0
C2083 C 0.27667 0.09551 0.4055 0.0
H2084 H 0.22954 0.09081 0.32831 0.0
C2085 C 0.27037 0.10502 0.4479 0.0
C2086 C 0.24932 0.10938 0.44776 0.0
H2087 H 0.2931 0.09265 0.40713 0.0
H2088 H 0.28197 0.10881 0.48101 0.0
C2089 C 0.2347 0.10372 0.40387 0.0
C2090 C 0.87575 0.12864 0.39606 0.0
C2091 C 0.88387 0.1392 0.4438 0.0
H2092 H 0.87817 0.13493 0.31726 0.0
C2093 C 0.90136 0.16588 0.44687 0.0
H2094 H 0.86256 0.10826 0.39169 0.0
C2095 C 0.91036 0.18139 0.40374 0.0
C2096 C 0.90243 0.17065 0.35607 0.0
H2097 H 0.90794 0.17492 0.48278 0.0
H2098 H 0.92379 0.20174 0.40775 0.0
C2099 C 0.88494 0.14402 0.35308 0.0
C2100 C 0.28305 0.16871 0.88869 0.0
C2101 C 0.26429 0.16201 0.8513 0.0
H2102 H 0.29273 0.16017 0.96032 0.0
C2103 C 0.2401 0.13993 0.85925 0.0
H2104 H 0.30199 0.18542 0.8842 0.0
C2105 C 0.23477 0.12527 0.90323 0.0
C2106 C 0.2535 0.13201 0.94076 0.0
H2107 H 0.22512 0.13396 0.83151 0.0
H2108 H 0.21595 0.10839 0.90748 0.0
C2109 C 0.27779 0.15398 0.93247 0.0
C2110 C 0.84053 0.12307 0.92848 0.0
C2111 C 0.8611 0.11865 0.93817 0.0
H2112 H 0.81033 0.118 0.87897 0.0
C2113 C 0.86664 0.10507 0.90209 0.0
H2114 H 0.8353 0.13312 0.95526 0.0
C2115 C 0.85212 0.09622 0.85805 0.0
C2116 C 0.83144 0.10048 0.84869 0.0
H2117 H 0.88245 0.10148 0.90754 0.0
H2118 H 0.8571 0.08593 0.83139 0.0
C2119 C 0.82595 0.11412 0.88464 0.0
C2120 C 0.89487 0.757 0.85579 0.0
C2121 C 0.8991 0.73599 0.85213 0.0
H2122 H 0.88268 0.77838 0.90046 0.0
C2123 C 0.8943 0.72045 0.89459 0.0
H2124 H 0.89813 0.76944 0.82412 0.0
C2125 C 0.8855 0.72581 0.93918 0.0
C2126 C 0.88125 0.74688 0.94267 0.0
H2127 H 0.89729 0.70411 0.89344 0.0
H2128 H 0.8823 0.71355 0.9711 0.0
C2129 C 0.8861 0.76231 0.90008 0.0
C2130 C 0.79947 0.57289 0.21 0.0
C2131 C 0.82635 0.5894 0.209 0.0
H2132 H 0.76418 0.55396 0.16882 0.0
C2133 C 0.83806 0.59948 0.16262 0.0
H2134 H 0.78963 0.56478 0.24482 0.0
C2135 C 0.82335 0.59321 0.11874 0.0
C2136 C 0.7964 0.57685 0.11981 0.0
H2137 H 0.85866 0.61227 0.16012 0.0
H2138 H 0.8331 0.60159 0.08398 0.0
C2139 C 0.78475 0.56682 0.16625 0.0
C2140 C 0.38791 0.2319 0.10765 0.0
C2141 C 0.40611 0.22349 0.10892 0.0
H2142 H 0.36756 0.24715 0.1484 0.0
C2143 C 0.41773 0.22439 0.15488 0.0
H2144 H 0.37866 0.23176 0.07299 0.0
C2145 C 0.41123 0.23303 0.19804 0.0
C2146 C 0.39305 0.24141 0.197 0.0
H2147 H 0.43157 0.21788 0.15784 0.0
H2148 H 0.42061 0.23308 0.23248 0.0
C2149 C 0.38161 0.2409 0.15095 0.0
C2150 C 0.76964 0.19746 0.15072 0.0
C2151 C 0.77226 0.18678 0.10612 0.0
H2152 H 0.75893 0.19179 0.22757 0.0
C2153 C 0.76469 0.16041 0.1063 0.0
H2154 H 0.77545 0.21764 0.15254 0.0
C2155 C 0.75495 0.14533 0.14976 0.0
C2156 C 0.75282 0.15625 0.19453 0.0
H2157 H 0.76613 0.15134 0.07266 0.0
H2158 H 0.74953 0.12523 0.14845 0.0
C2159 C 0.76023 0.18253 0.19409 0.0
C2160 C 0.02167 0.41813 0.3554 0.0
C2161 C 0.00808 0.41558 0.31107 0.0
H2162 H 0.02078 0.41636 0.43536 0.0
C2163 C 0.9818 0.40813 0.31524 0.0
H2164 H 0.04187 0.42384 0.35398 0.0
C2165 C 0.96978 0.40434 0.36203 0.0
C2166 C 0.98343 0.40726 0.40642 0.0
H2167 H 0.97061 0.40608 0.28221 0.0
H2168 H 0.9498 0.39945 0.36339 0.0
C2169 C 0.00947 0.41373 0.40224 0.0
C2170 C 0.59725 0.57027 0.37117 0.0
C2171 C 0.58814 0.57569 0.41518 0.0
H2172 H 0.59749 0.57033 0.29128 0.0
C2173 C 0.57226 0.58673 0.41025 0.0
H2174 H 0.60944 0.56175 0.37308 0.0
C2175 C 0.5651 0.59142 0.36308 0.0
C2176 C 0.57383 0.58558 0.31901 0.0
H2177 H 0.56468 0.59112 0.44301 0.0
H2178 H 0.55233 0.59929 0.36124 0.0
C2179 C 0.59036 0.57527 0.32399 0.0
C2180 C 0.39319 0.99358 0.33531 0.0
C2181 C 0.40563 0.98013 0.31936 0.0
H2182 H 0.3901 0.01741 0.39197 0.0
C2183 C 0.42534 0.98133 0.34975 0.0
H2184 H 0.37809 0.99334 0.31289 0.0
C2185 C 0.43286 0.99589 0.39367 0.0
C2186 C 0.42036 0.00909 0.41003 0.0
H2187 H 0.43561 0.97154 0.33885 0.0
H2188 H 0.44849 0.99666 0.41523 0.0
C2189 C 0.40009 0.00742 0.38066 0.0
C2190 C 0.01606 0.58879 0.91434 0.0
C2191 C 0.98963 0.58066 0.91899 0.0
H2192 H 0.0482 0.59893 0.86567 0.0
C2193 C 0.97588 0.57843 0.87509 0.0
H2194 H 0.02743 0.59074 0.94703 0.0
C2195 C 0.98801 0.58356 0.82813 0.0
C2196 C 0.01422 0.5907 0.82337 0.0
H2197 H 0.95558 0.5723 0.87689 0.0
H2198 H 0.97651 0.58103 0.79534 0.0
C2199 C 0.02808 0.59352 0.86741 0.0
C2200 C 0.4193 0.4053 0.80957 0.0
C2201 C 0.4003 0.41244 0.80466 0.0
H2202 H 0.44192 0.39621 0.85862 0.0
C2203 C 0.38795 0.4136 0.84844 0.0
H2204 H 0.42938 0.40423 0.77705 0.0
C2205 C 0.39482 0.40836 0.89556 0.0
C2206 C 0.41476 0.40249 0.90051 0.0
H2207 H 0.37318 0.41892 0.8464 0.0
H2208 H 0.38528 0.41005 0.92833 0.0
C2209 C 0.4266 0.40073 0.85661 0.0
C2210 C 0.55569 0.99296 0.89813 0.0
C2211 C 0.5815 0.01054 0.90958 0.0
H2212 H 0.52885 0.96518 0.84724 0.0
C2213 C 0.6006 0.01306 0.87581 0.0
H2214 H 0.54049 0.9906 0.92315 0.0
C2215 C 0.59384 -0.00114 0.83095 0.0
C2216 C 0.56788 0.98112 0.81957 0.0
H2217 H 0.62067 0.02657 0.88331 0.0
H2218 H 0.60893 0.00202 0.80497 0.0
C2219 C 0.54903 0.97828 0.85439 0.0
C2220 C 0.65763 0.76715 0.71991 0.0
C2221 C 0.65539 0.74588 0.74641 0.0
H2222 H 0.67336 0.79232 0.65702 0.0
C2223 C 0.66763 0.733 0.72648 0.0
H2224 H 0.64879 0.77776 0.73412 0.0
C2225 C 0.68131 0.74103 0.68085 0.0
C2226 C 0.6839 0.7627 0.65512 0.0
H2227 H 0.66636 0.71655 0.74579 0.0
H2228 H 0.69038 0.73071 0.66631 0.0
C2229 C 0.67192 0.77563 0.67563 0.0
C2230 C 0.26156 0.89778 0.69811 0.0
C2231 C 0.25288 0.90318 0.7427 0.0
H2232 H 0.26223 0.89947 0.61822 0.0
C2233 C 0.23874 0.91615 0.73913 0.0
H2234 H 0.27247 0.88787 0.69903 0.0
C2235 C 0.23259 0.92257 0.69275 0.0
C2236 C 0.24066 0.9166 0.64809 0.0
H2237 H 0.23159 0.92069 0.77233 0.0
H2238 H 0.22101 0.93178 0.69198 0.0
C2239 C 0.2557 0.90455 0.65159 0.0
C2240 C 0.08923 0.31934 0.73733 0.0
C2241 C 0.08616 0.3409 0.74284 0.0
H2242 H 0.0861 0.28938 0.68981 0.0
C2243 C 0.07591 0.34799 0.7028 0.0
H2244 H 0.09734 0.31358 0.76735 0.0
C2245 C 0.06965 0.33422 0.65764 0.0
C2246 C 0.07337 0.31294 0.65155 0.0
H2247 H 0.07352 0.36466 0.70583 0.0
H2248 H 0.06253 0.34069 0.62707 0.0
C2249 C 0.08279 0.30548 0.69262 0.0
C2250 C 0.68465 0.92884 0.18857 0.0
C2251 C 0.67087 0.91969 0.14384 0.0
H2252 H 0.68366 0.92869 0.26835 0.0
C2253 C 0.64398 0.90311 0.14743 0.0
H2254 H 0.7053 0.94151 0.18777 0.0
C2255 C 0.63145 0.89542 0.19402 0.0
C2256 C 0.6453 0.90429 0.2388 0.0
H2257 H 0.63257 0.89543 0.11409 0.0
H2258 H 0.61091 0.88216 0.19486 0.0
C2259 C 0.67209 0.92143 0.23509 0.0
C2260 C 0.10516 0.76072 0.21681 0.0
C2261 C 0.08694 0.73997 0.24568 0.0
H2262 H 0.1129 0.7844 0.15202 0.0
C2263 C 0.06144 0.72632 0.22763 0.0
H2264 H 0.12488 0.77192 0.22939 0.0
C2265 C 0.05463 0.73307 0.18169 0.0
C2266 C 0.07292 0.75431 0.15365 0.0
H2267 H 0.04683 0.7103 0.24876 0.0
H2268 H 0.03494 0.72211 0.16882 0.0
C2269 C 0.09822 0.76799 0.17228 0.0
C2270 C 0.25169 0.34599 0.14502 0.0
C2271 C 0.24498 0.31991 0.14301 0.0
H2272 H 0.26111 0.3789 0.19047 0.0
C2273 C 0.24507 0.30784 0.18801 0.0
H2274 H 0.25172 0.356 0.11144 0.0
C2275 C 0.25129 0.32137 0.23354 0.0
C2276 C 0.2568 0.34711 0.23564 0.0
H2277 H 0.24008 0.28785 0.18813 0.0
H2278 H 0.25063 0.31127 0.26744 0.0
C2279 C 0.2571 0.35921 0.19053 0.0
C2280 C 0.3072 0.06529 1.04232 0.0
C2281 C 0.32167 0.07611 0.08579 0.0
H2282 H 0.30683 0.06324 0.9626 0.0
C2283 C 0.34833 0.0932 0.08017 0.0
H2284 H 0.28667 0.05212 1.04476 0.0
C2285 C 0.35998 0.09979 1.03277 0.0
C2286 C 0.34543 0.08933 0.98919 0.0
H2287 H 0.36023 0.10209 0.11249 0.0
H2288 H 0.38037 0.11349 1.03031 0.0
C2289 C 0.31888 0.07169 0.99493 0.0
C2290 C 0.925 0.24539 0.98636 0.0
C2291 C 0.90901 0.25638 0.98196 0.0
H2292 H 0.94316 0.23042 1.03464 0.0
C2293 C 0.90015 0.26165 1.02653 0.0
H2294 H 0.93219 0.24079 0.95331 0.0
C2295 C 0.90671 0.2559 0.07343 0.0
C2296 C 0.92216 0.24434 0.07782 0.0
H2297 H 0.88777 0.26997 1.02528 0.0
H2298 H 0.89908 0.26003 0.10642 0.0
C2299 C 0.93132 0.23935 1.03332 0.0
C2300 C 0.75759 0.64951 1.01856 0.0
C2301 C 0.73764 0.64739 0.98763 0.0
H2302 H 0.78044 0.66574 0.08385 0.0
C2303 C 0.72442 0.6602 1.00281 0.0
H2304 H 0.76848 0.64025 1.00851 0.0
C2305 C 0.73092 0.67444 1.04777 0.0
C2306 C 0.75147 0.67703 0.07753 0.0
H2307 H 0.70911 0.65927 0.98 0.0
H2308 H 0.72046 0.68407 0.05835 0.0
C2309 C 0.76459 0.66431 0.06203 0.0
C2310 C 0.35457 0.26758 0.52003 0.0
C2311 C 0.33959 0.25926 0.47644 0.0
H2312 H 0.35562 0.26654 0.5998 0.0
C2313 C 0.3127 0.24363 0.48224 0.0
H2314 H 0.37529 0.27956 0.51749 0.0
C2315 C 0.30134 0.23582 0.52977 0.0
C2316 C 0.3164 0.24366 0.57334 0.0
H2317 H 0.3004 0.23666 0.44985 0.0
H2318 H 0.28071 0.22319 0.53225 0.0
C2319 C 0.34318 0.26008 0.56754 0.0
C2320 C 0.7369 0.08746 0.5656 0.0
C2321 C 0.75263 0.07622 0.57025 0.0
H2322 H 0.71817 0.10151 0.51702 0.0
C2323 C 0.76014 0.06915 0.52611 0.0
H2324 H 0.73071 0.09335 0.59837 0.0
C2325 C 0.75264 0.07365 0.4791 0.0
C2326 C 0.7376 0.08565 0.47451 0.0
H2327 H 0.77219 0.06047 0.52774 0.0
H2328 H 0.75929 0.06834 0.44619 0.0
C2329 C 0.72967 0.09223 0.51865 0.0
C2330 C 0.93573 0.68195 0.54366 0.0
C2331 C 0.91701 0.68403 0.57187 0.0
H2332 H 0.94395 0.66718 0.4771 0.0
C2333 C 0.89146 0.67109 0.55452 0.0
H2334 H 0.95559 0.69169 0.55576 0.0
C2335 C 0.88469 0.65643 0.51082 0.0
C2336 C 0.90333 0.6548 0.48168 0.0
H2337 H 0.87647 0.67209 0.57515 0.0
H2338 H 0.86475 0.64682 0.49917 0.0
C2339 C 0.92905 0.66793 0.49855 0.0
C2340 C 0.98356 0.46944 0.10138 0.0
C2341 C 0.00276 0.47865 0.13815 0.0
H2342 H 0.96282 0.47869 1.04842 0.0
C2343 C 0.01684 0.50499 0.14806 0.0
H2344 H 0.97274 0.44918 0.09245 0.0
C2345 C 0.01182 0.52188 0.12168 0.0
C2346 C 0.9923 0.5127 0.08552 0.0
H2347 H 0.03232 0.51271 0.175 0.0
H2348 H 0.02283 0.54214 0.13058 0.0
C2349 C 0.97834 0.48635 0.07524 0.0
C2350 C 0.52293 0.51022 0.11476 0.0
C2351 C 0.50687 0.51561 0.14411 0.0
H2352 H 0.52569 0.48938 1.05337 0.0
C2353 C 0.4806 0.50418 0.13206 0.0
H2354 H 0.54336 0.51917 0.12213 0.0
C2355 C 0.4706 0.48764 0.09171 0.0
C2356 C 0.48653 0.48173 0.06325 0.0
H2357 H 0.46776 0.50832 0.15329 0.0
H2358 H 0.45018 0.47863 0.08437 0.0
C2359 C 0.51291 0.49367 0.07449 0.0
C2360 C 0.49886 0.98129 0.08368 0.0
C2361 C 0.50824 0.00719 0.07152 0.0
H2362 H 0.4742 0.94972 0.13003 0.0
C2363 C 0.49905 0.02123 0.09771 0.0
H2364 H 0.50569 0.96999 0.06453 0.0
C2365 C 0.48121 0.00969 0.13594 0.0
C2366 C 0.47212 0.98388 0.14849 0.0
H2367 H 0.50615 0.04135 0.08969 0.0
H2368 H 0.47427 0.02089 0.15511 0.0
C2369 C 0.4812 0.96983 0.12208 0.0
C2370 C 0.51957 0.00981 0.63809 0.0
C2371 C 0.50381 0.98392 0.65144 0.0
H2372 H 0.52371 0.04121 0.59394 0.0
C2373 C 0.47952 0.96959 0.62907 0.0
H2374 H 0.53853 0.02125 0.65415 0.0
C2375 C 0.47132 0.98079 0.59358 0.0
C2376 C 0.48706 0.00667 0.58019 0.0
H2377 H 0.46705 0.94944 0.63774 0.0
H2378 H 0.4524 0.96925 0.57743 0.0
C2379 C 0.51129 0.02107 0.60276 0.0
C2380 C 0.97386 0.49489 0.58876 0.0
C2381 C 0.98794 0.48345 0.57162 0.0
H2382 H 0.97136 0.52017 0.6412 0.0
C2383 C 0.01097 0.48914 0.59543 0.0
H2384 H 0.95585 0.49065 0.5715 0.0
C2385 C 0.01937 0.50534 0.63635 0.0
C2386 C 0.00536 0.51688 0.65348 0.0
H2387 H 0.02214 0.48046 0.58358 0.0
H2388 H 0.03733 0.5094 0.65357 0.0
C2389 C 0.98241 0.51133 0.62946 0.0
C2390 C 0.50823 0.52082 0.6271 0.0
C2391 C 0.51703 0.51296 0.58593 0.0
H2392 H 0.47958 0.51005 0.68352 0.0
C2393 C 0.50345 0.48722 0.57094 0.0
H2394 H 0.51855 0.54051 0.63997 0.0
C2395 C 0.48155 0.46965 0.59676 0.0
C2396 C 0.47264 0.47754 0.6377 0.0
H2397 H 0.51012 0.48042 0.54023 0.0
H2398 H 0.47126 0.44996 0.58385 0.0
C2399 C 0.48628 0.50325 0.65287 0.0
C2400 C 0.63902 0.81563 0.4298 0.0
C2401 C 0.65277 0.84022 0.40822 0.0
H2402 H 0.6389 0.78933 0.48348 0.0
C2403 C 0.67756 0.85749 0.42551 0.0
H2404 H 0.61966 0.80198 0.41794 0.0
C2405 C 0.68824 0.8505 0.46406 0.0
C2406 C 0.67459 0.82588 0.48551 0.0
H2407 H 0.68854 0.8767 0.41019 0.0
H2408 H 0.70758 0.86423 0.47593 0.0
C2409 C 0.64978 0.80857 0.46826 0.0
C2410 C 0.18844 0.83789 0.46241 0.0
C2411 C 0.17273 0.84627 0.48447 0.0
H2412 H 0.19097 0.81218 0.41156 0.0
C2413 C 0.1466 0.83442 0.47133 0.0
H2414 H 0.20874 0.84686 0.47109 0.0
C2415 C 0.13646 0.8148 0.43635 0.0
C2416 C 0.15222 0.80652 0.41413 0.0
H2417 H 0.13403 0.84068 0.48715 0.0
H2418 H 0.11615 0.80576 0.4277 0.0
C2419 C 0.17834 0.81837 0.42734 0.0
C2420 C 0.17114 0.31473 0.41519 0.0
C2421 C 0.17952 0.34009 0.40018 0.0
H2422 H 0.14794 0.28426 0.46516 0.0
C2423 C 0.16994 0.3542 0.42495 0.0
H2424 H 0.17825 0.30338 0.3972 0.0
C2425 C 0.15287 0.34339 0.46463 0.0
C2426 C 0.14474 0.31814 0.48 0.0
H2427 H 0.17622 0.37392 0.41478 0.0
H2428 H 0.14576 0.35472 0.48272 0.0
C2429 C 0.15413 0.30396 0.45492 0.0
C2430 C 0.15636 0.30822 0.95675 0.0
C2431 C 0.181 0.32387 0.97685 0.0
H2432 H 0.12787 0.30522 0.90541 0.0
C2433 C 0.19549 0.34957 0.96141 0.0
H2434 H 0.14492 0.28814 0.96701 0.0
C2435 C 0.18599 0.35915 0.92513 0.0
C2436 C 0.16169 0.34329 0.90384 0.0
H2437 H 0.21465 0.36199 0.97587 0.0
H2438 H 0.19769 0.37908 0.91406 0.0
C2439 C 0.14687 0.3178 0.92035 0.0
C2440 C 0.68493 0.84127 0.97054 0.0
C2441 C 0.66862 0.85095 0.98245 0.0
H2442 H 0.68924 0.81302 0.93 0.0
C2443 C 0.64331 0.83856 0.96485 0.0
H2444 H 0.70481 0.85108 0.98264 0.0
C2445 C 0.63477 0.81766 0.9334 0.0
C2446 C 0.65129 0.80846 0.91938 0.0
H2447 H 0.63059 0.84604 0.97307 0.0
H2448 H 0.61513 0.8088 0.92015 0.0
C2449 C 0.67629 0.82007 0.93916 0.0
C2450 C 0.15154 0.80182 0.96304 0.0
C2451 C 0.14211 0.81745 0.98111 0.0
H2452 H 0.17842 0.79899 0.91519 0.0
C2453 C 0.15254 0.84265 0.96275 0.0
H2454 H 0.14358 0.78217 0.97574 0.0
C2455 C 0.17174 0.85195 0.92682 0.0
C2456 C 0.18145 0.8365 0.90915 0.0
H2457 H 0.14543 0.85513 0.975 0.0
H2458 H 0.17949 0.87156 0.91404 0.0
C2459 C 0.17104 0.81126 0.92736 0.0
C2460 C 0.30645 0.14618 0.74975 0.0
C2461 C 0.32072 0.17262 0.73919 0.0
H2462 H 0.30241 0.11523 0.79507 0.0
C2463 C 0.342 0.18849 0.76889 0.0
H2464 H 0.28965 0.13347 0.72804 0.0
C2465 C 0.34882 0.17816 0.80839 0.0
C2466 C 0.33493 0.1516 0.81822 0.0
H2467 H 0.35312 0.209 0.76239 0.0
H2468 H 0.36572 0.19089 0.82983 0.0
C2469 C 0.31334 0.13581 0.78909 0.0
C2470 C 0.862 0.1785 0.78448 0.0
C2471 C 0.847 0.18596 0.81223 0.0
H2472 H 0.86301 0.15519 0.72599 0.0
C2473 C 0.82039 0.17396 0.80325 0.0
H2474 H 0.88258 0.18747 0.7901 0.0
C2475 C 0.8093 0.15595 0.76551 0.0
C2476 C 0.82447 0.14915 0.73669 0.0
H2477 H 0.80824 0.17937 0.82361 0.0
H2478 H 0.78874 0.14705 0.75967 0.0
C2479 C 0.85089 0.16047 0.74681 0.0
C2480 C 0.83772 0.68978 0.77173 0.0
C2481 C 0.8478 0.67593 0.74781 0.0
H2482 H 0.8119 0.68957 0.82646 0.0
C2483 C 0.83901 0.65036 0.76187 0.0
H2484 H 0.8444 0.7097 0.76253 0.0
C2485 C 0.82063 0.63894 0.79929 0.0
C2486 C 0.81053 0.65281 0.82316 0.0
H2487 H 0.84668 0.6393 0.74471 0.0
H2488 H 0.8139 0.61902 0.80858 0.0
C2489 C 0.81945 0.67842 0.80925 0.0
C2490 C 0.85179 0.67715 0.29547 0.0
C2491 C 0.83598 0.6525 0.31522 0.0
H2492 H 0.85487 0.70642 0.24655 0.0
C2493 C 0.8103 0.6381 0.29927 0.0
H2494 H 0.87179 0.68858 0.30629 0.0
C2495 C 0.80063 0.6482 0.26426 0.0
C2496 C 0.81645 0.67292 0.24473 0.0
H2497 H 0.79773 0.61883 0.3131 0.0
H2498 H 0.78061 0.63689 0.25358 0.0
C2499 C 0.8422 0.68715 0.26032 0.0
C2500 C 0.34678 0.1792 0.31031 0.0
C2501 C 0.33074 0.1897 0.30412 0.0
H2502 H 0.35527 0.15025 0.28847 0.0
C2503 C 0.3107 0.17898 0.26914 0.0
H2504 H 0.363 0.1877 0.33552 0.0
C2505 C 0.30637 0.15758 0.2416 0.0
C2506 C 0.32221 0.14685 0.24852 0.0
H2507 H 0.2985 0.18727 0.26289 0.0
H2508 H 0.29006 0.14887 0.21663 0.0
C2509 C 0.34277 0.1582 0.2823 0.0
C2510 C 0.83794 0.15309 0.23585 0.0
C2511 C 0.85054 0.17967 0.24361 0.0
H2512 H 0.80641 0.11645 0.25631 0.0
C2513 C 0.8405 0.18987 0.27826 0.0
H2514 H 0.84559 0.14465 0.21029 0.0
C2515 C 0.81872 0.17373 0.30584 0.0
C2516 C 0.80636 0.14714 0.29863 0.0
H2517 H 0.84995 0.21035 0.28522 0.0
H2518 H 0.81117 0.18217 0.33163 0.0
C2519 C 0.81599 0.13693 0.26318 0.0
loop_
_geom_bond_atom_site_label_1
_geom_bond_atom_site_label_2
_geom_bond_distance
_geom_bond_site_symmetry_2
_ccdc_geom_bond_type
Eu0 C9 2.828 . S
Eu0 O11 2.392 . S
Eu0 O13 2.418 . S
Eu0 O18 2.373 . S
Eu0 O21 2.488 . S
Eu0 O22 2.471 . S
Eu0 O23 2.349 . S
Eu1 O10 2.373 . S
Eu1 O14 2.488 1_554 S
Eu1 O15 2.471 1_554 S
Eu1 O16 2.349 . S
Eu1 O19 2.392 . S
Eu1 O20 2.418 . S
Eu1 C30 2.828 1_554 S
C2 O20 1.244 . S
C2 O23 1.265 . S
C3 C4 1.379 . S
C3 C7 1.373 . S
C3 C9 1.505 . S
C4 C3 1.379 . S
C4 C6 1.369 . S
C4 H32 0.930 . S
C5 C7 1.383 . S
C5 C8 1.382 . S
C5 H33 0.930 . S
C6 C4 1.369 . S
C6 C8 1.392 . S
C6 H34 0.930 . S
C7 C3 1.373 . S
C7 C5 1.383 . S
C7 H35 0.931 . S
C8 C5 1.382 . S
C8 C6 1.392 . S
C9 Eu0 2.828 . S
C9 C3 1.505 . S
C9 O21 1.249 . S
C9 O22 1.244 . S
O10 Eu1 2.373 . S
O10 C12 1.258 . S
O11 Eu0 2.392 . S
O11 C12 1.242 . S
C12 O10 1.258 . S
C12 O11 1.242 . S
O13 Eu0 2.418 . S
O13 C17 1.244 . S
O14 Eu1 2.488 1_556 S
O14 C30 1.249 . S
O15 Eu1 2.471 1_556 S
O15 C30 1.244 . S
O16 Eu1 2.349 . S
O16 C17 1.265 . S
C17 O13 1.244 . S
C17 O16 1.265 . S
O18 Eu0 2.373 . S
O18 C31 1.258 . S
O19 Eu1 2.392 . S
O19 C31 1.242 . S
O20 Eu1 2.418 . S
O20 C2 1.244 . S
O21 Eu0 2.488 . S
O21 C9 1.249 . S
O22 Eu0 2.471 . S
O22 C9 1.244 . S
O23 Eu0 2.349 . S
O23 C2 1.265 . S
C24 C25 1.379 . S
C24 C28 1.373 1_455 S
C24 C30 1.505 . S
C25 C24 1.379 . S
C25 C27 1.369 . S
C25 H36 0.930 . S
C26 C28 1.383 . S
C26 C29 1.382 1_655 S
C26 H37 0.930 . S
C27 C25 1.369 . S
C27 C29 1.392 . S
C27 H38 0.930 . S
C28 C24 1.373 1_655 S
C28 C26 1.383 . S
C28 H39 0.931 . S
C29 C26 1.382 1_455 S
C29 C27 1.392 . S
C30 Eu1 2.828 1_556 S
C30 O14 1.249 . S
C30 O15 1.244 . S
C30 C24 1.505 . S
C31 O18 1.258 . S
C31 O19 1.242 . S
H32 C4 0.930 . S
H33 C5 0.930 . S
H34 C6 0.930 . S
H35 C7 0.931 . S
H36 C25 0.930 . S
H37 C26 0.930 . S
H38 C27 0.930 . S
H39 C28 0.931 . S
Eu40 C49 2.828 . S
Eu40 O51 2.392 . S
Eu40 O53 2.418 . S
Eu40 O58 2.373 . S
Eu40 O61 2.488 . S
Eu40 O62 2.471 . S
Eu40 O63 2.349 . S
Eu41 O50 2.373 . S
Eu41 O54 2.488 1_554 S
Eu41 O55 2.471 1_554 S
Eu41 O56 2.349 . S
Eu41 O59 2.392 . S
Eu41 O60 2.418 . S
Eu41 C70 2.828 1_554 S
C42 O60 1.244 . S
C42 O63 1.265 . S
C43 C44 1.379 . S
C43 C47 1.373 . S
C43 C49 1.505 . S
C44 C43 1.379 . S
C44 C46 1.369 . S
C44 H72 0.930 . S
C45 C47 1.383 . S
C45 C48 1.382 . S
C45 H73 0.930 . S
C46 C44 1.369 . S
C46 C48 1.392 . S
C46 H74 0.930 . S
C47 C43 1.373 . S
C47 C45 1.383 . S
C47 H75 0.931 . S
C48 C45 1.382 . S
C48 C46 1.392 . S
C49 Eu40 2.828 . S
C49 C43 1.505 . S
C49 O61 1.249 . S
C49 O62 1.244 . S
O50 Eu41 2.373 . S
O50 C52 1.258 . S
O51 Eu40 2.392 . S
O51 C52 1.242 . S
C52 O50 1.258 . S
C52 O51 1.242 . S
O53 Eu40 2.418 . S
O53 C57 1.244 . S
O54 Eu41 2.488 1_556 S
O54 C70 1.249 . S
O55 Eu41 2.471 1_556 S
O55 C70 1.244 . S
O56 Eu41 2.349 . S
O56 C57 1.265 . S
C57 O53 1.244 . S
C57 O56 1.265 . S
O58 Eu40 2.373 . S
O58 C71 1.258 . S
O59 Eu41 2.392 . S
O59 C71 1.242 . S
O60 Eu41 2.418 . S
O60 C42 1.244 . S
O61 Eu40 2.488 . S
O61 C49 1.249 . S
O62 Eu40 2.471 . S
O62 C49 1.244 . S
O63 Eu40 2.349 . S
O63 C42 1.265 . S
C64 C65 1.379 . S
C64 C68 1.373 . S
C64 C70 1.505 . S
C65 C64 1.379 . S
C65 C67 1.369 . S
C65 H76 0.930 . S
C66 C68 1.383 . S
C66 C69 1.382 . S
C66 H77 0.930 . S
C67 C65 1.369 . S
C67 C69 1.392 . S
C67 H78 0.930 . S
C68 C64 1.373 . S
C68 C66 1.383 . S
C68 H79 0.931 . S
C69 C66 1.382 . S
C69 C67 1.392 . S
C70 Eu41 2.828 1_556 S
C70 O54 1.249 . S
C70 O55 1.244 . S
C70 C64 1.505 . S
C71 O58 1.258 . S
C71 O59 1.242 . S
H72 C44 0.930 . S
H73 C45 0.930 . S
H74 C46 0.930 . S
H75 C47 0.931 . S
H76 C65 0.930 . S
H77 C66 0.930 . S
H78 C67 0.930 . S
H79 C68 0.931 . S
Eu80 C89 2.828 . S
Eu80 O91 2.392 . S
Eu80 O93 2.418 . S
Eu80 O98 2.373 . S
Eu80 O101 2.488 . S
Eu80 O102 2.471 . S
Eu80 O103 2.349 . S
Eu81 O90 2.373 . S
Eu81 O94 2.488 1_554 S
Eu81 O95 2.471 1_554 S
Eu81 O96 2.349 . S
Eu81 O99 2.392 . S
Eu81 O100 2.418 . S
Eu81 C110 2.828 1_554 S
C82 O100 1.244 . S
C82 O103 1.265 . S
C83 C84 1.379 . S
C83 C87 1.373 . S
C83 C89 1.505 . S
C84 C83 1.379 . S
C84 C86 1.369 . S
C84 H112 0.930 . S
C85 C87 1.383 . S
C85 C88 1.382 . S
C85 H113 0.930 . S
C86 C84 1.369 . S
C86 C88 1.392 . S
C86 H114 0.930 . S
C87 C83 1.373 . S
C87 C85 1.383 . S
C87 H115 0.931 . S
C88 C85 1.382 . S
C88 C86 1.392 . S
C89 Eu80 2.828 . S
C89 C83 1.505 . S
C89 O101 1.249 . S
C89 O102 1.244 . S
O90 Eu81 2.373 . S
O90 C92 1.258 . S
O91 Eu80 2.392 . S
O91 C92 1.242 . S
C92 O90 1.258 . S
C92 O91 1.242 . S
O93 Eu80 2.418 . S
O93 C97 1.244 . S
O94 Eu81 2.488 1_556 S
O94 C110 1.249 . S
O95 Eu81 2.471 1_556 S
O95 C110 1.244 . S
O96 Eu81 2.349 . S
O96 C97 1.265 . S
C97 O93 1.244 . S
C97 O96 1.265 . S
O98 Eu80 2.373 . S
O98 C111 1.258 . S
O99 Eu81 2.392 . S
O99 C111 1.242 . S
O100 Eu81 2.418 . S
O100 C82 1.244 . S
O101 Eu80 2.488 . S
O101 C89 1.249 . S
O102 Eu80 2.471 . S
O102 C89 1.244 . S
O103 Eu80 2.349 . S
O103 C82 1.265 . S
C104 C105 1.379 . S
C104 C108 1.373 1_565 S
C104 C110 1.505 . S
C105 C104 1.379 . S
C105 C107 1.369 . S
C105 H116 0.930 . S
C106 C108 1.383 . S
C106 C109 1.382 1_545 S
C106 H117 0.930 . S
C107 C105 1.369 . S
C107 C109 1.392 . S
C107 H118 0.930 . S
C108 C104 1.373 1_545 S
C108 C106 1.383 . S
C108 H119 0.931 . S
C109 C106 1.382 1_565 S
C109 C107 1.392 . S
C110 Eu81 2.828 1_556 S
C110 O94 1.249 . S
C110 O95 1.244 . S
C110 C104 1.505 . S
C111 O98 1.258 . S
C111 O99 1.242 . S
H112 C84 0.930 . S
H113 C85 0.930 . S
H114 C86 0.930 . S
H115 C87 0.931 . S
H116 C105 0.930 . S
H117 C106 0.930 . S
H118 C107 0.930 . S
H119 C108 0.931 . S
Eu120 C129 2.828 . S
Eu120 O131 2.392 . S
Eu120 O133 2.418 . S
Eu120 O138 2.373 . S
Eu120 O141 2.488 . S
Eu120 O142 2.471 . S
Eu120 O143 2.349 . S
Eu121 O130 2.373 . S
Eu121 O134 2.488 . S
Eu121 O135 2.471 . S
Eu121 O136 2.349 . S
Eu121 O139 2.392 . S
Eu121 O140 2.418 . S
Eu121 C150 2.828 . S
C122 O140 1.244 . S
C122 O143 1.265 . S
C123 C124 1.379 . S
C123 C127 1.373 . S
C123 C129 1.505 . S
C124 C123 1.379 . S
C124 C126 1.369 . S
C124 H152 0.930 . S
C125 C127 1.383 . S
C125 C128 1.382 . S
C125 H153 0.930 . S
C126 C124 1.369 . S
C126 C128 1.392 . S
C126 H154 0.930 . S
C127 C123 1.373 . S
C127 C125 1.383 . S
C127 H155 0.931 . S
C128 C125 1.382 . S
C128 C126 1.392 . S
C129 Eu120 2.828 . S
C129 C123 1.505 . S
C129 O141 1.249 . S
C129 O142 1.244 . S
O130 Eu121 2.373 . S
O130 C132 1.258 . S
O131 Eu120 2.392 . S
O131 C132 1.242 . S
C132 O130 1.258 . S
C132 O131 1.242 . S
O133 Eu120 2.418 . S
O133 C137 1.244 . S
O134 Eu121 2.488 . S
O134 C150 1.249 . S
O135 Eu121 2.471 . S
O135 C150 1.244 . S
O136 Eu121 2.349 . S
O136 C137 1.265 . S
C137 O133 1.244 . S
C137 O136 1.265 . S
O138 Eu120 2.373 . S
O138 C151 1.258 . S
O139 Eu121 2.392 . S
O139 C151 1.242 . S
O140 Eu121 2.418 . S
O140 C122 1.244 . S
O141 Eu120 2.488 . S
O141 C129 1.249 . S
O142 Eu120 2.471 . S
O142 C129 1.244 . S
O143 Eu120 2.349 . S
O143 C122 1.265 . S
C144 C145 1.379 . S
C144 C148 1.373 1_545 S
C144 C150 1.505 . S
C145 C144 1.379 . S
C145 C147 1.369 . S
C145 H156 0.930 . S
C146 C148 1.383 . S
C146 C149 1.382 1_565 S
C146 H157 0.930 . S
C147 C145 1.369 . S
C147 C149 1.392 . S
C147 H158 0.930 . S
C148 C144 1.373 1_565 S
C148 C146 1.383 . S
C148 H159 0.931 . S
C149 C146 1.382 1_545 S
C149 C147 1.392 . S
C150 Eu121 2.828 . S
C150 O134 1.249 . S
C150 O135 1.244 . S
C150 C144 1.505 . S
C151 O138 1.258 . S
C151 O139 1.242 . S
H152 C124 0.930 . S
H153 C125 0.930 . S
H154 C126 0.930 . S
H155 C127 0.931 . S
H156 C145 0.930 . S
H157 C146 0.930 . S
H158 C147 0.930 . S
H159 C148 0.931 . S
Eu160 C169 2.828 . S
Eu160 O171 2.392 . S
Eu160 O173 2.418 . S
Eu160 O178 2.373 . S
Eu160 O181 2.488 . S
Eu160 O182 2.471 . S
Eu160 O183 2.349 . S
Eu161 O170 2.373 . S
Eu161 O174 2.488 . S
Eu161 O175 2.471 . S
Eu161 O176 2.349 . S
Eu161 O179 2.392 . S
Eu161 O180 2.418 . S
Eu161 C190 2.828 . S
C162 O180 1.244 . S
C162 O183 1.265 . S
C163 C164 1.379 . S
C163 C167 1.373 . S
C163 C169 1.505 . S
C164 C163 1.379 . S
C164 C166 1.369 . S
C164 H192 0.930 . S
C165 C167 1.383 . S
C165 C168 1.382 . S
C165 H193 0.930 . S
C166 C164 1.369 . S
C166 C168 1.392 . S
C166 H194 0.930 . S
C167 C163 1.373 . S
C167 C165 1.383 . S
C167 H195 0.931 . S
C168 C165 1.382 . S
C168 C166 1.392 . S
C169 Eu160 2.828 . S
C169 C163 1.505 . S
C169 O181 1.249 . S
C169 O182 1.244 . S
O170 Eu161 2.373 . S
O170 C172 1.258 . S
O171 Eu160 2.392 . S
O171 C172 1.242 . S
C172 O170 1.258 . S
C172 O171 1.242 . S
O173 Eu160 2.418 . S
O173 C177 1.244 . S
O174 Eu161 2.488 . S
O174 C190 1.249 . S
O175 Eu161 2.471 . S
O175 C190 1.244 . S
O176 Eu161 2.349 . S
O176 C177 1.265 . S
C177 O173 1.244 . S
C177 O176 1.265 . S
O178 Eu160 2.373 . S
O178 C191 1.258 . S
O179 Eu161 2.392 . S
O179 C191 1.242 . S
O180 Eu161 2.418 . S
O180 C162 1.244 . S
O181 Eu160 2.488 . S
O181 C169 1.249 . S
O182 Eu160 2.471 . S
O182 C169 1.244 . S
O183 Eu160 2.349 . S
O183 C162 1.265 . S
C184 C185 1.379 . S
C184 C188 1.373 1_655 S
C184 C190 1.505 . S
C185 C184 1.379 . S
C185 C187 1.369 . S
C185 H196 0.930 . S
C186 C188 1.383 . S
C186 C189 1.382 1_455 S
C186 H197 0.930 . S
C187 C185 1.369 . S
C187 C189 1.392 . S
C187 H198 0.930 . S
C188 C184 1.373 1_455 S
C188 C186 1.383 . S
C188 H199 0.931 . S
C189 C186 1.382 1_655 S
C189 C187 1.392 . S
C190 Eu161 2.828 . S
C190 O174 1.249 . S
C190 O175 1.244 . S
C190 C184 1.505 . S
C191 O178 1.258 . S
C191 O179 1.242 . S
H192 C164 0.930 . S
H193 C165 0.930 . S
H194 C166 0.930 . S
H195 C167 0.931 . S
H196 C185 0.930 . S
H197 C186 0.930 . S
H198 C187 0.930 . S
H199 C188 0.931 . S
Eu200 C209 2.828 . S
Eu200 O211 2.392 . S
Eu200 O213 2.418 . S
Eu200 O218 2.373 . S
Eu200 O221 2.488 . S
Eu200 O222 2.471 . S
Eu200 O223 2.349 . S
Eu201 O210 2.373 . S
Eu201 O214 2.488 . S
Eu201 O215 2.471 . S
Eu201 O216 2.349 . S
Eu201 O219 2.392 . S
Eu201 O220 2.418 . S
Eu201 C230 2.828 . S
C202 O220 1.244 . S
C202 O223 1.265 . S
C203 C204 1.379 . S
C203 C207 1.373 . S
C203 C209 1.505 . S
C204 C203 1.379 . S
C204 C206 1.369 . S
C204 H232 0.930 . S
C205 C207 1.383 . S
C205 C208 1.382 . S
C205 H233 0.930 . S
C206 C204 1.369 . S
C206 C208 1.392 . S
C206 H234 0.930 . S
C207 C203 1.373 . S
C207 C205 1.383 . S
C207 H235 0.931 . S
C208 C205 1.382 . S
C208 C206 1.392 . S
C209 Eu200 2.828 . S
C209 C203 1.505 . S
C209 O221 1.249 . S
C209 O222 1.244 . S
O210 Eu201 2.373 . S
O210 C212 1.258 . S
O211 Eu200 2.392 . S
O211 C212 1.242 . S
C212 O210 1.258 . S
C212 O211 1.242 . S
O213 Eu200 2.418 . S
O213 C217 1.244 . S
O214 Eu201 2.488 . S
O214 C230 1.249 . S
O215 Eu201 2.471 . S
O215 C230 1.244 . S
O216 Eu201 2.349 . S
O216 C217 1.265 . S
C217 O213 1.244 . S
C217 O216 1.265 . S
O218 Eu200 2.373 . S
O218 C231 1.258 . S
O219 Eu201 2.392 . S
O219 C231 1.242 . S
O220 Eu201 2.418 . S
O220 C202 1.244 . S
O221 Eu200 2.488 . S
O221 C209 1.249 . S
O222 Eu200 2.471 . S
O222 C209 1.244 . S
O223 Eu200 2.349 . S
O223 C202 1.265 . S
C224 C225 1.379 . S
C224 C228 1.373 . S
C224 C230 1.505 . S
C225 C224 1.379 . S
C225 C227 1.369 . S
C225 H236 0.930 . S
C226 C228 1.383 . S
C226 C229 1.382 . S
C226 H237 0.930 . S
C227 C225 1.369 . S
C227 C229 1.392 . S
C227 H238 0.930 . S
C228 C224 1.373 . S
C228 C226 1.383 . S
C228 H239 0.931 . S
C229 C226 1.382 . S
C229 C227 1.392 . S
C230 Eu201 2.828 . S
C230 O214 1.249 . S
C230 O215 1.244 . S
C230 C224 1.505 . S
C231 O218 1.258 . S
C231 O219 1.242 . S
H232 C204 0.930 . S
H233 C205 0.930 . S
H234 C206 0.930 . S
H235 C207 0.931 . S
H236 C225 0.930 . S
H237 C226 0.930 . S
H238 C227 0.930 . S
H239 C228 0.931 . S
Eu240 C249 2.828 . S
Eu240 O251 2.392 1_554 S
Eu240 O253 2.418 . S
Eu240 O258 2.373 . S
Eu240 O261 2.488 . S
Eu240 O262 2.471 . S
Eu240 O263 2.349 . S
Eu241 O250 2.373 . S
Eu241 O254 2.488 . S
Eu241 O255 2.471 . S
Eu241 O256 2.349 . S
Eu241 O259 2.392 1_556 S
Eu241 O260 2.418 . S
Eu241 C270 2.828 . S
C242 O260 1.244 1_554 S
C242 O263 1.265 . S
C243 C244 1.379 . S
C243 C247 1.373 1_655 S
C243 C249 1.505 . S
C244 C243 1.379 . S
C244 C246 1.369 . S
C244 H272 0.930 . S
C245 C247 1.383 . S
C245 C248 1.382 1_455 S
C245 H273 0.930 . S
C246 C244 1.369 . S
C246 C248 1.392 . S
C246 H274 0.930 . S
C247 C243 1.373 1_455 S
C247 C245 1.383 . S
C247 H275 0.931 . S
C248 C245 1.382 1_655 S
C248 C246 1.392 . S
C249 Eu240 2.828 . S
C249 C243 1.505 . S
C249 O261 1.249 . S
C249 O262 1.244 . S
O250 Eu241 2.373 . S
O250 C252 1.258 . S
O251 Eu240 2.392 1_556 S
O251 C252 1.242 . S
C252 O250 1.258 . S
C252 O251 1.242 . S
O253 Eu240 2.418 . S
O253 C257 1.244 . S
O254 Eu241 2.488 . S
O254 C270 1.249 . S
O255 Eu241 2.471 . S
O255 C270 1.244 . S
O256 Eu241 2.349 . S
O256 C257 1.265 1_556 S
C257 O253 1.244 . S
C257 O256 1.265 1_554 S
O258 Eu240 2.373 . S
O258 C271 1.258 . S
O259 Eu241 2.392 1_554 S
O259 C271 1.242 . S
O260 Eu241 2.418 . S
O260 C242 1.244 1_556 S
O261 Eu240 2.488 . S
O261 C249 1.249 . S
O262 Eu240 2.471 . S
O262 C249 1.244 . S
O263 Eu240 2.349 . S
O263 C242 1.265 . S
C264 C265 1.379 . S
C264 C268 1.373 . S
C264 C270 1.505 . S
C265 C264 1.379 . S
C265 C267 1.369 . S
C265 H276 0.930 . S
C266 C268 1.383 . S
C266 C269 1.382 . S
C266 H277 0.930 . S
C267 C265 1.369 . S
C267 C269 1.392 . S
C267 H278 0.930 . S
C268 C264 1.373 . S
C268 C266 1.383 . S
C268 H279 0.931 . S
C269 C266 1.382 . S
C269 C267 1.392 . S
C270 Eu241 2.828 . S
C270 O254 1.249 . S
C270 O255 1.244 . S
C270 C264 1.505 . S
C271 O258 1.258 . S
C271 O259 1.242 . S
H272 C244 0.930 . S
H273 C245 0.930 . S
H274 C246 0.930 . S
H275 C247 0.931 . S
H276 C265 0.930 . S
H277 C266 0.930 . S
H278 C267 0.930 . S
H279 C268 0.931 . S
Eu280 C289 2.828 . S
Eu280 O291 2.392 1_554 S
Eu280 O293 2.418 . S
Eu280 O298 2.373 . S
Eu280 O301 2.488 . S
Eu280 O302 2.471 . S
Eu280 O303 2.349 . S
Eu281 O290 2.373 . S
Eu281 O294 2.488 . S
Eu281 O295 2.471 . S
Eu281 O296 2.349 . S
Eu281 O299 2.392 1_556 S
Eu281 O300 2.418 . S
Eu281 C310 2.828 . S
C282 O300 1.244 1_554 S
C282 O303 1.265 . S
C283 C284 1.379 . S
C283 C287 1.373 . S
C283 C289 1.505 . S
C284 C283 1.379 . S
C284 C286 1.369 . S
C284 H312 0.930 . S
C285 C287 1.383 . S
C285 C288 1.382 . S
C285 H313 0.930 . S
C286 C284 1.369 . S
C286 C288 1.392 . S
C286 H314 0.930 . S
C287 C283 1.373 . S
C287 C285 1.383 . S
C287 H315 0.931 . S
C288 C285 1.382 . S
C288 C286 1.392 . S
C289 Eu280 2.828 . S
C289 C283 1.505 . S
C289 O301 1.249 . S
C289 O302 1.244 . S
O290 Eu281 2.373 . S
O290 C292 1.258 . S
O291 Eu280 2.392 1_556 S
O291 C292 1.242 . S
C292 O290 1.258 . S
C292 O291 1.242 . S
O293 Eu280 2.418 . S
O293 C297 1.244 . S
O294 Eu281 2.488 . S
O294 C310 1.249 . S
O295 Eu281 2.471 . S
O295 C310 1.244 . S
O296 Eu281 2.349 . S
O296 C297 1.265 1_556 S
C297 O293 1.244 . S
C297 O296 1.265 1_554 S
O298 Eu280 2.373 . S
O298 C311 1.258 . S
O299 Eu281 2.392 1_554 S
O299 C311 1.242 . S
O300 Eu281 2.418 . S
O300 C282 1.244 1_556 S
O301 Eu280 2.488 . S
O301 C289 1.249 . S
O302 Eu280 2.471 . S
O302 C289 1.244 . S
O303 Eu280 2.349 . S
O303 C282 1.265 . S
C304 C305 1.379 . S
C304 C308 1.373 . S
C304 C310 1.505 . S
C305 C304 1.379 . S
C305 C307 1.369 . S
C305 H316 0.930 . S
C306 C308 1.383 . S
C306 C309 1.382 . S
C306 H317 0.930 . S
C307 C305 1.369 . S
C307 C309 1.392 . S
C307 H318 0.930 . S
C308 C304 1.373 . S
C308 C306 1.383 . S
C308 H319 0.931 . S
C309 C306 1.382 . S
C309 C307 1.392 . S
C310 Eu281 2.828 . S
C310 O294 1.249 . S
C310 O295 1.244 . S
C310 C304 1.505 . S
C311 O298 1.258 . S
C311 O299 1.242 . S
H312 C284 0.930 . S
H313 C285 0.930 . S
H314 C286 0.930 . S
H315 C287 0.931 . S
H316 C305 0.930 . S
H317 C306 0.930 . S
H318 C307 0.930 . S
H319 C308 0.931 . S
Eu320 C329 2.828 . S
Eu320 O331 2.392 1_554 S
Eu320 O333 2.418 . S
Eu320 O338 2.373 . S
Eu320 O341 2.488 . S
Eu320 O342 2.471 . S
Eu320 O343 2.349 . S
Eu321 O330 2.373 . S
Eu321 O334 2.488 . S
Eu321 O335 2.471 . S
Eu321 O336 2.349 . S
Eu321 O339 2.392 1_556 S
Eu321 O340 2.418 . S
Eu321 C350 2.828 . S
C322 O340 1.244 1_554 S
C322 O343 1.265 . S
C323 C324 1.379 . S
C323 C327 1.373 1_545 S
C323 C329 1.505 . S
C324 C323 1.379 . S
C324 C326 1.369 . S
C324 H352 0.930 . S
C325 C327 1.383 . S
C325 C328 1.382 1_565 S
C325 H353 0.930 . S
C326 C324 1.369 . S
C326 C328 1.392 . S
C326 H354 0.930 . S
C327 C323 1.373 1_565 S
C327 C325 1.383 . S
C327 H355 0.931 . S
C328 C325 1.382 1_545 S
C328 C326 1.392 . S
C329 Eu320 2.828 . S
C329 C323 1.505 . S
C329 O341 1.249 . S
C329 O342 1.244 . S
O330 Eu321 2.373 . S
O330 C332 1.258 . S
O331 Eu320 2.392 1_556 S
O331 C332 1.242 . S
C332 O330 1.258 . S
C332 O331 1.242 . S
O333 Eu320 2.418 . S
O333 C337 1.244 . S
O334 Eu321 2.488 . S
O334 C350 1.249 . S
O335 Eu321 2.471 . S
O335 C350 1.244 . S
O336 Eu321 2.349 . S
O336 C337 1.265 1_556 S
C337 O333 1.244 . S
C337 O336 1.265 1_554 S
O338 Eu320 2.373 . S
O338 C351 1.258 . S
O339 Eu321 2.392 1_554 S
O339 C351 1.242 . S
O340 Eu321 2.418 . S
O340 C322 1.244 1_556 S
O341 Eu320 2.488 . S
O341 C329 1.249 . S
O342 Eu320 2.471 . S
O342 C329 1.244 . S
O343 Eu320 2.349 . S
O343 C322 1.265 . S
C344 C345 1.379 . S
C344 C348 1.373 . S
C344 C350 1.505 . S
C345 C344 1.379 . S
C345 C347 1.369 . S
C345 H356 0.930 . S
C346 C348 1.383 . S
C346 C349 1.382 . S
C346 H357 0.930 . S
C347 C345 1.369 . S
C347 C349 1.392 . S
C347 H358 0.930 . S
C348 C344 1.373 . S
C348 C346 1.383 . S
C348 H359 0.931 . S
C349 C346 1.382 . S
C349 C347 1.392 . S
C350 Eu321 2.828 . S
C350 O334 1.249 . S
C350 O335 1.244 . S
C350 C344 1.505 . S
C351 O338 1.258 . S
C351 O339 1.242 . S
H352 C324 0.930 . S
H353 C325 0.930 . S
H354 C326 0.930 . S
H355 C327 0.931 . S
H356 C345 0.930 . S
H357 C346 0.930 . S
H358 C347 0.930 . S
H359 C348 0.931 . S
Eu360 C369 2.828 . S
Eu360 O371 2.392 . S
Eu360 O373 2.418 . S
Eu360 O378 2.373 . S
Eu360 O381 2.488 . S
Eu360 O382 2.471 . S
Eu360 O383 2.349 . S
Eu361 O370 2.373 . S
Eu361 O374 2.488 . S
Eu361 O375 2.471 . S
Eu361 O376 2.349 . S
Eu361 O379 2.392 . S
Eu361 O380 2.418 . S
Eu361 C390 2.828 . S
C362 O380 1.244 . S
C362 O383 1.265 . S
C363 C364 1.379 . S
C363 C367 1.373 1_565 S
C363 C369 1.505 . S
C364 C363 1.379 . S
C364 C366 1.369 . S
C364 H392 0.930 . S
C365 C367 1.383 . S
C365 C368 1.382 1_545 S
C365 H393 0.930 . S
C366 C364 1.369 . S
C366 C368 1.392 . S
C366 H394 0.930 . S
C367 C363 1.373 1_545 S
C367 C365 1.383 . S
C367 H395 0.931 . S
C368 C365 1.382 1_565 S
C368 C366 1.392 . S
C369 Eu360 2.828 . S
C369 C363 1.505 . S
C369 O381 1.249 . S
C369 O382 1.244 . S
O370 Eu361 2.373 . S
O370 C372 1.258 . S
O371 Eu360 2.392 . S
O371 C372 1.242 . S
C372 O370 1.258 . S
C372 O371 1.242 . S
O373 Eu360 2.418 . S
O373 C377 1.244 . S
O374 Eu361 2.488 . S
O374 C390 1.249 . S
O375 Eu361 2.471 . S
O375 C390 1.244 . S
O376 Eu361 2.349 . S
O376 C377 1.265 . S
C377 O373 1.244 . S
C377 O376 1.265 . S
O378 Eu360 2.373 . S
O378 C391 1.258 . S
O379 Eu361 2.392 . S
O379 C391 1.242 . S
O380 Eu361 2.418 . S
O380 C362 1.244 . S
O381 Eu360 2.488 . S
O381 C369 1.249 . S
O382 Eu360 2.471 . S
O382 C369 1.244 . S
O383 Eu360 2.349 . S
O383 C362 1.265 . S
C384 C385 1.379 . S
C384 C388 1.373 . S
C384 C390 1.505 . S
C385 C384 1.379 . S
C385 C387 1.369 . S
C385 H396 0.930 . S
C386 C388 1.383 . S
C386 C389 1.382 . S
C386 H397 0.930 . S
C387 C385 1.369 . S
C387 C389 1.392 . S
C387 H398 0.930 . S
C388 C384 1.373 . S
C388 C386 1.383 . S
C388 H399 0.931 . S
C389 C386 1.382 . S
C389 C387 1.392 . S
C390 Eu361 2.828 . S
C390 O374 1.249 . S
C390 O375 1.244 . S
C390 C384 1.505 . S
C391 O378 1.258 . S
C391 O379 1.242 . S
H392 C364 0.930 . S
H393 C365 0.930 . S
H394 C366 0.930 . S
H395 C367 0.931 . S
H396 C385 0.930 . S
H397 C386 0.930 . S
H398 C387 0.930 . S
H399 C388 0.931 . S
Eu400 C409 2.828 . S
Eu400 O411 2.392 . S
Eu400 O413 2.418 . S
Eu400 O418 2.373 . S
Eu400 O421 2.488 . S
Eu400 O422 2.471 . S
Eu400 O423 2.349 . S
Eu401 O410 2.373 . S
Eu401 O414 2.488 . S
Eu401 O415 2.471 . S
Eu401 O416 2.349 . S
Eu401 O419 2.392 . S
Eu401 O420 2.418 . S
Eu401 C430 2.828 . S
C402 O420 1.244 . S
C402 O423 1.265 . S
C403 C404 1.379 . S
C403 C407 1.373 1_455 S
C403 C409 1.505 . S
C404 C403 1.379 . S
C404 C406 1.369 . S
C404 H432 0.930 . S
C405 C407 1.383 . S
C405 C408 1.382 1_655 S
C405 H433 0.930 . S
C406 C404 1.369 . S
C406 C408 1.392 . S
C406 H434 0.930 . S
C407 C403 1.373 1_655 S
C407 C405 1.383 . S
C407 H435 0.931 . S
C408 C405 1.382 1_455 S
C408 C406 1.392 . S
C409 Eu400 2.828 . S
C409 C403 1.505 . S
C409 O421 1.249 . S
C409 O422 1.244 . S
O410 Eu401 2.373 . S
O410 C412 1.258 . S
O411 Eu400 2.392 . S
O411 C412 1.242 . S
C412 O410 1.258 . S
C412 O411 1.242 . S
O413 Eu400 2.418 . S
O413 C417 1.244 . S
O414 Eu401 2.488 . S
O414 C430 1.249 . S
O415 Eu401 2.471 . S
O415 C430 1.244 . S
O416 Eu401 2.349 . S
O416 C417 1.265 . S
C417 O413 1.244 . S
C417 O416 1.265 . S
O418 Eu400 2.373 . S
O418 C431 1.258 . S
O419 Eu401 2.392 . S
O419 C431 1.242 . S
O420 Eu401 2.418 . S
O420 C402 1.244 . S
O421 Eu400 2.488 . S
O421 C409 1.249 . S
O422 Eu400 2.471 . S
O422 C409 1.244 . S
O423 Eu400 2.349 . S
O423 C402 1.265 . S
C424 C425 1.379 . S
C424 C428 1.373 . S
C424 C430 1.505 . S
C425 C424 1.379 . S
C425 C427 1.369 . S
C425 H436 0.930 . S
C426 C428 1.383 . S
C426 C429 1.382 . S
C426 H437 0.930 . S
C427 C425 1.369 . S
C427 C429 1.392 . S
C427 H438 0.930 . S
C428 C424 1.373 . S
C428 C426 1.383 . S
C428 H439 0.931 . S
C429 C426 1.382 . S
C429 C427 1.392 . S
C430 Eu401 2.828 . S
C430 O414 1.249 . S
C430 O415 1.244 . S
C430 C424 1.505 . S
C431 O418 1.258 . S
C431 O419 1.242 . S
H432 C404 0.930 . S
H433 C405 0.930 . S
H434 C406 0.930 . S
H435 C407 0.931 . S
H436 C425 0.930 . S
H437 C426 0.930 . S
H438 C427 0.930 . S
H439 C428 0.931 . S
Eu440 C449 2.828 . S
Eu440 O451 2.392 . S
Eu440 O453 2.418 . S
Eu440 O458 2.373 . S
Eu440 O461 2.488 . S
Eu440 O462 2.471 . S
Eu440 O463 2.349 . S
Eu441 O450 2.373 . S
Eu441 O454 2.488 . S
Eu441 O455 2.471 . S
Eu441 O456 2.349 . S
Eu441 O459 2.392 . S
Eu441 O460 2.418 . S
Eu441 C470 2.828 . S
C442 O460 1.244 . S
C442 O463 1.265 . S
C443 C444 1.379 . S
C443 C447 1.373 . S
C443 C449 1.505 . S
C444 C443 1.379 . S
C444 C446 1.369 . S
C444 H472 0.930 . S
C445 C447 1.383 . S
C445 C448 1.382 . S
C445 H473 0.930 . S
C446 C444 1.369 . S
C446 C448 1.392 . S
C446 H474 0.930 . S
C447 C443 1.373 . S
C447 C445 1.383 . S
C447 H475 0.931 . S
C448 C445 1.382 . S
C448 C446 1.392 . S
C449 Eu440 2.828 . S
C449 C443 1.505 . S
C449 O461 1.249 . S
C449 O462 1.244 . S
O450 Eu441 2.373 . S
O450 C452 1.258 . S
O451 Eu440 2.392 . S
O451 C452 1.242 . S
C452 O450 1.258 . S
C452 O451 1.242 . S
O453 Eu440 2.418 . S
O453 C457 1.244 . S
O454 Eu441 2.488 . S
O454 C470 1.249 . S
O455 Eu441 2.471 . S
O455 C470 1.244 . S
O456 Eu441 2.349 . S
O456 C457 1.265 . S
C457 O453 1.244 . S
C457 O456 1.265 . S
O458 Eu440 2.373 . S
O458 C471 1.258 . S
O459 Eu441 2.392 . S
O459 C471 1.242 . S
O460 Eu441 2.418 . S
O460 C442 1.244 . S
O461 Eu440 2.488 . S
O461 C449 1.249 . S
O462 Eu440 2.471 . S
O462 C449 1.244 . S
O463 Eu440 2.349 . S
O463 C442 1.265 . S
C464 C465 1.379 . S
C464 C468 1.373 . S
C464 C470 1.505 . S
C465 C464 1.379 . S
C465 C467 1.369 . S
C465 H476 0.930 . S
C466 C468 1.383 . S
C466 C469 1.382 . S
C466 H477 0.930 . S
C467 C465 1.369 . S
C467 C469 1.392 . S
C467 H478 0.930 . S
C468 C464 1.373 . S
C468 C466 1.383 . S
C468 H479 0.931 . S
C469 C466 1.382 . S
C469 C467 1.392 . S
C470 Eu441 2.828 . S
C470 O454 1.249 . S
C470 O455 1.244 . S
C470 C464 1.505 . S
C471 O458 1.258 . S
C471 O459 1.242 . S
H472 C444 0.930 . S
H473 C445 0.930 . S
H474 C446 0.930 . S
H475 C447 0.931 . S
H476 C465 0.930 . S
H477 C466 0.930 . S
H478 C467 0.930 . S
H479 C468 0.931 . S
Eu480 C489 2.828 . S
Eu480 O491 2.392 . S
Eu480 O493 2.418 . S
Eu480 O498 2.373 . S
Eu480 O501 2.488 . S
Eu480 O502 2.471 . S
Eu480 O503 2.349 . S
Eu481 O490 2.373 . S
Eu481 O494 2.488 . S
Eu481 O495 2.471 . S
Eu481 O496 2.349 . S
Eu481 O499 2.392 . S
Eu481 O500 2.418 . S
Eu481 C510 2.828 . S
C482 O500 1.244 . S
C482 O503 1.265 . S
C483 C484 1.379 . S
C483 C487 1.373 . S
C483 C489 1.505 . S
C484 C483 1.379 . S
C484 C486 1.369 . S
C484 H512 0.930 . S
C485 C487 1.383 . S
C485 C488 1.382 . S
C485 H513 0.930 . S
C486 C484 1.369 . S
C486 C488 1.392 . S
C486 H514 0.930 . S
C487 C483 1.373 . S
C487 C485 1.383 . S
C487 H515 0.931 . S
C488 C485 1.382 . S
C488 C486 1.392 . S
C489 Eu480 2.828 . S
C489 C483 1.505 . S
C489 O501 1.249 . S
C489 O502 1.244 . S
O490 Eu481 2.373 . S
O490 C492 1.258 . S
O491 Eu480 2.392 . S
O491 C492 1.242 . S
C492 O490 1.258 . S
C492 O491 1.242 . S
O493 Eu480 2.418 . S
O493 C497 1.244 . S
O494 Eu481 2.488 . S
O494 C510 1.249 . S
O495 Eu481 2.471 . S
O495 C510 1.244 . S
O496 Eu481 2.349 . S
O496 C497 1.265 . S
C497 O493 1.244 . S
C497 O496 1.265 . S
O498 Eu480 2.373 . S
O498 C511 1.258 . S
O499 Eu481 2.392 . S
O499 C511 1.242 . S
O500 Eu481 2.418 . S
O500 C482 1.244 . S
O501 Eu480 2.488 . S
O501 C489 1.249 . S
O502 Eu480 2.471 . S
O502 C489 1.244 . S
O503 Eu480 2.349 . S
O503 C482 1.265 . S
C504 C505 1.379 . S
C504 C508 1.373 . S
C504 C510 1.505 . S
C505 C504 1.379 . S
C505 C507 1.369 . S
C505 H516 0.930 . S
C506 C508 1.383 . S
C506 C509 1.382 . S
C506 H517 0.930 . S
C507 C505 1.369 . S
C507 C509 1.392 . S
C507 H518 0.930 . S
C508 C504 1.373 . S
C508 C506 1.383 . S
C508 H519 0.931 . S
C509 C506 1.382 . S
C509 C507 1.392 . S
C510 Eu481 2.828 . S
C510 O494 1.249 . S
C510 O495 1.244 . S
C510 C504 1.505 . S
C511 O498 1.258 . S
C511 O499 1.242 . S
H512 C484 0.930 . S
H513 C485 0.930 . S
H514 C486 0.930 . S
H515 C487 0.931 . S
H516 C505 0.930 . S
H517 C506 0.930 . S
H518 C507 0.930 . S
H519 C508 0.931 . S
Eu520 C529 2.828 . S
Eu520 O531 2.392 . S
Eu520 O533 2.418 . S
Eu520 O538 2.373 . S
Eu520 O541 2.488 . S
Eu520 O542 2.471 . S
Eu520 O543 2.349 . S
Eu521 O530 2.373 . S
Eu521 O534 2.488 . S
Eu521 O535 2.471 . S
Eu521 O536 2.349 . S
Eu521 O539 2.392 . S
Eu521 O540 2.418 . S
Eu521 C550 2.828 . S
C522 O540 1.244 . S
C522 O543 1.265 . S
C523 C524 1.379 . S
C523 C527 1.373 . S
C523 C529 1.505 . S
C524 C523 1.379 . S
C524 C526 1.369 . S
C524 H552 0.930 . S
C525 C527 1.383 . S
C525 C528 1.382 . S
C525 H553 0.930 . S
C526 C524 1.369 . S
C526 C528 1.392 . S
C526 H554 0.930 . S
C527 C523 1.373 . S
C527 C525 1.383 . S
C527 H555 0.931 . S
C528 C525 1.382 . S
C528 C526 1.392 . S
C529 Eu520 2.828 . S
C529 C523 1.505 . S
C529 O541 1.249 . S
C529 O542 1.244 . S
O530 Eu521 2.373 . S
O530 C532 1.258 . S
O531 Eu520 2.392 . S
O531 C532 1.242 . S
C532 O530 1.258 . S
C532 O531 1.242 . S
O533 Eu520 2.418 . S
O533 C537 1.244 . S
O534 Eu521 2.488 . S
O534 C550 1.249 . S
O535 Eu521 2.471 . S
O535 C550 1.244 . S
O536 Eu521 2.349 . S
O536 C537 1.265 . S
C537 O533 1.244 . S
C537 O536 1.265 . S
O538 Eu520 2.373 . S
O538 C551 1.258 . S
O539 Eu521 2.392 . S
O539 C551 1.242 . S
O540 Eu521 2.418 . S
O540 C522 1.244 . S
O541 Eu520 2.488 . S
O541 C529 1.249 . S
O542 Eu520 2.471 . S
O542 C529 1.244 . S
O543 Eu520 2.349 . S
O543 C522 1.265 . S
C544 C545 1.379 . S
C544 C548 1.373 . S
C544 C550 1.505 . S
C545 C544 1.379 . S
C545 C547 1.369 . S
C545 H556 0.930 . S
C546 C548 1.383 . S
C546 C549 1.382 . S
C546 H557 0.930 . S
C547 C545 1.369 . S
C547 C549 1.392 . S
C547 H558 0.930 . S
C548 C544 1.373 . S
C548 C546 1.383 . S
C548 H559 0.931 . S
C549 C546 1.382 . S
C549 C547 1.392 . S
C550 Eu521 2.828 . S
C550 O534 1.249 . S
C550 O535 1.244 . S
C550 C544 1.505 . S
C551 O538 1.258 . S
C551 O539 1.242 . S
H552 C524 0.930 . S
H553 C525 0.930 . S
H554 C526 0.930 . S
H555 C527 0.931 . S
H556 C545 0.930 . S
H557 C546 0.930 . S
H558 C547 0.930 . S
H559 C548 0.931 . S
Eu560 C569 2.828 . S
Eu560 O571 2.392 . S
Eu560 O573 2.418 . S
Eu560 O578 2.373 . S
Eu560 O581 2.488 . S
Eu560 O582 2.471 . S
Eu560 O583 2.349 . S
Eu561 O570 2.373 . S
Eu561 O574 2.488 . S
Eu561 O575 2.471 . S
Eu561 O576 2.349 . S
Eu561 O579 2.392 . S
Eu561 O580 2.418 . S
Eu561 C590 2.828 . S
C562 O580 1.244 . S
C562 O583 1.265 . S
C563 C564 1.379 . S
C563 C567 1.373 . S
C563 C569 1.505 . S
C564 C563 1.379 . S
C564 C566 1.369 . S
C564 H592 0.930 . S
C565 C567 1.383 . S
C565 C568 1.382 . S
C565 H593 0.930 . S
C566 C564 1.369 . S
C566 C568 1.392 . S
C566 H594 0.930 . S
C567 C563 1.373 . S
C567 C565 1.383 . S
C567 H595 0.931 . S
C568 C565 1.382 . S
C568 C566 1.392 . S
C569 Eu560 2.828 . S
C569 C563 1.505 . S
C569 O581 1.249 . S
C569 O582 1.244 . S
O570 Eu561 2.373 . S
O570 C572 1.258 . S
O571 Eu560 2.392 . S
O571 C572 1.242 . S
C572 O570 1.258 . S
C572 O571 1.242 . S
O573 Eu560 2.418 . S
O573 C577 1.244 . S
O574 Eu561 2.488 . S
O574 C590 1.249 . S
O575 Eu561 2.471 . S
O575 C590 1.244 . S
O576 Eu561 2.349 . S
O576 C577 1.265 . S
C577 O573 1.244 . S
C577 O576 1.265 . S
O578 Eu560 2.373 . S
O578 C591 1.258 . S
O579 Eu561 2.392 . S
O579 C591 1.242 . S
O580 Eu561 2.418 . S
O580 C562 1.244 . S
O581 Eu560 2.488 . S
O581 C569 1.249 . S
O582 Eu560 2.471 . S
O582 C569 1.244 . S
O583 Eu560 2.349 . S
O583 C562 1.265 . S
C584 C585 1.379 . S
C584 C588 1.373 . S
C584 C590 1.505 . S
C585 C584 1.379 . S
C585 C587 1.369 . S
C585 H596 0.930 . S
C586 C588 1.383 . S
C586 C589 1.382 . S
C586 H597 0.930 . S
C587 C585 1.369 . S
C587 C589 1.392 . S
C587 H598 0.930 . S
C588 C584 1.373 . S
C588 C586 1.383 . S
C588 H599 0.931 . S
C589 C586 1.382 . S
C589 C587 1.392 . S
C590 Eu561 2.828 . S
C590 O574 1.249 . S
C590 O575 1.244 . S
C590 C584 1.505 . S
C591 O578 1.258 . S
C591 O579 1.242 . S
H592 C564 0.930 . S
H593 C565 0.930 . S
H594 C566 0.930 . S
H595 C567 0.931 . S
H596 C585 0.930 . S
H597 C586 0.930 . S
H598 C587 0.930 . S
H599 C588 0.931 . S
Eu600 C609 2.828 . S
Eu600 O611 2.392 . S
Eu600 O613 2.418 . S
Eu600 O618 2.373 . S
Eu600 O621 2.488 . S
Eu600 O622 2.471 . S
Eu600 O623 2.349 . S
Eu601 O610 2.373 . S
Eu601 O614 2.488 . S
Eu601 O615 2.471 . S
Eu601 O616 2.349 . S
Eu601 O619 2.392 . S
Eu601 O620 2.418 . S
Eu601 C630 2.828 . S
C602 O620 1.244 . S
C602 O623 1.265 . S
C603 C604 1.379 . S
C603 C607 1.373 . S
C603 C609 1.505 . S
C604 C603 1.379 . S
C604 C606 1.369 . S
C604 H632 0.930 . S
C605 C607 1.383 . S
C605 C608 1.382 . S
C605 H633 0.930 . S
C606 C604 1.369 . S
C606 C608 1.392 . S
C606 H634 0.930 . S
C607 C603 1.373 . S
C607 C605 1.383 . S
C607 H635 0.931 . S
C608 C605 1.382 . S
C608 C606 1.392 . S
C609 Eu600 2.828 . S
C609 C603 1.505 . S
C609 O621 1.249 . S
C609 O622 1.244 . S
O610 Eu601 2.373 . S
O610 C612 1.258 . S
O611 Eu600 2.392 . S
O611 C612 1.242 . S
C612 O610 1.258 . S
C612 O611 1.242 . S
O613 Eu600 2.418 . S
O613 C617 1.244 . S
O614 Eu601 2.488 . S
O614 C630 1.249 . S
O615 Eu601 2.471 . S
O615 C630 1.244 . S
O616 Eu601 2.349 . S
O616 C617 1.265 . S
C617 O613 1.244 . S
C617 O616 1.265 . S
O618 Eu600 2.373 . S
O618 C631 1.258 . S
O619 Eu601 2.392 . S
O619 C631 1.242 . S
O620 Eu601 2.418 . S
O620 C602 1.244 . S
O621 Eu600 2.488 . S
O621 C609 1.249 . S
O622 Eu600 2.471 . S
O622 C609 1.244 . S
O623 Eu600 2.349 . S
O623 C602 1.265 . S
C624 C625 1.379 . S
C624 C628 1.373 . S
C624 C630 1.505 1_554 S
C625 C624 1.379 . S
C625 C627 1.369 . S
C625 H636 0.930 . S
C626 C628 1.383 . S
C626 C629 1.382 . S
C626 H637 0.930 . S
C627 C625 1.369 . S
C627 C629 1.392 . S
C627 H638 0.930 . S
C628 C624 1.373 . S
C628 C626 1.383 . S
C628 H639 0.931 . S
C629 C626 1.382 . S
C629 C627 1.392 . S
C630 Eu601 2.828 . S
C630 O614 1.249 . S
C630 O615 1.244 . S
C630 C624 1.505 1_556 S
C631 O618 1.258 . S
C631 O619 1.242 . S
H632 C604 0.930 . S
H633 C605 0.930 . S
H634 C606 0.930 . S
H635 C607 0.931 . S
H636 C625 0.930 . S
H637 C626 0.930 . S
H638 C627 0.930 . S
H639 C628 0.931 . S
Eu640 C649 2.828 . S
Eu640 O651 2.392 . S
Eu640 O653 2.418 . S
Eu640 O658 2.373 . S
Eu640 O661 2.488 . S
Eu640 O662 2.471 . S
Eu640 O663 2.349 . S
Eu641 O650 2.373 . S
Eu641 O654 2.488 . S
Eu641 O655 2.471 . S
Eu641 O656 2.349 . S
Eu641 O659 2.392 . S
Eu641 O660 2.418 . S
Eu641 C670 2.828 . S
C642 O660 1.244 . S
C642 O663 1.265 . S
C643 C644 1.379 . S
C643 C647 1.373 . S
C643 C649 1.505 . S
C644 C643 1.379 . S
C644 C646 1.369 . S
C644 H672 0.930 . S
C645 C647 1.383 . S
C645 C648 1.382 . S
C645 H673 0.930 . S
C646 C644 1.369 . S
C646 C648 1.392 . S
C646 H674 0.930 . S
C647 C643 1.373 . S
C647 C645 1.383 . S
C647 H675 0.931 . S
C648 C645 1.382 . S
C648 C646 1.392 . S
C649 Eu640 2.828 . S
C649 C643 1.505 . S
C649 O661 1.249 . S
C649 O662 1.244 . S
O650 Eu641 2.373 . S
O650 C652 1.258 . S
O651 Eu640 2.392 . S
O651 C652 1.242 . S
C652 O650 1.258 . S
C652 O651 1.242 . S
O653 Eu640 2.418 . S
O653 C657 1.244 . S
O654 Eu641 2.488 . S
O654 C670 1.249 . S
O655 Eu641 2.471 . S
O655 C670 1.244 . S
O656 Eu641 2.349 . S
O656 C657 1.265 . S
C657 O653 1.244 . S
C657 O656 1.265 . S
O658 Eu640 2.373 . S
O658 C671 1.258 . S
O659 Eu641 2.392 . S
O659 C671 1.242 . S
O660 Eu641 2.418 . S
O660 C642 1.244 . S
O661 Eu640 2.488 . S
O661 C649 1.249 . S
O662 Eu640 2.471 . S
O662 C649 1.244 . S
O663 Eu640 2.349 . S
O663 C642 1.265 . S
C664 C665 1.379 . S
C664 C668 1.373 . S
C664 C670 1.505 1_554 S
C665 C664 1.379 . S
C665 C667 1.369 . S
C665 H676 0.930 . S
C666 C668 1.383 . S
C666 C669 1.382 . S
C666 H677 0.930 . S
C667 C665 1.369 . S
C667 C669 1.392 . S
C667 H678 0.930 . S
C668 C664 1.373 . S
C668 C666 1.383 . S
C668 H679 0.931 . S
C669 C666 1.382 . S
C669 C667 1.392 . S
C670 Eu641 2.828 . S
C670 O654 1.249 . S
C670 O655 1.244 . S
C670 C664 1.505 1_556 S
C671 O658 1.258 . S
C671 O659 1.242 . S
H672 C644 0.930 . S
H673 C645 0.930 . S
H674 C646 0.930 . S
H675 C647 0.931 . S
H676 C665 0.930 . S
H677 C666 0.930 . S
H678 C667 0.930 . S
H679 C668 0.931 . S
Eu680 C689 2.828 . S
Eu680 O691 2.392 . S
Eu680 O693 2.418 . S
Eu680 O698 2.373 . S
Eu680 O701 2.488 . S
Eu680 O702 2.471 . S
Eu680 O703 2.349 . S
Eu681 O690 2.373 . S
Eu681 O694 2.488 . S
Eu681 O695 2.471 . S
Eu681 O696 2.349 . S
Eu681 O699 2.392 . S
Eu681 O700 2.418 . S
Eu681 C710 2.828 . S
C682 O700 1.244 . S
C682 O703 1.265 . S
C683 C684 1.379 . S
C683 C687 1.373 . S
C683 C689 1.505 . S
C684 C683 1.379 . S
C684 C686 1.369 . S
C684 H712 0.930 . S
C685 C687 1.383 . S
C685 C688 1.382 . S
C685 H713 0.930 . S
C686 C684 1.369 . S
C686 C688 1.392 . S
C686 H714 0.930 . S
C687 C683 1.373 . S
C687 C685 1.383 . S
C687 H715 0.931 . S
C688 C685 1.382 . S
C688 C686 1.392 . S
C689 Eu680 2.828 . S
C689 C683 1.505 . S
C689 O701 1.249 . S
C689 O702 1.244 . S
O690 Eu681 2.373 . S
O690 C692 1.258 . S
O691 Eu680 2.392 . S
O691 C692 1.242 . S
C692 O690 1.258 . S
C692 O691 1.242 . S
O693 Eu680 2.418 . S
O693 C697 1.244 . S
O694 Eu681 2.488 . S
O694 C710 1.249 . S
O695 Eu681 2.471 . S
O695 C710 1.244 . S
O696 Eu681 2.349 . S
O696 C697 1.265 . S
C697 O693 1.244 . S
C697 O696 1.265 . S
O698 Eu680 2.373 . S
O698 C711 1.258 . S
O699 Eu681 2.392 . S
O699 C711 1.242 . S
O700 Eu681 2.418 . S
O700 C682 1.244 . S
O701 Eu680 2.488 . S
O701 C689 1.249 . S
O702 Eu680 2.471 . S
O702 C689 1.244 . S
O703 Eu680 2.349 . S
O703 C682 1.265 . S
C704 C705 1.379 . S
C704 C708 1.373 . S
C704 C710 1.505 1_554 S
C705 C704 1.379 . S
C705 C707 1.369 . S
C705 H716 0.930 . S
C706 C708 1.383 . S
C706 C709 1.382 . S
C706 H717 0.930 . S
C707 C705 1.369 . S
C707 C709 1.392 . S
C707 H718 0.930 . S
C708 C704 1.373 . S
C708 C706 1.383 . S
C708 H719 0.931 . S
C709 C706 1.382 . S
C709 C707 1.392 . S
C710 Eu681 2.828 . S
C710 O694 1.249 . S
C710 O695 1.244 . S
C710 C704 1.505 1_556 S
C711 O698 1.258 . S
C711 O699 1.242 . S
H712 C684 0.930 . S
H713 C685 0.930 . S
H714 C686 0.930 . S
H715 C687 0.931 . S
H716 C705 0.930 . S
H717 C706 0.930 . S
H718 C707 0.930 . S
H719 C708 0.931 . S
Eu720 C729 2.828 . S
Eu720 O731 2.392 . S
Eu720 O733 2.418 . S
Eu720 O738 2.373 . S
Eu720 O741 2.488 . S
Eu720 O742 2.471 . S
Eu720 O743 2.349 . S
Eu721 O730 2.373 . S
Eu721 O734 2.488 . S
Eu721 O735 2.471 . S
Eu721 O736 2.349 . S
Eu721 O739 2.392 . S
Eu721 O740 2.418 . S
Eu721 C750 2.828 . S
C722 O740 1.244 . S
C722 O743 1.265 . S
C723 C724 1.379 . S
C723 C727 1.373 . S
C723 C729 1.505 . S
C724 C723 1.379 . S
C724 C726 1.369 . S
C724 H752 0.930 . S
C725 C727 1.383 . S
C725 C728 1.382 . S
C725 H753 0.930 . S
C726 C724 1.369 . S
C726 C728 1.392 . S
C726 H754 0.930 . S
C727 C723 1.373 . S
C727 C725 1.383 . S
C727 H755 0.931 . S
C728 C725 1.382 . S
C728 C726 1.392 . S
C729 Eu720 2.828 . S
C729 C723 1.505 . S
C729 O741 1.249 . S
C729 O742 1.244 . S
O730 Eu721 2.373 . S
O730 C732 1.258 . S
O731 Eu720 2.392 . S
O731 C732 1.242 . S
C732 O730 1.258 . S
C732 O731 1.242 . S
O733 Eu720 2.418 . S
O733 C737 1.244 . S
O734 Eu721 2.488 . S
O734 C750 1.249 . S
O735 Eu721 2.471 . S
O735 C750 1.244 . S
O736 Eu721 2.349 . S
O736 C737 1.265 . S
C737 O733 1.244 . S
C737 O736 1.265 . S
O738 Eu720 2.373 . S
O738 C751 1.258 . S
O739 Eu721 2.392 . S
O739 C751 1.242 . S
O740 Eu721 2.418 . S
O740 C722 1.244 . S
O741 Eu720 2.488 . S
O741 C729 1.249 . S
O742 Eu720 2.471 . S
O742 C729 1.244 . S
O743 Eu720 2.349 . S
O743 C722 1.265 . S
C744 C745 1.379 . S
C744 C748 1.373 . S
C744 C750 1.505 . S
C745 C744 1.379 . S
C745 C747 1.369 . S
C745 H756 0.930 . S
C746 C748 1.383 . S
C746 C749 1.382 . S
C746 H757 0.930 . S
C747 C745 1.369 . S
C747 C749 1.392 . S
C747 H758 0.930 . S
C748 C744 1.373 . S
C748 C746 1.383 . S
C748 H759 0.931 . S
C749 C746 1.382 . S
C749 C747 1.392 . S
C750 Eu721 2.828 . S
C750 O734 1.249 . S
C750 O735 1.244 . S
C750 C744 1.505 . S
C751 O738 1.258 . S
C751 O739 1.242 . S
H752 C724 0.930 . S
H753 C725 0.930 . S
H754 C726 0.930 . S
H755 C727 0.931 . S
H756 C745 0.930 . S
H757 C746 0.930 . S
H758 C747 0.930 . S
H759 C748 0.931 . S
Eu760 C769 2.828 . S
Eu760 O771 2.392 . S
Eu760 O773 2.418 . S
Eu760 O778 2.373 . S
Eu760 O781 2.488 . S
Eu760 O782 2.471 . S
Eu760 O783 2.349 . S
Eu761 O770 2.373 . S
Eu761 O774 2.488 . S
Eu761 O775 2.471 . S
Eu761 O776 2.349 . S
Eu761 O779 2.392 . S
Eu761 O780 2.418 . S
Eu761 C790 2.828 . S
C762 O780 1.244 . S
C762 O783 1.265 . S
C763 C764 1.379 . S
C763 C767 1.373 . S
C763 C769 1.505 . S
C764 C763 1.379 . S
C764 C766 1.369 . S
C764 H792 0.930 . S
C765 C767 1.383 . S
C765 C768 1.382 . S
C765 H793 0.930 . S
C766 C764 1.369 . S
C766 C768 1.392 . S
C766 H794 0.930 . S
C767 C763 1.373 . S
C767 C765 1.383 . S
C767 H795 0.931 . S
C768 C765 1.382 . S
C768 C766 1.392 . S
C769 Eu760 2.828 . S
C769 C763 1.505 . S
C769 O781 1.249 . S
C769 O782 1.244 . S
O770 Eu761 2.373 . S
O770 C772 1.258 . S
O771 Eu760 2.392 . S
O771 C772 1.242 . S
C772 O770 1.258 . S
C772 O771 1.242 . S
O773 Eu760 2.418 . S
O773 C777 1.244 . S
O774 Eu761 2.488 . S
O774 C790 1.249 . S
O775 Eu761 2.471 . S
O775 C790 1.244 . S
O776 Eu761 2.349 . S
O776 C777 1.265 . S
C777 O773 1.244 . S
C777 O776 1.265 . S
O778 Eu760 2.373 . S
O778 C791 1.258 . S
O779 Eu761 2.392 . S
O779 C791 1.242 . S
O780 Eu761 2.418 . S
O780 C762 1.244 . S
O781 Eu760 2.488 . S
O781 C769 1.249 . S
O782 Eu760 2.471 . S
O782 C769 1.244 . S
O783 Eu760 2.349 . S
O783 C762 1.265 . S
C784 C785 1.379 . S
C784 C788 1.373 . S
C784 C790 1.505 . S
C785 C784 1.379 . S
C785 C787 1.369 . S
C785 H796 0.930 . S
C786 C788 1.383 . S
C786 C789 1.382 . S
C786 H797 0.930 . S
C787 C785 1.369 . S
C787 C789 1.392 . S
C787 H798 0.930 . S
C788 C784 1.373 . S
C788 C786 1.383 . S
C788 H799 0.931 . S
C789 C786 1.382 . S
C789 C787 1.392 . S
C790 Eu761 2.828 . S
C790 O774 1.249 . S
C790 O775 1.244 . S
C790 C784 1.505 . S
C791 O778 1.258 . S
C791 O779 1.242 . S
H792 C764 0.930 . S
H793 C765 0.930 . S
H794 C766 0.930 . S
H795 C767 0.931 . S
H796 C785 0.930 . S
H797 C786 0.930 . S
H798 C787 0.930 . S
H799 C788 0.931 . S
Eu800 C809 2.828 . S
Eu800 O811 2.392 . S
Eu800 O813 2.418 . S
Eu800 O818 2.373 . S
Eu800 O821 2.488 . S
Eu800 O822 2.471 . S
Eu800 O823 2.349 . S
Eu801 O810 2.373 . S
Eu801 O814 2.488 . S
Eu801 O815 2.471 . S
Eu801 O816 2.349 . S
Eu801 O819 2.392 . S
Eu801 O820 2.418 . S
Eu801 C830 2.828 . S
C802 O820 1.244 . S
C802 O823 1.265 . S
C803 C804 1.379 . S
C803 C807 1.373 . S
C803 C809 1.505 . S
C804 C803 1.379 . S
C804 C806 1.369 . S
C804 H832 0.930 . S
C805 C807 1.383 . S
C805 C808 1.382 . S
C805 H833 0.930 . S
C806 C804 1.369 . S
C806 C808 1.392 . S
C806 H834 0.930 . S
C807 C803 1.373 . S
C807 C805 1.383 . S
C807 H835 0.931 . S
C808 C805 1.382 . S
C808 C806 1.392 . S
C809 Eu800 2.828 . S
C809 C803 1.505 . S
C809 O821 1.249 . S
C809 O822 1.244 . S
O810 Eu801 2.373 . S
O810 C812 1.258 . S
O811 Eu800 2.392 . S
O811 C812 1.242 . S
C812 O810 1.258 . S
C812 O811 1.242 . S
O813 Eu800 2.418 . S
O813 C817 1.244 . S
O814 Eu801 2.488 . S
O814 C830 1.249 . S
O815 Eu801 2.471 . S
O815 C830 1.244 . S
O816 Eu801 2.349 . S
O816 C817 1.265 . S
C817 O813 1.244 . S
C817 O816 1.265 . S
O818 Eu800 2.373 . S
O818 C831 1.258 . S
O819 Eu801 2.392 . S
O819 C831 1.242 . S
O820 Eu801 2.418 . S
O820 C802 1.244 . S
O821 Eu800 2.488 . S
O821 C809 1.249 . S
O822 Eu800 2.471 . S
O822 C809 1.244 . S
O823 Eu800 2.349 . S
O823 C802 1.265 . S
C824 C825 1.379 . S
C824 C828 1.373 . S
C824 C830 1.505 . S
C825 C824 1.379 . S
C825 C827 1.369 . S
C825 H836 0.930 . S
C826 C828 1.383 . S
C826 C829 1.382 . S
C826 H837 0.930 . S
C827 C825 1.369 . S
C827 C829 1.392 . S
C827 H838 0.930 . S
C828 C824 1.373 . S
C828 C826 1.383 . S
C828 H839 0.931 . S
C829 C826 1.382 . S
C829 C827 1.392 . S
C830 Eu801 2.828 . S
C830 O814 1.249 . S
C830 O815 1.244 . S
C830 C824 1.505 . S
C831 O818 1.258 . S
C831 O819 1.242 . S
H832 C804 0.930 . S
H833 C805 0.930 . S
H834 C806 0.930 . S
H835 C807 0.931 . S
H836 C825 0.930 . S
H837 C826 0.930 . S
H838 C827 0.930 . S
H839 C828 0.931 . S
Eu840 C849 2.828 . S
Eu840 O851 2.392 . S
Eu840 O853 2.418 . S
Eu840 O858 2.373 . S
Eu840 O861 2.488 . S
Eu840 O862 2.471 . S
Eu840 O863 2.349 . S
Eu841 O850 2.373 1_556 S
Eu841 O854 2.488 1_556 S
Eu841 O855 2.471 1_556 S
Eu841 O856 2.349 . S
Eu841 O859 2.392 . S
Eu841 O860 2.418 . S
Eu841 C870 2.828 1_556 S
C842 O860 1.244 . S
C842 O863 1.265 . S
C843 C844 1.379 . S
C843 C847 1.373 . S
C843 C849 1.505 . S
C844 C843 1.379 . S
C844 C846 1.369 . S
C844 H872 0.930 . S
C845 C847 1.383 . S
C845 C848 1.382 . S
C845 H873 0.930 . S
C846 C844 1.369 . S
C846 C848 1.392 . S
C846 H874 0.930 . S
C847 C843 1.373 . S
C847 C845 1.383 . S
C847 H875 0.931 . S
C848 C845 1.382 . S
C848 C846 1.392 . S
C849 Eu840 2.828 . S
C849 C843 1.505 . S
C849 O861 1.249 . S
C849 O862 1.244 . S
O850 Eu841 2.373 1_554 S
O850 C852 1.258 . S
O851 Eu840 2.392 . S
O851 C852 1.242 1_556 S
C852 O850 1.258 . S
C852 O851 1.242 1_554 S
O853 Eu840 2.418 . S
O853 C857 1.244 . S
O854 Eu841 2.488 1_554 S
O854 C870 1.249 . S
O855 Eu841 2.471 1_554 S
O855 C870 1.244 . S
O856 Eu841 2.349 . S
O856 C857 1.265 . S
C857 O853 1.244 . S
C857 O856 1.265 . S
O858 Eu840 2.373 . S
O858 C871 1.258 . S
O859 Eu841 2.392 . S
O859 C871 1.242 . S
O860 Eu841 2.418 . S
O860 C842 1.244 . S
O861 Eu840 2.488 . S
O861 C849 1.249 . S
O862 Eu840 2.471 . S
O862 C849 1.244 . S
O863 Eu840 2.349 . S
O863 C842 1.265 . S
C864 C865 1.379 . S
C864 C868 1.373 . S
C864 C870 1.505 . S
C865 C864 1.379 . S
C865 C867 1.369 . S
C865 H876 0.930 . S
C866 C868 1.383 . S
C866 C869 1.382 . S
C866 H877 0.930 . S
C867 C865 1.369 . S
C867 C869 1.392 . S
C867 H878 0.930 . S
C868 C864 1.373 . S
C868 C866 1.383 . S
C868 H879 0.931 . S
C869 C866 1.382 . S
C869 C867 1.392 . S
C870 Eu841 2.828 1_554 S
C870 O854 1.249 . S
C870 O855 1.244 . S
C870 C864 1.505 . S
C871 O858 1.258 . S
C871 O859 1.242 . S
H872 C844 0.930 . S
H873 C845 0.930 . S
H874 C846 0.930 . S
H875 C847 0.931 . S
H876 C865 0.930 . S
H877 C866 0.930 . S
H878 C867 0.930 . S
H879 C868 0.931 . S
Eu880 C889 2.828 . S
Eu880 O891 2.392 . S
Eu880 O893 2.418 . S
Eu880 O898 2.373 . S
Eu880 O901 2.488 . S
Eu880 O902 2.471 . S
Eu880 O903 2.349 . S
Eu881 O890 2.373 1_556 S
Eu881 O894 2.488 1_556 S
Eu881 O895 2.471 1_556 S
Eu881 O896 2.349 . S
Eu881 O899 2.392 . S
Eu881 O900 2.418 . S
Eu881 C910 2.828 1_556 S
C882 O900 1.244 . S
C882 O903 1.265 . S
C883 C884 1.379 . S
C883 C887 1.373 . S
C883 C889 1.505 . S
C884 C883 1.379 . S
C884 C886 1.369 . S
C884 H912 0.930 . S
C885 C887 1.383 . S
C885 C888 1.382 . S
C885 H913 0.930 . S
C886 C884 1.369 . S
C886 C888 1.392 . S
C886 H914 0.930 . S
C887 C883 1.373 . S
C887 C885 1.383 . S
C887 H915 0.931 . S
C888 C885 1.382 . S
C888 C886 1.392 . S
C889 Eu880 2.828 . S
C889 C883 1.505 . S
C889 O901 1.249 . S
C889 O902 1.244 . S
O890 Eu881 2.373 1_554 S
O890 C892 1.258 . S
O891 Eu880 2.392 . S
O891 C892 1.242 1_556 S
C892 O890 1.258 . S
C892 O891 1.242 1_554 S
O893 Eu880 2.418 . S
O893 C897 1.244 . S
O894 Eu881 2.488 1_554 S
O894 C910 1.249 . S
O895 Eu881 2.471 1_554 S
O895 C910 1.244 . S
O896 Eu881 2.349 . S
O896 C897 1.265 . S
C897 O893 1.244 . S
C897 O896 1.265 . S
O898 Eu880 2.373 . S
O898 C911 1.258 . S
O899 Eu881 2.392 . S
O899 C911 1.242 . S
O900 Eu881 2.418 . S
O900 C882 1.244 . S
O901 Eu880 2.488 . S
O901 C889 1.249 . S
O902 Eu880 2.471 . S
O902 C889 1.244 . S
O903 Eu880 2.349 . S
O903 C882 1.265 . S
C904 C905 1.379 . S
C904 C908 1.373 . S
C904 C910 1.505 . S
C905 C904 1.379 . S
C905 C907 1.369 . S
C905 H916 0.930 . S
C906 C908 1.383 . S
C906 C909 1.382 . S
C906 H917 0.930 . S
C907 C905 1.369 . S
C907 C909 1.392 . S
C907 H918 0.930 . S
C908 C904 1.373 . S
C908 C906 1.383 . S
C908 H919 0.931 . S
C909 C906 1.382 . S
C909 C907 1.392 . S
C910 Eu881 2.828 1_554 S
C910 O894 1.249 . S
C910 O895 1.244 . S
C910 C904 1.505 . S
C911 O898 1.258 . S
C911 O899 1.242 . S
H912 C884 0.930 . S
H913 C885 0.930 . S
H914 C886 0.930 . S
H915 C887 0.931 . S
H916 C905 0.930 . S
H917 C906 0.930 . S
H918 C907 0.930 . S
H919 C908 0.931 . S
Eu920 C929 2.828 . S
Eu920 O931 2.392 . S
Eu920 O933 2.418 . S
Eu920 O938 2.373 . S
Eu920 O941 2.488 . S
Eu920 O942 2.471 . S
Eu920 O943 2.349 . S
Eu921 O930 2.373 1_556 S
Eu921 O934 2.488 1_556 S
Eu921 O935 2.471 1_556 S
Eu921 O936 2.349 . S
Eu921 O939 2.392 . S
Eu921 O940 2.418 . S
Eu921 C950 2.828 1_556 S
C922 O940 1.244 . S
C922 O943 1.265 . S
C923 C924 1.379 . S
C923 C927 1.373 . S
C923 C929 1.505 . S
C924 C923 1.379 . S
C924 C926 1.369 . S
C924 H952 0.930 . S
C925 C927 1.383 . S
C925 C928 1.382 . S
C925 H953 0.930 . S
C926 C924 1.369 . S
C926 C928 1.392 . S
C926 H954 0.930 . S
C927 C923 1.373 . S
C927 C925 1.383 . S
C927 H955 0.931 . S
C928 C925 1.382 . S
C928 C926 1.392 . S
C929 Eu920 2.828 . S
C929 C923 1.505 . S
C929 O941 1.249 . S
C929 O942 1.244 . S
O930 Eu921 2.373 1_554 S
O930 C932 1.258 . S
O931 Eu920 2.392 . S
O931 C932 1.242 1_556 S
C932 O930 1.258 . S
C932 O931 1.242 1_554 S
O933 Eu920 2.418 . S
O933 C937 1.244 . S
O934 Eu921 2.488 1_554 S
O934 C950 1.249 . S
O935 Eu921 2.471 1_554 S
O935 C950 1.244 . S
O936 Eu921 2.349 . S
O936 C937 1.265 . S
C937 O933 1.244 . S
C937 O936 1.265 . S
O938 Eu920 2.373 . S
O938 C951 1.258 . S
O939 Eu921 2.392 . S
O939 C951 1.242 . S
O940 Eu921 2.418 . S
O940 C922 1.244 . S
O941 Eu920 2.488 . S
O941 C929 1.249 . S
O942 Eu920 2.471 . S
O942 C929 1.244 . S
O943 Eu920 2.349 . S
O943 C922 1.265 . S
C944 C945 1.379 . S
C944 C948 1.373 . S
C944 C950 1.505 . S
C945 C944 1.379 . S
C945 C947 1.369 . S
C945 H956 0.930 . S
C946 C948 1.383 . S
C946 C949 1.382 . S
C946 H957 0.930 . S
C947 C945 1.369 . S
C947 C949 1.392 . S
C947 H958 0.930 . S
C948 C944 1.373 . S
C948 C946 1.383 . S
C948 H959 0.931 . S
C949 C946 1.382 . S
C949 C947 1.392 . S
C950 Eu921 2.828 1_554 S
C950 O934 1.249 . S
C950 O935 1.244 . S
C950 C944 1.505 . S
C951 O938 1.258 . S
C951 O939 1.242 . S
H952 C924 0.930 . S
H953 C925 0.930 . S
H954 C926 0.930 . S
H955 C927 0.931 . S
H956 C945 0.930 . S
H957 C946 0.930 . S
H958 C947 0.930 . S
H959 C948 0.931 . S
Eu960 C969 2.828 . S
Eu960 O971 2.392 . S
Eu960 O973 2.418 . S
Eu960 O978 2.373 . S
Eu960 O981 2.488 . S
Eu960 O982 2.471 . S
Eu960 O983 2.349 . S
Eu961 O970 2.373 . S
Eu961 O974 2.488 . S
Eu961 O975 2.471 . S
Eu961 O976 2.349 . S
Eu961 O979 2.392 . S
Eu961 O980 2.418 . S
Eu961 C990 2.828 . S
C962 O980 1.244 . S
C962 O983 1.265 . S
C963 C964 1.379 . S
C963 C967 1.373 . S
C963 C969 1.505 . S
C964 C963 1.379 . S
C964 C966 1.369 1_556 S
C964 H992 0.930 . S
C965 C967 1.383 . S
C965 C968 1.382 1_556 S
C965 H993 0.930 1_556 S
C966 C964 1.369 1_554 S
C966 C968 1.392 . S
C966 H994 0.930 . S
C967 C963 1.373 . S
C967 C965 1.383 . S
C967 H995 0.931 . S
C968 C965 1.382 1_554 S
C968 C966 1.392 . S
C969 Eu960 2.828 . S
C969 C963 1.505 . S
C969 O981 1.249 . S
C969 O982 1.244 . S
O970 Eu961 2.373 . S
O970 C972 1.258 . S
O971 Eu960 2.392 . S
O971 C972 1.242 . S
C972 O970 1.258 . S
C972 O971 1.242 . S
O973 Eu960 2.418 . S
O973 C977 1.244 . S
O974 Eu961 2.488 . S
O974 C990 1.249 . S
O975 Eu961 2.471 . S
O975 C990 1.244 . S
O976 Eu961 2.349 . S
O976 C977 1.265 . S
C977 O973 1.244 . S
C977 O976 1.265 . S
O978 Eu960 2.373 . S
O978 C991 1.258 . S
O979 Eu961 2.392 . S
O979 C991 1.242 . S
O980 Eu961 2.418 . S
O980 C962 1.244 . S
O981 Eu960 2.488 . S
O981 C969 1.249 . S
O982 Eu960 2.471 . S
O982 C969 1.244 . S
O983 Eu960 2.349 . S
O983 C962 1.265 . S
C984 C985 1.379 . S
C984 C988 1.373 . S
C984 C990 1.505 . S
C985 C984 1.379 . S
C985 C987 1.369 . S
C985 H996 0.930 . S
C986 C988 1.383 . S
C986 C989 1.382 . S
C986 H997 0.930 . S
C987 C985 1.369 . S
C987 C989 1.392 . S
C987 H998 0.930 . S
C988 C984 1.373 . S
C988 C986 1.383 . S
C988 H999 0.931 . S
C989 C986 1.382 . S
C989 C987 1.392 . S
C990 Eu961 2.828 . S
C990 O974 1.249 . S
C990 O975 1.244 . S
C990 C984 1.505 . S
C991 O978 1.258 . S
C991 O979 1.242 . S
H992 C964 0.930 . S
H993 C965 0.930 1_554 S
H994 C966 0.930 . S
H995 C967 0.931 . S
H996 C985 0.930 . S
H997 C986 0.930 . S
H998 C987 0.930 . S
H999 C988 0.931 . S
Eu1000 C1009 2.828 . S
Eu1000 O1011 2.392 . S
Eu1000 O1013 2.418 . S
Eu1000 O1018 2.373 . S
Eu1000 O1021 2.488 . S
Eu1000 O1022 2.471 . S
Eu1000 O1023 2.349 . S
Eu1001 O1010 2.373 . S
Eu1001 O1014 2.488 . S
Eu1001 O1015 2.471 . S
Eu1001 O1016 2.349 . S
Eu1001 O1019 2.392 . S
Eu1001 O1020 2.418 . S
Eu1001 C1030 2.828 . S
C1002 O1020 1.244 . S
C1002 O1023 1.265 . S
C1003 C1004 1.379 . S
C1003 C1007 1.373 . S
C1003 C1009 1.505 . S
C1004 C1003 1.379 . S
C1004 C1006 1.369 1_556 S
C1004 H1032 0.930 . S
C1005 C1007 1.383 . S
C1005 C1008 1.382 1_556 S
C1005 H1033 0.930 1_556 S
C1006 C1004 1.369 1_554 S
C1006 C1008 1.392 . S
C1006 H1034 0.930 . S
C1007 C1003 1.373 . S
C1007 C1005 1.383 . S
C1007 H1035 0.931 . S
C1008 C1005 1.382 1_554 S
C1008 C1006 1.392 . S
C1009 Eu1000 2.828 . S
C1009 C1003 1.505 . S
C1009 O1021 1.249 . S
C1009 O1022 1.244 . S
O1010 Eu1001 2.373 . S
O1010 C1012 1.258 . S
O1011 Eu1000 2.392 . S
O1011 C1012 1.242 . S
C1012 O1010 1.258 . S
C1012 O1011 1.242 . S
O1013 Eu1000 2.418 . S
O1013 C1017 1.244 . S
O1014 Eu1001 2.488 . S
O1014 C1030 1.249 . S
O1015 Eu1001 2.471 . S
O1015 C1030 1.244 . S
O1016 Eu1001 2.349 . S
O1016 C1017 1.265 . S
C1017 O1013 1.244 . S
C1017 O1016 1.265 . S
O1018 Eu1000 2.373 . S
O1018 C1031 1.258 . S
O1019 Eu1001 2.392 . S
O1019 C1031 1.242 . S
O1020 Eu1001 2.418 . S
O1020 C1002 1.244 . S
O1021 Eu1000 2.488 . S
O1021 C1009 1.249 . S
O1022 Eu1000 2.471 . S
O1022 C1009 1.244 . S
O1023 Eu1000 2.349 . S
O1023 C1002 1.265 . S
C1024 C1025 1.379 . S
C1024 C1028 1.373 . S
C1024 C1030 1.505 . S
C1025 C1024 1.379 . S
C1025 C1027 1.369 . S
C1025 H1036 0.930 . S
C1026 C1028 1.383 . S
C1026 C1029 1.382 . S
C1026 H1037 0.930 . S
C1027 C1025 1.369 . S
C1027 C1029 1.392 . S
C1027 H1038 0.930 . S
C1028 C1024 1.373 . S
C1028 C1026 1.383 . S
C1028 H1039 0.931 . S
C1029 C1026 1.382 . S
C1029 C1027 1.392 . S
C1030 Eu1001 2.828 . S
C1030 O1014 1.249 . S
C1030 O1015 1.244 . S
C1030 C1024 1.505 . S
C1031 O1018 1.258 . S
C1031 O1019 1.242 . S
H1032 C1004 0.930 . S
H1033 C1005 0.930 1_554 S
H1034 C1006 0.930 . S
H1035 C1007 0.931 . S
H1036 C1025 0.930 . S
H1037 C1026 0.930 . S
H1038 C1027 0.930 . S
H1039 C1028 0.931 . S
Eu1040 C1049 2.828 . S
Eu1040 O1051 2.392 . S
Eu1040 O1053 2.418 . S
Eu1040 O1058 2.373 . S
Eu1040 O1061 2.488 . S
Eu1040 O1062 2.471 . S
Eu1040 O1063 2.349 . S
Eu1041 O1050 2.373 . S
Eu1041 O1054 2.488 . S
Eu1041 O1055 2.471 . S
Eu1041 O1056 2.349 . S
Eu1041 O1059 2.392 . S
Eu1041 O1060 2.418 . S
Eu1041 C1070 2.828 . S
C1042 O1060 1.244 . S
C1042 O1063 1.265 . S
C1043 C1044 1.379 . S
C1043 C1047 1.373 . S
C1043 C1049 1.505 . S
C1044 C1043 1.379 . S
C1044 C1046 1.369 1_556 S
C1044 H1072 0.930 . S
C1045 C1047 1.383 . S
C1045 C1048 1.382 1_556 S
C1045 H1073 0.930 1_556 S
C1046 C1044 1.369 1_554 S
C1046 C1048 1.392 . S
C1046 H1074 0.930 . S
C1047 C1043 1.373 . S
C1047 C1045 1.383 . S
C1047 H1075 0.931 . S
C1048 C1045 1.382 1_554 S
C1048 C1046 1.392 . S
C1049 Eu1040 2.828 . S
C1049 C1043 1.505 . S
C1049 O1061 1.249 . S
C1049 O1062 1.244 . S
O1050 Eu1041 2.373 . S
O1050 C1052 1.258 . S
O1051 Eu1040 2.392 . S
O1051 C1052 1.242 . S
C1052 O1050 1.258 . S
C1052 O1051 1.242 . S
O1053 Eu1040 2.418 . S
O1053 C1057 1.244 . S
O1054 Eu1041 2.488 . S
O1054 C1070 1.249 . S
O1055 Eu1041 2.471 . S
O1055 C1070 1.244 . S
O1056 Eu1041 2.349 . S
O1056 C1057 1.265 . S
C1057 O1053 1.244 . S
C1057 O1056 1.265 . S
O1058 Eu1040 2.373 . S
O1058 C1071 1.258 . S
O1059 Eu1041 2.392 . S
O1059 C1071 1.242 . S
O1060 Eu1041 2.418 . S
O1060 C1042 1.244 . S
O1061 Eu1040 2.488 . S
O1061 C1049 1.249 . S
O1062 Eu1040 2.471 . S
O1062 C1049 1.244 . S
O1063 Eu1040 2.349 . S
O1063 C1042 1.265 . S
C1064 C1065 1.379 . S
C1064 C1068 1.373 . S
C1064 C1070 1.505 . S
C1065 C1064 1.379 . S
C1065 C1067 1.369 . S
C1065 H1076 0.930 . S
C1066 C1068 1.383 . S
C1066 C1069 1.382 . S
C1066 H1077 0.930 . S
C1067 C1065 1.369 . S
C1067 C1069 1.392 . S
C1067 H1078 0.930 . S
C1068 C1064 1.373 . S
C1068 C1066 1.383 . S
C1068 H1079 0.931 . S
C1069 C1066 1.382 . S
C1069 C1067 1.392 . S
C1070 Eu1041 2.828 . S
C1070 O1054 1.249 . S
C1070 O1055 1.244 . S
C1070 C1064 1.505 . S
C1071 O1058 1.258 . S
C1071 O1059 1.242 . S
H1072 C1044 0.930 . S
H1073 C1045 0.930 1_554 S
H1074 C1046 0.930 . S
H1075 C1047 0.931 . S
H1076 C1065 0.930 . S
H1077 C1066 0.930 . S
H1078 C1067 0.930 . S
H1079 C1068 0.931 . S
Eu1080 C1089 2.828 . S
Eu1080 O1091 2.392 . S
Eu1080 O1093 2.418 . S
Eu1080 O1098 2.373 . S
Eu1080 O1101 2.488 . S
Eu1080 O1102 2.471 . S
Eu1080 O1103 2.349 . S
Eu1081 O1090 2.373 . S
Eu1081 O1094 2.488 . S
Eu1081 O1095 2.471 . S
Eu1081 O1096 2.349 . S
Eu1081 O1099 2.392 . S
Eu1081 O1100 2.418 . S
Eu1081 C1110 2.828 . S
C1082 O1100 1.244 . S
C1082 O1103 1.265 . S
C1083 C1084 1.379 1_554 S
C1083 C1087 1.373 1_554 S
C1083 C1089 1.505 . S
C1084 C1083 1.379 1_556 S
C1084 C1086 1.369 . S
C1084 H1112 0.930 . S
C1085 C1087 1.383 . S
C1085 C1088 1.382 . S
C1085 H1113 0.930 . S
C1086 C1084 1.369 . S
C1086 C1088 1.392 . S
C1086 H1114 0.930 . S
C1087 C1083 1.373 1_556 S
C1087 C1085 1.383 . S
C1087 H1115 0.931 1_556 S
C1088 C1085 1.382 . S
C1088 C1086 1.392 . S
C1089 Eu1080 2.828 . S
C1089 C1083 1.505 . S
C1089 O1101 1.249 . S
C1089 O1102 1.244 . S
O1090 Eu1081 2.373 . S
O1090 C1092 1.258 . S
O1091 Eu1080 2.392 . S
O1091 C1092 1.242 . S
C1092 O1090 1.258 . S
C1092 O1091 1.242 . S
O1093 Eu1080 2.418 . S
O1093 C1097 1.244 . S
O1094 Eu1081 2.488 . S
O1094 C1110 1.249 . S
O1095 Eu1081 2.471 . S
O1095 C1110 1.244 . S
O1096 Eu1081 2.349 . S
O1096 C1097 1.265 . S
C1097 O1093 1.244 . S
C1097 O1096 1.265 . S
O1098 Eu1080 2.373 . S
O1098 C1111 1.258 . S
O1099 Eu1081 2.392 . S
O1099 C1111 1.242 . S
O1100 Eu1081 2.418 . S
O1100 C1082 1.244 . S
O1101 Eu1080 2.488 . S
O1101 C1089 1.249 . S
O1102 Eu1080 2.471 . S
O1102 C1089 1.244 . S
O1103 Eu1080 2.349 . S
O1103 C1082 1.265 . S
C1104 C1105 1.379 . S
C1104 C1108 1.373 . S
C1104 C1110 1.505 . S
C1105 C1104 1.379 . S
C1105 C1107 1.369 . S
C1105 H1116 0.930 . S
C1106 C1108 1.383 . S
C1106 C1109 1.382 . S
C1106 H1117 0.930 . S
C1107 C1105 1.369 . S
C1107 C1109 1.392 . S
C1107 H1118 0.930 . S
C1108 C1104 1.373 . S
C1108 C1106 1.383 . S
C1108 H1119 0.931 . S
C1109 C1106 1.382 . S
C1109 C1107 1.392 . S
C1110 Eu1081 2.828 . S
C1110 O1094 1.249 . S
C1110 O1095 1.244 . S
C1110 C1104 1.505 . S
C1111 O1098 1.258 . S
C1111 O1099 1.242 . S
H1112 C1084 0.930 . S
H1113 C1085 0.930 . S
H1114 C1086 0.930 . S
H1115 C1087 0.931 1_554 S
H1116 C1105 0.930 . S
H1117 C1106 0.930 . S
H1118 C1107 0.930 . S
H1119 C1108 0.931 . S
Eu1120 C1129 2.828 . S
Eu1120 O1131 2.392 . S
Eu1120 O1133 2.418 . S
Eu1120 O1138 2.373 . S
Eu1120 O1141 2.488 . S
Eu1120 O1142 2.471 . S
Eu1120 O1143 2.349 . S
Eu1121 O1130 2.373 . S
Eu1121 O1134 2.488 . S
Eu1121 O1135 2.471 . S
Eu1121 O1136 2.349 . S
Eu1121 O1139 2.392 . S
Eu1121 O1140 2.418 . S
Eu1121 C1150 2.828 . S
C1122 O1140 1.244 . S
C1122 O1143 1.265 . S
C1123 C1124 1.379 1_554 S
C1123 C1127 1.373 1_554 S
C1123 C1129 1.505 . S
C1124 C1123 1.379 1_556 S
C1124 C1126 1.369 . S
C1124 H1152 0.930 . S
C1125 C1127 1.383 . S
C1125 C1128 1.382 . S
C1125 H1153 0.930 . S
C1126 C1124 1.369 . S
C1126 C1128 1.392 . S
C1126 H1154 0.930 . S
C1127 C1123 1.373 1_556 S
C1127 C1125 1.383 . S
C1127 H1155 0.931 1_556 S
C1128 C1125 1.382 . S
C1128 C1126 1.392 . S
C1129 Eu1120 2.828 . S
C1129 C1123 1.505 . S
C1129 O1141 1.249 . S
C1129 O1142 1.244 . S
O1130 Eu1121 2.373 . S
O1130 C1132 1.258 . S
O1131 Eu1120 2.392 . S
O1131 C1132 1.242 . S
C1132 O1130 1.258 . S
C1132 O1131 1.242 . S
O1133 Eu1120 2.418 . S
O1133 C1137 1.244 . S
O1134 Eu1121 2.488 . S
O1134 C1150 1.249 . S
O1135 Eu1121 2.471 . S
O1135 C1150 1.244 . S
O1136 Eu1121 2.349 . S
O1136 C1137 1.265 . S
C1137 O1133 1.244 . S
C1137 O1136 1.265 . S
O1138 Eu1120 2.373 . S
O1138 C1151 1.258 . S
O1139 Eu1121 2.392 . S
O1139 C1151 1.242 . S
O1140 Eu1121 2.418 . S
O1140 C1122 1.244 . S
O1141 Eu1120 2.488 . S
O1141 C1129 1.249 . S
O1142 Eu1120 2.471 . S
O1142 C1129 1.244 . S
O1143 Eu1120 2.349 . S
O1143 C1122 1.265 . S
C1144 C1145 1.379 . S
C1144 C1148 1.373 . S
C1144 C1150 1.505 . S
C1145 C1144 1.379 . S
C1145 C1147 1.369 . S
C1145 H1156 0.930 . S
C1146 C1148 1.383 . S
C1146 C1149 1.382 . S
C1146 H1157 0.930 . S
C1147 C1145 1.369 . S
C1147 C1149 1.392 . S
C1147 H1158 0.930 . S
C1148 C1144 1.373 . S
C1148 C1146 1.383 . S
C1148 H1159 0.931 . S
C1149 C1146 1.382 . S
C1149 C1147 1.392 . S
C1150 Eu1121 2.828 . S
C1150 O1134 1.249 . S
C1150 O1135 1.244 . S
C1150 C1144 1.505 . S
C1151 O1138 1.258 . S
C1151 O1139 1.242 . S
H1152 C1124 0.930 . S
H1153 C1125 0.930 . S
H1154 C1126 0.930 . S
H1155 C1127 0.931 1_554 S
H1156 C1145 0.930 . S
H1157 C1146 0.930 . S
H1158 C1147 0.930 . S
H1159 C1148 0.931 . S
Eu1160 C1169 2.828 . S
Eu1160 O1171 2.392 . S
Eu1160 O1173 2.418 . S
Eu1160 O1178 2.373 . S
Eu1160 O1181 2.488 . S
Eu1160 O1182 2.471 . S
Eu1160 O1183 2.349 . S
Eu1161 O1170 2.373 . S
Eu1161 O1174 2.488 . S
Eu1161 O1175 2.471 . S
Eu1161 O1176 2.349 . S
Eu1161 O1179 2.392 . S
Eu1161 O1180 2.418 . S
Eu1161 C1190 2.828 . S
C1162 O1180 1.244 . S
C1162 O1183 1.265 . S
C1163 C1164 1.379 1_554 S
C1163 C1167 1.373 1_554 S
C1163 C1169 1.505 . S
C1164 C1163 1.379 1_556 S
C1164 C1166 1.369 . S
C1164 H1192 0.930 . S
C1165 C1167 1.383 . S
C1165 C1168 1.382 . S
C1165 H1193 0.930 . S
C1166 C1164 1.369 . S
C1166 C1168 1.392 . S
C1166 H1194 0.930 . S
C1167 C1163 1.373 1_556 S
C1167 C1165 1.383 . S
C1167 H1195 0.931 1_556 S
C1168 C1165 1.382 . S
C1168 C1166 1.392 . S
C1169 Eu1160 2.828 . S
C1169 C1163 1.505 . S
C1169 O1181 1.249 . S
C1169 O1182 1.244 . S
O1170 Eu1161 2.373 . S
O1170 C1172 1.258 . S
O1171 Eu1160 2.392 . S
O1171 C1172 1.242 . S
C1172 O1170 1.258 . S
C1172 O1171 1.242 . S
O1173 Eu1160 2.418 . S
O1173 C1177 1.244 . S
O1174 Eu1161 2.488 . S
O1174 C1190 1.249 . S
O1175 Eu1161 2.471 . S
O1175 C1190 1.244 . S
O1176 Eu1161 2.349 . S
O1176 C1177 1.265 . S
C1177 O1173 1.244 . S
C1177 O1176 1.265 . S
O1178 Eu1160 2.373 . S
O1178 C1191 1.258 . S
O1179 Eu1161 2.392 . S
O1179 C1191 1.242 . S
O1180 Eu1161 2.418 . S
O1180 C1162 1.244 . S
O1181 Eu1160 2.488 . S
O1181 C1169 1.249 . S
O1182 Eu1160 2.471 . S
O1182 C1169 1.244 . S
O1183 Eu1160 2.349 . S
O1183 C1162 1.265 . S
C1184 C1185 1.379 . S
C1184 C1188 1.373 . S
C1184 C1190 1.505 . S
C1185 C1184 1.379 . S
C1185 C1187 1.369 . S
C1185 H1196 0.930 . S
C1186 C1188 1.383 . S
C1186 C1189 1.382 . S
C1186 H1197 0.930 . S
C1187 C1185 1.369 . S
C1187 C1189 1.392 . S
C1187 H1198 0.930 . S
C1188 C1184 1.373 . S
C1188 C1186 1.383 . S
C1188 H1199 0.931 . S
C1189 C1186 1.382 . S
C1189 C1187 1.392 . S
C1190 Eu1161 2.828 . S
C1190 O1174 1.249 . S
C1190 O1175 1.244 . S
C1190 C1184 1.505 . S
C1191 O1178 1.258 . S
C1191 O1179 1.242 . S
H1192 C1164 0.930 . S
H1193 C1165 0.930 . S
H1194 C1166 0.930 . S
H1195 C1167 0.931 1_554 S
H1196 C1185 0.930 . S
H1197 C1186 0.930 . S
H1198 C1187 0.930 . S
H1199 C1188 0.931 . S
Eu1200 C1209 2.828 . S
Eu1200 O1211 2.392 . S
Eu1200 O1213 2.418 . S
Eu1200 O1218 2.373 . S
Eu1200 O1221 2.488 . S
Eu1200 O1222 2.471 . S
Eu1200 O1223 2.349 . S
Eu1201 O1210 2.373 . S
Eu1201 O1214 2.488 . S
Eu1201 O1215 2.471 . S
Eu1201 O1216 2.349 . S
Eu1201 O1219 2.392 . S
Eu1201 O1220 2.418 . S
Eu1201 C1230 2.828 . S
C1202 O1220 1.244 . S
C1202 O1223 1.265 . S
C1203 C1204 1.379 . S
C1203 C1207 1.373 . S
C1203 C1209 1.505 . S
C1204 C1203 1.379 . S
C1204 C1206 1.369 . S
C1204 H1232 0.930 . S
C1205 C1207 1.383 . S
C1205 C1208 1.382 . S
C1205 H1233 0.930 . S
C1206 C1204 1.369 . S
C1206 C1208 1.392 . S
C1206 H1234 0.930 . S
C1207 C1203 1.373 . S
C1207 C1205 1.383 . S
C1207 H1235 0.931 . S
C1208 C1205 1.382 . S
C1208 C1206 1.392 . S
C1209 Eu1200 2.828 . S
C1209 C1203 1.505 . S
C1209 O1221 1.249 . S
C1209 O1222 1.244 . S
O1210 Eu1201 2.373 . S
O1210 C1212 1.258 . S
O1211 Eu1200 2.392 . S
O1211 C1212 1.242 . S
C1212 O1210 1.258 . S
C1212 O1211 1.242 . S
O1213 Eu1200 2.418 . S
O1213 C1217 1.244 . S
O1214 Eu1201 2.488 . S
O1214 C1230 1.249 . S
O1215 Eu1201 2.471 . S
O1215 C1230 1.244 . S
O1216 Eu1201 2.349 . S
O1216 C1217 1.265 . S
C1217 O1213 1.244 . S
C1217 O1216 1.265 . S
O1218 Eu1200 2.373 . S
O1218 C1231 1.258 . S
O1219 Eu1201 2.392 . S
O1219 C1231 1.242 . S
O1220 Eu1201 2.418 . S
O1220 C1202 1.244 . S
O1221 Eu1200 2.488 . S
O1221 C1209 1.249 . S
O1222 Eu1200 2.471 . S
O1222 C1209 1.244 . S
O1223 Eu1200 2.349 . S
O1223 C1202 1.265 . S
C1224 C1225 1.379 . S
C1224 C1228 1.373 . S
C1224 C1230 1.505 . S
C1225 C1224 1.379 . S
C1225 C1227 1.369 . S
C1225 H1236 0.930 . S
C1226 C1228 1.383 . S
C1226 C1229 1.382 . S
C1226 H1237 0.930 . S
C1227 C1225 1.369 . S
C1227 C1229 1.392 . S
C1227 H1238 0.930 . S
C1228 C1224 1.373 . S
C1228 C1226 1.383 . S
C1228 H1239 0.931 . S
C1229 C1226 1.382 . S
C1229 C1227 1.392 . S
C1230 Eu1201 2.828 . S
C1230 O1214 1.249 . S
C1230 O1215 1.244 . S
C1230 C1224 1.505 . S
C1231 O1218 1.258 . S
C1231 O1219 1.242 . S
H1232 C1204 0.930 . S
H1233 C1205 0.930 . S
H1234 C1206 0.930 . S
H1235 C1207 0.931 . S
H1236 C1225 0.930 . S
H1237 C1226 0.930 . S
H1238 C1227 0.930 . S
H1239 C1228 0.931 . S
Eu1240 C1249 2.828 . S
Eu1240 O1251 2.392 . S
Eu1240 O1253 2.418 . S
Eu1240 O1258 2.373 . S
Eu1240 O1261 2.488 . S
Eu1240 O1262 2.471 . S
Eu1240 O1263 2.349 . S
Eu1241 O1250 2.373 . S
Eu1241 O1254 2.488 . S
Eu1241 O1255 2.471 . S
Eu1241 O1256 2.349 . S
Eu1241 O1259 2.392 . S
Eu1241 O1260 2.418 . S
Eu1241 C1270 2.828 . S
C1242 O1260 1.244 . S
C1242 O1263 1.265 . S
C1243 C1244 1.379 . S
C1243 C1247 1.373 . S
C1243 C1249 1.505 . S
C1244 C1243 1.379 . S
C1244 C1246 1.369 . S
C1244 H1272 0.930 . S
C1245 C1247 1.383 . S
C1245 C1248 1.382 . S
C1245 H1273 0.930 . S
C1246 C1244 1.369 . S
C1246 C1248 1.392 . S
C1246 H1274 0.930 . S
C1247 C1243 1.373 . S
C1247 C1245 1.383 . S
C1247 H1275 0.931 . S
C1248 C1245 1.382 . S
C1248 C1246 1.392 . S
C1249 Eu1240 2.828 . S
C1249 C1243 1.505 . S
C1249 O1261 1.249 . S
C1249 O1262 1.244 . S
O1250 Eu1241 2.373 . S
O1250 C1252 1.258 . S
O1251 Eu1240 2.392 . S
O1251 C1252 1.242 . S
C1252 O1250 1.258 . S
C1252 O1251 1.242 . S
O1253 Eu1240 2.418 . S
O1253 C1257 1.244 . S
O1254 Eu1241 2.488 . S
O1254 C1270 1.249 . S
O1255 Eu1241 2.471 . S
O1255 C1270 1.244 . S
O1256 Eu1241 2.349 . S
O1256 C1257 1.265 . S
C1257 O1253 1.244 . S
C1257 O1256 1.265 . S
O1258 Eu1240 2.373 . S
O1258 C1271 1.258 . S
O1259 Eu1241 2.392 . S
O1259 C1271 1.242 . S
O1260 Eu1241 2.418 . S
O1260 C1242 1.244 . S
O1261 Eu1240 2.488 . S
O1261 C1249 1.249 . S
O1262 Eu1240 2.471 . S
O1262 C1249 1.244 . S
O1263 Eu1240 2.349 . S
O1263 C1242 1.265 . S
C1264 C1265 1.379 . S
C1264 C1268 1.373 . S
C1264 C1270 1.505 . S
C1265 C1264 1.379 . S
C1265 C1267 1.369 . S
C1265 H1276 0.930 . S
C1266 C1268 1.383 . S
C1266 C1269 1.382 . S
C1266 H1277 0.930 . S
C1267 C1265 1.369 . S
C1267 C1269 1.392 . S
C1267 H1278 0.930 . S
C1268 C1264 1.373 . S
C1268 C1266 1.383 . S
C1268 H1279 0.931 . S
C1269 C1266 1.382 . S
C1269 C1267 1.392 . S
C1270 Eu1241 2.828 . S
C1270 O1254 1.249 . S
C1270 O1255 1.244 . S
C1270 C1264 1.505 . S
C1271 O1258 1.258 . S
C1271 O1259 1.242 . S
H1272 C1244 0.930 . S
H1273 C1245 0.930 . S
H1274 C1246 0.930 . S
H1275 C1247 0.931 . S
H1276 C1265 0.930 . S
H1277 C1266 0.930 . S
H1278 C1267 0.930 . S
H1279 C1268 0.931 . S
Eu1280 C1289 2.828 . S
Eu1280 O1291 2.392 . S
Eu1280 O1293 2.418 . S
Eu1280 O1298 2.373 . S
Eu1280 O1301 2.488 . S
Eu1280 O1302 2.471 . S
Eu1280 O1303 2.349 . S
Eu1281 O1290 2.373 . S
Eu1281 O1294 2.488 . S
Eu1281 O1295 2.471 . S
Eu1281 O1296 2.349 . S
Eu1281 O1299 2.392 . S
Eu1281 O1300 2.418 . S
Eu1281 C1310 2.828 . S
C1282 O1300 1.244 . S
C1282 O1303 1.265 . S
C1283 C1284 1.379 . S
C1283 C1287 1.373 . S
C1283 C1289 1.505 . S
C1284 C1283 1.379 . S
C1284 C1286 1.369 . S
C1284 H1312 0.930 . S
C1285 C1287 1.383 . S
C1285 C1288 1.382 . S
C1285 H1313 0.930 . S
C1286 C1284 1.369 . S
C1286 C1288 1.392 . S
C1286 H1314 0.930 . S
C1287 C1283 1.373 . S
C1287 C1285 1.383 . S
C1287 H1315 0.931 . S
C1288 C1285 1.382 . S
C1288 C1286 1.392 . S
C1289 Eu1280 2.828 . S
C1289 C1283 1.505 . S
C1289 O1301 1.249 . S
C1289 O1302 1.244 . S
O1290 Eu1281 2.373 . S
O1290 C1292 1.258 . S
O1291 Eu1280 2.392 . S
O1291 C1292 1.242 . S
C1292 O1290 1.258 . S
C1292 O1291 1.242 . S
O1293 Eu1280 2.418 . S
O1293 C1297 1.244 . S
O1294 Eu1281 2.488 . S
O1294 C1310 1.249 . S
O1295 Eu1281 2.471 . S
O1295 C1310 1.244 . S
O1296 Eu1281 2.349 . S
O1296 C1297 1.265 . S
C1297 O1293 1.244 . S
C1297 O1296 1.265 . S
O1298 Eu1280 2.373 . S
O1298 C1311 1.258 . S
O1299 Eu1281 2.392 . S
O1299 C1311 1.242 . S
O1300 Eu1281 2.418 . S
O1300 C1282 1.244 . S
O1301 Eu1280 2.488 . S
O1301 C1289 1.249 . S
O1302 Eu1280 2.471 . S
O1302 C1289 1.244 . S
O1303 Eu1280 2.349 . S
O1303 C1282 1.265 . S
C1304 C1305 1.379 . S
C1304 C1308 1.373 . S
C1304 C1310 1.505 . S
C1305 C1304 1.379 . S
C1305 C1307 1.369 . S
C1305 H1316 0.930 . S
C1306 C1308 1.383 . S
C1306 C1309 1.382 . S
C1306 H1317 0.930 . S
C1307 C1305 1.369 . S
C1307 C1309 1.392 . S
C1307 H1318 0.930 . S
C1308 C1304 1.373 . S
C1308 C1306 1.383 . S
C1308 H1319 0.931 . S
C1309 C1306 1.382 . S
C1309 C1307 1.392 . S
C1310 Eu1281 2.828 . S
C1310 O1294 1.249 . S
C1310 O1295 1.244 . S
C1310 C1304 1.505 . S
C1311 O1298 1.258 . S
C1311 O1299 1.242 . S
H1312 C1284 0.930 . S
H1313 C1285 0.930 . S
H1314 C1286 0.930 . S
H1315 C1287 0.931 . S
H1316 C1305 0.930 . S
H1317 C1306 0.930 . S
H1318 C1307 0.930 . S
H1319 C1308 0.931 . S
Eu1320 C1329 2.828 . S
Eu1320 O1331 2.392 . S
Eu1320 O1333 2.418 . S
Eu1320 O1338 2.373 . S
Eu1320 O1341 2.488 . S
Eu1320 O1342 2.471 . S
Eu1320 O1343 2.349 . S
Eu1321 O1330 2.373 . S
Eu1321 O1334 2.488 . S
Eu1321 O1335 2.471 . S
Eu1321 O1336 2.349 . S
Eu1321 O1339 2.392 . S
Eu1321 O1340 2.418 . S
Eu1321 C1350 2.828 . S
C1322 O1340 1.244 . S
C1322 O1343 1.265 . S
C1323 C1324 1.379 . S
C1323 C1327 1.373 . S
C1323 C1329 1.505 . S
C1324 C1323 1.379 . S
C1324 C1326 1.369 . S
C1324 H1352 0.930 . S
C1325 C1327 1.383 . S
C1325 C1328 1.382 . S
C1325 H1353 0.930 . S
C1326 C1324 1.369 . S
C1326 C1328 1.392 . S
C1326 H1354 0.930 . S
C1327 C1323 1.373 . S
C1327 C1325 1.383 . S
C1327 H1355 0.931 . S
C1328 C1325 1.382 . S
C1328 C1326 1.392 . S
C1329 Eu1320 2.828 . S
C1329 C1323 1.505 . S
C1329 O1341 1.249 . S
C1329 O1342 1.244 . S
O1330 Eu1321 2.373 . S
O1330 C1332 1.258 . S
O1331 Eu1320 2.392 . S
O1331 C1332 1.242 . S
C1332 O1330 1.258 . S
C1332 O1331 1.242 . S
O1333 Eu1320 2.418 . S
O1333 C1337 1.244 . S
O1334 Eu1321 2.488 . S
O1334 C1350 1.249 . S
O1335 Eu1321 2.471 . S
O1335 C1350 1.244 . S
O1336 Eu1321 2.349 . S
O1336 C1337 1.265 . S
C1337 O1333 1.244 . S
C1337 O1336 1.265 . S
O1338 Eu1320 2.373 . S
O1338 C1351 1.258 . S
O1339 Eu1321 2.392 . S
O1339 C1351 1.242 . S
O1340 Eu1321 2.418 . S
O1340 C1322 1.244 . S
O1341 Eu1320 2.488 . S
O1341 C1329 1.249 . S
O1342 Eu1320 2.471 . S
O1342 C1329 1.244 . S
O1343 Eu1320 2.349 . S
O1343 C1322 1.265 . S
C1344 C1345 1.379 . S
C1344 C1348 1.373 . S
C1344 C1350 1.505 . S
C1345 C1344 1.379 . S
C1345 C1347 1.369 . S
C1345 H1356 0.930 . S
C1346 C1348 1.383 . S
C1346 C1349 1.382 . S
C1346 H1357 0.930 . S
C1347 C1345 1.369 . S
C1347 C1349 1.392 . S
C1347 H1358 0.930 . S
C1348 C1344 1.373 . S
C1348 C1346 1.383 . S
C1348 H1359 0.931 . S
C1349 C1346 1.382 . S
C1349 C1347 1.392 . S
C1350 Eu1321 2.828 . S
C1350 O1334 1.249 . S
C1350 O1335 1.244 . S
C1350 C1344 1.505 . S
C1351 O1338 1.258 . S
C1351 O1339 1.242 . S
H1352 C1324 0.930 . S
H1353 C1325 0.930 . S
H1354 C1326 0.930 . S
H1355 C1327 0.931 . S
H1356 C1345 0.930 . S
H1357 C1346 0.930 . S
H1358 C1347 0.930 . S
H1359 C1348 0.931 . S
Eu1360 C1369 2.828 . S
Eu1360 O1371 2.392 . S
Eu1360 O1373 2.418 . S
Eu1360 O1378 2.373 . S
Eu1360 O1381 2.488 . S
Eu1360 O1382 2.471 . S
Eu1360 O1383 2.349 . S
Eu1361 O1370 2.373 . S
Eu1361 O1374 2.488 . S
Eu1361 O1375 2.471 . S
Eu1361 O1376 2.349 . S
Eu1361 O1379 2.392 . S
Eu1361 O1380 2.418 . S
Eu1361 C1390 2.828 . S
C1362 O1380 1.244 . S
C1362 O1383 1.265 . S
C1363 C1364 1.379 . S
C1363 C1367 1.373 . S
C1363 C1369 1.505 . S
C1364 C1363 1.379 . S
C1364 C1366 1.369 . S
C1364 H1392 0.930 . S
C1365 C1367 1.383 . S
C1365 C1368 1.382 . S
C1365 H1393 0.930 . S
C1366 C1364 1.369 . S
C1366 C1368 1.392 . S
C1366 H1394 0.930 . S
C1367 C1363 1.373 . S
C1367 C1365 1.383 . S
C1367 H1395 0.931 . S
C1368 C1365 1.382 . S
C1368 C1366 1.392 . S
C1369 Eu1360 2.828 . S
C1369 C1363 1.505 . S
C1369 O1381 1.249 . S
C1369 O1382 1.244 . S
O1370 Eu1361 2.373 . S
O1370 C1372 1.258 . S
O1371 Eu1360 2.392 . S
O1371 C1372 1.242 . S
C1372 O1370 1.258 . S
C1372 O1371 1.242 . S
O1373 Eu1360 2.418 . S
O1373 C1377 1.244 . S
O1374 Eu1361 2.488 . S
O1374 C1390 1.249 . S
O1375 Eu1361 2.471 . S
O1375 C1390 1.244 . S
O1376 Eu1361 2.349 . S
O1376 C1377 1.265 . S
C1377 O1373 1.244 . S
C1377 O1376 1.265 . S
O1378 Eu1360 2.373 . S
O1378 C1391 1.258 . S
O1379 Eu1361 2.392 . S
O1379 C1391 1.242 . S
O1380 Eu1361 2.418 . S
O1380 C1362 1.244 . S
O1381 Eu1360 2.488 . S
O1381 C1369 1.249 . S
O1382 Eu1360 2.471 . S
O1382 C1369 1.244 . S
O1383 Eu1360 2.349 . S
O1383 C1362 1.265 . S
C1384 C1385 1.379 . S
C1384 C1388 1.373 . S
C1384 C1390 1.505 . S
C1385 C1384 1.379 . S
C1385 C1387 1.369 . S
C1385 H1396 0.930 . S
C1386 C1388 1.383 . S
C1386 C1389 1.382 . S
C1386 H1397 0.930 . S
C1387 C1385 1.369 . S
C1387 C1389 1.392 . S
C1387 H1398 0.930 . S
C1388 C1384 1.373 . S
C1388 C1386 1.383 . S
C1388 H1399 0.931 . S
C1389 C1386 1.382 . S
C1389 C1387 1.392 . S
C1390 Eu1361 2.828 . S
C1390 O1374 1.249 . S
C1390 O1375 1.244 . S
C1390 C1384 1.505 . S
C1391 O1378 1.258 . S
C1391 O1379 1.242 . S
H1392 C1364 0.930 . S
H1393 C1365 0.930 . S
H1394 C1366 0.930 . S
H1395 C1367 0.931 . S
H1396 C1385 0.930 . S
H1397 C1386 0.930 . S
H1398 C1387 0.930 . S
H1399 C1388 0.931 . S
Eu1400 C1409 2.828 . S
Eu1400 O1411 2.392 . S
Eu1400 O1413 2.418 . S
Eu1400 O1418 2.373 . S
Eu1400 O1421 2.488 . S
Eu1400 O1422 2.471 . S
Eu1400 O1423 2.349 . S
Eu1401 O1410 2.373 . S
Eu1401 O1414 2.488 . S
Eu1401 O1415 2.471 . S
Eu1401 O1416 2.349 . S
Eu1401 O1419 2.392 . S
Eu1401 O1420 2.418 . S
Eu1401 C1430 2.828 . S
C1402 O1420 1.244 . S
C1402 O1423 1.265 . S
C1403 C1404 1.379 . S
C1403 C1407 1.373 . S
C1403 C1409 1.505 . S
C1404 C1403 1.379 . S
C1404 C1406 1.369 . S
C1404 H1432 0.930 . S
C1405 C1407 1.383 . S
C1405 C1408 1.382 . S
C1405 H1433 0.930 . S
C1406 C1404 1.369 . S
C1406 C1408 1.392 . S
C1406 H1434 0.930 . S
C1407 C1403 1.373 . S
C1407 C1405 1.383 . S
C1407 H1435 0.931 . S
C1408 C1405 1.382 . S
C1408 C1406 1.392 . S
C1409 Eu1400 2.828 . S
C1409 C1403 1.505 . S
C1409 O1421 1.249 . S
C1409 O1422 1.244 . S
O1410 Eu1401 2.373 . S
O1410 C1412 1.258 . S
O1411 Eu1400 2.392 . S
O1411 C1412 1.242 . S
C1412 O1410 1.258 . S
C1412 O1411 1.242 . S
O1413 Eu1400 2.418 . S
O1413 C1417 1.244 . S
O1414 Eu1401 2.488 . S
O1414 C1430 1.249 . S
O1415 Eu1401 2.471 . S
O1415 C1430 1.244 . S
O1416 Eu1401 2.349 . S
O1416 C1417 1.265 . S
C1417 O1413 1.244 . S
C1417 O1416 1.265 . S
O1418 Eu1400 2.373 . S
O1418 C1431 1.258 . S
O1419 Eu1401 2.392 . S
O1419 C1431 1.242 . S
O1420 Eu1401 2.418 . S
O1420 C1402 1.244 . S
O1421 Eu1400 2.488 . S
O1421 C1409 1.249 . S
O1422 Eu1400 2.471 . S
O1422 C1409 1.244 . S
O1423 Eu1400 2.349 . S
O1423 C1402 1.265 . S
C1424 C1425 1.379 . S
C1424 C1428 1.373 . S
C1424 C1430 1.505 . S
C1425 C1424 1.379 . S
C1425 C1427 1.369 . S
C1425 H1436 0.930 . S
C1426 C1428 1.383 . S
C1426 C1429 1.382 . S
C1426 H1437 0.930 . S
C1427 C1425 1.369 . S
C1427 C1429 1.392 . S
C1427 H1438 0.930 . S
C1428 C1424 1.373 . S
C1428 C1426 1.383 . S
C1428 H1439 0.931 . S
C1429 C1426 1.382 . S
C1429 C1427 1.392 . S
C1430 Eu1401 2.828 . S
C1430 O1414 1.249 . S
C1430 O1415 1.244 . S
C1430 C1424 1.505 . S
C1431 O1418 1.258 . S
C1431 O1419 1.242 . S
H1432 C1404 0.930 . S
H1433 C1405 0.930 . S
H1434 C1406 0.930 . S
H1435 C1407 0.931 . S
H1436 C1425 0.930 . S
H1437 C1426 0.930 . S
H1438 C1427 0.930 . S
H1439 C1428 0.931 . S
C1440 C1441 1.387 . S
C1440 H1444 0.950 . S
C1440 C1449 1.390 . S
C1441 C1440 1.387 . S
C1441 C1443 1.387 . S
H1442 C1449 0.950 1_554 S
C1443 C1441 1.387 . S
C1443 C1445 1.390 . S
C1443 H1447 0.950 . S
H1444 C1440 0.950 . S
C1445 C1443 1.390 . S
C1445 C1446 1.387 1_556 S
C1445 H1448 0.950 1_556 S
C1446 C1445 1.387 1_554 S
C1446 C1449 1.387 1_554 S
H1447 C1443 0.950 . S
H1448 C1445 0.950 1_554 S
C1449 C1440 1.390 . S
C1449 H1442 0.950 1_556 S
C1449 C1446 1.387 1_556 S
C1450 C1451 1.387 . S
C1450 H1454 0.950 . S
C1450 C1459 1.390 . S
C1451 C1450 1.387 . S
C1451 C1453 1.387 . S
H1452 C1459 0.950 1_554 S
C1453 C1451 1.387 . S
C1453 C1455 1.390 . S
C1453 H1457 0.950 . S
H1454 C1450 0.950 . S
C1455 C1453 1.390 . S
C1455 C1456 1.387 1_556 S
C1455 H1458 0.950 1_556 S
C1456 C1455 1.387 1_554 S
C1456 C1459 1.387 1_554 S
H1457 C1453 0.950 . S
H1458 C1455 0.950 1_554 S
C1459 C1450 1.390 . S
C1459 H1452 0.950 1_556 S
C1459 C1456 1.387 1_556 S
C1460 C1461 1.387 1_556 S
C1460 H1464 0.950 1_556 S
C1460 C1469 1.390 . S
C1461 C1460 1.387 1_554 S
C1461 C1463 1.387 1_554 S
H1462 C1469 0.950 . S
C1463 C1461 1.387 1_556 S
C1463 C1465 1.390 . S
C1463 H1467 0.950 1_556 S
H1464 C1460 0.950 1_554 S
C1465 C1463 1.390 . S
C1465 C1466 1.387 . S
C1465 H1468 0.950 . S
C1466 C1465 1.387 . S
C1466 C1469 1.387 . S
H1467 C1463 0.950 1_554 S
H1468 C1465 0.950 . S
C1469 C1460 1.390 . S
C1469 H1462 0.950 . S
C1469 C1466 1.387 . S
C1470 C1471 1.387 . S
C1470 H1474 0.950 . S
C1470 C1479 1.390 . S
C1471 C1470 1.387 . S
C1471 C1473 1.387 . S
H1472 C1479 0.950 . S
C1473 C1471 1.387 . S
C1473 C1475 1.390 . S
C1473 H1477 0.950 . S
H1474 C1470 0.950 . S
C1475 C1473 1.390 . S
C1475 C1476 1.387 . S
C1475 H1478 0.950 . S
C1476 C1475 1.387 . S
C1476 C1479 1.387 . S
H1477 C1473 0.950 . S
H1478 C1475 0.950 . S
C1479 C1470 1.390 . S
C1479 H1472 0.950 . S
C1479 C1476 1.387 . S
C1480 C1481 1.387 . S
C1480 H1484 0.950 . S
C1480 C1489 1.390 . S
C1481 C1480 1.387 . S
C1481 C1483 1.387 . S
H1482 C1489 0.950 . S
C1483 C1481 1.387 . S
C1483 C1485 1.390 . S
C1483 H1487 0.950 . S
H1484 C1480 0.950 . S
C1485 C1483 1.390 . S
C1485 C1486 1.387 . S
C1485 H1488 0.950 . S
C1486 C1485 1.387 . S
C1486 C1489 1.387 . S
H1487 C1483 0.950 . S
H1488 C1485 0.950 . S
C1489 C1480 1.390 . S
C1489 H1482 0.950 . S
C1489 C1486 1.387 . S
C1490 C1491 1.387 . S
C1490 H1494 0.950 . S
C1490 C1499 1.390 . S
C1491 C1490 1.387 . S
C1491 C1493 1.387 . S
H1492 C1499 0.950 . S
C1493 C1491 1.387 . S
C1493 C1495 1.390 . S
C1493 H1497 0.950 . S
H1494 C1490 0.950 . S
C1495 C1493 1.390 . S
C1495 C1496 1.387 . S
C1495 H1498 0.950 . S
C1496 C1495 1.387 . S
C1496 C1499 1.387 . S
H1497 C1493 0.950 . S
H1498 C1495 0.950 . S
C1499 C1490 1.390 . S
C1499 H1492 0.950 . S
C1499 C1496 1.387 . S
C1500 C1501 1.387 . S
C1500 H1504 0.950 . S
C1500 C1509 1.390 . S
C1501 C1500 1.387 . S
C1501 C1503 1.387 . S
H1502 C1509 0.950 . S
C1503 C1501 1.387 . S
C1503 C1505 1.390 . S
C1503 H1507 0.950 . S
H1504 C1500 0.950 . S
C1505 C1503 1.390 . S
C1505 C1506 1.387 . S
C1505 H1508 0.950 . S
C1506 C1505 1.387 . S
C1506 C1509 1.387 . S
H1507 C1503 0.950 . S
H1508 C1505 0.950 . S
C1509 C1500 1.390 . S
C1509 H1502 0.950 . S
C1509 C1506 1.387 . S
C1510 C1511 1.387 . S
C1510 H1514 0.950 . S
C1510 C1519 1.390 . S
C1511 C1510 1.387 . S
C1511 C1513 1.387 . S
H1512 C1519 0.950 . S
C1513 C1511 1.387 . S
C1513 C1515 1.390 . S
C1513 H1517 0.950 . S
H1514 C1510 0.950 . S
C1515 C1513 1.390 . S
C1515 C1516 1.387 . S
C1515 H1518 0.950 . S
C1516 C1515 1.387 . S
C1516 C1519 1.387 . S
H1517 C1513 0.950 . S
H1518 C1515 0.950 . S
C1519 C1510 1.390 . S
C1519 H1512 0.950 . S
C1519 C1516 1.387 . S
C1520 C1521 1.387 . S
C1520 H1524 0.950 . S
C1520 C1529 1.390 . S
C1521 C1520 1.387 . S
C1521 C1523 1.387 . S
H1522 C1529 0.950 . S
C1523 C1521 1.387 . S
C1523 C1525 1.390 . S
C1523 H1527 0.950 . S
H1524 C1520 0.950 . S
C1525 C1523 1.390 . S
C1525 C1526 1.387 . S
C1525 H1528 0.950 . S
C1526 C1525 1.387 . S
C1526 C1529 1.387 . S
H1527 C1523 0.950 . S
H1528 C1525 0.950 . S
C1529 C1520 1.390 . S
C1529 H1522 0.950 . S
C1529 C1526 1.387 . S
C1530 C1531 1.387 . S
C1530 H1534 0.950 . S
C1530 C1539 1.390 . S
C1531 C1530 1.387 . S
C1531 C1533 1.387 . S
H1532 C1539 0.950 . S
C1533 C1531 1.387 . S
C1533 C1535 1.390 . S
C1533 H1537 0.950 . S
H1534 C1530 0.950 . S
C1535 C1533 1.390 . S
C1535 C1536 1.387 . S
C1535 H1538 0.950 . S
C1536 C1535 1.387 . S
C1536 C1539 1.387 . S
H1537 C1533 0.950 . S
H1538 C1535 0.950 . S
C1539 C1530 1.390 . S
C1539 H1532 0.950 . S
C1539 C1536 1.387 . S
C1540 C1541 1.387 . S
C1540 H1544 0.950 . S
C1540 C1549 1.390 . S
C1541 C1540 1.387 . S
C1541 C1543 1.387 . S
H1542 C1549 0.950 . S
C1543 C1541 1.387 . S
C1543 C1545 1.390 . S
C1543 H1547 0.950 . S
H1544 C1540 0.950 . S
C1545 C1543 1.390 . S
C1545 C1546 1.387 . S
C1545 H1548 0.950 . S
C1546 C1545 1.387 . S
C1546 C1549 1.387 . S
H1547 C1543 0.950 . S
H1548 C1545 0.950 . S
C1549 C1540 1.390 . S
C1549 H1542 0.950 . S
C1549 C1546 1.387 . S
C1550 C1551 1.387 . S
C1550 H1554 0.950 . S
C1550 C1559 1.390 . S
C1551 C1550 1.387 . S
C1551 C1553 1.387 . S
H1552 C1559 0.950 . S
C1553 C1551 1.387 . S
C1553 C1555 1.390 . S
C1553 H1557 0.950 . S
H1554 C1550 0.950 . S
C1555 C1553 1.390 . S
C1555 C1556 1.387 . S
C1555 H1558 0.950 . S
C1556 C1555 1.387 . S
C1556 C1559 1.387 . S
H1557 C1553 0.950 . S
H1558 C1555 0.950 . S
C1559 C1550 1.390 . S
C1559 H1552 0.950 . S
C1559 C1556 1.387 . S
C1560 C1561 1.387 . S
C1560 H1564 0.950 . S
C1560 C1569 1.390 . S
C1561 C1560 1.387 . S
C1561 C1563 1.387 . S
H1562 C1569 0.950 . S
C1563 C1561 1.387 . S
C1563 C1565 1.390 . S
C1563 H1567 0.950 . S
H1564 C1560 0.950 . S
C1565 C1563 1.390 . S
C1565 C1566 1.387 . S
C1565 H1568 0.950 . S
C1566 C1565 1.387 . S
C1566 C1569 1.387 . S
H1567 C1563 0.950 . S
H1568 C1565 0.950 . S
C1569 C1560 1.390 . S
C1569 H1562 0.950 . S
C1569 C1566 1.387 . S
C1570 C1571 1.387 . S
C1570 H1574 0.950 . S
C1570 C1579 1.390 1_565 S
C1571 C1570 1.387 . S
C1571 C1573 1.387 . S
H1572 C1579 0.950 . S
C1573 C1571 1.387 . S
C1573 C1575 1.390 1_565 S
C1573 H1577 0.950 . S
H1574 C1570 0.950 . S
C1575 C1573 1.390 1_545 S
C1575 C1576 1.387 . S
C1575 H1578 0.950 . S
C1576 C1575 1.387 . S
C1576 C1579 1.387 . S
H1577 C1573 0.950 . S
H1578 C1575 0.950 . S
C1579 C1570 1.390 1_545 S
C1579 H1572 0.950 . S
C1579 C1576 1.387 . S
C1580 C1581 1.387 . S
C1580 H1584 0.950 . S
C1580 C1589 1.390 1_655 S
C1581 C1580 1.387 . S
C1581 C1583 1.387 . S
H1582 C1589 0.950 . S
C1583 C1581 1.387 . S
C1583 C1585 1.390 1_655 S
C1583 H1587 0.950 . S
H1584 C1580 0.950 . S
C1585 C1583 1.390 1_455 S
C1585 C1586 1.387 . S
C1585 H1588 0.950 . S
C1586 C1585 1.387 . S
C1586 C1589 1.387 . S
H1587 C1583 0.950 . S
H1588 C1585 0.950 . S
C1589 C1580 1.390 1_455 S
C1589 H1582 0.950 . S
C1589 C1586 1.387 . S
C1590 C1591 1.387 . S
C1590 H1594 0.950 . S
C1590 C1599 1.390 . S
C1591 C1590 1.387 . S
C1591 C1593 1.387 . S
H1592 C1599 0.950 . S
C1593 C1591 1.387 . S
C1593 C1595 1.390 . S
C1593 H1597 0.950 . S
H1594 C1590 0.950 . S
C1595 C1593 1.390 . S
C1595 C1596 1.387 . S
C1595 H1598 0.950 . S
C1596 C1595 1.387 . S
C1596 C1599 1.387 . S
H1597 C1593 0.950 . S
H1598 C1595 0.950 . S
C1599 C1590 1.390 . S
C1599 H1592 0.950 . S
C1599 C1596 1.387 . S
C1600 C1601 1.387 . S
C1600 H1604 0.950 . S
C1600 C1609 1.390 1_545 S
C1601 C1600 1.387 . S
C1601 C1603 1.387 . S
H1602 C1609 0.950 . S
C1603 C1601 1.387 . S
C1603 C1605 1.390 1_545 S
C1603 H1607 0.950 . S
H1604 C1600 0.950 . S
C1605 C1603 1.390 1_565 S
C1605 C1606 1.387 . S
C1605 H1608 0.950 . S
C1606 C1605 1.387 . S
C1606 C1609 1.387 . S
H1607 C1603 0.950 . S
H1608 C1605 0.950 . S
C1609 C1600 1.390 1_565 S
C1609 H1602 0.950 . S
C1609 C1606 1.387 . S
C1610 C1611 1.387 1_655 S
C1610 H1614 0.950 . S
C1610 C1619 1.390 . S
C1611 C1610 1.387 1_455 S
C1611 C1613 1.387 . S
H1612 C1619 0.950 . S
C1613 C1611 1.387 . S
C1613 C1615 1.390 . S
C1613 H1617 0.950 . S
H1614 C1610 0.950 . S
C1615 C1613 1.390 . S
C1615 C1616 1.387 1_455 S
C1615 H1618 0.950 . S
C1616 C1615 1.387 1_655 S
C1616 C1619 1.387 . S
H1617 C1613 0.950 . S
H1618 C1615 0.950 . S
C1619 C1610 1.390 . S
C1619 H1612 0.950 . S
C1619 C1616 1.387 . S
C1620 C1621 1.387 . S
C1620 H1624 0.950 . S
C1620 C1629 1.390 1_455 S
C1621 C1620 1.387 . S
C1621 C1623 1.387 . S
H1622 C1629 0.950 . S
C1623 C1621 1.387 . S
C1623 C1625 1.390 1_455 S
C1623 H1627 0.950 . S
H1624 C1620 0.950 . S
C1625 C1623 1.390 1_655 S
C1625 C1626 1.387 . S
C1625 H1628 0.950 . S
C1626 C1625 1.387 . S
C1626 C1629 1.387 . S
H1627 C1623 0.950 . S
H1628 C1625 0.950 . S
C1629 C1620 1.390 1_655 S
C1629 H1622 0.950 . S
C1629 C1626 1.387 . S
C1630 C1631 1.387 . S
C1630 H1634 0.950 . S
C1630 C1639 1.390 . S
C1631 C1630 1.387 . S
C1631 C1633 1.387 . S
H1632 C1639 0.950 . S
C1633 C1631 1.387 . S
C1633 C1635 1.390 . S
C1633 H1637 0.950 . S
H1634 C1630 0.950 . S
C1635 C1633 1.390 . S
C1635 C1636 1.387 . S
C1635 H1638 0.950 . S
C1636 C1635 1.387 . S
C1636 C1639 1.387 . S
H1637 C1633 0.950 . S
H1638 C1635 0.950 . S
C1639 C1630 1.390 . S
C1639 H1632 0.950 . S
C1639 C1636 1.387 . S
C1640 C1641 1.387 . S
C1640 H1644 0.950 . S
C1640 C1649 1.390 1_565 S
C1641 C1640 1.387 . S
C1641 C1643 1.387 . S
H1642 C1649 0.950 . S
C1643 C1641 1.387 . S
C1643 C1645 1.390 1_565 S
C1643 H1647 0.950 . S
H1644 C1640 0.950 . S
C1645 C1643 1.390 1_545 S
C1645 C1646 1.387 . S
C1645 H1648 0.950 . S
C1646 C1645 1.387 . S
C1646 C1649 1.387 . S
H1647 C1643 0.950 . S
H1648 C1645 0.950 . S
C1649 C1640 1.390 1_545 S
C1649 H1642 0.950 . S
C1649 C1646 1.387 . S
C1650 C1651 1.387 1_455 S
C1650 H1654 0.950 . S
C1650 C1659 1.390 . S
C1651 C1650 1.387 1_655 S
C1651 C1653 1.387 . S
H1652 C1659 0.950 . S
C1653 C1651 1.387 . S
C1653 C1655 1.390 . S
C1653 H1657 0.950 . S
H1654 C1650 0.950 . S
C1655 C1653 1.390 . S
C1655 C1656 1.387 1_655 S
C1655 H1658 0.950 . S
C1656 C1655 1.387 1_455 S
C1656 C1659 1.387 . S
H1657 C1653 0.950 . S
H1658 C1655 0.950 . S
C1659 C1650 1.390 . S
C1659 H1652 0.950 . S
C1659 C1656 1.387 . S
C1660 C1661 1.387 . S
C1660 H1664 0.950 . S
C1660 C1669 1.390 . S
C1661 C1660 1.387 . S
C1661 C1663 1.387 . S
H1662 C1669 0.950 . S
C1663 C1661 1.387 . S
C1663 C1665 1.390 . S
C1663 H1667 0.950 . S
H1664 C1660 0.950 . S
C1665 C1663 1.390 . S
C1665 C1666 1.387 . S
C1665 H1668 0.950 . S
C1666 C1665 1.387 . S
C1666 C1669 1.387 . S
H1667 C1663 0.950 . S
H1668 C1665 0.950 . S
C1669 C1660 1.390 . S
C1669 H1662 0.950 . S
C1669 C1666 1.387 . S
C1670 C1671 1.387 . S
C1670 H1674 0.950 . S
C1670 C1679 1.390 1_545 S
C1671 C1670 1.387 . S
C1671 C1673 1.387 . S
H1672 C1679 0.950 . S
C1673 C1671 1.387 . S
C1673 C1675 1.390 1_545 S
C1673 H1677 0.950 . S
H1674 C1670 0.950 . S
C1675 C1673 1.390 1_565 S
C1675 C1676 1.387 . S
C1675 H1678 0.950 . S
C1676 C1675 1.387 . S
C1676 C1679 1.387 . S
H1677 C1673 0.950 . S
H1678 C1675 0.950 . S
C1679 C1670 1.390 1_565 S
C1679 H1672 0.950 . S
C1679 C1676 1.387 . S
C1680 C1681 1.387 . S
C1680 H1684 0.950 . S
C1680 C1689 1.390 . S
C1681 C1680 1.387 . S
C1681 C1683 1.387 . S
H1682 C1689 0.950 . S
C1683 C1681 1.387 . S
C1683 C1685 1.390 . S
C1683 H1687 0.950 . S
H1684 C1680 0.950 . S
C1685 C1683 1.390 . S
C1685 C1686 1.387 . S
C1685 H1688 0.950 . S
C1686 C1685 1.387 . S
C1686 C1689 1.387 . S
H1687 C1683 0.950 . S
H1688 C1685 0.950 . S
C1689 C1680 1.390 . S
C1689 H1682 0.950 . S
C1689 C1686 1.387 . S
C1690 C1691 1.387 . S
C1690 H1694 0.950 . S
C1690 C1699 1.390 . S
C1691 C1690 1.387 . S
C1691 C1693 1.387 . S
H1692 C1699 0.950 . S
C1693 C1691 1.387 . S
C1693 C1695 1.390 . S
C1693 H1697 0.950 . S
H1694 C1690 0.950 . S
C1695 C1693 1.390 . S
C1695 C1696 1.387 . S
C1695 H1698 0.950 . S
C1696 C1695 1.387 . S
C1696 C1699 1.387 . S
H1697 C1693 0.950 . S
H1698 C1695 0.950 . S
C1699 C1690 1.390 . S
C1699 H1692 0.950 . S
C1699 C1696 1.387 . S
C1700 C1701 1.387 . S
C1700 H1704 0.950 . S
C1700 C1709 1.390 . S
C1701 C1700 1.387 . S
C1701 C1703 1.387 . S
H1702 C1709 0.950 . S
C1703 C1701 1.387 . S
C1703 C1705 1.390 . S
C1703 H1707 0.950 . S
H1704 C1700 0.950 . S
C1705 C1703 1.390 . S
C1705 C1706 1.387 . S
C1705 H1708 0.950 . S
C1706 C1705 1.387 . S
C1706 C1709 1.387 . S
H1707 C1703 0.950 . S
H1708 C1705 0.950 . S
C1709 C1700 1.390 . S
C1709 H1702 0.950 . S
C1709 C1706 1.387 . S
C1710 C1711 1.387 . S
C1710 H1714 0.950 . S
C1710 C1719 1.390 . S
C1711 C1710 1.387 . S
C1711 C1713 1.387 . S
H1712 C1719 0.950 . S
C1713 C1711 1.387 . S
C1713 C1715 1.390 . S
C1713 H1717 0.950 . S
H1714 C1710 0.950 . S
C1715 C1713 1.390 . S
C1715 C1716 1.387 . S
C1715 H1718 0.950 . S
C1716 C1715 1.387 . S
C1716 C1719 1.387 . S
H1717 C1713 0.950 . S
H1718 C1715 0.950 . S
C1719 C1710 1.390 . S
C1719 H1712 0.950 . S
C1719 C1716 1.387 . S
C1720 C1721 1.387 . S
C1720 H1724 0.950 . S
C1720 C1729 1.390 . S
C1721 C1720 1.387 . S
C1721 C1723 1.387 . S
H1722 C1729 0.950 . S
C1723 C1721 1.387 . S
C1723 C1725 1.390 . S
C1723 H1727 0.950 . S
H1724 C1720 0.950 . S
C1725 C1723 1.390 . S
C1725 C1726 1.387 . S
C1725 H1728 0.950 . S
C1726 C1725 1.387 . S
C1726 C1729 1.387 . S
H1727 C1723 0.950 . S
H1728 C1725 0.950 . S
C1729 C1720 1.390 . S
C1729 H1722 0.950 . S
C1729 C1726 1.387 . S
C1730 C1731 1.387 . S
C1730 H1734 0.950 . S
C1730 C1739 1.390 . S
C1731 C1730 1.387 . S
C1731 C1733 1.387 . S
H1732 C1739 0.950 . S
C1733 C1731 1.387 . S
C1733 C1735 1.390 . S
C1733 H1737 0.950 . S
H1734 C1730 0.950 . S
C1735 C1733 1.390 . S
C1735 C1736 1.387 . S
C1735 H1738 0.950 . S
C1736 C1735 1.387 . S
C1736 C1739 1.387 . S
H1737 C1733 0.950 . S
H1738 C1735 0.950 . S
C1739 C1730 1.390 . S
C1739 H1732 0.950 . S
C1739 C1736 1.387 . S
C1740 C1741 1.387 . S
C1740 H1744 0.950 . S
C1740 C1749 1.390 . S
C1741 C1740 1.387 . S
C1741 C1743 1.387 . S
H1742 C1749 0.950 . S
C1743 C1741 1.387 . S
C1743 C1745 1.390 . S
C1743 H1747 0.950 . S
H1744 C1740 0.950 . S
C1745 C1743 1.390 . S
C1745 C1746 1.387 . S
C1745 H1748 0.950 . S
C1746 C1745 1.387 . S
C1746 C1749 1.387 . S
H1747 C1743 0.950 . S
H1748 C1745 0.950 . S
C1749 C1740 1.390 . S
C1749 H1742 0.950 . S
C1749 C1746 1.387 . S
C1750 C1751 1.387 . S
C1750 H1754 0.950 . S
C1750 C1759 1.390 . S
C1751 C1750 1.387 . S
C1751 C1753 1.387 . S
H1752 C1759 0.950 . S
C1753 C1751 1.387 . S
C1753 C1755 1.390 . S
C1753 H1757 0.950 . S
H1754 C1750 0.950 . S
C1755 C1753 1.390 . S
C1755 C1756 1.387 . S
C1755 H1758 0.950 . S
C1756 C1755 1.387 . S
C1756 C1759 1.387 . S
H1757 C1753 0.950 . S
H1758 C1755 0.950 . S
C1759 C1750 1.390 . S
C1759 H1752 0.950 . S
C1759 C1756 1.387 . S
C1760 C1761 1.387 . S
C1760 H1764 0.950 . S
C1760 C1769 1.390 . S
C1761 C1760 1.387 . S
C1761 C1763 1.387 . S
H1762 C1769 0.950 . S
C1763 C1761 1.387 . S
C1763 C1765 1.390 . S
C1763 H1767 0.950 . S
H1764 C1760 0.950 . S
C1765 C1763 1.390 . S
C1765 C1766 1.387 . S
C1765 H1768 0.950 . S
C1766 C1765 1.387 . S
C1766 C1769 1.387 . S
H1767 C1763 0.950 . S
H1768 C1765 0.950 . S
C1769 C1760 1.390 . S
C1769 H1762 0.950 . S
C1769 C1766 1.387 . S
C1770 C1771 1.387 . S
C1770 H1774 0.950 . S
C1770 C1779 1.390 1_556 S
C1771 C1770 1.387 . S
C1771 C1773 1.387 . S
H1772 C1779 0.950 . S
C1773 C1771 1.387 . S
C1773 C1775 1.390 . S
C1773 H1777 0.950 . S
H1774 C1770 0.950 . S
C1775 C1773 1.390 . S
C1775 C1776 1.387 1_556 S
C1775 H1778 0.950 . S
C1776 C1775 1.387 1_554 S
C1776 C1779 1.387 . S
H1777 C1773 0.950 . S
H1778 C1775 0.950 . S
C1779 C1770 1.390 1_554 S
C1779 H1772 0.950 . S
C1779 C1776 1.387 . S
C1780 C1781 1.387 . S
C1780 H1784 0.950 . S
C1780 C1789 1.390 . S
C1781 C1780 1.387 . S
C1781 C1783 1.387 . S
H1782 C1789 0.950 . S
C1783 C1781 1.387 . S
C1783 C1785 1.390 . S
C1783 H1787 0.950 . S
H1784 C1780 0.950 . S
C1785 C1783 1.390 . S
C1785 C1786 1.387 1_556 S
C1785 H1788 0.950 1_556 S
C1786 C1785 1.387 1_554 S
C1786 C1789 1.387 1_554 S
H1787 C1783 0.950 . S
H1788 C1785 0.950 1_554 S
C1789 C1780 1.390 . S
C1789 H1782 0.950 . S
C1789 C1786 1.387 1_556 S
C1790 C1791 1.387 . S
C1790 H1794 0.950 . S
C1790 C1799 1.390 . S
C1791 C1790 1.387 . S
C1791 C1793 1.387 . S
H1792 C1799 0.950 . S
C1793 C1791 1.387 . S
C1793 C1795 1.390 . S
C1793 H1797 0.950 . S
H1794 C1790 0.950 . S
C1795 C1793 1.390 . S
C1795 C1796 1.387 1_556 S
C1795 H1798 0.950 . S
C1796 C1795 1.387 1_554 S
C1796 C1799 1.387 1_554 S
H1797 C1793 0.950 . S
H1798 C1795 0.950 . S
C1799 C1790 1.390 . S
C1799 H1792 0.950 . S
C1799 C1796 1.387 1_556 S
C1800 C1801 1.387 . S
C1800 H1804 0.950 . S
C1800 C1809 1.390 . S
C1801 C1800 1.387 . S
C1801 C1803 1.387 . S
H1802 C1809 0.950 . S
C1803 C1801 1.387 . S
C1803 C1805 1.390 . S
C1803 H1807 0.950 . S
H1804 C1800 0.950 . S
C1805 C1803 1.390 . S
C1805 C1806 1.387 . S
C1805 H1808 0.950 . S
C1806 C1805 1.387 . S
C1806 C1809 1.387 . S
H1807 C1803 0.950 . S
H1808 C1805 0.950 . S
C1809 C1800 1.390 . S
C1809 H1802 0.950 . S
C1809 C1806 1.387 . S
C1810 C1811 1.387 . S
C1810 H1814 0.950 . S
C1810 C1819 1.390 . S
C1811 C1810 1.387 . S
C1811 C1813 1.387 . S
H1812 C1819 0.950 . S
C1813 C1811 1.387 . S
C1813 C1815 1.390 . S
C1813 H1817 0.950 . S
H1814 C1810 0.950 . S
C1815 C1813 1.390 . S
C1815 C1816 1.387 . S
C1815 H1818 0.950 . S
C1816 C1815 1.387 . S
C1816 C1819 1.387 . S
H1817 C1813 0.950 . S
H1818 C1815 0.950 . S
C1819 C1810 1.390 . S
C1819 H1812 0.950 . S
C1819 C1816 1.387 . S
C1820 C1821 1.387 . S
C1820 H1824 0.950 1_556 S
C1820 C1829 1.390 . S
C1821 C1820 1.387 . S
C1821 C1823 1.387 . S
H1822 C1829 0.950 . S
C1823 C1821 1.387 . S
C1823 C1825 1.390 . S
C1823 H1827 0.950 . S
H1824 C1820 0.950 1_554 S
C1825 C1823 1.390 . S
C1825 C1826 1.387 . S
C1825 H1828 0.950 . S
C1826 C1825 1.387 . S
C1826 C1829 1.387 . S
H1827 C1823 0.950 . S
H1828 C1825 0.950 . S
C1829 C1820 1.390 . S
C1829 H1822 0.950 . S
C1829 C1826 1.387 . S
C1830 C1831 1.387 . S
C1830 H1834 0.950 . S
C1830 C1839 1.390 . S
C1831 C1830 1.387 . S
C1831 C1833 1.387 . S
H1832 C1839 0.950 . S
C1833 C1831 1.387 . S
C1833 C1835 1.390 . S
C1833 H1837 0.950 . S
H1834 C1830 0.950 . S
C1835 C1833 1.390 . S
C1835 C1836 1.387 . S
C1835 H1838 0.950 . S
C1836 C1835 1.387 . S
C1836 C1839 1.387 . S
H1837 C1833 0.950 . S
H1838 C1835 0.950 . S
C1839 C1830 1.390 . S
C1839 H1832 0.950 . S
C1839 C1836 1.387 . S
C1840 C1841 1.387 . S
C1840 H1844 0.950 . S
C1840 C1849 1.390 . S
C1841 C1840 1.387 . S
C1841 C1843 1.387 . S
H1842 C1849 0.950 . S
C1843 C1841 1.387 . S
C1843 C1845 1.390 . S
C1843 H1847 0.950 . S
H1844 C1840 0.950 . S
C1845 C1843 1.390 . S
C1845 C1846 1.387 . S
C1845 H1848 0.950 . S
C1846 C1845 1.387 . S
C1846 C1849 1.387 . S
H1847 C1843 0.950 . S
H1848 C1845 0.950 . S
C1849 C1840 1.390 . S
C1849 H1842 0.950 . S
C1849 C1846 1.387 . S
C1850 C1851 1.387 . S
C1850 H1854 0.950 . S
C1850 C1859 1.390 . S
C1851 C1850 1.387 . S
C1851 C1853 1.387 . S
H1852 C1859 0.950 . S
C1853 C1851 1.387 . S
C1853 C1855 1.390 . S
C1853 H1857 0.950 . S
H1854 C1850 0.950 . S
C1855 C1853 1.390 . S
C1855 C1856 1.387 . S
C1855 H1858 0.950 . S
C1856 C1855 1.387 . S
C1856 C1859 1.387 . S
H1857 C1853 0.950 . S
H1858 C1855 0.950 . S
C1859 C1850 1.390 . S
C1859 H1852 0.950 . S
C1859 C1856 1.387 . S
C1860 C1861 1.387 . S
C1860 H1864 0.950 . S
C1860 C1869 1.390 . S
C1861 C1860 1.387 . S
C1861 C1863 1.387 . S
H1862 C1869 0.950 . S
C1863 C1861 1.387 . S
C1863 C1865 1.390 . S
C1863 H1867 0.950 . S
H1864 C1860 0.950 . S
C1865 C1863 1.390 . S
C1865 C1866 1.387 . S
C1865 H1868 0.950 . S
C1866 C1865 1.387 . S
C1866 C1869 1.387 . S
H1867 C1863 0.950 . S
H1868 C1865 0.950 . S
C1869 C1860 1.390 . S
C1869 H1862 0.950 . S
C1869 C1866 1.387 . S
C1870 C1871 1.387 . S
C1870 H1874 0.950 . S
C1870 C1879 1.390 . S
C1871 C1870 1.387 . S
C1871 C1873 1.387 . S
H1872 C1879 0.950 . S
C1873 C1871 1.387 . S
C1873 C1875 1.390 . S
C1873 H1877 0.950 . S
H1874 C1870 0.950 . S
C1875 C1873 1.390 . S
C1875 C1876 1.387 . S
C1875 H1878 0.950 . S
C1876 C1875 1.387 . S
C1876 C1879 1.387 . S
H1877 C1873 0.950 . S
H1878 C1875 0.950 . S
C1879 C1870 1.390 . S
C1879 H1872 0.950 . S
C1879 C1876 1.387 . S
C1880 C1881 1.387 . S
C1880 H1884 0.950 . S
C1880 C1889 1.390 . S
C1881 C1880 1.387 . S
C1881 C1883 1.387 . S
H1882 C1889 0.950 . S
C1883 C1881 1.387 . S
C1883 C1885 1.390 . S
C1883 H1887 0.950 . S
H1884 C1880 0.950 . S
C1885 C1883 1.390 . S
C1885 C1886 1.387 . S
C1885 H1888 0.950 . S
C1886 C1885 1.387 . S
C1886 C1889 1.387 . S
H1887 C1883 0.950 . S
H1888 C1885 0.950 . S
C1889 C1880 1.390 . S
C1889 H1882 0.950 . S
C1889 C1886 1.387 . S
C1890 C1891 1.387 . S
C1890 H1894 0.950 . S
C1890 C1899 1.390 . S
C1891 C1890 1.387 . S
C1891 C1893 1.387 . S
H1892 C1899 0.950 . S
C1893 C1891 1.387 . S
C1893 C1895 1.390 . S
C1893 H1897 0.950 . S
H1894 C1890 0.950 . S
C1895 C1893 1.390 . S
C1895 C1896 1.387 . S
C1895 H1898 0.950 . S
C1896 C1895 1.387 . S
C1896 C1899 1.387 . S
H1897 C1893 0.950 . S
H1898 C1895 0.950 . S
C1899 C1890 1.390 . S
C1899 H1892 0.950 . S
C1899 C1896 1.387 . S
C1900 C1901 1.387 . S
C1900 H1904 0.950 . S
C1900 C1909 1.390 . S
C1901 C1900 1.387 . S
C1901 C1903 1.387 . S
H1902 C1909 0.950 . S
C1903 C1901 1.387 . S
C1903 C1905 1.390 . S
C1903 H1907 0.950 . S
H1904 C1900 0.950 . S
C1905 C1903 1.390 . S
C1905 C1906 1.387 . S
C1905 H1908 0.950 . S
C1906 C1905 1.387 . S
C1906 C1909 1.387 . S
H1907 C1903 0.950 . S
H1908 C1905 0.950 . S
C1909 C1900 1.390 . S
C1909 H1902 0.950 . S
C1909 C1906 1.387 . S
C1910 C1911 1.387 . S
C1910 H1914 0.950 . S
C1910 C1919 1.390 . S
C1911 C1910 1.387 . S
C1911 C1913 1.387 . S
H1912 C1919 0.950 . S
C1913 C1911 1.387 . S
C1913 C1915 1.390 . S
C1913 H1917 0.950 . S
H1914 C1910 0.950 . S
C1915 C1913 1.390 . S
C1915 C1916 1.387 . S
C1915 H1918 0.950 . S
C1916 C1915 1.387 . S
C1916 C1919 1.387 . S
H1917 C1913 0.950 . S
H1918 C1915 0.950 . S
C1919 C1910 1.390 . S
C1919 H1912 0.950 . S
C1919 C1916 1.387 . S
C1920 C1921 1.387 . S
C1920 H1924 0.950 . S
C1920 C1929 1.390 . S
C1921 C1920 1.387 . S
C1921 C1923 1.387 . S
H1922 C1929 0.950 . S
C1923 C1921 1.387 . S
C1923 C1925 1.390 . S
C1923 H1927 0.950 . S
H1924 C1920 0.950 . S
C1925 C1923 1.390 . S
C1925 C1926 1.387 . S
C1925 H1928 0.950 . S
C1926 C1925 1.387 . S
C1926 C1929 1.387 . S
H1927 C1923 0.950 . S
H1928 C1925 0.950 . S
C1929 C1920 1.390 . S
C1929 H1922 0.950 . S
C1929 C1926 1.387 . S
C1930 C1931 1.387 . S
C1930 H1934 0.950 . S
C1930 C1939 1.390 . S
C1931 C1930 1.387 . S
C1931 C1933 1.387 . S
H1932 C1939 0.950 . S
C1933 C1931 1.387 . S
C1933 C1935 1.390 . S
C1933 H1937 0.950 . S
H1934 C1930 0.950 . S
C1935 C1933 1.390 . S
C1935 C1936 1.387 . S
C1935 H1938 0.950 . S
C1936 C1935 1.387 . S
C1936 C1939 1.387 . S
H1937 C1933 0.950 . S
H1938 C1935 0.950 . S
C1939 C1930 1.390 . S
C1939 H1932 0.950 . S
C1939 C1936 1.387 . S
C1940 C1941 1.387 . S
C1940 H1944 0.950 . S
C1940 C1949 1.390 . S
C1941 C1940 1.387 . S
C1941 C1943 1.387 . S
H1942 C1949 0.950 . S
C1943 C1941 1.387 . S
C1943 C1945 1.390 . S
C1943 H1947 0.950 . S
H1944 C1940 0.950 . S
C1945 C1943 1.390 . S
C1945 C1946 1.387 . S
C1945 H1948 0.950 . S
C1946 C1945 1.387 . S
C1946 C1949 1.387 . S
H1947 C1943 0.950 . S
H1948 C1945 0.950 . S
C1949 C1940 1.390 . S
C1949 H1942 0.950 . S
C1949 C1946 1.387 . S
C1950 C1951 1.387 . S
C1950 H1954 0.950 . S
C1950 C1959 1.390 . S
C1951 C1950 1.387 . S
C1951 C1953 1.387 1_554 S
H1952 C1959 0.950 . S
C1953 C1951 1.387 1_556 S
C1953 C1955 1.390 . S
C1953 H1957 0.950 . S
H1954 C1950 0.950 . S
C1955 C1953 1.390 . S
C1955 C1956 1.387 . S
C1955 H1958 0.950 . S
C1956 C1955 1.387 . S
C1956 C1959 1.387 1_556 S
H1957 C1953 0.950 . S
H1958 C1955 0.950 . S
C1959 C1950 1.390 . S
C1959 H1952 0.950 . S
C1959 C1956 1.387 1_554 S
C1960 C1961 1.387 . S
C1960 H1964 0.950 . S
C1960 C1969 1.390 . S
C1961 C1960 1.387 . S
C1961 C1963 1.387 1_556 S
H1962 C1969 0.950 . S
C1963 C1961 1.387 1_554 S
C1963 C1965 1.390 . S
C1963 H1967 0.950 . S
H1964 C1960 0.950 . S
C1965 C1963 1.390 . S
C1965 C1966 1.387 . S
C1965 H1968 0.950 . S
C1966 C1965 1.387 . S
C1966 C1969 1.387 1_554 S
H1967 C1963 0.950 . S
H1968 C1965 0.950 . S
C1969 C1960 1.390 . S
C1969 H1962 0.950 . S
C1969 C1966 1.387 1_556 S
C1970 C1971 1.387 . S
C1970 H1974 0.950 . S
C1970 C1979 1.390 1_554 S
C1971 C1970 1.387 . S
C1971 C1973 1.387 . S
H1972 C1979 0.950 . S
C1973 C1971 1.387 . S
C1973 C1975 1.390 1_554 S
C1973 H1977 0.950 . S
H1974 C1970 0.950 . S
C1975 C1973 1.390 1_556 S
C1975 C1976 1.387 . S
C1975 H1978 0.950 . S
C1976 C1975 1.387 . S
C1976 C1979 1.387 . S
H1977 C1973 0.950 . S
H1978 C1975 0.950 . S
C1979 C1970 1.390 1_556 S
C1979 H1972 0.950 . S
C1979 C1976 1.387 . S
C1980 C1981 1.387 . S
C1980 H1984 0.950 . S
C1980 C1989 1.390 . S
C1981 C1980 1.387 . S
C1981 C1983 1.387 . S
H1982 C1989 0.950 . S
C1983 C1981 1.387 . S
C1983 C1985 1.390 . S
C1983 H1987 0.950 . S
H1984 C1980 0.950 . S
C1985 C1983 1.390 . S
C1985 C1986 1.387 . S
C1985 H1988 0.950 . S
C1986 C1985 1.387 . S
C1986 C1989 1.387 . S
H1987 C1983 0.950 . S
H1988 C1985 0.950 . S
C1989 C1980 1.390 . S
C1989 H1982 0.950 . S
C1989 C1986 1.387 . S
C1990 C1991 1.387 . S
C1990 H1994 0.950 . S
C1990 C1999 1.390 . S
C1991 C1990 1.387 . S
C1991 C1993 1.387 . S
H1992 C1999 0.950 . S
C1993 C1991 1.387 . S
C1993 C1995 1.390 . S
C1993 H1997 0.950 . S
H1994 C1990 0.950 . S
C1995 C1993 1.390 . S
C1995 C1996 1.387 . S
C1995 H1998 0.950 . S
C1996 C1995 1.387 . S
C1996 C1999 1.387 . S
H1997 C1993 0.950 . S
H1998 C1995 0.950 . S
C1999 C1990 1.390 . S
C1999 H1992 0.950 . S
C1999 C1996 1.387 . S
C2000 C2001 1.387 . S
C2000 H2004 0.950 . S
C2000 C2009 1.390 . S
C2001 C2000 1.387 . S
C2001 C2003 1.387 . S
H2002 C2009 0.950 . S
C2003 C2001 1.387 . S
C2003 C2005 1.390 . S
C2003 H2007 0.950 . S
H2004 C2000 0.950 . S
C2005 C2003 1.390 . S
C2005 C2006 1.387 . S
C2005 H2008 0.950 . S
C2006 C2005 1.387 . S
C2006 C2009 1.387 . S
H2007 C2003 0.950 . S
H2008 C2005 0.950 . S
C2009 C2000 1.390 . S
C2009 H2002 0.950 . S
C2009 C2006 1.387 . S
C2010 C2011 1.387 . S
C2010 H2014 0.950 . S
C2010 C2019 1.390 . S
C2011 C2010 1.387 . S
C2011 C2013 1.387 . S
H2012 C2019 0.950 . S
C2013 C2011 1.387 . S
C2013 C2015 1.390 . S
C2013 H2017 0.950 . S
H2014 C2010 0.950 . S
C2015 C2013 1.390 . S
C2015 C2016 1.387 . S
C2015 H2018 0.950 . S
C2016 C2015 1.387 . S
C2016 C2019 1.387 . S
H2017 C2013 0.950 . S
H2018 C2015 0.950 . S
C2019 C2010 1.390 . S
C2019 H2012 0.950 . S
C2019 C2016 1.387 . S
C2020 C2021 1.387 . S
C2020 H2024 0.950 . S
C2020 C2029 1.390 . S
C2021 C2020 1.387 . S
C2021 C2023 1.387 . S
H2022 C2029 0.950 . S
C2023 C2021 1.387 . S
C2023 C2025 1.390 . S
C2023 H2027 0.950 . S
H2024 C2020 0.950 . S
C2025 C2023 1.390 . S
C2025 C2026 1.387 . S
C2025 H2028 0.950 . S
C2026 C2025 1.387 . S
C2026 C2029 1.387 . S
H2027 C2023 0.950 . S
H2028 C2025 0.950 . S
C2029 C2020 1.390 . S
C2029 H2022 0.950 . S
C2029 C2026 1.387 . S
C2030 C2031 1.387 . S
C2030 H2034 0.950 . S
C2030 C2039 1.390 . S
C2031 C2030 1.387 . S
C2031 C2033 1.387 . S
H2032 C2039 0.950 . S
C2033 C2031 1.387 . S
C2033 C2035 1.390 . S
C2033 H2037 0.950 . S
H2034 C2030 0.950 . S
C2035 C2033 1.390 . S
C2035 C2036 1.387 . S
C2035 H2038 0.950 . S
C2036 C2035 1.387 . S
C2036 C2039 1.387 . S
H2037 C2033 0.950 . S
H2038 C2035 0.950 . S
C2039 C2030 1.390 . S
C2039 H2032 0.950 . S
C2039 C2036 1.387 . S
C2040 C2041 1.387 . S
C2040 H2044 0.950 . S
C2040 C2049 1.390 . S
C2041 C2040 1.387 . S
C2041 C2043 1.387 . S
H2042 C2049 0.950 . S
C2043 C2041 1.387 . S
C2043 C2045 1.390 . S
C2043 H2047 0.950 . S
H2044 C2040 0.950 . S
C2045 C2043 1.390 . S
C2045 C2046 1.387 . S
C2045 H2048 0.950 . S
C2046 C2045 1.387 . S
C2046 C2049 1.387 . S
H2047 C2043 0.950 . S
H2048 C2045 0.950 . S
C2049 C2040 1.390 . S
C2049 H2042 0.950 . S
C2049 C2046 1.387 . S
C2050 C2051 1.387 . S
C2050 H2054 0.950 . S
C2050 C2059 1.390 . S
C2051 C2050 1.387 . S
C2051 C2053 1.387 . S
H2052 C2059 0.950 . S
C2053 C2051 1.387 . S
C2053 C2055 1.390 . S
C2053 H2057 0.950 . S
H2054 C2050 0.950 . S
C2055 C2053 1.390 . S
C2055 C2056 1.387 . S
C2055 H2058 0.950 . S
C2056 C2055 1.387 . S
C2056 C2059 1.387 . S
H2057 C2053 0.950 . S
H2058 C2055 0.950 . S
C2059 C2050 1.390 . S
C2059 H2052 0.950 . S
C2059 C2056 1.387 . S
C2060 C2061 1.387 . S
C2060 H2064 0.950 . S
C2060 C2069 1.390 . S
C2061 C2060 1.387 . S
C2061 C2063 1.387 . S
H2062 C2069 0.950 . S
C2063 C2061 1.387 . S
C2063 C2065 1.390 . S
C2063 H2067 0.950 . S
H2064 C2060 0.950 . S
C2065 C2063 1.390 . S
C2065 C2066 1.387 . S
C2065 H2068 0.950 . S
C2066 C2065 1.387 . S
C2066 C2069 1.387 . S
H2067 C2063 0.950 . S
H2068 C2065 0.950 . S
C2069 C2060 1.390 . S
C2069 H2062 0.950 . S
C2069 C2066 1.387 . S
C2070 C2071 1.387 . S
C2070 H2074 0.950 . S
C2070 C2079 1.390 . S
C2071 C2070 1.387 . S
C2071 C2073 1.387 . S
H2072 C2079 0.950 . S
C2073 C2071 1.387 . S
C2073 C2075 1.390 . S
C2073 H2077 0.950 . S
H2074 C2070 0.950 . S
C2075 C2073 1.390 . S
C2075 C2076 1.387 . S
C2075 H2078 0.950 . S
C2076 C2075 1.387 . S
C2076 C2079 1.387 . S
H2077 C2073 0.950 . S
H2078 C2075 0.950 . S
C2079 C2070 1.390 . S
C2079 H2072 0.950 . S
C2079 C2076 1.387 . S
C2080 C2081 1.387 . S
C2080 H2084 0.950 . S
C2080 C2089 1.390 . S
C2081 C2080 1.387 . S
C2081 C2083 1.387 . S
H2082 C2089 0.950 . S
C2083 C2081 1.387 . S
C2083 C2085 1.390 . S
C2083 H2087 0.950 . S
H2084 C2080 0.950 . S
C2085 C2083 1.390 . S
C2085 C2086 1.387 . S
C2085 H2088 0.950 . S
C2086 C2085 1.387 . S
C2086 C2089 1.387 . S
H2087 C2083 0.950 . S
H2088 C2085 0.950 . S
C2089 C2080 1.390 . S
C2089 H2082 0.950 . S
C2089 C2086 1.387 . S
C2090 C2091 1.387 . S
C2090 H2094 0.950 . S
C2090 C2099 1.390 . S
C2091 C2090 1.387 . S
C2091 C2093 1.387 . S
H2092 C2099 0.950 . S
C2093 C2091 1.387 . S
C2093 C2095 1.390 . S
C2093 H2097 0.950 . S
H2094 C2090 0.950 . S
C2095 C2093 1.390 . S
C2095 C2096 1.387 . S
C2095 H2098 0.950 . S
C2096 C2095 1.387 . S
C2096 C2099 1.387 . S
H2097 C2093 0.950 . S
H2098 C2095 0.950 . S
C2099 C2090 1.390 . S
C2099 H2092 0.950 . S
C2099 C2096 1.387 . S
C2100 C2101 1.387 . S
C2100 H2104 0.950 . S
C2100 C2109 1.390 . S
C2101 C2100 1.387 . S
C2101 C2103 1.387 . S
H2102 C2109 0.950 . S
C2103 C2101 1.387 . S
C2103 C2105 1.390 . S
C2103 H2107 0.950 . S
H2104 C2100 0.950 . S
C2105 C2103 1.390 . S
C2105 C2106 1.387 . S
C2105 H2108 0.950 . S
C2106 C2105 1.387 . S
C2106 C2109 1.387 . S
H2107 C2103 0.950 . S
H2108 C2105 0.950 . S
C2109 C2100 1.390 . S
C2109 H2102 0.950 . S
C2109 C2106 1.387 . S
C2110 C2111 1.387 . S
C2110 H2114 0.950 . S
C2110 C2119 1.390 . S
C2111 C2110 1.387 . S
C2111 C2113 1.387 . S
H2112 C2119 0.950 . S
C2113 C2111 1.387 . S
C2113 C2115 1.390 . S
C2113 H2117 0.950 . S
H2114 C2110 0.950 . S
C2115 C2113 1.390 . S
C2115 C2116 1.387 . S
C2115 H2118 0.950 . S
C2116 C2115 1.387 . S
C2116 C2119 1.387 . S
H2117 C2113 0.950 . S
H2118 C2115 0.950 . S
C2119 C2110 1.390 . S
C2119 H2112 0.950 . S
C2119 C2116 1.387 . S
C2120 C2121 1.387 . S
C2120 H2124 0.950 . S
C2120 C2129 1.390 . S
C2121 C2120 1.387 . S
C2121 C2123 1.387 . S
H2122 C2129 0.950 . S
C2123 C2121 1.387 . S
C2123 C2125 1.390 . S
C2123 H2127 0.950 . S
H2124 C2120 0.950 . S
C2125 C2123 1.390 . S
C2125 C2126 1.387 . S
C2125 H2128 0.950 . S
C2126 C2125 1.387 . S
C2126 C2129 1.387 . S
H2127 C2123 0.950 . S
H2128 C2125 0.950 . S
C2129 C2120 1.390 . S
C2129 H2122 0.950 . S
C2129 C2126 1.387 . S
C2130 C2131 1.387 . S
C2130 H2134 0.950 . S
C2130 C2139 1.390 . S
C2131 C2130 1.387 . S
C2131 C2133 1.387 . S
H2132 C2139 0.950 . S
C2133 C2131 1.387 . S
C2133 C2135 1.390 . S
C2133 H2137 0.950 . S
H2134 C2130 0.950 . S
C2135 C2133 1.390 . S
C2135 C2136 1.387 . S
C2135 H2138 0.950 . S
C2136 C2135 1.387 . S
C2136 C2139 1.387 . S
H2137 C2133 0.950 . S
H2138 C2135 0.950 . S
C2139 C2130 1.390 . S
C2139 H2132 0.950 . S
C2139 C2136 1.387 . S
C2140 C2141 1.387 . S
C2140 H2144 0.950 . S
C2140 C2149 1.390 . S
C2141 C2140 1.387 . S
C2141 C2143 1.387 . S
H2142 C2149 0.950 . S
C2143 C2141 1.387 . S
C2143 C2145 1.390 . S
C2143 H2147 0.950 . S
H2144 C2140 0.950 . S
C2145 C2143 1.390 . S
C2145 C2146 1.387 . S
C2145 H2148 0.950 . S
C2146 C2145 1.387 . S
C2146 C2149 1.387 . S
H2147 C2143 0.950 . S
H2148 C2145 0.950 . S
C2149 C2140 1.390 . S
C2149 H2142 0.950 . S
C2149 C2146 1.387 . S
C2150 C2151 1.387 . S
C2150 H2154 0.950 . S
C2150 C2159 1.390 . S
C2151 C2150 1.387 . S
C2151 C2153 1.387 . S
H2152 C2159 0.950 . S
C2153 C2151 1.387 . S
C2153 C2155 1.390 . S
C2153 H2157 0.950 . S
H2154 C2150 0.950 . S
C2155 C2153 1.390 . S
C2155 C2156 1.387 . S
C2155 H2158 0.950 . S
C2156 C2155 1.387 . S
C2156 C2159 1.387 . S
H2157 C2153 0.950 . S
H2158 C2155 0.950 . S
C2159 C2150 1.390 . S
C2159 H2152 0.950 . S
C2159 C2156 1.387 . S
C2160 C2161 1.387 . S
C2160 H2164 0.950 . S
C2160 C2169 1.390 . S
C2161 C2160 1.387 . S
C2161 C2163 1.387 1_455 S
H2162 C2169 0.950 . S
C2163 C2161 1.387 1_655 S
C2163 C2165 1.390 . S
C2163 H2167 0.950 . S
H2164 C2160 0.950 . S
C2165 C2163 1.390 . S
C2165 C2166 1.387 . S
C2165 H2168 0.950 . S
C2166 C2165 1.387 . S
C2166 C2169 1.387 1_655 S
H2167 C2163 0.950 . S
H2168 C2165 0.950 . S
C2169 C2160 1.390 . S
C2169 H2162 0.950 . S
C2169 C2166 1.387 1_455 S
C2170 C2171 1.387 . S
C2170 H2174 0.950 . S
C2170 C2179 1.390 . S
C2171 C2170 1.387 . S
C2171 C2173 1.387 . S
H2172 C2179 0.950 . S
C2173 C2171 1.387 . S
C2173 C2175 1.390 . S
C2173 H2177 0.950 . S
H2174 C2170 0.950 . S
C2175 C2173 1.390 . S
C2175 C2176 1.387 . S
C2175 H2178 0.950 . S
C2176 C2175 1.387 . S
C2176 C2179 1.387 . S
H2177 C2173 0.950 . S
H2178 C2175 0.950 . S
C2179 C2170 1.390 . S
C2179 H2172 0.950 . S
C2179 C2176 1.387 . S
C2180 C2181 1.387 . S
C2180 H2184 0.950 . S
C2180 C2189 1.390 1_565 S
C2181 C2180 1.387 . S
C2181 C2183 1.387 . S
H2182 C2189 0.950 . S
C2183 C2181 1.387 . S
C2183 C2185 1.390 1_565 S
C2183 H2187 0.950 . S
H2184 C2180 0.950 . S
C2185 C2183 1.390 1_545 S
C2185 C2186 1.387 . S
C2185 H2188 0.950 . S
C2186 C2185 1.387 . S
C2186 C2189 1.387 . S
H2187 C2183 0.950 . S
H2188 C2185 0.950 . S
C2189 C2180 1.390 1_545 S
C2189 H2182 0.950 . S
C2189 C2186 1.387 . S
C2190 C2191 1.387 1_455 S
C2190 H2194 0.950 . S
C2190 C2199 1.390 . S
C2191 C2190 1.387 1_655 S
C2191 C2193 1.387 . S
H2192 C2199 0.950 . S
C2193 C2191 1.387 . S
C2193 C2195 1.390 . S
C2193 H2197 0.950 . S
H2194 C2190 0.950 . S
C2195 C2193 1.390 . S
C2195 C2196 1.387 1_655 S
C2195 H2198 0.950 . S
C2196 C2195 1.387 1_455 S
C2196 C2199 1.387 . S
H2197 C2193 0.950 . S
H2198 C2195 0.950 . S
C2199 C2190 1.390 . S
C2199 H2192 0.950 . S
C2199 C2196 1.387 . S
C2200 C2201 1.387 . S
C2200 H2204 0.950 . S
C2200 C2209 1.390 . S
C2201 C2200 1.387 . S
C2201 C2203 1.387 . S
H2202 C2209 0.950 . S
C2203 C2201 1.387 . S
C2203 C2205 1.390 . S
C2203 H2207 0.950 . S
H2204 C2200 0.950 . S
C2205 C2203 1.390 . S
C2205 C2206 1.387 . S
C2205 H2208 0.950 . S
C2206 C2205 1.387 . S
C2206 C2209 1.387 . S
H2207 C2203 0.950 . S
H2208 C2205 0.950 . S
C2209 C2200 1.390 . S
C2209 H2202 0.950 . S
C2209 C2206 1.387 . S
C2210 C2211 1.387 . S
C2210 H2214 0.950 . S
C2210 C2219 1.390 1_545 S
C2211 C2210 1.387 . S
C2211 C2213 1.387 . S
H2212 C2219 0.950 . S
C2213 C2211 1.387 . S
C2213 C2215 1.390 1_545 S
C2213 H2217 0.950 . S
H2214 C2210 0.950 . S
C2215 C2213 1.390 1_565 S
C2215 C2216 1.387 . S
C2215 H2218 0.950 . S
C2216 C2215 1.387 . S
C2216 C2219 1.387 . S
H2217 C2213 0.950 . S
H2218 C2215 0.950 . S
C2219 C2210 1.390 1_565 S
C2219 H2212 0.950 . S
C2219 C2216 1.387 . S
C2220 C2221 1.387 . S
C2220 H2224 0.950 . S
C2220 C2229 1.390 . S
C2221 C2220 1.387 . S
C2221 C2223 1.387 . S
H2222 C2229 0.950 . S
C2223 C2221 1.387 . S
C2223 C2225 1.390 . S
C2223 H2227 0.950 . S
H2224 C2220 0.950 . S
C2225 C2223 1.390 . S
C2225 C2226 1.387 . S
C2225 H2228 0.950 . S
C2226 C2225 1.387 . S
C2226 C2229 1.387 . S
H2227 C2223 0.950 . S
H2228 C2225 0.950 . S
C2229 C2220 1.390 . S
C2229 H2222 0.950 . S
C2229 C2226 1.387 . S
C2230 C2231 1.387 . S
C2230 H2234 0.950 . S
C2230 C2239 1.390 . S
C2231 C2230 1.387 . S
C2231 C2233 1.387 . S
H2232 C2239 0.950 . S
C2233 C2231 1.387 . S
C2233 C2235 1.390 . S
C2233 H2237 0.950 . S
H2234 C2230 0.950 . S
C2235 C2233 1.390 . S
C2235 C2236 1.387 . S
C2235 H2238 0.950 . S
C2236 C2235 1.387 . S
C2236 C2239 1.387 . S
H2237 C2233 0.950 . S
H2238 C2235 0.950 . S
C2239 C2230 1.390 . S
C2239 H2232 0.950 . S
C2239 C2236 1.387 . S
C2240 C2241 1.387 . S
C2240 H2244 0.950 . S
C2240 C2249 1.390 . S
C2241 C2240 1.387 . S
C2241 C2243 1.387 . S
H2242 C2249 0.950 . S
C2243 C2241 1.387 . S
C2243 C2245 1.390 . S
C2243 H2247 0.950 . S
H2244 C2240 0.950 . S
C2245 C2243 1.390 . S
C2245 C2246 1.387 . S
C2245 H2248 0.950 . S
C2246 C2245 1.387 . S
C2246 C2249 1.387 . S
H2247 C2243 0.950 . S
H2248 C2245 0.950 . S
C2249 C2240 1.390 . S
C2249 H2242 0.950 . S
C2249 C2246 1.387 . S
C2250 C2251 1.387 . S
C2250 H2254 0.950 . S
C2250 C2259 1.390 . S
C2251 C2250 1.387 . S
C2251 C2253 1.387 . S
H2252 C2259 0.950 . S
C2253 C2251 1.387 . S
C2253 C2255 1.390 . S
C2253 H2257 0.950 . S
H2254 C2250 0.950 . S
C2255 C2253 1.390 . S
C2255 C2256 1.387 . S
C2255 H2258 0.950 . S
C2256 C2255 1.387 . S
C2256 C2259 1.387 . S
H2257 C2253 0.950 . S
H2258 C2255 0.950 . S
C2259 C2250 1.390 . S
C2259 H2252 0.950 . S
C2259 C2256 1.387 . S
C2260 C2261 1.387 . S
C2260 H2264 0.950 . S
C2260 C2269 1.390 . S
C2261 C2260 1.387 . S
C2261 C2263 1.387 . S
H2262 C2269 0.950 . S
C2263 C2261 1.387 . S
C2263 C2265 1.390 . S
C2263 H2267 0.950 . S
H2264 C2260 0.950 . S
C2265 C2263 1.390 . S
C2265 C2266 1.387 . S
C2265 H2268 0.950 . S
C2266 C2265 1.387 . S
C2266 C2269 1.387 . S
H2267 C2263 0.950 . S
H2268 C2265 0.950 . S
C2269 C2260 1.390 . S
C2269 H2262 0.950 . S
C2269 C2266 1.387 . S
C2270 C2271 1.387 . S
C2270 H2274 0.950 . S
C2270 C2279 1.390 . S
C2271 C2270 1.387 . S
C2271 C2273 1.387 . S
H2272 C2279 0.950 . S
C2273 C2271 1.387 . S
C2273 C2275 1.390 . S
C2273 H2277 0.950 . S
H2274 C2270 0.950 . S
C2275 C2273 1.390 . S
C2275 C2276 1.387 . S
C2275 H2278 0.950 . S
C2276 C2275 1.387 . S
C2276 C2279 1.387 . S
H2277 C2273 0.950 . S
H2278 C2275 0.950 . S
C2279 C2270 1.390 . S
C2279 H2272 0.950 . S
C2279 C2276 1.387 . S
C2280 C2281 1.387 1_556 S
C2280 H2284 0.950 . S
C2280 C2289 1.390 . S
C2281 C2280 1.387 1_554 S
C2281 C2283 1.387 . S
H2282 C2289 0.950 . S
C2283 C2281 1.387 . S
C2283 C2285 1.390 1_554 S
C2283 H2287 0.950 . S
H2284 C2280 0.950 . S
C2285 C2283 1.390 1_556 S
C2285 C2286 1.387 . S
C2285 H2288 0.950 . S
C2286 C2285 1.387 . S
C2286 C2289 1.387 . S
H2287 C2283 0.950 . S
H2288 C2285 0.950 . S
C2289 C2280 1.390 . S
C2289 H2282 0.950 . S
C2289 C2286 1.387 . S
C2290 C2291 1.387 . S
C2290 H2294 0.950 . S
C2290 C2299 1.390 . S
C2291 C2290 1.387 . S
C2291 C2293 1.387 . S
H2292 C2299 0.950 . S
C2293 C2291 1.387 . S
C2293 C2295 1.390 . S
C2293 H2297 0.950 . S
H2294 C2290 0.950 . S
C2295 C2293 1.390 . S
C2295 C2296 1.387 1_556 S
C2295 H2298 0.950 1_556 S
C2296 C2295 1.387 1_554 S
C2296 C2299 1.387 1_554 S
H2297 C2293 0.950 . S
H2298 C2295 0.950 1_554 S
C2299 C2290 1.390 . S
C2299 H2292 0.950 . S
C2299 C2296 1.387 1_556 S
C2300 C2301 1.387 . S
C2300 H2304 0.950 . S
C2300 C2309 1.390 . S
C2301 C2300 1.387 . S
C2301 C2303 1.387 . S
H2302 C2309 0.950 1_554 S
C2303 C2301 1.387 . S
C2303 C2305 1.390 . S
C2303 H2307 0.950 . S
H2304 C2300 0.950 . S
C2305 C2303 1.390 . S
C2305 C2306 1.387 1_556 S
C2305 H2308 0.941 1_556 S
C2306 C2305 1.387 1_554 S
C2306 C2309 1.387 1_554 S
H2307 C2303 0.950 . S
H2308 C2305 0.941 1_554 S
C2309 C2300 1.390 . S
C2309 H2302 0.950 1_556 S
C2309 C2306 1.387 1_556 S
C2310 C2311 1.387 . S
C2310 H2314 0.950 . S
C2310 C2319 1.390 . S
C2311 C2310 1.387 . S
C2311 C2313 1.387 . S
H2312 C2319 0.950 . S
C2313 C2311 1.387 . S
C2313 C2315 1.390 . S
C2313 H2317 0.950 . S
H2314 C2310 0.950 . S
C2315 C2313 1.390 . S
C2315 C2316 1.387 . S
C2315 H2318 0.950 . S
C2316 C2315 1.387 . S
C2316 C2319 1.387 . S
H2317 C2313 0.950 . S
H2318 C2315 0.950 . S
C2319 C2310 1.390 . S
C2319 H2312 0.950 . S
C2319 C2316 1.387 . S
C2320 C2321 1.387 . S
C2320 H2324 0.950 . S
C2320 C2329 1.390 . S
C2321 C2320 1.387 . S
C2321 C2323 1.387 . S
H2322 C2329 0.950 . S
C2323 C2321 1.387 . S
C2323 C2325 1.390 . S
C2323 H2327 0.950 . S
H2324 C2320 0.950 . S
C2325 C2323 1.390 . S
C2325 C2326 1.387 . S
C2325 H2328 0.950 . S
C2326 C2325 1.387 . S
C2326 C2329 1.387 . S
H2327 C2323 0.950 . S
H2328 C2325 0.950 . S
C2329 C2320 1.390 . S
C2329 H2322 0.950 . S
C2329 C2326 1.387 . S
C2330 C2331 1.387 . S
C2330 H2334 0.950 . S
C2330 C2339 1.390 . S
C2331 C2330 1.387 . S
C2331 C2333 1.387 . S
H2332 C2339 0.950 . S
C2333 C2331 1.387 . S
C2333 C2335 1.390 . S
C2333 H2337 0.950 . S
H2334 C2330 0.950 . S
C2335 C2333 1.390 . S
C2335 C2336 1.387 . S
C2335 H2338 0.950 . S
C2336 C2335 1.387 . S
C2336 C2339 1.387 . S
H2337 C2333 0.950 . S
H2338 C2335 0.950 . S
C2339 C2330 1.390 . S
C2339 H2332 0.950 . S
C2339 C2336 1.387 . S
C2340 C2341 1.387 1_655 S
C2340 H2344 0.950 . S
C2340 C2349 1.390 . S
C2341 C2340 1.387 1_455 S
C2341 C2343 1.387 . S
H2342 C2349 0.950 . S
C2343 C2341 1.387 . S
C2343 C2345 1.390 . S
C2343 H2347 0.950 . S
H2344 C2340 0.950 . S
C2345 C2343 1.390 . S
C2345 C2346 1.387 1_455 S
C2345 H2348 0.950 . S
C2346 C2345 1.387 1_655 S
C2346 C2349 1.387 . S
H2347 C2343 0.950 . S
H2348 C2345 0.950 . S
C2349 C2340 1.390 . S
C2349 H2342 0.950 . S
C2349 C2346 1.387 . S
C2350 C2351 1.387 . S
C2350 H2354 0.950 . S
C2350 C2359 1.390 . S
C2351 C2350 1.387 . S
C2351 C2353 1.387 . S
H2352 C2359 0.950 . S
C2353 C2351 1.387 . S
C2353 C2355 1.390 . S
C2353 H2357 0.950 . S
H2354 C2350 0.950 . S
C2355 C2353 1.390 . S
C2355 C2356 1.387 . S
C2355 H2358 0.950 1_554 S
C2356 C2355 1.387 . S
C2356 C2359 1.387 . S
H2357 C2353 0.950 . S
H2358 C2355 0.950 1_556 S
C2359 C2350 1.390 . S
C2359 H2352 0.950 . S
C2359 C2356 1.387 . S
C2360 C2361 1.387 1_565 S
C2360 H2364 0.950 . S
C2360 C2369 1.390 . S
C2361 C2360 1.387 1_545 S
C2361 C2363 1.387 . S
H2362 C2369 0.950 . S
C2363 C2361 1.387 . S
C2363 C2365 1.390 . S
C2363 H2367 0.950 . S
H2364 C2360 0.950 . S
C2365 C2363 1.390 . S
C2365 C2366 1.387 1_545 S
C2365 H2368 0.950 . S
C2366 C2365 1.387 1_565 S
C2366 C2369 1.387 . S
H2367 C2363 0.950 . S
H2368 C2365 0.950 . S
C2369 C2360 1.390 . S
C2369 H2362 0.950 . S
C2369 C2366 1.387 . S
C2370 C2371 1.387 1_545 S
C2370 H2374 0.950 . S
C2370 C2379 1.390 . S
C2371 C2370 1.387 1_565 S
C2371 C2373 1.387 . S
H2372 C2379 0.950 . S
C2373 C2371 1.387 . S
C2373 C2375 1.390 . S
C2373 H2377 0.950 . S
H2374 C2370 0.950 . S
C2375 C2373 1.390 . S
C2375 C2376 1.387 1_565 S
C2375 H2378 0.950 . S
C2376 C2375 1.387 1_545 S
C2376 C2379 1.387 . S
H2377 C2373 0.950 . S
H2378 C2375 0.950 . S
C2379 C2370 1.390 . S
C2379 H2372 0.950 . S
C2379 C2376 1.387 . S
C2380 C2381 1.387 . S
C2380 H2384 0.950 . S
C2380 C2389 1.390 . S
C2381 C2380 1.387 . S
C2381 C2383 1.387 1_655 S
H2382 C2389 0.950 . S
C2383 C2381 1.387 1_455 S
C2383 C2385 1.390 . S
C2383 H2387 0.950 . S
H2384 C2380 0.950 . S
C2385 C2383 1.390 . S
C2385 C2386 1.387 . S
C2385 H2388 0.950 . S
C2386 C2385 1.387 . S
C2386 C2389 1.387 1_455 S
H2387 C2383 0.950 . S
H2388 C2385 0.950 . S
C2389 C2380 1.390 . S
C2389 H2382 0.950 . S
C2389 C2386 1.387 1_655 S
C2390 C2391 1.387 . S
C2390 H2394 0.950 . S
C2390 C2399 1.390 . S
C2391 C2390 1.387 . S
C2391 C2393 1.387 . S
H2392 C2399 0.950 . S
C2393 C2391 1.387 . S
C2393 C2395 1.390 . S
C2393 H2397 0.950 . S
H2394 C2390 0.950 . S
C2395 C2393 1.390 . S
C2395 C2396 1.387 . S
C2395 H2398 0.950 . S
C2396 C2395 1.387 . S
C2396 C2399 1.387 . S
H2397 C2393 0.950 . S
H2398 C2395 0.950 . S
C2399 C2390 1.390 . S
C2399 H2392 0.950 . S
C2399 C2396 1.387 . S
C2400 C2401 1.387 . S
C2400 H2404 0.950 . S
C2400 C2409 1.390 . S
C2401 C2400 1.387 . S
C2401 C2403 1.387 . S
H2402 C2409 0.950 . S
C2403 C2401 1.387 . S
C2403 C2405 1.390 . S
C2403 H2407 0.950 . S
H2404 C2400 0.950 . S
C2405 C2403 1.390 . S
C2405 C2406 1.387 . S
C2405 H2408 0.950 . S
C2406 C2405 1.387 . S
C2406 C2409 1.387 . S
H2407 C2403 0.950 . S
H2408 C2405 0.950 . S
C2409 C2400 1.390 . S
C2409 H2402 0.950 . S
C2409 C2406 1.387 . S
C2410 C2411 1.387 . S
C2410 H2414 0.950 . S
C2410 C2419 1.390 . S
C2411 C2410 1.387 . S
C2411 C2413 1.387 . S
H2412 C2419 0.950 . S
C2413 C2411 1.387 . S
C2413 C2415 1.390 . S
C2413 H2417 0.950 . S
H2414 C2410 0.950 . S
C2415 C2413 1.390 . S
C2415 C2416 1.387 . S
C2415 H2418 0.950 . S
C2416 C2415 1.387 . S
C2416 C2419 1.387 . S
H2417 C2413 0.950 . S
H2418 C2415 0.950 . S
C2419 C2410 1.390 . S
C2419 H2412 0.950 . S
C2419 C2416 1.387 . S
C2420 C2421 1.387 . S
C2420 H2424 0.950 . S
C2420 C2429 1.390 . S
C2421 C2420 1.387 . S
C2421 C2423 1.387 . S
H2422 C2429 0.950 . S
C2423 C2421 1.387 . S
C2423 C2425 1.390 . S
C2423 H2427 0.950 . S
H2424 C2420 0.950 . S
C2425 C2423 1.390 . S
C2425 C2426 1.387 . S
C2425 H2428 0.950 . S
C2426 C2425 1.387 . S
C2426 C2429 1.387 . S
H2427 C2423 0.950 . S
H2428 C2425 0.950 . S
C2429 C2420 1.390 . S
C2429 H2422 0.950 . S
C2429 C2426 1.387 . S
C2430 C2431 1.387 . S
C2430 H2434 0.950 . S
C2430 C2439 1.390 . S
C2431 C2430 1.387 . S
C2431 C2433 1.387 . S
H2432 C2439 0.950 . S
C2433 C2431 1.387 . S
C2433 C2435 1.390 . S
C2433 H2437 0.950 . S
H2434 C2430 0.950 . S
C2435 C2433 1.390 . S
C2435 C2436 1.387 . S
C2435 H2438 0.950 . S
C2436 C2435 1.387 . S
C2436 C2439 1.387 . S
H2437 C2433 0.950 . S
H2438 C2435 0.950 . S
C2439 C2430 1.390 . S
C2439 H2432 0.950 . S
C2439 C2436 1.387 . S
C2440 C2441 1.387 . S
C2440 H2444 0.950 . S
C2440 C2449 1.390 . S
C2441 C2440 1.387 . S
C2441 C2443 1.387 . S
H2442 C2449 0.950 . S
C2443 C2441 1.387 . S
C2443 C2445 1.390 . S
C2443 H2447 0.950 . S
H2444 C2440 0.950 . S
C2445 C2443 1.390 . S
C2445 C2446 1.387 . S
C2445 H2448 0.950 . S
C2446 C2445 1.387 . S
C2446 C2449 1.387 . S
H2447 C2443 0.950 . S
H2448 C2445 0.950 . S
C2449 C2440 1.390 . S
C2449 H2442 0.950 . S
C2449 C2446 1.387 . S
C2450 C2451 1.387 . S
C2450 H2454 0.950 . S
C2450 C2459 1.390 . S
C2451 C2450 1.387 . S
C2451 C2453 1.387 . S
H2452 C2459 0.950 . S
C2453 C2451 1.387 . S
C2453 C2455 1.390 . S
C2453 H2457 0.950 . S
H2454 C2450 0.950 . S
C2455 C2453 1.390 . S
C2455 C2456 1.387 . S
C2455 H2458 0.950 . S
C2456 C2455 1.387 . S
C2456 C2459 1.387 . S
H2457 C2453 0.950 . S
H2458 C2455 0.950 . S
C2459 C2450 1.390 . S
C2459 H2452 0.950 . S
C2459 C2456 1.387 . S
C2460 C2461 1.387 . S
C2460 H2464 0.950 . S
C2460 C2469 1.390 . S
C2461 C2460 1.387 . S
C2461 C2463 1.387 . S
H2462 C2469 0.950 . S
C2463 C2461 1.387 . S
C2463 C2465 1.390 . S
C2463 H2467 0.950 . S
H2464 C2460 0.950 . S
C2465 C2463 1.390 . S
C2465 C2466 1.387 . S
C2465 H2468 0.950 . S
C2466 C2465 1.387 . S
C2466 C2469 1.387 . S
H2467 C2463 0.950 . S
H2468 C2465 0.950 . S
C2469 C2460 1.390 . S
C2469 H2462 0.950 . S
C2469 C2466 1.387 . S
C2470 C2471 1.387 . S
C2470 H2474 0.950 . S
C2470 C2479 1.390 . S
C2471 C2470 1.387 . S
C2471 C2473 1.387 . S
H2472 C2479 0.950 . S
C2473 C2471 1.387 . S
C2473 C2475 1.390 . S
C2473 H2477 0.950 . S
H2474 C2470 0.950 . S
C2475 C2473 1.390 . S
C2475 C2476 1.387 . S
C2475 H2478 0.950 . S
C2476 C2475 1.387 . S
C2476 C2479 1.387 . S
H2477 C2473 0.950 . S
H2478 C2475 0.950 . S
C2479 C2470 1.390 . S
C2479 H2472 0.950 . S
C2479 C2476 1.387 . S
C2480 C2481 1.387 . S
C2480 H2484 0.950 . S
C2480 C2489 1.390 . S
C2481 C2480 1.387 . S
C2481 C2483 1.387 . S
H2482 C2489 0.950 . S
C2483 C2481 1.387 . S
C2483 C2485 1.390 . S
C2483 H2487 0.950 . S
H2484 C2480 0.950 . S
C2485 C2483 1.390 . S
C2485 C2486 1.387 . S
C2485 H2488 0.950 . S
C2486 C2485 1.387 . S
C2486 C2489 1.387 . S
H2487 C2483 0.950 . S
H2488 C2485 0.950 . S
C2489 C2480 1.390 . S
C2489 H2482 0.950 . S
C2489 C2486 1.387 . S
C2490 C2491 1.387 . S
C2490 H2494 0.950 . S
C2490 C2499 1.390 . S
C2491 C2490 1.387 . S
C2491 C2493 1.387 . S
H2492 C2499 0.950 . S
C2493 C2491 1.387 . S
C2493 C2495 1.390 . S
C2493 H2497 0.950 . S
H2494 C2490 0.950 . S
C2495 C2493 1.390 . S
C2495 C2496 1.387 . S
C2495 H2498 0.950 . S
C2496 C2495 1.387 . S
C2496 C2499 1.387 . S
H2497 C2493 0.950 . S
H2498 C2495 0.950 . S
C2499 C2490 1.390 . S
C2499 H2492 0.950 . S
C2499 C2496 1.387 . S
C2500 C2501 1.387 . S
C2500 H2504 0.950 . S
C2500 C2509 1.390 . S
C2501 C2500 1.387 . S
C2501 C2503 1.387 . S
H2502 C2509 0.950 . S
C2503 C2501 1.387 . S
C2503 C2505 1.390 . S
C2503 H2507 0.950 . S
H2504 C2500 0.950 . S
C2505 C2503 1.390 . S
C2505 C2506 1.387 . S
C2505 H2508 0.950 . S
C2506 C2505 1.387 . S
C2506 C2509 1.387 . S
H2507 C2503 0.950 . S
H2508 C2505 0.950 . S
C2509 C2500 1.390 . S
C2509 H2502 0.950 . S
C2509 C2506 1.387 . S
C2510 C2511 1.387 . S
C2510 H2514 0.950 . S
C2510 C2519 1.390 . S
C2511 C2510 1.387 . S
C2511 C2513 1.387 . S
H2512 C2519 0.950 . S
C2513 C2511 1.387 . S
C2513 C2515 1.390 . S
C2513 H2517 0.950 . S
H2514 C2510 0.950 . S
C2515 C2513 1.390 . S
C2515 C2516 1.387 . S
C2515 H2518 0.950 . S
C2516 C2515 1.387 . S
C2516 C2519 1.387 . S
H2517 C2513 0.950 . S
H2518 C2515 0.950 . S
C2519 C2510 1.390 . S
C2519 H2512 0.950 . S
C2519 C2516 1.387 . S
C1441 C617 2.582 . S
C1446 C17 2.582 . S
C1451 C657 2.585 . S
C1456 C57 2.585 . S
C1461 C97 2.583 . S
C1466 C697 2.583 . S
C1471 C137 2.585 . S
C1476 C977 2.584 . S
C1481 C177 2.585 . S
C1486 C1017 2.585 . S
C1491 C217 2.584 . S
C1496 C1057 2.583 . S
C1501 C1322 2.582 . S
C1506 C242 2.582 . S
C1511 C1362 2.582 . S
C1516 C282 2.582 . S
C1521 C322 2.583 . S
C1526 C1402 2.583 . S
C1531 C722 2.584 . S
C1536 C362 2.585 . S
C1541 C402 2.585 . S
C1546 C762 2.585 . S
C1551 C442 2.585 . S
C1556 C802 2.585 . S
C1561 C1097 2.584 . S
C1566 C497 2.584 . S
C1571 C537 2.582 . S
C1576 C1137 2.582 . S
C1581 C1177 2.583 . S
C1586 C577 2.583 . S
C1591 C1202 2.584 . S
C1596 C842 2.583 . S
C1601 C1242 2.586 . S
C1606 C882 2.585 . S
C1611 C922 2.585 . S
C1616 C1282 2.584 . S
C1621 C29 0.503 . S
C1626 C189 0.503 . S
C1631 C69 0.499 . S
C1636 C229 0.502 . S
C1641 C109 0.503 . S
C1646 C149 0.503 . S
C1651 C248 0.493 . S
C1656 C408 0.497 . S
C1661 C288 0.496 . S
C1666 C448 0.500 . S
C1671 C328 0.503 . S
C1676 C368 0.503 . S
C1681 C509 0.492 . S
C1686 C669 0.494 . S
C1691 C709 0.494 . S
C1696 C549 0.497 . S
C1701 C589 0.493 . S
C1706 C629 0.493 . S
C1711 C728 0.503 . S
C1716 C888 0.501 . S
C1721 C768 0.500 . S
C1726 C928 0.502 . S
C1731 C848 0.493 . S
C1736 C808 0.493 . S
C1741 C989 0.496 . S
C1746 C1149 0.493 . S
C1751 C1189 0.502 . S
C1756 C1029 0.499 . S
C1761 C1069 0.503 . S
C1766 C1109 0.503 . S
C1771 C1208 0.500 . S
C1776 C1368 0.496 . S
C1781 C1248 0.502 . S
C1786 C1408 0.503 . S
C1791 C1288 0.503 . S
C1796 C1328 0.503 . S
C1801 C429 1.715 . S
C1806 C12 1.811 1_556 S
C1811 C52 1.811 1_556 S
C1816 C469 1.716 . S
C1821 C92 1.810 1_556 S
C1826 C389 1.714 . S
C1831 C132 1.810 . S
C1836 C349 1.713 . S
C1841 C172 1.809 . S
C1846 C269 1.712 . S
C1851 C309 1.713 . S
C1856 C212 1.810 . S
C1861 C271 1.810 . S
C1866 C168 1.713 . S
C1871 C208 1.716 . S
C1876 C311 1.811 . S
C1881 C351 1.810 . S
C1886 C128 1.713 . S
C1891 C391 1.810 . S
C1896 C88 1.713 . S
C1901 C8 1.715 . S
C1906 C431 1.810 . S
C1911 C48 1.714 . S
C1916 C471 1.811 . S
C1921 C909 1.716 . S
C1926 C492 1.811 . S
C1931 C949 1.715 . S
C1936 C532 1.811 . S
C1941 C869 1.713 . S
C1946 C572 1.810 . S
C1951 C829 1.714 . S
C1956 C612 1.811 . S
C1961 C652 1.811 . S
C1966 C749 1.715 . S
C1971 C789 1.712 . S
C1976 C692 1.809 . S
C1981 C648 1.716 . S
C1986 C751 1.811 . S
C1991 C791 1.811 . S
C1996 C688 1.716 . S
C2001 C831 1.810 . S
C2006 C608 1.713 . S
C2011 C568 1.713 . S
C2016 C871 1.810 . S
C2021 C911 1.810 . S
C2026 C488 1.715 . S
C2031 C951 1.810 . S
C2036 C528 1.713 . S
C2041 C972 1.809 . S
C2046 C1389 1.712 . S
C2051 C1012 1.810 . S
C2056 C1429 1.713 . S
C2061 C1349 1.715 . S
C2066 C1052 1.811 . S
C2071 C1309 1.713 . S
C2076 C1092 1.810 . S
C2081 C1132 1.810 . S
C2086 C1229 1.715 . S
C2091 C1269 1.713 . S
C2096 C1172 1.810 . S
C2101 C1231 1.810 . S
C2106 C1128 1.714 . S
C2111 C1168 1.716 . S
C2116 C1271 1.811 . S
C2121 C1311 1.810 . S
C2126 C1088 1.714 . S
C2131 C1351 1.811 . S
C2136 C1048 1.715 . S
C2141 C968 1.712 . S
C2146 C1391 1.809 . S
C2151 C1008 1.714 . S
C2156 C1431 1.811 . S
C2161 C31 3.193 . S
C2166 C191 3.192 . S
C2171 C231 3.193 . S
C2176 C71 3.192 . S
C2181 C111 3.192 . S
C2186 C151 3.192 . S
C2191 C252 3.193 . S
C2196 C412 3.192 . S
C2201 C452 3.193 . S
C2206 C292 3.192 . S
C2211 C332 3.192 . S
C2216 C372 3.192 . S
C2221 C671 3.193 . S
C2226 C511 3.193 . S
C2231 C711 3.193 . S
C2236 C551 3.192 . S
C2241 C631 3.193 . S
C2246 C591 3.193 . S
C2251 C892 3.192 . S
C2256 C732 3.193 . S
C2261 C772 3.192 . S
C2266 C932 3.192 . S
C2271 C852 3.192 . S
C2276 C812 3.192 . S
C2281 C1151 3.193 . S
C2286 C991 3.192 . S
C2291 C1031 3.193 . S
C2296 C1191 3.193 . S
C2301 C1071 3.193 . S
C2306 C1111 3.193 . S
C2311 C1372 3.193 . S
C2316 C1212 3.193 . S
C2321 C1252 3.192 . S
C2326 C1412 3.192 . S
C2331 C1292 3.193 . S
C2336 C1332 3.193 . S
C2341 C2 1.404 . S
C2346 C257 1.404 . S
C2351 C42 1.403 . S
C2356 C297 1.403 . S
C2361 C337 1.409 . S
C2366 C82 1.409 . S
C2371 C377 1.408 . S
C2376 C122 1.408 . S
C2381 C162 1.409 . S
C2386 C417 1.409 . S
C2391 C202 1.404 . S
C2396 C457 1.404 . S
C2401 C737 1.403 . S
C2406 C482 1.403 . S
C2411 C522 1.404 . S
C2416 C777 1.404 . S
C2421 C817 1.409 . S
C2426 C562 1.409 . S
C2431 C857 1.404 . S
C2436 C602 1.404 . S
C2441 C897 1.403 . S
C2446 C642 1.403 . S
C2451 C937 1.408 . S
C2456 C682 1.408 . S
C2461 C1217 1.403 . S
C2466 C962 1.403 . S
C2471 C1002 1.407 . S
C2476 C1257 1.407 . S
C2481 C1297 1.403 . S
C2486 C1042 1.403 . S
C2491 C1337 1.409 . S
C2496 C1082 1.409 . S
C2501 C1377 1.403 . S
C2506 C1122 1.403 . S
C2511 C1162 1.408 . S
C2516 C1417 1.408 . S
