# Generated by pormake.
# Topology wjf, (4)-cn, num edge types: 1
# Building blocks:
#     Node 0, Type 0, BuildingBlock: QUQFOY_clean_sbu_3, # of connection points: 4
#     Node 1, Type 0, BuildingBlock: QUQFOY_clean_sbu_3, # of connection points: 4
#     Node 2, Type 0, BuildingBlock: QUQFOY_clean_sbu_3, # of connection points: 4
#     Node 3, Type 0, BuildingBlock: QUQFOY_clean_sbu_3, # of connection points: 4
#     Node 4, Type 0, BuildingBlock: QUQFOY_clean_sbu_3, # of connection points: 4
#     Node 5, Type 0, BuildingBlock: QUQFOY_clean_sbu_3, # of connection points: 4
#     Node 6, Type 0, BuildingBlock: QUQFOY_clean_sbu_3, # of connection points: 4
#     Node 7, Type 0, BuildingBlock: QUQFOY_clean_sbu_3, # of connection points: 4
#     Node 8, Type 0, BuildingBlock: QUQFOY_clean_sbu_3, # of connection points: 4
#     Node 9, Type 0, BuildingBlock: QUQFOY_clean_sbu_3, # of connection points: 4
#     Node 10, Type 0, BuildingBlock: QUQFOY_clean_sbu_3, # of connection points: 4
#     Node 11, Type 0, BuildingBlock: QUQFOY_clean_sbu_3, # of connection points: 4
#     Edge 12, Type (0, 0), BuildingBlock: CIFDUS_clean_linker_0, # of connection points: 2
#     Edge 13, Type (0, 0), BuildingBlock: CIFDUS_clean_linker_0, # of connection points: 2
#     Edge 14, Type (0, 0), BuildingBlock: CIFDUS_clean_linker_0, # of connection points: 2
#     Edge 15, Type (0, 0), BuildingBlock: CIFDUS_clean_linker_0, # of connection points: 2
#     Edge 16, Type (0, 0), BuildingBlock: CIFDUS_clean_linker_0, # of connection points: 2
#     Edge 17, Type (0, 0), BuildingBlock: CIFDUS_clean_linker_0, # of connection points: 2
#     Edge 18, Type (0, 0), BuildingBlock: CIFDUS_clean_linker_0, # of connection points: 2
#     Edge 19, Type (0, 0), BuildingBlock: CIFDUS_clean_linker_0, # of connection points: 2
#     Edge 20, Type (0, 0), BuildingBlock: CIFDUS_clean_linker_0, # of connection points: 2
#     Edge 21, Type (0, 0), BuildingBlock: CIFDUS_clean_linker_0, # of connection points: 2
#     Edge 22, Type (0, 0), BuildingBlock: CIFDUS_clean_linker_0, # of connection points: 2
#     Edge 23, Type (0, 0), BuildingBlock: CIFDUS_clean_linker_0, # of connection points: 2
#     Edge 24, Type (0, 0), BuildingBlock: CIFDUS_clean_linker_0, # of connection points: 2
#     Edge 25, Type (0, 0), BuildingBlock: CIFDUS_clean_linker_0, # of connection points: 2
#     Edge 26, Type (0, 0), BuildingBlock: CIFDUS_clean_linker_0, # of connection points: 2
#     Edge 27, Type (0, 0), BuildingBlock: CIFDUS_clean_linker_0, # of connection points: 2
#     Edge 28, Type (0, 0), BuildingBlock: CIFDUS_clean_linker_0, # of connection points: 2
#     Edge 29, Type (0, 0), BuildingBlock: CIFDUS_clean_linker_0, # of connection points: 2
#     Edge 30, Type (0, 0), BuildingBlock: CIFDUS_clean_linker_0, # of connection points: 2
#     Edge 31, Type (0, 0), BuildingBlock: CIFDUS_clean_linker_0, # of connection points: 2
#     Edge 32, Type (0, 0), BuildingBlock: CIFDUS_clean_linker_0, # of connection points: 2
#     Edge 33, Type (0, 0), BuildingBlock: CIFDUS_clean_linker_0, # of connection points: 2
#     Edge 34, Type (0, 0), BuildingBlock: CIFDUS_clean_linker_0, # of connection points: 2
#     Edge 35, Type (0, 0), BuildingBlock: CIFDUS_clean_linker_0, # of connection points: 2
# Relax obj value: 0.104
# Max RMSD: 0.136
# Mean RMSD: 0.136
data_MOF--net-wjf--node1-QUQFOY_clean_sbu_3--edge1-CIFDUS_clean_linker_0
_symmetry_space_group_name_H-M    P1
_symmetry_Int_Tables_number       1
_symmetry_cell_setting            triclinic
loop_
_symmetry_equiv_pos_as_xyz
'x, y, z'
_cell_length_a     46.006998
_cell_length_b     45.99799
_cell_length_c     24.756539
_cell_angle_alpha  89.967625
_cell_angle_beta   89.984993
_cell_angle_gamma 120.10386
loop_
_atom_site_label
_atom_site_type_symbol
_atom_site_fract_x
_atom_site_fract_y
_atom_site_fract_z
_atom_type_partial_charge
C0 C 0.32842 0.34983 0.15253 0.0
O1 O 0.34306 0.33795 0.12422 0.0
Cd2 Cd 0.35771 0.35249 0.03088 0.0
O3 O 0.32032 0.37012 0.13181 0.0
Cd4 Cd 0.32316 0.3965 0.04383 0.0
C5 C 0.4084 0.43782 0.04119 0.0
O6 O 0.30868 0.34732 -0.01287 0.0
O7 O 0.32235 0.39406 0.94646 0.0
O8 O 0.26831 0.38709 0.06817 0.0
C9 C 0.31141 0.3628 0.94329 0.0
O10 O 0.40587 0.40955 0.03067 0.0
C11 C 0.27317 0.41526 0.05137 0.0
O12 O 0.38231 0.43999 0.05048 0.0
O13 O 0.30243 0.43599 0.03421 0.0
C14 C -0.00133 0.31532 0.47877 0.0
O15 O 0.02527 0.33349 0.45198 0.0
Cd16 Cd 0.02492 0.36307 0.37263 0.0
O17 O 0.97052 0.31063 0.46188 0.0
Cd18 Cd 0.94757 0.32555 0.38402 0.0
C19 C 0.98732 0.40664 0.4204 0.0
O20 O 0.98283 0.32679 0.30952 0.0
O21 O 0.95643 0.35442 0.29945 0.0
O22 O 0.90575 0.2691 0.36122 0.0
C23 C 0.97349 0.3426 0.27857 0.0
O24 O 0.01358 0.40712 0.40276 0.0
C25 C 0.88037 0.27236 0.36979 0.0
O26 O 0.9592 0.37929 0.42172 0.0
O27 O 0.88585 0.30048 0.38812 0.0
C28 C 0.66859 0.95297 0.88244 0.0
O29 O 0.68175 0.98218 0.86131 0.0
Cd30 Cd 0.68019 0.00578 0.77476 0.0
O31 O 0.64837 0.92661 0.85614 0.0
Cd32 Cd 0.62452 0.91651 0.76546 0.0
C33 C 0.59637 0.97553 0.77594 0.0
O34 O 0.67101 0.96024 0.7224 0.0
O35 O 0.65484 0.9137 0.68272 0.0
O36 O 0.59829 0.85625 0.77886 0.0
C37 C 0.67374 0.94528 0.68206 0.0
O38 O 0.62555 0.00157 0.77656 0.0
C39 C 0.57566 0.8493 0.74335 0.0
O40 O 0.59246 0.94609 0.77254 0.0
O41 O 0.57488 0.87374 0.72078 0.0
C42 C 0.67074 0.66908 0.15514 0.0
O43 O 0.65666 0.68146 0.12653 0.0
Cd44 Cd 0.64552 0.67177 0.03136 0.0
O45 O 0.68162 0.65118 0.13371 0.0
Cd46 Cd 0.68553 0.63028 0.04387 0.0
C47 C 0.60027 0.58509 0.0376 0.0
O48 O 0.69535 0.67897 -0.01036 0.0
O49 O 0.68727 0.6345 0.94707 0.0
O50 O 0.74229 0.64501 0.0668 0.0
C51 C 0.69405 0.66473 0.94508 0.0
O52 O 0.60158 0.61304 0.02906 0.0
C53 C 0.74011 0.6182 0.04849 0.0
O54 O 0.62695 0.58384 0.04646 0.0
O55 O 0.71133 0.59543 0.03254 0.0
C56 C 0.94605 0.65578 0.44125 0.0
O57 O 0.92027 0.63578 0.4143 0.0
Cd58 Cd 0.92855 0.60531 0.34292 0.0
O59 O 0.97465 0.6598 0.42881 0.0
Cd60 Cd 0.00272 0.64366 0.36137 0.0
C61 C 0.96532 0.56538 0.40718 0.0
O62 O 0.97198 0.64172 0.28002 0.0
O63 O -0.00048 0.61483 0.27876 0.0
O64 O 0.04047 0.70307 0.35515 0.0
C65 C 0.9848 0.6275 0.2529 0.0
O66 O 0.93973 0.56347 0.38391 0.0
C67 C 0.06757 0.70224 0.35467 0.0
O68 O 0.99287 0.59324 0.40928 0.0
O69 O 0.06504 0.67356 0.36002 0.0
C70 C 0.35794 0.0224 0.8634 0.0
O71 O 0.34698 0.9947 0.83868 0.0
Cd72 Cd 0.36805 0.98712 0.75562 0.0
O73 O 0.38095 0.04962 0.84251 0.0
Cd74 Cd 0.41196 0.06525 0.75529 0.0
C75 C 0.45327 0.02486 0.78233 0.0
O76 O 0.36997 0.02644 0.69209 0.0
O77 O 0.42202 0.04638 0.66971 0.0
O78 O 0.39747 0.10572 0.72592 0.0
C79 C 0.39132 0.03062 0.65611 0.0
O80 O 0.42521 -0.00122 0.77152 0.0
C81 C 0.42707 0.13062 0.72386 0.0
O82 O 0.45595 0.05381 0.78372 0.0
O83 O 0.45064 0.12631 0.74121 0.0
C84 C 0.63143 0.66769 0.46786 0.0
O85 O 0.64852 0.65855 0.49608 0.0
Cd86 Cd 0.63899 0.64375 0.58998 0.0
O87 O 0.60731 0.66987 0.4889 0.0
Cd88 Cd 0.58053 0.66128 0.57855 0.0
C89 C 0.55775 0.57879 0.58351 0.0
O90 O 0.63262 0.6871 0.6321 0.0
O91 O 0.58558 0.6643 0.67556 0.0
O92 O 0.57293 0.70812 0.55395 0.0
C93 C 0.61728 0.68152 0.67684 0.0
O94 O 0.58846 0.58839 0.593 0.0
C95 C 0.54508 0.69695 0.57839 0.0
O96 O 0.54838 0.60007 0.57396 0.0
O97 O 0.53208 0.66757 0.59811 0.0
C98 C 0.9851 0.70133 0.73627 0.0
O99 O 0.01494 0.71365 0.75346 0.0
Cd100 Cd 0.02689 0.68843 0.82863 0.0
O101 O 0.96111 0.67716 0.76153 0.0
Cd102 Cd 0.95529 0.64534 0.84397 0.0
C103 C 0.99212 0.60581 0.79224 0.0
O104 O -0.00387 0.68416 0.90965 0.0
O105 O 0.98126 0.63152 0.91549 0.0
O106 O 0.91439 0.65462 0.88916 0.0
C107 C 0.99342 0.65996 0.93822 0.0
O108 O 0.01889 0.63338 0.80253 0.0
C109 C 0.89098 0.62421 0.88967 0.0
O110 O 0.96353 0.60332 0.79893 0.0
O111 O 0.89641 0.60308 0.86534 0.0
C112 C 0.31471 0.97656 0.16884 0.0
O113 O 0.3302 0.00183 0.19965 0.0
Cd114 Cd 0.34762 -0.00087 0.2897 0.0
O115 O 0.30549 0.94705 0.18597 0.0
Cd116 Cd 0.30627 0.91875 0.27023 0.0
C117 C 0.39072 0.95652 0.26386 0.0
O118 O 0.30255 0.955 0.33818 0.0
O119 O 0.32166 0.92268 0.36324 0.0
O120 O 0.24674 0.88108 0.26919 0.0
C121 C 0.31269 0.94368 0.37604 0.0
O122 O 0.39022 0.98288 0.27833 0.0
C123 C 0.24769 0.85403 0.27219 0.0
O124 O 0.36347 0.92913 0.25417 0.0
O125 O 0.27654 0.85664 0.27021 0.0
C126 C 0.32992 0.3118 0.46531 0.0
O127 O 0.31181 0.31998 0.49291 0.0
Cd128 Cd 0.31695 0.33071 0.58871 0.0
O129 O 0.35211 0.30718 0.48804 0.0
Cd130 Cd 0.37446 0.30843 0.57893 0.0
C131 C 0.4008 0.39187 0.58728 0.0
O132 O 0.32218 0.28692 0.63037 0.0
O133 O 0.36812 0.30375 0.67531 0.0
O134 O 0.37483 0.2581 0.55355 0.0
C135 C 0.33656 0.29101 0.67575 0.0
O136 O 0.37008 0.38326 0.59439 0.0
C137 C 0.40346 0.26686 0.57368 0.0
O138 O 0.40946 0.36993 0.57846 0.0
O139 O 0.42009 0.2965 0.59251 0.0
C140 C 0.02565 0.35377 0.77943 0.0
O141 O -0.00356 0.34494 0.79679 0.0
Cd142 Cd 0.98682 0.37485 0.8662 0.0
O143 O 0.05132 0.37819 0.80132 0.0
Cd144 Cd 0.06227 0.41562 0.87971 0.0
C145 C 0.02828 0.45654 0.82036 0.0
O146 O 0.01968 0.37795 0.94292 0.0
O147 O 0.04075 0.43117 0.95782 0.0
O148 O 0.10103 0.40188 0.92054 0.0
C149 C 0.02401 0.40122 0.97504 0.0
O150 O 0.00052 0.43017 0.83141 0.0
C151 C 0.12642 0.43121 0.91967 0.0
O152 O 0.05604 0.45792 0.83069 0.0
O153 O 0.12289 0.45407 0.8971 0.0
C154 C 0.66093 0.98045 0.19236 0.0
O155 O 0.64271 0.95317 0.21771 0.0
Cd156 Cd 0.62388 0.95222 0.30769 0.0
O157 O 0.6694 0.00878 0.21381 0.0
Cd158 Cd 0.66488 0.03474 0.29739 0.0
C159 C 0.57932 0.99364 0.28913 0.0
O160 O 0.67535 0.99552 0.34501 0.0
O161 O 0.67055 0.03113 0.39519 0.0
O162 O 0.71885 0.07764 0.26417 0.0
C163 C 0.67669 0.00726 0.39155 0.0
O164 O 0.57956 0.96651 0.29819 0.0
C165 C 0.71822 0.10224 0.28608 0.0
O166 O 0.60668 0.02167 0.28593 0.0
O167 O 0.69156 0.09576 0.31125 0.0
H168 H 0.34957 0.31471 0.21349 0.0
H169 H 0.29228 0.36558 0.22199 0.0
H170 H 0.2848 0.35516 0.31894 0.0
H171 H 0.2981 0.33552 0.40216 0.0
H172 H 0.35741 0.28678 0.39444 0.0
H173 H 0.36009 0.29209 0.29623 0.0
C174 C 0.33518 0.32325 0.23642 0.0
C175 C 0.32178 0.34116 0.2105 0.0
C176 C 0.33136 0.31762 0.29235 0.0
C177 C 0.30315 0.35199 0.24091 0.0
C178 C 0.2988 0.34602 0.2964 0.0
C179 C 0.31119 0.32559 0.379 0.0
C180 C 0.32769 0.31096 0.40568 0.0
C181 C 0.31331 0.32941 0.32267 0.0
C182 C 0.34465 0.29835 0.37497 0.0
C183 C 0.34627 0.30144 0.31879 0.0
H184 H 0.05478 0.33917 0.5405 0.0
H185 H 0.94769 0.27061 0.54346 0.0
H186 H 0.94839 0.27064 0.64191 0.0
H187 H 0.97672 0.30099 0.72414 0.0
H188 H 0.08285 0.37357 0.72024 0.0
H189 H 0.08535 0.36055 0.6255 0.0
C190 C 0.03177 0.32333 0.56261 0.0
C191 C 0.00106 0.30579 0.53484 0.0
C192 C 0.03208 0.32478 0.61916 0.0
C193 C 0.97156 0.28495 0.56402 0.0
C194 C 0.9719 0.28513 0.62034 0.0
C195 C 0.00059 0.31339 0.70298 0.0
C196 C 0.02927 0.33907 0.72859 0.0
C197 C 0.00159 0.30674 0.64804 0.0
C198 C 0.0602 0.35421 0.70111 0.0
C199 C 0.06164 0.34689 0.64681 0.0
H200 H 0.70635 0.00386 0.95099 0.0
H201 H 0.63922 0.89643 0.94584 0.0
H202 H 0.63426 0.89502 0.04407 0.0
H203 H 0.64154 0.9256 0.12877 0.0
H204 H 0.70559 0.03359 0.13164 0.0
H205 H 0.71899 0.03337 0.03665 0.0
C206 C 0.69109 0.97998 0.97128 0.0
C207 C 0.6725 0.95045 0.94106 0.0
C208 C 0.68722 0.97954 0.02725 0.0
C209 C 0.65343 0.91966 0.96813 0.0
C210 C 0.65037 0.91884 0.02426 0.0
C211 C 0.65876 0.94903 0.10879 0.0
C212 C 0.67192 0.97961 0.13684 0.0
C213 C 0.66588 0.94886 0.05385 0.0
C214 C 0.69456 0.00973 0.11065 0.0
C215 C 0.70236 0.00967 0.05637 0.0
H216 H 0.63626 0.69064 0.21646 0.0
H217 H 0.70672 0.65483 0.22738 0.0
H218 H 0.70262 0.65372 0.32571 0.0
H219 H 0.67558 0.65842 0.40778 0.0
H220 H 0.60323 0.69185 0.39659 0.0
H221 H 0.6117 0.6985 0.29909 0.0
C222 C 0.65112 0.68307 0.24033 0.0
C223 C 0.67161 0.67265 0.21456 0.0
C224 C 0.64807 0.68174 0.29677 0.0
C225 C 0.69058 0.66278 0.24616 0.0
C226 C 0.68821 0.66207 0.3024 0.0
C227 C 0.66187 0.66746 0.38416 0.0
C228 C 0.63859 0.67434 0.40948 0.0
C229 C 0.66645 0.67075 0.32803 0.0
C230 C 0.62112 0.68611 0.37815 0.0
C231 C 0.62594 0.68994 0.32235 0.0
H232 H 0.9258 0.67347 0.68205 0.0
H233 H 0.03109 0.74738 0.66599 0.0
H234 H 0.02548 0.74518 0.56803 0.0
H235 H 0.99469 0.71158 0.4895 0.0
H236 H 0.89079 0.63424 0.5059 0.0
H237 H 0.89162 0.6489 0.60098 0.0
C238 C 0.94732 0.68989 0.65725 0.0
C239 C 0.97912 0.70954 0.68115 0.0
C240 C 0.94429 0.68734 0.60091 0.0
C241 C 0.00649 0.73138 0.64855 0.0
C242 C 0.00337 0.72996 0.59245 0.0
C243 C 0.97197 0.69857 0.51358 0.0
C244 C 0.94306 0.6712 0.49149 0.0
C245 C 0.97303 0.70629 0.56844 0.0
C246 C 0.9135 0.65511 0.52237 0.0
C247 C 0.91405 0.66333 0.57682 0.0
H248 H 0.34625 0.03531 0.11292 0.0
H249 H 0.27594 0.92923 0.09423 0.0
H250 H 0.27928 0.93562 -0.00374 0.0
H251 H 0.30852 0.96928 0.91719 0.0
H252 H 0.38181 0.07456 0.9356 0.0
H253 H 0.3704 0.07061 0.0325 0.0
C254 C 0.33108 0.0137 0.08748 0.0
C255 C 0.31132 0.98173 0.11081 0.0
C256 C 0.33394 0.01734 0.03117 0.0
C257 C 0.29171 0.95404 0.07726 0.0
C258 C 0.29366 0.95765 0.02124 0.0
C259 C 0.32168 0.99155 0.94216 0.0
C260 C 0.3465 0.022 0.91935 0.0
C261 C 0.31575 0.98887 -0.00212 0.0
C262 C 0.36284 0.0507 0.9522 0.0
C263 C 0.35643 0.04844 0.00767 0.0
H264 H 0.13239 0.39752 0.0031 0.0
H265 H 0.19085 0.48003 0.89472 0.0
H266 H 0.24289 0.48598 0.93259 0.0
H267 H 0.27084 0.46282 -0.01103 0.0
H268 H 0.21108 0.37963 0.09597 0.0
H269 H 0.16036 0.37941 0.06713 0.0
C270 C 0.15656 0.41697 -0.01199 0.0
C271 C 0.15797 0.43783 0.94548 0.0
C272 C 0.18603 0.42017 0.00991 0.0
C273 C 0.1893 0.46349 0.92715 0.0
C274 C 0.21896 0.46684 0.94874 0.0
C275 C 0.24682 0.44524 0.00697 0.0
C276 C 0.24461 0.42096 0.044 0.0
C277 C 0.21756 0.44469 -0.01083 0.0
C278 C 0.21337 0.39834 0.06703 0.0
C279 C 0.18433 0.39806 0.05034 0.0
H280 H 0.8648 0.22441 0.29553 0.0
H281 H 0.82 0.25929 0.4129 0.0
H282 H 0.76435 0.21096 0.39303 0.0
H283 H 0.72961 0.15634 0.34724 0.0
H284 H 0.77577 0.12297 0.22932 0.0
H285 H 0.82973 0.17366 0.24369 0.0
C286 C 0.84283 0.22147 0.31673 0.0
C287 C 0.84642 0.24486 0.35634 0.0
C288 C 0.81122 0.19405 0.30475 0.0
C289 C 0.81776 0.24132 0.38256 0.0
C290 C 0.78603 0.21375 0.37119 0.0
C291 C 0.75135 0.16051 0.32398 0.0
C292 C 0.74877 0.13574 0.28773 0.0
C293 C 0.78257 0.18962 0.33298 0.0
C294 C 0.77713 0.1415 0.25779 0.0
C295 C 0.80805 0.1704 0.26613 0.0
H296 H 0.55647 0.83182 0.64038 0.0
H297 H 0.55157 0.7903 0.79851 0.0
H298 H 0.53097 0.73461 0.75885 0.0
H299 H 0.52676 0.70163 0.67884 0.0
H300 H 0.54331 0.74667 0.52094 0.0
H301 H 0.54583 0.79676 0.56016 0.0
C302 C 0.54979 0.81031 0.66622 0.0
C303 C 0.55552 0.81494 0.72215 0.0
C304 C 0.5403 0.77906 0.64277 0.0
C305 C 0.5474 0.78716 0.75531 0.0
C306 C 0.53578 0.75543 0.7326 0.0
C307 C 0.52947 0.72186 0.65286 0.0
C308 C 0.53462 0.7206 0.59717 0.0
C309 C 0.53383 0.75153 0.67624 0.0
C310 C 0.53903 0.74718 0.56387 0.0
C311 C 0.54087 0.7759 0.58642 0.0
H312 H 0.7461 0.57443 0.98195 0.0
H313 H 0.80319 0.65976 0.08625 0.0
H314 H 0.85543 0.66761 0.04782 0.0
H315 H 0.88424 0.65519 0.9765 0.0
H316 H 0.82816 0.57041 0.87117 0.0
H317 H 0.77595 0.55737 0.91799 0.0
C318 C 0.76999 0.59415 -0.00268 0.0
C319 C 0.77078 0.61676 0.0364 0.0
C320 C 0.79997 0.59911 0.97394 0.0
C321 C 0.80192 0.64219 0.05591 0.0
C322 C 0.8318 0.64687 0.03366 0.0
C323 C 0.86058 0.63376 0.96393 0.0
C324 C 0.85974 0.61424 0.91973 0.0
C325 C 0.831 0.6264 -0.00886 0.0
C326 C 0.8292 0.586 0.90473 0.0
C327 C 0.79944 0.57856 0.9315 0.0
H328 H 0.12821 0.70828 0.32815 0.0
H329 H 0.07909 0.76594 0.35686 0.0
H330 H 0.12988 0.81725 0.33116 0.0
H331 H 0.18743 0.84578 0.2993 0.0
H332 H 0.23868 0.79016 0.27207 0.0
H333 H 0.18767 0.73789 0.29765 0.0
C334 C 0.12883 0.73215 0.32932 0.0
C335 C 0.09988 0.73325 0.34438 0.0
C336 C 0.15825 0.76181 0.31401 0.0
C337 C 0.10096 0.76433 0.34535 0.0
C338 C 0.12996 0.79372 0.33046 0.0
C339 C 0.18749 0.82222 0.29844 0.0
C340 C 0.21669 0.8218 0.2833 0.0
C341 C 0.15856 0.79269 0.3142 0.0
C342 C 0.21639 0.79109 0.2832 0.0
C343 C 0.18731 0.76127 0.2981 0.0
H344 H 0.39881 0.13344 0.63192 0.0
H345 H 0.46959 0.19632 0.75321 0.0
H346 H 0.4732 0.2464 0.71058 0.0
H347 H 0.44979 0.27039 0.64589 0.0
H348 H 0.37853 0.20595 0.52573 0.0
H349 H 0.38236 0.15831 0.55979 0.0
C350 C 0.41528 0.15821 0.64868 0.0
C351 C 0.43328 0.16144 0.69614 0.0
C352 C 0.41723 0.18644 0.62395 0.0
C353 C 0.45525 0.19348 0.71693 0.0
C354 C 0.45724 0.22195 0.69259 0.0
C355 C 0.43591 0.24615 0.62616 0.0
C356 C 0.41349 0.24153 0.58388 0.0
C357 C 0.43752 0.21856 0.64698 0.0
C358 C 0.39567 0.21002 0.55866 0.0
C359 C 0.39765 0.18272 0.57835 0.0
H360 H 0.30614 0.32612 0.6991 0.0
H361 H 0.33369 0.25699 0.76641 0.0
H362 H 0.32225 0.26925 0.85766 0.0
H363 H 0.31451 0.30715 0.91805 0.0
H364 H 0.29472 0.38187 0.85011 0.0
H365 H 0.29278 0.36002 0.75949 0.0
C366 C 0.30831 0.31287 0.73376 0.0
C367 C 0.32021 0.29045 0.72667 0.0
C368 C 0.30388 0.32175 0.78599 0.0
C369 C 0.32408 0.27405 0.77148 0.0
C370 C 0.31792 0.28133 0.8235 0.0
C371 C 0.30905 0.3181 0.88344 0.0
C372 C 0.30515 0.34622 0.89037 0.0
C373 C 0.30937 0.30631 0.83133 0.0
C374 C 0.29825 0.36042 0.84542 0.0
C375 C 0.29709 0.34793 0.79368 0.0
H376 H 0.97748 0.39238 0.21589 0.0
H377 H 0.99193 0.30666 0.21405 0.0
H378 H 0.00683 0.31616 0.11819 0.0
H379 H 0.01624 0.34926 0.03561 0.0
H380 H 0.00614 0.43753 0.03953 0.0
H381 H 0.98866 0.42649 0.13427 0.0
C382 C 0.98384 0.37576 0.19441 0.0
C383 C 0.98351 0.3488 0.22156 0.0
C384 C 0.99295 0.38176 0.13992 0.0
C385 C 0.99218 0.32765 0.19375 0.0
C386 C 0.00054 0.33299 0.13905 0.0
C387 C 0.00987 0.36584 0.05719 0.0
C388 C 0.01202 0.3939 0.03095 0.0
C389 C 0.00098 0.35995 0.11181 0.0
C390 C 0.00448 0.41571 0.05924 0.0
C391 C 0.99457 0.40944 0.11323 0.0
H392 H 0.67355 0.91876 0.58448 0.0
H393 H 0.70992 0.01308 0.66806 0.0
H394 H 0.71783 0.04206 0.58218 0.0
H395 H 0.70314 0.03819 0.48617 0.0
H396 H 0.66555 0.94375 0.40274 0.0
H397 H 0.66918 0.91708 0.48587 0.0
C398 C 0.68425 0.94582 0.58377 0.0
C399 C 0.69017 0.96363 0.63234 0.0
C400 C 0.68752 0.96208 0.53448 0.0
C401 C 0.70462 -0.00125 0.63103 0.0
C402 C 0.7088 0.0153 0.58201 0.0
C403 C 0.69617 0.01188 0.48623 0.0
C404 C 0.68321 0.99261 0.43931 0.0
C405 C 0.69835 0.99682 0.53395 0.0
C406 C 0.67512 0.95885 0.43896 0.0
C407 C 0.67722 0.94363 0.48634 0.0
H408 H 0.6748 0.68222 0.70143 0.0
H409 H 0.5983 0.69948 0.76848 0.0
H410 H 0.62109 0.7036 0.85915 0.0
H411 H 0.65632 0.69233 0.92011 0.0
H412 H 0.72701 0.66659 0.8537 0.0
H413 H 0.71379 0.67647 0.76215 0.0
C414 C 0.6638 0.68778 0.73584 0.0
C415 C 0.63495 0.69038 0.72882 0.0
C416 C 0.67594 0.68834 0.788 0.0
C417 C 0.62045 0.69715 0.77343 0.0
C418 C 0.63341 0.69945 0.82515 0.0
C419 C 0.66956 0.69007 0.88554 0.0
C420 C 0.69265 0.67903 0.89301 0.0
C421 C 0.66025 0.69368 0.83314 0.0
C422 C 0.70923 0.67528 0.84833 0.0
C423 C 0.7015 0.68066 0.79614 0.0
H424 H 0.98666 0.67595 0.18878 0.0
H425 H 0.9878 0.58275 0.18562 0.0
H426 H 0.99404 0.58651 0.08747 0.0
H427 H -0.00233 0.61541 0.0031 0.0
H428 H -0.00229 0.70924 0.00516 0.0
H429 H 0.99369 0.70679 0.10384 0.0
C430 C 0.98793 0.65636 0.16636 0.0
C431 C 0.98621 0.62883 0.1938 0.0
C432 C 0.9924 0.65916 0.11024 0.0
C433 C 0.98876 0.60397 0.16492 0.0
C434 C 0.99252 0.60621 0.10902 0.0
C435 C -0.00277 0.63556 0.02519 0.0
C436 C -0.00223 0.66234 -0.00287 0.0
C437 C 0.99434 0.63366 0.08138 0.0
C438 C -0.0025 0.68844 0.02608 0.0
C439 C 0.9948 0.68685 0.08234 0.0
H440 H 0.36599 0.95516 0.43535 0.0
H441 H 0.28032 0.96952 0.43368 0.0
H442 H 0.29658 0.99702 0.52234 0.0
H443 H 0.3357 0.01705 0.59971 0.0
H444 H 0.42383 0.00666 0.59589 0.0
H445 H 0.40612 0.97738 0.50946 0.0
C446 C 0.35076 0.96411 0.45464 0.0
C447 C 0.32181 0.96005 0.42894 0.0
C448 C 0.3608 0.98061 0.50423 0.0
C449 C 0.30264 0.97238 0.45331 0.0
C450 C 0.31192 0.98801 0.50377 0.0
C451 C 0.35087 0.00825 0.57981 0.0
C452 C 0.3808 0.01365 0.60384 0.0
C453 C 0.34099 0.99226 0.52954 0.0
C454 C 0.4007 0.00274 0.57776 0.0
C455 C 0.39057 0.98596 0.52858 0.0
H456 H 0.46944 0.44162 0.03841 0.0
H457 H 0.42294 0.50307 0.04556 0.0
H458 H 0.47815 0.55374 0.04469 0.0
H459 H 0.53929 0.58058 0.04124 0.0
H460 H 0.58639 0.5197 0.03623 0.0
H461 H 0.53109 0.46872 0.03695 0.0
C462 C 0.47135 0.46609 0.03976 0.0
C463 C 0.44201 0.46849 0.04187 0.0
C464 C 0.50322 0.49519 0.03958 0.0
C465 C 0.44503 0.50043 0.044 0.0
C466 C 0.47661 0.52945 0.0434 0.0
C467 C 0.53756 0.55619 0.04014 0.0
C468 C 0.56699 0.554 0.03837 0.0
C469 C 0.50582 0.5271 0.04104 0.0
C470 C 0.56417 0.52213 0.03758 0.0
C471 C 0.53256 0.49298 0.03794 0.0
H472 H 0.01779 0.55555 0.42839 0.0
H473 H 0.90941 0.50454 0.42597 0.0
H474 H 0.90672 0.45062 0.43814 0.0
H475 H 0.93502 0.41755 0.43608 0.0
H476 H 0.04341 0.46837 0.43289 0.0
H477 H 0.04615 0.52266 0.4371 0.0
C478 C 0.99358 0.53274 0.43175 0.0
C479 C 0.96387 0.53405 0.42552 0.0
C480 C 0.99219 0.50167 0.43708 0.0
C481 C 0.93269 0.50421 0.42998 0.0
C482 C 0.93111 0.47332 0.4368 0.0
C483 C 0.95927 0.44045 0.4374 0.0
C484 C 0.98893 0.43886 0.4333 0.0
C485 C 0.96069 0.47165 0.4383 0.0
C486 C 0.02014 0.46884 0.43529 0.0
C487 C 0.02175 0.49995 0.43759 0.0
H488 H 0.59436 0.03334 0.78999 0.0
H489 H 0.53066 0.92605 0.77018 0.0
H490 H 0.48099 0.93189 0.77429 0.0
H491 H 0.45567 0.96726 0.77991 0.0
H492 H 0.51864 0.07467 0.79817 0.0
H493 H 0.56859 0.06879 0.79905 0.0
C494 C 0.56963 0.01122 0.78664 0.0
C495 C 0.56634 0.97933 0.77943 0.0
C496 C 0.54103 0.0147 0.78897 0.0
C497 C 0.53403 0.95093 0.77554 0.0
C498 C 0.50555 0.95421 0.77795 0.0
C499 C 0.48026 0.98945 0.78452 0.0
C500 C 0.48336 0.02138 0.78871 0.0
C501 C 0.50878 0.98596 0.78421 0.0
C502 C 0.51549 0.04977 0.79485 0.0
C503 C 0.54408 0.04645 0.79512 0.0
H504 H 0.48983 0.54989 0.58534 0.0
H505 H 0.5694 0.52604 0.58336 0.0
H506 H 0.52798 0.4661 0.58442 0.0
H507 H 0.46907 0.42041 0.5856 0.0
H508 H 0.38987 0.44487 0.58974 0.0
H509 H 0.43131 0.50453 0.58829 0.0
C510 C 0.49815 0.53161 0.58497 0.0
C511 C 0.53265 0.54247 0.58405 0.0
C512 C 0.47427 0.49723 0.58611 0.0
C513 C 0.54298 0.51839 0.58411 0.0
C514 C 0.51931 0.48409 0.58468 0.0
C515 C 0.46087 0.43878 0.5862 0.0
C516 C 0.42638 0.42807 0.58767 0.0
C517 C 0.48487 0.47321 0.58566 0.0
C518 C 0.41624 0.45229 0.58872 0.0
C519 C 0.43992 0.48649 0.58778 0.0
H520 H 0.0483 0.60043 0.78593 0.0
H521 H 0.94018 0.54225 0.77292 0.0
H522 H 0.94243 0.49043 0.77322 0.0
H523 H 0.9742 0.46173 0.79054 0.0
H524 H 0.08212 0.51986 0.80699 0.0
H525 H 0.08077 0.57152 0.79125 0.0
C526 C 0.02525 0.57647 0.78209 0.0
C527 C 0.99408 0.57528 0.78047 0.0
C528 C 0.02662 0.54668 0.78356 0.0
C529 C 0.96452 0.54397 0.77487 0.0
C530 C 0.96574 0.51425 0.77527 0.0
C531 C -0.00249 0.48563 0.78987 0.0
C532 C 0.02813 0.48692 0.80102 0.0
C533 C -0.00348 0.51531 0.78178 0.0
C534 C 0.05813 0.5181 0.79911 0.0
C535 C 0.05739 0.54772 0.79028 0.0
H536 H 0.51779 0.93831 0.27318 0.0
H537 H 0.56764 0.04632 0.28826 0.0
H538 H 0.51386 0.04429 0.27878 0.0
H539 H 0.45274 0.0119 0.26969 0.0
H540 H 0.40253 0.90393 0.25395 0.0
H541 H 0.45661 0.90602 0.25953 0.0
C542 C 0.51693 0.96144 0.27442 0.0
C543 C 0.54674 0.99241 0.28194 0.0
C544 C 0.48592 0.96012 0.26863 0.0
C545 C 0.54514 0.02213 0.2827 0.0
C546 C 0.51438 0.021 0.27729 0.0
C547 C 0.45354 0.98877 0.26717 0.0
C548 C 0.42352 0.95776 0.26179 0.0
C549 C 0.48462 0.99014 0.2707 0.0
C550 C 0.42519 0.92814 0.25807 0.0
C551 C 0.45611 0.9293 0.26152 0.0
loop_
_geom_bond_atom_site_label_1
_geom_bond_atom_site_label_2
_geom_bond_distance
_geom_bond_site_symmetry_2
_ccdc_geom_bond_type
C0 O1 1.306 . S
C0 O3 1.160 . S
O1 C0 1.306 . S
O1 Cd2 2.228 . S
Cd2 O1 2.228 . S
Cd2 O6 2.273 . S
Cd2 O10 2.277 . S
O3 C0 1.160 . S
O3 Cd4 2.203 . S
Cd4 O3 2.203 . S
Cd4 O6 2.411 . S
Cd4 O7 2.333 1_554 S
Cd4 O8 2.352 . S
Cd4 O12 2.277 . S
Cd4 O13 2.356 . S
C5 O10 1.209 . S
C5 O12 1.226 . S
O6 Cd2 2.273 . S
O6 Cd4 2.411 . S
O6 C9 1.320 1_554 S
O7 Cd4 2.333 1_556 S
O7 C9 1.214 . S
O8 Cd4 2.352 . S
O8 C11 1.258 . S
C9 O6 1.320 1_556 S
C9 O7 1.214 . S
O10 Cd2 2.277 . S
O10 C5 1.209 . S
C11 O8 1.258 . S
C11 O13 1.282 . S
O12 Cd4 2.277 . S
O12 C5 1.226 . S
O13 Cd4 2.356 . S
O13 C11 1.282 . S
C14 O15 1.306 1_655 S
C14 O17 1.160 . S
O15 C14 1.306 1_455 S
O15 Cd16 2.228 . S
Cd16 O15 2.228 . S
Cd16 O20 2.283 . S
Cd16 O24 2.251 1_455 S
O17 C14 1.160 . S
O17 Cd18 2.203 . S
Cd18 O17 2.203 . S
Cd18 O20 2.384 1_655 S
Cd18 O21 2.333 . S
Cd18 O22 2.352 . S
Cd18 O26 2.277 . S
Cd18 O27 2.356 . S
C19 O24 1.236 . S
C19 O26 1.226 . S
O20 Cd16 2.283 . S
O20 Cd18 2.384 1_455 S
O20 C23 1.307 1_455 S
O21 Cd18 2.333 . S
O21 C23 1.214 . S
O22 Cd18 2.352 . S
O22 C25 1.258 . S
C23 O20 1.307 1_655 S
C23 O21 1.214 . S
O24 Cd16 2.251 1_655 S
O24 C19 1.236 . S
C25 O22 1.258 . S
C25 O27 1.282 . S
O26 Cd18 2.277 . S
O26 C19 1.226 . S
O27 Cd18 2.356 . S
O27 C25 1.282 . S
C28 O29 1.306 1_565 S
C28 O31 1.160 . S
O29 C28 1.306 1_545 S
O29 Cd30 2.228 . S
Cd30 O29 2.228 . S
Cd30 O34 2.299 . S
Cd30 O38 2.270 1_545 S
O31 C28 1.160 . S
O31 Cd32 2.203 . S
Cd32 O31 2.203 . S
Cd32 O34 2.395 1_565 S
Cd32 O35 2.333 . S
Cd32 O36 2.352 . S
Cd32 O40 2.277 . S
Cd32 O41 2.356 . S
C33 O38 1.219 . S
C33 O40 1.226 . S
O34 Cd30 2.299 . S
O34 Cd32 2.395 1_545 S
O34 C37 1.314 1_545 S
O35 Cd32 2.333 . S
O35 C37 1.214 . S
O36 Cd32 2.352 . S
O36 C39 1.258 . S
C37 O34 1.314 1_565 S
C37 O35 1.214 . S
O38 Cd30 2.270 1_565 S
O38 C33 1.219 . S
C39 O36 1.258 . S
C39 O41 1.282 . S
O40 Cd32 2.277 . S
O40 C33 1.226 . S
O41 Cd32 2.356 . S
O41 C39 1.282 . S
C42 O43 1.306 . S
C42 O45 1.160 . S
O43 C42 1.306 . S
O43 Cd44 2.228 . S
Cd44 O43 2.228 . S
Cd44 O48 2.273 . S
Cd44 O52 2.277 . S
O45 C42 1.160 . S
O45 Cd46 2.203 . S
Cd46 O45 2.203 . S
Cd46 O48 2.411 . S
Cd46 O49 2.333 1_554 S
Cd46 O50 2.352 . S
Cd46 O54 2.277 . S
Cd46 O55 2.356 . S
C47 O52 1.209 . S
C47 O54 1.226 . S
O48 Cd44 2.273 . S
O48 Cd46 2.411 . S
O48 C51 1.320 1_554 S
O49 Cd46 2.333 1_556 S
O49 C51 1.214 . S
O50 Cd46 2.352 . S
O50 C53 1.258 . S
C51 O48 1.320 1_556 S
C51 O49 1.214 . S
O52 Cd44 2.277 . S
O52 C47 1.209 . S
C53 O50 1.258 . S
C53 O55 1.282 . S
O54 Cd46 2.277 . S
O54 C47 1.226 . S
O55 Cd46 2.356 . S
O55 C53 1.282 . S
C56 O57 1.306 1_455 S
C56 O59 1.160 . S
O57 C56 1.306 1_655 S
O57 Cd58 2.228 . S
Cd58 O57 2.228 . S
Cd58 O62 2.283 . S
Cd58 O66 2.251 1_655 S
O59 C56 1.160 . S
O59 Cd60 2.203 . S
Cd60 O59 2.203 . S
Cd60 O62 2.384 1_455 S
Cd60 O63 2.333 . S
Cd60 O64 2.352 . S
Cd60 O68 2.277 . S
Cd60 O69 2.356 . S
C61 O66 1.236 . S
C61 O68 1.226 . S
O62 Cd58 2.283 . S
O62 Cd60 2.384 1_655 S
O62 C65 1.307 1_655 S
O63 Cd60 2.333 . S
O63 C65 1.214 . S
O64 Cd60 2.352 . S
O64 C67 1.258 . S
C65 O62 1.307 1_455 S
C65 O63 1.214 . S
O66 Cd58 2.251 1_455 S
O66 C61 1.236 . S
C67 O64 1.258 . S
C67 O69 1.282 . S
O68 Cd60 2.277 . S
O68 C61 1.226 . S
O69 Cd60 2.356 . S
O69 C67 1.282 . S
C70 O71 1.306 1_545 S
C70 O73 1.160 . S
O71 C70 1.306 1_565 S
O71 Cd72 2.228 . S
Cd72 O71 2.228 . S
Cd72 O76 2.299 . S
Cd72 O80 2.270 1_565 S
O73 C70 1.160 . S
O73 Cd74 2.203 . S
Cd74 O73 2.203 . S
Cd74 O76 2.395 1_545 S
Cd74 O77 2.333 . S
Cd74 O78 2.352 . S
Cd74 O82 2.277 . S
Cd74 O83 2.356 . S
C75 O80 1.219 . S
C75 O82 1.226 . S
O76 Cd72 2.299 . S
O76 Cd74 2.395 1_565 S
O76 C79 1.314 1_565 S
O77 Cd74 2.333 . S
O77 C79 1.214 . S
O78 Cd74 2.352 . S
O78 C81 1.258 . S
C79 O76 1.314 1_545 S
C79 O77 1.214 . S
O80 Cd72 2.270 1_545 S
O80 C75 1.219 . S
C81 O78 1.258 . S
C81 O83 1.282 . S
O82 Cd74 2.277 . S
O82 C75 1.226 . S
O83 Cd74 2.356 . S
O83 C81 1.282 . S
C84 O85 1.306 . S
C84 O87 1.160 . S
O85 C84 1.306 . S
O85 Cd86 2.228 . S
Cd86 O85 2.228 . S
Cd86 O90 2.273 . S
Cd86 O94 2.277 . S
O87 C84 1.160 . S
O87 Cd88 2.203 . S
Cd88 O87 2.203 . S
Cd88 O90 2.411 . S
Cd88 O91 2.333 . S
Cd88 O92 2.352 . S
Cd88 O96 2.277 . S
Cd88 O97 2.356 . S
C89 O94 1.209 . S
C89 O96 1.226 . S
O90 Cd86 2.273 . S
O90 Cd88 2.411 . S
O90 C93 1.320 . S
O91 Cd88 2.333 . S
O91 C93 1.214 . S
O92 Cd88 2.352 . S
O92 C95 1.258 . S
C93 O90 1.320 . S
C93 O91 1.214 . S
O94 Cd86 2.277 . S
O94 C89 1.209 . S
C95 O92 1.258 . S
C95 O97 1.282 . S
O96 Cd88 2.277 . S
O96 C89 1.226 . S
O97 Cd88 2.356 . S
O97 C95 1.282 . S
C98 O99 1.306 1_655 S
C98 O101 1.160 . S
O99 C98 1.306 1_455 S
O99 Cd100 2.228 . S
Cd100 O99 2.228 . S
Cd100 O104 2.299 . S
Cd100 O108 2.270 1_455 S
O101 C98 1.160 . S
O101 Cd102 2.203 . S
Cd102 O101 2.203 . S
Cd102 O104 2.395 1_655 S
Cd102 O105 2.333 1_556 S
Cd102 O106 2.352 . S
Cd102 O110 2.277 . S
Cd102 O111 2.356 . S
C103 O108 1.219 . S
C103 O110 1.226 . S
O104 Cd100 2.299 . S
O104 Cd102 2.395 1_455 S
O104 C107 1.314 1_456 S
O105 Cd102 2.333 1_554 S
O105 C107 1.214 . S
O106 Cd102 2.352 . S
O106 C109 1.258 . S
C107 O104 1.314 1_654 S
C107 O105 1.214 . S
O108 Cd100 2.270 1_655 S
O108 C103 1.219 . S
C109 O106 1.258 . S
C109 O111 1.282 . S
O110 Cd102 2.277 . S
O110 C103 1.226 . S
O111 Cd102 2.356 . S
O111 C109 1.282 . S
C112 O113 1.306 1_565 S
C112 O115 1.160 . S
O113 C112 1.306 1_545 S
O113 Cd114 2.228 . S
Cd114 O113 2.228 . S
Cd114 O118 2.283 . S
Cd114 O122 2.251 1_545 S
O115 C112 1.160 . S
O115 Cd116 2.203 . S
Cd116 O115 2.203 . S
Cd116 O118 2.384 1_565 S
Cd116 O119 2.333 . S
Cd116 O120 2.352 . S
Cd116 O124 2.277 . S
Cd116 O125 2.356 . S
C117 O122 1.236 . S
C117 O124 1.226 . S
O118 Cd114 2.283 . S
O118 Cd116 2.384 1_545 S
O118 C121 1.307 1_545 S
O119 Cd116 2.333 . S
O119 C121 1.214 . S
O120 Cd116 2.352 . S
O120 C123 1.258 . S
C121 O118 1.307 1_565 S
C121 O119 1.214 . S
O122 Cd114 2.251 1_565 S
O122 C117 1.236 . S
C123 O120 1.258 . S
C123 O125 1.282 . S
O124 Cd116 2.277 . S
O124 C117 1.226 . S
O125 Cd116 2.356 . S
O125 C123 1.282 . S
C126 O127 1.306 . S
C126 O129 1.160 . S
O127 C126 1.306 . S
O127 Cd128 2.228 . S
Cd128 O127 2.228 . S
Cd128 O132 2.273 . S
Cd128 O136 2.277 . S
O129 C126 1.160 . S
O129 Cd130 2.203 . S
Cd130 O129 2.203 . S
Cd130 O132 2.411 . S
Cd130 O133 2.333 . S
Cd130 O134 2.352 . S
Cd130 O138 2.277 . S
Cd130 O139 2.356 . S
C131 O136 1.209 . S
C131 O138 1.226 . S
O132 Cd128 2.273 . S
O132 Cd130 2.411 . S
O132 C135 1.320 . S
O133 Cd130 2.333 . S
O133 C135 1.214 . S
O134 Cd130 2.352 . S
O134 C137 1.258 . S
C135 O132 1.320 . S
C135 O133 1.214 . S
O136 Cd128 2.277 . S
O136 C131 1.209 . S
C137 O134 1.258 . S
C137 O139 1.282 . S
O138 Cd130 2.277 . S
O138 C131 1.226 . S
O139 Cd130 2.356 . S
O139 C137 1.282 . S
C140 O141 1.306 1_455 S
C140 O143 1.160 . S
O141 C140 1.306 1_655 S
O141 Cd142 2.228 . S
Cd142 O141 2.228 . S
Cd142 O146 2.299 . S
Cd142 O150 2.270 1_655 S
O143 C140 1.160 . S
O143 Cd144 2.203 . S
Cd144 O143 2.203 . S
Cd144 O146 2.395 1_455 S
Cd144 O147 2.333 1_556 S
Cd144 O148 2.352 . S
Cd144 O152 2.277 . S
Cd144 O153 2.356 . S
C145 O150 1.219 . S
C145 O152 1.226 . S
O146 Cd142 2.299 . S
O146 Cd144 2.395 1_655 S
O146 C149 1.314 1_656 S
O147 Cd144 2.333 1_554 S
O147 C149 1.214 . S
O148 Cd144 2.352 . S
O148 C151 1.258 . S
C149 O146 1.314 1_454 S
C149 O147 1.214 . S
O150 Cd142 2.270 1_455 S
O150 C145 1.219 . S
C151 O148 1.258 . S
C151 O153 1.282 . S
O152 Cd144 2.277 . S
O152 C145 1.226 . S
O153 Cd144 2.356 . S
O153 C151 1.282 . S
C154 O155 1.306 1_545 S
C154 O157 1.160 . S
O155 C154 1.306 1_565 S
O155 Cd156 2.228 . S
Cd156 O155 2.228 . S
Cd156 O160 2.283 . S
Cd156 O164 2.251 1_565 S
O157 C154 1.160 . S
O157 Cd158 2.203 . S
Cd158 O157 2.203 . S
Cd158 O160 2.384 1_545 S
Cd158 O161 2.333 . S
Cd158 O162 2.352 . S
Cd158 O166 2.277 . S
Cd158 O167 2.356 . S
C159 O164 1.236 . S
C159 O166 1.226 . S
O160 Cd156 2.283 . S
O160 Cd158 2.384 1_565 S
O160 C163 1.307 1_565 S
O161 Cd158 2.333 . S
O161 C163 1.214 . S
O162 Cd158 2.352 . S
O162 C165 1.258 . S
C163 O160 1.307 1_545 S
C163 O161 1.214 . S
O164 Cd156 2.251 1_545 S
O164 C159 1.236 . S
C165 O162 1.258 . S
C165 O167 1.282 . S
O166 Cd158 2.277 . S
O166 C159 1.226 . S
O167 Cd158 2.356 . S
O167 C165 1.282 . S
H168 C174 0.930 . S
H169 C177 0.930 . S
H170 C178 0.930 . S
H171 C179 0.930 . S
H172 C182 0.930 . S
H173 C183 0.930 . S
C174 H168 0.930 . S
C174 C175 1.355 . S
C174 C176 1.415 . S
C175 C174 1.355 . S
C175 C177 1.419 . S
C176 C174 1.415 . S
C176 C181 1.425 . S
C176 C183 1.409 . S
C177 H169 0.930 . S
C177 C175 1.419 . S
C177 C178 1.362 . S
C178 H170 0.930 . S
C178 C177 1.362 . S
C178 C181 1.409 . S
C179 H171 0.930 . S
C179 C180 1.355 . S
C179 C181 1.415 . S
C180 C179 1.355 . S
C180 C182 1.419 . S
C181 C176 1.425 . S
C181 C178 1.409 . S
C181 C179 1.415 . S
C182 H172 0.930 . S
C182 C180 1.419 . S
C182 C183 1.362 . S
C183 H173 0.930 . S
C183 C176 1.409 . S
C183 C182 1.362 . S
H184 C190 0.930 . S
H185 C193 0.930 . S
H186 C194 0.930 . S
H187 C195 0.930 . S
H188 C198 0.930 . S
H189 C199 0.930 . S
C190 H184 0.930 . S
C190 C191 1.355 1_455 S
C190 C192 1.415 . S
C191 C190 1.355 1_655 S
C191 C193 1.419 . S
C192 C190 1.415 . S
C192 C197 1.425 1_455 S
C192 C199 1.409 . S
C193 H185 0.930 . S
C193 C191 1.419 . S
C193 C194 1.362 . S
C194 H186 0.930 . S
C194 C193 1.362 . S
C194 C197 1.409 . S
C195 H187 0.930 . S
C195 C196 1.355 1_655 S
C195 C197 1.415 . S
C196 C195 1.355 1_455 S
C196 C198 1.419 . S
C197 C192 1.425 1_655 S
C197 C194 1.409 . S
C197 C195 1.415 . S
C198 H188 0.930 . S
C198 C196 1.419 . S
C198 C199 1.362 . S
C199 H189 0.930 . S
C199 C192 1.409 . S
C199 C198 1.362 . S
H200 C206 0.930 . S
H201 C209 0.930 . S
H202 C210 0.930 . S
H203 C211 0.930 . S
H204 C214 0.930 . S
H205 C215 0.930 . S
C206 H200 0.930 . S
C206 C207 1.355 1_545 S
C206 C208 1.415 . S
C207 C206 1.355 1_565 S
C207 C209 1.419 . S
C208 C206 1.415 . S
C208 C213 1.425 1_546 S
C208 C215 1.409 1_556 S
C209 H201 0.930 . S
C209 C207 1.419 . S
C209 C210 1.362 . S
C210 H202 0.930 . S
C210 C209 1.362 . S
C210 C213 1.409 1_556 S
C211 H203 0.930 . S
C211 C212 1.355 1_565 S
C211 C213 1.415 . S
C212 C211 1.355 1_545 S
C212 C214 1.419 . S
C213 C208 1.425 1_564 S
C213 C210 1.409 1_554 S
C213 C211 1.415 . S
C214 H204 0.930 . S
C214 C212 1.419 . S
C214 C215 1.362 . S
C215 H205 0.930 . S
C215 C208 1.409 1_554 S
C215 C214 1.362 . S
H216 C222 0.930 . S
H217 C225 0.930 . S
H218 C226 0.930 . S
H219 C227 0.930 . S
H220 C230 0.930 . S
H221 C231 0.930 . S
C222 H216 0.930 . S
C222 C223 1.355 . S
C222 C224 1.415 . S
C223 C222 1.355 . S
C223 C225 1.419 . S
C224 C222 1.415 . S
C224 C229 1.425 . S
C224 C231 1.409 . S
C225 H217 0.930 . S
C225 C223 1.419 . S
C225 C226 1.362 . S
C226 H218 0.930 . S
C226 C225 1.362 . S
C226 C229 1.409 . S
C227 H219 0.930 . S
C227 C228 1.355 . S
C227 C229 1.415 . S
C228 C227 1.355 . S
C228 C230 1.419 . S
C229 C224 1.425 . S
C229 C226 1.409 . S
C229 C227 1.415 . S
C230 H220 0.930 . S
C230 C228 1.419 . S
C230 C231 1.362 . S
C231 H221 0.930 . S
C231 C224 1.409 . S
C231 C230 1.362 . S
H232 C238 0.930 . S
H233 C241 0.930 . S
H234 C242 0.930 . S
H235 C243 0.930 . S
H236 C246 0.930 . S
H237 C247 0.930 . S
C238 H232 0.930 . S
C238 C239 1.355 . S
C238 C240 1.415 . S
C239 C238 1.355 . S
C239 C241 1.419 1_655 S
C240 C238 1.415 . S
C240 C245 1.425 1_655 S
C240 C247 1.409 . S
C241 H233 0.930 . S
C241 C239 1.419 1_455 S
C241 C242 1.362 . S
C242 H234 0.930 . S
C242 C241 1.362 . S
C242 C245 1.409 . S
C243 H235 0.930 . S
C243 C244 1.355 . S
C243 C245 1.415 . S
C244 C243 1.355 . S
C244 C246 1.419 1_455 S
C245 C240 1.425 1_455 S
C245 C242 1.409 . S
C245 C243 1.415 . S
C246 H236 0.930 . S
C246 C244 1.419 1_655 S
C246 C247 1.362 . S
C247 H237 0.930 . S
C247 C240 1.409 . S
C247 C246 1.362 . S
H248 C254 0.930 . S
H249 C257 0.930 . S
H250 C258 0.930 . S
H251 C259 0.930 . S
H252 C262 0.930 . S
H253 C263 0.930 . S
C254 H248 0.930 . S
C254 C255 1.355 1_545 S
C254 C256 1.415 . S
C255 C254 1.355 1_565 S
C255 C257 1.419 . S
C256 C254 1.415 . S
C256 C261 1.425 1_544 S
C256 C263 1.409 1_554 S
C257 H249 0.930 . S
C257 C255 1.419 . S
C257 C258 1.362 . S
C258 H250 0.930 . S
C258 C257 1.362 . S
C258 C261 1.409 1_554 S
C259 H251 0.930 . S
C259 C260 1.355 1_565 S
C259 C261 1.415 . S
C260 C259 1.355 1_545 S
C260 C262 1.419 . S
C261 C256 1.425 1_566 S
C261 C258 1.409 1_556 S
C261 C259 1.415 . S
C262 H252 0.930 . S
C262 C260 1.419 . S
C262 C263 1.362 . S
C263 H253 0.930 . S
C263 C256 1.409 1_556 S
C263 C262 1.362 . S
H264 C270 0.930 . S
H265 C273 0.930 . S
H266 C274 0.930 . S
H267 C275 0.930 . S
H268 C278 0.930 . S
H269 C279 0.930 . S
C270 H264 0.930 . S
C270 C271 1.355 1_554 S
C270 C272 1.415 . S
C271 C270 1.355 1_556 S
C271 C273 1.419 . S
C272 C270 1.415 . S
C272 C277 1.425 1_554 S
C272 C279 1.409 . S
C273 H265 0.930 . S
C273 C271 1.419 . S
C273 C274 1.362 . S
C274 H266 0.930 . S
C274 C273 1.362 . S
C274 C277 1.409 . S
C275 H267 0.930 . S
C275 C276 1.355 1_556 S
C275 C277 1.415 . S
C276 C275 1.355 1_554 S
C276 C278 1.419 . S
C277 C272 1.425 1_556 S
C277 C274 1.409 . S
C277 C275 1.415 . S
C278 H268 0.930 . S
C278 C276 1.419 . S
C278 C279 1.362 . S
C279 H269 0.930 . S
C279 C272 1.409 . S
C279 C278 1.362 . S
H280 C286 0.930 . S
H281 C289 0.930 . S
H282 C290 0.930 . S
H283 C291 0.930 . S
H284 C294 0.930 . S
H285 C295 0.930 . S
C286 H280 0.930 . S
C286 C287 1.355 . S
C286 C288 1.415 . S
C287 C286 1.355 . S
C287 C289 1.419 . S
C288 C286 1.415 . S
C288 C293 1.425 . S
C288 C295 1.409 . S
C289 H281 0.930 . S
C289 C287 1.419 . S
C289 C290 1.362 . S
C290 H282 0.930 . S
C290 C289 1.362 . S
C290 C293 1.409 . S
C291 H283 0.930 . S
C291 C292 1.355 . S
C291 C293 1.415 . S
C292 C291 1.355 . S
C292 C294 1.419 . S
C293 C288 1.425 . S
C293 C290 1.409 . S
C293 C291 1.415 . S
C294 H284 0.930 . S
C294 C292 1.419 . S
C294 C295 1.362 . S
C295 H285 0.930 . S
C295 C288 1.409 . S
C295 C294 1.362 . S
H296 C302 0.930 . S
H297 C305 0.930 . S
H298 C306 0.930 . S
H299 C307 0.930 . S
H300 C310 0.930 . S
H301 C311 0.930 . S
C302 H296 0.930 . S
C302 C303 1.355 . S
C302 C304 1.415 . S
C303 C302 1.355 . S
C303 C305 1.419 . S
C304 C302 1.415 . S
C304 C309 1.425 . S
C304 C311 1.409 . S
C305 H297 0.930 . S
C305 C303 1.419 . S
C305 C306 1.362 . S
C306 H298 0.930 . S
C306 C305 1.362 . S
C306 C309 1.409 . S
C307 H299 0.930 . S
C307 C308 1.355 . S
C307 C309 1.415 . S
C308 C307 1.355 . S
C308 C310 1.419 . S
C309 C304 1.425 . S
C309 C306 1.409 . S
C309 C307 1.415 . S
C310 H300 0.930 . S
C310 C308 1.419 . S
C310 C311 1.362 . S
C311 H301 0.930 . S
C311 C304 1.409 . S
C311 C310 1.362 . S
H312 C318 0.930 . S
H313 C321 0.930 . S
H314 C322 0.930 . S
H315 C323 0.930 . S
H316 C326 0.930 . S
H317 C327 0.930 . S
C318 H312 0.930 . S
C318 C319 1.355 . S
C318 C320 1.415 . S
C319 C318 1.355 . S
C319 C321 1.419 . S
C320 C318 1.415 . S
C320 C325 1.425 1_554 S
C320 C327 1.409 . S
C321 H313 0.930 . S
C321 C319 1.419 . S
C321 C322 1.362 1_554 S
C322 H314 0.930 . S
C322 C321 1.362 1_556 S
C322 C325 1.409 . S
C323 H315 0.930 . S
C323 C324 1.355 . S
C323 C325 1.415 . S
C324 C323 1.355 . S
C324 C326 1.419 . S
C325 C320 1.425 1_556 S
C325 C322 1.409 . S
C325 C323 1.415 . S
C326 H316 0.930 . S
C326 C324 1.419 . S
C326 C327 1.362 1_556 S
C327 H317 0.930 . S
C327 C320 1.409 . S
C327 C326 1.362 1_554 S
H328 C334 0.930 . S
H329 C337 0.930 . S
H330 C338 0.930 . S
H331 C339 0.930 . S
H332 C342 0.930 . S
H333 C343 0.930 . S
C334 H328 0.930 . S
C334 C335 1.355 . S
C334 C336 1.415 . S
C335 C334 1.355 . S
C335 C337 1.419 . S
C336 C334 1.415 . S
C336 C341 1.425 . S
C336 C343 1.409 . S
C337 H329 0.930 . S
C337 C335 1.419 . S
C337 C338 1.362 . S
C338 H330 0.930 . S
C338 C337 1.362 . S
C338 C341 1.409 . S
C339 H331 0.930 . S
C339 C340 1.355 . S
C339 C341 1.415 . S
C340 C339 1.355 . S
C340 C342 1.419 . S
C341 C336 1.425 . S
C341 C338 1.409 . S
C341 C339 1.415 . S
C342 H332 0.930 . S
C342 C340 1.419 . S
C342 C343 1.362 . S
C343 H333 0.930 . S
C343 C336 1.409 . S
C343 C342 1.362 . S
H344 C350 0.930 . S
H345 C353 0.930 . S
H346 C354 0.930 . S
H347 C355 0.930 . S
H348 C358 0.930 . S
H349 C359 0.930 . S
C350 H344 0.930 . S
C350 C351 1.355 . S
C350 C352 1.415 . S
C351 C350 1.355 . S
C351 C353 1.419 . S
C352 C350 1.415 . S
C352 C357 1.425 . S
C352 C359 1.409 . S
C353 H345 0.930 . S
C353 C351 1.419 . S
C353 C354 1.362 . S
C354 H346 0.930 . S
C354 C353 1.362 . S
C354 C357 1.409 . S
C355 H347 0.930 . S
C355 C356 1.355 . S
C355 C357 1.415 . S
C356 C355 1.355 . S
C356 C358 1.419 . S
C357 C352 1.425 . S
C357 C354 1.409 . S
C357 C355 1.415 . S
C358 H348 0.930 . S
C358 C356 1.419 . S
C358 C359 1.362 . S
C359 H349 0.930 . S
C359 C352 1.409 . S
C359 C358 1.362 . S
H360 C366 0.930 . S
H361 C369 0.930 . S
H362 C370 0.930 . S
H363 C371 0.930 . S
H364 C374 0.930 . S
H365 C375 0.930 . S
C366 H360 0.930 . S
C366 C367 1.355 . S
C366 C368 1.415 . S
C367 C366 1.355 . S
C367 C369 1.419 . S
C368 C366 1.415 . S
C368 C373 1.425 . S
C368 C375 1.409 . S
C369 H361 0.930 . S
C369 C367 1.419 . S
C369 C370 1.362 . S
C370 H362 0.930 . S
C370 C369 1.362 . S
C370 C373 1.409 . S
C371 H363 0.930 . S
C371 C372 1.355 . S
C371 C373 1.415 . S
C372 C371 1.355 . S
C372 C374 1.419 . S
C373 C368 1.425 . S
C373 C370 1.409 . S
C373 C371 1.415 . S
C374 H364 0.930 . S
C374 C372 1.419 . S
C374 C375 1.362 . S
C375 H365 0.930 . S
C375 C368 1.409 . S
C375 C374 1.362 . S
H376 C382 0.930 . S
H377 C385 0.930 . S
H378 C386 0.930 . S
H379 C387 0.930 . S
H380 C390 0.930 . S
H381 C391 0.930 . S
C382 H376 0.930 . S
C382 C383 1.355 1_655 S
C382 C384 1.415 . S
C383 C382 1.355 1_455 S
C383 C385 1.419 . S
C384 C382 1.415 . S
C384 C389 1.425 1_655 S
C384 C391 1.409 . S
C385 H377 0.930 . S
C385 C383 1.419 . S
C385 C386 1.362 . S
C386 H378 0.930 . S
C386 C385 1.362 . S
C386 C389 1.409 . S
C387 H379 0.930 . S
C387 C388 1.355 1_455 S
C387 C389 1.415 . S
C388 C387 1.355 1_655 S
C388 C390 1.419 . S
C389 C384 1.425 1_455 S
C389 C386 1.409 . S
C389 C387 1.415 . S
C390 H380 0.930 . S
C390 C388 1.419 . S
C390 C391 1.362 . S
C391 H381 0.930 . S
C391 C384 1.409 . S
C391 C390 1.362 . S
H392 C398 0.930 . S
H393 C401 0.930 . S
H394 C402 0.930 . S
H395 C403 0.930 . S
H396 C406 0.930 . S
H397 C407 0.930 . S
C398 H392 0.930 . S
C398 C399 1.355 1_565 S
C398 C400 1.415 . S
C399 C398 1.355 1_545 S
C399 C401 1.419 . S
C400 C398 1.415 . S
C400 C405 1.425 1_565 S
C400 C407 1.409 . S
C401 H393 0.930 . S
C401 C399 1.419 . S
C401 C402 1.362 . S
C402 H394 0.930 . S
C402 C401 1.362 . S
C402 C405 1.409 . S
C403 H395 0.930 . S
C403 C404 1.355 1_545 S
C403 C405 1.415 . S
C404 C403 1.355 1_565 S
C404 C406 1.419 . S
C405 C400 1.425 1_545 S
C405 C402 1.409 . S
C405 C403 1.415 . S
C406 H396 0.930 . S
C406 C404 1.419 . S
C406 C407 1.362 . S
C407 H397 0.930 . S
C407 C400 1.409 . S
C407 C406 1.362 . S
H408 C414 0.930 . S
H409 C417 0.930 . S
H410 C418 0.930 . S
H411 C419 0.930 . S
H412 C422 0.930 . S
H413 C423 0.930 . S
C414 H408 0.930 . S
C414 C415 1.355 . S
C414 C416 1.415 . S
C415 C414 1.355 . S
C415 C417 1.419 . S
C416 C414 1.415 . S
C416 C421 1.425 . S
C416 C423 1.409 . S
C417 H409 0.930 . S
C417 C415 1.419 . S
C417 C418 1.362 . S
C418 H410 0.930 . S
C418 C417 1.362 . S
C418 C421 1.409 . S
C419 H411 0.930 . S
C419 C420 1.355 . S
C419 C421 1.415 . S
C420 C419 1.355 . S
C420 C422 1.419 . S
C421 C416 1.425 . S
C421 C418 1.409 . S
C421 C419 1.415 . S
C422 H412 0.930 . S
C422 C420 1.419 . S
C422 C423 1.362 . S
C423 H413 0.930 . S
C423 C416 1.409 . S
C423 C422 1.362 . S
H424 C430 0.930 . S
H425 C433 0.930 . S
H426 C434 0.930 . S
H427 C435 0.930 . S
H428 C438 0.930 . S
H429 C439 0.930 . S
C430 H424 0.930 . S
C430 C431 1.355 1_455 S
C430 C432 1.415 . S
C431 C430 1.355 1_655 S
C431 C433 1.419 . S
C432 C430 1.415 . S
C432 C437 1.425 1_455 S
C432 C439 1.409 . S
C433 H425 0.930 . S
C433 C431 1.419 . S
C433 C434 1.362 . S
C434 H426 0.930 . S
C434 C433 1.362 . S
C434 C437 1.409 . S
C435 H427 0.930 . S
C435 C436 1.355 1_655 S
C435 C437 1.415 . S
C436 C435 1.355 1_455 S
C436 C438 1.419 . S
C437 C432 1.425 1_655 S
C437 C434 1.409 . S
C437 C435 1.415 . S
C438 H428 0.930 . S
C438 C436 1.419 . S
C438 C439 1.362 . S
C439 H429 0.930 . S
C439 C432 1.409 . S
C439 C438 1.362 . S
H440 C446 0.930 . S
H441 C449 0.930 . S
H442 C450 0.930 . S
H443 C451 0.930 . S
H444 C454 0.930 . S
H445 C455 0.930 . S
C446 H440 0.930 . S
C446 C447 1.364 . S
C446 C448 1.415 . S
C447 C446 1.364 . S
C447 C449 1.407 1_565 S
C448 C446 1.415 . S
C448 C453 1.425 1_565 S
C448 C455 1.409 . S
C449 H441 0.930 . S
C449 C447 1.407 1_545 S
C449 C450 1.362 . S
C450 H442 0.930 . S
C450 C449 1.362 . S
C450 C453 1.409 . S
C451 H443 0.930 . S
C451 C452 1.364 . S
C451 C453 1.415 . S
C452 C451 1.364 . S
C452 C454 1.407 1_545 S
C453 C448 1.425 1_545 S
C453 C450 1.409 . S
C453 C451 1.415 . S
C454 H444 0.930 . S
C454 C452 1.407 1_565 S
C454 C455 1.362 . S
C455 H445 0.930 . S
C455 C448 1.409 . S
C455 C454 1.362 . S
H456 C462 0.930 . S
H457 C465 0.930 . S
H458 C466 0.930 . S
H459 C467 0.930 . S
H460 C470 0.930 1_556 S
H461 C471 0.930 1_556 S
C462 H456 0.930 . S
C462 C463 1.355 . S
C462 C464 1.415 . S
C463 C462 1.355 . S
C463 C465 1.419 . S
C464 C462 1.415 . S
C464 C469 1.425 . S
C464 C471 1.409 . S
C465 H457 0.930 . S
C465 C463 1.419 . S
C465 C466 1.362 . S
C466 H458 0.930 . S
C466 C465 1.362 . S
C466 C469 1.409 . S
C467 H459 0.930 . S
C467 C468 1.355 . S
C467 C469 1.415 . S
C468 C467 1.355 . S
C468 C470 1.419 . S
C469 C464 1.425 . S
C469 C466 1.409 . S
C469 C467 1.415 . S
C470 H460 0.930 1_554 S
C470 C468 1.419 . S
C470 C471 1.362 . S
C471 H461 0.930 1_554 S
C471 C464 1.409 . S
C471 C470 1.362 . S
H472 C478 0.930 . S
H473 C481 0.930 . S
H474 C482 0.930 . S
H475 C483 0.930 . S
H476 C486 0.930 . S
H477 C487 0.930 . S
C478 H472 0.930 . S
C478 C479 1.355 . S
C478 C480 1.415 . S
C479 C478 1.355 . S
C479 C481 1.419 1_455 S
C480 C478 1.415 . S
C480 C485 1.425 1_455 S
C480 C487 1.409 . S
C481 H473 0.930 . S
C481 C479 1.419 1_655 S
C481 C482 1.362 . S
C482 H474 0.930 . S
C482 C481 1.362 . S
C482 C485 1.409 . S
C483 H475 0.930 . S
C483 C484 1.355 . S
C483 C485 1.415 . S
C484 C483 1.355 . S
C484 C486 1.419 1_655 S
C485 C480 1.425 1_655 S
C485 C482 1.409 . S
C485 C483 1.415 . S
C486 H476 0.930 . S
C486 C484 1.419 1_455 S
C486 C487 1.362 . S
C487 H477 0.930 . S
C487 C480 1.409 . S
C487 C486 1.362 . S
H488 C494 0.930 . S
H489 C497 0.930 . S
H490 C498 0.930 . S
H491 C499 0.930 . S
H492 C502 0.930 . S
H493 C503 0.930 . S
C494 H488 0.930 . S
C494 C495 1.355 1_545 S
C494 C496 1.415 . S
C495 C494 1.355 1_565 S
C495 C497 1.419 . S
C496 C494 1.415 . S
C496 C501 1.425 1_545 S
C496 C503 1.409 . S
C497 H489 0.930 . S
C497 C495 1.419 . S
C497 C498 1.362 . S
C498 H490 0.930 . S
C498 C497 1.362 . S
C498 C501 1.409 . S
C499 H491 0.930 . S
C499 C500 1.355 1_565 S
C499 C501 1.415 . S
C500 C499 1.355 1_545 S
C500 C502 1.419 . S
C501 C496 1.425 1_565 S
C501 C498 1.409 . S
C501 C499 1.415 . S
C502 H492 0.930 . S
C502 C500 1.419 . S
C502 C503 1.362 . S
C503 H493 0.930 . S
C503 C496 1.409 . S
C503 C502 1.362 . S
H504 C510 0.930 . S
H505 C513 0.930 . S
H506 C514 0.930 . S
H507 C515 0.930 . S
H508 C518 0.930 . S
H509 C519 0.930 . S
C510 H504 0.930 . S
C510 C511 1.355 . S
C510 C512 1.415 . S
C511 C510 1.355 . S
C511 C513 1.419 . S
C512 C510 1.415 . S
C512 C517 1.425 . S
C512 C519 1.409 . S
C513 H505 0.930 . S
C513 C511 1.419 . S
C513 C514 1.362 . S
C514 H506 0.930 . S
C514 C513 1.362 . S
C514 C517 1.409 . S
C515 H507 0.930 . S
C515 C516 1.355 . S
C515 C517 1.415 . S
C516 C515 1.355 . S
C516 C518 1.419 . S
C517 C512 1.425 . S
C517 C514 1.409 . S
C517 C515 1.415 . S
C518 H508 0.930 . S
C518 C516 1.419 . S
C518 C519 1.362 . S
C519 H509 0.930 . S
C519 C512 1.409 . S
C519 C518 1.362 . S
H520 C526 0.929 . S
H521 C529 0.930 1_554 S
H522 C530 0.930 1_554 S
H523 C531 0.918 1_554 S
H524 C534 0.930 . S
H525 C535 0.930 . S
C526 H520 0.929 . S
C526 C527 1.355 . S
C526 C528 1.415 1_655 S
C527 C526 1.355 . S
C527 C529 1.419 . S
C528 C526 1.415 1_455 S
C528 C533 1.425 1_455 S
C528 C535 1.409 . S
C529 H521 0.930 1_556 S
C529 C527 1.419 . S
C529 C530 1.362 . S
C530 H522 0.930 1_556 S
C530 C529 1.362 . S
C530 C533 1.409 . S
C531 H523 0.918 1_556 S
C531 C532 1.355 . S
C531 C533 1.415 1_455 S
C532 C531 1.355 . S
C532 C534 1.419 . S
C533 C528 1.425 1_655 S
C533 C530 1.409 . S
C533 C531 1.415 1_655 S
C534 H524 0.930 . S
C534 C532 1.419 . S
C534 C535 1.362 . S
C535 H525 0.930 . S
C535 C528 1.409 . S
C535 C534 1.362 . S
H536 C542 0.930 . S
H537 C545 0.930 . S
H538 C546 0.930 . S
H539 C547 0.930 . S
H540 C550 0.930 . S
H541 C551 0.930 . S
C542 H536 0.930 . S
C542 C543 1.355 1_565 S
C542 C544 1.415 . S
C543 C542 1.355 1_545 S
C543 C545 1.419 . S
C544 C542 1.415 . S
C544 C549 1.425 1_565 S
C544 C551 1.409 . S
C545 H537 0.930 . S
C545 C543 1.419 . S
C545 C546 1.362 . S
C546 H538 0.930 . S
C546 C545 1.362 . S
C546 C549 1.409 . S
C547 H539 0.930 . S
C547 C548 1.355 1_545 S
C547 C549 1.415 . S
C548 C547 1.355 1_565 S
C548 C550 1.419 . S
C549 C544 1.425 1_545 S
C549 C546 1.409 . S
C549 C547 1.415 . S
C550 H540 0.930 . S
C550 C548 1.419 . S
C550 C551 1.362 . S
C551 H541 0.930 . S
C551 C544 1.409 . S
C551 C550 1.362 . S
C175 C0 1.503 . S
C180 C126 1.524 . S
C191 C14 1.531 . S
C196 C140 1.497 . S
C207 C28 1.523 . S
C212 C154 1.504 . S
C223 C42 1.509 . S
C228 C84 1.518 . S
C239 C98 1.499 . S
C244 C56 1.530 . S
C255 C112 1.523 . S
C260 C70 1.504 . S
C271 C151 1.552 . S
C276 C11 1.561 . S
C287 C25 1.560 . S
C292 C165 1.549 . S
C303 C39 1.557 . S
C308 C95 1.544 . S
C319 C53 1.548 . S
C324 C109 1.533 . S
C335 C67 1.529 . S
C340 C123 1.518 . S
C351 C81 1.543 . S
C356 C137 1.556 . S
C367 C135 0.798 . S
C372 C9 0.783 . S
C383 C23 0.918 1_455 S
C388 C149 0.924 1_655 S
C399 C37 0.923 1_545 S
C404 C163 0.919 1_565 S
C415 C93 0.785 . S
C420 C51 0.790 . S
C431 C65 0.881 1_655 S
C436 C107 0.916 1_455 S
C447 C121 0.901 . S
C452 C79 0.853 . S
C463 C5 1.508 . S
C468 C47 1.503 . S
C479 C61 1.494 . S
C484 C19 1.498 . S
C495 C33 1.512 . S
C500 C75 1.510 . S
C511 C89 1.493 . S
C516 C131 1.494 . S
C527 C103 1.506 . S
C532 C145 1.510 . S
C543 C159 1.510 . S
C548 C117 1.506 . S
