# Generated by pormake.
# Topology zfg, (5)-cn, num edge types: 1
# Building blocks:
#     Node 0, Type 0, BuildingBlock: BEQFEK_clean_sbu_0, # of connection points: 5
#     Node 1, Type 0, BuildingBlock: BEQFEK_clean_sbu_0, # of connection points: 5
#     Node 2, Type 0, BuildingBlock: BEQFEK_clean_sbu_0, # of connection points: 5
#     Node 3, Type 0, BuildingBlock: BEQFEK_clean_sbu_0, # of connection points: 5
#     Node 4, Type 0, BuildingBlock: BEQFEK_clean_sbu_0, # of connection points: 5
#     Node 5, Type 0, BuildingBlock: BEQFEK_clean_sbu_0, # of connection points: 5
#     Node 6, Type 0, BuildingBlock: BEQFEK_clean_sbu_0, # of connection points: 5
#     Node 7, Type 0, BuildingBlock: BEQFEK_clean_sbu_0, # of connection points: 5
#     Node 8, Type 0, BuildingBlock: BEQFEK_clean_sbu_0, # of connection points: 5
#     Node 9, Type 0, BuildingBlock: BEQFEK_clean_sbu_0, # of connection points: 5
#     Node 10, Type 0, BuildingBlock: BEQFEK_clean_sbu_0, # of connection points: 5
#     Node 11, Type 0, BuildingBlock: BEQFEK_clean_sbu_0, # of connection points: 5
#     Node 12, Type 0, BuildingBlock: BEQFEK_clean_sbu_0, # of connection points: 5
#     Node 13, Type 0, BuildingBlock: BEQFEK_clean_sbu_0, # of connection points: 5
#     Node 14, Type 0, BuildingBlock: BEQFEK_clean_sbu_0, # of connection points: 5
#     Node 15, Type 0, BuildingBlock: BEQFEK_clean_sbu_0, # of connection points: 5
#     Edge 16, Type (0, 0), BuildingBlock: XUDNAN_clean_linker_2, # of connection points: 2
#     Edge 17, Type (0, 0), BuildingBlock: XUDNAN_clean_linker_2, # of connection points: 2
#     Edge 18, Type (0, 0), BuildingBlock: XUDNAN_clean_linker_2, # of connection points: 2
#     Edge 19, Type (0, 0), BuildingBlock: XUDNAN_clean_linker_2, # of connection points: 2
#     Edge 20, Type (0, 0), BuildingBlock: XUDNAN_clean_linker_2, # of connection points: 2
#     Edge 21, Type (0, 0), BuildingBlock: XUDNAN_clean_linker_2, # of connection points: 2
#     Edge 22, Type (0, 0), BuildingBlock: XUDNAN_clean_linker_2, # of connection points: 2
#     Edge 23, Type (0, 0), BuildingBlock: XUDNAN_clean_linker_2, # of connection points: 2
#     Edge 24, Type (0, 0), BuildingBlock: XUDNAN_clean_linker_2, # of connection points: 2
#     Edge 25, Type (0, 0), BuildingBlock: XUDNAN_clean_linker_2, # of connection points: 2
#     Edge 26, Type (0, 0), BuildingBlock: XUDNAN_clean_linker_2, # of connection points: 2
#     Edge 27, Type (0, 0), BuildingBlock: XUDNAN_clean_linker_2, # of connection points: 2
#     Edge 28, Type (0, 0), BuildingBlock: XUDNAN_clean_linker_2, # of connection points: 2
#     Edge 29, Type (0, 0), BuildingBlock: XUDNAN_clean_linker_2, # of connection points: 2
#     Edge 30, Type (0, 0), BuildingBlock: XUDNAN_clean_linker_2, # of connection points: 2
#     Edge 31, Type (0, 0), BuildingBlock: XUDNAN_clean_linker_2, # of connection points: 2
#     Edge 32, Type (0, 0), BuildingBlock: XUDNAN_clean_linker_2, # of connection points: 2
#     Edge 33, Type (0, 0), BuildingBlock: XUDNAN_clean_linker_2, # of connection points: 2
#     Edge 34, Type (0, 0), BuildingBlock: XUDNAN_clean_linker_2, # of connection points: 2
#     Edge 35, Type (0, 0), BuildingBlock: XUDNAN_clean_linker_2, # of connection points: 2
#     Edge 36, Type (0, 0), BuildingBlock: XUDNAN_clean_linker_2, # of connection points: 2
#     Edge 37, Type (0, 0), BuildingBlock: XUDNAN_clean_linker_2, # of connection points: 2
#     Edge 38, Type (0, 0), BuildingBlock: XUDNAN_clean_linker_2, # of connection points: 2
#     Edge 39, Type (0, 0), BuildingBlock: XUDNAN_clean_linker_2, # of connection points: 2
#     Edge 40, Type (0, 0), BuildingBlock: XUDNAN_clean_linker_2, # of connection points: 2
#     Edge 41, Type (0, 0), BuildingBlock: XUDNAN_clean_linker_2, # of connection points: 2
#     Edge 42, Type (0, 0), BuildingBlock: XUDNAN_clean_linker_2, # of connection points: 2
#     Edge 43, Type (0, 0), BuildingBlock: XUDNAN_clean_linker_2, # of connection points: 2
#     Edge 44, Type (0, 0), BuildingBlock: XUDNAN_clean_linker_2, # of connection points: 2
#     Edge 45, Type (0, 0), BuildingBlock: XUDNAN_clean_linker_2, # of connection points: 2
#     Edge 46, Type (0, 0), BuildingBlock: XUDNAN_clean_linker_2, # of connection points: 2
#     Edge 47, Type (0, 0), BuildingBlock: XUDNAN_clean_linker_2, # of connection points: 2
#     Edge 48, Type (0, 0), BuildingBlock: XUDNAN_clean_linker_2, # of connection points: 2
#     Edge 49, Type (0, 0), BuildingBlock: XUDNAN_clean_linker_2, # of connection points: 2
#     Edge 50, Type (0, 0), BuildingBlock: XUDNAN_clean_linker_2, # of connection points: 2
#     Edge 51, Type (0, 0), BuildingBlock: XUDNAN_clean_linker_2, # of connection points: 2
#     Edge 52, Type (0, 0), BuildingBlock: XUDNAN_clean_linker_2, # of connection points: 2
#     Edge 53, Type (0, 0), BuildingBlock: XUDNAN_clean_linker_2, # of connection points: 2
#     Edge 54, Type (0, 0), BuildingBlock: XUDNAN_clean_linker_2, # of connection points: 2
#     Edge 55, Type (0, 0), BuildingBlock: XUDNAN_clean_linker_2, # of connection points: 2
# Relax obj value: 0.045
# Max RMSD: 0.068
# Mean RMSD: 0.068
data_MOF--net-zfg--node1-BEQFEK_clean_sbu_0--edge1-XUDNAN_clean_linker_2
_symmetry_space_group_name_H-M    P1
_symmetry_Int_Tables_number       1
_symmetry_cell_setting            triclinic
loop_
_symmetry_equiv_pos_as_xyz
'x, y, z'
_cell_length_a     42.418861
_cell_length_b     42.435483
_cell_length_c     57.806135
_cell_angle_alpha  89.997707
_cell_angle_beta   90.013553
_cell_angle_gamma 90.053725
loop_
_atom_site_label
_atom_site_type_symbol
_atom_site_fract_x
_atom_site_fract_y
_atom_site_fract_z
_atom_type_partial_charge
Co0 Co 0.08993 0.23428 0.14117 0.0
Co1 Co 0.05496 0.29769 0.13096 0.0
C2 C 0.09096 0.26651 0.09376 0.0
O3 O 0.09894 0.24454 0.10772 0.0
O4 O 0.07377 0.28941 0.10039 0.0
C5 C 0.13874 0.18599 0.14058 0.0
O6 O 0.15249 0.2031 0.12455 0.0
C7 C 0.03515 0.36376 0.12019 0.0
C8 C 0.99248 0.36633 0.1421 0.0
C9 C 0.01031 0.38322 0.12642 0.0
N10 N 0.03202 0.33635 0.13172 0.0
N11 N 0.00655 0.33824 0.14483 0.0
C12 C 0.06024 0.37049 0.10272 0.0
H13 H 0.07922 0.35257 0.10362 0.0
H14 H 0.07025 0.39433 0.10566 0.0
H15 H 0.04965 0.37021 0.08517 0.0
C16 C 0.11312 0.27326 0.18149 0.0
N17 N 0.09789 0.26941 0.16112 0.0
N18 N 0.08573 0.29657 0.15485 0.0
C19 C 0.09437 0.3189 0.17006 0.0
C20 C 0.11128 0.30495 0.18808 0.0
C21 C 0.12628 0.2465 0.19529 0.0
H22 H 0.11511 0.22396 0.19008 0.0
H23 H 0.15201 0.24482 0.19208 0.0
H24 H 0.12241 0.25037 0.21406 0.0
O25 O 0.04566 0.22083 0.14385 0.0
O26 O 0.02147 0.266 0.13696 0.0
H27 H 0.06388 0.35905 0.17185 0.0
H28 H 0.10527 0.36816 0.17587 0.0
C29 C 0.08821 0.35328 0.16625 0.0
H30 H 0.09033 0.3588 0.14759 0.0
H31 H 0.99854 0.32013 0.15553 0.0
O32 O 0.11381 0.19612 0.1502 0.0
C33 C 0.02053 0.23678 0.14174 0.0
Co34 Co 0.76707 0.08259 0.13909 0.0
Co35 Co 0.69963 0.05493 0.1297 0.0
C36 C 0.73533 0.08656 0.09213 0.0
O37 O 0.75841 0.09144 0.10581 0.0
O38 O 0.71036 0.07284 0.09908 0.0
C39 C 0.83279 0.10163 0.14278 0.0
O40 O 0.83946 0.07435 0.13321 0.0
C41 C 0.63127 0.04772 0.11957 0.0
C42 C 0.62039 0.00613 0.14119 0.0
C43 C 0.60674 0.02816 0.12663 0.0
N44 N 0.65798 0.03792 0.12991 0.0
N45 N 0.65129 0.01287 0.14258 0.0
C46 C 0.62976 0.07438 0.10263 0.0
H47 H 0.65211 0.07623 0.09287 0.0
H48 H 0.62617 0.09683 0.11208 0.0
H49 H 0.61002 0.07102 0.09028 0.0
C50 C 0.73142 0.11565 0.17619 0.0
N51 N 0.73281 0.09574 0.15802 0.0
N52 N 0.7043 0.08502 0.15364 0.0
C53 C 0.68387 0.09797 0.16877 0.0
C54 C 0.70038 0.11774 0.18351 0.0
C55 C 0.75919 0.13292 0.18588 0.0
H56 H 0.77843 0.11595 0.18958 0.0
H57 H 0.76798 0.14989 0.17278 0.0
H58 H 0.75298 0.14589 0.20191 0.0
O59 O 0.77592 0.03663 0.1431 0.0
O60 O 0.72771 0.01887 0.13571 0.0
H61 H 0.64584 0.06516 0.17196 0.0
H62 H 0.63751 0.10346 0.18403 0.0
C63 C 0.64934 0.09085 0.16964 0.0
H64 H 0.6383 0.09788 0.15307 0.0
H65 H 0.66776 1.00072 0.15257 0.0
O66 O 0.80426 0.10852 0.14709 0.0
C67 C 0.75648 0.01389 0.14078 0.0
Co68 Co 0.9115 0.76759 0.13365 0.0
Co69 Co 0.93909 0.69902 0.13311 0.0
C70 C 0.90927 0.72615 0.09096 0.0
O71 O 0.90392 0.75235 0.10104 0.0
O72 O 0.9223 0.7034 0.10159 0.0
C73 C 0.8581 0.80633 0.13337 0.0
O74 O 0.84531 0.77916 0.12779 0.0
C75 C 0.9537 0.63201 0.1238 0.0
C76 C 0.9791 0.61866 0.15571 0.0
C77 C 0.96858 0.60693 0.13472 0.0
N78 N 0.95494 0.65724 0.13789 0.0
N79 N 0.97038 0.64912 0.15683 0.0
C80 C 0.94086 0.63292 0.09969 0.0
H81 H 0.95049 0.65372 0.0905 0.0
H82 H 0.91483 0.63525 0.10045 0.0
H83 H 0.94724 0.6116 0.08967 0.0
C84 C 0.87896 0.74066 0.17542 0.0
N85 N 0.89774 0.73794 0.15667 0.0
N86 N 0.90696 0.70849 0.15484 0.0
C87 C 0.89257 0.69106 0.17123 0.0
C88 C 0.87457 0.71087 0.1853 0.0
C89 C 0.86867 0.77171 0.18513 0.0
H90 H 0.88529 0.79058 0.17991 0.0
H91 H 0.84489 0.77757 0.1784 0.0
H92 H 0.86759 0.77082 0.20429 0.0
O93 O 0.9568 0.77642 0.13752 0.0
O94 O 0.976 0.72775 0.13738 0.0
H95 H 0.9143 0.64837 0.18276 0.0
H96 H 0.87207 0.64572 0.17924 0.0
C97 C 0.89406 0.65581 0.17191 0.0
H98 H 0.89743 0.6463 0.15422 0.0
H99 H 0.97491 0.66441 0.17058 0.0
O100 O 0.88763 0.80756 0.13693 0.0
C101 C 0.98 0.75748 0.13872 0.0
Co102 Co 0.23851 0.90483 0.13807 0.0
Co103 Co 0.29799 0.94844 0.13405 0.0
C104 C 0.27775 0.90874 0.09441 0.0
O105 O 0.25357 0.89891 0.10538 0.0
O106 O 0.29755 0.92739 0.10372 0.0
C107 C 0.17696 0.87923 0.13706 0.0
O108 O 0.17131 0.90633 0.12689 0.0
C109 C 0.36182 0.97499 0.12623 0.0
C110 C 0.36003 0.01648 0.14936 0.0
C111 C 0.3792 1.00082 0.13378 0.0
N112 N 0.33376 0.97538 0.13707 0.0
N113 N 0.33288 1.00026 0.1508 0.0
C114 C 0.37034 0.95173 0.1078 0.0
H115 H 0.35178 0.95174 0.0943 0.0
H116 H 0.37117 0.92774 0.11541 0.0
H117 H 0.39317 0.95735 0.09946 0.0
C118 C 0.27438 0.8825 0.17943 0.0
N119 N 0.27188 0.89981 0.15992 0.0
N120 N 0.29677 0.9182 0.15815 0.0
C121 C 0.31599 0.91297 0.17627 0.0
C122 C 0.30243 0.89036 0.1905 0.0
C123 C 0.24876 0.86155 0.18839 0.0
H124 H 0.22653 0.8752 0.18971 0.0
H125 H 0.24468 0.84215 0.17587 0.0
H126 H 0.25477 0.85148 0.20555 0.0
O127 O 0.21955 0.94743 0.14178 0.0
O128 O 0.26176 0.97735 0.13646 0.0
H129 H 0.34124 0.95464 0.18563 0.0
H130 H 0.36062 0.91851 0.19402 0.0
C131 C 0.34637 0.93006 0.18033 0.0
H132 H 0.36025 0.9307 0.16409 0.0
H133 H 0.31357 0.0063 0.16106 0.0
O134 O 0.20487 0.87306 0.14367 0.0
C135 C 0.23234 0.97447 0.14002 0.0
Co136 Co 0.586 0.27236 0.37615 0.0
Co137 Co 0.55701 0.20401 0.38245 0.0
C138 C 0.58873 0.23621 0.42162 0.0
O139 O 0.59313 0.26013 0.40874 0.0
O140 O 0.57544 0.21139 0.41384 0.0
C141 C 0.64044 0.31023 0.3783 0.0
O142 O 0.65141 0.2838 0.38698 0.0
C143 C 0.54516 0.1333 0.3831 0.0
C144 C 0.49461 0.13424 0.37398 0.0
C145 C 0.51936 0.1139 0.37821 0.0
N146 N 0.53588 0.16366 0.38113 0.0
N147 N 0.50548 0.16371 0.37616 0.0
C148 C 0.57811 0.12332 0.38852 0.0
H149 H 0.59455 0.1436 0.38709 0.0
H150 H 0.58547 0.10401 0.37674 0.0
H151 H 0.57898 0.1142 0.40649 0.0
C152 C 0.61554 0.24065 0.3359 0.0
N153 N 0.5985 0.23931 0.35555 0.0
N154 N 0.58678 0.21065 0.35794 0.0
C155 C 0.59578 0.19309 0.33958 0.0
C156 C 0.61454 0.21141 0.32518 0.0
C157 C 0.63156 0.26983 0.32726 0.0
H158 H 0.65177 0.2753 0.33872 0.0
H159 H 0.64078 0.26702 0.30946 0.0
H160 H 0.61492 0.28997 0.32788 0.0
O161 O 0.54057 0.28272 0.37146 0.0
O162 O 0.52236 0.23434 0.37712 0.0
H163 H 0.58502 0.15584 0.31521 0.0
H164 H 0.59643 0.14312 0.34361 0.0
C165 C 0.58291 0.16114 0.33394 0.0
H166 H 0.55777 0.15964 0.33893 0.0
H167 H 0.49201 0.18392 0.37378 0.0
O168 O 0.61195 0.31116 0.37149 0.0
C169 C 0.51771 0.26331 0.37265 0.0
Co170 Co 0.73432 0.58465 0.38324 0.0
Co171 Co 0.80352 0.5599 0.38232 0.0
C172 C 0.77792 0.58783 0.42516 0.0
O173 O 0.75108 0.59211 0.41563 0.0
O174 O 0.8008 0.57593 0.41399 0.0
C175 C 0.66886 0.59334 0.38885 0.0
O176 O 0.67151 0.56488 0.39758 0.0
C177 C 0.87135 0.54777 0.38841 0.0
C178 C 0.88097 0.51712 0.35831 0.0
C179 C 0.89484 0.53033 0.37772 0.0
N180 N 0.84472 0.54463 0.37602 0.0
N181 N 0.85065 0.52633 0.35805 0.0
C182 C 0.87439 0.56865 0.40914 0.0
H183 H 0.85978 0.59007 0.40677 0.0
H184 H 0.89926 0.57576 0.41204 0.0
H185 H 0.86568 0.55585 0.42462 0.0
C186 C 0.75846 0.61879 0.34115 0.0
N187 N 0.76241 0.60001 0.35979 0.0
N188 N 0.79212 0.59152 0.36092 0.0
C189 C 0.8085 0.60604 0.34407 0.0
C190 C 0.7877 0.62347 0.3304 0.0
C191 C 0.72678 0.62933 0.33279 0.0
H192 H 0.70835 0.61234 0.33824 0.0
H193 H 0.72122 0.65263 0.34048 0.0
H194 H 0.72638 0.63141 0.31366 0.0
O195 O 0.72655 0.53875 0.37876 0.0
O196 O 0.77604 0.52227 0.37917 0.0
H197 H 0.85107 0.58428 0.3323 0.0
H198 H 0.85317 0.62677 0.33432 0.0
C199 C 0.84374 0.60511 0.34256 0.0
H200 H 0.85404 0.60301 0.36012 0.0
H201 H 0.83386 0.5199 0.34572 0.0
O202 O 0.69338 0.60716 0.38132 0.0
C203 C 0.74664 0.51653 0.37783 0.0
Co204 Co 0.4108 0.74013 0.3828 0.0
Co205 Co 0.45962 0.79556 0.38716 0.0
C206 C 0.41467 0.77648 0.42606 0.0
O207 O 0.40191 0.75422 0.41463 0.0
O208 O 0.43633 0.79376 0.41739 0.0
C209 C 0.3604 0.69332 0.38479 0.0
O210 O 0.35136 0.70695 0.40408 0.0
C211 C 0.47461 0.86308 0.38968 0.0
C212 C 0.52573 0.86393 0.38256 0.0
C213 C 0.50008 0.88327 0.38671 0.0
N214 N 0.48467 0.83324 0.38721 0.0
N215 N 0.51538 0.8339 0.38331 0.0
C216 C 0.44135 0.8718 0.39554 0.0
H217 H 0.42545 0.8512 0.39351 0.0
H218 H 0.43298 0.89151 0.38458 0.0
H219 H 0.44048 0.8799 0.41378 0.0
C220 C 0.38846 0.77932 0.34378 0.0
N221 N 0.40867 0.77358 0.36126 0.0
N222 N 0.43031 0.79581 0.36186 0.0
C223 C 0.425 0.81593 0.3442 0.0
C224 C 0.39804 0.80648 0.33237 0.0
C225 C 0.35954 0.76011 0.33915 0.0
H226 H 0.34899 0.75225 0.35573 0.0
H227 H 0.34181 0.77365 0.32915 0.0
H228 H 0.36626 0.73884 0.32913 0.0
O229 O 0.45285 0.72088 0.38269 0.0
O230 O 0.48875 0.75867 0.38495 0.0
H231 H 0.47093 0.83741 0.34276 0.0
H232 H 0.44542 0.84675 0.31866 0.0
C233 C 0.44631 0.84256 0.33761 0.0
H234 H 0.43831 0.86434 0.34634 0.0
H235 H 0.52912 0.81388 0.38046 0.0
O236 O 0.38322 0.70489 0.37339 0.0
C237 C 0.48148 0.7296 0.38355 0.0
Co238 Co 0.27017 0.41234 0.38054 0.0
Co239 Co 0.20784 0.44877 0.39009 0.0
C240 C 0.2366 0.41334 0.42785 0.0
O241 O 0.25882 0.40504 0.41419 0.0
O242 O 0.21398 0.43052 0.42082 0.0
C243 C 0.30591 0.3555 0.37251 0.0
O244 O 0.27884 0.34097 0.37547 0.0
C245 C 0.14212 0.46988 0.39905 0.0
C246 C 0.13861 0.50736 0.37258 0.0
C247 C 0.12153 0.49176 0.38947 0.0
N248 N 0.16996 0.4724 0.38805 0.0
N249 N 0.16776 0.49514 0.37253 0.0
C250 C 0.13488 0.44522 0.41678 0.0
H251 H 0.152 0.42554 0.41568 0.0
H252 H 0.11057 0.43607 0.41442 0.0
H253 H 0.13661 0.45585 0.43428 0.0
C254 C 0.23159 0.38988 0.3398 0.0
N255 N 0.2354 0.40471 0.36033 0.0
N256 N 0.20843 0.41737 0.36646 0.0
C257 C 0.18611 0.40913 0.35109 0.0
C258 C 0.2 0.39223 0.33306 0.0
C259 C 0.25837 0.37729 0.32573 0.0
H260 H 0.28094 0.38812 0.33129 0.0
H261 H 0.25989 0.35141 0.3282 0.0
H262 H 0.25458 0.38209 0.30707 0.0
O263 O 0.28482 0.45584 0.37614 0.0
O264 O 0.24081 0.48126 0.38479 0.0
H265 H 0.14605 0.43973 0.34889 0.0
H266 H 0.13687 0.3984 0.34508 0.0
C267 C 0.15172 0.41549 0.3547 0.0
H268 H 0.146 0.41354 0.37333 0.0
H269 H 0.18598 0.50168 0.36139 0.0
O270 O 0.30691 0.38535 0.37346 0.0
C271 C 0.26972 0.48136 0.37902 0.0
Co272 Co 0.9208 0.76958 0.88005 0.0
Co273 Co 0.94453 0.69984 0.87986 0.0
C274 C 0.91634 0.72613 0.92223 0.0
O275 O 0.9133 0.753 0.91252 0.0
O276 O 0.92755 0.70265 0.9113 0.0
C277 C 0.86846 0.80879 0.88382 0.0
O278 O 0.85684 0.78167 0.89077 0.0
C279 C 0.95907 0.63217 0.88558 0.0
C280 C 0.99062 0.62484 0.85561 0.0
C281 C 0.97787 0.60984 0.87472 0.0
N282 N 0.96097 0.65917 0.87348 0.0
N283 N 0.97985 0.65459 0.85563 0.0
C284 C 0.93851 0.62783 0.90635 0.0
H285 H 0.91675 0.6421 0.90448 0.0
H286 H 0.93203 0.60269 0.9087 0.0
H287 H 0.95131 0.63614 0.92194 0.0
C288 C 0.88414 0.74378 0.83912 0.0
N289 N 0.90471 0.74084 0.85691 0.0
N290 N 0.91385 0.71122 0.85797 0.0
C291 C 0.8989 0.69439 0.84155 0.0
C292 C 0.87978 0.71442 0.82897 0.0
C293 C 0.86885 0.7739 0.83182 0.0
H294 H 0.847 0.7774 0.84204 0.0
H295 H 0.86227 0.77304 0.81324 0.0
H296 H 0.88494 0.79407 0.83494 0.0
O297 O 0.96714 0.77733 0.87556 0.0
O298 O 0.98145 0.72723 0.87699 0.0
H299 H 0.8833 0.64977 0.82739 0.0
H300 H 0.90311 0.64755 0.85512 0.0
C301 C 0.90264 0.65964 0.83812 0.0
H302 H 0.92533 0.65508 0.8292 0.0
H303 H 0.98571 0.67199 0.84361 0.0
O304 O 0.89731 0.81008 0.87796 0.0
C305 C 0.9885 0.75621 0.87514 0.0
Co306 Co 0.23915 0.90059 0.88226 0.0
Co307 Co 0.29922 0.94252 0.88798 0.0
C308 C 0.27705 0.90363 0.92703 0.0
O309 O 0.25363 0.89323 0.91537 0.0
O310 O 0.29669 0.92294 0.91838 0.0
C311 C 0.20362 0.84255 0.87727 0.0
O312 O 0.23039 0.82831 0.88186 0.0
C313 C 0.3637 0.96655 0.89727 0.0
C314 C 0.36737 0.00329 0.87029 0.0
C315 C 0.38395 0.98902 0.88806 0.0
N316 N 0.33641 0.96758 0.88541 0.0
N317 N 0.33869 0.98984 0.86951 0.0
C318 C 0.37098 0.94264 0.91554 0.0
H319 H 0.35729 0.92076 0.91251 0.0
H320 H 0.39651 0.93698 0.91581 0.0
H321 H 0.3642 0.95229 0.93267 0.0
C322 C 0.27651 0.87918 0.84026 0.0
N323 N 0.27265 0.89535 0.86027 0.0
N324 N 0.29879 0.91082 0.86476 0.0
C325 C 0.32082 0.90312 0.84909 0.0
C326 C 0.30736 0.88369 0.83227 0.0
C327 C 0.25033 0.86235 0.8281 0.0
H328 H 0.22715 0.87154 0.83384 0.0
H329 H 0.25157 0.83685 0.83226 0.0
H330 H 0.25245 0.86522 0.80909 0.0
O331 O 0.22168 0.94317 0.87922 0.0
O332 O 0.26401 0.97306 0.88382 0.0
H333 H 0.35913 0.93567 0.84506 0.0
H334 H 0.37044 0.89466 0.84268 0.0
C335 C 0.35494 0.91159 0.85185 0.0
H336 H 0.36134 0.91127 0.87041 0.0
H337 H 0.32084 0.99536 0.85777 0.0
O338 O 0.20293 0.87239 0.87611 0.0
C339 C 0.23454 0.97016 0.8803 0.0
Co340 Co 0.08242 0.22519 0.87944 0.0
Co341 Co 0.0576 0.29394 0.88486 0.0
C342 C 0.08824 0.26229 0.9245 0.0
O343 O 0.09216 0.23773 0.91206 0.0
O344 O 0.07519 0.28698 0.91632 0.0
C345 C 0.12999 0.17648 0.88037 0.0
O346 O 0.147 0.19711 0.89185 0.0
C347 C 0.04574 0.36255 0.89148 0.0
C348 C 0.0091 0.36922 0.86469 0.0
C349 C 0.02621 0.38504 0.88144 0.0
N350 N 0.04031 0.3348 0.88095 0.0
N351 N 0.01823 0.33899 0.86512 0.0
C352 C 0.07041 0.36745 0.9096 0.0
H353 H 0.08932 0.34955 0.90783 0.0
H354 H 0.08062 0.39148 0.90832 0.0
H355 H 0.05949 0.36473 0.92693 0.0
C356 C 0.11377 0.25438 0.8385 0.0
N357 N 0.0967 0.25623 0.85812 0.0
N358 N 0.08764 0.28558 0.86119 0.0
C359 C 0.09935 0.30348 0.8439 0.0
C360 C 0.11617 0.2843 0.82886 0.0
C361 C 0.12642 0.22425 0.82879 0.0
H362 H 0.10733 0.20637 0.82813 0.0
H363 H 0.14509 0.21519 0.84046 0.0
H364 H 0.13661 0.22761 0.81129 0.0
O365 O 0.0364 0.21786 0.87585 0.0
O366 O 0.02023 0.26689 0.88069 0.0
H367 H 0.06726 0.33983 0.83414 0.0
H368 H 0.10776 0.34886 0.82781 0.0
C369 C 0.09179 0.33762 0.84054 0.0
H370 H 0.09368 0.35021 0.85729 0.0
H371 H 0.00965 0.32117 0.85439 0.0
O372 O 0.1027 0.18416 0.8733 0.0
C373 C 0.01428 0.23799 0.87705 0.0
Co374 Co 0.7699 0.08224 0.87602 0.0
Co375 Co 0.70303 0.05462 0.88613 0.0
C376 C 0.73631 0.08702 0.92321 0.0
O377 O 0.75946 0.09161 0.90946 0.0
O378 O 0.71145 0.07297 0.91647 0.0
C379 C 0.80597 0.13724 0.87118 0.0
O380 O 0.77859 0.14966 0.87661 0.0
C381 C 0.63574 0.04063 0.89657 0.0
C382 C 0.62606 0.00578 0.86901 0.0
C383 C 0.61211 0.02189 0.88713 0.0
N384 N 0.66234 0.03581 0.88438 0.0
N385 N 0.65641 0.01469 0.86816 0.0
C386 C 0.63261 0.06448 0.91548 0.0
H387 H 0.65022 0.08357 0.91327 0.0
H388 H 0.60851 0.07465 0.91572 0.0
H389 H 0.637 0.05281 0.93236 0.0
C390 C 0.73356 0.10947 0.8356 0.0
N391 N 0.73589 0.0937 0.85589 0.0
N392 N 0.70754 0.08488 0.86235 0.0
C393 C 0.68618 0.09622 0.84737 0.0
C394 C 0.7018 0.11143 0.82933 0.0
C395 C 0.76134 0.1198 0.82158 0.0
H396 H 0.78265 0.10627 0.82655 0.0
H397 H 0.76578 0.1452 0.82481 0.0
H398 H 0.75665 0.11659 0.80284 0.0
O399 O 0.78006 0.03665 0.87308 0.0
O400 O 0.73223 0.01888 0.88125 0.0
H401 H 0.64245 0.07108 0.84509 0.0
H402 H 0.6387 0.11325 0.84188 0.0
C403 C 0.6513 0.09421 0.85122 0.0
H404 H 0.64609 0.0963 0.86994 0.0
H405 H 0.673 0.00693 0.85612 0.0
O406 O 0.80804 0.10752 0.86907 0.0
C407 C 0.761 0.01385 0.87625 0.0
Co408 Co 0.42356 0.73389 0.6363 0.0
Co409 Co 0.4517 0.80081 0.62987 0.0
C410 C 0.413 0.77434 0.59285 0.0
O411 O 0.40945 0.74847 0.60401 0.0
O412 O 0.42871 0.79715 0.60122 0.0
C413 C 0.37401 0.68636 0.63944 0.0
O414 O 0.35579 0.70662 0.62865 0.0
C415 C 0.46858 0.86744 0.62126 0.0
C416 C 0.5057 0.87352 0.6478 0.0
C417 C 0.48985 0.88906 0.63026 0.0
N418 N 0.4719 0.8403 0.63299 0.0
N419 N 0.49423 0.84406 0.64869 0.0
C420 C 0.44413 0.87285 0.60304 0.0
H421 H 0.42287 0.85847 0.6067 0.0
H422 H 0.43747 0.8981 0.6021 0.0
H423 H 0.45373 0.86547 0.58602 0.0
C424 C 0.40062 0.76556 0.68069 0.0
N425 N 0.41501 0.7651 0.65974 0.0
N426 N 0.42459 0.79378 0.65495 0.0
C427 C 0.41496 0.81367 0.67149 0.0
C428 C 0.40041 0.79655 0.68906 0.0
C429 C 0.38927 0.7367 0.69297 0.0
H430 H 0.40213 0.7156 0.68676 0.0
H431 H 0.36378 0.73344 0.68934 0.0
H432 H 0.39246 0.73913 0.71194 0.0
O433 O 0.4694 0.72322 0.63553 0.0
O434 O 0.48731 0.77141 0.62975 0.0
H435 H 0.44046 0.85707 0.67506 0.0
H436 H 0.39842 0.86071 0.67942 0.0
C437 C 0.417 0.84881 0.66913 0.0
H438 H 0.41415 0.85559 0.65073 0.0
H439 H 0.50148 0.82647 0.66013 0.0
O440 O 0.40227 0.69389 0.64414 0.0
C441 C 0.49223 0.74213 0.63225 0.0
Co442 Co 0.27166 0.40866 0.64329 0.0
Co443 Co 0.21036 0.44901 0.63685 0.0
C444 C 0.23671 0.41297 0.59734 0.0
O445 O 0.25905 0.40342 0.61034 0.0
O446 O 0.21501 0.43088 0.60515 0.0
C447 C 0.30781 0.35184 0.64205 0.0
O448 O 0.28254 0.3403 0.63198 0.0
C449 C 0.1443 0.47324 0.63061 0.0
C450 C 0.14781 0.51608 0.65223 0.0
C451 C 0.12738 0.49937 0.63818 0.0
N452 N 0.17345 0.47462 0.63987 0.0
N453 N 0.17517 0.50025 0.65281 0.0
C454 C 0.13354 0.44848 0.61396 0.0
H455 H 0.15394 0.43581 0.60644 0.0
H456 H 0.11854 0.43116 0.62321 0.0
H457 H 0.11916 0.45925 0.6 0.0
C458 C 0.23295 0.38031 0.68095 0.0
N459 N 0.23716 0.4007 0.66332 0.0
N460 N 0.211 0.41685 0.66012 0.0
C461 C 0.18913 0.40668 0.67535 0.0
C462 C 0.20233 0.38327 0.68905 0.0
C463 C 0.25742 0.3576 0.68926 0.0
H464 H 0.25862 0.33745 0.67708 0.0
H465 H 0.25167 0.34838 0.70671 0.0
H466 H 0.28082 0.36926 0.68964 0.0
O467 O 0.2881 0.45138 0.64824 0.0
O468 O 0.24524 0.47973 0.64177 0.0
H469 H 0.1574 0.44518 0.68031 0.0
H470 H 0.14274 0.40799 0.69106 0.0
C471 C 0.15636 0.41947 0.677 0.0
H472 H 0.14409 0.41572 0.6603 0.0
H473 H 0.19523 0.50713 0.66196 0.0
O474 O 0.30769 0.3802 0.649 0.0
C475 C 0.27446 0.4779 0.64649 0.0
Co476 Co 0.58829 0.27267 0.6384 0.0
Co477 Co 0.5628 0.20528 0.6285 0.0
C478 C 0.59212 0.239 0.59083 0.0
O479 O 0.59646 0.2624 0.60445 0.0
O480 O 0.5794 0.21368 0.59793 0.0
C481 C 0.64316 0.30896 0.64446 0.0
O482 O 0.6559 0.28139 0.64006 0.0
C483 C 0.54735 0.1384 0.61872 0.0
C484 C 0.51284 0.13018 0.6468 0.0
C485 C 0.52794 0.11565 0.62847 0.0
N486 N 0.54384 0.16513 0.63092 0.0
N487 N 0.52296 0.16011 0.64747 0.0
C488 C 0.57037 0.13442 0.59935 0.0
H489 H 0.58991 0.15167 0.60098 0.0
H490 H 0.57999 0.11011 0.59916 0.0
H491 H 0.55812 0.13873 0.58268 0.0
C492 C 0.616 0.23661 0.67912 0.0
N493 N 0.60127 0.23875 0.65837 0.0
N494 N 0.59365 0.21021 0.65158 0.0
C495 C 0.60472 0.18904 0.66676 0.0
C496 C 0.61841 0.20486 0.6853 0.0
C497 C 0.62437 0.2644 0.6938 0.0
H498 H 0.61078 0.28546 0.68835 0.0
H499 H 0.6499 0.26946 0.69184 0.0
H500 H 0.6197 0.25929 0.71232 0.0
O501 O 0.54243 0.28183 0.64282 0.0
O502 O 0.52711 0.2334 0.63437 0.0
H503 H 0.57952 0.14532 0.66903 0.0
H504 H 0.62154 0.14174 0.67303 0.0
C505 C 0.6028 0.15411 0.66318 0.0
H506 H 0.60538 0.14857 0.64454 0.0
H507 H 0.51606 0.17706 0.65953 0.0
O508 O 0.6133 0.31119 0.64519 0.0
C509 C 0.5206 0.26157 0.63994 0.0
Co510 Co 0.73739 0.58332 0.63575 0.0
Co511 Co 0.8065 0.55673 0.63782 0.0
C512 C 0.78071 0.58408 0.59418 0.0
O513 O 0.75391 0.58861 0.60352 0.0
O514 O 0.80358 0.57261 0.60567 0.0
C515 C 0.69777 0.63445 0.62761 0.0
O516 O 0.72453 0.64471 0.61896 0.0
C517 C 0.87555 0.55002 0.63332 0.0
C518 C 0.88544 0.5122 0.65859 0.0
C519 C 0.89976 0.53195 0.64267 0.0
N520 N 0.84833 0.54155 0.64353 0.0
N521 N 0.85441 0.51881 0.6585 0.0
C522 C 0.87719 0.57235 0.61332 0.0
H523 H 0.86304 0.56252 0.5989 0.0
H524 H 0.86657 0.59526 0.61832 0.0
H525 H 0.90149 0.57592 0.60689 0.0
C526 C 0.76211 0.61986 0.6764 0.0
N527 N 0.7661 0.59964 0.65859 0.0
N528 N 0.79507 0.58858 0.65928 0.0
C529 C 0.81044 0.60141 0.67742 0.0
C530 C 0.7901 0.62175 0.68896 0.0
C531 C 0.732 0.63709 0.68114 0.0
H532 H 0.71196 0.62027 0.681 0.0
H533 H 0.72808 0.65462 0.66723 0.0
H534 H 0.73256 0.64994 0.69781 0.0
O535 O 0.72901 0.53765 0.64143 0.0
O536 O 0.77828 0.52002 0.64173 0.0
H537 H 0.8426 0.56591 0.68866 0.0
H538 H 0.85089 0.60409 0.70057 0.0
C539 C 0.84277 0.59151 0.68488 0.0
H540 H 0.85967 0.59575 0.67057 0.0
H541 H 0.83732 0.50772 0.66862 0.0
O542 O 0.69701 0.60718 0.63669 0.0
C543 C 0.74872 0.51509 0.64314 0.0
H544 H 0.07085 0.30295 0.95933 0.0
H545 H 0.12553 0.21846 0.94594 0.0
H546 H 0.13663 0.21342 0.98766 0.0
H547 H 0.11933 0.33294 1.00797 0.0
H548 H 0.08529 0.34673 0.02364 0.0
H549 H 0.08482 0.3459 0.99246 0.0
H550 H 0.03417 0.31175 0.99333 0.0
H551 H 0.03453 0.31241 0.02444 0.0
H552 H 0.03414 0.27527 0.00931 0.0
H553 H 0.13778 0.21469 0.03112 0.0
H554 H 0.12821 0.22181 0.07291 0.0
H555 H 0.0725 0.30525 0.05811 0.0
C556 C 0.08575 0.28378 0.96509 0.0
C557 C 0.09744 0.26119 0.94928 0.0
C558 C 0.11633 0.23611 0.95766 0.0
C559 C 0.12287 0.23309 0.98135 0.0
C560 C 0.11042 0.25536 0.99652 0.0
C561 C 0.09234 0.28029 0.98873 0.0
C562 C 0.07981 0.2996 1.00878 0.0
C563 C 0.09312 0.33329 1.00817 0.0
C564 C 0.04352 0.29974 0.00897 0.0
C565 C 0.09299 0.28116 0.02905 0.0
C566 C 0.1109 0.25595 0.02161 0.0
C567 C 0.12411 0.23458 0.03715 0.0
C568 C 0.11851 0.23881 0.06089 0.0
C569 C 0.09968 0.26414 0.06891 0.0
C570 C 0.08727 0.28582 0.05267 0.0
H571 H 0.69486 0.07392 0.95828 0.0
H572 H 0.78462 0.11939 0.94428 0.0
H573 H 0.79163 0.12905 0.98612 0.0
H574 H 0.67126 0.12428 1.00759 0.0
H575 H 0.654 0.09154 0.02291 0.0
H576 H 0.65425 0.09187 0.99173 0.0
H577 H 0.6825 0.03777 0.99155 0.0
H578 H 0.68247 0.03731 0.02265 0.0
H579 H 0.71907 0.03327 1.0071 0.0
H580 H 0.79131 0.12885 0.02971 0.0
H581 H 0.78381 0.11884 0.0714 0.0
H582 H 0.69433 0.07322 0.05667 0.0
C583 C 0.71571 0.08654 0.96389 0.0
C584 C 0.73915 0.096 0.94792 0.0
C585 C 0.76628 0.112 0.95613 0.0
C586 C 0.77044 0.11765 0.97987 0.0
C587 C 0.7472 0.10732 0.99517 0.0
C588 C 0.72028 0.09225 0.98747 0.0
C589 C 0.7 0.08133 1.00749 0.0
C590 C 0.66798 0.09828 1.00742 0.0
C591 C 0.69579 0.04529 1.00717 0.0
C592 C 0.72013 0.09181 0.0277 0.0
C593 C 0.74708 0.10708 0.02025 0.0
C594 C 0.7701 0.1173 0.03574 0.0
C595 C 0.76563 0.11142 0.05941 0.0
C596 C 0.73842 0.09531 0.06739 0.0
C597 C 0.71522 0.08589 0.05123 0.0
H598 H 0.9135 0.77094 0.95686 0.0
H599 H 0.90036 0.67115 0.9434 0.0
H600 H 0.89077 0.66194 0.98483 0.0
H601 H 0.95661 0.76139 1.00773 0.0
H602 H 0.9401 0.79466 0.02284 0.0
H603 H 0.9415 0.79457 0.99173 0.0
H604 H 0.88121 0.80392 0.99009 0.0
H605 H 0.87963 0.80408 0.02126 0.0
H606 H 0.85509 0.7773 1.00507 0.0
H607 H 0.88836 0.66205 0.0275 0.0
H608 H 0.89398 0.67142 0.06934 0.0
H609 H 0.9088 0.77105 0.05641 0.0
C610 C 0.9078 0.74732 0.9626 0.0
C611 C 0.90751 0.72178 0.94684 0.0
C612 C 0.90074 0.69107 0.9551 0.0
C613 C 0.89508 0.68561 0.97861 0.0
C614 C 0.89624 0.71108 0.99377 0.0
C615 C 0.90235 0.74137 0.98618 0.0
C616 C 0.90499 0.76396 1.00649 0.0
C617 C 0.93775 0.77955 1.00723 0.0
C618 C 0.87865 0.78878 1.00567 0.0
C619 C 0.90036 0.74143 0.02662 0.0
C620 C 0.89495 0.71113 0.01878 0.0
C621 C 0.89213 0.68573 0.03388 0.0
C622 C 0.89551 0.69126 0.05762 0.0
C623 C 0.90167 0.72194 0.06614 0.0
C624 C 0.90345 0.74746 0.05042 0.0
H625 H 0.2325 0.89489 0.96119 0.0
H626 H 0.33306 0.89289 0.94783 0.0
H627 H 0.34342 0.88639 0.98944 0.0
H628 H 0.23671 0.94168 0.00947 0.0
H629 H 0.20584 0.92277 0.02581 0.0
H630 H 0.20544 0.921 0.99473 0.0
H631 H 0.20367 0.86004 0.99631 0.0
H632 H 0.2038 0.86161 0.02749 0.0
H633 H 0.23333 0.839 0.01244 0.0
H634 H 0.34383 0.88915 0.0319 0.0
H635 H 0.33404 0.89905 0.0733 0.0
H636 H 0.23325 0.89855 0.0606 0.0
C637 C 0.25656 0.89183 0.96703 0.0
C638 C 0.282 0.89405 0.95133 0.0
C639 C 0.31327 0.89111 0.9596 0.0
C640 C 0.31938 0.8873 0.9832 0.0
C641 C 0.29397 0.88639 0.99839 0.0
C642 C 0.26312 0.88827 0.99073 0.0
C643 C 0.24047 0.89015 0.01104 0.0
C644 C 0.22098 0.92072 0.0102 0.0
C645 C 0.21905 0.86095 0.01187 0.0
C646 C 0.26352 0.89036 0.03116 0.0
C647 C 0.29422 0.88778 0.02338 0.0
C648 C 0.31989 0.89044 0.03829 0.0
C649 C 0.31412 0.89625 0.06174 0.0
C650 C 0.28293 0.89919 0.07013 0.0
C651 C 0.2573 0.89559 0.0547 0.0
H652 H 0.57329 0.19606 0.45745 0.0
H653 H 0.62406 0.28245 0.44195 0.0
H654 H 0.63442 0.29028 0.48344 0.0
H655 H 0.53514 0.22383 0.50673 0.0
H656 H 0.5377 0.18757 0.52287 0.0
H657 H 0.53731 0.18662 0.49176 0.0
H658 H 0.58989 0.15557 0.49174 0.0
H659 H 0.59036 0.15633 0.52291 0.0
H660 H 0.62356 0.17136 0.50686 0.0
H661 H 0.63446 0.29196 0.52687 0.0
H662 H 0.62536 0.28609 0.56891 0.0
H663 H 0.57562 0.19829 0.55612 0.0
C664 C 0.58719 0.21624 0.46273 0.0
C665 C 0.59784 0.23859 0.44636 0.0
C666 C 0.61556 0.26496 0.45409 0.0
C667 C 0.62168 0.26962 0.47766 0.0
C668 C 0.61017 0.24761 0.49339 0.0
C669 C 0.59355 0.22128 0.48625 0.0
C670 C 0.58215 0.20228 0.5068 0.0
C671 C 0.54593 0.19996 0.50705 0.0
C672 C 0.59741 0.16944 0.50709 0.0
C673 C 0.59422 0.22249 0.52652 0.0
C674 C 0.61051 0.24843 0.51845 0.0
C675 C 0.62216 0.27147 0.53343 0.0
C676 C 0.61681 0.268 0.55728 0.0
C677 C 0.59997 0.24167 0.5659 0.0
C678 C 0.58897 0.21851 0.55021 0.0
H679 H 0.73384 0.58917 0.4603 0.0
H680 H 0.83347 0.60216 0.44614 0.0
H681 H 0.8439 0.60774 0.48781 0.0
H682 H 0.72981 0.64344 0.51128 0.0
H683 H 0.70286 0.61803 0.52657 0.0
H684 H 0.70232 0.61929 0.4954 0.0
H685 H 0.71036 0.55882 0.49405 0.0
H686 H 0.71113 0.5574 0.52515 0.0
H687 H 0.74366 0.54164 0.50877 0.0
H688 H 0.84487 0.60597 0.53065 0.0
H689 H 0.83603 0.59798 0.57237 0.0
H690 H 0.73585 0.5862 0.55975 0.0
C691 C 0.75767 0.59409 0.46597 0.0
C692 C 0.78284 0.59534 0.44994 0.0
C693 C 0.81384 0.60102 0.45807 0.0
C694 C 0.82 0.60437 0.48173 0.0
C695 C 0.79491 0.60209 0.49714 0.0
C696 C 0.76431 0.5973 0.48967 0.0
C697 C 0.74213 0.59328 0.51009 0.0
C698 C 0.71784 0.62011 0.51088 0.0
C699 C 0.72588 0.56086 0.50947 0.0
C700 C 0.76524 0.59563 0.53008 0.0
C701 C 0.79549 0.60102 0.52216 0.0
C702 C 0.82123 0.60214 0.53711 0.0
C703 C 0.81601 0.59733 0.56078 0.0
C704 C 0.7853 0.59143 0.56934 0.0
C705 C 0.75954 0.5911 0.55376 0.0
H706 H 0.40593 0.72933 0.55867 0.0
H707 H 0.39474 0.82905 0.57294 0.0
H708 H 0.38697 0.83942 0.53152 0.0
H709 H 0.45082 0.73735 0.5105 0.0
H710 H 0.43404 0.70561 0.49382 0.0
H711 H 0.43241 0.70442 0.52488 0.0
H712 H 0.37168 0.69855 0.52347 0.0
H713 H 0.37312 0.69926 0.49229 0.0
H714 H 0.34856 0.7269 0.50762 0.0
H715 H 0.3921 0.841 0.48903 0.0
H716 H 0.40324 0.83234 0.44751 0.0
H717 H 0.40744 0.73162 0.45947 0.0
C718 C 0.40043 0.75307 0.55312 0.0
C719 C 0.40085 0.77837 0.56903 0.0
C720 C 0.39455 0.80931 0.56106 0.0
C721 C 0.39003 0.81547 0.53754 0.0
C722 C 0.39141 0.79038 0.52211 0.0
C723 C 0.39574 0.75966 0.52952 0.0
C724 C 0.39912 0.73756 0.50901 0.0
C725 C 0.43099 0.72024 0.5096 0.0
C726 C 0.37146 0.71419 0.50804 0.0
C727 C 0.39762 0.7609 0.48913 0.0
C728 C 0.39301 0.79123 0.49712 0.0
C729 C 0.39465 0.81728 0.48243 0.0
C730 C 0.40117 0.81222 0.45895 0.0
C731 C 0.40547 0.78136 0.45037 0.0
C732 C 0.4032 0.75537 0.46558 0.0
H733 H 0.19965 0.43624 0.56202 0.0
H734 H 0.27611 0.37096 0.57606 0.0
H735 H 0.2814 0.36054 0.53432 0.0
H736 H 0.16575 0.39248 0.51237 0.0
H737 H 0.1565 0.42814 0.49685 0.0
H738 H 0.15642 0.428 0.52804 0.0
H739 H 0.19627 0.47432 0.52821 0.0
H740 H 0.19656 0.47451 0.49709 0.0
H741 H 0.23302 0.47033 0.51282 0.0
H742 H 0.28208 0.36106 0.49088 0.0
H743 H 0.27713 0.37185 0.44903 0.0
H744 H 0.19985 0.43609 0.46317 0.0
C745 C 0.21707 0.41926 0.55638 0.0
C746 C 0.23741 0.40442 0.57242 0.0
C747 C 0.2602 0.38268 0.56419 0.0
C748 C 0.26338 0.37651 0.54048 0.0
C749 C 0.24347 0.39207 0.52511 0.0
C750 C 0.22059 0.41281 0.53272 0.0
C751 C 0.2035 0.42783 0.5125 0.0
C752 C 0.16846 0.41855 0.51244 0.0
C753 C 0.2076 0.46387 0.51267 0.0
C754 C 0.22091 0.41291 0.49239 0.0
C755 C 0.24372 0.39217 0.50002 0.0
C756 C 0.26399 0.37692 0.48468 0.0
C757 C 0.26105 0.38326 0.46092 0.0
C758 C 0.23801 0.40467 0.45272 0.0
C759 C 0.21746 0.41928 0.46877 0.0
H760 H 0.24732 0.03398 0.1256 0.0
H761 H 0.17411 0.98025 0.16027 0.0
H762 H 0.14347 0.02923 0.16599 0.0
H763 H 0.2428 0.10375 0.16062 0.0
H764 H 0.24894 0.13028 0.13668 0.0
H765 H 0.26545 0.0912 0.1359 0.0
H766 H 0.237 0.08028 0.09703 0.0
H767 H 0.2206 0.11939 0.0976 0.0
H768 H 0.19493 0.08568 0.09512 0.0
H769 H 0.12158 0.08427 0.16864 0.0
H770 H 0.1071 0.14022 0.1645 0.0
H771 H 0.19368 0.1575 0.12646 0.0
C772 C 0.22487 0.03248 0.13446 0.0
C773 C 0.21316 0.00333 0.14264 0.0
C774 C 0.1835 0.00233 0.15385 0.0
C775 C 0.16604 0.03003 0.15728 0.0
C776 C 0.17845 0.05841 0.14919 0.0
C777 C 0.20699 0.05975 0.13774 0.0
C778 C 0.21448 0.09297 0.12986 0.0
C779 C 0.24471 0.10527 0.14146 0.0
C780 C 0.21688 0.09467 0.10333 0.0
C781 C 0.18564 0.11019 0.13865 0.0
C782 C 0.16536 0.08989 0.15001 0.0
C783 C 0.13723 0.10034 0.15972 0.0
C784 C 0.12929 0.13224 0.15734 0.0
C785 C 0.14923 0.15328 0.1451 0.0
C786 C 0.17794 0.14204 0.13589 0.0
H787 H 0.89695 0.09486 0.13744 0.0
H788 H 0.82485 0.16283 0.15625 0.0
H789 H 0.86539 0.20414 0.15948 0.0
H790 H 0.95829 0.12629 0.17598 0.0
H791 H 0.9895 0.11875 0.15557 0.0
H792 H 0.95499 0.09394 0.1559 0.0
H793 H 0.94589 0.10552 0.11239 0.0
H794 H 0.98023 0.13046 0.11196 0.0
H795 H 0.94265 0.1458 0.10277 0.0
H796 H 0.91266 0.23908 0.1574 0.0
H797 H 0.96458 0.26466 0.15289 0.0
H798 H 0.00662 0.17391 0.13716 0.0
C799 C 0.88973 0.11833 0.14251 0.0
C800 C 0.85768 0.12556 0.14655 0.0
C801 C 0.84923 0.15663 0.15311 0.0
C802 C 0.87209 0.18032 0.15497 0.0
C803 C 0.90336 0.17255 0.15049 0.0
C804 C 0.91232 0.14226 0.14468 0.0
C805 C 0.94751 0.14041 0.14035 0.0
C806 C 0.96351 0.11855 0.15801 0.0
C807 C 0.95446 0.12994 0.11538 0.0
C808 C 0.95676 0.1745 0.14422 0.0
C809 C 0.9309 0.19263 0.14999 0.0
C810 C 0.93318 0.22508 0.1532 0.0
C811 C 0.96273 0.23941 0.1505 0.0
C812 C 0.98964 0.22124 0.14485 0.0
C813 C 0.98655 0.18833 0.14182 0.0
H814 H 0.81739 0.99036 0.1414 0.0
H815 H 0.71899 0.96215 0.14498 0.0
H816 H 0.73481 0.90652 0.14529 0.0
H817 H 0.84167 0.93028 0.1032 0.0
H818 H 0.87949 0.92371 0.11657 0.0
H819 H 0.86104 0.96181 0.11856 0.0
H820 H 0.86464 0.95957 0.16326 0.0
H821 H 0.88331 0.92152 0.16141 0.0
H822 H 0.84808 0.92635 0.17847 0.0
H823 H 0.76009 0.85432 0.14209 0.0
H824 H 0.79417 0.80782 0.13731 0.0
H825 H 0.87669 0.86848 0.13642 0.0
C826 C 0.79924 0.97248 0.14267 0.0
C827 C 0.76693 0.98073 0.14315 0.0
C828 C 0.74389 0.95655 0.14451 0.0
C829 C 0.7526 0.9248 0.14474 0.0
C830 C 0.78449 0.91744 0.14373 0.0
C831 C 0.80754 0.94046 0.1429 0.0
C832 C 0.84006 0.92579 0.14099 0.0
C833 C 0.85652 0.93601 0.11849 0.0
C834 C 0.86021 0.93378 0.16231 0.0
C835 C 0.83149 0.89106 0.14045 0.0
C836 C 0.79928 0.88689 0.14211 0.0
C837 C 0.7854 0.85719 0.14102 0.0
C838 C 0.80496 0.83093 0.13819 0.0
C839 C 0.83807 0.83449 0.13655 0.0
C840 C 0.85147 0.865 0.13784 0.0
H841 H 0.11394 0.88862 0.12997 0.0
H842 H 0.18162 0.81758 0.15116 0.0
H843 H 0.13841 0.77871 0.15484 0.0
H844 H 0.0512 0.86404 0.16849 0.0
H845 H 0.0206 0.87254 0.14778 0.0
H846 H 0.05683 0.89471 0.14731 0.0
H847 H 0.0651 0.87965 0.10427 0.0
H848 H 0.02894 0.85742 0.10462 0.0
H849 H 0.06522 0.83866 0.09606 0.0
H850 H 0.08778 0.74699 0.15425 0.0
H851 H 0.03371 0.72562 0.1511 0.0
H852 H 0.99949 0.81827 0.13153 0.0
C853 C 0.11973 0.86493 0.13548 0.0
C854 C 0.15118 0.8561 0.1402 0.0
C855 C 0.15769 0.82488 0.14746 0.0
C856 C 0.13331 0.80264 0.14958 0.0
C857 C 0.10258 0.81211 0.14459 0.0
C858 C 0.09573 0.84259 0.13787 0.0
C859 C 0.06084 0.84684 0.13341 0.0
C860 C 0.04653 0.87096 0.15025 0.0
C861 C 0.05468 0.85618 0.10809 0.0
C862 C 0.0491 0.81388 0.13843 0.0
C863 C 0.0735 0.79414 0.14479 0.0
C864 C 0.06846 0.76231 0.14947 0.0
C865 C 0.03768 0.75038 0.14758 0.0
C866 C 0.01231 0.77029 0.14121 0.0
C867 C 0.01826 0.80248 0.13671 0.0
H868 H 0.68573 0.49354 0.37418 0.0
H869 H 0.78369 0.46392 0.37746 0.0
H870 H 0.76694 0.40847 0.37629 0.0
H871 H 0.65488 0.43312 0.41027 0.0
H872 H 0.61912 0.42769 0.39391 0.0
H873 H 0.63859 0.46541 0.39391 0.0
H874 H 0.6414 0.46418 0.34916 0.0
H875 H 0.62188 0.42644 0.34901 0.0
H876 H 0.6595 0.43102 0.3349 0.0
H877 H 0.74014 0.35644 0.37725 0.0
H878 H 0.70457 0.31054 0.37885 0.0
H879 H 0.62367 0.37274 0.37367 0.0
C880 C 0.70367 0.47541 0.37444 0.0
C881 C 0.73608 0.48325 0.37593 0.0
C882 C 0.75874 0.4587 0.37631 0.0
C883 C 0.74948 0.42703 0.37564 0.0
C884 C 0.71746 0.42014 0.37441 0.0
C885 C 0.69485 0.44353 0.37365 0.0
C886 C 0.66195 0.42945 0.37278 0.0
C887 C 0.6425 0.43952 0.39398 0.0
C888 C 0.6452 0.4383 0.35011 0.0
C889 C 0.66968 0.39454 0.37353 0.0
C890 C 0.70187 0.3898 0.37447 0.0
C891 C 0.71489 0.3598 0.37628 0.0
C892 C 0.69447 0.33387 0.37725 0.0
C893 C 0.66138 0.33802 0.37626 0.0
C894 C 0.64888 0.3688 0.37416 0.0
H895 H 0.54619 0.73636 0.37874 0.0
H896 H 0.47247 0.66661 0.38937 0.0
H897 H 0.51232 0.62484 0.39119 0.0
H898 H 0.59549 0.68657 0.34226 0.0
H899 H 0.63198 0.70121 0.3541 0.0
H900 H 0.59769 0.72622 0.35336 0.0
H901 H 0.60233 0.73518 0.39756 0.0
H902 H 0.63661 0.71019 0.39844 0.0
H903 H 0.60323 0.70164 0.4167 0.0
H904 H 0.55929 0.59073 0.39355 0.0
H905 H 0.61155 0.56555 0.39458 0.0
H906 H 0.65574 0.65608 0.38106 0.0
C907 C 0.53848 0.7123 0.38138 0.0
C908 C 0.50613 0.70488 0.38391 0.0
C909 C 0.49702 0.67302 0.38728 0.0
C910 C 0.5195 0.64902 0.38839 0.0
C911 C 0.55106 0.65708 0.38591 0.0
C912 C 0.56068 0.68782 0.38231 0.0
C913 C 0.59629 0.68971 0.38013 0.0
C914 C 0.60592 0.70163 0.35602 0.0
C915 C 0.61044 0.7104 0.39936 0.0
C916 C 0.60501 0.65531 0.38337 0.0
C917 C 0.57848 0.637 0.38673 0.0
C918 C 0.58029 0.60472 0.39077 0.0
C919 C 0.6101 0.59065 0.39139 0.0
C920 C 0.63769 0.6088 0.38783 0.0
C921 C 0.63504 0.64156 0.38365 0.0
H922 H 0.25643 0.53788 0.39954 0.0
H923 H 0.31956 0.49317 0.35047 0.0
H924 H 0.34647 0.54413 0.34413 0.0
H925 H 0.25046 0.61428 0.37101 0.0
H926 H 0.25108 0.63601 0.3978 0.0
H927 H 0.23497 0.59671 0.39704 0.0
H928 H 0.27338 0.5796 0.42956 0.0
H929 H 0.28947 0.61884 0.43051 0.0
H930 H 0.31515 0.58563 0.4258 0.0
H931 H 0.36675 0.59931 0.34346 0.0
H932 H 0.38339 0.65375 0.35162 0.0
H933 H 0.30916 0.66212 0.40302 0.0
C934 C 0.2757 0.53895 0.38727 0.0
C935 C 0.28581 0.51174 0.37532 0.0
C936 C 0.3115 0.5138 0.35977 0.0
C937 C 0.32676 0.54264 0.35595 0.0
C938 C 0.31623 0.56903 0.36802 0.0
C939 C 0.29157 0.5674 0.38359 0.0
C940 C 0.28654 0.59869 0.39566 0.0
C941 C 0.25382 0.61222 0.39003 0.0
C942 C 0.29144 0.59549 0.42193 0.0
C943 C 0.31246 0.61809 0.38461 0.0
C944 C 0.32888 0.60065 0.36841 0.0
C945 C 0.35409 0.61323 0.35609 0.0
C946 C 0.36329 0.64424 0.36084 0.0
C947 C 0.34763 0.66221 0.37803 0.0
C948 C 0.32157 0.64902 0.38978 0.0
H949 H 0.36673 0.37575 0.37866 0.0
H950 H 0.31122 0.29432 0.35833 0.0
H951 H 0.36014 0.26354 0.35331 0.0
H952 H 0.43396 0.3619 0.34019 0.0
H953 H 0.4625 0.37446 0.36139 0.0
H954 H 0.42339 0.39102 0.36153 0.0
H955 H 0.41639 0.37417 0.4043 0.0
H956 H 0.45544 0.3576 0.4043 0.0
H957 H 0.42214 0.33348 0.41221 0.0
H958 H 0.41412 0.24124 0.35183 0.0
H959 H 0.46998 0.22726 0.356 0.0
H960 H 0.49125 0.32235 0.37887 0.0
C961 C 0.3649 0.35157 0.37282 0.0
C962 C 0.33519 0.33742 0.36872 0.0
C963 C 0.33372 0.30558 0.36155 0.0
C964 C 0.36137 0.28799 0.35854 0.0
C965 C 0.39023 0.30256 0.36291 0.0
C966 C 0.39225 0.33356 0.37 0.0
C967 C 0.42615 0.34286 0.375 0.0
C968 C 0.43714 0.36912 0.35854 0.0
C969 C 0.43026 0.35259 0.40046 0.0
C970 C 0.44284 0.31207 0.36989 0.0
C971 C 0.4216 0.28934 0.3627 0.0
C972 C 0.43095 0.25879 0.3575 0.0
C973 C 0.46275 0.25101 0.36016 0.0
C974 C 0.48492 0.27352 0.36817 0.0
C975 C 0.47488 0.30468 0.37265 0.0
H976 H 0.88513 0.87122 0.87786 0.0
H977 H 0.80435 0.80893 0.88466 0.0
H978 H 0.7687 0.8544 0.8812 0.0
H979 H 0.85312 0.93401 0.91175 0.0
H980 H 0.86961 0.96506 0.89423 0.0
H981 H 0.88912 0.92746 0.8959 0.0
H982 H 0.88711 0.92266 0.85125 0.0
H983 H 0.8675 0.96024 0.84945 0.0
H984 H 0.84974 0.92585 0.83656 0.0
H985 H 0.74173 0.90578 0.87805 0.0
H986 H 0.72452 0.96099 0.87708 0.0
H987 H 0.82223 0.99147 0.87303 0.0
C988 C 0.85994 0.86718 0.87844 0.0
C989 C 0.84753 0.83649 0.8815 0.0
C990 C 0.81444 0.83219 0.88241 0.0
C991 C 0.79395 0.85786 0.88036 0.0
C992 C 0.80687 0.88776 0.87747 0.0
C993 C 0.83904 0.89268 0.87661 0.0
C994 C 0.84655 0.92756 0.87441 0.0
C995 C 0.86573 0.9392 0.89532 0.0
C996 C 0.86374 0.93447 0.85155 0.0
C997 C 0.81355 0.94137 0.87437 0.0
C998 C 0.79111 0.91784 0.87596 0.0
C999 C 0.75903 0.92445 0.87675 0.0
C1000 C 0.74953 0.95598 0.87621 0.0
C1001 C 0.77199 0.98071 0.87501 0.0
C1002 C 0.80446 0.97317 0.8738 0.0
H1003 H 0.14296 0.8651 0.87677 0.0
H1004 H 0.19751 0.7788 0.87179 0.0
H1005 H 0.14818 0.74817 0.86861 0.0
H1006 H 0.08226 0.8338 0.91218 0.0
H1007 H 0.05094 0.85589 0.89873 0.0
H1008 H 0.09046 0.87141 0.89897 0.0
H1009 H 0.08918 0.87644 0.85432 0.0
H1010 H 0.04961 0.86095 0.85393 0.0
H1011 H 0.08001 0.84231 0.83699 0.0
H1012 H 0.09375 0.72688 0.86735 0.0
H1013 H 0.0372 0.71529 0.8692 0.0
H1014 H 0.01685 0.81528 0.87584 0.0
C1015 C 0.14457 0.83978 0.87472 0.0
C1016 C 0.17414 0.8243 0.8744 0.0
C1017 C 0.17517 0.79114 0.87205 0.0
C1018 C 0.14729 0.77357 0.87016 0.0
C1019 C 0.11859 0.78953 0.87073 0.0
C1020 C 0.11695 0.82185 0.873 0.0
C1021 C 0.08297 0.83296 0.87424 0.0
C1022 C 0.07627 0.84949 0.89741 0.0
C1023 C 0.07498 0.85443 0.85364 0.0
C1024 C 0.06575 0.80173 0.87258 0.0
C1025 C 0.08686 0.7771 0.87037 0.0
C1026 C 0.07697 0.74595 0.869 0.0
C1027 C 0.04467 0.73967 0.87012 0.0
C1028 C 0.02238 0.76438 0.87273 0.0
C1029 C 0.03318 0.79589 0.87375 0.0
H1030 H 0.24935 0.03156 0.89109 0.0
H1031 H 0.17487 0.97286 0.86267 0.0
H1032 H 0.14132 0.01978 0.85786 0.0
H1033 H 0.19888 0.08168 0.92376 0.0
H1034 H 0.22168 0.11688 0.9187 0.0
H1035 H 0.24073 0.07899 0.91865 0.0
H1036 H 0.26258 0.08994 0.87756 0.0
H1037 H 0.24355 0.12789 0.87748 0.0
H1038 H 0.2357 0.10012 0.85459 0.0
H1039 H 0.11549 0.0724 0.8567 0.0
H1040 H 0.09777 0.12732 0.86106 0.0
H1041 H 0.18823 0.15206 0.89132 0.0
C1042 C 0.22609 0.02862 0.88367 0.0
C1043 C 0.21478 0.99854 0.87719 0.0
C1044 C 0.18404 0.99564 0.86781 0.0
C1045 C 0.16483 0.02216 0.86491 0.0
C1046 C 0.17663 0.05141 0.87157 0.0
C1047 C 0.20644 0.05484 0.88086 0.0
C1048 C 0.21278 0.08879 0.88757 0.0
C1049 C 0.21886 0.09174 0.91372 0.0
C1050 C 0.24028 0.10249 0.87345 0.0
C1051 C 0.18173 0.1038 0.88079 0.0
C1052 C 0.16138 0.08183 0.87137 0.0
C1053 C 0.1312 0.08986 0.86401 0.0
C1054 C 0.12138 0.12115 0.86657 0.0
C1055 C 0.14157 0.14402 0.87659 0.0
C1056 C 0.17224 0.13516 0.8836 0.0
H1057 H 0.86814 0.11894 0.8696 0.0
H1058 H 0.80761 0.20141 0.86853 0.0
H1059 H 0.85452 0.23575 0.86794 0.0
H1060 H 0.92517 0.15033 0.90767 0.0
H1061 H 0.95853 0.13233 0.89361 0.0
H1062 H 0.92035 0.11391 0.89198 0.0
H1063 H 0.92337 0.11433 0.84722 0.0
H1064 H 0.96167 0.13263 0.84871 0.0
H1065 H 0.93055 0.15095 0.8323 0.0
H1066 H 0.90726 0.26114 0.86982 0.0
H1067 H 0.96293 0.27641 0.87369 0.0
H1068 H 0.99001 0.17766 0.87386 0.0
C1069 C 0.86476 0.14421 0.86886 0.0
C1070 C 0.83419 0.15751 0.86903 0.0
C1071 C 0.83077 0.19069 0.8684 0.0
C1072 C 0.85727 0.2104 0.86802 0.0
C1073 C 0.88703 0.19658 0.86826 0.0
C1074 C 0.891 0.16427 0.8686 0.0
C1075 C 0.92564 0.1556 0.86991 0.0
C1076 C 0.93283 0.13695 0.89212 0.0
C1077 C 0.93591 0.1373 0.84824 0.0
C1078 C 0.94046 0.1881 0.87059 0.0
C1079 C 0.9177 0.21134 0.86949 0.0
C1080 C 0.92534 0.24318 0.87053 0.0
C1081 C 0.95709 0.25159 0.87281 0.0
C1082 C 0.98096 0.22825 0.87409 0.0
C1083 C 0.97241 0.19607 0.87281 0.0
H1084 H 0.3163 0.65987 0.6293 0.0
H1085 H 0.40647 0.6399 0.66179 0.0
H1086 H 0.38962 0.58521 0.66879 0.0
H1087 H 0.2686 0.61001 0.6677 0.0
H1088 H 0.24283 0.59736 0.6447 0.0
H1089 H 0.26111 0.63567 0.64346 0.0
H1090 H 0.28475 0.62204 0.60335 0.0
H1091 H 0.26663 0.58369 0.6045 0.0
H1092 H 0.30858 0.58714 0.60022 0.0
H1093 H 0.36498 0.53193 0.66974 0.0
H1094 H 0.33299 0.48365 0.66587 0.0
H1095 H 0.25822 0.53806 0.63368 0.0
C1096 C 0.33235 0.64412 0.63815 0.0
C1097 C 0.36273 0.65422 0.64496 0.0
C1098 C 0.38308 0.63277 0.65637 0.0
C1099 C 0.37374 0.60162 0.66047 0.0
C1100 C 0.34388 0.59229 0.65323 0.0
C1101 C 0.32336 0.6129 0.64247 0.0
C1102 C 0.29297 0.59646 0.63575 0.0
C1103 C 0.26471 0.61073 0.64868 0.0
C1104 C 0.28796 0.59739 0.60939 0.0
C1105 C 0.2999 0.56332 0.64407 0.0
C1106 C 0.32939 0.56148 0.65412 0.0
C1107 C 0.34169 0.5331 0.66215 0.0
C1108 C 0.32339 0.50579 0.65979 0.0
C1109 C 0.29305 0.50709 0.64958 0.0
C1110 C 0.28115 0.53636 0.64181 0.0
H1111 H 0.36844 0.37268 0.6483 0.0
H1112 H 0.31238 0.28778 0.64 0.0
H1113 H 0.36087 0.2557 0.64139 0.0
H1114 H 0.43055 0.34882 0.61162 0.0
H1115 H 0.46149 0.36667 0.62853 0.0
H1116 H 0.42232 0.38293 0.6292 0.0
H1117 H 0.42117 0.37728 0.67382 0.0
H1118 H 0.46042 0.36105 0.67329 0.0
H1119 H 0.42879 0.33939 0.68676 0.0
H1120 H 0.41461 0.23323 0.64178 0.0
H1121 H 0.47095 0.22098 0.63963 0.0
H1122 H 0.49354 0.32052 0.64642 0.0
C1123 C 0.36635 0.34729 0.64718 0.0
C1124 C 0.33664 0.33262 0.64423 0.0
C1125 C 0.33489 0.29944 0.64232 0.0
C1126 C 0.36227 0.28105 0.64317 0.0
C1127 C 0.39119 0.29625 0.64581 0.0
C1128 C 0.39351 0.32859 0.64771 0.0
C1129 C 0.42772 0.33905 0.64883 0.0
C1130 C 0.43599 0.36064 0.62832 0.0
C1131 C 0.43494 0.35514 0.67206 0.0
C1132 C 0.44427 0.30751 0.64695 0.0
C1133 C 0.42261 0.28321 0.64548 0.0
C1134 C 0.43181 0.25201 0.64301 0.0
C1135 C 0.464 0.24537 0.64174 0.0
C1136 C 0.48686 0.26981 0.64278 0.0
C1137 C 0.47675 0.30131 0.64568 0.0
H1138 H 0.62595 0.37149 0.64273 0.0
H1139 H 0.70636 0.30976 0.65289 0.0
H1140 H 0.74123 0.35609 0.65592 0.0
H1141 H 0.66526 0.42648 0.60688 0.0
H1142 H 0.64551 0.46068 0.61834 0.0
H1143 H 0.6262 0.4229 0.6189 0.0
H1144 H 0.61849 0.4278 0.66322 0.0
H1145 H 0.63773 0.46568 0.66278 0.0
H1146 H 0.65221 0.43493 0.68148 0.0
H1147 H 0.76776 0.40823 0.65581 0.0
H1148 H 0.78487 0.46334 0.65211 0.0
H1149 H 0.68765 0.49217 0.64145 0.0
C1150 C 0.65082 0.36776 0.64596 0.0
C1151 C 0.66344 0.337 0.64767 0.0
C1152 C 0.69617 0.33308 0.65151 0.0
C1153 C 0.71616 0.35925 0.65333 0.0
C1154 C 0.70309 0.3892 0.65123 0.0
C1155 C 0.67121 0.39368 0.64764 0.0
C1156 C 0.66359 0.42841 0.64478 0.0
C1157 C 0.6493 0.43499 0.6208 0.0
C1158 C 0.64171 0.43988 0.66423 0.0
C1159 C 0.69626 0.44265 0.64703 0.0
C1160 C 0.71858 0.41956 0.65092 0.0
C1161 C 0.7505 0.42658 0.65291 0.0
C1162 C 0.75997 0.45803 0.65072 0.0
C1163 C 0.73764 0.48223 0.64648 0.0
C1164 C 0.70529 0.47433 0.64483 0.0
H1165 H 0.51528 0.68185 0.64027 0.0
H1166 H 0.54412 0.7767 0.62116 0.0
H1167 H 0.59903 0.75915 0.61838 0.0
H1168 H 0.58411 0.66451 0.67536 0.0
H1169 H 0.58656 0.62393 0.66633 0.0
H1170 H 0.54893 0.64357 0.66694 0.0
H1171 H 0.54016 0.62958 0.6238 0.0
H1172 H 0.57775 0.6099 0.62306 0.0
H1173 H 0.56934 0.64096 0.60271 0.0
H1174 H 0.6503 0.73219 0.61668 0.0
H1175 H 0.69622 0.69688 0.61711 0.0
H1176 H 0.63603 0.61908 0.63813 0.0
C1177 C 0.53316 0.69889 0.63551 0.0
C1178 C 0.52521 0.73068 0.63091 0.0
C1179 C 0.54941 0.75223 0.6248 0.0
C1180 C 0.58079 0.74253 0.62315 0.0
C1181 C 0.58781 0.71118 0.62775 0.0
C1182 C 0.56487 0.68962 0.63389 0.0
C1183 C 0.57924 0.65732 0.63796 0.0
C1184 C 0.57442 0.64672 0.66315 0.0
C1185 C 0.56582 0.63301 0.62086 0.0
C1186 C 0.61372 0.66424 0.633 0.0
C1187 C 0.61796 0.69549 0.6271 0.0
C1188 C 0.64739 0.70766 0.62135 0.0
C1189 C 0.67333 0.68736 0.6216 0.0
C1190 C 0.66977 0.65522 0.62767 0.0
C1191 C 0.63952 0.64357 0.63353 0.0
H1192 H 0.21198 0.34065 0.30402 0.0
H1193 H 0.15541 0.42563 0.30946 0.0
H1194 H 0.12486 0.4095 0.27562 0.0
H1195 H 0.21717 0.34858 0.24026 0.0
H1196 H 0.21803 0.30662 0.23543 0.0
H1197 H 0.23398 0.32283 0.26178 0.0
H1198 H 0.19732 0.28632 0.28555 0.0
H1199 H 0.18087 0.2704 0.25928 0.0
H1200 H 0.15535 0.28768 0.28072 0.0
H1201 H 0.09565 0.38076 0.24527 0.0
H1202 H 0.07882 0.35027 0.21158 0.0
H1203 H 0.16306 0.29253 0.2169 0.0
C1204 C 0.19345 0.35608 0.298 0.0
C1205 C 0.18489 0.38354 0.31055 0.0
C1206 C 0.16095 0.4033 0.30148 0.0
C1207 C 0.14366 0.39459 0.28195 0.0
C1208 C 0.15171 0.36688 0.27067 0.0
C1209 C 0.17693 0.34864 0.27756 0.0
C1210 C 0.18239 0.32194 0.2604 0.0
C1211 C 0.21482 0.32519 0.24878 0.0
C1212 C 0.17876 0.28967 0.2722 0.0
C1213 C 0.15577 0.32784 0.24326 0.0
C1214 C 0.13794 0.35335 0.25014 0.0
C1215 C 0.11026 0.36174 0.23892 0.0
C1216 C 0.10116 0.34446 0.21949 0.0
C1217 C 0.12048 0.32017 0.21043 0.0
C1218 C 0.14794 0.31132 0.22291 0.0
H1219 H 0.70522 0.10871 0.23014 0.0
H1220 H 0.66516 0.17043 0.17825 0.0
H1221 H 0.64016 0.20245 0.20906 0.0
H1222 H 0.63762 0.10823 0.26702 0.0
H1223 H 0.65984 0.10733 0.29359 0.0
H1224 H 0.67625 0.09057 0.26763 0.0
H1225 H 0.7255 0.12631 0.27174 0.0
H1226 H 0.70931 0.14309 0.29778 0.0
H1227 H 0.72054 0.16838 0.27411 0.0
H1228 H 0.61819 0.22641 0.24527 0.0
H1229 H 0.60013 0.24064 0.28461 0.0
H1230 H 0.6535 0.16279 0.31316 0.0
C1231 C 0.69152 0.12926 0.22543 0.0
C1232 C 0.68724 0.13761 0.20204 0.0
C1233 C 0.66875 0.1641 0.19621 0.0
C1234 C 0.65452 0.1823 0.21355 0.0
C1235 C 0.65889 0.1734 0.23655 0.0
C1236 C 0.67686 0.14748 0.24255 0.0
C1237 C 0.67659 0.14221 0.26849 0.0
C1238 C 0.66169 0.11019 0.27453 0.0
C1239 C 0.70997 0.14519 0.27862 0.0
C1240 C 0.65574 0.16925 0.27613 0.0
C1241 C 0.64588 0.187 0.25743 0.0
C1242 C 0.62599 0.21287 0.26006 0.0
C1243 C 0.61598 0.22086 0.28241 0.0
C1244 C 0.62595 0.20312 0.30179 0.0
C1245 C 0.64589 0.17688 0.29857 0.0
H1246 H 0.83222 0.60916 0.29726 0.0
H1247 H 0.76039 0.67831 0.31397 0.0
H1248 H 0.77221 0.70639 0.27758 0.0
H1249 H 0.88796 0.6687 0.27844 0.0
H1250 H 0.90545 0.6432 0.25707 0.0
H1251 H 0.88838 0.62665 0.28288 0.0
H1252 H 0.85259 0.59102 0.25761 0.0
H1253 H 0.86919 0.60783 0.23172 0.0
H1254 H 0.82717 0.60877 0.23628 0.0
H1255 H 0.79065 0.72486 0.23743 0.0
H1256 H 0.81919 0.73727 0.20141 0.0
H1257 H 0.88772 0.6646 0.21757 0.0
C1258 C 0.8193 0.63056 0.29376 0.0
C1259 C 0.79503 0.64114 0.30865 0.0
C1260 C 0.77833 0.6689 0.30264 0.0
C1261 C 0.78512 0.68527 0.28205 0.0
C1262 C 0.80947 0.67426 0.26801 0.0
C1263 C 0.82687 0.64804 0.27401 0.0
C1264 C 0.85379 0.64266 0.25728 0.0
C1265 C 0.88579 0.64548 0.26965 0.0
C1266 C 0.85047 0.61067 0.245 0.0
C1267 C 0.84857 0.6697 0.24065 0.0
C1268 C 0.82243 0.68719 0.24674 0.0
C1269 C 0.8117 0.71186 0.23291 0.0
C1270 C 0.82838 0.719 0.21254 0.0
C1271 C 0.85624 0.7024 0.20655 0.0
C1272 C 0.86635 0.67756 0.22109 0.0
H1273 H 0.37606 0.78323 0.2909 0.0
H1274 H 0.38267 0.86856 0.33188 0.0
H1275 H 0.35624 0.89841 0.30079 0.0
H1276 H 0.39147 0.819 0.23632 0.0
H1277 H 0.36403 0.7949 0.22036 0.0
H1278 H 0.38216 0.77981 0.24625 0.0
H1279 H 0.32699 0.76856 0.26363 0.0
H1280 H 0.30867 0.78368 0.23778 0.0
H1281 H 0.29859 0.80003 0.26558 0.0
H1282 H 0.33125 0.91945 0.26511 0.0
H1283 H 0.30994 0.93083 0.2262 0.0
H1284 H 0.31836 0.83217 0.20789 0.0
C1285 C 0.37159 0.80813 0.29333 0.0
C1286 C 0.3815 0.82372 0.31369 0.0
C1287 C 0.37564 0.85634 0.31626 0.0
C1288 C 0.36042 0.87341 0.2988 0.0
C1289 C 0.35109 0.85747 0.27887 0.0
C1290 C 0.35639 0.82558 0.27599 0.0
C1291 C 0.34489 0.81454 0.25247 0.0
C1292 C 0.37227 0.80129 0.238 0.0
C1293 C 0.3182 0.79026 0.25503 0.0
C1294 C 0.33274 0.8453 0.24249 0.0
C1295 C 0.3364 0.86968 0.25815 0.0
C1296 C 0.32806 0.90055 0.25276 0.0
C1297 C 0.31604 0.9068 0.23068 0.0
C1298 C 0.3125 0.88235 0.21426 0.0
C1299 C 0.32054 0.85114 0.22032 0.0
H1300 H 0.89162 0.7161 0.78257 0.0
H1301 H 0.82095 0.69031 0.83315 0.0
H1302 H 0.78787 0.66726 0.80209 0.0
H1303 H 0.83605 0.73469 0.73447 0.0
H1304 H 0.86195 0.71824 0.71291 0.0
H1305 H 0.87814 0.73578 0.73872 0.0
H1306 H 0.90817 0.68398 0.74743 0.0
H1307 H 0.89185 0.66617 0.72183 0.0
H1308 H 0.88649 0.64753 0.74956 0.0
H1309 H 0.76589 0.6415 0.76646 0.0
H1310 H 0.75511 0.61711 0.72841 0.0
H1311 H 0.83872 0.66158 0.70027 0.0
C1312 C 0.86872 0.70642 0.78686 0.0
C1313 C 0.85831 0.70538 0.81002 0.0
C1314 C 0.82881 0.69173 0.81535 0.0
C1315 C 0.81001 0.67855 0.79786 0.0
C1316 C 0.82111 0.67936 0.77515 0.0
C1317 C 0.84963 0.69325 0.76955 0.0
C1318 C 0.85695 0.68927 0.74403 0.0
C1319 C 0.85834 0.72141 0.73181 0.0
C1320 C 0.88768 0.67063 0.74052 0.0
C1321 C 0.82849 0.67038 0.73627 0.0
C1322 C 0.80808 0.66498 0.75448 0.0
C1323 C 0.78131 0.6462 0.75195 0.0
C1324 C 0.77528 0.63257 0.73028 0.0
C1325 C 0.79574 0.63797 0.71135 0.0
C1326 C 0.82251 0.65736 0.71441 0.0
H1327 H 0.35006 0.77985 0.71854 0.0
H1328 H 0.43235 0.84054 0.71371 0.0
H1329 H 0.41402 0.87077 0.74703 0.0
H1330 H 0.29383 0.83318 0.74047 0.0
H1331 H 0.27748 0.80787 0.76247 0.0
H1332 H 0.295 0.79098 0.73692 0.0
H1333 H 0.33303 0.75796 0.76215 0.0
H1334 H 0.31515 0.77422 0.78779 0.0
H1335 H 0.35712 0.77742 0.78352 0.0
H1336 H 0.38138 0.90085 0.77435 0.0
H1337 H 0.34881 0.91814 0.80669 0.0
H1338 H 0.29779 0.8293 0.80496 0.0
C1339 C 0.36448 0.79913 0.72472 0.0
C1340 C 0.39154 0.80928 0.71227 0.0
C1341 C 0.41022 0.83389 0.7216 0.0
C1342 C 0.40024 0.85106 0.74077 0.0
C1343 C 0.37255 0.84199 0.75163 0.0
C1344 C 0.3559 0.81552 0.74503 0.0
C1345 C 0.32905 0.80939 0.76202 0.0
C1346 C 0.29694 0.81041 0.74972 0.0
C1347 C 0.33388 0.77787 0.77463 0.0
C1348 C 0.33291 0.83723 0.77849 0.0
C1349 C 0.3575 0.85614 0.77134 0.0
C1350 C 0.36341 0.88533 0.78121 0.0
C1351 C 0.34497 0.89473 0.79991 0.0
C1352 C 0.32235 0.8742 0.80988 0.0
C1353 C 0.31552 0.84531 0.79844 0.0
H1354 H 0.16372 0.32513 0.81754 0.0
H1355 H 0.09318 0.2634 0.78779 0.0
H1356 H 0.10843 0.28102 0.74848 0.0
H1357 H 0.15312 0.38892 0.7788 0.0
H1358 H 0.1943 0.39918 0.77709 0.0
H1359 H 0.17906 0.38047 0.80271 0.0
H1360 H 0.22047 0.33595 0.79873 0.0
H1361 H 0.23598 0.35463 0.77314 0.0
H1362 H 0.22307 0.31418 0.77201 0.0
H1363 H 0.12872 0.3083 0.71276 0.0
H1364 H 0.15529 0.34071 0.68283 0.0
H1365 H 0.21391 0.38342 0.73558 0.0
C1366 C 0.15188 0.3151 0.80266 0.0
C1367 C 0.12746 0.29283 0.80548 0.0
C1368 C 0.11218 0.28026 0.7858 0.0
C1369 C 0.1206 0.29022 0.76349 0.0
C1370 C 0.14451 0.31258 0.76123 0.0
C1371 C 0.16019 0.32462 0.78025 0.0
C1372 C 0.18469 0.34875 0.77307 0.0
C1373 C 0.17734 0.38125 0.78354 0.0
C1374 C 0.21803 0.3377 0.77963 0.0
C1375 C 0.18005 0.34873 0.74708 0.0
C1376 C 0.15667 0.32777 0.7406 0.0
C1377 C 0.1473 0.3245 0.7176 0.0
C1378 C 0.16238 0.34298 0.70076 0.0
C1379 C 0.18663 0.36417 0.70703 0.0
C1380 C 0.19559 0.36706 0.73044 0.0
H1381 H 0.66865 0.21758 0.71537 0.0
H1382 H 0.58375 0.16119 0.70807 0.0
H1383 H 0.59848 0.13026 0.74208 0.0
H1384 H 0.72045 0.15891 0.73726 0.0
H1385 H 0.73866 0.18296 0.75922 0.0
H1386 H 0.72284 0.20102 0.73351 0.0
H1387 H 0.68758 0.23735 0.75846 0.0
H1388 H 0.70371 0.21979 0.78426 0.0
H1389 H 0.66167 0.22016 0.77972 0.0
H1390 H 0.62553 0.10039 0.77221 0.0
H1391 H 0.65537 0.08154 0.80561 0.0
H1392 H 0.71694 0.16319 0.80124 0.0
C1393 C 0.65307 0.19896 0.72115 0.0
C1394 C 0.62592 0.1906 0.70818 0.0
C1395 C 0.60568 0.16671 0.71671 0.0
C1396 C 0.61365 0.14916 0.73622 0.0
C1397 C 0.64127 0.15668 0.74784 0.0
C1398 C 0.66007 0.18178 0.7414 0.0
C1399 C 0.68715 0.18576 0.75851 0.0
C1400 C 0.71917 0.18194 0.74639 0.0
C1401 C 0.68488 0.21766 0.77098 0.0
C1402 C 0.68078 0.15848 0.77503 0.0
C1403 C 0.65457 0.14177 0.76796 0.0
C1404 C 0.64521 0.11403 0.77867 0.0
C1405 C 0.66219 0.10371 0.79787 0.0
C1406 C 0.68737 0.12175 0.80706 0.0
C1407 C 0.69736 0.14918 0.79504 0.0
H1408 H 0.01917 0.56801 0.14055 0.0
H1409 H 0.92407 0.57068 0.1131 0.0
H1410 H 0.92819 0.51464 0.10226 0.0
H1411 H 0.05209 0.51065 0.0982 0.0
H1412 H 0.07554 0.49123 0.11995 0.0
H1413 H 0.06699 0.5327 0.12253 0.0
H1414 H 0.04329 0.52329 0.16327 0.0
H1415 H 0.05193 0.48195 0.16086 0.0
H1416 H 0.01221 0.49467 0.16679 0.0
H1417 H 0.93968 0.45749 0.09905 0.0
H1418 H 0.95746 0.40254 0.10462 0.0
H1419 H 0.04537 0.43615 0.13364 0.0
C1420 C 0.99952 0.55689 0.13178 0.0
C1421 C 0.97171 0.57392 0.1269 0.0
C1422 C 0.94609 0.55845 0.11606 0.0
C1423 C 0.94815 0.52657 0.10997 0.0
C1424 C 0.97597 0.51047 0.11489 0.0
C1425 C 1.00123 0.52506 0.12555 0.0
C1426 C 0.02728 0.50171 0.13084 0.0
C1427 C 0.05725 0.50955 0.11705 0.0
C1428 C 0.03405 0.50033 0.15699 0.0
C1429 C 0.01223 0.4715 0.12226 0.0
C1430 C 0.98277 0.47719 0.11285 0.0
C1431 C 0.96299 0.45278 0.10582 0.0
C1432 C 0.97323 0.42172 0.109 0.0
C1433 C 0.00303 0.41544 0.11889 0.0
C1434 C 0.02303 0.44057 0.12517 0.0
H1435 H 0.43158 0.96347 0.12964 0.0
H1436 H 0.3999 0.06043 0.12595 0.0
H1437 H 0.4548 0.07797 0.11957 0.0
H1438 H 0.49947 0.97776 0.16089 0.0
H1439 H 0.52353 0.94884 0.14643 0.0
H1440 H 0.48151 0.94358 0.14783 0.0
H1441 H 0.4789 0.9394 0.10314 0.0
H1442 H 0.52105 0.94447 0.1016 0.0
H1443 H 0.49543 0.97045 0.08564 0.0
H1444 H 0.51328 0.08527 0.11789 0.0
H1445 H 0.57103 0.0819 0.1212 0.0
H1446 H 0.56464 0.97992 0.12421 0.0
C1447 C 0.43607 0.98824 0.12657 0.0
C1448 C 0.4115 0.01056 0.12761 0.0
C1449 C 0.41845 0.04297 0.12485 0.0
C1450 C 0.44949 0.05312 0.12114 0.0
C1451 C 0.47325 0.03052 0.12025 0.0
C1452 C 0.4669 0.99873 0.12279 0.0
C1453 C 0.49693 0.97951 0.12298 0.0
C1454 C 0.50056 0.96137 0.1459 0.0
C1455 C 0.49815 0.95714 0.10209 0.0
C1456 C 0.52117 0.00553 0.12084 0.0
C1457 C 0.50705 0.03474 0.11903 0.0
C1458 C 0.52465 0.06248 0.11861 0.0
C1459 C 0.55757 0.0603 0.12023 0.0
C1460 C 0.5725 0.03058 0.12211 0.0
C1461 C 0.55393 0.00294 0.12228 0.0
H1462 H 0.54809 0.06513 0.40298 0.0
H1463 H 0.48393 0.08443 0.34615 0.0
H1464 H 0.47297 0.02795 0.34225 0.0
H1465 H 0.5793 0.99034 0.37863 0.0
H1466 H 0.58176 0.97157 0.40655 0.0
H1467 H 0.58645 0.01367 0.40417 0.0
H1468 H 0.54154 0.02154 0.43394 0.0
H1469 H 0.53641 0.97951 0.43617 0.0
H1470 H 0.50344 0.00417 0.42851 0.0
H1471 H 0.46553 0.97083 0.34573 0.0
H1472 H 0.46528 0.91409 0.35471 0.0
H1473 H 0.53486 0.92933 0.40854 0.0
C1474 C 0.53245 0.05738 0.38934 0.0
C1475 C 0.51696 0.07933 0.37483 0.0
C1476 C 0.49596 0.06817 0.35758 0.0
C1477 C 0.48958 0.03607 0.35515 0.0
C1478 C 0.50447 0.01515 0.37002 0.0
C1479 C 0.52579 0.02508 0.3866 0.0
C1480 C 0.53774 0.99722 0.40061 0.0
C1481 C 0.57344 0.99294 0.39728 0.0
C1482 C 0.52927 1.00084 0.42633 0.0
C1483 C 0.51936 0.97041 0.3895 0.0
C1484 C 0.50029 0.98151 0.37194 0.0
C1485 C 0.48037 0.96176 0.35942 0.0
C1486 C 0.48007 0.92965 0.36483 0.0
C1487 C 0.49944 0.91759 0.38264 0.0
C1488 C 0.51959 0.93816 0.39499 0.0
H1489 H 0.94611 0.52713 0.34989 0.0
H1490 H 0.91746 0.52066 0.42173 0.0
H1491 H 0.97269 0.51003 0.43309 0.0
H1492 H 0.00247 0.46486 0.35149 0.0
H1493 H 0.02966 0.48421 0.33218 0.0
H1494 H 0.98807 0.49209 0.33001 0.0
H1495 H 0.9987 0.5519 0.33504 0.0
H1496 H 0.04034 0.54422 0.33709 0.0
H1497 H 0.02059 0.56549 0.35985 0.0
H1498 H 0.0315 0.49883 0.43617 0.0
H1499 H 0.08878 0.4901 0.43074 0.0
H1500 H 0.0775 0.50361 0.35682 0.0
C1501 C 0.95152 0.52364 0.36803 0.0
C1502 C 0.92777 0.52533 0.385 0.0
C1503 C 0.93556 0.5204 0.40854 0.0
C1504 C 0.96677 0.51404 0.41512 0.0
C1505 C 0.98972 0.51262 0.3979 0.0
C1506 C 0.98242 0.51743 0.37485 0.0
C1507 C 0.01119 0.51463 0.35963 0.0
C1508 C 0.00762 0.48732 0.34231 0.0
C1509 C 0.01811 0.54592 0.34718 0.0
C1510 C 0.03588 0.50743 0.37768 0.0
C1511 C 0.02316 0.50619 0.39966 0.0
C1512 C 0.04169 0.49966 0.41902 0.0
C1513 C 0.07411 0.49446 0.41577 0.0
C1514 C 0.08742 0.49588 0.39335 0.0
C1515 C 0.06796 0.50248 0.37418 0.0
H1516 H 0.98556 0.56033 0.84586 0.0
H1517 H 0.98729 0.58573 0.9185 0.0
H1518 H 0.0019 0.53094 0.9286 0.0
H1519 H 0.95267 0.48323 0.85293 0.0
H1520 H 0.97606 0.46635 0.83004 0.0
H1521 H 0.96555 0.50741 0.82908 0.0
H1522 H 0.02469 0.52229 0.82558 0.0
H1523 H 0.03541 0.48127 0.8268 0.0
H1524 H 0.0521 0.5087 0.84723 0.0
H1525 H 0.01698 0.47263 0.93028 0.0
H1526 H 0.02768 0.41595 0.92348 0.0
H1527 H 0.01671 0.43062 0.84967 0.0
C1528 C 0.98888 0.55433 0.86391 0.0
C1529 C 0.98472 0.57701 0.88143 0.0
C1530 C 0.98943 0.56841 0.90485 0.0
C1531 C 0.99812 0.53748 0.91072 0.0
C1532 C 0.00212 0.51565 0.89292 0.0
C1533 C 0.99744 0.52375 0.87001 0.0
C1534 C 0.00278 0.49613 0.85406 0.0
C1535 C 0.97246 0.48779 0.84075 0.0
C1536 C 0.03039 0.50249 0.83744 0.0
C1537 C 0.01106 0.47106 0.87153 0.0
C1538 C 0.01085 0.48265 0.89387 0.0
C1539 C 0.01741 0.46337 0.91284 0.0
C1540 C 0.02377 0.43132 0.90882 0.0
C1541 C 0.02339 0.4191 0.88604 0.0
C1542 C 0.01725 0.43938 0.86727 0.0
H1543 H 0.56355 0.01866 0.85693 0.0
H1544 H 0.58463 0.02033 0.93031 0.0
H1545 H 0.52779 0.01355 0.93908 0.0
H1546 H 0.48937 0.06128 0.86031 0.0
H1547 H 0.47143 0.03805 0.83775 0.0
H1548 H 0.5134 0.04453 0.83773 0.0
H1549 H 0.52263 0.98415 0.83671 0.0
H1550 H 0.48073 0.97747 0.8369 0.0
H1551 H 0.50521 0.95968 0.85878 0.0
H1552 H 0.46845 0.00297 0.93928 0.0
H1553 H 0.41199 0.9928 0.93095 0.0
H1554 H 0.43114 0.99916 0.85743 0.0
C1555 C 0.55617 0.01787 0.87487 0.0
C1556 C 0.5783 0.02028 0.89297 0.0
C1557 C 0.56787 0.01914 0.91621 0.0
C1558 C 0.53571 0.01507 0.92132 0.0
C1559 C 0.51448 0.01246 0.90296 0.0
C1560 C 0.52434 0.01416 0.88021 0.0
C1561 C 0.49718 0.01035 0.86354 0.0
C1562 C 0.49257 0.04034 0.84898 0.0
C1563 C 0.50172 0.98118 0.84808 0.0
C1564 C 0.47042 0.00573 0.88041 0.0
C1565 C 0.48073 0.00691 0.90309 0.0
C1566 C 0.46014 0.00216 0.92159 0.0
C1567 C 0.42823 0.99615 0.91672 0.0
C1568 C 0.4174 0.995 0.89357 0.0
C1569 C 0.43879 1.00011 0.8753 0.0
H1570 H 0.49956 0.93684 0.66013 0.0
H1571 H 0.49176 0.91604 0.58692 0.0
H1572 H 0.50232 0.97219 0.5778 0.0
H1573 H 0.46168 0.01201 0.6583 0.0
H1574 H 0.48712 0.02888 0.68001 0.0
H1575 H 0.47903 0.98724 0.68021 0.0
H1576 H 0.53906 0.97571 0.67892 0.0
H1577 H 0.54733 0.01733 0.67851 0.0
H1578 H 0.56263 0.99228 0.65598 0.0
H1579 H 0.51476 0.03122 0.57724 0.0
H1580 H 0.52428 0.08784 0.58543 0.0
H1581 H 0.52351 0.06794 0.659 0.0
C1582 C 0.50005 0.94411 0.64216 0.0
C1583 C 0.49456 0.9224 0.62422 0.0
C1584 C 0.49528 0.93262 0.60092 0.0
C1585 C 0.50155 0.96432 0.5956 0.0
C1586 C 0.50699 0.9852 0.61381 0.0
C1587 C 0.50604 0.97544 0.63662 0.0
C1588 C 0.51201 0.00226 0.65315 0.0
C1589 C 0.48325 0.00793 0.66883 0.0
C1590 C 0.54205 0.99654 0.66747 0.0
C1591 C 0.51649 0.02879 0.63613 0.0
C1592 C 0.51381 0.01864 0.6135 0.0
C1593 C 0.51701 0.03937 0.5949 0.0
C1594 C 0.52267 0.07136 0.59968 0.0
C1595 C 0.52485 0.08201 0.62282 0.0
C1596 C 0.5219 0.06036 0.64114 0.0
H1597 H 0.94038 0.48223 0.63966 0.0
H1598 H 0.93677 0.58428 0.63699 0.0
H1599 H 0.99421 0.58609 0.6305 0.0
H1600 H 0.01023 0.47836 0.67226 0.0
H1601 H 0.02542 0.44365 0.65818 0.0
H1602 H 0.98355 0.45013 0.65956 0.0
H1603 H 0.98007 0.44561 0.61492 0.0
H1604 H 0.02204 0.43928 0.61341 0.0
H1605 H 0.00422 0.4708 0.59711 0.0
H1606 H 0.05197 0.57733 0.62765 0.0
H1607 H 0.10692 0.55882 0.63046 0.0
H1608 H 0.07392 0.46238 0.63626 0.0
C1609 C 0.95167 0.50489 0.63725 0.0
C1610 C 0.93397 0.53308 0.63779 0.0
C1611 C 0.94962 0.56236 0.63539 0.0
C1612 C 0.98228 0.56361 0.63192 0.0
C1613 C 0.99901 0.53539 0.63116 0.0
C1614 C 0.98432 0.50655 0.63388 0.0
C1615 C 0.00815 0.47993 0.63435 0.0
C1616 C 0.00675 0.46198 0.65746 0.0
C1617 C 0.00333 0.45759 0.61371 0.0
C1618 C 0.03858 0.49838 0.63199 0.0
C1619 C 0.03267 0.5303 0.62991 0.0
C1620 C 0.0569 0.55238 0.62895 0.0
C1621 C 0.08801 0.54165 0.6306 0.0
C1622 C 0.09467 0.50914 0.63314 0.0
C1623 C 0.06961 0.48721 0.6335 0.0
loop_
_geom_bond_atom_site_label_1
_geom_bond_atom_site_label_2
_geom_bond_distance
_geom_bond_site_symmetry_2
_ccdc_geom_bond_type
Co0 O3 1.970 . S
Co0 N17 1.989 . S
Co0 O25 1.967 . S
Co0 O32 1.920 . S
Co1 O4 1.966 . S
Co1 N10 2.022 . S
Co1 N18 1.993 . S
Co1 O26 1.941 . S
C2 O3 1.258 . S
C2 O4 1.263 . S
O3 Co0 1.970 . S
O3 C2 1.258 . S
O4 Co1 1.966 . S
O4 C2 1.263 . S
C5 O6 1.235 . S
C5 O32 1.289 . S
O6 C5 1.235 . S
C7 C9 1.400 . S
C7 N10 1.351 . S
C7 C12 1.501 . S
C8 C9 1.387 . S
C8 N11 1.341 . S
C9 C7 1.400 . S
C9 C8 1.387 . S
N10 Co1 2.022 . S
N10 C7 1.351 . S
N10 N11 1.365 . S
N11 C8 1.341 . S
N11 N10 1.365 . S
N11 H31 0.862 . S
C12 C7 1.501 . S
C12 H13 0.961 . S
C12 H14 0.961 . S
C12 H15 0.960 . S
H13 C12 0.961 . S
H14 C12 0.961 . S
H15 C12 0.960 . S
C16 N17 1.342 . S
C16 C20 1.401 . S
C16 C21 1.499 . S
N17 Co0 1.989 . S
N17 C16 1.342 . S
N17 N18 1.388 . S
N18 Co1 1.993 . S
N18 N17 1.388 . S
N18 C19 1.346 . S
C19 N18 1.346 . S
C19 C20 1.396 . S
C19 C29 1.510 . S
C20 C16 1.401 . S
C20 C19 1.396 . S
C21 C16 1.499 . S
C21 H22 0.959 . S
C21 H23 0.960 . S
C21 H24 0.961 . S
H22 C21 0.959 . S
H23 C21 0.960 . S
H24 C21 0.961 . S
O25 Co0 1.967 . S
O25 C33 1.258 . S
O26 Co1 1.941 . S
O26 C33 1.266 . S
H27 C29 0.959 . S
H28 C29 0.961 . S
C29 C19 1.510 . S
C29 H27 0.959 . S
C29 H28 0.961 . S
C29 H30 0.960 . S
H30 C29 0.960 . S
H31 N11 0.862 . S
O32 Co0 1.920 . S
O32 C5 1.289 . S
C33 O25 1.258 . S
C33 O26 1.266 . S
Co34 O37 1.970 . S
Co34 N51 1.989 . S
Co34 O59 1.967 . S
Co34 O66 1.920 . S
Co35 O38 1.966 . S
Co35 N44 2.022 . S
Co35 N52 1.993 . S
Co35 O60 1.941 . S
C36 O37 1.258 . S
C36 O38 1.263 . S
O37 Co34 1.970 . S
O37 C36 1.258 . S
O38 Co35 1.966 . S
O38 C36 1.263 . S
C39 O40 1.235 . S
C39 O66 1.289 . S
O40 C39 1.235 . S
C41 C43 1.400 . S
C41 N44 1.351 . S
C41 C46 1.501 . S
C42 C43 1.387 . S
C42 N45 1.341 . S
C43 C41 1.400 . S
C43 C42 1.387 . S
N44 Co35 2.022 . S
N44 C41 1.351 . S
N44 N45 1.365 . S
N45 C42 1.341 . S
N45 N44 1.365 . S
N45 H65 0.862 . S
C46 C41 1.501 . S
C46 H47 0.961 . S
C46 H48 0.961 . S
C46 H49 0.960 . S
H47 C46 0.961 . S
H48 C46 0.961 . S
H49 C46 0.960 . S
C50 N51 1.342 . S
C50 C54 1.401 . S
C50 C55 1.499 . S
N51 Co34 1.989 . S
N51 C50 1.342 . S
N51 N52 1.388 . S
N52 Co35 1.993 . S
N52 N51 1.388 . S
N52 C53 1.346 . S
C53 N52 1.346 . S
C53 C54 1.396 . S
C53 C63 1.510 . S
C54 C50 1.401 . S
C54 C53 1.396 . S
C55 C50 1.499 . S
C55 H56 0.959 . S
C55 H57 0.960 . S
C55 H58 0.961 . S
H56 C55 0.959 . S
H57 C55 0.960 . S
H58 C55 0.961 . S
O59 Co34 1.967 . S
O59 C67 1.258 . S
O60 Co35 1.941 . S
O60 C67 1.266 . S
H61 C63 0.959 . S
H62 C63 0.961 . S
C63 C53 1.510 . S
C63 H61 0.959 . S
C63 H62 0.961 . S
C63 H64 0.960 . S
H64 C63 0.960 . S
H65 N45 0.862 . S
O66 Co34 1.920 . S
O66 C39 1.289 . S
C67 O59 1.258 . S
C67 O60 1.266 . S
Co68 O71 1.970 . S
Co68 N85 1.989 . S
Co68 O93 1.967 . S
Co68 O100 1.920 . S
Co69 O72 1.966 . S
Co69 N78 2.022 . S
Co69 N86 1.993 . S
Co69 O94 1.941 . S
C70 O71 1.258 . S
C70 O72 1.263 . S
O71 Co68 1.970 . S
O71 C70 1.258 . S
O72 Co69 1.966 . S
O72 C70 1.263 . S
C73 O74 1.235 . S
C73 O100 1.289 . S
O74 C73 1.235 . S
C75 C77 1.400 . S
C75 N78 1.351 . S
C75 C80 1.501 . S
C76 C77 1.387 . S
C76 N79 1.341 . S
C77 C75 1.400 . S
C77 C76 1.387 . S
N78 Co69 2.022 . S
N78 C75 1.351 . S
N78 N79 1.365 . S
N79 C76 1.341 . S
N79 N78 1.365 . S
N79 H99 0.862 . S
C80 C75 1.501 . S
C80 H81 0.961 . S
C80 H82 0.961 . S
C80 H83 0.960 . S
H81 C80 0.961 . S
H82 C80 0.961 . S
H83 C80 0.960 . S
C84 N85 1.342 . S
C84 C88 1.401 . S
C84 C89 1.499 . S
N85 Co68 1.989 . S
N85 C84 1.342 . S
N85 N86 1.388 . S
N86 Co69 1.993 . S
N86 N85 1.388 . S
N86 C87 1.346 . S
C87 N86 1.346 . S
C87 C88 1.396 . S
C87 C97 1.510 . S
C88 C84 1.401 . S
C88 C87 1.396 . S
C89 C84 1.499 . S
C89 H90 0.959 . S
C89 H91 0.960 . S
C89 H92 0.961 . S
H90 C89 0.959 . S
H91 C89 0.960 . S
H92 C89 0.961 . S
O93 Co68 1.967 . S
O93 C101 1.258 . S
O94 Co69 1.941 . S
O94 C101 1.266 . S
H95 C97 0.959 . S
H96 C97 0.961 . S
C97 C87 1.510 . S
C97 H95 0.959 . S
C97 H96 0.961 . S
C97 H98 0.960 . S
H98 C97 0.960 . S
H99 N79 0.862 . S
O100 Co68 1.920 . S
O100 C73 1.289 . S
C101 O93 1.258 . S
C101 O94 1.266 . S
Co102 O105 1.970 . S
Co102 N119 1.989 . S
Co102 O127 1.967 . S
Co102 O134 1.920 . S
Co103 O106 1.966 . S
Co103 N112 2.022 . S
Co103 N120 1.993 . S
Co103 O128 1.941 . S
C104 O105 1.258 . S
C104 O106 1.263 . S
O105 Co102 1.970 . S
O105 C104 1.258 . S
O106 Co103 1.966 . S
O106 C104 1.263 . S
C107 O108 1.235 . S
C107 O134 1.289 . S
O108 C107 1.235 . S
C109 C111 1.400 . S
C109 N112 1.351 . S
C109 C114 1.501 . S
C110 C111 1.387 . S
C110 N113 1.341 . S
C111 C109 1.400 . S
C111 C110 1.387 . S
N112 Co103 2.022 . S
N112 C109 1.351 . S
N112 N113 1.365 . S
N113 C110 1.341 . S
N113 N112 1.365 . S
N113 H133 0.862 . S
C114 C109 1.501 . S
C114 H115 0.961 . S
C114 H116 0.961 . S
C114 H117 0.960 . S
H115 C114 0.961 . S
H116 C114 0.961 . S
H117 C114 0.960 . S
C118 N119 1.342 . S
C118 C122 1.401 . S
C118 C123 1.499 . S
N119 Co102 1.989 . S
N119 C118 1.342 . S
N119 N120 1.388 . S
N120 Co103 1.993 . S
N120 N119 1.388 . S
N120 C121 1.346 . S
C121 N120 1.346 . S
C121 C122 1.396 . S
C121 C131 1.510 . S
C122 C118 1.401 . S
C122 C121 1.396 . S
C123 C118 1.499 . S
C123 H124 0.959 . S
C123 H125 0.960 . S
C123 H126 0.961 . S
H124 C123 0.959 . S
H125 C123 0.960 . S
H126 C123 0.961 . S
O127 Co102 1.967 . S
O127 C135 1.258 . S
O128 Co103 1.941 . S
O128 C135 1.266 . S
H129 C131 0.959 . S
H130 C131 0.961 . S
C131 C121 1.510 . S
C131 H129 0.959 . S
C131 H130 0.961 . S
C131 H132 0.960 . S
H132 C131 0.960 . S
H133 N113 0.862 . S
O134 Co102 1.920 . S
O134 C107 1.289 . S
C135 O127 1.258 . S
C135 O128 1.266 . S
Co136 O139 1.970 . S
Co136 N153 1.989 . S
Co136 O161 1.967 . S
Co136 O168 1.920 . S
Co137 O140 1.966 . S
Co137 N146 2.022 . S
Co137 N154 1.993 . S
Co137 O162 1.941 . S
C138 O139 1.258 . S
C138 O140 1.263 . S
O139 Co136 1.970 . S
O139 C138 1.258 . S
O140 Co137 1.966 . S
O140 C138 1.263 . S
C141 O142 1.235 . S
C141 O168 1.289 . S
O142 C141 1.235 . S
C143 C145 1.400 . S
C143 N146 1.351 . S
C143 C148 1.501 . S
C144 C145 1.387 . S
C144 N147 1.341 . S
C145 C143 1.400 . S
C145 C144 1.387 . S
N146 Co137 2.022 . S
N146 C143 1.351 . S
N146 N147 1.365 . S
N147 C144 1.341 . S
N147 N146 1.365 . S
N147 H167 0.862 . S
C148 C143 1.501 . S
C148 H149 0.961 . S
C148 H150 0.961 . S
C148 H151 0.960 . S
H149 C148 0.961 . S
H150 C148 0.961 . S
H151 C148 0.960 . S
C152 N153 1.342 . S
C152 C156 1.401 . S
C152 C157 1.499 . S
N153 Co136 1.989 . S
N153 C152 1.342 . S
N153 N154 1.388 . S
N154 Co137 1.993 . S
N154 N153 1.388 . S
N154 C155 1.346 . S
C155 N154 1.346 . S
C155 C156 1.396 . S
C155 C165 1.510 . S
C156 C152 1.401 . S
C156 C155 1.396 . S
C157 C152 1.499 . S
C157 H158 0.959 . S
C157 H159 0.960 . S
C157 H160 0.961 . S
H158 C157 0.959 . S
H159 C157 0.960 . S
H160 C157 0.961 . S
O161 Co136 1.967 . S
O161 C169 1.258 . S
O162 Co137 1.941 . S
O162 C169 1.266 . S
H163 C165 0.959 . S
H164 C165 0.961 . S
C165 C155 1.510 . S
C165 H163 0.959 . S
C165 H164 0.961 . S
C165 H166 0.960 . S
H166 C165 0.960 . S
H167 N147 0.862 . S
O168 Co136 1.920 . S
O168 C141 1.289 . S
C169 O161 1.258 . S
C169 O162 1.266 . S
Co170 O173 1.970 . S
Co170 N187 1.989 . S
Co170 O195 1.967 . S
Co170 O202 1.920 . S
Co171 O174 1.966 . S
Co171 N180 2.022 . S
Co171 N188 1.993 . S
Co171 O196 1.941 . S
C172 O173 1.258 . S
C172 O174 1.263 . S
O173 Co170 1.970 . S
O173 C172 1.258 . S
O174 Co171 1.966 . S
O174 C172 1.263 . S
C175 O176 1.235 . S
C175 O202 1.289 . S
O176 C175 1.235 . S
C177 C179 1.400 . S
C177 N180 1.351 . S
C177 C182 1.501 . S
C178 C179 1.387 . S
C178 N181 1.341 . S
C179 C177 1.400 . S
C179 C178 1.387 . S
N180 Co171 2.022 . S
N180 C177 1.351 . S
N180 N181 1.365 . S
N181 C178 1.341 . S
N181 N180 1.365 . S
N181 H201 0.862 . S
C182 C177 1.501 . S
C182 H183 0.961 . S
C182 H184 0.961 . S
C182 H185 0.960 . S
H183 C182 0.961 . S
H184 C182 0.961 . S
H185 C182 0.960 . S
C186 N187 1.342 . S
C186 C190 1.401 . S
C186 C191 1.499 . S
N187 Co170 1.989 . S
N187 C186 1.342 . S
N187 N188 1.388 . S
N188 Co171 1.993 . S
N188 N187 1.388 . S
N188 C189 1.346 . S
C189 N188 1.346 . S
C189 C190 1.396 . S
C189 C199 1.510 . S
C190 C186 1.401 . S
C190 C189 1.396 . S
C191 C186 1.499 . S
C191 H192 0.959 . S
C191 H193 0.960 . S
C191 H194 0.961 . S
H192 C191 0.959 . S
H193 C191 0.960 . S
H194 C191 0.961 . S
O195 Co170 1.967 . S
O195 C203 1.258 . S
O196 Co171 1.941 . S
O196 C203 1.266 . S
H197 C199 0.959 . S
H198 C199 0.961 . S
C199 C189 1.510 . S
C199 H197 0.959 . S
C199 H198 0.961 . S
C199 H200 0.960 . S
H200 C199 0.960 . S
H201 N181 0.862 . S
O202 Co170 1.920 . S
O202 C175 1.289 . S
C203 O195 1.258 . S
C203 O196 1.266 . S
Co204 O207 1.970 . S
Co204 N221 1.989 . S
Co204 O229 1.967 . S
Co204 O236 1.920 . S
Co205 O208 1.966 . S
Co205 N214 2.022 . S
Co205 N222 1.993 . S
Co205 O230 1.941 . S
C206 O207 1.258 . S
C206 O208 1.263 . S
O207 Co204 1.970 . S
O207 C206 1.258 . S
O208 Co205 1.966 . S
O208 C206 1.263 . S
C209 O210 1.235 . S
C209 O236 1.289 . S
O210 C209 1.235 . S
C211 C213 1.400 . S
C211 N214 1.351 . S
C211 C216 1.501 . S
C212 C213 1.387 . S
C212 N215 1.341 . S
C213 C211 1.400 . S
C213 C212 1.387 . S
N214 Co205 2.022 . S
N214 C211 1.351 . S
N214 N215 1.365 . S
N215 C212 1.341 . S
N215 N214 1.365 . S
N215 H235 0.862 . S
C216 C211 1.501 . S
C216 H217 0.961 . S
C216 H218 0.961 . S
C216 H219 0.960 . S
H217 C216 0.961 . S
H218 C216 0.961 . S
H219 C216 0.960 . S
C220 N221 1.342 . S
C220 C224 1.401 . S
C220 C225 1.499 . S
N221 Co204 1.989 . S
N221 C220 1.342 . S
N221 N222 1.388 . S
N222 Co205 1.993 . S
N222 N221 1.388 . S
N222 C223 1.346 . S
C223 N222 1.346 . S
C223 C224 1.396 . S
C223 C233 1.510 . S
C224 C220 1.401 . S
C224 C223 1.396 . S
C225 C220 1.499 . S
C225 H226 0.959 . S
C225 H227 0.960 . S
C225 H228 0.961 . S
H226 C225 0.959 . S
H227 C225 0.960 . S
H228 C225 0.961 . S
O229 Co204 1.967 . S
O229 C237 1.258 . S
O230 Co205 1.941 . S
O230 C237 1.266 . S
H231 C233 0.959 . S
H232 C233 0.961 . S
C233 C223 1.510 . S
C233 H231 0.959 . S
C233 H232 0.961 . S
C233 H234 0.960 . S
H234 C233 0.960 . S
H235 N215 0.862 . S
O236 Co204 1.920 . S
O236 C209 1.289 . S
C237 O229 1.258 . S
C237 O230 1.266 . S
Co238 O241 1.970 . S
Co238 N255 1.989 . S
Co238 O263 1.967 . S
Co238 O270 1.920 . S
Co239 O242 1.966 . S
Co239 N248 2.022 . S
Co239 N256 1.993 . S
Co239 O264 1.941 . S
C240 O241 1.258 . S
C240 O242 1.263 . S
O241 Co238 1.970 . S
O241 C240 1.258 . S
O242 Co239 1.966 . S
O242 C240 1.263 . S
C243 O244 1.235 . S
C243 O270 1.289 . S
O244 C243 1.235 . S
C245 C247 1.400 . S
C245 N248 1.351 . S
C245 C250 1.501 . S
C246 C247 1.387 . S
C246 N249 1.341 . S
C247 C245 1.400 . S
C247 C246 1.387 . S
N248 Co239 2.022 . S
N248 C245 1.351 . S
N248 N249 1.365 . S
N249 C246 1.341 . S
N249 N248 1.365 . S
N249 H269 0.862 . S
C250 C245 1.501 . S
C250 H251 0.961 . S
C250 H252 0.961 . S
C250 H253 0.960 . S
H251 C250 0.961 . S
H252 C250 0.961 . S
H253 C250 0.960 . S
C254 N255 1.342 . S
C254 C258 1.401 . S
C254 C259 1.499 . S
N255 Co238 1.989 . S
N255 C254 1.342 . S
N255 N256 1.388 . S
N256 Co239 1.993 . S
N256 N255 1.388 . S
N256 C257 1.346 . S
C257 N256 1.346 . S
C257 C258 1.396 . S
C257 C267 1.510 . S
C258 C254 1.401 . S
C258 C257 1.396 . S
C259 C254 1.499 . S
C259 H260 0.959 . S
C259 H261 0.960 . S
C259 H262 0.961 . S
H260 C259 0.959 . S
H261 C259 0.960 . S
H262 C259 0.961 . S
O263 Co238 1.967 . S
O263 C271 1.258 . S
O264 Co239 1.941 . S
O264 C271 1.266 . S
H265 C267 0.959 . S
H266 C267 0.961 . S
C267 C257 1.510 . S
C267 H265 0.959 . S
C267 H266 0.961 . S
C267 H268 0.960 . S
H268 C267 0.960 . S
H269 N249 0.862 . S
O270 Co238 1.920 . S
O270 C243 1.289 . S
C271 O263 1.258 . S
C271 O264 1.266 . S
Co272 O275 1.970 . S
Co272 N289 1.989 . S
Co272 O297 1.967 . S
Co272 O304 1.920 . S
Co273 O276 1.966 . S
Co273 N282 2.022 . S
Co273 N290 1.993 . S
Co273 O298 1.941 . S
C274 O275 1.258 . S
C274 O276 1.263 . S
O275 Co272 1.970 . S
O275 C274 1.258 . S
O276 Co273 1.966 . S
O276 C274 1.263 . S
C277 O278 1.235 . S
C277 O304 1.289 . S
O278 C277 1.235 . S
C279 C281 1.400 . S
C279 N282 1.351 . S
C279 C284 1.501 . S
C280 C281 1.387 . S
C280 N283 1.341 . S
C281 C279 1.400 . S
C281 C280 1.387 . S
N282 Co273 2.022 . S
N282 C279 1.351 . S
N282 N283 1.365 . S
N283 C280 1.341 . S
N283 N282 1.365 . S
N283 H303 0.862 . S
C284 C279 1.501 . S
C284 H285 0.961 . S
C284 H286 0.961 . S
C284 H287 0.960 . S
H285 C284 0.961 . S
H286 C284 0.961 . S
H287 C284 0.960 . S
C288 N289 1.342 . S
C288 C292 1.401 . S
C288 C293 1.499 . S
N289 Co272 1.989 . S
N289 C288 1.342 . S
N289 N290 1.388 . S
N290 Co273 1.993 . S
N290 N289 1.388 . S
N290 C291 1.346 . S
C291 N290 1.346 . S
C291 C292 1.396 . S
C291 C301 1.510 . S
C292 C288 1.401 . S
C292 C291 1.396 . S
C293 C288 1.499 . S
C293 H294 0.959 . S
C293 H295 0.960 . S
C293 H296 0.961 . S
H294 C293 0.959 . S
H295 C293 0.960 . S
H296 C293 0.961 . S
O297 Co272 1.967 . S
O297 C305 1.258 . S
O298 Co273 1.941 . S
O298 C305 1.266 . S
H299 C301 0.959 . S
H300 C301 0.961 . S
C301 C291 1.510 . S
C301 H299 0.959 . S
C301 H300 0.961 . S
C301 H302 0.960 . S
H302 C301 0.960 . S
H303 N283 0.862 . S
O304 Co272 1.920 . S
O304 C277 1.289 . S
C305 O297 1.258 . S
C305 O298 1.266 . S
Co306 O309 1.970 . S
Co306 N323 1.989 . S
Co306 O331 1.967 . S
Co306 O338 1.920 . S
Co307 O310 1.966 . S
Co307 N316 2.022 . S
Co307 N324 1.993 . S
Co307 O332 1.941 . S
C308 O309 1.258 . S
C308 O310 1.263 . S
O309 Co306 1.970 . S
O309 C308 1.258 . S
O310 Co307 1.966 . S
O310 C308 1.263 . S
C311 O312 1.235 . S
C311 O338 1.289 . S
O312 C311 1.235 . S
C313 C315 1.400 . S
C313 N316 1.351 . S
C313 C318 1.501 . S
C314 C315 1.387 . S
C314 N317 1.341 . S
C315 C313 1.400 . S
C315 C314 1.387 . S
N316 Co307 2.022 . S
N316 C313 1.351 . S
N316 N317 1.365 . S
N317 C314 1.341 . S
N317 N316 1.365 . S
N317 H337 0.862 . S
C318 C313 1.501 . S
C318 H319 0.961 . S
C318 H320 0.961 . S
C318 H321 0.960 . S
H319 C318 0.961 . S
H320 C318 0.961 . S
H321 C318 0.960 . S
C322 N323 1.342 . S
C322 C326 1.401 . S
C322 C327 1.499 . S
N323 Co306 1.989 . S
N323 C322 1.342 . S
N323 N324 1.388 . S
N324 Co307 1.993 . S
N324 N323 1.388 . S
N324 C325 1.346 . S
C325 N324 1.346 . S
C325 C326 1.396 . S
C325 C335 1.510 . S
C326 C322 1.401 . S
C326 C325 1.396 . S
C327 C322 1.499 . S
C327 H328 0.959 . S
C327 H329 0.960 . S
C327 H330 0.961 . S
H328 C327 0.959 . S
H329 C327 0.960 . S
H330 C327 0.961 . S
O331 Co306 1.967 . S
O331 C339 1.258 . S
O332 Co307 1.941 . S
O332 C339 1.266 . S
H333 C335 0.959 . S
H334 C335 0.961 . S
C335 C325 1.510 . S
C335 H333 0.959 . S
C335 H334 0.961 . S
C335 H336 0.960 . S
H336 C335 0.960 . S
H337 N317 0.862 . S
O338 Co306 1.920 . S
O338 C311 1.289 . S
C339 O331 1.258 . S
C339 O332 1.266 . S
Co340 O343 1.970 . S
Co340 N357 1.989 . S
Co340 O365 1.967 . S
Co340 O372 1.920 . S
Co341 O344 1.966 . S
Co341 N350 2.022 . S
Co341 N358 1.993 . S
Co341 O366 1.941 . S
C342 O343 1.258 . S
C342 O344 1.263 . S
O343 Co340 1.970 . S
O343 C342 1.258 . S
O344 Co341 1.966 . S
O344 C342 1.263 . S
C345 O346 1.235 . S
C345 O372 1.289 . S
O346 C345 1.235 . S
C347 C349 1.400 . S
C347 N350 1.351 . S
C347 C352 1.501 . S
C348 C349 1.387 . S
C348 N351 1.341 . S
C349 C347 1.400 . S
C349 C348 1.387 . S
N350 Co341 2.022 . S
N350 C347 1.351 . S
N350 N351 1.365 . S
N351 C348 1.341 . S
N351 N350 1.365 . S
N351 H371 0.862 . S
C352 C347 1.501 . S
C352 H353 0.961 . S
C352 H354 0.961 . S
C352 H355 0.960 . S
H353 C352 0.961 . S
H354 C352 0.961 . S
H355 C352 0.960 . S
C356 N357 1.342 . S
C356 C360 1.401 . S
C356 C361 1.499 . S
N357 Co340 1.989 . S
N357 C356 1.342 . S
N357 N358 1.388 . S
N358 Co341 1.993 . S
N358 N357 1.388 . S
N358 C359 1.346 . S
C359 N358 1.346 . S
C359 C360 1.396 . S
C359 C369 1.510 . S
C360 C356 1.401 . S
C360 C359 1.396 . S
C361 C356 1.499 . S
C361 H362 0.959 . S
C361 H363 0.960 . S
C361 H364 0.961 . S
H362 C361 0.959 . S
H363 C361 0.960 . S
H364 C361 0.961 . S
O365 Co340 1.967 . S
O365 C373 1.258 . S
O366 Co341 1.941 . S
O366 C373 1.266 . S
H367 C369 0.959 . S
H368 C369 0.961 . S
C369 C359 1.510 . S
C369 H367 0.959 . S
C369 H368 0.961 . S
C369 H370 0.960 . S
H370 C369 0.960 . S
H371 N351 0.862 . S
O372 Co340 1.920 . S
O372 C345 1.289 . S
C373 O365 1.258 . S
C373 O366 1.266 . S
Co374 O377 1.970 . S
Co374 N391 1.989 . S
Co374 O399 1.967 . S
Co374 O406 1.920 . S
Co375 O378 1.966 . S
Co375 N384 2.022 . S
Co375 N392 1.993 . S
Co375 O400 1.941 . S
C376 O377 1.258 . S
C376 O378 1.263 . S
O377 Co374 1.970 . S
O377 C376 1.258 . S
O378 Co375 1.966 . S
O378 C376 1.263 . S
C379 O380 1.235 . S
C379 O406 1.289 . S
O380 C379 1.235 . S
C381 C383 1.400 . S
C381 N384 1.351 . S
C381 C386 1.501 . S
C382 C383 1.387 . S
C382 N385 1.341 . S
C383 C381 1.400 . S
C383 C382 1.387 . S
N384 Co375 2.022 . S
N384 C381 1.351 . S
N384 N385 1.365 . S
N385 C382 1.341 . S
N385 N384 1.365 . S
N385 H405 0.862 . S
C386 C381 1.501 . S
C386 H387 0.961 . S
C386 H388 0.961 . S
C386 H389 0.960 . S
H387 C386 0.961 . S
H388 C386 0.961 . S
H389 C386 0.960 . S
C390 N391 1.342 . S
C390 C394 1.401 . S
C390 C395 1.499 . S
N391 Co374 1.989 . S
N391 C390 1.342 . S
N391 N392 1.388 . S
N392 Co375 1.993 . S
N392 N391 1.388 . S
N392 C393 1.346 . S
C393 N392 1.346 . S
C393 C394 1.396 . S
C393 C403 1.510 . S
C394 C390 1.401 . S
C394 C393 1.396 . S
C395 C390 1.499 . S
C395 H396 0.959 . S
C395 H397 0.960 . S
C395 H398 0.961 . S
H396 C395 0.959 . S
H397 C395 0.960 . S
H398 C395 0.961 . S
O399 Co374 1.967 . S
O399 C407 1.258 . S
O400 Co375 1.941 . S
O400 C407 1.266 . S
H401 C403 0.959 . S
H402 C403 0.961 . S
C403 C393 1.510 . S
C403 H401 0.959 . S
C403 H402 0.961 . S
C403 H404 0.960 . S
H404 C403 0.960 . S
H405 N385 0.862 . S
O406 Co374 1.920 . S
O406 C379 1.289 . S
C407 O399 1.258 . S
C407 O400 1.266 . S
Co408 O411 1.970 . S
Co408 N425 1.989 . S
Co408 O433 1.967 . S
Co408 O440 1.920 . S
Co409 O412 1.966 . S
Co409 N418 2.022 . S
Co409 N426 1.993 . S
Co409 O434 1.941 . S
C410 O411 1.258 . S
C410 O412 1.263 . S
O411 Co408 1.970 . S
O411 C410 1.258 . S
O412 Co409 1.966 . S
O412 C410 1.263 . S
C413 O414 1.235 . S
C413 O440 1.289 . S
O414 C413 1.235 . S
C415 C417 1.400 . S
C415 N418 1.351 . S
C415 C420 1.501 . S
C416 C417 1.387 . S
C416 N419 1.341 . S
C417 C415 1.400 . S
C417 C416 1.387 . S
N418 Co409 2.022 . S
N418 C415 1.351 . S
N418 N419 1.365 . S
N419 C416 1.341 . S
N419 N418 1.365 . S
N419 H439 0.862 . S
C420 C415 1.501 . S
C420 H421 0.961 . S
C420 H422 0.961 . S
C420 H423 0.960 . S
H421 C420 0.961 . S
H422 C420 0.961 . S
H423 C420 0.960 . S
C424 N425 1.342 . S
C424 C428 1.401 . S
C424 C429 1.499 . S
N425 Co408 1.989 . S
N425 C424 1.342 . S
N425 N426 1.388 . S
N426 Co409 1.993 . S
N426 N425 1.388 . S
N426 C427 1.346 . S
C427 N426 1.346 . S
C427 C428 1.396 . S
C427 C437 1.510 . S
C428 C424 1.401 . S
C428 C427 1.396 . S
C429 C424 1.499 . S
C429 H430 0.959 . S
C429 H431 0.960 . S
C429 H432 0.961 . S
H430 C429 0.959 . S
H431 C429 0.960 . S
H432 C429 0.961 . S
O433 Co408 1.967 . S
O433 C441 1.258 . S
O434 Co409 1.941 . S
O434 C441 1.266 . S
H435 C437 0.959 . S
H436 C437 0.961 . S
C437 C427 1.510 . S
C437 H435 0.959 . S
C437 H436 0.961 . S
C437 H438 0.960 . S
H438 C437 0.960 . S
H439 N419 0.862 . S
O440 Co408 1.920 . S
O440 C413 1.289 . S
C441 O433 1.258 . S
C441 O434 1.266 . S
Co442 O445 1.970 . S
Co442 N459 1.989 . S
Co442 O467 1.967 . S
Co442 O474 1.920 . S
Co443 O446 1.966 . S
Co443 N452 2.022 . S
Co443 N460 1.993 . S
Co443 O468 1.941 . S
C444 O445 1.258 . S
C444 O446 1.263 . S
O445 Co442 1.970 . S
O445 C444 1.258 . S
O446 Co443 1.966 . S
O446 C444 1.263 . S
C447 O448 1.235 . S
C447 O474 1.289 . S
O448 C447 1.235 . S
C449 C451 1.400 . S
C449 N452 1.351 . S
C449 C454 1.501 . S
C450 C451 1.387 . S
C450 N453 1.341 . S
C451 C449 1.400 . S
C451 C450 1.387 . S
N452 Co443 2.022 . S
N452 C449 1.351 . S
N452 N453 1.365 . S
N453 C450 1.341 . S
N453 N452 1.365 . S
N453 H473 0.862 . S
C454 C449 1.501 . S
C454 H455 0.961 . S
C454 H456 0.961 . S
C454 H457 0.960 . S
H455 C454 0.961 . S
H456 C454 0.961 . S
H457 C454 0.960 . S
C458 N459 1.342 . S
C458 C462 1.401 . S
C458 C463 1.499 . S
N459 Co442 1.989 . S
N459 C458 1.342 . S
N459 N460 1.388 . S
N460 Co443 1.993 . S
N460 N459 1.388 . S
N460 C461 1.346 . S
C461 N460 1.346 . S
C461 C462 1.396 . S
C461 C471 1.510 . S
C462 C458 1.401 . S
C462 C461 1.396 . S
C463 C458 1.499 . S
C463 H464 0.959 . S
C463 H465 0.960 . S
C463 H466 0.961 . S
H464 C463 0.959 . S
H465 C463 0.960 . S
H466 C463 0.961 . S
O467 Co442 1.967 . S
O467 C475 1.258 . S
O468 Co443 1.941 . S
O468 C475 1.266 . S
H469 C471 0.959 . S
H470 C471 0.961 . S
C471 C461 1.510 . S
C471 H469 0.959 . S
C471 H470 0.961 . S
C471 H472 0.960 . S
H472 C471 0.960 . S
H473 N453 0.862 . S
O474 Co442 1.920 . S
O474 C447 1.289 . S
C475 O467 1.258 . S
C475 O468 1.266 . S
Co476 O479 1.970 . S
Co476 N493 1.989 . S
Co476 O501 1.967 . S
Co476 O508 1.920 . S
Co477 O480 1.966 . S
Co477 N486 2.022 . S
Co477 N494 1.993 . S
Co477 O502 1.941 . S
C478 O479 1.258 . S
C478 O480 1.263 . S
O479 Co476 1.970 . S
O479 C478 1.258 . S
O480 Co477 1.966 . S
O480 C478 1.263 . S
C481 O482 1.235 . S
C481 O508 1.289 . S
O482 C481 1.235 . S
C483 C485 1.400 . S
C483 N486 1.351 . S
C483 C488 1.501 . S
C484 C485 1.387 . S
C484 N487 1.341 . S
C485 C483 1.400 . S
C485 C484 1.387 . S
N486 Co477 2.022 . S
N486 C483 1.351 . S
N486 N487 1.365 . S
N487 C484 1.341 . S
N487 N486 1.365 . S
N487 H507 0.862 . S
C488 C483 1.501 . S
C488 H489 0.961 . S
C488 H490 0.961 . S
C488 H491 0.960 . S
H489 C488 0.961 . S
H490 C488 0.961 . S
H491 C488 0.960 . S
C492 N493 1.342 . S
C492 C496 1.401 . S
C492 C497 1.499 . S
N493 Co476 1.989 . S
N493 C492 1.342 . S
N493 N494 1.388 . S
N494 Co477 1.993 . S
N494 N493 1.388 . S
N494 C495 1.346 . S
C495 N494 1.346 . S
C495 C496 1.396 . S
C495 C505 1.510 . S
C496 C492 1.401 . S
C496 C495 1.396 . S
C497 C492 1.499 . S
C497 H498 0.959 . S
C497 H499 0.960 . S
C497 H500 0.961 . S
H498 C497 0.959 . S
H499 C497 0.960 . S
H500 C497 0.961 . S
O501 Co476 1.967 . S
O501 C509 1.258 . S
O502 Co477 1.941 . S
O502 C509 1.266 . S
H503 C505 0.959 . S
H504 C505 0.961 . S
C505 C495 1.510 . S
C505 H503 0.959 . S
C505 H504 0.961 . S
C505 H506 0.960 . S
H506 C505 0.960 . S
H507 N487 0.862 . S
O508 Co476 1.920 . S
O508 C481 1.289 . S
C509 O501 1.258 . S
C509 O502 1.266 . S
Co510 O513 1.970 . S
Co510 N527 1.989 . S
Co510 O535 1.967 . S
Co510 O542 1.920 . S
Co511 O514 1.966 . S
Co511 N520 2.022 . S
Co511 N528 1.993 . S
Co511 O536 1.941 . S
C512 O513 1.258 . S
C512 O514 1.263 . S
O513 Co510 1.970 . S
O513 C512 1.258 . S
O514 Co511 1.966 . S
O514 C512 1.263 . S
C515 O516 1.235 . S
C515 O542 1.289 . S
O516 C515 1.235 . S
C517 C519 1.400 . S
C517 N520 1.351 . S
C517 C522 1.501 . S
C518 C519 1.387 . S
C518 N521 1.341 . S
C519 C517 1.400 . S
C519 C518 1.387 . S
N520 Co511 2.022 . S
N520 C517 1.351 . S
N520 N521 1.365 . S
N521 C518 1.341 . S
N521 N520 1.365 . S
N521 H541 0.862 . S
C522 C517 1.501 . S
C522 H523 0.961 . S
C522 H524 0.961 . S
C522 H525 0.960 . S
H523 C522 0.961 . S
H524 C522 0.961 . S
H525 C522 0.960 . S
C526 N527 1.342 . S
C526 C530 1.401 . S
C526 C531 1.499 . S
N527 Co510 1.989 . S
N527 C526 1.342 . S
N527 N528 1.388 . S
N528 Co511 1.993 . S
N528 N527 1.388 . S
N528 C529 1.346 . S
C529 N528 1.346 . S
C529 C530 1.396 . S
C529 C539 1.510 . S
C530 C526 1.401 . S
C530 C529 1.396 . S
C531 C526 1.499 . S
C531 H532 0.959 . S
C531 H533 0.960 . S
C531 H534 0.961 . S
H532 C531 0.959 . S
H533 C531 0.960 . S
H534 C531 0.961 . S
O535 Co510 1.967 . S
O535 C543 1.258 . S
O536 Co511 1.941 . S
O536 C543 1.266 . S
H537 C539 0.959 . S
H538 C539 0.961 . S
C539 C529 1.510 . S
C539 H537 0.959 . S
C539 H538 0.961 . S
C539 H540 0.960 . S
H540 C539 0.960 . S
H541 N521 0.862 . S
O542 Co510 1.920 . S
O542 C515 1.289 . S
C543 O535 1.258 . S
C543 O536 1.266 . S
H544 C556 0.930 . S
H545 C558 0.930 . S
H546 C559 0.930 . S
H547 C563 0.962 . S
H548 C563 0.979 . S
H549 C563 0.940 1_556 S
H550 C564 0.958 1_556 S
H551 C564 0.963 . S
H552 C564 0.959 . S
H553 C567 0.929 . S
H554 C568 0.931 . S
H555 C570 0.930 . S
C556 H544 0.930 . S
C556 C557 1.399 . S
C556 C561 1.399 . S
C557 C556 1.399 . S
C557 C558 1.376 . S
C558 H545 0.930 . S
C558 C557 1.376 . S
C558 C559 1.388 . S
C559 H546 0.930 . S
C559 C558 1.388 . S
C559 C560 1.390 . S
C560 C559 1.390 . S
C560 C561 1.394 . S
C560 C566 1.465 1_556 S
C561 C556 1.399 . S
C561 C560 1.394 . S
C561 C562 1.517 1_556 S
C562 C561 1.517 1_554 S
C562 C563 1.502 . S
C562 C564 1.561 . S
C562 C565 1.525 . S
C563 H547 0.962 . S
C563 H548 0.979 . S
C563 H549 0.940 1_554 S
C563 C562 1.502 . S
C564 H550 0.958 1_554 S
C564 H551 0.963 . S
C564 H552 0.959 . S
C564 C562 1.561 . S
C565 C562 1.525 . S
C565 C566 1.396 . S
C565 C570 1.390 . S
C566 C560 1.465 1_554 S
C566 C565 1.396 . S
C566 C567 1.399 . S
C567 H553 0.929 . S
C567 C566 1.399 . S
C567 C568 1.385 . S
C568 H554 0.931 . S
C568 C567 1.385 . S
C568 C569 1.389 . S
C569 C568 1.389 . S
C569 C570 1.387 . S
C570 H555 0.930 . S
C570 C565 1.390 . S
C570 C569 1.387 . S
H571 C583 0.930 . S
H572 C585 0.930 . S
H573 C586 0.930 . S
H574 C590 0.962 . S
H575 C590 0.979 . S
H576 C590 0.940 1_556 S
H577 C591 0.958 1_556 S
H578 C591 0.963 . S
H579 C591 0.959 . S
H580 C594 0.929 . S
H581 C595 0.931 . S
H582 C597 0.930 . S
C583 H571 0.930 . S
C583 C584 1.399 . S
C583 C588 1.399 . S
C584 C583 1.399 . S
C584 C585 1.376 . S
C585 H572 0.930 . S
C585 C584 1.376 . S
C585 C586 1.388 . S
C586 H573 0.930 . S
C586 C585 1.388 . S
C586 C587 1.390 . S
C587 C586 1.390 . S
C587 C588 1.394 . S
C587 C593 1.465 1_556 S
C588 C583 1.399 . S
C588 C587 1.394 . S
C588 C589 1.517 1_556 S
C589 C588 1.517 1_554 S
C589 C590 1.502 . S
C589 C591 1.561 . S
C589 C592 1.525 . S
C590 H574 0.962 . S
C590 H575 0.979 . S
C590 H576 0.940 1_554 S
C590 C589 1.502 . S
C591 H577 0.958 1_554 S
C591 H578 0.963 . S
C591 H579 0.959 . S
C591 C589 1.561 . S
C592 C589 1.525 . S
C592 C593 1.396 . S
C592 C597 1.390 . S
C593 C587 1.465 1_554 S
C593 C592 1.396 . S
C593 C594 1.399 . S
C594 H580 0.929 . S
C594 C593 1.399 . S
C594 C595 1.385 . S
C595 H581 0.931 . S
C595 C594 1.385 . S
C595 C596 1.389 . S
C596 C595 1.389 . S
C596 C597 1.387 . S
C597 H582 0.930 . S
C597 C592 1.390 . S
C597 C596 1.387 . S
H598 C610 0.930 . S
H599 C612 0.930 . S
H600 C613 0.930 . S
H601 C617 0.962 . S
H602 C617 0.979 . S
H603 C617 0.940 1_556 S
H604 C618 0.958 1_556 S
H605 C618 0.963 . S
H606 C618 0.959 . S
H607 C621 0.929 . S
H608 C622 0.931 . S
H609 C624 0.930 . S
C610 H598 0.930 . S
C610 C611 1.399 . S
C610 C615 1.399 . S
C611 C610 1.399 . S
C611 C612 1.376 . S
C612 H599 0.930 . S
C612 C611 1.376 . S
C612 C613 1.388 . S
C613 H600 0.930 . S
C613 C612 1.388 . S
C613 C614 1.390 . S
C614 C613 1.390 . S
C614 C615 1.394 . S
C614 C620 1.465 1_556 S
C615 C610 1.399 . S
C615 C614 1.394 . S
C615 C616 1.517 1_556 S
C616 C615 1.517 1_554 S
C616 C617 1.502 . S
C616 C618 1.561 . S
C616 C619 1.525 . S
C617 H601 0.962 . S
C617 H602 0.979 . S
C617 H603 0.940 1_554 S
C617 C616 1.502 . S
C618 H604 0.958 1_554 S
C618 H605 0.963 . S
C618 H606 0.959 . S
C618 C616 1.561 . S
C619 C616 1.525 . S
C619 C620 1.396 . S
C619 C624 1.390 . S
C620 C614 1.465 1_554 S
C620 C619 1.396 . S
C620 C621 1.399 . S
C621 H607 0.929 . S
C621 C620 1.399 . S
C621 C622 1.385 . S
C622 H608 0.931 . S
C622 C621 1.385 . S
C622 C623 1.389 . S
C623 C622 1.389 . S
C623 C624 1.387 . S
C624 H609 0.930 . S
C624 C619 1.390 . S
C624 C623 1.387 . S
H625 C637 0.930 . S
H626 C639 0.930 . S
H627 C640 0.930 . S
H628 C644 0.962 . S
H629 C644 0.979 . S
H630 C644 0.940 1_556 S
H631 C645 0.958 1_556 S
H632 C645 0.963 . S
H633 C645 0.959 . S
H634 C648 0.929 . S
H635 C649 0.931 . S
H636 C651 0.930 . S
C637 H625 0.930 . S
C637 C638 1.399 . S
C637 C642 1.399 . S
C638 C637 1.399 . S
C638 C639 1.376 . S
C639 H626 0.930 . S
C639 C638 1.376 . S
C639 C640 1.388 . S
C640 H627 0.930 . S
C640 C639 1.388 . S
C640 C641 1.390 . S
C641 C640 1.390 . S
C641 C642 1.394 . S
C641 C647 1.465 1_556 S
C642 C637 1.399 . S
C642 C641 1.394 . S
C642 C643 1.517 1_556 S
C643 C642 1.517 1_554 S
C643 C644 1.502 . S
C643 C645 1.561 . S
C643 C646 1.525 . S
C644 H628 0.962 . S
C644 H629 0.979 . S
C644 H630 0.940 1_554 S
C644 C643 1.502 . S
C645 H631 0.958 1_554 S
C645 H632 0.963 . S
C645 H633 0.959 . S
C645 C643 1.561 . S
C646 C643 1.525 . S
C646 C647 1.396 . S
C646 C651 1.390 . S
C647 C641 1.465 1_554 S
C647 C646 1.396 . S
C647 C648 1.399 . S
C648 H634 0.929 . S
C648 C647 1.399 . S
C648 C649 1.385 . S
C649 H635 0.931 . S
C649 C648 1.385 . S
C649 C650 1.389 . S
C650 C649 1.389 . S
C650 C651 1.387 . S
C651 H636 0.930 . S
C651 C646 1.390 . S
C651 C650 1.387 . S
H652 C664 0.930 . S
H653 C666 0.930 . S
H654 C667 0.930 . S
H655 C671 0.959 . S
H656 C671 0.959 . S
H657 C671 0.961 . S
H658 C672 0.960 . S
H659 C672 0.961 . S
H660 C672 0.959 . S
H661 C675 0.929 . S
H662 C676 0.931 . S
H663 C678 0.930 . S
C664 H652 0.930 . S
C664 C665 1.399 . S
C664 C669 1.399 . S
C665 C664 1.399 . S
C665 C666 1.376 . S
C666 H653 0.930 . S
C666 C665 1.376 . S
C666 C667 1.388 . S
C667 H654 0.930 . S
C667 C666 1.388 . S
C667 C668 1.390 . S
C668 C667 1.390 . S
C668 C669 1.394 . S
C668 C674 1.465 . S
C669 C664 1.399 . S
C669 C668 1.394 . S
C669 C670 1.516 . S
C670 C669 1.516 . S
C670 C671 1.502 . S
C670 C672 1.561 . S
C670 C673 1.526 . S
C671 H655 0.959 . S
C671 H656 0.959 . S
C671 H657 0.961 . S
C671 C670 1.502 . S
C672 H658 0.960 . S
C672 H659 0.961 . S
C672 H660 0.959 . S
C672 C670 1.561 . S
C673 C670 1.526 . S
C673 C674 1.396 . S
C673 C678 1.390 . S
C674 C668 1.465 . S
C674 C673 1.396 . S
C674 C675 1.399 . S
C675 H661 0.929 . S
C675 C674 1.399 . S
C675 C676 1.385 . S
C676 H662 0.931 . S
C676 C675 1.385 . S
C676 C677 1.389 . S
C677 C676 1.389 . S
C677 C678 1.387 . S
C678 H663 0.930 . S
C678 C673 1.390 . S
C678 C677 1.387 . S
H679 C691 0.930 . S
H680 C693 0.930 . S
H681 C694 0.930 . S
H682 C698 0.959 . S
H683 C698 0.959 . S
H684 C698 0.961 . S
H685 C699 0.960 . S
H686 C699 0.961 . S
H687 C699 0.959 . S
H688 C702 0.929 . S
H689 C703 0.931 . S
H690 C705 0.930 . S
C691 H679 0.930 . S
C691 C692 1.399 . S
C691 C696 1.399 . S
C692 C691 1.399 . S
C692 C693 1.376 . S
C693 H680 0.930 . S
C693 C692 1.376 . S
C693 C694 1.388 . S
C694 H681 0.930 . S
C694 C693 1.388 . S
C694 C695 1.390 . S
C695 C694 1.390 . S
C695 C696 1.394 . S
C695 C701 1.465 . S
C696 C691 1.399 . S
C696 C695 1.394 . S
C696 C697 1.516 . S
C697 C696 1.516 . S
C697 C698 1.502 . S
C697 C699 1.561 . S
C697 C700 1.526 . S
C698 H682 0.959 . S
C698 H683 0.959 . S
C698 H684 0.961 . S
C698 C697 1.502 . S
C699 H685 0.960 . S
C699 H686 0.961 . S
C699 H687 0.959 . S
C699 C697 1.561 . S
C700 C697 1.526 . S
C700 C701 1.396 . S
C700 C705 1.390 . S
C701 C695 1.465 . S
C701 C700 1.396 . S
C701 C702 1.399 . S
C702 H688 0.929 . S
C702 C701 1.399 . S
C702 C703 1.385 . S
C703 H689 0.931 . S
C703 C702 1.385 . S
C703 C704 1.389 . S
C704 C703 1.389 . S
C704 C705 1.387 . S
C705 H690 0.930 . S
C705 C700 1.390 . S
C705 C704 1.387 . S
H706 C718 0.930 . S
H707 C720 0.930 . S
H708 C721 0.930 . S
H709 C725 0.959 . S
H710 C725 0.959 . S
H711 C725 0.961 . S
H712 C726 0.960 . S
H713 C726 0.961 . S
H714 C726 0.959 . S
H715 C729 0.929 . S
H716 C730 0.931 . S
H717 C732 0.930 . S
C718 H706 0.930 . S
C718 C719 1.399 . S
C718 C723 1.399 . S
C719 C718 1.399 . S
C719 C720 1.376 . S
C720 H707 0.930 . S
C720 C719 1.376 . S
C720 C721 1.388 . S
C721 H708 0.930 . S
C721 C720 1.388 . S
C721 C722 1.390 . S
C722 C721 1.390 . S
C722 C723 1.394 . S
C722 C728 1.465 . S
C723 C718 1.399 . S
C723 C722 1.394 . S
C723 C724 1.516 . S
C724 C723 1.516 . S
C724 C725 1.502 . S
C724 C726 1.561 . S
C724 C727 1.526 . S
C725 H709 0.959 . S
C725 H710 0.959 . S
C725 H711 0.961 . S
C725 C724 1.502 . S
C726 H712 0.960 . S
C726 H713 0.961 . S
C726 H714 0.959 . S
C726 C724 1.561 . S
C727 C724 1.526 . S
C727 C728 1.396 . S
C727 C732 1.390 . S
C728 C722 1.465 . S
C728 C727 1.396 . S
C728 C729 1.399 . S
C729 H715 0.929 . S
C729 C728 1.399 . S
C729 C730 1.385 . S
C730 H716 0.931 . S
C730 C729 1.385 . S
C730 C731 1.389 . S
C731 C730 1.389 . S
C731 C732 1.387 . S
C732 H717 0.930 . S
C732 C727 1.390 . S
C732 C731 1.387 . S
H733 C745 0.930 . S
H734 C747 0.930 . S
H735 C748 0.930 . S
H736 C752 0.959 . S
H737 C752 0.959 . S
H738 C752 0.961 . S
H739 C753 0.960 . S
H740 C753 0.961 . S
H741 C753 0.959 . S
H742 C756 0.929 . S
H743 C757 0.931 . S
H744 C759 0.930 . S
C745 H733 0.930 . S
C745 C746 1.399 . S
C745 C750 1.399 . S
C746 C745 1.399 . S
C746 C747 1.376 . S
C747 H734 0.930 . S
C747 C746 1.376 . S
C747 C748 1.388 . S
C748 H735 0.930 . S
C748 C747 1.388 . S
C748 C749 1.390 . S
C749 C748 1.390 . S
C749 C750 1.394 . S
C749 C755 1.465 . S
C750 C745 1.399 . S
C750 C749 1.394 . S
C750 C751 1.516 . S
C751 C750 1.516 . S
C751 C752 1.502 . S
C751 C753 1.561 . S
C751 C754 1.526 . S
C752 H736 0.959 . S
C752 H737 0.959 . S
C752 H738 0.961 . S
C752 C751 1.502 . S
C753 H739 0.960 . S
C753 H740 0.961 . S
C753 H741 0.959 . S
C753 C751 1.561 . S
C754 C751 1.526 . S
C754 C755 1.396 . S
C754 C759 1.390 . S
C755 C749 1.465 . S
C755 C754 1.396 . S
C755 C756 1.399 . S
C756 H742 0.929 . S
C756 C755 1.399 . S
C756 C757 1.385 . S
C757 H743 0.931 . S
C757 C756 1.385 . S
C757 C758 1.389 . S
C758 C757 1.389 . S
C758 C759 1.387 . S
C759 H744 0.930 . S
C759 C754 1.390 . S
C759 C758 1.387 . S
H760 C772 0.930 . S
H761 C774 0.927 1_565 S
H762 C775 0.930 . S
H763 C779 0.959 . S
H764 C779 0.959 . S
H765 C779 0.961 . S
H766 C780 0.960 . S
H767 C780 0.961 . S
H768 C780 0.959 . S
H769 C783 0.929 . S
H770 C784 0.931 . S
H771 C786 0.930 . S
C772 H760 0.930 . S
C772 C773 1.399 . S
C772 C777 1.399 . S
C773 C772 1.399 . S
C773 C774 1.376 . S
C774 H761 0.927 1_545 S
C774 C773 1.376 . S
C774 C775 1.388 . S
C775 H762 0.930 . S
C775 C774 1.388 . S
C775 C776 1.390 . S
C776 C775 1.390 . S
C776 C777 1.394 . S
C776 C782 1.465 . S
C777 C772 1.399 . S
C777 C776 1.394 . S
C777 C778 1.516 . S
C778 C777 1.516 . S
C778 C779 1.502 . S
C778 C780 1.561 . S
C778 C781 1.526 . S
C779 H763 0.959 . S
C779 H764 0.959 . S
C779 H765 0.961 . S
C779 C778 1.502 . S
C780 H766 0.960 . S
C780 H767 0.961 . S
C780 H768 0.959 . S
C780 C778 1.561 . S
C781 C778 1.526 . S
C781 C782 1.396 . S
C781 C786 1.390 . S
C782 C776 1.465 . S
C782 C781 1.396 . S
C782 C783 1.399 . S
C783 H769 0.929 . S
C783 C782 1.399 . S
C783 C784 1.385 . S
C784 H770 0.931 . S
C784 C783 1.385 . S
C784 C785 1.389 . S
C785 C784 1.389 . S
C785 C786 1.387 . S
C786 H771 0.930 . S
C786 C781 1.390 . S
C786 C785 1.387 . S
H787 C799 0.930 . S
H788 C801 0.930 . S
H789 C802 0.930 . S
H790 C806 0.959 . S
H791 C806 0.959 . S
H792 C806 0.961 . S
H793 C807 0.960 . S
H794 C807 0.961 . S
H795 C807 0.959 . S
H796 C810 0.929 . S
H797 C811 0.931 . S
H798 C813 0.930 . S
C799 H787 0.930 . S
C799 C800 1.399 . S
C799 C804 1.399 . S
C800 C799 1.399 . S
C800 C801 1.376 . S
C801 H788 0.930 . S
C801 C800 1.376 . S
C801 C802 1.388 . S
C802 H789 0.930 . S
C802 C801 1.388 . S
C802 C803 1.390 . S
C803 C802 1.390 . S
C803 C804 1.394 . S
C803 C809 1.465 . S
C804 C799 1.399 . S
C804 C803 1.394 . S
C804 C805 1.516 . S
C805 C804 1.516 . S
C805 C806 1.502 . S
C805 C807 1.561 . S
C805 C808 1.526 . S
C806 H790 0.959 . S
C806 H791 0.959 . S
C806 H792 0.961 . S
C806 C805 1.502 . S
C807 H793 0.960 . S
C807 H794 0.961 . S
C807 H795 0.959 . S
C807 C805 1.561 . S
C808 C805 1.526 . S
C808 C809 1.396 . S
C808 C813 1.390 . S
C809 C803 1.465 . S
C809 C808 1.396 . S
C809 C810 1.399 . S
C810 H796 0.929 . S
C810 C809 1.399 . S
C810 C811 1.385 . S
C811 H797 0.931 . S
C811 C810 1.385 . S
C811 C812 1.389 . S
C812 C811 1.389 . S
C812 C813 1.387 . S
C813 H798 0.930 . S
C813 C808 1.390 . S
C813 C812 1.387 . S
H814 C826 0.930 . S
H815 C828 0.930 . S
H816 C829 0.930 . S
H817 C833 0.959 . S
H818 C833 0.959 . S
H819 C833 0.961 . S
H820 C834 0.960 . S
H821 C834 0.961 . S
H822 C834 0.959 . S
H823 C837 0.929 . S
H824 C838 0.931 . S
H825 C840 0.930 . S
C826 H814 0.930 . S
C826 C827 1.399 . S
C826 C831 1.399 . S
C827 C826 1.399 . S
C827 C828 1.376 . S
C828 H815 0.930 . S
C828 C827 1.376 . S
C828 C829 1.388 . S
C829 H816 0.930 . S
C829 C828 1.388 . S
C829 C830 1.390 . S
C830 C829 1.390 . S
C830 C831 1.394 . S
C830 C836 1.465 . S
C831 C826 1.399 . S
C831 C830 1.394 . S
C831 C832 1.516 . S
C832 C831 1.516 . S
C832 C833 1.502 . S
C832 C834 1.561 . S
C832 C835 1.526 . S
C833 H817 0.959 . S
C833 H818 0.959 . S
C833 H819 0.961 . S
C833 C832 1.502 . S
C834 H820 0.960 . S
C834 H821 0.961 . S
C834 H822 0.959 . S
C834 C832 1.561 . S
C835 C832 1.526 . S
C835 C836 1.396 . S
C835 C840 1.390 . S
C836 C830 1.465 . S
C836 C835 1.396 . S
C836 C837 1.399 . S
C837 H823 0.929 . S
C837 C836 1.399 . S
C837 C838 1.385 . S
C838 H824 0.931 . S
C838 C837 1.385 . S
C838 C839 1.389 . S
C839 C838 1.389 . S
C839 C840 1.387 . S
C840 H825 0.930 . S
C840 C835 1.390 . S
C840 C839 1.387 . S
H841 C853 0.930 . S
H842 C855 0.930 . S
H843 C856 0.930 . S
H844 C860 0.959 . S
H845 C860 0.959 . S
H846 C860 0.961 . S
H847 C861 0.960 . S
H848 C861 0.961 . S
H849 C861 0.959 . S
H850 C864 0.929 . S
H851 C865 0.931 . S
H852 C867 0.930 . S
C853 H841 0.930 . S
C853 C854 1.399 . S
C853 C858 1.399 . S
C854 C853 1.399 . S
C854 C855 1.376 . S
C855 H842 0.930 . S
C855 C854 1.376 . S
C855 C856 1.388 . S
C856 H843 0.930 . S
C856 C855 1.388 . S
C856 C857 1.390 . S
C857 C856 1.390 . S
C857 C858 1.394 . S
C857 C863 1.465 . S
C858 C853 1.399 . S
C858 C857 1.394 . S
C858 C859 1.516 . S
C859 C858 1.516 . S
C859 C860 1.502 . S
C859 C861 1.561 . S
C859 C862 1.526 . S
C860 H844 0.959 . S
C860 H845 0.959 . S
C860 H846 0.961 . S
C860 C859 1.502 . S
C861 H847 0.960 . S
C861 H848 0.961 . S
C861 H849 0.959 . S
C861 C859 1.561 . S
C862 C859 1.526 . S
C862 C863 1.396 . S
C862 C867 1.390 . S
C863 C857 1.465 . S
C863 C862 1.396 . S
C863 C864 1.399 . S
C864 H850 0.929 . S
C864 C863 1.399 . S
C864 C865 1.385 . S
C865 H851 0.931 . S
C865 C864 1.385 . S
C865 C866 1.389 . S
C866 C865 1.389 . S
C866 C867 1.387 . S
C867 H852 0.930 . S
C867 C862 1.390 . S
C867 C866 1.387 . S
H868 C880 0.930 . S
H869 C882 0.930 . S
H870 C883 0.930 . S
H871 C887 0.959 . S
H872 C887 0.959 . S
H873 C887 0.961 . S
H874 C888 0.960 . S
H875 C888 0.961 . S
H876 C888 0.959 . S
H877 C891 0.929 . S
H878 C892 0.931 . S
H879 C894 0.930 . S
C880 H868 0.930 . S
C880 C881 1.399 . S
C880 C885 1.399 . S
C881 C880 1.399 . S
C881 C882 1.376 . S
C882 H869 0.930 . S
C882 C881 1.376 . S
C882 C883 1.388 . S
C883 H870 0.930 . S
C883 C882 1.388 . S
C883 C884 1.390 . S
C884 C883 1.390 . S
C884 C885 1.394 . S
C884 C890 1.465 . S
C885 C880 1.399 . S
C885 C884 1.394 . S
C885 C886 1.516 . S
C886 C885 1.516 . S
C886 C887 1.502 . S
C886 C888 1.561 . S
C886 C889 1.526 . S
C887 H871 0.959 . S
C887 H872 0.959 . S
C887 H873 0.961 . S
C887 C886 1.502 . S
C888 H874 0.960 . S
C888 H875 0.961 . S
C888 H876 0.959 . S
C888 C886 1.561 . S
C889 C886 1.526 . S
C889 C890 1.396 . S
C889 C894 1.390 . S
C890 C884 1.465 . S
C890 C889 1.396 . S
C890 C891 1.399 . S
C891 H877 0.929 . S
C891 C890 1.399 . S
C891 C892 1.385 . S
C892 H878 0.931 . S
C892 C891 1.385 . S
C892 C893 1.389 . S
C893 C892 1.389 . S
C893 C894 1.387 . S
C894 H879 0.930 . S
C894 C889 1.390 . S
C894 C893 1.387 . S
H895 C907 0.930 . S
H896 C909 0.930 . S
H897 C910 0.930 . S
H898 C914 0.959 . S
H899 C914 0.959 . S
H900 C914 0.961 . S
H901 C915 0.960 . S
H902 C915 0.961 . S
H903 C915 0.959 . S
H904 C918 0.929 . S
H905 C919 0.931 . S
H906 C921 0.930 . S
C907 H895 0.930 . S
C907 C908 1.399 . S
C907 C912 1.399 . S
C908 C907 1.399 . S
C908 C909 1.376 . S
C909 H896 0.930 . S
C909 C908 1.376 . S
C909 C910 1.388 . S
C910 H897 0.930 . S
C910 C909 1.388 . S
C910 C911 1.390 . S
C911 C910 1.390 . S
C911 C912 1.394 . S
C911 C917 1.465 . S
C912 C907 1.399 . S
C912 C911 1.394 . S
C912 C913 1.516 . S
C913 C912 1.516 . S
C913 C914 1.502 . S
C913 C915 1.561 . S
C913 C916 1.526 . S
C914 H898 0.959 . S
C914 H899 0.959 . S
C914 H900 0.961 . S
C914 C913 1.502 . S
C915 H901 0.960 . S
C915 H902 0.961 . S
C915 H903 0.959 . S
C915 C913 1.561 . S
C916 C913 1.526 . S
C916 C917 1.396 . S
C916 C921 1.390 . S
C917 C911 1.465 . S
C917 C916 1.396 . S
C917 C918 1.399 . S
C918 H904 0.929 . S
C918 C917 1.399 . S
C918 C919 1.385 . S
C919 H905 0.931 . S
C919 C918 1.385 . S
C919 C920 1.389 . S
C920 C919 1.389 . S
C920 C921 1.387 . S
C921 H906 0.930 . S
C921 C916 1.390 . S
C921 C920 1.387 . S
H922 C934 0.930 . S
H923 C936 0.930 . S
H924 C937 0.930 . S
H925 C941 0.959 . S
H926 C941 0.959 . S
H927 C941 0.961 . S
H928 C942 0.960 . S
H929 C942 0.961 . S
H930 C942 0.959 . S
H931 C945 0.929 . S
H932 C946 0.931 . S
H933 C948 0.930 . S
C934 H922 0.930 . S
C934 C935 1.399 . S
C934 C939 1.399 . S
C935 C934 1.399 . S
C935 C936 1.376 . S
C936 H923 0.930 . S
C936 C935 1.376 . S
C936 C937 1.388 . S
C937 H924 0.930 . S
C937 C936 1.388 . S
C937 C938 1.390 . S
C938 C937 1.390 . S
C938 C939 1.394 . S
C938 C944 1.465 . S
C939 C934 1.399 . S
C939 C938 1.394 . S
C939 C940 1.516 . S
C940 C939 1.516 . S
C940 C941 1.502 . S
C940 C942 1.561 . S
C940 C943 1.526 . S
C941 H925 0.959 . S
C941 H926 0.959 . S
C941 H927 0.961 . S
C941 C940 1.502 . S
C942 H928 0.960 . S
C942 H929 0.961 . S
C942 H930 0.959 . S
C942 C940 1.561 . S
C943 C940 1.526 . S
C943 C944 1.396 . S
C943 C948 1.390 . S
C944 C938 1.465 . S
C944 C943 1.396 . S
C944 C945 1.399 . S
C945 H931 0.929 . S
C945 C944 1.399 . S
C945 C946 1.385 . S
C946 H932 0.931 . S
C946 C945 1.385 . S
C946 C947 1.389 . S
C947 C946 1.389 . S
C947 C948 1.387 . S
C948 H933 0.930 . S
C948 C943 1.390 . S
C948 C947 1.387 . S
H949 C961 0.930 . S
H950 C963 0.930 . S
H951 C964 0.930 . S
H952 C968 0.959 . S
H953 C968 0.959 . S
H954 C968 0.961 . S
H955 C969 0.960 . S
H956 C969 0.961 . S
H957 C969 0.959 . S
H958 C972 0.929 . S
H959 C973 0.931 . S
H960 C975 0.930 . S
C961 H949 0.930 . S
C961 C962 1.399 . S
C961 C966 1.399 . S
C962 C961 1.399 . S
C962 C963 1.376 . S
C963 H950 0.930 . S
C963 C962 1.376 . S
C963 C964 1.388 . S
C964 H951 0.930 . S
C964 C963 1.388 . S
C964 C965 1.390 . S
C965 C964 1.390 . S
C965 C966 1.394 . S
C965 C971 1.465 . S
C966 C961 1.399 . S
C966 C965 1.394 . S
C966 C967 1.516 . S
C967 C966 1.516 . S
C967 C968 1.502 . S
C967 C969 1.561 . S
C967 C970 1.526 . S
C968 H952 0.959 . S
C968 H953 0.959 . S
C968 H954 0.961 . S
C968 C967 1.502 . S
C969 H955 0.960 . S
C969 H956 0.961 . S
C969 H957 0.959 . S
C969 C967 1.561 . S
C970 C967 1.526 . S
C970 C971 1.396 . S
C970 C975 1.390 . S
C971 C965 1.465 . S
C971 C970 1.396 . S
C971 C972 1.399 . S
C972 H958 0.929 . S
C972 C971 1.399 . S
C972 C973 1.385 . S
C973 H959 0.931 . S
C973 C972 1.385 . S
C973 C974 1.389 . S
C974 C973 1.389 . S
C974 C975 1.387 . S
C975 H960 0.930 . S
C975 C970 1.390 . S
C975 C974 1.387 . S
H976 C988 0.930 . S
H977 C990 0.930 . S
H978 C991 0.930 . S
H979 C995 0.959 . S
H980 C995 0.959 . S
H981 C995 0.961 . S
H982 C996 0.960 . S
H983 C996 0.961 . S
H984 C996 0.959 . S
H985 C999 0.929 . S
H986 C1000 0.931 . S
H987 C1002 0.930 . S
C988 H976 0.930 . S
C988 C989 1.399 . S
C988 C993 1.399 . S
C989 C988 1.399 . S
C989 C990 1.376 . S
C990 H977 0.930 . S
C990 C989 1.376 . S
C990 C991 1.388 . S
C991 H978 0.930 . S
C991 C990 1.388 . S
C991 C992 1.390 . S
C992 C991 1.390 . S
C992 C993 1.394 . S
C992 C998 1.465 . S
C993 C988 1.399 . S
C993 C992 1.394 . S
C993 C994 1.516 . S
C994 C993 1.516 . S
C994 C995 1.502 . S
C994 C996 1.561 . S
C994 C997 1.526 . S
C995 H979 0.959 . S
C995 H980 0.959 . S
C995 H981 0.961 . S
C995 C994 1.502 . S
C996 H982 0.960 . S
C996 H983 0.961 . S
C996 H984 0.959 . S
C996 C994 1.561 . S
C997 C994 1.526 . S
C997 C998 1.396 . S
C997 C1002 1.390 . S
C998 C992 1.465 . S
C998 C997 1.396 . S
C998 C999 1.399 . S
C999 H985 0.929 . S
C999 C998 1.399 . S
C999 C1000 1.385 . S
C1000 H986 0.931 . S
C1000 C999 1.385 . S
C1000 C1001 1.389 . S
C1001 C1000 1.389 . S
C1001 C1002 1.387 . S
C1002 H987 0.930 . S
C1002 C997 1.390 . S
C1002 C1001 1.387 . S
H1003 C1015 0.930 . S
H1004 C1017 0.930 . S
H1005 C1018 0.930 . S
H1006 C1022 0.959 . S
H1007 C1022 0.959 . S
H1008 C1022 0.961 . S
H1009 C1023 0.960 . S
H1010 C1023 0.961 . S
H1011 C1023 0.959 . S
H1012 C1026 0.929 . S
H1013 C1027 0.931 . S
H1014 C1029 0.930 . S
C1015 H1003 0.930 . S
C1015 C1016 1.399 . S
C1015 C1020 1.399 . S
C1016 C1015 1.399 . S
C1016 C1017 1.376 . S
C1017 H1004 0.930 . S
C1017 C1016 1.376 . S
C1017 C1018 1.388 . S
C1018 H1005 0.930 . S
C1018 C1017 1.388 . S
C1018 C1019 1.390 . S
C1019 C1018 1.390 . S
C1019 C1020 1.394 . S
C1019 C1025 1.465 . S
C1020 C1015 1.399 . S
C1020 C1019 1.394 . S
C1020 C1021 1.516 . S
C1021 C1020 1.516 . S
C1021 C1022 1.502 . S
C1021 C1023 1.561 . S
C1021 C1024 1.526 . S
C1022 H1006 0.959 . S
C1022 H1007 0.959 . S
C1022 H1008 0.961 . S
C1022 C1021 1.502 . S
C1023 H1009 0.960 . S
C1023 H1010 0.961 . S
C1023 H1011 0.959 . S
C1023 C1021 1.561 . S
C1024 C1021 1.526 . S
C1024 C1025 1.396 . S
C1024 C1029 1.390 . S
C1025 C1019 1.465 . S
C1025 C1024 1.396 . S
C1025 C1026 1.399 . S
C1026 H1012 0.929 . S
C1026 C1025 1.399 . S
C1026 C1027 1.385 . S
C1027 H1013 0.931 . S
C1027 C1026 1.385 . S
C1027 C1028 1.389 . S
C1028 C1027 1.389 . S
C1028 C1029 1.387 . S
C1029 H1014 0.930 . S
C1029 C1024 1.390 . S
C1029 C1028 1.387 . S
H1030 C1042 0.930 . S
H1031 C1044 0.917 1_565 S
H1032 C1045 0.930 . S
H1033 C1049 0.959 . S
H1034 C1049 0.959 . S
H1035 C1049 0.961 . S
H1036 C1050 0.960 . S
H1037 C1050 0.961 . S
H1038 C1050 0.959 . S
H1039 C1053 0.929 . S
H1040 C1054 0.931 . S
H1041 C1056 0.930 . S
C1042 H1030 0.930 . S
C1042 C1043 1.399 . S
C1042 C1047 1.399 . S
C1043 C1042 1.399 . S
C1043 C1044 1.376 . S
C1044 H1031 0.917 1_545 S
C1044 C1043 1.376 . S
C1044 C1045 1.388 . S
C1045 H1032 0.930 . S
C1045 C1044 1.388 . S
C1045 C1046 1.390 . S
C1046 C1045 1.390 . S
C1046 C1047 1.394 . S
C1046 C1052 1.465 . S
C1047 C1042 1.399 . S
C1047 C1046 1.394 . S
C1047 C1048 1.516 . S
C1048 C1047 1.516 . S
C1048 C1049 1.502 . S
C1048 C1050 1.561 . S
C1048 C1051 1.526 . S
C1049 H1033 0.959 . S
C1049 H1034 0.959 . S
C1049 H1035 0.961 . S
C1049 C1048 1.502 . S
C1050 H1036 0.960 . S
C1050 H1037 0.961 . S
C1050 H1038 0.959 . S
C1050 C1048 1.561 . S
C1051 C1048 1.526 . S
C1051 C1052 1.396 . S
C1051 C1056 1.390 . S
C1052 C1046 1.465 . S
C1052 C1051 1.396 . S
C1052 C1053 1.399 . S
C1053 H1039 0.929 . S
C1053 C1052 1.399 . S
C1053 C1054 1.385 . S
C1054 H1040 0.931 . S
C1054 C1053 1.385 . S
C1054 C1055 1.389 . S
C1055 C1054 1.389 . S
C1055 C1056 1.387 . S
C1056 H1041 0.930 . S
C1056 C1051 1.390 . S
C1056 C1055 1.387 . S
H1057 C1069 0.930 . S
H1058 C1071 0.930 . S
H1059 C1072 0.930 . S
H1060 C1076 0.959 . S
H1061 C1076 0.959 . S
H1062 C1076 0.961 . S
H1063 C1077 0.960 . S
H1064 C1077 0.961 . S
H1065 C1077 0.959 . S
H1066 C1080 0.929 . S
H1067 C1081 0.931 . S
H1068 C1083 0.930 . S
C1069 H1057 0.930 . S
C1069 C1070 1.399 . S
C1069 C1074 1.399 . S
C1070 C1069 1.399 . S
C1070 C1071 1.376 . S
C1071 H1058 0.930 . S
C1071 C1070 1.376 . S
C1071 C1072 1.388 . S
C1072 H1059 0.930 . S
C1072 C1071 1.388 . S
C1072 C1073 1.390 . S
C1073 C1072 1.390 . S
C1073 C1074 1.394 . S
C1073 C1079 1.465 . S
C1074 C1069 1.399 . S
C1074 C1073 1.394 . S
C1074 C1075 1.516 . S
C1075 C1074 1.516 . S
C1075 C1076 1.502 . S
C1075 C1077 1.561 . S
C1075 C1078 1.526 . S
C1076 H1060 0.959 . S
C1076 H1061 0.959 . S
C1076 H1062 0.961 . S
C1076 C1075 1.502 . S
C1077 H1063 0.960 . S
C1077 H1064 0.961 . S
C1077 H1065 0.959 . S
C1077 C1075 1.561 . S
C1078 C1075 1.526 . S
C1078 C1079 1.396 . S
C1078 C1083 1.390 . S
C1079 C1073 1.465 . S
C1079 C1078 1.396 . S
C1079 C1080 1.399 . S
C1080 H1066 0.929 . S
C1080 C1079 1.399 . S
C1080 C1081 1.385 . S
C1081 H1067 0.931 . S
C1081 C1080 1.385 . S
C1081 C1082 1.389 . S
C1082 C1081 1.389 . S
C1082 C1083 1.387 . S
C1083 H1068 0.930 . S
C1083 C1078 1.390 . S
C1083 C1082 1.387 . S
H1084 C1096 0.930 . S
H1085 C1098 0.930 . S
H1086 C1099 0.930 . S
H1087 C1103 0.959 . S
H1088 C1103 0.959 . S
H1089 C1103 0.961 . S
H1090 C1104 0.960 . S
H1091 C1104 0.961 . S
H1092 C1104 0.959 . S
H1093 C1107 0.929 . S
H1094 C1108 0.931 . S
H1095 C1110 0.930 . S
C1096 H1084 0.930 . S
C1096 C1097 1.399 . S
C1096 C1101 1.399 . S
C1097 C1096 1.399 . S
C1097 C1098 1.376 . S
C1098 H1085 0.930 . S
C1098 C1097 1.376 . S
C1098 C1099 1.388 . S
C1099 H1086 0.930 . S
C1099 C1098 1.388 . S
C1099 C1100 1.390 . S
C1100 C1099 1.390 . S
C1100 C1101 1.394 . S
C1100 C1106 1.465 . S
C1101 C1096 1.399 . S
C1101 C1100 1.394 . S
C1101 C1102 1.516 . S
C1102 C1101 1.516 . S
C1102 C1103 1.502 . S
C1102 C1104 1.561 . S
C1102 C1105 1.526 . S
C1103 H1087 0.959 . S
C1103 H1088 0.959 . S
C1103 H1089 0.961 . S
C1103 C1102 1.502 . S
C1104 H1090 0.960 . S
C1104 H1091 0.961 . S
C1104 H1092 0.959 . S
C1104 C1102 1.561 . S
C1105 C1102 1.526 . S
C1105 C1106 1.396 . S
C1105 C1110 1.390 . S
C1106 C1100 1.465 . S
C1106 C1105 1.396 . S
C1106 C1107 1.399 . S
C1107 H1093 0.929 . S
C1107 C1106 1.399 . S
C1107 C1108 1.385 . S
C1108 H1094 0.931 . S
C1108 C1107 1.385 . S
C1108 C1109 1.389 . S
C1109 C1108 1.389 . S
C1109 C1110 1.387 . S
C1110 H1095 0.930 . S
C1110 C1105 1.390 . S
C1110 C1109 1.387 . S
H1111 C1123 0.930 . S
H1112 C1125 0.930 . S
H1113 C1126 0.930 . S
H1114 C1130 0.959 . S
H1115 C1130 0.959 . S
H1116 C1130 0.961 . S
H1117 C1131 0.960 . S
H1118 C1131 0.961 . S
H1119 C1131 0.959 . S
H1120 C1134 0.929 . S
H1121 C1135 0.931 . S
H1122 C1137 0.930 . S
C1123 H1111 0.930 . S
C1123 C1124 1.399 . S
C1123 C1128 1.399 . S
C1124 C1123 1.399 . S
C1124 C1125 1.376 . S
C1125 H1112 0.930 . S
C1125 C1124 1.376 . S
C1125 C1126 1.388 . S
C1126 H1113 0.930 . S
C1126 C1125 1.388 . S
C1126 C1127 1.390 . S
C1127 C1126 1.390 . S
C1127 C1128 1.394 . S
C1127 C1133 1.465 . S
C1128 C1123 1.399 . S
C1128 C1127 1.394 . S
C1128 C1129 1.516 . S
C1129 C1128 1.516 . S
C1129 C1130 1.502 . S
C1129 C1131 1.561 . S
C1129 C1132 1.526 . S
C1130 H1114 0.959 . S
C1130 H1115 0.959 . S
C1130 H1116 0.961 . S
C1130 C1129 1.502 . S
C1131 H1117 0.960 . S
C1131 H1118 0.961 . S
C1131 H1119 0.959 . S
C1131 C1129 1.561 . S
C1132 C1129 1.526 . S
C1132 C1133 1.396 . S
C1132 C1137 1.390 . S
C1133 C1127 1.465 . S
C1133 C1132 1.396 . S
C1133 C1134 1.399 . S
C1134 H1120 0.929 . S
C1134 C1133 1.399 . S
C1134 C1135 1.385 . S
C1135 H1121 0.931 . S
C1135 C1134 1.385 . S
C1135 C1136 1.389 . S
C1136 C1135 1.389 . S
C1136 C1137 1.387 . S
C1137 H1122 0.930 . S
C1137 C1132 1.390 . S
C1137 C1136 1.387 . S
H1138 C1150 0.930 . S
H1139 C1152 0.930 . S
H1140 C1153 0.930 . S
H1141 C1157 0.959 . S
H1142 C1157 0.959 . S
H1143 C1157 0.961 . S
H1144 C1158 0.960 . S
H1145 C1158 0.961 . S
H1146 C1158 0.959 . S
H1147 C1161 0.929 . S
H1148 C1162 0.931 . S
H1149 C1164 0.930 . S
C1150 H1138 0.930 . S
C1150 C1151 1.399 . S
C1150 C1155 1.399 . S
C1151 C1150 1.399 . S
C1151 C1152 1.376 . S
C1152 H1139 0.930 . S
C1152 C1151 1.376 . S
C1152 C1153 1.388 . S
C1153 H1140 0.930 . S
C1153 C1152 1.388 . S
C1153 C1154 1.390 . S
C1154 C1153 1.390 . S
C1154 C1155 1.394 . S
C1154 C1160 1.465 . S
C1155 C1150 1.399 . S
C1155 C1154 1.394 . S
C1155 C1156 1.516 . S
C1156 C1155 1.516 . S
C1156 C1157 1.502 . S
C1156 C1158 1.561 . S
C1156 C1159 1.526 . S
C1157 H1141 0.959 . S
C1157 H1142 0.959 . S
C1157 H1143 0.961 . S
C1157 C1156 1.502 . S
C1158 H1144 0.960 . S
C1158 H1145 0.961 . S
C1158 H1146 0.959 . S
C1158 C1156 1.561 . S
C1159 C1156 1.526 . S
C1159 C1160 1.396 . S
C1159 C1164 1.390 . S
C1160 C1154 1.465 . S
C1160 C1159 1.396 . S
C1160 C1161 1.399 . S
C1161 H1147 0.929 . S
C1161 C1160 1.399 . S
C1161 C1162 1.385 . S
C1162 H1148 0.931 . S
C1162 C1161 1.385 . S
C1162 C1163 1.389 . S
C1163 C1162 1.389 . S
C1163 C1164 1.387 . S
C1164 H1149 0.930 . S
C1164 C1159 1.390 . S
C1164 C1163 1.387 . S
H1165 C1177 0.930 . S
H1166 C1179 0.930 . S
H1167 C1180 0.930 . S
H1168 C1184 0.959 . S
H1169 C1184 0.959 . S
H1170 C1184 0.961 . S
H1171 C1185 0.960 . S
H1172 C1185 0.961 . S
H1173 C1185 0.959 . S
H1174 C1188 0.929 . S
H1175 C1189 0.931 . S
H1176 C1191 0.930 . S
C1177 H1165 0.930 . S
C1177 C1178 1.399 . S
C1177 C1182 1.399 . S
C1178 C1177 1.399 . S
C1178 C1179 1.376 . S
C1179 H1166 0.930 . S
C1179 C1178 1.376 . S
C1179 C1180 1.388 . S
C1180 H1167 0.930 . S
C1180 C1179 1.388 . S
C1180 C1181 1.390 . S
C1181 C1180 1.390 . S
C1181 C1182 1.394 . S
C1181 C1187 1.465 . S
C1182 C1177 1.399 . S
C1182 C1181 1.394 . S
C1182 C1183 1.516 . S
C1183 C1182 1.516 . S
C1183 C1184 1.502 . S
C1183 C1185 1.561 . S
C1183 C1186 1.526 . S
C1184 H1168 0.959 . S
C1184 H1169 0.959 . S
C1184 H1170 0.961 . S
C1184 C1183 1.502 . S
C1185 H1171 0.960 . S
C1185 H1172 0.961 . S
C1185 H1173 0.959 . S
C1185 C1183 1.561 . S
C1186 C1183 1.526 . S
C1186 C1187 1.396 . S
C1186 C1191 1.390 . S
C1187 C1181 1.465 . S
C1187 C1186 1.396 . S
C1187 C1188 1.399 . S
C1188 H1174 0.929 . S
C1188 C1187 1.399 . S
C1188 C1189 1.385 . S
C1189 H1175 0.931 . S
C1189 C1188 1.385 . S
C1189 C1190 1.389 . S
C1190 C1189 1.389 . S
C1190 C1191 1.387 . S
C1191 H1176 0.930 . S
C1191 C1186 1.390 . S
C1191 C1190 1.387 . S
H1192 C1204 0.930 . S
H1193 C1206 0.930 . S
H1194 C1207 0.930 . S
H1195 C1211 0.959 . S
H1196 C1211 0.959 . S
H1197 C1211 0.961 . S
H1198 C1212 0.960 . S
H1199 C1212 0.961 . S
H1200 C1212 0.959 . S
H1201 C1215 0.929 . S
H1202 C1216 0.931 . S
H1203 C1218 0.930 . S
C1204 H1192 0.930 . S
C1204 C1205 1.399 . S
C1204 C1209 1.399 . S
C1205 C1204 1.399 . S
C1205 C1206 1.376 . S
C1206 H1193 0.930 . S
C1206 C1205 1.376 . S
C1206 C1207 1.388 . S
C1207 H1194 0.930 . S
C1207 C1206 1.388 . S
C1207 C1208 1.390 . S
C1208 C1207 1.390 . S
C1208 C1209 1.394 . S
C1208 C1214 1.465 . S
C1209 C1204 1.399 . S
C1209 C1208 1.394 . S
C1209 C1210 1.516 . S
C1210 C1209 1.516 . S
C1210 C1211 1.502 . S
C1210 C1212 1.561 . S
C1210 C1213 1.526 . S
C1211 H1195 0.959 . S
C1211 H1196 0.959 . S
C1211 H1197 0.961 . S
C1211 C1210 1.502 . S
C1212 H1198 0.960 . S
C1212 H1199 0.961 . S
C1212 H1200 0.959 . S
C1212 C1210 1.561 . S
C1213 C1210 1.526 . S
C1213 C1214 1.396 . S
C1213 C1218 1.390 . S
C1214 C1208 1.465 . S
C1214 C1213 1.396 . S
C1214 C1215 1.399 . S
C1215 H1201 0.929 . S
C1215 C1214 1.399 . S
C1215 C1216 1.385 . S
C1216 H1202 0.931 . S
C1216 C1215 1.385 . S
C1216 C1217 1.389 . S
C1217 C1216 1.389 . S
C1217 C1218 1.387 . S
C1218 H1203 0.930 . S
C1218 C1213 1.390 . S
C1218 C1217 1.387 . S
H1219 C1231 0.930 . S
H1220 C1233 0.930 . S
H1221 C1234 0.930 . S
H1222 C1238 0.959 . S
H1223 C1238 0.959 . S
H1224 C1238 0.961 . S
H1225 C1239 0.960 . S
H1226 C1239 0.961 . S
H1227 C1239 0.959 . S
H1228 C1242 0.929 . S
H1229 C1243 0.931 . S
H1230 C1245 0.930 . S
C1231 H1219 0.930 . S
C1231 C1232 1.399 . S
C1231 C1236 1.399 . S
C1232 C1231 1.399 . S
C1232 C1233 1.376 . S
C1233 H1220 0.930 . S
C1233 C1232 1.376 . S
C1233 C1234 1.388 . S
C1234 H1221 0.930 . S
C1234 C1233 1.388 . S
C1234 C1235 1.390 . S
C1235 C1234 1.390 . S
C1235 C1236 1.394 . S
C1235 C1241 1.465 . S
C1236 C1231 1.399 . S
C1236 C1235 1.394 . S
C1236 C1237 1.516 . S
C1237 C1236 1.516 . S
C1237 C1238 1.502 . S
C1237 C1239 1.561 . S
C1237 C1240 1.526 . S
C1238 H1222 0.959 . S
C1238 H1223 0.959 . S
C1238 H1224 0.961 . S
C1238 C1237 1.502 . S
C1239 H1225 0.960 . S
C1239 H1226 0.961 . S
C1239 H1227 0.959 . S
C1239 C1237 1.561 . S
C1240 C1237 1.526 . S
C1240 C1241 1.396 . S
C1240 C1245 1.390 . S
C1241 C1235 1.465 . S
C1241 C1240 1.396 . S
C1241 C1242 1.399 . S
C1242 H1228 0.929 . S
C1242 C1241 1.399 . S
C1242 C1243 1.385 . S
C1243 H1229 0.931 . S
C1243 C1242 1.385 . S
C1243 C1244 1.389 . S
C1244 C1243 1.389 . S
C1244 C1245 1.387 . S
C1245 H1230 0.930 . S
C1245 C1240 1.390 . S
C1245 C1244 1.387 . S
H1246 C1258 0.930 . S
H1247 C1260 0.930 . S
H1248 C1261 0.930 . S
H1249 C1265 0.959 . S
H1250 C1265 0.959 . S
H1251 C1265 0.961 . S
H1252 C1266 0.960 . S
H1253 C1266 0.961 . S
H1254 C1266 0.959 . S
H1255 C1269 0.929 . S
H1256 C1270 0.931 . S
H1257 C1272 0.930 . S
C1258 H1246 0.930 . S
C1258 C1259 1.399 . S
C1258 C1263 1.399 . S
C1259 C1258 1.399 . S
C1259 C1260 1.376 . S
C1260 H1247 0.930 . S
C1260 C1259 1.376 . S
C1260 C1261 1.388 . S
C1261 H1248 0.930 . S
C1261 C1260 1.388 . S
C1261 C1262 1.390 . S
C1262 C1261 1.390 . S
C1262 C1263 1.394 . S
C1262 C1268 1.465 . S
C1263 C1258 1.399 . S
C1263 C1262 1.394 . S
C1263 C1264 1.516 . S
C1264 C1263 1.516 . S
C1264 C1265 1.502 . S
C1264 C1266 1.561 . S
C1264 C1267 1.526 . S
C1265 H1249 0.959 . S
C1265 H1250 0.959 . S
C1265 H1251 0.961 . S
C1265 C1264 1.502 . S
C1266 H1252 0.960 . S
C1266 H1253 0.961 . S
C1266 H1254 0.959 . S
C1266 C1264 1.561 . S
C1267 C1264 1.526 . S
C1267 C1268 1.396 . S
C1267 C1272 1.390 . S
C1268 C1262 1.465 . S
C1268 C1267 1.396 . S
C1268 C1269 1.399 . S
C1269 H1255 0.929 . S
C1269 C1268 1.399 . S
C1269 C1270 1.385 . S
C1270 H1256 0.931 . S
C1270 C1269 1.385 . S
C1270 C1271 1.389 . S
C1271 C1270 1.389 . S
C1271 C1272 1.387 . S
C1272 H1257 0.930 . S
C1272 C1267 1.390 . S
C1272 C1271 1.387 . S
H1273 C1285 0.930 . S
H1274 C1287 0.930 . S
H1275 C1288 0.930 . S
H1276 C1292 0.959 . S
H1277 C1292 0.959 . S
H1278 C1292 0.961 . S
H1279 C1293 0.960 . S
H1280 C1293 0.961 . S
H1281 C1293 0.959 . S
H1282 C1296 0.929 . S
H1283 C1297 0.931 . S
H1284 C1299 0.930 . S
C1285 H1273 0.930 . S
C1285 C1286 1.399 . S
C1285 C1290 1.399 . S
C1286 C1285 1.399 . S
C1286 C1287 1.376 . S
C1287 H1274 0.930 . S
C1287 C1286 1.376 . S
C1287 C1288 1.388 . S
C1288 H1275 0.930 . S
C1288 C1287 1.388 . S
C1288 C1289 1.390 . S
C1289 C1288 1.390 . S
C1289 C1290 1.394 . S
C1289 C1295 1.465 . S
C1290 C1285 1.399 . S
C1290 C1289 1.394 . S
C1290 C1291 1.516 . S
C1291 C1290 1.516 . S
C1291 C1292 1.502 . S
C1291 C1293 1.561 . S
C1291 C1294 1.526 . S
C1292 H1276 0.959 . S
C1292 H1277 0.959 . S
C1292 H1278 0.961 . S
C1292 C1291 1.502 . S
C1293 H1279 0.960 . S
C1293 H1280 0.961 . S
C1293 H1281 0.959 . S
C1293 C1291 1.561 . S
C1294 C1291 1.526 . S
C1294 C1295 1.396 . S
C1294 C1299 1.390 . S
C1295 C1289 1.465 . S
C1295 C1294 1.396 . S
C1295 C1296 1.399 . S
C1296 H1282 0.929 . S
C1296 C1295 1.399 . S
C1296 C1297 1.385 . S
C1297 H1283 0.931 . S
C1297 C1296 1.385 . S
C1297 C1298 1.389 . S
C1298 C1297 1.389 . S
C1298 C1299 1.387 . S
C1299 H1284 0.930 . S
C1299 C1294 1.390 . S
C1299 C1298 1.387 . S
H1300 C1312 0.930 . S
H1301 C1314 0.930 . S
H1302 C1315 0.930 . S
H1303 C1319 0.959 . S
H1304 C1319 0.959 . S
H1305 C1319 0.961 . S
H1306 C1320 0.960 . S
H1307 C1320 0.961 . S
H1308 C1320 0.959 . S
H1309 C1323 0.929 . S
H1310 C1324 0.931 . S
H1311 C1326 0.930 . S
C1312 H1300 0.930 . S
C1312 C1313 1.399 . S
C1312 C1317 1.399 . S
C1313 C1312 1.399 . S
C1313 C1314 1.376 . S
C1314 H1301 0.930 . S
C1314 C1313 1.376 . S
C1314 C1315 1.388 . S
C1315 H1302 0.930 . S
C1315 C1314 1.388 . S
C1315 C1316 1.390 . S
C1316 C1315 1.390 . S
C1316 C1317 1.394 . S
C1316 C1322 1.465 . S
C1317 C1312 1.399 . S
C1317 C1316 1.394 . S
C1317 C1318 1.516 . S
C1318 C1317 1.516 . S
C1318 C1319 1.502 . S
C1318 C1320 1.561 . S
C1318 C1321 1.526 . S
C1319 H1303 0.959 . S
C1319 H1304 0.959 . S
C1319 H1305 0.961 . S
C1319 C1318 1.502 . S
C1320 H1306 0.960 . S
C1320 H1307 0.961 . S
C1320 H1308 0.959 . S
C1320 C1318 1.561 . S
C1321 C1318 1.526 . S
C1321 C1322 1.396 . S
C1321 C1326 1.390 . S
C1322 C1316 1.465 . S
C1322 C1321 1.396 . S
C1322 C1323 1.399 . S
C1323 H1309 0.929 . S
C1323 C1322 1.399 . S
C1323 C1324 1.385 . S
C1324 H1310 0.931 . S
C1324 C1323 1.385 . S
C1324 C1325 1.389 . S
C1325 C1324 1.389 . S
C1325 C1326 1.387 . S
C1326 H1311 0.930 . S
C1326 C1321 1.390 . S
C1326 C1325 1.387 . S
H1327 C1339 0.930 . S
H1328 C1341 0.930 . S
H1329 C1342 0.930 . S
H1330 C1346 0.959 . S
H1331 C1346 0.959 . S
H1332 C1346 0.961 . S
H1333 C1347 0.960 . S
H1334 C1347 0.961 . S
H1335 C1347 0.959 . S
H1336 C1350 0.929 . S
H1337 C1351 0.931 . S
H1338 C1353 0.930 . S
C1339 H1327 0.930 . S
C1339 C1340 1.399 . S
C1339 C1344 1.399 . S
C1340 C1339 1.399 . S
C1340 C1341 1.376 . S
C1341 H1328 0.930 . S
C1341 C1340 1.376 . S
C1341 C1342 1.388 . S
C1342 H1329 0.930 . S
C1342 C1341 1.388 . S
C1342 C1343 1.390 . S
C1343 C1342 1.390 . S
C1343 C1344 1.394 . S
C1343 C1349 1.465 . S
C1344 C1339 1.399 . S
C1344 C1343 1.394 . S
C1344 C1345 1.516 . S
C1345 C1344 1.516 . S
C1345 C1346 1.502 . S
C1345 C1347 1.561 . S
C1345 C1348 1.526 . S
C1346 H1330 0.959 . S
C1346 H1331 0.959 . S
C1346 H1332 0.961 . S
C1346 C1345 1.502 . S
C1347 H1333 0.960 . S
C1347 H1334 0.961 . S
C1347 H1335 0.959 . S
C1347 C1345 1.561 . S
C1348 C1345 1.526 . S
C1348 C1349 1.396 . S
C1348 C1353 1.390 . S
C1349 C1343 1.465 . S
C1349 C1348 1.396 . S
C1349 C1350 1.399 . S
C1350 H1336 0.929 . S
C1350 C1349 1.399 . S
C1350 C1351 1.385 . S
C1351 H1337 0.931 . S
C1351 C1350 1.385 . S
C1351 C1352 1.389 . S
C1352 C1351 1.389 . S
C1352 C1353 1.387 . S
C1353 H1338 0.930 . S
C1353 C1348 1.390 . S
C1353 C1352 1.387 . S
H1354 C1366 0.930 . S
H1355 C1368 0.930 . S
H1356 C1369 0.930 . S
H1357 C1373 0.959 . S
H1358 C1373 0.959 . S
H1359 C1373 0.961 . S
H1360 C1374 0.960 . S
H1361 C1374 0.961 . S
H1362 C1374 0.959 . S
H1363 C1377 0.929 . S
H1364 C1378 0.931 . S
H1365 C1380 0.930 . S
C1366 H1354 0.930 . S
C1366 C1367 1.399 . S
C1366 C1371 1.399 . S
C1367 C1366 1.399 . S
C1367 C1368 1.376 . S
C1368 H1355 0.930 . S
C1368 C1367 1.376 . S
C1368 C1369 1.388 . S
C1369 H1356 0.930 . S
C1369 C1368 1.388 . S
C1369 C1370 1.390 . S
C1370 C1369 1.390 . S
C1370 C1371 1.394 . S
C1370 C1376 1.465 . S
C1371 C1366 1.399 . S
C1371 C1370 1.394 . S
C1371 C1372 1.516 . S
C1372 C1371 1.516 . S
C1372 C1373 1.502 . S
C1372 C1374 1.561 . S
C1372 C1375 1.526 . S
C1373 H1357 0.959 . S
C1373 H1358 0.959 . S
C1373 H1359 0.961 . S
C1373 C1372 1.502 . S
C1374 H1360 0.960 . S
C1374 H1361 0.961 . S
C1374 H1362 0.959 . S
C1374 C1372 1.561 . S
C1375 C1372 1.526 . S
C1375 C1376 1.396 . S
C1375 C1380 1.390 . S
C1376 C1370 1.465 . S
C1376 C1375 1.396 . S
C1376 C1377 1.399 . S
C1377 H1363 0.929 . S
C1377 C1376 1.399 . S
C1377 C1378 1.385 . S
C1378 H1364 0.931 . S
C1378 C1377 1.385 . S
C1378 C1379 1.389 . S
C1379 C1378 1.389 . S
C1379 C1380 1.387 . S
C1380 H1365 0.930 . S
C1380 C1375 1.390 . S
C1380 C1379 1.387 . S
H1381 C1393 0.930 . S
H1382 C1395 0.930 . S
H1383 C1396 0.930 . S
H1384 C1400 0.959 . S
H1385 C1400 0.959 . S
H1386 C1400 0.961 . S
H1387 C1401 0.960 . S
H1388 C1401 0.961 . S
H1389 C1401 0.959 . S
H1390 C1404 0.929 . S
H1391 C1405 0.931 . S
H1392 C1407 0.930 . S
C1393 H1381 0.930 . S
C1393 C1394 1.399 . S
C1393 C1398 1.399 . S
C1394 C1393 1.399 . S
C1394 C1395 1.376 . S
C1395 H1382 0.930 . S
C1395 C1394 1.376 . S
C1395 C1396 1.388 . S
C1396 H1383 0.930 . S
C1396 C1395 1.388 . S
C1396 C1397 1.390 . S
C1397 C1396 1.390 . S
C1397 C1398 1.394 . S
C1397 C1403 1.465 . S
C1398 C1393 1.399 . S
C1398 C1397 1.394 . S
C1398 C1399 1.516 . S
C1399 C1398 1.516 . S
C1399 C1400 1.502 . S
C1399 C1401 1.561 . S
C1399 C1402 1.526 . S
C1400 H1384 0.959 . S
C1400 H1385 0.959 . S
C1400 H1386 0.961 . S
C1400 C1399 1.502 . S
C1401 H1387 0.960 . S
C1401 H1388 0.961 . S
C1401 H1389 0.959 . S
C1401 C1399 1.561 . S
C1402 C1399 1.526 . S
C1402 C1403 1.396 . S
C1402 C1407 1.390 . S
C1403 C1397 1.465 . S
C1403 C1402 1.396 . S
C1403 C1404 1.399 . S
C1404 H1390 0.929 . S
C1404 C1403 1.399 . S
C1404 C1405 1.385 . S
C1405 H1391 0.931 . S
C1405 C1404 1.385 . S
C1405 C1406 1.389 . S
C1406 C1405 1.389 . S
C1406 C1407 1.387 . S
C1407 H1392 0.930 . S
C1407 C1402 1.390 . S
C1407 C1406 1.387 . S
H1408 C1420 0.930 1_455 S
H1409 C1422 0.930 . S
H1410 C1423 0.930 . S
H1411 C1427 0.959 . S
H1412 C1427 0.959 . S
H1413 C1427 0.961 . S
H1414 C1428 0.960 . S
H1415 C1428 0.961 . S
H1416 C1428 0.959 . S
H1417 C1431 0.929 . S
H1418 C1432 0.931 . S
H1419 C1434 0.930 . S
C1420 H1408 0.930 1_655 S
C1420 C1421 1.399 . S
C1420 C1425 1.399 1_655 S
C1421 C1420 1.399 . S
C1421 C1422 1.376 . S
C1422 H1409 0.930 . S
C1422 C1421 1.376 . S
C1422 C1423 1.388 . S
C1423 H1410 0.930 . S
C1423 C1422 1.388 . S
C1423 C1424 1.390 . S
C1424 C1423 1.390 . S
C1424 C1425 1.394 1_655 S
C1424 C1430 1.465 . S
C1425 C1420 1.399 1_455 S
C1425 C1424 1.394 1_455 S
C1425 C1426 1.516 . S
C1426 C1425 1.516 . S
C1426 C1427 1.502 . S
C1426 C1428 1.561 . S
C1426 C1429 1.526 . S
C1427 H1411 0.959 . S
C1427 H1412 0.959 . S
C1427 H1413 0.961 . S
C1427 C1426 1.502 . S
C1428 H1414 0.960 . S
C1428 H1415 0.961 . S
C1428 H1416 0.959 . S
C1428 C1426 1.561 . S
C1429 C1426 1.526 . S
C1429 C1430 1.396 1_455 S
C1429 C1434 1.390 . S
C1430 C1424 1.465 . S
C1430 C1429 1.396 1_655 S
C1430 C1431 1.399 . S
C1431 H1417 0.929 . S
C1431 C1430 1.399 . S
C1431 C1432 1.385 . S
C1432 H1418 0.931 . S
C1432 C1431 1.385 . S
C1432 C1433 1.389 1_655 S
C1433 C1432 1.389 1_455 S
C1433 C1434 1.387 . S
C1434 H1419 0.930 . S
C1434 C1429 1.390 . S
C1434 C1433 1.387 . S
H1435 C1447 0.930 . S
H1436 C1449 0.930 . S
H1437 C1450 0.930 1_545 S
H1438 C1454 0.959 . S
H1439 C1454 0.959 . S
H1440 C1454 0.961 . S
H1441 C1455 0.960 . S
H1442 C1455 0.961 . S
H1443 C1455 0.959 . S
H1444 C1458 0.929 . S
H1445 C1459 0.931 . S
H1446 C1461 0.930 . S
C1447 H1435 0.930 . S
C1447 C1448 1.399 . S
C1447 C1452 1.399 . S
C1448 C1447 1.399 . S
C1448 C1449 1.376 . S
C1449 H1436 0.930 . S
C1449 C1448 1.376 . S
C1449 C1450 1.388 . S
C1450 H1437 0.930 1_565 S
C1450 C1449 1.388 . S
C1450 C1451 1.392 . S
C1451 C1450 1.392 . S
C1451 C1452 1.399 . S
C1451 C1457 1.459 1_565 S
C1452 C1447 1.399 . S
C1452 C1451 1.399 . S
C1452 C1453 1.516 . S
C1453 C1452 1.516 . S
C1453 C1454 1.502 . S
C1453 C1455 1.561 1_565 S
C1453 C1456 1.526 1_565 S
C1454 H1438 0.959 . S
C1454 H1439 0.959 . S
C1454 H1440 0.961 . S
C1454 C1453 1.502 . S
C1455 H1441 0.960 . S
C1455 H1442 0.961 . S
C1455 H1443 0.959 . S
C1455 C1453 1.561 1_545 S
C1456 C1453 1.526 1_545 S
C1456 C1457 1.396 . S
C1456 C1461 1.390 . S
C1457 C1451 1.459 1_545 S
C1457 C1456 1.396 . S
C1457 C1458 1.399 . S
C1458 H1444 0.929 . S
C1458 C1457 1.399 . S
C1458 C1459 1.385 . S
C1459 H1445 0.931 . S
C1459 C1458 1.385 . S
C1459 C1460 1.389 . S
C1460 C1459 1.389 . S
C1460 C1461 1.387 . S
C1461 H1446 0.930 . S
C1461 C1456 1.390 . S
C1461 C1460 1.387 . S
H1462 C1474 0.930 . S
H1463 C1476 0.930 . S
H1464 C1477 0.930 . S
H1465 C1481 0.959 . S
H1466 C1481 0.959 . S
H1467 C1481 0.961 1_545 S
H1468 C1482 0.960 . S
H1469 C1482 0.961 1_565 S
H1470 C1482 0.959 . S
H1471 C1485 0.929 . S
H1472 C1486 0.931 . S
H1473 C1488 0.930 . S
C1474 H1462 0.930 . S
C1474 C1475 1.399 . S
C1474 C1479 1.399 . S
C1475 C1474 1.399 . S
C1475 C1476 1.376 . S
C1476 H1463 0.930 . S
C1476 C1475 1.376 . S
C1476 C1477 1.388 . S
C1477 H1464 0.930 . S
C1477 C1476 1.388 . S
C1477 C1478 1.390 . S
C1478 C1477 1.390 . S
C1478 C1479 1.394 . S
C1478 C1484 1.465 1_545 S
C1479 C1474 1.399 . S
C1479 C1478 1.394 . S
C1479 C1480 1.516 1_545 S
C1480 C1479 1.516 1_565 S
C1480 C1481 1.502 . S
C1480 C1482 1.561 1_565 S
C1480 C1483 1.526 . S
C1481 H1465 0.959 . S
C1481 H1466 0.959 . S
C1481 H1467 0.961 1_565 S
C1481 C1480 1.502 . S
C1482 H1468 0.960 . S
C1482 H1469 0.961 1_545 S
C1482 H1470 0.959 . S
C1482 C1480 1.561 1_545 S
C1483 C1480 1.526 . S
C1483 C1484 1.396 . S
C1483 C1488 1.390 . S
C1484 C1478 1.465 1_565 S
C1484 C1483 1.396 . S
C1484 C1485 1.399 . S
C1485 H1471 0.929 . S
C1485 C1484 1.399 . S
C1485 C1486 1.385 . S
C1486 H1472 0.931 . S
C1486 C1485 1.385 . S
C1486 C1487 1.389 . S
C1487 C1486 1.389 . S
C1487 C1488 1.387 . S
C1488 H1473 0.930 . S
C1488 C1483 1.390 . S
C1488 C1487 1.387 . S
H1489 C1501 0.930 . S
H1490 C1503 0.930 . S
H1491 C1504 0.930 . S
H1492 C1508 0.959 . S
H1493 C1508 0.959 . S
H1494 C1508 0.961 . S
H1495 C1509 0.932 1_655 S
H1496 C1509 0.981 . S
H1497 C1509 0.973 . S
H1498 C1512 0.929 . S
H1499 C1513 0.931 . S
H1500 C1515 0.930 . S
C1501 H1489 0.930 . S
C1501 C1502 1.399 . S
C1501 C1506 1.399 . S
C1502 C1501 1.399 . S
C1502 C1503 1.376 . S
C1503 H1490 0.930 . S
C1503 C1502 1.376 . S
C1503 C1504 1.388 . S
C1504 H1491 0.930 . S
C1504 C1503 1.388 . S
C1504 C1505 1.390 . S
C1505 C1504 1.390 . S
C1505 C1506 1.394 . S
C1505 C1511 1.465 1_655 S
C1506 C1501 1.399 . S
C1506 C1505 1.394 . S
C1506 C1507 1.516 . S
C1507 C1506 1.516 . S
C1507 C1508 1.502 . S
C1507 C1509 1.556 1_655 S
C1507 C1510 1.526 1_655 S
C1508 H1492 0.959 . S
C1508 H1493 0.959 . S
C1508 H1494 0.961 . S
C1508 C1507 1.502 . S
C1509 H1495 0.932 1_455 S
C1509 H1496 0.981 . S
C1509 H1497 0.973 . S
C1509 C1507 1.556 1_455 S
C1510 C1507 1.526 1_455 S
C1510 C1511 1.396 . S
C1510 C1515 1.390 . S
C1511 C1505 1.465 1_455 S
C1511 C1510 1.396 . S
C1511 C1512 1.399 . S
C1512 H1498 0.929 . S
C1512 C1511 1.399 . S
C1512 C1513 1.385 . S
C1513 H1499 0.931 . S
C1513 C1512 1.385 . S
C1513 C1514 1.389 . S
C1514 C1513 1.389 . S
C1514 C1515 1.387 . S
C1515 H1500 0.930 . S
C1515 C1510 1.390 . S
C1515 C1514 1.387 . S
H1516 C1528 0.930 . S
H1517 C1530 0.930 . S
H1518 C1531 0.930 . S
H1519 C1535 0.959 . S
H1520 C1535 0.959 . S
H1521 C1535 0.961 . S
H1522 C1536 0.960 . S
H1523 C1536 0.961 . S
H1524 C1536 0.959 . S
H1525 C1539 0.929 . S
H1526 C1540 0.931 . S
H1527 C1542 0.930 . S
C1528 H1516 0.930 . S
C1528 C1529 1.399 . S
C1528 C1533 1.399 . S
C1529 C1528 1.399 . S
C1529 C1530 1.376 . S
C1530 H1517 0.930 . S
C1530 C1529 1.376 . S
C1530 C1531 1.388 . S
C1531 H1518 0.930 . S
C1531 C1530 1.388 . S
C1531 C1532 1.390 . S
C1532 C1531 1.390 . S
C1532 C1533 1.394 . S
C1532 C1538 1.465 1_655 S
C1533 C1528 1.399 . S
C1533 C1532 1.394 . S
C1533 C1534 1.516 1_655 S
C1534 C1533 1.516 1_455 S
C1534 C1535 1.502 1_455 S
C1534 C1536 1.561 . S
C1534 C1537 1.526 . S
C1535 H1519 0.959 . S
C1535 H1520 0.959 . S
C1535 H1521 0.961 . S
C1535 C1534 1.502 1_655 S
C1536 H1522 0.960 . S
C1536 H1523 0.961 . S
C1536 H1524 0.959 . S
C1536 C1534 1.561 . S
C1537 C1534 1.526 . S
C1537 C1538 1.396 . S
C1537 C1542 1.390 . S
C1538 C1532 1.465 1_455 S
C1538 C1537 1.396 . S
C1538 C1539 1.399 . S
C1539 H1525 0.929 . S
C1539 C1538 1.399 . S
C1539 C1540 1.385 . S
C1540 H1526 0.931 . S
C1540 C1539 1.385 . S
C1540 C1541 1.389 . S
C1541 C1540 1.389 . S
C1541 C1542 1.387 . S
C1542 H1527 0.930 . S
C1542 C1537 1.390 . S
C1542 C1541 1.387 . S
H1543 C1555 0.930 . S
H1544 C1557 0.930 . S
H1545 C1558 0.930 . S
H1546 C1562 0.959 . S
H1547 C1562 0.959 . S
H1548 C1562 0.961 . S
H1549 C1563 0.960 . S
H1550 C1563 0.961 . S
H1551 C1563 0.959 . S
H1552 C1566 0.929 . S
H1553 C1567 0.931 . S
H1554 C1569 0.930 . S
C1555 H1543 0.930 . S
C1555 C1556 1.399 . S
C1555 C1560 1.399 . S
C1556 C1555 1.399 . S
C1556 C1557 1.376 . S
C1557 H1544 0.930 . S
C1557 C1556 1.376 . S
C1557 C1558 1.388 1_545 S
C1558 H1545 0.930 . S
C1558 C1557 1.388 1_565 S
C1558 C1559 1.390 . S
C1559 C1558 1.390 . S
C1559 C1560 1.394 1_565 S
C1559 C1565 1.465 . S
C1560 C1555 1.399 . S
C1560 C1559 1.394 1_545 S
C1560 C1561 1.516 . S
C1561 C1560 1.516 . S
C1561 C1562 1.502 . S
C1561 C1563 1.561 1_545 S
C1561 C1564 1.526 1_545 S
C1562 H1546 0.959 . S
C1562 H1547 0.959 . S
C1562 H1548 0.961 . S
C1562 C1561 1.502 . S
C1563 H1549 0.960 . S
C1563 H1550 0.961 . S
C1563 H1551 0.959 . S
C1563 C1561 1.561 1_565 S
C1564 C1561 1.526 1_565 S
C1564 C1565 1.396 . S
C1564 C1569 1.390 . S
C1565 C1559 1.465 . S
C1565 C1564 1.396 . S
C1565 C1566 1.399 . S
C1566 H1552 0.929 . S
C1566 C1565 1.399 . S
C1566 C1567 1.385 . S
C1567 H1553 0.931 . S
C1567 C1566 1.385 . S
C1567 C1568 1.389 . S
C1568 C1567 1.389 . S
C1568 C1569 1.387 . S
C1569 H1554 0.930 . S
C1569 C1564 1.390 . S
C1569 C1568 1.387 . S
H1570 C1582 0.930 . S
H1571 C1584 0.930 . S
H1572 C1585 0.930 . S
H1573 C1589 0.959 . S
H1574 C1589 0.959 . S
H1575 C1589 0.934 1_565 S
H1576 C1590 0.960 . S
H1577 C1590 0.961 1_545 S
H1578 C1590 0.959 . S
H1579 C1593 0.929 . S
H1580 C1594 0.931 . S
H1581 C1596 0.930 . S
C1582 H1570 0.930 . S
C1582 C1583 1.399 . S
C1582 C1587 1.399 . S
C1583 C1582 1.399 . S
C1583 C1584 1.376 . S
C1584 H1571 0.930 . S
C1584 C1583 1.376 . S
C1584 C1585 1.388 . S
C1585 H1572 0.930 . S
C1585 C1584 1.388 . S
C1585 C1586 1.390 . S
C1586 C1585 1.390 . S
C1586 C1587 1.394 . S
C1586 C1592 1.465 1_565 S
C1587 C1582 1.399 . S
C1587 C1586 1.394 . S
C1587 C1588 1.516 1_565 S
C1588 C1587 1.516 1_545 S
C1588 C1589 1.502 . S
C1588 C1590 1.561 1_545 S
C1588 C1591 1.526 . S
C1589 H1573 0.959 . S
C1589 H1574 0.959 . S
C1589 H1575 0.934 1_545 S
C1589 C1588 1.502 . S
C1590 H1576 0.960 . S
C1590 H1577 0.961 1_565 S
C1590 H1578 0.959 . S
C1590 C1588 1.561 1_565 S
C1591 C1588 1.526 . S
C1591 C1592 1.396 . S
C1591 C1596 1.390 . S
C1592 C1586 1.465 1_545 S
C1592 C1591 1.396 . S
C1592 C1593 1.399 . S
C1593 H1579 0.929 . S
C1593 C1592 1.399 . S
C1593 C1594 1.385 . S
C1594 H1580 0.931 . S
C1594 C1593 1.385 . S
C1594 C1595 1.389 . S
C1595 C1594 1.389 . S
C1595 C1596 1.387 . S
C1596 H1581 0.930 . S
C1596 C1591 1.390 . S
C1596 C1595 1.387 . S
H1597 C1609 0.930 . S
H1598 C1611 0.930 . S
H1599 C1612 0.930 . S
H1600 C1616 0.959 . S
H1601 C1616 0.959 . S
H1602 C1616 0.961 . S
H1603 C1617 0.960 . S
H1604 C1617 0.961 . S
H1605 C1617 0.959 . S
H1606 C1620 0.929 . S
H1607 C1621 0.931 . S
H1608 C1623 0.930 . S
C1609 H1597 0.930 . S
C1609 C1610 1.399 . S
C1609 C1614 1.399 . S
C1610 C1609 1.399 . S
C1610 C1611 1.376 . S
C1611 H1598 0.930 . S
C1611 C1610 1.376 . S
C1611 C1612 1.388 . S
C1612 H1599 0.930 . S
C1612 C1611 1.388 . S
C1612 C1613 1.390 . S
C1613 C1612 1.390 . S
C1613 C1614 1.394 . S
C1613 C1619 1.465 1_655 S
C1614 C1609 1.399 . S
C1614 C1613 1.394 . S
C1614 C1615 1.516 . S
C1615 C1614 1.516 . S
C1615 C1616 1.502 . S
C1615 C1617 1.561 . S
C1615 C1618 1.526 1_655 S
C1616 H1600 0.959 . S
C1616 H1601 0.959 . S
C1616 H1602 0.961 . S
C1616 C1615 1.502 . S
C1617 H1603 0.960 . S
C1617 H1604 0.961 . S
C1617 H1605 0.959 . S
C1617 C1615 1.561 . S
C1618 C1615 1.526 1_455 S
C1618 C1619 1.396 . S
C1618 C1623 1.390 . S
C1619 C1613 1.465 1_455 S
C1619 C1618 1.396 . S
C1619 C1620 1.399 . S
C1620 H1606 0.929 . S
C1620 C1619 1.399 . S
C1620 C1621 1.385 . S
C1621 H1607 0.931 . S
C1621 C1620 1.385 . S
C1621 C1622 1.389 . S
C1622 C1621 1.389 . S
C1622 C1623 1.387 . S
C1623 H1608 0.930 . S
C1623 C1618 1.390 . S
C1623 C1622 1.387 . S
C557 C342 1.480 . S
C569 C2 1.481 . S
C584 C376 1.486 . S
C596 C36 1.489 . S
C611 C274 1.495 . S
C623 C70 1.494 . S
C638 C308 1.487 . S
C650 C104 1.485 . S
C665 C138 1.488 . S
C677 C478 1.486 . S
C692 C172 1.494 . S
C704 C512 1.495 . S
C719 C410 1.494 . S
C731 C206 1.493 . S
C746 C444 1.481 . S
C758 C240 1.481 . S
C773 C135 1.569 1_545 S
C785 C5 1.569 . S
C800 C39 1.554 . S
C812 C33 1.553 1_655 S
C827 C67 1.544 1_565 S
C839 C73 1.547 . S
C854 C107 1.559 . S
C866 C101 1.559 1_455 S
C881 C203 1.545 . S
C893 C141 1.548 . S
C908 C237 1.547 . S
C920 C175 1.551 . S
C935 C271 1.569 . S
C947 C209 1.569 . S
C962 C243 1.549 . S
C974 C169 1.548 . S
C989 C277 1.546 . S
C1001 C407 1.546 1_565 S
C1016 C311 1.546 . S
C1028 C305 1.547 1_455 S
C1043 C339 1.560 1_545 S
C1055 C345 1.555 . S
C1070 C379 1.557 . S
C1082 C373 1.550 1_655 S
C1097 C413 1.569 . S
C1109 C475 1.566 . S
C1124 C447 1.546 . S
C1136 C509 1.545 . S
C1151 C481 1.547 . S
C1163 C543 1.545 . S
C1178 C441 1.557 . S
C1190 C515 1.553 . S
C1205 C258 1.518 . S
C1217 C20 1.524 . S
C1232 C54 1.529 . S
C1244 C156 1.535 . S
C1259 C190 1.533 . S
C1271 C88 1.531 . S
C1286 C224 1.519 . S
C1298 C122 1.534 . S
C1313 C292 1.519 . S
C1325 C530 1.528 . S
C1340 C428 1.529 . S
C1352 C326 1.519 . S
C1367 C360 1.535 . S
C1379 C462 1.518 . S
C1394 C496 1.525 . S
C1406 C394 1.522 . S
C1421 C77 1.249 . S
C1433 C9 1.170 . S
C1448 C111 1.158 . S
C1460 C43 1.193 . S
C1475 C145 1.156 . S
C1487 C213 1.197 . S
C1502 C179 1.260 . S
C1514 C247 1.201 . S
C1529 C281 1.216 . S
C1541 C349 1.239 . S
C1556 C383 1.196 . S
C1568 C315 1.252 . S
C1583 C417 1.196 . S
C1595 C485 1.252 . S
C1610 C519 1.259 . S
C1622 C451 1.169 . S
