# Generated by pormake.
# Topology mok, (4)-cn, num edge types: 1
# Building blocks:
#     Node 0, Type 0, BuildingBlock: TATPOV_clean_sbu_0, # of connection points: 4
#     Node 1, Type 0, BuildingBlock: TATPOV_clean_sbu_0, # of connection points: 4
#     Node 2, Type 0, BuildingBlock: TATPOV_clean_sbu_0, # of connection points: 4
#     Node 3, Type 0, BuildingBlock: TATPOV_clean_sbu_0, # of connection points: 4
#     Node 4, Type 0, BuildingBlock: TATPOV_clean_sbu_0, # of connection points: 4
#     Node 5, Type 0, BuildingBlock: TATPOV_clean_sbu_0, # of connection points: 4
#     Node 6, Type 0, BuildingBlock: TATPOV_clean_sbu_0, # of connection points: 4
#     Node 7, Type 0, BuildingBlock: TATPOV_clean_sbu_0, # of connection points: 4
#     Edge 8, Type (0, 0), BuildingBlock: KIFKEQ_clean_linker_1, # of connection points: 2
#     Edge 9, Type (0, 0), BuildingBlock: KIFKEQ_clean_linker_1, # of connection points: 2
#     Edge 10, Type (0, 0), BuildingBlock: KIFKEQ_clean_linker_1, # of connection points: 2
#     Edge 11, Type (0, 0), BuildingBlock: KIFKEQ_clean_linker_1, # of connection points: 2
#     Edge 12, Type (0, 0), BuildingBlock: KIFKEQ_clean_linker_1, # of connection points: 2
#     Edge 13, Type (0, 0), BuildingBlock: KIFKEQ_clean_linker_1, # of connection points: 2
#     Edge 14, Type (0, 0), BuildingBlock: KIFKEQ_clean_linker_1, # of connection points: 2
#     Edge 15, Type (0, 0), BuildingBlock: KIFKEQ_clean_linker_1, # of connection points: 2
#     Edge 16, Type (0, 0), BuildingBlock: KIFKEQ_clean_linker_1, # of connection points: 2
#     Edge 17, Type (0, 0), BuildingBlock: KIFKEQ_clean_linker_1, # of connection points: 2
#     Edge 18, Type (0, 0), BuildingBlock: KIFKEQ_clean_linker_1, # of connection points: 2
#     Edge 19, Type (0, 0), BuildingBlock: KIFKEQ_clean_linker_1, # of connection points: 2
#     Edge 20, Type (0, 0), BuildingBlock: KIFKEQ_clean_linker_1, # of connection points: 2
#     Edge 21, Type (0, 0), BuildingBlock: KIFKEQ_clean_linker_1, # of connection points: 2
#     Edge 22, Type (0, 0), BuildingBlock: KIFKEQ_clean_linker_1, # of connection points: 2
#     Edge 23, Type (0, 0), BuildingBlock: KIFKEQ_clean_linker_1, # of connection points: 2
# Relax obj value: 0.024
# Max RMSD: 0.042
# Mean RMSD: 0.042
data_MOF--net-mok--node1-TATPOV_clean_sbu_0--edge1-KIFKEQ_clean_linker_1
_symmetry_space_group_name_H-M    P1
_symmetry_Int_Tables_number       1
_symmetry_cell_setting            triclinic
loop_
_symmetry_equiv_pos_as_xyz
'x, y, z'
_cell_length_a     45.030025
_cell_length_b     20.156047
_cell_length_c     27.944489
_cell_angle_alpha  89.746477
_cell_angle_beta   89.793662
_cell_angle_gamma 89.924551
loop_
_atom_site_label
_atom_site_type_symbol
_atom_site_fract_x
_atom_site_fract_y
_atom_site_fract_z
_atom_type_partial_charge
Zn0 Zn 0.6426 0.46897 -0.00888 0.0
Zn1 Zn 0.61765 0.34745 -0.00883 0.0
O2 O 0.60249 0.38961 0.05399 0.0
O3 O 0.62087 0.49093 0.05228 0.0
O4 O 0.59854 0.25631 -0.00798 0.0
O5 O 0.62222 0.49018 0.92929 0.0
O6 O 0.60171 0.39107 0.92871 0.0
C7 C 0.60504 0.44706 0.07244 0.0
C8 C 0.68597 0.36284 -0.00885 0.0
O9 O 0.66271 0.32671 -0.00881 0.0
O10 O 0.68352 0.42551 -0.00886 0.0
C11 C 0.57086 0.25014 0.00018 0.0
O12 O 0.55484 0.30377 0.00726 0.0
C13 C 0.60542 0.44814 0.90959 0.0
Zn14 Zn 0.42844 0.5494 -0.00786 0.0
Zn15 Zn 0.45628 0.66606 -0.00674 0.0
O16 O 0.47022 0.62223 0.05661 0.0
O17 O 0.44671 0.52655 0.05546 0.0
O18 O 0.4776 0.75462 -0.00828 0.0
O19 O 0.45013 0.52262 0.93268 0.0
O20 O 0.47199 0.6202 0.93169 0.0
C21 C 0.46438 0.56615 0.07581 0.0
C22 C 0.38754 0.65883 -0.0104 0.0
O23 O 0.41153 0.69231 -0.00772 0.0
O24 O 0.38866 0.59607 -0.01185 0.0
C25 C 0.47252 0.79929 0.02272 0.0
O26 O 0.45313 0.78734 0.05692 0.0
C27 C 0.46793 0.56314 0.91319 0.0
Zn28 Zn 0.63654 0.54716 0.48668 0.0
Zn29 Zn 0.61032 0.66635 0.49182 0.0
O30 O 0.59558 0.62763 0.42751 0.0
O31 O 0.61384 0.52613 0.42692 0.0
O32 O 0.58919 0.75521 0.49517 0.0
O33 O 0.61852 0.52083 0.54967 0.0
O34 O 0.59579 0.61744 0.55318 0.0
C35 C 0.59807 0.5709 0.40784 0.0
C36 C 0.67859 0.65586 0.48759 0.0
O37 O 0.65503 0.69064 0.49204 0.0
O38 O 0.67669 0.59339 0.48351 0.0
C39 C 0.59067 0.79594 0.46033 0.0
O40 O 0.60655 0.77998 0.42253 0.0
C41 C 0.60109 0.56022 0.57102 0.0
Zn42 Zn 0.42637 0.47206 0.49869 0.0
Zn43 Zn 0.4537 0.3542 0.49734 0.0
O44 O 0.46797 0.39865 0.4344 0.0
O45 O 0.44511 0.49526 0.43548 0.0
O46 O 0.47502 0.26545 0.49776 0.0
O47 O 0.44793 0.49712 0.55846 0.0
O48 O 0.4694 0.39898 0.55908 0.0
C49 C 0.46263 0.45496 0.41521 0.0
C50 C 0.38503 0.36323 0.50065 0.0
O51 O 0.40888 0.32898 0.4981 0.0
O52 O 0.38646 0.42596 0.50222 0.0
C53 C 0.47558 0.22817 0.46115 0.0
O54 O 0.46167 0.24745 0.42223 0.0
C55 C 0.46549 0.45601 0.57779 0.0
Zn56 Zn 0.14061 0.98192 -0.00836 0.0
Zn57 Zn 0.11534 0.85967 -0.00982 0.0
O58 O 0.10009 0.90109 0.05305 0.0
O59 O 0.11878 1.00213 0.0531 0.0
O60 O 0.09608 0.7684 -0.0112 0.0
O61 O 0.12013 1.00425 0.93003 0.0
O62 O 0.09951 0.90526 0.92866 0.0
C63 C 0.10275 0.95789 0.07239 0.0
C64 C 0.18372 0.875 -0.00944 0.0
O65 O 0.16039 0.83911 -0.00987 0.0
O66 O 0.18141 0.9377 -0.00876 0.0
C67 C 0.08944 0.7375 0.02719 0.0
O68 O 0.09553 0.76491 0.06856 0.0
C69 C 0.1032 0.96266 0.91011 0.0
Zn70 Zn 0.93451 0.04719 -0.00931 0.0
Zn71 Zn 0.95981 0.16935 -0.00953 0.0
O72 O 0.97461 0.12373 0.05253 0.0
O73 O 0.95572 0.02297 0.05164 0.0
O74 O 0.97963 0.26049 -0.00954 0.0
O75 O 0.95484 0.02693 0.92863 0.0
O76 O 0.97463 0.1268 0.92704 0.0
C77 C 0.97177 0.06637 0.07136 0.0
C78 C 0.89157 0.15502 -0.00858 0.0
O79 O 0.91488 0.19102 -0.00851 0.0
O80 O 0.89392 0.09232 -0.00894 0.0
C81 C 0.99238 0.28441 0.02715 0.0
O82 O 0.99271 0.24974 0.06704 0.0
C83 C 0.97102 0.06984 0.90811 0.0
Zn84 Zn 0.13646 0.04888 0.49127 0.0
Zn85 Zn 0.11183 0.17089 0.49265 0.0
O86 O 0.09747 0.13116 0.42878 0.0
O87 O 0.11545 0.02938 0.4294 0.0
O88 O 0.0926 0.26194 0.49321 0.0
O89 O 0.11542 0.02605 0.5524 0.0
O90 O 0.09532 0.12565 0.55411 0.0
C91 C 0.10009 0.07424 0.40952 0.0
C92 C 0.18005 0.15437 0.49387 0.0
O93 O 0.15689 0.19095 0.49397 0.0
O94 O 0.17744 0.09176 0.49272 0.0
C95 C 0.06476 0.26766 0.48667 0.0
O96 O 0.0489 0.21378 0.48017 0.0
C97 C 0.09865 0.06803 0.57251 0.0
Zn98 Zn 0.92601 0.97433 0.48564 0.0
Zn99 Zn 0.95137 0.85379 0.49255 0.0
O100 O 0.96725 0.89016 0.42805 0.0
O101 O 0.94991 0.99249 0.42595 0.0
O102 O 0.97108 0.76358 0.498 0.0
O103 O 0.94389 1.00017 0.54864 0.0
O104 O 0.96645 0.90335 0.55255 0.0
C105 C 0.96556 0.94683 0.40778 0.0
C106 C 0.88308 0.86769 0.48772 0.0
O107 O 0.90639 0.83232 0.49292 0.0
O108 O 0.8854 0.93 0.48259 0.0
C109 C 0.96587 0.71853 0.46743 0.0
O110 O 0.94734 0.73126 0.43234 0.0
C111 C 0.96137 0.96073 0.56993 0.0
H112 H 0.87645 0.2831 0.01391 0.0
H113 H 0.83872 0.09684 0.96889 0.0
H114 H 0.82703 0.33254 0.01533 0.0
H115 H 0.78957 0.14673 0.96792 0.0
H116 H 0.70105 0.23447 0.01324 0.0
H117 H 0.75048 0.18521 0.0149 0.0
H118 H 0.78817 0.37195 0.96828 0.0
H119 H 0.73895 0.42168 0.96902 0.0
C120 C 0.85763 0.25287 0.00387 0.0
C121 C 0.86158 0.18595 -0.00857 0.0
C122 C 0.8292 0.28132 0.00437 0.0
C123 C 0.804 0.24389 -0.00828 0.0
C124 C 0.80815 0.17703 -0.02113 0.0
C125 C 0.83648 0.1484 -0.02093 0.0
C126 C 0.71992 0.26495 0.00339 0.0
C127 C 0.716 0.33206 -0.00889 0.0
C128 C 0.74835 0.2366 0.00403 0.0
C129 C 0.77362 0.27432 -0.00833 0.0
C130 C 0.76952 0.3414 -0.02101 0.0
C131 C 0.74116 0.36993 -0.02096 0.0
H132 H 0.23714 0.93413 0.97126 0.0
H133 H 0.19821 0.74539 0.00928 0.0
H134 H 0.28618 0.88332 0.96971 0.0
H135 H 0.24737 0.69498 0.00999 0.0
H136 H 0.33458 0.60625 0.96198 0.0
H137 H 0.28607 0.65885 0.96111 0.0
H138 H 0.32483 0.8392 0.016 0.0
H139 H 0.37378 0.78701 0.01465 0.0
C140 C 0.23908 0.88181 -0.02029 0.0
C141 C 0.21367 0.84382 -0.00977 0.0
C142 C 0.26732 0.85265 -0.02083 0.0
C143 C 0.27102 0.78478 -0.01029 0.0
C144 C 0.24554 0.74702 0.0007 0.0
C145 C 0.21725 0.77602 0.00061 0.0
C146 C 0.3328 0.65723 0.97376 0.0
C147 C 0.35812 0.69235 -0.01154 0.0
C148 C 0.30482 0.68738 0.97364 0.0
C149 C 0.30119 0.75336 -0.0111 0.0
C150 C 0.32663 0.78867 0.00337 0.0
C151 C 0.35477 0.75866 0.00285 0.0
H152 H 0.83007 0.925 0.46358 0.0
H153 H 0.8682 0.73979 0.51179 0.0
H154 H 0.78105 0.87449 0.46289 0.0
H155 H 0.81895 0.68977 0.51296 0.0
H156 H 0.73186 0.59951 0.46398 0.0
H157 H 0.78073 0.65051 0.46339 0.0
H158 H 0.74206 0.83492 0.51177 0.0
H159 H 0.69289 0.7843 0.5105 0.0
C160 C 0.82798 0.87355 0.47441 0.0
C161 C 0.85316 0.83648 0.48768 0.0
C162 C 0.79974 0.84462 0.47435 0.0
C163 C 0.7958 0.77789 0.48797 0.0
C164 C 0.82104 0.74092 0.50146 0.0
C165 C 0.84934 0.76973 0.50108 0.0
C166 C 0.73373 0.651 0.47445 0.0
C167 C 0.70837 0.68776 0.48729 0.0
C168 C 0.76189 0.68023 0.47446 0.0
C169 C 0.7656 0.74695 0.48776 0.0
C170 C 0.74016 0.78374 0.50062 0.0
C171 C 0.71191 0.75461 0.50017 0.0
H172 H 0.23283 0.09313 0.51401 0.0
H173 H 0.19551 0.28382 0.47673 0.0
H174 H 0.28212 0.14217 0.5172 0.0
H175 H 0.24496 0.33251 0.47767 0.0
H176 H 0.33213 0.41723 0.52807 0.0
H177 H 0.28329 0.3664 0.5277 0.0
H178 H 0.32155 0.18553 0.47198 0.0
H179 H 0.3708 0.23588 0.47457 0.0
C180 C 0.23518 0.14551 0.50606 0.0
C181 C 0.21015 0.18456 0.49524 0.0
C182 C 0.26357 0.17365 0.50756 0.0
C183 C 0.26781 0.24154 0.4977 0.0
C184 C 0.2427 0.2804 0.48645 0.0
C185 C 0.21425 0.2524 0.48558 0.0
C186 C 0.33017 0.36649 0.51587 0.0
C187 C 0.35543 0.33069 0.50128 0.0
C188 C 0.30201 0.33738 0.51527 0.0
C189 C 0.29815 0.2718 0.49939 0.0
C190 C 0.32353 0.23578 0.48508 0.0
C191 C 0.35183 0.26472 0.48632 0.0
H192 H 0.57909 0.56254 0.10034 0.0
H193 H 0.60084 0.36558 0.14978 0.0
H194 H 0.56449 0.59379 0.18113 0.0
H195 H 0.58881 0.39735 0.23108 0.0
H196 H 0.57195 0.45753 0.37716 0.0
H197 H 0.5614 0.42729 0.29484 0.0
H198 H 0.58788 0.62411 0.24884 0.0
H199 H 0.59616 0.65478 0.33152 0.0
C200 C 0.58051 0.52583 0.12869 0.0
C201 C 0.59146 0.46201 0.1192 0.0
C202 C 0.57242 0.5438 0.17519 0.0
C203 C 0.57613 0.49903 0.21357 0.0
C204 C 0.5852 0.43358 0.20304 0.0
C205 C 0.5924 0.41512 0.15627 0.0
C206 C 0.57459 0.49468 0.34932 0.0
C207 C 0.58526 0.55811 0.36036 0.0
C208 C 0.56887 0.47725 0.30194 0.0
C209 C 0.57461 0.52226 0.26433 0.0
C210 C 0.58291 0.58768 0.27623 0.0
C211 C 0.58786 0.60555 0.32383 0.0
H212 H 0.49465 0.64437 0.13978 0.0
H213 H 0.46175 0.44529 0.11911 0.0
H214 H 0.50651 0.61674 0.22291 0.0
H215 H 0.47257 0.41858 0.20157 0.0
H216 H 0.49165 0.37436 0.35112 0.0
H217 H 0.50428 0.40094 0.2681 0.0
H218 H 0.47399 0.60224 0.28963 0.0
H219 H 0.46217 0.57627 0.37213 0.0
C220 C 0.49037 0.59454 0.15269 0.0
C221 C 0.47649 0.54762 0.12324 0.0
C222 C 0.49705 0.57875 0.20034 0.0
C223 C 0.48998 0.5158 0.2193 0.0
C224 C 0.47854 0.4674 0.18843 0.0
C225 C 0.47192 0.48309 0.14106 0.0
C226 C 0.48832 0.4246 0.33831 0.0
C227 C 0.47518 0.47272 0.36782 0.0
C228 C 0.49544 0.43981 0.2907 0.0
C229 C 0.48969 0.50346 0.27184 0.0
C230 C 0.47896 0.55285 0.30275 0.0
C231 C 0.47179 0.53765 0.3501 0.0
H232 H 0.46905 0.44143 0.8715 0.0
H233 H 0.49852 0.64336 0.85024 0.0
H234 H 0.48125 0.41593 0.78934 0.0
H235 H 0.5117 0.61719 0.7676 0.0
H236 H 0.46585 0.57691 0.62062 0.0
H237 H 0.47935 0.60207 0.70209 0.0
H238 H 0.51186 0.40179 0.72104 0.0
H239 H 0.4973 0.37583 0.63906 0.0
C240 C 0.47885 0.4801 0.84954 0.0
C241 C 0.48184 0.54508 0.86693 0.0
C242 C 0.48626 0.46516 0.80233 0.0
C243 C 0.49688 0.51485 0.77129 0.0
C244 C 0.50288 0.57811 0.79021 0.0
C245 C 0.4954 0.59313 0.83762 0.0
C246 C 0.47631 0.53833 0.64179 0.0
C247 C 0.47957 0.47369 0.62383 0.0
C248 C 0.48448 0.5531 0.68858 0.0
C249 C 0.4962 0.50363 0.71868 0.0
C250 C 0.50222 0.44065 0.69918 0.0
C251 C 0.49395 0.42578 0.65216 0.0
H252 H 0.60359 0.56948 0.86673 0.0
H253 H 0.57655 0.36597 0.84648 0.0
H254 H 0.59098 0.59484 0.78472 0.0
H255 H 0.56289 0.39203 0.76389 0.0
H256 H 0.60426 0.43864 0.61357 0.0
H257 H 0.5937 0.41099 0.69616 0.0
H258 H 0.55872 0.60826 0.71872 0.0
H259 H 0.57018 0.63669 0.63565 0.0
C260 C 0.59432 0.53031 0.845 0.0
C261 C 0.59197 0.46514 0.86275 0.0
C262 C 0.58666 0.54516 0.79788 0.0
C263 C 0.5764 0.49525 0.76717 0.0
C264 C 0.5714 0.43136 0.78624 0.0
C265 C 0.57913 0.41641 0.83362 0.0
C266 C 0.59387 0.47598 0.63583 0.0
C267 C 0.58892 0.54057 0.61837 0.0
C268 C 0.58743 0.45976 0.6833 0.0
C269 C 0.57582 0.5077 0.71459 0.0
C270 C 0.56828 0.57053 0.69591 0.0
C271 C 0.57477 0.58683 0.64823 0.0
H272 H 0.0996 0.87391 0.14828 0.0
H273 H 0.07636 0.07179 0.10266 0.0
H274 H 0.08892 0.90321 0.23054 0.0
H275 H 0.06296 0.10043 0.18458 0.0
H276 H 0.09784 0.15849 0.33354 0.0
H277 H 0.08844 0.12916 0.25095 0.0
H278 H 0.06249 0.93163 0.29615 0.0
H279 H 0.07449 0.96035 0.37838 0.0
C280 C 0.0911 0.92309 0.15585 0.0
C281 C 0.08945 0.97107 0.11958 0.0
C282 C 0.0847 0.94011 0.20317 0.0
C283 C 0.07575 1.00515 0.21503 0.0
C284 C 0.07105 0.05085 0.17751 0.0
C285 C 0.07838 0.03435 0.13041 0.0
C286 C 0.08959 0.10926 0.32571 0.0
C287 C 0.08752 0.06124 0.36192 0.0
C288 C 0.08395 0.09221 0.2782 0.0
C289 C 0.07538 0.02709 0.26608 0.0
C290 C 0.07033 0.98128 0.30344 0.0
C291 C 0.07683 0.99786 0.35073 0.0
H292 H 0.99404 0.05841 0.37806 0.0
H293 H 0.96831 0.86297 0.33208 0.0
H294 H 1.00851 0.08694 0.29651 0.0
H295 H 0.98026 0.89232 0.24998 0.0
H296 H 0.99625 0.95037 0.10237 0.0
H297 H 1.00768 0.91976 0.18475 0.0
H298 H 0.98409 0.11842 0.22976 0.0
H299 H 0.97534 0.14945 0.1472 0.0
C300 C 0.99175 0.02141 0.35032 0.0
C301 C 0.97968 0.95891 0.36095 0.0
C302 C 0.99967 0.03791 0.30339 0.0
C303 C 0.99472 0.99301 0.26577 0.0
C304 C 0.98474 0.92854 0.27745 0.0
C305 C 0.97764 0.91149 0.32467 0.0
C306 C 0.99436 0.98767 0.13001 0.0
C307 C 0.98444 0.05188 0.1188 0.0
C308 C 1.00055 0.97005 0.17737 0.0
C309 C 0.99584 0.01563 0.21474 0.0
C310 C 0.98822 0.08151 0.20255 0.0
C311 C 0.98296 0.09957 0.15501 0.0
H312 H 0.99708 0.88782 0.63017 0.0
H313 H 0.95549 0.08001 0.61449 0.0
H314 H 1.01207 0.91691 0.7113 0.0
H315 H 0.96957 0.10811 0.69531 0.0
H316 H 0.99463 0.15565 0.84126 0.0
H317 H 1.00423 0.13158 0.75693 0.0
H318 H 0.98372 0.92501 0.78269 0.0
H319 H 0.97512 0.94858 0.86635 0.0
C320 C 0.99145 0.9365 0.64375 0.0
C321 C 0.97441 0.98088 0.61628 0.0
C322 C 1.0 0.95319 0.69029 0.0
C323 C 0.99164 0.0145 0.71028 0.0
C324 C 0.97666 0.06067 0.68126 0.0
C325 C 0.9682 0.04411 0.63488 0.0
C326 C 0.99298 0.10487 0.82905 0.0
C327 C 0.98324 0.05441 0.86014 0.0
C328 C 0.99833 0.09108 0.78068 0.0
C329 C 0.99403 0.02662 0.76265 0.0
C330 C 0.98726 0.97522 0.79499 0.0
C331 C 0.98198 0.98895 0.84311 0.0
H332 H 0.10378 0.08322 0.86587 0.0
H333 H 0.07115 0.88313 0.84939 0.0
H334 H 0.09017 0.1085 0.78429 0.0
H335 H 0.05648 0.90923 0.76737 0.0
H336 H 0.09726 0.94665 0.61542 0.0
H337 H 0.08626 0.92217 0.69827 0.0
H338 H 0.05751 0.12472 0.71934 0.0
H339 H 0.06964 0.14995 0.63594 0.0
C340 C 0.09307 0.04488 0.84511 0.0
C341 C 0.08946 0.98045 0.86368 0.0
C342 C 0.08483 0.05975 0.79825 0.0
C343 C 0.07269 1.0106 0.76869 0.0
C344 C 0.06645 0.94786 0.78876 0.0
C345 C 0.0748 0.93288 0.83581 0.0
C346 C 0.08811 0.98588 0.63739 0.0
C347 C 0.08531 0.05088 0.61949 0.0
C348 C 0.08141 0.97155 0.68504 0.0
C349 C 0.07161 0.02181 0.71602 0.0
C350 C 0.06577 0.08522 0.69677 0.0
C351 C 0.07261 0.09968 0.64892 0.0
H352 H 0.46561 0.90595 0.0819 0.0
H353 H 0.51397 0.84046 0.95688 0.0
H354 H 0.48991 0.01366 0.07652 0.0
H355 H 0.53795 0.94875 0.95108 0.0
H356 H 0.59703 0.12872 -0.01404 0.0
H357 H 0.57392 0.01941 -0.00811 0.0
H358 H 0.48981 0.11167 0.02553 0.0
H359 H 0.51292 0.22063 0.02035 0.0
C360 C 0.4814 0.91449 0.05321 0.0
C361 C 0.48777 0.86449 0.01977 0.0
C362 C 0.49522 0.97648 0.04996 0.0
C363 C 0.51581 0.99007 0.01324 0.0
C364 C 0.52243 0.9398 -0.01991 0.0
C365 C 0.50855 0.87779 -0.01673 0.0
C366 C 0.5736 0.12568 -0.00541 0.0
C367 C 0.55686 0.18353 0.00275 0.0
C368 C 0.56032 0.06299 -0.00224 0.0
C369 C 0.53001 0.05667 0.00933 0.0
C370 C 0.51329 0.1146 0.01725 0.0
C371 C 0.52653 0.17719 0.01396 0.0
H372 H 0.5553 0.84451 0.53232 0.0
H373 H 0.58861 0.89204 0.3911 0.0
H374 H 0.52727 0.9483 0.53307 0.0
H375 H 0.56104 0.99603 0.39222 0.0
H376 H 0.48258 0.13953 0.38816 0.0
H377 H 0.51012 0.03545 0.38892 0.0
H378 H 0.53412 0.06844 0.53642 0.0
H379 H 0.50611 0.17222 0.53594 0.0
C380 C 0.55678 0.87719 0.50154 0.0
C381 C 0.57417 0.85978 0.4616 0.0
C382 C 0.54081 0.93689 0.50207 0.0
C383 C 0.5418 0.9805 0.46264 0.0
C384 C 0.55939 0.96321 0.4229 0.0
C385 C 0.57537 0.90367 0.42239 0.0
C386 C 0.49366 0.12462 0.42082 0.0
C387 C 0.49213 0.16438 0.46197 0.0
C388 C 0.50963 0.06505 0.42116 0.0
C389 C 0.52446 0.04359 0.46267 0.0
C390 C 0.52272 0.08309 0.50398 0.0
C391 C 0.50679 0.14281 0.50361 0.0
H392 H 0.06407 0.66977 0.10139 0.0
H393 H 0.08155 0.65624 0.94966 0.0
H394 H 0.04017 0.56185 0.0999 0.0
H395 H 0.05851 0.54662 0.9484 0.0
H396 H 0.98959 0.37844 0.95579 0.0
H397 H 1.01245 0.4883 0.95481 0.0
H398 H 0.05161 0.44818 0.09296 0.0
H399 H 1.028 0.34 0.09461 0.0
C400 C 0.06302 0.6435 0.06771 0.0
C401 C 0.07483 0.6716 0.02568 0.0
C402 C 0.04943 0.58124 0.06689 0.0
C403 C 0.04756 0.54493 0.0241 0.0
C404 C 0.05921 0.57332 -0.01809 0.0
C405 C 0.0726 0.63605 -0.01733 0.0
C406 C 1.00308 0.39322 -0.01408 0.0
C407 C 1.0068 0.35055 0.0254 0.0
C408 C 1.01635 0.45609 -0.01473 0.0
C409 C 0.0338 0.47756 0.02394 0.0
C410 C 0.03783 0.4342 0.06299 0.0
C411 C 1.02441 0.37177 0.06381 0.0
H412 H 1.00644 0.29626 0.46929 0.0
H413 H 0.09045 0.38933 0.50094 0.0
H414 H 0.98274 0.40485 0.46584 0.0
H415 H 0.06673 0.49824 0.4968 0.0
H416 H 1.00681 0.67668 0.53353 0.0
H417 H 1.03064 0.56804 0.53925 0.0
H418 H 0.98228 0.5031 0.41478 0.0
H419 H 0.95817 0.61111 0.40943 0.0
C420 C 1.01989 0.33987 0.47548 0.0
C421 C 0.05039 0.33398 0.48533 0.0
C422 C 1.00631 0.40223 0.47321 0.0
C423 C 1.02283 0.46036 0.48086 0.0
C424 C 0.05328 0.45447 0.4912 0.0
C425 C 0.06692 0.39203 0.49331 0.0
C426 C 1.00123 0.63921 0.50741 0.0
C427 C 0.98051 0.65266 0.47106 0.0
C428 C 1.01503 0.57703 0.51053 0.0
C429 C 1.00836 0.52676 0.47752 0.0
C430 C 0.98765 0.54033 0.4412 0.0
C431 C 0.97393 0.60248 0.43798 0.0
loop_
_geom_bond_atom_site_label_1
_geom_bond_atom_site_label_2
_geom_bond_distance
_geom_bond_site_symmetry_2
_ccdc_geom_bond_type
Zn0 O3 2.031 . S
Zn0 O5 2.049 1_554 S
Zn0 O10 2.066 1_554 S
Zn1 O2 1.962 . S
Zn1 O4 1.986 1_554 S
Zn1 O6 1.996 1_554 S
Zn1 O9 1.943 . S
O2 Zn1 1.962 . S
O2 C7 1.254 . S
O3 Zn0 2.031 . S
O3 C7 1.269 . S
O4 Zn1 1.986 1_556 S
O4 C11 1.262 1_556 S
O5 Zn0 2.049 1_556 S
O5 C13 1.260 . S
O6 Zn1 1.996 1_556 S
O6 C13 1.257 . S
C7 O2 1.254 . S
C7 O3 1.269 . S
C8 O9 1.249 . S
C8 O10 1.267 1_554 S
O9 Zn1 1.943 . S
O9 C8 1.249 . S
O10 Zn0 2.066 1_556 S
O10 C8 1.267 1_556 S
C11 O4 1.262 1_554 S
C11 O12 1.232 . S
O12 C11 1.232 . S
C13 O5 1.260 . S
C13 O6 1.257 . S
Zn14 O17 2.031 . S
Zn14 O19 2.049 1_554 S
Zn14 O24 2.066 1_554 S
Zn15 O16 1.962 . S
Zn15 O18 1.986 1_554 S
Zn15 O20 1.996 1_554 S
Zn15 O23 1.943 . S
O16 Zn15 1.962 . S
O16 C21 1.254 . S
O17 Zn14 2.031 . S
O17 C21 1.269 . S
O18 Zn15 1.986 1_556 S
O18 C25 1.262 1_556 S
O19 Zn14 2.049 1_556 S
O19 C27 1.260 . S
O20 Zn15 1.996 1_556 S
O20 C27 1.257 . S
C21 O16 1.254 . S
C21 O17 1.269 . S
C22 O23 1.249 . S
C22 O24 1.267 1_554 S
O23 Zn15 1.943 . S
O23 C22 1.249 . S
O24 Zn14 2.066 1_556 S
O24 C22 1.267 1_556 S
C25 O18 1.262 1_554 S
C25 O26 1.232 . S
O26 C25 1.232 . S
C27 O19 1.260 . S
C27 O20 1.257 . S
Zn28 O31 2.031 . S
Zn28 O33 2.049 . S
Zn28 O38 2.067 . S
Zn29 O30 1.962 . S
Zn29 O32 1.986 . S
Zn29 O34 1.996 . S
Zn29 O37 1.943 . S
O30 Zn29 1.962 . S
O30 C35 1.254 . S
O31 Zn28 2.031 . S
O31 C35 1.269 . S
O32 Zn29 1.986 . S
O32 C39 1.262 . S
O33 Zn28 2.049 . S
O33 C41 1.260 . S
O34 Zn29 1.996 . S
O34 C41 1.257 . S
C35 O30 1.254 . S
C35 O31 1.269 . S
C36 O37 1.249 . S
C36 O38 1.270 . S
O37 Zn29 1.943 . S
O37 C36 1.249 . S
O38 Zn28 2.067 . S
O38 C36 1.270 . S
C39 O32 1.262 . S
C39 O40 1.232 . S
O40 C39 1.232 . S
C41 O33 1.260 . S
C41 O34 1.257 . S
Zn42 O45 2.031 . S
Zn42 O47 2.049 . S
Zn42 O52 2.067 . S
Zn43 O44 1.962 . S
Zn43 O46 1.986 . S
Zn43 O48 1.996 . S
Zn43 O51 1.943 . S
O44 Zn43 1.962 . S
O44 C49 1.254 . S
O45 Zn42 2.031 . S
O45 C49 1.269 . S
O46 Zn43 1.986 . S
O46 C53 1.262 . S
O47 Zn42 2.049 . S
O47 C55 1.260 . S
O48 Zn43 1.996 . S
O48 C55 1.257 . S
C49 O44 1.254 . S
C49 O45 1.269 . S
C50 O51 1.249 . S
C50 O52 1.270 . S
O51 Zn43 1.943 . S
O51 C50 1.249 . S
O52 Zn42 2.067 . S
O52 C50 1.270 . S
C53 O46 1.262 . S
C53 O54 1.232 . S
O54 C53 1.232 . S
C55 O47 1.260 . S
C55 O48 1.257 . S
Zn56 O59 2.031 . S
Zn56 O61 2.049 1_554 S
Zn56 O66 2.066 1_554 S
Zn57 O58 1.962 . S
Zn57 O60 1.986 1_554 S
Zn57 O62 1.996 1_554 S
Zn57 O65 1.943 . S
O58 Zn57 1.962 . S
O58 C63 1.254 . S
O59 Zn56 2.031 . S
O59 C63 1.269 . S
O60 Zn57 1.986 1_556 S
O60 C67 1.262 1_556 S
O61 Zn56 2.049 1_556 S
O61 C69 1.260 . S
O62 Zn57 1.996 1_556 S
O62 C69 1.257 . S
C63 O58 1.254 . S
C63 O59 1.269 . S
C64 O65 1.249 . S
C64 O66 1.267 1_554 S
O65 Zn57 1.943 . S
O65 C64 1.249 . S
O66 Zn56 2.066 1_556 S
O66 C64 1.267 1_556 S
C67 O60 1.262 1_554 S
C67 O68 1.232 . S
O68 C67 1.232 . S
C69 O61 1.260 . S
C69 O62 1.257 . S
Zn70 O73 2.031 . S
Zn70 O75 2.049 1_554 S
Zn70 O80 2.066 1_554 S
Zn71 O72 1.962 . S
Zn71 O74 1.986 1_554 S
Zn71 O76 1.996 1_554 S
Zn71 O79 1.943 . S
O72 Zn71 1.962 . S
O72 C77 1.254 . S
O73 Zn70 2.031 . S
O73 C77 1.269 . S
O74 Zn71 1.986 1_556 S
O74 C81 1.262 1_556 S
O75 Zn70 2.049 1_556 S
O75 C83 1.260 . S
O76 Zn71 1.996 1_556 S
O76 C83 1.257 . S
C77 O72 1.254 . S
C77 O73 1.269 . S
C78 O79 1.249 . S
C78 O80 1.267 1_554 S
O79 Zn71 1.943 . S
O79 C78 1.249 . S
O80 Zn70 2.066 1_556 S
O80 C78 1.267 1_556 S
C81 O74 1.262 1_554 S
C81 O82 1.232 . S
O82 C81 1.232 . S
C83 O75 1.260 . S
C83 O76 1.257 . S
Zn84 O87 2.031 . S
Zn84 O89 2.049 . S
Zn84 O94 2.067 . S
Zn85 O86 1.962 . S
Zn85 O88 1.986 . S
Zn85 O90 1.996 . S
Zn85 O93 1.943 . S
O86 Zn85 1.962 . S
O86 C91 1.254 . S
O87 Zn84 2.031 . S
O87 C91 1.269 . S
O88 Zn85 1.986 . S
O88 C95 1.262 . S
O89 Zn84 2.049 . S
O89 C97 1.260 . S
O90 Zn85 1.996 . S
O90 C97 1.257 . S
C91 O86 1.254 . S
C91 O87 1.269 . S
C92 O93 1.249 . S
C92 O94 1.270 . S
O93 Zn85 1.943 . S
O93 C92 1.249 . S
O94 Zn84 2.067 . S
O94 C92 1.270 . S
C95 O88 1.262 . S
C95 O96 1.232 . S
O96 C95 1.232 . S
C97 O89 1.260 . S
C97 O90 1.257 . S
Zn98 O101 2.031 . S
Zn98 O103 2.049 . S
Zn98 O108 2.067 . S
Zn99 O100 1.962 . S
Zn99 O102 1.986 . S
Zn99 O104 1.996 . S
Zn99 O107 1.943 . S
O100 Zn99 1.962 . S
O100 C105 1.254 . S
O101 Zn98 2.031 . S
O101 C105 1.269 . S
O102 Zn99 1.986 . S
O102 C109 1.262 . S
O103 Zn98 2.049 . S
O103 C111 1.260 . S
O104 Zn99 1.996 . S
O104 C111 1.257 . S
C105 O100 1.254 . S
C105 O101 1.269 . S
C106 O107 1.249 . S
C106 O108 1.270 . S
O107 Zn99 1.943 . S
O107 C106 1.249 . S
O108 Zn98 2.067 . S
O108 C106 1.270 . S
C109 O102 1.262 . S
C109 O110 1.232 . S
O110 C109 1.232 . S
C111 O103 1.260 . S
C111 O104 1.257 . S
H112 C120 0.950 . S
H113 C125 0.950 . S
H114 C122 0.950 . S
H115 C124 0.950 . S
H116 C126 0.950 . S
H117 C128 0.950 . S
H118 C130 0.950 . S
H119 C131 0.950 . S
C120 H112 0.950 . S
C120 C121 1.386 1_556 S
C120 C122 1.391 . S
C121 C120 1.386 1_554 S
C121 C125 1.393 . S
C122 H114 0.950 . S
C122 C120 1.391 . S
C122 C123 1.400 1_556 S
C123 C122 1.400 1_554 S
C123 C124 1.398 . S
C123 C129 1.491 . S
C124 H115 0.950 . S
C124 C123 1.398 . S
C124 C125 1.391 . S
C125 H113 0.950 . S
C125 C121 1.393 . S
C125 C124 1.391 . S
C126 H116 0.950 . S
C126 C127 1.386 . S
C126 C128 1.391 . S
C127 C126 1.386 . S
C127 C131 1.393 1_554 S
C128 H117 0.950 . S
C128 C126 1.391 . S
C128 C129 1.400 . S
C129 C123 1.491 . S
C129 C128 1.400 . S
C129 C130 1.398 1_554 S
C130 H118 0.950 . S
C130 C129 1.398 1_556 S
C130 C131 1.391 . S
C131 H119 0.950 . S
C131 C127 1.393 1_556 S
C131 C130 1.391 . S
H132 C140 0.950 . S
H133 C145 0.950 1_556 S
H134 C142 0.950 . S
H135 C144 0.950 1_556 S
H136 C146 0.950 1_556 S
H137 C148 0.950 1_556 S
H138 C150 0.950 . S
H139 C151 0.950 . S
C140 H132 0.950 . S
C140 C141 1.386 . S
C140 C142 1.391 . S
C141 C140 1.386 . S
C141 C145 1.393 . S
C142 H134 0.950 . S
C142 C140 1.391 . S
C142 C143 1.400 . S
C143 C142 1.400 . S
C143 C144 1.398 . S
C143 C149 1.491 . S
C144 H135 0.950 1_554 S
C144 C143 1.398 . S
C144 C145 1.391 . S
C145 H133 0.950 1_554 S
C145 C141 1.393 . S
C145 C144 1.391 . S
C146 H136 0.950 1_554 S
C146 C147 1.386 . S
C146 C148 1.391 . S
C147 C146 1.386 . S
C147 C151 1.393 . S
C148 H137 0.950 1_554 S
C148 C146 1.391 . S
C148 C149 1.400 . S
C149 C143 1.491 . S
C149 C148 1.400 . S
C149 C150 1.398 . S
C150 H138 0.950 . S
C150 C149 1.398 . S
C150 C151 1.391 . S
C151 H139 0.950 . S
C151 C147 1.393 . S
C151 C150 1.391 . S
H152 C160 0.950 . S
H153 C165 0.950 . S
H154 C162 0.950 . S
H155 C164 0.950 . S
H156 C166 0.950 . S
H157 C168 0.950 . S
H158 C170 0.950 . S
H159 C171 0.950 . S
C160 H152 0.950 . S
C160 C161 1.386 . S
C160 C162 1.391 . S
C161 C160 1.386 . S
C161 C165 1.393 . S
C162 H154 0.950 . S
C162 C160 1.391 . S
C162 C163 1.400 . S
C163 C162 1.400 . S
C163 C164 1.398 . S
C163 C169 1.491 . S
C164 H155 0.950 . S
C164 C163 1.398 . S
C164 C165 1.391 . S
C165 H153 0.950 . S
C165 C161 1.393 . S
C165 C164 1.391 . S
C166 H156 0.950 . S
C166 C167 1.386 . S
C166 C168 1.391 . S
C167 C166 1.386 . S
C167 C171 1.393 . S
C168 H157 0.950 . S
C168 C166 1.391 . S
C168 C169 1.400 . S
C169 C163 1.491 . S
C169 C168 1.400 . S
C169 C170 1.398 . S
C170 H158 0.950 . S
C170 C169 1.398 . S
C170 C171 1.391 . S
C171 H159 0.950 . S
C171 C167 1.393 . S
C171 C170 1.391 . S
H172 C180 0.950 . S
H173 C185 0.950 . S
H174 C182 0.950 . S
H175 C184 0.950 . S
H176 C186 0.950 . S
H177 C188 0.950 . S
H178 C190 0.950 . S
H179 C191 0.950 . S
C180 H172 0.950 . S
C180 C181 1.386 . S
C180 C182 1.391 . S
C181 C180 1.386 . S
C181 C185 1.393 . S
C182 H174 0.950 . S
C182 C180 1.391 . S
C182 C183 1.400 . S
C183 C182 1.400 . S
C183 C184 1.398 . S
C183 C189 1.491 . S
C184 H175 0.950 . S
C184 C183 1.398 . S
C184 C185 1.391 . S
C185 H173 0.950 . S
C185 C181 1.393 . S
C185 C184 1.391 . S
C186 H176 0.950 . S
C186 C187 1.386 . S
C186 C188 1.391 . S
C187 C186 1.386 . S
C187 C191 1.393 . S
C188 H177 0.950 . S
C188 C186 1.391 . S
C188 C189 1.400 . S
C189 C183 1.491 . S
C189 C188 1.400 . S
C189 C190 1.398 . S
C190 H178 0.950 . S
C190 C189 1.398 . S
C190 C191 1.391 . S
C191 H179 0.950 . S
C191 C187 1.393 . S
C191 C190 1.391 . S
H192 C200 0.950 . S
H193 C205 0.950 . S
H194 C202 0.950 . S
H195 C204 0.950 . S
H196 C206 0.950 . S
H197 C208 0.950 . S
H198 C210 0.950 . S
H199 C211 0.950 . S
C200 H192 0.950 . S
C200 C201 1.386 . S
C200 C202 1.391 . S
C201 C200 1.386 . S
C201 C205 1.393 . S
C202 H194 0.950 . S
C202 C200 1.391 . S
C202 C203 1.400 . S
C203 C202 1.400 . S
C203 C204 1.398 . S
C203 C209 1.491 . S
C204 H195 0.950 . S
C204 C203 1.398 . S
C204 C205 1.391 . S
C205 H193 0.950 . S
C205 C201 1.393 . S
C205 C204 1.391 . S
C206 H196 0.950 . S
C206 C207 1.386 . S
C206 C208 1.391 . S
C207 C206 1.386 . S
C207 C211 1.393 . S
C208 H197 0.950 . S
C208 C206 1.391 . S
C208 C209 1.400 . S
C209 C203 1.491 . S
C209 C208 1.400 . S
C209 C210 1.398 . S
C210 H198 0.950 . S
C210 C209 1.398 . S
C210 C211 1.391 . S
C211 H199 0.950 . S
C211 C207 1.393 . S
C211 C210 1.391 . S
H212 C220 0.950 . S
H213 C225 0.950 . S
H214 C222 0.950 . S
H215 C224 0.950 . S
H216 C226 0.950 . S
H217 C228 0.950 . S
H218 C230 0.950 . S
H219 C231 0.950 . S
C220 H212 0.950 . S
C220 C221 1.386 . S
C220 C222 1.391 . S
C221 C220 1.386 . S
C221 C225 1.393 . S
C222 H214 0.950 . S
C222 C220 1.391 . S
C222 C223 1.400 . S
C223 C222 1.400 . S
C223 C224 1.398 . S
C223 C229 1.491 . S
C224 H215 0.950 . S
C224 C223 1.398 . S
C224 C225 1.391 . S
C225 H213 0.950 . S
C225 C221 1.393 . S
C225 C224 1.391 . S
C226 H216 0.950 . S
C226 C227 1.386 . S
C226 C228 1.391 . S
C227 C226 1.386 . S
C227 C231 1.393 . S
C228 H217 0.950 . S
C228 C226 1.391 . S
C228 C229 1.400 . S
C229 C223 1.491 . S
C229 C228 1.400 . S
C229 C230 1.398 . S
C230 H218 0.950 . S
C230 C229 1.398 . S
C230 C231 1.391 . S
C231 H219 0.950 . S
C231 C227 1.393 . S
C231 C230 1.391 . S
H232 C240 0.950 . S
H233 C245 0.950 . S
H234 C242 0.950 . S
H235 C244 0.950 . S
H236 C246 0.950 . S
H237 C248 0.950 . S
H238 C250 0.950 . S
H239 C251 0.950 . S
C240 H232 0.950 . S
C240 C241 1.386 . S
C240 C242 1.391 . S
C241 C240 1.386 . S
C241 C245 1.393 . S
C242 H234 0.950 . S
C242 C240 1.391 . S
C242 C243 1.400 . S
C243 C242 1.400 . S
C243 C244 1.398 . S
C243 C249 1.491 . S
C244 H235 0.950 . S
C244 C243 1.398 . S
C244 C245 1.391 . S
C245 H233 0.950 . S
C245 C241 1.393 . S
C245 C244 1.391 . S
C246 H236 0.950 . S
C246 C247 1.386 . S
C246 C248 1.391 . S
C247 C246 1.386 . S
C247 C251 1.393 . S
C248 H237 0.950 . S
C248 C246 1.391 . S
C248 C249 1.400 . S
C249 C243 1.491 . S
C249 C248 1.400 . S
C249 C250 1.398 . S
C250 H238 0.950 . S
C250 C249 1.398 . S
C250 C251 1.391 . S
C251 H239 0.950 . S
C251 C247 1.393 . S
C251 C250 1.391 . S
H252 C260 0.950 . S
H253 C265 0.950 . S
H254 C262 0.950 . S
H255 C264 0.950 . S
H256 C266 0.950 . S
H257 C268 0.950 . S
H258 C270 0.950 . S
H259 C271 0.950 . S
C260 H252 0.950 . S
C260 C261 1.386 . S
C260 C262 1.391 . S
C261 C260 1.386 . S
C261 C265 1.393 . S
C262 H254 0.950 . S
C262 C260 1.391 . S
C262 C263 1.400 . S
C263 C262 1.400 . S
C263 C264 1.398 . S
C263 C269 1.491 . S
C264 H255 0.950 . S
C264 C263 1.398 . S
C264 C265 1.391 . S
C265 H253 0.950 . S
C265 C261 1.393 . S
C265 C264 1.391 . S
C266 H256 0.950 . S
C266 C267 1.386 . S
C266 C268 1.391 . S
C267 C266 1.386 . S
C267 C271 1.393 . S
C268 H257 0.950 . S
C268 C266 1.391 . S
C268 C269 1.400 . S
C269 C263 1.491 . S
C269 C268 1.400 . S
C269 C270 1.398 . S
C270 H258 0.950 . S
C270 C269 1.398 . S
C270 C271 1.391 . S
C271 H259 0.950 . S
C271 C267 1.393 . S
C271 C270 1.391 . S
H272 C280 0.950 . S
H273 C285 0.950 1_545 S
H274 C282 0.950 . S
H275 C284 0.950 . S
H276 C286 0.950 . S
H277 C288 0.950 . S
H278 C290 0.950 . S
H279 C291 0.950 1_565 S
C280 H272 0.950 . S
C280 C281 1.386 . S
C280 C282 1.391 . S
C281 C280 1.386 . S
C281 C285 1.393 . S
C282 H274 0.950 . S
C282 C280 1.391 . S
C282 C283 1.400 . S
C283 C282 1.400 . S
C283 C284 1.398 1_565 S
C283 C289 1.491 1_565 S
C284 H275 0.950 . S
C284 C283 1.398 1_545 S
C284 C285 1.391 1_545 S
C285 H273 0.950 1_565 S
C285 C281 1.393 . S
C285 C284 1.391 1_565 S
C286 H276 0.950 . S
C286 C287 1.386 . S
C286 C288 1.391 . S
C287 C286 1.386 . S
C287 C291 1.393 . S
C288 H277 0.950 . S
C288 C286 1.391 . S
C288 C289 1.400 . S
C289 C283 1.491 1_545 S
C289 C288 1.400 . S
C289 C290 1.398 1_545 S
C290 H278 0.950 . S
C290 C289 1.398 1_565 S
C290 C291 1.391 1_565 S
C291 H279 0.950 1_545 S
C291 C287 1.393 . S
C291 C290 1.391 1_545 S
H292 C300 0.950 1_545 S
H293 C305 0.950 . S
H294 C302 0.950 . S
H295 C304 0.950 . S
H296 C306 0.950 1_565 S
H297 C308 0.950 . S
H298 C310 0.950 . S
H299 C311 0.950 . S
C300 H292 0.950 1_565 S
C300 C301 1.386 . S
C300 C302 1.391 1_565 S
C301 C300 1.386 . S
C301 C305 1.393 . S
C302 H294 0.950 . S
C302 C300 1.391 1_545 S
C302 C303 1.400 1_545 S
C303 C302 1.400 1_565 S
C303 C304 1.398 . S
C303 C309 1.491 1_565 S
C304 H295 0.950 . S
C304 C303 1.398 . S
C304 C305 1.391 . S
C305 H293 0.950 . S
C305 C301 1.393 . S
C305 C304 1.391 . S
C306 H296 0.950 1_545 S
C306 C307 1.386 . S
C306 C308 1.391 1_545 S
C307 C306 1.386 . S
C307 C311 1.393 . S
C308 H297 0.950 . S
C308 C306 1.391 1_565 S
C308 C309 1.400 1_565 S
C309 C303 1.491 1_545 S
C309 C308 1.400 1_545 S
C309 C310 1.398 . S
C310 H298 0.950 . S
C310 C309 1.398 . S
C310 C311 1.391 . S
C311 H299 0.950 . S
C311 C307 1.393 . S
C311 C310 1.391 . S
H312 C320 0.950 . S
H313 C325 0.950 . S
H314 C322 0.950 . S
H315 C324 0.950 1_545 S
H316 C326 0.950 . S
H317 C328 0.950 . S
H318 C330 0.950 1_565 S
H319 C331 0.950 . S
C320 H312 0.950 . S
C320 C321 1.386 . S
C320 C322 1.391 . S
C321 C320 1.386 . S
C321 C325 1.393 . S
C322 H314 0.950 . S
C322 C320 1.391 . S
C322 C323 1.400 . S
C323 C322 1.400 . S
C323 C324 1.398 . S
C323 C329 1.491 1_565 S
C324 H315 0.950 1_565 S
C324 C323 1.398 . S
C324 C325 1.391 . S
C325 H313 0.950 . S
C325 C321 1.393 . S
C325 C324 1.391 . S
C326 H316 0.950 . S
C326 C327 1.386 . S
C326 C328 1.391 . S
C327 C326 1.386 . S
C327 C331 1.393 . S
C328 H317 0.950 . S
C328 C326 1.391 . S
C328 C329 1.400 . S
C329 C323 1.491 1_545 S
C329 C328 1.400 . S
C329 C330 1.398 . S
C330 H318 0.950 1_545 S
C330 C329 1.398 . S
C330 C331 1.391 . S
C331 H319 0.950 . S
C331 C327 1.393 . S
C331 C330 1.391 . S
H332 C340 0.950 . S
H333 C345 0.950 . S
H334 C342 0.950 1_545 S
H335 C344 0.950 . S
H336 C346 0.950 . S
H337 C348 0.950 1_565 S
H338 C350 0.950 . S
H339 C351 0.950 . S
C340 H332 0.950 . S
C340 C341 1.386 . S
C340 C342 1.391 . S
C341 C340 1.386 . S
C341 C345 1.393 . S
C342 H334 0.950 1_565 S
C342 C340 1.391 . S
C342 C343 1.400 . S
C343 C342 1.400 . S
C343 C344 1.398 . S
C343 C349 1.491 1_565 S
C344 H335 0.950 . S
C344 C343 1.398 . S
C344 C345 1.391 . S
C345 H333 0.950 . S
C345 C341 1.393 . S
C345 C344 1.391 . S
C346 H336 0.950 . S
C346 C347 1.386 . S
C346 C348 1.391 . S
C347 C346 1.386 . S
C347 C351 1.393 . S
C348 H337 0.950 1_545 S
C348 C346 1.391 . S
C348 C349 1.400 . S
C349 C343 1.491 1_545 S
C349 C348 1.400 . S
C349 C350 1.398 . S
C350 H338 0.950 . S
C350 C349 1.398 . S
C350 C351 1.391 . S
C351 H339 0.950 . S
C351 C347 1.393 . S
C351 C350 1.391 . S
H352 C360 0.950 . S
H353 C365 0.950 . S
H354 C362 0.950 . S
H355 C364 0.950 . S
H356 C366 0.950 . S
H357 C368 0.950 . S
H358 C370 0.950 . S
H359 C371 0.950 . S
C360 H352 0.950 . S
C360 C361 1.386 . S
C360 C362 1.391 . S
C361 C360 1.386 . S
C361 C365 1.393 1_554 S
C362 H354 0.950 . S
C362 C360 1.391 . S
C362 C363 1.400 . S
C363 C362 1.400 . S
C363 C364 1.398 1_554 S
C363 C369 1.491 1_565 S
C364 H355 0.950 . S
C364 C363 1.398 1_556 S
C364 C365 1.391 . S
C365 H353 0.950 . S
C365 C361 1.393 1_556 S
C365 C364 1.391 . S
C366 H356 0.950 . S
C366 C367 1.386 1_556 S
C366 C368 1.391 . S
C367 C366 1.386 1_554 S
C367 C371 1.393 . S
C368 H357 0.950 . S
C368 C366 1.391 . S
C368 C369 1.400 1_556 S
C369 C363 1.491 1_545 S
C369 C368 1.400 1_554 S
C369 C370 1.398 . S
C370 H358 0.950 . S
C370 C369 1.398 . S
C370 C371 1.391 . S
C371 H359 0.950 . S
C371 C367 1.393 . S
C371 C370 1.391 . S
H372 C380 0.950 . S
H373 C385 0.950 . S
H374 C382 0.950 . S
H375 C384 0.950 . S
H376 C386 0.950 . S
H377 C388 0.950 . S
H378 C390 0.950 . S
H379 C391 0.950 . S
C380 H372 0.950 . S
C380 C381 1.386 . S
C380 C382 1.391 . S
C381 C380 1.386 . S
C381 C385 1.393 . S
C382 H374 0.950 . S
C382 C380 1.391 . S
C382 C383 1.400 . S
C383 C382 1.400 . S
C383 C384 1.398 . S
C383 C389 1.491 1_565 S
C384 H375 0.950 . S
C384 C383 1.398 . S
C384 C385 1.391 . S
C385 H373 0.950 . S
C385 C381 1.393 . S
C385 C384 1.391 . S
C386 H376 0.950 . S
C386 C387 1.386 . S
C386 C388 1.391 . S
C387 C386 1.386 . S
C387 C391 1.393 . S
C388 H377 0.950 . S
C388 C386 1.391 . S
C388 C389 1.400 . S
C389 C383 1.491 1_545 S
C389 C388 1.400 . S
C389 C390 1.398 . S
C390 H378 0.950 . S
C390 C389 1.398 . S
C390 C391 1.391 . S
C391 H379 0.950 . S
C391 C387 1.393 . S
C391 C390 1.391 . S
H392 C400 0.950 . S
H393 C405 0.950 . S
H394 C402 0.950 . S
H395 C404 0.950 . S
H396 C406 0.950 . S
H397 C408 0.950 . S
H398 C410 0.950 . S
H399 C411 0.950 . S
C400 H392 0.950 . S
C400 C401 1.386 . S
C400 C402 1.391 . S
C401 C400 1.386 . S
C401 C405 1.393 1_554 S
C402 H394 0.950 . S
C402 C400 1.391 . S
C402 C403 1.400 . S
C403 C402 1.400 . S
C403 C404 1.398 1_554 S
C403 C409 1.491 1_455 S
C404 H395 0.950 . S
C404 C403 1.398 1_556 S
C404 C405 1.391 . S
C405 H393 0.950 . S
C405 C401 1.393 1_556 S
C405 C404 1.391 . S
C406 H396 0.950 . S
C406 C407 1.386 1_556 S
C406 C408 1.391 . S
C407 C406 1.386 1_554 S
C407 C411 1.393 . S
C408 H397 0.950 . S
C408 C406 1.391 . S
C408 C409 1.400 1_556 S
C409 C403 1.491 1_655 S
C409 C408 1.400 1_554 S
C409 C410 1.398 . S
C410 H398 0.950 . S
C410 C409 1.398 . S
C410 C411 1.391 . S
C411 H399 0.950 . S
C411 C407 1.393 . S
C411 C410 1.391 . S
H412 C420 0.950 . S
H413 C425 0.950 . S
H414 C422 0.950 1_655 S
H415 C424 0.950 . S
H416 C426 0.950 . S
H417 C428 0.950 1_455 S
H418 C430 0.950 . S
H419 C431 0.950 . S
C420 H412 0.950 . S
C420 C421 1.386 . S
C420 C422 1.391 . S
C421 C420 1.386 . S
C421 C425 1.393 . S
C422 H414 0.950 1_455 S
C422 C420 1.391 . S
C422 C423 1.400 . S
C423 C422 1.400 . S
C423 C424 1.398 . S
C423 C429 1.491 1_455 S
C424 H415 0.950 . S
C424 C423 1.398 . S
C424 C425 1.391 . S
C425 H413 0.950 . S
C425 C421 1.393 . S
C425 C424 1.391 . S
C426 H416 0.950 . S
C426 C427 1.386 . S
C426 C428 1.391 . S
C427 C426 1.386 . S
C427 C431 1.393 . S
C428 H417 0.950 1_655 S
C428 C426 1.391 . S
C428 C429 1.400 . S
C429 C423 1.491 1_655 S
C429 C428 1.400 . S
C429 C430 1.398 . S
C430 H418 0.950 . S
C430 C429 1.398 . S
C430 C431 1.391 . S
C431 H419 0.950 . S
C431 C427 1.393 . S
C431 C430 1.391 . S
C121 C78 1.453 . S
C127 C8 1.447 . S
C141 C64 1.471 . S
C147 C22 1.457 . S
C161 C106 1.465 . S
C167 C36 1.450 . S
C181 C92 1.466 . S
C187 C50 1.471 . S
C201 C7 1.397 . S
C207 C35 1.391 . S
C221 C21 1.392 . S
C227 C49 1.394 . S
C241 C27 1.336 . S
C247 C55 1.347 . S
C261 C13 1.338 . S
C267 C41 1.347 . S
C281 C63 1.393 . S
C287 C91 1.401 . S
C301 C105 1.400 . S
C307 C77 1.392 . S
C321 C111 1.320 . S
C327 C83 1.311 . S
C341 C69 1.341 . S
C347 C97 1.345 . S
C361 C25 1.506 . S
C367 C11 1.509 . S
C381 C39 1.509 . S
C387 C53 1.505 . S
C401 C67 1.508 . S
C407 C81 1.508 . S
C421 C95 1.511 . S
C427 C109 1.505 . S
