# Generated by pormake.
# Topology wiy, (3)-cn, num edge types: 1
# Building blocks:
#     Node 0, Type 0, BuildingBlock: OLANEW_clean_sbu_2, # of connection points: 3
#     Node 1, Type 0, BuildingBlock: OLANEW_clean_sbu_2, # of connection points: 3
#     Node 2, Type 0, BuildingBlock: OLANEW_clean_sbu_2, # of connection points: 3
#     Node 3, Type 0, BuildingBlock: OLANEW_clean_sbu_2, # of connection points: 3
#     Node 4, Type 0, BuildingBlock: OLANEW_clean_sbu_2, # of connection points: 3
#     Node 5, Type 0, BuildingBlock: OLANEW_clean_sbu_2, # of connection points: 3
#     Node 6, Type 0, BuildingBlock: OLANEW_clean_sbu_2, # of connection points: 3
#     Node 7, Type 0, BuildingBlock: OLANEW_clean_sbu_2, # of connection points: 3
#     Node 8, Type 0, BuildingBlock: OLANEW_clean_sbu_2, # of connection points: 3
#     Node 9, Type 0, BuildingBlock: OLANEW_clean_sbu_2, # of connection points: 3
#     Node 10, Type 0, BuildingBlock: OLANEW_clean_sbu_2, # of connection points: 3
#     Node 11, Type 0, BuildingBlock: OLANEW_clean_sbu_2, # of connection points: 3
#     Edge 12, Type (0, 0), BuildingBlock: TEMPAE_clean_linker_10, # of connection points: 2
#     Edge 13, Type (0, 0), BuildingBlock: TEMPAE_clean_linker_10, # of connection points: 2
#     Edge 14, Type (0, 0), BuildingBlock: TEMPAE_clean_linker_10, # of connection points: 2
#     Edge 15, Type (0, 0), BuildingBlock: TEMPAE_clean_linker_10, # of connection points: 2
#     Edge 16, Type (0, 0), BuildingBlock: TEMPAE_clean_linker_10, # of connection points: 2
#     Edge 17, Type (0, 0), BuildingBlock: TEMPAE_clean_linker_10, # of connection points: 2
#     Edge 18, Type (0, 0), BuildingBlock: TEMPAE_clean_linker_10, # of connection points: 2
#     Edge 19, Type (0, 0), BuildingBlock: TEMPAE_clean_linker_10, # of connection points: 2
#     Edge 20, Type (0, 0), BuildingBlock: TEMPAE_clean_linker_10, # of connection points: 2
#     Edge 21, Type (0, 0), BuildingBlock: TEMPAE_clean_linker_10, # of connection points: 2
#     Edge 22, Type (0, 0), BuildingBlock: TEMPAE_clean_linker_10, # of connection points: 2
#     Edge 23, Type (0, 0), BuildingBlock: TEMPAE_clean_linker_10, # of connection points: 2
#     Edge 24, Type (0, 0), BuildingBlock: TEMPAE_clean_linker_10, # of connection points: 2
#     Edge 25, Type (0, 0), BuildingBlock: TEMPAE_clean_linker_10, # of connection points: 2
#     Edge 26, Type (0, 0), BuildingBlock: TEMPAE_clean_linker_10, # of connection points: 2
#     Edge 27, Type (0, 0), BuildingBlock: TEMPAE_clean_linker_10, # of connection points: 2
#     Edge 28, Type (0, 0), BuildingBlock: TEMPAE_clean_linker_10, # of connection points: 2
#     Edge 29, Type (0, 0), BuildingBlock: TEMPAE_clean_linker_10, # of connection points: 2
# Relax obj value: 0.011
# Max RMSD: 0.018
# Mean RMSD: 0.018
data_MOF--net-wiy--node1-OLANEW_clean_sbu_2--edge1-TEMPAE_clean_linker_10
_symmetry_space_group_name_H-M    P1
_symmetry_Int_Tables_number       1
_symmetry_cell_setting            triclinic
loop_
_symmetry_equiv_pos_as_xyz
'x, y, z'
_cell_length_a     59.625629
_cell_length_b     59.462146
_cell_length_c     28.135244
_cell_angle_alpha  90.2055
_cell_angle_beta   89.873974
_cell_angle_gamma 119.94231
loop_
_atom_site_label
_atom_site_type_symbol
_atom_site_fract_x
_atom_site_fract_y
_atom_site_fract_z
_atom_type_partial_charge
O0 O 0.13364 0.47622 0.00884 0.0
Cd1 Cd 0.13663 0.43726 -0.00599 0.0
O2 O 0.09993 0.45586 0.05594 0.0
Cd3 Cd 0.09164 0.4182 0.02797 0.0
O4 O 0.07206 0.39184 0.96867 0.0
C5 C 0.04927 0.38754 0.96093 0.0
O6 O 0.03928 0.39728 0.99066 0.0
C7 C 0.11762 0.47689 0.03794 0.0
C8 C 0.16095 0.42949 0.07179 0.0
O9 O 0.1741 0.44382 0.03685 0.0
O10 O 0.13622 0.4183 0.06945 0.0
O11 O 0.6536 0.12462 0.23097 0.0
Cd12 Cd 0.6903 0.11697 0.23042 0.0
O13 O 0.63092 0.08919 0.27307 0.0
Cd14 Cd 0.65601 0.07365 0.25373 0.0
O15 O 0.66144 0.05275 0.19496 0.0
C16 C 0.66102 0.06143 0.15395 0.0
O17 O 0.65959 0.08274 0.15097 0.0
C18 C 0.63336 0.10985 0.25483 0.0
C19 C 0.7264 0.14766 0.29901 0.0
O20 O 0.70536 0.12721 0.31069 0.0
O21 O 0.73066 0.15358 0.2549 0.0
O22 O 0.52814 0.65192 0.40014 0.0
Cd23 Cd 0.57307 0.6871 0.40618 0.0
O24 O 0.53728 0.62698 0.44393 0.0
Cd25 Cd 0.5788 0.65065 0.43091 0.0
O26 O 0.60817 0.65558 0.37895 0.0
C27 C 0.60329 0.65848 0.33618 0.0
O28 O 0.58271 0.66049 0.32755 0.0
C29 C 0.52065 0.63096 0.42313 0.0
C30 C 0.57696 0.72385 0.47234 0.0
O31 O 0.57476 0.70228 0.48571 0.0
O32 O 0.57764 0.72832 0.42769 0.0
O33 O 0.86131 0.52477 0.52245 0.0
Cd34 Cd 0.86001 0.56483 0.51059 0.0
O35 O 0.89385 0.54301 0.57258 0.0
Cd36 Cd 0.90401 0.58186 0.54886 0.0
O37 O 0.92728 0.60989 0.49421 0.0
C38 C 0.92419 0.6004 0.4526 0.0
O39 O 0.90635 0.57601 0.44598 0.0
C40 C 0.87631 0.52276 0.55204 0.0
C41 C 0.83374 0.57143 0.58676 0.0
O42 O 0.82156 0.55825 0.54997 0.0
O43 O 0.85846 0.58198 0.58714 0.0
O44 O 0.33322 0.87768 0.74211 0.0
Cd45 Cd 0.29249 0.87785 0.7343 0.0
O46 O 0.3337 0.86731 0.66718 0.0
Cd47 Cd 0.30449 0.87699 0.64485 0.0
O48 O 0.30223 0.90469 0.59702 0.0
C49 C 0.31502 0.90838 0.55882 0.0
O50 O 0.32618 0.89442 0.55121 0.0
C51 C 0.34332 0.87124 0.70872 0.0
C52 C 0.25886 0.84782 0.80673 0.0
O53 O 0.25999 0.83753 0.76734 0.0
O54 O 0.27331 0.87243 0.81158 0.0
O55 O 0.4567 0.34063 0.89518 0.0
Cd56 Cd 0.41586 0.29992 0.88614 0.0
O57 O 0.46323 0.34752 0.81832 0.0
Cd58 Cd 0.42453 0.31754 0.7965 0.0
O59 O 0.39375 0.3122 0.74778 0.0
C60 C 0.38843 0.3304 0.74875 0.0
O61 O 0.39997 0.3489 0.78063 0.0
C62 C 0.47103 0.35396 0.86085 0.0
C63 C 0.41189 0.26619 0.9587 0.0
O64 O 0.42353 0.26738 0.91964 0.0
O65 O 0.40164 0.28059 0.9631 0.0
O66 O 0.52462 0.87483 0.77032 0.0
Cd67 Cd 0.56882 0.88237 0.77365 0.0
O68 O 0.53918 0.91515 0.74781 0.0
Cd69 Cd 0.57862 0.92828 0.77176 0.0
O70 O 0.60456 0.94803 0.83134 0.0
C71 C 0.59248 0.94606 0.86977 0.0
O72 O 0.56709 0.93194 0.86965 0.0
C73 C 0.52028 0.89243 0.75514 0.0
C74 C 0.57446 0.85008 0.70862 0.0
O75 O 0.57445 0.87059 0.69495 0.0
O76 O 0.57218 0.84489 0.75312 0.0
O77 O 0.65827 0.52108 0.93677 0.0
Cd78 Cd 0.69941 0.56049 0.95271 0.0
O79 O 0.63576 0.54117 0.93566 0.0
Cd80 Cd 0.66633 0.57711 0.96691 0.0
O81 O 0.67177 0.60153 0.02893 0.0
C82 C 0.65703 0.58883 0.06327 0.0
O83 O 0.6421 0.5636 0.05843 0.0
C84 C 0.63698 0.5206 0.92989 0.0
C85 C 0.73295 0.56867 0.877 0.0
O86 O 0.73153 0.55459 0.91253 0.0
O87 O 0.7189 0.5794 0.87775 0.0
O88 O 0.12635 0.65743 0.13376 0.0
Cd89 Cd 0.12642 0.69783 0.15071 0.0
O90 O 0.09476 0.64399 0.08171 0.0
Cd91 Cd 0.08353 0.67149 0.10826 0.0
O92 O 0.06021 0.67581 0.16357 0.0
C93 C 0.0618 0.66714 0.20389 0.0
O94 O 0.07812 0.65853 0.20888 0.0
C95 C 0.1122 0.64117 0.10219 0.0
C96 C 0.15395 0.73376 0.07941 0.0
O97 O 0.16547 0.73148 0.11592 0.0
O98 O 0.12929 0.71937 0.07701 0.0
O99 O 0.46809 0.13639 0.29899 0.0
Cd100 Cd 0.42695 0.13564 0.30901 0.0
O101 O 0.45255 0.10539 0.24515 0.0
Cd102 Cd 0.41259 0.09309 0.26448 0.0
O103 O 0.3819 0.0652 0.31076 0.0
C104 C 0.38831 0.06587 0.35401 0.0
O105 O 0.41136 0.08424 0.36755 0.0
C106 C 0.4717 0.12268 0.26847 0.0
C107 C 0.41996 0.16267 0.23488 0.0
O108 O 0.43264 0.17445 0.27234 0.0
O109 O 0.41026 0.138 0.2327 0.0
O110 O 0.32386 0.47261 0.4458 0.0
Cd111 Cd 0.28216 0.43243 0.45146 0.0
O112 O 0.33952 0.45583 0.39492 0.0
Cd113 Cd 0.31037 0.41625 0.41378 0.0
O114 O 0.30758 0.38682 0.46347 0.0
C115 C 0.32815 0.38544 0.46566 0.0
O116 O 0.34718 0.39977 0.43639 0.0
C117 C 0.34171 0.47542 0.41742 0.0
C118 C 0.25246 0.42707 0.37109 0.0
O119 O 0.25199 0.43974 0.40766 0.0
O120 O 0.26668 0.41655 0.37278 0.0
O121 O 0.87559 0.34238 0.61047 0.0
Cd122 Cd 0.88146 0.30454 0.61409 0.0
O123 O 0.90732 0.3609 0.55864 0.0
Cd124 Cd 0.92238 0.33524 0.57662 0.0
O125 O 0.94476 0.32941 0.63157 0.0
C126 C 0.96598 0.34965 0.64204 0.0
O127 O 0.97315 0.37078 0.61698 0.0
C128 C 0.88876 0.3607 0.58144 0.0
C129 C 0.85007 0.26841 0.546 0.0
O130 O 0.84381 0.26484 0.59005 0.0
O131 O 0.87124 0.2887 0.53422 0.0
C132 C 0.2008 0.44269 0.12011 0.0
C133 C 0.17398 0.4268 0.11438 0.0
C134 C 0.21323 0.44161 0.16162 0.0
C135 C 0.19853 0.42403 0.19812 0.0
C136 C 0.17156 0.40743 0.19203 0.0
C137 C 0.15958 0.40911 0.15033 0.0
C138 C 0.24199 0.45977 0.16694 0.0
C139 C 0.15531 0.38822 0.22993 0.0
C140 C 0.23574 0.40891 0.29004 0.0
C141 C 0.23761 0.42529 0.32771 0.0
C142 C 0.22257 0.40785 0.24801 0.0
C143 C 0.21128 0.42377 0.24335 0.0
C144 C 0.21285 0.44011 0.28146 0.0
C145 C 0.22588 0.44057 0.32326 0.0
C146 C 0.22103 0.38995 0.20835 0.0
C147 C 0.20124 0.45754 0.27772 0.0
H148 H 0.21206 0.45645 0.09256 0.0
H149 H 0.13886 0.39669 0.14609 0.0
H150 H 0.24573 0.47289 0.19773 0.0
H151 H 0.2519 0.44855 0.17416 0.0
H152 H 0.25075 0.4718 0.13474 0.0
H153 H 0.13487 0.37572 0.21864 0.0
H154 H 0.16349 0.37563 0.23906 0.0
H155 H 0.1556 0.39874 0.26278 0.0
H156 H 0.24466 0.39695 0.29329 0.0
H157 H 0.22729 0.45333 0.35214 0.0
H158 H 0.23123 0.40149 0.17647 0.0
H159 H 0.20055 0.37686 0.19815 0.0
H160 H 0.22976 0.37794 0.21841 0.0
H161 H 0.21047 0.47141 0.24801 0.0
H162 H 0.20372 0.46874 0.31088 0.0
H163 H 0.18028 0.44583 0.26963 0.0
C164 C 0.82793 0.25969 0.46782 0.0
C165 C 0.83289 0.25017 0.50953 0.0
C166 C 0.81057 0.2427 0.43366 0.0
C167 C 0.79884 0.21555 0.44055 0.0
C168 C 0.8045 0.20587 0.48205 0.0
C169 C 0.82104 0.22336 0.51664 0.0
C170 C 0.80429 0.2538 0.39086 0.0
C171 C 0.7932 0.1771 0.48979 0.0
C172 C 0.73593 0.17077 0.37657 0.0
C173 C 0.7449 0.16435 0.3356 0.0
C174 C 0.75331 0.18764 0.41082 0.0
C175 C 0.78019 0.19735 0.40483 0.0
C176 C 0.78925 0.19018 0.36412 0.0
C177 C 0.77149 0.17421 0.32937 0.0
C178 C 0.74296 0.19562 0.45272 0.0
C179 C 0.81764 0.19929 0.35739 0.0
H180 H 0.83697 0.28049 0.46269 0.0
H181 H 0.82509 0.21609 0.54887 0.0
H182 H 0.80974 0.24753 0.35777 0.0
H183 H 0.78312 0.24633 0.38927 0.0
H184 H 0.81446 0.27535 0.39159 0.0
H185 H 0.80102 0.17285 0.5222 0.0
H186 H 0.77186 0.16757 0.49321 0.0
H187 H 0.79737 0.16826 0.45864 0.0
H188 H 0.71532 0.16325 0.38101 0.0
H189 H 0.77832 0.16901 0.29773 0.0
H190 H 0.75194 0.21707 0.45367 0.0
H191 H 0.74813 0.18968 0.48639 0.0
H192 H 0.72159 0.18691 0.45138 0.0
H193 H 0.82868 0.22068 0.35341 0.0
H194 H 0.82126 0.1904 0.32561 0.0
H195 H 0.82534 0.19443 0.38921 0.0
C196 C 0.56259 0.82697 0.63092 0.0
C197 C 0.57623 0.83248 0.67379 0.0
C198 C 0.56299 0.80929 0.59824 0.0
C199 C 0.57829 0.79773 0.6079 0.0
C200 C 0.59276 0.80391 0.6506 0.0
C201 C 0.59109 0.8208 0.68359 0.0
C202 C 0.54652 0.80248 0.55402 0.0
C203 C 0.61006 0.79276 0.66132 0.0
C204 C 0.56168 0.73409 0.54729 0.0
C205 C 0.57793 0.74273 0.50749 0.0
C206 C 0.56141 0.75182 0.58003 0.0
C207 C 0.57863 0.77873 0.57377 0.0
C208 C 0.59568 0.78746 0.53431 0.0
C209 C 0.59471 0.76935 0.501 0.0
C210 C 0.54226 0.74179 0.62059 0.0
C211 C 0.61498 0.81589 0.5274 0.0
H212 H 0.55091 0.83587 0.62366 0.0
H213 H 0.60178 0.82527 0.71668 0.0
H214 H 0.55889 0.80764 0.52188 0.0
H215 H 0.53292 0.78124 0.55269 0.0
H216 H 0.53515 0.81263 0.55251 0.0
H217 H 0.62141 0.80093 0.69445 0.0
H218 H 0.59827 0.77139 0.66511 0.0
H219 H 0.6237 0.79673 0.6314 0.0
H220 H 0.54855 0.71347 0.55195 0.0
H221 H 0.60741 0.77594 0.47031 0.0
H222 H 0.52976 0.7507 0.61923 0.0
H223 H 0.55263 0.74738 0.65507 0.0
H224 H 0.52972 0.72034 0.61963 0.0
H225 H 0.60468 0.82683 0.52133 0.0
H226 H 0.62809 0.81928 0.4968 0.0
H227 H 0.62687 0.82397 0.55997 0.0
C228 C 0.83306 0.59025 0.66621 0.0
C229 C 0.81959 0.57355 0.6283 0.0
C230 C 0.81993 0.59138 0.70686 0.0
C231 C 0.79274 0.57521 0.70986 0.0
C232 C 0.779 0.55865 0.67137 0.0
C233 C 0.79257 0.55812 0.63097 0.0
C234 C 0.8352 0.60953 0.74694 0.0
C235 C 0.75001 0.54095 0.67338 0.0
C236 C 0.76104 0.55604 0.83142 0.0
C237 C 0.74954 0.57157 0.83553 0.0
C238 C 0.77545 0.55732 0.79099 0.0
C239 C 0.77869 0.57476 0.75397 0.0
C240 C 0.76774 0.59101 0.75845 0.0
C241 C 0.75316 0.58912 0.79907 0.0
C242 C 0.78665 0.53952 0.78738 0.0
C243 C 0.77105 0.61006 0.71996 0.0
H244 H 0.85393 0.60233 0.66432 0.0
H245 H 0.78202 0.54513 0.60189 0.0
H246 H 0.82714 0.62227 0.75598 0.0
H247 H 0.8336 0.59815 0.7792 0.0
H248 H 0.85601 0.6219 0.73794 0.0
H249 H 0.74213 0.52976 0.63993 0.0
H250 H 0.74497 0.52706 0.70317 0.0
H251 H 0.74032 0.55243 0.68028 0.0
H252 H 0.75829 0.54239 0.85936 0.0
H253 H 0.74443 0.60127 0.80208 0.0
H254 H 0.80786 0.55102 0.7815 0.0
H255 H 0.77815 0.52636 0.75636 0.0
H256 H 0.78293 0.52753 0.81978 0.0
H257 H 0.7919 0.62291 0.712 0.0
H258 H 0.76254 0.6223 0.73002 0.0
H259 H 0.76165 0.59944 0.68676 0.0
C260 C 0.19581 0.76338 0.03876 0.0
C261 C 0.16878 0.75188 0.04049 0.0
C262 C 0.21006 0.77951 0.00084 0.0
C263 C 0.19701 0.78454 0.96405 0.0
C264 C 0.16979 0.77347 0.96614 0.0
C265 C 0.15597 0.75713 0.00418 0.0
C266 C 0.23904 0.79072 -0.00036 0.0
C267 C 0.15523 0.77866 0.9279 0.0
C268 C 0.23791 0.84319 0.88615 0.0
C269 C 0.24199 0.83162 0.84599 0.0
C270 C 0.22281 0.82806 0.92442 0.0
C271 C 0.21183 0.80076 0.92273 0.0
C272 C 0.21565 0.78896 0.88208 0.0
C273 C 0.23054 0.80452 0.84409 0.0
C274 C 0.21888 0.84131 0.96689 0.0
C275 C 0.20448 0.75994 0.87914 0.0
H276 H 0.20585 0.75934 0.06658 0.0
H277 H 0.1351 0.7484 0.00539 0.0
H278 H 0.24454 0.7838 0.96738 0.0
H279 H 0.24894 0.8122 -0.00238 0.0
H280 H 0.2463 0.78526 0.03138 0.0
H281 H 0.13424 0.76957 0.93588 0.0
H282 H 0.16333 0.79988 0.92366 0.0
H283 H 0.15757 0.77103 0.89333 0.0
H284 H 0.2466 0.86411 0.88778 0.0
H285 H 0.23367 0.79544 0.81326 0.0
H286 H 0.22761 0.83793 -0.00109 0.0
H287 H 0.19791 0.83294 0.97409 0.0
H288 H 0.22767 0.86257 0.96169 0.0
H289 H 0.21241 0.75344 0.90828 0.0
H290 H 0.20885 0.75375 0.8447 0.0
H291 H 0.18317 0.74987 0.88384 0.0
C292 C 0.42718 0.2384 -0.00281 0.0
C293 C 0.41113 0.24939 -0.00185 0.0
C294 C 0.42782 0.22367 0.0355 0.0
C295 C 0.41176 0.21954 0.07547 0.0
C296 C 0.39503 0.23002 0.07616 0.0
C297 C 0.39505 0.24499 0.03762 0.0
C298 C 0.44613 0.21306 0.03366 0.0
C299 C 0.37736 0.22572 0.11786 0.0
C300 C 0.39973 0.16402 0.15779 0.0
C301 C 0.41713 0.1772 0.1949 0.0
C302 C 0.3974 0.17758 0.11911 0.0
C303 C 0.41312 0.20493 0.11718 0.0
C304 C 0.43062 0.21834 0.15466 0.0
C305 C 0.43228 0.20434 0.19321 0.0
C306 C 0.37827 0.16264 0.08013 0.0
C307 C 0.44792 0.24747 0.15364 0.0
H308 H 0.43973 0.2418 0.9669 0.0
H309 H 0.38251 0.25332 0.03851 0.0
H310 H 0.46023 0.22132 0.0633 0.0
H311 H 0.43526 0.19169 0.0383 0.0
H312 H 0.457 0.21761 -0.00038 0.0
H313 H 0.36459 0.23407 0.11186 0.0
H314 H 0.36509 0.20464 0.12491 0.0
H315 H 0.38905 0.2347 0.15028 0.0
H316 H 0.38788 0.14306 0.15898 0.0
H317 H 0.44585 0.21465 0.22165 0.0
H318 H 0.38865 0.16529 0.04602 0.0
H319 H 0.3648 0.17024 0.07514 0.0
H320 H 0.36675 0.14154 0.08787 0.0
H321 H 0.46057 0.25317 0.12177 0.0
H322 H 0.46035 0.25499 0.18574 0.0
H323 H 0.43605 0.25702 0.15099 0.0
C324 C 0.13634 0.52464 0.0251 0.0
C325 C 0.11883 0.50187 0.04908 0.0
C326 C 0.13665 0.5481 0.03324 0.0
C327 C 0.11912 0.54885 0.06632 0.0
C328 C 0.10179 0.5261 0.0914 0.0
C329 C 0.10181 0.50288 0.08241 0.0
C330 C 0.15538 0.57196 0.00575 0.0
C331 C 0.08291 0.52618 0.1272 0.0
C332 C 0.1322 0.61351 0.11751 0.0
C333 C 0.11514 0.61838 0.09108 0.0
C334 C 0.13397 0.59114 0.10941 0.0
C335 C 0.1184 0.57325 0.07389 0.0
C336 C 0.10158 0.57833 0.04634 0.0
C337 C 0.10011 0.60079 0.05533 0.0
C338 C 0.15209 0.58635 0.13956 0.0
C339 C 0.08478 0.55979 0.00792 0.0
H340 H 0.14956 0.52408 -0.00075 0.0
H341 H 0.08826 0.48542 0.10122 0.0
H342 H 0.14451 0.57862 0.98342 0.0
H343 H 0.1675 0.58801 0.0306 0.0
H344 H 0.1683 0.56835 0.98239 0.0
H345 H 0.07134 0.50708 0.14491 0.0
H346 H 0.09345 0.54116 0.15481 0.0
H347 H 0.06945 0.53123 0.10932 0.0
H348 H 0.14388 0.62695 0.14524 0.0
H349 H 0.08693 0.6044 0.03463 0.0
H350 H 0.16567 0.58358 0.11657 0.0
H351 H 0.14085 0.56826 0.16034 0.0
H352 H 0.16353 0.60258 0.16463 0.0
H353 H 0.09692 0.55651 0.982 0.0
H354 H 0.07346 0.56704 0.98849 0.0
H355 H 0.0711 0.5407 0.02381 0.0
C356 C 0.50174 0.11052 0.22857 0.0
C357 C 0.49765 0.12532 0.26281 0.0
C358 C 0.52528 0.11058 0.22622 0.0
C359 C 0.54521 0.12574 0.259 0.0
C360 C 0.54165 0.14159 0.2923 0.0
C361 C 0.51793 0.14123 0.29374 0.0
C362 C 0.5284 0.09356 0.18993 0.0
C363 C 0.56245 0.15801 0.32781 0.0
C364 C 0.59043 0.10006 0.28766 0.0
C365 C 0.61194 0.11562 0.25897 0.0
C366 C 0.56894 0.10368 0.28897 0.0
C367 C 0.56886 0.12331 0.26077 0.0
C368 C 0.5908 0.13964 0.23284 0.0
C369 C 0.61212 0.13563 0.23234 0.0
C370 C 0.54599 0.08598 0.31951 0.0
C371 C 0.5914 0.16076 0.20234 0.0
H372 H 0.48628 0.0983 0.2043 0.0
H373 H 0.515 0.15278 0.32027 0.0
H374 H 0.54657 0.105 0.16951 0.0
H375 H 0.52981 0.07783 0.20831 0.0
H376 H 0.51194 0.08459 0.16459 0.0
H377 H 0.55763 0.17103 0.34836 0.0
H378 H 0.56508 0.14524 0.35312 0.0
H379 H 0.58124 0.17001 0.30952 0.0
H380 H 0.59014 0.08464 0.30857 0.0
H381 H 0.62864 0.14775 0.21005 0.0
H382 H 0.52887 0.07425 0.29665 0.0
H383 H 0.54102 0.09761 0.34375 0.0
H384 H 0.54965 0.07256 0.34119 0.0
H385 H 0.57648 0.15195 0.17412 0.0
H386 H 0.61055 0.17291 0.18522 0.0
H387 H 0.58668 0.17349 0.22398 0.0
C388 C 0.47493 0.61243 0.39434 0.0
C389 C 0.49296 0.61053 0.42361 0.0
C390 C 0.44913 0.59211 0.39173 0.0
C391 C 0.44119 0.56946 0.41919 0.0
C392 C 0.45907 0.56781 0.44991 0.0
C393 C 0.48471 0.58831 0.45168 0.0
C394 C 0.4306 0.59455 0.35856 0.0
C395 C 0.45131 0.54405 0.48005 0.0
C396 C 0.37052 0.52129 0.44452 0.0
C397 C 0.36593 0.50082 0.41367 0.0
C398 C 0.39462 0.54428 0.44536 0.0
C399 C 0.41455 0.54688 0.41449 0.0
C400 C 0.40961 0.52684 0.38163 0.0
C401 C 0.38539 0.50404 0.38168 0.0
C402 C 0.39914 0.56522 0.48089 0.0
C403 C 0.4303 0.52897 0.34783 0.0
H404 H 0.48112 0.62951 0.3725 0.0
H405 H 0.49843 0.58671 0.47461 0.0
H406 H 0.42457 0.57977 0.32994 0.0
H407 H 0.41285 0.59078 0.37797 0.0
H408 H 0.43932 0.61406 0.34196 0.0
H409 H 0.4672 0.54634 0.50376 0.0
H410 H 0.43427 0.53989 0.50225 0.0
H411 H 0.44561 0.52693 0.4568 0.0
H412 H 0.35559 0.51903 0.46931 0.0
H413 H 0.382 0.48843 0.35748 0.0
H414 H 0.4077 0.58438 0.46313 0.0
H415 H 0.41315 0.56654 0.50819 0.0
H416 H 0.38101 0.56136 0.49908 0.0
H417 H 0.4388 0.54756 0.3281 0.0
H418 H 0.42272 0.51274 0.32179 0.0
H419 H 0.44617 0.52892 0.36827 0.0
C420 C 0.89773 0.40224 0.54293 0.0
C421 C 0.88359 0.38251 0.57598 0.0
C422 C 0.89454 0.42399 0.53959 0.0
C423 C 0.8768 0.42616 0.5701 0.0
C424 C 0.86194 0.40603 0.60269 0.0
C425 C 0.86549 0.38441 0.6052 0.0
C426 C 0.91065 0.44499 0.50416 0.0
C427 C 0.84283 0.40766 0.63576 0.0
C428 C 0.89122 0.49508 0.59246 0.0
C429 C 0.87455 0.49729 0.56012 0.0
C430 C 0.89148 0.47173 0.59727 0.0
C431 C 0.87469 0.45005 0.56899 0.0
C432 C 0.85715 0.45183 0.53756 0.0
C433 C 0.85726 0.47542 0.53353 0.0
C434 C 0.91038 0.47056 0.63139 0.0
C435 C 0.83894 0.42912 0.50687 0.0
H436 H 0.91168 0.40092 0.52004 0.0
H437 H 0.85446 0.36927 0.63085 0.0
H438 H 0.89794 0.44875 0.48074 0.0
H439 H 0.92357 0.46335 0.52323 0.0
H440 H 0.92274 0.43984 0.48161 0.0
H441 H 0.83175 0.38975 0.65717 0.0
H442 H 0.85323 0.42436 0.66035 0.0
H443 H 0.82898 0.4111 0.61519 0.0
H444 H 0.90456 0.5118 0.61334 0.0
H445 H 0.84425 0.47689 0.50852 0.0
H446 H 0.9248 0.46771 0.61126 0.0
H447 H 0.90012 0.45376 0.65566 0.0
H448 H 0.92087 0.48851 0.6531 0.0
H449 H 0.85026 0.42471 0.48088 0.0
H450 H 0.82515 0.433 0.48701 0.0
H451 H 0.82777 0.41154 0.52897 0.0
C452 C 0.37947 0.87673 0.76174 0.0
C453 C 0.36726 0.87007 0.7172 0.0
C454 C 0.40348 0.87824 0.76882 0.0
C455 C 0.41557 0.87293 0.73048 0.0
C456 C 0.40287 0.86513 0.68602 0.0
C457 C 0.37889 0.8638 0.67991 0.0
C458 C 0.41641 0.88658 0.8168 0.0
C459 C 0.41509 0.8592 0.64433 0.0
C460 C 0.48891 0.90671 0.73159 0.0
C461 C 0.4934 0.88695 0.74741 0.0
C462 C 0.46368 0.9023 0.72571 0.0
C463 C 0.44235 0.87749 0.73582 0.0
C464 C 0.44667 0.85734 0.75127 0.0
C465 C 0.47217 0.8623 0.75691 0.0
C466 C 0.45988 0.9243 0.70908 0.0
C467 C 0.42438 0.83063 0.76226 0.0
H468 H 0.37062 0.88151 0.79083 0.0
H469 H 0.36958 0.8585 0.64541 0.0
H470 H 0.42231 0.87266 0.82955 0.0
H471 H 0.43424 0.9058 0.81366 0.0
H472 H 0.40361 0.88804 0.84388 0.0
H473 H 0.40179 0.85132 0.61343 0.0
H474 H 0.43279 0.87718 0.63307 0.0
H475 H 0.42109 0.845 0.6547 0.0
H476 H 0.50515 0.92581 0.72412 0.0
H477 H 0.47544 0.84691 0.76914 0.0
H478 H 0.44896 0.92852 0.73623 0.0
H479 H 0.44827 0.91865 0.67593 0.0
H480 H 0.47852 0.94235 0.70225 0.0
H481 H 0.41246 0.83187 0.79137 0.0
H482 H 0.431 0.81693 0.773 0.0
H483 H 0.41165 0.82257 0.73069 0.0
C484 C 0.51179 0.39272 0.8323 0.0
C485 C 0.49641 0.37748 0.87019 0.0
C486 C 0.53527 0.41568 0.84052 0.0
C487 C 0.54362 0.42362 0.88777 0.0
C488 C 0.52847 0.40812 0.92618 0.0
C489 C 0.50505 0.38523 0.91693 0.0
C490 C 0.55091 0.4317 0.79865 0.0
C491 C 0.53677 0.41595 0.97707 0.0
C492 C 0.61428 0.47297 0.91123 0.0
C493 C 0.61334 0.49594 0.91708 0.0
C494 C 0.59177 0.44931 0.90126 0.0
C495 C 0.56778 0.4486 0.8971 0.0
C496 C 0.56675 0.47175 0.90234 0.0
C497 C 0.58952 0.49513 0.91221 0.0
C498 C 0.59362 0.42502 0.89572 0.0
C499 C 0.54151 0.47178 0.89809 0.0
H500 H 0.50533 0.3869 0.79604 0.0
H501 H 0.49335 0.37359 0.94645 0.0
H502 H 0.5524 0.45105 0.79982 0.0
H503 H 0.57089 0.43493 0.80044 0.0
H504 H 0.54222 0.42234 0.76409 0.0
H505 H 0.52326 0.40131 0.00284 0.0
H506 H 0.55641 0.41874 0.98276 0.0
H507 H 0.53783 0.43477 0.98479 0.0
H508 H 0.63257 0.47339 0.91488 0.0
H509 H 0.58857 0.51274 0.91667 0.0
H510 H 0.58592 0.41597 0.86055 0.0
H511 H 0.5816 0.41066 0.92317 0.0
H512 H 0.61383 0.42894 0.89898 0.0
H513 H 0.53258 0.46398 0.8629 0.0
H514 H 0.54407 0.49151 0.90236 0.0
H515 H 0.5277 0.45892 0.92551 0.0
C516 C 0.01241 0.37466 0.90496 0.0
C517 C 0.03569 0.37536 0.91591 0.0
C518 C 0.00111 0.36689 0.85991 0.0
C519 C 0.01318 0.35931 0.82501 0.0
C520 C 0.03571 0.35824 0.8368 0.0
C521 C 0.04681 0.36644 0.8821 0.0
C522 C 0.97709 0.36837 0.84881 0.0
C523 C 0.04883 0.34976 0.80085 0.0
C524 C 0.97189 0.329 0.71513 0.0
C525 C 0.98041 0.35077 0.68565 0.0
C526 C 0.98343 0.33103 0.75965 0.0
C527 C 0.00374 0.35543 0.77511 0.0
C528 C 0.01333 0.37709 0.74436 0.0
C529 C 0.00165 0.37445 0.69996 0.0
C530 C 0.97303 0.30739 0.79106 0.0
C531 C 0.03492 0.40349 0.75948 0.0
H532 H 0.00354 0.38131 0.93092 0.0
H533 H 0.06467 0.36668 0.89041 0.0
H534 H 0.98179 0.38378 0.82206 0.0
H535 H 0.96194 0.3498 0.83324 0.0
H536 H 0.96901 0.37277 0.88082 0.0
H537 H 0.0636 0.34613 0.81754 0.0
H538 H 0.03441 0.33185 0.78225 0.0
H539 H 0.05854 0.36508 0.77358 0.0
H540 H 0.95562 0.31056 0.70418 0.0
H541 H 0.00853 0.39134 0.67733 0.0
H542 H 0.96181 0.30933 0.82071 0.0
H543 H 0.98912 0.30567 0.80696 0.0
H544 H 0.96015 0.28924 0.77127 0.0
H545 H 0.02825 0.41084 0.7895 0.0
H546 H 0.04138 0.41787 0.73017 0.0
H547 H 0.0518 0.40214 0.77217 0.0
C548 C 0.63326 0.97629 0.91398 0.0
C549 C 0.60615 0.96125 0.91263 0.0
C550 C 0.64598 0.99236 0.9532 0.0
C551 C 0.63121 0.99362 0.99151 0.0
C552 C 0.60392 0.97782 0.99096 0.0
C553 C 0.59178 0.96175 0.95173 0.0
C554 C 0.67513 0.00859 0.95294 0.0
C555 C 0.5874 0.97868 0.03095 0.0
C556 C 0.65707 0.02188 0.11358 0.0
C557 C 0.65793 0.04586 0.11066 0.0
C558 C 0.65015 0.00529 0.07394 0.0
C559 C 0.64372 0.01278 0.03065 0.0
C560 C 0.64619 0.03764 0.02674 0.0
C561 C 0.65339 0.05392 0.0667 0.0
C562 C 0.64823 0.97913 0.07922 0.0
C563 C 0.63945 0.04638 0.98128 0.0
H564 H 0.64452 0.97588 0.88404 0.0
H565 H 0.57084 0.95015 0.95114 0.0
H566 H 0.681 0.02938 0.94908 0.0
H567 H 0.68317 0.00654 0.98713 0.0
H568 H 0.68391 0.00314 0.92342 0.0
H569 H 0.56653 0.96438 0.02601 0.0
H570 H 0.59376 0.97475 0.06541 0.0
H571 H 0.58971 -0.00163 0.03326 0.0
H572 H 0.6608 0.0156 0.14729 0.0
H573 H 0.65423 0.0725 0.06392 0.0
H574 H 0.65717 0.97497 0.0483 0.0
H575 H 0.62755 0.96378 0.08036 0.0
H576 H 0.65773 0.9779 0.11225 0.0
H577 H 0.6494 0.04344 0.95056 0.0
H578 H 0.64479 0.06714 0.98261 0.0
H579 H 0.61831 0.03451 0.97482 0.0
C580 C 0.6095 0.65464 0.24937 0.0
C581 C 0.61771 0.65522 0.29627 0.0
C582 C 0.61978 0.64716 0.21166 0.0
C583 C 0.63893 0.64032 0.22097 0.0
C584 C 0.64876 0.64283 0.26765 0.0
C585 C 0.63795 0.65015 0.30485 0.0
C586 C 0.60874 0.64474 0.16242 0.0
C587 C 0.66951 0.63617 0.27884 0.0
C588 C 0.63552 0.58773 0.13997 0.0
C589 C 0.65454 0.60211 0.10595 0.0
C590 C 0.6309 0.59994 0.17834 0.0
C591 C 0.64586 0.62724 0.18327 0.0
C592 C 0.66591 0.64181 0.15034 0.0
C593 C 0.66993 0.62908 0.11181 0.0
C594 C 0.60923 0.58365 0.21253 0.0
C595 C 0.68252 0.6709 0.15492 0.0
H596 H 0.59406 0.65877 0.24227 0.0
H597 H 0.64461 0.65081 0.34092 0.0
H598 H 0.62449 0.65436 0.13592 0.0
H599 H 0.59725 0.62393 0.15245 0.0
H600 H 0.59599 0.65337 0.16015 0.0
H601 H 0.67799 0.64313 0.31469 0.0
H602 H 0.66109 0.6148 0.27757 0.0
H603 H 0.68524 0.6447 0.25202 0.0
H604 H 0.62359 0.56689 0.13591 0.0
H605 H 0.68478 0.64032 0.08583 0.0
H606 H 0.59409 0.58927 0.21053 0.0
H607 H 0.61661 0.58717 0.24954 0.0
H608 H 0.60012 0.56255 0.20483 0.0
H609 H 0.67068 0.68012 0.14751 0.0
H610 H 0.69916 0.67897 0.1299 0.0
H611 H 0.68999 0.67632 0.19172 0.0
C612 C 0.04322 0.65041 0.28416 0.0
C613 C 0.04336 0.66343 0.24259 0.0
C614 C 0.02391 0.64356 0.31866 0.0
C615 C 0.00436 0.65012 0.31176 0.0
C616 C 0.00524 0.66462 0.27128 0.0
C617 C 0.02468 0.671 0.23698 0.0
C618 C 0.02366 0.62804 0.36126 0.0
C619 C 0.98499 0.67236 0.26313 0.0
C620 C 0.94096 0.60273 0.37037 0.0
C621 C 0.94267 0.61501 0.41395 0.0
C622 C 0.96031 0.61458 0.33577 0.0
C623 C 0.98182 0.63949 0.34468 0.0
C624 C 0.98284 0.65275 0.38724 0.0
C625 C 0.96329 0.64029 0.42155 0.0
C626 C 0.95848 0.59973 0.29088 0.0
C627 C 0.00523 0.67951 0.39764 0.0
H628 H 0.05764 0.64461 0.28901 0.0
H629 H 0.02476 0.68125 0.20513 0.0
H630 H 0.02242 0.63737 0.39458 0.0
H631 H 0.00633 0.60836 0.35975 0.0
H632 H 0.04116 0.62597 0.36294 0.0
H633 H 0.99037 0.68654 0.23368 0.0
H634 H 0.96627 0.65489 0.25418 0.0
H635 H 0.98195 0.68093 0.29591 0.0
H636 H 0.92502 0.58328 0.36397 0.0
H637 H 0.96467 0.65003 0.45496 0.0
H638 H 0.97411 0.59476 0.29059 0.0
H639 H 0.96122 0.61186 0.25915 0.0
H640 H 0.93958 0.58148 0.28768 0.0
H641 H 0.02279 0.6782 0.40534 0.0
H642 H 0.00132 0.68866 0.42866 0.0
H643 H 0.0096 0.69231 0.36629 0.0
C644 C 0.33676 0.93526 0.48738 0.0
C645 C 0.32007 0.92994 0.52621 0.0
C646 C 0.34441 0.95728 0.45915 0.0
C647 C 0.33494 0.97435 0.4696 0.0
C648 C 0.31699 0.9684 0.50713 0.0
C649 C 0.30984 0.9463 0.53521 0.0
C650 C 0.36365 0.96292 0.41953 0.0
C651 C 0.30615 0.98591 0.51882 0.0
C652 C 0.38153 0.04334 0.43186 0.0
C653 C 0.37213 0.04417 0.38662 0.0
C654 C 0.36872 0.0212 0.46045 0.0
C655 C 0.34577 -0.0006 0.44365 0.0
C656 C 0.33515 0.00078 0.39952 0.0
C657 C 0.34853 0.02313 0.37137 0.0
C658 C 0.38074 0.02054 0.50726 0.0
C659 C 0.31047 0.97812 0.38079 0.0
H660 H 0.34466 0.92269 0.47991 0.0
H661 H 0.2968 0.94224 0.56495 0.0
H662 H 0.35613 0.966 0.38562 0.0
H663 H 0.38198 0.98104 0.42763 0.0
H664 H 0.36805 0.94698 0.41437 0.0
H665 H 0.28997 0.97689 0.54474 0.0
H666 H 0.32164 0.00436 0.53417 0.0
H667 H 0.29917 0.99083 0.48611 0.0
H668 H 0.39962 0.05956 0.44417 0.0
H669 H 0.34099 0.02369 0.33665 0.0
H670 H 0.38783 0.0065 0.50486 0.0
H671 H 0.36613 0.01387 0.53612 0.0
H672 H 0.39725 0.03982 0.51719 0.0
H673 H 0.31426 0.96244 0.36941 0.0
H674 H 0.30267 0.98364 0.34992 0.0
H675 H 0.29549 0.97007 0.40903 0.0
C676 C 0.35662 0.37321 0.50996 0.0
C677 C 0.33225 0.37104 0.50439 0.0
C678 C 0.36229 0.36287 0.5498 0.0
C679 C 0.34302 0.34972 0.58477 0.0
C680 C 0.31786 0.34599 0.57794 0.0
C681 C 0.3128 0.35686 0.53791 0.0
C682 C 0.38942 0.36738 0.55575 0.0
C683 C 0.29667 0.33162 0.61396 0.0
C684 C 0.36153 0.31426 0.67457 0.0
C685 C 0.37291 0.3331 0.71044 0.0
C686 C 0.35004 0.31858 0.63467 0.0
C687 C 0.35027 0.34242 0.63036 0.0
C688 C 0.36036 0.36081 0.66779 0.0
C689 C 0.37138 0.35585 0.70746 0.0
C690 C 0.33894 0.29826 0.59599 0.0
C691 C 0.3611 0.38653 0.66458 0.0
H692 H 0.37174 0.38396 0.48414 0.0
H693 H 0.29384 0.35491 0.53368 0.0
H694 H 0.39875 0.38022 0.58686 0.0
H695 H 0.38888 0.34877 0.56273 0.0
H696 H 0.40167 0.37652 0.52394 0.0
H697 H 0.27738 0.32696 0.60011 0.0
H698 H 0.29594 0.31332 0.62464 0.0
H699 H 0.30074 0.34371 0.6464 0.0
H700 H 0.36238 0.29651 0.67681 0.0
H701 H 0.37993 0.37045 0.73512 0.0
H702 H 0.35213 0.30489 0.56487 0.0
H703 H 0.31996 0.29534 0.58391 0.0
H704 H 0.33641 0.27935 0.60795 0.0
H705 H 0.37451 0.39832 0.63571 0.0
H706 H 0.36768 0.39779 0.69825 0.0
H707 H 0.34168 0.38349 0.65561 0.0
loop_
_geom_bond_atom_site_label_1
_geom_bond_atom_site_label_2
_geom_bond_distance
_geom_bond_site_symmetry_2
_ccdc_geom_bond_type
O0 Cd1 2.300 . S
O0 C7 1.275 . S
Cd1 O0 2.300 . S
Cd1 O9 2.381 . S
Cd1 O10 2.378 . S
O2 Cd3 2.385 . S
O2 C7 1.255 . S
Cd3 O2 2.385 . S
Cd3 O4 2.317 . S
O4 Cd3 2.317 . S
O4 C5 1.224 1_554 S
C5 O4 1.224 1_556 S
C5 O6 1.217 1_556 S
O6 C5 1.217 1_554 S
C7 O0 1.275 . S
C7 O2 1.255 . S
C8 O9 1.258 . S
C8 O10 1.256 . S
O9 Cd1 2.381 . S
O9 C8 1.258 . S
O10 Cd1 2.378 . S
O10 C8 1.256 . S
O11 Cd12 2.300 . S
O11 C18 1.275 . S
Cd12 O11 2.300 . S
Cd12 O20 2.381 . S
Cd12 O21 2.378 . S
O13 Cd14 2.385 . S
O13 C18 1.255 . S
Cd14 O13 2.385 . S
Cd14 O15 2.317 . S
O15 Cd14 2.317 . S
O15 C16 1.232 . S
C16 O15 1.232 . S
C16 O17 1.218 . S
O17 C16 1.218 . S
C18 O11 1.275 . S
C18 O13 1.255 . S
C19 O20 1.258 . S
C19 O21 1.256 . S
O20 Cd12 2.381 . S
O20 C19 1.258 . S
O21 Cd12 2.378 . S
O21 C19 1.256 . S
O22 Cd23 2.300 . S
O22 C29 1.275 . S
Cd23 O22 2.300 . S
Cd23 O31 2.381 . S
Cd23 O32 2.378 . S
O24 Cd25 2.385 . S
O24 C29 1.255 . S
Cd25 O24 2.385 . S
Cd25 O26 2.317 . S
O26 Cd25 2.317 . S
O26 C27 1.232 . S
C27 O26 1.232 . S
C27 O28 1.218 . S
O28 C27 1.218 . S
C29 O22 1.275 . S
C29 O24 1.255 . S
C30 O31 1.258 . S
C30 O32 1.256 . S
O31 Cd23 2.381 . S
O31 C30 1.258 . S
O32 Cd23 2.378 . S
O32 C30 1.256 . S
O33 Cd34 2.300 . S
O33 C40 1.275 . S
Cd34 O33 2.300 . S
Cd34 O42 2.381 . S
Cd34 O43 2.378 . S
O35 Cd36 2.385 . S
O35 C40 1.255 . S
Cd36 O35 2.385 . S
Cd36 O37 2.317 . S
O37 Cd36 2.317 . S
O37 C38 1.232 . S
C38 O37 1.232 . S
C38 O39 1.218 . S
O39 C38 1.218 . S
C40 O33 1.275 . S
C40 O35 1.255 . S
C41 O42 1.258 . S
C41 O43 1.256 . S
O42 Cd34 2.381 . S
O42 C41 1.258 . S
O43 Cd34 2.378 . S
O43 C41 1.256 . S
O44 Cd45 2.300 . S
O44 C51 1.275 . S
Cd45 O44 2.300 . S
Cd45 O53 2.381 . S
Cd45 O54 2.378 . S
O46 Cd47 2.385 . S
O46 C51 1.255 . S
Cd47 O46 2.385 . S
Cd47 O48 2.317 . S
O48 Cd47 2.317 . S
O48 C49 1.232 . S
C49 O48 1.232 . S
C49 O50 1.218 . S
O50 C49 1.218 . S
C51 O44 1.275 . S
C51 O46 1.255 . S
C52 O53 1.258 . S
C52 O54 1.256 . S
O53 Cd45 2.381 . S
O53 C52 1.258 . S
O54 Cd45 2.378 . S
O54 C52 1.256 . S
O55 Cd56 2.300 . S
O55 C62 1.275 . S
Cd56 O55 2.300 . S
Cd56 O64 2.381 . S
Cd56 O65 2.378 1_556 S
O57 Cd58 2.385 . S
O57 C62 1.255 . S
Cd58 O57 2.385 . S
Cd58 O59 2.317 . S
O59 Cd58 2.317 . S
O59 C60 1.232 . S
C60 O59 1.232 . S
C60 O61 1.218 . S
O61 C60 1.218 . S
C62 O55 1.275 . S
C62 O57 1.255 . S
C63 O64 1.258 1_554 S
C63 O65 1.256 . S
O64 Cd56 2.381 . S
O64 C63 1.258 1_556 S
O65 Cd56 2.378 1_554 S
O65 C63 1.256 . S
O66 Cd67 2.300 . S
O66 C73 1.275 . S
Cd67 O66 2.300 . S
Cd67 O75 2.381 . S
Cd67 O76 2.378 . S
O68 Cd69 2.385 . S
O68 C73 1.255 . S
Cd69 O68 2.385 . S
Cd69 O70 2.317 . S
O70 Cd69 2.317 . S
O70 C71 1.232 . S
C71 O70 1.232 . S
C71 O72 1.218 . S
O72 C71 1.218 . S
C73 O66 1.275 . S
C73 O68 1.255 . S
C74 O75 1.258 . S
C74 O76 1.256 . S
O75 Cd67 2.381 . S
O75 C74 1.258 . S
O76 Cd67 2.378 . S
O76 C74 1.256 . S
O77 Cd78 2.300 . S
O77 C84 1.275 . S
Cd78 O77 2.300 . S
Cd78 O86 2.381 . S
Cd78 O87 2.378 . S
O79 Cd80 2.385 . S
O79 C84 1.255 . S
Cd80 O79 2.385 . S
Cd80 O81 2.317 . S
O81 Cd80 2.317 . S
O81 C82 1.235 . S
C82 O81 1.235 . S
C82 O83 1.219 . S
O83 C82 1.219 . S
C84 O77 1.275 . S
C84 O79 1.255 . S
C85 O86 1.258 . S
C85 O87 1.256 . S
O86 Cd78 2.381 . S
O86 C85 1.258 . S
O87 Cd78 2.378 . S
O87 C85 1.256 . S
O88 Cd89 2.300 . S
O88 C95 1.275 . S
Cd89 O88 2.300 . S
Cd89 O97 2.381 . S
Cd89 O98 2.378 1_554 S
O90 Cd91 2.385 . S
O90 C95 1.255 . S
Cd91 O90 2.385 . S
Cd91 O92 2.317 . S
O92 Cd91 2.317 . S
O92 C93 1.232 . S
C93 O92 1.232 . S
C93 O94 1.218 . S
O94 C93 1.218 . S
C95 O88 1.275 . S
C95 O90 1.255 . S
C96 O97 1.258 1_556 S
C96 O98 1.256 . S
O97 Cd89 2.381 . S
O97 C96 1.258 1_554 S
O98 Cd89 2.378 1_556 S
O98 C96 1.256 . S
O99 Cd100 2.300 . S
O99 C106 1.275 . S
Cd100 O99 2.300 . S
Cd100 O108 2.381 . S
Cd100 O109 2.378 . S
O101 Cd102 2.385 . S
O101 C106 1.255 . S
Cd102 O101 2.385 . S
Cd102 O103 2.317 . S
O103 Cd102 2.317 . S
O103 C104 1.232 . S
C104 O103 1.232 . S
C104 O105 1.218 . S
O105 C104 1.218 . S
C106 O99 1.275 . S
C106 O101 1.255 . S
C107 O108 1.258 . S
C107 O109 1.256 . S
O108 Cd100 2.381 . S
O108 C107 1.258 . S
O109 Cd100 2.378 . S
O109 C107 1.256 . S
O110 Cd111 2.300 . S
O110 C117 1.275 . S
Cd111 O110 2.300 . S
Cd111 O119 2.381 . S
Cd111 O120 2.378 . S
O112 Cd113 2.385 . S
O112 C117 1.255 . S
Cd113 O112 2.385 . S
Cd113 O114 2.317 . S
O114 Cd113 2.317 . S
O114 C115 1.232 . S
C115 O114 1.232 . S
C115 O116 1.218 . S
O116 C115 1.218 . S
C117 O110 1.275 . S
C117 O112 1.255 . S
C118 O119 1.258 . S
C118 O120 1.256 . S
O119 Cd111 2.381 . S
O119 C118 1.258 . S
O120 Cd111 2.378 . S
O120 C118 1.256 . S
O121 Cd122 2.300 . S
O121 C128 1.275 . S
Cd122 O121 2.300 . S
Cd122 O130 2.381 . S
Cd122 O131 2.378 . S
O123 Cd124 2.385 . S
O123 C128 1.255 . S
Cd124 O123 2.385 . S
Cd124 O125 2.317 . S
O125 Cd124 2.317 . S
O125 C126 1.232 . S
C126 O125 1.232 . S
C126 O127 1.218 . S
O127 C126 1.218 . S
C128 O121 1.275 . S
C128 O123 1.255 . S
C129 O130 1.258 . S
C129 O131 1.256 . S
O130 Cd122 2.381 . S
O130 C129 1.258 . S
O131 Cd122 2.378 . S
O131 C129 1.256 . S
C132 C133 1.391 . S
C132 C134 1.394 . S
C132 H148 0.931 . S
C133 C132 1.391 . S
C133 C137 1.376 . S
C134 C132 1.394 . S
C134 C135 1.369 . S
C134 C138 1.531 . S
C135 C134 1.369 . S
C135 C136 1.410 . S
C135 C143 1.503 . S
C136 C135 1.410 . S
C136 C137 1.392 . S
C136 C139 1.511 . S
C137 C133 1.376 . S
C137 C136 1.392 . S
C137 H149 0.929 . S
C138 C134 1.531 . S
C138 H150 0.960 . S
C138 H151 0.962 . S
C138 H152 0.960 . S
C139 C136 1.511 . S
C139 H153 0.961 . S
C139 H154 0.961 . S
C139 H155 0.961 . S
C140 C141 1.370 . S
C140 C142 1.363 . S
C140 H156 0.931 . S
C141 C140 1.370 . S
C141 C145 1.408 . S
C142 C140 1.363 . S
C142 C143 1.370 . S
C142 C146 1.524 . S
C143 C135 1.503 . S
C143 C142 1.370 . S
C143 C144 1.403 . S
C144 C143 1.403 . S
C144 C145 1.404 . S
C144 C147 1.539 . S
C145 C141 1.408 . S
C145 C144 1.404 . S
C145 H157 0.930 . S
C146 C142 1.524 . S
C146 H158 0.956 . S
C146 H159 0.961 . S
C146 H160 0.961 . S
C147 C144 1.539 . S
C147 H161 0.958 . S
C147 H162 0.961 . S
C147 H163 0.960 . S
H148 C132 0.931 . S
H149 C137 0.929 . S
H150 C138 0.960 . S
H151 C138 0.962 . S
H152 C138 0.960 . S
H153 C139 0.961 . S
H154 C139 0.961 . S
H155 C139 0.961 . S
H156 C140 0.931 . S
H157 C145 0.930 . S
H158 C146 0.956 . S
H159 C146 0.961 . S
H160 C146 0.961 . S
H161 C147 0.958 . S
H162 C147 0.961 . S
H163 C147 0.960 . S
C164 C165 1.391 . S
C164 C166 1.394 . S
C164 H180 0.931 . S
C165 C164 1.391 . S
C165 C169 1.376 . S
C166 C164 1.394 . S
C166 C167 1.369 . S
C166 C170 1.531 . S
C167 C166 1.369 . S
C167 C168 1.410 . S
C167 C175 1.503 . S
C168 C167 1.410 . S
C168 C169 1.392 . S
C168 C171 1.511 . S
C169 C165 1.376 . S
C169 C168 1.392 . S
C169 H181 0.929 . S
C170 C166 1.531 . S
C170 H182 0.960 . S
C170 H183 0.962 . S
C170 H184 0.960 . S
C171 C168 1.511 . S
C171 H185 0.961 . S
C171 H186 0.961 . S
C171 H187 0.961 . S
C172 C173 1.370 . S
C172 C174 1.363 . S
C172 H188 0.931 . S
C173 C172 1.370 . S
C173 C177 1.408 . S
C174 C172 1.363 . S
C174 C175 1.370 . S
C174 C178 1.524 . S
C175 C167 1.503 . S
C175 C174 1.370 . S
C175 C176 1.403 . S
C176 C175 1.403 . S
C176 C177 1.404 . S
C176 C179 1.539 . S
C177 C173 1.408 . S
C177 C176 1.404 . S
C177 H189 0.930 . S
C178 C174 1.524 . S
C178 H190 0.956 . S
C178 H191 0.961 . S
C178 H192 0.961 . S
C179 C176 1.539 . S
C179 H193 0.958 . S
C179 H194 0.961 . S
C179 H195 0.960 . S
H180 C164 0.931 . S
H181 C169 0.929 . S
H182 C170 0.960 . S
H183 C170 0.962 . S
H184 C170 0.960 . S
H185 C171 0.961 . S
H186 C171 0.961 . S
H187 C171 0.961 . S
H188 C172 0.931 . S
H189 C177 0.930 . S
H190 C178 0.956 . S
H191 C178 0.961 . S
H192 C178 0.961 . S
H193 C179 0.958 . S
H194 C179 0.961 . S
H195 C179 0.960 . S
C196 C197 1.391 . S
C196 C198 1.394 . S
C196 H212 0.931 . S
C197 C196 1.391 . S
C197 C201 1.376 . S
C198 C196 1.394 . S
C198 C199 1.369 . S
C198 C202 1.531 . S
C199 C198 1.369 . S
C199 C200 1.410 . S
C199 C207 1.503 . S
C200 C199 1.410 . S
C200 C201 1.392 . S
C200 C203 1.511 . S
C201 C197 1.376 . S
C201 C200 1.392 . S
C201 H213 0.929 . S
C202 C198 1.531 . S
C202 H214 0.960 . S
C202 H215 0.962 . S
C202 H216 0.960 . S
C203 C200 1.511 . S
C203 H217 0.961 . S
C203 H218 0.961 . S
C203 H219 0.961 . S
C204 C205 1.370 . S
C204 C206 1.363 . S
C204 H220 0.931 . S
C205 C204 1.370 . S
C205 C209 1.408 . S
C206 C204 1.363 . S
C206 C207 1.370 . S
C206 C210 1.524 . S
C207 C199 1.503 . S
C207 C206 1.370 . S
C207 C208 1.403 . S
C208 C207 1.403 . S
C208 C209 1.404 . S
C208 C211 1.539 . S
C209 C205 1.408 . S
C209 C208 1.404 . S
C209 H221 0.930 . S
C210 C206 1.524 . S
C210 H222 0.956 . S
C210 H223 0.961 . S
C210 H224 0.961 . S
C211 C208 1.539 . S
C211 H225 0.958 . S
C211 H226 0.961 . S
C211 H227 0.960 . S
H212 C196 0.931 . S
H213 C201 0.929 . S
H214 C202 0.960 . S
H215 C202 0.962 . S
H216 C202 0.960 . S
H217 C203 0.961 . S
H218 C203 0.961 . S
H219 C203 0.961 . S
H220 C204 0.931 . S
H221 C209 0.930 . S
H222 C210 0.956 . S
H223 C210 0.961 . S
H224 C210 0.961 . S
H225 C211 0.958 . S
H226 C211 0.961 . S
H227 C211 0.960 . S
C228 C229 1.391 . S
C228 C230 1.394 . S
C228 H244 0.931 . S
C229 C228 1.391 . S
C229 C233 1.376 . S
C230 C228 1.394 . S
C230 C231 1.369 . S
C230 C234 1.531 . S
C231 C230 1.369 . S
C231 C232 1.410 . S
C231 C239 1.503 . S
C232 C231 1.410 . S
C232 C233 1.392 . S
C232 C235 1.511 . S
C233 C229 1.376 . S
C233 C232 1.392 . S
C233 H245 0.929 . S
C234 C230 1.531 . S
C234 H246 0.960 . S
C234 H247 0.962 . S
C234 H248 0.960 . S
C235 C232 1.511 . S
C235 H249 0.961 . S
C235 H250 0.961 . S
C235 H251 0.961 . S
C236 C237 1.370 . S
C236 C238 1.363 . S
C236 H252 0.931 . S
C237 C236 1.370 . S
C237 C241 1.408 . S
C238 C236 1.363 . S
C238 C239 1.370 . S
C238 C242 1.524 . S
C239 C231 1.503 . S
C239 C238 1.370 . S
C239 C240 1.403 . S
C240 C239 1.403 . S
C240 C241 1.404 . S
C240 C243 1.539 . S
C241 C237 1.408 . S
C241 C240 1.404 . S
C241 H253 0.930 . S
C242 C238 1.524 . S
C242 H254 0.956 . S
C242 H255 0.961 . S
C242 H256 0.961 . S
C243 C240 1.539 . S
C243 H257 0.958 . S
C243 H258 0.961 . S
C243 H259 0.960 . S
H244 C228 0.931 . S
H245 C233 0.929 . S
H246 C234 0.960 . S
H247 C234 0.962 . S
H248 C234 0.960 . S
H249 C235 0.961 . S
H250 C235 0.961 . S
H251 C235 0.961 . S
H252 C236 0.931 . S
H253 C241 0.930 . S
H254 C242 0.956 . S
H255 C242 0.961 . S
H256 C242 0.961 . S
H257 C243 0.958 . S
H258 C243 0.961 . S
H259 C243 0.960 . S
C260 C261 1.391 . S
C260 C262 1.394 . S
C260 H276 0.931 . S
C261 C260 1.391 . S
C261 C265 1.376 . S
C262 C260 1.394 . S
C262 C263 1.369 . S
C262 C266 1.531 . S
C263 C262 1.369 . S
C263 C264 1.410 . S
C263 C271 1.503 . S
C264 C263 1.410 . S
C264 C265 1.392 . S
C264 C267 1.511 . S
C265 C261 1.376 . S
C265 C264 1.392 . S
C265 H277 0.929 . S
C266 C262 1.531 . S
C266 H278 0.960 . S
C266 H279 0.962 . S
C266 H280 0.960 . S
C267 C264 1.511 . S
C267 H281 0.961 . S
C267 H282 0.961 . S
C267 H283 0.961 . S
C268 C269 1.370 . S
C268 C270 1.363 . S
C268 H284 0.931 . S
C269 C268 1.370 . S
C269 C273 1.408 . S
C270 C268 1.363 . S
C270 C271 1.370 . S
C270 C274 1.524 . S
C271 C263 1.503 . S
C271 C270 1.370 . S
C271 C272 1.403 . S
C272 C271 1.403 . S
C272 C273 1.404 . S
C272 C275 1.539 . S
C273 C269 1.408 . S
C273 C272 1.404 . S
C273 H285 0.930 . S
C274 C270 1.524 . S
C274 H286 0.956 . S
C274 H287 0.961 . S
C274 H288 0.961 . S
C275 C272 1.539 . S
C275 H289 0.958 . S
C275 H290 0.961 . S
C275 H291 0.960 . S
H276 C260 0.931 . S
H277 C265 0.929 . S
H278 C266 0.960 . S
H279 C266 0.962 . S
H280 C266 0.960 . S
H281 C267 0.961 . S
H282 C267 0.961 . S
H283 C267 0.961 . S
H284 C268 0.931 . S
H285 C273 0.930 . S
H286 C274 0.956 . S
H287 C274 0.961 . S
H288 C274 0.961 . S
H289 C275 0.958 . S
H290 C275 0.961 . S
H291 C275 0.960 . S
C292 C293 1.391 . S
C292 C294 1.394 . S
C292 H308 0.931 . S
C293 C292 1.391 . S
C293 C297 1.376 . S
C294 C292 1.394 . S
C294 C295 1.369 . S
C294 C298 1.531 . S
C295 C294 1.369 . S
C295 C296 1.410 . S
C295 C303 1.503 . S
C296 C295 1.410 . S
C296 C297 1.392 . S
C296 C299 1.511 . S
C297 C293 1.376 . S
C297 C296 1.392 . S
C297 H309 0.929 . S
C298 C294 1.531 . S
C298 H310 0.960 . S
C298 H311 0.962 . S
C298 H312 0.960 . S
C299 C296 1.511 . S
C299 H313 0.961 . S
C299 H314 0.961 . S
C299 H315 0.961 . S
C300 C301 1.370 . S
C300 C302 1.363 . S
C300 H316 0.931 . S
C301 C300 1.370 . S
C301 C305 1.408 . S
C302 C300 1.363 . S
C302 C303 1.370 . S
C302 C306 1.524 . S
C303 C295 1.503 . S
C303 C302 1.370 . S
C303 C304 1.403 . S
C304 C303 1.403 . S
C304 C305 1.404 . S
C304 C307 1.539 . S
C305 C301 1.408 . S
C305 C304 1.404 . S
C305 H317 0.930 . S
C306 C302 1.524 . S
C306 H318 0.956 . S
C306 H319 0.961 . S
C306 H320 0.961 . S
C307 C304 1.539 . S
C307 H321 0.958 . S
C307 H322 0.961 . S
C307 H323 0.960 . S
H308 C292 0.931 . S
H309 C297 0.929 . S
H310 C298 0.960 . S
H311 C298 0.962 . S
H312 C298 0.960 . S
H313 C299 0.961 . S
H314 C299 0.961 . S
H315 C299 0.961 . S
H316 C300 0.931 . S
H317 C305 0.930 . S
H318 C306 0.956 . S
H319 C306 0.961 . S
H320 C306 0.961 . S
H321 C307 0.958 . S
H322 C307 0.961 . S
H323 C307 0.960 . S
C324 C325 1.391 . S
C324 C326 1.394 . S
C324 H340 0.931 . S
C325 C324 1.391 . S
C325 C329 1.376 . S
C326 C324 1.394 . S
C326 C327 1.369 . S
C326 C330 1.531 . S
C327 C326 1.369 . S
C327 C328 1.410 . S
C327 C335 1.503 . S
C328 C327 1.410 . S
C328 C329 1.392 . S
C328 C331 1.511 . S
C329 C325 1.376 . S
C329 C328 1.392 . S
C329 H341 0.929 . S
C330 C326 1.531 . S
C330 H342 0.960 1_554 S
C330 H343 0.962 . S
C330 H344 0.960 1_554 S
C331 C328 1.511 . S
C331 H345 0.961 . S
C331 H346 0.961 . S
C331 H347 0.961 . S
C332 C333 1.370 . S
C332 C334 1.363 . S
C332 H348 0.931 . S
C333 C332 1.370 . S
C333 C337 1.408 . S
C334 C332 1.363 . S
C334 C335 1.370 . S
C334 C338 1.524 . S
C335 C327 1.503 . S
C335 C334 1.370 . S
C335 C336 1.403 . S
C336 C335 1.403 . S
C336 C337 1.404 . S
C336 C339 1.539 . S
C337 C333 1.408 . S
C337 C336 1.404 . S
C337 H349 0.930 . S
C338 C334 1.524 . S
C338 H350 0.956 . S
C338 H351 0.961 . S
C338 H352 0.961 . S
C339 C336 1.539 . S
C339 H353 0.958 1_554 S
C339 H354 0.961 . S
C339 H355 0.960 . S
H340 C324 0.931 . S
H341 C329 0.929 . S
H342 C330 0.960 1_556 S
H343 C330 0.962 . S
H344 C330 0.960 1_556 S
H345 C331 0.961 . S
H346 C331 0.961 . S
H347 C331 0.961 . S
H348 C332 0.931 . S
H349 C337 0.930 . S
H350 C338 0.956 . S
H351 C338 0.961 . S
H352 C338 0.961 . S
H353 C339 0.958 1_556 S
H354 C339 0.961 . S
H355 C339 0.960 . S
C356 C357 1.391 . S
C356 C358 1.394 . S
C356 H372 0.931 . S
C357 C356 1.391 . S
C357 C361 1.376 . S
C358 C356 1.394 . S
C358 C359 1.369 . S
C358 C362 1.531 . S
C359 C358 1.369 . S
C359 C360 1.410 . S
C359 C367 1.503 . S
C360 C359 1.410 . S
C360 C361 1.392 . S
C360 C363 1.511 . S
C361 C357 1.376 . S
C361 C360 1.392 . S
C361 H373 0.929 . S
C362 C358 1.531 . S
C362 H374 0.960 . S
C362 H375 0.962 . S
C362 H376 0.960 . S
C363 C360 1.511 . S
C363 H377 0.961 . S
C363 H378 0.961 . S
C363 H379 0.961 . S
C364 C365 1.370 . S
C364 C366 1.363 . S
C364 H380 0.931 . S
C365 C364 1.370 . S
C365 C369 1.408 . S
C366 C364 1.363 . S
C366 C367 1.370 . S
C366 C370 1.524 . S
C367 C359 1.503 . S
C367 C366 1.370 . S
C367 C368 1.403 . S
C368 C367 1.403 . S
C368 C369 1.404 . S
C368 C371 1.539 . S
C369 C365 1.408 . S
C369 C368 1.404 . S
C369 H381 0.930 . S
C370 C366 1.524 . S
C370 H382 0.956 . S
C370 H383 0.961 . S
C370 H384 0.961 . S
C371 C368 1.539 . S
C371 H385 0.958 . S
C371 H386 0.961 . S
C371 H387 0.960 . S
H372 C356 0.931 . S
H373 C361 0.929 . S
H374 C362 0.960 . S
H375 C362 0.962 . S
H376 C362 0.960 . S
H377 C363 0.961 . S
H378 C363 0.961 . S
H379 C363 0.961 . S
H380 C364 0.931 . S
H381 C369 0.930 . S
H382 C370 0.956 . S
H383 C370 0.961 . S
H384 C370 0.961 . S
H385 C371 0.958 . S
H386 C371 0.961 . S
H387 C371 0.960 . S
C388 C389 1.391 . S
C388 C390 1.394 . S
C388 H404 0.931 . S
C389 C388 1.391 . S
C389 C393 1.376 . S
C390 C388 1.394 . S
C390 C391 1.369 . S
C390 C394 1.531 . S
C391 C390 1.369 . S
C391 C392 1.410 . S
C391 C399 1.503 . S
C392 C391 1.410 . S
C392 C393 1.392 . S
C392 C395 1.511 . S
C393 C389 1.376 . S
C393 C392 1.392 . S
C393 H405 0.929 . S
C394 C390 1.531 . S
C394 H406 0.960 . S
C394 H407 0.962 . S
C394 H408 0.960 . S
C395 C392 1.511 . S
C395 H409 0.961 . S
C395 H410 0.961 . S
C395 H411 0.961 . S
C396 C397 1.370 . S
C396 C398 1.363 . S
C396 H412 0.931 . S
C397 C396 1.370 . S
C397 C401 1.408 . S
C398 C396 1.363 . S
C398 C399 1.370 . S
C398 C402 1.524 . S
C399 C391 1.503 . S
C399 C398 1.370 . S
C399 C400 1.403 . S
C400 C399 1.403 . S
C400 C401 1.404 . S
C400 C403 1.539 . S
C401 C397 1.408 . S
C401 C400 1.404 . S
C401 H413 0.930 . S
C402 C398 1.524 . S
C402 H414 0.956 . S
C402 H415 0.961 . S
C402 H416 0.961 . S
C403 C400 1.539 . S
C403 H417 0.958 . S
C403 H418 0.961 . S
C403 H419 0.960 . S
H404 C388 0.931 . S
H405 C393 0.929 . S
H406 C394 0.960 . S
H407 C394 0.962 . S
H408 C394 0.960 . S
H409 C395 0.961 . S
H410 C395 0.961 . S
H411 C395 0.961 . S
H412 C396 0.931 . S
H413 C401 0.930 . S
H414 C402 0.956 . S
H415 C402 0.961 . S
H416 C402 0.961 . S
H417 C403 0.958 . S
H418 C403 0.961 . S
H419 C403 0.960 . S
C420 C421 1.391 . S
C420 C422 1.394 . S
C420 H436 0.931 . S
C421 C420 1.391 . S
C421 C425 1.376 . S
C422 C420 1.394 . S
C422 C423 1.369 . S
C422 C426 1.531 . S
C423 C422 1.369 . S
C423 C424 1.410 . S
C423 C431 1.503 . S
C424 C423 1.410 . S
C424 C425 1.392 . S
C424 C427 1.511 . S
C425 C421 1.376 . S
C425 C424 1.392 . S
C425 H437 0.929 . S
C426 C422 1.531 . S
C426 H438 0.960 . S
C426 H439 0.962 . S
C426 H440 0.960 . S
C427 C424 1.511 . S
C427 H441 0.961 . S
C427 H442 0.961 . S
C427 H443 0.961 . S
C428 C429 1.370 . S
C428 C430 1.363 . S
C428 H444 0.931 . S
C429 C428 1.370 . S
C429 C433 1.408 . S
C430 C428 1.363 . S
C430 C431 1.370 . S
C430 C434 1.524 . S
C431 C423 1.503 . S
C431 C430 1.370 . S
C431 C432 1.403 . S
C432 C431 1.403 . S
C432 C433 1.404 . S
C432 C435 1.539 . S
C433 C429 1.408 . S
C433 C432 1.404 . S
C433 H445 0.930 . S
C434 C430 1.524 . S
C434 H446 0.956 . S
C434 H447 0.961 . S
C434 H448 0.961 . S
C435 C432 1.539 . S
C435 H449 0.958 . S
C435 H450 0.961 . S
C435 H451 0.960 . S
H436 C420 0.931 . S
H437 C425 0.929 . S
H438 C426 0.960 . S
H439 C426 0.962 . S
H440 C426 0.960 . S
H441 C427 0.961 . S
H442 C427 0.961 . S
H443 C427 0.961 . S
H444 C428 0.931 . S
H445 C433 0.930 . S
H446 C434 0.956 . S
H447 C434 0.961 . S
H448 C434 0.961 . S
H449 C435 0.958 . S
H450 C435 0.961 . S
H451 C435 0.960 . S
C452 C453 1.391 . S
C452 C454 1.394 . S
C452 H468 0.931 . S
C453 C452 1.391 . S
C453 C457 1.376 . S
C454 C452 1.394 . S
C454 C455 1.369 . S
C454 C458 1.531 . S
C455 C454 1.369 . S
C455 C456 1.410 . S
C455 C463 1.503 . S
C456 C455 1.410 . S
C456 C457 1.392 . S
C456 C459 1.511 . S
C457 C453 1.376 . S
C457 C456 1.392 . S
C457 H469 0.929 . S
C458 C454 1.531 . S
C458 H470 0.960 . S
C458 H471 0.962 . S
C458 H472 0.960 . S
C459 C456 1.511 . S
C459 H473 0.961 . S
C459 H474 0.961 . S
C459 H475 0.961 . S
C460 C461 1.370 . S
C460 C462 1.363 . S
C460 H476 0.931 . S
C461 C460 1.370 . S
C461 C465 1.408 . S
C462 C460 1.363 . S
C462 C463 1.370 . S
C462 C466 1.524 . S
C463 C455 1.503 . S
C463 C462 1.370 . S
C463 C464 1.403 . S
C464 C463 1.403 . S
C464 C465 1.404 . S
C464 C467 1.539 . S
C465 C461 1.408 . S
C465 C464 1.404 . S
C465 H477 0.930 . S
C466 C462 1.524 . S
C466 H478 0.956 . S
C466 H479 0.961 . S
C466 H480 0.961 . S
C467 C464 1.539 . S
C467 H481 0.958 . S
C467 H482 0.961 . S
C467 H483 0.960 . S
H468 C452 0.931 . S
H469 C457 0.929 . S
H470 C458 0.960 . S
H471 C458 0.962 . S
H472 C458 0.960 . S
H473 C459 0.961 . S
H474 C459 0.961 . S
H475 C459 0.961 . S
H476 C460 0.931 . S
H477 C465 0.930 . S
H478 C466 0.956 . S
H479 C466 0.961 . S
H480 C466 0.961 . S
H481 C467 0.958 . S
H482 C467 0.961 . S
H483 C467 0.960 . S
C484 C485 1.391 . S
C484 C486 1.394 . S
C484 H500 0.931 . S
C485 C484 1.391 . S
C485 C489 1.376 . S
C486 C484 1.394 . S
C486 C487 1.369 . S
C486 C490 1.531 . S
C487 C486 1.369 . S
C487 C488 1.410 . S
C487 C495 1.503 . S
C488 C487 1.410 . S
C488 C489 1.392 . S
C488 C491 1.511 . S
C489 C485 1.376 . S
C489 C488 1.392 . S
C489 H501 0.929 . S
C490 C486 1.531 . S
C490 H502 0.960 . S
C490 H503 0.962 . S
C490 H504 0.960 . S
C491 C488 1.511 . S
C491 H505 0.961 . S
C491 H506 0.961 . S
C491 H507 0.961 1_556 S
C492 C493 1.370 . S
C492 C494 1.363 . S
C492 H508 0.931 . S
C493 C492 1.370 . S
C493 C497 1.408 . S
C494 C492 1.363 . S
C494 C495 1.370 . S
C494 C498 1.524 . S
C495 C487 1.503 . S
C495 C494 1.370 . S
C495 C496 1.403 . S
C496 C495 1.403 . S
C496 C497 1.404 . S
C496 C499 1.539 . S
C497 C493 1.408 . S
C497 C496 1.404 . S
C497 H509 0.930 . S
C498 C494 1.524 . S
C498 H510 0.956 . S
C498 H511 0.961 . S
C498 H512 0.961 . S
C499 C496 1.539 . S
C499 H513 0.958 . S
C499 H514 0.961 1_556 S
C499 H515 0.959 1_556 S
H500 C484 0.931 . S
H501 C489 0.929 . S
H502 C490 0.960 . S
H503 C490 0.962 . S
H504 C490 0.960 . S
H505 C491 0.961 . S
H506 C491 0.961 . S
H507 C491 0.961 1_554 S
H508 C492 0.931 . S
H509 C497 0.930 . S
H510 C498 0.956 . S
H511 C498 0.961 . S
H512 C498 0.961 . S
H513 C499 0.958 . S
H514 C499 0.961 1_554 S
H515 C499 0.959 1_554 S
C516 C517 1.391 . S
C516 C518 1.394 . S
C516 H532 0.931 . S
C517 C516 1.391 . S
C517 C521 1.376 . S
C518 C516 1.394 . S
C518 C519 1.369 . S
C518 C522 1.531 1_455 S
C519 C518 1.369 . S
C519 C520 1.410 . S
C519 C527 1.503 1_455 S
C520 C519 1.410 . S
C520 C521 1.392 . S
C520 C523 1.511 . S
C521 C517 1.376 . S
C521 C520 1.392 . S
C521 H533 0.929 . S
C522 C518 1.531 1_655 S
C522 H534 0.960 . S
C522 H535 0.962 . S
C522 H536 0.960 . S
C523 C520 1.511 . S
C523 H537 0.961 . S
C523 H538 0.961 . S
C523 H539 0.961 . S
C524 C525 1.370 . S
C524 C526 1.363 . S
C524 H540 0.931 . S
C525 C524 1.370 . S
C525 C529 1.408 . S
C526 C524 1.363 . S
C526 C527 1.370 . S
C526 C530 1.524 . S
C527 C519 1.503 1_655 S
C527 C526 1.370 . S
C527 C528 1.403 1_655 S
C528 C527 1.403 1_455 S
C528 C529 1.404 1_455 S
C528 C531 1.539 . S
C529 C525 1.408 . S
C529 C528 1.404 1_655 S
C529 H541 0.930 1_655 S
C530 C526 1.524 . S
C530 H542 0.956 . S
C530 H543 0.961 . S
C530 H544 0.961 . S
C531 C528 1.539 . S
C531 H545 0.958 . S
C531 H546 0.961 . S
C531 H547 0.960 . S
H532 C516 0.931 . S
H533 C521 0.929 . S
H534 C522 0.960 . S
H535 C522 0.962 . S
H536 C522 0.960 . S
H537 C523 0.961 . S
H538 C523 0.961 . S
H539 C523 0.961 . S
H540 C524 0.931 . S
H541 C529 0.930 1_455 S
H542 C530 0.956 . S
H543 C530 0.961 . S
H544 C530 0.961 . S
H545 C531 0.958 . S
H546 C531 0.961 . S
H547 C531 0.960 . S
C548 C549 1.391 . S
C548 C550 1.394 . S
C548 H564 0.931 . S
C549 C548 1.391 . S
C549 C553 1.376 . S
C550 C548 1.394 . S
C550 C551 1.368 1_565 S
C550 C554 1.531 1_565 S
C551 C550 1.368 1_545 S
C551 C552 1.410 1_545 S
C551 C559 1.504 1_556 S
C552 C551 1.410 1_565 S
C552 C553 1.392 . S
C552 C555 1.511 . S
C553 C549 1.376 . S
C553 C552 1.392 . S
C553 H565 0.929 . S
C554 C550 1.531 1_545 S
C554 H566 0.960 . S
C554 H567 0.962 1_545 S
C554 H568 0.960 . S
C555 C552 1.511 . S
C555 H569 0.961 . S
C555 H570 0.961 1_556 S
C555 H571 0.961 1_565 S
C556 C557 1.405 . S
C556 C558 1.353 1_545 S
C556 H572 0.907 1_545 S
C557 C556 1.405 . S
C557 C561 1.408 . S
C558 C556 1.353 1_565 S
C558 C559 1.370 1_565 S
C558 C562 1.524 . S
C559 C551 1.504 1_554 S
C559 C558 1.370 1_545 S
C559 C560 1.403 . S
C560 C559 1.403 . S
C560 C561 1.404 . S
C560 C563 1.539 1_554 S
C561 C557 1.408 . S
C561 C560 1.404 . S
C561 H573 0.930 . S
C562 C558 1.524 . S
C562 H574 0.956 . S
C562 H575 0.961 . S
C562 H576 0.961 . S
C563 C560 1.539 1_556 S
C563 H577 0.958 . S
C563 H578 0.961 1_556 S
C563 H579 0.960 . S
H564 C548 0.931 . S
H565 C553 0.929 . S
H566 C554 0.960 . S
H567 C554 0.962 1_565 S
H568 C554 0.960 . S
H569 C555 0.961 . S
H570 C555 0.961 1_554 S
H571 C555 0.961 1_545 S
H572 C556 0.907 1_565 S
H573 C561 0.930 . S
H574 C562 0.956 . S
H575 C562 0.961 . S
H576 C562 0.961 . S
H577 C563 0.958 . S
H578 C563 0.961 1_554 S
H579 C563 0.960 . S
C580 C581 1.391 . S
C580 C582 1.394 . S
C580 H596 0.931 . S
C581 C580 1.391 . S
C581 C585 1.376 . S
C582 C580 1.394 . S
C582 C583 1.369 . S
C582 C586 1.531 . S
C583 C582 1.369 . S
C583 C584 1.410 . S
C583 C591 1.503 . S
C584 C583 1.410 . S
C584 C585 1.392 . S
C584 C587 1.511 . S
C585 C581 1.376 . S
C585 C584 1.392 . S
C585 H597 0.929 . S
C586 C582 1.531 . S
C586 H598 0.960 . S
C586 H599 0.962 . S
C586 H600 0.960 . S
C587 C584 1.511 . S
C587 H601 0.961 . S
C587 H602 0.961 . S
C587 H603 0.961 . S
C588 C589 1.370 . S
C588 C590 1.363 . S
C588 H604 0.931 . S
C589 C588 1.370 . S
C589 C593 1.408 . S
C590 C588 1.363 . S
C590 C591 1.370 . S
C590 C594 1.524 . S
C591 C583 1.503 . S
C591 C590 1.370 . S
C591 C592 1.403 . S
C592 C591 1.403 . S
C592 C593 1.404 . S
C592 C595 1.539 . S
C593 C589 1.408 . S
C593 C592 1.404 . S
C593 H605 0.930 . S
C594 C590 1.524 . S
C594 H606 0.956 . S
C594 H607 0.961 . S
C594 H608 0.961 . S
C595 C592 1.539 . S
C595 H609 0.958 . S
C595 H610 0.961 . S
C595 H611 0.960 . S
H596 C580 0.931 . S
H597 C585 0.929 . S
H598 C586 0.960 . S
H599 C586 0.962 . S
H600 C586 0.960 . S
H601 C587 0.961 . S
H602 C587 0.961 . S
H603 C587 0.961 . S
H604 C588 0.931 . S
H605 C593 0.930 . S
H606 C594 0.956 . S
H607 C594 0.961 . S
H608 C594 0.961 . S
H609 C595 0.958 . S
H610 C595 0.961 . S
H611 C595 0.960 . S
C612 C613 1.391 . S
C612 C614 1.394 . S
C612 H628 0.931 . S
C613 C612 1.391 . S
C613 C617 1.376 . S
C614 C612 1.394 . S
C614 C615 1.369 . S
C614 C618 1.531 . S
C615 C614 1.369 . S
C615 C616 1.410 . S
C615 C623 1.503 1_455 S
C616 C615 1.410 . S
C616 C617 1.392 . S
C616 C619 1.511 . S
C617 C613 1.376 . S
C617 C616 1.392 . S
C617 H629 0.929 . S
C618 C614 1.531 . S
C618 H630 0.960 . S
C618 H631 0.962 1_455 S
C618 H632 0.960 . S
C619 C616 1.511 . S
C619 H633 0.961 . S
C619 H634 0.961 . S
C619 H635 0.961 . S
C620 C621 1.370 . S
C620 C622 1.363 . S
C620 H636 0.931 . S
C621 C620 1.370 . S
C621 C625 1.408 1_655 S
C622 C620 1.363 . S
C622 C623 1.370 . S
C622 C626 1.524 . S
C623 C615 1.503 1_655 S
C623 C622 1.370 . S
C623 C624 1.403 1_655 S
C624 C623 1.403 1_455 S
C624 C625 1.404 . S
C624 C627 1.539 . S
C625 C621 1.408 1_455 S
C625 C624 1.404 . S
C625 H637 0.930 . S
C626 C622 1.524 . S
C626 H638 0.956 . S
C626 H639 0.961 . S
C626 H640 0.961 . S
C627 C624 1.539 . S
C627 H641 0.958 . S
C627 H642 0.961 . S
C627 H643 0.960 . S
H628 C612 0.931 . S
H629 C617 0.929 . S
H630 C618 0.960 . S
H631 C618 0.962 1_655 S
H632 C618 0.960 . S
H633 C619 0.961 . S
H634 C619 0.961 . S
H635 C619 0.961 . S
H636 C620 0.931 . S
H637 C625 0.930 . S
H638 C626 0.956 . S
H639 C626 0.961 . S
H640 C626 0.961 . S
H641 C627 0.958 . S
H642 C627 0.961 . S
H643 C627 0.960 . S
C644 C645 1.391 . S
C644 C646 1.394 . S
C644 H660 0.931 . S
C645 C644 1.391 . S
C645 C649 1.376 . S
C646 C644 1.394 . S
C646 C647 1.369 . S
C646 C650 1.531 . S
C647 C646 1.369 . S
C647 C648 1.410 . S
C647 C655 1.503 1_565 S
C648 C647 1.410 . S
C648 C649 1.392 . S
C648 C651 1.511 . S
C649 C645 1.376 . S
C649 C648 1.392 . S
C649 H661 0.929 . S
C650 C646 1.531 . S
C650 H662 0.960 . S
C650 H663 0.962 . S
C650 H664 0.960 . S
C651 C648 1.511 . S
C651 H665 0.961 1_565 S
C651 H666 0.961 1_565 S
C651 H667 0.961 . S
C652 C653 1.370 . S
C652 C654 1.363 . S
C652 H668 0.931 . S
C653 C652 1.370 . S
C653 C657 1.408 1_545 S
C654 C652 1.363 . S
C654 C655 1.370 . S
C654 C658 1.524 . S
C655 C647 1.503 1_545 S
C655 C654 1.370 . S
C655 C656 1.403 1_545 S
C656 C655 1.403 1_565 S
C656 C657 1.404 . S
C656 C659 1.539 . S
C657 C653 1.408 1_565 S
C657 C656 1.404 . S
C657 H669 0.930 . S
C658 C654 1.524 . S
C658 H670 0.956 . S
C658 H671 0.961 . S
C658 H672 0.961 . S
C659 C656 1.539 . S
C659 H673 0.958 . S
C659 H674 0.961 . S
C659 H675 0.960 . S
H660 C644 0.931 . S
H661 C649 0.929 . S
H662 C650 0.960 . S
H663 C650 0.962 . S
H664 C650 0.960 . S
H665 C651 0.961 1_545 S
H666 C651 0.961 1_545 S
H667 C651 0.961 . S
H668 C652 0.931 . S
H669 C657 0.930 . S
H670 C658 0.956 . S
H671 C658 0.961 . S
H672 C658 0.961 . S
H673 C659 0.958 . S
H674 C659 0.961 . S
H675 C659 0.960 . S
C676 C677 1.391 . S
C676 C678 1.394 . S
C676 H692 0.931 . S
C677 C676 1.391 . S
C677 C681 1.376 . S
C678 C676 1.394 . S
C678 C679 1.369 . S
C678 C682 1.531 . S
C679 C678 1.369 . S
C679 C680 1.410 . S
C679 C687 1.503 . S
C680 C679 1.410 . S
C680 C681 1.392 . S
C680 C683 1.511 . S
C681 C677 1.376 . S
C681 C680 1.392 . S
C681 H693 0.929 . S
C682 C678 1.531 . S
C682 H694 0.960 . S
C682 H695 0.962 . S
C682 H696 0.960 . S
C683 C680 1.511 . S
C683 H697 0.961 . S
C683 H698 0.961 . S
C683 H699 0.961 . S
C684 C685 1.370 . S
C684 C686 1.363 . S
C684 H700 0.931 . S
C685 C684 1.370 . S
C685 C689 1.408 . S
C686 C684 1.363 . S
C686 C687 1.370 . S
C686 C690 1.524 . S
C687 C679 1.503 . S
C687 C686 1.370 . S
C687 C688 1.403 . S
C688 C687 1.403 . S
C688 C689 1.404 . S
C688 C691 1.539 . S
C689 C685 1.408 . S
C689 C688 1.404 . S
C689 H701 0.930 . S
C690 C686 1.524 . S
C690 H702 0.956 . S
C690 H703 0.961 . S
C690 H704 0.961 . S
C691 C688 1.539 . S
C691 H705 0.958 . S
C691 H706 0.961 . S
C691 H707 0.960 . S
H692 C676 0.931 . S
H693 C681 0.929 . S
H694 C682 0.960 . S
H695 C682 0.962 . S
H696 C682 0.960 . S
H697 C683 0.961 . S
H698 C683 0.961 . S
H699 C683 0.961 . S
H700 C684 0.931 . S
H701 C689 0.930 . S
H702 C690 0.956 . S
H703 C690 0.961 . S
H704 C690 0.961 . S
H705 C691 0.958 . S
H706 C691 0.961 . S
H707 C691 0.960 . S
C133 C8 1.614 . S
C141 C118 1.620 . S
C165 C129 1.621 . S
C173 C19 1.625 . S
C197 C74 1.620 . S
C205 C30 1.624 . S
C229 C41 1.623 . S
C237 C85 1.623 . S
C261 C96 1.615 . S
C269 C52 1.622 . S
C293 C63 1.618 . S
C301 C107 1.623 . S
C325 C7 1.651 . S
C333 C95 1.644 . S
C357 C106 1.633 . S
C365 C18 1.643 . S
C389 C29 1.654 . S
C397 C117 1.640 . S
C421 C128 1.627 . S
C429 C40 1.650 . S
C453 C51 1.636 . S
C461 C73 1.642 . S
C485 C62 1.634 . S
C493 C84 1.650 . S
C517 C5 1.427 . S
C525 C126 1.373 . S
C549 C71 1.344 . S
C557 C16 1.408 . S
C581 C27 1.407 . S
C589 C82 1.394 1_554 S
C613 C93 1.430 . S
C621 C38 1.374 . S
C645 C49 1.434 . S
C653 C104 1.377 . S
C677 C115 1.393 . S
C685 C60 1.378 . S
