# Generated by pormake.
# Topology atn, (4)-cn, num edge types: 1
# Building blocks:
#     Node 0, Type 0, BuildingBlock: KUFVIS_clean_sbu_0, # of connection points: 4
#     Node 1, Type 0, BuildingBlock: KUFVIS_clean_sbu_0, # of connection points: 4
#     Node 2, Type 0, BuildingBlock: KUFVIS_clean_sbu_0, # of connection points: 4
#     Node 3, Type 0, BuildingBlock: KUFVIS_clean_sbu_0, # of connection points: 4
#     Node 4, Type 0, BuildingBlock: KUFVIS_clean_sbu_0, # of connection points: 4
#     Node 5, Type 0, BuildingBlock: KUFVIS_clean_sbu_0, # of connection points: 4
#     Node 6, Type 0, BuildingBlock: KUFVIS_clean_sbu_0, # of connection points: 4
#     Node 7, Type 0, BuildingBlock: KUFVIS_clean_sbu_0, # of connection points: 4
#     Node 8, Type 0, BuildingBlock: KUFVIS_clean_sbu_0, # of connection points: 4
#     Node 9, Type 0, BuildingBlock: KUFVIS_clean_sbu_0, # of connection points: 4
#     Node 10, Type 0, BuildingBlock: KUFVIS_clean_sbu_0, # of connection points: 4
#     Node 11, Type 0, BuildingBlock: KUFVIS_clean_sbu_0, # of connection points: 4
#     Node 12, Type 0, BuildingBlock: KUFVIS_clean_sbu_0, # of connection points: 4
#     Node 13, Type 0, BuildingBlock: KUFVIS_clean_sbu_0, # of connection points: 4
#     Node 14, Type 0, BuildingBlock: KUFVIS_clean_sbu_0, # of connection points: 4
#     Node 15, Type 0, BuildingBlock: KUFVIS_clean_sbu_0, # of connection points: 4
#     Edge 16, Type (0, 0), BuildingBlock: KIFKEQ_clean_linker_1, # of connection points: 2
#     Edge 17, Type (0, 0), BuildingBlock: KIFKEQ_clean_linker_1, # of connection points: 2
#     Edge 18, Type (0, 0), BuildingBlock: KIFKEQ_clean_linker_1, # of connection points: 2
#     Edge 19, Type (0, 0), BuildingBlock: KIFKEQ_clean_linker_1, # of connection points: 2
#     Edge 20, Type (0, 0), BuildingBlock: KIFKEQ_clean_linker_1, # of connection points: 2
#     Edge 21, Type (0, 0), BuildingBlock: KIFKEQ_clean_linker_1, # of connection points: 2
#     Edge 22, Type (0, 0), BuildingBlock: KIFKEQ_clean_linker_1, # of connection points: 2
#     Edge 23, Type (0, 0), BuildingBlock: KIFKEQ_clean_linker_1, # of connection points: 2
#     Edge 24, Type (0, 0), BuildingBlock: KIFKEQ_clean_linker_1, # of connection points: 2
#     Edge 25, Type (0, 0), BuildingBlock: KIFKEQ_clean_linker_1, # of connection points: 2
#     Edge 26, Type (0, 0), BuildingBlock: KIFKEQ_clean_linker_1, # of connection points: 2
#     Edge 27, Type (0, 0), BuildingBlock: KIFKEQ_clean_linker_1, # of connection points: 2
#     Edge 28, Type (0, 0), BuildingBlock: KIFKEQ_clean_linker_1, # of connection points: 2
#     Edge 29, Type (0, 0), BuildingBlock: KIFKEQ_clean_linker_1, # of connection points: 2
#     Edge 30, Type (0, 0), BuildingBlock: KIFKEQ_clean_linker_1, # of connection points: 2
#     Edge 31, Type (0, 0), BuildingBlock: KIFKEQ_clean_linker_1, # of connection points: 2
#     Edge 32, Type (0, 0), BuildingBlock: KIFKEQ_clean_linker_1, # of connection points: 2
#     Edge 33, Type (0, 0), BuildingBlock: KIFKEQ_clean_linker_1, # of connection points: 2
#     Edge 34, Type (0, 0), BuildingBlock: KIFKEQ_clean_linker_1, # of connection points: 2
#     Edge 35, Type (0, 0), BuildingBlock: KIFKEQ_clean_linker_1, # of connection points: 2
#     Edge 36, Type (0, 0), BuildingBlock: KIFKEQ_clean_linker_1, # of connection points: 2
#     Edge 37, Type (0, 0), BuildingBlock: KIFKEQ_clean_linker_1, # of connection points: 2
#     Edge 38, Type (0, 0), BuildingBlock: KIFKEQ_clean_linker_1, # of connection points: 2
#     Edge 39, Type (0, 0), BuildingBlock: KIFKEQ_clean_linker_1, # of connection points: 2
#     Edge 40, Type (0, 0), BuildingBlock: KIFKEQ_clean_linker_1, # of connection points: 2
#     Edge 41, Type (0, 0), BuildingBlock: KIFKEQ_clean_linker_1, # of connection points: 2
#     Edge 42, Type (0, 0), BuildingBlock: KIFKEQ_clean_linker_1, # of connection points: 2
#     Edge 43, Type (0, 0), BuildingBlock: KIFKEQ_clean_linker_1, # of connection points: 2
#     Edge 44, Type (0, 0), BuildingBlock: KIFKEQ_clean_linker_1, # of connection points: 2
#     Edge 45, Type (0, 0), BuildingBlock: KIFKEQ_clean_linker_1, # of connection points: 2
#     Edge 46, Type (0, 0), BuildingBlock: KIFKEQ_clean_linker_1, # of connection points: 2
#     Edge 47, Type (0, 0), BuildingBlock: KIFKEQ_clean_linker_1, # of connection points: 2
# Relax obj value: 0.056
# Max RMSD: 0.082
# Mean RMSD: 0.082
data_MOF--net-atn--node1-KUFVIS_clean_sbu_0--edge1-KIFKEQ_clean_linker_1
_symmetry_space_group_name_H-M    P1
_symmetry_Int_Tables_number       1
_symmetry_cell_setting            triclinic
loop_
_symmetry_equiv_pos_as_xyz
'x, y, z'
_cell_length_a     61.414709
_cell_length_b     61.447033
_cell_length_c     26.950371
_cell_angle_alpha  90.006833
_cell_angle_beta   89.987528
_cell_angle_gamma 90.014951
loop_
_atom_site_label
_atom_site_type_symbol
_atom_site_fract_x
_atom_site_fract_y
_atom_site_fract_z
_atom_type_partial_charge
Mn0 Mn 0.21013 0.38019 0.00635 0.0
Mn1 Mn 0.15617 0.38961 0.01448 0.0
C2 C 0.19296 0.37962 0.08273 0.0
C3 C 0.23837 0.355 0.99653 0.0
C4 C 0.18979 0.42526 0.99664 0.0
O5 O 0.19951 0.37611 0.93503 0.0
O6 O 0.16322 0.37875 0.94701 0.0
C7 C 0.13978 0.34447 0.00492 0.0
N8 N 0.14097 0.36344 0.03094 0.0
C9 C 0.11777 0.34919 0.09517 0.0
C10 C 0.11606 0.32961 0.06871 0.0
C11 C 0.12718 0.32722 0.02349 0.0
C12 C 0.13046 0.36586 0.07468 0.0
H13 H 0.14848 0.34248 0.97043 0.0
C14 C 0.17984 0.37474 0.91971 0.0
O15 O 0.24137 0.37553 0.9869 0.0
O16 O 0.21896 0.34925 0.00989 0.0
N17 N 0.14732 0.39975 0.07856 0.0
C18 C 0.15204 0.41898 0.10132 0.0
C19 C 0.14298 0.42354 0.14801 0.0
C20 C 0.12909 0.40835 0.17068 0.0
C21 C 0.12442 0.38869 0.14653 0.0
C22 C 0.1338 0.3851 0.09988 0.0
H23 H 0.16269 0.43074 0.08409 0.0
O24 O 0.21384 0.38254 0.08009 0.0
O25 O 0.18295 0.37717 0.04079 0.0
O26 O 0.2068 0.41341 0.00059 0.0
O27 O 0.17043 0.41765 0.99883 0.0
C28 C 0.11113 0.37235 0.16726 0.0
C29 C 0.10783 0.35261 0.14162 0.0
H30 H 0.10649 0.31621 0.08309 0.0
H31 H 0.12612 0.31209 0.00309 0.0
H32 H 0.14671 0.43872 0.16652 0.0
H33 H 0.12219 0.41194 0.20671 0.0
H34 H 0.10363 0.37463 0.20322 0.0
H35 H 0.0979 0.34003 0.15838 0.0
Mn36 Mn 0.63525 0.20964 0.01766 0.0
Mn37 Mn 0.62533 0.15582 0.02793 0.0
C38 C 0.63618 0.19276 0.09451 0.0
C39 C 0.66044 0.23786 0.00711 0.0
C40 C 0.58964 0.18951 0.01247 0.0
O41 O 0.6393 0.19881 0.94656 0.0
O42 O 0.63414 0.16288 0.95899 0.0
C43 C 0.66999 0.13919 0.0112 0.0
N44 N 0.65188 0.14053 0.04023 0.0
C45 C 0.66776 0.11699 0.10171 0.0
C46 C 0.68654 0.11526 0.07235 0.0
C47 C 0.68767 0.12646 0.02697 0.0
C48 C 0.65065 0.12989 0.08404 0.0
H49 H 0.67094 0.14779 0.97633 0.0
C50 C 0.63887 0.17913 0.93116 0.0
O51 O 0.63988 0.2408 0.99765 0.0
O52 O 0.66622 0.21851 0.02079 0.0
N53 N 0.61698 0.14677 0.09314 0.0
C54 C 0.59834 0.15133 0.11856 0.0
C55 C 0.59484 0.14175 0.16514 0.0
C56 C 0.61047 0.12757 0.18502 0.0
C57 C 0.6296 0.12324 0.1584 0.0
C58 C 0.6321 0.13308 0.11191 0.0
H59 H 0.58631 0.16229 0.10357 0.0
O60 O 0.63308 0.2136 0.09142 0.0
O61 O 0.63845 0.18255 0.05276 0.0
O62 O 0.60183 0.2064 0.012 0.0
O63 O 0.59707 0.17018 0.01689 0.0
C64 C 0.6464 0.10978 0.17642 0.0
C65 C 0.6655 0.10672 0.14819 0.0
H66 H 0.70024 0.10552 0.08446 0.0
H67 H 0.70214 0.12528 0.00421 0.0
H68 H 0.58011 0.14529 0.18568 0.0
H69 H 0.60762 0.12016 0.22076 0.0
H70 H 0.64495 0.10196 0.21228 0.0
H71 H 0.67846 0.09663 0.16282 0.0
Mn72 Mn 0.8045 0.6342 0.01311 0.0
Mn73 Mn 0.85853 0.62494 0.02035 0.0
C74 C 0.82188 0.63472 0.08924 0.0
C75 C 0.77617 0.6593 0.00344 0.0
C76 C 0.82496 0.58919 0.00289 0.0
O77 O 0.81491 0.63834 0.94168 0.0
O78 O 0.85124 0.63583 0.95305 0.0
C79 C 0.87472 0.67014 0.01069 0.0
N80 N 0.87369 0.65115 0.03665 0.0
C81 C 0.89709 0.66543 0.10045 0.0
C82 C 0.89864 0.68503 0.07406 0.0
C83 C 0.88733 0.68742 0.02908 0.0
C84 C 0.88438 0.64873 0.08015 0.0
H85 H 0.86589 0.67213 0.97638 0.0
C86 C 0.83452 0.6398 0.92605 0.0
O87 O 0.77322 0.63875 0.99397 0.0
O88 O 0.79556 0.66511 0.01679 0.0
N89 N 0.86766 0.61478 0.08424 0.0
C90 C 0.86313 0.59549 0.10698 0.0
C91 C 0.87242 0.59092 0.15343 0.0
C92 C 0.88635 0.60615 0.17587 0.0
C93 C 0.89081 0.62586 0.15173 0.0
C94 C 0.88121 0.62945 0.10533 0.0
H95 H 0.85246 0.58371 0.08991 0.0
O96 O 0.80098 0.63179 0.0869 0.0
O97 O 0.83177 0.63726 0.04718 0.0
O98 O 0.80793 0.60099 0.00717 0.0
O99 O 0.84432 0.59685 0.00483 0.0
C100 C 0.90412 0.64222 0.17226 0.0
C101 C 0.90724 0.662 0.14667 0.0
H102 H 0.90822 0.69845 0.08829 0.0
H103 H 0.88826 0.70257 0.00873 0.0
H104 H 0.86885 0.5757 0.17191 0.0
H105 H 0.89345 0.60258 0.21171 0.0
H106 H 0.91176 0.63992 0.20808 0.0
H107 H 0.91718 0.67461 0.16328 0.0
Mn108 Mn 0.37968 0.80508 0.01347 0.0
Mn109 Mn 0.38969 0.85894 0.02248 0.0
C110 C 0.37909 0.82217 0.09 0.0
C111 C 0.35447 0.77685 0.00338 0.0
C112 C 0.42517 0.82519 0.00558 0.0
O113 O 0.37546 0.81578 0.94225 0.0
O114 O 0.38011 0.85182 0.9542 0.0
C115 C 0.3449 0.87563 0.00833 0.0
N116 N 0.36328 0.87422 0.03639 0.0
C117 C 0.34792 0.89743 0.09921 0.0
C118 C 0.32886 0.89923 0.07086 0.0
C119 C 0.32733 0.88823 0.02528 0.0
C120 C 0.36491 0.88469 0.08035 0.0
H121 H 0.34363 0.86716 0.97333 0.0
C122 C 0.37548 0.83545 0.9267 0.0
O123 O 0.37501 0.77391 0.99377 0.0
O124 O 0.3487 0.7962 0.01706 0.0
N125 N 0.39877 0.86796 0.08722 0.0
C126 C 0.41775 0.8635 0.11136 0.0
C127 C 0.42162 0.8728 0.15811 0.0
C128 C 0.40602 0.88666 0.17939 0.0
C129 C 0.38663 0.89104 0.15384 0.0
C130 C 0.38375 0.88144 0.10718 0.0
H131 H 0.42982 0.8529 0.09511 0.0
O132 O 0.38204 0.8013 0.08719 0.0
O133 O 0.37672 0.83226 0.04813 0.0
O134 O 0.41302 0.8083 0.0075 0.0
O135 O 0.41784 0.84459 0.00935 0.0
C136 C 0.36993 0.9043 0.17308 0.0
C137 C 0.35057 0.90745 0.14585 0.0
H138 H 0.31524 0.90885 0.08392 0.0
H139 H 0.31264 0.88945 0.0033 0.0
H140 H 0.43659 0.86932 0.1777 0.0
H141 H 0.40911 0.89383 0.21535 0.0
H142 H 0.37165 0.91193 0.20906 0.0
H143 H 0.33771 0.9174 0.16141 0.0
Mn144 Mn 0.21007 0.63482 0.98786 0.0
Mn145 Mn 0.15608 0.62532 0.98072 0.0
C146 C 0.19267 0.63523 0.91178 0.0
C147 C 0.23831 0.66006 0.99742 0.0
C148 C 0.18978 0.58972 0.9981 0.0
O149 O 0.19968 0.63893 0.05932 0.0
O150 O 0.16336 0.63624 0.04801 0.0
C151 C 0.13973 0.67046 0.99043 0.0
N152 N 0.14081 0.65147 0.96447 0.0
C153 C 0.11731 0.66564 0.90075 0.0
C154 C 0.11572 0.68524 0.92715 0.0
C155 C 0.12705 0.68768 0.97208 0.0
C156 C 0.1301 0.649 0.92101 0.0
H157 H 0.14858 0.67248 0.02471 0.0
C158 C 0.18006 0.64029 0.07498 0.0
O159 O 0.24135 0.63953 0.00692 0.0
O160 O 0.21889 0.66578 0.98412 0.0
N161 N 0.14695 0.61512 0.91687 0.0
C162 C 0.15151 0.59584 0.89413 0.0
C163 C 0.1422 0.59122 0.84772 0.0
C164 C 0.1282 0.60639 0.82533 0.0
C165 C 0.12369 0.62608 0.84946 0.0
C166 C 0.13332 0.62973 0.89582 0.0
H167 H 0.16223 0.58409 0.91117 0.0
O168 O 0.21357 0.6324 0.91408 0.0
O169 O 0.18278 0.63775 0.95385 0.0
O170 O 0.20677 0.6016 0.99383 0.0
O171 O 0.1704 0.5973 0.99619 0.0
C172 C 0.11031 0.64239 0.82898 0.0
C173 C 0.10715 0.66216 0.85457 0.0
H174 H 0.10608 0.69862 0.91295 0.0
H175 H 0.12607 0.70283 0.99243 0.0
H176 H 0.1458 0.576 0.82924 0.0
H177 H 0.12108 0.60278 0.78952 0.0
H178 H 0.10265 0.64005 0.7932 0.0
H179 H 0.09715 0.67473 0.838 0.0
Mn180 Mn 0.37955 0.20996 0.98308 0.0
Mn181 Mn 0.38924 0.15606 0.97374 0.0
C182 C 0.37834 0.19278 0.90662 0.0
C183 C 0.35452 0.23831 0.99337 0.0
C184 C 0.42512 0.18968 0.98759 0.0
O185 O 0.37565 0.19947 0.05445 0.0
O186 O 0.38092 0.16351 0.04282 0.0
C187 C 0.34459 0.13979 0.99242 0.0
N188 N 0.36251 0.14087 0.96275 0.0
C189 C 0.34602 0.1172 0.90233 0.0
C190 C 0.32743 0.11573 0.93238 0.0
C191 C 0.3267 0.12713 0.97755 0.0
C192 C 0.36336 0.13003 0.91914 0.0
H193 H 0.34393 0.14855 0.02714 0.0
C194 C 0.37625 0.17987 0.07034 0.0
O195 O 0.37511 0.24122 0.00249 0.0
O196 O 0.34862 0.21894 0.98019 0.0
N197 N 0.39711 0.1466 0.90851 0.0
C198 C 0.41563 0.15087 0.8824 0.0
C199 C 0.41877 0.14101 0.83598 0.0
C200 C 0.40288 0.12687 0.81696 0.0
C201 C 0.38387 0.12286 0.84426 0.0
C202 C 0.38175 0.13294 0.89058 0.0
H203 H 0.42784 0.1618 0.8967 0.0
O204 O 0.38155 0.21361 0.90927 0.0
O205 O 0.37611 0.18273 0.94858 0.0
O206 O 0.41297 0.20659 0.98833 0.0
O207 O 0.41764 0.17035 0.98344 0.0
C208 C 0.36683 0.10948 0.82707 0.0
C209 C 0.34788 0.10673 0.85599 0.0
H210 H 0.31357 0.10605 0.92096 0.0
H211 H 0.31237 0.12616 0.00084 0.0
H212 H 0.4334 0.1443 0.81489 0.0
H213 H 0.40545 0.11922 0.78135 0.0
H214 H 0.36798 0.10151 0.79133 0.0
H215 H 0.33474 0.09669 0.84201 0.0
Mn216 Mn 0.80505 0.37959 0.99382 0.0
Mn217 Mn 0.85901 0.38906 0.98586 0.0
C218 C 0.82228 0.37895 0.91752 0.0
C219 C 0.77681 0.35439 0.00364 0.0
C220 C 0.82535 0.4247 0.00345 0.0
O221 O 0.81562 0.37556 0.06516 0.0
O222 O 0.85193 0.37826 0.05338 0.0
C223 C 0.87552 0.344 0.99578 0.0
N224 N 0.87427 0.36291 0.96959 0.0
C225 C 0.89746 0.3486 0.90542 0.0
C226 C 0.89923 0.32908 0.93204 0.0
C227 C 0.88814 0.32675 0.97733 0.0
C228 C 0.88476 0.36528 0.92582 0.0
H229 H 0.86686 0.34205 0.03035 0.0
C230 C 0.83528 0.37423 0.08059 0.0
O231 O 0.7738 0.37492 0.01316 0.0
O232 O 0.79623 0.34864 0.99035 0.0
N233 N 0.86787 0.39914 0.92173 0.0
C234 C 0.8631 0.41833 0.89882 0.0
C235 C 0.87212 0.42282 0.85205 0.0
C236 C 0.88601 0.40762 0.82945 0.0
C237 C 0.89072 0.388 0.85375 0.0
C238 C 0.88139 0.38448 0.90048 0.0
H239 H 0.85244 0.43009 0.91598 0.0
O240 O 0.80139 0.38187 0.92007 0.0
O241 O 0.83226 0.37655 0.95951 0.0
O242 O 0.80835 0.41282 0.99949 0.0
O243 O 0.84472 0.41711 0.00134 0.0
C244 C 0.90401 0.37165 0.8331 0.0
C245 C 0.90736 0.35196 0.85888 0.0
H246 H 0.90881 0.31568 0.91775 0.0
H247 H 0.88926 0.31166 0.99787 0.0
H248 H 0.86835 0.43796 0.83343 0.0
H249 H 0.89287 0.41115 0.79336 0.0
H250 H 0.91147 0.37388 0.79707 0.0
H251 H 0.91728 0.33936 0.84219 0.0
Mn252 Mn 0.63473 0.80417 0.98836 0.0
Mn253 Mn 0.62545 0.85816 0.98154 0.0
C254 C 0.63508 0.82163 0.9123 0.0
C255 C 0.65983 0.7758 0.99746 0.0
C256 C 0.58974 0.8246 0.99957 0.0
O257 O 0.63912 0.8145 0.05979 0.0
O258 O 0.63653 0.85083 0.04869 0.0
C259 C 0.67068 0.87439 0.99068 0.0
N260 N 0.65163 0.87334 0.96493 0.0
C261 C 0.66579 0.89669 0.9009 0.0
C262 C 0.68545 0.89824 0.92707 0.0
C263 C 0.68793 0.88697 0.97207 0.0
C264 C 0.64912 0.88401 0.92143 0.0
H265 H 0.67274 0.86558 0.025 0.0
C266 C 0.64061 0.83409 0.07553 0.0
O267 O 0.6393 0.77288 0.00727 0.0
O268 O 0.66564 0.79518 0.9841 0.0
N269 N 0.61513 0.86731 0.9178 0.0
C270 C 0.59579 0.86276 0.89527 0.0
C271 C 0.59114 0.872 0.8488 0.0
C272 C 0.60634 0.88588 0.82612 0.0
C273 C 0.6261 0.89037 0.85005 0.0
C274 C 0.62977 0.88083 0.89649 0.0
H275 H 0.58403 0.85211 0.91251 0.0
O276 O 0.6321 0.80075 0.91457 0.0
O277 O 0.63772 0.83146 0.9544 0.0
O278 O 0.60153 0.80759 0.99494 0.0
O279 O 0.59739 0.84394 0.99747 0.0
C280 C 0.64244 0.90363 0.82927 0.0
C281 C 0.66228 0.90677 0.85465 0.0
H282 H 0.69886 0.9078 0.91265 0.0
H283 H 0.70313 0.88792 0.99225 0.0
H284 H 0.57588 0.8684 0.83047 0.0
H285 H 0.60272 0.89293 0.79024 0.0
H286 H 0.64009 0.91122 0.79342 0.0
H287 H 0.67487 0.91669 0.83785 0.0
Mn288 Mn 0.71021 0.87887 0.51367 0.0
Mn289 Mn 0.65624 0.88845 0.52054 0.0
C290 C 0.69272 0.8785 0.58972 0.0
C291 C 0.73849 0.85369 0.5043 0.0
C292 C 0.69004 0.92398 0.50298 0.0
O293 O 0.69988 0.87467 0.44218 0.0
O294 O 0.66354 0.87744 0.45332 0.0
C295 C 0.63979 0.84333 0.51103 0.0
N296 N 0.6409 0.86234 0.5369 0.0
C297 C 0.61739 0.84825 0.60072 0.0
C298 C 0.61576 0.82863 0.57441 0.0
C299 C 0.62708 0.82614 0.52946 0.0
C300 C 0.6302 0.86486 0.58037 0.0
H301 H 0.64863 0.84126 0.47675 0.0
C302 C 0.68027 0.87331 0.42644 0.0
O303 O 0.74149 0.87421 0.49472 0.0
O304 O 0.71907 0.84792 0.5176 0.0
N305 N 0.6471 0.89873 0.58433 0.0
C306 C 0.65171 0.91801 0.607 0.0
C307 C 0.64242 0.92267 0.65343 0.0
C308 C 0.62841 0.90753 0.67592 0.0
C309 C 0.62386 0.88783 0.65185 0.0
C310 C 0.63345 0.88414 0.60546 0.0
H311 H 0.66245 0.92972 0.58991 0.0
O312 O 0.71363 0.88135 0.58749 0.0
O313 O 0.68288 0.87598 0.5476 0.0
O314 O 0.70698 0.91207 0.50748 0.0
O315 O 0.67063 0.91645 0.50491 0.0
C316 C 0.61046 0.87155 0.67245 0.0
C317 C 0.60725 0.85176 0.64693 0.0
H318 H 0.6061 0.81527 0.58869 0.0
H319 H 0.62607 0.81097 0.50918 0.0
H320 H 0.64606 0.93789 0.67185 0.0
H321 H 0.62131 0.91117 0.71174 0.0
H322 H 0.60283 0.87391 0.70825 0.0
H323 H 0.59724 0.83922 0.66359 0.0
Mn324 Mn 0.13447 0.70895 0.5131 0.0
Mn325 Mn 0.1253 0.65493 0.5202 0.0
C326 C 0.1349 0.69157 0.58917 0.0
C327 C 0.15958 0.7373 0.5038 0.0
C328 C 0.08949 0.68839 0.50247 0.0
O329 O 0.13879 0.69859 0.44172 0.0
O330 O 0.13624 0.66227 0.45292 0.0
C331 C 0.17056 0.63886 0.51063 0.0
N332 N 0.15156 0.63985 0.53658 0.0
C333 C 0.16591 0.61661 0.60056 0.0
C334 C 0.18553 0.61511 0.57418 0.0
C335 C 0.18789 0.62635 0.52911 0.0
C336 C 0.14916 0.62922 0.58014 0.0
H337 H 0.17253 0.64764 0.47624 0.0
C338 C 0.14026 0.679 0.42602 0.0
O339 O 0.13904 0.74023 0.49409 0.0
O340 O 0.16538 0.71792 0.51714 0.0
N341 N 0.11512 0.64578 0.58407 0.0
C342 C 0.09581 0.65028 0.60679 0.0
C343 C 0.09127 0.64106 0.65334 0.0
C344 C 0.10656 0.62725 0.67591 0.0
C345 C 0.12629 0.62281 0.65179 0.0
C346 C 0.12985 0.63233 0.60528 0.0
H347 H 0.08399 0.66087 0.58963 0.0
O348 O 0.1319 0.71244 0.58684 0.0
O349 O 0.13753 0.6817 0.54712 0.0
O350 O 0.10126 0.70544 0.50678 0.0
O351 O 0.09718 0.66906 0.50458 0.0
C352 C 0.14271 0.60963 0.67245 0.0
C353 C 0.16251 0.60655 0.64689 0.0
H354 H 0.19899 0.60561 0.5885 0.0
H355 H 0.20305 0.62544 0.50877 0.0
H356 H 0.07603 0.64461 0.67181 0.0
H357 H 0.10302 0.62022 0.71186 0.0
H358 H 0.14044 0.60206 0.70835 0.0
H359 H 0.17517 0.5967 0.66359 0.0
Mn360 Mn 0.3039 0.13495 0.50695 0.0
Mn361 Mn 0.35757 0.12418 0.51707 0.0
C362 C 0.32067 0.13519 0.58392 0.0
C363 C 0.27596 0.16044 0.4967 0.0
C364 C 0.32336 0.0893 0.49853 0.0
O365 O 0.31505 0.13918 0.43596 0.0
O366 O 0.35101 0.13429 0.44892 0.0
C367 C 0.37521 0.1687 0.50487 0.0
N368 N 0.37325 0.1502 0.53232 0.0
C369 C 0.39638 0.1647 0.59633 0.0
C370 C 0.39875 0.18387 0.56864 0.0
C371 C 0.38807 0.18589 0.52277 0.0
C372 C 0.38341 0.1481 0.57655 0.0
H373 H 0.367 0.17033 0.46963 0.0
C374 C 0.33483 0.13911 0.42099 0.0
O375 O 0.27286 0.13998 0.48666 0.0
O376 O 0.29535 0.16601 0.51071 0.0
N377 N 0.36596 0.11455 0.58179 0.0
C378 C 0.36091 0.09556 0.60522 0.0
C379 C 0.36976 0.09125 0.6522 0.0
C380 C 0.3838 0.10643 0.67444 0.0
C381 C 0.3888 0.12585 0.64959 0.0
C382 C 0.37961 0.12918 0.60269 0.0
H383 H 0.35016 0.08381 0.58826 0.0
O384 O 0.29976 0.1325 0.58063 0.0
O385 O 0.33096 0.13747 0.54227 0.0
O386 O 0.30662 0.10162 0.50073 0.0
O387 O 0.34285 0.09636 0.50255 0.0
C388 C 0.40231 0.14215 0.66974 0.0
C389 C 0.40606 0.16157 0.64319 0.0
H390 H 0.40858 0.19721 0.58242 0.0
H391 H 0.38974 0.20068 0.50128 0.0
H392 H 0.36579 0.07626 0.67125 0.0
H393 H 0.39056 0.10297 0.7106 0.0
H394 H 0.40969 0.14007 0.70588 0.0
H395 H 0.4162 0.17412 0.65943 0.0
Mn396 Mn 0.87993 0.30416 0.51802 0.0
Mn397 Mn 0.8882 0.35828 0.52731 0.0
C398 C 0.87888 0.32113 0.59471 0.0
C399 C 0.85508 0.27557 0.50785 0.0
C400 C 0.92477 0.3255 0.51059 0.0
O401 O 0.8757 0.31476 0.44687 0.0
O402 O 0.87834 0.351 0.45911 0.0
C403 C 0.84275 0.37344 0.51489 0.0
N404 N 0.86147 0.37286 0.54194 0.0
C405 C 0.84608 0.39624 0.60442 0.0
C406 C 0.82675 0.39733 0.57689 0.0
C407 C 0.82504 0.38579 0.53204 0.0
C408 C 0.86321 0.38373 0.58537 0.0
H409 H 0.8413 0.36446 0.48064 0.0
C410 C 0.87447 0.33442 0.43159 0.0
O411 O 0.87567 0.27284 0.4983 0.0
O412 O 0.84912 0.29485 0.52144 0.0
N413 N 0.89734 0.36753 0.59189 0.0
C414 C 0.91633 0.36323 0.6161 0.0
C415 C 0.92028 0.37285 0.66248 0.0
C416 C 0.9047 0.38681 0.68343 0.0
C417 C 0.8852 0.39088 0.65805 0.0
C418 C 0.88225 0.38098 0.61173 0.0
H419 H 0.92831 0.35241 0.60038 0.0
O420 O 0.88229 0.30034 0.59178 0.0
O421 O 0.87623 0.33119 0.55292 0.0
O422 O 0.91319 0.30819 0.51207 0.0
O423 O 0.91671 0.34464 0.5139 0.0
C424 C 0.86844 0.40406 0.67727 0.0
C425 C 0.84886 0.40669 0.65054 0.0
H426 H 0.81301 0.40674 0.59013 0.0
H427 H 0.8101 0.38638 0.51082 0.0
H428 H 0.93529 0.3695 0.68207 0.0
H429 H 0.90782 0.39421 0.71914 0.0
H430 H 0.87025 0.41192 0.71299 0.0
H431 H 0.83592 0.4165 0.66618 0.0
Mn432 Mn 0.71032 0.1339 0.49374 0.0
Mn433 Mn 0.65648 0.12378 0.48443 0.0
C434 C 0.6933 0.13453 0.4171 0.0
C435 C 0.73855 0.15912 0.50379 0.0
C436 C 0.6903 0.08841 0.50157 0.0
O437 O 0.69949 0.13805 0.56499 0.0
O438 O 0.66343 0.13349 0.55269 0.0
C439 C 0.6395 0.16848 0.49799 0.0
N440 N 0.64109 0.15006 0.4701 0.0
C441 C 0.61795 0.16517 0.40683 0.0
C442 C 0.61597 0.18425 0.435 0.0
C443 C 0.62684 0.18592 0.48071 0.0
C444 C 0.63075 0.14829 0.42601 0.0
H445 H 0.64787 0.16984 0.53309 0.0
C446 C 0.67976 0.13806 0.58037 0.0
O447 O 0.7415 0.1386 0.51349 0.0
O448 O 0.71917 0.16488 0.49026 0.0
N449 N 0.64769 0.11453 0.41967 0.0
C450 C 0.65237 0.09557 0.39575 0.0
C451 C 0.64325 0.09156 0.34889 0.0
C452 C 0.62935 0.10702 0.32728 0.0
C453 C 0.62475 0.12642 0.3526 0.0
C454 C 0.63417 0.12944 0.39939 0.0
H455 H 0.663 0.0836 0.41224 0.0
O456 O 0.71417 0.1316 0.42 0.0
O457 O 0.68316 0.13683 0.45895 0.0
O458 O 0.70719 0.10056 0.49951 0.0
O459 O 0.67089 0.09572 0.49795 0.0
C460 C 0.61143 0.143 0.33304 0.0
C461 C 0.60808 0.16238 0.36007 0.0
H462 H 0.6063 0.19779 0.42169 0.0
H463 H 0.62547 0.20064 0.50255 0.0
H464 H 0.6469 0.07659 0.32946 0.0
H465 H 0.62235 0.10379 0.29124 0.0
H466 H 0.6039 0.14118 0.29698 0.0
H467 H 0.59809 0.17514 0.34427 0.0
Mn468 Mn 0.87988 0.70883 0.48805 0.0
Mn469 Mn 0.88902 0.65482 0.48075 0.0
C470 C 0.87935 0.69148 0.41191 0.0
C471 C 0.85482 0.7372 0.49768 0.0
C472 C 0.92486 0.68828 0.49841 0.0
O473 O 0.87563 0.69843 0.55943 0.0
O474 O 0.87813 0.66212 0.54808 0.0
C475 C 0.84377 0.63872 0.49041 0.0
N476 N 0.86276 0.63973 0.46442 0.0
C477 C 0.8484 0.61645 0.40049 0.0
C478 C 0.82879 0.61493 0.42691 0.0
C479 C 0.82645 0.62618 0.47198 0.0
C480 C 0.86515 0.62909 0.42085 0.0
H481 H 0.84181 0.6475 0.5248 0.0
C482 C 0.87415 0.67883 0.57506 0.0
O483 O 0.87537 0.7401 0.50723 0.0
O484 O 0.84897 0.71784 0.48425 0.0
N485 N 0.89917 0.6457 0.41683 0.0
C486 C 0.91847 0.65021 0.39407 0.0
C487 C 0.923 0.64098 0.34753 0.0
C488 C 0.90772 0.62713 0.32501 0.0
C489 C 0.888 0.62268 0.34917 0.0
C490 C 0.88444 0.63222 0.39567 0.0
H491 H 0.93029 0.66082 0.41119 0.0
O492 O 0.88236 0.71235 0.41429 0.0
O493 O 0.87677 0.68159 0.45395 0.0
O494 O 0.91309 0.70533 0.49416 0.0
O495 O 0.91716 0.66895 0.49632 0.0
C496 C 0.87158 0.60946 0.32857 0.0
C497 C 0.85179 0.60637 0.35418 0.0
H498 H 0.81533 0.60541 0.41264 0.0
H499 H 0.81129 0.62526 0.49235 0.0
H500 H 0.93823 0.64453 0.32903 0.0
H501 H 0.91126 0.62008 0.28909 0.0
H502 H 0.87384 0.60187 0.29268 0.0
H503 H 0.83914 0.59649 0.33752 0.0
Mn504 Mn 0.30381 0.87943 0.48912 0.0
Mn505 Mn 0.35758 0.89007 0.48 0.0
C506 C 0.3209 0.87904 0.41255 0.0
C507 C 0.27582 0.85398 0.49929 0.0
C508 C 0.32338 0.9251 0.49702 0.0
O509 O 0.3146 0.87537 0.56035 0.0
O510 O 0.3506 0.88037 0.54824 0.0
C511 C 0.37484 0.84551 0.49393 0.0
N512 N 0.3732 0.86389 0.46596 0.0
C513 C 0.39666 0.84893 0.40312 0.0
C514 C 0.39871 0.82988 0.43138 0.0
C515 C 0.3877 0.82815 0.47692 0.0
C516 C 0.38366 0.86571 0.42203 0.0
H517 H 0.36638 0.8441 0.52891 0.0
C518 C 0.33429 0.87559 0.57583 0.0
O519 O 0.27269 0.87448 0.50888 0.0
O520 O 0.29524 0.84838 0.48561 0.0
N521 N 0.36646 0.89932 0.41529 0.0
C522 C 0.36176 0.91825 0.39126 0.0
C523 C 0.37104 0.9223 0.34455 0.0
C524 C 0.38514 0.90693 0.32324 0.0
C525 C 0.38976 0.88758 0.34868 0.0
C526 C 0.38017 0.88451 0.39529 0.0
H527 H 0.35099 0.93016 0.40755 0.0
O528 O 0.29998 0.88173 0.41539 0.0
O529 O 0.33103 0.87679 0.4544 0.0
O530 O 0.30663 0.91278 0.495 0.0
O531 O 0.34287 0.91801 0.49328 0.0
C532 C 0.40329 0.8711 0.32941 0.0
C533 C 0.40669 0.85177 0.35654 0.0
H534 H 0.40854 0.81641 0.41829 0.0
H535 H 0.38912 0.81346 0.49883 0.0
H536 H 0.36737 0.93725 0.32504 0.0
H537 H 0.3923 0.91017 0.28732 0.0
H538 H 0.41093 0.87298 0.29347 0.0
H539 H 0.41684 0.83908 0.34096 0.0
Mn540 Mn 0.13469 0.30541 0.48218 0.0
Mn541 Mn 0.12606 0.35947 0.47295 0.0
C542 C 0.13578 0.32241 0.40557 0.0
C543 C 0.15964 0.27697 0.49255 0.0
C544 C 0.08968 0.32641 0.48913 0.0
O545 O 0.13874 0.31601 0.55336 0.0
O546 O 0.13577 0.35223 0.5413 0.0
C547 C 0.17136 0.37496 0.48618 0.0
N548 N 0.15274 0.37424 0.45879 0.0
C549 C 0.16823 0.39764 0.39647 0.0
C550 C 0.18746 0.39887 0.42435 0.0
C551 C 0.18906 0.3874 0.46929 0.0
C552 C 0.15109 0.38507 0.41528 0.0
H553 H 0.17274 0.36602 0.5205 0.0
C554 C 0.13976 0.33566 0.56876 0.0
O555 O 0.13905 0.27414 0.50189 0.0
O556 O 0.16555 0.29629 0.47904 0.0
N557 N 0.11706 0.36868 0.40824 0.0
C558 C 0.09817 0.36426 0.38371 0.0
C559 C 0.09433 0.37383 0.33724 0.0
C560 C 0.10992 0.38785 0.31649 0.0
C561 C 0.12932 0.39202 0.34218 0.0
C562 C 0.13215 0.3822 0.3886 0.0
H563 H 0.0862 0.35339 0.39926 0.0
O564 O 0.13247 0.3016 0.40842 0.0
O565 O 0.13829 0.33249 0.4474 0.0
O566 O 0.1014 0.30921 0.48784 0.0
O567 O 0.09758 0.34563 0.48587 0.0
C568 C 0.1461 0.40525 0.32317 0.0
C569 C 0.16557 0.408 0.35022 0.0
H570 H 0.2012 0.40834 0.41131 0.0
H571 H 0.20392 0.38809 0.49079 0.0
H572 H 0.07941 0.37038 0.3174 0.0
H573 H 0.10688 0.3952 0.28071 0.0
H574 H 0.14438 0.41305 0.28736 0.0
H575 H 0.17852 0.41786 0.33475 0.0
H576 H 0.15937 0.5607 0.03022 0.0
H577 H 0.22536 0.56425 0.97522 0.0
H578 H 0.16119 0.52129 0.02911 0.0
H579 H 0.22699 0.52443 0.97287 0.0
H580 H 0.22549 0.45074 0.01861 0.0
H581 H 0.22713 0.49057 0.02108 0.0
H582 H 0.16101 0.4937 0.96689 0.0
H583 H 0.15919 0.4543 0.96566 0.0
C584 C 0.17434 0.55307 0.01795 0.0
C585 C 0.19216 0.56571 0.00241 0.0
C586 C 0.17532 0.53039 0.01693 0.0
C587 C 0.19408 0.5196 -0.00013 0.0
C588 C 0.21229 0.53218 0.98626 0.0
C589 C 0.21136 0.55502 0.9876 0.0
C590 C 0.21141 0.45998 0.00671 0.0
C591 C 0.19213 0.44928 0.99243 0.0
C592 C 0.21235 0.48281 0.00812 0.0
C593 C 0.19406 0.49539 0.99511 0.0
C594 C 0.17521 0.4846 0.9786 0.0
C595 C 0.17422 0.46193 0.97751 0.0
H596 H 0.45526 0.1592 0.96292 0.0
H597 H 0.44987 0.22533 0.01623 0.0
H598 H 0.49435 0.16152 0.96693 0.0
H599 H 0.48977 0.2273 0.02254 0.0
H600 H 0.56503 0.22532 0.98422 0.0
H601 H 0.52515 0.22738 0.97746 0.0
H602 H 0.52031 0.16131 0.03109 0.0
H603 H 0.55938 0.15891 0.0356 0.0
C604 C 0.46238 0.17429 0.9759 0.0
C605 C 0.44924 0.19201 0.98979 0.0
C606 C 0.48497 0.17556 0.97852 0.0
C607 C 0.49532 0.19443 0.99614 0.0
C608 C 0.48234 0.21251 0.00879 0.0
C609 C 0.45949 0.21133 0.00546 0.0
C610 C 0.55537 0.21127 0.99442 0.0
C611 C 0.56554 0.19186 0.00973 0.0
C612 C 0.53252 0.21249 0.99084 0.0
C613 C 0.51947 0.19437 0.00284 0.0
C614 C 0.52975 0.17539 0.02 0.0
C615 C 0.55233 0.17407 0.0229 0.0
H616 H 0.78961 0.45012 0.98165 0.0
H617 H 0.85596 0.4538 0.03424 0.0
H618 H 0.78789 0.48994 0.97937 0.0
H619 H 0.85406 0.49319 0.0332 0.0
H620 H 0.85547 0.56031 0.97059 0.0
H621 H 0.85377 0.5209 0.97137 0.0
H622 H 0.78797 0.52373 0.02771 0.0
H623 H 0.78948 0.56356 0.02566 0.0
C624 C 0.80368 0.45938 0.9935 0.0
C625 C 0.82299 0.44871 0.00765 0.0
C626 C 0.8027 0.48221 0.9922 0.0
C627 C 0.82098 0.49483 0.00518 0.0
C628 C 0.83987 0.48407 0.02152 0.0
C629 C 0.8409 0.46139 0.0225 0.0
C630 C 0.84053 0.55262 0.98282 0.0
C631 C 0.82268 0.56518 0.99846 0.0
C632 C 0.83961 0.52993 0.98364 0.0
C633 C 0.82089 0.51905 0.00062 0.0
C634 C 0.80264 0.53155 0.01436 0.0
C635 C 0.80351 0.55439 0.01321 0.0
H636 H 0.56392 0.78917 0.97737 0.0
H637 H 0.56111 0.85494 0.03364 0.0
H638 H 0.52404 0.78759 0.97733 0.0
H639 H 0.52168 0.85317 0.0349 0.0
H640 H 0.4542 0.8557 0.97455 0.0
H641 H 0.49358 0.85367 0.97411 0.0
H642 H 0.49049 0.78739 0.02707 0.0
H643 H 0.45059 0.78925 0.02625 0.0
C644 C 0.55484 0.80314 0.99049 0.0
C645 C 0.56575 0.82228 0.00495 0.0
C646 C 0.53198 0.80223 0.99051 0.0
C647 C 0.51958 0.8204 0.00519 0.0
C648 C 0.53062 0.83907 0.02193 0.0
C649 C 0.55331 0.84004 0.02155 0.0
C650 C 0.46182 0.84059 0.98587 0.0
C651 C 0.44917 0.8227 0.00089 0.0
C652 C 0.4845 0.83948 0.98598 0.0
C653 C 0.49531 0.82053 0.00163 0.0
C654 C 0.48271 0.80225 0.0148 0.0
C655 C 0.45985 0.80332 0.01434 0.0
H656 H 0.6599 0.05939 0.53312 0.0
H657 H 0.72611 0.06299 0.47956 0.0
H658 H 0.66175 0.02002 0.53234 0.0
H659 H 0.7278 0.0231 0.47759 0.0
H660 H 0.65979 0.95299 0.47015 0.0
H661 H 0.66183 0.99239 0.47016 0.0
H662 H 0.72759 0.98924 0.52654 0.0
H663 H 0.72574 0.94941 0.52528 0.0
C664 C 0.67492 0.05177 0.52118 0.0
C665 C 0.69279 0.06442 0.50594 0.0
C666 C 0.67593 0.0291 0.52038 0.0
C667 C 0.69475 0.0183 0.50382 0.0
C668 C 0.71303 0.03088 0.49053 0.0
C669 C 0.71207 0.05373 0.49167 0.0
C670 C 0.67479 0.96061 0.48223 0.0
C671 C 0.69252 0.94796 0.49816 0.0
C672 C 0.67591 0.98328 0.48258 0.0
C673 C 0.69472 0.99408 0.49939 0.0
C674 C 0.71286 0.98148 0.51335 0.0
C675 C 0.71179 0.95864 0.51266 0.0
H676 H 0.95058 0.72385 0.4769 0.0
H677 H 0.95367 0.65762 0.53024 0.0
H678 H 0.99043 0.72544 0.47589 0.0
H679 H 0.9931 0.6594 0.53053 0.0
H680 H 0.06072 0.65774 0.47031 0.0
H681 H 0.02129 0.65947 0.46998 0.0
H682 H 0.02388 0.72544 0.52512 0.0
H683 H 0.06374 0.7239 0.52415 0.0
C684 C 0.95971 0.70977 0.48916 0.0
C685 C 0.94888 0.69053 0.50316 0.0
C686 C 0.98256 0.71069 0.48861 0.0
C687 C 0.99504 0.69241 0.50223 0.0
C688 C 0.9841 0.67359 0.51837 0.0
C689 C 0.9614 0.67262 0.51859 0.0
C690 C 0.05297 0.67272 0.48206 0.0
C691 C 0.06547 0.69062 0.49764 0.0
C692 C 0.03027 0.67365 0.48225 0.0
C693 C 0.01931 0.69243 0.49853 0.0
C694 C 0.03176 0.71071 0.51229 0.0
C695 C 0.05462 0.70983 0.51176 0.0
H696 H 0.35322 0.06018 0.46509 0.0
H697 H 0.2874 0.06416 0.52091 0.0
H698 H 0.35103 0.02082 0.46539 0.0
H699 H 0.28538 0.02426 0.52235 0.0
H700 H 0.3533 0.95431 0.52978 0.0
H701 H 0.35109 0.99367 0.52922 0.0
H702 H 0.28536 0.99009 0.47283 0.0
H703 H 0.2874 0.95019 0.47453 0.0
C704 C 0.33821 0.05264 0.47737 0.0
C705 C 0.32057 0.06538 0.49351 0.0
C706 C 0.337 0.02999 0.47786 0.0
C707 C 0.31821 0.0193 0.49502 0.0
C708 C 0.30011 0.03197 0.50899 0.0
C709 C 0.30126 0.05482 0.50816 0.0
C710 C 0.33827 0.96182 0.51754 0.0
C711 C 0.32062 0.94904 0.50166 0.0
C712 C 0.33706 0.98446 0.51689 0.0
C713 C 0.31823 0.99511 0.49985 0.0
C714 C 0.30012 0.98241 0.4861 0.0
C715 C 0.30129 0.95956 0.48707 0.0
H716 H 0.05991 0.35772 0.46746 0.0
H717 H 0.06453 0.29087 0.51615 0.0
H718 H 0.02079 0.3556 0.47 0.0
H719 H 0.02467 0.28912 0.52165 0.0
H720 H 0.95027 0.29015 0.48392 0.0
H721 H 0.99015 0.28885 0.47816 0.0
H722 H 0.99335 0.35555 0.52855 0.0
H723 H 0.95424 0.35722 0.53137 0.0
C724 C 0.0526 0.34254 0.47931 0.0
C725 C 0.06554 0.32451 0.49198 0.0
C726 C 0.02997 0.34139 0.48117 0.0
C727 C 0.01937 0.32233 0.49705 0.0
C728 C 0.03222 0.30406 0.50907 0.0
C729 C 0.05508 0.3051 0.50628 0.0
C730 C 0.95958 0.30452 0.49344 0.0
C731 C 0.94892 0.32386 0.50749 0.0
C732 C 0.98245 0.30374 0.4905 0.0
C733 C 0.99511 0.3222 0.50211 0.0
C734 C 0.98431 0.34119 0.51769 0.0
C735 C 0.96168 0.34209 0.51971 0.0
H736 H 0.23601 0.31263 0.02391 0.0
H737 H 0.28112 0.3606 0.96762 0.0
H738 H 0.26472 0.28567 0.02514 0.0
H739 H 0.3101 0.33309 0.96743 0.0
H740 H 0.36054 0.28114 0.02108 0.0
H741 H 0.33316 0.31025 0.02159 0.0
H742 H 0.28504 0.26484 0.96712 0.0
H743 H 0.31187 0.23601 0.96804 0.0
C744 C 0.25206 0.3174 0.01125 0.0
C745 C 0.2562 0.33875 0.99522 0.0
C746 C 0.26857 0.30185 0.01181 0.0
C747 C 0.28972 0.30709 0.9959 0.0
C748 C 0.29402 0.32854 0.98024 0.0
C749 C 0.2774 0.34424 0.97993 0.0
C750 C 0.34405 0.27744 0.00957 0.0
C751 C 0.33834 0.25621 0.99504 0.0
C752 C 0.32843 0.29413 0.00944 0.0
C753 C 0.30683 0.28987 0.99476 0.0
C754 C 0.30135 0.26867 0.9797 0.0
C755 C 0.31682 0.25209 0.98005 0.0
H756 H 0.77921 0.31193 0.97687 0.0
H757 H 0.73402 0.36006 0.03204 0.0
H758 H 0.75048 0.28497 0.97566 0.0
H759 H 0.70501 0.33255 0.03224 0.0
H760 H 0.65461 0.2806 0.97869 0.0
H761 H 0.68207 0.30965 0.97807 0.0
H762 H 0.72996 0.26428 0.03358 0.0
H763 H 0.70305 0.2355 0.0328 0.0
C764 C 0.76314 0.31673 0.98928 0.0
C765 C 0.75898 0.33814 0.00499 0.0
C766 C 0.74662 0.30119 0.98874 0.0
C767 C 0.72543 0.30648 0.00433 0.0
C768 C 0.72112 0.32797 0.01968 0.0
C769 C 0.73775 0.34367 0.01998 0.0
C770 C 0.67106 0.27689 0.9904 0.0
C771 C 0.67668 0.25569 0.00529 0.0
C772 C 0.68674 0.29355 0.99046 0.0
C773 C 0.70829 0.28928 0.00544 0.0
C774 C 0.71369 0.2681 0.0208 0.0
C775 C 0.69817 0.25156 0.02052 0.0
H776 H 0.73341 0.65343 0.97502 0.0
H777 H 0.77851 0.70191 0.02905 0.0
H778 H 0.7044 0.6809 0.97376 0.0
H779 H 0.74976 0.72886 0.02913 0.0
H780 H 0.70233 0.77798 0.97065 0.0
H781 H 0.72925 0.74918 0.9703 0.0
H782 H 0.68142 0.70409 0.02739 0.0
H783 H 0.65399 0.73313 0.0264 0.0
C784 C 0.73712 0.66989 0.98662 0.0
C785 C 0.75832 0.67552 0.00163 0.0
C786 C 0.72049 0.68558 0.98629 0.0
C787 C 0.72477 0.70716 0.00098 0.0
C788 C 0.74593 0.71256 0.01655 0.0
C789 C 0.76245 0.69702 0.01668 0.0
C790 C 0.69747 0.76197 0.98332 0.0
C791 C 0.67602 0.75792 0.99897 0.0
C792 C 0.71298 0.74542 0.98329 0.0
C793 C 0.70761 0.72432 0.9993 0.0
C794 C 0.68607 0.72012 0.01452 0.0
C795 C 0.67041 0.73678 0.01435 0.0
H796 H 0.28108 0.65442 0.02598 0.0
H797 H 0.23584 0.70261 0.97139 0.0
H798 H 0.30999 0.682 0.02703 0.0
H799 H 0.2645 0.72968 0.97107 0.0
H800 H 0.31184 0.77908 0.02922 0.0
H801 H 0.28494 0.75026 0.02946 0.0
H802 H 0.33295 0.70511 0.97344 0.0
H803 H 0.36036 0.73418 0.97458 0.0
C804 C 0.27732 0.67084 0.01421 0.0
C805 C 0.25611 0.67636 0.99911 0.0
C806 C 0.2939 0.6866 0.01441 0.0
C807 C 0.28956 0.70813 0.99949 0.0
C808 C 0.26838 0.71342 0.98382 0.0
C809 C 0.25191 0.69781 0.98383 0.0
C810 C 0.31674 0.76306 0.01674 0.0
C811 C 0.33824 0.759 0.00149 0.0
C812 C 0.30123 0.74649 0.0167 0.0
C813 C 0.30667 0.72536 0.00102 0.0
C814 C 0.32824 0.72116 0.98609 0.0
C815 C 0.34389 0.73784 0.98633 0.0
H816 H 0.81221 0.73496 0.4718 0.0
H817 H 0.86073 0.77989 0.52644 0.0
H818 H 0.78529 0.76374 0.47183 0.0
H819 H 0.83328 0.80892 0.52782 0.0
H820 H 0.7812 0.85947 0.47551 0.0
H821 H 0.81019 0.83199 0.47431 0.0
H822 H 0.76492 0.78418 0.53073 0.0
H823 H 0.73617 0.81114 0.53058 0.0
C824 C 0.81711 0.75099 0.48432 0.0
C825 C 0.83861 0.75506 0.49952 0.0
C826 C 0.80159 0.76752 0.48451 0.0
C827 C 0.80701 0.78864 0.50031 0.0
C828 C 0.82859 0.79286 0.51513 0.0
C829 C 0.84427 0.77622 0.51473 0.0
C830 C 0.7775 0.84304 0.48736 0.0
C831 C 0.75632 0.83745 0.50262 0.0
C832 C 0.79413 0.82735 0.48707 0.0
C833 C 0.78987 0.80581 0.50206 0.0
C834 C 0.76873 0.80045 0.51793 0.0
C835 C 0.75221 0.81599 0.51801 0.0
H836 H 0.23307 0.85959 0.52778 0.0
H837 H 0.27839 0.81137 0.47355 0.0
H838 H 0.20414 0.83204 0.52855 0.0
H839 H 0.2497 0.78433 0.47295 0.0
H840 H 0.2021 0.73501 0.53031 0.0
H841 H 0.22905 0.76377 0.53101 0.0
H842 H 0.18128 0.80905 0.47456 0.0
H843 H 0.15381 0.78003 0.47523 0.0
C844 C 0.23686 0.84316 0.51605 0.0
C845 C 0.25808 0.83763 0.50109 0.0
C846 C 0.22026 0.82743 0.51608 0.0
C847 C 0.2246 0.8059 0.50113 0.0
C848 C 0.24581 0.80058 0.48569 0.0
C849 C 0.2623 0.81617 0.48587 0.0
C850 C 0.19726 0.75105 0.51784 0.0
C851 C 0.17581 0.75516 0.50231 0.0
C852 C 0.2128 0.76758 0.51807 0.0
C853 C 0.20745 0.78873 0.50238 0.0
C854 C 0.18592 0.79298 0.4872 0.0
C855 C 0.17023 0.77634 0.48719 0.0
H856 H 0.27834 0.20286 0.52409 0.0
H857 H 0.23332 0.15491 0.46735 0.0
H858 H 0.24958 0.22981 0.52526 0.0
H859 H 0.20432 0.18239 0.46713 0.0
H860 H 0.15367 0.23413 0.52039 0.0
H861 H 0.18115 0.20511 0.52129 0.0
H862 H 0.22925 0.25063 0.46719 0.0
H863 H 0.20232 0.27936 0.46768 0.0
C864 C 0.26231 0.1981 0.51133 0.0
C865 C 0.25819 0.17675 0.4952 0.0
C866 C 0.24577 0.21364 0.51185 0.0
C867 C 0.22463 0.20838 0.49585 0.0
C868 C 0.22038 0.18695 0.48005 0.0
C869 C 0.23702 0.17127 0.47975 0.0
C870 C 0.17017 0.23787 0.50904 0.0
C871 C 0.17584 0.2591 0.49446 0.0
C872 C 0.18586 0.22123 0.50915 0.0
C873 C 0.20748 0.22555 0.49467 0.0
C874 C 0.21292 0.24676 0.47961 0.0
C875 C 0.19739 0.26328 0.47971 0.0
H876 H 0.8125 0.27774 0.53365 0.0
H877 H 0.86105 0.23276 0.47946 0.0
H878 H 0.78563 0.24897 0.53415 0.0
H879 H 0.83359 0.20368 0.47859 0.0
H880 H 0.7813 0.15333 0.53238 0.0
H881 H 0.81042 0.18071 0.53261 0.0
H882 H 0.76521 0.22843 0.47568 0.0
H883 H 0.73635 0.20158 0.47683 0.0
C884 C 0.81743 0.2617 0.52131 0.0
C885 C 0.83893 0.25762 0.5061 0.0
C886 C 0.80192 0.24516 0.52142 0.0
C887 C 0.80732 0.22401 0.5059 0.0
C888 C 0.82891 0.21976 0.49105 0.0
C889 C 0.84459 0.23644 0.49115 0.0
C890 C 0.77764 0.16972 0.52024 0.0
C891 C 0.75645 0.17533 0.50516 0.0
C892 C 0.79435 0.18535 0.51995 0.0
C893 C 0.79014 0.20685 0.50454 0.0
C894 C 0.76899 0.2122 0.48882 0.0
C895 C 0.75239 0.19673 0.48933 0.0
H896 H 0.11448 0.32155 0.31693 0.0
H897 H 0.17328 0.34371 0.3882 0.0
H898 H 0.12711 0.337 0.2381 0.0
H899 H 0.186 0.35913 0.30999 0.0
H900 H 0.19359 0.40101 0.1713 0.0
H901 H 0.17825 0.38828 0.25016 0.0
H902 H 0.15624 0.32939 0.17814 0.0
H903 H 0.17159 0.34219 0.09995 0.0
C904 C 0.13001 0.3299 0.31558 0.0
C905 C 0.14265 0.33216 0.35849 0.0
C906 C 0.13726 0.3387 0.27069 0.0
C907 C 0.15742 0.34955 0.26804 0.0
C908 C 0.17018 0.35135 0.31106 0.0
C909 C 0.16293 0.34254 0.35574 0.0
C910 C 0.18526 0.38547 0.17262 0.0
C911 C 0.18305 0.37284 0.1297 0.0
C912 C 0.17653 0.37816 0.21753 0.0
C913 C 0.16575 0.35796 0.22016 0.0
C914 C 0.16395 0.34524 0.1771 0.0
C915 C 0.17272 0.35253 0.13241 0.0
H916 H 0.6718 0.17198 0.4006 0.0
H917 H 0.69428 0.11371 0.32777 0.0
H918 H 0.65666 0.18518 0.3226 0.0
H919 H 0.67901 0.12676 0.24915 0.0
H920 H 0.67345 0.17095 0.11135 0.0
H921 H 0.68629 0.15552 0.18939 0.0
H922 H 0.62795 0.17847 0.26237 0.0
H923 H 0.6153 0.19409 0.18377 0.0
C924 C 0.6731 0.16185 0.36783 0.0
C925 C 0.68353 0.14158 0.3701 0.0
C926 C 0.66443 0.16937 0.32323 0.0
C927 C 0.66636 0.1569 0.27977 0.0
C928 C 0.67721 0.13673 0.282 0.0
C929 C 0.6859 0.12921 0.3268 0.0
C930 C 0.66327 0.17236 0.14405 0.0
C931 C 0.64314 0.18305 0.14164 0.0
C932 C 0.67058 0.16351 0.18866 0.0
C933 C 0.65802 0.16551 0.23198 0.0
C934 C 0.638 0.17665 0.22964 0.0
C935 C 0.63071 0.18554 0.18484 0.0
H936 H 0.90099 0.69184 0.32363 0.0
H937 H 0.84189 0.67017 0.39446 0.0
H938 H 0.88839 0.67639 0.24475 0.0
H939 H 0.82925 0.65469 0.31626 0.0
H940 H 0.82154 0.61297 0.17733 0.0
H941 H 0.83718 0.62537 0.25619 0.0
H942 H 0.85898 0.68453 0.18506 0.0
H943 H 0.84332 0.67208 0.10687 0.0
C944 C 0.88543 0.68356 0.3222 0.0
C945 C 0.87266 0.68148 0.36498 0.0
C946 C 0.8782 0.67475 0.27729 0.0
C947 C 0.85796 0.66405 0.27453 0.0
C948 C 0.84512 0.66236 0.31745 0.0
C949 C 0.85233 0.6712 0.36212 0.0
C950 C 0.82988 0.62849 0.17884 0.0
C951 C 0.83194 0.64132 0.13616 0.0
C952 C 0.83879 0.63561 0.22374 0.0
C953 C 0.84958 0.6558 0.2266 0.0
C954 C 0.85124 0.6687 0.18379 0.0
C955 C 0.8423 0.6616 0.13913 0.0
H956 H 0.34282 0.8419 0.39553 0.0
H957 H 0.31987 0.90022 0.32369 0.0
H958 H 0.35837 0.82923 0.31746 0.0
H959 H 0.33557 0.88771 0.24501 0.0
H960 H 0.34164 0.84361 0.10677 0.0
H961 H 0.32859 0.85887 0.18482 0.0
H962 H 0.38725 0.83673 0.2577 0.0
H963 H 0.40015 0.82135 0.17902 0.0
C964 C 0.3415 0.85216 0.36296 0.0
C965 C 0.33081 0.87228 0.36552 0.0
C966 C 0.3504 0.84494 0.31834 0.0
C967 C 0.34846 0.85758 0.27517 0.0
C968 C 0.33736 0.87761 0.27766 0.0
C969 C 0.32843 0.88482 0.32249 0.0
C970 C 0.35186 0.84239 0.13942 0.0
C971 C 0.37213 0.83198 0.13699 0.0
C972 C 0.34443 0.85112 0.18404 0.0
C973 C 0.357 0.84927 0.22733 0.0
C974 C 0.3772 0.83846 0.22495 0.0
C975 C 0.38462 0.8297 0.18013 0.0
H976 H 0.17239 0.67033 0.60657 0.0
H977 H 0.11326 0.69187 0.67744 0.0
H978 H 0.18508 0.65491 0.68477 0.0
H979 H 0.12591 0.67648 0.75633 0.0
H980 H 0.17109 0.67248 0.89405 0.0
H981 H 0.15533 0.68478 0.81587 0.0
H982 H 0.17724 0.62561 0.74496 0.0
H983 H 0.193 0.61337 0.82382 0.0
C984 C 0.16195 0.67134 0.63892 0.0
C985 C 0.1416 0.68157 0.63607 0.0
C986 C 0.16919 0.66253 0.68359 0.0
C987 C 0.15636 0.66421 0.72652 0.0
C988 C 0.13609 0.67486 0.72377 0.0
C989 C 0.12883 0.68362 0.67886 0.0
C990 C 0.17212 0.66197 0.86185 0.0
C991 C 0.18255 0.64173 0.86486 0.0
C992 C 0.16312 0.66898 0.81719 0.0
C993 C 0.16478 0.65603 0.77445 0.0
C994 C 0.17564 0.63589 0.77736 0.0
C995 C 0.18461 0.62886 0.82226 0.0
H996 H 0.34236 0.17245 0.60098 0.0
H997 H 0.31942 0.11417 0.67309 0.0
H998 H 0.35758 0.18537 0.67912 0.0
H999 H 0.33486 0.12691 0.75188 0.0
H1000 H 0.34103 0.17091 0.89025 0.0
H1001 H 0.32799 0.15551 0.81229 0.0
H1002 H 0.38627 0.17835 0.73883 0.0
H1003 H 0.39911 0.19391 0.8173 0.0
C1004 C 0.34096 0.16226 0.63364 0.0
C1005 C 0.33037 0.14208 0.63111 0.0
C1006 C 0.34969 0.16961 0.67833 0.0
C1007 C 0.3477 0.15705 0.72162 0.0
C1008 C 0.33668 0.13696 0.71916 0.0
C1009 C 0.3279 0.12962 0.67426 0.0
C1010 C 0.35116 0.17227 0.85747 0.0
C1011 C 0.37131 0.18294 0.85968 0.0
C1012 C 0.34374 0.16345 0.8129 0.0
C1013 C 0.3562 0.16546 0.76944 0.0
C1014 C 0.37628 0.17652 0.77165 0.0
C1015 C 0.38367 0.18538 0.81638 0.0
H1016 H 0.82146 0.40006 0.82867 0.0
H1017 H 0.84379 0.34155 0.90074 0.0
H1018 H 0.83661 0.3871 0.74985 0.0
H1019 H 0.85903 0.32856 0.8226 0.0
H1020 H 0.90044 0.32052 0.68307 0.0
H1021 H 0.88799 0.33611 0.76193 0.0
H1022 H 0.82873 0.35767 0.69078 0.0
H1023 H 0.84128 0.34215 0.61255 0.0
C1024 C 0.82984 0.38456 0.82752 0.0
C1025 C 0.83218 0.37207 0.87063 0.0
C1026 C 0.83848 0.37712 0.78263 0.0
C1027 C 0.84931 0.35695 0.78021 0.0
C1028 C 0.85127 0.34438 0.82347 0.0
C1029 C 0.84257 0.35179 0.86813 0.0
C1030 C 0.88486 0.32876 0.6846 0.0
C1031 C 0.87207 0.33085 0.64187 0.0
C1032 C 0.87771 0.33764 0.7295 0.0
C1033 C 0.8575 0.34839 0.73235 0.0
C1034 C 0.84458 0.34998 0.68954 0.0
C1035 C 0.85173 0.3411 0.64485 0.0
H1036 H 0.67253 0.84298 0.89481 0.0
H1037 H 0.61339 0.82141 0.82406 0.0
H1038 H 0.68514 0.85854 0.81667 0.0
H1039 H 0.62595 0.83696 0.74522 0.0
H1040 H 0.67108 0.84124 0.60726 0.0
H1041 H 0.65533 0.82882 0.68539 0.0
H1042 H 0.67727 0.8879 0.75668 0.0
H1043 H 0.69302 0.90025 0.67787 0.0
C1044 C 0.66207 0.84199 0.86251 0.0
C1045 C 0.64174 0.8317 0.86539 0.0
C1046 C 0.66926 0.85088 0.81786 0.0
C1047 C 0.65641 0.84924 0.77496 0.0
C1048 C 0.63616 0.83855 0.77774 0.0
C1049 C 0.62895 0.82969 0.82263 0.0
C1050 C 0.67212 0.85171 0.63953 0.0
C1051 C 0.68256 0.87195 0.63662 0.0
C1052 C 0.66312 0.84463 0.68417 0.0
C1053 C 0.6648 0.85751 0.72702 0.0
C1054 C 0.67565 0.87767 0.7242 0.0
C1055 C 0.68462 0.88476 0.67933 0.0
H1056 H 0.85553 0.6419 0.61144 0.0
H1057 H 0.87568 0.70656 0.65501 0.0
H1058 H 0.84372 0.63452 0.69599 0.0
H1059 H 0.86416 0.69882 0.7404 0.0
H1060 H 0.87144 0.65852 0.88983 0.0
H1061 H 0.87895 0.67014 0.80523 0.0
H1062 H 0.8148 0.64933 0.76041 0.0
H1063 H 0.80692 0.63801 0.84588 0.0
C1064 C 0.85741 0.65458 0.63901 0.0
C1065 C 0.86667 0.67482 0.6265 0.0
C1066 C 0.85046 0.65037 0.68733 0.0
C1067 C 0.85297 0.66612 0.72451 0.0
C1068 C 0.86207 0.68642 0.71222 0.0
C1069 C 0.86864 0.69083 0.66348 0.0
C1070 C 0.85881 0.65652 0.86216 0.0
C1071 C 0.83858 0.64721 0.87458 0.0
C1072 C 0.8631 0.66336 0.8138 0.0
C1073 C 0.84744 0.66069 0.7765 0.0
C1074 C 0.82714 0.65154 0.78869 0.0
C1075 C 0.82264 0.64509 0.83748 0.0
H1076 H 0.30769 0.85504 0.64388 0.0
H1077 H 0.37227 0.88197 0.62553 0.0
H1078 H 0.31721 0.84405 0.72878 0.0
H1079 H 0.38159 0.8709 0.70908 0.0
H1080 H 0.38132 0.87344 0.87671 0.0
H1081 H 0.36996 0.88253 0.79321 0.0
H1082 H 0.34382 0.81784 0.7742 0.0
H1083 H 0.35511 0.80856 0.85902 0.0
C1084 C 0.32381 0.85871 0.6579 0.0
C1085 C 0.33915 0.86951 0.62792 0.0
C1086 C 0.3293 0.85222 0.70623 0.0
C1087 C 0.35012 0.85667 0.72548 0.0
C1088 C 0.36535 0.86745 0.69547 0.0
C1089 C 0.35998 0.87375 0.64741 0.0
C1090 C 0.37319 0.86103 0.85498 0.0
C1091 C 0.36925 0.84019 0.87464 0.0
C1092 C 0.36672 0.86627 0.80696 0.0
C1093 C 0.35606 0.85088 0.77716 0.0
C1094 C 0.3519 0.83005 0.79659 0.0
C1095 C 0.35856 0.82469 0.84487 0.0
H1096 H 0.15731 0.37309 0.6054 0.0
H1097 H 0.13855 0.30799 0.64883 0.0
H1098 H 0.16911 0.38063 0.6899 0.0
H1099 H 0.15002 0.3159 0.73416 0.0
H1100 H 0.14286 0.35592 0.8842 0.0
H1101 H 0.13498 0.34449 0.79964 0.0
H1102 H 0.19877 0.36582 0.75338 0.0
H1103 H 0.20704 0.37692 0.83884 0.0
C1104 C 0.15569 0.36036 0.63293 0.0
C1105 C 0.14688 0.33993 0.62037 0.0
C1106 C 0.16264 0.36467 0.68123 0.0
C1107 C 0.16055 0.34882 0.71831 0.0
C1108 C 0.15179 0.32837 0.70604 0.0
C1109 C 0.14524 0.32387 0.65732 0.0
C1110 C 0.15533 0.35807 0.85623 0.0
C1111 C 0.17558 0.36744 0.86825 0.0
C1112 C 0.15083 0.35135 0.80788 0.0
C1113 C 0.16628 0.35422 0.7702 0.0
C1114 C 0.18659 0.36345 0.78197 0.0
C1115 C 0.19131 0.36977 0.83075 0.0
H1116 H 0.63235 0.14114 0.88144 0.0
H1117 H 0.65945 0.20561 0.86304 0.0
H1118 H 0.64359 0.13173 0.79797 0.0
H1119 H 0.6706 0.19602 0.77833 0.0
H1120 H 0.70641 0.15852 0.64846 0.0
H1121 H 0.69688 0.16964 0.73328 0.0
H1122 H 0.6324 0.14303 0.71356 0.0
H1123 H 0.64174 0.13183 0.63008 0.0
C1124 C 0.64063 0.1534 0.85955 0.0
C1125 C 0.64488 0.17421 0.87902 0.0
C1126 C 0.64703 0.14797 0.81155 0.0
C1127 C 0.65793 0.16314 0.78158 0.0
C1128 C 0.66235 0.18396 0.80081 0.0
C1129 C 0.65576 0.1895 0.84905 0.0
C1130 C 0.69027 0.15493 0.66246 0.0
C1131 C 0.6749 0.14417 0.63247 0.0
C1132 C 0.68476 0.16149 0.71076 0.0
C1133 C 0.66391 0.15716 0.73 0.0
C1134 C 0.64867 0.14639 0.69999 0.0
C1135 C 0.65405 0.14003 0.65196 0.0
H1136 H 0.87645 0.30708 0.351 0.0
H1137 H 0.85617 0.37156 0.39553 0.0
H1138 H 0.86526 0.31516 0.26555 0.0
H1139 H 0.84464 0.37926 0.31094 0.0
H1140 H 0.80771 0.3757 0.16088 0.0
H1141 H 0.81571 0.36433 0.24624 0.0
H1142 H 0.88008 0.3443 0.20121 0.0
H1143 H 0.87245 0.35598 0.1167 0.0
C1144 C 0.86947 0.32284 0.34272 0.0
C1145 C 0.86734 0.3387 0.38001 0.0
C1146 C 0.86308 0.32745 0.29394 0.0
C1147 C 0.85399 0.34778 0.28194 0.0
C1148 C 0.85138 0.36339 0.31938 0.0
C1149 C 0.85816 0.35899 0.36773 0.0
C1150 C 0.82351 0.36879 0.16921 0.0
C1151 C 0.83947 0.36688 0.13206 0.0
C1152 C 0.82808 0.36231 0.21794 0.0
C1153 C 0.84847 0.35335 0.23003 0.0
C1154 C 0.86417 0.35093 0.1927 0.0
C1155 C 0.8598 0.3578 0.14439 0.0
H1156 H 0.65939 0.87096 0.11179 0.0
H1157 H 0.63906 0.80638 0.15553 0.0
H1158 H 0.67122 0.87836 0.19631 0.0
H1159 H 0.65058 0.81415 0.24091 0.0
H1160 H 0.64331 0.8547 0.39017 0.0
H1161 H 0.63582 0.843 0.30562 0.0
H1162 H 0.70009 0.86349 0.26089 0.0
H1163 H 0.70795 0.87488 0.34633 0.0
C1164 C 0.65748 0.85829 0.13939 0.0
C1165 C 0.64816 0.83808 0.12693 0.0
C1166 C 0.66444 0.86252 0.1877 0.0
C1167 C 0.66188 0.84681 0.22493 0.0
C1168 C 0.65272 0.82652 0.2127 0.0
C1169 C 0.64615 0.8221 0.16395 0.0
C1170 C 0.65597 0.85661 0.36255 0.0
C1171 C 0.67623 0.86585 0.37499 0.0
C1172 C 0.65169 0.84972 0.3142 0.0
C1173 C 0.6674 0.85228 0.27693 0.0
C1174 C 0.68772 0.86135 0.28914 0.0
C1175 C 0.69221 0.86785 0.33792 0.0
H1176 H 0.13878 0.70679 0.34621 0.0
H1177 H 0.15888 0.6421 0.38953 0.0
H1178 H 0.15035 0.69912 0.26082 0.0
H1179 H 0.17075 0.63479 0.30498 0.0
H1180 H 0.20766 0.6385 0.15516 0.0
H1181 H 0.19973 0.64973 0.24068 0.0
H1182 H 0.13556 0.67043 0.19587 0.0
H1183 H 0.14311 0.6589 0.11123 0.0
C1184 C 0.14583 0.69107 0.33769 0.0
C1185 C 0.14777 0.67502 0.37459 0.0
C1186 C 0.15242 0.6867 0.28894 0.0
C1187 C 0.16153 0.66641 0.27659 0.0
C1188 C 0.164 0.65063 0.3137 0.0
C1189 C 0.15702 0.6548 0.36202 0.0
C1190 C 0.19192 0.64555 0.16358 0.0
C1191 C 0.17599 0.64766 0.12647 0.0
C1192 C 0.1874 0.65194 0.2124 0.0
C1193 C 0.16708 0.66103 0.2246 0.0
C1194 C 0.15142 0.66369 0.18729 0.0
C1195 C 0.15574 0.65691 0.1389 0.0
H1196 H 0.37348 0.13412 0.37296 0.0
H1197 H 0.30818 0.15877 0.35167 0.0
H1198 H 0.38312 0.14539 0.28975 0.0
H1199 H 0.31803 0.16996 0.26711 0.0
H1200 H 0.35483 0.2062 0.1373 0.0
H1201 H 0.34372 0.19684 0.22217 0.0
H1202 H 0.37291 0.13337 0.2053 0.0
H1203 H 0.3841 0.14257 0.12164 0.0
C1204 C 0.36109 0.14188 0.35052 0.0
C1205 C 0.33997 0.14541 0.36911 0.0
C1206 C 0.36666 0.1483 0.30263 0.0
C1207 C 0.35132 0.15849 0.27185 0.0
C1208 C 0.33022 0.16225 0.29023 0.0
C1209 C 0.32454 0.15566 0.3384 0.0
C1210 C 0.35902 0.19034 0.15196 0.0
C1211 C 0.37046 0.1752 0.1227 0.0
C1212 C 0.35246 0.18492 0.20028 0.0
C1213 C 0.35747 0.16438 0.22031 0.0
C1214 C 0.369 0.14939 0.1911 0.0
C1215 C 0.37537 0.15469 0.143 0.0
loop_
_geom_bond_atom_site_label_1
_geom_bond_atom_site_label_2
_geom_bond_distance
_geom_bond_site_symmetry_2
_ccdc_geom_bond_type
Mn0 O5 2.095 1_554 S
Mn0 O15 2.161 1_554 S
Mn0 O16 2.297 . S
Mn0 O24 2.385 . S
Mn0 O25 2.209 . S
Mn0 O26 2.094 . S
Mn1 O6 2.121 1_554 S
Mn1 N8 2.257 . S
Mn1 N17 2.282 . S
Mn1 O25 2.215 . S
Mn1 O27 2.117 . S
C2 O24 1.234 . S
C2 O25 1.283 . S
C3 O15 1.280 1_554 S
C3 O16 1.236 . S
C4 O26 1.240 . S
C4 O27 1.264 . S
O5 Mn0 2.095 1_556 S
O5 C14 1.250 . S
O6 Mn1 2.121 1_556 S
O6 C14 1.258 . S
C7 N8 1.326 1_556 S
C7 C11 1.460 1_556 S
C7 H13 0.929 . S
N8 Mn1 2.257 . S
N8 C7 1.326 1_554 S
N8 C12 1.362 . S
C9 C10 1.258 . S
C9 C12 1.431 . S
C9 C29 1.449 . S
C10 C9 1.258 . S
C10 C11 1.477 . S
C10 H30 0.931 . S
C11 C7 1.460 1_554 S
C11 C10 1.477 . S
C11 H31 0.930 1_554 S
C12 N8 1.362 . S
C12 C9 1.431 . S
C12 C22 1.476 . S
H13 C7 0.929 . S
C14 O5 1.250 . S
C14 O6 1.258 . S
O15 Mn0 2.161 1_556 S
O15 C3 1.280 1_556 S
O16 Mn0 2.297 . S
O16 C3 1.236 . S
N17 Mn1 2.282 . S
N17 C18 1.328 . S
N17 C22 1.318 . S
C18 N17 1.328 . S
C18 C19 1.457 . S
C18 H23 0.929 . S
C19 C18 1.457 . S
C19 C20 1.291 . S
C19 H32 0.931 . S
C20 C19 1.291 . S
C20 C21 1.373 . S
C20 H33 0.929 . S
C21 C20 1.373 . S
C21 C22 1.396 . S
C21 C28 1.403 . S
C22 C12 1.476 . S
C22 N17 1.318 . S
C22 C21 1.396 . S
H23 C18 0.929 . S
O24 Mn0 2.385 . S
O24 C2 1.234 . S
O25 Mn0 2.209 . S
O25 Mn1 2.215 . S
O25 C2 1.283 . S
O26 Mn0 2.094 . S
O26 C4 1.240 . S
O27 Mn1 2.117 . S
O27 C4 1.264 . S
C28 C21 1.403 . S
C28 C29 1.399 . S
C28 H34 0.929 . S
C29 C9 1.449 . S
C29 C28 1.399 . S
C29 H35 0.930 . S
H30 C10 0.931 . S
H31 C11 0.930 1_556 S
H32 C19 0.931 . S
H33 C20 0.929 . S
H34 C28 0.929 . S
H35 C29 0.930 . S
Mn36 O41 2.095 1_554 S
Mn36 O51 2.161 1_554 S
Mn36 O52 2.297 . S
Mn36 O60 2.385 . S
Mn36 O61 2.209 . S
Mn36 O62 2.094 . S
Mn37 O42 2.121 1_554 S
Mn37 N44 2.257 . S
Mn37 N53 2.282 . S
Mn37 O61 2.215 . S
Mn37 O63 2.117 . S
C38 O60 1.234 . S
C38 O61 1.283 . S
C39 O51 1.280 1_554 S
C39 O52 1.236 . S
C40 O62 1.240 . S
C40 O63 1.264 . S
O41 Mn36 2.095 1_556 S
O41 C50 1.250 . S
O42 Mn37 2.121 1_556 S
O42 C50 1.258 . S
C43 N44 1.326 1_556 S
C43 C47 1.460 1_556 S
C43 H49 0.929 . S
N44 Mn37 2.257 . S
N44 C43 1.326 1_554 S
N44 C48 1.362 . S
C45 C46 1.258 . S
C45 C48 1.431 . S
C45 C65 1.449 . S
C46 C45 1.258 . S
C46 C47 1.477 . S
C46 H66 0.931 . S
C47 C43 1.460 1_554 S
C47 C46 1.477 . S
C47 H67 0.930 1_554 S
C48 N44 1.362 . S
C48 C45 1.431 . S
C48 C58 1.476 . S
H49 C43 0.929 . S
C50 O41 1.250 . S
C50 O42 1.258 . S
O51 Mn36 2.161 1_556 S
O51 C39 1.280 1_556 S
O52 Mn36 2.297 . S
O52 C39 1.236 . S
N53 Mn37 2.282 . S
N53 C54 1.328 . S
N53 C58 1.318 . S
C54 N53 1.328 . S
C54 C55 1.457 . S
C54 H59 0.929 . S
C55 C54 1.457 . S
C55 C56 1.291 . S
C55 H68 0.931 . S
C56 C55 1.291 . S
C56 C57 1.373 . S
C56 H69 0.929 . S
C57 C56 1.373 . S
C57 C58 1.396 . S
C57 C64 1.403 . S
C58 C48 1.476 . S
C58 N53 1.318 . S
C58 C57 1.396 . S
H59 C54 0.929 . S
O60 Mn36 2.385 . S
O60 C38 1.234 . S
O61 Mn36 2.209 . S
O61 Mn37 2.215 . S
O61 C38 1.283 . S
O62 Mn36 2.094 . S
O62 C40 1.240 . S
O63 Mn37 2.117 . S
O63 C40 1.264 . S
C64 C57 1.403 . S
C64 C65 1.399 . S
C64 H70 0.929 . S
C65 C45 1.449 . S
C65 C64 1.399 . S
C65 H71 0.930 . S
H66 C46 0.931 . S
H67 C47 0.930 1_556 S
H68 C55 0.931 . S
H69 C56 0.929 . S
H70 C64 0.929 . S
H71 C65 0.930 . S
Mn72 O77 2.095 1_554 S
Mn72 O87 2.161 1_554 S
Mn72 O88 2.297 . S
Mn72 O96 2.385 . S
Mn72 O97 2.209 . S
Mn72 O98 2.094 . S
Mn73 O78 2.121 1_554 S
Mn73 N80 2.257 . S
Mn73 N89 2.282 . S
Mn73 O97 2.215 . S
Mn73 O99 2.117 . S
C74 O96 1.234 . S
C74 O97 1.283 . S
C75 O87 1.280 1_554 S
C75 O88 1.236 . S
C76 O98 1.240 . S
C76 O99 1.264 . S
O77 Mn72 2.095 1_556 S
O77 C86 1.250 . S
O78 Mn73 2.121 1_556 S
O78 C86 1.258 . S
C79 N80 1.326 1_556 S
C79 C83 1.460 1_556 S
C79 H85 0.929 . S
N80 Mn73 2.257 . S
N80 C79 1.326 1_554 S
N80 C84 1.362 . S
C81 C82 1.258 . S
C81 C84 1.431 . S
C81 C101 1.449 . S
C82 C81 1.258 . S
C82 C83 1.477 . S
C82 H102 0.931 . S
C83 C79 1.460 1_554 S
C83 C82 1.477 . S
C83 H103 0.930 1_554 S
C84 N80 1.362 . S
C84 C81 1.431 . S
C84 C94 1.476 . S
H85 C79 0.929 . S
C86 O77 1.250 . S
C86 O78 1.258 . S
O87 Mn72 2.161 1_556 S
O87 C75 1.280 1_556 S
O88 Mn72 2.297 . S
O88 C75 1.236 . S
N89 Mn73 2.282 . S
N89 C90 1.328 . S
N89 C94 1.318 . S
C90 N89 1.328 . S
C90 C91 1.457 . S
C90 H95 0.929 . S
C91 C90 1.457 . S
C91 C92 1.291 . S
C91 H104 0.931 . S
C92 C91 1.291 . S
C92 C93 1.373 . S
C92 H105 0.929 . S
C93 C92 1.373 . S
C93 C94 1.396 . S
C93 C100 1.403 . S
C94 C84 1.476 . S
C94 N89 1.318 . S
C94 C93 1.396 . S
H95 C90 0.929 . S
O96 Mn72 2.385 . S
O96 C74 1.234 . S
O97 Mn72 2.209 . S
O97 Mn73 2.215 . S
O97 C74 1.283 . S
O98 Mn72 2.094 . S
O98 C76 1.240 . S
O99 Mn73 2.117 . S
O99 C76 1.264 . S
C100 C93 1.403 . S
C100 C101 1.399 . S
C100 H106 0.929 . S
C101 C81 1.449 . S
C101 C100 1.399 . S
C101 H107 0.930 . S
H102 C82 0.931 . S
H103 C83 0.930 1_556 S
H104 C91 0.931 . S
H105 C92 0.929 . S
H106 C100 0.929 . S
H107 C101 0.930 . S
Mn108 O113 2.095 1_554 S
Mn108 O123 2.161 1_554 S
Mn108 O124 2.297 . S
Mn108 O132 2.385 . S
Mn108 O133 2.209 . S
Mn108 O134 2.094 . S
Mn109 O114 2.121 1_554 S
Mn109 N116 2.257 . S
Mn109 N125 2.282 . S
Mn109 O133 2.215 . S
Mn109 O135 2.117 . S
C110 O132 1.234 . S
C110 O133 1.283 . S
C111 O123 1.280 1_554 S
C111 O124 1.236 . S
C112 O134 1.240 . S
C112 O135 1.264 . S
O113 Mn108 2.095 1_556 S
O113 C122 1.250 . S
O114 Mn109 2.121 1_556 S
O114 C122 1.258 . S
C115 N116 1.326 1_556 S
C115 C119 1.460 1_556 S
C115 H121 0.929 . S
N116 Mn109 2.257 . S
N116 C115 1.326 1_554 S
N116 C120 1.362 . S
C117 C118 1.258 . S
C117 C120 1.431 . S
C117 C137 1.449 . S
C118 C117 1.258 . S
C118 C119 1.477 . S
C118 H138 0.931 . S
C119 C115 1.460 1_554 S
C119 C118 1.477 . S
C119 H139 0.930 1_554 S
C120 N116 1.362 . S
C120 C117 1.431 . S
C120 C130 1.476 . S
H121 C115 0.929 . S
C122 O113 1.250 . S
C122 O114 1.258 . S
O123 Mn108 2.161 1_556 S
O123 C111 1.280 1_556 S
O124 Mn108 2.297 . S
O124 C111 1.236 . S
N125 Mn109 2.282 . S
N125 C126 1.328 . S
N125 C130 1.318 . S
C126 N125 1.328 . S
C126 C127 1.457 . S
C126 H131 0.929 . S
C127 C126 1.457 . S
C127 C128 1.291 . S
C127 H140 0.931 . S
C128 C127 1.291 . S
C128 C129 1.373 . S
C128 H141 0.929 . S
C129 C128 1.373 . S
C129 C130 1.396 . S
C129 C136 1.403 . S
C130 C120 1.476 . S
C130 N125 1.318 . S
C130 C129 1.396 . S
H131 C126 0.929 . S
O132 Mn108 2.385 . S
O132 C110 1.234 . S
O133 Mn108 2.209 . S
O133 Mn109 2.215 . S
O133 C110 1.283 . S
O134 Mn108 2.094 . S
O134 C112 1.240 . S
O135 Mn109 2.117 . S
O135 C112 1.264 . S
C136 C129 1.403 . S
C136 C137 1.399 . S
C136 H142 0.929 . S
C137 C117 1.449 . S
C137 C136 1.399 . S
C137 H143 0.930 . S
H138 C118 0.931 . S
H139 C119 0.930 1_556 S
H140 C127 0.931 . S
H141 C128 0.929 . S
H142 C136 0.929 . S
H143 C137 0.930 . S
Mn144 O149 2.095 1_556 S
Mn144 O159 2.162 1_556 S
Mn144 O160 2.297 . S
Mn144 O168 2.385 . S
Mn144 O169 2.209 . S
Mn144 O170 2.094 . S
Mn145 O150 2.121 1_556 S
Mn145 N152 2.257 . S
Mn145 N161 2.282 . S
Mn145 O169 2.215 . S
Mn145 O171 2.117 . S
C146 O168 1.234 . S
C146 O169 1.283 . S
C147 O159 1.280 1_556 S
C147 O160 1.236 . S
C148 O170 1.240 . S
C148 O171 1.264 . S
O149 Mn144 2.095 1_554 S
O149 C158 1.250 . S
O150 Mn145 2.121 1_554 S
O150 C158 1.258 . S
C151 N152 1.326 1_554 S
C151 C155 1.460 1_554 S
C151 H157 0.929 . S
N152 Mn145 2.257 . S
N152 C151 1.326 1_556 S
N152 C156 1.362 . S
C153 C154 1.258 . S
C153 C156 1.431 . S
C153 C173 1.449 . S
C154 C153 1.258 . S
C154 C155 1.477 . S
C154 H174 0.931 . S
C155 C151 1.460 1_556 S
C155 C154 1.477 . S
C155 H175 0.930 1_556 S
C156 N152 1.362 . S
C156 C153 1.431 . S
C156 C166 1.476 . S
H157 C151 0.929 . S
C158 O149 1.250 . S
C158 O150 1.258 . S
O159 Mn144 2.162 1_554 S
O159 C147 1.280 1_554 S
O160 Mn144 2.297 . S
O160 C147 1.236 . S
N161 Mn145 2.282 . S
N161 C162 1.328 . S
N161 C166 1.318 . S
C162 N161 1.328 . S
C162 C163 1.457 . S
C162 H167 0.929 . S
C163 C162 1.457 . S
C163 C164 1.291 . S
C163 H176 0.931 . S
C164 C163 1.291 . S
C164 C165 1.373 . S
C164 H177 0.929 . S
C165 C164 1.373 . S
C165 C166 1.396 . S
C165 C172 1.403 . S
C166 C156 1.476 . S
C166 N161 1.318 . S
C166 C165 1.396 . S
H167 C162 0.929 . S
O168 Mn144 2.385 . S
O168 C146 1.234 . S
O169 Mn144 2.209 . S
O169 Mn145 2.215 . S
O169 C146 1.283 . S
O170 Mn144 2.094 . S
O170 C148 1.240 . S
O171 Mn145 2.117 . S
O171 C148 1.264 . S
C172 C165 1.403 . S
C172 C173 1.399 . S
C172 H178 0.929 . S
C173 C153 1.449 . S
C173 C172 1.399 . S
C173 H179 0.930 . S
H174 C154 0.931 . S
H175 C155 0.930 1_554 S
H176 C163 0.931 . S
H177 C164 0.929 . S
H178 C172 0.929 . S
H179 C173 0.930 . S
Mn180 O185 2.095 1_556 S
Mn180 O195 2.162 1_556 S
Mn180 O196 2.297 . S
Mn180 O204 2.385 . S
Mn180 O205 2.209 . S
Mn180 O206 2.094 . S
Mn181 O186 2.121 1_556 S
Mn181 N188 2.257 . S
Mn181 N197 2.282 . S
Mn181 O205 2.215 . S
Mn181 O207 2.117 . S
C182 O204 1.234 . S
C182 O205 1.283 . S
C183 O195 1.280 1_556 S
C183 O196 1.236 . S
C184 O206 1.240 . S
C184 O207 1.264 . S
O185 Mn180 2.095 1_554 S
O185 C194 1.250 . S
O186 Mn181 2.121 1_554 S
O186 C194 1.258 . S
C187 N188 1.326 1_554 S
C187 C191 1.460 1_554 S
C187 H193 0.929 . S
N188 Mn181 2.257 . S
N188 C187 1.326 1_556 S
N188 C192 1.362 . S
C189 C190 1.258 . S
C189 C192 1.431 . S
C189 C209 1.449 . S
C190 C189 1.258 . S
C190 C191 1.477 . S
C190 H210 0.931 . S
C191 C187 1.460 1_556 S
C191 C190 1.477 . S
C191 H211 0.930 1_556 S
C192 N188 1.362 . S
C192 C189 1.431 . S
C192 C202 1.476 . S
H193 C187 0.929 . S
C194 O185 1.250 . S
C194 O186 1.258 . S
O195 Mn180 2.162 1_554 S
O195 C183 1.280 1_554 S
O196 Mn180 2.297 . S
O196 C183 1.236 . S
N197 Mn181 2.282 . S
N197 C198 1.328 . S
N197 C202 1.318 . S
C198 N197 1.328 . S
C198 C199 1.457 . S
C198 H203 0.929 . S
C199 C198 1.457 . S
C199 C200 1.291 . S
C199 H212 0.931 . S
C200 C199 1.291 . S
C200 C201 1.373 . S
C200 H213 0.929 . S
C201 C200 1.373 . S
C201 C202 1.396 . S
C201 C208 1.403 . S
C202 C192 1.476 . S
C202 N197 1.318 . S
C202 C201 1.396 . S
H203 C198 0.929 . S
O204 Mn180 2.385 . S
O204 C182 1.234 . S
O205 Mn180 2.209 . S
O205 Mn181 2.215 . S
O205 C182 1.283 . S
O206 Mn180 2.094 . S
O206 C184 1.240 . S
O207 Mn181 2.117 . S
O207 C184 1.264 . S
C208 C201 1.403 . S
C208 C209 1.399 . S
C208 H214 0.929 . S
C209 C189 1.449 . S
C209 C208 1.399 . S
C209 H215 0.930 . S
H210 C190 0.931 . S
H211 C191 0.930 1_554 S
H212 C199 0.931 . S
H213 C200 0.929 . S
H214 C208 0.929 . S
H215 C209 0.930 . S
Mn216 O221 2.095 1_556 S
Mn216 O231 2.162 1_556 S
Mn216 O232 2.297 . S
Mn216 O240 2.385 . S
Mn216 O241 2.209 . S
Mn216 O242 2.094 . S
Mn217 O222 2.121 1_556 S
Mn217 N224 2.257 . S
Mn217 N233 2.282 . S
Mn217 O241 2.215 . S
Mn217 O243 2.117 . S
C218 O240 1.234 . S
C218 O241 1.283 . S
C219 O231 1.280 1_556 S
C219 O232 1.236 . S
C220 O242 1.240 . S
C220 O243 1.264 . S
O221 Mn216 2.095 1_554 S
O221 C230 1.250 . S
O222 Mn217 2.121 1_554 S
O222 C230 1.258 . S
C223 N224 1.326 1_554 S
C223 C227 1.460 1_554 S
C223 H229 0.929 . S
N224 Mn217 2.257 . S
N224 C223 1.326 1_556 S
N224 C228 1.362 . S
C225 C226 1.258 . S
C225 C228 1.431 . S
C225 C245 1.449 . S
C226 C225 1.258 . S
C226 C227 1.477 . S
C226 H246 0.931 . S
C227 C223 1.460 1_556 S
C227 C226 1.477 . S
C227 H247 0.930 1_556 S
C228 N224 1.362 . S
C228 C225 1.431 . S
C228 C238 1.476 . S
H229 C223 0.929 . S
C230 O221 1.250 . S
C230 O222 1.258 . S
O231 Mn216 2.162 1_554 S
O231 C219 1.280 1_554 S
O232 Mn216 2.297 . S
O232 C219 1.236 . S
N233 Mn217 2.282 . S
N233 C234 1.328 . S
N233 C238 1.318 . S
C234 N233 1.328 . S
C234 C235 1.457 . S
C234 H239 0.929 . S
C235 C234 1.457 . S
C235 C236 1.291 . S
C235 H248 0.931 . S
C236 C235 1.291 . S
C236 C237 1.373 . S
C236 H249 0.929 . S
C237 C236 1.373 . S
C237 C238 1.396 . S
C237 C244 1.403 . S
C238 C228 1.476 . S
C238 N233 1.318 . S
C238 C237 1.396 . S
H239 C234 0.929 . S
O240 Mn216 2.385 . S
O240 C218 1.234 . S
O241 Mn216 2.209 . S
O241 Mn217 2.215 . S
O241 C218 1.283 . S
O242 Mn216 2.094 . S
O242 C220 1.240 . S
O243 Mn217 2.117 . S
O243 C220 1.264 . S
C244 C237 1.403 . S
C244 C245 1.399 . S
C244 H250 0.929 . S
C245 C225 1.449 . S
C245 C244 1.399 . S
C245 H251 0.930 . S
H246 C226 0.931 . S
H247 C227 0.930 1_554 S
H248 C235 0.931 . S
H249 C236 0.929 . S
H250 C244 0.929 . S
H251 C245 0.930 . S
Mn252 O257 2.095 1_556 S
Mn252 O267 2.162 1_556 S
Mn252 O268 2.297 . S
Mn252 O276 2.385 . S
Mn252 O277 2.209 . S
Mn252 O278 2.094 . S
Mn253 O258 2.121 1_556 S
Mn253 N260 2.257 . S
Mn253 N269 2.282 . S
Mn253 O277 2.215 . S
Mn253 O279 2.117 . S
C254 O276 1.234 . S
C254 O277 1.283 . S
C255 O267 1.280 1_556 S
C255 O268 1.236 . S
C256 O278 1.240 . S
C256 O279 1.264 . S
O257 Mn252 2.095 1_554 S
O257 C266 1.250 . S
O258 Mn253 2.121 1_554 S
O258 C266 1.258 . S
C259 N260 1.326 1_554 S
C259 C263 1.460 1_554 S
C259 H265 0.929 . S
N260 Mn253 2.257 . S
N260 C259 1.326 1_556 S
N260 C264 1.362 . S
C261 C262 1.258 . S
C261 C264 1.431 . S
C261 C281 1.449 . S
C262 C261 1.258 . S
C262 C263 1.477 . S
C262 H282 0.931 . S
C263 C259 1.460 1_556 S
C263 C262 1.477 . S
C263 H283 0.930 1_556 S
C264 N260 1.362 . S
C264 C261 1.431 . S
C264 C274 1.476 . S
H265 C259 0.929 . S
C266 O257 1.250 . S
C266 O258 1.258 . S
O267 Mn252 2.162 1_554 S
O267 C255 1.280 1_554 S
O268 Mn252 2.297 . S
O268 C255 1.236 . S
N269 Mn253 2.282 . S
N269 C270 1.328 . S
N269 C274 1.318 . S
C270 N269 1.328 . S
C270 C271 1.457 . S
C270 H275 0.929 . S
C271 C270 1.457 . S
C271 C272 1.291 . S
C271 H284 0.931 . S
C272 C271 1.291 . S
C272 C273 1.373 . S
C272 H285 0.929 . S
C273 C272 1.373 . S
C273 C274 1.396 . S
C273 C280 1.403 . S
C274 C264 1.476 . S
C274 N269 1.318 . S
C274 C273 1.396 . S
H275 C270 0.929 . S
O276 Mn252 2.385 . S
O276 C254 1.234 . S
O277 Mn252 2.209 . S
O277 Mn253 2.215 . S
O277 C254 1.283 . S
O278 Mn252 2.094 . S
O278 C256 1.240 . S
O279 Mn253 2.117 . S
O279 C256 1.264 . S
C280 C273 1.403 . S
C280 C281 1.399 . S
C280 H286 0.929 . S
C281 C261 1.449 . S
C281 C280 1.399 . S
C281 H287 0.930 . S
H282 C262 0.931 . S
H283 C263 0.930 1_554 S
H284 C271 0.931 . S
H285 C272 0.929 . S
H286 C280 0.929 . S
H287 C281 0.930 . S
Mn288 O293 2.095 . S
Mn288 O303 2.162 . S
Mn288 O304 2.297 . S
Mn288 O312 2.385 . S
Mn288 O313 2.209 . S
Mn288 O314 2.094 . S
Mn289 O294 2.121 . S
Mn289 N296 2.257 . S
Mn289 N305 2.282 . S
Mn289 O313 2.215 . S
Mn289 O315 2.117 . S
C290 O312 1.234 . S
C290 O313 1.283 . S
C291 O303 1.281 . S
C291 O304 1.236 . S
C292 O314 1.240 . S
C292 O315 1.264 . S
O293 Mn288 2.095 . S
O293 C302 1.250 . S
O294 Mn289 2.121 . S
O294 C302 1.258 . S
C295 N296 1.326 . S
C295 C299 1.460 . S
C295 H301 0.929 . S
N296 Mn289 2.257 . S
N296 C295 1.326 . S
N296 C300 1.362 . S
C297 C298 1.258 . S
C297 C300 1.431 . S
C297 C317 1.449 . S
C298 C297 1.258 . S
C298 C299 1.477 . S
C298 H318 0.931 . S
C299 C295 1.460 . S
C299 C298 1.477 . S
C299 H319 0.930 . S
C300 N296 1.362 . S
C300 C297 1.431 . S
C300 C310 1.476 . S
H301 C295 0.929 . S
C302 O293 1.250 . S
C302 O294 1.258 . S
O303 Mn288 2.162 . S
O303 C291 1.281 . S
O304 Mn288 2.297 . S
O304 C291 1.236 . S
N305 Mn289 2.282 . S
N305 C306 1.328 . S
N305 C310 1.318 . S
C306 N305 1.328 . S
C306 C307 1.457 . S
C306 H311 0.929 . S
C307 C306 1.457 . S
C307 C308 1.291 . S
C307 H320 0.931 . S
C308 C307 1.291 . S
C308 C309 1.373 . S
C308 H321 0.929 . S
C309 C308 1.373 . S
C309 C310 1.396 . S
C309 C316 1.403 . S
C310 C300 1.476 . S
C310 N305 1.318 . S
C310 C309 1.396 . S
H311 C306 0.929 . S
O312 Mn288 2.385 . S
O312 C290 1.234 . S
O313 Mn288 2.209 . S
O313 Mn289 2.215 . S
O313 C290 1.283 . S
O314 Mn288 2.094 . S
O314 C292 1.240 . S
O315 Mn289 2.117 . S
O315 C292 1.264 . S
C316 C309 1.403 . S
C316 C317 1.399 . S
C316 H322 0.929 . S
C317 C297 1.449 . S
C317 C316 1.399 . S
C317 H323 0.930 . S
H318 C298 0.931 . S
H319 C299 0.930 . S
H320 C307 0.931 . S
H321 C308 0.929 . S
H322 C316 0.929 . S
H323 C317 0.930 . S
Mn324 O329 2.095 . S
Mn324 O339 2.162 . S
Mn324 O340 2.297 . S
Mn324 O348 2.385 . S
Mn324 O349 2.209 . S
Mn324 O350 2.094 . S
Mn325 O330 2.121 . S
Mn325 N332 2.257 . S
Mn325 N341 2.282 . S
Mn325 O349 2.215 . S
Mn325 O351 2.117 . S
C326 O348 1.234 . S
C326 O349 1.283 . S
C327 O339 1.281 . S
C327 O340 1.236 . S
C328 O350 1.240 . S
C328 O351 1.264 . S
O329 Mn324 2.095 . S
O329 C338 1.250 . S
O330 Mn325 2.121 . S
O330 C338 1.258 . S
C331 N332 1.326 . S
C331 C335 1.460 . S
C331 H337 0.929 . S
N332 Mn325 2.257 . S
N332 C331 1.326 . S
N332 C336 1.362 . S
C333 C334 1.258 . S
C333 C336 1.431 . S
C333 C353 1.449 . S
C334 C333 1.258 . S
C334 C335 1.477 . S
C334 H354 0.931 . S
C335 C331 1.460 . S
C335 C334 1.477 . S
C335 H355 0.930 . S
C336 N332 1.362 . S
C336 C333 1.431 . S
C336 C346 1.476 . S
H337 C331 0.929 . S
C338 O329 1.250 . S
C338 O330 1.258 . S
O339 Mn324 2.162 . S
O339 C327 1.281 . S
O340 Mn324 2.297 . S
O340 C327 1.236 . S
N341 Mn325 2.282 . S
N341 C342 1.328 . S
N341 C346 1.318 . S
C342 N341 1.328 . S
C342 C343 1.457 . S
C342 H347 0.929 . S
C343 C342 1.457 . S
C343 C344 1.291 . S
C343 H356 0.931 . S
C344 C343 1.291 . S
C344 C345 1.373 . S
C344 H357 0.929 . S
C345 C344 1.373 . S
C345 C346 1.396 . S
C345 C352 1.403 . S
C346 C336 1.476 . S
C346 N341 1.318 . S
C346 C345 1.396 . S
H347 C342 0.929 . S
O348 Mn324 2.385 . S
O348 C326 1.234 . S
O349 Mn324 2.209 . S
O349 Mn325 2.215 . S
O349 C326 1.283 . S
O350 Mn324 2.094 . S
O350 C328 1.240 . S
O351 Mn325 2.117 . S
O351 C328 1.264 . S
C352 C345 1.403 . S
C352 C353 1.399 . S
C352 H358 0.929 . S
C353 C333 1.449 . S
C353 C352 1.399 . S
C353 H359 0.930 . S
H354 C334 0.931 . S
H355 C335 0.930 . S
H356 C343 0.931 . S
H357 C344 0.929 . S
H358 C352 0.929 . S
H359 C353 0.930 . S
Mn360 O365 2.095 . S
Mn360 O375 2.162 . S
Mn360 O376 2.297 . S
Mn360 O384 2.385 . S
Mn360 O385 2.209 . S
Mn360 O386 2.094 . S
Mn361 O366 2.121 . S
Mn361 N368 2.257 . S
Mn361 N377 2.282 . S
Mn361 O385 2.215 . S
Mn361 O387 2.117 . S
C362 O384 1.234 . S
C362 O385 1.283 . S
C363 O375 1.281 . S
C363 O376 1.236 . S
C364 O386 1.240 . S
C364 O387 1.264 . S
O365 Mn360 2.095 . S
O365 C374 1.250 . S
O366 Mn361 2.121 . S
O366 C374 1.258 . S
C367 N368 1.326 . S
C367 C371 1.460 . S
C367 H373 0.929 . S
N368 Mn361 2.257 . S
N368 C367 1.326 . S
N368 C372 1.362 . S
C369 C370 1.258 . S
C369 C372 1.431 . S
C369 C389 1.449 . S
C370 C369 1.258 . S
C370 C371 1.477 . S
C370 H390 0.931 . S
C371 C367 1.460 . S
C371 C370 1.477 . S
C371 H391 0.930 . S
C372 N368 1.362 . S
C372 C369 1.431 . S
C372 C382 1.476 . S
H373 C367 0.929 . S
C374 O365 1.250 . S
C374 O366 1.258 . S
O375 Mn360 2.162 . S
O375 C363 1.281 . S
O376 Mn360 2.297 . S
O376 C363 1.236 . S
N377 Mn361 2.282 . S
N377 C378 1.328 . S
N377 C382 1.318 . S
C378 N377 1.328 . S
C378 C379 1.457 . S
C378 H383 0.929 . S
C379 C378 1.457 . S
C379 C380 1.291 . S
C379 H392 0.931 . S
C380 C379 1.291 . S
C380 C381 1.373 . S
C380 H393 0.929 . S
C381 C380 1.373 . S
C381 C382 1.396 . S
C381 C388 1.403 . S
C382 C372 1.476 . S
C382 N377 1.318 . S
C382 C381 1.396 . S
H383 C378 0.929 . S
O384 Mn360 2.385 . S
O384 C362 1.234 . S
O385 Mn360 2.209 . S
O385 Mn361 2.215 . S
O385 C362 1.283 . S
O386 Mn360 2.094 . S
O386 C364 1.240 . S
O387 Mn361 2.117 . S
O387 C364 1.264 . S
C388 C381 1.403 . S
C388 C389 1.399 . S
C388 H394 0.929 . S
C389 C369 1.449 . S
C389 C388 1.399 . S
C389 H395 0.930 . S
H390 C370 0.931 . S
H391 C371 0.930 . S
H392 C379 0.931 . S
H393 C380 0.929 . S
H394 C388 0.929 . S
H395 C389 0.930 . S
Mn396 O401 2.095 . S
Mn396 O411 2.162 . S
Mn396 O412 2.297 . S
Mn396 O420 2.385 . S
Mn396 O421 2.209 . S
Mn396 O422 2.094 . S
Mn397 O402 2.121 . S
Mn397 N404 2.257 . S
Mn397 N413 2.282 . S
Mn397 O421 2.215 . S
Mn397 O423 2.117 . S
C398 O420 1.234 . S
C398 O421 1.283 . S
C399 O411 1.281 . S
C399 O412 1.236 . S
C400 O422 1.240 . S
C400 O423 1.264 . S
O401 Mn396 2.095 . S
O401 C410 1.250 . S
O402 Mn397 2.121 . S
O402 C410 1.258 . S
C403 N404 1.326 . S
C403 C407 1.460 . S
C403 H409 0.929 . S
N404 Mn397 2.257 . S
N404 C403 1.326 . S
N404 C408 1.362 . S
C405 C406 1.258 . S
C405 C408 1.431 . S
C405 C425 1.449 . S
C406 C405 1.258 . S
C406 C407 1.477 . S
C406 H426 0.931 . S
C407 C403 1.460 . S
C407 C406 1.477 . S
C407 H427 0.930 . S
C408 N404 1.362 . S
C408 C405 1.431 . S
C408 C418 1.476 . S
H409 C403 0.929 . S
C410 O401 1.250 . S
C410 O402 1.258 . S
O411 Mn396 2.162 . S
O411 C399 1.281 . S
O412 Mn396 2.297 . S
O412 C399 1.236 . S
N413 Mn397 2.282 . S
N413 C414 1.328 . S
N413 C418 1.318 . S
C414 N413 1.328 . S
C414 C415 1.457 . S
C414 H419 0.929 . S
C415 C414 1.457 . S
C415 C416 1.291 . S
C415 H428 0.931 . S
C416 C415 1.291 . S
C416 C417 1.373 . S
C416 H429 0.929 . S
C417 C416 1.373 . S
C417 C418 1.396 . S
C417 C424 1.403 . S
C418 C408 1.476 . S
C418 N413 1.318 . S
C418 C417 1.396 . S
H419 C414 0.929 . S
O420 Mn396 2.385 . S
O420 C398 1.234 . S
O421 Mn396 2.209 . S
O421 Mn397 2.215 . S
O421 C398 1.283 . S
O422 Mn396 2.094 . S
O422 C400 1.240 . S
O423 Mn397 2.117 . S
O423 C400 1.264 . S
C424 C417 1.403 . S
C424 C425 1.399 . S
C424 H430 0.929 . S
C425 C405 1.449 . S
C425 C424 1.399 . S
C425 H431 0.930 . S
H426 C406 0.931 . S
H427 C407 0.930 . S
H428 C415 0.931 . S
H429 C416 0.929 . S
H430 C424 0.929 . S
H431 C425 0.930 . S
Mn432 O437 2.095 . S
Mn432 O447 2.162 . S
Mn432 O448 2.297 . S
Mn432 O456 2.385 . S
Mn432 O457 2.209 . S
Mn432 O458 2.094 . S
Mn433 O438 2.121 . S
Mn433 N440 2.257 . S
Mn433 N449 2.282 . S
Mn433 O457 2.215 . S
Mn433 O459 2.117 . S
C434 O456 1.234 . S
C434 O457 1.283 . S
C435 O447 1.281 . S
C435 O448 1.236 . S
C436 O458 1.240 . S
C436 O459 1.264 . S
O437 Mn432 2.095 . S
O437 C446 1.250 . S
O438 Mn433 2.121 . S
O438 C446 1.258 . S
C439 N440 1.326 . S
C439 C443 1.460 . S
C439 H445 0.929 . S
N440 Mn433 2.257 . S
N440 C439 1.326 . S
N440 C444 1.362 . S
C441 C442 1.258 . S
C441 C444 1.431 . S
C441 C461 1.449 . S
C442 C441 1.258 . S
C442 C443 1.477 . S
C442 H462 0.931 . S
C443 C439 1.460 . S
C443 C442 1.477 . S
C443 H463 0.930 . S
C444 N440 1.362 . S
C444 C441 1.431 . S
C444 C454 1.476 . S
H445 C439 0.929 . S
C446 O437 1.250 . S
C446 O438 1.258 . S
O447 Mn432 2.162 . S
O447 C435 1.281 . S
O448 Mn432 2.297 . S
O448 C435 1.236 . S
N449 Mn433 2.282 . S
N449 C450 1.328 . S
N449 C454 1.318 . S
C450 N449 1.328 . S
C450 C451 1.457 . S
C450 H455 0.929 . S
C451 C450 1.457 . S
C451 C452 1.291 . S
C451 H464 0.931 . S
C452 C451 1.291 . S
C452 C453 1.373 . S
C452 H465 0.929 . S
C453 C452 1.373 . S
C453 C454 1.396 . S
C453 C460 1.403 . S
C454 C444 1.476 . S
C454 N449 1.318 . S
C454 C453 1.396 . S
H455 C450 0.929 . S
O456 Mn432 2.385 . S
O456 C434 1.234 . S
O457 Mn432 2.209 . S
O457 Mn433 2.215 . S
O457 C434 1.283 . S
O458 Mn432 2.094 . S
O458 C436 1.240 . S
O459 Mn433 2.117 . S
O459 C436 1.264 . S
C460 C453 1.403 . S
C460 C461 1.399 . S
C460 H466 0.929 . S
C461 C441 1.449 . S
C461 C460 1.399 . S
C461 H467 0.930 . S
H462 C442 0.931 . S
H463 C443 0.930 . S
H464 C451 0.931 . S
H465 C452 0.929 . S
H466 C460 0.929 . S
H467 C461 0.930 . S
Mn468 O473 2.095 . S
Mn468 O483 2.162 . S
Mn468 O484 2.297 . S
Mn468 O492 2.385 . S
Mn468 O493 2.209 . S
Mn468 O494 2.094 . S
Mn469 O474 2.121 . S
Mn469 N476 2.257 . S
Mn469 N485 2.282 . S
Mn469 O493 2.215 . S
Mn469 O495 2.117 . S
C470 O492 1.234 . S
C470 O493 1.283 . S
C471 O483 1.281 . S
C471 O484 1.236 . S
C472 O494 1.240 . S
C472 O495 1.264 . S
O473 Mn468 2.095 . S
O473 C482 1.250 . S
O474 Mn469 2.121 . S
O474 C482 1.258 . S
C475 N476 1.326 . S
C475 C479 1.460 . S
C475 H481 0.929 . S
N476 Mn469 2.257 . S
N476 C475 1.326 . S
N476 C480 1.362 . S
C477 C478 1.258 . S
C477 C480 1.431 . S
C477 C497 1.449 . S
C478 C477 1.258 . S
C478 C479 1.477 . S
C478 H498 0.931 . S
C479 C475 1.460 . S
C479 C478 1.477 . S
C479 H499 0.930 . S
C480 N476 1.362 . S
C480 C477 1.431 . S
C480 C490 1.476 . S
H481 C475 0.929 . S
C482 O473 1.250 . S
C482 O474 1.258 . S
O483 Mn468 2.162 . S
O483 C471 1.281 . S
O484 Mn468 2.297 . S
O484 C471 1.236 . S
N485 Mn469 2.282 . S
N485 C486 1.328 . S
N485 C490 1.318 . S
C486 N485 1.328 . S
C486 C487 1.457 . S
C486 H491 0.929 . S
C487 C486 1.457 . S
C487 C488 1.291 . S
C487 H500 0.931 . S
C488 C487 1.291 . S
C488 C489 1.373 . S
C488 H501 0.929 . S
C489 C488 1.373 . S
C489 C490 1.396 . S
C489 C496 1.403 . S
C490 C480 1.476 . S
C490 N485 1.318 . S
C490 C489 1.396 . S
H491 C486 0.929 . S
O492 Mn468 2.385 . S
O492 C470 1.234 . S
O493 Mn468 2.209 . S
O493 Mn469 2.215 . S
O493 C470 1.283 . S
O494 Mn468 2.094 . S
O494 C472 1.240 . S
O495 Mn469 2.117 . S
O495 C472 1.264 . S
C496 C489 1.403 . S
C496 C497 1.399 . S
C496 H502 0.929 . S
C497 C477 1.449 . S
C497 C496 1.399 . S
C497 H503 0.930 . S
H498 C478 0.931 . S
H499 C479 0.930 . S
H500 C487 0.931 . S
H501 C488 0.929 . S
H502 C496 0.929 . S
H503 C497 0.930 . S
Mn504 O509 2.095 . S
Mn504 O519 2.162 . S
Mn504 O520 2.297 . S
Mn504 O528 2.385 . S
Mn504 O529 2.209 . S
Mn504 O530 2.094 . S
Mn505 O510 2.121 . S
Mn505 N512 2.257 . S
Mn505 N521 2.282 . S
Mn505 O529 2.215 . S
Mn505 O531 2.117 . S
C506 O528 1.234 . S
C506 O529 1.283 . S
C507 O519 1.281 . S
C507 O520 1.236 . S
C508 O530 1.240 . S
C508 O531 1.264 . S
O509 Mn504 2.095 . S
O509 C518 1.250 . S
O510 Mn505 2.121 . S
O510 C518 1.258 . S
C511 N512 1.326 . S
C511 C515 1.460 . S
C511 H517 0.929 . S
N512 Mn505 2.257 . S
N512 C511 1.326 . S
N512 C516 1.362 . S
C513 C514 1.258 . S
C513 C516 1.431 . S
C513 C533 1.449 . S
C514 C513 1.258 . S
C514 C515 1.477 . S
C514 H534 0.931 . S
C515 C511 1.460 . S
C515 C514 1.477 . S
C515 H535 0.930 . S
C516 N512 1.362 . S
C516 C513 1.431 . S
C516 C526 1.476 . S
H517 C511 0.929 . S
C518 O509 1.250 . S
C518 O510 1.258 . S
O519 Mn504 2.162 . S
O519 C507 1.281 . S
O520 Mn504 2.297 . S
O520 C507 1.236 . S
N521 Mn505 2.282 . S
N521 C522 1.328 . S
N521 C526 1.318 . S
C522 N521 1.328 . S
C522 C523 1.457 . S
C522 H527 0.929 . S
C523 C522 1.457 . S
C523 C524 1.291 . S
C523 H536 0.931 . S
C524 C523 1.291 . S
C524 C525 1.373 . S
C524 H537 0.929 . S
C525 C524 1.373 . S
C525 C526 1.396 . S
C525 C532 1.403 . S
C526 C516 1.476 . S
C526 N521 1.318 . S
C526 C525 1.396 . S
H527 C522 0.929 . S
O528 Mn504 2.385 . S
O528 C506 1.234 . S
O529 Mn504 2.209 . S
O529 Mn505 2.215 . S
O529 C506 1.283 . S
O530 Mn504 2.094 . S
O530 C508 1.240 . S
O531 Mn505 2.117 . S
O531 C508 1.264 . S
C532 C525 1.403 . S
C532 C533 1.399 . S
C532 H538 0.929 . S
C533 C513 1.449 . S
C533 C532 1.399 . S
C533 H539 0.930 . S
H534 C514 0.931 . S
H535 C515 0.930 . S
H536 C523 0.931 . S
H537 C524 0.929 . S
H538 C532 0.929 . S
H539 C533 0.930 . S
Mn540 O545 2.095 . S
Mn540 O555 2.162 . S
Mn540 O556 2.297 . S
Mn540 O564 2.385 . S
Mn540 O565 2.209 . S
Mn540 O566 2.094 . S
Mn541 O546 2.121 . S
Mn541 N548 2.257 . S
Mn541 N557 2.282 . S
Mn541 O565 2.215 . S
Mn541 O567 2.117 . S
C542 O564 1.234 . S
C542 O565 1.283 . S
C543 O555 1.281 . S
C543 O556 1.236 . S
C544 O566 1.240 . S
C544 O567 1.264 . S
O545 Mn540 2.095 . S
O545 C554 1.250 . S
O546 Mn541 2.121 . S
O546 C554 1.258 . S
C547 N548 1.326 . S
C547 C551 1.460 . S
C547 H553 0.929 . S
N548 Mn541 2.257 . S
N548 C547 1.326 . S
N548 C552 1.362 . S
C549 C550 1.258 . S
C549 C552 1.431 . S
C549 C569 1.449 . S
C550 C549 1.258 . S
C550 C551 1.477 . S
C550 H570 0.931 . S
C551 C547 1.460 . S
C551 C550 1.477 . S
C551 H571 0.930 . S
C552 N548 1.362 . S
C552 C549 1.431 . S
C552 C562 1.476 . S
H553 C547 0.929 . S
C554 O545 1.250 . S
C554 O546 1.258 . S
O555 Mn540 2.162 . S
O555 C543 1.281 . S
O556 Mn540 2.297 . S
O556 C543 1.236 . S
N557 Mn541 2.282 . S
N557 C558 1.328 . S
N557 C562 1.318 . S
C558 N557 1.328 . S
C558 C559 1.457 . S
C558 H563 0.929 . S
C559 C558 1.457 . S
C559 C560 1.291 . S
C559 H572 0.931 . S
C560 C559 1.291 . S
C560 C561 1.373 . S
C560 H573 0.929 . S
C561 C560 1.373 . S
C561 C562 1.396 . S
C561 C568 1.403 . S
C562 C552 1.476 . S
C562 N557 1.318 . S
C562 C561 1.396 . S
H563 C558 0.929 . S
O564 Mn540 2.385 . S
O564 C542 1.234 . S
O565 Mn540 2.209 . S
O565 Mn541 2.215 . S
O565 C542 1.283 . S
O566 Mn540 2.094 . S
O566 C544 1.240 . S
O567 Mn541 2.117 . S
O567 C544 1.264 . S
C568 C561 1.403 . S
C568 C569 1.399 . S
C568 H574 0.929 . S
C569 C549 1.449 . S
C569 C568 1.399 . S
C569 H575 0.930 . S
H570 C550 0.931 . S
H571 C551 0.930 . S
H572 C559 0.931 . S
H573 C560 0.929 . S
H574 C568 0.929 . S
H575 C569 0.930 . S
H576 C584 0.950 . S
H577 C589 0.950 . S
H578 C586 0.950 . S
H579 C588 0.950 . S
H580 C590 0.950 . S
H581 C592 0.950 . S
H582 C594 0.950 . S
H583 C595 0.950 . S
C584 H576 0.950 . S
C584 C585 1.386 . S
C584 C586 1.391 . S
C585 C584 1.386 . S
C585 C589 1.393 1_556 S
C586 H578 0.950 . S
C586 C584 1.391 . S
C586 C587 1.400 . S
C587 C586 1.400 . S
C587 C588 1.398 1_556 S
C587 C593 1.491 1_556 S
C588 H579 0.950 . S
C588 C587 1.398 1_554 S
C588 C589 1.391 . S
C589 H577 0.950 . S
C589 C585 1.393 1_554 S
C589 C588 1.391 . S
C590 H580 0.950 . S
C590 C591 1.386 . S
C590 C592 1.391 . S
C591 C590 1.386 . S
C591 C595 1.393 1_554 S
C592 H581 0.950 . S
C592 C590 1.391 . S
C592 C593 1.400 . S
C593 C587 1.491 1_554 S
C593 C592 1.400 . S
C593 C594 1.398 1_554 S
C594 H582 0.950 . S
C594 C593 1.398 1_556 S
C594 C595 1.391 . S
C595 H583 0.950 . S
C595 C591 1.393 1_556 S
C595 C594 1.391 . S
H596 C604 0.950 . S
H597 C609 0.950 . S
H598 C606 0.950 . S
H599 C608 0.950 . S
H600 C610 0.950 . S
H601 C612 0.950 . S
H602 C614 0.950 . S
H603 C615 0.950 . S
C604 H596 0.950 . S
C604 C605 1.389 . S
C604 C606 1.391 . S
C605 C604 1.389 . S
C605 C609 1.389 1_556 S
C606 H598 0.950 . S
C606 C604 1.391 . S
C606 C607 1.395 1_556 S
C607 C606 1.395 1_554 S
C607 C608 1.404 . S
C607 C613 1.491 . S
C608 H599 0.950 . S
C608 C607 1.404 . S
C608 C609 1.391 . S
C609 H597 0.950 . S
C609 C605 1.389 1_554 S
C609 C608 1.391 . S
C610 H600 0.950 . S
C610 C611 1.386 . S
C610 C612 1.391 . S
C611 C610 1.386 . S
C611 C615 1.393 1_554 S
C612 H601 0.950 . S
C612 C610 1.391 . S
C612 C613 1.400 . S
C613 C607 1.491 . S
C613 C612 1.400 . S
C613 C614 1.398 1_554 S
C614 H602 0.950 . S
C614 C613 1.398 1_556 S
C614 C615 1.391 . S
C615 H603 0.950 . S
C615 C611 1.393 1_556 S
C615 C614 1.391 . S
H616 C624 0.950 . S
H617 C629 0.950 . S
H618 C626 0.950 . S
H619 C628 0.950 . S
H620 C630 0.950 . S
H621 C632 0.950 . S
H622 C634 0.950 . S
H623 C635 0.950 . S
C624 H616 0.950 . S
C624 C625 1.386 . S
C624 C626 1.391 . S
C625 C624 1.386 . S
C625 C629 1.393 1_554 S
C626 H618 0.950 . S
C626 C624 1.391 . S
C626 C627 1.400 . S
C627 C626 1.400 . S
C627 C628 1.398 1_554 S
C627 C633 1.491 . S
C628 H619 0.950 . S
C628 C627 1.398 1_556 S
C628 C629 1.391 . S
C629 H617 0.950 . S
C629 C625 1.393 1_556 S
C629 C628 1.391 . S
C630 H620 0.950 . S
C630 C631 1.386 . S
C630 C632 1.391 . S
C631 C630 1.386 . S
C631 C635 1.392 1_556 S
C632 H621 0.950 . S
C632 C630 1.391 . S
C632 C633 1.400 1_556 S
C633 C627 1.491 . S
C633 C632 1.400 1_554 S
C633 C634 1.399 . S
C634 H622 0.950 . S
C634 C633 1.399 . S
C634 C635 1.391 . S
C635 H623 0.950 . S
C635 C631 1.392 1_554 S
C635 C634 1.391 . S
H636 C644 0.950 . S
H637 C649 0.950 . S
H638 C646 0.950 . S
H639 C648 0.950 . S
H640 C650 0.950 . S
H641 C652 0.950 . S
H642 C654 0.950 . S
H643 C655 0.950 . S
C644 H636 0.950 . S
C644 C645 1.386 1_556 S
C644 C646 1.391 . S
C645 C644 1.386 1_554 S
C645 C649 1.393 . S
C646 H638 0.950 . S
C646 C644 1.391 . S
C646 C647 1.400 1_556 S
C647 C646 1.400 1_554 S
C647 C648 1.398 . S
C647 C653 1.491 . S
C648 H639 0.950 . S
C648 C647 1.398 . S
C648 C649 1.391 . S
C649 H637 0.950 . S
C649 C645 1.393 . S
C649 C648 1.391 . S
C650 H640 0.950 . S
C650 C651 1.383 1_554 S
C650 C652 1.391 . S
C651 C650 1.383 1_556 S
C651 C655 1.396 . S
C652 H641 0.950 . S
C652 C650 1.391 . S
C652 C653 1.399 . S
C653 C647 1.491 . S
C653 C652 1.399 . S
C653 C654 1.399 1_554 S
C654 H642 0.950 . S
C654 C653 1.399 1_556 S
C654 C655 1.391 . S
C655 H643 0.950 . S
C655 C651 1.396 . S
C655 C654 1.391 . S
H656 C664 0.950 . S
H657 C669 0.950 . S
H658 C666 0.950 . S
H659 C668 0.950 . S
H660 C670 0.950 . S
H661 C672 0.950 . S
H662 C674 0.950 . S
H663 C675 0.950 . S
C664 H656 0.950 . S
C664 C665 1.386 . S
C664 C666 1.391 . S
C665 C664 1.386 . S
C665 C669 1.393 . S
C666 H658 0.950 . S
C666 C664 1.391 . S
C666 C667 1.400 . S
C667 C666 1.400 . S
C667 C668 1.398 . S
C667 C673 1.491 1_545 S
C668 H659 0.950 . S
C668 C667 1.398 . S
C668 C669 1.391 . S
C669 H657 0.950 . S
C669 C665 1.393 . S
C669 C668 1.391 . S
C670 H660 0.950 . S
C670 C671 1.386 . S
C670 C672 1.391 . S
C671 C670 1.386 . S
C671 C675 1.393 . S
C672 H661 0.950 . S
C672 C670 1.391 . S
C672 C673 1.400 . S
C673 C667 1.491 1_565 S
C673 C672 1.400 . S
C673 C674 1.398 . S
C674 H662 0.950 . S
C674 C673 1.398 . S
C674 C675 1.391 . S
C675 H663 0.950 . S
C675 C671 1.393 . S
C675 C674 1.391 . S
H676 C684 0.950 . S
H677 C689 0.950 . S
H678 C686 0.950 . S
H679 C688 0.950 . S
H680 C690 0.950 . S
H681 C692 0.950 . S
H682 C694 0.950 . S
H683 C695 0.950 . S
C684 H676 0.950 . S
C684 C685 1.386 . S
C684 C686 1.391 . S
C685 C684 1.386 . S
C685 C689 1.393 . S
C686 H678 0.950 . S
C686 C684 1.391 . S
C686 C687 1.400 . S
C687 C686 1.400 . S
C687 C688 1.398 . S
C687 C693 1.491 1_655 S
C688 H679 0.950 . S
C688 C687 1.398 . S
C688 C689 1.391 . S
C689 H677 0.950 . S
C689 C685 1.393 . S
C689 C688 1.391 . S
C690 H680 0.950 . S
C690 C691 1.386 . S
C690 C692 1.391 . S
C691 C690 1.386 . S
C691 C695 1.393 . S
C692 H681 0.950 . S
C692 C690 1.391 . S
C692 C693 1.400 . S
C693 C687 1.491 1_455 S
C693 C692 1.400 . S
C693 C694 1.398 . S
C694 H682 0.950 . S
C694 C693 1.398 . S
C694 C695 1.391 . S
C695 H683 0.950 . S
C695 C691 1.393 . S
C695 C694 1.391 . S
H696 C704 0.950 . S
H697 C709 0.950 . S
H698 C706 0.950 . S
H699 C708 0.950 . S
H700 C710 0.950 . S
H701 C712 0.950 . S
H702 C714 0.950 . S
H703 C715 0.950 . S
C704 H696 0.950 . S
C704 C705 1.386 . S
C704 C706 1.391 . S
C705 C704 1.386 . S
C705 C709 1.393 . S
C706 H698 0.950 . S
C706 C704 1.391 . S
C706 C707 1.400 . S
C707 C706 1.400 . S
C707 C708 1.398 . S
C707 C713 1.491 1_545 S
C708 H699 0.950 . S
C708 C707 1.398 . S
C708 C709 1.391 . S
C709 H697 0.950 . S
C709 C705 1.393 . S
C709 C708 1.391 . S
C710 H700 0.950 . S
C710 C711 1.386 . S
C710 C712 1.391 . S
C711 C710 1.386 . S
C711 C715 1.393 . S
C712 H701 0.950 . S
C712 C710 1.391 . S
C712 C713 1.400 . S
C713 C707 1.491 1_565 S
C713 C712 1.400 . S
C713 C714 1.398 . S
C714 H702 0.950 . S
C714 C713 1.398 . S
C714 C715 1.391 . S
C715 H703 0.950 . S
C715 C711 1.393 . S
C715 C714 1.391 . S
H716 C724 0.950 . S
H717 C729 0.950 . S
H718 C726 0.950 . S
H719 C728 0.950 . S
H720 C730 0.950 . S
H721 C732 0.950 . S
H722 C734 0.950 . S
H723 C735 0.950 . S
C724 H716 0.950 . S
C724 C725 1.386 . S
C724 C726 1.391 . S
C725 C724 1.386 . S
C725 C729 1.393 . S
C726 H718 0.950 . S
C726 C724 1.391 . S
C726 C727 1.400 . S
C727 C726 1.400 . S
C727 C728 1.398 . S
C727 C733 1.491 1_455 S
C728 H719 0.950 . S
C728 C727 1.398 . S
C728 C729 1.391 . S
C729 H717 0.950 . S
C729 C725 1.393 . S
C729 C728 1.391 . S
C730 H720 0.950 . S
C730 C731 1.386 . S
C730 C732 1.391 . S
C731 C730 1.386 . S
C731 C735 1.393 . S
C732 H721 0.950 . S
C732 C730 1.391 . S
C732 C733 1.400 . S
C733 C727 1.491 1_655 S
C733 C732 1.400 . S
C733 C734 1.398 . S
C734 H722 0.950 . S
C734 C733 1.398 . S
C734 C735 1.391 . S
C735 H723 0.950 . S
C735 C731 1.393 . S
C735 C734 1.391 . S
H736 C744 0.950 . S
H737 C749 0.950 . S
H738 C746 0.950 . S
H739 C748 0.950 . S
H740 C750 0.950 . S
H741 C752 0.950 . S
H742 C754 0.950 . S
H743 C755 0.950 . S
C744 H736 0.950 . S
C744 C745 1.386 1_556 S
C744 C746 1.391 . S
C745 C744 1.386 1_554 S
C745 C749 1.393 . S
C746 H738 0.950 . S
C746 C744 1.391 . S
C746 C747 1.400 1_556 S
C747 C746 1.400 1_554 S
C747 C748 1.399 . S
C747 C753 1.491 . S
C748 H739 0.950 . S
C748 C747 1.399 . S
C748 C749 1.391 . S
C749 H737 0.950 . S
C749 C745 1.393 . S
C749 C748 1.391 . S
C750 H740 0.950 . S
C750 C751 1.385 1_554 S
C750 C752 1.391 . S
C751 C750 1.385 1_556 S
C751 C755 1.393 . S
C752 H741 0.950 . S
C752 C750 1.391 . S
C752 C753 1.400 . S
C753 C747 1.491 . S
C753 C752 1.400 . S
C753 C754 1.398 1_554 S
C754 H742 0.950 . S
C754 C753 1.398 1_556 S
C754 C755 1.392 . S
C755 H743 0.950 . S
C755 C751 1.393 . S
C755 C754 1.392 . S
H756 C764 0.950 . S
H757 C769 0.950 . S
H758 C766 0.950 . S
H759 C768 0.950 . S
H760 C770 0.950 . S
H761 C772 0.950 . S
H762 C774 0.950 . S
H763 C775 0.950 . S
C764 H756 0.950 . S
C764 C765 1.386 1_554 S
C764 C766 1.391 . S
C765 C764 1.386 1_556 S
C765 C769 1.393 . S
C766 H758 0.950 . S
C766 C764 1.391 . S
C766 C767 1.411 . S
C767 C766 1.411 . S
C767 C768 1.388 1_554 S
C767 C773 1.491 . S
C768 H759 0.950 . S
C768 C767 1.388 1_556 S
C768 C769 1.391 . S
C769 H757 0.950 . S
C769 C765 1.393 . S
C769 C768 1.391 . S
C770 H760 0.950 . S
C770 C771 1.386 1_556 S
C770 C772 1.391 . S
C771 C770 1.386 1_554 S
C771 C775 1.393 . S
C772 H761 0.950 . S
C772 C770 1.391 . S
C772 C773 1.387 1_556 S
C773 C767 1.491 . S
C773 C772 1.387 1_554 S
C773 C774 1.412 . S
C774 H762 0.950 . S
C774 C773 1.412 . S
C774 C775 1.391 . S
C775 H763 0.950 . S
C775 C771 1.393 . S
C775 C774 1.391 . S
H776 C784 0.950 . S
H777 C789 0.950 . S
H778 C786 0.950 . S
H779 C788 0.950 . S
H780 C790 0.950 . S
H781 C792 0.950 . S
H782 C794 0.950 . S
H783 C795 0.950 . S
C784 H776 0.950 . S
C784 C785 1.386 1_556 S
C784 C786 1.391 . S
C785 C784 1.386 1_554 S
C785 C789 1.393 . S
C786 H778 0.950 . S
C786 C784 1.391 . S
C786 C787 1.400 1_556 S
C787 C786 1.400 1_554 S
C787 C788 1.398 . S
C787 C793 1.490 1_554 S
C788 H779 0.950 . S
C788 C787 1.398 . S
C788 C789 1.391 . S
C789 H777 0.950 . S
C789 C785 1.393 . S
C789 C788 1.391 . S
C790 H780 0.950 . S
C790 C791 1.386 1_554 S
C790 C792 1.391 . S
C791 C790 1.386 1_556 S
C791 C795 1.393 . S
C792 H781 0.950 . S
C792 C790 1.391 . S
C792 C793 1.396 1_554 S
C793 C787 1.490 1_556 S
C793 C792 1.396 1_556 S
C793 C794 1.404 . S
C794 H782 0.950 . S
C794 C793 1.404 . S
C794 C795 1.391 . S
C795 H783 0.950 . S
C795 C791 1.393 . S
C795 C794 1.391 . S
H796 C804 0.950 . S
H797 C809 0.950 . S
H798 C806 0.950 . S
H799 C808 0.950 . S
H800 C810 0.950 . S
H801 C812 0.950 . S
H802 C814 0.950 . S
H803 C815 0.950 . S
C804 H796 0.950 . S
C804 C805 1.386 . S
C804 C806 1.391 . S
C805 C804 1.386 . S
C805 C809 1.393 1_556 S
C806 H798 0.950 . S
C806 C804 1.391 . S
C806 C807 1.406 . S
C807 C806 1.406 . S
C807 C808 1.393 1_556 S
C807 C813 1.490 1_556 S
C808 H799 0.950 . S
C808 C807 1.393 1_554 S
C808 C809 1.391 . S
C809 H797 0.950 . S
C809 C805 1.393 1_554 S
C809 C808 1.391 . S
C810 H800 0.950 . S
C810 C811 1.386 . S
C810 C812 1.391 . S
C811 C810 1.386 . S
C811 C815 1.393 1_554 S
C812 H801 0.950 . S
C812 C810 1.391 . S
C812 C813 1.400 . S
C813 C807 1.490 1_554 S
C813 C812 1.400 . S
C813 C814 1.398 1_554 S
C814 H802 0.950 . S
C814 C813 1.398 1_556 S
C814 C815 1.391 . S
C815 H803 0.950 . S
C815 C811 1.393 1_556 S
C815 C814 1.391 . S
H816 C824 0.950 . S
H817 C829 0.950 . S
H818 C826 0.950 . S
H819 C828 0.950 . S
H820 C830 0.950 . S
H821 C832 0.950 . S
H822 C834 0.950 . S
H823 C835 0.950 . S
C824 H816 0.950 . S
C824 C825 1.386 . S
C824 C826 1.391 . S
C825 C824 1.386 . S
C825 C829 1.393 . S
C826 H818 0.950 . S
C826 C824 1.391 . S
C826 C827 1.400 . S
C827 C826 1.400 . S
C827 C828 1.398 . S
C827 C833 1.491 . S
C828 H819 0.950 . S
C828 C827 1.398 . S
C828 C829 1.391 . S
C829 H817 0.950 . S
C829 C825 1.393 . S
C829 C828 1.391 . S
C830 H820 0.950 . S
C830 C831 1.386 . S
C830 C832 1.391 . S
C831 C830 1.386 . S
C831 C835 1.393 . S
C832 H821 0.950 . S
C832 C830 1.391 . S
C832 C833 1.400 . S
C833 C827 1.491 . S
C833 C832 1.400 . S
C833 C834 1.398 . S
C834 H822 0.950 . S
C834 C833 1.398 . S
C834 C835 1.391 . S
C835 H823 0.950 . S
C835 C831 1.393 . S
C835 C834 1.391 . S
H836 C844 0.950 . S
H837 C849 0.950 . S
H838 C846 0.950 . S
H839 C848 0.950 . S
H840 C850 0.950 . S
H841 C852 0.950 . S
H842 C854 0.950 . S
H843 C855 0.950 . S
C844 H836 0.950 . S
C844 C845 1.386 . S
C844 C846 1.391 . S
C845 C844 1.386 . S
C845 C849 1.393 . S
C846 H838 0.950 . S
C846 C844 1.391 . S
C846 C847 1.400 . S
C847 C846 1.400 . S
C847 C848 1.398 . S
C847 C853 1.491 . S
C848 H839 0.950 . S
C848 C847 1.398 . S
C848 C849 1.391 . S
C849 H837 0.950 . S
C849 C845 1.393 . S
C849 C848 1.391 . S
C850 H840 0.950 . S
C850 C851 1.386 . S
C850 C852 1.391 . S
C851 C850 1.386 . S
C851 C855 1.393 . S
C852 H841 0.950 . S
C852 C850 1.391 . S
C852 C853 1.400 . S
C853 C847 1.491 . S
C853 C852 1.400 . S
C853 C854 1.398 . S
C854 H842 0.950 . S
C854 C853 1.398 . S
C854 C855 1.391 . S
C855 H843 0.950 . S
C855 C851 1.393 . S
C855 C854 1.391 . S
H856 C864 0.950 . S
H857 C869 0.950 . S
H858 C866 0.950 . S
H859 C868 0.950 . S
H860 C870 0.950 . S
H861 C872 0.950 . S
H862 C874 0.950 . S
H863 C875 0.950 . S
C864 H856 0.950 . S
C864 C865 1.386 . S
C864 C866 1.391 . S
C865 C864 1.386 . S
C865 C869 1.393 . S
C866 H858 0.950 . S
C866 C864 1.391 . S
C866 C867 1.400 . S
C867 C866 1.400 . S
C867 C868 1.398 . S
C867 C873 1.491 . S
C868 H859 0.950 . S
C868 C867 1.398 . S
C868 C869 1.391 . S
C869 H857 0.950 . S
C869 C865 1.393 . S
C869 C868 1.391 . S
C870 H860 0.950 . S
C870 C871 1.386 . S
C870 C872 1.391 . S
C871 C870 1.386 . S
C871 C875 1.393 . S
C872 H861 0.950 . S
C872 C870 1.391 . S
C872 C873 1.400 . S
C873 C867 1.491 . S
C873 C872 1.400 . S
C873 C874 1.398 . S
C874 H862 0.950 . S
C874 C873 1.398 . S
C874 C875 1.391 . S
C875 H863 0.950 . S
C875 C871 1.393 . S
C875 C874 1.391 . S
H876 C884 0.950 . S
H877 C889 0.950 . S
H878 C886 0.950 . S
H879 C888 0.950 . S
H880 C890 0.950 . S
H881 C892 0.950 . S
H882 C894 0.950 . S
H883 C895 0.950 . S
C884 H876 0.950 . S
C884 C885 1.386 . S
C884 C886 1.391 . S
C885 C884 1.386 . S
C885 C889 1.393 . S
C886 H878 0.950 . S
C886 C884 1.391 . S
C886 C887 1.400 . S
C887 C886 1.400 . S
C887 C888 1.398 . S
C887 C893 1.491 . S
C888 H879 0.950 . S
C888 C887 1.398 . S
C888 C889 1.391 . S
C889 H877 0.950 . S
C889 C885 1.393 . S
C889 C888 1.391 . S
C890 H880 0.950 . S
C890 C891 1.386 . S
C890 C892 1.391 . S
C891 C890 1.386 . S
C891 C895 1.393 . S
C892 H881 0.950 . S
C892 C890 1.391 . S
C892 C893 1.400 . S
C893 C887 1.491 . S
C893 C892 1.400 . S
C893 C894 1.398 . S
C894 H882 0.950 . S
C894 C893 1.398 . S
C894 C895 1.391 . S
C895 H883 0.950 . S
C895 C891 1.393 . S
C895 C894 1.391 . S
H896 C904 0.950 . S
H897 C909 0.950 . S
H898 C906 0.950 . S
H899 C908 0.950 . S
H900 C910 0.950 . S
H901 C912 0.950 . S
H902 C914 0.950 . S
H903 C915 0.950 . S
C904 H896 0.950 . S
C904 C905 1.386 . S
C904 C906 1.391 . S
C905 C904 1.386 . S
C905 C909 1.393 . S
C906 H898 0.950 . S
C906 C904 1.391 . S
C906 C907 1.400 . S
C907 C906 1.400 . S
C907 C908 1.398 . S
C907 C913 1.491 . S
C908 H899 0.950 . S
C908 C907 1.398 . S
C908 C909 1.391 . S
C909 H897 0.950 . S
C909 C905 1.393 . S
C909 C908 1.391 . S
C910 H900 0.950 . S
C910 C911 1.386 . S
C910 C912 1.391 . S
C911 C910 1.386 . S
C911 C915 1.393 . S
C912 H901 0.950 . S
C912 C910 1.391 . S
C912 C913 1.400 . S
C913 C907 1.491 . S
C913 C912 1.400 . S
C913 C914 1.398 . S
C914 H902 0.950 . S
C914 C913 1.398 . S
C914 C915 1.391 . S
C915 H903 0.950 . S
C915 C911 1.393 . S
C915 C914 1.391 . S
H916 C924 0.950 . S
H917 C929 0.950 . S
H918 C926 0.950 . S
H919 C928 0.950 . S
H920 C930 0.950 . S
H921 C932 0.950 . S
H922 C934 0.950 . S
H923 C935 0.950 . S
C924 H916 0.950 . S
C924 C925 1.386 . S
C924 C926 1.391 . S
C925 C924 1.386 . S
C925 C929 1.393 . S
C926 H918 0.950 . S
C926 C924 1.391 . S
C926 C927 1.400 . S
C927 C926 1.400 . S
C927 C928 1.398 . S
C927 C933 1.491 . S
C928 H919 0.950 . S
C928 C927 1.398 . S
C928 C929 1.391 . S
C929 H917 0.950 . S
C929 C925 1.393 . S
C929 C928 1.391 . S
C930 H920 0.950 . S
C930 C931 1.386 . S
C930 C932 1.391 . S
C931 C930 1.386 . S
C931 C935 1.393 . S
C932 H921 0.950 . S
C932 C930 1.391 . S
C932 C933 1.400 . S
C933 C927 1.491 . S
C933 C932 1.400 . S
C933 C934 1.398 . S
C934 H922 0.950 . S
C934 C933 1.398 . S
C934 C935 1.391 . S
C935 H923 0.950 . S
C935 C931 1.393 . S
C935 C934 1.391 . S
H936 C944 0.950 . S
H937 C949 0.950 . S
H938 C946 0.950 . S
H939 C948 0.950 . S
H940 C950 0.950 . S
H941 C952 0.950 . S
H942 C954 0.950 . S
H943 C955 0.950 . S
C944 H936 0.950 . S
C944 C945 1.386 . S
C944 C946 1.391 . S
C945 C944 1.386 . S
C945 C949 1.393 . S
C946 H938 0.950 . S
C946 C944 1.391 . S
C946 C947 1.400 . S
C947 C946 1.400 . S
C947 C948 1.398 . S
C947 C953 1.491 . S
C948 H939 0.950 . S
C948 C947 1.398 . S
C948 C949 1.391 . S
C949 H937 0.950 . S
C949 C945 1.393 . S
C949 C948 1.391 . S
C950 H940 0.950 . S
C950 C951 1.386 . S
C950 C952 1.391 . S
C951 C950 1.386 . S
C951 C955 1.393 . S
C952 H941 0.950 . S
C952 C950 1.391 . S
C952 C953 1.400 . S
C953 C947 1.491 . S
C953 C952 1.400 . S
C953 C954 1.398 . S
C954 H942 0.950 . S
C954 C953 1.398 . S
C954 C955 1.391 . S
C955 H943 0.950 . S
C955 C951 1.393 . S
C955 C954 1.391 . S
H956 C964 0.950 . S
H957 C969 0.950 . S
H958 C966 0.950 . S
H959 C968 0.950 . S
H960 C970 0.950 . S
H961 C972 0.950 . S
H962 C974 0.950 . S
H963 C975 0.950 . S
C964 H956 0.950 . S
C964 C965 1.386 . S
C964 C966 1.391 . S
C965 C964 1.386 . S
C965 C969 1.393 . S
C966 H958 0.950 . S
C966 C964 1.391 . S
C966 C967 1.400 . S
C967 C966 1.400 . S
C967 C968 1.398 . S
C967 C973 1.491 . S
C968 H959 0.950 . S
C968 C967 1.398 . S
C968 C969 1.391 . S
C969 H957 0.950 . S
C969 C965 1.393 . S
C969 C968 1.391 . S
C970 H960 0.950 . S
C970 C971 1.386 . S
C970 C972 1.391 . S
C971 C970 1.386 . S
C971 C975 1.393 . S
C972 H961 0.950 . S
C972 C970 1.391 . S
C972 C973 1.400 . S
C973 C967 1.491 . S
C973 C972 1.400 . S
C973 C974 1.398 . S
C974 H962 0.950 . S
C974 C973 1.398 . S
C974 C975 1.391 . S
C975 H963 0.950 . S
C975 C971 1.393 . S
C975 C974 1.391 . S
H976 C984 0.950 . S
H977 C989 0.950 . S
H978 C986 0.950 . S
H979 C988 0.950 . S
H980 C990 0.950 . S
H981 C992 0.950 . S
H982 C994 0.950 . S
H983 C995 0.950 . S
C984 H976 0.950 . S
C984 C985 1.386 . S
C984 C986 1.391 . S
C985 C984 1.386 . S
C985 C989 1.393 . S
C986 H978 0.950 . S
C986 C984 1.391 . S
C986 C987 1.400 . S
C987 C986 1.400 . S
C987 C988 1.398 . S
C987 C993 1.491 . S
C988 H979 0.950 . S
C988 C987 1.398 . S
C988 C989 1.391 . S
C989 H977 0.950 . S
C989 C985 1.393 . S
C989 C988 1.391 . S
C990 H980 0.950 . S
C990 C991 1.386 . S
C990 C992 1.391 . S
C991 C990 1.386 . S
C991 C995 1.393 . S
C992 H981 0.950 . S
C992 C990 1.391 . S
C992 C993 1.400 . S
C993 C987 1.491 . S
C993 C992 1.400 . S
C993 C994 1.398 . S
C994 H982 0.950 . S
C994 C993 1.398 . S
C994 C995 1.391 . S
C995 H983 0.950 . S
C995 C991 1.393 . S
C995 C994 1.391 . S
H996 C1004 0.950 . S
H997 C1009 0.950 . S
H998 C1006 0.950 . S
H999 C1008 0.950 . S
H1000 C1010 0.950 . S
H1001 C1012 0.950 . S
H1002 C1014 0.950 . S
H1003 C1015 0.950 . S
C1004 H996 0.950 . S
C1004 C1005 1.386 . S
C1004 C1006 1.391 . S
C1005 C1004 1.386 . S
C1005 C1009 1.393 . S
C1006 H998 0.950 . S
C1006 C1004 1.391 . S
C1006 C1007 1.400 . S
C1007 C1006 1.400 . S
C1007 C1008 1.398 . S
C1007 C1013 1.491 . S
C1008 H999 0.950 . S
C1008 C1007 1.398 . S
C1008 C1009 1.391 . S
C1009 H997 0.950 . S
C1009 C1005 1.393 . S
C1009 C1008 1.391 . S
C1010 H1000 0.950 . S
C1010 C1011 1.386 . S
C1010 C1012 1.391 . S
C1011 C1010 1.386 . S
C1011 C1015 1.393 . S
C1012 H1001 0.950 . S
C1012 C1010 1.391 . S
C1012 C1013 1.400 . S
C1013 C1007 1.491 . S
C1013 C1012 1.400 . S
C1013 C1014 1.398 . S
C1014 H1002 0.950 . S
C1014 C1013 1.398 . S
C1014 C1015 1.391 . S
C1015 H1003 0.950 . S
C1015 C1011 1.393 . S
C1015 C1014 1.391 . S
H1016 C1024 0.950 . S
H1017 C1029 0.950 . S
H1018 C1026 0.950 . S
H1019 C1028 0.950 . S
H1020 C1030 0.950 . S
H1021 C1032 0.950 . S
H1022 C1034 0.950 . S
H1023 C1035 0.950 . S
C1024 H1016 0.950 . S
C1024 C1025 1.386 . S
C1024 C1026 1.391 . S
C1025 C1024 1.386 . S
C1025 C1029 1.393 . S
C1026 H1018 0.950 . S
C1026 C1024 1.391 . S
C1026 C1027 1.400 . S
C1027 C1026 1.400 . S
C1027 C1028 1.398 . S
C1027 C1033 1.491 . S
C1028 H1019 0.950 . S
C1028 C1027 1.398 . S
C1028 C1029 1.391 . S
C1029 H1017 0.950 . S
C1029 C1025 1.393 . S
C1029 C1028 1.391 . S
C1030 H1020 0.950 . S
C1030 C1031 1.386 . S
C1030 C1032 1.391 . S
C1031 C1030 1.386 . S
C1031 C1035 1.393 . S
C1032 H1021 0.950 . S
C1032 C1030 1.391 . S
C1032 C1033 1.400 . S
C1033 C1027 1.491 . S
C1033 C1032 1.400 . S
C1033 C1034 1.398 . S
C1034 H1022 0.950 . S
C1034 C1033 1.398 . S
C1034 C1035 1.391 . S
C1035 H1023 0.950 . S
C1035 C1031 1.393 . S
C1035 C1034 1.391 . S
H1036 C1044 0.950 . S
H1037 C1049 0.950 . S
H1038 C1046 0.950 . S
H1039 C1048 0.950 . S
H1040 C1050 0.950 . S
H1041 C1052 0.950 . S
H1042 C1054 0.950 . S
H1043 C1055 0.950 . S
C1044 H1036 0.950 . S
C1044 C1045 1.386 . S
C1044 C1046 1.391 . S
C1045 C1044 1.386 . S
C1045 C1049 1.393 . S
C1046 H1038 0.950 . S
C1046 C1044 1.391 . S
C1046 C1047 1.400 . S
C1047 C1046 1.400 . S
C1047 C1048 1.398 . S
C1047 C1053 1.491 . S
C1048 H1039 0.950 . S
C1048 C1047 1.398 . S
C1048 C1049 1.391 . S
C1049 H1037 0.950 . S
C1049 C1045 1.393 . S
C1049 C1048 1.391 . S
C1050 H1040 0.950 . S
C1050 C1051 1.386 . S
C1050 C1052 1.391 . S
C1051 C1050 1.386 . S
C1051 C1055 1.393 . S
C1052 H1041 0.950 . S
C1052 C1050 1.391 . S
C1052 C1053 1.400 . S
C1053 C1047 1.491 . S
C1053 C1052 1.400 . S
C1053 C1054 1.398 . S
C1054 H1042 0.950 . S
C1054 C1053 1.398 . S
C1054 C1055 1.391 . S
C1055 H1043 0.950 . S
C1055 C1051 1.393 . S
C1055 C1054 1.391 . S
H1056 C1064 0.950 . S
H1057 C1069 0.950 . S
H1058 C1066 0.950 . S
H1059 C1068 0.950 . S
H1060 C1070 0.950 . S
H1061 C1072 0.950 . S
H1062 C1074 0.950 . S
H1063 C1075 0.950 . S
C1064 H1056 0.950 . S
C1064 C1065 1.386 . S
C1064 C1066 1.391 . S
C1065 C1064 1.386 . S
C1065 C1069 1.393 . S
C1066 H1058 0.950 . S
C1066 C1064 1.391 . S
C1066 C1067 1.400 . S
C1067 C1066 1.400 . S
C1067 C1068 1.398 . S
C1067 C1073 1.491 . S
C1068 H1059 0.950 . S
C1068 C1067 1.398 . S
C1068 C1069 1.391 . S
C1069 H1057 0.950 . S
C1069 C1065 1.393 . S
C1069 C1068 1.391 . S
C1070 H1060 0.950 . S
C1070 C1071 1.386 . S
C1070 C1072 1.391 . S
C1071 C1070 1.386 . S
C1071 C1075 1.393 . S
C1072 H1061 0.950 . S
C1072 C1070 1.391 . S
C1072 C1073 1.400 . S
C1073 C1067 1.491 . S
C1073 C1072 1.400 . S
C1073 C1074 1.398 . S
C1074 H1062 0.950 . S
C1074 C1073 1.398 . S
C1074 C1075 1.391 . S
C1075 H1063 0.950 . S
C1075 C1071 1.393 . S
C1075 C1074 1.391 . S
H1076 C1084 0.950 . S
H1077 C1089 0.950 . S
H1078 C1086 0.950 . S
H1079 C1088 0.950 . S
H1080 C1090 0.950 . S
H1081 C1092 0.950 . S
H1082 C1094 0.950 . S
H1083 C1095 0.950 . S
C1084 H1076 0.950 . S
C1084 C1085 1.386 . S
C1084 C1086 1.391 . S
C1085 C1084 1.386 . S
C1085 C1089 1.393 . S
C1086 H1078 0.950 . S
C1086 C1084 1.391 . S
C1086 C1087 1.400 . S
C1087 C1086 1.400 . S
C1087 C1088 1.398 . S
C1087 C1093 1.491 . S
C1088 H1079 0.950 . S
C1088 C1087 1.398 . S
C1088 C1089 1.391 . S
C1089 H1077 0.950 . S
C1089 C1085 1.393 . S
C1089 C1088 1.391 . S
C1090 H1080 0.950 . S
C1090 C1091 1.386 . S
C1090 C1092 1.391 . S
C1091 C1090 1.386 . S
C1091 C1095 1.393 . S
C1092 H1081 0.950 . S
C1092 C1090 1.391 . S
C1092 C1093 1.400 . S
C1093 C1087 1.491 . S
C1093 C1092 1.400 . S
C1093 C1094 1.398 . S
C1094 H1082 0.950 . S
C1094 C1093 1.398 . S
C1094 C1095 1.391 . S
C1095 H1083 0.950 . S
C1095 C1091 1.393 . S
C1095 C1094 1.391 . S
H1096 C1104 0.950 . S
H1097 C1109 0.950 . S
H1098 C1106 0.950 . S
H1099 C1108 0.950 . S
H1100 C1110 0.950 . S
H1101 C1112 0.950 . S
H1102 C1114 0.950 . S
H1103 C1115 0.950 . S
C1104 H1096 0.950 . S
C1104 C1105 1.386 . S
C1104 C1106 1.391 . S
C1105 C1104 1.386 . S
C1105 C1109 1.393 . S
C1106 H1098 0.950 . S
C1106 C1104 1.391 . S
C1106 C1107 1.400 . S
C1107 C1106 1.400 . S
C1107 C1108 1.398 . S
C1107 C1113 1.491 . S
C1108 H1099 0.950 . S
C1108 C1107 1.398 . S
C1108 C1109 1.391 . S
C1109 H1097 0.950 . S
C1109 C1105 1.393 . S
C1109 C1108 1.391 . S
C1110 H1100 0.950 . S
C1110 C1111 1.386 . S
C1110 C1112 1.391 . S
C1111 C1110 1.386 . S
C1111 C1115 1.393 . S
C1112 H1101 0.950 . S
C1112 C1110 1.391 . S
C1112 C1113 1.400 . S
C1113 C1107 1.491 . S
C1113 C1112 1.400 . S
C1113 C1114 1.398 . S
C1114 H1102 0.950 . S
C1114 C1113 1.398 . S
C1114 C1115 1.391 . S
C1115 H1103 0.950 . S
C1115 C1111 1.393 . S
C1115 C1114 1.391 . S
H1116 C1124 0.950 . S
H1117 C1129 0.950 . S
H1118 C1126 0.950 . S
H1119 C1128 0.950 . S
H1120 C1130 0.950 . S
H1121 C1132 0.950 . S
H1122 C1134 0.950 . S
H1123 C1135 0.950 . S
C1124 H1116 0.950 . S
C1124 C1125 1.386 . S
C1124 C1126 1.391 . S
C1125 C1124 1.386 . S
C1125 C1129 1.393 . S
C1126 H1118 0.950 . S
C1126 C1124 1.391 . S
C1126 C1127 1.400 . S
C1127 C1126 1.400 . S
C1127 C1128 1.398 . S
C1127 C1133 1.491 . S
C1128 H1119 0.950 . S
C1128 C1127 1.398 . S
C1128 C1129 1.391 . S
C1129 H1117 0.950 . S
C1129 C1125 1.393 . S
C1129 C1128 1.391 . S
C1130 H1120 0.950 . S
C1130 C1131 1.386 . S
C1130 C1132 1.391 . S
C1131 C1130 1.386 . S
C1131 C1135 1.393 . S
C1132 H1121 0.950 . S
C1132 C1130 1.391 . S
C1132 C1133 1.400 . S
C1133 C1127 1.491 . S
C1133 C1132 1.400 . S
C1133 C1134 1.398 . S
C1134 H1122 0.950 . S
C1134 C1133 1.398 . S
C1134 C1135 1.391 . S
C1135 H1123 0.950 . S
C1135 C1131 1.393 . S
C1135 C1134 1.391 . S
H1136 C1144 0.950 . S
H1137 C1149 0.950 . S
H1138 C1146 0.950 . S
H1139 C1148 0.950 . S
H1140 C1150 0.950 . S
H1141 C1152 0.950 . S
H1142 C1154 0.950 . S
H1143 C1155 0.950 . S
C1144 H1136 0.950 . S
C1144 C1145 1.386 . S
C1144 C1146 1.391 . S
C1145 C1144 1.386 . S
C1145 C1149 1.393 . S
C1146 H1138 0.950 . S
C1146 C1144 1.391 . S
C1146 C1147 1.400 . S
C1147 C1146 1.400 . S
C1147 C1148 1.398 . S
C1147 C1153 1.491 . S
C1148 H1139 0.950 . S
C1148 C1147 1.398 . S
C1148 C1149 1.391 . S
C1149 H1137 0.950 . S
C1149 C1145 1.393 . S
C1149 C1148 1.391 . S
C1150 H1140 0.950 . S
C1150 C1151 1.386 . S
C1150 C1152 1.391 . S
C1151 C1150 1.386 . S
C1151 C1155 1.393 . S
C1152 H1141 0.950 . S
C1152 C1150 1.391 . S
C1152 C1153 1.400 . S
C1153 C1147 1.491 . S
C1153 C1152 1.400 . S
C1153 C1154 1.398 . S
C1154 H1142 0.950 . S
C1154 C1153 1.398 . S
C1154 C1155 1.391 . S
C1155 H1143 0.950 . S
C1155 C1151 1.393 . S
C1155 C1154 1.391 . S
H1156 C1164 0.950 . S
H1157 C1169 0.950 . S
H1158 C1166 0.950 . S
H1159 C1168 0.950 . S
H1160 C1170 0.950 . S
H1161 C1172 0.950 . S
H1162 C1174 0.950 . S
H1163 C1175 0.950 . S
C1164 H1156 0.950 . S
C1164 C1165 1.386 . S
C1164 C1166 1.391 . S
C1165 C1164 1.386 . S
C1165 C1169 1.393 . S
C1166 H1158 0.950 . S
C1166 C1164 1.391 . S
C1166 C1167 1.400 . S
C1167 C1166 1.400 . S
C1167 C1168 1.398 . S
C1167 C1173 1.491 . S
C1168 H1159 0.950 . S
C1168 C1167 1.398 . S
C1168 C1169 1.391 . S
C1169 H1157 0.950 . S
C1169 C1165 1.393 . S
C1169 C1168 1.391 . S
C1170 H1160 0.950 . S
C1170 C1171 1.386 . S
C1170 C1172 1.391 . S
C1171 C1170 1.386 . S
C1171 C1175 1.393 . S
C1172 H1161 0.950 . S
C1172 C1170 1.391 . S
C1172 C1173 1.400 . S
C1173 C1167 1.491 . S
C1173 C1172 1.400 . S
C1173 C1174 1.398 . S
C1174 H1162 0.950 . S
C1174 C1173 1.398 . S
C1174 C1175 1.391 . S
C1175 H1163 0.950 . S
C1175 C1171 1.393 . S
C1175 C1174 1.391 . S
H1176 C1184 0.950 . S
H1177 C1189 0.950 . S
H1178 C1186 0.950 . S
H1179 C1188 0.950 . S
H1180 C1190 0.950 . S
H1181 C1192 0.950 . S
H1182 C1194 0.950 . S
H1183 C1195 0.950 . S
C1184 H1176 0.950 . S
C1184 C1185 1.386 . S
C1184 C1186 1.391 . S
C1185 C1184 1.386 . S
C1185 C1189 1.393 . S
C1186 H1178 0.950 . S
C1186 C1184 1.391 . S
C1186 C1187 1.400 . S
C1187 C1186 1.400 . S
C1187 C1188 1.398 . S
C1187 C1193 1.491 . S
C1188 H1179 0.950 . S
C1188 C1187 1.398 . S
C1188 C1189 1.391 . S
C1189 H1177 0.950 . S
C1189 C1185 1.393 . S
C1189 C1188 1.391 . S
C1190 H1180 0.950 . S
C1190 C1191 1.386 . S
C1190 C1192 1.391 . S
C1191 C1190 1.386 . S
C1191 C1195 1.393 . S
C1192 H1181 0.950 . S
C1192 C1190 1.391 . S
C1192 C1193 1.400 . S
C1193 C1187 1.491 . S
C1193 C1192 1.400 . S
C1193 C1194 1.398 . S
C1194 H1182 0.950 . S
C1194 C1193 1.398 . S
C1194 C1195 1.391 . S
C1195 H1183 0.950 . S
C1195 C1191 1.393 . S
C1195 C1194 1.391 . S
H1196 C1204 0.950 . S
H1197 C1209 0.950 . S
H1198 C1206 0.950 . S
H1199 C1208 0.950 . S
H1200 C1210 0.950 . S
H1201 C1212 0.950 . S
H1202 C1214 0.950 . S
H1203 C1215 0.950 . S
C1204 H1196 0.950 . S
C1204 C1205 1.386 . S
C1204 C1206 1.391 . S
C1205 C1204 1.386 . S
C1205 C1209 1.393 . S
C1206 H1198 0.950 . S
C1206 C1204 1.391 . S
C1206 C1207 1.400 . S
C1207 C1206 1.400 . S
C1207 C1208 1.398 . S
C1207 C1213 1.491 . S
C1208 H1199 0.950 . S
C1208 C1207 1.398 . S
C1208 C1209 1.391 . S
C1209 H1197 0.950 . S
C1209 C1205 1.393 . S
C1209 C1208 1.391 . S
C1210 H1200 0.950 . S
C1210 C1211 1.386 . S
C1210 C1212 1.391 . S
C1211 C1210 1.386 . S
C1211 C1215 1.393 . S
C1212 H1201 0.950 . S
C1212 C1210 1.391 . S
C1212 C1213 1.400 . S
C1213 C1207 1.491 . S
C1213 C1212 1.400 . S
C1213 C1214 1.398 . S
C1214 H1202 0.950 . S
C1214 C1213 1.398 . S
C1214 C1215 1.391 . S
C1215 H1203 0.950 . S
C1215 C1211 1.393 . S
C1215 C1214 1.391 . S
C585 C148 1.339 . S
C591 C4 1.334 . S
C605 C184 1.342 . S
C611 C40 1.332 . S
C625 C220 1.336 1_554 S
C631 C76 1.342 1_556 S
C645 C256 1.340 1_554 S
C651 C112 1.337 1_556 S
C665 C436 1.332 . S
C671 C292 1.341 . S
C685 C472 1.340 . S
C691 C328 1.338 . S
C705 C364 1.332 . S
C711 C508 1.342 . S
C725 C544 1.336 . S
C731 C400 1.336 . S
C745 C3 1.450 . S
C751 C183 1.449 . S
C765 C219 1.452 . S
C771 C39 1.449 . S
C785 C75 1.455 . S
C791 C255 1.456 . S
C805 C147 1.453 . S
C811 C111 1.455 . S
C825 C471 1.449 . S
C831 C291 1.451 . S
C845 C507 1.455 . S
C851 C327 1.455 . S
C865 C363 1.451 . S
C871 C543 1.449 . S
C885 C399 1.452 . S
C891 C435 1.449 . S
C905 C542 1.447 . S
C911 C2 1.444 . S
C925 C434 1.439 . S
C931 C38 1.447 . S
C945 C470 1.436 . S
C951 C74 1.430 . S
C965 C506 1.432 . S
C971 C110 1.441 . S
C985 C326 1.430 . S
C991 C146 1.434 . S
C1005 C362 1.430 . S
C1011 C182 1.434 . S
C1025 C218 1.447 . S
C1031 C398 1.444 . S
C1045 C254 1.431 . S
C1051 C290 1.432 . S
C1065 C482 1.307 . S
C1071 C86 1.324 . S
C1085 C518 1.321 . S
C1091 C122 1.310 . S
C1105 C554 1.308 . S
C1111 C14 1.324 . S
C1125 C50 1.313 . S
C1131 C446 1.319 . S
C1145 C410 1.323 . S
C1151 C230 1.309 . S
C1165 C266 1.307 . S
C1171 C302 1.325 . S
C1185 C338 1.325 . S
C1191 C158 1.307 . S
C1205 C374 1.315 . S
C1211 C194 1.317 . S
