# Generated by pormake.
# Topology wfu, (7)-cn, num edge types: 1
# Building blocks:
#     Node 0, Type 0, BuildingBlock: NUHQUE_clean_sbu_2, # of connection points: 7
#     Node 1, Type 0, BuildingBlock: NUHQUE_clean_sbu_2, # of connection points: 7
#     Node 2, Type 0, BuildingBlock: NUHQUE_clean_sbu_2, # of connection points: 7
#     Node 3, Type 0, BuildingBlock: NUHQUE_clean_sbu_2, # of connection points: 7
#     Node 4, Type 0, BuildingBlock: NUHQUE_clean_sbu_2, # of connection points: 7
#     Node 5, Type 0, BuildingBlock: NUHQUE_clean_sbu_2, # of connection points: 7
#     Node 6, Type 0, BuildingBlock: NUHQUE_clean_sbu_2, # of connection points: 7
#     Node 7, Type 0, BuildingBlock: NUHQUE_clean_sbu_2, # of connection points: 7
#     Edge 8, Type (0, 0), BuildingBlock: KIFKEQ_clean_linker_1, # of connection points: 2
#     Edge 9, Type (0, 0), BuildingBlock: KIFKEQ_clean_linker_1, # of connection points: 2
#     Edge 10, Type (0, 0), BuildingBlock: KIFKEQ_clean_linker_1, # of connection points: 2
#     Edge 11, Type (0, 0), BuildingBlock: KIFKEQ_clean_linker_1, # of connection points: 2
#     Edge 12, Type (0, 0), BuildingBlock: KIFKEQ_clean_linker_1, # of connection points: 2
#     Edge 13, Type (0, 0), BuildingBlock: KIFKEQ_clean_linker_1, # of connection points: 2
#     Edge 14, Type (0, 0), BuildingBlock: KIFKEQ_clean_linker_1, # of connection points: 2
#     Edge 15, Type (0, 0), BuildingBlock: KIFKEQ_clean_linker_1, # of connection points: 2
#     Edge 16, Type (0, 0), BuildingBlock: KIFKEQ_clean_linker_1, # of connection points: 2
#     Edge 17, Type (0, 0), BuildingBlock: KIFKEQ_clean_linker_1, # of connection points: 2
#     Edge 18, Type (0, 0), BuildingBlock: KIFKEQ_clean_linker_1, # of connection points: 2
#     Edge 19, Type (0, 0), BuildingBlock: KIFKEQ_clean_linker_1, # of connection points: 2
#     Edge 20, Type (0, 0), BuildingBlock: KIFKEQ_clean_linker_1, # of connection points: 2
#     Edge 21, Type (0, 0), BuildingBlock: KIFKEQ_clean_linker_1, # of connection points: 2
#     Edge 22, Type (0, 0), BuildingBlock: KIFKEQ_clean_linker_1, # of connection points: 2
#     Edge 23, Type (0, 0), BuildingBlock: KIFKEQ_clean_linker_1, # of connection points: 2
#     Edge 24, Type (0, 0), BuildingBlock: KIFKEQ_clean_linker_1, # of connection points: 2
#     Edge 25, Type (0, 0), BuildingBlock: KIFKEQ_clean_linker_1, # of connection points: 2
#     Edge 26, Type (0, 0), BuildingBlock: KIFKEQ_clean_linker_1, # of connection points: 2
#     Edge 27, Type (0, 0), BuildingBlock: KIFKEQ_clean_linker_1, # of connection points: 2
#     Edge 28, Type (0, 0), BuildingBlock: KIFKEQ_clean_linker_1, # of connection points: 2
#     Edge 29, Type (0, 0), BuildingBlock: KIFKEQ_clean_linker_1, # of connection points: 2
#     Edge 30, Type (0, 0), BuildingBlock: KIFKEQ_clean_linker_1, # of connection points: 2
#     Edge 31, Type (0, 0), BuildingBlock: KIFKEQ_clean_linker_1, # of connection points: 2
#     Edge 32, Type (0, 0), BuildingBlock: KIFKEQ_clean_linker_1, # of connection points: 2
#     Edge 33, Type (0, 0), BuildingBlock: KIFKEQ_clean_linker_1, # of connection points: 2
#     Edge 34, Type (0, 0), BuildingBlock: KIFKEQ_clean_linker_1, # of connection points: 2
#     Edge 35, Type (0, 0), BuildingBlock: KIFKEQ_clean_linker_1, # of connection points: 2
# Relax obj value: 0.202
# Max RMSD: 0.201
# Mean RMSD: 0.201
data_MOF--net-wfu--node1-NUHQUE_clean_sbu_2--edge1-KIFKEQ_clean_linker_1
_symmetry_space_group_name_H-M    P1
_symmetry_Int_Tables_number       1
_symmetry_cell_setting            triclinic
loop_
_symmetry_equiv_pos_as_xyz
'x, y, z'
_cell_length_a     37.008592
_cell_length_b     37.116359
_cell_length_c     31.339394
_cell_angle_alpha  89.798848
_cell_angle_beta   89.861257
_cell_angle_gamma 89.675187
loop_
_atom_site_label
_atom_site_type_symbol
_atom_site_fract_x
_atom_site_fract_y
_atom_site_fract_z
_atom_type_partial_charge
O0 O 0.31775 0.4868 0.21122 0.0
Tb1 Tb 0.32955 0.44061 0.17099 0.0
Eu2 Eu 0.36837 0.37208 0.24632 0.0
C3 C 0.33679 0.51624 0.20534 0.0
O4 O 0.36382 0.51527 0.17811 0.0
C5 C 0.40497 0.44465 0.21446 0.0
O6 O 0.41486 0.33916 0.22077 0.0
C7 C 0.34256 0.35098 0.31939 0.0
C8 C 0.44826 0.35108 0.22116 0.0
O9 O 0.45604 0.3795 0.24414 0.0
C10 C 0.30687 0.36244 0.17643 0.0
C11 C 0.32319 0.32031 0.33863 0.0
C12 C 0.31195 0.32198 0.38169 0.0
C13 C 0.29555 0.29201 0.40132 0.0
C14 C 0.29011 0.2608 0.37713 0.0
C15 C 0.30067 0.25903 0.33426 0.0
C16 C 0.31705 0.28886 0.31487 0.0
O17 O 0.38823 0.44124 0.1777 0.0
O18 O 0.39319 0.42774 0.24875 0.0
O19 O 0.29752 0.47152 0.12527 0.0
O20 O 0.33822 0.43615 0.10201 0.0
C21 C 0.31319 0.45914 0.09116 0.0
O22 O 0.33696 0.34859 0.19141 0.0
O23 O 0.29689 0.39469 0.18871 0.0
O24 O 0.37605 0.34463 0.307 0.0
O25 O 0.32416 0.37121 0.29233 0.0
H26 H 0.31679 0.34615 0.40009 0.0
H27 H 0.2771 0.23765 0.39162 0.0
H28 H 0.3256 0.28738 0.28179 0.0
O29 O 0.49062 0.73736 0.81417 0.0
Tb30 Tb 0.44613 0.71481 0.85123 0.0
Eu31 Eu 0.37216 0.67566 0.78312 0.0
C32 C 0.51187 0.71838 0.78898 0.0
O33 O 0.50363 0.68491 0.78025 0.0
C34 C 0.44746 0.6365 0.8078 0.0
O35 O 0.34502 0.62787 0.8133 0.0
C36 C 0.34735 0.69806 0.71023 0.0
C37 C 0.35174 0.62421 0.85425 0.0
O38 O 0.37358 0.64724 0.8725 0.0
C39 C 0.36716 0.73955 0.85071 0.0
C40 C 0.32005 0.72311 0.69248 0.0
C41 C 0.32493 0.7371 0.65097 0.0
C42 C 0.29995 0.76183 0.63373 0.0
C43 C 0.26988 0.77194 0.65826 0.0
C44 C 0.26432 0.75811 0.6995 0.0
C45 C 0.28955 0.73354 0.71654 0.0
O46 O 0.45339 0.65678 0.8416 0.0
O47 O 0.42545 0.64606 0.77666 0.0
O48 O 0.47763 0.74242 0.89971 0.0
O49 O 0.43834 0.70465 0.91977 0.0
C50 C 0.46285 0.72711 0.93263 0.0
O51 O 0.3513 0.71062 0.83636 0.0
O52 O 0.39935 0.74811 0.8365 0.0
O53 O 0.33532 0.66898 0.7298 0.0
O54 O 0.37508 0.713 0.72955 0.0
H55 H 0.34832 0.72904 0.63233 0.0
H56 H 0.24984 0.7899 0.64441 0.0
H57 H 0.28565 0.72284 0.74844 0.0
O58 O 0.72724 0.54731 0.21557 0.0
Tb59 Tb 0.71442 0.59292 0.17451 0.0
Eu60 Eu 0.67383 0.66216 0.24743 0.0
C61 C 0.70812 0.51769 0.21218 0.0
O62 O 0.68005 0.51778 0.18661 0.0
C63 C 0.63801 0.58896 0.21694 0.0
O64 O 0.62561 0.68776 0.21518 0.0
C65 C 0.6919 0.68647 0.32197 0.0
C66 C 0.62488 0.68417 0.17343 0.0
O67 O 0.65098 0.66595 0.1548 0.0
C68 C 0.73937 0.67069 0.18138 0.0
C69 C 0.7137 0.71585 0.34018 0.0
C70 C 0.72866 0.7121 0.38141 0.0
C71 C 0.75054 0.73945 0.39844 0.0
C72 C 0.75652 0.77066 0.37425 0.0
C73 C 0.74128 0.77494 0.33374 0.0
C74 C 0.72016 0.74744 0.31644 0.0
O75 O 0.65572 0.59132 0.18059 0.0
O76 O 0.64899 0.6065 0.25097 0.0
O77 O 0.74467 0.56056 0.12863 0.0
O78 O 0.70759 0.59979 0.10553 0.0
C79 C 0.73073 0.57496 0.09455 0.0
O80 O 0.71033 0.68617 0.19699 0.0
O81 O 0.74771 0.63786 0.19348 0.0
O82 O 0.66183 0.69592 0.30229 0.0
O83 O 0.71012 0.66097 0.30199 0.0
H84 H 0.72376 0.68785 0.39985 0.0
H85 H 0.77267 0.79225 0.38741 0.0
H86 H 0.70865 0.75072 0.28487 0.0
O87 O 0.54295 0.29829 0.83349 0.0
Tb88 Tb 0.58925 0.32355 0.86364 0.0
Eu89 Eu 0.65862 0.36245 0.78699 0.0
C90 C 0.52705 0.31018 0.79864 0.0
O91 O 0.54076 0.33757 0.77772 0.0
C92 C 0.58177 0.39827 0.81223 0.0
O93 O 0.68483 0.41007 0.81819 0.0
C94 C 0.68485 0.34295 0.71363 0.0
C95 C 0.67763 0.41319 0.85909 0.0
O96 O 0.65545 0.38998 0.87676 0.0
C97 C 0.6687 0.29989 0.85667 0.0
C98 C 0.71606 0.32371 0.69487 0.0
C99 C 0.71432 0.31183 0.65218 0.0
C100 C 0.74456 0.29552 0.6327 0.0
C101 C 0.77618 0.29081 0.65666 0.0
C102 C 0.77812 0.30198 0.69922 0.0
C103 C 0.74796 0.31824 0.71851 0.0
O104 O 0.57796 0.38009 0.84823 0.0
O105 O 0.60307 0.3876 0.78087 0.0
O106 O 0.56368 0.29779 0.91862 0.0
O107 O 0.60059 0.34027 0.92937 0.0
C108 C 0.57912 0.31722 0.94764 0.0
O109 O 0.68307 0.32858 0.83929 0.0
O110 O 0.63568 0.29041 0.84675 0.0
O111 O 0.6915 0.3744 0.73128 0.0
O112 O 0.66154 0.32334 0.73537 0.0
H113 H 0.68983 0.31609 0.6339 0.0
H114 H 0.79955 0.27785 0.64226 0.0
H115 H 0.74951 0.32719 0.75135 0.0
O116 O 0.81216 0.04704 0.32782 0.0
Tb117 Tb 0.82685 0.09221 0.36789 0.0
Eu118 Eu 0.85919 0.15726 0.2868 0.0
C119 C 0.8315 1.01727 0.32986 0.0
O120 O 0.86038 1.01668 0.35416 0.0
C121 C 0.89932 0.08626 0.31738 0.0
O122 O 0.90692 0.18471 0.31702 0.0
C123 C 0.83928 0.18124 0.21249 0.0
C124 C 0.90843 0.18241 0.35889 0.0
O125 O 0.88345 0.16401 0.37908 0.0
C126 C 0.79734 0.16978 0.35852 0.0
C127 C 0.81941 0.2122 0.19409 0.0
C128 C 0.80689 0.21069 0.15159 0.0
C129 C 0.78982 0.24083 0.13285 0.0
C130 C 0.78491 0.27201 0.15733 0.0
C131 C 0.79673 0.27368 0.19965 0.0
C132 C 0.81384 0.24371 0.21819 0.0
O133 O 0.88484 0.09103 0.35532 0.0
O134 O 0.88496 0.10173 0.28352 0.0
O135 O 0.80172 0.05959 0.41791 0.0
O136 O 0.84005 0.09921 0.43542 0.0
C137 C 0.81853 0.07433 0.4497 0.0
O138 O 0.82453 0.18378 0.33735 0.0
O139 O 0.78907 0.13569 0.35417 0.0
O140 O 0.87095 0.18832 0.2296 0.0
O141 O 0.82004 0.15815 0.23498 0.0
H142 H 0.81128 0.18654 0.13288 0.0
H143 H 0.77154 0.29533 0.14341 0.0
H144 H 0.82332 0.24513 0.25085 0.0
O145 O 0.05097 0.2264 0.71576 0.0
Tb146 Tb 0.09522 0.21181 0.67332 0.0
Eu147 Eu 0.16236 0.17393 0.74785 0.0
C148 C 1.02076 0.20793 0.71396 0.0
O149 O 1.01966 0.17933 0.68945 0.0
C150 C 0.08971 0.13672 0.71821 0.0
O151 O 0.1889 0.1257 0.7169 0.0
C152 C 0.18652 0.19414 0.82169 0.0
C153 C 0.18556 0.12442 0.67512 0.0
O154 O 0.16677 0.14978 0.6559 0.0
C155 C 0.17407 0.23764 0.67854 0.0
C156 C 0.21566 0.21699 0.83876 0.0
C157 C 0.21237 0.23192 0.87997 0.0
C158 C 0.23903 0.2553 0.89568 0.0
C159 C 0.26899 0.2632 0.86994 0.0
C160 C 0.27307 0.24794 0.82933 0.0
C161 C 0.2463 0.22481 0.81377 0.0
O162 O 0.09321 0.1534 0.68134 0.0
O163 O 0.10706 0.14818 0.75214 0.0
O164 O 0.06099 0.24032 0.62763 0.0
O165 O 0.0994 0.20245 0.60446 0.0
C166 C 0.07423 0.22528 0.59361 0.0
O167 O 0.18771 0.20878 0.6968 0.0
O168 O 0.14045 0.24729 0.68565 0.0
O169 O 0.19642 0.16378 0.80317 0.0
O170 O 0.16057 0.21133 0.80111 0.0
H171 H 0.18896 0.22574 0.89947 0.0
H172 H 0.29018 0.28026 0.8824 0.0
H173 H 0.24919 0.21317 0.78225 0.0
O174 O 0.22629 0.98853 0.31378 0.0
Tb175 Tb 0.21307 0.94353 0.35535 0.0
Eu176 Eu 0.17598 0.8741 0.28212 0.0
C177 C 0.20687 1.01825 0.31586 0.0
O178 O 0.17796 1.01865 0.34025 0.0
C179 C 0.13702 0.94671 0.31148 0.0
O180 O 0.12858 0.84712 0.314 0.0
C181 C 0.1967 0.8498 0.20838 0.0
C182 C 0.12734 0.85119 0.35567 0.0
O183 O 0.15225 0.87078 0.37406 0.0
C184 C 0.24084 0.86613 0.34912 0.0
C185 C 0.2204 0.82122 0.19092 0.0
C186 C 0.23655 0.82591 0.15043 0.0
C187 C 0.26024 0.79959 0.13384 0.0
C188 C 0.26711 0.76844 0.15802 0.0
C189 C 0.25077 0.76317 0.19786 0.0
C190 C 0.22753 0.78961 0.21448 0.0
O191 O 0.15443 0.94483 0.34802 0.0
O192 O 0.14859 0.92887 0.27778 0.0
O193 O 0.24178 0.97658 0.4015 0.0
O194 O 0.20499 0.93731 0.42434 0.0
C195 C 0.22751 0.96235 0.43547 0.0
O196 O 0.21219 0.85066 0.33316 0.0
O197 O 0.2486 0.89926 0.33809 0.0
O198 O 0.1667 0.8394 0.22748 0.0
O199 O 0.21319 0.87623 0.22833 0.0
H200 H 0.23099 0.85015 0.13214 0.0
H201 H 0.2845 0.74745 0.1452 0.0
H202 H 0.21507 0.78556 0.24546 0.0
O203 O 0.98591 0.81338 0.71884 0.0
Tb204 Tb 0.94226 0.82857 0.6758 0.0
Eu205 Eu 0.87195 0.86466 0.74825 0.0
C206 C 1.01408 0.8345 0.72341 0.0
O207 O 1.01386 0.86634 0.70509 0.0
C208 C 0.94351 0.90494 0.71853 0.0
O209 O 0.83603 0.90947 0.72445 0.0
C210 C 0.85207 0.83468 0.81955 0.0
C211 C 0.84635 0.9433 0.72471 0.0
O212 O 0.8745 0.95246 0.74759 0.0
C213 C 0.86379 0.80453 0.67618 0.0
C214 C 0.82344 0.8112 0.83687 0.0
C215 C 0.82711 0.7964 0.87817 0.0
C216 C 0.80058 0.77313 0.89477 0.0
C217 C 0.77034 0.76524 0.86968 0.0
C218 C 0.76594 0.78024 0.82882 0.0
C219 C 0.79263 0.80331 0.8125 0.0
O220 O 0.94215 0.8872 0.68225 0.0
O221 O 0.92561 0.89364 0.75235 0.0
O222 O 0.97731 0.79984 0.63114 0.0
O223 O 0.93878 0.83692 0.60662 0.0
C224 C 0.96426 0.81421 0.59659 0.0
O225 O 0.85015 0.83453 0.69143 0.0
O226 O 0.89618 0.79415 0.68791 0.0
O227 O 0.84228 0.86754 0.80817 0.0
O228 O 0.87499 0.81953 0.79267 0.0
H229 H 0.85067 0.8027 0.89716 0.0
H230 H 0.7492 0.74834 0.88282 0.0
H231 H 0.78955 0.81493 0.78091 0.0
H232 H 0.31742 0.29407 0.14619 0.0
H233 H 0.25491 0.39086 0.12357 0.0
H234 H 0.29307 0.2677 0.08125 0.0
H235 H 0.23024 0.36428 0.05878 0.0
H236 H 0.24596 0.32574 0.91779 0.0
H237 H 0.2557 0.35033 0.9888 0.0
H238 H 0.23953 0.24472 0.04369 0.0
H239 H 0.23012 0.22005 0.97202 0.0
C240 C 0.29802 0.30952 0.12776 0.0
C241 C 0.28836 0.34471 0.14005 0.0
C242 C 0.28383 0.29427 0.0906 0.0
C243 C 0.25977 0.31388 0.06456 0.0
C244 C 0.24899 0.34854 0.07779 0.0
C245 C 0.26299 0.3637 0.11514 0.0
C246 C 0.24372 0.30794 0.94513 0.0
C247 C 0.23738 0.27096 0.93935 0.0
C248 C 0.24916 0.32204 0.98591 0.0
C249 C 0.24869 0.2995 0.02208 0.0
C250 C 0.24048 0.26277 1.01649 0.0
C251 C 0.23469 0.24869 0.97555 0.0
H252 H 0.39954 0.78598 0.90693 0.0
H253 H 0.29737 0.73602 0.87828 0.0
H254 H 0.37399 0.80979 0.97327 0.0
H255 H 0.27209 0.75934 0.9444 0.0
H256 H 0.22752 0.81717 0.05804 0.0
H257 H 0.25319 0.81154 0.98621 0.0
H258 H 0.3563 0.78204 0.04081 0.0
H259 H 0.33084 0.78838 0.11215 0.0
C260 C 0.37145 0.78068 0.91431 0.0
C261 C 0.35057 0.75892 0.88736 0.0
C262 C 0.35687 0.7941 0.95251 0.0
C263 C 0.32098 0.78636 0.9644 0.0
C264 C 0.29965 0.76623 0.9362 0.0
C265 C 0.31427 0.75261 0.89831 0.0
C266 C 0.2559 0.81047 0.0546 0.0
C267 C 0.27706 0.80292 0.09074 0.0
C268 C 0.27055 0.80687 1.01346 0.0
C269 C 0.30676 0.79595 1.00761 0.0
C270 C 0.32844 0.79074 0.04393 0.0
C271 C 0.31376 0.79411 0.0849 0.0
H272 H 0.81385 0.80839 0.96994 0.0
H273 H 0.79093 0.70321 0.91891 0.0
H274 H 0.80673 0.78456 0.04255 0.0
H275 H 0.78327 0.67953 0.99095 0.0
H276 H 0.788 0.63958 0.1261 0.0
H277 H 0.81105 0.66464 0.05926 0.0
H278 H 0.75447 0.76442 0.08448 0.0
H279 H 0.7318 0.73958 0.15136 0.0
C280 C 0.80811 0.78003 0.97428 0.0
C281 C 0.80276 0.75773 0.93872 0.0
C282 C 0.80364 0.76643 1.01583 0.0
C283 C 0.79412 0.73015 0.02271 0.0
C284 C 0.79089 0.70748 0.98706 0.0
C285 C 0.79505 0.72111 0.94568 0.0
C286 C 0.78107 0.66712 0.11784 0.0
C287 C 0.75786 0.68747 0.14411 0.0
C288 C 0.79409 0.68141 0.07931 0.0
C289 C 0.78447 0.71652 0.06622 0.0
C290 C 0.76278 0.73746 0.09361 0.0
C291 C 0.74957 0.7231 0.13195 0.0
H292 H 0.74618 0.19228 0.09154 0.0
H293 H 0.8048 0.29116 0.07255 0.0
H294 H 0.71902 0.19916 0.02043 0.0
H295 H 0.77742 0.29863 1.00281 0.0
H296 H 0.74141 0.2991 0.86938 0.0
H297 H 0.77409 0.27737 0.93172 0.0
H298 H 0.67426 0.23816 0.98593 0.0
H299 H 0.6417 0.25892 0.92252 0.0
C300 C 0.75376 0.21506 0.07184 0.0
C301 C 0.77751 0.24124 0.08763 0.0
C302 C 0.73792 0.21926 0.03135 0.0
C303 C 0.74587 0.24952 1.00572 0.0
C304 C 0.77092 0.27471 0.02108 0.0
C305 C 0.7865 0.27059 0.06133 0.0
C306 C 0.72651 0.28522 0.89422 0.0
C307 C 0.6889 0.28102 0.89112 0.0
C308 C 0.74523 0.27294 0.93017 0.0
C309 C 0.72682 0.25657 0.96441 0.0
C310 C 0.68945 0.25041 0.96018 0.0
C311 C 0.67071 0.26239 0.92382 0.0
H312 H 0.79953 0.24288 0.36887 0.0
H313 H 0.75527 0.14628 0.4251 0.0
H314 H 0.77947 0.27746 0.43053 0.0
H315 H 0.73612 0.18067 0.4874 0.0
H316 H 0.69398 0.25397 0.59185 0.0
H317 H 0.69911 0.22685 0.52074 0.0
H318 H 0.80088 0.28124 0.50178 0.0
H319 H 0.79509 0.30878 0.57161 0.0
C320 C 0.78505 0.22908 0.39411 0.0
C321 C 0.77928 0.19172 0.39209 0.0
C322 C 0.77373 0.2489 0.42969 0.0
C323 C 0.75666 0.23185 0.46446 0.0
C324 C 0.7489 0.19486 0.46122 0.0
C325 C 0.75999 0.17506 0.42542 0.0
C326 C 0.71693 0.26072 0.57191 0.0
C327 C 0.74426 0.28329 0.58744 0.0
C328 C 0.72011 0.2449 0.53137 0.0
C329 C 0.75053 0.25161 0.50541 0.0
C330 C 0.77684 0.27566 0.52037 0.0
C331 C 0.77371 0.29127 0.5607 0.0
H332 H 0.14943 0.28125 0.61383 0.0
H333 H 0.24705 0.23449 0.66568 0.0
H334 H 0.18282 0.30074 0.5507 0.0
H335 H 0.28068 0.25492 0.60332 0.0
H336 H 0.30972 0.24086 0.46133 0.0
H337 H 0.2832 0.23465 0.53183 0.0
H338 H 0.22858 0.33703 0.51596 0.0
H339 H 0.25467 0.3426 0.44413 0.0
C340 C 0.17825 0.27607 0.61239 0.0
C341 C 0.19547 0.25597 0.64468 0.0
C342 C 0.19748 0.28734 0.57611 0.0
C343 C 0.23445 0.27896 0.57139 0.0
C344 C 0.25209 0.26112 0.60523 0.0
C345 C 0.23284 0.24959 0.64123 0.0
C346 C 0.29239 0.26229 0.47306 0.0
C347 C 0.28406 0.29206 0.44697 0.0
C348 C 0.27737 0.25891 0.51378 0.0
C349 C 0.25354 0.28528 0.52986 0.0
C350 C 0.24647 0.31599 0.50451 0.0
C351 C 0.26171 0.31941 0.46355 0.0
H352 H 0.2329 0.79715 0.3784 0.0
H353 H 0.2913 0.89536 0.4028 0.0
H354 H 0.25599 0.77137 0.44446 0.0
H355 H 0.31505 0.86921 0.46868 0.0
H356 H 0.29455 0.83208 0.60919 0.0
H357 H 0.28821 0.85576 0.53709 0.0
H358 H 0.30679 0.74919 0.4862 0.0
H359 H 0.31233 0.72536 0.55898 0.0
C360 C 0.25131 0.813 0.39738 0.0
C361 C 0.25996 0.84848 0.38536 0.0
C362 C 0.26479 0.79807 0.43525 0.0
C363 C 0.28723 0.81824 0.46222 0.0
C364 C 0.29744 0.85306 0.44902 0.0
C365 C 0.28403 0.86797 0.41102 0.0
C366 C 0.29791 0.81381 0.58256 0.0
C367 C 0.3036 0.7768 0.58977 0.0
C368 C 0.29453 0.82743 0.54112 0.0
C369 C 0.29667 0.80439 0.50566 0.0
C370 C 0.30451 0.76764 0.51278 0.0
C371 C 0.30808 0.75401 0.55442 0.0
H372 H 0.89109 0.75279 0.62248 0.0
H373 H 0.79433 0.8146 0.64853 0.0
H374 H 0.86298 0.72841 0.55843 0.0
H375 H 0.76643 0.7905 0.58434 0.0
H376 H 0.71674 0.7287 0.47538 0.0
H377 H 0.74286 0.7371 0.54662 0.0
H378 H 0.84749 0.75509 0.48925 0.0
H379 H 0.82142 0.7465 0.4187 0.0
C380 C 0.86361 0.76073 0.615 0.0
C381 C 0.84508 0.78588 0.6406 0.0
C382 C 0.84756 0.7469 0.57808 0.0
C383 C 0.81249 0.75762 0.56599 0.0
C384 C 0.79332 0.78134 0.59281 0.0
C385 C 0.80945 0.79538 0.62953 0.0
C386 C 0.74548 0.73342 0.47828 0.0
C387 C 0.76707 0.73694 0.44159 0.0
C388 C 0.7604 0.73863 0.51897 0.0
C389 C 0.79727 0.74703 0.52373 0.0
C390 C 0.81913 0.74834 0.48699 0.0
C391 C 0.80419 0.74352 0.44648 0.0
H392 H 0.58846 0.37025 1.00648 0.0
H393 H 0.54703 0.26273 0.99115 0.0
H394 H 0.56224 0.37307 0.07782 0.0
H395 H 0.52264 0.26433 0.0634 0.0
H396 H 0.43557 0.30322 0.15719 0.0
H397 H 0.4732 0.29104 0.09573 0.0
H398 H 0.5582 0.35607 0.14961 0.0
H399 H 0.51938 0.3698 0.21053 0.0
C400 C 0.57461 0.34682 0.01897 0.0
C401 C 0.56929 0.31648 0.99325 0.0
C402 C 0.5597 0.34827 0.06004 0.0
C403 C 0.53969 0.31911 0.07648 0.0
C404 C 0.53687 0.28773 0.05157 0.0
C405 C 0.55112 0.28663 1.01025 0.0
C406 C 0.46252 0.31444 0.15644 0.0
C407 C 0.47426 0.33782 0.18865 0.0
C408 C 0.48437 0.30724 0.12108 0.0
C409 C 0.51886 0.32278 0.11717 0.0
C410 C 0.53154 0.34424 0.1509 0.0
C411 C 0.50941 0.35184 0.18612 0.0
H412 H 0.35355 0.44654 0.01962 0.0
H413 H 0.26106 0.50616 0.066 0.0
H414 H 0.35293 0.48235 0.95391 0.0
H415 H 0.26003 0.54145 1.00021 0.0
H416 H 0.32601 0.63326 0.9335 0.0
H417 H 0.307 0.58712 0.98361 0.0
H418 H 0.32118 0.50589 0.88645 0.0
H419 H 0.34006 0.55297 0.83552 0.0
C420 C 0.3324 0.46649 1.01513 0.0
C421 C 0.30782 0.47418 0.04809 0.0
C422 C 0.33189 0.48682 0.97742 0.0
C423 C 0.30675 0.51503 0.97227 0.0
C424 C 0.28002 0.52021 1.00362 0.0
C425 C 0.28062 0.50002 0.04125 0.0
C426 C 0.32425 0.60566 0.92252 0.0
C427 C 0.33451 0.59651 0.88086 0.0
C428 C 0.3131 0.57923 0.95111 0.0
C429 C 0.31248 0.54287 0.93893 0.0
C430 C 0.32137 0.53375 0.89659 0.0
C431 C 0.33194 0.56056 0.86749 0.0
H432 H 0.44973 0.68301 1.00106 0.0
H433 H 0.50786 0.77827 0.96261 0.0
H434 H 0.48423 0.6809 0.06768 0.0
H435 H 0.54159 0.77675 0.02929 0.0
H436 H 0.63446 0.71323 0.09581 0.0
H437 H 0.58867 0.73148 0.04489 0.0
H438 H 0.5052 0.70904 0.13776 0.0
H439 H 0.55195 0.69071 0.18955 0.0
C440 C 0.46901 0.70413 1.00753 0.0
C441 C 0.47673 0.73037 0.97648 0.0
C442 C 0.48862 0.70306 0.04573 0.0
C443 C 0.51605 0.72832 0.05335 0.0
C444 C 0.52108 0.75655 0.02395 0.0
C445 C 0.50175 0.75745 0.98581 0.0
C446 C 0.60638 0.71289 0.10574 0.0
C447 C 0.59665 0.70054 0.14647 0.0
C448 C 0.5801 0.72361 0.07665 0.0
C449 C 0.54326 0.72185 0.08732 0.0
C450 C 0.53341 0.71067 0.12872 0.0
C451 C 0.56004 0.70045 0.15836 0.0
H452 H 0.69801 0.40343 0.94045 0.0
H453 H 0.6967 0.48289 0.83954 0.0
H454 H 0.72078 0.44794 0.98988 0.0
H455 H 0.71933 0.52838 0.88991 0.0
H456 H 0.69238 0.59229 0.0229 0.0
H457 H 0.68891 0.55643 0.95763 0.0
H458 H 0.77464 0.48751 1.00416 0.0
H459 H 0.77779 0.52297 0.06941 0.0
C460 C 0.7031 0.43045 0.92876 0.0
C461 C 0.69548 0.43988 0.88635 0.0
C462 C 0.71647 0.45589 0.95697 0.0
C463 C 0.72205 0.49158 0.94367 0.0
C464 C 0.71536 0.50097 0.90085 0.0
C465 C 0.70258 0.47506 0.87212 0.0
C466 C 0.71122 0.57016 0.01849 0.0
C467 C 0.73483 0.55986 0.05142 0.0
C468 C 0.70938 0.54978 0.98106 0.0
C469 C 0.73113 0.51889 0.97622 0.0
C470 C 0.75725 0.51093 1.00738 0.0
C471 C 0.75904 0.53121 0.04469 0.0
H472 H 0.98061 0.19055 0.34026 0.0
H473 H 0.89923 0.21307 0.43548 0.0
H474 H 0.02775 0.21021 0.39028 0.0
H475 H 0.94539 0.23242 0.4848 0.0
H476 H 0.0865 0.18321 0.52372 0.0
H477 H 0.05068 0.18239 0.45825 0.0
H478 H 0.99174 0.27637 0.50117 0.0
H479 H 0.02675 0.27642 0.56698 0.0
C480 C 0.97282 0.20063 0.37136 0.0
C481 C 0.93649 0.20017 0.38428 0.0
C482 C 0.99968 0.21162 0.40001 0.0
C483 C 0.99031 0.2229 0.44149 0.0
C484 C 0.95362 0.22446 0.45299 0.0
C485 C 0.92712 0.21308 0.42483 0.0
C486 C 0.0665 0.20418 0.51856 0.0
C487 C 0.05877 0.22941 0.55062 0.0
C488 C 0.04616 0.20389 0.48095 0.0
C489 C 1.01798 0.22897 0.47489 0.0
C490 C 1.01281 0.25629 0.50531 0.0
C491 C 0.03286 0.25635 0.54295 0.0
H492 H 0.21545 0.13445 0.59806 0.0
H493 H 0.19361 0.05188 0.69174 0.0
H494 H 0.23426 0.08911 0.54721 0.0
H495 H 0.21275 1.00554 0.64013 0.0
H496 H 0.18579 0.949 0.50577 0.0
H497 H 0.18488 0.98374 0.57198 0.0
H498 H 0.27836 0.04301 0.52903 0.0
H499 H 0.27847 1.00912 0.46252 0.0
C500 C 0.21548 0.10645 0.60803 0.0
C501 C 0.20297 0.09657 0.64865 0.0
C502 C 0.22655 0.0804 0.57896 0.0
C503 C 0.22508 0.04363 0.58958 0.0
C504 C 0.21409 0.03369 0.63105 0.0
C505 C 0.20342 0.06009 0.66062 0.0
C506 C 0.20665 0.96883 0.51107 0.0
C507 C 0.23175 0.97697 0.47882 0.0
C508 C 0.20629 0.98858 0.54909 0.0
C509 C 0.23118 1.01657 0.55542 0.0
C510 C 0.25839 0.02211 0.52472 0.0
C511 C 0.25851 1.00268 0.48669 0.0
H512 H 0.05498 0.84163 0.33946 0.0
H513 H 0.13796 0.82354 0.43375 0.0
H514 H 1.0088 0.82341 0.39189 0.0
H515 H 0.09273 0.80562 0.48544 0.0
H516 H 1.01274 0.76331 0.572 0.0
H517 H 0.04722 0.76178 0.50562 0.0
H518 H 0.9864 0.85335 0.45874 0.0
H519 H 0.95113 0.85409 0.52485 0.0
C520 C 0.06333 0.83281 0.37093 0.0
C521 C 0.09984 0.83409 0.38282 0.0
C522 C 0.03701 0.82266 0.40094 0.0
C523 C 0.0471 0.81305 0.44281 0.0
C524 C 0.08396 0.81229 0.45341 0.0
C525 C 0.10992 0.82285 0.42387 0.0
C526 C 1.00616 0.78252 0.54705 0.0
C527 C 0.97982 0.80924 0.55371 0.0
C528 C 0.02589 0.78168 0.50908 0.0
C529 C 1.01998 0.80785 0.47725 0.0
C530 C 0.9915 0.83271 0.48252 0.0
C531 C 0.97148 0.83333 0.52048 0.0
H532 H 0.76533 0.03444 0.48621 0.0
H533 H 0.86661 0.08628 0.51354 0.0
H534 H 0.76416 1.00907 0.55803 0.0
H535 H 0.86704 0.05914 0.58434 0.0
H536 H 0.85897 1.01569 0.71576 0.0
H537 H 0.84568 0.05316 0.6536 0.0
H538 H 0.79206 0.96296 0.59444 0.0
H539 H 0.80339 0.92668 0.65715 0.0
C540 C 0.78731 0.04043 0.50777 0.0
C541 C 0.81618 0.06203 0.49438 0.0
C542 C 0.78686 0.02568 0.54888 0.0
C543 C 0.81578 0.03144 0.57717 0.0
C544 C 0.84398 0.05436 0.56401 0.0
C545 C 0.84396 0.06975 0.52321 0.0
C546 C 0.8435 1.00427 0.68987 0.0
C547 C 0.83249 0.96812 0.69134 0.0
C548 C 0.83622 0.02562 0.65393 0.0
C549 C 0.8183 1.0111 0.61834 0.0
C550 C 0.80549 0.97552 0.62112 0.0
C551 C 0.81221 0.95446 0.65725 0.0
H552 H 0.45054 0.4546 0.28279 0.0
H553 H 0.43593 0.48448 0.15061 0.0
H554 H 0.50672 0.48882 0.28464 0.0
H555 H 0.49119 0.51942 0.15281 0.0
H556 H 0.58894 0.58227 0.2829 0.0
H557 H 0.53256 0.54821 0.28345 0.0
H558 H 0.55468 0.5118 0.1552 0.0
H559 H 0.61007 0.54645 0.15421 0.0
C560 C 0.45912 0.46863 0.25419 0.0
C561 C 0.43867 0.46648 0.21647 0.0
C562 C 0.49131 0.48848 0.25532 0.0
C563 C 0.50386 0.50684 0.2188 0.0
C564 C 0.48298 0.50512 0.18136 0.0
C565 C 0.45099 0.48519 0.18018 0.0
C566 C 0.58176 0.56697 0.25484 0.0
C567 C 0.60413 0.56736 0.21846 0.0
C568 C 0.54945 0.54724 0.25522 0.0
C569 C 0.5387 0.52731 0.21925 0.0
C570 C 0.56146 0.52734 0.18321 0.0
C571 C 0.59354 0.54711 0.18276 0.0
H572 H 0.42471 0.57364 0.77141 0.0
H573 H 0.51513 0.62051 0.83747 0.0
H574 H 0.45642 0.51529 0.76993 0.0
H575 H 0.54718 0.56258 0.83454 0.0
H576 H 0.60222 0.4596 0.77034 0.0
H577 H 0.56982 0.51747 0.76688 0.0
H578 H 0.48155 0.4717 0.83844 0.0
H579 H 0.5144 0.4142 0.84327 0.0
C580 C 0.45152 0.57162 0.78505 0.0
C581 C 0.46743 0.60171 0.80451 0.0
C582 C 0.46955 0.53823 0.78436 0.0
C583 C 0.50427 0.53451 0.80201 0.0
C584 C 0.52053 0.56477 0.82052 0.0
C585 C 0.50212 0.59786 0.82229 0.0
C586 C 0.57576 0.4618 0.78499 0.0
C587 C 0.56086 0.43233 0.80706 0.0
C588 C 0.55734 0.49493 0.78318 0.0
C589 C 0.52318 0.49899 0.80233 0.0
C590 C 0.50777 0.46924 0.82325 0.0
C591 C 0.52661 0.43641 0.8261 0.0
H592 H 0.94369 0.07664 0.24717 0.0
H593 H 0.9326 0.047 0.3799 0.0
H594 H 1.00105 0.04348 0.24376 0.0
H595 H 0.98885 1.01334 0.37624 0.0
H596 H 0.08751 0.95165 0.24574 0.0
H597 H 0.02998 0.9846 0.24523 0.0
H598 H 0.05175 0.02346 0.3723 0.0
H599 H 0.1082 0.99003 0.37325 0.0
C600 C 0.95327 0.06288 0.27552 0.0
C601 C 0.9335 0.06484 0.31389 0.0
C602 C 0.98614 0.04368 0.27353 0.0
C603 C 1.00004 0.02591 0.30985 0.0
C604 C 0.97969 0.02729 0.34782 0.0
C605 C 0.9471 0.04651 0.34985 0.0
C606 C 0.08 0.96728 0.27353 0.0
C607 C 0.10256 0.96785 0.30964 0.0
C608 C 0.04702 0.98636 0.27317 0.0
C609 C 0.03578 1.00654 0.3089 0.0
C610 C 0.05885 1.00764 0.34452 0.0
C611 C 0.09155 0.98854 0.34495 0.0
H612 H 0.04781 0.10802 0.65534 0.0
H613 H 0.08067 0.08959 0.78577 0.0
H614 H 1.01218 0.05334 0.65719 0.0
H615 H 0.04553 0.03393 0.78728 0.0
H616 H 0.98484 0.93484 0.65537 0.0
H617 H 1.01971 0.98997 0.65715 0.0
H618 H 0.98546 1.00839 0.78714 0.0
H619 H 0.9511 0.95227 0.78572 0.0
C620 C 0.04761 0.09223 0.68447 0.0
C621 C 0.06739 0.10333 0.72035 0.0
C622 C 0.02724 0.06058 0.68544 0.0
C623 C 0.0261 0.03873 0.72224 0.0
C624 C 0.04544 0.05008 0.75844 0.0
C625 C 0.0658 0.08197 0.75752 0.0
C626 C 0.98462 0.95053 0.68444 0.0
C627 C 0.96488 0.93896 0.72035 0.0
C628 C 1.00456 0.98245 0.68537 0.0
C629 C 1.00532 1.0041 0.72216 0.0
C630 C 0.98585 0.99239 0.75832 0.0
C631 C 0.96592 0.96025 0.75743 0.0
H632 H 0.1716 0.08272 0.3101 0.0
H633 H 0.27433 0.03165 0.28337 0.0
H634 H 0.19838 0.14147 0.29776 0.0
H635 H 0.30114 0.0907 0.27044 0.0
H636 H 0.3359 0.19591 0.34549 0.0
H637 H 0.31489 0.13655 0.32425 0.0
H638 H 0.22849 0.18616 0.25199 0.0
H639 H 0.2498 0.24581 0.27382 0.0
C640 C 0.19969 0.08397 0.30043 0.0
C641 C 0.221 0.05257 0.29856 0.0
C642 C 0.21501 0.11772 0.29297 0.0
C643 C 0.25204 0.12083 0.28361 0.0
C644 C 0.27264 0.0892 0.27815 0.0
C645 C 0.25723 0.05536 0.2854 0.0
C646 C 0.31333 0.19403 0.32366 0.0
C647 C 0.29446 0.22514 0.3111 0.0
C648 C 0.30127 0.16007 0.31137 0.0
C649 C 0.26978 0.15658 0.28671 0.0
C650 C 0.25263 0.18799 0.27131 0.0
C651 C 0.26494 0.22207 0.28342 0.0
H652 H 0.21597 0.7147 0.74164 0.0
H653 H 0.23696 0.82566 0.70912 0.0
H654 H 0.15498 0.73132 0.76495 0.0
H655 H 0.17611 0.84206 0.72965 0.0
H656 H 0.03918 0.76541 0.71965 0.0
H657 H 0.10141 0.74573 0.72923 0.0
H658 H 0.12899 0.85152 0.77622 0.0
H659 H 0.06711 0.87162 0.76365 0.0
C660 C 0.20782 0.74275 0.74042 0.0
C661 C 0.23096 0.76879 0.72285 0.0
C662 C 0.17269 0.75227 0.75322 0.0
C663 C 0.16003 0.78798 0.7485 0.0
C664 C 0.18451 0.81435 0.73428 0.0
C665 C 0.2195 0.80491 0.72194 0.0
C666 C 0.05838 0.78413 0.73309 0.0
C667 C 0.04853 0.82018 0.74026 0.0
C668 C 0.0942 0.77282 0.7388 0.0
C669 C 0.12077 0.79721 0.75257 0.0
C670 C 0.10973 0.83225 0.76413 0.0
C671 C 0.07416 0.84376 0.75737 0.0
H672 H 0.70243 0.83612 0.34245 0.0
H673 H 0.79506 0.7911 0.27795 0.0
H674 H 0.72296 0.89673 0.32525 0.0
H675 H 0.81559 0.85185 0.25952 0.0
H676 H 0.86726 0.95321 0.324 0.0
H677 H 0.84173 0.89481 0.30788 0.0
H678 H 0.73954 0.94551 0.27744 0.0
H679 H 0.76511 1.00429 0.29453 0.0
C680 C 0.72632 0.83935 0.32276 0.0
C681 C 0.74716 0.80928 0.31126 0.0
C682 C 0.73815 0.87405 0.31282 0.0
C683 C 0.77123 0.87921 0.29147 0.0
C684 C 0.79028 0.84879 0.27655 0.0
C685 C 0.77842 0.81406 0.28662 0.0
C686 C 0.83956 0.95206 0.31302 0.0
C687 C 0.81801 0.98329 0.31137 0.0
C688 C 0.82495 0.9185 0.30332 0.0
C689 C 0.78841 0.91536 0.29173 0.0
C690 C 0.76764 0.94697 0.28683 0.0
C691 C 0.78233 0.98065 0.29646 0.0
H692 H 0.95648 0.17338 0.72273 0.0
H693 H 1.00761 0.276 0.74439 0.0
H694 H 0.89766 0.2006 0.73581 0.0
H695 H 0.94846 0.30331 0.75811 0.0
H696 H 0.8407 0.33731 0.68601 0.0
H697 H 0.90089 0.31662 0.7061 0.0
H698 H 0.85361 0.23129 0.78159 0.0
H699 H 0.79312 0.25223 0.76084 0.0
C700 C 0.95524 0.20158 0.73145 0.0
C701 C 0.98665 0.22267 0.73174 0.0
C702 C 0.92145 0.21717 0.73934 0.0
C703 C 0.91826 0.25428 0.74755 0.0
C704 C 0.94998 0.27475 0.75133 0.0
C705 C 0.98389 0.25906 0.74366 0.0
C706 C 0.84327 0.31508 0.70832 0.0
C707 C 0.81253 0.29638 0.72206 0.0
C708 C 0.87773 0.30318 0.71993 0.0
C709 C 0.88213 0.27203 0.74513 0.0
C710 C 0.85112 0.25514 0.76179 0.0
C711 C 0.81654 0.26727 0.75033 0.0
H712 H 0.7447 0.28939 0.25821 0.0
H713 H 0.83484 0.33491 0.19 0.0
H714 H 0.72456 0.35004 0.27847 0.0
H715 H 0.8149 0.39534 0.20948 0.0
H716 H 0.6718 0.45427 0.21751 0.0
H717 H 0.69715 0.3949 0.23137 0.0
H718 H 0.80023 0.44286 0.26064 0.0
H719 H 0.77482 0.50259 0.24608 0.0
C720 C 0.76096 0.31236 0.24913 0.0
C721 C 0.79134 0.30777 0.22285 0.0
C722 C 0.7493 0.34705 0.26027 0.0
C723 C 0.76786 0.3776 0.24516 0.0
C724 C 0.80014 0.37254 0.22209 0.0
C725 C 0.81163 0.33794 0.21086 0.0
C726 C 0.69966 0.45229 0.22786 0.0
C727 C 0.72147 0.48308 0.22992 0.0
C728 C 0.71416 0.41818 0.23622 0.0
C729 C 0.75088 0.41403 0.24671 0.0
C730 C 0.77196 0.44512 0.2521 0.0
C731 C 0.75735 0.47935 0.24394 0.0
H732 H 0.47709 0.33949 0.74394 0.0
H733 H 0.49545 0.24873 0.82799 0.0
H734 H 0.41409 0.32135 0.73563 0.0
H735 H 0.43274 0.23092 0.82001 0.0
H736 H 0.32044 0.19861 0.79662 0.0
H737 H 0.38288 0.20998 0.77439 0.0
H738 H 0.36455 0.32442 0.78827 0.0
H739 H 0.3024 0.31294 0.80988 0.0
C740 C 0.46794 0.31523 0.75985 0.0
C741 C 0.49112 0.29584 0.78713 0.0
C742 C 0.43183 0.30494 0.7552 0.0
C743 C 0.41832 0.27486 0.7774 0.0
C744 C 0.44228 0.25401 0.80211 0.0
C745 C 0.47822 0.26444 0.80701 0.0
C746 C 0.3295 0.22618 0.79335 0.0
C747 C 0.30686 0.2549 0.80533 0.0
C748 C 0.36527 0.23271 0.78101 0.0
C749 C 0.37882 0.26807 0.78013 0.0
C750 C 0.35501 0.29689 0.78832 0.0
C751 C 0.31944 0.29035 0.80094 0.0
H752 H 0.30814 0.74556 0.24759 0.0
H753 H 0.20998 0.70307 0.19464 0.0
H754 H 0.32817 0.6845 0.26593 0.0
H755 H 0.23013 0.64194 0.21138 0.0
H756 H 0.37384 0.57922 0.20508 0.0
H757 H 0.35024 0.63909 0.21884 0.0
H758 H 0.24827 0.5934 0.25832 0.0
H759 H 0.2719 0.53303 0.24341 0.0
C760 C 0.29035 0.72312 0.24134 0.0
C761 C 0.2575 0.72873 0.2201 0.0
C762 C 0.30191 0.68815 0.25131 0.0
C763 C 0.28108 0.65817 0.23948 0.0
C764 C 0.24677 0.66425 0.22139 0.0
C765 C 0.23514 0.69926 0.21174 0.0
C766 C 0.34661 0.58181 0.21751 0.0
C767 C 0.32457 0.5514 0.22248 0.0
C768 C 0.3331 0.61626 0.22582 0.0
C769 C 0.29716 0.62124 0.23939 0.0
C770 C 0.2759 0.59058 0.24733 0.0
C771 C 0.28951 0.55596 0.23906 0.0
H772 H 0.54128 0.78314 0.81098 0.0
H773 H 0.56496 0.68504 0.74225 0.0
H774 H 0.60445 0.8002 0.8064 0.0
H775 H 0.62819 0.70263 0.73671 0.0
H776 H 0.73552 0.71497 0.81414 0.0
H777 H 0.67414 0.70327 0.79083 0.0
H778 H 0.65814 0.81699 0.76678 0.0
H779 H 0.71975 0.82867 0.79136 0.0
C780 C 0.55975 0.76566 0.79382 0.0
C781 C 0.54814 0.73237 0.77772 0.0
C782 C 0.59606 0.77559 0.79092 0.0
C783 C 0.6216 0.75254 0.77172 0.0
C784 C 0.60937 0.72068 0.75245 0.0
C785 C 0.57305 0.71068 0.75546 0.0
C786 C 0.71913 0.73736 0.80296 0.0
C787 C 0.73218 0.77276 0.8051 0.0
C788 C 0.68397 0.73066 0.78924 0.0
C789 C 0.66096 0.75924 0.77733 0.0
C790 C 0.675 0.79443 0.77633 0.0
C791 C 0.71036 0.80112 0.78998 0.0
loop_
_geom_bond_atom_site_label_1
_geom_bond_atom_site_label_2
_geom_bond_distance
_geom_bond_site_symmetry_2
_ccdc_geom_bond_type
O0 Tb1 2.292 . S
O0 C3 1.255 . S
Tb1 O0 2.292 . S
Tb1 O17 2.326 . S
Tb1 O19 2.500 . S
Tb1 O20 2.473 . S
Tb1 O23 2.324 . S
Eu2 O6 2.292 . S
Eu2 C7 2.852 . S
Eu2 O18 2.324 . S
Eu2 O22 2.326 . S
Eu2 O24 2.500 . S
Eu2 O25 2.473 . S
C3 O0 1.255 . S
C3 O4 1.247 . S
O4 C3 1.247 . S
C5 O17 1.242 . S
C5 O18 1.258 . S
O6 Eu2 2.292 . S
O6 C8 1.255 . S
C7 Eu2 2.852 . S
C7 C11 1.503 . S
C7 O24 1.273 . S
C7 O25 1.257 . S
C8 O6 1.255 . S
C8 O9 1.247 . S
O9 C8 1.247 . S
C10 O22 1.242 . S
C10 O23 1.258 . S
C11 C7 1.503 . S
C11 C12 1.379 . S
C11 C16 1.392 . S
C12 C11 1.379 . S
C12 C13 1.404 . S
C12 H26 0.929 . S
C13 C12 1.404 . S
C13 C14 1.389 . S
C14 C13 1.389 . S
C14 C15 1.399 . S
C14 H27 0.931 . S
C15 C14 1.399 . S
C15 C16 1.390 . S
C16 C11 1.392 . S
C16 C15 1.390 . S
C16 H28 0.929 . S
O17 Tb1 2.326 . S
O17 C5 1.242 . S
O18 Eu2 2.324 . S
O18 C5 1.258 . S
O19 Tb1 2.500 . S
O19 C21 1.273 . S
O20 Tb1 2.473 . S
O20 C21 1.257 . S
C21 O19 1.273 . S
C21 O20 1.257 . S
O22 Eu2 2.326 . S
O22 C10 1.242 . S
O23 Tb1 2.324 . S
O23 C10 1.258 . S
O24 Eu2 2.500 . S
O24 C7 1.273 . S
O25 Eu2 2.473 . S
O25 C7 1.257 . S
H26 C12 0.929 . S
H27 C14 0.931 . S
H28 C16 0.929 . S
O29 Tb30 2.292 . S
O29 C32 1.255 . S
Tb30 O29 2.292 . S
Tb30 O46 2.326 . S
Tb30 O48 2.500 . S
Tb30 O49 2.473 . S
Tb30 O52 2.324 . S
Eu31 O35 2.292 . S
Eu31 C36 2.852 . S
Eu31 O47 2.324 . S
Eu31 O51 2.326 . S
Eu31 O53 2.500 . S
Eu31 O54 2.473 . S
C32 O29 1.255 . S
C32 O33 1.247 . S
O33 C32 1.247 . S
C34 O46 1.242 . S
C34 O47 1.258 . S
O35 Eu31 2.292 . S
O35 C37 1.255 . S
C36 Eu31 2.852 . S
C36 C40 1.503 . S
C36 O53 1.273 . S
C36 O54 1.257 . S
C37 O35 1.255 . S
C37 O38 1.247 . S
O38 C37 1.247 . S
C39 O51 1.242 . S
C39 O52 1.258 . S
C40 C36 1.503 . S
C40 C41 1.379 . S
C40 C45 1.392 . S
C41 C40 1.379 . S
C41 C42 1.404 . S
C41 H55 0.929 . S
C42 C41 1.404 . S
C42 C43 1.389 . S
C43 C42 1.389 . S
C43 C44 1.399 . S
C43 H56 0.931 . S
C44 C43 1.399 . S
C44 C45 1.390 . S
C45 C40 1.392 . S
C45 C44 1.390 . S
C45 H57 0.929 . S
O46 Tb30 2.326 . S
O46 C34 1.242 . S
O47 Eu31 2.324 . S
O47 C34 1.258 . S
O48 Tb30 2.500 . S
O48 C50 1.273 . S
O49 Tb30 2.473 . S
O49 C50 1.257 . S
C50 O48 1.273 . S
C50 O49 1.257 . S
O51 Eu31 2.326 . S
O51 C39 1.242 . S
O52 Tb30 2.324 . S
O52 C39 1.258 . S
O53 Eu31 2.500 . S
O53 C36 1.273 . S
O54 Eu31 2.473 . S
O54 C36 1.257 . S
H55 C41 0.929 . S
H56 C43 0.931 . S
H57 C45 0.929 . S
O58 Tb59 2.292 . S
O58 C61 1.255 . S
Tb59 O58 2.292 . S
Tb59 O75 2.326 . S
Tb59 O77 2.500 . S
Tb59 O78 2.473 . S
Tb59 O81 2.324 . S
Eu60 O64 2.292 . S
Eu60 C65 2.852 . S
Eu60 O76 2.324 . S
Eu60 O80 2.326 . S
Eu60 O82 2.500 . S
Eu60 O83 2.473 . S
C61 O58 1.255 . S
C61 O62 1.247 . S
O62 C61 1.247 . S
C63 O75 1.242 . S
C63 O76 1.258 . S
O64 Eu60 2.292 . S
O64 C66 1.255 . S
C65 Eu60 2.852 . S
C65 C69 1.503 . S
C65 O82 1.273 . S
C65 O83 1.257 . S
C66 O64 1.255 . S
C66 O67 1.247 . S
O67 C66 1.247 . S
C68 O80 1.242 . S
C68 O81 1.258 . S
C69 C65 1.503 . S
C69 C70 1.379 . S
C69 C74 1.392 . S
C70 C69 1.379 . S
C70 C71 1.404 . S
C70 H84 0.929 . S
C71 C70 1.404 . S
C71 C72 1.389 . S
C72 C71 1.389 . S
C72 C73 1.399 . S
C72 H85 0.931 . S
C73 C72 1.399 . S
C73 C74 1.390 . S
C74 C69 1.392 . S
C74 C73 1.390 . S
C74 H86 0.929 . S
O75 Tb59 2.326 . S
O75 C63 1.242 . S
O76 Eu60 2.324 . S
O76 C63 1.258 . S
O77 Tb59 2.500 . S
O77 C79 1.273 . S
O78 Tb59 2.473 . S
O78 C79 1.257 . S
C79 O77 1.273 . S
C79 O78 1.257 . S
O80 Eu60 2.326 . S
O80 C68 1.242 . S
O81 Tb59 2.324 . S
O81 C68 1.258 . S
O82 Eu60 2.500 . S
O82 C65 1.273 . S
O83 Eu60 2.473 . S
O83 C65 1.257 . S
H84 C70 0.929 . S
H85 C72 0.931 . S
H86 C74 0.929 . S
O87 Tb88 2.292 . S
O87 C90 1.255 . S
Tb88 O87 2.292 . S
Tb88 O104 2.326 . S
Tb88 O106 2.500 . S
Tb88 O107 2.473 . S
Tb88 O110 2.324 . S
Eu89 O93 2.292 . S
Eu89 C94 2.852 . S
Eu89 O105 2.324 . S
Eu89 O109 2.326 . S
Eu89 O111 2.500 . S
Eu89 O112 2.473 . S
C90 O87 1.255 . S
C90 O91 1.247 . S
O91 C90 1.247 . S
C92 O104 1.242 . S
C92 O105 1.258 . S
O93 Eu89 2.292 . S
O93 C95 1.255 . S
C94 Eu89 2.852 . S
C94 C98 1.503 . S
C94 O111 1.273 . S
C94 O112 1.257 . S
C95 O93 1.255 . S
C95 O96 1.247 . S
O96 C95 1.247 . S
C97 O109 1.242 . S
C97 O110 1.258 . S
C98 C94 1.503 . S
C98 C99 1.379 . S
C98 C103 1.392 . S
C99 C98 1.379 . S
C99 C100 1.404 . S
C99 H113 0.929 . S
C100 C99 1.404 . S
C100 C101 1.389 . S
C101 C100 1.389 . S
C101 C102 1.399 . S
C101 H114 0.931 . S
C102 C101 1.399 . S
C102 C103 1.390 . S
C103 C98 1.392 . S
C103 C102 1.390 . S
C103 H115 0.929 . S
O104 Tb88 2.326 . S
O104 C92 1.242 . S
O105 Eu89 2.324 . S
O105 C92 1.258 . S
O106 Tb88 2.500 . S
O106 C108 1.273 . S
O107 Tb88 2.473 . S
O107 C108 1.257 . S
C108 O106 1.273 . S
C108 O107 1.257 . S
O109 Eu89 2.326 . S
O109 C97 1.242 . S
O110 Tb88 2.324 . S
O110 C97 1.258 . S
O111 Eu89 2.500 . S
O111 C94 1.273 . S
O112 Eu89 2.473 . S
O112 C94 1.257 . S
H113 C99 0.929 . S
H114 C101 0.931 . S
H115 C103 0.929 . S
O116 Tb117 2.300 . S
O116 C119 1.254 1_545 S
Tb117 O116 2.300 . S
Tb117 O133 2.326 . S
Tb117 O135 2.500 1_545 S
Tb117 O136 2.473 . S
Tb117 O139 2.324 . S
Eu118 O122 2.292 . S
Eu118 C123 2.852 . S
Eu118 O134 2.324 . S
Eu118 O138 2.326 . S
Eu118 O140 2.500 . S
Eu118 O141 2.473 . S
C119 O116 1.254 1_565 S
C119 O120 1.247 1_565 S
O120 C119 1.247 1_545 S
C121 O133 1.242 . S
C121 O134 1.258 . S
O122 Eu118 2.292 . S
O122 C124 1.255 . S
C123 Eu118 2.852 . S
C123 C127 1.503 . S
C123 O140 1.273 . S
C123 O141 1.257 . S
C124 O122 1.255 . S
C124 O125 1.247 . S
O125 C124 1.247 . S
C126 O138 1.242 . S
C126 O139 1.258 . S
C127 C123 1.503 . S
C127 C128 1.379 . S
C127 C132 1.392 . S
C128 C127 1.379 . S
C128 C129 1.404 . S
C128 H142 0.929 . S
C129 C128 1.404 . S
C129 C130 1.389 . S
C130 C129 1.389 . S
C130 C131 1.399 . S
C130 H143 0.931 . S
C131 C130 1.399 . S
C131 C132 1.390 . S
C132 C127 1.392 . S
C132 C131 1.390 . S
C132 H144 0.929 . S
O133 Tb117 2.326 . S
O133 C121 1.242 . S
O134 Eu118 2.324 . S
O134 C121 1.258 . S
O135 Tb117 2.500 1_565 S
O135 C137 1.273 1_565 S
O136 Tb117 2.473 . S
O136 C137 1.257 . S
C137 O135 1.273 1_545 S
C137 O136 1.257 . S
O138 Eu118 2.326 . S
O138 C126 1.242 . S
O139 Tb117 2.324 . S
O139 C126 1.258 . S
O140 Eu118 2.500 . S
O140 C123 1.273 . S
O141 Eu118 2.473 . S
O141 C123 1.257 . S
H142 C128 0.929 . S
H143 C130 0.931 . S
H144 C132 0.929 . S
O145 Tb146 2.300 . S
O145 C148 1.254 1_455 S
Tb146 O145 2.300 . S
Tb146 O162 2.326 . S
Tb146 O164 2.500 1_455 S
Tb146 O165 2.473 . S
Tb146 O168 2.324 . S
Eu147 O151 2.292 . S
Eu147 C152 2.852 . S
Eu147 O163 2.324 . S
Eu147 O167 2.326 . S
Eu147 O169 2.500 . S
Eu147 O170 2.473 . S
C148 O145 1.254 1_655 S
C148 O149 1.247 1_655 S
O149 C148 1.247 1_455 S
C150 O162 1.242 . S
C150 O163 1.258 . S
O151 Eu147 2.292 . S
O151 C153 1.255 . S
C152 Eu147 2.852 . S
C152 C156 1.503 . S
C152 O169 1.273 . S
C152 O170 1.257 . S
C153 O151 1.255 . S
C153 O154 1.247 . S
O154 C153 1.247 . S
C155 O167 1.242 . S
C155 O168 1.258 . S
C156 C152 1.503 . S
C156 C157 1.379 . S
C156 C161 1.392 . S
C157 C156 1.379 . S
C157 C158 1.404 . S
C157 H171 0.929 . S
C158 C157 1.404 . S
C158 C159 1.389 . S
C159 C158 1.389 . S
C159 C160 1.399 . S
C159 H172 0.931 . S
C160 C159 1.399 . S
C160 C161 1.390 . S
C161 C156 1.392 . S
C161 C160 1.390 . S
C161 H173 0.929 . S
O162 Tb146 2.326 . S
O162 C150 1.242 . S
O163 Eu147 2.324 . S
O163 C150 1.258 . S
O164 Tb146 2.500 1_655 S
O164 C166 1.273 1_655 S
O165 Tb146 2.473 . S
O165 C166 1.257 . S
C166 O164 1.273 1_455 S
C166 O165 1.257 . S
O167 Eu147 2.326 . S
O167 C155 1.242 . S
O168 Tb146 2.324 . S
O168 C155 1.258 . S
O169 Eu147 2.500 . S
O169 C152 1.273 . S
O170 Eu147 2.473 . S
O170 C152 1.257 . S
H171 C157 0.929 . S
H172 C159 0.931 . S
H173 C161 0.929 . S
O174 Tb175 2.300 . S
O174 C177 1.254 1_565 S
Tb175 O174 2.300 . S
Tb175 O191 2.326 . S
Tb175 O193 2.500 1_565 S
Tb175 O194 2.473 . S
Tb175 O197 2.324 . S
Eu176 O180 2.292 . S
Eu176 C181 2.852 . S
Eu176 O192 2.324 . S
Eu176 O196 2.326 . S
Eu176 O198 2.500 . S
Eu176 O199 2.473 . S
C177 O174 1.254 1_545 S
C177 O178 1.247 1_545 S
O178 C177 1.247 1_565 S
C179 O191 1.242 . S
C179 O192 1.258 . S
O180 Eu176 2.292 . S
O180 C182 1.255 . S
C181 Eu176 2.852 . S
C181 C185 1.503 . S
C181 O198 1.273 . S
C181 O199 1.257 . S
C182 O180 1.255 . S
C182 O183 1.247 . S
O183 C182 1.247 . S
C184 O196 1.242 . S
C184 O197 1.258 . S
C185 C181 1.503 . S
C185 C186 1.379 . S
C185 C190 1.392 . S
C186 C185 1.379 . S
C186 C187 1.404 . S
C186 H200 0.929 . S
C187 C186 1.404 . S
C187 C188 1.389 . S
C188 C187 1.389 . S
C188 C189 1.399 . S
C188 H201 0.931 . S
C189 C188 1.399 . S
C189 C190 1.390 . S
C190 C185 1.392 . S
C190 C189 1.390 . S
C190 H202 0.929 . S
O191 Tb175 2.326 . S
O191 C179 1.242 . S
O192 Eu176 2.324 . S
O192 C179 1.258 . S
O193 Tb175 2.500 1_545 S
O193 C195 1.273 1_545 S
O194 Tb175 2.473 . S
O194 C195 1.257 . S
C195 O193 1.273 1_565 S
C195 O194 1.257 . S
O196 Eu176 2.326 . S
O196 C184 1.242 . S
O197 Tb175 2.324 . S
O197 C184 1.258 . S
O198 Eu176 2.500 . S
O198 C181 1.273 . S
O199 Eu176 2.473 . S
O199 C181 1.257 . S
H200 C186 0.929 . S
H201 C188 0.931 . S
H202 C190 0.929 . S
O203 Tb204 2.300 . S
O203 C206 1.254 1_655 S
Tb204 O203 2.300 . S
Tb204 O220 2.326 . S
Tb204 O222 2.500 1_655 S
Tb204 O223 2.473 . S
Tb204 O226 2.324 . S
Eu205 O209 2.292 . S
Eu205 C210 2.852 . S
Eu205 O221 2.324 . S
Eu205 O225 2.326 . S
Eu205 O227 2.500 . S
Eu205 O228 2.473 . S
C206 O203 1.254 1_455 S
C206 O207 1.247 1_455 S
O207 C206 1.247 1_655 S
C208 O220 1.242 . S
C208 O221 1.258 . S
O209 Eu205 2.292 . S
O209 C211 1.255 . S
C210 Eu205 2.852 . S
C210 C214 1.503 . S
C210 O227 1.273 . S
C210 O228 1.257 . S
C211 O209 1.255 . S
C211 O212 1.247 . S
O212 C211 1.247 . S
C213 O225 1.242 . S
C213 O226 1.258 . S
C214 C210 1.503 . S
C214 C215 1.379 . S
C214 C219 1.392 . S
C215 C214 1.379 . S
C215 C216 1.404 . S
C215 H229 0.929 . S
C216 C215 1.404 . S
C216 C217 1.389 . S
C217 C216 1.389 . S
C217 C218 1.399 . S
C217 H230 0.931 . S
C218 C217 1.399 . S
C218 C219 1.390 . S
C219 C214 1.392 . S
C219 C218 1.390 . S
C219 H231 0.929 . S
O220 Tb204 2.326 . S
O220 C208 1.242 . S
O221 Eu205 2.324 . S
O221 C208 1.258 . S
O222 Tb204 2.500 1_455 S
O222 C224 1.273 1_455 S
O223 Tb204 2.473 . S
O223 C224 1.257 . S
C224 O222 1.273 1_655 S
C224 O223 1.257 . S
O225 Eu205 2.326 . S
O225 C213 1.242 . S
O226 Tb204 2.324 . S
O226 C213 1.258 . S
O227 Eu205 2.500 . S
O227 C210 1.273 . S
O228 Eu205 2.473 . S
O228 C210 1.257 . S
H229 C215 0.929 . S
H230 C217 0.931 . S
H231 C219 0.929 . S
H232 C240 0.950 . S
H233 C245 0.950 . S
H234 C242 0.950 . S
H235 C244 0.950 . S
H236 C246 0.950 . S
H237 C248 0.950 . S
H238 C250 0.950 . S
H239 C251 0.950 . S
C240 H232 0.950 . S
C240 C241 1.386 . S
C240 C242 1.391 1_554 S
C241 C240 1.386 . S
C241 C245 1.393 . S
C242 H234 0.950 . S
C242 C240 1.391 1_556 S
C242 C243 1.400 . S
C243 C242 1.400 . S
C243 C244 1.398 . S
C243 C249 1.491 . S
C244 H235 0.950 . S
C244 C243 1.398 . S
C244 C245 1.391 1_556 S
C245 H233 0.950 . S
C245 C241 1.393 . S
C245 C244 1.391 1_554 S
C246 H236 0.950 . S
C246 C247 1.386 . S
C246 C248 1.391 . S
C247 C246 1.386 . S
C247 C251 1.393 . S
C248 H237 0.950 . S
C248 C246 1.391 . S
C248 C249 1.400 . S
C249 C243 1.491 . S
C249 C248 1.400 . S
C249 C250 1.398 . S
C250 H238 0.950 . S
C250 C249 1.398 . S
C250 C251 1.391 . S
C251 H239 0.950 . S
C251 C247 1.393 . S
C251 C250 1.391 . S
H252 C260 0.950 . S
H253 C265 0.950 . S
H254 C262 0.950 . S
H255 C264 0.950 . S
H256 C266 0.950 . S
H257 C268 0.950 . S
H258 C270 0.950 . S
H259 C271 0.950 . S
C260 H252 0.950 . S
C260 C261 1.386 . S
C260 C262 1.391 1_556 S
C261 C260 1.386 . S
C261 C265 1.393 . S
C262 H254 0.950 . S
C262 C260 1.391 1_554 S
C262 C263 1.400 . S
C263 C262 1.400 . S
C263 C264 1.398 . S
C263 C269 1.491 . S
C264 H255 0.950 . S
C264 C263 1.398 . S
C264 C265 1.391 1_554 S
C265 H253 0.950 . S
C265 C261 1.393 . S
C265 C264 1.391 1_556 S
C266 H256 0.950 . S
C266 C267 1.386 . S
C266 C268 1.391 . S
C267 C266 1.386 . S
C267 C271 1.393 . S
C268 H257 0.950 . S
C268 C266 1.391 . S
C268 C269 1.400 . S
C269 C263 1.491 . S
C269 C268 1.400 . S
C269 C270 1.398 . S
C270 H258 0.950 . S
C270 C269 1.398 . S
C270 C271 1.391 . S
C271 H259 0.950 . S
C271 C267 1.393 . S
C271 C270 1.391 . S
H272 C280 0.950 . S
H273 C285 0.950 . S
H274 C282 0.950 . S
H275 C284 0.950 . S
H276 C286 0.950 . S
H277 C288 0.950 . S
H278 C290 0.950 . S
H279 C291 0.950 . S
C280 H272 0.950 . S
C280 C281 1.386 . S
C280 C282 1.391 . S
C281 C280 1.386 . S
C281 C285 1.393 . S
C282 H274 0.950 . S
C282 C280 1.391 . S
C282 C283 1.400 . S
C283 C282 1.400 . S
C283 C284 1.398 . S
C283 C289 1.491 . S
C284 H275 0.950 . S
C284 C283 1.398 . S
C284 C285 1.391 . S
C285 H273 0.950 . S
C285 C281 1.393 . S
C285 C284 1.391 . S
C286 H276 0.950 . S
C286 C287 1.386 . S
C286 C288 1.391 1_554 S
C287 C286 1.386 . S
C287 C291 1.393 . S
C288 H277 0.950 . S
C288 C286 1.391 1_556 S
C288 C289 1.400 . S
C289 C283 1.491 . S
C289 C288 1.400 . S
C289 C290 1.398 . S
C290 H278 0.950 . S
C290 C289 1.398 . S
C290 C291 1.391 1_556 S
C291 H279 0.950 . S
C291 C287 1.393 . S
C291 C290 1.391 1_554 S
H292 C300 0.950 . S
H293 C305 0.950 . S
H294 C302 0.950 . S
H295 C304 0.950 . S
H296 C306 0.950 . S
H297 C308 0.950 . S
H298 C310 0.950 . S
H299 C311 0.950 . S
C300 H292 0.950 . S
C300 C301 1.386 . S
C300 C302 1.391 . S
C301 C300 1.386 . S
C301 C305 1.393 . S
C302 H294 0.950 . S
C302 C300 1.391 . S
C302 C303 1.400 . S
C303 C302 1.400 . S
C303 C304 1.398 . S
C303 C309 1.491 . S
C304 H295 0.950 . S
C304 C303 1.398 . S
C304 C305 1.391 . S
C305 H293 0.950 . S
C305 C301 1.393 . S
C305 C304 1.391 . S
C306 H296 0.950 . S
C306 C307 1.386 . S
C306 C308 1.391 1_556 S
C307 C306 1.386 . S
C307 C311 1.393 . S
C308 H297 0.950 . S
C308 C306 1.391 1_554 S
C308 C309 1.400 . S
C309 C303 1.491 . S
C309 C308 1.400 . S
C309 C310 1.398 . S
C310 H298 0.950 . S
C310 C309 1.398 . S
C310 C311 1.391 1_554 S
C311 H299 0.950 . S
C311 C307 1.393 . S
C311 C310 1.391 1_556 S
H312 C320 0.950 . S
H313 C325 0.950 . S
H314 C322 0.950 . S
H315 C324 0.950 . S
H316 C326 0.950 . S
H317 C328 0.950 . S
H318 C330 0.950 . S
H319 C331 0.950 . S
C320 H312 0.950 . S
C320 C321 1.386 . S
C320 C322 1.391 . S
C321 C320 1.386 . S
C321 C325 1.393 . S
C322 H314 0.950 . S
C322 C320 1.391 . S
C322 C323 1.400 . S
C323 C322 1.400 . S
C323 C324 1.398 . S
C323 C329 1.491 . S
C324 H315 0.950 . S
C324 C323 1.398 . S
C324 C325 1.391 . S
C325 H313 0.950 . S
C325 C321 1.393 . S
C325 C324 1.391 . S
C326 H316 0.950 . S
C326 C327 1.386 . S
C326 C328 1.391 . S
C327 C326 1.386 . S
C327 C331 1.393 . S
C328 H317 0.950 . S
C328 C326 1.391 . S
C328 C329 1.400 . S
C329 C323 1.491 . S
C329 C328 1.400 . S
C329 C330 1.398 . S
C330 H318 0.950 . S
C330 C329 1.398 . S
C330 C331 1.391 . S
C331 H319 0.950 . S
C331 C327 1.393 . S
C331 C330 1.391 . S
H332 C340 0.950 . S
H333 C345 0.950 . S
H334 C342 0.950 . S
H335 C344 0.950 . S
H336 C346 0.950 . S
H337 C348 0.950 . S
H338 C350 0.950 . S
H339 C351 0.950 . S
C340 H332 0.950 . S
C340 C341 1.386 . S
C340 C342 1.391 . S
C341 C340 1.386 . S
C341 C345 1.393 . S
C342 H334 0.950 . S
C342 C340 1.391 . S
C342 C343 1.400 . S
C343 C342 1.400 . S
C343 C344 1.398 . S
C343 C349 1.491 . S
C344 H335 0.950 . S
C344 C343 1.398 . S
C344 C345 1.391 . S
C345 H333 0.950 . S
C345 C341 1.393 . S
C345 C344 1.391 . S
C346 H336 0.950 . S
C346 C347 1.386 . S
C346 C348 1.391 . S
C347 C346 1.386 . S
C347 C351 1.393 . S
C348 H337 0.950 . S
C348 C346 1.391 . S
C348 C349 1.400 . S
C349 C343 1.491 . S
C349 C348 1.400 . S
C349 C350 1.398 . S
C350 H338 0.950 . S
C350 C349 1.398 . S
C350 C351 1.391 . S
C351 H339 0.950 . S
C351 C347 1.393 . S
C351 C350 1.391 . S
H352 C360 0.950 . S
H353 C365 0.950 . S
H354 C362 0.950 . S
H355 C364 0.950 . S
H356 C366 0.950 . S
H357 C368 0.950 . S
H358 C370 0.950 . S
H359 C371 0.950 . S
C360 H352 0.950 . S
C360 C361 1.386 . S
C360 C362 1.391 . S
C361 C360 1.386 . S
C361 C365 1.393 . S
C362 H354 0.950 . S
C362 C360 1.391 . S
C362 C363 1.400 . S
C363 C362 1.400 . S
C363 C364 1.398 . S
C363 C369 1.491 . S
C364 H355 0.950 . S
C364 C363 1.398 . S
C364 C365 1.391 . S
C365 H353 0.950 . S
C365 C361 1.393 . S
C365 C364 1.391 . S
C366 H356 0.950 . S
C366 C367 1.386 . S
C366 C368 1.391 . S
C367 C366 1.386 . S
C367 C371 1.393 . S
C368 H357 0.950 . S
C368 C366 1.391 . S
C368 C369 1.400 . S
C369 C363 1.491 . S
C369 C368 1.400 . S
C369 C370 1.398 . S
C370 H358 0.950 . S
C370 C369 1.398 . S
C370 C371 1.391 . S
C371 H359 0.950 . S
C371 C367 1.393 . S
C371 C370 1.391 . S
H372 C380 0.950 . S
H373 C385 0.950 . S
H374 C382 0.950 . S
H375 C384 0.950 . S
H376 C386 0.950 . S
H377 C388 0.950 . S
H378 C390 0.950 . S
H379 C391 0.950 . S
C380 H372 0.950 . S
C380 C381 1.386 . S
C380 C382 1.391 . S
C381 C380 1.386 . S
C381 C385 1.393 . S
C382 H374 0.950 . S
C382 C380 1.391 . S
C382 C383 1.400 . S
C383 C382 1.400 . S
C383 C384 1.398 . S
C383 C389 1.491 . S
C384 H375 0.950 . S
C384 C383 1.398 . S
C384 C385 1.391 . S
C385 H373 0.950 . S
C385 C381 1.393 . S
C385 C384 1.391 . S
C386 H376 0.950 . S
C386 C387 1.386 . S
C386 C388 1.391 . S
C387 C386 1.386 . S
C387 C391 1.393 . S
C388 H377 0.950 . S
C388 C386 1.391 . S
C388 C389 1.400 . S
C389 C383 1.491 . S
C389 C388 1.400 . S
C389 C390 1.398 . S
C390 H378 0.950 . S
C390 C389 1.398 . S
C390 C391 1.391 . S
C391 H379 0.950 . S
C391 C387 1.393 . S
C391 C390 1.391 . S
H392 C400 0.950 . S
H393 C405 0.950 . S
H394 C402 0.950 1_554 S
H395 C404 0.950 . S
H396 C406 0.950 1_556 S
H397 C408 0.950 . S
H398 C410 0.950 . S
H399 C411 0.950 . S
C400 H392 0.950 . S
C400 C401 1.386 . S
C400 C402 1.391 . S
C401 C400 1.386 . S
C401 C405 1.393 . S
C402 H394 0.950 1_556 S
C402 C400 1.391 . S
C402 C403 1.400 . S
C403 C402 1.400 . S
C403 C404 1.398 . S
C403 C409 1.491 1_556 S
C404 H395 0.950 . S
C404 C403 1.398 . S
C404 C405 1.391 . S
C405 H393 0.950 . S
C405 C401 1.393 . S
C405 C404 1.391 . S
C406 H396 0.950 1_554 S
C406 C407 1.386 . S
C406 C408 1.391 1_554 S
C407 C406 1.386 . S
C407 C411 1.393 . S
C408 H397 0.950 . S
C408 C406 1.391 1_556 S
C408 C409 1.400 1_556 S
C409 C403 1.491 1_554 S
C409 C408 1.400 1_554 S
C409 C410 1.398 . S
C410 H398 0.950 . S
C410 C409 1.398 . S
C410 C411 1.391 . S
C411 H399 0.950 . S
C411 C407 1.393 . S
C411 C410 1.391 . S
H412 C420 0.950 . S
H413 C425 0.950 . S
H414 C422 0.950 1_556 S
H415 C424 0.950 . S
H416 C426 0.950 . S
H417 C428 0.950 . S
H418 C430 0.950 . S
H419 C431 0.950 . S
C420 H412 0.950 . S
C420 C421 1.386 . S
C420 C422 1.391 . S
C421 C420 1.386 . S
C421 C425 1.393 . S
C422 H414 0.950 1_554 S
C422 C420 1.391 . S
C422 C423 1.400 . S
C423 C422 1.400 . S
C423 C424 1.398 . S
C423 C429 1.491 1_554 S
C424 H415 0.950 . S
C424 C423 1.398 . S
C424 C425 1.391 . S
C425 H413 0.950 . S
C425 C421 1.393 . S
C425 C424 1.391 . S
C426 H416 0.950 . S
C426 C427 1.386 . S
C426 C428 1.391 1_556 S
C427 C426 1.386 . S
C427 C431 1.393 . S
C428 H417 0.950 . S
C428 C426 1.391 1_554 S
C428 C429 1.400 1_554 S
C429 C423 1.491 1_556 S
C429 C428 1.400 1_556 S
C429 C430 1.398 . S
C430 H418 0.950 . S
C430 C429 1.398 . S
C430 C431 1.391 . S
C431 H419 0.950 . S
C431 C427 1.393 . S
C431 C430 1.391 . S
H432 C440 0.950 . S
H433 C445 0.950 . S
H434 C442 0.950 1_554 S
H435 C444 0.950 . S
H436 C446 0.950 1_556 S
H437 C448 0.950 . S
H438 C450 0.950 . S
H439 C451 0.950 . S
C440 H432 0.950 . S
C440 C441 1.386 . S
C440 C442 1.391 . S
C441 C440 1.386 . S
C441 C445 1.393 . S
C442 H434 0.950 1_556 S
C442 C440 1.391 . S
C442 C443 1.400 . S
C443 C442 1.400 . S
C443 C444 1.398 . S
C443 C449 1.491 1_556 S
C444 H435 0.950 . S
C444 C443 1.398 . S
C444 C445 1.391 . S
C445 H433 0.950 . S
C445 C441 1.393 . S
C445 C444 1.391 . S
C446 H436 0.950 1_554 S
C446 C447 1.386 . S
C446 C448 1.391 1_554 S
C447 C446 1.386 . S
C447 C451 1.393 . S
C448 H437 0.950 . S
C448 C446 1.391 1_556 S
C448 C449 1.400 1_556 S
C449 C443 1.491 1_554 S
C449 C448 1.400 1_554 S
C449 C450 1.398 . S
C450 H438 0.950 . S
C450 C449 1.398 . S
C450 C451 1.391 . S
C451 H439 0.950 . S
C451 C447 1.393 . S
C451 C450 1.391 . S
H452 C460 0.950 1_554 S
H453 C465 0.950 . S
H454 C462 0.950 . S
H455 C464 0.950 . S
H456 C466 0.950 . S
H457 C468 0.950 1_556 S
H458 C470 0.950 . S
H459 C471 0.950 . S
C460 H452 0.950 1_556 S
C460 C461 1.386 . S
C460 C462 1.391 1_556 S
C461 C460 1.386 . S
C461 C465 1.393 . S
C462 H454 0.950 . S
C462 C460 1.391 1_554 S
C462 C463 1.400 1_554 S
C463 C462 1.400 1_556 S
C463 C464 1.398 . S
C463 C469 1.491 1_556 S
C464 H455 0.950 . S
C464 C463 1.398 . S
C464 C465 1.391 . S
C465 H453 0.950 . S
C465 C461 1.393 . S
C465 C464 1.391 . S
C466 H456 0.950 . S
C466 C467 1.386 . S
C466 C468 1.391 . S
C467 C466 1.386 . S
C467 C471 1.393 . S
C468 H457 0.950 1_554 S
C468 C466 1.391 . S
C468 C469 1.400 . S
C469 C463 1.491 1_554 S
C469 C468 1.400 . S
C469 C470 1.398 . S
C470 H458 0.950 . S
C470 C469 1.398 . S
C470 C471 1.391 . S
C471 H459 0.950 . S
C471 C467 1.393 . S
C471 C470 1.391 . S
H472 C480 0.950 . S
H473 C485 0.950 . S
H474 C482 0.950 . S
H475 C484 0.950 . S
H476 C486 0.950 . S
H477 C488 0.950 . S
H478 C490 0.950 . S
H479 C491 0.950 1_455 S
C480 H472 0.950 . S
C480 C481 1.386 . S
C480 C482 1.391 . S
C481 C480 1.386 . S
C481 C485 1.393 . S
C482 H474 0.950 . S
C482 C480 1.391 . S
C482 C483 1.400 . S
C483 C482 1.400 . S
C483 C484 1.398 . S
C483 C489 1.491 . S
C484 H475 0.950 . S
C484 C483 1.398 . S
C484 C485 1.391 . S
C485 H473 0.950 . S
C485 C481 1.393 . S
C485 C484 1.391 . S
C486 H476 0.950 . S
C486 C487 1.386 1_655 S
C486 C488 1.391 . S
C487 C486 1.386 1_455 S
C487 C491 1.393 1_455 S
C488 H477 0.950 . S
C488 C486 1.391 . S
C488 C489 1.400 . S
C489 C483 1.491 . S
C489 C488 1.400 . S
C489 C490 1.398 . S
C490 H478 0.950 . S
C490 C489 1.398 . S
C490 C491 1.391 . S
C491 H479 0.950 1_655 S
C491 C487 1.393 1_655 S
C491 C490 1.391 . S
H492 C500 0.950 . S
H493 C505 0.950 . S
H494 C502 0.950 . S
H495 C504 0.950 . S
H496 C506 0.950 . S
H497 C508 0.950 . S
H498 C510 0.950 . S
H499 C511 0.950 . S
C500 H492 0.950 . S
C500 C501 1.386 . S
C500 C502 1.391 . S
C501 C500 1.386 . S
C501 C505 1.393 . S
C502 H494 0.950 . S
C502 C500 1.391 . S
C502 C503 1.400 . S
C503 C502 1.400 . S
C503 C504 1.398 . S
C503 C509 1.491 . S
C504 H495 0.950 . S
C504 C503 1.398 . S
C504 C505 1.391 . S
C505 H493 0.950 . S
C505 C501 1.393 . S
C505 C504 1.391 . S
C506 H496 0.950 . S
C506 C507 1.386 . S
C506 C508 1.391 1_565 S
C507 C506 1.386 . S
C507 C511 1.393 1_565 S
C508 H497 0.950 . S
C508 C506 1.391 1_545 S
C508 C509 1.400 . S
C509 C503 1.491 . S
C509 C508 1.400 . S
C509 C510 1.398 . S
C510 H498 0.950 . S
C510 C509 1.398 . S
C510 C511 1.391 . S
C511 H499 0.950 . S
C511 C507 1.393 1_545 S
C511 C510 1.391 . S
H512 C520 0.950 . S
H513 C525 0.950 . S
H514 C522 0.950 . S
H515 C524 0.950 . S
H516 C526 0.950 . S
H517 C528 0.950 . S
H518 C530 0.950 . S
H519 C531 0.950 . S
C520 H512 0.950 . S
C520 C521 1.386 . S
C520 C522 1.391 . S
C521 C520 1.386 . S
C521 C525 1.393 . S
C522 H514 0.950 . S
C522 C520 1.391 . S
C522 C523 1.400 . S
C523 C522 1.400 . S
C523 C524 1.398 . S
C523 C529 1.491 . S
C524 H515 0.950 . S
C524 C523 1.398 . S
C524 C525 1.391 . S
C525 H513 0.950 . S
C525 C521 1.393 . S
C525 C524 1.391 . S
C526 H516 0.950 . S
C526 C527 1.386 1_455 S
C526 C528 1.391 . S
C527 C526 1.386 1_655 S
C527 C531 1.393 . S
C528 H517 0.950 . S
C528 C526 1.391 . S
C528 C529 1.400 . S
C529 C523 1.491 . S
C529 C528 1.400 . S
C529 C530 1.398 . S
C530 H518 0.950 . S
C530 C529 1.398 . S
C530 C531 1.391 1_455 S
C531 H519 0.950 . S
C531 C527 1.393 . S
C531 C530 1.391 1_655 S
H532 C540 0.950 . S
H533 C545 0.950 1_545 S
H534 C542 0.950 . S
H535 C544 0.950 . S
H536 C546 0.950 . S
H537 C548 0.950 . S
H538 C550 0.950 . S
H539 C551 0.950 . S
C540 H532 0.950 . S
C540 C541 1.386 1_565 S
C540 C542 1.391 . S
C541 C540 1.386 1_545 S
C541 C545 1.393 1_545 S
C542 H534 0.950 . S
C542 C540 1.391 . S
C542 C543 1.400 . S
C543 C542 1.400 . S
C543 C544 1.398 . S
C543 C549 1.491 . S
C544 H535 0.950 . S
C544 C543 1.398 . S
C544 C545 1.391 . S
C545 H533 0.950 1_565 S
C545 C541 1.393 1_565 S
C545 C544 1.391 . S
C546 H536 0.950 . S
C546 C547 1.386 . S
C546 C548 1.391 . S
C547 C546 1.386 . S
C547 C551 1.393 . S
C548 H537 0.950 . S
C548 C546 1.391 . S
C548 C549 1.400 . S
C549 C543 1.491 . S
C549 C548 1.400 . S
C549 C550 1.398 . S
C550 H538 0.950 . S
C550 C549 1.398 . S
C550 C551 1.391 . S
C551 H539 0.950 . S
C551 C547 1.393 . S
C551 C550 1.391 . S
H552 C560 0.950 . S
H553 C565 0.950 . S
H554 C562 0.950 . S
H555 C564 0.950 . S
H556 C566 0.950 . S
H557 C568 0.950 . S
H558 C570 0.950 . S
H559 C571 0.950 . S
C560 H552 0.950 . S
C560 C561 1.386 . S
C560 C562 1.391 . S
C561 C560 1.386 . S
C561 C565 1.393 . S
C562 H554 0.950 . S
C562 C560 1.391 . S
C562 C563 1.400 . S
C563 C562 1.400 . S
C563 C564 1.398 . S
C563 C569 1.491 . S
C564 H555 0.950 . S
C564 C563 1.398 . S
C564 C565 1.391 . S
C565 H553 0.950 . S
C565 C561 1.393 . S
C565 C564 1.391 . S
C566 H556 0.950 . S
C566 C567 1.386 . S
C566 C568 1.391 . S
C567 C566 1.386 . S
C567 C571 1.393 . S
C568 H557 0.950 . S
C568 C566 1.391 . S
C568 C569 1.400 . S
C569 C563 1.491 . S
C569 C568 1.400 . S
C569 C570 1.398 . S
C570 H558 0.950 . S
C570 C569 1.398 . S
C570 C571 1.391 . S
C571 H559 0.950 . S
C571 C567 1.393 . S
C571 C570 1.391 . S
H572 C580 0.950 . S
H573 C585 0.950 . S
H574 C582 0.950 . S
H575 C584 0.950 . S
H576 C586 0.950 . S
H577 C588 0.950 . S
H578 C590 0.950 . S
H579 C591 0.950 . S
C580 H572 0.950 . S
C580 C581 1.386 . S
C580 C582 1.391 . S
C581 C580 1.386 . S
C581 C585 1.393 . S
C582 H574 0.950 . S
C582 C580 1.391 . S
C582 C583 1.400 . S
C583 C582 1.400 . S
C583 C584 1.398 . S
C583 C589 1.491 . S
C584 H575 0.950 . S
C584 C583 1.398 . S
C584 C585 1.391 . S
C585 H573 0.950 . S
C585 C581 1.393 . S
C585 C584 1.391 . S
C586 H576 0.950 . S
C586 C587 1.386 . S
C586 C588 1.391 . S
C587 C586 1.386 . S
C587 C591 1.393 . S
C588 H577 0.950 . S
C588 C586 1.391 . S
C588 C589 1.400 . S
C589 C583 1.491 . S
C589 C588 1.400 . S
C589 C590 1.398 . S
C590 H578 0.950 . S
C590 C589 1.398 . S
C590 C591 1.391 . S
C591 H579 0.950 . S
C591 C587 1.393 . S
C591 C590 1.391 . S
H592 C600 0.950 . S
H593 C605 0.950 . S
H594 C602 0.950 . S
H595 C604 0.950 . S
H596 C606 0.950 . S
H597 C608 0.950 . S
H598 C610 0.950 . S
H599 C611 0.950 . S
C600 H592 0.950 . S
C600 C601 1.386 . S
C600 C602 1.391 . S
C601 C600 1.386 . S
C601 C605 1.393 1_545 S
C602 H594 0.950 . S
C602 C600 1.391 . S
C602 C603 1.400 . S
C603 C602 1.400 . S
C603 C604 1.398 1_545 S
C603 C609 1.491 1_645 S
C604 H595 0.950 . S
C604 C603 1.398 1_565 S
C604 C605 1.391 . S
C605 H593 0.950 . S
C605 C601 1.393 1_565 S
C605 C604 1.391 . S
C606 H596 0.950 . S
C606 C607 1.386 . S
C606 C608 1.391 . S
C607 C606 1.386 . S
C607 C611 1.393 1_565 S
C608 H597 0.950 . S
C608 C606 1.391 . S
C608 C609 1.400 . S
C609 C603 1.491 1_465 S
C609 C608 1.400 . S
C609 C610 1.398 1_565 S
C610 H598 0.950 . S
C610 C609 1.398 1_545 S
C610 C611 1.391 . S
C611 H599 0.950 . S
C611 C607 1.393 1_545 S
C611 C610 1.391 . S
H612 C620 0.950 . S
H613 C625 0.950 . S
H614 C622 0.950 . S
H615 C624 0.950 . S
H616 C626 0.950 . S
H617 C628 0.950 . S
H618 C630 0.950 . S
H619 C631 0.950 . S
C620 H612 0.950 . S
C620 C621 1.386 1_655 S
C620 C622 1.391 . S
C621 C620 1.386 1_455 S
C621 C625 1.393 . S
C622 H614 0.950 . S
C622 C620 1.391 . S
C622 C623 1.400 1_655 S
C623 C622 1.400 1_455 S
C623 C624 1.398 . S
C623 C629 1.491 1_445 S
C624 H615 0.950 . S
C624 C623 1.398 . S
C624 C625 1.391 . S
C625 H613 0.950 . S
C625 C621 1.393 . S
C625 C624 1.391 . S
C626 H616 0.950 . S
C626 C627 1.386 1_455 S
C626 C628 1.391 . S
C627 C626 1.386 1_655 S
C627 C631 1.393 . S
C628 H617 0.950 . S
C628 C626 1.391 . S
C628 C629 1.400 1_455 S
C629 C623 1.491 1_665 S
C629 C628 1.400 1_655 S
C629 C630 1.398 . S
C630 H618 0.950 . S
C630 C629 1.398 . S
C630 C631 1.391 . S
C631 H619 0.950 . S
C631 C627 1.393 . S
C631 C630 1.391 . S
H632 C640 0.950 . S
H633 C645 0.950 . S
H634 C642 0.950 . S
H635 C644 0.950 . S
H636 C646 0.950 . S
H637 C648 0.950 . S
H638 C650 0.950 . S
H639 C651 0.950 . S
C640 H632 0.950 . S
C640 C641 1.386 . S
C640 C642 1.391 . S
C641 C640 1.386 . S
C641 C645 1.393 . S
C642 H634 0.950 . S
C642 C640 1.391 . S
C642 C643 1.400 . S
C643 C642 1.400 . S
C643 C644 1.398 . S
C643 C649 1.491 . S
C644 H635 0.950 . S
C644 C643 1.398 . S
C644 C645 1.391 . S
C645 H633 0.950 . S
C645 C641 1.393 . S
C645 C644 1.391 . S
C646 H636 0.950 . S
C646 C647 1.386 . S
C646 C648 1.391 . S
C647 C646 1.386 . S
C647 C651 1.393 . S
C648 H637 0.950 . S
C648 C646 1.391 . S
C648 C649 1.400 . S
C649 C643 1.491 . S
C649 C648 1.400 . S
C649 C650 1.398 . S
C650 H638 0.950 . S
C650 C649 1.398 . S
C650 C651 1.391 . S
C651 H639 0.950 . S
C651 C647 1.393 . S
C651 C650 1.391 . S
H652 C660 0.950 . S
H653 C665 0.950 . S
H654 C662 0.950 . S
H655 C664 0.950 . S
H656 C666 0.950 . S
H657 C668 0.950 . S
H658 C670 0.950 . S
H659 C671 0.950 . S
C660 H652 0.950 . S
C660 C661 1.386 . S
C660 C662 1.391 . S
C661 C660 1.386 . S
C661 C665 1.393 . S
C662 H654 0.950 . S
C662 C660 1.391 . S
C662 C663 1.400 . S
C663 C662 1.400 . S
C663 C664 1.398 . S
C663 C669 1.491 . S
C664 H655 0.950 . S
C664 C663 1.398 . S
C664 C665 1.391 . S
C665 H653 0.950 . S
C665 C661 1.393 . S
C665 C664 1.391 . S
C666 H656 0.950 . S
C666 C667 1.386 . S
C666 C668 1.391 . S
C667 C666 1.386 . S
C667 C671 1.393 . S
C668 H657 0.950 . S
C668 C666 1.391 . S
C668 C669 1.400 . S
C669 C663 1.491 . S
C669 C668 1.400 . S
C669 C670 1.398 . S
C670 H658 0.950 . S
C670 C669 1.398 . S
C670 C671 1.391 . S
C671 H659 0.950 . S
C671 C667 1.393 . S
C671 C670 1.391 . S
H672 C680 0.950 . S
H673 C685 0.950 . S
H674 C682 0.950 . S
H675 C684 0.950 . S
H676 C686 0.950 . S
H677 C688 0.950 . S
H678 C690 0.950 . S
H679 C691 0.950 . S
C680 H672 0.950 . S
C680 C681 1.386 . S
C680 C682 1.391 . S
C681 C680 1.386 . S
C681 C685 1.393 . S
C682 H674 0.950 . S
C682 C680 1.391 . S
C682 C683 1.400 . S
C683 C682 1.400 . S
C683 C684 1.398 . S
C683 C689 1.491 . S
C684 H675 0.950 . S
C684 C683 1.398 . S
C684 C685 1.391 . S
C685 H673 0.950 . S
C685 C681 1.393 . S
C685 C684 1.391 . S
C686 H676 0.950 . S
C686 C687 1.386 . S
C686 C688 1.391 . S
C687 C686 1.386 . S
C687 C691 1.393 . S
C688 H677 0.950 . S
C688 C686 1.391 . S
C688 C689 1.400 . S
C689 C683 1.491 . S
C689 C688 1.400 . S
C689 C690 1.398 . S
C690 H678 0.950 . S
C690 C689 1.398 . S
C690 C691 1.391 . S
C691 H679 0.950 . S
C691 C687 1.393 . S
C691 C690 1.391 . S
H692 C700 0.950 . S
H693 C705 0.950 . S
H694 C702 0.950 . S
H695 C704 0.950 . S
H696 C706 0.950 . S
H697 C708 0.950 . S
H698 C710 0.950 . S
H699 C711 0.950 . S
C700 H692 0.950 . S
C700 C701 1.386 . S
C700 C702 1.391 . S
C701 C700 1.386 . S
C701 C705 1.393 . S
C702 H694 0.950 . S
C702 C700 1.391 . S
C702 C703 1.400 . S
C703 C702 1.400 . S
C703 C704 1.398 . S
C703 C709 1.491 . S
C704 H695 0.950 . S
C704 C703 1.398 . S
C704 C705 1.391 . S
C705 H693 0.950 . S
C705 C701 1.393 . S
C705 C704 1.391 . S
C706 H696 0.950 . S
C706 C707 1.386 . S
C706 C708 1.391 . S
C707 C706 1.386 . S
C707 C711 1.393 . S
C708 H697 0.950 . S
C708 C706 1.391 . S
C708 C709 1.400 . S
C709 C703 1.491 . S
C709 C708 1.400 . S
C709 C710 1.398 . S
C710 H698 0.950 . S
C710 C709 1.398 . S
C710 C711 1.391 . S
C711 H699 0.950 . S
C711 C707 1.393 . S
C711 C710 1.391 . S
H712 C720 0.950 . S
H713 C725 0.950 . S
H714 C722 0.950 . S
H715 C724 0.950 . S
H716 C726 0.950 . S
H717 C728 0.950 . S
H718 C730 0.950 . S
H719 C731 0.950 . S
C720 H712 0.950 . S
C720 C721 1.386 . S
C720 C722 1.391 . S
C721 C720 1.386 . S
C721 C725 1.393 . S
C722 H714 0.950 . S
C722 C720 1.391 . S
C722 C723 1.400 . S
C723 C722 1.400 . S
C723 C724 1.398 . S
C723 C729 1.491 . S
C724 H715 0.950 . S
C724 C723 1.398 . S
C724 C725 1.391 . S
C725 H713 0.950 . S
C725 C721 1.393 . S
C725 C724 1.391 . S
C726 H716 0.950 . S
C726 C727 1.386 . S
C726 C728 1.391 . S
C727 C726 1.386 . S
C727 C731 1.393 . S
C728 H717 0.950 . S
C728 C726 1.391 . S
C728 C729 1.400 . S
C729 C723 1.491 . S
C729 C728 1.400 . S
C729 C730 1.398 . S
C730 H718 0.950 . S
C730 C729 1.398 . S
C730 C731 1.391 . S
C731 H719 0.950 . S
C731 C727 1.393 . S
C731 C730 1.391 . S
H732 C740 0.950 . S
H733 C745 0.950 . S
H734 C742 0.950 . S
H735 C744 0.950 . S
H736 C746 0.950 . S
H737 C748 0.950 . S
H738 C750 0.950 . S
H739 C751 0.950 . S
C740 H732 0.950 . S
C740 C741 1.386 . S
C740 C742 1.391 . S
C741 C740 1.386 . S
C741 C745 1.393 . S
C742 H734 0.950 . S
C742 C740 1.391 . S
C742 C743 1.400 . S
C743 C742 1.400 . S
C743 C744 1.398 . S
C743 C749 1.491 . S
C744 H735 0.950 . S
C744 C743 1.398 . S
C744 C745 1.391 . S
C745 H733 0.950 . S
C745 C741 1.393 . S
C745 C744 1.391 . S
C746 H736 0.950 . S
C746 C747 1.386 . S
C746 C748 1.391 . S
C747 C746 1.386 . S
C747 C751 1.393 . S
C748 H737 0.950 . S
C748 C746 1.391 . S
C748 C749 1.400 . S
C749 C743 1.491 . S
C749 C748 1.400 . S
C749 C750 1.398 . S
C750 H738 0.950 . S
C750 C749 1.398 . S
C750 C751 1.391 . S
C751 H739 0.950 . S
C751 C747 1.393 . S
C751 C750 1.391 . S
H752 C760 0.950 . S
H753 C765 0.950 . S
H754 C762 0.950 . S
H755 C764 0.950 . S
H756 C766 0.950 . S
H757 C768 0.950 . S
H758 C770 0.950 . S
H759 C771 0.950 . S
C760 H752 0.950 . S
C760 C761 1.386 . S
C760 C762 1.391 . S
C761 C760 1.386 . S
C761 C765 1.393 . S
C762 H754 0.950 . S
C762 C760 1.391 . S
C762 C763 1.400 . S
C763 C762 1.400 . S
C763 C764 1.398 . S
C763 C769 1.491 . S
C764 H755 0.950 . S
C764 C763 1.398 . S
C764 C765 1.391 . S
C765 H753 0.950 . S
C765 C761 1.393 . S
C765 C764 1.391 . S
C766 H756 0.950 . S
C766 C767 1.386 . S
C766 C768 1.391 . S
C767 C766 1.386 . S
C767 C771 1.393 . S
C768 H757 0.950 . S
C768 C766 1.391 . S
C768 C769 1.400 . S
C769 C763 1.491 . S
C769 C768 1.400 . S
C769 C770 1.398 . S
C770 H758 0.950 . S
C770 C769 1.398 . S
C770 C771 1.391 . S
C771 H759 0.950 . S
C771 C767 1.393 . S
C771 C770 1.391 . S
H772 C780 0.950 . S
H773 C785 0.950 . S
H774 C782 0.950 . S
H775 C784 0.950 . S
H776 C786 0.950 . S
H777 C788 0.950 . S
H778 C790 0.950 . S
H779 C791 0.950 . S
C780 H772 0.950 . S
C780 C781 1.386 . S
C780 C782 1.391 . S
C781 C780 1.386 . S
C781 C785 1.393 . S
C782 H774 0.950 . S
C782 C780 1.391 . S
C782 C783 1.400 . S
C783 C782 1.400 . S
C783 C784 1.398 . S
C783 C789 1.491 . S
C784 H775 0.950 . S
C784 C783 1.398 . S
C784 C785 1.391 . S
C785 H773 0.950 . S
C785 C781 1.393 . S
C785 C784 1.391 . S
C786 H776 0.950 . S
C786 C787 1.386 . S
C786 C788 1.391 . S
C787 C786 1.386 . S
C787 C791 1.393 . S
C788 H777 0.950 . S
C788 C786 1.391 . S
C788 C789 1.400 . S
C789 C783 1.491 . S
C789 C788 1.400 . S
C789 C790 1.398 . S
C790 H778 0.950 . S
C790 C789 1.398 . S
C790 C791 1.391 . S
C791 H779 0.950 . S
C791 C787 1.393 . S
C791 C790 1.391 . S
C241 C10 2.350 . S
C247 C158 2.211 . S
C261 C39 2.347 . S
C267 C187 2.199 . S
C281 C216 2.203 . S
C287 C68 2.349 . S
C301 C129 2.200 . S
C307 C97 2.334 . S
C321 C126 2.350 . S
C327 C100 2.206 . S
C341 C155 2.350 . S
C347 C13 2.209 . S
C361 C184 2.350 . S
C367 C42 2.211 . S
C381 C213 2.350 . S
C387 C71 2.215 . S
C401 C108 0.596 . S
C407 C8 0.779 . S
C421 C21 0.559 . S
C427 C37 0.732 . S
C441 C50 0.605 . S
C447 C66 0.787 . S
C461 C95 0.783 . S
C467 C79 0.601 . S
C481 C124 0.781 . S
C487 C166 0.607 . S
C501 C153 0.798 . S
C507 C195 0.618 . S
C521 C182 0.801 . S
C527 C224 0.623 . S
C541 C137 0.586 . S
C547 C211 0.770 . S
C561 C5 2.850 . S
C567 C63 2.861 . S
C581 C34 2.861 . S
C587 C92 2.850 . S
C601 C121 2.855 . S
C607 C179 2.862 . S
C621 C150 2.852 . S
C627 C208 2.862 . S
C641 C177 1.484 . S
C647 C15 1.499 . S
C661 C44 1.499 . S
C667 C206 1.488 . S
C681 C73 1.486 . S
C687 C119 1.496 . S
C701 C148 1.494 . S
C707 C102 1.485 . S
C721 C131 1.484 . S
C727 C61 1.492 . S
C741 C90 1.497 . S
C747 C160 1.492 . S
C761 C189 1.484 . S
C767 C3 1.493 . S
C781 C32 1.488 . S
C787 C218 1.486 . S
