# Generated by pormake.
# Topology atn, (4)-cn, num edge types: 1
# Building blocks:
#     Node 0, Type 0, BuildingBlock: CEKHIL_clean_sbu_0, # of connection points: 4
#     Node 1, Type 0, BuildingBlock: CEKHIL_clean_sbu_0, # of connection points: 4
#     Node 2, Type 0, BuildingBlock: CEKHIL_clean_sbu_0, # of connection points: 4
#     Node 3, Type 0, BuildingBlock: CEKHIL_clean_sbu_0, # of connection points: 4
#     Node 4, Type 0, BuildingBlock: CEKHIL_clean_sbu_0, # of connection points: 4
#     Node 5, Type 0, BuildingBlock: CEKHIL_clean_sbu_0, # of connection points: 4
#     Node 6, Type 0, BuildingBlock: CEKHIL_clean_sbu_0, # of connection points: 4
#     Node 7, Type 0, BuildingBlock: CEKHIL_clean_sbu_0, # of connection points: 4
#     Node 8, Type 0, BuildingBlock: CEKHIL_clean_sbu_0, # of connection points: 4
#     Node 9, Type 0, BuildingBlock: CEKHIL_clean_sbu_0, # of connection points: 4
#     Node 10, Type 0, BuildingBlock: CEKHIL_clean_sbu_0, # of connection points: 4
#     Node 11, Type 0, BuildingBlock: CEKHIL_clean_sbu_0, # of connection points: 4
#     Node 12, Type 0, BuildingBlock: CEKHIL_clean_sbu_0, # of connection points: 4
#     Node 13, Type 0, BuildingBlock: CEKHIL_clean_sbu_0, # of connection points: 4
#     Node 14, Type 0, BuildingBlock: CEKHIL_clean_sbu_0, # of connection points: 4
#     Node 15, Type 0, BuildingBlock: CEKHIL_clean_sbu_0, # of connection points: 4
#     Edge 16, Type (0, 0), BuildingBlock: EYOCIG_clean_linker_4, # of connection points: 2
#     Edge 17, Type (0, 0), BuildingBlock: EYOCIG_clean_linker_4, # of connection points: 2
#     Edge 18, Type (0, 0), BuildingBlock: EYOCIG_clean_linker_4, # of connection points: 2
#     Edge 19, Type (0, 0), BuildingBlock: EYOCIG_clean_linker_4, # of connection points: 2
#     Edge 20, Type (0, 0), BuildingBlock: EYOCIG_clean_linker_4, # of connection points: 2
#     Edge 21, Type (0, 0), BuildingBlock: EYOCIG_clean_linker_4, # of connection points: 2
#     Edge 22, Type (0, 0), BuildingBlock: EYOCIG_clean_linker_4, # of connection points: 2
#     Edge 23, Type (0, 0), BuildingBlock: EYOCIG_clean_linker_4, # of connection points: 2
#     Edge 24, Type (0, 0), BuildingBlock: EYOCIG_clean_linker_4, # of connection points: 2
#     Edge 25, Type (0, 0), BuildingBlock: EYOCIG_clean_linker_4, # of connection points: 2
#     Edge 26, Type (0, 0), BuildingBlock: EYOCIG_clean_linker_4, # of connection points: 2
#     Edge 27, Type (0, 0), BuildingBlock: EYOCIG_clean_linker_4, # of connection points: 2
#     Edge 28, Type (0, 0), BuildingBlock: EYOCIG_clean_linker_4, # of connection points: 2
#     Edge 29, Type (0, 0), BuildingBlock: EYOCIG_clean_linker_4, # of connection points: 2
#     Edge 30, Type (0, 0), BuildingBlock: EYOCIG_clean_linker_4, # of connection points: 2
#     Edge 31, Type (0, 0), BuildingBlock: EYOCIG_clean_linker_4, # of connection points: 2
#     Edge 32, Type (0, 0), BuildingBlock: EYOCIG_clean_linker_4, # of connection points: 2
#     Edge 33, Type (0, 0), BuildingBlock: EYOCIG_clean_linker_4, # of connection points: 2
#     Edge 34, Type (0, 0), BuildingBlock: EYOCIG_clean_linker_4, # of connection points: 2
#     Edge 35, Type (0, 0), BuildingBlock: EYOCIG_clean_linker_4, # of connection points: 2
#     Edge 36, Type (0, 0), BuildingBlock: EYOCIG_clean_linker_4, # of connection points: 2
#     Edge 37, Type (0, 0), BuildingBlock: EYOCIG_clean_linker_4, # of connection points: 2
#     Edge 38, Type (0, 0), BuildingBlock: EYOCIG_clean_linker_4, # of connection points: 2
#     Edge 39, Type (0, 0), BuildingBlock: EYOCIG_clean_linker_4, # of connection points: 2
#     Edge 40, Type (0, 0), BuildingBlock: EYOCIG_clean_linker_4, # of connection points: 2
#     Edge 41, Type (0, 0), BuildingBlock: EYOCIG_clean_linker_4, # of connection points: 2
#     Edge 42, Type (0, 0), BuildingBlock: EYOCIG_clean_linker_4, # of connection points: 2
#     Edge 43, Type (0, 0), BuildingBlock: EYOCIG_clean_linker_4, # of connection points: 2
#     Edge 44, Type (0, 0), BuildingBlock: EYOCIG_clean_linker_4, # of connection points: 2
#     Edge 45, Type (0, 0), BuildingBlock: EYOCIG_clean_linker_4, # of connection points: 2
#     Edge 46, Type (0, 0), BuildingBlock: EYOCIG_clean_linker_4, # of connection points: 2
#     Edge 47, Type (0, 0), BuildingBlock: EYOCIG_clean_linker_4, # of connection points: 2
# Relax obj value: 0.034
# Max RMSD: 0.063
# Mean RMSD: 0.063
data_MOF--net-atn--node1-CEKHIL_clean_sbu_0--edge1-EYOCIG_clean_linker_4
_symmetry_space_group_name_H-M    P1
_symmetry_Int_Tables_number       1
_symmetry_cell_setting            triclinic
loop_
_symmetry_equiv_pos_as_xyz
'x, y, z'
_cell_length_a     47.049213
_cell_length_b     47.040051
_cell_length_c     21.436979
_cell_angle_alpha  90.022491
_cell_angle_beta   89.940901
_cell_angle_gamma 90.033776
loop_
_atom_site_label
_atom_site_type_symbol
_atom_site_fract_x
_atom_site_fract_y
_atom_site_fract_z
_atom_type_partial_charge
Co0 Co 0.19844 0.38741 0.98448 0.0
O1 O 0.17392 0.42023 0.98299 0.0
O2 O 0.21986 0.42098 0.00649 0.0
C3 C 0.18332 0.37045 0.89147 0.0
O4 O 0.23119 0.35878 0.98889 0.0
Co5 Co 0.17455 0.32642 0.98628 0.0
O6 O 0.21459 0.31392 0.98911 0.0
C7 C 0.17275 0.36102 0.1003 0.0
C8 C 0.19635 0.43481 -0.00262 0.0
C9 C 0.2349 0.3317 0.99094 0.0
O10 O 0.18842 0.38018 0.07485 0.0
O11 O 0.16296 0.33944 0.07133 0.0
O12 O 0.20283 0.38984 0.89428 0.0
O13 O 0.17224 0.36282 0.94409 0.0
Co14 Co 0.62424 0.19882 0.98443 0.0
O15 O 0.59131 0.17439 0.98482 0.0
O16 O 0.59092 0.22052 0.00669 0.0
C17 C 0.64106 0.18318 0.89175 0.0
O18 O 0.65296 0.23148 0.98674 0.0
Co19 Co 0.68528 0.17453 0.98591 0.0
O20 O 0.69774 0.21465 0.98699 0.0
C21 C 0.65095 0.1737 0.10028 0.0
C22 C 0.57693 0.19698 -0.00094 0.0
C23 C 0.68006 0.23505 0.98803 0.0
O24 O 0.63195 0.18955 0.07492 0.0
O25 O 0.67217 0.16332 0.07106 0.0
O26 O 0.62145 0.20249 0.89409 0.0
O27 O 0.64871 0.17242 0.94457 0.0
Co28 Co 0.81233 0.62422 0.98461 0.0
O29 O 0.83684 0.59142 0.98389 0.0
O30 O 0.79089 0.59085 0.0077 0.0
C31 C 0.82714 0.64101 0.8912 0.0
O32 O 0.77968 0.65282 0.9884 0.0
Co33 Co 0.83654 0.68524 0.98528 0.0
O34 O 0.79644 0.69764 0.98795 0.0
C35 C 0.83812 0.6511 0.09976 0.0
C36 C 0.81441 0.57696 -0.00096 0.0
C37 C 0.77609 0.67991 0.9899 0.0
O38 O 0.82231 0.63193 0.07475 0.0
O39 O 0.84814 0.67243 0.07034 0.0
O40 O 0.80787 0.62138 0.89444 0.0
O41 O 0.83837 0.64871 0.94356 0.0
Co42 Co 0.38736 0.8126 0.98406 0.0
O43 O 0.42031 0.83697 0.98314 0.0
O44 O 0.42068 0.79098 0.00647 0.0
C45 C 0.37074 0.82771 0.89082 0.0
O46 O 0.35858 0.77997 0.98763 0.0
Co47 Co 0.32651 0.83682 0.98518 0.0
O48 O 0.31383 0.79678 0.9867 0.0
C49 C 0.36064 0.83832 0.09968 0.0
C50 C 0.4347 0.81441 -0.00252 0.0
C51 C 0.33148 0.77638 0.9886 0.0
O52 O 0.37979 0.82255 0.07443 0.0
O53 O 0.33927 0.8483 0.0704 0.0
O54 O 0.39012 0.80822 0.89391 0.0
O55 O 0.36303 0.83887 0.94331 0.0
Co56 Co 0.19841 0.62429 0.01458 0.0
O57 O 0.17373 0.59157 0.01567 0.0
O58 O 0.21973 0.59067 0.99251 0.0
C59 C 0.18325 0.64143 0.10741 0.0
O60 O 0.23124 0.65285 0.0105 0.0
Co61 Co 0.17455 0.68539 0.01254 0.0
O62 O 0.21468 0.69773 0.0103 0.0
C63 C 0.17282 0.65061 0.8988 0.0
C64 C 0.1961 0.57693 0.00108 0.0
C65 C 0.23496 0.67993 0.00863 0.0
O66 O 0.18864 0.63158 0.92419 0.0
O67 O 0.16289 0.67212 0.92777 0.0
O68 O 0.20258 0.62185 0.10486 0.0
O69 O 0.1723 0.649 0.0547 0.0
Co70 Co 0.38738 0.19913 0.01563 0.0
O71 O 0.42009 0.17447 0.01681 0.0
O72 O 0.42109 0.22054 0.99449 0.0
C73 C 0.36995 0.18394 0.10803 0.0
O74 O 0.35872 0.23184 0.01209 0.0
Co75 Co 0.32643 0.17477 0.0122 0.0
O76 O 0.31396 0.21487 0.01213 0.0
C77 C 0.36124 0.17424 0.89846 0.0
C78 C 0.4348 0.19691 0.00315 0.0
C79 C 0.33159 0.23533 0.01096 0.0
O80 O 0.38031 0.18971 0.92483 0.0
O81 O 0.33967 0.16404 0.92679 0.0
O82 O 0.38963 0.20318 0.10588 0.0
O83 O 0.36261 0.1729 0.0552 0.0
Co84 Co 0.81235 0.38759 0.0154 0.0
O85 O 0.83658 0.42061 0.01676 0.0
O86 O 0.79057 0.42089 0.99363 0.0
C87 C 0.82763 0.37074 0.10827 0.0
O88 O 0.77995 0.35865 0.01117 0.0
Co89 Co 0.83704 0.32688 0.01327 0.0
O90 O 0.79709 0.314 0.01029 0.0
C91 C 0.83744 0.36117 0.89878 0.0
C92 C 0.81398 0.43495 0.00261 0.0
C93 C 0.77659 0.33154 0.00877 0.0
O94 O 0.82212 0.38044 0.92487 0.0
O95 O 0.84752 0.33966 0.92741 0.0
O96 O 0.80801 0.38999 0.10559 0.0
O97 O 0.83881 0.36327 0.05563 0.0
Co98 Co 0.62406 0.81238 0.01506 0.0
O99 O 0.59123 0.83687 0.01541 0.0
O100 O 0.59064 0.79074 0.99334 0.0
C101 C 0.64122 0.82783 0.10754 0.0
O102 O 0.65271 0.77976 0.01197 0.0
Co103 Co 0.68506 0.83677 0.0123 0.0
O104 O 0.69749 0.79665 0.01112 0.0
C105 C 0.65048 0.83725 0.89837 0.0
C106 C 0.57676 0.81432 0.00123 0.0
C107 C 0.6798 0.77623 0.01019 0.0
O108 O 0.63144 0.82163 0.9244 0.0
O109 O 0.67188 0.84758 0.92699 0.0
O110 O 0.62155 0.80857 0.10541 0.0
O111 O 0.64868 0.83872 0.05466 0.0
Co112 Co 0.69878 0.88731 0.48387 0.0
O113 O 0.67418 0.92006 0.483 0.0
O114 O 0.72017 0.92086 0.50607 0.0
C115 C 0.68389 0.8703 0.39087 0.0
O116 O 0.73145 0.85863 0.48733 0.0
Co117 Co 0.67437 0.82632 0.48551 0.0
O118 O 0.71446 0.81388 0.48659 0.0
C119 C 0.67345 0.8606 0.59995 0.0
C120 C 0.69661 0.93467 0.49723 0.0
C121 C 0.73492 0.8315 0.48828 0.0
O122 O 0.68905 0.87979 0.57433 0.0
O123 O 0.6633 0.83922 0.57092 0.0
O124 O 0.70312 0.88997 0.3937 0.0
O125 O 0.67269 0.86274 0.44339 0.0
Co126 Co 0.12387 0.69894 0.48421 0.0
O127 O 0.09125 0.67419 0.48244 0.0
O128 O 0.09019 0.72015 0.50609 0.0
C129 C 0.14112 0.68416 0.39124 0.0
O130 O 0.15239 0.73177 0.48871 0.0
Co131 Co 0.18476 0.67499 0.48701 0.0
O132 O 0.19721 0.71509 0.48864 0.0
C133 C 0.14998 0.67347 0.60066 0.0
C134 C 0.07653 0.69652 0.49686 0.0
C135 C 0.17948 0.73543 0.49029 0.0
O136 O 0.13091 0.68903 0.57469 0.0
O137 O 0.17165 0.66364 0.57215 0.0
O138 O 0.12155 0.70347 0.3941 0.0
O139 O 0.14861 0.67292 0.44377 0.0
Co140 Co 0.31244 0.12434 0.48431 0.0
O141 O 0.33688 0.09146 0.48272 0.0
O142 O 0.29092 0.09086 0.50633 0.0
C143 C 0.32735 0.14149 0.3914 0.0
O144 O 0.2798 0.15298 0.4887 0.0
Co145 Co 0.33665 0.18541 0.48597 0.0
O146 O 0.29654 0.1978 0.48858 0.0
C147 C 0.33804 0.1509 0.60011 0.0
C148 C 0.31438 0.07695 0.49707 0.0
C149 C 0.2762 0.18006 0.49048 0.0
O150 O 0.3224 0.13168 0.5747 0.0
O151 O 0.348 0.17236 0.57102 0.0
O152 O 0.30801 0.12191 0.39412 0.0
O153 O 0.33854 0.14897 0.44393 0.0
Co154 Co 0.88715 0.31272 0.48411 0.0
O155 O 0.92019 0.33691 0.48409 0.0
O156 O 0.92039 0.29077 0.50588 0.0
C157 C 0.87062 0.32863 0.3915 0.0
O158 O 0.85807 0.28038 0.48673 0.0
Co159 Co 0.82642 0.33766 0.4857 0.0
O160 O 0.81348 0.29771 0.48708 0.0
C161 C 0.8606 0.33792 0.60028 0.0
C162 C 0.93448 0.31424 0.49787 0.0
C163 C 0.83093 0.27712 0.48821 0.0
O164 O 0.8796 0.32208 0.57471 0.0
O165 O 0.83943 0.34841 0.57118 0.0
O166 O 0.88988 0.30898 0.39378 0.0
O167 O 0.86303 0.33943 0.44437 0.0
Co168 Co 0.69893 0.12403 0.51498 0.0
O169 O 0.6745 0.09116 0.51576 0.0
O170 O 0.72047 0.09065 0.49228 0.0
C171 C 0.68398 0.14087 0.60822 0.0
O172 O 0.73135 0.15298 0.51107 0.0
Co173 Co 0.67393 0.18471 0.51334 0.0
O174 O 0.7139 0.19755 0.51048 0.0
C175 C 0.67377 0.15059 0.39868 0.0
C176 C 0.69693 0.07673 0.50076 0.0
C177 C 0.73452 0.18013 0.50894 0.0
O178 O 0.68922 0.13144 0.42463 0.0
O179 O 0.66349 0.17198 0.42744 0.0
O180 O 0.70336 0.12137 0.60514 0.0
O181 O 0.67268 0.14835 0.5558 0.0
Co182 Co 0.88723 0.69885 0.51503 0.0
O183 O 0.91991 0.67421 0.51598 0.0
O184 O 0.92086 0.72027 0.49339 0.0
C185 C 0.86987 0.68364 0.60764 0.0
O186 O 0.8585 0.73145 0.51107 0.0
Co187 Co 0.82637 0.67421 0.51187 0.0
O188 O 0.81382 0.71427 0.50948 0.0
C189 C 0.86116 0.67389 0.39808 0.0
C190 C 0.93456 0.6966 0.50161 0.0
C191 C 0.83139 0.7348 0.50849 0.0
O192 O 0.88017 0.68941 0.42441 0.0
O193 O 0.83964 0.6636 0.42641 0.0
O194 O 0.8895 0.70293 0.60537 0.0
O195 O 0.86256 0.67259 0.55482 0.0
Co196 Co 0.31243 0.88751 0.51506 0.0
O197 O 0.33683 0.92044 0.51521 0.0
O198 O 0.29066 0.92089 0.49382 0.0
C199 C 0.32833 0.87048 0.60736 0.0
O200 O 0.27981 0.85874 0.51223 0.0
Co201 Co 0.33671 0.82666 0.51172 0.0
O202 O 0.29667 0.81399 0.51063 0.0
C203 C 0.33729 0.86143 0.39802 0.0
C204 C 0.31422 0.93485 0.50141 0.0
C205 C 0.27625 0.83164 0.51012 0.0
O206 O 0.32157 0.88033 0.42423 0.0
O207 O 0.34761 0.83999 0.42647 0.0
O208 O 0.30886 0.88992 0.60548 0.0
O209 O 0.33902 0.863 0.55425 0.0
Co210 Co 0.12386 0.31248 0.51519 0.0
O211 O 0.09077 0.33661 0.51592 0.0
O212 O 0.09067 0.29051 0.49352 0.0
C213 C 0.14071 0.32816 0.6078 0.0
O214 O 0.15274 0.28 0.51187 0.0
Co215 Co 0.18457 0.33689 0.51225 0.0
O216 O 0.19746 0.29693 0.51146 0.0
C217 C 0.14991 0.33783 0.39853 0.0
C218 C 0.07653 0.3139 0.50184 0.0
C219 C 0.17983 0.27648 0.5104 0.0
O220 O 0.131 0.32204 0.42453 0.0
O221 O 0.17141 0.348 0.42706 0.0
O222 O 0.12142 0.30854 0.60544 0.0
O223 O 0.14822 0.33911 0.55495 0.0
C224 C 0.19444 0.52087 -0.00218 0.0
C225 C 0.19512 0.54647 -0.00066 0.0
C226 C 0.19465 0.49088 -0.00147 0.0
C227 C 0.19556 0.46529 -0.00192 0.0
C228 C 0.49088 0.19532 0.00218 0.0
C229 C 0.46528 0.196 0.00264 0.0
C230 C 0.52087 0.19548 0.00283 0.0
C231 C 0.54646 0.19631 0.00118 0.0
C232 C 0.8153 0.49098 0.00176 0.0
C233 C 0.8145 0.4654 0.00205 0.0
C234 C 0.8156 0.52095 0.00258 0.0
C235 C 0.81513 0.54653 0.00093 0.0
C236 C 0.52073 0.81559 -0.00252 0.0
C237 C 0.54631 0.81504 -0.0008 0.0
C238 C 0.49076 0.81553 -0.00182 0.0
C239 C 0.46516 0.81492 -0.00209 0.0
C240 C 0.69497 0.02071 0.49701 0.0
C241 C 0.69605 0.04628 0.49862 0.0
C242 C 0.69488 0.99073 0.49793 0.0
C243 C 0.6958 0.96514 0.49768 0.0
C244 C 0.99055 0.69492 0.49774 0.0
C245 C 0.96498 0.69559 0.49955 0.0
C246 C 0.02051 0.69489 0.49813 0.0
C247 C 0.0461 0.69555 0.49751 0.0
C248 C 0.31535 0.02087 0.49807 0.0
C249 C 0.31494 0.04648 0.4976 0.0
C250 C 0.31534 0.99089 0.49759 0.0
C251 C 0.31487 0.9653 0.49935 0.0
C252 C 0.0205 0.31477 0.49956 0.0
C253 C 0.04609 0.31424 0.50053 0.0
C254 C 0.99053 0.31495 0.50018 0.0
C255 C 0.96494 0.31471 0.49909 0.0
C256 C 0.28436 0.30595 0.00025 0.0
C257 C 0.26316 0.32027 0.99602 0.0
C258 C 0.30557 0.28474 0.00464 0.0
C259 C 0.31995 0.26354 0.00757 0.0
C260 C 0.72725 0.3056 -0.00086 0.0
C261 C 0.74847 0.31986 0.00357 0.0
C262 C 0.70597 0.28448 0.99453 0.0
C263 C 0.6916 0.26329 0.9915 0.0
C264 C 0.72662 0.70555 -0.00173 0.0
C265 C 0.74787 0.69133 0.99448 0.0
C266 C 0.70548 0.72675 0.00275 0.0
C267 C 0.69128 0.74802 0.00622 0.0
C268 C 0.28447 0.70562 -0.0002 0.0
C269 C 0.26323 0.69133 0.00383 0.0
C270 C 0.30565 0.72687 0.99548 0.0
C271 C 0.31993 0.74814 0.99237 0.0
C272 C 0.80533 0.78408 0.49942 0.0
C273 C 0.81968 0.76292 0.50363 0.0
C274 C 0.78421 0.80535 0.49496 0.0
C275 C 0.76309 0.81983 0.49192 0.0
C276 C 0.22669 0.80593 0.50277 0.0
C277 C 0.24801 0.82012 0.50624 0.0
C278 C 0.20536 0.78485 0.49834 0.0
C279 C 0.19097 0.76368 0.49467 0.0
C280 C 0.22674 0.20574 0.49928 0.0
C281 C 0.24797 0.19149 0.49529 0.0
C282 C 0.20559 0.22696 0.50364 0.0
C283 C 0.19136 0.24825 0.50678 0.0
C284 C 0.80473 0.22782 0.49526 0.0
C285 C 0.81911 0.24901 0.49199 0.0
C286 C 0.78361 0.20655 0.49985 0.0
C287 C 0.76255 0.19204 0.50402 0.0
C288 C 0.15136 0.3512 0.2799 0.0
C289 C 0.14822 0.34373 0.33316 0.0
C290 C 0.15906 0.35903 0.21875 0.0
C291 C 0.16662 0.36241 0.16561 0.0
C292 C 0.66138 0.15282 0.27977 0.0
C293 C 0.66842 0.1493 0.33312 0.0
C294 C 0.65354 0.1607 0.21884 0.0
C295 C 0.64985 0.16805 0.16573 0.0
C296 C 0.85939 0.66141 0.27916 0.0
C297 C 0.86274 0.66851 0.33255 0.0
C298 C 0.85156 0.65362 0.21815 0.0
C299 C 0.84409 0.65002 0.16509 0.0
C300 C 0.35023 0.8597 0.2792 0.0
C301 C 0.34291 0.86302 0.33251 0.0
C302 C 0.35815 0.85187 0.21816 0.0
C303 C 0.36177 0.84434 0.16507 0.0
C304 C 0.1514 0.66009 0.71927 0.0
C305 C 0.14827 0.66752 0.666 0.0
C306 C 0.15911 0.65237 0.78043 0.0
C307 C 0.16669 0.64911 0.83354 0.0
C308 C 0.35132 0.15358 0.71862 0.0
C309 C 0.34388 0.1498 0.66555 0.0
C310 C 0.35923 0.16157 0.77954 0.0
C311 C 0.36275 0.16877 0.83287 0.0
C312 C 0.84999 0.35874 0.77989 0.0
C313 C 0.84287 0.36242 0.8332 0.0
C314 C 0.8579 0.35077 0.71897 0.0
C315 C 0.86166 0.34347 0.66581 0.0
C316 C 0.65271 0.84993 0.77957 0.0
C317 C 0.64914 0.84272 0.83284 0.0
C318 C 0.66059 0.85792 0.71866 0.0
C319 C 0.66786 0.86169 0.66548 0.0
C320 C 0.85185 0.66627 0.71826 0.0
C321 C 0.85927 0.67332 0.66651 0.0
C322 C 0.84415 0.6586 0.77997 0.0
C323 C 0.83719 0.65131 0.83186 0.0
C324 C 0.34664 0.85321 0.71775 0.0
C325 C 0.3392 0.86026 0.66604 0.0
C326 C 0.35421 0.84555 0.77951 0.0
C327 C 0.36099 0.83825 0.83149 0.0
C328 C 0.15736 0.3465 0.71864 0.0
C329 C 0.15057 0.33904 0.66677 0.0
C330 C 0.165 0.35404 0.78044 0.0
C331 C 0.1725 0.36076 0.83232 0.0
C332 C 0.65898 0.16565 0.78123 0.0
C333 C 0.6516 0.1728 0.83292 0.0
C334 C 0.66671 0.15807 0.71951 0.0
C335 C 0.67375 0.15098 0.66754 0.0
C336 C 0.85348 0.34675 0.28098 0.0
C337 C 0.86051 0.33936 0.33269 0.0
C338 C 0.84575 0.35424 0.21928 0.0
C339 C 0.83836 0.36099 0.16738 0.0
C340 C 0.65939 0.84504 0.21803 0.0
C341 C 0.65193 0.83808 0.1663 0.0
C342 C 0.66701 0.8526 0.27978 0.0
C343 C 0.67385 0.85987 0.33171 0.0
C344 C 0.1579 0.66646 0.27996 0.0
C345 C 0.15104 0.67366 0.33197 0.0
C346 C 0.16542 0.6588 0.21816 0.0
C347 C 0.1727 0.65165 0.16638 0.0
C348 C 0.34441 0.15929 0.28051 0.0
C349 C 0.33749 0.15196 0.33236 0.0
C350 C 0.35197 0.16683 0.21872 0.0
C351 C 0.35932 0.17371 0.16685 0.0
loop_
_geom_bond_atom_site_label_1
_geom_bond_atom_site_label_2
_geom_bond_distance
_geom_bond_site_symmetry_2
_ccdc_geom_bond_type
Co0 O1 2.216 . S
Co0 O2 2.091 1_556 S
Co0 O4 2.004 . S
Co0 O10 2.021 1_556 S
Co0 O12 2.137 . S
Co0 O13 2.244 . S
O1 Co0 2.216 . S
O1 C8 1.247 1_556 S
O2 Co0 2.091 1_554 S
O2 C8 1.261 . S
C3 O12 1.247 . S
C3 O13 1.272 . S
O4 Co0 2.004 . S
O4 C9 1.260 . S
Co5 O6 2.061 . S
Co5 O11 2.052 . S
Co5 O13 2.135 1_554 S
O6 Co5 2.061 . S
O6 C9 1.234 1_554 S
C7 O10 1.238 . S
C7 O11 1.241 . S
C8 O1 1.247 1_554 S
C8 O2 1.261 . S
C9 O4 1.260 . S
C9 O6 1.234 1_556 S
O10 Co0 2.021 1_554 S
O10 C7 1.238 . S
O11 Co5 2.052 . S
O11 C7 1.241 . S
O12 Co0 2.137 . S
O12 C3 1.247 . S
O13 Co0 2.244 . S
O13 C3 1.272 . S
O13 Co5 2.135 1_556 S
Co14 O15 2.216 . S
Co14 O16 2.091 1_556 S
Co14 O18 2.004 . S
Co14 O24 2.021 1_556 S
Co14 O26 2.137 . S
Co14 O27 2.244 . S
O15 Co14 2.216 . S
O15 C22 1.247 1_556 S
O16 Co14 2.091 1_554 S
O16 C22 1.261 . S
C17 O26 1.247 . S
C17 O27 1.272 . S
O18 Co14 2.004 . S
O18 C23 1.260 . S
Co19 O20 2.061 . S
Co19 O25 2.052 . S
Co19 O27 2.135 1_554 S
O20 Co19 2.061 . S
O20 C23 1.234 1_554 S
C21 O24 1.238 . S
C21 O25 1.241 . S
C22 O15 1.247 1_554 S
C22 O16 1.261 . S
C23 O18 1.260 . S
C23 O20 1.234 1_556 S
O24 Co14 2.021 1_554 S
O24 C21 1.238 . S
O25 Co19 2.052 . S
O25 C21 1.241 . S
O26 Co14 2.137 . S
O26 C17 1.247 . S
O27 Co14 2.244 . S
O27 C17 1.272 . S
O27 Co19 2.135 1_556 S
Co28 O29 2.216 . S
Co28 O30 2.091 1_556 S
Co28 O32 2.004 . S
Co28 O38 2.021 1_556 S
Co28 O40 2.137 . S
Co28 O41 2.244 . S
O29 Co28 2.216 . S
O29 C36 1.247 1_556 S
O30 Co28 2.091 1_554 S
O30 C36 1.261 . S
C31 O40 1.247 . S
C31 O41 1.272 . S
O32 Co28 2.004 . S
O32 C37 1.260 . S
Co33 O34 2.061 . S
Co33 O39 2.052 . S
Co33 O41 2.135 1_554 S
O34 Co33 2.061 . S
O34 C37 1.234 1_554 S
C35 O38 1.238 . S
C35 O39 1.241 . S
C36 O29 1.247 1_554 S
C36 O30 1.261 . S
C37 O32 1.260 . S
C37 O34 1.234 1_556 S
O38 Co28 2.021 1_554 S
O38 C35 1.238 . S
O39 Co33 2.052 . S
O39 C35 1.241 . S
O40 Co28 2.137 . S
O40 C31 1.247 . S
O41 Co28 2.244 . S
O41 C31 1.272 . S
O41 Co33 2.135 1_556 S
Co42 O43 2.216 . S
Co42 O44 2.091 1_556 S
Co42 O46 2.004 . S
Co42 O52 2.021 1_556 S
Co42 O54 2.137 . S
Co42 O55 2.244 . S
O43 Co42 2.216 . S
O43 C50 1.247 1_556 S
O44 Co42 2.091 1_554 S
O44 C50 1.261 . S
C45 O54 1.247 . S
C45 O55 1.272 . S
O46 Co42 2.004 . S
O46 C51 1.260 . S
Co47 O48 2.061 . S
Co47 O53 2.052 . S
Co47 O55 2.135 1_554 S
O48 Co47 2.061 . S
O48 C51 1.234 1_554 S
C49 O52 1.238 . S
C49 O53 1.241 . S
C50 O43 1.247 1_554 S
C50 O44 1.261 . S
C51 O46 1.260 . S
C51 O48 1.234 1_556 S
O52 Co42 2.021 1_554 S
O52 C49 1.238 . S
O53 Co47 2.052 . S
O53 C49 1.241 . S
O54 Co42 2.137 . S
O54 C45 1.247 . S
O55 Co42 2.244 . S
O55 C45 1.272 . S
O55 Co47 2.135 1_556 S
Co56 O57 2.216 . S
Co56 O58 2.091 . S
Co56 O60 2.004 . S
Co56 O66 2.021 1_554 S
Co56 O68 2.137 . S
Co56 O69 2.244 . S
O57 Co56 2.216 . S
O57 C64 1.247 . S
O58 Co56 2.091 . S
O58 C64 1.261 . S
C59 O68 1.247 . S
C59 O69 1.272 . S
O60 Co56 2.004 . S
O60 C65 1.259 . S
Co61 O62 2.061 1_554 S
Co61 O67 2.052 1_554 S
Co61 O69 2.135 . S
O62 Co61 2.061 1_556 S
O62 C65 1.233 1_556 S
C63 O66 1.238 . S
C63 O67 1.241 . S
C64 O57 1.247 . S
C64 O58 1.261 . S
C65 O60 1.259 . S
C65 O62 1.233 1_554 S
O66 Co56 2.021 1_556 S
O66 C63 1.238 . S
O67 Co61 2.052 1_556 S
O67 C63 1.241 . S
O68 Co56 2.137 . S
O68 C59 1.247 . S
O69 Co56 2.244 . S
O69 C59 1.272 . S
O69 Co61 2.135 . S
Co70 O71 2.216 . S
Co70 O72 2.091 . S
Co70 O74 2.004 . S
Co70 O80 2.021 1_554 S
Co70 O82 2.137 . S
Co70 O83 2.244 . S
O71 Co70 2.216 . S
O71 C78 1.247 . S
O72 Co70 2.091 . S
O72 C78 1.261 . S
C73 O82 1.247 . S
C73 O83 1.272 . S
O74 Co70 2.004 . S
O74 C79 1.259 . S
Co75 O76 2.061 1_554 S
Co75 O81 2.052 1_554 S
Co75 O83 2.135 . S
O76 Co75 2.061 1_556 S
O76 C79 1.233 1_556 S
C77 O80 1.238 . S
C77 O81 1.241 . S
C78 O71 1.247 . S
C78 O72 1.261 . S
C79 O74 1.259 . S
C79 O76 1.233 1_554 S
O80 Co70 2.021 1_556 S
O80 C77 1.238 . S
O81 Co75 2.052 1_556 S
O81 C77 1.241 . S
O82 Co70 2.137 . S
O82 C73 1.247 . S
O83 Co70 2.244 . S
O83 C73 1.272 . S
O83 Co75 2.135 . S
Co84 O85 2.216 . S
Co84 O86 2.091 . S
Co84 O88 2.004 . S
Co84 O94 2.021 1_554 S
Co84 O96 2.137 . S
Co84 O97 2.244 . S
O85 Co84 2.216 . S
O85 C92 1.247 . S
O86 Co84 2.091 . S
O86 C92 1.261 . S
C87 O96 1.247 . S
C87 O97 1.272 . S
O88 Co84 2.004 . S
O88 C93 1.259 . S
Co89 O90 2.061 1_554 S
Co89 O95 2.052 1_554 S
Co89 O97 2.135 . S
O90 Co89 2.061 1_556 S
O90 C93 1.233 1_556 S
C91 O94 1.238 . S
C91 O95 1.241 . S
C92 O85 1.247 . S
C92 O86 1.261 . S
C93 O88 1.259 . S
C93 O90 1.233 1_554 S
O94 Co84 2.021 1_556 S
O94 C91 1.238 . S
O95 Co89 2.052 1_556 S
O95 C91 1.241 . S
O96 Co84 2.137 . S
O96 C87 1.247 . S
O97 Co84 2.244 . S
O97 C87 1.272 . S
O97 Co89 2.135 . S
Co98 O99 2.216 . S
Co98 O100 2.091 . S
Co98 O102 2.004 . S
Co98 O108 2.021 1_554 S
Co98 O110 2.137 . S
Co98 O111 2.244 . S
O99 Co98 2.216 . S
O99 C106 1.247 . S
O100 Co98 2.091 . S
O100 C106 1.261 . S
C101 O110 1.247 . S
C101 O111 1.272 . S
O102 Co98 2.004 . S
O102 C107 1.259 . S
Co103 O104 2.061 1_554 S
Co103 O109 2.052 1_554 S
Co103 O111 2.135 . S
O104 Co103 2.061 1_556 S
O104 C107 1.233 1_556 S
C105 O108 1.238 . S
C105 O109 1.241 . S
C106 O99 1.247 . S
C106 O100 1.261 . S
C107 O102 1.259 . S
C107 O104 1.233 1_554 S
O108 Co98 2.021 1_556 S
O108 C105 1.238 . S
O109 Co103 2.052 1_556 S
O109 C105 1.241 . S
O110 Co98 2.137 . S
O110 C101 1.247 . S
O111 Co98 2.244 . S
O111 C101 1.272 . S
O111 Co103 2.135 . S
Co112 O113 2.216 . S
Co112 O114 2.091 . S
Co112 O116 2.004 . S
Co112 O122 2.021 . S
Co112 O124 2.137 . S
Co112 O125 2.244 . S
O113 Co112 2.216 . S
O113 C120 1.247 . S
O114 Co112 2.091 . S
O114 C120 1.261 . S
C115 O124 1.247 . S
C115 O125 1.272 . S
O116 Co112 2.004 . S
O116 C121 1.259 . S
Co117 O118 2.061 . S
Co117 O123 2.052 . S
Co117 O125 2.135 . S
O118 Co117 2.061 . S
O118 C121 1.235 . S
C119 O122 1.238 . S
C119 O123 1.241 . S
C120 O113 1.247 . S
C120 O114 1.261 . S
C121 O116 1.259 . S
C121 O118 1.235 . S
O122 Co112 2.021 . S
O122 C119 1.238 . S
O123 Co117 2.052 . S
O123 C119 1.241 . S
O124 Co112 2.137 . S
O124 C115 1.247 . S
O125 Co112 2.244 . S
O125 C115 1.272 . S
O125 Co117 2.135 . S
Co126 O127 2.216 . S
Co126 O128 2.091 . S
Co126 O130 2.004 . S
Co126 O136 2.021 . S
Co126 O138 2.137 . S
Co126 O139 2.244 . S
O127 Co126 2.216 . S
O127 C134 1.247 . S
O128 Co126 2.091 . S
O128 C134 1.261 . S
C129 O138 1.247 . S
C129 O139 1.272 . S
O130 Co126 2.004 . S
O130 C135 1.259 . S
Co131 O132 2.061 . S
Co131 O137 2.052 . S
Co131 O139 2.135 . S
O132 Co131 2.061 . S
O132 C135 1.235 . S
C133 O136 1.238 . S
C133 O137 1.241 . S
C134 O127 1.247 . S
C134 O128 1.261 . S
C135 O130 1.259 . S
C135 O132 1.235 . S
O136 Co126 2.021 . S
O136 C133 1.238 . S
O137 Co131 2.052 . S
O137 C133 1.241 . S
O138 Co126 2.137 . S
O138 C129 1.247 . S
O139 Co126 2.244 . S
O139 C129 1.272 . S
O139 Co131 2.135 . S
Co140 O141 2.216 . S
Co140 O142 2.091 . S
Co140 O144 2.004 . S
Co140 O150 2.021 . S
Co140 O152 2.137 . S
Co140 O153 2.244 . S
O141 Co140 2.216 . S
O141 C148 1.247 . S
O142 Co140 2.091 . S
O142 C148 1.261 . S
C143 O152 1.247 . S
C143 O153 1.272 . S
O144 Co140 2.004 . S
O144 C149 1.259 . S
Co145 O146 2.061 . S
Co145 O151 2.052 . S
Co145 O153 2.135 . S
O146 Co145 2.061 . S
O146 C149 1.235 . S
C147 O150 1.238 . S
C147 O151 1.241 . S
C148 O141 1.247 . S
C148 O142 1.261 . S
C149 O144 1.259 . S
C149 O146 1.235 . S
O150 Co140 2.021 . S
O150 C147 1.238 . S
O151 Co145 2.052 . S
O151 C147 1.241 . S
O152 Co140 2.137 . S
O152 C143 1.247 . S
O153 Co140 2.244 . S
O153 C143 1.272 . S
O153 Co145 2.135 . S
Co154 O155 2.216 . S
Co154 O156 2.091 . S
Co154 O158 2.004 . S
Co154 O164 2.021 . S
Co154 O166 2.137 . S
Co154 O167 2.244 . S
O155 Co154 2.216 . S
O155 C162 1.247 . S
O156 Co154 2.091 . S
O156 C162 1.261 . S
C157 O166 1.247 . S
C157 O167 1.272 . S
O158 Co154 2.004 . S
O158 C163 1.259 . S
Co159 O160 2.061 . S
Co159 O165 2.052 . S
Co159 O167 2.135 . S
O160 Co159 2.061 . S
O160 C163 1.235 . S
C161 O164 1.238 . S
C161 O165 1.241 . S
C162 O155 1.247 . S
C162 O156 1.261 . S
C163 O158 1.259 . S
C163 O160 1.235 . S
O164 Co154 2.021 . S
O164 C161 1.238 . S
O165 Co159 2.052 . S
O165 C161 1.241 . S
O166 Co154 2.137 . S
O166 C157 1.247 . S
O167 Co154 2.244 . S
O167 C157 1.272 . S
O167 Co159 2.135 . S
Co168 O169 2.216 . S
Co168 O170 2.091 . S
Co168 O172 2.004 . S
Co168 O178 2.021 . S
Co168 O180 2.137 . S
Co168 O181 2.244 . S
O169 Co168 2.216 . S
O169 C176 1.247 . S
O170 Co168 2.091 . S
O170 C176 1.261 . S
C171 O180 1.247 . S
C171 O181 1.272 . S
O172 Co168 2.004 . S
O172 C177 1.259 . S
Co173 O174 2.061 . S
Co173 O179 2.052 . S
Co173 O181 2.135 . S
O174 Co173 2.061 . S
O174 C177 1.235 . S
C175 O178 1.238 . S
C175 O179 1.241 . S
C176 O169 1.247 . S
C176 O170 1.261 . S
C177 O172 1.259 . S
C177 O174 1.235 . S
O178 Co168 2.021 . S
O178 C175 1.238 . S
O179 Co173 2.052 . S
O179 C175 1.241 . S
O180 Co168 2.137 . S
O180 C171 1.247 . S
O181 Co168 2.244 . S
O181 C171 1.272 . S
O181 Co173 2.135 . S
Co182 O183 2.216 . S
Co182 O184 2.091 . S
Co182 O186 2.004 . S
Co182 O192 2.021 . S
Co182 O194 2.137 . S
Co182 O195 2.244 . S
O183 Co182 2.216 . S
O183 C190 1.247 . S
O184 Co182 2.091 . S
O184 C190 1.261 . S
C185 O194 1.247 . S
C185 O195 1.272 . S
O186 Co182 2.004 . S
O186 C191 1.259 . S
Co187 O188 2.061 . S
Co187 O193 2.052 . S
Co187 O195 2.135 . S
O188 Co187 2.061 . S
O188 C191 1.235 . S
C189 O192 1.238 . S
C189 O193 1.241 . S
C190 O183 1.247 . S
C190 O184 1.261 . S
C191 O186 1.259 . S
C191 O188 1.235 . S
O192 Co182 2.021 . S
O192 C189 1.238 . S
O193 Co187 2.052 . S
O193 C189 1.241 . S
O194 Co182 2.137 . S
O194 C185 1.247 . S
O195 Co182 2.244 . S
O195 C185 1.272 . S
O195 Co187 2.135 . S
Co196 O197 2.216 . S
Co196 O198 2.091 . S
Co196 O200 2.004 . S
Co196 O206 2.021 . S
Co196 O208 2.137 . S
Co196 O209 2.244 . S
O197 Co196 2.216 . S
O197 C204 1.247 . S
O198 Co196 2.091 . S
O198 C204 1.261 . S
C199 O208 1.247 . S
C199 O209 1.272 . S
O200 Co196 2.004 . S
O200 C205 1.259 . S
Co201 O202 2.061 . S
Co201 O207 2.052 . S
Co201 O209 2.135 . S
O202 Co201 2.061 . S
O202 C205 1.235 . S
C203 O206 1.238 . S
C203 O207 1.241 . S
C204 O197 1.247 . S
C204 O198 1.261 . S
C205 O200 1.259 . S
C205 O202 1.235 . S
O206 Co196 2.021 . S
O206 C203 1.238 . S
O207 Co201 2.052 . S
O207 C203 1.241 . S
O208 Co196 2.137 . S
O208 C199 1.247 . S
O209 Co196 2.244 . S
O209 C199 1.272 . S
O209 Co201 2.135 . S
Co210 O211 2.216 . S
Co210 O212 2.091 . S
Co210 O214 2.004 . S
Co210 O220 2.021 . S
Co210 O222 2.137 . S
Co210 O223 2.244 . S
O211 Co210 2.216 . S
O211 C218 1.247 . S
O212 Co210 2.091 . S
O212 C218 1.261 . S
C213 O222 1.247 . S
C213 O223 1.272 . S
O214 Co210 2.004 . S
O214 C219 1.259 . S
Co215 O216 2.061 . S
Co215 O221 2.052 . S
Co215 O223 2.135 . S
O216 Co215 2.061 . S
O216 C219 1.235 . S
C217 O220 1.238 . S
C217 O221 1.241 . S
C218 O211 1.247 . S
C218 O212 1.261 . S
C219 O214 1.259 . S
C219 O216 1.235 . S
O220 Co210 2.021 . S
O220 C217 1.238 . S
O221 Co215 2.052 . S
O221 C217 1.241 . S
O222 Co210 2.137 . S
O222 C213 1.247 . S
O223 Co210 2.244 . S
O223 C213 1.272 . S
O223 Co215 2.135 . S
C224 C225 1.170 . S
C224 C226 1.380 1_556 S
C225 C224 1.170 . S
C226 C224 1.380 1_554 S
C226 C227 1.170 . S
C227 C226 1.170 . S
C228 C229 1.170 . S
C228 C230 1.380 . S
C229 C228 1.170 . S
C230 C228 1.380 . S
C230 C231 1.170 . S
C231 C230 1.170 . S
C232 C233 1.170 . S
C232 C234 1.380 . S
C233 C232 1.170 . S
C234 C232 1.380 . S
C234 C235 1.170 . S
C235 C234 1.170 . S
C236 C237 1.170 . S
C236 C238 1.380 . S
C237 C236 1.170 . S
C238 C236 1.380 . S
C238 C239 1.170 1_556 S
C239 C238 1.170 1_554 S
C240 C241 1.170 . S
C240 C242 1.380 1_545 S
C241 C240 1.170 . S
C242 C240 1.380 1_565 S
C242 C243 1.170 . S
C243 C242 1.170 . S
C244 C245 1.170 . S
C244 C246 1.380 1_655 S
C245 C244 1.170 . S
C246 C244 1.380 1_455 S
C246 C247 1.170 . S
C247 C246 1.170 . S
C248 C249 1.170 . S
C248 C250 1.380 1_545 S
C249 C248 1.170 . S
C250 C248 1.380 1_565 S
C250 C251 1.170 . S
C251 C250 1.170 . S
C252 C253 1.170 . S
C252 C254 1.380 1_455 S
C253 C252 1.170 . S
C254 C252 1.380 1_655 S
C254 C255 1.170 . S
C255 C254 1.170 . S
C256 C257 1.170 . S
C256 C258 1.380 . S
C257 C256 1.170 . S
C258 C256 1.380 . S
C258 C259 1.170 . S
C259 C258 1.170 . S
C260 C261 1.170 1_556 S
C260 C262 1.380 . S
C261 C260 1.170 1_554 S
C262 C260 1.380 . S
C262 C263 1.170 . S
C263 C262 1.170 . S
C264 C265 1.170 . S
C264 C266 1.380 . S
C265 C264 1.170 . S
C266 C264 1.380 . S
C266 C267 1.170 . S
C267 C266 1.170 . S
C268 C269 1.170 1_556 S
C268 C270 1.380 . S
C269 C268 1.170 1_554 S
C270 C268 1.380 . S
C270 C271 1.171 . S
C271 C270 1.171 . S
C272 C273 1.170 . S
C272 C274 1.380 . S
C273 C272 1.170 . S
C274 C272 1.380 . S
C274 C275 1.170 . S
C275 C274 1.170 . S
C276 C277 1.170 . S
C276 C278 1.380 . S
C277 C276 1.170 . S
C278 C276 1.380 . S
C278 C279 1.170 . S
C279 C278 1.170 . S
C280 C281 1.170 . S
C280 C282 1.380 . S
C281 C280 1.170 . S
C282 C280 1.380 . S
C282 C283 1.170 . S
C283 C282 1.170 . S
C284 C285 1.170 . S
C284 C286 1.380 . S
C285 C284 1.170 . S
C286 C284 1.380 . S
C286 C287 1.170 . S
C287 C286 1.170 . S
C288 C289 1.170 . S
C288 C290 1.380 . S
C289 C288 1.170 . S
C290 C288 1.380 . S
C290 C291 1.170 . S
C291 C290 1.170 . S
C292 C293 1.170 . S
C292 C294 1.380 . S
C293 C292 1.170 . S
C294 C292 1.380 . S
C294 C295 1.170 . S
C295 C294 1.170 . S
C296 C297 1.170 . S
C296 C298 1.380 . S
C297 C296 1.170 . S
C298 C296 1.380 . S
C298 C299 1.170 . S
C299 C298 1.170 . S
C300 C301 1.170 . S
C300 C302 1.380 . S
C301 C300 1.170 . S
C302 C300 1.380 . S
C302 C303 1.170 . S
C303 C302 1.170 . S
C304 C305 1.170 . S
C304 C306 1.380 . S
C305 C304 1.170 . S
C306 C304 1.380 . S
C306 C307 1.170 . S
C307 C306 1.170 . S
C308 C309 1.170 . S
C308 C310 1.380 . S
C309 C308 1.170 . S
C310 C308 1.380 . S
C310 C311 1.170 . S
C311 C310 1.170 . S
C312 C313 1.170 . S
C312 C314 1.380 . S
C313 C312 1.170 . S
C314 C312 1.380 . S
C314 C315 1.170 . S
C315 C314 1.170 . S
C316 C317 1.170 . S
C316 C318 1.380 . S
C317 C316 1.170 . S
C318 C316 1.380 . S
C318 C319 1.170 . S
C319 C318 1.170 . S
C320 C321 1.170 . S
C320 C322 1.380 . S
C321 C320 1.170 . S
C322 C320 1.380 . S
C322 C323 1.170 . S
C323 C322 1.170 . S
C324 C325 1.170 . S
C324 C326 1.380 . S
C325 C324 1.170 . S
C326 C324 1.380 . S
C326 C327 1.170 . S
C327 C326 1.170 . S
C328 C329 1.170 . S
C328 C330 1.380 . S
C329 C328 1.170 . S
C330 C328 1.380 . S
C330 C331 1.170 . S
C331 C330 1.170 . S
C332 C333 1.170 . S
C332 C334 1.380 . S
C333 C332 1.170 . S
C334 C332 1.380 . S
C334 C335 1.170 . S
C335 C334 1.170 . S
C336 C337 1.170 . S
C336 C338 1.380 . S
C337 C336 1.170 . S
C338 C336 1.380 . S
C338 C339 1.170 . S
C339 C338 1.170 . S
C340 C341 1.170 . S
C340 C342 1.380 . S
C341 C340 1.170 . S
C342 C340 1.380 . S
C342 C343 1.170 . S
C343 C342 1.170 . S
C344 C345 1.170 . S
C344 C346 1.380 . S
C345 C344 1.170 . S
C346 C344 1.380 . S
C346 C347 1.170 . S
C347 C346 1.170 . S
C348 C349 1.170 . S
C348 C350 1.380 . S
C349 C348 1.170 . S
C350 C348 1.380 . S
C350 C351 1.170 . S
C351 C350 1.170 . S
C225 C64 1.440 1_556 S
C227 C8 1.437 . S
C229 C78 1.432 . S
C231 C22 1.438 . S
C233 C92 1.430 . S
C235 C36 1.435 . S
C237 C106 1.435 1_556 S
C239 C50 1.430 . S
C241 C176 1.440 . S
C243 C120 1.435 . S
C245 C190 1.440 . S
C247 C134 1.436 . S
C249 C148 1.430 . S
C251 C204 1.434 . S
C253 C218 1.431 . S
C255 C162 1.431 . S
C257 C9 1.472 1_554 S
C259 C79 1.477 . S
C261 C93 1.469 . S
C263 C23 1.475 . S
C265 C37 1.480 1_554 S
C267 C107 1.481 . S
C269 C65 1.474 . S
C271 C51 1.478 . S
C273 C191 1.463 . S
C275 C121 1.468 . S
C277 C205 1.481 . S
C279 C135 1.480 . S
C281 C149 1.477 . S
C283 C219 1.481 . S
C285 C163 1.462 . S
C287 C177 1.458 . S
C289 C217 1.425 . S
C291 C7 1.406 . S
C293 C175 1.412 . S
C295 C21 1.392 . S
C297 C189 1.417 . S
C299 C35 1.393 . S
C301 C203 1.420 . S
C303 C49 1.396 . S
C305 C133 1.424 . S
C307 C63 1.407 . S
C309 C147 1.392 . S
C311 C77 1.414 . S
C313 C91 1.410 . S
C315 C161 1.392 . S
C317 C105 1.409 . S
C319 C119 1.392 . S
C321 C185 1.408 . S
C323 C31 1.395 . S
C325 C199 1.413 . S
C327 C45 1.395 . S
C329 C213 1.403 . S
C331 C3 1.407 . S
C333 C17 1.413 . S
C335 C171 1.392 . S
C337 C157 1.412 . S
C339 C87 1.396 . S
C341 C101 1.406 . S
C343 C115 1.396 . S
C345 C129 1.393 . S
C347 C59 1.414 . S
C349 C143 1.402 . S
C351 C73 1.400 . S
