# Generated by pormake.
# Topology lcs, (4)-cn, num edge types: 1
# Building blocks:
#     Node 0, Type 0, BuildingBlock: QUQFOY_clean_sbu_3, # of connection points: 4
#     Node 1, Type 0, BuildingBlock: QUQFOY_clean_sbu_3, # of connection points: 4
#     Node 2, Type 0, BuildingBlock: QUQFOY_clean_sbu_3, # of connection points: 4
#     Node 3, Type 0, BuildingBlock: QUQFOY_clean_sbu_3, # of connection points: 4
#     Node 4, Type 0, BuildingBlock: QUQFOY_clean_sbu_3, # of connection points: 4
#     Node 5, Type 0, BuildingBlock: QUQFOY_clean_sbu_3, # of connection points: 4
#     Node 6, Type 0, BuildingBlock: QUQFOY_clean_sbu_3, # of connection points: 4
#     Node 7, Type 0, BuildingBlock: QUQFOY_clean_sbu_3, # of connection points: 4
#     Node 8, Type 0, BuildingBlock: QUQFOY_clean_sbu_3, # of connection points: 4
#     Node 9, Type 0, BuildingBlock: QUQFOY_clean_sbu_3, # of connection points: 4
#     Node 10, Type 0, BuildingBlock: QUQFOY_clean_sbu_3, # of connection points: 4
#     Node 11, Type 0, BuildingBlock: QUQFOY_clean_sbu_3, # of connection points: 4
#     Node 12, Type 0, BuildingBlock: QUQFOY_clean_sbu_3, # of connection points: 4
#     Node 13, Type 0, BuildingBlock: QUQFOY_clean_sbu_3, # of connection points: 4
#     Node 14, Type 0, BuildingBlock: QUQFOY_clean_sbu_3, # of connection points: 4
#     Node 15, Type 0, BuildingBlock: QUQFOY_clean_sbu_3, # of connection points: 4
#     Node 16, Type 0, BuildingBlock: QUQFOY_clean_sbu_3, # of connection points: 4
#     Node 17, Type 0, BuildingBlock: QUQFOY_clean_sbu_3, # of connection points: 4
#     Node 18, Type 0, BuildingBlock: QUQFOY_clean_sbu_3, # of connection points: 4
#     Node 19, Type 0, BuildingBlock: QUQFOY_clean_sbu_3, # of connection points: 4
#     Node 20, Type 0, BuildingBlock: QUQFOY_clean_sbu_3, # of connection points: 4
#     Node 21, Type 0, BuildingBlock: QUQFOY_clean_sbu_3, # of connection points: 4
#     Node 22, Type 0, BuildingBlock: QUQFOY_clean_sbu_3, # of connection points: 4
#     Node 23, Type 0, BuildingBlock: QUQFOY_clean_sbu_3, # of connection points: 4
#     Edge 24, Type (0, 0), BuildingBlock: AJUNOK_clean_linker_0, # of connection points: 2
#     Edge 25, Type (0, 0), BuildingBlock: AJUNOK_clean_linker_0, # of connection points: 2
#     Edge 26, Type (0, 0), BuildingBlock: AJUNOK_clean_linker_0, # of connection points: 2
#     Edge 27, Type (0, 0), BuildingBlock: AJUNOK_clean_linker_0, # of connection points: 2
#     Edge 28, Type (0, 0), BuildingBlock: AJUNOK_clean_linker_0, # of connection points: 2
#     Edge 29, Type (0, 0), BuildingBlock: AJUNOK_clean_linker_0, # of connection points: 2
#     Edge 30, Type (0, 0), BuildingBlock: AJUNOK_clean_linker_0, # of connection points: 2
#     Edge 31, Type (0, 0), BuildingBlock: AJUNOK_clean_linker_0, # of connection points: 2
#     Edge 32, Type (0, 0), BuildingBlock: AJUNOK_clean_linker_0, # of connection points: 2
#     Edge 33, Type (0, 0), BuildingBlock: AJUNOK_clean_linker_0, # of connection points: 2
#     Edge 34, Type (0, 0), BuildingBlock: AJUNOK_clean_linker_0, # of connection points: 2
#     Edge 35, Type (0, 0), BuildingBlock: AJUNOK_clean_linker_0, # of connection points: 2
#     Edge 36, Type (0, 0), BuildingBlock: AJUNOK_clean_linker_0, # of connection points: 2
#     Edge 37, Type (0, 0), BuildingBlock: AJUNOK_clean_linker_0, # of connection points: 2
#     Edge 38, Type (0, 0), BuildingBlock: AJUNOK_clean_linker_0, # of connection points: 2
#     Edge 39, Type (0, 0), BuildingBlock: AJUNOK_clean_linker_0, # of connection points: 2
#     Edge 40, Type (0, 0), BuildingBlock: AJUNOK_clean_linker_0, # of connection points: 2
#     Edge 41, Type (0, 0), BuildingBlock: AJUNOK_clean_linker_0, # of connection points: 2
#     Edge 42, Type (0, 0), BuildingBlock: AJUNOK_clean_linker_0, # of connection points: 2
#     Edge 43, Type (0, 0), BuildingBlock: AJUNOK_clean_linker_0, # of connection points: 2
#     Edge 44, Type (0, 0), BuildingBlock: AJUNOK_clean_linker_0, # of connection points: 2
#     Edge 45, Type (0, 0), BuildingBlock: AJUNOK_clean_linker_0, # of connection points: 2
#     Edge 46, Type (0, 0), BuildingBlock: AJUNOK_clean_linker_0, # of connection points: 2
#     Edge 47, Type (0, 0), BuildingBlock: AJUNOK_clean_linker_0, # of connection points: 2
#     Edge 48, Type (0, 0), BuildingBlock: AJUNOK_clean_linker_0, # of connection points: 2
#     Edge 49, Type (0, 0), BuildingBlock: AJUNOK_clean_linker_0, # of connection points: 2
#     Edge 50, Type (0, 0), BuildingBlock: AJUNOK_clean_linker_0, # of connection points: 2
#     Edge 51, Type (0, 0), BuildingBlock: AJUNOK_clean_linker_0, # of connection points: 2
#     Edge 52, Type (0, 0), BuildingBlock: AJUNOK_clean_linker_0, # of connection points: 2
#     Edge 53, Type (0, 0), BuildingBlock: AJUNOK_clean_linker_0, # of connection points: 2
#     Edge 54, Type (0, 0), BuildingBlock: AJUNOK_clean_linker_0, # of connection points: 2
#     Edge 55, Type (0, 0), BuildingBlock: AJUNOK_clean_linker_0, # of connection points: 2
#     Edge 56, Type (0, 0), BuildingBlock: AJUNOK_clean_linker_0, # of connection points: 2
#     Edge 57, Type (0, 0), BuildingBlock: AJUNOK_clean_linker_0, # of connection points: 2
#     Edge 58, Type (0, 0), BuildingBlock: AJUNOK_clean_linker_0, # of connection points: 2
#     Edge 59, Type (0, 0), BuildingBlock: AJUNOK_clean_linker_0, # of connection points: 2
#     Edge 60, Type (0, 0), BuildingBlock: AJUNOK_clean_linker_0, # of connection points: 2
#     Edge 61, Type (0, 0), BuildingBlock: AJUNOK_clean_linker_0, # of connection points: 2
#     Edge 62, Type (0, 0), BuildingBlock: AJUNOK_clean_linker_0, # of connection points: 2
#     Edge 63, Type (0, 0), BuildingBlock: AJUNOK_clean_linker_0, # of connection points: 2
#     Edge 64, Type (0, 0), BuildingBlock: AJUNOK_clean_linker_0, # of connection points: 2
#     Edge 65, Type (0, 0), BuildingBlock: AJUNOK_clean_linker_0, # of connection points: 2
#     Edge 66, Type (0, 0), BuildingBlock: AJUNOK_clean_linker_0, # of connection points: 2
#     Edge 67, Type (0, 0), BuildingBlock: AJUNOK_clean_linker_0, # of connection points: 2
#     Edge 68, Type (0, 0), BuildingBlock: AJUNOK_clean_linker_0, # of connection points: 2
#     Edge 69, Type (0, 0), BuildingBlock: AJUNOK_clean_linker_0, # of connection points: 2
#     Edge 70, Type (0, 0), BuildingBlock: AJUNOK_clean_linker_0, # of connection points: 2
#     Edge 71, Type (0, 0), BuildingBlock: AJUNOK_clean_linker_0, # of connection points: 2
# Relax obj value: 0.005
# Max RMSD: 0.039
# Mean RMSD: 0.027
data_MOF--net-lcs--node1-QUQFOY_clean_sbu_3--edge1-AJUNOK_clean_linker_0
_symmetry_space_group_name_H-M    P1
_symmetry_Int_Tables_number       1
_symmetry_cell_setting            triclinic
loop_
_symmetry_equiv_pos_as_xyz
'x, y, z'
_cell_length_a     37.881048
_cell_length_b     38.536047
_cell_length_c     38.507398
_cell_angle_alpha  91.807033
_cell_angle_beta   90.192554
_cell_angle_gamma 91.306174
loop_
_atom_site_label
_atom_site_type_symbol
_atom_site_fract_x
_atom_site_fract_y
_atom_site_fract_z
_atom_type_partial_charge
C0 C 0.91571 0.24998 0.42766 0.0
O1 O 0.92677 0.22384 0.4434 0.0
Cd2 Cd 0.98038 0.19455 0.43206 0.0
O3 O 0.93366 0.263 0.40315 0.0
Cd4 Cd -0.00976 0.25063 0.37388 0.0
C5 C 0.96347 0.16952 0.3476 0.0
O6 O 0.02278 0.24032 0.42609 0.0
O7 O 0.04884 0.22488 0.37862 0.0
O8 O 0.00646 0.3117 0.37163 0.0
C9 C 0.05054 0.23006 0.41128 0.0
O10 O 0.96951 0.1605 0.37855 0.0
C11 C 0.01036 0.31189 0.33894 0.0
O12 O 0.96675 0.20116 0.33937 0.0
O13 O 0.00324 0.28377 0.32202 0.0
C14 C 0.91853 0.7659 0.56327 0.0
O15 O 0.94411 0.77401 0.5437 0.0
Cd16 Cd 0.00421 0.76096 0.5559 0.0
O17 O 0.92398 0.74969 0.59099 0.0
Cd18 Cd 0.97403 0.726 0.62277 0.0
C19 C 0.01558 0.80296 0.63552 0.0
O20 O 0.00673 0.70246 0.5739 0.0
O21 O 0.03575 0.70988 0.62218 0.0
O22 O 0.94812 0.6695 0.63258 0.0
C23 C 0.03449 0.69738 0.5913 0.0
O24 O 0.02353 0.79995 0.60348 0.0
C25 C 0.94405 0.67391 0.66503 0.0
O26 O -0.00501 0.78093 0.64954 0.0
O27 O 0.95333 0.70323 0.67849 0.0
C28 C 0.43104 0.75448 0.93112 0.0
O29 O 0.443 0.72873 0.94686 0.0
Cd30 Cd 0.49442 0.69778 0.93123 0.0
O31 O 0.44715 0.76641 0.90491 0.0
Cd32 Cd 0.50113 0.75282 0.8717 0.0
C33 C 0.46674 0.67387 0.84916 0.0
O34 O 0.5375 0.74231 0.92151 0.0
O35 O 0.55899 0.72521 0.87244 0.0
O36 O 0.51033 0.81496 0.86406 0.0
C37 C 0.56341 0.7303 0.90483 0.0
O38 O 0.47598 0.6642 0.87911 0.0
C39 C 0.51857 0.81176 0.8322 0.0
O40 O 0.47097 0.70529 0.84065 0.0
O41 O 0.5173 0.7813 0.81863 0.0
C42 C 0.43297 0.25692 0.04953 0.0
O43 O 0.46003 0.26183 0.03082 0.0
Cd44 Cd 0.5181 0.24805 0.05022 0.0
O45 O 0.43585 0.24344 0.07913 0.0
Cd46 Cd 0.48058 0.21977 0.11777 0.0
C47 C 0.52105 0.29741 0.12671 0.0
O48 O 0.51566 0.19107 0.07307 0.0
O49 O 0.53983 0.1978 0.12376 0.0
O50 O 0.43515 0.17648 0.12802 0.0
C51 C 0.54142 0.18531 0.093 0.0
O52 O 0.53277 0.29106 0.09624 0.0
C53 C 0.4401 0.17538 0.16054 0.0
O54 O 0.49855 0.27705 0.14047 0.0
O55 O 0.46403 0.1954 0.1737 0.0
C56 C 0.9337 0.72237 0.05373 0.0
O57 O 0.94385 0.7484 0.03671 0.0
Cd58 Cd -0.00823 0.78626 0.05265 0.0
O59 O 0.9502 0.714 0.08102 0.0
Cd60 Cd 0.00316 0.73283 0.11519 0.0
C61 C 0.96595 0.80861 0.13646 0.0
O62 O 0.03774 0.74791 0.06541 0.0
O63 O 0.0594 0.76591 0.11454 0.0
O64 O 0.01262 0.67103 0.11923 0.0
C65 C 0.06264 0.76341 0.08184 0.0
O66 O 0.97151 0.81676 0.10514 0.0
C67 C 0.02254 0.67254 0.15074 0.0
O68 O 0.97306 0.77872 0.14734 0.0
O69 O 0.0226 0.70216 0.16617 0.0
C70 C 0.42234 0.71435 0.42582 0.0
O71 O 0.4484 0.70295 0.44247 0.0
Cd72 Cd 0.5081 0.70669 0.42271 0.0
O73 O 0.42716 0.72996 0.39751 0.0
Cd74 Cd 0.47531 0.74966 0.35954 0.0
C75 C 0.49709 0.66649 0.34174 0.0
O76 O 0.51679 0.76505 0.40589 0.0
O77 O 0.53672 0.76809 0.3534 0.0
O78 O 0.44159 0.80202 0.35711 0.0
C79 C 0.54202 0.7725 0.38573 0.0
O80 O 0.5096 0.66695 0.3725 0.0
C81 C 0.44449 0.80548 0.3246 0.0
O82 O 0.48136 0.69275 0.33037 0.0
O83 O 0.46086 0.78198 0.30776 0.0
C84 C 0.42315 0.22883 0.56041 0.0
O85 O 0.43258 0.25403 0.54182 0.0
Cd86 Cd 0.48278 0.29104 0.55394 0.0
O87 O 0.44032 0.22194 0.5877 0.0
Cd88 Cd 0.4927 0.24232 0.62082 0.0
C89 C 0.45934 0.32123 0.63588 0.0
O90 O 0.52752 0.25265 0.56996 0.0
O91 O 0.55011 0.27297 0.61785 0.0
O92 O 0.49928 0.18101 0.62958 0.0
C93 C 0.5529 0.26858 0.58525 0.0
O94 O 0.46693 0.3272 0.60438 0.0
C95 C 0.50902 0.18428 0.66107 0.0
O96 O 0.46304 0.29126 0.64825 0.0
O97 O 0.51056 0.21487 0.67439 0.0
C98 C 0.92584 0.2165 0.92989 0.0
O99 O 0.9524 0.20952 0.94833 0.0
Cd100 Cd 0.01145 0.21718 0.9286 0.0
O101 O 0.92997 0.22976 0.90025 0.0
Cd102 Cd 0.97807 0.25045 0.86236 0.0
C103 C 0.00485 0.16855 0.85173 0.0
O104 O 0.01608 0.27477 0.90785 0.0
O105 O 0.04074 0.26651 0.85792 0.0
O106 O 0.94133 0.29996 0.85427 0.0
C107 C 0.0427 0.27931 0.8886 0.0
O108 O 0.01733 0.17288 0.88235 0.0
C109 C 0.94561 0.30148 0.82172 0.0
O110 O -0.01296 0.19224 0.83804 0.0
O111 O 0.96456 0.27832 0.80741 0.0
C112 C 0.40348 0.93307 0.2604 0.0
O113 O 0.42318 0.94543 0.23698 0.0
Cd114 Cd 0.40852 -0.00369 0.20567 0.0
O115 O 0.37532 0.94829 0.26929 0.0
Cd116 Cd 0.34158 -8e-05 0.25586 0.0
C117 C 0.32763 0.96645 0.1753 0.0
O118 O 0.39011 0.041 0.24575 0.0
O119 O 0.33839 0.05555 0.22866 0.0
O120 O 0.33281 0.00697 0.31782 0.0
C121 C 0.37078 0.06364 0.2325 0.0
O122 O 0.3592 0.9763 0.16883 0.0
C123 C 0.29995 0.01238 0.31585 0.0
O124 O 0.31499 0.96974 0.20579 0.0
O125 O 0.28603 0.01086 0.28576 0.0
C126 C 0.16834 0.1834 0.49266 0.0
O127 O 0.17918 0.20006 0.51974 0.0
Cd128 Cd 0.22753 0.18175 0.55378 0.0
O129 O 0.18294 0.1554 0.4826 0.0
Cd130 Cd 0.23115 0.11768 0.49995 0.0
C131 C 0.19282 0.10325 0.57715 0.0
O132 O 0.27011 0.16696 0.51038 0.0
O133 O 0.2907 0.11825 0.52604 0.0
O134 O 0.23275 0.10614 0.43779 0.0
C135 C 0.29597 0.15037 0.52146 0.0
O136 O 0.20367 0.13352 0.58693 0.0
C137 C 0.24156 0.0747 0.43973 0.0
O138 O 0.19773 0.09197 0.54621 0.0
O139 O 0.24508 0.06291 0.46993 0.0
C140 C 0.035 0.04443 0.76805 0.0
O141 O 0.01526 0.03489 0.74263 0.0
Cd142 Cd 0.03219 -0.01103 0.70233 0.0
O143 O 0.06398 0.0294 0.77321 0.0
Cd144 Cd 0.10036 0.9825 0.75016 0.0
C145 C 0.1114 0.02421 0.67585 0.0
O146 O 0.05307 0.9406 0.73378 0.0
O147 O 0.10536 0.93026 0.7146 0.0
O148 O 0.11243 0.97265 0.81074 0.0
C149 C 0.07334 0.9205 0.71686 0.0
O150 O 0.08008 0.01392 0.66806 0.0
C151 C 0.14536 0.96864 0.80689 0.0
O152 O 0.12452 0.01895 0.70563 0.0
O153 O 0.15763 0.97099 0.77639 0.0
C154 C 0.29786 0.80903 0.98094 0.0
O155 O 0.28246 0.79225 0.00461 0.0
Cd156 Cd 0.22947 0.80713 0.03366 0.0
O157 O 0.28462 0.83662 0.96962 0.0
Cd158 Cd 0.23124 0.87099 0.98136 0.0
C159 C 0.25737 0.88834 0.06339 0.0
O160 O 0.19018 0.82331 -0.01036 0.0
O161 O 0.17374 0.87277 0.01019 0.0
O162 O 0.22407 0.88008 0.9196 0.0
C163 C 0.16654 0.84084 0.00456 0.0
O164 O 0.24597 0.8579 0.07 0.0
C165 C 0.21742 0.91213 0.92318 0.0
O166 O 0.25835 0.8989 0.03238 0.0
O167 O 0.21927 0.92546 0.95373 0.0
C168 C 0.29252 0.29776 0.00864 0.0
O169 O 0.26632 0.27803 0.01532 0.0
Cd170 Cd 0.20642 0.29352 0.00504 0.0
O171 O 0.28785 0.32717 -0.00454 0.0
Cd172 Cd 0.23838 0.36168 0.97516 0.0
C173 C 0.20255 0.36996 0.05369 0.0
O174 O 0.20062 0.31596 0.9483 0.0
O175 O 0.17656 0.36516 0.96045 0.0
O176 O 0.27305 0.37342 0.92427 0.0
C177 C 0.17407 0.33524 0.94599 0.0
O178 O 0.19183 0.33877 0.04773 0.0
C179 C 0.26871 0.40595 0.92507 0.0
O180 O 0.22389 0.3848 0.03306 0.0
O181 O 0.25112 0.41848 0.95036 0.0
C182 C 0.78304 0.17631 0.96803 0.0
O183 O 0.75705 0.19478 0.96027 0.0
Cd184 Cd 0.69847 0.17199 0.96816 0.0
O185 O 0.77798 0.14665 0.98094 0.0
Cd186 Cd 0.73181 0.10664 0.00146 0.0
C187 C 0.7045 0.09515 0.91935 0.0
O188 O 0.69484 0.1513 0.02625 0.0
O189 O 0.67027 0.10034 0.01946 0.0
O190 O 0.7747 0.1024 0.04725 0.0
C191 C 0.66872 0.13114 0.03182 0.0
O192 O 0.69253 0.12559 0.92365 0.0
C193 C 0.77045 0.07012 0.05153 0.0
O194 O 0.7221 0.08148 0.94338 0.0
O195 O 0.74791 0.05402 0.03209 0.0
C196 C 0.17459 0.50631 0.29667 0.0
O197 O 0.19427 0.4806 0.29076 0.0
Cd198 Cd 0.17733 0.43801 0.2463 0.0
O199 O 0.1475 0.51058 0.27788 0.0
Cd200 Cd 0.11514 0.48741 0.22677 0.0
C201 C 0.09214 0.41799 0.27202 0.0
O202 O 0.16508 0.46586 0.1924 0.0
O203 O 0.11246 0.45007 0.17567 0.0
O204 O 0.11394 0.54812 0.21296 0.0
C205 C 0.14541 0.4495 0.17033 0.0
O206 O 0.1244 0.40973 0.26944 0.0
C207 C 0.08131 0.54829 0.20554 0.0
O208 O 0.08093 0.446 0.25985 0.0
O209 O 0.06413 0.5197 0.20732 0.0
C210 C 0.77792 0.8084 0.52395 0.0
O211 O 0.75055 0.79107 0.53245 0.0
Cd212 Cd 0.69151 0.80346 0.51519 0.0
O213 O 0.77541 0.83482 0.50509 0.0
Cd214 Cd 0.72927 0.86776 0.47614 0.0
C215 C 0.68524 0.88618 0.55029 0.0
O216 O 0.6955 0.81666 0.45553 0.0
O217 O 0.67256 0.86633 0.44621 0.0
O218 O 0.77114 0.87609 0.4294 0.0
C219 C 0.67077 0.83359 0.44245 0.0
O220 O 0.67446 0.85464 0.54869 0.0
C221 C 0.76535 0.90815 0.42623 0.0
O222 O 0.70807 0.89758 0.529 0.0
O223 O 0.74393 0.92188 0.44762 0.0
C224 C 0.81029 0.9797 0.30274 0.0
O225 O 0.79171 0.00442 0.29242 0.0
Cd226 Cd 0.80612 0.0363 0.24129 0.0
O227 O 0.83685 0.97 0.28519 0.0
Cd228 Cd 0.8679 0.98441 0.23153 0.0
C229 C 0.88984 0.06373 0.26445 0.0
O230 O 0.81857 -0.0026 0.19344 0.0
O231 O 0.87044 0.01492 0.17744 0.0
O232 O 0.86895 0.92364 0.2146 0.0
C233 C 0.83789 0.01073 0.17028 0.0
O234 O 0.85827 0.07149 0.25703 0.0
C235 C 0.90224 0.922 0.21197 0.0
O236 O 0.90028 0.03264 0.26069 0.0
O237 O 0.92014 0.9495 0.21969 0.0
C238 C 0.27753 0.68189 0.46371 0.0
O239 O 0.25227 0.70006 0.45339 0.0
Cd240 Cd 0.19292 0.67849 0.46008 0.0
O241 O 0.27127 0.65342 0.47853 0.0
Cd242 Cd 0.22318 0.61629 0.49966 0.0
C243 C 0.19923 0.59864 0.41737 0.0
O244 O 0.18512 0.66251 0.51953 0.0
O245 O 0.16108 0.61106 0.51482 0.0
O246 O 0.26253 0.61492 0.54858 0.0
C247 C 0.1588 0.64253 0.52497 0.0
O248 O 0.18739 0.62931 0.41853 0.0
C249 C 0.25881 0.58275 0.55379 0.0
O250 O 0.21574 0.58706 0.44326 0.0
O251 O 0.23796 0.5654 0.53357 0.0
C252 C 0.30464 0.4864 0.8046 0.0
O253 O 0.28508 0.5113 0.79675 0.0
Cd254 Cd 0.29802 0.54596 0.74707 0.0
O255 O 0.33072 0.47858 0.78548 0.0
Cd256 Cd 0.35957 0.49655 0.73209 0.0
C257 C 0.3818 0.57316 0.7696 0.0
O258 O 0.30828 0.5098 0.69618 0.0
O259 O 0.3592 0.52945 0.67978 0.0
O260 O 0.36512 0.435 0.71884 0.0
C261 C 0.32664 0.52466 0.67321 0.0
O262 O 0.35008 0.58136 0.76338 0.0
C263 C 0.39734 0.43713 0.7101 0.0
O264 O 0.39212 0.54237 0.76365 0.0
O265 O 0.41226 0.46698 0.71225 0.0
C266 C 0.67284 0.01364 0.79284 0.0
O267 O 0.69166 -0.0116 0.78286 0.0
Cd268 Cd 0.67285 0.95107 0.73403 0.0
O269 O 0.64429 0.0198 0.77706 0.0
Cd270 Cd 0.60692 0.00078 0.72832 0.0
C271 C 0.59156 0.92403 0.76437 0.0
O272 O 0.65332 0.9851 0.68677 0.0
O273 O 0.59973 0.96946 0.6737 0.0
O274 O 0.60162 0.06248 0.72148 0.0
C275 C 0.63196 0.97043 0.6651 0.0
O276 O 0.62271 0.91673 0.75463 0.0
C277 C 0.56846 0.06165 0.71674 0.0
O278 O 0.57947 0.9543 0.76092 0.0
O279 O 0.55278 0.03217 0.71746 0.0
C280 C 0.68022 0.67894 0.98441 0.0
O281 O 0.69091 0.69651 0.011 0.0
Cd282 Cd 0.73838 0.67808 0.04607 0.0
O283 O 0.694 0.65002 0.97613 0.0
Cd284 Cd 0.74061 0.61159 -0.00414 0.0
C285 C 0.70139 0.60203 0.07338 0.0
O286 O 0.78034 0.6603 0.00301 0.0
O287 O 0.80069 0.61281 0.02204 0.0
O288 O 0.74159 0.59778 0.9342 0.0
C289 C 0.80628 0.6443 0.0147 0.0
O290 O 0.71275 0.63254 0.08154 0.0
C291 C 0.75007 0.56635 0.93697 0.0
O292 O 0.70618 0.589 0.04308 0.0
O293 O 0.75341 0.5554 0.96755 0.0
C294 C 0.90149 0.42368 0.74982 0.0
O295 O 0.92052 0.4345 0.7251 0.0
Cd296 Cd 0.90848 0.48733 0.69545 0.0
O297 O 0.87518 0.44102 0.76028 0.0
Cd298 Cd 0.84348 0.49448 0.74943 0.0
C299 C 0.82457 0.4662 0.66706 0.0
O300 O 0.89601 0.53018 0.73981 0.0
O301 O 0.84622 0.55513 0.7327 0.0
O302 O 0.83575 0.49508 0.81183 0.0
C303 C 0.87962 0.55737 0.7327 0.0
O304 O 0.85673 0.47286 0.65976 0.0
C305 C 0.80363 0.50374 0.81116 0.0
O306 O 0.81334 0.47001 0.69804 0.0
O307 O 0.78965 0.50726 0.78147 0.0
C308 C 0.78382 0.30796 0.47701 0.0
O309 O 0.76871 0.2924 0.50167 0.0
Cd310 Cd 0.71704 0.30978 0.53155 0.0
O311 O 0.771 0.33556 0.46521 0.0
Cd312 Cd 0.71875 0.37185 0.47686 0.0
C313 C 0.74715 0.3917 0.55768 0.0
O314 O 0.67755 0.32487 0.48736 0.0
O315 O 0.66152 0.37501 0.50629 0.0
O316 O 0.71284 0.37841 0.41454 0.0
C317 C 0.6542 0.34294 0.50202 0.0
O318 O 0.7354 0.36169 0.56543 0.0
C319 C 0.70507 0.41026 0.41668 0.0
O320 O 0.74769 0.40128 0.52632 0.0
O321 O 0.70518 0.42468 0.44679 0.0
C322 C 0.52777 0.54557 0.25372 0.0
O323 O 0.51045 0.53643 0.22655 0.0
Cd324 Cd 0.53096 0.491 0.18759 0.0
O325 O 0.5559 0.53009 0.26145 0.0
Cd326 Cd 0.59351 0.4832 0.24009 0.0
C327 C 0.61166 0.52698 0.16842 0.0
O328 O 0.54782 0.44119 0.21948 0.0
O329 O 0.60126 0.43263 0.20264 0.0
O330 O 0.60266 0.46974 0.30068 0.0
C331 C 0.5695 0.42177 0.20358 0.0
O332 O 0.58145 0.51642 0.15729 0.0
C333 C 0.6358 0.46626 0.29801 0.0
O334 O 0.6217 0.52096 0.19913 0.0
O335 O 0.64941 0.47121 0.26846 0.0
C336 C 0.07269 0.38777 0.32463 0.0
C337 C 0.06766 0.3943 0.28938 0.0
C338 C 0.05231 0.36237 0.34096 0.0
C339 C 0.02703 0.34196 0.32222 0.0
H340 H 0.09302 0.4019 0.33947 0.0
H341 H 0.05771 0.35749 0.368 0.0
S342 S 0.00308 0.35036 0.22947 0.0
N343 N 0.0346 0.38012 0.23654 0.0
N344 N -0.00296 0.33117 0.26685 0.0
C345 C 0.02118 0.34894 0.28709 0.0
C346 C 0.04135 0.37547 0.27073 0.0
C347 C 0.87732 0.79997 0.52767 0.0
C348 C 0.88229 0.77606 0.55402 0.0
C349 C 0.84355 0.81048 0.51849 0.0
C350 C 0.81327 0.7973 0.53506 0.0
H351 H 0.8997 0.81092 0.51403 0.0
H352 H 0.84125 0.82885 0.49793 0.0
S353 S 0.81171 0.73413 0.60599 0.0
N354 N 0.85396 0.73956 0.5968 0.0
N355 N 0.79043 0.75924 0.57944 0.0
C356 C 0.81778 0.77337 0.56151 0.0
C357 C 0.85227 0.7628 0.57103 0.0
C358 C 0.4318 0.58853 0.80983 0.0
C359 C 0.40606 0.59915 0.78629 0.0
C360 C 0.45221 0.61292 0.82926 0.0
C361 C 0.44808 0.64878 0.82534 0.0
H362 H 0.43516 0.56121 0.81443 0.0
H363 H 0.47083 0.60359 0.84803 0.0
S364 S 0.38674 0.68978 0.76424 0.0
N365 N 0.3792 0.64766 0.75819 0.0
N366 N 0.41794 0.69362 0.79423 0.0
C367 C 0.42374 0.65968 0.80045 0.0
C368 C 0.40258 0.63483 0.78108 0.0
C369 C 0.57246 0.14447 0.05285 0.0
C370 C 0.57415 0.1705 0.07922 0.0
C371 C 0.60331 0.13104 0.03828 0.0
C372 C 0.63673 0.14399 0.04895 0.0
H373 H 0.54712 0.13443 0.04343 0.0
H374 H 0.60094 0.11111 0.01787 0.0
S375 S 0.65537 0.21204 0.11717 0.0
N376 N 0.61187 0.20828 0.1159 0.0
N377 N 0.66984 0.1838 0.08769 0.0
C378 C 0.63877 0.16992 0.07536 0.0
C379 C 0.60744 0.18298 0.09077 0.0
C380 C 0.03699 0.57816 0.16977 0.0
C381 C 0.06454 0.5802 0.19431 0.0
C382 C 0.02296 0.60829 0.15634 0.0
C383 C 0.03536 0.64143 0.16771 0.0
H384 H 0.02712 0.55313 0.15991 0.0
H385 H 0.00254 0.6056 0.1366 0.0
S386 S 0.10529 0.66067 0.23363 0.0
N387 N 0.10266 0.61785 0.23066 0.0
N388 N 0.07554 0.67452 0.20618 0.0
C389 C 0.06181 0.6438 0.19338 0.0
C390 C 0.07664 0.61315 0.20646 0.0
C391 C 0.59198 0.81515 0.38403 0.0
C392 C 0.57581 0.78631 0.39934 0.0
C393 C 0.623 0.83026 0.39812 0.0
C394 C 0.63933 0.81618 0.42712 0.0
H395 H 0.57997 0.82675 0.36176 0.0
H396 H 0.6343 0.85311 0.38624 0.0
S397 S 0.60826 0.73959 0.47531 0.0
N398 N 0.57843 0.74375 0.44442 0.0
N399 N 0.63777 0.77117 0.46999 0.0
C400 C 0.62403 0.7866 0.44189 0.0
C401 C 0.59191 0.77191 0.42822 0.0
C402 C 0.4567 0.38414 0.65176 0.0
C403 C 0.44562 0.34981 0.65791 0.0
C404 C 0.44219 0.41218 0.6702 0.0
C405 C 0.41553 0.40692 0.69488 0.0
H406 H 0.47642 0.38944 0.6322 0.0
H407 H 0.45087 0.43822 0.66394 0.0
S408 S 0.37884 0.32202 0.72216 0.0
N409 N 0.40799 0.31192 0.69189 0.0
N410 N 0.37999 0.36484 0.72603 0.0
C411 C 0.40498 0.37269 0.7021 0.0
C412 C 0.42026 0.34405 0.68377 0.0
C413 C 0.86036 0.22176 0.92532 0.0
C414 C 0.88975 0.20799 0.94211 0.0
C415 C 0.82586 0.21233 0.93469 0.0
C416 C 0.81947 0.18845 0.9609 0.0
H417 H 0.86394 0.23965 0.90441 0.0
H418 H 0.80411 0.22301 0.92051 0.0
S419 S 0.88703 0.14667 0.01464 0.0
N420 N 0.91001 0.17065 -0.01235 0.0
N421 N 0.84519 0.1528 0.00504 0.0
C422 C 0.84853 0.17528 0.97867 0.0
C423 C 0.88366 0.18512 0.96936 0.0
C424 C 0.27804 0.02983 0.41028 0.0
C425 C 0.25117 0.05425 0.40835 0.0
C426 C 0.2925 0.01491 0.38008 0.0
C427 C 0.28003 0.02333 0.34702 0.0
H428 H 0.2895 0.02379 0.43513 0.0
H429 H 0.31448 -0.00235 0.38262 0.0
S430 S 0.20657 0.08211 0.32839 0.0
N431 N 0.21029 0.0837 0.37115 0.0
N432 N 0.23684 0.05495 0.31431 0.0
C433 C 0.25131 0.04564 0.34489 0.0
C434 C 0.23706 0.06135 0.37562 0.0
C435 C 0.15842 0.06771 0.66148 0.0
C436 C 0.13263 0.04303 0.65016 0.0
C437 C 0.17797 0.08691 0.63767 0.0
C438 C 0.17293 0.08162 0.60167 0.0
H439 H 0.16303 0.07279 0.68898 0.0
H440 H 0.19717 0.10604 0.64756 0.0
S441 S 0.10963 0.01888 0.5587 0.0
N442 N 0.10365 0.01363 0.60066 0.0
N443 N 0.14076 0.04932 0.55583 0.0
C444 C 0.14777 0.05642 0.59 0.0
C445 C 0.12748 0.03727 0.61426 0.0
C446 C 0.19404 0.93439 0.83115 0.0
C447 C 0.16766 0.95905 0.83626 0.0
C448 C 0.2115 0.92051 0.8595 0.0
C449 C 0.20379 0.93155 0.89375 0.0
H450 H 0.19975 0.92424 0.80527 0.0
H451 H 0.23026 0.90014 0.85461 0.0
S452 S 0.14001 -0.00097 0.92033 0.0
N453 N 0.13669 -0.00383 0.87756 0.0
N454 N 0.17026 0.97098 0.93088 0.0
C455 C 0.17927 0.95808 0.89895 0.0
C456 C 0.16095 0.97158 0.87015 0.0
C457 C 0.29923 0.93484 0.08523 0.0
C458 C 0.27193 0.91072 0.09197 0.0
C459 C 0.31634 0.95352 0.11234 0.0
C460 C 0.30645 0.94916 0.14717 0.0
H461 H 0.30845 0.93833 0.05894 0.0
H462 H 0.33797 0.97102 0.10594 0.0
S463 S 0.23371 0.89191 0.17813 0.0
N464 N 0.2338 0.88535 0.13557 0.0
N465 N 0.26572 0.92075 0.18664 0.0
C466 C 0.27789 0.92645 0.1541 0.0
C467 C 0.26074 0.90711 0.12647 0.0
C468 C 0.33347 0.26198 0.04263 0.0
C469 C 0.32862 0.28693 0.01729 0.0
C470 C 0.3673 0.25236 0.05262 0.0
C471 C 0.39766 0.26692 0.03732 0.0
H472 H 0.31097 0.25025 0.05545 0.0
H473 H 0.36959 0.23332 0.07257 0.0
S474 S 0.39933 0.33221 0.96843 0.0
N475 N 0.35697 0.3253 0.97624 0.0
N476 N 0.42067 0.30692 -0.00521 0.0
C477 C 0.39322 0.29133 0.01133 0.0
C478 C 0.3587 0.30144 0.00142 0.0
C479 C 0.91359 0.84027 0.15679 0.0
C480 C 0.94977 0.83425 0.15984 0.0
C481 C 0.89817 0.86776 0.17532 0.0
C482 C 0.91865 0.8906 0.19689 0.0
H483 H 0.89732 0.82422 0.1392 0.0
H484 H 0.8703 0.87206 0.17138 0.0
S485 S 0.01445 0.88396 0.21508 0.0
N486 N 0.00548 0.85141 0.18725 0.0
N487 N 0.97675 0.90384 0.22176 0.0
C488 C 0.95477 0.88401 0.20098 0.0
C489 C 0.97031 0.85561 0.18246 0.0
C490 C 0.12959 0.68241 0.56726 0.0
C491 C 0.12673 0.65567 0.54168 0.0
C492 C 0.09958 0.69523 0.58387 0.0
C493 C 0.06571 0.68237 0.57469 0.0
H494 H 0.15525 0.69323 0.57479 0.0
H495 H 0.10286 0.71586 0.60347 0.0
S496 S 0.04404 0.61264 0.50907 0.0
N497 N 0.08754 0.61649 0.50815 0.0
N498 N 0.03088 0.64152 0.53858 0.0
C499 C 0.06245 0.65581 0.54901 0.0
C500 C 0.09307 0.64216 0.5327 0.0
C501 C 0.94192 0.61176 0.67965 0.0
C502 C 0.92968 0.64555 0.68571 0.0
C503 C 0.92673 0.5835 0.69651 0.0
C504 C 0.89804 0.58804 0.71908 0.0
H505 H 0.96313 0.60708 0.66138 0.0
H506 H 0.93645 0.55776 0.69059 0.0
S507 S 0.85701 0.67146 0.7444 0.0
N508 N 0.88855 0.68236 0.71699 0.0
N509 N 0.85874 0.62887 0.74763 0.0
C510 C 0.88599 0.62178 0.72587 0.0
C511 C 0.90218 0.65071 0.70946 0.0
C512 C 0.13359 0.18478 0.43757 0.0
C513 C 0.13873 0.19663 0.47222 0.0
C514 C 0.10552 0.19642 0.41766 0.0
C515 C 0.08129 0.21993 0.43186 0.0
H516 H 0.1514 0.16637 0.42562 0.0
H517 H 0.10239 0.18631 0.39123 0.0
S518 S 0.08342 0.25969 0.52094 0.0
N519 N 0.11765 0.23395 0.51958 0.0
N520 N 0.06472 0.25559 0.48222 0.0
C521 C 0.08633 0.23237 0.46629 0.0
C522 C 0.1151 0.22079 0.48646 0.0
C523 C 0.52463 0.37441 0.19069 0.0
C524 C 0.55785 0.38982 0.18409 0.0
C525 C 0.51304 0.34424 0.17234 0.0
C526 C 0.53402 0.32878 0.14631 0.0
H527 H 0.50749 0.3856 0.2103 0.0
H528 H 0.48725 0.33329 0.17823 0.0
S529 S 0.62338 0.35865 0.11935 0.0
N530 N 0.61182 0.387 0.15 0.0
N531 N 0.58988 0.33068 0.11536 0.0
C532 C 0.56732 0.34389 0.13951 0.0
C533 C 0.57929 0.3743 0.15845 0.0
C534 C 0.34712 0.76743 0.98239 0.0
C535 C 0.33187 0.79629 0.96725 0.0
C536 C 0.37918 0.75453 0.97066 0.0
C537 C 0.39753 0.76979 0.94313 0.0
H538 H 0.3343 0.75451 0.00368 0.0
H539 H 0.38948 0.73216 0.98332 0.0
S540 S 0.36925 0.84619 0.89446 0.0
N541 N 0.33767 0.84005 0.92321 0.0
N542 N 0.39818 0.81567 0.90101 0.0
C543 C 0.38275 0.7988 0.92768 0.0
C544 C 0.34991 0.81206 0.93975 0.0
C545 C 0.93644 0.36936 0.75328 0.0
C546 C 0.91041 0.39119 0.7673 0.0
C547 C 0.94661 0.3395 0.77027 0.0
C548 C 0.93142 0.33052 0.80212 0.0
H549 H 0.94948 0.37558 0.7292 0.0
H550 H 0.9674 0.32404 0.75892 0.0
S551 S 0.86033 0.37731 0.84881 0.0
N552 N 0.86821 0.40039 0.8142 0.0
N553 N 0.88756 0.34454 0.84605 0.0
C554 C 0.90458 0.35141 0.8159 0.0
C555 C 0.89401 0.38165 0.79853 0.0
C556 C 0.33567 0.20236 0.51897 0.0
C557 C 0.32935 0.16872 0.53105 0.0
C558 C 0.36626 0.22133 0.52828 0.0
C559 C 0.39161 0.20758 0.55039 0.0
H560 H 0.31674 0.2143 0.50213 0.0
H561 H 0.36973 0.24721 0.51848 0.0
S562 S 0.38821 0.12018 0.5884 0.0
N563 N 0.35134 0.12198 0.56559 0.0
N564 N 0.40895 0.15784 0.58345 0.0
C565 C 0.38587 0.17379 0.56245 0.0
C566 C 0.35476 0.15429 0.55263 0.0
C567 C 0.52441 0.609 0.33051 0.0
C568 C 0.50216 0.63512 0.31909 0.0
C569 C 0.53159 0.57986 0.3095 0.0
C570 C 0.51668 0.5753 0.27613 0.0
H571 H 0.53714 0.61125 0.35574 0.0
H572 H 0.54943 0.56094 0.31946 0.0
S573 S 0.45485 0.63488 0.23443 0.0
N574 N 0.46388 0.65374 0.27262 0.0
N575 N 0.47736 0.59867 0.23302 0.0
C576 C 0.49343 0.60056 0.26465 0.0
C577 C 0.48623 0.63054 0.2861 0.0
C578 C 0.09792 0.77362 0.02873 0.0
C579 C 0.08957 0.78354 0.06313 0.0
C580 C 0.12245 0.79279 0.00969 0.0
C581 C 0.13873 0.82301 0.0241 0.0
H582 H 0.08568 0.75063 0.01653 0.0
H583 H 0.12874 0.78391 0.9835 0.0
S584 S 0.12606 0.86017 0.11312 0.0
N585 N 0.0997 0.82545 0.11097 0.0
N586 N 0.14536 0.86192 0.07482 0.0
C587 C 0.13042 0.83349 0.05834 0.0
C588 C 0.10597 0.81358 0.07799 0.0
C589 C 0.6923 0.93495 0.59444 0.0
C590 C 0.67072 0.90952 0.57747 0.0
C591 C 0.67944 0.95507 0.62247 0.0
C592 C 0.64439 0.95085 0.63396 0.0
H593 H 0.71962 0.9385 0.58681 0.0
H594 H 0.69721 0.97371 0.63548 0.0
S595 S 0.57642 0.88978 0.59566 0.0
N596 N 0.61224 0.88257 0.57252 0.0
N597 N 0.58778 0.92059 0.62455 0.0
C598 C 0.62219 0.92644 0.61609 0.0
C599 C 0.63544 0.9057 0.58802 0.0
C600 C 0.77446 0.97545 0.35705 0.0
C601 C 0.801 0.96203 0.3353 0.0
C602 C 0.76424 0.95867 0.38727 0.0
C603 C 0.77994 0.92762 0.39682 0.0
H604 H 0.76106 -0.00107 0.35053 0.0
H605 H 0.74304 0.96957 0.40261 0.0
S606 S 0.85246 0.88283 0.35041 0.0
N607 N 0.84422 0.91666 0.32669 0.0
N608 N 0.82475 0.88512 0.38333 0.0
C609 C 0.80727 0.91445 0.376 0.0
C610 C 0.81786 0.93164 0.3453 0.0
C611 C 0.7736 0.02521 0.0967 0.0
C612 C 0.78961 0.05293 0.07934 0.0
C613 C 0.78961 0.01141 0.12595 0.0
C614 C 0.82249 0.02439 0.13831 0.0
H615 H 0.74792 0.015 0.08849 0.0
H616 H 0.77597 -0.00935 0.13915 0.0
S617 S 0.87641 0.09518 0.10023 0.0
N618 N 0.84077 0.09184 0.07546 0.0
N619 N 0.87124 0.06546 0.12986 0.0
C620 C 0.8394 0.05118 0.12026 0.0
C621 C 0.82284 0.06558 0.09091 0.0
C622 C 0.70429 0.02257 0.84989 0.0
C623 C 0.683 0.03566 0.82359 0.0
C624 C 0.71138 0.04207 0.88062 0.0
C625 C 0.69768 0.07551 0.88607 0.0
H626 H 0.71472 -0.00331 0.84721 0.0
H627 H 0.72738 0.03058 0.90038 0.0
S628 S 0.64303 0.12278 0.82343 0.0
N629 N 0.65017 0.08492 0.80386 0.0
N630 N 0.66345 0.12156 0.86126 0.0
C631 C 0.67733 0.08932 0.85931 0.0
C632 C 0.67001 0.06941 0.82819 0.0
C633 C 0.60057 0.72942 0.95803 0.0
C634 C 0.59456 0.71795 0.92345 0.0
C635 C 0.62861 0.71697 0.97733 0.0
C636 C 0.65146 0.69222 0.96293 0.0
H637 H 0.58336 0.7481 0.97046 0.0
H638 H 0.63194 0.7264 0.00397 0.0
S639 S 0.64793 0.65465 0.87294 0.0
N640 N 0.61437 0.68122 0.87512 0.0
N641 N 0.66703 0.65747 0.91156 0.0
C642 C 0.64609 0.68082 0.92818 0.0
C643 C 0.6177 0.69383 0.90836 0.0
C644 C 0.00213 0.09929 0.7791 0.0
C645 C 0.02553 0.07438 0.79091 0.0
C646 C -0.00466 0.12944 0.79906 0.0
C647 C 0.01145 0.13573 0.83176 0.0
H648 H -0.01031 0.09601 0.7538 0.0
H649 H 0.97759 0.1481 0.78851 0.0
S650 S 0.07276 0.07696 0.87567 0.0
N651 N 0.0633 0.05691 0.83821 0.0
N652 N 0.05059 0.11332 0.87575 0.0
C653 C 0.03406 0.11038 0.84435 0.0
C654 C 0.04108 0.07981 0.82393 0.0
C655 C 0.86212 0.24961 0.46492 0.0
C656 C 0.8818 0.26531 0.43853 0.0
C657 C 0.8305 0.26348 0.4767 0.0
C658 C 0.81698 0.29377 0.4627 0.0
H659 H 0.8712 0.22636 0.47691 0.0
H660 H 0.81672 0.25028 0.49725 0.0
S661 S 0.85774 0.34467 0.39232 0.0
N662 N 0.88514 0.31264 0.3981 0.0
N663 N 0.82544 0.33882 0.42035 0.0
C664 C 0.83607 0.30965 0.43593 0.0
C665 C 0.86849 0.29542 0.42384 0.0
C666 C 0.57404 0.86185 0.76888 0.0
C667 C 0.56957 0.89658 0.77991 0.0
C668 C 0.55583 0.83475 0.78481 0.0
C669 C 0.53302 0.84131 0.81286 0.0
H670 H 0.59216 0.85547 0.74805 0.0
H671 H 0.5609 0.80837 0.77597 0.0
S672 S 0.51051 0.92789 0.85022 0.0
N673 N 0.53909 0.93637 0.81913 0.0
N674 N 0.50538 0.8852 0.8498 0.0
C675 C 0.52739 0.876 0.82345 0.0
C676 C 0.5455 0.90372 0.80674 0.0
C677 C 0.95407 0.10759 0.32791 0.0
C678 C 0.94933 0.14311 0.32214 0.0
C679 C 0.93653 0.08184 0.30748 0.0
C680 C 0.91316 0.09071 0.28096 0.0
H681 H 0.97053 0.09958 0.34913 0.0
H682 H 0.93975 0.05491 0.31386 0.0
S683 S 0.8948 0.17955 0.25238 0.0
N684 N 0.92226 0.18558 0.28552 0.0
N685 N 0.88886 0.13709 0.24758 0.0
C686 C 0.90978 0.12596 0.27353 0.0
C687 C 0.92803 0.15219 0.29397 0.0
C688 C 0.52164 0.09073 0.68373 0.0
C689 C 0.54981 0.09319 0.70756 0.0
C690 C 0.50749 0.12058 0.6699 0.0
C691 C 0.52049 0.15387 0.68007 0.0
H692 H 0.51179 0.06557 0.6742 0.0
H693 H 0.48695 0.11752 0.65032 0.0
S694 S 0.59102 0.17419 0.7451 0.0
N695 N 0.58826 0.13135 0.74299 0.0
N696 N 0.56099 0.18761 0.7177 0.0
C697 C 0.54698 0.15672 0.7057 0.0
C698 C 0.56187 0.12629 0.71924 0.0
C699 C 0.14025 0.29725 0.9036 0.0
C700 C 0.14038 0.32193 0.93124 0.0
C701 C 0.10844 0.28417 0.88927 0.0
C702 C 0.0758 0.29473 0.90275 0.0
H703 H 0.16489 0.28819 0.89281 0.0
H704 H 0.10943 0.26512 0.86802 0.0
S705 S 0.06195 0.3585 0.97531 0.0
N706 N 0.10526 0.35659 0.97149 0.0
N707 N 0.04547 0.33133 0.94512 0.0
C708 C 0.0756 0.31932 0.93046 0.0
C709 C 0.10793 0.33313 0.94456 0.0
C710 C 0.35728 0.72268 0.42069 0.0
C711 C 0.38583 0.70826 0.43834 0.0
C712 C 0.32232 0.71513 0.42995 0.0
C713 C 0.31451 0.69265 0.45703 0.0
H714 H 0.36185 0.73941 0.399 0.0
H715 H 0.3013 0.72604 0.41492 0.0
S716 S 0.37935 0.65093 0.51398 0.0
N717 N 0.40374 0.67251 0.48613 0.0
N718 N 0.33801 0.65827 0.50338 0.0
C719 C 0.3427 0.67921 0.47592 0.0
C720 C 0.37834 0.68705 0.46664 0.0
C721 C 0.75918 0.53929 0.84245 0.0
C722 C 0.78508 0.5138 0.84341 0.0
C723 C 0.74647 0.55482 0.87311 0.0
C724 C 0.75873 0.54497 0.9058 0.0
H725 H 0.7503 0.54895 0.81786 0.0
H726 H 0.72798 0.57572 0.87111 0.0
S727 S 0.82219 0.47536 0.92231 0.0
N728 N 0.81961 0.47653 0.87955 0.0
N729 N 0.79516 0.50526 0.93736 0.0
C730 C 0.78238 0.51744 0.90717 0.0
C731 C 0.79575 0.50199 0.87588 0.0
C732 C 0.6328 0.53993 0.10897 0.0
C733 C 0.63548 0.54598 0.14507 0.0
C734 C 0.65493 0.55754 0.08612 0.0
C735 C 0.68014 0.58236 0.09847 0.0
H736 H 0.61359 0.52125 0.09824 0.0
H737 H 0.65167 0.55218 0.0585 0.0
S738 S 0.69785 0.60762 0.19078 0.0
N739 N 0.66562 0.57814 0.19227 0.0
N740 N 0.70689 0.61178 0.14917 0.0
C741 C 0.6832 0.58862 0.13454 0.0
C742 C 0.661 0.57026 0.15788 0.0
C743 C 0.66438 0.4519 0.39048 0.0
C744 C 0.69186 0.42824 0.38621 0.0
C745 C 0.64694 0.46484 0.36168 0.0
C746 C 0.65704 0.45531 0.32769 0.0
H747 H 0.65499 0.45903 0.41622 0.0
H748 H 0.62493 0.48188 0.36607 0.0
S749 S 0.72967 0.39673 0.30267 0.0
N750 N 0.72974 0.3973 0.34558 0.0
N751 N 0.69777 0.42267 0.29132 0.0
C752 C 0.68582 0.43327 0.32307 0.0
C753 C 0.70302 0.41942 0.3524 0.0
C754 C 0.8107 0.45423 0.60435 0.0
C755 C 0.80109 0.45113 0.63944 0.0
C756 C 0.79184 0.43638 0.57778 0.0
C757 C 0.76302 0.41437 0.58537 0.0
H758 H 0.83362 0.46978 0.59735 0.0
H759 H 0.80103 0.43853 0.5513 0.0
S760 S 0.72438 0.40037 0.67234 0.0
N761 N 0.75862 0.42684 0.67993 0.0
N762 N 0.7235 0.39298 0.62989 0.0
C763 C 0.7519 0.41247 0.62006 0.0
C764 C 0.77082 0.43098 0.64712 0.0
C765 C 0.42034 0.10688 0.22636 0.0
C766 C 0.38632 0.0948 0.21651 0.0
C767 C 0.43696 0.13438 0.20932 0.0
C768 C 0.42037 0.15017 0.1814 0.0
H769 H 0.43453 0.09459 0.24694 0.0
H770 H 0.46356 0.14224 0.21702 0.0
S771 S 0.33038 0.13012 0.14713 0.0
N772 N 0.3357 0.10249 0.17852 0.0
N773 N 0.36738 0.1535 0.14607 0.0
C774 C 0.38593 0.13921 0.17209 0.0
C775 C 0.36876 0.1117 0.18979 0.0
C776 C 0.01288 0.84593 0.68556 0.0
C777 C 0.03102 0.83224 0.65659 0.0
C778 C 0.02674 0.87449 0.70504 0.0
C779 C 0.05954 0.88985 0.69664 0.0
H780 H -0.01251 0.83495 0.69283 0.0
H781 H 0.01169 0.88455 0.72686 0.0
S782 S 0.11814 0.86269 0.62404 0.0
N783 N 0.08384 0.83559 0.62098 0.0
N784 N 0.11008 0.88878 0.65773 0.0
C785 C 0.07824 0.87592 0.66813 0.0
C786 C 0.06391 0.84725 0.64806 0.0
C787 C 0.44593 0.8465 0.27564 0.0
C788 C 0.43175 0.83682 0.30772 0.0
C789 C 0.43681 0.87774 0.26066 0.0
C790 C 0.41279 0.90029 0.27695 0.0
H791 H 0.46493 0.83026 0.26237 0.0
H792 H 0.44867 0.88419 0.23606 0.0
S793 S 0.36703 0.88614 0.36068 0.0
N794 N 0.39176 0.85174 0.3549 0.0
N795 N 0.37434 0.91025 0.32666 0.0
C796 C 0.39781 0.89051 0.30871 0.0
C797 C 0.40737 0.85886 0.32411 0.0
C798 C 0.86253 0.65131 0.0485 0.0
C799 C 0.83988 0.66289 0.02259 0.0
C800 C 0.89302 0.67054 0.0582 0.0
C801 C 0.90211 0.7018 0.04203 0.0
H802 H 0.85618 0.62779 0.06207 0.0
H803 H 0.90937 0.66093 0.07877 0.0
S804 S 0.85266 0.74149 0.97037 0.0
N805 N 0.82939 0.70624 0.97942 0.0
N806 N 0.88663 0.7423 -0.00267 0.0
C807 C 0.88015 0.71293 0.01516 0.0
C808 C 0.84906 0.6935 0.00554 0.0
C809 C 0.5867 0.27661 0.5308 0.0
C810 C 0.57944 0.28778 0.5651 0.0
C811 C 0.61048 0.2951 0.51027 0.0
C812 C 0.62706 0.32586 0.52305 0.0
H813 H 0.57413 0.25321 0.5198 0.0
H814 H 0.61594 0.28528 0.48421 0.0
S815 S 0.61736 0.36616 0.61118 0.0
N816 N 0.59107 0.33138 0.61111 0.0
N817 N 0.63531 0.36652 0.57218 0.0
C818 C 0.61991 0.33753 0.55719 0.0
C819 C 0.59624 0.31834 0.57836 0.0
C820 C 0.20788 0.41692 0.10015 0.0
C821 C 0.18818 0.38958 0.08386 0.0
C822 C 0.19415 0.43594 0.12852 0.0
C823 C 0.15998 0.42874 0.14102 0.0
H824 H 0.23416 0.4235 0.09109 0.0
H825 H 0.21019 0.45675 0.14038 0.0
S826 S 0.09746 0.36012 0.10694 0.0
N827 N 0.13271 0.35642 0.08217 0.0
N828 N 0.10685 0.39228 0.13498 0.0
C829 C 0.14001 0.40154 0.12482 0.0
C830 C 0.15413 0.38192 0.09638 0.0
C831 C 0.2731 0.47854 0.86101 0.0
C832 C 0.29732 0.46629 0.83609 0.0
C833 C 0.26515 0.45959 0.89057 0.0
C834 C 0.28083 0.4275 0.89615 0.0
H835 H 0.25992 0.50286 0.85759 0.0
H836 H 0.24572 0.46969 0.90858 0.0
S837 S 0.34746 0.38464 0.83995 0.0
N838 N 0.33811 0.42054 0.81992 0.0
N839 N 0.32297 0.38502 0.87531 0.0
C840 C 0.30577 0.41534 0.87198 0.0
C841 C 0.31406 0.4347 0.842 0.0
C842 C 0.26228 0.5382 0.59941 0.0
C843 C 0.2774 0.56685 0.58277 0.0
C844 C 0.27833 0.52466 0.62879 0.0
C845 C 0.3104 0.53886 0.64195 0.0
H846 H 0.23741 0.52678 0.5903 0.0
H847 H 0.26557 0.50292 0.64123 0.0
S848 S 0.36143 0.6131 0.6066 0.0
N849 N 0.32657 0.60843 0.58092 0.0
N850 N 0.35708 0.58262 0.63554 0.0
C851 C 0.3262 0.56696 0.62493 0.0
C852 C 0.30959 0.58106 0.59548 0.0
C853 C 0.20379 0.52131 0.3538 0.0
C854 C 0.18221 0.53103 0.32613 0.0
C855 C 0.20929 0.54338 0.38304 0.0
C856 C 0.19366 0.57619 0.38567 0.0
H857 H 0.21591 0.49611 0.35329 0.0
H858 H 0.22576 0.53444 0.40384 0.0
S859 S 0.1367 0.61492 0.31901 0.0
N860 N 0.14646 0.57638 0.30235 0.0
N861 N 0.15677 0.61782 0.3571 0.0
C862 C 0.17273 0.58659 0.35769 0.0
C863 C 0.16701 0.56405 0.32802 0.0
loop_
_geom_bond_atom_site_label_1
_geom_bond_atom_site_label_2
_geom_bond_distance
_geom_bond_site_symmetry_2
_ccdc_geom_bond_type
C0 O1 1.306 . S
C0 O3 1.160 . S
O1 C0 1.306 . S
O1 Cd2 2.228 . S
Cd2 O1 2.228 . S
Cd2 O6 2.273 1_655 S
Cd2 O10 2.277 . S
O3 C0 1.160 . S
O3 Cd4 2.203 1_655 S
Cd4 O3 2.203 1_455 S
Cd4 O6 2.411 . S
Cd4 O7 2.333 . S
Cd4 O8 2.352 . S
Cd4 O12 2.277 1_455 S
Cd4 O13 2.356 . S
C5 O10 1.209 . S
C5 O12 1.226 . S
O6 Cd2 2.273 1_455 S
O6 Cd4 2.411 . S
O6 C9 1.320 . S
O7 Cd4 2.333 . S
O7 C9 1.214 . S
O8 Cd4 2.352 . S
O8 C11 1.258 . S
C9 O6 1.320 . S
C9 O7 1.214 . S
O10 Cd2 2.277 . S
O10 C5 1.209 . S
C11 O8 1.258 . S
C11 O13 1.282 . S
O12 Cd4 2.277 1_655 S
O12 C5 1.226 . S
O13 Cd4 2.356 . S
O13 C11 1.282 . S
C14 O15 1.306 . S
C14 O17 1.160 . S
O15 C14 1.306 . S
O15 Cd16 2.228 1_655 S
Cd16 O15 2.228 1_455 S
Cd16 O20 2.273 . S
Cd16 O24 2.277 . S
O17 C14 1.160 . S
O17 Cd18 2.225 . S
Cd18 O17 2.225 . S
Cd18 O20 2.398 1_655 S
Cd18 O21 2.310 1_655 S
Cd18 O22 2.363 . S
Cd18 O26 2.270 1_655 S
Cd18 O27 2.361 . S
C19 O24 1.209 . S
C19 O26 1.226 . S
O20 Cd16 2.273 . S
O20 Cd18 2.398 1_455 S
O20 C23 1.320 . S
O21 Cd18 2.310 1_455 S
O21 C23 1.214 . S
O22 Cd18 2.363 . S
O22 C25 1.258 . S
C23 O20 1.320 . S
C23 O21 1.214 . S
O24 Cd16 2.277 . S
O24 C19 1.209 . S
C25 O22 1.258 . S
C25 O27 1.282 . S
O26 Cd18 2.270 1_455 S
O26 C19 1.226 . S
O27 Cd18 2.361 . S
O27 C25 1.282 . S
C28 O29 1.306 . S
C28 O31 1.160 . S
O29 C28 1.306 . S
O29 Cd30 2.228 . S
Cd30 O29 2.228 . S
Cd30 O34 2.273 . S
Cd30 O38 2.277 . S
O31 C28 1.160 . S
O31 Cd32 2.203 . S
Cd32 O31 2.203 . S
Cd32 O34 2.411 . S
Cd32 O35 2.333 . S
Cd32 O36 2.352 . S
Cd32 O40 2.277 . S
Cd32 O41 2.356 . S
C33 O38 1.209 . S
C33 O40 1.226 . S
O34 Cd30 2.273 . S
O34 Cd32 2.411 . S
O34 C37 1.320 . S
O35 Cd32 2.333 . S
O35 C37 1.214 . S
O36 Cd32 2.352 . S
O36 C39 1.258 . S
C37 O34 1.320 . S
C37 O35 1.214 . S
O38 Cd30 2.277 . S
O38 C33 1.209 . S
C39 O36 1.258 . S
C39 O41 1.282 . S
O40 Cd32 2.277 . S
O40 C33 1.226 . S
O41 Cd32 2.356 . S
O41 C39 1.282 . S
C42 O43 1.306 . S
C42 O45 1.160 . S
O43 C42 1.306 . S
O43 Cd44 2.228 . S
Cd44 O43 2.228 . S
Cd44 O48 2.273 . S
Cd44 O52 2.277 . S
O45 C42 1.160 . S
O45 Cd46 2.203 . S
Cd46 O45 2.203 . S
Cd46 O48 2.411 . S
Cd46 O49 2.333 . S
Cd46 O50 2.352 . S
Cd46 O54 2.277 . S
Cd46 O55 2.356 . S
C47 O52 1.209 . S
C47 O54 1.226 . S
O48 Cd44 2.273 . S
O48 Cd46 2.411 . S
O48 C51 1.320 . S
O49 Cd46 2.333 . S
O49 C51 1.214 . S
O50 Cd46 2.352 . S
O50 C53 1.258 . S
C51 O48 1.320 . S
C51 O49 1.214 . S
O52 Cd44 2.277 . S
O52 C47 1.209 . S
C53 O50 1.258 . S
C53 O55 1.282 . S
O54 Cd46 2.277 . S
O54 C47 1.226 . S
O55 Cd46 2.356 . S
O55 C53 1.282 . S
C56 O57 1.306 . S
C56 O59 1.160 . S
O57 C56 1.306 . S
O57 Cd58 2.228 . S
Cd58 O57 2.228 . S
Cd58 O62 2.273 1_655 S
Cd58 O66 2.277 . S
O59 C56 1.160 . S
O59 Cd60 2.203 1_655 S
Cd60 O59 2.203 1_455 S
Cd60 O62 2.411 . S
Cd60 O63 2.333 . S
Cd60 O64 2.352 . S
Cd60 O68 2.277 1_455 S
Cd60 O69 2.356 . S
C61 O66 1.209 . S
C61 O68 1.226 . S
O62 Cd58 2.273 1_455 S
O62 Cd60 2.411 . S
O62 C65 1.320 . S
O63 Cd60 2.333 . S
O63 C65 1.214 . S
O64 Cd60 2.352 . S
O64 C67 1.258 . S
C65 O62 1.320 . S
C65 O63 1.214 . S
O66 Cd58 2.277 . S
O66 C61 1.209 . S
C67 O64 1.258 . S
C67 O69 1.282 . S
O68 Cd60 2.277 1_655 S
O68 C61 1.226 . S
O69 Cd60 2.356 . S
O69 C67 1.282 . S
C70 O71 1.306 . S
C70 O73 1.160 . S
O71 C70 1.306 . S
O71 Cd72 2.228 . S
Cd72 O71 2.228 . S
Cd72 O76 2.273 . S
Cd72 O80 2.277 . S
O73 C70 1.160 . S
O73 Cd74 2.203 . S
Cd74 O73 2.203 . S
Cd74 O76 2.411 . S
Cd74 O77 2.333 . S
Cd74 O78 2.352 . S
Cd74 O82 2.277 . S
Cd74 O83 2.356 . S
C75 O80 1.209 . S
C75 O82 1.226 . S
O76 Cd72 2.273 . S
O76 Cd74 2.411 . S
O76 C79 1.320 . S
O77 Cd74 2.333 . S
O77 C79 1.214 . S
O78 Cd74 2.352 . S
O78 C81 1.258 . S
C79 O76 1.320 . S
C79 O77 1.214 . S
O80 Cd72 2.277 . S
O80 C75 1.209 . S
C81 O78 1.258 . S
C81 O83 1.282 . S
O82 Cd74 2.277 . S
O82 C75 1.226 . S
O83 Cd74 2.356 . S
O83 C81 1.282 . S
C84 O85 1.306 . S
C84 O87 1.160 . S
O85 C84 1.306 . S
O85 Cd86 2.228 . S
Cd86 O85 2.228 . S
Cd86 O90 2.273 . S
Cd86 O94 2.277 . S
O87 C84 1.160 . S
O87 Cd88 2.203 . S
Cd88 O87 2.203 . S
Cd88 O90 2.411 . S
Cd88 O91 2.333 . S
Cd88 O92 2.352 . S
Cd88 O96 2.277 . S
Cd88 O97 2.356 . S
C89 O94 1.209 . S
C89 O96 1.226 . S
O90 Cd86 2.273 . S
O90 Cd88 2.411 . S
O90 C93 1.320 . S
O91 Cd88 2.333 . S
O91 C93 1.214 . S
O92 Cd88 2.352 . S
O92 C95 1.258 . S
C93 O90 1.320 . S
C93 O91 1.214 . S
O94 Cd86 2.277 . S
O94 C89 1.209 . S
C95 O92 1.258 . S
C95 O97 1.282 . S
O96 Cd88 2.277 . S
O96 C89 1.226 . S
O97 Cd88 2.356 . S
O97 C95 1.282 . S
C98 O99 1.306 . S
C98 O101 1.160 . S
O99 C98 1.306 . S
O99 Cd100 2.228 1_655 S
Cd100 O99 2.228 1_455 S
Cd100 O104 2.273 . S
Cd100 O108 2.277 . S
O101 C98 1.160 . S
O101 Cd102 2.219 . S
Cd102 O101 2.219 . S
Cd102 O104 2.401 1_655 S
Cd102 O105 2.316 1_655 S
Cd102 O106 2.361 . S
Cd102 O110 2.271 1_655 S
Cd102 O111 2.360 . S
C103 O108 1.209 . S
C103 O110 1.226 . S
O104 Cd100 2.273 . S
O104 Cd102 2.401 1_455 S
O104 C107 1.320 . S
O105 Cd102 2.316 1_455 S
O105 C107 1.214 . S
O106 Cd102 2.361 . S
O106 C109 1.258 . S
C107 O104 1.320 . S
C107 O105 1.214 . S
O108 Cd100 2.277 . S
O108 C103 1.209 . S
C109 O106 1.258 . S
C109 O111 1.282 . S
O110 Cd102 2.271 1_455 S
O110 C103 1.226 . S
O111 Cd102 2.360 . S
O111 C109 1.282 . S
C112 O113 1.306 . S
C112 O115 1.160 . S
O113 C112 1.306 . S
O113 Cd114 2.228 . S
Cd114 O113 2.228 . S
Cd114 O118 2.273 1_565 S
Cd114 O122 2.277 . S
O115 C112 1.160 . S
O115 Cd116 2.203 1_565 S
Cd116 O115 2.203 1_545 S
Cd116 O118 2.411 . S
Cd116 O119 2.333 . S
Cd116 O120 2.352 . S
Cd116 O124 2.277 1_545 S
Cd116 O125 2.356 . S
C117 O122 1.209 . S
C117 O124 1.226 . S
O118 Cd114 2.273 1_545 S
O118 Cd116 2.411 . S
O118 C121 1.320 . S
O119 Cd116 2.333 . S
O119 C121 1.214 . S
O120 Cd116 2.352 . S
O120 C123 1.258 . S
C121 O118 1.320 . S
C121 O119 1.214 . S
O122 Cd114 2.277 . S
O122 C117 1.209 . S
C123 O120 1.258 . S
C123 O125 1.282 . S
O124 Cd116 2.277 1_565 S
O124 C117 1.226 . S
O125 Cd116 2.356 . S
O125 C123 1.282 . S
C126 O127 1.306 . S
C126 O129 1.160 . S
O127 C126 1.306 . S
O127 Cd128 2.228 . S
Cd128 O127 2.228 . S
Cd128 O132 2.273 . S
Cd128 O136 2.277 . S
O129 C126 1.160 . S
O129 Cd130 2.203 . S
Cd130 O129 2.203 . S
Cd130 O132 2.411 . S
Cd130 O133 2.333 . S
Cd130 O134 2.352 . S
Cd130 O138 2.277 . S
Cd130 O139 2.356 . S
C131 O136 1.209 . S
C131 O138 1.226 . S
O132 Cd128 2.273 . S
O132 Cd130 2.411 . S
O132 C135 1.320 . S
O133 Cd130 2.333 . S
O133 C135 1.214 . S
O134 Cd130 2.352 . S
O134 C137 1.258 . S
C135 O132 1.320 . S
C135 O133 1.214 . S
O136 Cd128 2.277 . S
O136 C131 1.209 . S
C137 O134 1.258 . S
C137 O139 1.282 . S
O138 Cd130 2.277 . S
O138 C131 1.226 . S
O139 Cd130 2.356 . S
O139 C137 1.282 . S
C140 O141 1.306 . S
C140 O143 1.160 . S
O141 C140 1.306 . S
O141 Cd142 2.228 . S
Cd142 O141 2.228 . S
Cd142 O146 2.273 1_545 S
Cd142 O150 2.277 . S
O143 C140 1.160 . S
O143 Cd144 2.203 . S
Cd144 O143 2.203 . S
Cd144 O146 2.411 1_545 S
Cd144 O147 2.333 1_545 S
Cd144 O148 2.352 1_545 S
Cd144 O152 2.277 . S
Cd144 O153 2.356 1_545 S
C145 O150 1.209 . S
C145 O152 1.226 . S
O146 Cd142 2.273 1_565 S
O146 Cd144 2.411 1_565 S
O146 C149 1.320 . S
O147 Cd144 2.333 1_565 S
O147 C149 1.214 . S
O148 Cd144 2.352 1_565 S
O148 C151 1.258 . S
C149 O146 1.320 . S
C149 O147 1.214 . S
O150 Cd142 2.277 . S
O150 C145 1.209 . S
C151 O148 1.258 . S
C151 O153 1.282 . S
O152 Cd144 2.277 . S
O152 C145 1.226 . S
O153 Cd144 2.356 1_565 S
O153 C151 1.282 . S
C154 O155 1.306 1_556 S
C154 O157 1.160 . S
O155 C154 1.306 1_554 S
O155 Cd156 2.228 . S
Cd156 O155 2.228 . S
Cd156 O160 2.273 . S
Cd156 O164 2.277 . S
O157 C154 1.160 . S
O157 Cd158 2.198 1_556 S
Cd158 O157 2.198 1_554 S
Cd158 O160 2.416 . S
Cd158 O161 2.339 . S
Cd158 O162 2.339 1_554 S
Cd158 O166 2.286 . S
Cd158 O167 2.349 1_554 S
C159 O164 1.209 . S
C159 O166 1.226 . S
O160 Cd156 2.273 . S
O160 Cd158 2.416 . S
O160 C163 1.320 . S
O161 Cd158 2.339 . S
O161 C163 1.214 . S
O162 Cd158 2.339 1_556 S
O162 C165 1.258 . S
C163 O160 1.320 . S
C163 O161 1.214 . S
O164 Cd156 2.277 . S
O164 C159 1.209 . S
C165 O162 1.258 . S
C165 O167 1.282 . S
O166 Cd158 2.286 . S
O166 C159 1.226 . S
O167 Cd158 2.349 1_556 S
O167 C165 1.282 . S
C168 O169 1.306 . S
C168 O171 1.160 . S
O169 C168 1.306 . S
O169 Cd170 2.228 . S
Cd170 O169 2.228 . S
Cd170 O174 2.273 1_554 S
Cd170 O178 2.277 . S
O171 C168 1.160 . S
O171 Cd172 2.202 . S
Cd172 O171 2.202 . S
Cd172 O174 2.411 1_554 S
Cd172 O175 2.334 1_554 S
Cd172 O176 2.354 1_554 S
Cd172 O180 2.274 . S
Cd172 O181 2.358 1_554 S
C173 O178 1.209 . S
C173 O180 1.226 . S
O174 Cd170 2.273 1_556 S
O174 Cd172 2.411 1_556 S
O174 C177 1.320 . S
O175 Cd172 2.334 1_556 S
O175 C177 1.214 . S
O176 Cd172 2.354 1_556 S
O176 C179 1.258 . S
C177 O174 1.320 . S
C177 O175 1.214 . S
O178 Cd170 2.277 . S
O178 C173 1.209 . S
C179 O176 1.258 . S
C179 O181 1.282 . S
O180 Cd172 2.274 . S
O180 C173 1.226 . S
O181 Cd172 2.358 1_556 S
O181 C179 1.282 . S
C182 O183 1.306 . S
C182 O185 1.160 . S
O183 C182 1.306 . S
O183 Cd184 2.228 . S
Cd184 O183 2.228 . S
Cd184 O188 2.273 1_556 S
Cd184 O192 2.277 . S
O185 C182 1.160 . S
O185 Cd186 2.203 1_556 S
Cd186 O185 2.203 1_554 S
Cd186 O188 2.411 . S
Cd186 O189 2.333 . S
Cd186 O190 2.352 . S
Cd186 O194 2.277 1_554 S
Cd186 O195 2.356 . S
C187 O192 1.209 . S
C187 O194 1.226 . S
O188 Cd184 2.273 1_554 S
O188 Cd186 2.411 . S
O188 C191 1.320 . S
O189 Cd186 2.333 . S
O189 C191 1.214 . S
O190 Cd186 2.352 . S
O190 C193 1.258 . S
C191 O188 1.320 . S
C191 O189 1.214 . S
O192 Cd184 2.277 . S
O192 C187 1.209 . S
C193 O190 1.258 . S
C193 O195 1.282 . S
O194 Cd186 2.277 1_556 S
O194 C187 1.226 . S
O195 Cd186 2.356 . S
O195 C193 1.282 . S
C196 O197 1.306 . S
C196 O199 1.160 . S
O197 C196 1.306 . S
O197 Cd198 2.228 . S
Cd198 O197 2.228 . S
Cd198 O202 2.273 . S
Cd198 O206 2.277 . S
O199 C196 1.160 . S
O199 Cd200 2.203 . S
Cd200 O199 2.203 . S
Cd200 O202 2.411 . S
Cd200 O203 2.333 . S
Cd200 O204 2.352 . S
Cd200 O208 2.277 . S
Cd200 O209 2.356 . S
C201 O206 1.209 . S
C201 O208 1.226 . S
O202 Cd198 2.273 . S
O202 Cd200 2.411 . S
O202 C205 1.320 . S
O203 Cd200 2.333 . S
O203 C205 1.214 . S
O204 Cd200 2.352 . S
O204 C207 1.258 . S
C205 O202 1.320 . S
C205 O203 1.214 . S
O206 Cd198 2.277 . S
O206 C201 1.209 . S
C207 O204 1.258 . S
C207 O209 1.282 . S
O208 Cd200 2.277 . S
O208 C201 1.226 . S
O209 Cd200 2.356 . S
O209 C207 1.282 . S
C210 O211 1.306 . S
C210 O213 1.160 . S
O211 C210 1.306 . S
O211 Cd212 2.228 . S
Cd212 O211 2.228 . S
Cd212 O216 2.273 . S
Cd212 O220 2.277 . S
O213 C210 1.160 . S
O213 Cd214 2.203 . S
Cd214 O213 2.203 . S
Cd214 O216 2.411 . S
Cd214 O217 2.333 . S
Cd214 O218 2.352 . S
Cd214 O222 2.277 . S
Cd214 O223 2.356 . S
C215 O220 1.209 . S
C215 O222 1.226 . S
O216 Cd212 2.273 . S
O216 Cd214 2.411 . S
O216 C219 1.320 . S
O217 Cd214 2.333 . S
O217 C219 1.214 . S
O218 Cd214 2.352 . S
O218 C221 1.258 . S
C219 O216 1.320 . S
C219 O217 1.214 . S
O220 Cd212 2.277 . S
O220 C215 1.209 . S
C221 O218 1.258 . S
C221 O223 1.282 . S
O222 Cd214 2.277 . S
O222 C215 1.226 . S
O223 Cd214 2.356 . S
O223 C221 1.282 . S
C224 O225 1.306 1_565 S
C224 O227 1.160 . S
O225 C224 1.306 1_545 S
O225 Cd226 2.228 . S
Cd226 O225 2.228 . S
Cd226 O230 2.273 . S
Cd226 O234 2.277 . S
O227 C224 1.160 . S
O227 Cd228 2.203 1_565 S
Cd228 O227 2.203 1_545 S
Cd228 O230 2.411 . S
Cd228 O231 2.333 . S
Cd228 O232 2.352 1_545 S
Cd228 O236 2.277 . S
Cd228 O237 2.356 1_545 S
C229 O234 1.209 . S
C229 O236 1.226 . S
O230 Cd226 2.273 . S
O230 Cd228 2.411 . S
O230 C233 1.320 . S
O231 Cd228 2.333 . S
O231 C233 1.214 . S
O232 Cd228 2.352 1_565 S
O232 C235 1.258 . S
C233 O230 1.320 . S
C233 O231 1.214 . S
O234 Cd226 2.277 . S
O234 C229 1.209 . S
C235 O232 1.258 . S
C235 O237 1.282 . S
O236 Cd228 2.277 . S
O236 C229 1.226 . S
O237 Cd228 2.356 1_565 S
O237 C235 1.282 . S
C238 O239 1.306 . S
C238 O241 1.160 . S
O239 C238 1.306 . S
O239 Cd240 2.228 . S
Cd240 O239 2.228 . S
Cd240 O244 2.273 . S
Cd240 O248 2.277 . S
O241 C238 1.160 . S
O241 Cd242 2.203 . S
Cd242 O241 2.203 . S
Cd242 O244 2.411 . S
Cd242 O245 2.333 . S
Cd242 O246 2.352 . S
Cd242 O250 2.277 . S
Cd242 O251 2.356 . S
C243 O248 1.209 . S
C243 O250 1.226 . S
O244 Cd240 2.273 . S
O244 Cd242 2.411 . S
O244 C247 1.320 . S
O245 Cd242 2.333 . S
O245 C247 1.214 . S
O246 Cd242 2.352 . S
O246 C249 1.258 . S
C247 O244 1.320 . S
C247 O245 1.214 . S
O248 Cd240 2.277 . S
O248 C243 1.209 . S
C249 O246 1.258 . S
C249 O251 1.282 . S
O250 Cd242 2.277 . S
O250 C243 1.226 . S
O251 Cd242 2.356 . S
O251 C249 1.282 . S
C252 O253 1.306 . S
C252 O255 1.160 . S
O253 C252 1.306 . S
O253 Cd254 2.228 . S
Cd254 O253 2.228 . S
Cd254 O258 2.273 . S
Cd254 O262 2.277 . S
O255 C252 1.160 . S
O255 Cd256 2.203 . S
Cd256 O255 2.203 . S
Cd256 O258 2.411 . S
Cd256 O259 2.333 . S
Cd256 O260 2.352 . S
Cd256 O264 2.277 . S
Cd256 O265 2.356 . S
C257 O262 1.209 . S
C257 O264 1.226 . S
O258 Cd254 2.273 . S
O258 Cd256 2.411 . S
O258 C261 1.320 . S
O259 Cd256 2.333 . S
O259 C261 1.214 . S
O260 Cd256 2.352 . S
O260 C263 1.258 . S
C261 O258 1.320 . S
C261 O259 1.214 . S
O262 Cd254 2.277 . S
O262 C257 1.209 . S
C263 O260 1.258 . S
C263 O265 1.282 . S
O264 Cd256 2.277 . S
O264 C257 1.226 . S
O265 Cd256 2.356 . S
O265 C263 1.282 . S
C266 O267 1.306 . S
C266 O269 1.160 . S
O267 C266 1.306 . S
O267 Cd268 2.228 1_545 S
Cd268 O267 2.228 1_565 S
Cd268 O272 2.273 . S
Cd268 O276 2.277 . S
O269 C266 1.160 . S
O269 Cd270 2.203 . S
Cd270 O269 2.203 . S
Cd270 O272 2.411 1_545 S
Cd270 O273 2.333 1_545 S
Cd270 O274 2.352 . S
Cd270 O278 2.277 1_545 S
Cd270 O279 2.356 . S
C271 O276 1.209 . S
C271 O278 1.226 . S
O272 Cd268 2.273 . S
O272 Cd270 2.411 1_565 S
O272 C275 1.320 . S
O273 Cd270 2.333 1_565 S
O273 C275 1.214 . S
O274 Cd270 2.352 . S
O274 C277 1.258 . S
C275 O272 1.320 . S
C275 O273 1.214 . S
O276 Cd268 2.277 . S
O276 C271 1.209 . S
C277 O274 1.258 . S
C277 O279 1.282 . S
O278 Cd270 2.277 1_565 S
O278 C271 1.226 . S
O279 Cd270 2.356 . S
O279 C277 1.282 . S
C280 O281 1.306 1_556 S
C280 O283 1.160 . S
O281 C280 1.306 1_554 S
O281 Cd282 2.228 . S
Cd282 O281 2.228 . S
Cd282 O286 2.273 . S
Cd282 O290 2.277 . S
O283 C280 1.160 . S
O283 Cd284 2.203 1_556 S
Cd284 O283 2.203 1_554 S
Cd284 O286 2.411 . S
Cd284 O287 2.333 . S
Cd284 O288 2.352 1_554 S
Cd284 O292 2.277 . S
Cd284 O293 2.356 1_554 S
C285 O290 1.209 . S
C285 O292 1.226 . S
O286 Cd282 2.273 . S
O286 Cd284 2.411 . S
O286 C289 1.320 . S
O287 Cd284 2.333 . S
O287 C289 1.214 . S
O288 Cd284 2.352 1_556 S
O288 C291 1.258 . S
C289 O286 1.320 . S
C289 O287 1.214 . S
O290 Cd282 2.277 . S
O290 C285 1.209 . S
C291 O288 1.258 . S
C291 O293 1.282 . S
O292 Cd284 2.277 . S
O292 C285 1.226 . S
O293 Cd284 2.356 1_556 S
O293 C291 1.282 . S
C294 O295 1.306 . S
C294 O297 1.160 . S
O295 C294 1.306 . S
O295 Cd296 2.228 . S
Cd296 O295 2.228 . S
Cd296 O300 2.273 . S
Cd296 O304 2.277 . S
O297 C294 1.160 . S
O297 Cd298 2.203 . S
Cd298 O297 2.203 . S
Cd298 O300 2.411 . S
Cd298 O301 2.333 . S
Cd298 O302 2.352 . S
Cd298 O306 2.277 . S
Cd298 O307 2.356 . S
C299 O304 1.209 . S
C299 O306 1.226 . S
O300 Cd296 2.273 . S
O300 Cd298 2.411 . S
O300 C303 1.320 . S
O301 Cd298 2.333 . S
O301 C303 1.214 . S
O302 Cd298 2.352 . S
O302 C305 1.258 . S
C303 O300 1.320 . S
C303 O301 1.214 . S
O304 Cd296 2.277 . S
O304 C299 1.209 . S
C305 O302 1.258 . S
C305 O307 1.282 . S
O306 Cd298 2.277 . S
O306 C299 1.226 . S
O307 Cd298 2.356 . S
O307 C305 1.282 . S
C308 O309 1.306 . S
C308 O311 1.160 . S
O309 C308 1.306 . S
O309 Cd310 2.228 . S
Cd310 O309 2.228 . S
Cd310 O314 2.273 . S
Cd310 O318 2.277 . S
O311 C308 1.160 . S
O311 Cd312 2.203 . S
Cd312 O311 2.203 . S
Cd312 O314 2.411 . S
Cd312 O315 2.333 . S
Cd312 O316 2.352 . S
Cd312 O320 2.277 . S
Cd312 O321 2.356 . S
C313 O318 1.209 . S
C313 O320 1.226 . S
O314 Cd310 2.273 . S
O314 Cd312 2.411 . S
O314 C317 1.320 . S
O315 Cd312 2.333 . S
O315 C317 1.214 . S
O316 Cd312 2.352 . S
O316 C319 1.258 . S
C317 O314 1.320 . S
C317 O315 1.214 . S
O318 Cd310 2.277 . S
O318 C313 1.209 . S
C319 O316 1.258 . S
C319 O321 1.282 . S
O320 Cd312 2.277 . S
O320 C313 1.226 . S
O321 Cd312 2.356 . S
O321 C319 1.282 . S
C322 O323 1.306 . S
C322 O325 1.160 . S
O323 C322 1.306 . S
O323 Cd324 2.228 . S
Cd324 O323 2.228 . S
Cd324 O328 2.273 . S
Cd324 O332 2.277 . S
O325 C322 1.160 . S
O325 Cd326 2.203 . S
Cd326 O325 2.203 . S
Cd326 O328 2.411 . S
Cd326 O329 2.333 . S
Cd326 O330 2.352 . S
Cd326 O334 2.277 . S
Cd326 O335 2.356 . S
C327 O332 1.209 . S
C327 O334 1.226 . S
O328 Cd324 2.273 . S
O328 Cd326 2.411 . S
O328 C331 1.320 . S
O329 Cd326 2.333 . S
O329 C331 1.214 . S
O330 Cd326 2.352 . S
O330 C333 1.258 . S
C331 O328 1.320 . S
C331 O329 1.214 . S
O332 Cd324 2.277 . S
O332 C327 1.209 . S
C333 O330 1.258 . S
C333 O335 1.282 . S
O334 Cd326 2.277 . S
O334 C327 1.226 . S
O335 Cd326 2.356 . S
O335 C333 1.282 . S
C336 C337 1.369 . S
C336 C338 1.419 . S
C336 H340 0.930 . S
C337 C336 1.369 . S
C337 C346 1.429 . S
C338 C336 1.419 . S
C338 C339 1.363 . S
C338 H341 0.929 . S
C339 C338 1.363 . S
C339 C345 1.428 . S
H340 C336 0.930 . S
H341 C338 0.929 . S
S342 N343 1.608 1_655 S
S342 N344 1.609 1_655 S
N343 S342 1.608 1_455 S
N343 C346 1.350 . S
N344 S342 1.609 1_455 S
N344 C345 1.351 . S
C345 C339 1.428 . S
C345 N344 1.351 . S
C345 C346 1.434 . S
C346 C337 1.429 . S
C346 N343 1.350 . S
C346 C345 1.434 . S
C347 C348 1.369 . S
C347 C349 1.419 . S
C347 H351 0.930 . S
C348 C347 1.369 . S
C348 C357 1.429 . S
C349 C347 1.419 . S
C349 C350 1.363 . S
C349 H352 0.929 . S
C350 C349 1.363 . S
C350 C356 1.428 . S
H351 C347 0.930 . S
H352 C349 0.929 . S
S353 N354 1.613 . S
S353 N355 1.610 . S
N354 S353 1.613 . S
N354 C357 1.350 . S
N355 S353 1.610 . S
N355 C356 1.351 . S
C356 C350 1.428 . S
C356 N355 1.351 . S
C356 C357 1.434 . S
C357 C348 1.429 . S
C357 N354 1.350 . S
C357 C356 1.434 . S
C358 C359 1.369 . S
C358 C360 1.419 . S
C358 H362 0.930 . S
C359 C358 1.369 . S
C359 C368 1.429 . S
C360 C358 1.419 . S
C360 C361 1.363 . S
C360 H363 0.929 . S
C361 C360 1.363 . S
C361 C367 1.428 . S
H362 C358 0.930 . S
H363 C360 0.929 . S
S364 N365 1.613 . S
S364 N366 1.610 . S
N365 S364 1.613 . S
N365 C368 1.350 . S
N366 S364 1.610 . S
N366 C367 1.351 . S
C367 C361 1.428 . S
C367 N366 1.351 . S
C367 C368 1.434 . S
C368 C359 1.429 . S
C368 N365 1.350 . S
C368 C367 1.434 . S
C369 C370 1.369 . S
C369 C371 1.419 . S
C369 H373 0.930 . S
C370 C369 1.369 . S
C370 C379 1.429 . S
C371 C369 1.419 . S
C371 C372 1.363 . S
C371 H374 0.929 . S
C372 C371 1.363 . S
C372 C378 1.428 . S
H373 C369 0.930 . S
H374 C371 0.929 . S
S375 N376 1.613 . S
S375 N377 1.610 . S
N376 S375 1.613 . S
N376 C379 1.350 . S
N377 S375 1.610 . S
N377 C378 1.351 . S
C378 C372 1.428 . S
C378 N377 1.351 . S
C378 C379 1.434 . S
C379 C370 1.429 . S
C379 N376 1.350 . S
C379 C378 1.434 . S
C380 C381 1.369 . S
C380 C382 1.419 . S
C380 H384 0.930 . S
C381 C380 1.369 . S
C381 C390 1.429 . S
C382 C380 1.419 . S
C382 C383 1.363 . S
C382 H385 0.929 . S
C383 C382 1.363 . S
C383 C389 1.428 . S
H384 C380 0.930 . S
H385 C382 0.929 . S
S386 N387 1.613 . S
S386 N388 1.610 . S
N387 S386 1.613 . S
N387 C390 1.350 . S
N388 S386 1.610 . S
N388 C389 1.351 . S
C389 C383 1.428 . S
C389 N388 1.351 . S
C389 C390 1.434 . S
C390 C381 1.429 . S
C390 N387 1.350 . S
C390 C389 1.434 . S
C391 C392 1.369 . S
C391 C393 1.419 . S
C391 H395 0.930 . S
C392 C391 1.369 . S
C392 C401 1.429 . S
C393 C391 1.419 . S
C393 C394 1.363 . S
C393 H396 0.929 . S
C394 C393 1.363 . S
C394 C400 1.428 . S
H395 C391 0.930 . S
H396 C393 0.929 . S
S397 N398 1.613 . S
S397 N399 1.610 . S
N398 S397 1.613 . S
N398 C401 1.350 . S
N399 S397 1.610 . S
N399 C400 1.351 . S
C400 C394 1.428 . S
C400 N399 1.351 . S
C400 C401 1.434 . S
C401 C392 1.429 . S
C401 N398 1.350 . S
C401 C400 1.434 . S
C402 C403 1.369 . S
C402 C404 1.419 . S
C402 H406 0.930 . S
C403 C402 1.369 . S
C403 C412 1.429 . S
C404 C402 1.419 . S
C404 C405 1.363 . S
C404 H407 0.929 . S
C405 C404 1.363 . S
C405 C411 1.428 . S
H406 C402 0.930 . S
H407 C404 0.929 . S
S408 N409 1.613 . S
S408 N410 1.610 . S
N409 S408 1.613 . S
N409 C412 1.350 . S
N410 S408 1.610 . S
N410 C411 1.351 . S
C411 C405 1.428 . S
C411 N410 1.351 . S
C411 C412 1.434 . S
C412 C403 1.429 . S
C412 N409 1.350 . S
C412 C411 1.434 . S
C413 C414 1.369 . S
C413 C415 1.419 . S
C413 H417 0.930 . S
C414 C413 1.369 . S
C414 C423 1.429 . S
C415 C413 1.419 . S
C415 C416 1.363 . S
C415 H418 0.929 . S
C416 C415 1.363 . S
C416 C422 1.428 . S
H417 C413 0.930 . S
H418 C415 0.929 . S
S419 N420 1.613 . S
S419 N421 1.610 . S
N420 S419 1.613 . S
N420 C423 1.350 . S
N421 S419 1.610 . S
N421 C422 1.351 . S
C422 C416 1.428 . S
C422 N421 1.351 . S
C422 C423 1.434 . S
C423 C414 1.429 . S
C423 N420 1.350 . S
C423 C422 1.434 . S
C424 C425 1.369 . S
C424 C426 1.419 . S
C424 H428 0.930 . S
C425 C424 1.369 . S
C425 C434 1.429 . S
C426 C424 1.419 . S
C426 C427 1.363 . S
C426 H429 0.929 . S
C427 C426 1.363 . S
C427 C433 1.428 . S
H428 C424 0.930 . S
H429 C426 0.929 . S
S430 N431 1.613 . S
S430 N432 1.610 . S
N431 S430 1.613 . S
N431 C434 1.350 . S
N432 S430 1.610 . S
N432 C433 1.351 . S
C433 C427 1.428 . S
C433 N432 1.351 . S
C433 C434 1.434 . S
C434 C425 1.429 . S
C434 N431 1.350 . S
C434 C433 1.434 . S
C435 C436 1.369 . S
C435 C437 1.419 . S
C435 H439 0.930 . S
C436 C435 1.369 . S
C436 C445 1.429 . S
C437 C435 1.419 . S
C437 C438 1.363 . S
C437 H440 0.929 . S
C438 C437 1.363 . S
C438 C444 1.428 . S
H439 C435 0.930 . S
H440 C437 0.929 . S
S441 N442 1.613 . S
S441 N443 1.610 . S
N442 S441 1.613 . S
N442 C445 1.350 . S
N443 S441 1.610 . S
N443 C444 1.351 . S
C444 C438 1.428 . S
C444 N443 1.351 . S
C444 C445 1.434 . S
C445 C436 1.429 . S
C445 N442 1.350 . S
C445 C444 1.434 . S
C446 C447 1.369 . S
C446 C448 1.419 . S
C446 H450 0.930 . S
C447 C446 1.369 . S
C447 C456 1.429 . S
C448 C446 1.419 . S
C448 C449 1.363 . S
C448 H451 0.929 . S
C449 C448 1.363 . S
C449 C455 1.428 . S
H450 C446 0.930 . S
H451 C448 0.929 . S
S452 N453 1.613 . S
S452 N454 1.610 . S
N453 S452 1.613 . S
N453 C456 1.350 . S
N454 S452 1.610 . S
N454 C455 1.351 . S
C455 C449 1.428 . S
C455 N454 1.351 . S
C455 C456 1.434 . S
C456 C447 1.429 . S
C456 N453 1.350 . S
C456 C455 1.434 . S
C457 C458 1.369 . S
C457 C459 1.419 . S
C457 H461 0.930 . S
C458 C457 1.369 . S
C458 C467 1.429 . S
C459 C457 1.419 . S
C459 C460 1.363 . S
C459 H462 0.929 . S
C460 C459 1.363 . S
C460 C466 1.428 . S
H461 C457 0.930 . S
H462 C459 0.929 . S
S463 N464 1.613 . S
S463 N465 1.610 . S
N464 S463 1.613 . S
N464 C467 1.350 . S
N465 S463 1.610 . S
N465 C466 1.351 . S
C466 C460 1.428 . S
C466 N465 1.351 . S
C466 C467 1.434 . S
C467 C458 1.429 . S
C467 N464 1.350 . S
C467 C466 1.434 . S
C468 C469 1.369 . S
C468 C470 1.419 . S
C468 H472 0.930 . S
C469 C468 1.369 . S
C469 C478 1.429 . S
C470 C468 1.419 . S
C470 C471 1.363 . S
C470 H473 0.929 . S
C471 C470 1.363 . S
C471 C477 1.428 . S
H472 C468 0.930 . S
H473 C470 0.929 . S
S474 N475 1.613 . S
S474 N476 1.610 . S
N475 S474 1.613 . S
N475 C478 1.350 . S
N476 S474 1.610 . S
N476 C477 1.351 . S
C477 C471 1.428 . S
C477 N476 1.351 . S
C477 C478 1.434 . S
C478 C469 1.429 . S
C478 N475 1.350 . S
C478 C477 1.434 . S
C479 C480 1.369 . S
C479 C481 1.419 . S
C479 H483 0.930 . S
C480 C479 1.369 . S
C480 C489 1.429 . S
C481 C479 1.419 . S
C481 C482 1.363 . S
C481 H484 0.929 . S
C482 C481 1.363 . S
C482 C488 1.428 . S
H483 C479 0.930 . S
H484 C481 0.929 . S
S485 N486 1.613 . S
S485 N487 1.610 . S
N486 S485 1.613 . S
N486 C489 1.350 . S
N487 S485 1.610 . S
N487 C488 1.351 . S
C488 C482 1.428 . S
C488 N487 1.351 . S
C488 C489 1.434 . S
C489 C480 1.429 . S
C489 N486 1.350 . S
C489 C488 1.434 . S
C490 C491 1.369 . S
C490 C492 1.419 . S
C490 H494 0.930 . S
C491 C490 1.369 . S
C491 C500 1.429 . S
C492 C490 1.419 . S
C492 C493 1.363 . S
C492 H495 0.929 . S
C493 C492 1.363 . S
C493 C499 1.428 . S
H494 C490 0.930 . S
H495 C492 0.929 . S
S496 N497 1.613 . S
S496 N498 1.610 . S
N497 S496 1.613 . S
N497 C500 1.350 . S
N498 S496 1.610 . S
N498 C499 1.351 . S
C499 C493 1.428 . S
C499 N498 1.351 . S
C499 C500 1.434 . S
C500 C491 1.429 . S
C500 N497 1.350 . S
C500 C499 1.434 . S
C501 C502 1.369 . S
C501 C503 1.419 . S
C501 H505 0.930 . S
C502 C501 1.369 . S
C502 C511 1.429 . S
C503 C501 1.419 . S
C503 C504 1.363 . S
C503 H506 0.929 . S
C504 C503 1.363 . S
C504 C510 1.428 . S
H505 C501 0.930 . S
H506 C503 0.929 . S
S507 N508 1.613 . S
S507 N509 1.610 . S
N508 S507 1.613 . S
N508 C511 1.350 . S
N509 S507 1.610 . S
N509 C510 1.351 . S
C510 C504 1.428 . S
C510 N509 1.351 . S
C510 C511 1.434 . S
C511 C502 1.429 . S
C511 N508 1.350 . S
C511 C510 1.434 . S
C512 C513 1.369 . S
C512 C514 1.419 . S
C512 H516 0.930 . S
C513 C512 1.369 . S
C513 C522 1.429 . S
C514 C512 1.419 . S
C514 C515 1.363 . S
C514 H517 0.929 . S
C515 C514 1.363 . S
C515 C521 1.428 . S
H516 C512 0.930 . S
H517 C514 0.929 . S
S518 N519 1.613 . S
S518 N520 1.610 . S
N519 S518 1.613 . S
N519 C522 1.350 . S
N520 S518 1.610 . S
N520 C521 1.351 . S
C521 C515 1.428 . S
C521 N520 1.351 . S
C521 C522 1.434 . S
C522 C513 1.429 . S
C522 N519 1.350 . S
C522 C521 1.434 . S
C523 C524 1.369 . S
C523 C525 1.419 . S
C523 H527 0.930 . S
C524 C523 1.369 . S
C524 C533 1.429 . S
C525 C523 1.419 . S
C525 C526 1.363 . S
C525 H528 0.929 . S
C526 C525 1.363 . S
C526 C532 1.428 . S
H527 C523 0.930 . S
H528 C525 0.929 . S
S529 N530 1.613 . S
S529 N531 1.610 . S
N530 S529 1.613 . S
N530 C533 1.350 . S
N531 S529 1.610 . S
N531 C532 1.351 . S
C532 C526 1.428 . S
C532 N531 1.351 . S
C532 C533 1.434 . S
C533 C524 1.429 . S
C533 N530 1.350 . S
C533 C532 1.434 . S
C534 C535 1.369 . S
C534 C536 1.419 . S
C534 H538 0.930 1_556 S
C535 C534 1.369 . S
C535 C544 1.429 . S
C536 C534 1.419 . S
C536 C537 1.363 . S
C536 H539 0.929 . S
C537 C536 1.363 . S
C537 C543 1.428 . S
H538 C534 0.930 1_554 S
H539 C536 0.929 . S
S540 N541 1.613 . S
S540 N542 1.610 . S
N541 S540 1.613 . S
N541 C544 1.350 . S
N542 S540 1.610 . S
N542 C543 1.351 . S
C543 C537 1.428 . S
C543 N542 1.351 . S
C543 C544 1.434 . S
C544 C535 1.429 . S
C544 N541 1.350 . S
C544 C543 1.434 . S
C545 C546 1.369 . S
C545 C547 1.419 . S
C545 H549 0.930 . S
C546 C545 1.369 . S
C546 C555 1.429 . S
C547 C545 1.419 . S
C547 C548 1.363 . S
C547 H550 0.929 . S
C548 C547 1.363 . S
C548 C554 1.428 . S
H549 C545 0.930 . S
H550 C547 0.929 . S
S551 N552 1.613 . S
S551 N553 1.610 . S
N552 S551 1.613 . S
N552 C555 1.350 . S
N553 S551 1.610 . S
N553 C554 1.351 . S
C554 C548 1.428 . S
C554 N553 1.351 . S
C554 C555 1.434 . S
C555 C546 1.429 . S
C555 N552 1.350 . S
C555 C554 1.434 . S
C556 C557 1.369 . S
C556 C558 1.419 . S
C556 H560 0.930 . S
C557 C556 1.369 . S
C557 C566 1.429 . S
C558 C556 1.419 . S
C558 C559 1.363 . S
C558 H561 0.929 . S
C559 C558 1.363 . S
C559 C565 1.428 . S
H560 C556 0.930 . S
H561 C558 0.929 . S
S562 N563 1.613 . S
S562 N564 1.610 . S
N563 S562 1.613 . S
N563 C566 1.350 . S
N564 S562 1.610 . S
N564 C565 1.351 . S
C565 C559 1.428 . S
C565 N564 1.351 . S
C565 C566 1.434 . S
C566 C557 1.429 . S
C566 N563 1.350 . S
C566 C565 1.434 . S
C567 C568 1.369 . S
C567 C569 1.419 . S
C567 H571 0.930 . S
C568 C567 1.369 . S
C568 C577 1.429 . S
C569 C567 1.419 . S
C569 C570 1.363 . S
C569 H572 0.929 . S
C570 C569 1.363 . S
C570 C576 1.428 . S
H571 C567 0.930 . S
H572 C569 0.929 . S
S573 N574 1.613 . S
S573 N575 1.610 . S
N574 S573 1.613 . S
N574 C577 1.350 . S
N575 S573 1.610 . S
N575 C576 1.351 . S
C576 C570 1.428 . S
C576 N575 1.351 . S
C576 C577 1.434 . S
C577 C568 1.429 . S
C577 N574 1.350 . S
C577 C576 1.434 . S
C578 C579 1.369 . S
C578 C580 1.419 . S
C578 H582 0.930 . S
C579 C578 1.369 . S
C579 C588 1.429 . S
C580 C578 1.419 . S
C580 C581 1.363 . S
C580 H583 0.929 . S
C581 C580 1.363 . S
C581 C587 1.428 . S
H582 C578 0.930 . S
H583 C580 0.929 . S
S584 N585 1.613 . S
S584 N586 1.610 . S
N585 S584 1.613 . S
N585 C588 1.350 . S
N586 S584 1.610 . S
N586 C587 1.351 . S
C587 C581 1.428 . S
C587 N586 1.351 . S
C587 C588 1.434 . S
C588 C579 1.429 . S
C588 N585 1.350 . S
C588 C587 1.434 . S
C589 C590 1.369 . S
C589 C591 1.419 . S
C589 H593 0.930 . S
C590 C589 1.369 . S
C590 C599 1.429 . S
C591 C589 1.419 . S
C591 C592 1.363 . S
C591 H594 0.929 . S
C592 C591 1.363 . S
C592 C598 1.428 . S
H593 C589 0.930 . S
H594 C591 0.929 . S
S595 N596 1.613 . S
S595 N597 1.610 . S
N596 S595 1.613 . S
N596 C599 1.350 . S
N597 S595 1.610 . S
N597 C598 1.351 . S
C598 C592 1.428 . S
C598 N597 1.351 . S
C598 C599 1.434 . S
C599 C590 1.429 . S
C599 N596 1.350 . S
C599 C598 1.434 . S
C600 C601 1.369 . S
C600 C602 1.419 . S
C600 H604 0.930 . S
C601 C600 1.369 . S
C601 C610 1.429 . S
C602 C600 1.419 . S
C602 C603 1.363 . S
C602 H605 0.929 . S
C603 C602 1.363 . S
C603 C609 1.428 . S
H604 C600 0.930 . S
H605 C602 0.929 . S
S606 N607 1.613 . S
S606 N608 1.610 . S
N607 S606 1.613 . S
N607 C610 1.350 . S
N608 S606 1.610 . S
N608 C609 1.351 . S
C609 C603 1.428 . S
C609 N608 1.351 . S
C609 C610 1.434 . S
C610 C601 1.429 . S
C610 N607 1.350 . S
C610 C609 1.434 . S
C611 C612 1.369 . S
C611 C613 1.419 . S
C611 H615 0.930 . S
C612 C611 1.369 . S
C612 C621 1.429 . S
C613 C611 1.419 . S
C613 C614 1.363 . S
C613 H616 0.929 . S
C614 C613 1.363 . S
C614 C620 1.428 . S
H615 C611 0.930 . S
H616 C613 0.929 . S
S617 N618 1.613 . S
S617 N619 1.610 . S
N618 S617 1.613 . S
N618 C621 1.350 . S
N619 S617 1.610 . S
N619 C620 1.351 . S
C620 C614 1.428 . S
C620 N619 1.351 . S
C620 C621 1.434 . S
C621 C612 1.429 . S
C621 N618 1.350 . S
C621 C620 1.434 . S
C622 C623 1.369 . S
C622 C624 1.419 . S
C622 H626 0.930 . S
C623 C622 1.369 . S
C623 C632 1.429 . S
C624 C622 1.419 . S
C624 C625 1.363 . S
C624 H627 0.929 . S
C625 C624 1.363 . S
C625 C631 1.428 . S
H626 C622 0.930 . S
H627 C624 0.929 . S
S628 N629 1.613 . S
S628 N630 1.610 . S
N629 S628 1.613 . S
N629 C632 1.350 . S
N630 S628 1.610 . S
N630 C631 1.351 . S
C631 C625 1.428 . S
C631 N630 1.351 . S
C631 C632 1.434 . S
C632 C623 1.429 . S
C632 N629 1.350 . S
C632 C631 1.434 . S
C633 C634 1.369 . S
C633 C635 1.419 . S
C633 H637 0.930 . S
C634 C633 1.369 . S
C634 C643 1.429 . S
C635 C633 1.419 . S
C635 C636 1.363 . S
C635 H638 0.929 1_556 S
C636 C635 1.363 . S
C636 C642 1.428 . S
H637 C633 0.930 . S
H638 C635 0.929 1_554 S
S639 N640 1.613 . S
S639 N641 1.610 . S
N640 S639 1.613 . S
N640 C643 1.350 . S
N641 S639 1.610 . S
N641 C642 1.351 . S
C642 C636 1.428 . S
C642 N641 1.351 . S
C642 C643 1.434 . S
C643 C634 1.429 . S
C643 N640 1.350 . S
C643 C642 1.434 . S
C644 C645 1.369 . S
C644 C646 1.419 . S
C644 H648 0.930 . S
C645 C644 1.369 . S
C645 C654 1.429 . S
C646 C644 1.419 . S
C646 C647 1.363 . S
C646 H649 0.929 . S
C647 C646 1.363 . S
C647 C653 1.428 . S
H648 C644 0.930 . S
H649 C646 0.929 . S
S650 N651 1.613 . S
S650 N652 1.610 . S
N651 S650 1.613 . S
N651 C654 1.350 . S
N652 S650 1.610 . S
N652 C653 1.351 . S
C653 C647 1.428 . S
C653 N652 1.351 . S
C653 C654 1.434 . S
C654 C645 1.429 . S
C654 N651 1.350 . S
C654 C653 1.434 . S
C655 C656 1.369 . S
C655 C657 1.419 . S
C655 H659 0.930 . S
C656 C655 1.369 . S
C656 C665 1.429 . S
C657 C655 1.419 . S
C657 C658 1.363 . S
C657 H660 0.929 . S
C658 C657 1.363 . S
C658 C664 1.428 . S
H659 C655 0.930 . S
H660 C657 0.929 . S
S661 N662 1.613 . S
S661 N663 1.610 . S
N662 S661 1.613 . S
N662 C665 1.350 . S
N663 S661 1.610 . S
N663 C664 1.351 . S
C664 C658 1.428 . S
C664 N663 1.351 . S
C664 C665 1.434 . S
C665 C656 1.429 . S
C665 N662 1.350 . S
C665 C664 1.434 . S
C666 C667 1.369 . S
C666 C668 1.419 . S
C666 H670 0.930 . S
C667 C666 1.369 . S
C667 C676 1.429 . S
C668 C666 1.419 . S
C668 C669 1.363 . S
C668 H671 0.929 . S
C669 C668 1.363 . S
C669 C675 1.428 . S
H670 C666 0.930 . S
H671 C668 0.929 . S
S672 N673 1.613 . S
S672 N674 1.610 . S
N673 S672 1.613 . S
N673 C676 1.350 . S
N674 S672 1.610 . S
N674 C675 1.351 . S
C675 C669 1.428 . S
C675 N674 1.351 . S
C675 C676 1.434 . S
C676 C667 1.429 . S
C676 N673 1.350 . S
C676 C675 1.434 . S
C677 C678 1.369 . S
C677 C679 1.419 . S
C677 H681 0.930 . S
C678 C677 1.369 . S
C678 C687 1.429 . S
C679 C677 1.419 . S
C679 C680 1.363 . S
C679 H682 0.929 . S
C680 C679 1.363 . S
C680 C686 1.428 . S
H681 C677 0.930 . S
H682 C679 0.929 . S
S683 N684 1.613 . S
S683 N685 1.610 . S
N684 S683 1.613 . S
N684 C687 1.350 . S
N685 S683 1.610 . S
N685 C686 1.351 . S
C686 C680 1.428 . S
C686 N685 1.351 . S
C686 C687 1.434 . S
C687 C678 1.429 . S
C687 N684 1.350 . S
C687 C686 1.434 . S
C688 C689 1.369 . S
C688 C690 1.419 . S
C688 H692 0.930 . S
C689 C688 1.369 . S
C689 C698 1.429 . S
C690 C688 1.419 . S
C690 C691 1.363 . S
C690 H693 0.929 . S
C691 C690 1.363 . S
C691 C697 1.428 . S
H692 C688 0.930 . S
H693 C690 0.929 . S
S694 N695 1.613 . S
S694 N696 1.610 . S
N695 S694 1.613 . S
N695 C698 1.350 . S
N696 S694 1.610 . S
N696 C697 1.351 . S
C697 C691 1.428 . S
C697 N696 1.351 . S
C697 C698 1.434 . S
C698 C689 1.429 . S
C698 N695 1.350 . S
C698 C697 1.434 . S
C699 C700 1.369 . S
C699 C701 1.419 . S
C699 H703 0.930 . S
C700 C699 1.369 . S
C700 C709 1.429 . S
C701 C699 1.419 . S
C701 C702 1.363 . S
C701 H704 0.929 . S
C702 C701 1.363 . S
C702 C708 1.428 . S
H703 C699 0.930 . S
H704 C701 0.929 . S
S705 N706 1.613 . S
S705 N707 1.610 1_554 S
N706 S705 1.613 . S
N706 C709 1.350 1_554 S
N707 S705 1.610 1_556 S
N707 C708 1.351 . S
C708 C702 1.428 . S
C708 N707 1.351 . S
C708 C709 1.434 . S
C709 C700 1.429 . S
C709 N706 1.350 1_556 S
C709 C708 1.434 . S
C710 C711 1.369 . S
C710 C712 1.419 . S
C710 H714 0.930 . S
C711 C710 1.369 . S
C711 C720 1.429 . S
C712 C710 1.419 . S
C712 C713 1.363 . S
C712 H715 0.929 . S
C713 C712 1.363 . S
C713 C719 1.428 . S
H714 C710 0.930 . S
H715 C712 0.929 . S
S716 N717 1.613 . S
S716 N718 1.610 . S
N717 S716 1.613 . S
N717 C720 1.350 . S
N718 S716 1.610 . S
N718 C719 1.351 . S
C719 C713 1.428 . S
C719 N718 1.351 . S
C719 C720 1.434 . S
C720 C711 1.429 . S
C720 N717 1.350 . S
C720 C719 1.434 . S
C721 C722 1.369 . S
C721 C723 1.419 . S
C721 H725 0.930 . S
C722 C721 1.369 . S
C722 C731 1.429 . S
C723 C721 1.419 . S
C723 C724 1.363 . S
C723 H726 0.929 . S
C724 C723 1.363 . S
C724 C730 1.428 . S
H725 C721 0.930 . S
H726 C723 0.929 . S
S727 N728 1.613 . S
S727 N729 1.610 . S
N728 S727 1.613 . S
N728 C731 1.350 . S
N729 S727 1.610 . S
N729 C730 1.351 . S
C730 C724 1.428 . S
C730 N729 1.351 . S
C730 C731 1.434 . S
C731 C722 1.429 . S
C731 N728 1.350 . S
C731 C730 1.434 . S
C732 C733 1.369 . S
C732 C734 1.419 . S
C732 H736 0.930 . S
C733 C732 1.369 . S
C733 C742 1.429 . S
C734 C732 1.419 . S
C734 C735 1.363 . S
C734 H737 0.929 . S
C735 C734 1.363 . S
C735 C741 1.428 . S
H736 C732 0.930 . S
H737 C734 0.929 . S
S738 N739 1.613 . S
S738 N740 1.610 . S
N739 S738 1.613 . S
N739 C742 1.350 . S
N740 S738 1.610 . S
N740 C741 1.351 . S
C741 C735 1.428 . S
C741 N740 1.351 . S
C741 C742 1.434 . S
C742 C733 1.429 . S
C742 N739 1.350 . S
C742 C741 1.434 . S
C743 C744 1.369 . S
C743 C745 1.419 . S
C743 H747 0.930 . S
C744 C743 1.369 . S
C744 C753 1.429 . S
C745 C743 1.419 . S
C745 C746 1.363 . S
C745 H748 0.929 . S
C746 C745 1.363 . S
C746 C752 1.428 . S
H747 C743 0.930 . S
H748 C745 0.929 . S
S749 N750 1.613 . S
S749 N751 1.610 . S
N750 S749 1.613 . S
N750 C753 1.350 . S
N751 S749 1.610 . S
N751 C752 1.351 . S
C752 C746 1.428 . S
C752 N751 1.351 . S
C752 C753 1.434 . S
C753 C744 1.429 . S
C753 N750 1.350 . S
C753 C752 1.434 . S
C754 C755 1.369 . S
C754 C756 1.419 . S
C754 H758 0.930 . S
C755 C754 1.369 . S
C755 C764 1.429 . S
C756 C754 1.419 . S
C756 C757 1.363 . S
C756 H759 0.929 . S
C757 C756 1.363 . S
C757 C763 1.428 . S
H758 C754 0.930 . S
H759 C756 0.929 . S
S760 N761 1.613 . S
S760 N762 1.610 . S
N761 S760 1.613 . S
N761 C764 1.350 . S
N762 S760 1.610 . S
N762 C763 1.351 . S
C763 C757 1.428 . S
C763 N762 1.351 . S
C763 C764 1.434 . S
C764 C755 1.429 . S
C764 N761 1.350 . S
C764 C763 1.434 . S
C765 C766 1.369 . S
C765 C767 1.419 . S
C765 H769 0.930 . S
C766 C765 1.369 . S
C766 C775 1.429 . S
C767 C765 1.419 . S
C767 C768 1.363 . S
C767 H770 0.929 . S
C768 C767 1.363 . S
C768 C774 1.428 . S
H769 C765 0.930 . S
H770 C767 0.929 . S
S771 N772 1.613 . S
S771 N773 1.610 . S
N772 S771 1.613 . S
N772 C775 1.350 . S
N773 S771 1.610 . S
N773 C774 1.351 . S
C774 C768 1.428 . S
C774 N773 1.351 . S
C774 C775 1.434 . S
C775 C766 1.429 . S
C775 N772 1.350 . S
C775 C774 1.434 . S
C776 C777 1.369 . S
C776 C778 1.419 . S
C776 H780 0.930 . S
C777 C776 1.369 . S
C777 C786 1.429 . S
C778 C776 1.419 . S
C778 C779 1.363 . S
C778 H781 0.929 . S
C779 C778 1.363 . S
C779 C785 1.428 . S
H780 C776 0.930 . S
H781 C778 0.929 . S
S782 N783 1.613 . S
S782 N784 1.610 . S
N783 S782 1.613 . S
N783 C786 1.350 . S
N784 S782 1.610 . S
N784 C785 1.351 . S
C785 C779 1.428 . S
C785 N784 1.351 . S
C785 C786 1.434 . S
C786 C777 1.429 . S
C786 N783 1.350 . S
C786 C785 1.434 . S
C787 C788 1.369 . S
C787 C789 1.419 . S
C787 H791 0.930 . S
C788 C787 1.369 . S
C788 C797 1.429 . S
C789 C787 1.419 . S
C789 C790 1.363 . S
C789 H792 0.929 . S
C790 C789 1.363 . S
C790 C796 1.428 . S
H791 C787 0.930 . S
H792 C789 0.929 . S
S793 N794 1.613 . S
S793 N795 1.610 . S
N794 S793 1.613 . S
N794 C797 1.350 . S
N795 S793 1.610 . S
N795 C796 1.351 . S
C796 C790 1.428 . S
C796 N795 1.351 . S
C796 C797 1.434 . S
C797 C788 1.429 . S
C797 N794 1.350 . S
C797 C796 1.434 . S
C798 C799 1.369 . S
C798 C800 1.419 . S
C798 H802 0.930 . S
C799 C798 1.369 . S
C799 C808 1.429 . S
C800 C798 1.419 . S
C800 C801 1.363 . S
C800 H803 0.929 . S
C801 C800 1.363 . S
C801 C807 1.428 . S
H802 C798 0.930 . S
H803 C800 0.929 . S
S804 N805 1.613 . S
S804 N806 1.610 1_556 S
N805 S804 1.613 . S
N805 C808 1.350 1_556 S
N806 S804 1.610 1_554 S
N806 C807 1.351 . S
C807 C801 1.428 . S
C807 N806 1.351 . S
C807 C808 1.434 . S
C808 C799 1.429 . S
C808 N805 1.350 1_554 S
C808 C807 1.434 . S
C809 C810 1.369 . S
C809 C811 1.419 . S
C809 H813 0.930 . S
C810 C809 1.369 . S
C810 C819 1.429 . S
C811 C809 1.419 . S
C811 C812 1.363 . S
C811 H814 0.929 . S
C812 C811 1.363 . S
C812 C818 1.428 . S
H813 C809 0.930 . S
H814 C811 0.929 . S
S815 N816 1.613 . S
S815 N817 1.610 . S
N816 S815 1.613 . S
N816 C819 1.350 . S
N817 S815 1.610 . S
N817 C818 1.351 . S
C818 C812 1.428 . S
C818 N817 1.351 . S
C818 C819 1.434 . S
C819 C810 1.429 . S
C819 N816 1.350 . S
C819 C818 1.434 . S
C820 C821 1.369 . S
C820 C822 1.419 . S
C820 H824 0.930 . S
C821 C820 1.369 . S
C821 C830 1.429 . S
C822 C820 1.419 . S
C822 C823 1.363 . S
C822 H825 0.929 . S
C823 C822 1.363 . S
C823 C829 1.428 . S
H824 C820 0.930 . S
H825 C822 0.929 . S
S826 N827 1.613 . S
S826 N828 1.610 . S
N827 S826 1.613 . S
N827 C830 1.350 . S
N828 S826 1.610 . S
N828 C829 1.351 . S
C829 C823 1.428 . S
C829 N828 1.351 . S
C829 C830 1.434 . S
C830 C821 1.429 . S
C830 N827 1.350 . S
C830 C829 1.434 . S
C831 C832 1.369 . S
C831 C833 1.419 . S
C831 H835 0.930 . S
C832 C831 1.369 . S
C832 C841 1.429 . S
C833 C831 1.419 . S
C833 C834 1.363 . S
C833 H836 0.929 . S
C834 C833 1.363 . S
C834 C840 1.428 . S
H835 C831 0.930 . S
H836 C833 0.929 . S
S837 N838 1.613 . S
S837 N839 1.610 . S
N838 S837 1.613 . S
N838 C841 1.350 . S
N839 S837 1.610 . S
N839 C840 1.351 . S
C840 C834 1.428 . S
C840 N839 1.351 . S
C840 C841 1.434 . S
C841 C832 1.429 . S
C841 N838 1.350 . S
C841 C840 1.434 . S
C842 C843 1.369 . S
C842 C844 1.419 . S
C842 H846 0.930 . S
C843 C842 1.369 . S
C843 C852 1.429 . S
C844 C842 1.419 . S
C844 C845 1.363 . S
C844 H847 0.929 . S
C845 C844 1.363 . S
C845 C851 1.428 . S
H846 C842 0.930 . S
H847 C844 0.929 . S
S848 N849 1.613 . S
S848 N850 1.610 . S
N849 S848 1.613 . S
N849 C852 1.350 . S
N850 S848 1.610 . S
N850 C851 1.351 . S
C851 C845 1.428 . S
C851 N850 1.351 . S
C851 C852 1.434 . S
C852 C843 1.429 . S
C852 N849 1.350 . S
C852 C851 1.434 . S
C853 C854 1.369 . S
C853 C855 1.419 . S
C853 H857 0.930 . S
C854 C853 1.369 . S
C854 C863 1.429 . S
C855 C853 1.419 . S
C855 C856 1.363 . S
C855 H858 0.929 . S
C856 C855 1.363 . S
C856 C862 1.428 . S
H857 C853 0.930 . S
H858 C855 0.929 . S
S859 N860 1.613 . S
S859 N861 1.610 . S
N860 S859 1.613 . S
N860 C863 1.350 . S
N861 S859 1.610 . S
N861 C862 1.351 . S
C862 C856 1.428 . S
C862 N861 1.351 . S
C862 C863 1.434 . S
C863 C854 1.429 . S
C863 N860 1.350 . S
C863 C862 1.434 . S
C337 C201 1.490 . S
C339 C11 1.485 . S
C348 C14 1.530 . S
C350 C210 1.530 . S
C359 C257 1.490 . S
C361 C33 1.491 . S
C370 C51 1.576 . S
C372 C191 1.583 . S
C381 C207 1.448 . S
C383 C67 1.447 . S
C392 C79 1.567 . S
C394 C219 1.562 . S
C403 C89 1.451 . S
C405 C263 1.451 . S
C414 C98 1.509 . S
C416 C182 1.507 . S
C425 C137 1.406 . S
C427 C123 1.405 . S
C436 C145 1.533 . S
C438 C131 1.534 . S
C447 C151 1.460 . S
C449 C165 1.457 . S
C458 C159 1.477 . S
C460 C117 1.477 . S
C469 C168 1.532 . S
C471 C42 1.529 . S
C480 C61 1.451 . S
C482 C235 1.450 . S
C491 C247 1.583 . S
C493 C23 1.577 . S
C502 C25 1.487 . S
C504 C303 1.480 . S
C513 C126 1.453 . S
C515 C9 1.451 . S
C524 C331 1.524 . S
C526 C47 1.534 . S
C535 C154 1.444 . S
C537 C28 1.444 . S
C546 C294 1.465 . S
C548 C109 1.464 . S
C557 C135 1.463 . S
C559 C84 1.467 . S
C568 C75 1.506 . S
C570 C322 1.502 . S
C579 C65 1.468 . S
C581 C163 1.469 . S
C590 C215 1.540 . S
C592 C275 1.526 . S
C601 C224 1.459 . S
C603 C221 1.455 . S
C612 C193 1.497 . S
C614 C233 1.490 . S
C623 C266 1.496 . S
C625 C187 1.498 . S
C634 C37 1.449 . S
C636 C280 1.454 . S
C645 C140 1.504 . S
C647 C103 1.505 . S
C656 C0 1.445 . S
C658 C308 1.442 . S
C667 C271 1.489 . S
C669 C39 1.486 . S
C678 C5 1.491 . S
C680 C229 1.490 . S
C689 C277 1.449 . S
C691 C95 1.446 . S
C700 C177 1.562 . S
C702 C107 1.567 . S
C711 C70 1.508 . S
C713 C238 1.507 . S
C722 C305 1.406 . S
C724 C291 1.404 . S
C733 C327 1.533 . S
C735 C285 1.534 . S
C744 C319 1.457 . S
C746 C333 1.459 . S
C755 C299 1.477 . S
C757 C313 1.477 . S
C766 C121 1.481 . S
C768 C53 1.489 . S
C777 C19 1.534 . S
C779 C149 1.523 . S
C788 C81 1.464 . S
C790 C112 1.465 . S
C799 C289 1.459 . S
C801 C56 1.468 . S
C810 C93 1.471 . S
C812 C317 1.467 . S
C821 C173 1.540 . S
C823 C205 1.526 . S
C832 C252 1.459 . S
C834 C179 1.456 . S
C843 C249 1.498 . S
C845 C261 1.491 . S
C854 C196 1.497 . S
C856 C243 1.498 . S
