# Generated by pormake.
# Topology uos, (4)-cn, num edge types: 1
# Building blocks:
#     Node 0, Type 0, BuildingBlock: NAHDIM_clean_sbu_0, # of connection points: 4
#     Node 1, Type 0, BuildingBlock: NAHDIM_clean_sbu_0, # of connection points: 4
#     Node 2, Type 0, BuildingBlock: NAHDIM_clean_sbu_0, # of connection points: 4
#     Node 3, Type 0, BuildingBlock: NAHDIM_clean_sbu_0, # of connection points: 4
#     Node 4, Type 0, BuildingBlock: NAHDIM_clean_sbu_0, # of connection points: 4
#     Node 5, Type 0, BuildingBlock: NAHDIM_clean_sbu_0, # of connection points: 4
#     Node 6, Type 0, BuildingBlock: NAHDIM_clean_sbu_0, # of connection points: 4
#     Node 7, Type 0, BuildingBlock: NAHDIM_clean_sbu_0, # of connection points: 4
#     Node 8, Type 0, BuildingBlock: NAHDIM_clean_sbu_0, # of connection points: 4
#     Node 9, Type 0, BuildingBlock: NAHDIM_clean_sbu_0, # of connection points: 4
#     Node 10, Type 0, BuildingBlock: NAHDIM_clean_sbu_0, # of connection points: 4
#     Node 11, Type 0, BuildingBlock: NAHDIM_clean_sbu_0, # of connection points: 4
#     Node 12, Type 0, BuildingBlock: NAHDIM_clean_sbu_0, # of connection points: 4
#     Node 13, Type 0, BuildingBlock: NAHDIM_clean_sbu_0, # of connection points: 4
#     Node 14, Type 0, BuildingBlock: NAHDIM_clean_sbu_0, # of connection points: 4
#     Node 15, Type 0, BuildingBlock: NAHDIM_clean_sbu_0, # of connection points: 4
#     Node 16, Type 0, BuildingBlock: NAHDIM_clean_sbu_0, # of connection points: 4
#     Node 17, Type 0, BuildingBlock: NAHDIM_clean_sbu_0, # of connection points: 4
#     Node 18, Type 0, BuildingBlock: NAHDIM_clean_sbu_0, # of connection points: 4
#     Node 19, Type 0, BuildingBlock: NAHDIM_clean_sbu_0, # of connection points: 4
#     Node 20, Type 0, BuildingBlock: NAHDIM_clean_sbu_0, # of connection points: 4
#     Node 21, Type 0, BuildingBlock: NAHDIM_clean_sbu_0, # of connection points: 4
#     Node 22, Type 0, BuildingBlock: NAHDIM_clean_sbu_0, # of connection points: 4
#     Node 23, Type 0, BuildingBlock: NAHDIM_clean_sbu_0, # of connection points: 4
#     Node 24, Type 0, BuildingBlock: NAHDIM_clean_sbu_0, # of connection points: 4
#     Node 25, Type 0, BuildingBlock: NAHDIM_clean_sbu_0, # of connection points: 4
#     Node 26, Type 0, BuildingBlock: NAHDIM_clean_sbu_0, # of connection points: 4
#     Node 27, Type 0, BuildingBlock: NAHDIM_clean_sbu_0, # of connection points: 4
#     Node 28, Type 0, BuildingBlock: NAHDIM_clean_sbu_0, # of connection points: 4
#     Node 29, Type 0, BuildingBlock: NAHDIM_clean_sbu_0, # of connection points: 4
#     Node 30, Type 0, BuildingBlock: NAHDIM_clean_sbu_0, # of connection points: 4
#     Node 31, Type 0, BuildingBlock: NAHDIM_clean_sbu_0, # of connection points: 4
#     Edge 32, Type (0, 0), BuildingBlock: CIFDUS_clean_linker_0, # of connection points: 2
#     Edge 33, Type (0, 0), BuildingBlock: CIFDUS_clean_linker_0, # of connection points: 2
#     Edge 34, Type (0, 0), BuildingBlock: CIFDUS_clean_linker_0, # of connection points: 2
#     Edge 35, Type (0, 0), BuildingBlock: CIFDUS_clean_linker_0, # of connection points: 2
#     Edge 36, Type (0, 0), BuildingBlock: CIFDUS_clean_linker_0, # of connection points: 2
#     Edge 37, Type (0, 0), BuildingBlock: CIFDUS_clean_linker_0, # of connection points: 2
#     Edge 38, Type (0, 0), BuildingBlock: CIFDUS_clean_linker_0, # of connection points: 2
#     Edge 39, Type (0, 0), BuildingBlock: CIFDUS_clean_linker_0, # of connection points: 2
#     Edge 40, Type (0, 0), BuildingBlock: CIFDUS_clean_linker_0, # of connection points: 2
#     Edge 41, Type (0, 0), BuildingBlock: CIFDUS_clean_linker_0, # of connection points: 2
#     Edge 42, Type (0, 0), BuildingBlock: CIFDUS_clean_linker_0, # of connection points: 2
#     Edge 43, Type (0, 0), BuildingBlock: CIFDUS_clean_linker_0, # of connection points: 2
#     Edge 44, Type (0, 0), BuildingBlock: CIFDUS_clean_linker_0, # of connection points: 2
#     Edge 45, Type (0, 0), BuildingBlock: CIFDUS_clean_linker_0, # of connection points: 2
#     Edge 46, Type (0, 0), BuildingBlock: CIFDUS_clean_linker_0, # of connection points: 2
#     Edge 47, Type (0, 0), BuildingBlock: CIFDUS_clean_linker_0, # of connection points: 2
#     Edge 48, Type (0, 0), BuildingBlock: CIFDUS_clean_linker_0, # of connection points: 2
#     Edge 49, Type (0, 0), BuildingBlock: CIFDUS_clean_linker_0, # of connection points: 2
#     Edge 50, Type (0, 0), BuildingBlock: CIFDUS_clean_linker_0, # of connection points: 2
#     Edge 51, Type (0, 0), BuildingBlock: CIFDUS_clean_linker_0, # of connection points: 2
#     Edge 52, Type (0, 0), BuildingBlock: CIFDUS_clean_linker_0, # of connection points: 2
#     Edge 53, Type (0, 0), BuildingBlock: CIFDUS_clean_linker_0, # of connection points: 2
#     Edge 54, Type (0, 0), BuildingBlock: CIFDUS_clean_linker_0, # of connection points: 2
#     Edge 55, Type (0, 0), BuildingBlock: CIFDUS_clean_linker_0, # of connection points: 2
#     Edge 56, Type (0, 0), BuildingBlock: CIFDUS_clean_linker_0, # of connection points: 2
#     Edge 57, Type (0, 0), BuildingBlock: CIFDUS_clean_linker_0, # of connection points: 2
#     Edge 58, Type (0, 0), BuildingBlock: CIFDUS_clean_linker_0, # of connection points: 2
#     Edge 59, Type (0, 0), BuildingBlock: CIFDUS_clean_linker_0, # of connection points: 2
#     Edge 60, Type (0, 0), BuildingBlock: CIFDUS_clean_linker_0, # of connection points: 2
#     Edge 61, Type (0, 0), BuildingBlock: CIFDUS_clean_linker_0, # of connection points: 2
#     Edge 62, Type (0, 0), BuildingBlock: CIFDUS_clean_linker_0, # of connection points: 2
#     Edge 63, Type (0, 0), BuildingBlock: CIFDUS_clean_linker_0, # of connection points: 2
#     Edge 64, Type (0, 0), BuildingBlock: CIFDUS_clean_linker_0, # of connection points: 2
#     Edge 65, Type (0, 0), BuildingBlock: CIFDUS_clean_linker_0, # of connection points: 2
#     Edge 66, Type (0, 0), BuildingBlock: CIFDUS_clean_linker_0, # of connection points: 2
#     Edge 67, Type (0, 0), BuildingBlock: CIFDUS_clean_linker_0, # of connection points: 2
#     Edge 68, Type (0, 0), BuildingBlock: CIFDUS_clean_linker_0, # of connection points: 2
#     Edge 69, Type (0, 0), BuildingBlock: CIFDUS_clean_linker_0, # of connection points: 2
#     Edge 70, Type (0, 0), BuildingBlock: CIFDUS_clean_linker_0, # of connection points: 2
#     Edge 71, Type (0, 0), BuildingBlock: CIFDUS_clean_linker_0, # of connection points: 2
#     Edge 72, Type (0, 0), BuildingBlock: CIFDUS_clean_linker_0, # of connection points: 2
#     Edge 73, Type (0, 0), BuildingBlock: CIFDUS_clean_linker_0, # of connection points: 2
#     Edge 74, Type (0, 0), BuildingBlock: CIFDUS_clean_linker_0, # of connection points: 2
#     Edge 75, Type (0, 0), BuildingBlock: CIFDUS_clean_linker_0, # of connection points: 2
#     Edge 76, Type (0, 0), BuildingBlock: CIFDUS_clean_linker_0, # of connection points: 2
#     Edge 77, Type (0, 0), BuildingBlock: CIFDUS_clean_linker_0, # of connection points: 2
#     Edge 78, Type (0, 0), BuildingBlock: CIFDUS_clean_linker_0, # of connection points: 2
#     Edge 79, Type (0, 0), BuildingBlock: CIFDUS_clean_linker_0, # of connection points: 2
#     Edge 80, Type (0, 0), BuildingBlock: CIFDUS_clean_linker_0, # of connection points: 2
#     Edge 81, Type (0, 0), BuildingBlock: CIFDUS_clean_linker_0, # of connection points: 2
#     Edge 82, Type (0, 0), BuildingBlock: CIFDUS_clean_linker_0, # of connection points: 2
#     Edge 83, Type (0, 0), BuildingBlock: CIFDUS_clean_linker_0, # of connection points: 2
#     Edge 84, Type (0, 0), BuildingBlock: CIFDUS_clean_linker_0, # of connection points: 2
#     Edge 85, Type (0, 0), BuildingBlock: CIFDUS_clean_linker_0, # of connection points: 2
#     Edge 86, Type (0, 0), BuildingBlock: CIFDUS_clean_linker_0, # of connection points: 2
#     Edge 87, Type (0, 0), BuildingBlock: CIFDUS_clean_linker_0, # of connection points: 2
#     Edge 88, Type (0, 0), BuildingBlock: CIFDUS_clean_linker_0, # of connection points: 2
#     Edge 89, Type (0, 0), BuildingBlock: CIFDUS_clean_linker_0, # of connection points: 2
#     Edge 90, Type (0, 0), BuildingBlock: CIFDUS_clean_linker_0, # of connection points: 2
#     Edge 91, Type (0, 0), BuildingBlock: CIFDUS_clean_linker_0, # of connection points: 2
#     Edge 92, Type (0, 0), BuildingBlock: CIFDUS_clean_linker_0, # of connection points: 2
#     Edge 93, Type (0, 0), BuildingBlock: CIFDUS_clean_linker_0, # of connection points: 2
#     Edge 94, Type (0, 0), BuildingBlock: CIFDUS_clean_linker_0, # of connection points: 2
#     Edge 95, Type (0, 0), BuildingBlock: CIFDUS_clean_linker_0, # of connection points: 2
# Relax obj value: 0.052
# Max RMSD: 0.084
# Mean RMSD: 0.084
data_MOF--net-uos--node1-NAHDIM_clean_sbu_0--edge1-CIFDUS_clean_linker_0
_symmetry_space_group_name_H-M    P1
_symmetry_Int_Tables_number       1
_symmetry_cell_setting            triclinic
loop_
_symmetry_equiv_pos_as_xyz
'x, y, z'
_cell_length_a     74.228628
_cell_length_b     74.229014
_cell_length_c     20.823139
_cell_angle_alpha  89.949733
_cell_angle_beta   89.981439
_cell_angle_gamma 90.017964
loop_
_atom_site_label
_atom_site_type_symbol
_atom_site_fract_x
_atom_site_fract_y
_atom_site_fract_z
_atom_type_partial_charge
C0 C 0.16272 0.1358 0.98473 0.0
O1 O 0.16468 0.12325 0.0287 0.0
O2 O 0.17148 0.18581 0.10081 0.0
Zn3 Zn 0.17542 0.15928 0.08668 0.0
O4 O 0.16221 0.14539 0.15491 0.0
C5 C 0.20757 0.15636 0.15676 0.0
O6 O 0.19579 0.15972 0.20231 0.0
O7 O 0.16684 0.15198 0.9984 0.0
C8 C 0.14661 0.14961 0.17501 0.0
O9 O 0.13809 0.16322 0.14847 0.0
C10 C 0.1608 0.19571 0.0687 0.0
O11 O 0.15104 0.18849 0.02281 0.0
O12 O 0.20204 0.155 0.09913 0.0
C13 C 0.09061 0.90459 0.22911 0.0
O14 O 0.07499 0.91289 0.22745 0.0
O15 O 0.05949 0.90813 0.36012 0.0
Zn16 Zn 0.08656 0.90984 0.36589 0.0
O17 O 0.09527 0.89382 0.43698 0.0
C18 C 0.08433 0.9487 0.36946 0.0
O19 O 0.07077 0.94596 0.33009 0.0
O20 O 0.09823 0.90205 0.28298 0.0
C21 C 0.09334 0.8991 0.49459 0.0
O22 O 0.08518 0.9145 0.50557 0.0
C23 C 0.05141 0.89333 0.34969 0.0
O24 O 0.06095 0.87858 0.34185 0.0
O25 O 0.09344 0.93529 0.38894 0.0
C26 C 0.35624 0.85218 0.54703 0.0
O27 O 0.36686 0.8508 0.59721 0.0
O28 O 0.33791 0.80505 0.62191 0.0
Zn29 Zn 0.33335 0.83168 0.63026 0.0
O30 O 0.34779 0.84118 0.70401 0.0
C31 C 0.2953 0.82552 0.62286 0.0
O32 O 0.30057 0.81447 0.57731 0.0
O33 O 0.34072 0.84489 0.54903 0.0
C34 C 0.34564 0.83583 0.76141 0.0
O35 O 0.33344 0.82348 0.77386 0.0
C36 C 0.35095 0.79801 0.59134 0.0
O37 O 0.36267 0.80848 0.5623 0.0
O38 O 0.30703 0.83511 0.65126 0.0
C39 C 0.38685 0.09889 0.78966 0.0
O40 O 0.39001 0.10819 0.84209 0.0
O41 O 0.42877 0.07556 0.87262 0.0
Zn42 Zn 0.4018 0.07214 0.87072 0.0
O43 O 0.38999 0.08408 0.9465 0.0
C44 C 0.40352 0.04117 0.94107 0.0
O45 O 0.41154 0.05359 0.97578 0.0
O46 O 0.39086 0.08221 0.78883 0.0
C47 C 0.39722 0.09536 0.98433 0.0
O48 O 0.41377 0.10088 0.97359 0.0
C49 C 0.43795 0.08877 0.8516 0.0
O50 O 0.4297 0.1025 0.82485 0.0
O51 O 0.39751 0.04555 0.88593 0.0
C52 C 0.14346 0.85598 0.94347 0.0
O53 O 0.13276 0.85415 0.89368 0.0
O54 O 0.16192 0.80903 0.87468 0.0
Zn55 Zn 0.16647 0.8355 0.8609 0.0
O56 O 0.15169 0.84472 0.78652 0.0
C57 C 0.19872 0.82945 0.79228 0.0
O58 O 0.18778 0.81781 0.76525 0.0
O59 O 0.15918 0.84916 0.94122 0.0
C60 C 0.14644 0.83559 0.7384 0.0
O61 O 0.15073 0.81848 0.73407 0.0
C62 C 0.14619 0.80228 0.87716 0.0
O63 O 0.13213 0.81289 0.87086 0.0
O64 O 0.19281 0.83907 0.83825 0.0
C65 C 0.40701 0.90372 0.26269 0.0
O66 O 0.42293 0.91143 0.26347 0.0
O67 O 0.43652 0.90962 0.12611 0.0
Zn68 Zn 0.4094 0.90961 0.12445 0.0
O69 O 0.40054 0.89271 0.0568 0.0
C70 C 0.4079 0.94794 0.13095 0.0
O71 O 0.41752 0.94479 0.18269 0.0
O72 O 0.39878 0.90199 0.20954 0.0
C73 C 0.40546 0.89488 0.99893 0.0
O74 O 0.41689 0.90785 0.98511 0.0
C75 C 0.44668 0.89685 0.14446 0.0
O76 O 0.43945 0.88177 0.16523 0.0
O77 O 0.40192 0.93468 0.09894 0.0
C78 C 0.34762 0.16351 0.51595 0.0
O79 O 0.34507 0.18101 0.51778 0.0
O80 O 0.34172 0.19428 0.38199 0.0
Zn81 Zn 0.33849 0.16719 0.37986 0.0
O82 O 0.35478 0.15698 0.31213 0.0
C83 C 0.30723 0.16181 0.29899 0.0
O84 O 0.31902 0.16477 0.25311 0.0
O85 O 0.34524 0.15517 0.4634 0.0
C86 C 0.35247 0.14105 0.29171 0.0
O87 O 0.33946 0.13118 0.31621 0.0
C88 C 0.34494 0.20208 0.32876 0.0
O89 O 0.3466 0.19222 0.27677 0.0
O90 O 0.31248 0.16194 0.35719 0.0
C91 C 0.11419 0.09805 0.66955 0.0
O92 O 0.10912 0.11136 0.63204 0.0
O93 O 0.06892 0.08418 0.59355 0.0
Zn94 Zn 0.0949 0.07863 0.57407 0.0
O95 O 0.1044 0.09439 0.50311 0.0
C96 C 0.08604 0.0508 0.49059 0.0
O97 O 0.07727 0.06464 0.4667 0.0
O98 O 0.10981 0.08203 0.65439 0.0
C99 C 0.1199 0.09051 0.48131 0.0
O100 O 0.12891 0.07718 0.50767 0.0
C101 C 0.05982 0.0968 0.56807 0.0
O102 O 0.06772 0.10787 0.52764 0.0
O103 O 0.09553 0.05311 0.54079 0.0
C104 C 0.85831 0.86089 0.94174 0.0
O105 O 0.86899 0.85957 0.89164 0.0
O106 O 0.83847 0.81356 0.87086 0.0
Zn107 Zn 0.83494 0.84026 0.85942 0.0
O108 O 0.8493 0.84907 0.78356 0.0
C109 C 0.79665 0.83727 0.87668 0.0
O110 O 0.80175 0.82817 0.92769 0.0
O111 O 0.84281 0.85358 0.93958 0.0
C112 C 0.84311 0.8484 0.72674 0.0
O113 O 0.82712 0.8413 0.71692 0.0
C114 C 0.85371 0.8058 0.86823 0.0
O115 O 0.86824 0.81551 0.85829 0.0
O116 O 0.80859 0.84439 0.84106 0.0
C117 C 0.89369 0.10269 0.70021 0.0
O118 O 0.88156 0.09983 0.65542 0.0
O119 O 0.94562 0.09554 0.59647 0.0
Zn120 Zn 0.91887 0.09124 0.60129 0.0
O121 O 0.90626 0.10504 0.5311 0.0
C122 C 0.90417 0.05695 0.55217 0.0
O123 O 0.89328 0.06705 0.51788 0.0
O124 O 0.91018 0.09967 0.68782 0.0
C125 C 0.91061 0.10282 0.47261 0.0
O126 O 0.92349 0.09136 0.45828 0.0
C127 C 0.95307 0.10953 0.5732 0.0
O128 O 0.94298 0.1226 0.55046 0.0
O129 O 0.91517 0.06438 0.59084 0.0
C130 C 0.66046 0.15517 0.56259 0.0
O131 O 0.66874 0.17082 0.56309 0.0
O132 O 0.66669 0.18189 0.41463 0.0
Zn133 Zn 0.66943 0.15502 0.42571 0.0
O134 O 0.65668 0.14155 0.35558 0.0
C135 C 0.70105 0.15289 0.35657 0.0
O136 O 0.68939 0.15966 0.31565 0.0
O137 O 0.65967 0.14628 0.51056 0.0
C138 C 0.6432 0.14679 0.32299 0.0
O139 O 0.63585 0.1625 0.33535 0.0
C140 C 0.65348 0.19161 0.43219 0.0
O141 O 0.6396 0.18405 0.46065 0.0
O142 O 0.69577 0.14938 0.41338 0.0
C143 C 0.59132 0.91376 0.27936 0.0
O144 O 0.57554 0.92174 0.28139 0.0
O145 O 0.5606 0.91188 0.14292 0.0
Zn146 Zn 0.58683 0.91918 0.14263 0.0
O147 O 0.59953 0.9077 0.06775 0.0
C148 C 0.57604 0.95651 0.15233 0.0
O149 O 0.56356 0.9497 0.18998 0.0
O150 O 0.59897 0.91157 0.2253 0.0
C151 C 0.59773 0.89126 0.05204 0.0
O152 O 0.58715 0.88081 0.08626 0.0
C153 C 0.55412 0.89802 0.17051 0.0
O154 O 0.56496 0.88698 0.20109 0.0
O155 O 0.58791 0.94611 0.12868 0.0
C156 C 0.85096 0.14558 0.01773 0.0
O157 O 0.86358 0.15062 0.05812 0.0
O158 O 0.83016 0.18754 0.10469 0.0
Zn159 Zn 0.82865 0.16063 0.11616 0.0
O160 O 0.84586 0.15216 0.18474 0.0
C161 C 0.79812 0.14733 0.19341 0.0
O162 O 0.81043 0.14055 0.2317 0.0
O163 O 0.83456 0.14842 0.03219 0.0
C164 C 0.84659 0.15941 0.23996 0.0
O165 O 0.83595 0.17308 0.25294 0.0
C166 C 0.84398 0.19722 0.11513 0.0
O167 O 0.85903 0.18952 0.13374 0.0
O168 O 0.80294 0.1554 0.14226 0.0
C169 C 0.60082 0.10873 0.83619 0.0
O170 O 0.59816 0.11985 0.88426 0.0
O171 O 0.55214 0.08773 0.89494 0.0
Zn172 Zn 0.57856 0.0856 0.91458 0.0
O173 O 0.58453 0.10124 0.99047 0.0
C174 C 0.57563 0.05411 0.99018 0.0
O175 O 0.56478 0.0651 0.02104 0.0
O176 O 0.59365 0.09315 0.83799 0.0
C177 C 0.59909 0.09792 0.02021 0.0
O178 O 0.60939 0.08468 6e-05 0.0
C179 C 0.54466 0.10196 0.87391 0.0
O180 O 0.55455 0.11631 0.86276 0.0
O181 O 0.58355 0.05978 0.93987 0.0
C182 C 0.64332 0.86264 0.56177 0.0
O183 O 0.63242 0.85991 0.6105 0.0
O184 O 0.66245 0.81636 0.63276 0.0
Zn185 Zn 0.66708 0.84291 0.64434 0.0
O186 O 0.65322 0.85194 0.72094 0.0
C187 C 0.69868 0.84037 0.71811 0.0
O188 O 0.68681 0.83249 0.75564 0.0
O189 O 0.65933 0.85654 0.56463 0.0
C190 C 0.65578 0.868 0.73987 0.0
O191 O 0.6672 0.87825 0.70837 0.0
C192 C 0.6474 0.80914 0.64658 0.0
O193 O 0.63424 0.81933 0.66797 0.0
O194 O 0.69351 0.84635 0.66388 0.0
C195 C 0.90673 0.9147 0.22599 0.0
O196 O 0.92233 0.92306 0.22551 0.0
O197 O 0.93554 0.92075 0.36212 0.0
Zn198 Zn 0.90838 0.92194 0.36304 0.0
O199 O 0.89826 0.90624 0.43336 0.0
C200 C 0.90784 0.95504 0.43041 0.0
O201 O 0.91861 0.94546 0.46701 0.0
O202 O 0.89827 0.91308 0.27875 0.0
C203 C 0.90696 0.90153 0.4832 0.0
O204 O 0.92372 0.90686 0.49035 0.0
C205 C 0.94445 0.90642 0.35169 0.0
O206 O 0.93575 0.89132 0.34066 0.0
O207 O 0.90122 0.94778 0.38038 0.0
C208 C 0.66034 0.66156 0.47434 0.0
O209 O 0.66639 0.67819 0.47343 0.0
O210 O 0.66606 0.69235 0.60232 0.0
Zn211 Zn 0.66718 0.6653 0.6102 0.0
O212 O 0.65112 0.65697 0.68189 0.0
C213 C 0.70584 0.6661 0.60506 0.0
O214 O 0.70262 0.67623 0.55457 0.0
O215 O 0.65973 0.65316 0.52751 0.0
C216 C 0.65632 0.65963 0.73923 0.0
O217 O 0.67152 0.66826 0.74916 0.0
C218 C 0.65255 0.70192 0.61791 0.0
O219 O 0.63789 0.694 0.63924 0.0
O220 O 0.69266 0.65907 0.6348 0.0
C221 C 0.59122 0.40681 0.73621 0.0
O222 O 0.57545 0.41484 0.73562 0.0
O223 O 0.56293 0.41768 0.86967 0.0
Zn224 Zn 0.59013 0.41727 0.87005 0.0
O225 O 0.59897 0.40351 0.94675 0.0
C226 C 0.59132 0.45557 0.84919 0.0
O227 O 0.58032 0.4514 0.80207 0.0
O228 O 0.60018 0.40642 0.78823 0.0
C229 C 0.60029 0.38648 0.95058 0.0
O230 O 0.59548 0.37649 0.90143 0.0
C231 C 0.55243 0.40431 0.86217 0.0
O232 O 0.55927 0.38819 0.85319 0.0
O233 O 0.59808 0.44299 0.88282 0.0
C234 C 0.85042 0.35197 0.0308 0.0
O235 O 0.86179 0.34299 0.067 0.0
O236 O 0.83323 0.31176 0.11641 0.0
Zn237 Zn 0.82773 0.33825 0.12751 0.0
O238 O 0.84289 0.34818 0.19912 0.0
C239 C 0.79761 0.33757 0.21175 0.0
O240 O 0.81061 0.33318 0.25162 0.0
O241 O 0.83384 0.35205 0.04631 0.0
C242 C 0.84011 0.36412 0.21879 0.0
O243 O 0.82759 0.37387 0.19083 0.0
C244 C 0.84753 0.30454 0.13812 0.0
O245 O 0.85948 0.31465 0.16755 0.0
O246 O 0.8015 0.34066 0.15319 0.0
C247 C 0.90064 0.60519 0.28741 0.0
O248 O 0.91531 0.61174 0.31387 0.0
O249 O 0.93281 0.58201 0.37304 0.0
Zn250 Zn 0.90622 0.58328 0.39281 0.0
O251 O 0.9012 0.60208 0.45961 0.0
C252 C 0.90631 0.54496 0.40326 0.0
O253 O 0.91779 0.54701 0.35574 0.0
O254 O 0.89323 0.59146 0.31276 0.0
C255 C 0.89967 0.59833 0.51884 0.0
O256 O 0.90231 0.58168 0.53807 0.0
C257 C 0.94521 0.5861 0.41247 0.0
O258 O 0.94086 0.59189 0.47 0.0
O259 O 0.89841 0.5588 0.42553 0.0
C260 C 0.63864 0.35176 0.45256 0.0
O261 O 0.62705 0.34877 0.4061 0.0
O262 O 0.65771 0.30554 0.37754 0.0
Zn263 Zn 0.6615 0.33225 0.36546 0.0
O264 O 0.64655 0.34146 0.29159 0.0
C265 C 0.69186 0.33368 0.28247 0.0
O266 O 0.67923 0.32878 0.24194 0.0
O267 O 0.65466 0.34583 0.44682 0.0
C268 C 0.64761 0.35821 0.27958 0.0
O269 O 0.65767 0.36841 0.31667 0.0
C270 C 0.64346 0.29854 0.40057 0.0
O271 O 0.63004 0.30904 0.4174 0.0
O272 O 0.68769 0.33616 0.34115 0.0
C273 C 0.9015 0.39331 0.72664 0.0
O274 O 0.9138 0.38455 0.69377 0.0
O275 O 0.93405 0.40956 0.62305 0.0
Zn276 Zn 0.90752 0.41576 0.62097 0.0
O277 O 0.89531 0.40242 0.54945 0.0
C278 C 0.91338 0.44479 0.54296 0.0
O279 O 0.92141 0.43108 0.51512 0.0
O280 O 0.89588 0.40837 0.70534 0.0
C281 C 0.90094 0.38809 0.5229 0.0
O282 O 0.91569 0.38036 0.5442 0.0
C283 C 0.94387 0.41554 0.66824 0.0
O284 O 0.93645 0.42549 0.71323 0.0
O285 O 0.9055 0.44213 0.5965 0.0
C286 C 0.84708 0.65057 0.99695 0.0
O287 O 0.85872 0.65732 0.956 0.0
O288 O 0.82819 0.68982 0.89878 0.0
Zn289 Zn 0.8253 0.66266 0.89663 0.0
O290 O 0.84248 0.65056 0.83546 0.0
C291 C 0.79668 0.66358 0.8093 0.0
O292 O 0.80929 0.67266 0.77913 0.0
O293 O 0.83037 0.65157 0.98371 0.0
C294 C 0.8504 0.65679 0.78615 0.0
O295 O 0.84775 0.6736 0.76885 0.0
C296 C 0.84271 0.69889 0.89539 0.0
O297 O 0.8582 0.69045 0.89073 0.0
O298 O 0.80008 0.65738 0.86499 0.0
C299 C 0.61556 0.60582 0.18759 0.0
O300 O 0.61195 0.61674 0.13967 0.0
O301 O 0.57145 0.58215 0.11459 0.0
Zn302 Zn 0.59828 0.58147 0.10139 0.0
O303 O 0.60572 0.59817 0.02961 0.0
C304 C 0.59806 0.55126 0.02054 0.0
O305 O 0.58831 0.56293 0.98834 0.0
O306 O 0.611 0.58932 0.18314 0.0
C307 C 0.59559 0.60472 0.98627 0.0
O308 O 0.57839 0.60057 0.98528 0.0
C309 C 0.5625 0.59608 0.13003 0.0
O310 O 0.57096 0.61145 0.13835 0.0
O311 O 0.60462 0.556 0.07445 0.0
C312 C 0.35704 0.36401 0.46347 0.0
O313 O 0.36846 0.35665 0.42303 0.0
O314 O 0.3375 0.31984 0.39544 0.0
Zn315 Zn 0.33379 0.34634 0.37784 0.0
O316 O 0.35078 0.35418 0.30783 0.0
C317 C 0.29566 0.33967 0.36302 0.0
O318 O 0.29928 0.32631 0.40237 0.0
O319 O 0.34027 0.36111 0.45605 0.0
C320 C 0.34615 0.35776 0.25057 0.0
O321 O 0.32924 0.35577 0.23343 0.0
C322 C 0.33925 0.30937 0.34757 0.0
O323 O 0.33884 0.31625 0.28944 0.0
O324 O 0.30818 0.35057 0.34792 0.0
C325 C 0.4147 0.59316 0.27106 0.0
O326 O 0.43132 0.58722 0.27609 0.0
O327 O 0.44797 0.59053 0.14761 0.0
Zn328 Zn 0.42125 0.58786 0.13535 0.0
O329 O 0.41341 0.60485 0.06604 0.0
C330 C 0.42464 0.55808 0.05337 0.0
O331 O 0.4358 0.56969 0.02711 0.0
O332 O 0.40748 0.59403 0.21586 0.0
C333 C 0.39854 0.60144 0.03858 0.0
O334 O 0.38909 0.58746 0.05777 0.0
C335 C 0.45558 0.60572 0.155 0.0
O336 O 0.44564 0.62035 0.1574 0.0
O337 O 0.41629 0.56259 0.10424 0.0
C338 C 0.147 0.6384 0.98808 0.0
O339 O 0.1338 0.64085 0.94699 0.0
O340 O 0.16568 0.68543 0.90779 0.0
Zn341 Zn 0.16665 0.65871 0.8928 0.0
O342 O 0.14845 0.65149 0.82618 0.0
C343 C 0.19411 0.65731 0.79736 0.0
O344 O 0.18095 0.66423 0.76313 0.0
O345 O 0.16245 0.64495 0.97551 0.0
C346 C 0.15032 0.63604 0.80092 0.0
O347 O 0.16332 0.62549 0.82146 0.0
C348 C 0.15173 0.69508 0.89949 0.0
O349 O 0.13652 0.68733 0.88288 0.0
O350 O 0.19128 0.6535 0.85614 0.0
C351 C 0.10543 0.41276 0.75951 0.0
O352 O 0.101 0.42975 0.75146 0.0
O353 O 0.05811 0.4028 0.66095 0.0
Zn354 Zn 0.08458 0.40578 0.64131 0.0
O355 O 0.09211 0.38742 0.57543 0.0
C356 C 0.07594 0.43873 0.57614 0.0
O357 O 0.06029 0.43056 0.57185 0.0
O358 O 0.09977 0.40104 0.7199 0.0
C359 C 0.09042 0.39009 0.51547 0.0
O360 O 0.08287 0.40504 0.49519 0.0
C361 C 0.05074 0.41143 0.70665 0.0
O362 O 0.06085 0.42145 0.74411 0.0
O363 O 0.08881 0.43086 0.6052 0.0
C364 C 0.35378 0.63933 0.54092 0.0
O365 O 0.36366 0.64256 0.59192 0.0
O366 O 0.33208 0.68118 0.63046 0.0
Zn367 Zn 0.32828 0.65435 0.62592 0.0
O368 O 0.34112 0.6417 0.69801 0.0
C369 C 0.29793 0.65323 0.70241 0.0
O370 O 0.31077 0.65861 0.74134 0.0
O371 O 0.33719 0.64372 0.54185 0.0
C372 C 0.35289 0.64843 0.73515 0.0
O373 O 0.35827 0.66511 0.72629 0.0
C374 C 0.34356 0.69063 0.60012 0.0
O375 O 0.355 0.68271 0.56114 0.0
O376 O 0.30178 0.65026 0.64374 0.0
C377 C 0.11268 0.58437 0.29713 0.0
O378 O 0.12449 0.58496 0.34403 0.0
O379 O 0.06395 0.57724 0.41265 0.0
Zn380 Zn 0.08943 0.56936 0.39607 0.0
O381 O 0.10522 0.57993 0.46447 0.0
C382 C 0.10364 0.5344 0.43053 0.0
O383 O 0.11841 0.54366 0.44147 0.0
O384 O 0.09716 0.57774 0.30788 0.0
C385 C 0.1013 0.59429 0.49446 0.0
O386 O 0.08668 0.60323 0.47865 0.0
C387 C 0.05149 0.57365 0.37292 0.0
O388 O 0.05553 0.56509 0.31961 0.0
O389 O 0.09001 0.54239 0.40696 0.0
C390 C 0.16023 0.36443 0.04031 0.0
O391 O 0.15913 0.37386 0.09354 0.0
O392 O 0.16376 0.30943 0.11915 0.0
Zn393 Zn 0.16853 0.33597 0.12945 0.0
O394 O 0.15035 0.34698 0.18908 0.0
C395 C 0.19701 0.32821 0.21396 0.0
O396 O 0.18476 0.31635 0.23079 0.0
O397 O 0.16535 0.3481 0.04337 0.0
C398 C 0.14286 0.33919 0.23639 0.0
O399 O 0.14679 0.32233 0.24933 0.0
C400 C 0.15232 0.3029 0.08018 0.0
O401 O 0.14261 0.31386 0.04473 0.0
O402 O 0.19346 0.33903 0.1682 0.0
C403 C 0.41121 0.42037 0.72566 0.0
O404 O 0.42866 0.42323 0.7284 0.0
O405 O 0.43871 0.42075 0.86477 0.0
Zn406 Zn 0.41242 0.42752 0.86301 0.0
O407 O 0.3983 0.41216 0.92398 0.0
C408 C 0.39947 0.4591 0.93193 0.0
O409 O 0.38786 0.44765 0.95647 0.0
O410 O 0.40177 0.42256 0.77593 0.0
C411 C 0.40381 0.40648 0.97799 0.0
O412 O 0.42016 0.41058 0.99721 0.0
C413 C 0.44468 0.40482 0.85773 0.0
O414 O 0.43325 0.39153 0.84911 0.0
O415 O 0.41052 0.45367 0.8894 0.0
H416 H 0.29233 0.1583 0.18029 0.0
H417 H 0.27878 0.15953 0.38193 0.0
H418 H 0.24684 0.15712 0.35545 0.0
H419 H 0.22274 0.15607 0.27523 0.0
H420 H 0.23612 0.15479 0.07352 0.0
H421 H 0.2682 0.15569 0.10001 0.0
C422 C 0.28241 0.15797 0.21851 0.0
C423 C 0.28796 0.15924 0.28301 0.0
C424 C 0.26404 0.1566 0.20296 0.0
C425 C 0.27491 0.15863 0.33189 0.0
C426 C 0.25662 0.15728 0.31679 0.0
C427 C 0.23265 0.15589 0.23697 0.0
C428 C 0.22702 0.15549 0.17245 0.0
C429 C 0.25104 0.15647 0.25251 0.0
C430 C 0.24008 0.15512 0.12357 0.0
C431 C 0.25842 0.15568 0.13868 0.0
H432 H 0.06793 0.98004 0.33603 0.0
H433 H 0.10869 0.95831 0.46197 0.0
H434 H 0.11305 0.98797 0.51015 0.0
H435 H 0.10452 0.01996 0.51911 0.0
H436 H 0.06383 0.04144 0.39223 0.0
H437 H 0.06025 0.01204 0.34213 0.0
C438 C 0.07784 0.98179 0.37376 0.0
C439 C 0.0879 0.96694 0.39542 0.0
C440 C 0.08025 0.99885 0.40145 0.0
C441 C 0.10074 0.9695 0.44426 0.0
C442 C 0.10322 0.98646 0.47204 0.0
C443 C 0.0949 0.01821 0.48045 0.0
C444 C 0.08441 0.03289 0.45979 0.0
C445 C 0.09291 0.00121 0.45148 0.0
C446 C 0.07207 0.0304 0.40929 0.0
C447 C 0.06999 0.01356 0.3805 0.0
H448 H 0.21328 0.81332 0.68789 0.0
H449 H 0.22617 0.84997 0.842 0.0
H450 H 0.25706 0.85258 0.80174 0.0
H451 H 0.28058 0.84381 0.724 0.0
H452 H 0.2672 0.80709 0.57044 0.0
H453 H 0.23628 0.80529 0.60918 0.0
C454 C 0.22281 0.8219 0.71285 0.0
C455 C 0.21742 0.83135 0.76815 0.0
C456 C 0.24047 0.82337 0.6894 0.0
C457 C 0.22996 0.8425 0.79944 0.0
C458 C 0.24763 0.84401 0.77641 0.0
C459 C 0.27087 0.83551 0.69873 0.0
C460 C 0.27626 0.82557 0.64439 0.0
C461 C 0.25305 0.83443 0.72155 0.0
C462 C 0.26348 0.81487 0.61238 0.0
C463 C 0.24577 0.8138 0.63457 0.0
H464 H 0.41155 0.03025 0.06128 0.0
H465 H 0.39133 0.01061 0.88008 0.0
H466 H 0.38972 0.98003 0.92438 0.0
H467 H 0.39552 0.95875 0.01344 0.0
H468 H 0.41623 0.97902 0.19327 0.0
H469 H 0.41603 0.00957 0.15053 0.0
C470 C 0.40675 0.01933 0.03125 0.0
C471 C 0.40171 0.0227 0.96723 0.0
C472 C 0.40593 0.0019 0.05687 0.0
C473 C 0.39535 0.00837 0.92944 0.0
C474 C 0.39444 0.99089 0.95476 0.0
C475 C 0.39979 0.96988 0.0435 0.0
C476 C 0.40595 0.96657 0.10646 0.0
C477 C 0.39988 0.98748 0.01828 0.0
C478 C 0.4115 0.98115 0.14464 0.0
C479 C 0.41143 0.99864 0.12021 0.0
H480 H 0.78216 0.85069 0.76614 0.0
H481 H 0.76783 0.82502 0.94521 0.0
H482 H 0.73631 0.82412 0.9123 0.0
H483 H 0.71301 0.82963 0.83166 0.0
H484 H 0.7271 0.85492 0.65177 0.0
H485 H 0.75854 0.85695 0.68617 0.0
C486 C 0.77213 0.84502 0.79821 0.0
C487 C 0.77739 0.8379 0.85807 0.0
C488 C 0.754 0.84438 0.77872 0.0
C489 C 0.7642 0.83056 0.89885 0.0
C490 C 0.74615 0.83001 0.88004 0.0
C491 C 0.72292 0.83563 0.79989 0.0
C492 C 0.71769 0.84204 0.73907 0.0
C493 C 0.74094 0.8367 0.81986 0.0
C494 C 0.73074 0.84983 0.69876 0.0
C495 C 0.74873 0.851 0.71841 0.0
H496 H 0.92046 0.97383 0.53257 0.0
H497 H 0.88681 0.97919 0.36461 0.0
H498 H 0.88179 0.01098 0.38968 0.0
H499 H 0.88808 0.03757 0.45686 0.0
H500 H 0.92236 0.03201 0.62321 0.0
H501 H 0.92588 -5e-05 0.60131 0.0
C502 C 0.91196 0.9819 0.50146 0.0
C503 C 0.9041 0.97413 0.44658 0.0
C504 C 0.90924 0.00016 0.51588 0.0
C505 C 0.89308 0.98482 0.40705 0.0
C506 C 0.8902 0.00301 0.42136 0.0
C507 C 0.89617 0.02931 0.4887 0.0
C508 C 0.90498 0.03723 0.54152 0.0
C509 C 0.89836 0.01087 0.47533 0.0
C510 C 0.91548 0.02632 0.58208 0.0
C511 C 0.91753 0.00796 0.56957 0.0
H512 H 0.71495 0.15793 0.23786 0.0
H513 H 0.72942 0.14048 0.4288 0.0
H514 H 0.76062 0.13611 0.39398 0.0
H515 H 0.78397 0.13847 0.31013 0.0
H516 H 0.76914 0.15658 0.12019 0.0
H517 H 0.73782 0.15931 0.15388 0.0
C518 C 0.72488 0.15313 0.27201 0.0
C519 C 0.71986 0.14965 0.33597 0.0
C520 C 0.74273 0.15073 0.25178 0.0
C521 C 0.73293 0.14333 0.37933 0.0
C522 C 0.75077 0.14082 0.35943 0.0
C523 C 0.77386 0.14283 0.27591 0.0
C524 C 0.77893 0.14736 0.21273 0.0
C525 C 0.75585 0.14463 0.29587 0.0
C526 C 0.76565 0.15307 0.16914 0.0
C527 C 0.74772 0.15467 0.18838 0.0
H528 H 0.55956 0.03815 0.09259 0.0
H529 H 0.59819 0.02827 0.94168 0.0
H530 H 0.60249 0.9975 0.98073 0.0
H531 H 0.59456 0.97311 0.05583 0.0
H532 H 0.55533 0.983 0.20479 0.0
H533 H 0.55212 0.0141 0.1686 0.0
C534 C 0.56897 0.02931 0.06822 0.0
C535 C 0.57849 0.03552 0.0141 0.0
C536 C 0.57129 0.01162 0.09067 0.0
C537 C 0.59063 0.02384 0.98328 0.0
C538 C 0.59311 0.00623 0.00564 0.0
C539 C 0.58543 0.98211 0.08076 0.0
C540 C 0.57519 0.97571 0.13297 0.0
C541 C 0.58344 -5e-05 0.05908 0.0
C542 C 0.56334 0.98754 0.16441 0.0
C543 C 0.56147 0.00534 0.14369 0.0
H544 H 0.71612 0.65194 0.72029 0.0
H545 H 0.73705 0.67769 0.5498 0.0
H546 H 0.76706 0.67846 0.59733 0.0
H547 H 0.78696 0.67341 0.68897 0.0
H548 H 0.76627 0.6482 0.86073 0.0
H549 H 0.73654 0.6456 0.81081 0.0
C550 C 0.72729 0.65753 0.69321 0.0
C551 C 0.7243 0.66481 0.63159 0.0
C552 C 0.74451 0.65817 0.72121 0.0
C553 C 0.73893 0.67206 0.59734 0.0
C554 C 0.7561 0.67254 0.62454 0.0
C555 C 0.77599 0.66728 0.71559 0.0
C556 C 0.77882 0.66113 0.77873 0.0
C557 C 0.75897 0.66592 0.68678 0.0
C558 C 0.76446 0.6531 0.81216 0.0
C559 C 0.74745 0.65162 0.78364 0.0
H560 H 0.60746 0.46855 0.95754 0.0
H561 H 0.58037 0.4855 0.78419 0.0
H562 H 0.58109 0.51669 0.8207 0.0
H563 H 0.58745 0.53878 0.90449 0.0
H564 H 0.61386 0.52214 0.07939 0.0
H565 H 0.61545 0.49118 0.03934 0.0
C566 C 0.60191 0.47909 0.92735 0.0
C567 C 0.59377 0.47464 0.86831 0.0
C568 C 0.60212 0.49702 0.94911 0.0
C569 C 0.58664 0.48849 0.82993 0.0
C570 C 0.587 0.50635 0.85083 0.0
C571 C 0.59365 0.52843 0.93388 0.0
C572 C 0.60037 0.53276 0.99515 0.0
C573 C 0.59438 0.5107 0.91083 0.0
C574 C 0.60851 0.51918 0.03217 0.0
C575 C 0.6094 0.50146 0.00932 0.0
H576 H 0.72248 0.33624 0.3544 0.0
H577 H 0.70343 0.33573 0.15861 0.0
H578 H 0.73431 0.3378 0.11934 0.0
H579 H 0.76687 0.3386 0.14021 0.0
H580 H 0.78602 0.33791 0.33587 0.0
H581 H 0.75507 0.33755 0.3753 0.0
C582 C 0.72509 0.33671 0.30318 0.0
C583 C 0.71065 0.33578 0.25961 0.0
C584 C 0.74294 0.33763 0.28074 0.0
C585 C 0.71428 0.33631 0.19331 0.0
C586 C 0.73195 0.33752 0.17071 0.0
C587 C 0.76427 0.3385 0.19146 0.0
C588 C 0.77875 0.33825 0.23493 0.0
C589 C 0.74641 0.33801 0.21393 0.0
C590 C 0.77513 0.33802 0.30125 0.0
C591 C 0.75742 0.33782 0.32394 0.0
H592 H 0.89482 0.47549 0.57584 0.0
H593 H 0.93221 0.45406 0.43645 0.0
H594 H 0.93256 0.48267 0.37998 0.0
H595 H 0.92281 0.51382 0.37012 0.0
H596 H 0.88566 0.5361 0.50827 0.0
H597 H 0.88452 0.50714 0.56453 0.0
C598 C 0.90306 0.47713 0.53323 0.0
C599 C 0.91349 0.4626 0.51069 0.0
C600 C 0.90318 0.49375 0.50035 0.0
C601 C 0.92402 0.46494 0.4551 0.0
C602 C 0.92424 0.48133 0.42253 0.0
C603 C 0.91435 0.51237 0.4123 0.0
C604 C 0.90435 0.52714 0.43483 0.0
C605 C 0.91391 0.49581 0.44468 0.0
C606 C 0.89348 0.52494 0.48968 0.0
C607 C 0.89288 0.5084 0.52208 0.0
H608 H 0.26683 0.31788 0.38237 0.0
H609 H 0.28415 0.36428 0.27365 0.0
H610 H 0.25514 0.36505 0.21805 0.0
H611 H 0.22503 0.35191 0.19812 0.0
H612 H 0.20831 0.30537 0.30762 0.0
H613 H 0.23687 0.30532 0.36464 0.0
C614 C 0.26427 0.32825 0.3468 0.0
C615 C 0.27769 0.34098 0.33226 0.0
C616 C 0.24765 0.32853 0.31471 0.0
C617 C 0.27406 0.35431 0.28594 0.0
C618 C 0.25748 0.35473 0.25393 0.0
C619 C 0.22765 0.34178 0.23447 0.0
C620 C 0.21451 0.32864 0.24825 0.0
C621 C 0.24421 0.3418 0.2675 0.0
C622 C 0.21812 0.31565 0.29577 0.0
C623 C 0.23449 0.31559 0.32859 0.0
H624 H 0.39946 0.5327 0.08435 0.0
H625 H 0.44332 0.5435 0.9536 0.0
H626 H 0.4389 0.51427 0.90284 0.0
H627 H 0.42311 0.48535 0.89681 0.0
H628 H 0.37918 0.47437 0.02703 0.0
H629 H 0.38302 0.50398 0.07613 0.0
C630 C 0.40806 0.52864 0.04481 0.0
C631 C 0.42176 0.54026 0.02312 0.0
C632 C 0.4054 0.51179 0.01546 0.0
C633 C 0.43269 0.53484 0.97144 0.0
C634 C 0.43017 0.51811 0.94226 0.0
C635 C 0.41428 0.48945 0.93564 0.0
C636 C 0.40091 0.4776 0.95822 0.0
C637 C 0.41662 0.50645 0.96399 0.0
C638 C 0.3896 0.48319 0.00861 0.0
C639 C 0.39181 0.50012 0.03692 0.0
H640 H 0.26621 0.65482 0.63615 0.0
H641 H 0.2883 0.64742 0.82601 0.0
H642 H 0.25809 0.64675 0.87164 0.0
H643 H 0.22553 0.65019 0.859 0.0
H644 H 0.20318 0.65919 0.67042 0.0
H645 H 0.23323 0.65724 0.62307 0.0
C646 C 0.26435 0.65285 0.68734 0.0
C647 C 0.27944 0.65125 0.72764 0.0
C648 C 0.24688 0.65289 0.71366 0.0
C649 C 0.27688 0.64883 0.79399 0.0
C650 C 0.25961 0.64844 0.82021 0.0
C651 C 0.2272 0.65156 0.80748 0.0
C652 C 0.21215 0.65491 0.76842 0.0
C653 C 0.24453 0.65077 0.7807 0.0
C654 C 0.21457 0.65672 0.70171 0.0
C655 C 0.23176 0.6556 0.67452 0.0
H656 H 0.10713 0.45806 0.56447 0.0
H657 H 0.05055 0.45916 0.51629 0.0
H658 H 0.05442 0.48817 0.46341 0.0
H659 H 0.07351 0.51364 0.43337 0.0
H660 H 0.13 0.51311 0.48237 0.0
H661 H 0.12653 0.4834 0.5315 0.0
C662 C 0.09565 0.46466 0.54244 0.0
C663 C 0.07856 0.45645 0.54469 0.0
C664 C 0.09794 0.48141 0.51187 0.0
C665 C 0.06386 0.46515 0.51552 0.0
C666 C 0.06604 0.48176 0.4851 0.0
C667 C 0.08513 0.50698 0.45418 0.0
C668 C 0.10198 0.51563 0.45419 0.0
C669 C 0.08299 0.49004 0.48319 0.0
C670 C 0.11686 0.50678 0.48166 0.0
C671 C 0.11488 0.4898 0.51002 0.0
H672 H 0.15262 0.10278 0.93997 0.0
H673 H 0.15504 0.15895 0.88649 0.0
H674 H 0.14074 0.15209 0.78396 0.0
H675 H 0.12669 0.13042 0.71088 0.0
H676 H 0.12414 0.07422 0.76364 0.0
H677 H 0.13941 0.08085 0.86489 0.0
C678 C 0.1501 0.11352 0.90581 0.0
C679 C 0.15486 0.13137 0.92118 0.0
C680 C 0.1418 0.1095 0.84681 0.0
C681 C 0.15152 0.14509 0.87612 0.0
C682 C 0.14331 0.14119 0.81741 0.0
C683 C 0.12951 0.11958 0.74436 0.0
C684 C 0.12418 0.10185 0.7297 0.0
C685 C 0.13826 0.12348 0.80249 0.0
C686 C 0.12805 0.08799 0.77364 0.0
C687 C 0.13677 0.09177 0.83164 0.0
H688 H 0.11236 0.87472 0.95656 0.0
H689 H 0.15963 0.85807 0.06165 0.0
H690 H 0.14768 0.8721 0.15902 0.0
H691 H 0.12327 0.88818 0.21502 0.0
H692 H 0.07617 0.90483 0.1087 0.0
H693 H 0.08867 0.89174 0.01105 0.0
C694 C 0.12011 0.87418 0.00067 0.0
C695 C 0.13682 0.86525 0.00184 0.0
C696 C 0.11317 0.88225 0.05632 0.0
C697 C 0.14672 0.86483 0.05937 0.0
C698 C 0.13987 0.87282 0.11511 0.0
C699 C 0.11576 0.88901 0.17044 0.0
C700 C 0.09875 0.89741 0.16938 0.0
C701 C 0.12303 0.88143 0.11427 0.0
C702 C 0.08927 0.89844 0.11106 0.0
C703 C 0.09639 0.89092 0.05512 0.0
H704 H 0.37474 0.88658 0.27721 0.0
H705 H 0.42195 0.90347 0.3824 0.0
H706 H 0.41016 0.88936 0.47951 0.0
H707 H 0.38704 0.87146 0.53375 0.0
H708 H 0.33974 0.85446 0.42951 0.0
H709 H 0.351 0.86945 0.33282 0.0
C710 C 0.38242 0.88726 0.32143 0.0
C711 C 0.39926 0.89602 0.32231 0.0
C712 C 0.37559 0.87905 0.37721 0.0
C713 C 0.40898 0.8968 0.38017 0.0
C714 C 0.40226 0.88871 0.43579 0.0
C715 C 0.37914 0.87103 0.48996 0.0
C716 C 0.36261 0.86175 0.48884 0.0
C717 C 0.38568 0.87966 0.43469 0.0
C718 C 0.35252 0.86148 0.43173 0.0
C719 C 0.35896 0.87003 0.37639 0.0
H720 H 0.37672 0.13387 0.78021 0.0
H721 H 0.37943 0.0845 0.67117 0.0
H722 H 0.36708 0.10005 0.57731 0.0
H723 H 0.35608 0.12784 0.52586 0.0
H724 H 0.35371 0.17711 0.63574 0.0
H725 H 0.36534 0.16133 0.72978 0.0
C726 C 0.37461 0.12644 0.736 0.0
C727 C 0.37905 0.10803 0.73277 0.0
C728 C 0.36756 0.13546 0.68237 0.0
C729 C 0.37615 0.09868 0.67503 0.0
C730 C 0.36909 0.10757 0.62133 0.0
C731 C 0.35803 0.13513 0.57043 0.0
C732 C 0.35404 0.15367 0.57358 0.0
C733 C 0.36482 0.12598 0.6244 0.0
C734 C 0.35668 0.16287 0.63179 0.0
C735 C 0.36334 0.15385 0.68565 0.0
H736 H 0.88905 0.88032 0.95612 0.0
H737 H 0.84131 0.86341 0.05815 0.0
H738 H 0.85185 0.87893 0.15455 0.0
H739 H 0.87495 0.89676 0.21051 0.0
H740 H 0.92257 0.91372 0.1077 0.0
H741 H 0.91166 0.89878 0.01095 0.0
C742 C 0.88091 0.88002 -0.00062 0.0
C743 C 0.86444 0.87063 -0.00011 0.0
C744 C 0.88703 0.88901 0.05455 0.0
C745 C 0.85405 0.87051 0.05636 0.0
C746 C 0.86007 0.87938 0.11156 0.0
C747 C 0.88292 0.89726 0.16689 0.0
C748 C 0.89959 0.90633 0.16657 0.0
C749 C 0.87659 0.8886 0.11129 0.0
C750 C 0.9097 0.90685 0.10948 0.0
C751 C 0.90349 0.89828 0.05406 0.0
H752 H 0.88438 0.13608 0.97688 0.0
H753 H 0.82849 0.13568 0.91961 0.0
H754 H 0.83671 0.12208 0.81691 0.0
H755 H 0.85986 0.11079 0.74251 0.0
H756 H 0.9157 0.1112 0.80068 0.0
H757 H 0.90735 0.12425 0.90384 0.0
C758 C 0.87396 0.13301 0.94203 0.0
C759 C 0.85585 0.13697 0.95596 0.0
C760 C 0.87877 0.12518 0.88312 0.0
C761 C 0.84255 0.13281 0.91021 0.0
C762 C 0.84724 0.12503 0.8514 0.0
C763 C 0.8702 0.11368 0.7778 0.0
C764 C 0.88839 0.11004 0.76363 0.0
C765 C 0.86532 0.12123 0.83721 0.0
C766 C 0.9016 0.11386 0.8101 0.0
C767 C 0.89685 0.12135 0.8692 0.0
H768 H 0.62035 0.13951 0.8241 0.0
H769 H 0.60625 0.09072 0.72318 0.0
H770 H 0.62392 0.10055 0.63054 0.0
H771 H 0.64271 0.12332 0.57724 0.0
H772 H 0.65687 0.17206 0.67849 0.0
H773 H 0.63989 0.16183 0.77211 0.0
C774 C 0.62113 0.131 0.7819 0.0
C775 C 0.61189 0.11443 0.78054 0.0
C776 C 0.63134 0.13671 0.72886 0.0
C777 C 0.61319 0.10354 0.72555 0.0
C778 C 0.62329 0.10916 0.67251 0.0
C779 C 0.64216 0.13169 0.61985 0.0
C780 C 0.65102 0.14848 0.62064 0.0
C781 C 0.63233 0.12576 0.67351 0.0
C782 C 0.65019 0.15909 0.67644 0.0
C783 C 0.64045 0.15327 0.73001 0.0
H784 H 0.61211 0.88126 0.54927 0.0
H785 H 0.65987 0.86586 0.44461 0.0
H786 H 0.64827 0.8808 0.34838 0.0
H787 H 0.62404 0.89738 0.29308 0.0
H788 H 0.57653 0.91293 0.39917 0.0
H789 H 0.58863 0.89885 0.49571 0.0
C790 C 0.62002 0.88118 0.50548 0.0
C791 C 0.63678 0.87234 0.50408 0.0
C792 C 0.61331 0.88983 0.45051 0.0
C793 C 0.64691 0.87254 0.44704 0.0
C794 C 0.64028 0.88106 0.39194 0.0
C795 C 0.61637 0.89777 0.33739 0.0
C796 C 0.59934 0.90614 0.33864 0.0
C797 C 0.62342 0.88962 0.39298 0.0
C798 C 0.58965 0.90658 0.39663 0.0
C799 C 0.59654 0.89849 0.45195 0.0
H800 H 0.64776 0.62723 0.45824 0.0
H801 H 0.65741 0.67698 0.35605 0.0
H802 H 0.64484 0.66391 0.25863 0.0
H803 H 0.63033 0.63886 0.20312 0.0
H804 H 0.62066 0.58888 0.30348 0.0
H805 H 0.6341 0.60155 0.40088 0.0
C806 C 0.64717 0.63519 0.4146 0.0
C807 C 0.65346 0.65311 0.4147 0.0
C808 C 0.6399 0.62758 0.35844 0.0
C809 C 0.65267 0.66318 0.35756 0.0
C810 C 0.64545 0.65573 0.30173 0.0
C811 C 0.63117 0.63068 0.2462 0.0
C812 C 0.62439 0.61298 0.24607 0.0
C813 C 0.63889 0.63802 0.30178 0.0
C814 C 0.62576 0.60255 0.30225 0.0
C815 C 0.63341 0.6098 0.35799 0.0
H816 H 0.62375 0.3902 0.71863 0.0
H817 H 0.5739 0.40293 0.62178 0.0
H818 H 0.58428 0.38721 0.52606 0.0
H819 H 0.60711 0.36945 0.47023 0.0
H820 H 0.65724 0.35681 0.56505 0.0
H821 H 0.64714 0.37294 0.66104 0.0
C822 C 0.61517 0.38957 0.67653 0.0
C823 C 0.59803 0.39772 0.67763 0.0
C824 C 0.62125 0.38051 0.62127 0.0
C825 C 0.58714 0.39681 0.62248 0.0
C826 C 0.59305 0.38779 0.56762 0.0
C827 C 0.61587 0.3702 0.51183 0.0
C828 C 0.63288 0.36184 0.51048 0.0
C829 C 0.61002 0.37952 0.56659 0.0
C830 C 0.64407 0.3631 0.56476 0.0
C831 C 0.63829 0.3723 0.61971 0.0
H832 H 0.86864 0.39861 0.78369 0.0
H833 H 0.91884 0.36987 0.80423 0.0
H834 H 0.90756 0.35494 0.9003 0.0
H835 H 0.88338 0.3493 0.97671 0.0
H836 H 0.83241 0.37658 0.95572 0.0
H837 H 0.84397 0.39272 0.86157 0.0
C838 C 0.87711 0.3892 0.80967 0.0
C839 C 0.89456 0.38538 0.78696 0.0
C840 C 0.87037 0.38029 0.86446 0.0
C841 C 0.90534 0.373 0.82056 0.0
C842 C 0.89891 0.36444 0.87554 0.0
C843 C 0.87477 0.35881 0.95176 0.0
C844 C 0.85707 0.36173 0.97333 0.0
C845 C 0.88141 0.36784 0.89755 0.0
C846 C 0.84608 0.37402 0.94001 0.0
C847 C 0.8527 0.3833 0.88627 0.0
H848 H 0.86591 0.60402 0.24315 0.0
H849 H 0.91833 0.62669 0.20369 0.0
H850 H 0.90624 0.64282 0.11153 0.0
H851 H 0.88103 0.65074 0.04272 0.0
H852 H 0.82812 0.62924 0.08144 0.0
H853 H 0.84009 0.61257 0.17379 0.0
C854 C 0.87466 0.6124 0.214 0.0
C855 C 0.89301 0.6141 0.23008 0.0
C856 C 0.86752 0.62196 0.16139 0.0
C857 C 0.90416 0.62518 0.19244 0.0
C858 C 0.89727 0.63443 0.13972 0.0
C859 C 0.87205 0.64243 0.07128 0.0
C860 C 0.85372 0.6412 0.05509 0.0
C861 C 0.87899 0.63299 0.12397 0.0
C862 C 0.84229 0.63047 0.09302 0.0
C863 C 0.84915 0.62087 0.14563 0.0
H864 H 0.39058 0.37792 0.47476 0.0
H865 H 0.33875 0.37659 0.56869 0.0
H866 H 0.35066 0.39508 0.65625 0.0
H867 H 0.37622 0.4103 0.70832 0.0
H868 H 0.42796 0.41147 0.6134 0.0
H869 H 0.41552 0.39453 0.52346 0.0
C870 C 0.38185 0.38167 0.51434 0.0
C871 C 0.36385 0.37571 0.51557 0.0
C872 C 0.38875 0.39232 0.56417 0.0
C873 C 0.35268 0.38093 0.56675 0.0
C874 C 0.35948 0.39149 0.61679 0.0
C875 C 0.38474 0.40703 0.66768 0.0
C876 C 0.40305 0.41207 0.66791 0.0
C877 C 0.37755 0.39711 0.61629 0.0
C878 C 0.41385 0.40775 0.61468 0.0
C879 C 0.40677 0.39798 0.56328 0.0
H880 H 0.38663 0.62375 0.53478 0.0
H881 H 0.33958 0.63514 0.42001 0.0
H882 H 0.35407 0.62128 0.32657 0.0
H883 H 0.38052 0.60669 0.27712 0.0
H884 H 0.42727 0.59528 0.39377 0.0
H885 H 0.41236 0.60833 0.48701 0.0
C886 C 0.37949 0.62323 0.48937 0.0
C887 C 0.36209 0.6306 0.48428 0.0
C888 C 0.38785 0.61521 0.43622 0.0
C889 C 0.353 0.62961 0.4252 0.0
C890 C 0.36129 0.6217 0.37178 0.0
C891 C 0.38741 0.60697 0.32302 0.0
C892 C 0.40504 0.60006 0.32825 0.0
C893 C 0.37876 0.61455 0.37666 0.0
C894 C 0.41373 0.6005 0.38819 0.0
C895 C 0.40523 0.608 0.4416 0.0
H896 H 0.11672 0.62021 0.02248 0.0
H897 H 0.1701 0.6337 0.08923 0.0
H898 H 0.16442 0.61762 0.18967 0.0
H899 H 0.14399 0.60047 0.25978 0.0
H900 H 0.09065 0.587 0.19243 0.0
H901 H 0.09671 0.60224 0.09088 0.0
C902 C 0.12714 0.61964 0.05891 0.0
C903 C 0.14378 0.62825 0.04838 0.0
C904 C 0.12381 0.61034 0.11649 0.0
C905 C 0.15715 0.62723 0.09604 0.0
C906 C 0.15392 0.61804 0.15355 0.0
C907 C 0.13371 0.60077 0.2228 0.0
C908 C 0.11686 0.59263 0.23398 0.0
C909 C 0.13725 0.60964 0.16446 0.0
C910 C 0.10373 0.59314 0.18531 0.0
C911 C 0.10717 0.6019 0.12718 0.0
H912 H 0.12268 0.38082 0.77534 0.0
H913 H 0.11359 0.43208 0.86748 0.0
H914 H 0.13091 0.4221 0.96083 0.0
H915 H 0.14717 0.39819 0.01857 0.0
H916 H 0.15632 0.34703 0.92554 0.0
H917 H 0.14064 0.35773 0.82994 0.0
C918 C 0.12451 0.38985 0.81577 0.0
C919 C 0.11668 0.40711 0.8147 0.0
C920 C 0.13454 0.38406 0.86908 0.0
C921 C 0.11942 0.41871 0.86712 0.0
C922 C 0.12931 0.413 0.92056 0.0
C923 C 0.14592 0.38944 0.97715 0.0
C924 C 0.15283 0.37178 0.97956 0.0
C925 C 0.13674 0.39562 0.92237 0.0
C926 C 0.15114 0.36067 0.92521 0.0
C927 C 0.14209 0.36674 0.87053 0.0
H928 H 0.16966 0.2771 0.14879 0.0
H929 H 0.13146 0.28423 0.99454 0.0
H930 H 0.1302 0.25163 0.97874 0.0
H931 H 0.14086 0.22115 0.00614 0.0
H932 H 0.17924 0.2144 0.16017 0.0
H933 H 0.17943 0.2468 0.17856 0.0
C934 C 0.16099 0.27155 0.11182 0.0
C935 C 0.15075 0.28312 0.0727 0.0
C936 C 0.16039 0.25284 0.10279 0.0
C937 C 0.13952 0.27566 0.02529 0.0
C938 C 0.13881 0.257 0.01613 0.0
C939 C 0.1492 0.22675 0.04393 0.0
C940 C 0.16008 0.21533 0.08143 0.0
C941 C 0.14933 0.24547 0.0542 0.0
C942 C 0.17077 0.22284 0.13034 0.0
C943 C 0.17091 0.2414 0.14095 0.0
H944 H 0.96766 0.87841 0.33317 0.0
H945 H 0.96616 0.93552 0.37224 0.0
H946 H 0.99897 0.93648 0.37446 0.0
H947 H 0.0281 0.9212 0.36603 0.0
H948 H 0.02984 0.86409 0.3275 0.0
H949 H 0.99695 0.86309 0.3243 0.0
C950 C 0.9745 0.89107 0.34212 0.0
C951 C 0.96441 0.90686 0.35253 0.0
C952 C 0.99344 0.89156 0.34346 0.0
C953 C 0.97354 0.92315 0.36407 0.0
C954 C 0.99233 0.92373 0.36537 0.0
C955 C 0.02132 0.90852 0.35686 0.0
C956 C 0.03146 0.89275 0.34707 0.0
C957 C 0.00241 0.90802 0.35522 0.0
C958 C 0.02239 0.87645 0.33525 0.0
C959 C 0.00357 0.87586 0.33342 0.0
H960 H 0.33007 0.77319 0.6514 0.0
H961 H 0.37558 0.77816 0.52352 0.0
H962 H 0.37764 0.74535 0.51594 0.0
H963 H 0.366 0.71522 0.54383 0.0
H964 H 0.3205 0.71073 0.6723 0.0
H965 H 0.31904 0.74337 0.68139 0.0
C966 C 0.34048 0.76714 0.62188 0.0
C967 C 0.3526 0.77815 0.58786 0.0
C968 C 0.34158 0.74832 0.61776 0.0
C969 C 0.36604 0.77002 0.55015 0.0
C970 C 0.36723 0.75125 0.54574 0.0
C971 C 0.3558 0.72138 0.57397 0.0
C972 C 0.34335 0.71049 0.60708 0.0
C973 C 0.35499 0.74026 0.57906 0.0
C974 C 0.33026 0.71873 0.64612 0.0
C975 C 0.32938 0.73743 0.65137 0.0
H976 H 0.46183 0.11547 0.82101 0.0
H977 H 0.45878 0.06143 0.89742 0.0
H978 H 0.49137 0.06073 0.90982 0.0
H979 H 0.52068 0.07538 0.90029 0.0
H980 H 0.52418 0.12953 0.82549 0.0
H981 H 0.49149 0.13021 0.81113 0.0
C982 C 0.4683 0.10353 0.84025 0.0
C983 C 0.45782 0.08854 0.85822 0.0
C984 C 0.48714 0.10322 0.84762 0.0
C985 C 0.46646 0.07319 0.88324 0.0
C986 C 0.48513 0.07276 0.89036 0.0
C987 C 0.51434 0.08734 0.88066 0.0
C988 C 0.5249 0.10237 0.86397 0.0
C989 C 0.49558 0.08769 0.87287 0.0
C990 C 0.5164 0.11776 0.83878 0.0
C991 C 0.49769 0.11817 0.83056 0.0
H992 H 0.17195 0.77753 0.90484 0.0
H993 H 0.11513 0.78274 0.86493 0.0
H994 H 0.11163 0.75004 0.87096 0.0
H995 H 0.12499 0.71988 0.88323 0.0
H996 H 0.18185 0.715 0.92371 0.0
H997 H 0.18496 0.74766 0.92214 0.0
C998 C 0.15877 0.77154 0.89764 0.0
C999 C 0.14385 0.78257 0.88402 0.0
C1000 C 0.15685 0.75277 0.90122 0.0
C1001 C 0.12685 0.77457 0.87539 0.0
C1002 C 0.12484 0.75586 0.87872 0.0
C1003 C 0.13804 0.72596 0.89212 0.0
C1004 C 0.15316 0.71496 0.90318 0.0
C1005 C 0.13978 0.74481 0.89099 0.0
C1006 C 0.16996 0.7231 0.91489 0.0
C1007 C 0.17179 0.7418 0.91389 0.0
H1008 H 0.47252 0.87408 0.1908 0.0
H1009 H 0.46538 0.92527 0.09537 0.0
H1010 H 0.49784 0.9299 0.09415 0.0
H1011 H 0.52821 0.91977 0.12108 0.0
H1012 H 0.53576 0.86889 0.21794 0.0
H1013 H 0.50321 0.86382 0.21756 0.0
C1014 C 0.47807 0.88622 0.16958 0.0
C1015 C 0.46648 0.89929 0.14325 0.0
C1016 C 0.49683 0.88889 0.16931 0.0
C1017 C 0.47393 0.91498 0.11612 0.0
C1018 C 0.49253 0.91766 0.11533 0.0
C1019 C 0.52278 0.90753 0.14196 0.0
C1020 C 0.53444 0.89473 0.16944 0.0
C1021 C 0.50409 0.90475 0.14194 0.0
C1022 C 0.52711 0.87899 0.19649 0.0
C1023 C 0.50849 0.87607 0.19629 0.0
H1024 H 0.34055 0.22693 0.42455 0.0
H1025 H 0.35112 0.22198 0.22131 0.0
H1026 H 0.3508 0.25459 0.20999 0.0
H1027 H 0.34646 0.28446 0.25625 0.0
H1028 H 0.33591 0.28998 0.4591 0.0
H1029 H 0.33737 0.25724 0.47201 0.0
C1030 C 0.34288 0.233 0.37788 0.0
C1031 C 0.34576 0.22197 0.32386 0.0
C1032 C 0.34263 0.25187 0.37149 0.0
C1033 C 0.34881 0.23008 0.26375 0.0
C1034 C 0.34862 0.24877 0.25711 0.0
C1035 C 0.34452 0.27854 0.30339 0.0
C1036 C 0.34098 0.28966 0.35651 0.0
C1037 C 0.34536 0.25977 0.31044 0.0
C1038 C 0.33864 0.28173 0.41732 0.0
C1039 C 0.33944 0.26301 0.42474 0.0
H1040 H 0.97727 0.08722 0.62968 0.0
H1041 H 0.97357 0.13435 0.50885 0.0
H1042 H 0.00638 0.13508 0.49869 0.0
H1043 H 0.03605 0.1215 0.52052 0.0
H1044 H 0.03936 0.07441 0.642 0.0
H1045 H 0.00678 0.07461 0.65566 0.0
C1046 C 0.98362 0.0977 0.60123 0.0
C1047 C 0.97296 0.11063 0.5697 0.0
C1048 C 0.00244 0.09804 0.59563 0.0
C1049 C 0.98144 0.12421 0.53357 0.0
C1050 C 0.00021 0.12462 0.52763 0.0
C1051 C 0.02966 0.11135 0.55032 0.0
C1052 C 0.04017 0.09791 0.57982 0.0
C1053 C 0.01084 0.11148 0.55793 0.0
C1054 C 0.03164 0.08491 0.61852 0.0
C1055 C 0.01298 0.08497 0.62632 0.0
H1056 H 0.87073 0.72243 0.88254 0.0
H1057 H 0.81293 0.72026 0.90524 0.0
H1058 H 0.81136 0.75302 0.90012 0.0
H1059 H 0.82618 0.78224 0.88712 0.0
H1060 H 0.88391 0.78467 0.86349 0.0
H1061 H 0.88567 0.75187 0.87121 0.0
C1062 C 0.85779 0.72911 0.88659 0.0
C1063 C 0.84198 0.71884 0.89417 0.0
C1064 C 0.85694 0.74802 0.88334 0.0
C1065 C 0.82533 0.72778 0.8993 0.0
C1066 C 0.8244 0.74654 0.89635 0.0
C1067 C 0.83918 0.77563 0.8838 0.0
C1068 C 0.85488 0.78594 0.87459 0.0
C1069 C 0.84009 0.75678 0.88804 0.0
C1070 C 0.87159 0.7771 0.87049 0.0
C1071 C 0.87262 0.75832 0.87487 0.0
H1072 H 0.62765 0.21652 0.46119 0.0
H1073 H 0.68065 0.21107 0.37772 0.0
H1074 H 0.68207 0.24347 0.36009 0.0
H1075 H 0.66856 0.27339 0.36918 0.0
H1076 H 0.61559 0.27919 0.45228 0.0
H1077 H 0.6139 0.24665 0.46898 0.0
C1078 C 0.6395 0.22241 0.43909 0.0
C1079 C 0.65402 0.21133 0.42098 0.0
C1080 C 0.64026 0.24114 0.42896 0.0
C1081 C 0.66926 0.21923 0.39225 0.0
C1082 C 0.67011 0.23779 0.38211 0.0
C1083 C 0.65661 0.26757 0.39089 0.0
C1084 C 0.64225 0.27876 0.40954 0.0
C1085 C 0.65573 0.24887 0.40041 0.0
C1086 C 0.62687 0.27093 0.43747 0.0
C1087 C 0.62588 0.2523 0.4471 0.0
H1088 H 0.82422 0.27958 0.09074 0.0
H1089 H 0.87703 0.28513 0.17524 0.0
H1090 H 0.88097 0.25249 0.17276 0.0
H1091 H 0.86892 0.22226 0.15077 0.0
H1092 H 0.8158 0.21685 0.06849 0.0
H1093 H 0.81257 0.24952 0.06575 0.0
C1094 C 0.83664 0.27369 0.10828 0.0
C1095 C 0.85026 0.28482 0.13336 0.0
C1096 C 0.83877 0.25489 0.1073 0.0
C1097 C 0.86628 0.2769 0.15588 0.0
C1098 C 0.86856 0.25822 0.15451 0.0
C1099 C 0.85669 0.22822 0.1318 0.0
C1100 C 0.84262 0.21708 0.11012 0.0
C1101 C 0.85482 0.24706 0.13095 0.0
C1102 C 0.82684 0.22507 0.0858 0.0
C1103 C 0.82496 0.24377 0.08419 0.0
H1104 H 0.62702 0.72649 0.65251 0.0
H1105 H 0.68109 0.72215 0.57747 0.0
H1106 H 0.68402 0.75485 0.57798 0.0
H1107 H 0.67171 0.78463 0.60298 0.0
H1108 H 0.61773 0.78918 0.6785 0.0
H1109 H 0.61431 0.75648 0.67427 0.0
C1110 C 0.63941 0.73269 0.63596 0.0
C1111 C 0.65383 0.72183 0.61527 0.0
C1112 C 0.64107 0.75156 0.6366 0.0
C1113 C 0.66978 0.73013 0.59386 0.0
C1114 C 0.67149 0.74886 0.59416 0.0
C1115 C 0.65916 0.7785 0.61832 0.0
C1116 C 0.64504 0.78937 0.64128 0.0
C1117 C 0.65729 0.75969 0.61597 0.0
C1118 C 0.62885 0.78116 0.66071 0.0
C1119 C 0.62688 0.76244 0.65838 0.0
H1120 H 0.5259 0.37905 0.84886 0.0
H1121 H 0.53449 0.43604 0.87767 0.0
H1122 H 0.50209 0.44107 0.87931 0.0
H1123 H 0.47135 0.42951 0.87225 0.0
H1124 H 0.46232 0.37265 0.84322 0.0
H1125 H 0.49484 0.3674 0.8421 0.0
C1126 C 0.52068 0.39257 0.85551 0.0
C1127 C 0.53267 0.40712 0.86312 0.0
C1128 C 0.50195 0.39542 0.85641 0.0
C1129 C 0.52564 0.42456 0.87171 0.0
C1130 C 0.50708 0.42748 0.87266 0.0
C1131 C 0.47645 0.41595 0.86574 0.0
C1132 C 0.46437 0.40151 0.85783 0.0
C1133 C 0.49512 0.41303 0.86503 0.0
C1134 C 0.47128 0.38403 0.84944 0.0
C1135 C 0.48989 0.38101 0.84876 0.0
H1136 H 0.97497 0.59414 0.48332 0.0
H1137 H 0.95841 0.57246 0.30022 0.0
H1138 H 0.98979 0.56724 0.27118 0.0
H1139 H 0.02188 0.56794 0.29881 0.0
H1140 H 0.03853 0.58958 0.48183 0.0
H1141 H 0.00719 0.59575 0.50954 0.0
C1142 C 0.97822 0.58833 0.43697 0.0
C1143 C 0.96433 0.58364 0.39421 0.0
C1144 C 0.99632 0.58531 0.4205 0.0
C1145 C 0.96881 0.57618 0.33421 0.0
C1146 C 0.98677 0.57316 0.3175 0.0
C1147 C 0.01868 0.57407 0.34467 0.0
C1148 C 0.03255 0.5782 0.38822 0.0
C1149 C 0.00062 0.57754 0.36045 0.0
C1150 C 0.02813 0.58621 0.44737 0.0
C1151 C 0.0102 0.58973 0.46335 0.0
H1152 H 0.96834 0.42641 0.75738 0.0
H1153 H 0.9635 0.39631 0.58089 0.0
H1154 H 0.99601 0.3914 0.57949 0.0
H1155 H 0.02595 0.39688 0.62548 0.0
H1156 H 0.03083 0.42747 0.80088 0.0
H1157 H 0.99815 0.4308 0.80577 0.0
C1158 C 0.97436 0.4187 0.71872 0.0
C1159 C 0.96348 0.41184 0.66913 0.0
C1160 C 0.99309 0.41601 0.71797 0.0
C1161 C 0.97154 0.40181 0.61958 0.0
C1162 C 0.99015 0.39899 0.61871 0.0
C1163 C 0.01988 0.40412 0.66516 0.0
C1164 C 0.03086 0.41196 0.71261 0.0
C1165 C 0.00108 0.40619 0.66727 0.0
C1166 C 0.02272 0.42134 0.76358 0.0
C1167 C 0.00402 0.42329 0.76637 0.0
H1168 H 0.4795 0.57839 0.14077 0.0
H1169 H 0.47642 0.63579 0.17221 0.0
H1170 H 0.50928 0.63784 0.16908 0.0
H1171 H 0.53886 0.62342 0.15394 0.0
H1172 H 0.54152 0.56606 0.12062 0.0
H1173 H 0.50885 0.56397 0.12803 0.0
C1174 C 0.48599 0.59136 0.14732 0.0
C1175 C 0.47549 0.60691 0.15658 0.0
C1176 C 0.50483 0.59247 0.14487 0.0
C1177 C 0.48416 0.62359 0.16489 0.0
C1178 C 0.50296 0.62479 0.16303 0.0
C1179 C 0.5323 0.61046 0.14855 0.0
C1180 C 0.54267 0.59494 0.13656 0.0
C1181 C 0.51343 0.60933 0.15248 0.0
C1182 C 0.53392 0.57824 0.12969 0.0
C1183 C 0.51521 0.57701 0.13393 0.0
H1184 H 0.16223 0.12328 0.24622 0.0
H1185 H 0.11328 0.15429 0.22878 0.0
H1186 H 0.10075 0.13892 0.32257 0.0
H1187 H 0.10381 0.11678 0.40991 0.0
H1188 H 0.15294 0.08598 0.42668 0.0
H1189 H 0.16528 0.10127 0.33287 0.0
C1190 C 0.14878 0.12665 0.26268 0.0
C1191 C 0.13871 0.13991 0.2304 0.0
C1192 C 0.14172 0.11787 0.31674 0.0
C1193 C 0.12133 0.14414 0.25266 0.0
C1194 C 0.11416 0.13537 0.30637 0.0
C1195 C 0.11724 0.11345 0.39317 0.0
C1196 C 0.12743 0.10026 0.4254 0.0
C1197 C 0.12427 0.12226 0.33892 0.0
C1198 C 0.14479 0.09607 0.40289 0.0
C1199 C 0.15187 0.10479 0.34914 0.0
H1200 H 0.10783 0.86543 0.49038 0.0
H1201 H 0.09689 0.90965 0.61927 0.0
H1202 H 0.11197 0.89366 0.70632 0.0
H1203 H 0.12932 0.86777 0.74472 0.0
H1204 H 0.13989 0.82323 0.61704 0.0
H1205 H 0.12381 0.8387 0.53065 0.0
C1206 C 0.10867 0.87154 0.53759 0.0
C1207 C 0.10136 0.88877 0.54814 0.0
C1208 C 0.11734 0.86225 0.58756 0.0
C1209 C 0.10242 0.89641 0.60975 0.0
C1210 C 0.11109 0.8873 0.65958 0.0
C1211 C 0.12809 0.86142 0.69801 0.0
C1212 C 0.13593 0.84446 0.68711 0.0
C1213 C 0.11878 0.87033 0.6488 0.0
C1214 C 0.134 0.8363 0.62663 0.0
C1215 C 0.12485 0.84516 0.57718 0.0
H1216 H 0.38084 0.86799 0.01179 0.0
H1217 H 0.41152 0.89738 0.86992 0.0
H1218 H 0.3962 0.88109 0.78411 0.0
H1219 H 0.37309 0.85971 0.74935 0.0
H1220 H 0.34214 0.83047 0.89081 0.0
H1221 H 0.35868 0.8455 0.97692 0.0
C1222 C 0.38428 0.87076 0.96212 0.0
C1223 C 0.39723 0.88398 0.94732 0.0
C1224 C 0.37532 0.86145 0.91298 0.0
C1225 C 0.40157 0.88732 0.8827 0.0
C1226 C 0.39279 0.87804 0.83356 0.0
C1227 C 0.36999 0.85655 0.799 0.0
C1228 C 0.3563 0.84409 0.81361 0.0
C1229 C 0.37947 0.86527 0.84816 0.0
C1230 C 0.35257 0.84005 0.87821 0.0
C1231 C 0.362 0.84866 0.92749 0.0
H1232 H 0.40557 0.12326 0.06377 0.0
H1233 H 0.36609 0.08145 0.0324 0.0
H1234 H 0.34923 0.09143 0.12619 0.0
H1235 H 0.34537 0.11224 0.21614 0.0
H1236 H 0.38404 0.15485 0.2458 0.0
H1237 H 0.40157 0.14429 0.15392 0.0
C1238 C 0.3933 0.11633 0.07756 0.0
C1239 C 0.3871 0.10166 0.0411 0.0
C1240 C 0.38353 0.12225 0.13131 0.0
C1241 C 0.37112 0.09285 0.0594 0.0
C1242 C 0.36148 0.09851 0.11317 0.0
C1243 C 0.3577 0.11914 0.2028 0.0
C1244 C 0.36343 0.13424 0.23781 0.0
C1245 C 0.36753 0.1132 0.14936 0.0
C1246 C 0.37933 0.14317 0.21951 0.0
C1247 C 0.38936 0.13716 0.16698 0.0
H1248 H 0.87416 0.88533 0.47732 0.0
H1249 H 0.91957 0.89372 0.60331 0.0
H1250 H 0.90407 0.87748 0.68906 0.0
H1251 H 0.87717 0.86192 0.72954 0.0
H1252 H 0.83187 0.85334 0.60312 0.0
H1253 H 0.84786 0.86855 0.51619 0.0
C1254 C 0.88071 0.88357 0.52346 0.0
C1255 C 0.89796 0.89085 0.53397 0.0
C1256 C 0.87173 0.8742 0.57253 0.0
C1257 C 0.90629 0.88829 0.59389 0.0
C1258 C 0.89742 0.87902 0.64304 0.0
C1259 C 0.87081 0.8633 0.6829 0.0
C1260 C 0.85329 0.85659 0.67304 0.0
C1261 C 0.88007 0.87208 0.63308 0.0
C1262 C 0.84533 0.85839 0.61214 0.0
C1263 C 0.85444 0.86713 0.56238 0.0
H1264 H 0.87228 0.13365 0.22558 0.0
H1265 H 0.84699 0.16752 0.36789 0.0
H1266 H 0.86484 0.15324 0.45225 0.0
H1267 H 0.88681 0.13041 0.48609 0.0
H1268 H 0.91236 0.09683 0.34348 0.0
H1269 H 0.89522 0.11177 0.25879 0.0
C1270 C 0.87071 0.13797 0.27502 0.0
C1271 C 0.85823 0.15156 0.29041 0.0
C1272 C 0.88101 0.12971 0.32329 0.0
C1273 C 0.85648 0.15709 0.35466 0.0
C1274 C 0.86665 0.14889 0.403 0.0
C1275 C 0.88866 0.12638 0.43647 0.0
C1276 C 0.90077 0.11244 0.42122 0.0
C1277 C 0.87882 0.13507 0.38794 0.0
C1278 C 0.90312 0.1075 0.35661 0.0
C1279 C 0.89331 0.11602 0.30811 0.0
H1280 H 0.6142 0.15288 0.24536 0.0
H1281 H 0.65742 0.11517 0.28044 0.0
H1282 H 0.64746 0.0968 0.19053 0.0
H1283 H 0.62695 0.09159 0.10091 0.0
H1284 H 0.58346 0.12885 0.06513 0.0
H1285 H 0.59306 0.1472 0.15642 0.0
C1286 C 0.6214 0.14062 0.23343 0.0
C1287 C 0.63656 0.13547 0.26958 0.0
C1288 C 0.61559 0.13003 0.18148 0.0
C1289 C 0.64571 0.1195 0.25354 0.0
C1290 C 0.64004 0.10896 0.20201 0.0
C1291 C 0.61955 0.10373 0.11299 0.0
C1292 C 0.60457 0.10888 0.07612 0.0
C1293 C 0.62508 0.11414 0.16548 0.0
C1294 C 0.59506 0.12458 0.09277 0.0
C1295 C 0.60054 0.13509 0.14492 0.0
H1296 H 0.6325 0.84994 0.81782 0.0
H1297 H 0.65743 0.90193 0.78979 0.0
H1298 H 0.64171 0.91363 0.88378 0.0
H1299 H 0.62095 0.90916 0.9738 0.0
H1300 H 0.59608 0.85718 0.00256 0.0
H1301 H 0.61176 0.84544 0.90835 0.0
C1302 C 0.63449 0.86383 0.8322 0.0
C1303 C 0.64612 0.87503 0.79673 0.0
C1304 C 0.62544 0.87049 0.88645 0.0
C1305 C 0.64856 0.893 0.81616 0.0
C1306 C 0.63957 0.89972 0.86995 0.0
C1307 C 0.61894 0.89526 0.95956 0.0
C1308 C 0.60734 0.88408 0.99526 0.0
C1309 C 0.628 0.88858 0.90543 0.0
C1310 C 0.60493 0.86609 0.97604 0.0
C1311 C 0.61389 0.85936 0.92212 0.0
H1312 H 0.62725 0.6227 0.9909 0.0
H1313 H 0.5817 0.61229 0.86772 0.0
H1314 H 0.59615 0.62912 0.78075 0.0
H1315 H 0.62254 0.6453 0.7381 0.0
H1316 H 0.66771 0.65613 0.86289 0.0
H1317 H 0.65251 0.64071 0.951 0.0
C1318 C 0.62045 0.62417 0.94508 0.0
C1319 C 0.60354 0.6161 0.93545 0.0
C1320 C 0.62878 0.6339 0.89559 0.0
C1321 C 0.59475 0.61836 0.87625 0.0
C1322 C 0.60303 0.62793 0.82647 0.0
C1323 C 0.62901 0.64438 0.78469 0.0
C1324 C 0.64631 0.65169 0.7937 0.0
C1325 C 0.62017 0.63552 0.83533 0.0
C1326 C 0.65442 0.65058 0.85456 0.0
C1327 C 0.64577 0.64172 0.90498 0.0
H1328 H 0.63153 0.34045 0.18045 0.0
H1329 H 0.64295 0.39377 0.2526 0.0
H1330 H 0.62885 0.4071 0.15817 0.0
H1331 H 0.61411 0.40372 0.05414 0.0
H1332 H 0.60326 0.35058 0.97944 0.0
H1333 H 0.6163 0.33708 0.07602 0.0
C1334 C 0.63082 0.35499 0.17568 0.0
C1335 C 0.6383 0.36609 0.22349 0.0
C1336 C 0.62287 0.3626 0.12076 0.0
C1337 C 0.63737 0.3849 0.21643 0.0
C1338 C 0.6293 0.39255 0.16244 0.0
C1339 C 0.61452 0.38917 0.05892 0.0
C1340 C 0.60774 0.37818 0.00953 0.0
C1341 C 0.62215 0.38153 0.11413 0.0
C1342 C 0.60842 0.35936 0.01664 0.0
C1343 C 0.61587 0.35163 0.07187 0.0
H1344 H 0.8739 0.40409 0.4567 0.0
H1345 H 0.90647 0.35593 0.46167 0.0
H1346 H 0.89062 0.34432 0.36739 0.0
H1347 H 0.86744 0.34788 0.28399 0.0
H1348 H 0.83533 0.39637 0.27894 0.0
H1349 H 0.8512 0.40785 0.37291 0.0
C1350 C 0.87752 0.39101 0.43741 0.0
C1351 C 0.8913 0.38085 0.46641 0.0
C1352 C 0.86849 0.38451 0.38309 0.0
C1353 C 0.89591 0.36401 0.44033 0.0
C1354 C 0.88686 0.35737 0.38642 0.0
C1355 C 0.86393 0.36097 0.30336 0.0
C1356 C 0.85018 0.37123 0.2745 0.0
C1357 C 0.87313 0.36752 0.35743 0.0
C1358 C 0.84585 0.38819 0.30012 0.0
C1359 C 0.85489 0.39476 0.35396 0.0
H1360 H 0.86482 0.66339 0.66808 0.0
H1361 H 0.8611 0.62268 0.8158 0.0
H1362 H 0.87732 0.60147 0.74793 0.0
H1363 H 0.89066 0.59375 0.64414 0.0
H1364 H 0.89373 0.63405 0.49491 0.0
H1365 H 0.87986 0.65615 0.56615 0.0
C1366 C 0.86771 0.64994 0.68565 0.0
C1367 C 0.86159 0.64461 0.74665 0.0
C1368 C 0.87688 0.63769 0.64605 0.0
C1369 C 0.86549 0.62712 0.76875 0.0
C1370 C 0.87479 0.61495 0.73001 0.0
C1371 C 0.88848 0.60741 0.62736 0.0
C1372 C 0.89309 0.61217 0.56415 0.0
C1373 C 0.88025 0.61998 0.66816 0.0
C1374 C 0.8902 0.62997 0.54327 0.0
C1375 C 0.88224 0.64263 0.58393 0.0
H1376 H 0.3407 0.36786 0.12663 0.0
H1377 H 0.38178 0.36451 0.27292 0.0
H1378 H 0.40346 0.37864 0.2007 0.0
H1379 H 0.41043 0.39319 0.09767 0.0
H1380 H 0.36916 0.39672 0.95203 0.0
H1381 H 0.34798 0.38124 0.02233 0.0
C1382 C 0.35441 0.37011 0.14263 0.0
C1383 C 0.35954 0.36522 0.20518 0.0
C1384 C 0.36681 0.37835 0.10107 0.0
C1385 C 0.37742 0.36819 0.22503 0.0
C1386 C 0.38985 0.3763 0.18381 0.0
C1387 C 0.39684 0.39049 0.08118 0.0
C1388 C 0.3914 0.39621 0.01983 0.0
C1389 C 0.38464 0.38164 0.12198 0.0
C1390 C 0.37373 0.39254 0.99915 0.0
C1391 C 0.36156 0.38369 0.03931 0.0
H1392 H 0.37125 0.59388 0.95712 0.0
H1393 H 0.41177 0.63395 0.9981 0.0
H1394 H 0.40125 0.65215 0.9076 0.0
H1395 H 0.38044 0.6566 0.81676 0.0
H1396 H 0.34052 0.61585 0.7756 0.0
H1397 H 0.35098 0.598 0.8662 0.0
C1398 C 0.37776 0.60662 0.94647 0.0
C1399 C 0.3922 0.61259 0.9844 0.0
C1400 C 0.37179 0.61688 0.89419 0.0
C1401 C 0.4006 0.62905 0.96957 0.0
C1402 C 0.3946 0.63947 0.91787 0.0
C1403 C 0.37405 0.64382 0.82763 0.0
C1404 C 0.35972 0.63761 0.78946 0.0
C1405 C 0.38019 0.6335 0.8798 0.0
C1406 C 0.35162 0.62096 0.80402 0.0
C1407 C 0.35755 0.61073 0.85596 0.0
H1408 H 0.15511 0.6071 0.72377 0.0
H1409 H 0.12021 0.65279 0.75445 0.0
H1410 H 0.10209 0.64408 0.66152 0.0
H1411 H 0.09624 0.62349 0.57151 0.0
H1412 H 0.13158 0.57808 0.54076 0.0
H1413 H 0.14951 0.5868 0.63364 0.0
C1414 C 0.14349 0.61512 0.71039 0.0
C1415 C 0.13898 0.63052 0.74611 0.0
C1416 C 0.13327 0.61015 0.65668 0.0
C1417 C 0.12396 0.64085 0.72776 0.0
C1418 C 0.11361 0.6359 0.67459 0.0
C1419 C 0.1079 0.61553 0.58498 0.0
C1420 C 0.11253 0.60015 0.54921 0.0
C1421 C 0.11817 0.6206 0.6386 0.0
C1422 C 0.12769 0.58999 0.56737 0.0
C1423 C 0.13795 0.59494 0.6206 0.0
H1424 H 0.13243 0.33093 0.35817 0.0
H1425 H 0.12627 0.37098 0.20935 0.0
H1426 H 0.10822 0.38957 0.28128 0.0
H1427 H 0.09591 0.39541 0.38817 0.0
H1428 H 0.1033 0.35622 0.53916 0.0
H1429 H 0.11902 0.3363 0.46451 0.0
C1430 C 0.12696 0.34363 0.34131 0.0
C1431 C 0.13074 0.3496 0.27866 0.0
C1432 C 0.11689 0.35446 0.38337 0.0
C1433 C 0.12366 0.36614 0.25756 0.0
C1434 C 0.11333 0.37678 0.29862 0.0
C1435 C 0.10078 0.38243 0.40465 0.0
C1436 C 0.0985 0.37735 0.46916 0.0
C1437 C 0.11012 0.37122 0.36192 0.0
C1438 C 0.10496 0.3605 0.48976 0.0
C1439 C 0.11397 0.3491 0.44714 0.0
loop_
_geom_bond_atom_site_label_1
_geom_bond_atom_site_label_2
_geom_bond_distance
_geom_bond_site_symmetry_2
_ccdc_geom_bond_type
C0 O1 1.160 . S
C0 O7 1.185 . S
O1 C0 1.160 . S
O2 Zn3 1.899 . S
O2 C10 1.284 . S
Zn3 O2 1.899 . S
Zn3 O4 2.032 . S
Zn3 O7 2.086 . S
Zn3 O12 1.977 . S
O4 Zn3 2.032 . S
O4 C8 1.278 . S
C5 O6 1.203 . S
C5 O12 1.267 . S
O6 C5 1.203 . S
O7 C0 1.185 . S
O7 Zn3 2.086 . S
C8 O4 1.278 . S
C8 O9 1.211 . S
O9 C8 1.211 . S
C10 O2 1.284 . S
C10 O11 1.273 . S
O11 C10 1.273 . S
O12 Zn3 1.977 . S
O12 C5 1.267 . S
C13 O14 1.160 . S
C13 O20 1.185 . S
O14 C13 1.160 . S
O15 Zn16 1.899 . S
O15 C23 1.284 . S
Zn16 O15 1.899 . S
Zn16 O17 2.032 . S
Zn16 O20 2.086 . S
Zn16 O25 1.977 . S
O17 Zn16 2.032 . S
O17 C21 1.278 . S
C18 O19 1.203 . S
C18 O25 1.267 . S
O19 C18 1.203 . S
O20 C13 1.185 . S
O20 Zn16 2.086 . S
C21 O17 1.278 . S
C21 O22 1.211 . S
O22 C21 1.211 . S
C23 O15 1.284 . S
C23 O24 1.273 . S
O24 C23 1.273 . S
O25 Zn16 1.977 . S
O25 C18 1.267 . S
C26 O27 1.160 . S
C26 O33 1.185 . S
O27 C26 1.160 . S
O28 Zn29 1.899 . S
O28 C36 1.284 . S
Zn29 O28 1.899 . S
Zn29 O30 2.032 . S
Zn29 O33 2.086 . S
Zn29 O38 1.977 . S
O30 Zn29 2.032 . S
O30 C34 1.278 . S
C31 O32 1.203 . S
C31 O38 1.267 . S
O32 C31 1.203 . S
O33 C26 1.185 . S
O33 Zn29 2.086 . S
C34 O30 1.278 . S
C34 O35 1.211 . S
O35 C34 1.211 . S
C36 O28 1.284 . S
C36 O37 1.273 . S
O37 C36 1.273 . S
O38 Zn29 1.977 . S
O38 C31 1.267 . S
C39 O40 1.160 . S
C39 O46 1.185 . S
O40 C39 1.160 . S
O41 Zn42 1.899 . S
O41 C49 1.284 . S
Zn42 O41 1.899 . S
Zn42 O43 2.032 . S
Zn42 O46 2.086 . S
Zn42 O51 1.977 . S
O43 Zn42 2.032 . S
O43 C47 1.278 1_556 S
C44 O45 1.203 . S
C44 O51 1.267 . S
O45 C44 1.203 . S
O46 C39 1.185 . S
O46 Zn42 2.086 . S
C47 O43 1.278 1_554 S
C47 O48 1.211 . S
O48 C47 1.211 . S
C49 O41 1.284 . S
C49 O50 1.273 . S
O50 C49 1.273 . S
O51 Zn42 1.977 . S
O51 C44 1.267 . S
C52 O53 1.160 . S
C52 O59 1.185 . S
O53 C52 1.160 . S
O54 Zn55 1.899 . S
O54 C62 1.284 . S
Zn55 O54 1.899 . S
Zn55 O56 2.032 . S
Zn55 O59 2.086 . S
Zn55 O64 1.977 . S
O56 Zn55 2.032 . S
O56 C60 1.278 . S
C57 O58 1.203 . S
C57 O64 1.267 . S
O58 C57 1.203 . S
O59 C52 1.185 . S
O59 Zn55 2.086 . S
C60 O56 1.278 . S
C60 O61 1.211 . S
O61 C60 1.211 . S
C62 O54 1.284 . S
C62 O63 1.273 . S
O63 C62 1.273 . S
O64 Zn55 1.977 . S
O64 C57 1.267 . S
C65 O66 1.160 . S
C65 O72 1.185 . S
O66 C65 1.160 . S
O67 Zn68 1.899 . S
O67 C75 1.284 . S
Zn68 O67 1.899 . S
Zn68 O69 2.032 . S
Zn68 O72 2.086 . S
Zn68 O77 1.977 . S
O69 Zn68 2.032 . S
O69 C73 1.278 1_554 S
C70 O71 1.203 . S
C70 O77 1.267 . S
O71 C70 1.203 . S
O72 C65 1.185 . S
O72 Zn68 2.086 . S
C73 O69 1.278 1_556 S
C73 O74 1.211 . S
O74 C73 1.211 . S
C75 O67 1.284 . S
C75 O76 1.273 . S
O76 C75 1.273 . S
O77 Zn68 1.977 . S
O77 C70 1.267 . S
C78 O79 1.160 . S
C78 O85 1.185 . S
O79 C78 1.160 . S
O80 Zn81 1.899 . S
O80 C88 1.284 . S
Zn81 O80 1.899 . S
Zn81 O82 2.032 . S
Zn81 O85 2.086 . S
Zn81 O90 1.977 . S
O82 Zn81 2.032 . S
O82 C86 1.278 . S
C83 O84 1.203 . S
C83 O90 1.267 . S
O84 C83 1.203 . S
O85 C78 1.185 . S
O85 Zn81 2.086 . S
C86 O82 1.278 . S
C86 O87 1.211 . S
O87 C86 1.211 . S
C88 O80 1.284 . S
C88 O89 1.273 . S
O89 C88 1.273 . S
O90 Zn81 1.977 . S
O90 C83 1.267 . S
C91 O92 1.160 . S
C91 O98 1.185 . S
O92 C91 1.160 . S
O93 Zn94 1.899 . S
O93 C101 1.284 . S
Zn94 O93 1.899 . S
Zn94 O95 2.032 . S
Zn94 O98 2.086 . S
Zn94 O103 1.977 . S
O95 Zn94 2.032 . S
O95 C99 1.278 . S
C96 O97 1.203 . S
C96 O103 1.267 . S
O97 C96 1.203 . S
O98 C91 1.185 . S
O98 Zn94 2.086 . S
C99 O95 1.278 . S
C99 O100 1.211 . S
O100 C99 1.211 . S
C101 O93 1.284 . S
C101 O102 1.273 . S
O102 C101 1.273 . S
O103 Zn94 1.977 . S
O103 C96 1.267 . S
C104 O105 1.160 . S
C104 O111 1.185 . S
O105 C104 1.160 . S
O106 Zn107 1.899 . S
O106 C114 1.284 . S
Zn107 O106 1.899 . S
Zn107 O108 2.032 . S
Zn107 O111 2.086 . S
Zn107 O116 1.977 . S
O108 Zn107 2.032 . S
O108 C112 1.278 . S
C109 O110 1.203 . S
C109 O116 1.267 . S
O110 C109 1.203 . S
O111 C104 1.185 . S
O111 Zn107 2.086 . S
C112 O108 1.278 . S
C112 O113 1.211 . S
O113 C112 1.211 . S
C114 O106 1.284 . S
C114 O115 1.273 . S
O115 C114 1.273 . S
O116 Zn107 1.977 . S
O116 C109 1.267 . S
C117 O118 1.160 . S
C117 O124 1.185 . S
O118 C117 1.160 . S
O119 Zn120 1.899 . S
O119 C127 1.284 . S
Zn120 O119 1.899 . S
Zn120 O121 2.032 . S
Zn120 O124 2.086 . S
Zn120 O129 1.977 . S
O121 Zn120 2.032 . S
O121 C125 1.278 . S
C122 O123 1.203 . S
C122 O129 1.267 . S
O123 C122 1.203 . S
O124 C117 1.185 . S
O124 Zn120 2.086 . S
C125 O121 1.278 . S
C125 O126 1.211 . S
O126 C125 1.211 . S
C127 O119 1.284 . S
C127 O128 1.273 . S
O128 C127 1.273 . S
O129 Zn120 1.977 . S
O129 C122 1.267 . S
C130 O131 1.160 . S
C130 O137 1.185 . S
O131 C130 1.160 . S
O132 Zn133 1.899 . S
O132 C140 1.284 . S
Zn133 O132 1.899 . S
Zn133 O134 2.032 . S
Zn133 O137 2.086 . S
Zn133 O142 1.977 . S
O134 Zn133 2.032 . S
O134 C138 1.278 . S
C135 O136 1.203 . S
C135 O142 1.267 . S
O136 C135 1.203 . S
O137 C130 1.185 . S
O137 Zn133 2.086 . S
C138 O134 1.278 . S
C138 O139 1.211 . S
O139 C138 1.211 . S
C140 O132 1.284 . S
C140 O141 1.273 . S
O141 C140 1.273 . S
O142 Zn133 1.977 . S
O142 C135 1.267 . S
C143 O144 1.160 . S
C143 O150 1.185 . S
O144 C143 1.160 . S
O145 Zn146 1.899 . S
O145 C153 1.284 . S
Zn146 O145 1.899 . S
Zn146 O147 2.032 . S
Zn146 O150 2.086 . S
Zn146 O155 1.977 . S
O147 Zn146 2.032 . S
O147 C151 1.278 1_554 S
C148 O149 1.203 . S
C148 O155 1.267 . S
O149 C148 1.203 . S
O150 C143 1.185 . S
O150 Zn146 2.086 . S
C151 O147 1.278 1_556 S
C151 O152 1.211 . S
O152 C151 1.211 . S
C153 O145 1.284 . S
C153 O154 1.273 . S
O154 C153 1.273 . S
O155 Zn146 1.977 . S
O155 C148 1.267 . S
C156 O157 1.160 . S
C156 O163 1.185 . S
O157 C156 1.160 . S
O158 Zn159 1.899 . S
O158 C166 1.284 . S
Zn159 O158 1.899 . S
Zn159 O160 2.032 . S
Zn159 O163 2.086 . S
Zn159 O168 1.977 . S
O160 Zn159 2.032 . S
O160 C164 1.278 . S
C161 O162 1.203 . S
C161 O168 1.267 . S
O162 C161 1.203 . S
O163 C156 1.185 . S
O163 Zn159 2.086 . S
C164 O160 1.278 . S
C164 O165 1.211 . S
O165 C164 1.211 . S
C166 O158 1.284 . S
C166 O167 1.273 . S
O167 C166 1.273 . S
O168 Zn159 1.977 . S
O168 C161 1.267 . S
C169 O170 1.160 . S
C169 O176 1.185 . S
O170 C169 1.160 . S
O171 Zn172 1.899 . S
O171 C179 1.284 . S
Zn172 O171 1.899 . S
Zn172 O173 2.032 . S
Zn172 O176 2.086 . S
Zn172 O181 1.977 . S
O173 Zn172 2.032 . S
O173 C177 1.278 1_556 S
C174 O175 1.203 . S
C174 O181 1.267 . S
O175 C174 1.203 . S
O176 C169 1.185 . S
O176 Zn172 2.086 . S
C177 O173 1.278 1_554 S
C177 O178 1.211 . S
O178 C177 1.211 . S
C179 O171 1.284 . S
C179 O180 1.273 . S
O180 C179 1.273 . S
O181 Zn172 1.977 . S
O181 C174 1.267 . S
C182 O183 1.160 . S
C182 O189 1.185 . S
O183 C182 1.160 . S
O184 Zn185 1.899 . S
O184 C192 1.284 . S
Zn185 O184 1.899 . S
Zn185 O186 2.032 . S
Zn185 O189 2.086 . S
Zn185 O194 1.977 . S
O186 Zn185 2.032 . S
O186 C190 1.278 . S
C187 O188 1.203 . S
C187 O194 1.267 . S
O188 C187 1.203 . S
O189 C182 1.185 . S
O189 Zn185 2.086 . S
C190 O186 1.278 . S
C190 O191 1.211 . S
O191 C190 1.211 . S
C192 O184 1.284 . S
C192 O193 1.273 . S
O193 C192 1.273 . S
O194 Zn185 1.977 . S
O194 C187 1.267 . S
C195 O196 1.160 . S
C195 O202 1.185 . S
O196 C195 1.160 . S
O197 Zn198 1.899 . S
O197 C205 1.284 . S
Zn198 O197 1.899 . S
Zn198 O199 2.032 . S
Zn198 O202 2.086 . S
Zn198 O207 1.977 . S
O199 Zn198 2.032 . S
O199 C203 1.278 . S
C200 O201 1.203 . S
C200 O207 1.267 . S
O201 C200 1.203 . S
O202 C195 1.185 . S
O202 Zn198 2.086 . S
C203 O199 1.278 . S
C203 O204 1.211 . S
O204 C203 1.211 . S
C205 O197 1.284 . S
C205 O206 1.273 . S
O206 C205 1.273 . S
O207 Zn198 1.977 . S
O207 C200 1.267 . S
C208 O209 1.160 . S
C208 O215 1.185 . S
O209 C208 1.160 . S
O210 Zn211 1.899 . S
O210 C218 1.284 . S
Zn211 O210 1.899 . S
Zn211 O212 2.032 . S
Zn211 O215 2.086 . S
Zn211 O220 1.977 . S
O212 Zn211 2.032 . S
O212 C216 1.278 . S
C213 O214 1.203 . S
C213 O220 1.267 . S
O214 C213 1.203 . S
O215 C208 1.185 . S
O215 Zn211 2.086 . S
C216 O212 1.278 . S
C216 O217 1.211 . S
O217 C216 1.211 . S
C218 O210 1.284 . S
C218 O219 1.273 . S
O219 C218 1.273 . S
O220 Zn211 1.977 . S
O220 C213 1.267 . S
C221 O222 1.160 . S
C221 O228 1.185 . S
O222 C221 1.160 . S
O223 Zn224 1.899 . S
O223 C231 1.284 . S
Zn224 O223 1.899 . S
Zn224 O225 2.032 . S
Zn224 O228 2.086 . S
Zn224 O233 1.977 . S
O225 Zn224 2.032 . S
O225 C229 1.278 1_556 S
C226 O227 1.203 . S
C226 O233 1.267 . S
O227 C226 1.203 . S
O228 C221 1.185 . S
O228 Zn224 2.086 . S
C229 O225 1.278 1_554 S
C229 O230 1.211 . S
O230 C229 1.211 . S
C231 O223 1.284 . S
C231 O232 1.273 . S
O232 C231 1.273 . S
O233 Zn224 1.977 . S
O233 C226 1.267 . S
C234 O235 1.160 . S
C234 O241 1.185 . S
O235 C234 1.160 . S
O236 Zn237 1.899 . S
O236 C244 1.284 . S
Zn237 O236 1.899 . S
Zn237 O238 2.032 . S
Zn237 O241 2.086 . S
Zn237 O246 1.977 . S
O238 Zn237 2.032 . S
O238 C242 1.278 . S
C239 O240 1.203 . S
C239 O246 1.267 . S
O240 C239 1.203 . S
O241 C234 1.185 . S
O241 Zn237 2.086 . S
C242 O238 1.278 . S
C242 O243 1.211 . S
O243 C242 1.211 . S
C244 O236 1.284 . S
C244 O245 1.273 . S
O245 C244 1.273 . S
O246 Zn237 1.977 . S
O246 C239 1.267 . S
C247 O248 1.160 . S
C247 O254 1.185 . S
O248 C247 1.160 . S
O249 Zn250 1.899 . S
O249 C257 1.284 . S
Zn250 O249 1.899 . S
Zn250 O251 2.032 . S
Zn250 O254 2.086 . S
Zn250 O259 1.977 . S
O251 Zn250 2.032 . S
O251 C255 1.278 . S
C252 O253 1.203 . S
C252 O259 1.267 . S
O253 C252 1.203 . S
O254 C247 1.185 . S
O254 Zn250 2.086 . S
C255 O251 1.278 . S
C255 O256 1.211 . S
O256 C255 1.211 . S
C257 O249 1.284 . S
C257 O258 1.273 . S
O258 C257 1.273 . S
O259 Zn250 1.977 . S
O259 C252 1.267 . S
C260 O261 1.160 . S
C260 O267 1.185 . S
O261 C260 1.160 . S
O262 Zn263 1.899 . S
O262 C270 1.284 . S
Zn263 O262 1.899 . S
Zn263 O264 2.032 . S
Zn263 O267 2.086 . S
Zn263 O272 1.977 . S
O264 Zn263 2.032 . S
O264 C268 1.278 . S
C265 O266 1.203 . S
C265 O272 1.267 . S
O266 C265 1.203 . S
O267 C260 1.185 . S
O267 Zn263 2.086 . S
C268 O264 1.278 . S
C268 O269 1.211 . S
O269 C268 1.211 . S
C270 O262 1.284 . S
C270 O271 1.273 . S
O271 C270 1.273 . S
O272 Zn263 1.977 . S
O272 C265 1.267 . S
C273 O274 1.160 . S
C273 O280 1.185 . S
O274 C273 1.160 . S
O275 Zn276 1.899 . S
O275 C283 1.284 . S
Zn276 O275 1.899 . S
Zn276 O277 2.032 . S
Zn276 O280 2.086 . S
Zn276 O285 1.977 . S
O277 Zn276 2.032 . S
O277 C281 1.278 . S
C278 O279 1.203 . S
C278 O285 1.267 . S
O279 C278 1.203 . S
O280 C273 1.185 . S
O280 Zn276 2.086 . S
C281 O277 1.278 . S
C281 O282 1.211 . S
O282 C281 1.211 . S
C283 O275 1.284 . S
C283 O284 1.273 . S
O284 C283 1.273 . S
O285 Zn276 1.977 . S
O285 C278 1.267 . S
C286 O287 1.160 . S
C286 O293 1.185 . S
O287 C286 1.160 . S
O288 Zn289 1.899 . S
O288 C296 1.284 . S
Zn289 O288 1.899 . S
Zn289 O290 2.032 . S
Zn289 O293 2.086 . S
Zn289 O298 1.977 . S
O290 Zn289 2.032 . S
O290 C294 1.278 . S
C291 O292 1.203 . S
C291 O298 1.267 . S
O292 C291 1.203 . S
O293 C286 1.185 . S
O293 Zn289 2.086 . S
C294 O290 1.278 . S
C294 O295 1.211 . S
O295 C294 1.211 . S
C296 O288 1.284 . S
C296 O297 1.273 . S
O297 C296 1.273 . S
O298 Zn289 1.977 . S
O298 C291 1.267 . S
C299 O300 1.160 . S
C299 O306 1.185 . S
O300 C299 1.160 . S
O301 Zn302 1.899 . S
O301 C309 1.284 . S
Zn302 O301 1.899 . S
Zn302 O303 2.032 . S
Zn302 O306 2.086 . S
Zn302 O311 1.977 . S
O303 Zn302 2.032 . S
O303 C307 1.278 1_554 S
C304 O305 1.203 . S
C304 O311 1.267 . S
O305 C304 1.203 . S
O306 C299 1.185 . S
O306 Zn302 2.086 . S
C307 O303 1.278 1_556 S
C307 O308 1.211 . S
O308 C307 1.211 . S
C309 O301 1.284 . S
C309 O310 1.273 . S
O310 C309 1.273 . S
O311 Zn302 1.977 . S
O311 C304 1.267 . S
C312 O313 1.160 . S
C312 O319 1.185 . S
O313 C312 1.160 . S
O314 Zn315 1.899 . S
O314 C322 1.284 . S
Zn315 O314 1.899 . S
Zn315 O316 2.032 . S
Zn315 O319 2.086 . S
Zn315 O324 1.977 . S
O316 Zn315 2.032 . S
O316 C320 1.278 . S
C317 O318 1.203 . S
C317 O324 1.267 . S
O318 C317 1.203 . S
O319 C312 1.185 . S
O319 Zn315 2.086 . S
C320 O316 1.278 . S
C320 O321 1.211 . S
O321 C320 1.211 . S
C322 O314 1.284 . S
C322 O323 1.273 . S
O323 C322 1.273 . S
O324 Zn315 1.977 . S
O324 C317 1.267 . S
C325 O326 1.160 . S
C325 O332 1.185 . S
O326 C325 1.160 . S
O327 Zn328 1.899 . S
O327 C335 1.284 . S
Zn328 O327 1.899 . S
Zn328 O329 2.032 . S
Zn328 O332 2.086 . S
Zn328 O337 1.977 . S
O329 Zn328 2.032 . S
O329 C333 1.278 1_554 S
C330 O331 1.203 . S
C330 O337 1.267 . S
O331 C330 1.203 . S
O332 C325 1.185 . S
O332 Zn328 2.086 . S
C333 O329 1.278 1_556 S
C333 O334 1.211 . S
O334 C333 1.211 . S
C335 O327 1.284 . S
C335 O336 1.273 . S
O336 C335 1.273 . S
O337 Zn328 1.977 . S
O337 C330 1.267 . S
C338 O339 1.160 . S
C338 O345 1.185 . S
O339 C338 1.160 . S
O340 Zn341 1.899 . S
O340 C348 1.284 . S
Zn341 O340 1.899 . S
Zn341 O342 2.032 . S
Zn341 O345 2.086 . S
Zn341 O350 1.977 . S
O342 Zn341 2.032 . S
O342 C346 1.278 . S
C343 O344 1.203 . S
C343 O350 1.267 . S
O344 C343 1.203 . S
O345 C338 1.185 . S
O345 Zn341 2.086 . S
C346 O342 1.278 . S
C346 O347 1.211 . S
O347 C346 1.211 . S
C348 O340 1.284 . S
C348 O349 1.273 . S
O349 C348 1.273 . S
O350 Zn341 1.977 . S
O350 C343 1.267 . S
C351 O352 1.160 . S
C351 O358 1.185 . S
O352 C351 1.160 . S
O353 Zn354 1.899 . S
O353 C361 1.284 . S
Zn354 O353 1.899 . S
Zn354 O355 2.032 . S
Zn354 O358 2.086 . S
Zn354 O363 1.977 . S
O355 Zn354 2.032 . S
O355 C359 1.278 . S
C356 O357 1.203 . S
C356 O363 1.267 . S
O357 C356 1.203 . S
O358 C351 1.185 . S
O358 Zn354 2.086 . S
C359 O355 1.278 . S
C359 O360 1.211 . S
O360 C359 1.211 . S
C361 O353 1.284 . S
C361 O362 1.273 . S
O362 C361 1.273 . S
O363 Zn354 1.977 . S
O363 C356 1.267 . S
C364 O365 1.160 . S
C364 O371 1.185 . S
O365 C364 1.160 . S
O366 Zn367 1.899 . S
O366 C374 1.284 . S
Zn367 O366 1.899 . S
Zn367 O368 2.032 . S
Zn367 O371 2.086 . S
Zn367 O376 1.977 . S
O368 Zn367 2.032 . S
O368 C372 1.278 . S
C369 O370 1.203 . S
C369 O376 1.267 . S
O370 C369 1.203 . S
O371 C364 1.185 . S
O371 Zn367 2.086 . S
C372 O368 1.278 . S
C372 O373 1.211 . S
O373 C372 1.211 . S
C374 O366 1.284 . S
C374 O375 1.273 . S
O375 C374 1.273 . S
O376 Zn367 1.977 . S
O376 C369 1.267 . S
C377 O378 1.160 . S
C377 O384 1.185 . S
O378 C377 1.160 . S
O379 Zn380 1.899 . S
O379 C387 1.284 . S
Zn380 O379 1.899 . S
Zn380 O381 2.032 . S
Zn380 O384 2.086 . S
Zn380 O389 1.977 . S
O381 Zn380 2.032 . S
O381 C385 1.278 . S
C382 O383 1.203 . S
C382 O389 1.267 . S
O383 C382 1.203 . S
O384 C377 1.185 . S
O384 Zn380 2.086 . S
C385 O381 1.278 . S
C385 O386 1.211 . S
O386 C385 1.211 . S
C387 O379 1.284 . S
C387 O388 1.273 . S
O388 C387 1.273 . S
O389 Zn380 1.977 . S
O389 C382 1.267 . S
C390 O391 1.160 . S
C390 O397 1.185 . S
O391 C390 1.160 . S
O392 Zn393 1.899 . S
O392 C400 1.284 . S
Zn393 O392 1.899 . S
Zn393 O394 2.032 . S
Zn393 O397 2.086 . S
Zn393 O402 1.977 . S
O394 Zn393 2.032 . S
O394 C398 1.278 . S
C395 O396 1.203 . S
C395 O402 1.267 . S
O396 C395 1.203 . S
O397 C390 1.185 . S
O397 Zn393 2.086 . S
C398 O394 1.278 . S
C398 O399 1.211 . S
O399 C398 1.211 . S
C400 O392 1.284 . S
C400 O401 1.273 . S
O401 C400 1.273 . S
O402 Zn393 1.977 . S
O402 C395 1.267 . S
C403 O404 1.160 . S
C403 O410 1.185 . S
O404 C403 1.160 . S
O405 Zn406 1.899 . S
O405 C413 1.284 . S
Zn406 O405 1.899 . S
Zn406 O407 2.032 . S
Zn406 O410 2.086 . S
Zn406 O415 1.977 . S
O407 Zn406 2.032 . S
O407 C411 1.278 1_556 S
C408 O409 1.203 . S
C408 O415 1.267 . S
O409 C408 1.203 . S
O410 C403 1.185 . S
O410 Zn406 2.086 . S
C411 O407 1.278 1_554 S
C411 O412 1.211 . S
O412 C411 1.211 . S
C413 O405 1.284 . S
C413 O414 1.273 . S
O414 C413 1.273 . S
O415 Zn406 1.977 . S
O415 C408 1.267 . S
H416 C422 0.930 . S
H417 C425 0.930 . S
H418 C426 0.930 . S
H419 C427 0.930 . S
H420 C430 0.930 . S
H421 C431 0.930 . S
C422 H416 0.930 . S
C422 C423 1.355 . S
C422 C424 1.415 . S
C423 C422 1.355 . S
C423 C425 1.419 . S
C424 C422 1.415 . S
C424 C429 1.425 . S
C424 C431 1.409 . S
C425 H417 0.930 . S
C425 C423 1.419 . S
C425 C426 1.362 . S
C426 H418 0.930 . S
C426 C425 1.362 . S
C426 C429 1.409 . S
C427 H419 0.930 . S
C427 C428 1.355 . S
C427 C429 1.415 . S
C428 C427 1.355 . S
C428 C430 1.419 . S
C429 C424 1.425 . S
C429 C426 1.409 . S
C429 C427 1.415 . S
C430 H420 0.930 . S
C430 C428 1.419 . S
C430 C431 1.362 . S
C431 H421 0.930 . S
C431 C424 1.409 . S
C431 C430 1.362 . S
H432 C438 0.930 . S
H433 C441 0.930 . S
H434 C442 0.930 . S
H435 C443 0.930 . S
H436 C446 0.930 . S
H437 C447 0.930 . S
C438 H432 0.930 . S
C438 C439 1.355 . S
C438 C440 1.390 1_565 S
C439 C438 1.355 . S
C439 C441 1.419 . S
C440 C438 1.390 1_545 S
C440 C445 1.423 1_545 S
C440 C447 1.436 . S
C441 H433 0.930 . S
C441 C439 1.419 . S
C441 C442 1.362 . S
C442 H434 0.930 . S
C442 C441 1.362 . S
C442 C445 1.436 . S
C443 H435 0.930 . S
C443 C444 1.355 . S
C443 C445 1.390 1_545 S
C444 C443 1.355 . S
C444 C446 1.419 . S
C445 C440 1.423 1_565 S
C445 C442 1.436 . S
C445 C443 1.390 1_565 S
C446 H436 0.930 . S
C446 C444 1.419 . S
C446 C447 1.362 . S
C447 H437 0.930 . S
C447 C440 1.436 . S
C447 C446 1.362 . S
H448 C454 0.930 . S
H449 C457 0.930 . S
H450 C458 0.930 . S
H451 C459 0.930 . S
H452 C462 0.930 . S
H453 C463 0.930 . S
C454 H448 0.930 . S
C454 C455 1.355 . S
C454 C456 1.415 . S
C455 C454 1.355 . S
C455 C457 1.419 . S
C456 C454 1.415 . S
C456 C461 1.425 . S
C456 C463 1.409 . S
C457 H449 0.930 . S
C457 C455 1.419 . S
C457 C458 1.362 . S
C458 H450 0.930 . S
C458 C457 1.362 . S
C458 C461 1.409 . S
C459 H451 0.930 . S
C459 C460 1.355 . S
C459 C461 1.415 . S
C460 C459 1.355 . S
C460 C462 1.419 . S
C461 C456 1.425 . S
C461 C458 1.409 . S
C461 C459 1.415 . S
C462 H452 0.930 . S
C462 C460 1.419 . S
C462 C463 1.362 . S
C463 H453 0.930 . S
C463 C456 1.409 . S
C463 C462 1.362 . S
H464 C470 0.930 1_554 S
H465 C473 0.930 . S
H466 C474 0.930 1_565 S
H467 C475 0.930 1_556 S
H468 C478 0.930 . S
H469 C479 0.930 1_545 S
C470 H464 0.930 1_556 S
C470 C471 1.355 . S
C470 C472 1.415 1_556 S
C471 C470 1.355 . S
C471 C473 1.419 . S
C472 C470 1.415 1_554 S
C472 C477 1.425 1_544 S
C472 C479 1.409 1_545 S
C473 H465 0.930 . S
C473 C471 1.419 . S
C473 C474 1.362 . S
C474 H466 0.930 1_545 S
C474 C473 1.362 . S
C474 C477 1.409 1_545 S
C475 H467 0.930 1_554 S
C475 C476 1.355 . S
C475 C477 1.415 1_554 S
C476 C475 1.355 . S
C476 C478 1.419 . S
C477 C472 1.425 1_566 S
C477 C474 1.409 1_565 S
C477 C475 1.415 1_556 S
C478 H468 0.930 . S
C478 C476 1.419 . S
C478 C479 1.362 . S
C479 H469 0.930 1_565 S
C479 C472 1.409 1_565 S
C479 C478 1.362 . S
H480 C486 0.930 . S
H481 C489 0.930 . S
H482 C490 0.930 . S
H483 C491 0.930 . S
H484 C494 0.930 . S
H485 C495 0.930 . S
C486 H480 0.930 . S
C486 C487 1.355 . S
C486 C488 1.415 . S
C487 C486 1.355 . S
C487 C489 1.419 . S
C488 C486 1.415 . S
C488 C493 1.425 . S
C488 C495 1.409 . S
C489 H481 0.930 . S
C489 C487 1.419 . S
C489 C490 1.362 . S
C490 H482 0.930 . S
C490 C489 1.362 . S
C490 C493 1.409 . S
C491 H483 0.930 . S
C491 C492 1.355 . S
C491 C493 1.415 . S
C492 C491 1.355 . S
C492 C494 1.419 . S
C493 C488 1.425 . S
C493 C490 1.409 . S
C493 C491 1.415 . S
C494 H484 0.930 . S
C494 C492 1.419 . S
C494 C495 1.362 . S
C495 H485 0.930 . S
C495 C488 1.409 . S
C495 C494 1.362 . S
H496 C502 0.930 . S
H497 C505 0.930 . S
H498 C506 0.914 1_545 S
H499 C507 0.930 . S
H500 C510 0.930 . S
H501 C511 0.914 1_565 S
C502 H496 0.930 . S
C502 C503 1.355 . S
C502 C504 1.415 . S
C503 C502 1.355 . S
C503 C505 1.419 . S
C504 C502 1.415 . S
C504 C509 1.425 1_565 S
C504 C511 1.400 1_565 S
C505 H497 0.930 . S
C505 C503 1.419 . S
C505 C506 1.388 . S
C506 H498 0.914 1_565 S
C506 C505 1.388 . S
C506 C509 1.400 1_565 S
C507 H499 0.930 . S
C507 C508 1.355 . S
C507 C509 1.415 . S
C508 C507 1.355 . S
C508 C510 1.419 . S
C509 C504 1.425 1_545 S
C509 C506 1.400 1_545 S
C509 C507 1.415 . S
C510 H500 0.930 . S
C510 C508 1.419 . S
C510 C511 1.388 . S
C511 H501 0.914 1_545 S
C511 C504 1.400 1_545 S
C511 C510 1.388 . S
H512 C518 0.930 . S
H513 C521 0.930 . S
H514 C522 0.930 . S
H515 C523 0.930 . S
H516 C526 0.930 . S
H517 C527 0.930 . S
C518 H512 0.930 . S
C518 C519 1.355 . S
C518 C520 1.415 . S
C519 C518 1.355 . S
C519 C521 1.419 . S
C520 C518 1.415 . S
C520 C525 1.425 . S
C520 C527 1.409 . S
C521 H513 0.930 . S
C521 C519 1.419 . S
C521 C522 1.362 . S
C522 H514 0.930 . S
C522 C521 1.362 . S
C522 C525 1.409 . S
C523 H515 0.930 . S
C523 C524 1.355 . S
C523 C525 1.415 . S
C524 C523 1.355 . S
C524 C526 1.419 . S
C525 C520 1.425 . S
C525 C522 1.409 . S
C525 C523 1.415 . S
C526 H516 0.930 . S
C526 C524 1.419 . S
C526 C527 1.362 . S
C527 H517 0.930 . S
C527 C520 1.409 . S
C527 C526 1.362 . S
H528 C534 0.930 1_554 S
H529 C537 0.930 . S
H530 C538 0.903 1_565 S
H531 C539 0.930 1_556 S
H532 C542 0.930 . S
H533 C543 0.903 1_545 S
C534 H528 0.930 1_556 S
C534 C535 1.355 . S
C534 C536 1.415 1_556 S
C535 C534 1.355 . S
C535 C537 1.419 . S
C536 C534 1.415 1_554 S
C536 C541 1.425 1_544 S
C536 C543 1.409 1_545 S
C537 H529 0.930 . S
C537 C535 1.419 . S
C537 C538 1.362 . S
C538 H530 0.903 1_545 S
C538 C537 1.362 . S
C538 C541 1.409 1_545 S
C539 H531 0.930 1_554 S
C539 C540 1.355 . S
C539 C541 1.415 1_554 S
C540 C539 1.355 . S
C540 C542 1.419 . S
C541 C536 1.425 1_566 S
C541 C538 1.409 1_565 S
C541 C539 1.415 1_556 S
C542 H532 0.930 . S
C542 C540 1.419 . S
C542 C543 1.362 . S
C543 H533 0.903 1_565 S
C543 C536 1.409 1_565 S
C543 C542 1.362 . S
H544 C550 0.930 . S
H545 C553 0.930 . S
H546 C554 0.930 . S
H547 C555 0.930 . S
H548 C558 0.930 . S
H549 C559 0.930 . S
C550 H544 0.930 . S
C550 C551 1.355 . S
C550 C552 1.415 . S
C551 C550 1.355 . S
C551 C553 1.419 . S
C552 C550 1.415 . S
C552 C557 1.425 . S
C552 C559 1.409 . S
C553 H545 0.930 . S
C553 C551 1.419 . S
C553 C554 1.362 . S
C554 H546 0.930 . S
C554 C553 1.362 . S
C554 C557 1.409 . S
C555 H547 0.930 . S
C555 C556 1.355 . S
C555 C557 1.415 . S
C556 C555 1.355 . S
C556 C558 1.419 . S
C557 C552 1.425 . S
C557 C554 1.409 . S
C557 C555 1.415 . S
C558 H548 0.930 . S
C558 C556 1.419 . S
C558 C559 1.362 . S
C559 H549 0.930 . S
C559 C552 1.409 . S
C559 C558 1.362 . S
H560 C566 0.930 1_554 S
H561 C569 0.930 . S
H562 C570 0.930 . S
H563 C571 0.930 1_556 S
H564 C574 0.930 . S
H565 C575 0.930 . S
C566 H560 0.930 1_556 S
C566 C567 1.355 . S
C566 C568 1.415 1_556 S
C567 C566 1.355 . S
C567 C569 1.419 . S
C568 C566 1.415 1_554 S
C568 C573 1.425 1_554 S
C568 C575 1.409 . S
C569 H561 0.930 . S
C569 C567 1.419 . S
C569 C570 1.362 . S
C570 H562 0.930 . S
C570 C569 1.362 . S
C570 C573 1.409 . S
C571 H563 0.930 1_554 S
C571 C572 1.355 . S
C571 C573 1.415 1_554 S
C572 C571 1.355 . S
C572 C574 1.419 . S
C573 C568 1.425 1_556 S
C573 C570 1.409 . S
C573 C571 1.415 1_556 S
C574 H564 0.930 . S
C574 C572 1.419 . S
C574 C575 1.362 . S
C575 H565 0.930 . S
C575 C568 1.409 . S
C575 C574 1.362 . S
H576 C582 0.930 . S
H577 C585 0.930 . S
H578 C586 0.930 . S
H579 C587 0.930 . S
H580 C590 0.930 . S
H581 C591 0.930 . S
C582 H576 0.930 . S
C582 C583 1.355 . S
C582 C584 1.415 . S
C583 C582 1.355 . S
C583 C585 1.419 . S
C584 C582 1.415 . S
C584 C589 1.425 . S
C584 C591 1.409 . S
C585 H577 0.930 . S
C585 C583 1.419 . S
C585 C586 1.362 . S
C586 H578 0.930 . S
C586 C585 1.362 . S
C586 C589 1.409 . S
C587 H579 0.930 . S
C587 C588 1.355 . S
C587 C589 1.415 . S
C588 C587 1.355 . S
C588 C590 1.419 . S
C589 C584 1.425 . S
C589 C586 1.409 . S
C589 C587 1.415 . S
C590 H580 0.930 . S
C590 C588 1.419 . S
C590 C591 1.362 . S
C591 H581 0.930 . S
C591 C584 1.409 . S
C591 C590 1.362 . S
H592 C598 0.930 . S
H593 C601 0.930 . S
H594 C602 0.930 . S
H595 C603 0.930 . S
H596 C606 0.930 . S
H597 C607 0.930 . S
C598 H592 0.930 . S
C598 C599 1.355 . S
C598 C600 1.415 . S
C599 C598 1.355 . S
C599 C601 1.419 . S
C600 C598 1.415 . S
C600 C605 1.425 . S
C600 C607 1.409 . S
C601 H593 0.930 . S
C601 C599 1.419 . S
C601 C602 1.362 . S
C602 H594 0.930 . S
C602 C601 1.362 . S
C602 C605 1.409 . S
C603 H595 0.930 . S
C603 C604 1.355 . S
C603 C605 1.415 . S
C604 C603 1.355 . S
C604 C606 1.419 . S
C605 C600 1.425 . S
C605 C602 1.409 . S
C605 C603 1.415 . S
C606 H596 0.930 . S
C606 C604 1.419 . S
C606 C607 1.362 . S
C607 H597 0.930 . S
C607 C600 1.409 . S
C607 C606 1.362 . S
H608 C614 0.930 . S
H609 C617 0.930 . S
H610 C618 0.930 . S
H611 C619 0.930 . S
H612 C622 0.930 . S
H613 C623 0.930 . S
C614 H608 0.930 . S
C614 C615 1.355 . S
C614 C616 1.415 . S
C615 C614 1.355 . S
C615 C617 1.419 . S
C616 C614 1.415 . S
C616 C621 1.425 . S
C616 C623 1.409 . S
C617 H609 0.930 . S
C617 C615 1.419 . S
C617 C618 1.362 . S
C618 H610 0.930 . S
C618 C617 1.362 . S
C618 C621 1.409 . S
C619 H611 0.930 . S
C619 C620 1.355 . S
C619 C621 1.415 . S
C620 C619 1.355 . S
C620 C622 1.419 . S
C621 C616 1.425 . S
C621 C618 1.409 . S
C621 C619 1.415 . S
C622 H612 0.930 . S
C622 C620 1.419 . S
C622 C623 1.362 . S
C623 H613 0.930 . S
C623 C616 1.409 . S
C623 C622 1.362 . S
H624 C630 0.930 . S
H625 C633 0.930 . S
H626 C634 0.930 . S
H627 C635 0.930 . S
H628 C638 0.930 . S
H629 C639 0.930 . S
C630 H624 0.930 . S
C630 C631 1.355 . S
C630 C632 1.415 . S
C631 C630 1.355 . S
C631 C633 1.419 1_554 S
C632 C630 1.415 . S
C632 C637 1.425 1_554 S
C632 C639 1.409 . S
C633 H625 0.930 . S
C633 C631 1.419 1_556 S
C633 C634 1.362 . S
C634 H626 0.930 . S
C634 C633 1.362 . S
C634 C637 1.409 . S
C635 H627 0.930 . S
C635 C636 1.355 . S
C635 C637 1.415 . S
C636 C635 1.355 . S
C636 C638 1.419 1_556 S
C637 C632 1.425 1_556 S
C637 C634 1.409 . S
C637 C635 1.415 . S
C638 H628 0.930 . S
C638 C636 1.419 1_554 S
C638 C639 1.362 . S
C639 H629 0.930 . S
C639 C632 1.409 . S
C639 C638 1.362 . S
H640 C646 0.930 . S
H641 C649 0.930 . S
H642 C650 0.930 . S
H643 C651 0.930 . S
H644 C654 0.930 . S
H645 C655 0.930 . S
C646 H640 0.930 . S
C646 C647 1.355 . S
C646 C648 1.415 . S
C647 C646 1.355 . S
C647 C649 1.419 . S
C648 C646 1.415 . S
C648 C653 1.425 . S
C648 C655 1.409 . S
C649 H641 0.930 . S
C649 C647 1.419 . S
C649 C650 1.362 . S
C650 H642 0.930 . S
C650 C649 1.362 . S
C650 C653 1.409 . S
C651 H643 0.930 . S
C651 C652 1.355 . S
C651 C653 1.415 . S
C652 C651 1.355 . S
C652 C654 1.419 . S
C653 C648 1.425 . S
C653 C650 1.409 . S
C653 C651 1.415 . S
C654 H644 0.930 . S
C654 C652 1.419 . S
C654 C655 1.362 . S
C655 H645 0.930 . S
C655 C648 1.409 . S
C655 C654 1.362 . S
H656 C662 0.930 . S
H657 C665 0.930 . S
H658 C666 0.930 . S
H659 C667 0.930 . S
H660 C670 0.930 . S
H661 C671 0.930 . S
C662 H656 0.930 . S
C662 C663 1.355 . S
C662 C664 1.415 . S
C663 C662 1.355 . S
C663 C665 1.419 . S
C664 C662 1.415 . S
C664 C669 1.425 . S
C664 C671 1.409 . S
C665 H657 0.930 . S
C665 C663 1.419 . S
C665 C666 1.362 . S
C666 H658 0.930 . S
C666 C665 1.362 . S
C666 C669 1.409 . S
C667 H659 0.930 . S
C667 C668 1.355 . S
C667 C669 1.415 . S
C668 C667 1.355 . S
C668 C670 1.419 . S
C669 C664 1.425 . S
C669 C666 1.409 . S
C669 C667 1.415 . S
C670 H660 0.930 . S
C670 C668 1.419 . S
C670 C671 1.362 . S
C671 H661 0.930 . S
C671 C664 1.409 . S
C671 C670 1.362 . S
H672 C678 0.941 . S
H673 C681 0.930 . S
H674 C682 0.930 . S
H675 C683 0.930 . S
H676 C686 0.930 . S
H677 C687 0.930 . S
C678 H672 0.941 . S
C678 C679 1.355 . S
C678 C680 1.415 . S
C679 C678 1.355 . S
C679 C681 1.419 . S
C680 C678 1.415 . S
C680 C685 1.425 . S
C680 C687 1.409 . S
C681 H673 0.930 . S
C681 C679 1.419 . S
C681 C682 1.362 . S
C682 H674 0.930 . S
C682 C681 1.362 . S
C682 C685 1.409 . S
C683 H675 0.930 . S
C683 C684 1.355 . S
C683 C685 1.415 . S
C684 C683 1.355 . S
C684 C686 1.419 . S
C685 C680 1.425 . S
C685 C682 1.409 . S
C685 C683 1.415 . S
C686 H676 0.930 . S
C686 C684 1.419 . S
C686 C687 1.362 . S
C687 H677 0.930 . S
C687 C680 1.409 . S
C687 C686 1.362 . S
H688 C694 0.930 . S
H689 C697 0.930 . S
H690 C698 0.930 . S
H691 C699 0.930 . S
H692 C702 0.930 . S
H693 C703 0.930 . S
C694 H688 0.930 . S
C694 C695 1.355 . S
C694 C696 1.415 . S
C695 C694 1.355 . S
C695 C697 1.419 . S
C696 C694 1.415 . S
C696 C701 1.425 . S
C696 C703 1.409 . S
C697 H689 0.930 . S
C697 C695 1.419 . S
C697 C698 1.362 . S
C698 H690 0.930 . S
C698 C697 1.362 . S
C698 C701 1.409 . S
C699 H691 0.930 . S
C699 C700 1.355 . S
C699 C701 1.415 . S
C700 C699 1.355 . S
C700 C702 1.419 . S
C701 C696 1.425 . S
C701 C698 1.409 . S
C701 C699 1.415 . S
C702 H692 0.930 . S
C702 C700 1.419 . S
C702 C703 1.362 . S
C703 H693 0.930 . S
C703 C696 1.409 . S
C703 C702 1.362 . S
H704 C710 0.930 . S
H705 C713 0.930 . S
H706 C714 0.930 . S
H707 C715 0.930 . S
H708 C718 0.930 . S
H709 C719 0.930 . S
C710 H704 0.930 . S
C710 C711 1.355 . S
C710 C712 1.415 . S
C711 C710 1.355 . S
C711 C713 1.419 . S
C712 C710 1.415 . S
C712 C717 1.425 . S
C712 C719 1.409 . S
C713 H705 0.930 . S
C713 C711 1.419 . S
C713 C714 1.362 . S
C714 H706 0.930 . S
C714 C713 1.362 . S
C714 C717 1.409 . S
C715 H707 0.930 . S
C715 C716 1.355 . S
C715 C717 1.415 . S
C716 C715 1.355 . S
C716 C718 1.419 . S
C717 C712 1.425 . S
C717 C714 1.409 . S
C717 C715 1.415 . S
C718 H708 0.930 . S
C718 C716 1.419 . S
C718 C719 1.362 . S
C719 H709 0.930 . S
C719 C712 1.409 . S
C719 C718 1.362 . S
H720 C726 0.930 . S
H721 C729 0.930 . S
H722 C730 0.930 . S
H723 C731 0.930 . S
H724 C734 0.930 . S
H725 C735 0.930 . S
C726 H720 0.930 . S
C726 C727 1.355 . S
C726 C728 1.415 . S
C727 C726 1.355 . S
C727 C729 1.419 . S
C728 C726 1.415 . S
C728 C733 1.425 . S
C728 C735 1.409 . S
C729 H721 0.930 . S
C729 C727 1.419 . S
C729 C730 1.362 . S
C730 H722 0.930 . S
C730 C729 1.362 . S
C730 C733 1.409 . S
C731 H723 0.930 . S
C731 C732 1.355 . S
C731 C733 1.415 . S
C732 C731 1.355 . S
C732 C734 1.419 . S
C733 C728 1.425 . S
C733 C730 1.409 . S
C733 C731 1.415 . S
C734 H724 0.930 . S
C734 C732 1.419 . S
C734 C735 1.362 . S
C735 H725 0.930 . S
C735 C728 1.409 . S
C735 C734 1.362 . S
H736 C742 0.930 . S
H737 C745 0.930 . S
H738 C746 0.930 . S
H739 C747 0.930 . S
H740 C750 0.930 . S
H741 C751 0.930 . S
C742 H736 0.930 . S
C742 C743 1.355 . S
C742 C744 1.415 . S
C743 C742 1.355 . S
C743 C745 1.419 . S
C744 C742 1.415 . S
C744 C749 1.425 . S
C744 C751 1.409 . S
C745 H737 0.930 . S
C745 C743 1.419 . S
C745 C746 1.362 . S
C746 H738 0.930 . S
C746 C745 1.362 . S
C746 C749 1.409 . S
C747 H739 0.930 . S
C747 C748 1.355 . S
C747 C749 1.415 . S
C748 C747 1.355 . S
C748 C750 1.419 . S
C749 C744 1.425 . S
C749 C746 1.409 . S
C749 C747 1.415 . S
C750 H740 0.930 . S
C750 C748 1.419 . S
C750 C751 1.362 . S
C751 H741 0.930 . S
C751 C744 1.409 . S
C751 C750 1.362 . S
H752 C758 0.930 . S
H753 C761 0.930 . S
H754 C762 0.930 . S
H755 C763 0.930 . S
H756 C766 0.930 . S
H757 C767 0.930 . S
C758 H752 0.930 . S
C758 C759 1.355 . S
C758 C760 1.415 . S
C759 C758 1.355 . S
C759 C761 1.419 . S
C760 C758 1.415 . S
C760 C765 1.425 . S
C760 C767 1.409 . S
C761 H753 0.930 . S
C761 C759 1.419 . S
C761 C762 1.362 . S
C762 H754 0.930 . S
C762 C761 1.362 . S
C762 C765 1.409 . S
C763 H755 0.930 . S
C763 C764 1.355 . S
C763 C765 1.415 . S
C764 C763 1.355 . S
C764 C766 1.419 . S
C765 C760 1.425 . S
C765 C762 1.409 . S
C765 C763 1.415 . S
C766 H756 0.930 . S
C766 C764 1.419 . S
C766 C767 1.362 . S
C767 H757 0.930 . S
C767 C760 1.409 . S
C767 C766 1.362 . S
H768 C774 0.930 . S
H769 C777 0.930 . S
H770 C778 0.930 . S
H771 C779 0.930 . S
H772 C782 0.930 . S
H773 C783 0.930 . S
C774 H768 0.930 . S
C774 C775 1.355 . S
C774 C776 1.415 . S
C775 C774 1.355 . S
C775 C777 1.419 . S
C776 C774 1.415 . S
C776 C781 1.425 . S
C776 C783 1.409 . S
C777 H769 0.930 . S
C777 C775 1.419 . S
C777 C778 1.362 . S
C778 H770 0.930 . S
C778 C777 1.362 . S
C778 C781 1.409 . S
C779 H771 0.930 . S
C779 C780 1.355 . S
C779 C781 1.415 . S
C780 C779 1.355 . S
C780 C782 1.419 . S
C781 C776 1.425 . S
C781 C778 1.409 . S
C781 C779 1.415 . S
C782 H772 0.930 . S
C782 C780 1.419 . S
C782 C783 1.362 . S
C783 H773 0.930 . S
C783 C776 1.409 . S
C783 C782 1.362 . S
H784 C790 0.930 . S
H785 C793 0.930 . S
H786 C794 0.930 . S
H787 C795 0.930 . S
H788 C798 0.930 . S
H789 C799 0.930 . S
C790 H784 0.930 . S
C790 C791 1.355 . S
C790 C792 1.415 . S
C791 C790 1.355 . S
C791 C793 1.419 . S
C792 C790 1.415 . S
C792 C797 1.425 . S
C792 C799 1.409 . S
C793 H785 0.930 . S
C793 C791 1.419 . S
C793 C794 1.362 . S
C794 H786 0.930 . S
C794 C793 1.362 . S
C794 C797 1.409 . S
C795 H787 0.930 . S
C795 C796 1.355 . S
C795 C797 1.415 . S
C796 C795 1.355 . S
C796 C798 1.419 . S
C797 C792 1.425 . S
C797 C794 1.409 . S
C797 C795 1.415 . S
C798 H788 0.930 . S
C798 C796 1.419 . S
C798 C799 1.362 . S
C799 H789 0.930 . S
C799 C792 1.409 . S
C799 C798 1.362 . S
H800 C806 0.930 . S
H801 C809 0.930 . S
H802 C810 0.930 . S
H803 C811 0.930 . S
H804 C814 0.930 . S
H805 C815 0.930 . S
C806 H800 0.930 . S
C806 C807 1.355 . S
C806 C808 1.415 . S
C807 C806 1.355 . S
C807 C809 1.419 . S
C808 C806 1.415 . S
C808 C813 1.425 . S
C808 C815 1.409 . S
C809 H801 0.930 . S
C809 C807 1.419 . S
C809 C810 1.362 . S
C810 H802 0.930 . S
C810 C809 1.362 . S
C810 C813 1.409 . S
C811 H803 0.930 . S
C811 C812 1.355 . S
C811 C813 1.415 . S
C812 C811 1.355 . S
C812 C814 1.419 . S
C813 C808 1.425 . S
C813 C810 1.409 . S
C813 C811 1.415 . S
C814 H804 0.930 . S
C814 C812 1.419 . S
C814 C815 1.362 . S
C815 H805 0.930 . S
C815 C808 1.409 . S
C815 C814 1.362 . S
H816 C822 0.930 . S
H817 C825 0.930 . S
H818 C826 0.930 . S
H819 C827 0.930 . S
H820 C830 0.930 . S
H821 C831 0.930 . S
C822 H816 0.930 . S
C822 C823 1.355 . S
C822 C824 1.415 . S
C823 C822 1.355 . S
C823 C825 1.419 . S
C824 C822 1.415 . S
C824 C829 1.425 . S
C824 C831 1.409 . S
C825 H817 0.930 . S
C825 C823 1.419 . S
C825 C826 1.362 . S
C826 H818 0.930 . S
C826 C825 1.362 . S
C826 C829 1.409 . S
C827 H819 0.930 . S
C827 C828 1.355 . S
C827 C829 1.415 . S
C828 C827 1.355 . S
C828 C830 1.419 . S
C829 C824 1.425 . S
C829 C826 1.409 . S
C829 C827 1.415 . S
C830 H820 0.930 . S
C830 C828 1.419 . S
C830 C831 1.362 . S
C831 H821 0.930 . S
C831 C824 1.409 . S
C831 C830 1.362 . S
H832 C838 0.930 . S
H833 C841 0.930 . S
H834 C842 0.930 . S
H835 C843 0.930 . S
H836 C846 0.930 1_554 S
H837 C847 0.930 . S
C838 H832 0.930 . S
C838 C839 1.355 . S
C838 C840 1.415 . S
C839 C838 1.355 . S
C839 C841 1.419 . S
C840 C838 1.415 . S
C840 C845 1.425 . S
C840 C847 1.409 . S
C841 H833 0.930 . S
C841 C839 1.419 . S
C841 C842 1.362 . S
C842 H834 0.930 . S
C842 C841 1.362 . S
C842 C845 1.409 . S
C843 H835 0.930 . S
C843 C844 1.355 . S
C843 C845 1.415 . S
C844 C843 1.355 . S
C844 C846 1.419 . S
C845 C840 1.425 . S
C845 C842 1.409 . S
C845 C843 1.415 . S
C846 H836 0.930 1_556 S
C846 C844 1.419 . S
C846 C847 1.362 . S
C847 H837 0.930 . S
C847 C840 1.409 . S
C847 C846 1.362 . S
H848 C854 0.930 . S
H849 C857 0.930 . S
H850 C858 0.930 . S
H851 C859 0.930 . S
H852 C862 0.930 . S
H853 C863 0.930 . S
C854 H848 0.930 . S
C854 C855 1.355 . S
C854 C856 1.415 . S
C855 C854 1.355 . S
C855 C857 1.419 . S
C856 C854 1.415 . S
C856 C861 1.425 . S
C856 C863 1.409 . S
C857 H849 0.930 . S
C857 C855 1.419 . S
C857 C858 1.362 . S
C858 H850 0.930 . S
C858 C857 1.362 . S
C858 C861 1.409 . S
C859 H851 0.930 . S
C859 C860 1.355 . S
C859 C861 1.415 . S
C860 C859 1.355 . S
C860 C862 1.419 . S
C861 C856 1.425 . S
C861 C858 1.409 . S
C861 C859 1.415 . S
C862 H852 0.930 . S
C862 C860 1.419 . S
C862 C863 1.362 . S
C863 H853 0.930 . S
C863 C856 1.409 . S
C863 C862 1.362 . S
H864 C870 0.930 . S
H865 C873 0.930 . S
H866 C874 0.930 . S
H867 C875 0.930 . S
H868 C878 0.930 . S
H869 C879 0.930 . S
C870 H864 0.930 . S
C870 C871 1.355 . S
C870 C872 1.415 . S
C871 C870 1.355 . S
C871 C873 1.419 . S
C872 C870 1.415 . S
C872 C877 1.425 . S
C872 C879 1.409 . S
C873 H865 0.930 . S
C873 C871 1.419 . S
C873 C874 1.362 . S
C874 H866 0.930 . S
C874 C873 1.362 . S
C874 C877 1.409 . S
C875 H867 0.930 . S
C875 C876 1.355 . S
C875 C877 1.415 . S
C876 C875 1.355 . S
C876 C878 1.419 . S
C877 C872 1.425 . S
C877 C874 1.409 . S
C877 C875 1.415 . S
C878 H868 0.930 . S
C878 C876 1.419 . S
C878 C879 1.362 . S
C879 H869 0.930 . S
C879 C872 1.409 . S
C879 C878 1.362 . S
H880 C886 0.930 . S
H881 C889 0.930 . S
H882 C890 0.930 . S
H883 C891 0.930 . S
H884 C894 0.930 . S
H885 C895 0.930 . S
C886 H880 0.930 . S
C886 C887 1.355 . S
C886 C888 1.415 . S
C887 C886 1.355 . S
C887 C889 1.419 . S
C888 C886 1.415 . S
C888 C893 1.425 . S
C888 C895 1.409 . S
C889 H881 0.930 . S
C889 C887 1.419 . S
C889 C890 1.362 . S
C890 H882 0.930 . S
C890 C889 1.362 . S
C890 C893 1.409 . S
C891 H883 0.930 . S
C891 C892 1.355 . S
C891 C893 1.415 . S
C892 C891 1.355 . S
C892 C894 1.419 . S
C893 C888 1.425 . S
C893 C890 1.409 . S
C893 C891 1.415 . S
C894 H884 0.930 . S
C894 C892 1.419 . S
C894 C895 1.362 . S
C895 H885 0.930 . S
C895 C888 1.409 . S
C895 C894 1.362 . S
H896 C902 0.930 . S
H897 C905 0.930 . S
H898 C906 0.930 . S
H899 C907 0.930 . S
H900 C910 0.930 . S
H901 C911 0.930 . S
C902 H896 0.930 . S
C902 C903 1.355 . S
C902 C904 1.415 . S
C903 C902 1.355 . S
C903 C905 1.419 . S
C904 C902 1.415 . S
C904 C909 1.425 . S
C904 C911 1.409 . S
C905 H897 0.930 . S
C905 C903 1.419 . S
C905 C906 1.362 . S
C906 H898 0.930 . S
C906 C905 1.362 . S
C906 C909 1.409 . S
C907 H899 0.930 . S
C907 C908 1.355 . S
C907 C909 1.415 . S
C908 C907 1.355 . S
C908 C910 1.419 . S
C909 C904 1.425 . S
C909 C906 1.409 . S
C909 C907 1.415 . S
C910 H900 0.930 . S
C910 C908 1.419 . S
C910 C911 1.362 . S
C911 H901 0.930 . S
C911 C904 1.409 . S
C911 C910 1.362 . S
H912 C918 0.930 . S
H913 C921 0.930 . S
H914 C922 0.930 . S
H915 C923 0.930 . S
H916 C926 0.930 . S
H917 C927 0.930 . S
C918 H912 0.930 . S
C918 C919 1.355 . S
C918 C920 1.415 . S
C919 C918 1.355 . S
C919 C921 1.419 . S
C920 C918 1.415 . S
C920 C925 1.425 . S
C920 C927 1.409 . S
C921 H913 0.930 . S
C921 C919 1.419 . S
C921 C922 1.362 . S
C922 H914 0.930 . S
C922 C921 1.362 . S
C922 C925 1.409 . S
C923 H915 0.930 . S
C923 C924 1.355 . S
C923 C925 1.415 . S
C924 C923 1.355 . S
C924 C926 1.419 . S
C925 C920 1.425 . S
C925 C922 1.409 . S
C925 C923 1.415 . S
C926 H916 0.930 . S
C926 C924 1.419 . S
C926 C927 1.362 . S
C927 H917 0.930 . S
C927 C920 1.409 . S
C927 C926 1.362 . S
H928 C934 0.930 . S
H929 C937 0.930 . S
H930 C938 0.930 . S
H931 C939 0.930 . S
H932 C942 0.930 . S
H933 C943 0.930 . S
C934 H928 0.930 . S
C934 C935 1.355 . S
C934 C936 1.415 . S
C935 C934 1.355 . S
C935 C937 1.419 . S
C936 C934 1.415 . S
C936 C941 1.425 . S
C936 C943 1.409 . S
C937 H929 0.930 . S
C937 C935 1.419 . S
C937 C938 1.362 . S
C938 H930 0.930 . S
C938 C937 1.362 . S
C938 C941 1.409 . S
C939 H931 0.930 . S
C939 C940 1.355 . S
C939 C941 1.415 . S
C940 C939 1.355 . S
C940 C942 1.419 . S
C941 C936 1.425 . S
C941 C938 1.409 . S
C941 C939 1.415 . S
C942 H932 0.930 . S
C942 C940 1.419 . S
C942 C943 1.362 . S
C943 H933 0.930 . S
C943 C936 1.409 . S
C943 C942 1.362 . S
H944 C950 0.930 . S
H945 C953 0.930 . S
H946 C954 0.930 . S
H947 C955 0.930 . S
H948 C958 0.930 . S
H949 C959 0.930 . S
C950 H944 0.930 . S
C950 C951 1.355 . S
C950 C952 1.415 . S
C951 C950 1.355 . S
C951 C953 1.419 . S
C952 C950 1.415 . S
C952 C957 1.425 1_655 S
C952 C959 1.409 1_655 S
C953 H945 0.930 . S
C953 C951 1.419 . S
C953 C954 1.362 . S
C954 H946 0.930 . S
C954 C953 1.362 . S
C954 C957 1.409 1_655 S
C955 H947 0.930 . S
C955 C956 1.355 . S
C955 C957 1.415 . S
C956 C955 1.355 . S
C956 C958 1.419 . S
C957 C952 1.425 1_455 S
C957 C954 1.409 1_455 S
C957 C955 1.415 . S
C958 H948 0.930 . S
C958 C956 1.419 . S
C958 C959 1.362 . S
C959 H949 0.930 . S
C959 C952 1.409 1_455 S
C959 C958 1.362 . S
H960 C966 0.930 . S
H961 C969 0.930 . S
H962 C970 0.930 . S
H963 C971 0.930 . S
H964 C974 0.930 . S
H965 C975 0.930 . S
C966 H960 0.930 . S
C966 C967 1.355 . S
C966 C968 1.415 . S
C967 C966 1.355 . S
C967 C969 1.419 . S
C968 C966 1.415 . S
C968 C973 1.425 . S
C968 C975 1.409 . S
C969 H961 0.930 . S
C969 C967 1.419 . S
C969 C970 1.362 . S
C970 H962 0.930 . S
C970 C969 1.362 . S
C970 C973 1.409 . S
C971 H963 0.930 . S
C971 C972 1.355 . S
C971 C973 1.415 . S
C972 C971 1.355 . S
C972 C974 1.419 . S
C973 C968 1.425 . S
C973 C970 1.409 . S
C973 C971 1.415 . S
C974 H964 0.930 . S
C974 C972 1.419 . S
C974 C975 1.362 . S
C975 H965 0.930 . S
C975 C968 1.409 . S
C975 C974 1.362 . S
H976 C982 0.930 . S
H977 C985 0.930 . S
H978 C986 0.930 . S
H979 C987 0.930 . S
H980 C990 0.930 . S
H981 C991 0.930 1_554 S
C982 H976 0.930 . S
C982 C983 1.355 . S
C982 C984 1.415 . S
C983 C982 1.355 . S
C983 C985 1.419 . S
C984 C982 1.415 . S
C984 C989 1.425 . S
C984 C991 1.409 . S
C985 H977 0.930 . S
C985 C983 1.419 . S
C985 C986 1.362 . S
C986 H978 0.930 . S
C986 C985 1.362 . S
C986 C989 1.409 . S
C987 H979 0.930 . S
C987 C988 1.355 . S
C987 C989 1.415 . S
C988 C987 1.355 . S
C988 C990 1.419 . S
C989 C984 1.425 . S
C989 C986 1.409 . S
C989 C987 1.415 . S
C990 H980 0.930 . S
C990 C988 1.419 . S
C990 C991 1.362 . S
C991 H981 0.930 1_556 S
C991 C984 1.409 . S
C991 C990 1.362 . S
H992 C998 0.930 . S
H993 C1001 0.930 . S
H994 C1002 0.930 . S
H995 C1003 0.930 . S
H996 C1006 0.930 . S
H997 C1007 0.930 . S
C998 H992 0.930 . S
C998 C999 1.355 . S
C998 C1000 1.415 . S
C999 C998 1.355 . S
C999 C1001 1.419 . S
C1000 C998 1.415 . S
C1000 C1005 1.425 . S
C1000 C1007 1.409 . S
C1001 H993 0.930 . S
C1001 C999 1.419 . S
C1001 C1002 1.362 . S
C1002 H994 0.930 . S
C1002 C1001 1.362 . S
C1002 C1005 1.409 . S
C1003 H995 0.930 . S
C1003 C1004 1.355 . S
C1003 C1005 1.415 . S
C1004 C1003 1.355 . S
C1004 C1006 1.419 . S
C1005 C1000 1.425 . S
C1005 C1002 1.409 . S
C1005 C1003 1.415 . S
C1006 H996 0.930 . S
C1006 C1004 1.419 . S
C1006 C1007 1.362 . S
C1007 H997 0.930 . S
C1007 C1000 1.409 . S
C1007 C1006 1.362 . S
H1008 C1014 0.930 . S
H1009 C1017 0.930 . S
H1010 C1018 0.930 . S
H1011 C1019 0.930 . S
H1012 C1022 0.930 . S
H1013 C1023 0.930 . S
C1014 H1008 0.930 . S
C1014 C1015 1.355 . S
C1014 C1016 1.415 . S
C1015 C1014 1.355 . S
C1015 C1017 1.419 . S
C1016 C1014 1.415 . S
C1016 C1021 1.425 . S
C1016 C1023 1.409 . S
C1017 H1009 0.930 . S
C1017 C1015 1.419 . S
C1017 C1018 1.362 . S
C1018 H1010 0.930 . S
C1018 C1017 1.362 . S
C1018 C1021 1.409 . S
C1019 H1011 0.930 . S
C1019 C1020 1.355 . S
C1019 C1021 1.415 . S
C1020 C1019 1.355 . S
C1020 C1022 1.419 . S
C1021 C1016 1.425 . S
C1021 C1018 1.409 . S
C1021 C1019 1.415 . S
C1022 H1012 0.930 . S
C1022 C1020 1.419 . S
C1022 C1023 1.362 . S
C1023 H1013 0.930 . S
C1023 C1016 1.409 . S
C1023 C1022 1.362 . S
H1024 C1030 0.930 . S
H1025 C1033 0.930 . S
H1026 C1034 0.930 . S
H1027 C1035 0.930 . S
H1028 C1038 0.930 . S
H1029 C1039 0.930 . S
C1030 H1024 0.930 . S
C1030 C1031 1.355 . S
C1030 C1032 1.415 . S
C1031 C1030 1.355 . S
C1031 C1033 1.419 . S
C1032 C1030 1.415 . S
C1032 C1037 1.425 . S
C1032 C1039 1.409 . S
C1033 H1025 0.930 . S
C1033 C1031 1.419 . S
C1033 C1034 1.362 . S
C1034 H1026 0.930 . S
C1034 C1033 1.362 . S
C1034 C1037 1.409 . S
C1035 H1027 0.930 . S
C1035 C1036 1.355 . S
C1035 C1037 1.415 . S
C1036 C1035 1.355 . S
C1036 C1038 1.419 . S
C1037 C1032 1.425 . S
C1037 C1034 1.409 . S
C1037 C1035 1.415 . S
C1038 H1028 0.930 . S
C1038 C1036 1.419 . S
C1038 C1039 1.362 . S
C1039 H1029 0.930 . S
C1039 C1032 1.409 . S
C1039 C1038 1.362 . S
H1040 C1046 0.930 . S
H1041 C1049 0.930 . S
H1042 C1050 0.930 . S
H1043 C1051 0.930 . S
H1044 C1054 0.930 . S
H1045 C1055 0.930 . S
C1046 H1040 0.930 . S
C1046 C1047 1.355 . S
C1046 C1048 1.415 . S
C1047 C1046 1.355 . S
C1047 C1049 1.419 . S
C1048 C1046 1.415 . S
C1048 C1053 1.425 1_655 S
C1048 C1055 1.409 1_655 S
C1049 H1041 0.930 . S
C1049 C1047 1.419 . S
C1049 C1050 1.362 . S
C1050 H1042 0.930 . S
C1050 C1049 1.362 . S
C1050 C1053 1.409 1_655 S
C1051 H1043 0.930 . S
C1051 C1052 1.355 . S
C1051 C1053 1.415 . S
C1052 C1051 1.355 . S
C1052 C1054 1.419 . S
C1053 C1048 1.425 1_455 S
C1053 C1050 1.409 1_455 S
C1053 C1051 1.415 . S
C1054 H1044 0.930 . S
C1054 C1052 1.419 . S
C1054 C1055 1.362 . S
C1055 H1045 0.930 . S
C1055 C1048 1.409 1_455 S
C1055 C1054 1.362 . S
H1056 C1062 0.930 . S
H1057 C1065 0.930 . S
H1058 C1066 0.930 . S
H1059 C1067 0.930 . S
H1060 C1070 0.930 . S
H1061 C1071 0.930 . S
C1062 H1056 0.930 . S
C1062 C1063 1.355 . S
C1062 C1064 1.415 . S
C1063 C1062 1.355 . S
C1063 C1065 1.419 . S
C1064 C1062 1.415 . S
C1064 C1069 1.425 . S
C1064 C1071 1.409 . S
C1065 H1057 0.930 . S
C1065 C1063 1.419 . S
C1065 C1066 1.362 . S
C1066 H1058 0.930 . S
C1066 C1065 1.362 . S
C1066 C1069 1.409 . S
C1067 H1059 0.930 . S
C1067 C1068 1.355 . S
C1067 C1069 1.415 . S
C1068 C1067 1.355 . S
C1068 C1070 1.419 . S
C1069 C1064 1.425 . S
C1069 C1066 1.409 . S
C1069 C1067 1.415 . S
C1070 H1060 0.930 . S
C1070 C1068 1.419 . S
C1070 C1071 1.362 . S
C1071 H1061 0.930 . S
C1071 C1064 1.409 . S
C1071 C1070 1.362 . S
H1072 C1078 0.930 . S
H1073 C1081 0.930 . S
H1074 C1082 0.930 . S
H1075 C1083 0.930 . S
H1076 C1086 0.930 . S
H1077 C1087 0.930 . S
C1078 H1072 0.930 . S
C1078 C1079 1.355 . S
C1078 C1080 1.415 . S
C1079 C1078 1.355 . S
C1079 C1081 1.419 . S
C1080 C1078 1.415 . S
C1080 C1085 1.425 . S
C1080 C1087 1.409 . S
C1081 H1073 0.930 . S
C1081 C1079 1.419 . S
C1081 C1082 1.362 . S
C1082 H1074 0.930 . S
C1082 C1081 1.362 . S
C1082 C1085 1.409 . S
C1083 H1075 0.930 . S
C1083 C1084 1.355 . S
C1083 C1085 1.415 . S
C1084 C1083 1.355 . S
C1084 C1086 1.419 . S
C1085 C1080 1.425 . S
C1085 C1082 1.409 . S
C1085 C1083 1.415 . S
C1086 H1076 0.930 . S
C1086 C1084 1.419 . S
C1086 C1087 1.362 . S
C1087 H1077 0.930 . S
C1087 C1080 1.409 . S
C1087 C1086 1.362 . S
H1088 C1094 0.930 . S
H1089 C1097 0.930 . S
H1090 C1098 0.930 . S
H1091 C1099 0.930 . S
H1092 C1102 0.930 . S
H1093 C1103 0.930 . S
C1094 H1088 0.930 . S
C1094 C1095 1.355 . S
C1094 C1096 1.415 . S
C1095 C1094 1.355 . S
C1095 C1097 1.419 . S
C1096 C1094 1.415 . S
C1096 C1101 1.425 . S
C1096 C1103 1.409 . S
C1097 H1089 0.930 . S
C1097 C1095 1.419 . S
C1097 C1098 1.362 . S
C1098 H1090 0.930 . S
C1098 C1097 1.362 . S
C1098 C1101 1.409 . S
C1099 H1091 0.930 . S
C1099 C1100 1.355 . S
C1099 C1101 1.415 . S
C1100 C1099 1.355 . S
C1100 C1102 1.419 . S
C1101 C1096 1.425 . S
C1101 C1098 1.409 . S
C1101 C1099 1.415 . S
C1102 H1092 0.930 . S
C1102 C1100 1.419 . S
C1102 C1103 1.362 . S
C1103 H1093 0.930 . S
C1103 C1096 1.409 . S
C1103 C1102 1.362 . S
H1104 C1110 0.930 . S
H1105 C1113 0.930 . S
H1106 C1114 0.930 . S
H1107 C1115 0.930 . S
H1108 C1118 0.930 . S
H1109 C1119 0.930 . S
C1110 H1104 0.930 . S
C1110 C1111 1.355 . S
C1110 C1112 1.415 . S
C1111 C1110 1.355 . S
C1111 C1113 1.419 . S
C1112 C1110 1.415 . S
C1112 C1117 1.425 . S
C1112 C1119 1.409 . S
C1113 H1105 0.930 . S
C1113 C1111 1.419 . S
C1113 C1114 1.362 . S
C1114 H1106 0.930 . S
C1114 C1113 1.362 . S
C1114 C1117 1.409 . S
C1115 H1107 0.930 . S
C1115 C1116 1.355 . S
C1115 C1117 1.415 . S
C1116 C1115 1.355 . S
C1116 C1118 1.419 . S
C1117 C1112 1.425 . S
C1117 C1114 1.409 . S
C1117 C1115 1.415 . S
C1118 H1108 0.930 . S
C1118 C1116 1.419 . S
C1118 C1119 1.362 . S
C1119 H1109 0.930 . S
C1119 C1112 1.409 . S
C1119 C1118 1.362 . S
H1120 C1126 0.930 . S
H1121 C1129 0.930 . S
H1122 C1130 0.930 . S
H1123 C1131 0.930 . S
H1124 C1134 0.930 1_554 S
H1125 C1135 0.930 1_554 S
C1126 H1120 0.930 . S
C1126 C1127 1.355 . S
C1126 C1128 1.415 . S
C1127 C1126 1.355 . S
C1127 C1129 1.419 . S
C1128 C1126 1.415 . S
C1128 C1133 1.425 . S
C1128 C1135 1.409 . S
C1129 H1121 0.930 . S
C1129 C1127 1.419 . S
C1129 C1130 1.362 . S
C1130 H1122 0.930 . S
C1130 C1129 1.362 . S
C1130 C1133 1.409 . S
C1131 H1123 0.930 . S
C1131 C1132 1.355 . S
C1131 C1133 1.415 . S
C1132 C1131 1.355 . S
C1132 C1134 1.419 . S
C1133 C1128 1.425 . S
C1133 C1130 1.409 . S
C1133 C1131 1.415 . S
C1134 H1124 0.930 1_556 S
C1134 C1132 1.419 . S
C1134 C1135 1.362 . S
C1135 H1125 0.930 1_556 S
C1135 C1128 1.409 . S
C1135 C1134 1.362 . S
H1136 C1142 0.930 . S
H1137 C1145 0.930 . S
H1138 C1146 0.930 . S
H1139 C1147 0.930 . S
H1140 C1150 0.930 . S
H1141 C1151 0.930 . S
C1142 H1136 0.930 . S
C1142 C1143 1.355 . S
C1142 C1144 1.415 . S
C1143 C1142 1.355 . S
C1143 C1145 1.419 . S
C1144 C1142 1.415 . S
C1144 C1149 1.425 1_655 S
C1144 C1151 1.409 1_655 S
C1145 H1137 0.930 . S
C1145 C1143 1.419 . S
C1145 C1146 1.362 . S
C1146 H1138 0.930 . S
C1146 C1145 1.362 . S
C1146 C1149 1.409 1_655 S
C1147 H1139 0.930 . S
C1147 C1148 1.355 . S
C1147 C1149 1.415 . S
C1148 C1147 1.355 . S
C1148 C1150 1.419 . S
C1149 C1144 1.425 1_455 S
C1149 C1146 1.409 1_455 S
C1149 C1147 1.415 . S
C1150 H1140 0.930 . S
C1150 C1148 1.419 . S
C1150 C1151 1.362 . S
C1151 H1141 0.930 . S
C1151 C1144 1.409 1_455 S
C1151 C1150 1.362 . S
H1152 C1158 0.930 . S
H1153 C1161 0.930 . S
H1154 C1162 0.930 . S
H1155 C1163 0.930 . S
H1156 C1166 0.930 . S
H1157 C1167 0.930 . S
C1158 H1152 0.930 . S
C1158 C1159 1.355 . S
C1158 C1160 1.415 . S
C1159 C1158 1.355 . S
C1159 C1161 1.419 . S
C1160 C1158 1.415 . S
C1160 C1165 1.425 1_655 S
C1160 C1167 1.409 1_655 S
C1161 H1153 0.930 . S
C1161 C1159 1.419 . S
C1161 C1162 1.362 . S
C1162 H1154 0.930 . S
C1162 C1161 1.362 . S
C1162 C1165 1.409 1_655 S
C1163 H1155 0.930 . S
C1163 C1164 1.355 . S
C1163 C1165 1.415 . S
C1164 C1163 1.355 . S
C1164 C1166 1.419 . S
C1165 C1160 1.425 1_455 S
C1165 C1162 1.409 1_455 S
C1165 C1163 1.415 . S
C1166 H1156 0.930 . S
C1166 C1164 1.419 . S
C1166 C1167 1.362 . S
C1167 H1157 0.930 . S
C1167 C1160 1.409 1_455 S
C1167 C1166 1.362 . S
H1168 C1174 0.930 . S
H1169 C1177 0.930 1_556 S
H1170 C1178 0.930 1_556 S
H1171 C1179 0.930 . S
H1172 C1182 0.930 . S
H1173 C1183 0.930 . S
C1174 H1168 0.930 . S
C1174 C1175 1.355 . S
C1174 C1176 1.415 . S
C1175 C1174 1.355 . S
C1175 C1177 1.419 . S
C1176 C1174 1.415 . S
C1176 C1181 1.425 . S
C1176 C1183 1.409 . S
C1177 H1169 0.930 1_554 S
C1177 C1175 1.419 . S
C1177 C1178 1.362 . S
C1178 H1170 0.930 1_554 S
C1178 C1177 1.362 . S
C1178 C1181 1.409 . S
C1179 H1171 0.930 . S
C1179 C1180 1.355 . S
C1179 C1181 1.415 . S
C1180 C1179 1.355 . S
C1180 C1182 1.419 . S
C1181 C1176 1.425 . S
C1181 C1178 1.409 . S
C1181 C1179 1.415 . S
C1182 H1172 0.930 . S
C1182 C1180 1.419 . S
C1182 C1183 1.362 . S
C1183 H1173 0.930 . S
C1183 C1176 1.409 . S
C1183 C1182 1.362 . S
H1184 C1190 0.930 . S
H1185 C1193 0.930 . S
H1186 C1194 0.930 . S
H1187 C1195 0.930 . S
H1188 C1198 0.930 . S
H1189 C1199 0.930 . S
C1190 H1184 0.930 . S
C1190 C1191 1.355 . S
C1190 C1192 1.415 . S
C1191 C1190 1.355 . S
C1191 C1193 1.419 . S
C1192 C1190 1.415 . S
C1192 C1197 1.425 . S
C1192 C1199 1.409 . S
C1193 H1185 0.930 . S
C1193 C1191 1.419 . S
C1193 C1194 1.362 . S
C1194 H1186 0.930 . S
C1194 C1193 1.362 . S
C1194 C1197 1.409 . S
C1195 H1187 0.930 . S
C1195 C1196 1.355 . S
C1195 C1197 1.415 . S
C1196 C1195 1.355 . S
C1196 C1198 1.419 . S
C1197 C1192 1.425 . S
C1197 C1194 1.409 . S
C1197 C1195 1.415 . S
C1198 H1188 0.930 . S
C1198 C1196 1.419 . S
C1198 C1199 1.362 . S
C1199 H1189 0.930 . S
C1199 C1192 1.409 . S
C1199 C1198 1.362 . S
H1200 C1206 0.930 . S
H1201 C1209 0.930 . S
H1202 C1210 0.930 . S
H1203 C1211 0.930 . S
H1204 C1214 0.930 . S
H1205 C1215 0.930 . S
C1206 H1200 0.930 . S
C1206 C1207 1.355 . S
C1206 C1208 1.415 . S
C1207 C1206 1.355 . S
C1207 C1209 1.419 . S
C1208 C1206 1.415 . S
C1208 C1213 1.425 . S
C1208 C1215 1.409 . S
C1209 H1201 0.930 . S
C1209 C1207 1.419 . S
C1209 C1210 1.362 . S
C1210 H1202 0.930 . S
C1210 C1209 1.362 . S
C1210 C1213 1.409 . S
C1211 H1203 0.930 . S
C1211 C1212 1.355 . S
C1211 C1213 1.415 . S
C1212 C1211 1.355 . S
C1212 C1214 1.419 . S
C1213 C1208 1.425 . S
C1213 C1210 1.409 . S
C1213 C1211 1.415 . S
C1214 H1204 0.930 . S
C1214 C1212 1.419 . S
C1214 C1215 1.362 . S
C1215 H1205 0.930 . S
C1215 C1208 1.409 . S
C1215 C1214 1.362 . S
H1216 C1222 0.930 . S
H1217 C1225 0.930 . S
H1218 C1226 0.930 . S
H1219 C1227 0.930 . S
H1220 C1230 0.930 . S
H1221 C1231 0.930 . S
C1222 H1216 0.930 . S
C1222 C1223 1.355 . S
C1222 C1224 1.415 . S
C1223 C1222 1.355 . S
C1223 C1225 1.419 . S
C1224 C1222 1.415 . S
C1224 C1229 1.425 . S
C1224 C1231 1.409 . S
C1225 H1217 0.930 . S
C1225 C1223 1.419 . S
C1225 C1226 1.362 . S
C1226 H1218 0.930 . S
C1226 C1225 1.362 . S
C1226 C1229 1.409 . S
C1227 H1219 0.930 . S
C1227 C1228 1.355 . S
C1227 C1229 1.415 . S
C1228 C1227 1.355 . S
C1228 C1230 1.419 . S
C1229 C1224 1.425 . S
C1229 C1226 1.409 . S
C1229 C1227 1.415 . S
C1230 H1220 0.930 . S
C1230 C1228 1.419 . S
C1230 C1231 1.362 . S
C1231 H1221 0.930 . S
C1231 C1224 1.409 . S
C1231 C1230 1.362 . S
H1232 C1238 0.930 . S
H1233 C1241 0.930 1_556 S
H1234 C1242 0.930 . S
H1235 C1243 0.930 . S
H1236 C1246 0.930 . S
H1237 C1247 0.930 . S
C1238 H1232 0.930 . S
C1238 C1239 1.355 . S
C1238 C1240 1.415 . S
C1239 C1238 1.355 . S
C1239 C1241 1.419 . S
C1240 C1238 1.415 . S
C1240 C1245 1.425 . S
C1240 C1247 1.409 . S
C1241 H1233 0.930 1_554 S
C1241 C1239 1.419 . S
C1241 C1242 1.362 . S
C1242 H1234 0.930 . S
C1242 C1241 1.362 . S
C1242 C1245 1.409 . S
C1243 H1235 0.930 . S
C1243 C1244 1.355 . S
C1243 C1245 1.415 . S
C1244 C1243 1.355 . S
C1244 C1246 1.419 . S
C1245 C1240 1.425 . S
C1245 C1242 1.409 . S
C1245 C1243 1.415 . S
C1246 H1236 0.930 . S
C1246 C1244 1.419 . S
C1246 C1247 1.362 . S
C1247 H1237 0.930 . S
C1247 C1240 1.409 . S
C1247 C1246 1.362 . S
H1248 C1254 0.930 . S
H1249 C1257 0.930 . S
H1250 C1258 0.930 . S
H1251 C1259 0.930 . S
H1252 C1262 0.930 . S
H1253 C1263 0.930 . S
C1254 H1248 0.930 . S
C1254 C1255 1.355 . S
C1254 C1256 1.415 . S
C1255 C1254 1.355 . S
C1255 C1257 1.419 . S
C1256 C1254 1.415 . S
C1256 C1261 1.425 . S
C1256 C1263 1.409 . S
C1257 H1249 0.930 . S
C1257 C1255 1.419 . S
C1257 C1258 1.362 . S
C1258 H1250 0.930 . S
C1258 C1257 1.362 . S
C1258 C1261 1.409 . S
C1259 H1251 0.930 . S
C1259 C1260 1.355 . S
C1259 C1261 1.415 . S
C1260 C1259 1.355 . S
C1260 C1262 1.419 . S
C1261 C1256 1.425 . S
C1261 C1258 1.409 . S
C1261 C1259 1.415 . S
C1262 H1252 0.930 . S
C1262 C1260 1.419 . S
C1262 C1263 1.362 . S
C1263 H1253 0.930 . S
C1263 C1256 1.409 . S
C1263 C1262 1.362 . S
H1264 C1270 0.930 . S
H1265 C1273 0.930 . S
H1266 C1274 0.930 . S
H1267 C1275 0.930 . S
H1268 C1278 0.930 . S
H1269 C1279 0.930 . S
C1270 H1264 0.930 . S
C1270 C1271 1.355 . S
C1270 C1272 1.415 . S
C1271 C1270 1.355 . S
C1271 C1273 1.419 . S
C1272 C1270 1.415 . S
C1272 C1277 1.425 . S
C1272 C1279 1.409 . S
C1273 H1265 0.930 . S
C1273 C1271 1.419 . S
C1273 C1274 1.362 . S
C1274 H1266 0.930 . S
C1274 C1273 1.362 . S
C1274 C1277 1.409 . S
C1275 H1267 0.930 . S
C1275 C1276 1.355 . S
C1275 C1277 1.415 . S
C1276 C1275 1.355 . S
C1276 C1278 1.419 . S
C1277 C1272 1.425 . S
C1277 C1274 1.409 . S
C1277 C1275 1.415 . S
C1278 H1268 0.930 . S
C1278 C1276 1.419 . S
C1278 C1279 1.362 . S
C1279 H1269 0.930 . S
C1279 C1272 1.409 . S
C1279 C1278 1.362 . S
H1280 C1286 0.930 . S
H1281 C1289 0.930 . S
H1282 C1290 0.930 . S
H1283 C1291 0.930 . S
H1284 C1294 0.930 . S
H1285 C1295 0.930 . S
C1286 H1280 0.930 . S
C1286 C1287 1.355 . S
C1286 C1288 1.415 . S
C1287 C1286 1.355 . S
C1287 C1289 1.419 . S
C1288 C1286 1.415 . S
C1288 C1293 1.425 . S
C1288 C1295 1.409 . S
C1289 H1281 0.930 . S
C1289 C1287 1.419 . S
C1289 C1290 1.362 . S
C1290 H1282 0.930 . S
C1290 C1289 1.362 . S
C1290 C1293 1.409 . S
C1291 H1283 0.930 . S
C1291 C1292 1.355 . S
C1291 C1293 1.415 . S
C1292 C1291 1.355 . S
C1292 C1294 1.419 . S
C1293 C1288 1.425 . S
C1293 C1290 1.409 . S
C1293 C1291 1.415 . S
C1294 H1284 0.930 . S
C1294 C1292 1.419 . S
C1294 C1295 1.362 . S
C1295 H1285 0.930 . S
C1295 C1288 1.409 . S
C1295 C1294 1.362 . S
H1296 C1302 0.930 . S
H1297 C1305 0.930 . S
H1298 C1306 0.930 . S
H1299 C1307 0.930 . S
H1300 C1310 0.930 . S
H1301 C1311 0.930 . S
C1302 H1296 0.930 . S
C1302 C1303 1.355 . S
C1302 C1304 1.415 . S
C1303 C1302 1.355 . S
C1303 C1305 1.419 . S
C1304 C1302 1.415 . S
C1304 C1309 1.425 . S
C1304 C1311 1.409 . S
C1305 H1297 0.930 . S
C1305 C1303 1.419 . S
C1305 C1306 1.362 . S
C1306 H1298 0.930 . S
C1306 C1305 1.362 . S
C1306 C1309 1.409 . S
C1307 H1299 0.930 . S
C1307 C1308 1.355 . S
C1307 C1309 1.415 . S
C1308 C1307 1.355 . S
C1308 C1310 1.419 . S
C1309 C1304 1.425 . S
C1309 C1306 1.409 . S
C1309 C1307 1.415 . S
C1310 H1300 0.930 . S
C1310 C1308 1.419 . S
C1310 C1311 1.362 . S
C1311 H1301 0.930 . S
C1311 C1304 1.409 . S
C1311 C1310 1.362 . S
H1312 C1318 0.930 . S
H1313 C1321 0.930 . S
H1314 C1322 0.930 . S
H1315 C1323 0.930 . S
H1316 C1326 0.930 . S
H1317 C1327 0.930 . S
C1318 H1312 0.930 . S
C1318 C1319 1.355 . S
C1318 C1320 1.415 . S
C1319 C1318 1.355 . S
C1319 C1321 1.419 . S
C1320 C1318 1.415 . S
C1320 C1325 1.425 . S
C1320 C1327 1.409 . S
C1321 H1313 0.930 . S
C1321 C1319 1.419 . S
C1321 C1322 1.362 . S
C1322 H1314 0.930 . S
C1322 C1321 1.362 . S
C1322 C1325 1.409 . S
C1323 H1315 0.930 . S
C1323 C1324 1.355 . S
C1323 C1325 1.415 . S
C1324 C1323 1.355 . S
C1324 C1326 1.419 . S
C1325 C1320 1.425 . S
C1325 C1322 1.409 . S
C1325 C1323 1.415 . S
C1326 H1316 0.930 . S
C1326 C1324 1.419 . S
C1326 C1327 1.362 . S
C1327 H1317 0.930 . S
C1327 C1320 1.409 . S
C1327 C1326 1.362 . S
H1328 C1334 0.930 . S
H1329 C1337 0.930 . S
H1330 C1338 0.930 . S
H1331 C1339 0.930 . S
H1332 C1342 0.930 . S
H1333 C1343 0.930 . S
C1334 H1328 0.930 . S
C1334 C1335 1.355 . S
C1334 C1336 1.415 . S
C1335 C1334 1.355 . S
C1335 C1337 1.419 . S
C1336 C1334 1.415 . S
C1336 C1341 1.425 . S
C1336 C1343 1.409 . S
C1337 H1329 0.930 . S
C1337 C1335 1.419 . S
C1337 C1338 1.362 . S
C1338 H1330 0.930 . S
C1338 C1337 1.362 . S
C1338 C1341 1.409 . S
C1339 H1331 0.930 . S
C1339 C1340 1.355 . S
C1339 C1341 1.415 . S
C1340 C1339 1.355 . S
C1340 C1342 1.419 . S
C1341 C1336 1.425 . S
C1341 C1338 1.409 . S
C1341 C1339 1.415 . S
C1342 H1332 0.930 . S
C1342 C1340 1.419 . S
C1342 C1343 1.362 . S
C1343 H1333 0.930 . S
C1343 C1336 1.409 . S
C1343 C1342 1.362 . S
H1344 C1350 0.930 . S
H1345 C1353 0.930 . S
H1346 C1354 0.930 . S
H1347 C1355 0.930 . S
H1348 C1358 0.930 . S
H1349 C1359 0.930 . S
C1350 H1344 0.930 . S
C1350 C1351 1.355 . S
C1350 C1352 1.415 . S
C1351 C1350 1.355 . S
C1351 C1353 1.419 . S
C1352 C1350 1.415 . S
C1352 C1357 1.425 . S
C1352 C1359 1.409 . S
C1353 H1345 0.930 . S
C1353 C1351 1.419 . S
C1353 C1354 1.362 . S
C1354 H1346 0.930 . S
C1354 C1353 1.362 . S
C1354 C1357 1.409 . S
C1355 H1347 0.930 . S
C1355 C1356 1.355 . S
C1355 C1357 1.415 . S
C1356 C1355 1.355 . S
C1356 C1358 1.419 . S
C1357 C1352 1.425 . S
C1357 C1354 1.409 . S
C1357 C1355 1.415 . S
C1358 H1348 0.930 . S
C1358 C1356 1.419 . S
C1358 C1359 1.362 . S
C1359 H1349 0.930 . S
C1359 C1352 1.409 . S
C1359 C1358 1.362 . S
H1360 C1366 0.930 . S
H1361 C1369 0.930 . S
H1362 C1370 0.930 . S
H1363 C1371 0.930 . S
H1364 C1374 0.930 . S
H1365 C1375 0.930 . S
C1366 H1360 0.930 . S
C1366 C1367 1.355 . S
C1366 C1368 1.415 . S
C1367 C1366 1.355 . S
C1367 C1369 1.419 . S
C1368 C1366 1.415 . S
C1368 C1373 1.425 . S
C1368 C1375 1.409 . S
C1369 H1361 0.930 . S
C1369 C1367 1.419 . S
C1369 C1370 1.362 . S
C1370 H1362 0.930 . S
C1370 C1369 1.362 . S
C1370 C1373 1.409 . S
C1371 H1363 0.930 . S
C1371 C1372 1.355 . S
C1371 C1373 1.415 . S
C1372 C1371 1.355 . S
C1372 C1374 1.419 . S
C1373 C1368 1.425 . S
C1373 C1370 1.409 . S
C1373 C1371 1.415 . S
C1374 H1364 0.930 . S
C1374 C1372 1.419 . S
C1374 C1375 1.362 . S
C1375 H1365 0.930 . S
C1375 C1368 1.409 . S
C1375 C1374 1.362 . S
H1376 C1382 0.930 . S
H1377 C1385 0.930 . S
H1378 C1386 0.930 . S
H1379 C1387 0.930 . S
H1380 C1390 0.930 1_556 S
H1381 C1391 0.930 . S
C1382 H1376 0.930 . S
C1382 C1383 1.355 . S
C1382 C1384 1.415 . S
C1383 C1382 1.355 . S
C1383 C1385 1.419 . S
C1384 C1382 1.415 . S
C1384 C1389 1.425 . S
C1384 C1391 1.409 . S
C1385 H1377 0.930 . S
C1385 C1383 1.419 . S
C1385 C1386 1.362 . S
C1386 H1378 0.930 . S
C1386 C1385 1.362 . S
C1386 C1389 1.409 . S
C1387 H1379 0.930 . S
C1387 C1388 1.355 . S
C1387 C1389 1.415 . S
C1388 C1387 1.355 . S
C1388 C1390 1.419 . S
C1389 C1384 1.425 . S
C1389 C1386 1.409 . S
C1389 C1387 1.415 . S
C1390 H1380 0.930 1_554 S
C1390 C1388 1.419 . S
C1390 C1391 1.362 . S
C1391 H1381 0.930 . S
C1391 C1384 1.409 . S
C1391 C1390 1.362 . S
H1392 C1398 0.930 . S
H1393 C1401 0.930 1_554 S
H1394 C1402 0.930 . S
H1395 C1403 0.930 . S
H1396 C1406 0.930 . S
H1397 C1407 0.930 . S
C1398 H1392 0.930 . S
C1398 C1399 1.355 . S
C1398 C1400 1.415 . S
C1399 C1398 1.355 . S
C1399 C1401 1.419 . S
C1400 C1398 1.415 . S
C1400 C1405 1.425 . S
C1400 C1407 1.409 . S
C1401 H1393 0.930 1_556 S
C1401 C1399 1.419 . S
C1401 C1402 1.362 . S
C1402 H1394 0.930 . S
C1402 C1401 1.362 . S
C1402 C1405 1.409 . S
C1403 H1395 0.930 . S
C1403 C1404 1.355 . S
C1403 C1405 1.415 . S
C1404 C1403 1.355 . S
C1404 C1406 1.419 . S
C1405 C1400 1.425 . S
C1405 C1402 1.409 . S
C1405 C1403 1.415 . S
C1406 H1396 0.930 . S
C1406 C1404 1.419 . S
C1406 C1407 1.362 . S
C1407 H1397 0.930 . S
C1407 C1400 1.409 . S
C1407 C1406 1.362 . S
H1408 C1414 0.930 . S
H1409 C1417 0.930 . S
H1410 C1418 0.930 . S
H1411 C1419 0.930 . S
H1412 C1422 0.930 . S
H1413 C1423 0.930 . S
C1414 H1408 0.930 . S
C1414 C1415 1.355 . S
C1414 C1416 1.415 . S
C1415 C1414 1.355 . S
C1415 C1417 1.419 . S
C1416 C1414 1.415 . S
C1416 C1421 1.425 . S
C1416 C1423 1.409 . S
C1417 H1409 0.930 . S
C1417 C1415 1.419 . S
C1417 C1418 1.362 . S
C1418 H1410 0.930 . S
C1418 C1417 1.362 . S
C1418 C1421 1.409 . S
C1419 H1411 0.930 . S
C1419 C1420 1.355 . S
C1419 C1421 1.415 . S
C1420 C1419 1.355 . S
C1420 C1422 1.419 . S
C1421 C1416 1.425 . S
C1421 C1418 1.409 . S
C1421 C1419 1.415 . S
C1422 H1412 0.930 . S
C1422 C1420 1.419 . S
C1422 C1423 1.362 . S
C1423 H1413 0.930 . S
C1423 C1416 1.409 . S
C1423 C1422 1.362 . S
H1424 C1430 0.930 . S
H1425 C1433 0.930 . S
H1426 C1434 0.930 . S
H1427 C1435 0.930 . S
H1428 C1438 0.930 . S
H1429 C1439 0.930 . S
C1430 H1424 0.930 . S
C1430 C1431 1.355 . S
C1430 C1432 1.415 . S
C1431 C1430 1.355 . S
C1431 C1433 1.419 . S
C1432 C1430 1.415 . S
C1432 C1437 1.425 . S
C1432 C1439 1.409 . S
C1433 H1425 0.930 . S
C1433 C1431 1.419 . S
C1433 C1434 1.362 . S
C1434 H1426 0.930 . S
C1434 C1433 1.362 . S
C1434 C1437 1.409 . S
C1435 H1427 0.930 . S
C1435 C1436 1.355 . S
C1435 C1437 1.415 . S
C1436 C1435 1.355 . S
C1436 C1438 1.419 . S
C1437 C1432 1.425 . S
C1437 C1434 1.409 . S
C1437 C1435 1.415 . S
C1438 H1428 0.930 . S
C1438 C1436 1.419 . S
C1438 C1439 1.362 . S
C1439 H1429 0.930 . S
C1439 C1432 1.409 . S
C1439 C1438 1.362 . S
C423 C83 1.475 . S
C428 C5 1.462 . S
C439 C18 1.433 . S
C444 C96 1.412 . S
C455 C57 1.447 . S
C460 C31 1.408 . S
C471 C44 1.481 . S
C476 C70 1.449 . S
C487 C109 1.443 . S
C492 C187 1.482 . S
C503 C200 1.468 . S
C508 C122 1.470 . S
C519 C135 1.480 . S
C524 C161 1.449 . S
C535 C174 1.477 . S
C540 C148 1.420 . S
C551 C213 1.420 . S
C556 C291 1.477 . S
C567 C226 1.429 . S
C572 C304 1.481 . S
C583 C265 1.440 . S
C588 C239 1.409 . S
C599 C278 1.413 . S
C604 C252 1.432 . S
C615 C317 1.421 . S
C620 C395 1.421 . S
C631 C330 1.409 . S
C636 C408 1.441 . S
C647 C369 1.414 . S
C652 C343 1.430 . S
C663 C356 1.411 . S
C668 C382 1.436 . S
C679 C0 1.494 1_556 S
C684 C91 1.489 . S
C695 C52 1.528 1_554 S
C700 C13 1.484 . S
C711 C65 1.488 . S
C716 C26 1.495 . S
C727 C39 1.523 . S
C732 C78 1.477 . S
C743 C104 1.495 1_554 S
C748 C195 1.488 . S
C759 C156 1.492 1_556 S
C764 C117 1.491 . S
C775 C169 1.528 . S
C780 C130 1.487 . S
C791 C182 1.507 . S
C796 C143 1.480 . S
C807 C208 1.484 . S
C812 C299 1.528 . S
C823 C221 1.477 . S
C828 C260 1.515 . S
C839 C273 1.492 . S
C844 C234 1.527 1_556 S
C855 C247 1.481 . S
C860 C286 1.505 1_554 S
C871 C312 1.520 . S
C876 C403 1.476 . S
C887 C364 1.526 . S
C892 C325 1.493 . S
C903 C338 1.494 1_554 S
C908 C377 1.489 . S
C919 C351 1.480 . S
C924 C390 1.526 1_556 S
C935 C400 1.447 . S
C940 C10 1.424 . S
C951 C205 1.449 . S
C956 C23 1.422 . S
C967 C36 1.424 . S
C972 C374 1.446 . S
C983 C49 1.444 . S
C988 C179 1.426 . S
C999 C62 1.430 . S
C1004 C348 1.441 . S
C1015 C75 1.440 . S
C1020 C153 1.430 . S
C1031 C88 1.421 . S
C1036 C322 1.450 . S
C1047 C127 1.420 . S
C1052 C101 1.450 . S
C1063 C296 1.439 . S
C1068 C114 1.431 . S
C1079 C140 1.433 . S
C1084 C270 1.438 . S
C1095 C244 1.424 . S
C1100 C166 1.446 . S
C1111 C218 1.443 . S
C1116 C192 1.427 . S
C1127 C231 1.451 . S
C1132 C413 1.420 . S
C1143 C257 1.436 . S
C1148 C387 1.434 . S
C1159 C283 1.437 . S
C1164 C361 1.434 . S
C1175 C335 1.420 . S
C1180 C309 1.451 . S
C1191 C8 1.076 . S
C1196 C99 1.022 . S
C1207 C21 1.029 . S
C1212 C60 1.034 . S
C1223 C73 1.070 . S
C1228 C34 1.020 . S
C1239 C47 1.051 . S
C1244 C86 1.104 . S
C1255 C203 1.048 . S
C1260 C112 1.021 . S
C1271 C164 1.022 . S
C1276 C125 1.046 . S
C1287 C138 1.037 . S
C1292 C177 1.096 . S
C1303 C190 1.028 . S
C1308 C151 1.088 . S
C1319 C307 1.074 . S
C1324 C216 1.021 . S
C1335 C268 1.020 . S
C1340 C229 1.068 . S
C1351 C281 1.090 . S
C1356 C242 1.030 . S
C1367 C294 1.030 . S
C1372 C255 1.089 . S
C1383 C320 1.106 . S
C1388 C411 1.059 . S
C1399 C333 1.101 . S
C1404 C372 1.045 . S
C1415 C346 1.106 . S
C1420 C385 1.058 . S
C1431 C398 1.097 . S
C1436 C359 1.092 . S
