# Generated by pormake.
# Topology smk, (6)-cn, num edge types: 1
# Building blocks:
#     Node 0, Type 0, BuildingBlock: FUNLAD_clean_sbu_0, # of connection points: 6
#     Node 1, Type 0, BuildingBlock: FUNLAD_clean_sbu_0, # of connection points: 6
#     Node 2, Type 0, BuildingBlock: FUNLAD_clean_sbu_0, # of connection points: 6
#     Node 3, Type 0, BuildingBlock: FUNLAD_clean_sbu_0, # of connection points: 6
#     Node 4, Type 0, BuildingBlock: FUNLAD_clean_sbu_0, # of connection points: 6
#     Node 5, Type 0, BuildingBlock: FUNLAD_clean_sbu_0, # of connection points: 6
#     Edge 6, Type (0, 0), BuildingBlock: XUDNAN_clean_linker_2, # of connection points: 2
#     Edge 7, Type (0, 0), BuildingBlock: XUDNAN_clean_linker_2, # of connection points: 2
#     Edge 8, Type (0, 0), BuildingBlock: XUDNAN_clean_linker_2, # of connection points: 2
#     Edge 9, Type (0, 0), BuildingBlock: XUDNAN_clean_linker_2, # of connection points: 2
#     Edge 10, Type (0, 0), BuildingBlock: XUDNAN_clean_linker_2, # of connection points: 2
#     Edge 11, Type (0, 0), BuildingBlock: XUDNAN_clean_linker_2, # of connection points: 2
#     Edge 12, Type (0, 0), BuildingBlock: XUDNAN_clean_linker_2, # of connection points: 2
#     Edge 13, Type (0, 0), BuildingBlock: XUDNAN_clean_linker_2, # of connection points: 2
#     Edge 14, Type (0, 0), BuildingBlock: XUDNAN_clean_linker_2, # of connection points: 2
#     Edge 15, Type (0, 0), BuildingBlock: XUDNAN_clean_linker_2, # of connection points: 2
#     Edge 16, Type (0, 0), BuildingBlock: XUDNAN_clean_linker_2, # of connection points: 2
#     Edge 17, Type (0, 0), BuildingBlock: XUDNAN_clean_linker_2, # of connection points: 2
#     Edge 18, Type (0, 0), BuildingBlock: XUDNAN_clean_linker_2, # of connection points: 2
#     Edge 19, Type (0, 0), BuildingBlock: XUDNAN_clean_linker_2, # of connection points: 2
#     Edge 20, Type (0, 0), BuildingBlock: XUDNAN_clean_linker_2, # of connection points: 2
#     Edge 21, Type (0, 0), BuildingBlock: XUDNAN_clean_linker_2, # of connection points: 2
#     Edge 22, Type (0, 0), BuildingBlock: XUDNAN_clean_linker_2, # of connection points: 2
#     Edge 23, Type (0, 0), BuildingBlock: XUDNAN_clean_linker_2, # of connection points: 2
# Relax obj value: 0.411
# Max RMSD: 0.247
# Mean RMSD: 0.247
data_MOF--net-smk--node1-FUNLAD_clean_sbu_0--edge1-XUDNAN_clean_linker_2
_symmetry_space_group_name_H-M    P1
_symmetry_Int_Tables_number       1
_symmetry_cell_setting            triclinic
loop_
_symmetry_equiv_pos_as_xyz
'x, y, z'
_cell_length_a     47.954458
_cell_length_b     48.027773
_cell_length_c     15.096656
_cell_angle_alpha  89.904952
_cell_angle_beta   90.396293
_cell_angle_gamma 120.12096
loop_
_atom_site_label
_atom_site_type_symbol
_atom_site_fract_x
_atom_site_fract_y
_atom_site_fract_z
_atom_type_partial_charge
C0 C 0.47398 0.28642 0.41853 0.0
N1 N 0.54463 0.35313 0.58058 0.0
C2 C 0.5645 0.35312 0.51665 0.0
C3 C 0.59177 0.38157 0.49145 0.0
C4 C 0.59932 0.41075 0.53255 0.0
C5 C 0.57881 0.41016 0.59977 0.0
C6 C 0.5514 0.3809 0.62287 0.0
Zn7 Zn 0.50228 0.30993 0.59639 0.0
C8 C 0.44577 0.31923 0.61345 0.0
N9 N 0.41433 0.2186 0.60467 0.0
C10 C 0.39047 0.21042 0.54334 0.0
C11 C 0.41369 0.19625 0.66147 0.0
C12 C 0.38927 0.16406 0.6552 0.0
C13 C 0.36541 0.15459 0.58915 0.0
C14 C 0.36579 0.17837 0.53403 0.0
Zn15 Zn 0.45579 0.26292 0.59891 0.0
O16 O 0.49697 0.30836 0.46245 0.0
C17 C 0.51407 0.25508 0.59559 0.0
O18 O 0.45213 0.26185 0.45792 0.0
H19 H 0.43309 0.20303 0.70877 0.0
H20 H 0.55859 0.33109 0.48231 0.0
H21 H 0.39137 0.22847 0.49865 0.0
O22 O 0.52789 0.28551 0.59162 0.0
O23 O 0.48342 0.23871 0.59547 0.0
H24 H 0.5352 0.38052 0.67296 0.0
O25 O 0.46043 0.2658 0.73882 0.0
O26 O 0.50652 0.31173 0.73111 0.0
O27 O 0.42931 0.28857 0.60787 0.0
O28 O 0.47623 0.33348 0.60617 0.0
C29 C 0.48424 0.28963 0.7767 0.0
H30 H 0.6062 0.3807 0.43783 0.0
H31 H 0.58375 0.43202 0.63374 0.0
H32 H 0.3901 0.14649 0.69852 0.0
H33 H 0.34765 0.17213 0.48288 0.0
C34 C 0.30532 0.48542 0.8713 0.0
N35 N 0.37833 0.54339 0.70743 0.0
C36 C 0.39834 0.54279 0.7711 0.0
C37 C 0.42377 0.57142 0.80474 0.0
C38 C 0.4282 0.6008 0.77364 0.0
C39 C 0.4092 0.60088 0.7027 0.0
C40 C 0.38445 0.57164 0.66947 0.0
Zn41 Zn 0.33324 0.50321 0.69573 0.0
C42 C 0.33642 0.44202 0.71525 0.0
N43 N 0.23951 0.41923 0.69163 0.0
C44 C 0.21973 0.42385 0.74607 0.0
C45 C 0.22869 0.39089 0.64739 0.0
C46 C 0.19657 0.36597 0.65707 0.0
C47 C 0.17578 0.37049 0.713 0.0
C48 C 0.18811 0.39978 0.75868 0.0
Zn49 Zn 0.2855 0.45789 0.68969 0.0
O50 O 0.32887 0.50651 0.82805 0.0
C51 C 0.28239 0.51903 0.66219 0.0
O52 O 0.28326 0.46094 0.83147 0.0
H53 H 0.24487 0.38762 0.60476 0.0
H54 H 0.39281 0.52036 0.80235 0.0
H55 H 0.22849 0.44638 0.78092 0.0
O56 O 0.31264 0.53269 0.67398 0.0
O57 O 0.26555 0.4886 0.66888 0.0
H58 H 0.36843 0.57177 0.61894 0.0
O59 O 0.28927 0.45653 0.55002 0.0
O60 O 0.33713 0.50037 0.5619 0.0
O61 O 0.30598 0.42774 0.70491 0.0
O62 O 0.35262 0.47263 0.71553 0.0
C63 C 0.31462 0.47906 0.51423 0.0
H64 H 0.43772 0.5706 0.86042 0.0
H65 H 0.41197 0.62329 0.67771 0.0
H66 H 0.18804 0.34374 0.62053 0.0
H67 H 0.17351 0.4042 0.80463 0.0
C68 C 0.8134 0.22886 0.69239 0.0
N69 N 0.73876 0.21428 0.85742 0.0
C70 C 0.73785 0.23583 0.80068 0.0
C71 C 0.70885 0.23374 0.77742 0.0
C72 C 0.67992 0.20955 0.81379 0.0
C73 C 0.68124 0.18746 0.87276 0.0
C74 C 0.71119 0.19024 0.89371 0.0
Zn75 Zn 0.7843 0.22052 0.87067 0.0
C76 C 0.78645 0.15975 0.8615 0.0
N77 N 0.88154 0.23909 0.8734 0.0
C78 C 0.90113 0.26359 0.81865 0.0
C79 C 0.89274 0.22209 0.91874 0.0
C80 C 0.925 0.22982 0.90964 0.0
C81 C 0.94558 0.25511 0.85307 0.0
C82 C 0.93292 0.27164 0.80661 0.0
Zn83 Zn 0.83483 0.22977 0.87355 0.0
O84 O 0.78781 0.22403 0.7298 0.0
C85 C 0.83302 0.29048 0.8948 0.0
O86 O 0.83714 0.23312 0.73896 0.0
H87 H 0.8767 0.20252 0.96149 0.0
H88 H 0.75973 0.25449 0.771 0.0
H89 H 0.89201 0.27682 0.78254 0.0
O90 O 0.80299 0.27098 0.88651 0.0
O91 O 0.85241 0.27989 0.88824 0.0
H92 H 0.71233 0.17306 0.93783 0.0
O93 O 0.83153 0.225 0.0077 0.0
O94 O 0.78158 0.216 0.01037 0.0
O95 O 0.81664 0.17966 0.86323 0.0
O96 O 0.76674 0.17024 0.86105 0.0
C97 C 0.80626 0.21855 0.05037 0.0
H98 H 0.70923 0.25073 0.72953 0.0
H99 H 0.65951 0.16839 0.90242 0.0
H100 H 0.93376 0.21644 0.94689 0.0
H101 H 0.94731 0.2906 0.76008 0.0
C102 C 0.63471 0.8702 0.22679 0.0
N103 N 0.57151 0.88268 0.06463 0.0
C104 C 0.55181 0.86613 0.13318 0.0
C105 C 0.52496 0.8687 0.15218 0.0
C106 C 0.51738 0.88806 0.09954 0.0
C107 C 0.53831 0.90564 0.03 0.0
C108 C 0.56548 0.90252 0.01343 0.0
Zn109 Zn 0.60914 0.87381 0.04995 0.0
C110 C 0.67272 0.93164 0.02835 0.0
N111 N 0.68326 0.84835 0.04138 0.0
C112 C 0.67985 0.82517 0.09956 0.0
C113 C 0.70925 0.86279 -0.01304 0.0
C114 C 0.73313 0.85406 -0.00949 0.0
C115 C 0.73023 0.83039 0.0509 0.0
C116 C 0.70297 0.81581 0.10531 0.0
Zn117 Zn 0.64751 0.86024 0.04437 0.0
O118 O 0.61564 0.87773 0.18967 0.0
C119 C 0.58268 0.80245 0.05609 0.0
O120 O 0.65155 0.86254 0.17994 0.0
H121 H 0.71158 0.88121 0.94127 0.0
H122 H 0.55662 0.8504 0.17355 0.0
H123 H 0.65909 0.81385 0.14234 0.0
O124 O 0.57554 0.82447 0.06066 0.0
O125 O 0.61208 0.81014 0.04995 0.0
H126 H 0.58144 0.91558 0.95936 0.0
O127 O 0.64256 0.85723 0.9105 0.0
O128 O 0.60367 0.86917 0.90927 0.0
O129 O 0.68178 0.9108 0.03334 0.0
O130 O 0.64297 0.92266 0.03576 0.0
C131 C 0.62172 0.86106 0.86849 0.0
H132 H 0.51007 0.8553 0.20778 0.0
H133 H 0.5333 0.92089 -0.01217 0.0
H134 H 0.75381 0.86603 0.94744 0.0
H135 H 0.69925 0.79697 0.15145 0.0
C136 C 0.8614 0.60878 0.07176 0.0
N137 N 0.86892 0.54506 0.23492 0.0
C138 C 0.84426 0.5224 0.18476 0.0
C139 C 0.84429 0.4948 0.15702 0.0
C140 C 0.86993 0.49004 0.18073 0.0
C141 C 0.8945 0.5131 0.23577 0.0
C142 C 0.89354 0.54061 0.2622 0.0
Zn143 Zn 0.86955 0.58814 0.24867 0.0
C144 C 0.93614 0.64446 0.23695 0.0
N145 N 0.86778 0.67668 0.25194 0.0
C146 C 0.88667 0.69962 0.19228 0.0
C147 C 0.84374 0.6783 0.29478 0.0
C148 C 0.83607 0.70196 0.2721 0.0
C149 C 0.85348 0.72436 0.20515 0.0
C150 C 0.8801 0.72388 0.16845 0.0
Zn151 Zn 0.86941 0.63461 0.2526 0.0
O152 O 0.86292 0.58714 0.11528 0.0
C153 C 0.80342 0.5766 0.27567 0.0
O154 O 0.86466 0.63351 0.11142 0.0
H155 H 0.82888 0.65984 0.34182 0.0
H156 H 0.82523 0.52644 0.16157 0.0
H157 H 0.90542 0.69779 0.15803 0.0
O158 O 0.82009 0.563 0.26848 0.0
O159 O 0.8172 0.60702 0.2666 0.0
H160 H 0.91309 0.55895 0.30138 0.0
O161 O 0.87324 0.63406 0.39257 0.0
O162 O 0.8754 0.58925 0.38314 0.0
O163 O 0.92185 0.66072 0.24391 0.0
O164 O 0.91937 0.61395 0.23296 0.0
C165 C 0.87479 0.61098 0.42964 0.0
H166 H 0.82515 0.47826 0.11323 0.0
H167 H 0.91462 0.51031 0.25648 0.0
H168 H 0.81526 0.70114 0.30224 0.0
H169 H 0.89476 0.74106 0.11824 0.0
C170 C 0.24578 0.80754 0.51037 0.0
N171 N 0.24104 0.73817 0.3435 0.0
C172 C 0.26854 0.74033 0.37687 0.0
C173 C 0.26973 0.71275 0.39923 0.0
C174 C 0.24194 0.68218 0.39164 0.0
C175 C 0.21414 0.68058 0.3542 0.0
C176 C 0.21439 0.70883 0.32932 0.0
Zn177 Zn 0.23902 0.7804 0.33352 0.0
C178 C 0.17123 0.76734 0.34489 0.0
N179 N 0.23671 0.86887 0.33374 0.0
C180 C 0.21662 0.8712 0.39264 0.0
C181 C 0.26088 0.89567 0.29483 0.0
C182 C 0.26758 0.92634 0.32154 0.0
C183 C 0.24898 0.92951 0.38824 0.0
C184 C 0.2221 0.90132 0.42004 0.0
Zn185 Zn 0.23676 0.82591 0.32989 0.0
O186 O 0.24617 0.78538 0.46653 0.0
C187 C 0.30397 0.83715 0.3082 0.0
O188 O 0.24071 0.82799 0.47106 0.0
H189 H 0.27666 0.89346 0.24813 0.0
H190 H 0.2895 0.76351 0.39004 0.0
H191 H 0.19777 0.84977 0.42382 0.0
O192 O 0.28837 0.80673 0.31267 0.0
O193 O 0.28899 0.85253 0.31849 0.0
H194 H 0.19269 0.70718 0.30236 0.0
O195 O 0.23379 0.82281 0.18974 0.0
O196 O 0.23278 0.77636 0.19923 0.0
O197 O 0.18428 0.79777 0.33642 0.0
O198 O 0.18916 0.75496 0.35065 0.0
C199 C 0.23296 0.79853 0.15273 0.0
H200 H 0.29227 0.71577 0.42427 0.0
H201 H 0.19181 0.65797 0.34716 0.0
H202 H 0.28859 0.94719 0.29486 0.0
H203 H 0.20646 0.9024 0.4696 0.0
H204 H 0.44619 0.24106 0.28545 0.0
H205 H 0.49962 0.34392 0.33859 0.0
H206 H 0.50475 0.35503 0.17957 0.0
H207 H 0.49264 0.24249 0.10823 0.0
H208 H 0.46012 0.21278 0.04095 0.0
H209 H 0.45623 0.21184 0.15957 0.0
H210 H 0.40378 0.21454 0.14458 0.0
H211 H 0.4072 0.21497 0.02567 0.0
H212 H 0.40407 0.2465 0.08104 0.0
H213 H 0.51117 0.35591 0.02169 0.0
H214 H 0.51338 0.3465 0.86296 0.0
H215 H 0.45449 0.24331 0.90455 0.0
C216 C 0.4582 0.26581 0.26307 0.0
C217 C 0.47273 0.29162 0.32363 0.0
C218 C 0.48866 0.3238 0.29284 0.0
C219 C 0.49159 0.33042 0.20277 0.0
C220 C 0.47823 0.30461 0.1445 0.0
C221 C 0.46142 0.27296 0.17253 0.0
C222 C 0.45131 0.25003 0.09451 0.0
C223 C 0.46596 0.228 0.10126 0.0
C224 C 0.41439 0.23035 0.08595 0.0
C225 C 0.4661 0.27391 0.01939 0.0
C226 C 0.48141 0.30519 0.05041 0.0
C227 C 0.49881 0.3316 -0.00417 0.0
C228 C 0.50023 0.32596 0.90611 0.0
C229 C 0.48411 0.2942 0.87218 0.0
C230 C 0.46677 0.26781 0.92928 0.0
H231 H 0.28025 0.43536 0.38125 0.0
H232 H 0.35215 0.53549 0.4317 0.0
H233 H 0.35217 0.54777 0.27468 0.0
H234 H 0.31491 0.43036 0.17525 0.0
H235 H 0.27671 0.40444 0.12187 0.0
H236 H 0.28044 0.40329 0.24039 0.0
H237 H 0.23342 0.41473 0.25885 0.0
H238 H 0.22989 0.41641 0.14025 0.0
H239 H 0.23603 0.44994 0.20792 0.0
H240 H 0.34532 0.55047 0.11801 0.0
H241 H 0.33804 0.5419 0.9579 0.0
H242 H 0.27244 0.43969 -0.0002 0.0
C243 C 0.29599 0.45976 0.35877 0.0
C244 C 0.31616 0.48443 0.41846 0.0
C245 C 0.33666 0.5161 0.38707 0.0
C246 C 0.33662 0.52348 0.29813 0.0
C247 C 0.3162 0.49891 0.24125 0.0
C248 C 0.29673 0.46757 0.26915 0.0
C249 C 0.27909 0.44558 0.19145 0.0
C250 C 0.28836 0.41938 0.18166 0.0
C251 C 0.24243 0.4308 0.20017 0.0
C252 C 0.29221 0.46961 0.11606 0.0
C253 C 0.31302 0.50026 0.14743 0.0
C254 C 0.32913 0.52664 0.09211 0.0
C255 C 0.32485 0.52146 0.00134 0.0
C256 C 0.30489 0.49008 -0.0331 0.0
C257 C 0.28762 0.46391 0.02481 0.0
H258 H 0.77102 0.22719 0.17959 0.0
H259 H 0.84187 0.19765 0.13436 0.0
H260 H 0.84816 0.19416 0.29433 0.0
H261 H 0.81019 0.27746 0.35806 0.0
H262 H 0.77483 0.26734 0.42244 0.0
H263 H 0.77183 0.26352 0.30368 0.0
H264 H 0.72749 0.20356 0.31732 0.0
H265 H 0.72998 0.2073 0.43632 0.0
H266 H 0.73519 0.17669 0.38291 0.0
H267 H 0.85323 0.20113 0.4518 0.0
H268 H 0.85237 0.21217 0.6095 0.0
H269 H 0.77682 0.23536 0.56106 0.0
C270 C 0.78716 0.21921 0.20386 0.0
C271 C 0.80616 0.21293 0.14538 0.0
C272 C 0.82741 0.20295 0.17856 0.0
C273 C 0.83105 0.20071 0.26913 0.0
C274 C 0.81305 0.20827 0.32533 0.0
C275 C 0.79115 0.21684 0.29486 0.0
C276 C 0.77656 0.2256 0.37108 0.0
C277 C 0.7838 0.26056 0.36331 0.0
C278 C 0.74014 0.20186 0.37727 0.0
C279 C 0.79465 0.22162 0.44818 0.0
C280 C 0.81547 0.21157 0.41945 0.0
C281 C 0.83661 0.20837 0.47589 0.0
C282 C 0.83616 0.21506 0.56512 0.0
C283 C 0.81448 0.22457 0.597 0.0
C284 C 0.79338 0.22786 0.53801 0.0
H285 H 0.61438 0.89634 0.35584 0.0
H286 H 0.65243 0.83219 0.31288 0.0
H287 H 0.64644 0.8187 0.47072 0.0
H288 H 0.65589 0.92767 0.5621 0.0
H289 H 0.62362 0.93086 0.61247 0.0
H290 H 0.62845 0.93391 0.49409 0.0
H291 H 0.56946 0.88749 0.47458 0.0
H292 H 0.56463 0.88399 0.59313 0.0
H293 H 0.55676 0.84938 0.52781 0.0
H294 H 0.63712 0.8118 0.6277 0.0
H295 H 0.63319 0.81826 0.78717 0.0
H296 H 0.6036 0.88882 0.73667 0.0
C297 C 0.62143 0.87951 0.38011 0.0
C298 C 0.63377 0.86524 0.32255 0.0
C299 C 0.6431 0.84356 0.3561 0.0
C300 C 0.63943 0.83541 0.44538 0.0
C301 C 0.62674 0.84941 0.50017 0.0
C302 C 0.61849 0.87149 0.46992 0.0
C303 C 0.60805 0.88484 0.54555 0.0
C304 C 0.63034 0.92149 0.55405 0.0
C305 C 0.57261 0.87588 0.53458 0.0
C306 C 0.61235 0.86713 0.62282 0.0
C307 C 0.62243 0.84631 0.59399 0.0
C308 C 0.62928 0.82798 0.65154 0.0
C309 C 0.62707 0.83193 0.74183 0.0
C310 C 0.61843 0.85429 0.77352 0.0
C311 C 0.60998 0.87142 0.71357 0.0
H312 H 0.88805 0.65608 0.56045 0.0
H313 H 0.8506 0.55402 0.51362 0.0
H314 H 0.83784 0.54299 0.67094 0.0
H315 H 0.92652 0.65837 0.76687 0.0
H316 H 0.9178 0.68693 0.81859 0.0
H317 H 0.92203 0.68707 0.70017 0.0
H318 H 0.86537 0.68074 0.68059 0.0
H319 H 0.86082 0.68013 0.79914 0.0
H320 H 0.8311 0.64742 0.73251 0.0
H321 H 0.82938 0.54196 0.82789 0.0
H322 H 0.83257 0.55169 -0.01236 0.0
H323 H 0.87753 0.65466 0.94135 0.0
C324 C 0.8772 0.6315 0.58378 0.0
C325 C 0.87034 0.60592 0.52525 0.0
C326 C 0.85637 0.57404 0.55759 0.0
C327 C 0.84863 0.56742 0.6466 0.0
C328 C 0.85529 0.59297 0.70243 0.0
C329 C 0.86978 0.62444 0.67338 0.0
C330 C 0.87652 0.64739 0.75003 0.0
C331 C 0.91288 0.67135 0.75947 0.0
C332 C 0.8573 0.66495 0.73993 0.0
C333 C 0.86404 0.62375 0.82633 0.0
C334 C 0.8513 0.5925 0.79625 0.0
C335 C 0.83924 0.56626 0.85273 0.0
C336 C 0.84128 0.5721 0.94327 0.0
C337 C 0.85556 0.60395 -0.02367 0.0
C338 C 0.86628 0.63011 0.91733 0.0
H339 H 0.21855 0.82913 0.02027 0.0
H340 H 0.2593 0.76758 0.07094 0.0
H341 H 0.27207 0.76907 0.91389 0.0
H342 H 0.18046 0.79117 0.81605 0.0
H343 H 0.18784 0.82772 0.76191 0.0
H344 H 0.18406 0.8244 0.88055 0.0
H345 H 0.23997 0.87601 0.8974 0.0
H346 H 0.24405 0.87925 0.77863 0.0
H347 H 0.27462 0.87789 0.84552 0.0
H348 H 0.27962 0.77534 0.75662 0.0
H349 H 0.27569 0.78063 0.59646 0.0
H350 H 0.22828 0.83643 0.63916 0.0
C351 C 0.23018 0.81608 -0.00217 0.0
C352 C 0.23787 0.7982 0.05734 0.0
C353 C 0.25286 0.78114 0.0262 0.0
C354 C 0.26061 0.78214 0.93733 0.0
C355 C 0.25298 0.80006 0.88041 0.0
C356 C 0.23767 0.81633 0.90834 0.0
C357 C 0.22998 0.83145 0.83067 0.0
C358 C 0.19341 0.81786 0.82178 0.0
C359 C 0.24826 0.86835 0.83856 0.0
C360 C 0.24284 0.82044 0.75517 0.0
C361 C 0.25656 0.80297 0.78641 0.0
C362 C 0.26904 0.78901 0.73085 0.0
C363 C 0.26656 0.79207 0.64007 0.0
C364 C 0.25144 0.80872 0.60592 0.0
C365 C 0.24016 0.82383 0.66398 0.0
H366 H 0.34736 0.12169 0.43114 0.0
H367 H 0.33102 0.10887 0.71431 0.0
H368 H 0.29586 0.05031 0.69156 0.0
H369 H 0.26583 0.05822 0.36035 0.0
H370 H 0.28113 0.04604 0.26854 0.0
H371 H 0.30238 0.08725 0.3061 0.0
H372 H 0.35433 0.08398 0.32666 0.0
H373 H 0.33325 0.04276 0.28972 0.0
H374 H 0.3534 0.05289 0.39589 0.0
H375 H 0.26641 0.99312 0.63992 0.0
H376 H 0.24494 0.94107 0.56427 0.0
H377 H 0.27895 0.99046 0.31263 0.0
C378 C 0.3357 0.10665 0.48809 0.0
C379 C 0.34173 0.11989 0.57455 0.0
C380 C 0.32678 0.09926 0.6476 0.0
C381 C 0.30666 0.066 0.63525 0.0
C382 C 0.30167 0.05368 0.54938 0.0
C383 C 0.31566 0.07335 0.47695 0.0
C384 C 0.30806 0.05371 0.3924 0.0
C385 C 0.28816 0.06179 0.32805 0.0
C386 C 0.33911 0.05863 0.34863 0.0
C387 C 0.28815 0.01989 0.42886 0.0
C388 C 0.28455 0.0205 0.51944 0.0
C389 C 0.26855 0.99234 0.56877 0.0
C390 C 0.25614 0.96276 0.5247 0.0
C391 C 0.25965 0.9613 0.43175 0.0
C392 C 0.27569 0.99049 0.38349 0.0
H393 H 0.38391 0.30947 0.58316 0.0
H394 H 0.47557 0.3729 0.71261 0.0
H395 H 0.45472 0.40707 0.76517 0.0
H396 H 0.37106 0.37225 0.50606 0.0
H397 H 0.32809 0.35089 0.52302 0.0
H398 H 0.34863 0.32887 0.50192 0.0
H399 H 0.32552 0.29671 0.64692 0.0
H400 H 0.30504 0.31882 0.66866 0.0
H401 H 0.33229 0.31805 0.75019 0.0
H402 H 0.42698 0.43658 0.79623 0.0
H403 H 0.39366 0.4622 0.79759 0.0
H404 H 0.31891 0.38179 0.64844 0.0
C405 C 0.39931 0.33038 0.62328 0.0
C406 C 0.43143 0.33858 0.64328 0.0
C407 C 0.45104 0.36631 0.69531 0.0
C408 C 0.43935 0.38578 0.7264 0.0
C409 C 0.40791 0.37745 0.70493 0.0
C410 C 0.38807 0.35063 0.65425 0.0
C411 C 0.35607 0.34902 0.6359 0.0
C412 C 0.35066 0.35035 0.53578 0.0
C413 C 0.32807 0.31885 0.67794 0.0
C414 C 0.36157 0.37948 0.68247 0.0
C415 C 0.39155 0.39508 0.72277 0.0
C416 C 0.40329 0.42451 0.76579 0.0
C417 C 0.38421 0.4389 0.76603 0.0
C418 C 0.3537 0.42392 0.72357 0.0
C419 C 0.34191 0.39346 0.68282 0.0
H420 H 0.99598 0.31619 0.83492 0.0
H421 H 0.97356 0.21675 0.84324 0.0
H422 H 0.03044 0.23446 0.80615 0.0
H423 H 0.04432 0.33664 0.64311 0.0
H424 H 0.07151 0.37722 0.67982 0.0
H425 H 0.03023 0.35667 0.71575 0.0
H426 H 0.04912 0.36658 0.87999 0.0
H427 H 0.09045 0.38746 0.84459 0.0
H428 H 0.07651 0.35378 0.91908 0.0
H429 H 0.09128 0.26491 0.76404 0.0
H430 H 0.14815 0.3042 0.72646 0.0
H431 H 0.12513 0.38079 0.72707 0.0
C432 C 1.00275 0.29791 0.82862 0.0
C433 C 0.98012 0.26501 0.84112 0.0
C434 C 0.9905 0.24216 0.83465 0.0
C435 C 1.02268 0.25198 0.81281 0.0
C436 C 0.04395 0.28463 0.79709 0.0
C437 C 0.03415 0.3071 0.80484 0.0
C438 C 0.06058 0.34048 0.78115 0.0
C439 C 0.05109 0.3535 0.70014 0.0
C440 C 0.0697 0.36341 0.86096 0.0
C441 C 0.0871 0.33357 0.75916 0.0
C442 C 0.07748 0.30139 0.76922 0.0
C443 C 0.0989 0.29011 0.75555 0.0
C444 C 0.13107 0.31252 0.73343 0.0
C445 C 0.14127 0.34568 0.72471 0.0
C446 C 0.11847 0.3558 0.73504 0.0
H447 H 0.65972 0.98044 0.0029 0.0
H448 H 0.73785 0.95941 -0.00119 0.0
H449 H 0.77501 1.01484 0.94717 0.0
H450 H 0.68229 0.02862 0.80691 0.0
H451 H 0.67084 0.05649 0.84942 0.0
H452 H 0.65055 1.01542 0.88743 0.0
H453 H 0.6649 0.03494 0.05011 0.0
H454 H 0.6848 0.07605 0.0127 0.0
H455 H 0.70639 0.06204 0.08033 0.0
H456 H 0.80349 0.07273 0.89537 0.0
H457 H 0.82184 0.12932 0.85704 0.0
H458 H 0.72447 0.11155 0.89273 0.0
C459 C 0.68471 0.98747 -0.008 0.0
C460 C 0.69589 0.96556 0.00536 0.0
C461 C 0.72875 0.9758 -0.01041 0.0
C462 C 0.74998 1.00717 0.95975 0.0
C463 C 0.73795 0.02792 0.94575 0.0
C464 C 0.70612 0.01853 0.96195 0.0
C465 C 0.69917 0.0454 0.94236 0.0
C466 C 0.67424 0.0359 0.86705 0.0
C467 C 0.68818 0.05519 0.02638 0.0
C468 C 0.73217 0.07157 0.91332 0.0
C469 C 0.75419 0.06099 0.9152 0.0
C470 C 0.78643 0.08123 0.89341 0.0
C471 C 0.79659 0.11332 0.87142 0.0
C472 C 0.77458 0.12489 0.8714 0.0
C473 C 0.74184 0.10342 0.89101 0.0
H474 H 0.82517 0.75458 0.29192 0.0
H475 H 0.85382 0.74078 0.03074 0.0
H476 H 0.83026 0.77121 -0.03534 0.0
H477 H 0.74929 0.74146 0.22677 0.0
H478 H 0.74934 0.77105 0.30013 0.0
H479 H 0.77214 0.75185 0.32877 0.0
H480 H 0.82398 0.80763 0.34367 0.0
H481 H 0.80128 0.82704 0.31526 0.0
H482 H 0.83644 0.83544 0.25224 0.0
H483 H 0.79904 0.79878 0.92452 0.0
H484 H 0.76219 0.82067 0.91465 0.0
H485 H 0.75341 0.81615 0.20101 0.0
C486 C 0.82685 0.75822 0.22094 0.0
C487 C 0.84185 0.7455 0.16707 0.0
C488 C 0.84335 0.75091 0.07425 0.0
C489 C 0.82978 0.76803 0.03573 0.0
C490 C 0.81475 0.77973 0.09058 0.0
C491 C 0.8133 0.77516 0.18124 0.0
C492 C 0.79391 0.78835 0.22463 0.0
C493 C 0.76443 0.76158 0.27288 0.0
C494 C 0.81518 0.81628 0.28768 0.0
C495 C 0.78393 0.80018 0.14397 0.0
C496 C 0.7965 0.79535 0.06735 0.0
C497 C 0.7894 0.80307 -0.01576 0.0
C498 C 0.76856 0.81565 -0.02071 0.0
C499 C 0.75485 0.82017 0.05692 0.0
C500 C 0.76323 0.81278 0.14025 0.0
H501 H 0.98316 0.7095 0.25615 0.0
H502 H 0.97011 0.61332 0.23513 0.0
H503 H 0.02738 0.63495 0.2662 0.0
H504 H 0.06326 0.75002 0.14954 0.0
H505 H 0.07906 0.78506 0.2199 0.0
H506 H 0.03656 0.76255 0.19459 0.0
H507 H 1.02398 0.75569 0.36229 0.0
H508 H 0.06646 0.77776 0.38811 0.0
H509 H 0.04151 0.73781 0.43167 0.0
H510 H 0.08349 0.66426 0.3122 0.0
H511 H 0.14008 0.70215 0.34509 0.0
H512 H 0.12177 0.78198 0.32581 0.0
C513 C 0.99252 0.69314 0.25684 0.0
C514 C 0.9718 0.65956 0.24373 0.0
C515 C 0.98512 0.63903 0.24521 0.0
C516 C 1.01775 0.65104 0.26327 0.0
C517 C 0.03721 0.68383 0.2785 0.0
C518 C 1.02557 0.70489 0.27348 0.0
C519 C 0.05269 0.73927 0.29059 0.0
C520 C 0.05822 0.76048 0.20877 0.0
C521 C 0.04573 0.75346 0.37308 0.0
C522 C 0.08104 0.73388 0.30673 0.0
C523 C 0.07106 0.70152 0.30064 0.0
C524 C 0.09184 0.68976 0.31575 0.0
C525 C 0.12409 0.71167 0.33483 0.0
C526 C 0.13578 0.74529 0.33721 0.0
C527 C 0.11372 0.75651 0.3242 0.0
H528 H 0.65803 0.41971 0.48242 0.0
H529 H 0.60552 0.47091 0.51276 0.0
H530 H 0.65164 0.51968 0.44844 0.0
H531 H 0.73751 0.48598 0.52841 0.0
H532 H 0.75603 0.47331 0.4465 0.0
H533 H 0.71981 0.44391 0.50091 0.0
H534 H 0.69207 0.42348 0.34775 0.0
H535 H 0.72808 0.45311 0.293 0.0
H536 H 0.69026 0.45146 0.27147 0.0
H537 H 0.70469 0.56308 0.37551 0.0
H538 H 0.7587 0.5959 0.30753 0.0
H539 H 0.77211 0.51304 0.31708 0.0
C540 C 0.656 0.44107 0.47551 0.0
C541 C 0.62795 0.44128 0.50238 0.0
C542 C 0.62685 0.47014 0.49368 0.0
C543 C 0.65284 0.49791 0.45644 0.0
C544 C 0.67969 0.49639 0.42801 0.0
C545 C 0.68132 0.46861 0.43764 0.0
C546 C 0.71217 0.47244 0.40029 0.0
C547 C 0.73258 0.4687 0.47339 0.0
C548 C 0.70521 0.44872 0.32358 0.0
C549 C 0.72775 0.5067 0.36755 0.0
C550 C 0.70899 0.52042 0.38431 0.0
C551 C 0.71943 0.55241 0.36175 0.0
C552 C 0.75003 0.57084 0.3227 0.0
C553 C 0.76959 0.55705 0.30601 0.0
C554 C 0.75779 0.5244 0.32775 0.0
H555 H 0.30468 0.58383 0.68012 0.0
H556 H 0.22791 0.49637 0.56135 0.0
H557 H 0.20836 0.52819 0.48129 0.0
H558 H 0.25544 0.62321 0.70701 0.0
H559 H 0.28919 0.66257 0.68392 0.0
H560 H 0.29578 0.63249 0.73557 0.0
H561 H 0.33565 0.63955 0.6108 0.0
H562 H 0.32875 0.66919 0.55792 0.0
H563 H 0.32226 0.63417 0.49698 0.0
H564 H 0.20194 0.57041 0.39874 0.0
H565 H 0.20363 0.61861 0.33729 0.0
H566 H 0.28008 0.67791 0.5247 0.0
C567 C 0.28333 0.57135 0.63878 0.0
C568 C 0.26777 0.53762 0.62713 0.0
C569 C 0.24001 0.52214 0.57207 0.0
C570 C 0.22885 0.54004 0.52578 0.0
C571 C 0.24526 0.57334 0.53678 0.0
C572 C 0.27136 0.58876 0.59373 0.0
C573 C 0.28461 0.6248 0.59372 0.0
C574 C 0.28103 0.63645 0.6855 0.0
C575 C 0.3199 0.64298 0.56301 0.0
C576 C 0.26245 0.62728 0.52604 0.0
C577 C 0.24015 0.5974 0.49333 0.0
C578 C 0.21872 0.5939 0.42569 0.0
C579 C 0.21976 0.62163 0.39152 0.0
C580 C 0.2417 0.65266 0.426 0.0
C581 C 0.26318 0.65508 0.49478 0.0
H582 H 0.67004 0.26015 0.78652 0.0
H583 H 0.62014 0.15575 0.78103 0.0
H584 H 0.5714 0.1549 0.72107 0.0
H585 H 0.60318 0.27027 0.84109 0.0
H586 H 0.61644 0.30468 0.76962 0.0
H587 H 0.64551 0.29603 0.81902 0.0
H588 H 0.6675 0.29548 0.66284 0.0
H589 H 0.63814 0.30362 0.6129 0.0
H590 H 0.64033 0.2688 0.57897 0.0
H591 H 0.52789 0.16691 0.65828 0.0
H592 H 0.49502 0.19029 0.60381 0.0
H593 H 0.5777 0.28614 0.63771 0.0
C594 C 0.649 0.23697 0.77255 0.0
C595 C 0.64912 0.20801 0.7879 0.0
C596 C 0.62061 0.17829 0.77067 0.0
C597 C 0.59292 0.1776 0.73579 0.0
C598 C 0.59427 0.20681 0.71804 0.0
C599 C 0.62173 0.23588 0.73616 0.0
C600 C 0.61804 0.26409 0.70878 0.0
C601 C 0.62095 0.28498 0.78943 0.0
C602 C 0.64245 0.28416 0.63658 0.0
C603 C 0.5841 0.24653 0.67242 0.0
C604 C 0.57045 0.21351 0.67864 0.0
C605 C 0.53854 0.19273 0.65248 0.0
C606 C 0.52011 0.20618 0.62116 0.0
C607 C 0.53385 0.24003 0.61529 0.0
C608 C 0.56647 0.26016 0.63973 0.0
H609 H 0.58542 0.75277 -0.02548 0.0
H610 H 0.5202 0.77733 0.10483 0.0
H611 H 0.47387 0.72628 0.05374 0.0
H612 H 0.54059 0.72177 0.78572 0.0
H613 H 0.54829 0.68905 0.76962 0.0
H614 H 0.57711 0.72459 0.82861 0.0
H615 H 0.57416 0.6902 -0.03567 0.0
H616 H 0.54585 0.65435 0.90507 0.0
H617 H 0.53554 0.66292 0.01226 0.0
H618 H 0.4349 0.67829 -0.03071 0.0
H619 H 0.40481 0.63125 0.87088 0.0
H620 H 0.49414 0.63559 0.79756 0.0
C621 C 0.56147 0.74673 -0.00464 0.0
C622 C 0.55638 0.76889 0.04412 0.0
C623 C 0.52463 0.76063 0.06787 0.0
C624 C 0.49814 0.73171 0.03902 0.0
C625 C 0.50381 0.71117 -0.01288 0.0
C626 C 0.53464 0.71784 -0.03309 0.0
C627 C 0.53374 0.69265 0.90445 0.0
C628 C 0.55095 0.70794 0.81694 0.0
C629 C 0.54817 0.67391 0.94922 0.0
C630 C 0.49767 0.67152 0.89045 0.0
C631 C 0.48095 0.68273 0.93896 0.0
C632 C 0.44762 0.66887 0.93233 0.0
C633 C 0.43081 0.64246 0.87575 0.0
C634 C 0.4473 0.63013 0.82699 0.0
C635 C 0.48112 0.64468 0.83465 0.0
H636 H 0.8201 0.42838 0.14982 0.0
H637 H 0.9237 0.48925 0.12151 0.0
H638 H 0.92565 0.44526 0.04256 0.0
H639 H 0.81862 0.35277 0.179 0.0
H640 H 0.7819 0.33029 0.11584 0.0
H641 H 0.78936 0.36586 0.17541 0.0
H642 H 0.78127 0.38982 0.03 0.0
H643 H 0.77426 0.35453 -0.03026 0.0
H644 H 0.80551 0.39378 0.93486 0.0
H645 H 0.9158 0.39468 0.96224 0.0
H646 H 0.89527 0.34099 0.89408 0.0
H647 H 0.79785 0.31514 -0.0326 0.0
C648 C 0.84327 0.43257 0.12723 0.0
C649 C 0.87176 0.46243 0.14216 0.0
C650 C 0.90158 0.46652 0.11241 0.0
C651 C 0.9029 0.44176 0.0666 0.0
C652 C 0.87419 0.41305 0.05077 0.0
C653 C 0.84497 0.40831 0.08076 0.0
C654 C 0.81749 0.37553 0.05387 0.0
C655 C 0.80087 0.35489 0.13591 0.0
C656 C 0.79321 0.37862 -0.00647 0.0
C657 C 0.83574 0.36258 0.00343 0.0
C658 C 0.86844 0.38448 0.00264 0.0
C659 C 0.89023 0.37742 0.96219 0.0
C660 C 0.87833 0.34693 0.9233 0.0
C661 C 0.84493 0.324 0.92444 0.0
C662 C 0.82344 0.3323 -0.03611 0.0
H663 H 0.45885 0.83644 0.13629 0.0
H664 H 0.50741 0.94009 0.10546 0.0
H665 H 0.45786 0.93957 0.15582 0.0
H666 H 0.3789 0.81826 0.07045 0.0
H667 H 0.35994 0.78678 0.15174 0.0
H668 H 0.39811 0.79599 0.10536 0.0
H669 H 0.42242 0.80467 0.26384 0.0
H670 H 0.38448 0.79601 0.31057 0.0
H671 H 0.42054 0.83347 0.3363 0.0
H672 H 0.40191 0.92642 0.21823 0.0
H673 H 0.34632 0.90209 0.27787 0.0
H674 H 0.33898 0.80828 0.27471 0.0
C675 C 0.45917 0.85913 0.13967 0.0
C676 C 0.48708 0.88835 0.11767 0.0
C677 C 0.48619 0.91738 0.12151 0.0
C678 C 0.45825 0.9173 0.15068 0.0
C679 C 0.43156 0.88801 0.17549 0.0
C680 C 0.43195 0.85949 0.16946 0.0
C681 C 0.40113 0.83123 0.20271 0.0
C682 C 0.38348 0.80663 0.12811 0.0
C683 C 0.40754 0.81544 0.28312 0.0
C684 C 0.3831 0.84811 0.22907 0.0
C685 C 0.40067 0.8808 0.21276 0.0
C686 C 0.38808 0.90084 0.23126 0.0
C687 C 0.35658 0.88688 0.26562 0.0
C688 C 0.3383 0.85331 0.28162 0.0
C689 C 0.3522 0.83405 0.26401 0.0
loop_
_geom_bond_atom_site_label_1
_geom_bond_atom_site_label_2
_geom_bond_distance
_geom_bond_site_symmetry_2
_ccdc_geom_bond_type
C0 O16 1.251 . S
C0 O18 1.254 . S
N1 C2 1.333 . S
N1 C6 1.307 . S
N1 Zn7 2.020 . S
C2 N1 1.333 . S
C2 C3 1.379 . S
C2 H20 0.952 . S
C3 C2 1.379 . S
C3 C4 1.390 . S
C3 H30 0.949 . S
C4 C3 1.390 . S
C4 C5 1.357 . S
C5 C4 1.357 . S
C5 C6 1.370 . S
C5 H31 0.950 . S
C6 N1 1.307 . S
C6 C5 1.370 . S
C6 H24 0.948 . S
Zn7 N1 2.020 . S
Zn7 O16 2.039 . S
Zn7 O22 2.034 . S
Zn7 O26 2.025 . S
Zn7 O28 2.024 . S
C8 O27 1.246 . S
C8 O28 1.249 . S
N9 C10 1.307 . S
N9 C11 1.333 . S
N9 Zn15 2.020 . S
C10 N9 1.307 . S
C10 C14 1.370 . S
C10 H21 0.948 . S
C11 N9 1.333 . S
C11 C12 1.379 . S
C11 H19 0.952 . S
C12 C11 1.379 . S
C12 C13 1.390 . S
C12 H32 0.949 . S
C13 C12 1.390 . S
C13 C14 1.357 . S
C14 C10 1.370 . S
C14 C13 1.357 . S
C14 H33 0.950 . S
Zn15 N9 2.020 . S
Zn15 O18 2.025 . S
Zn15 O23 2.024 . S
Zn15 O25 2.039 . S
Zn15 O27 2.034 . S
O16 C0 1.251 . S
O16 Zn7 2.039 . S
C17 O22 1.246 . S
C17 O23 1.249 . S
O18 C0 1.254 . S
O18 Zn15 2.025 . S
H19 C11 0.952 . S
H20 C2 0.952 . S
H21 C10 0.948 . S
O22 Zn7 2.034 . S
O22 C17 1.246 . S
O23 Zn15 2.024 . S
O23 C17 1.249 . S
H24 C6 0.948 . S
O25 Zn15 2.039 . S
O25 C29 1.251 . S
O26 Zn7 2.025 . S
O26 C29 1.254 . S
O27 C8 1.246 . S
O27 Zn15 2.034 . S
O28 Zn7 2.024 . S
O28 C8 1.249 . S
C29 O25 1.251 . S
C29 O26 1.254 . S
H30 C3 0.949 . S
H31 C5 0.950 . S
H32 C12 0.949 . S
H33 C14 0.950 . S
C34 O50 1.251 . S
C34 O52 1.254 . S
N35 C36 1.333 . S
N35 C40 1.307 . S
N35 Zn41 2.020 . S
C36 N35 1.333 . S
C36 C37 1.379 . S
C36 H54 0.952 . S
C37 C36 1.379 . S
C37 C38 1.390 . S
C37 H64 0.949 . S
C38 C37 1.390 . S
C38 C39 1.357 . S
C39 C38 1.357 . S
C39 C40 1.370 . S
C39 H65 0.950 . S
C40 N35 1.307 . S
C40 C39 1.370 . S
C40 H58 0.948 . S
Zn41 N35 2.020 . S
Zn41 O50 2.039 . S
Zn41 O56 2.034 . S
Zn41 O60 2.025 . S
Zn41 O62 2.024 . S
C42 O61 1.246 . S
C42 O62 1.249 . S
N43 C44 1.307 . S
N43 C45 1.333 . S
N43 Zn49 2.020 . S
C44 N43 1.307 . S
C44 C48 1.370 . S
C44 H55 0.948 . S
C45 N43 1.333 . S
C45 C46 1.379 . S
C45 H53 0.952 . S
C46 C45 1.379 . S
C46 C47 1.390 . S
C46 H66 0.949 . S
C47 C46 1.390 . S
C47 C48 1.357 . S
C48 C44 1.370 . S
C48 C47 1.357 . S
C48 H67 0.950 . S
Zn49 N43 2.020 . S
Zn49 O52 2.025 . S
Zn49 O57 2.024 . S
Zn49 O59 2.039 . S
Zn49 O61 2.034 . S
O50 C34 1.251 . S
O50 Zn41 2.039 . S
C51 O56 1.246 . S
C51 O57 1.249 . S
O52 C34 1.254 . S
O52 Zn49 2.025 . S
H53 C45 0.952 . S
H54 C36 0.952 . S
H55 C44 0.948 . S
O56 Zn41 2.034 . S
O56 C51 1.246 . S
O57 Zn49 2.024 . S
O57 C51 1.249 . S
H58 C40 0.948 . S
O59 Zn49 2.039 . S
O59 C63 1.251 . S
O60 Zn41 2.025 . S
O60 C63 1.254 . S
O61 C42 1.246 . S
O61 Zn49 2.034 . S
O62 Zn41 2.024 . S
O62 C42 1.249 . S
C63 O59 1.251 . S
C63 O60 1.254 . S
H64 C37 0.949 . S
H65 C39 0.950 . S
H66 C46 0.949 . S
H67 C48 0.950 . S
C68 O84 1.251 . S
C68 O86 1.254 . S
N69 C70 1.333 . S
N69 C74 1.307 . S
N69 Zn75 2.020 . S
C70 N69 1.333 . S
C70 C71 1.379 . S
C70 H88 0.952 . S
C71 C70 1.379 . S
C71 C72 1.390 . S
C71 H98 0.949 . S
C72 C71 1.390 . S
C72 C73 1.357 . S
C73 C72 1.357 . S
C73 C74 1.370 . S
C73 H99 0.950 1_556 S
C74 N69 1.307 . S
C74 C73 1.370 . S
C74 H92 0.948 1_556 S
Zn75 N69 2.020 . S
Zn75 O84 2.039 . S
Zn75 O90 2.034 . S
Zn75 O94 2.025 1_556 S
Zn75 O96 2.024 . S
C76 O95 1.246 . S
C76 O96 1.249 . S
N77 C78 1.307 . S
N77 C79 1.333 1_556 S
N77 Zn83 2.020 . S
C78 N77 1.307 . S
C78 C82 1.370 . S
C78 H89 0.948 . S
C79 N77 1.333 1_554 S
C79 C80 1.379 . S
C79 H87 0.952 . S
C80 C79 1.379 . S
C80 C81 1.390 1_554 S
C80 H100 0.949 . S
C81 C80 1.390 1_556 S
C81 C82 1.357 . S
C82 C78 1.370 . S
C82 C81 1.357 . S
C82 H101 0.950 . S
Zn83 N77 2.020 . S
Zn83 O86 2.025 . S
Zn83 O91 2.024 . S
Zn83 O93 2.039 1_556 S
Zn83 O95 2.034 . S
O84 C68 1.251 . S
O84 Zn75 2.039 . S
C85 O90 1.246 . S
C85 O91 1.249 . S
O86 C68 1.254 . S
O86 Zn83 2.025 . S
H87 C79 0.952 . S
H88 C70 0.952 . S
H89 C78 0.948 . S
O90 Zn75 2.034 . S
O90 C85 1.246 . S
O91 Zn83 2.024 . S
O91 C85 1.249 . S
H92 C74 0.948 1_554 S
O93 Zn83 2.039 1_554 S
O93 C97 1.251 . S
O94 Zn75 2.025 1_554 S
O94 C97 1.254 . S
O95 C76 1.246 . S
O95 Zn83 2.034 . S
O96 Zn75 2.024 . S
O96 C76 1.249 . S
C97 O93 1.251 . S
C97 O94 1.254 . S
H98 C71 0.949 . S
H99 C73 0.950 1_554 S
H100 C80 0.949 . S
H101 C82 0.950 . S
C102 O118 1.251 . S
C102 O120 1.254 . S
N103 C104 1.333 . S
N103 C108 1.307 . S
N103 Zn109 2.020 . S
C104 N103 1.333 . S
C104 C105 1.379 . S
C104 H122 0.952 . S
C105 C104 1.379 . S
C105 C106 1.390 . S
C105 H132 0.949 . S
C106 C105 1.390 . S
C106 C107 1.357 . S
C107 C106 1.357 . S
C107 C108 1.370 . S
C107 H133 0.950 1_554 S
C108 N103 1.307 . S
C108 C107 1.370 . S
C108 H126 0.948 1_554 S
Zn109 N103 2.020 . S
Zn109 O118 2.039 . S
Zn109 O124 2.034 . S
Zn109 O128 2.025 1_554 S
Zn109 O130 2.024 . S
C110 O129 1.246 . S
C110 O130 1.249 . S
N111 C112 1.307 . S
N111 C113 1.333 1_554 S
N111 Zn117 2.020 . S
C112 N111 1.307 . S
C112 C116 1.370 . S
C112 H123 0.948 . S
C113 N111 1.333 1_556 S
C113 C114 1.379 . S
C113 H121 0.952 . S
C114 C113 1.379 . S
C114 C115 1.390 1_556 S
C114 H134 0.949 . S
C115 C114 1.390 1_554 S
C115 C116 1.357 . S
C116 C112 1.370 . S
C116 C115 1.357 . S
C116 H135 0.950 . S
Zn117 N111 2.020 . S
Zn117 O120 2.025 . S
Zn117 O125 2.024 . S
Zn117 O127 2.039 1_554 S
Zn117 O129 2.034 . S
O118 C102 1.251 . S
O118 Zn109 2.039 . S
C119 O124 1.246 . S
C119 O125 1.249 . S
O120 C102 1.254 . S
O120 Zn117 2.025 . S
H121 C113 0.952 . S
H122 C104 0.952 . S
H123 C112 0.948 . S
O124 Zn109 2.034 . S
O124 C119 1.246 . S
O125 Zn117 2.024 . S
O125 C119 1.249 . S
H126 C108 0.948 1_556 S
O127 Zn117 2.039 1_556 S
O127 C131 1.251 . S
O128 Zn109 2.025 1_556 S
O128 C131 1.254 . S
O129 C110 1.246 . S
O129 Zn117 2.034 . S
O130 Zn109 2.024 . S
O130 C110 1.249 . S
C131 O127 1.251 . S
C131 O128 1.254 . S
H132 C105 0.949 . S
H133 C107 0.950 1_556 S
H134 C114 0.949 . S
H135 C116 0.950 . S
C136 O152 1.251 . S
C136 O154 1.254 . S
N137 C138 1.333 . S
N137 C142 1.307 . S
N137 Zn143 2.020 . S
C138 N137 1.333 . S
C138 C139 1.379 . S
C138 H156 0.952 . S
C139 C138 1.379 . S
C139 C140 1.390 . S
C139 H166 0.949 . S
C140 C139 1.390 . S
C140 C141 1.357 . S
C141 C140 1.357 . S
C141 C142 1.370 . S
C141 H167 0.950 . S
C142 N137 1.307 . S
C142 C141 1.370 . S
C142 H160 0.948 . S
Zn143 N137 2.020 . S
Zn143 O152 2.039 . S
Zn143 O158 2.034 . S
Zn143 O162 2.025 . S
Zn143 O164 2.024 . S
C144 O163 1.246 . S
C144 O164 1.249 . S
N145 C146 1.307 . S
N145 C147 1.333 . S
N145 Zn151 2.020 . S
C146 N145 1.307 . S
C146 C150 1.370 . S
C146 H157 0.948 . S
C147 N145 1.333 . S
C147 C148 1.379 . S
C147 H155 0.952 . S
C148 C147 1.379 . S
C148 C149 1.390 . S
C148 H168 0.949 . S
C149 C148 1.390 . S
C149 C150 1.357 . S
C150 C146 1.370 . S
C150 C149 1.357 . S
C150 H169 0.950 . S
Zn151 N145 2.020 . S
Zn151 O154 2.025 . S
Zn151 O159 2.024 . S
Zn151 O161 2.039 . S
Zn151 O163 2.034 . S
O152 C136 1.251 . S
O152 Zn143 2.039 . S
C153 O158 1.246 . S
C153 O159 1.249 . S
O154 C136 1.254 . S
O154 Zn151 2.025 . S
H155 C147 0.952 . S
H156 C138 0.952 . S
H157 C146 0.948 . S
O158 Zn143 2.034 . S
O158 C153 1.246 . S
O159 Zn151 2.024 . S
O159 C153 1.249 . S
H160 C142 0.948 . S
O161 Zn151 2.039 . S
O161 C165 1.251 . S
O162 Zn143 2.025 . S
O162 C165 1.254 . S
O163 C144 1.246 . S
O163 Zn151 2.034 . S
O164 Zn143 2.024 . S
O164 C144 1.249 . S
C165 O161 1.251 . S
C165 O162 1.254 . S
H166 C139 0.949 . S
H167 C141 0.950 . S
H168 C148 0.949 . S
H169 C150 0.950 . S
C170 O186 1.251 . S
C170 O188 1.254 . S
N171 C172 1.333 . S
N171 C176 1.307 . S
N171 Zn177 2.020 . S
C172 N171 1.333 . S
C172 C173 1.379 . S
C172 H190 0.952 . S
C173 C172 1.379 . S
C173 C174 1.390 . S
C173 H200 0.949 . S
C174 C173 1.390 . S
C174 C175 1.357 . S
C175 C174 1.357 . S
C175 C176 1.370 . S
C175 H201 0.950 . S
C176 N171 1.307 . S
C176 C175 1.370 . S
C176 H194 0.948 . S
Zn177 N171 2.020 . S
Zn177 O186 2.039 . S
Zn177 O192 2.034 . S
Zn177 O196 2.025 . S
Zn177 O198 2.024 . S
C178 O197 1.246 . S
C178 O198 1.249 . S
N179 C180 1.307 . S
N179 C181 1.333 . S
N179 Zn185 2.020 . S
C180 N179 1.307 . S
C180 C184 1.370 . S
C180 H191 0.948 . S
C181 N179 1.333 . S
C181 C182 1.379 . S
C181 H189 0.952 . S
C182 C181 1.379 . S
C182 C183 1.390 . S
C182 H202 0.949 . S
C183 C182 1.390 . S
C183 C184 1.357 . S
C184 C180 1.370 . S
C184 C183 1.357 . S
C184 H203 0.950 . S
Zn185 N179 2.020 . S
Zn185 O188 2.025 . S
Zn185 O193 2.024 . S
Zn185 O195 2.039 . S
Zn185 O197 2.034 . S
O186 C170 1.251 . S
O186 Zn177 2.039 . S
C187 O192 1.246 . S
C187 O193 1.249 . S
O188 C170 1.254 . S
O188 Zn185 2.025 . S
H189 C181 0.952 . S
H190 C172 0.952 . S
H191 C180 0.948 . S
O192 Zn177 2.034 . S
O192 C187 1.246 . S
O193 Zn185 2.024 . S
O193 C187 1.249 . S
H194 C176 0.948 . S
O195 Zn185 2.039 . S
O195 C199 1.251 . S
O196 Zn177 2.025 . S
O196 C199 1.254 . S
O197 C178 1.246 . S
O197 Zn185 2.034 . S
O198 Zn177 2.024 . S
O198 C178 1.249 . S
C199 O195 1.251 . S
C199 O196 1.254 . S
H200 C173 0.949 . S
H201 C175 0.950 . S
H202 C182 0.949 . S
H203 C184 0.950 . S
H204 C216 0.930 . S
H205 C218 0.930 . S
H206 C219 0.930 . S
H207 C223 0.959 . S
H208 C223 0.959 . S
H209 C223 0.961 . S
H210 C224 0.960 . S
H211 C224 0.961 . S
H212 C224 0.959 . S
H213 C227 0.929 1_554 S
H214 C228 0.931 . S
H215 C230 0.930 . S
C216 H204 0.930 . S
C216 C217 1.399 . S
C216 C221 1.399 . S
C217 C216 1.399 . S
C217 C218 1.376 . S
C218 H205 0.930 . S
C218 C217 1.376 . S
C218 C219 1.388 . S
C219 H206 0.930 . S
C219 C218 1.388 . S
C219 C220 1.390 . S
C220 C219 1.390 . S
C220 C221 1.394 . S
C220 C226 1.465 . S
C221 C216 1.399 . S
C221 C220 1.394 . S
C221 C222 1.516 . S
C222 C221 1.516 . S
C222 C223 1.502 . S
C222 C224 1.561 . S
C222 C225 1.526 . S
C223 H207 0.959 . S
C223 H208 0.959 . S
C223 H209 0.961 . S
C223 C222 1.502 . S
C224 H210 0.960 . S
C224 H211 0.961 . S
C224 H212 0.959 . S
C224 C222 1.561 . S
C225 C222 1.526 . S
C225 C226 1.396 . S
C225 C230 1.390 1_554 S
C226 C220 1.465 . S
C226 C225 1.396 . S
C226 C227 1.399 1_554 S
C227 H213 0.929 1_556 S
C227 C226 1.399 1_556 S
C227 C228 1.385 . S
C228 H214 0.931 . S
C228 C227 1.385 . S
C228 C229 1.389 . S
C229 C228 1.389 . S
C229 C230 1.387 . S
C230 H215 0.930 . S
C230 C225 1.390 1_556 S
C230 C229 1.387 . S
H231 C243 0.930 . S
H232 C245 0.930 . S
H233 C246 0.930 . S
H234 C250 0.959 . S
H235 C250 0.959 . S
H236 C250 0.961 . S
H237 C251 0.960 . S
H238 C251 0.961 . S
H239 C251 0.959 . S
H240 C254 0.929 . S
H241 C255 0.931 1_556 S
H242 C257 0.930 . S
C243 H231 0.930 . S
C243 C244 1.399 . S
C243 C248 1.399 . S
C244 C243 1.399 . S
C244 C245 1.376 . S
C245 H232 0.930 . S
C245 C244 1.376 . S
C245 C246 1.388 . S
C246 H233 0.930 . S
C246 C245 1.388 . S
C246 C247 1.390 . S
C247 C246 1.390 . S
C247 C248 1.394 . S
C247 C253 1.465 . S
C248 C243 1.399 . S
C248 C247 1.394 . S
C248 C249 1.516 . S
C249 C248 1.516 . S
C249 C250 1.502 . S
C249 C251 1.561 . S
C249 C252 1.526 . S
C250 H234 0.959 . S
C250 H235 0.959 . S
C250 H236 0.961 . S
C250 C249 1.502 . S
C251 H237 0.960 . S
C251 H238 0.961 . S
C251 H239 0.959 . S
C251 C249 1.561 . S
C252 C249 1.526 . S
C252 C253 1.396 . S
C252 C257 1.390 . S
C253 C247 1.465 . S
C253 C252 1.396 . S
C253 C254 1.399 . S
C254 H240 0.929 . S
C254 C253 1.399 . S
C254 C255 1.385 . S
C255 H241 0.931 1_554 S
C255 C254 1.385 . S
C255 C256 1.389 1_554 S
C256 C255 1.389 1_556 S
C256 C257 1.387 1_556 S
C257 H242 0.930 . S
C257 C252 1.390 . S
C257 C256 1.387 1_554 S
H258 C270 0.930 . S
H259 C272 0.930 . S
H260 C273 0.930 . S
H261 C277 0.959 . S
H262 C277 0.959 . S
H263 C277 0.961 . S
H264 C278 0.960 . S
H265 C278 0.961 . S
H266 C278 0.959 . S
H267 C281 0.929 . S
H268 C282 0.931 . S
H269 C284 0.930 . S
C270 H258 0.930 . S
C270 C271 1.399 . S
C270 C275 1.399 . S
C271 C270 1.399 . S
C271 C272 1.376 . S
C272 H259 0.930 . S
C272 C271 1.376 . S
C272 C273 1.388 . S
C273 H260 0.930 . S
C273 C272 1.388 . S
C273 C274 1.390 . S
C274 C273 1.390 . S
C274 C275 1.394 . S
C274 C280 1.465 . S
C275 C270 1.399 . S
C275 C274 1.394 . S
C275 C276 1.516 . S
C276 C275 1.516 . S
C276 C277 1.502 . S
C276 C278 1.561 . S
C276 C279 1.526 . S
C277 H261 0.959 . S
C277 H262 0.959 . S
C277 H263 0.961 . S
C277 C276 1.502 . S
C278 H264 0.960 . S
C278 H265 0.961 . S
C278 H266 0.959 . S
C278 C276 1.561 . S
C279 C276 1.526 . S
C279 C280 1.396 . S
C279 C284 1.390 . S
C280 C274 1.465 . S
C280 C279 1.396 . S
C280 C281 1.399 . S
C281 H267 0.929 . S
C281 C280 1.399 . S
C281 C282 1.385 . S
C282 H268 0.931 . S
C282 C281 1.385 . S
C282 C283 1.389 . S
C283 C282 1.389 . S
C283 C284 1.387 . S
C284 H269 0.930 . S
C284 C279 1.390 . S
C284 C283 1.387 . S
H285 C297 0.930 . S
H286 C299 0.930 . S
H287 C300 0.930 . S
H288 C304 0.959 . S
H289 C304 0.959 . S
H290 C304 0.961 . S
H291 C305 0.960 . S
H292 C305 0.961 . S
H293 C305 0.959 . S
H294 C308 0.929 . S
H295 C309 0.931 . S
H296 C311 0.930 . S
C297 H285 0.930 . S
C297 C298 1.399 . S
C297 C302 1.399 . S
C298 C297 1.399 . S
C298 C299 1.376 . S
C299 H286 0.930 . S
C299 C298 1.376 . S
C299 C300 1.388 . S
C300 H287 0.930 . S
C300 C299 1.388 . S
C300 C301 1.390 . S
C301 C300 1.390 . S
C301 C302 1.394 . S
C301 C307 1.465 . S
C302 C297 1.399 . S
C302 C301 1.394 . S
C302 C303 1.516 . S
C303 C302 1.516 . S
C303 C304 1.502 . S
C303 C305 1.561 . S
C303 C306 1.526 . S
C304 H288 0.959 . S
C304 H289 0.959 . S
C304 H290 0.961 . S
C304 C303 1.502 . S
C305 H291 0.960 . S
C305 H292 0.961 . S
C305 H293 0.959 . S
C305 C303 1.561 . S
C306 C303 1.526 . S
C306 C307 1.396 . S
C306 C311 1.390 . S
C307 C301 1.465 . S
C307 C306 1.396 . S
C307 C308 1.399 . S
C308 H294 0.929 . S
C308 C307 1.399 . S
C308 C309 1.385 . S
C309 H295 0.931 . S
C309 C308 1.385 . S
C309 C310 1.389 . S
C310 C309 1.389 . S
C310 C311 1.387 . S
C311 H296 0.930 . S
C311 C306 1.390 . S
C311 C310 1.387 . S
H312 C324 0.930 . S
H313 C326 0.930 . S
H314 C327 0.930 . S
H315 C331 0.959 . S
H316 C331 0.959 . S
H317 C331 0.961 . S
H318 C332 0.960 . S
H319 C332 0.961 . S
H320 C332 0.959 . S
H321 C335 0.929 . S
H322 C336 0.931 1_554 S
H323 C338 0.930 . S
C324 H312 0.930 . S
C324 C325 1.399 . S
C324 C329 1.399 . S
C325 C324 1.399 . S
C325 C326 1.376 . S
C326 H313 0.930 . S
C326 C325 1.376 . S
C326 C327 1.388 . S
C327 H314 0.930 . S
C327 C326 1.388 . S
C327 C328 1.390 . S
C328 C327 1.390 . S
C328 C329 1.394 . S
C328 C334 1.465 . S
C329 C324 1.399 . S
C329 C328 1.394 . S
C329 C330 1.516 . S
C330 C329 1.516 . S
C330 C331 1.502 . S
C330 C332 1.561 . S
C330 C333 1.526 . S
C331 H315 0.959 . S
C331 H316 0.959 . S
C331 H317 0.961 . S
C331 C330 1.502 . S
C332 H318 0.960 . S
C332 H319 0.961 . S
C332 H320 0.959 . S
C332 C330 1.561 . S
C333 C330 1.526 . S
C333 C334 1.396 . S
C333 C338 1.390 . S
C334 C328 1.465 . S
C334 C333 1.396 . S
C334 C335 1.399 . S
C335 H321 0.929 . S
C335 C334 1.399 . S
C335 C336 1.385 . S
C336 H322 0.931 1_556 S
C336 C335 1.385 . S
C336 C337 1.389 1_556 S
C337 C336 1.389 1_554 S
C337 C338 1.387 1_554 S
C338 H323 0.930 . S
C338 C333 1.390 . S
C338 C337 1.387 1_556 S
H339 C351 0.930 . S
H340 C353 0.930 . S
H341 C354 0.930 1_556 S
H342 C358 0.959 . S
H343 C358 0.959 . S
H344 C358 0.961 . S
H345 C359 0.960 . S
H346 C359 0.961 . S
H347 C359 0.959 . S
H348 C362 0.929 . S
H349 C363 0.931 . S
H350 C365 0.930 . S
C351 H339 0.930 . S
C351 C352 1.399 . S
C351 C356 1.399 1_554 S
C352 C351 1.399 . S
C352 C353 1.376 . S
C353 H340 0.930 . S
C353 C352 1.376 . S
C353 C354 1.388 . S
C354 H341 0.930 1_554 S
C354 C353 1.388 . S
C354 C355 1.390 1_554 S
C355 C354 1.390 1_556 S
C355 C356 1.394 . S
C355 C361 1.465 . S
C356 C351 1.399 1_556 S
C356 C355 1.394 . S
C356 C357 1.516 . S
C357 C356 1.516 . S
C357 C358 1.502 . S
C357 C359 1.561 . S
C357 C360 1.526 . S
C358 H342 0.959 . S
C358 H343 0.959 . S
C358 H344 0.961 . S
C358 C357 1.502 . S
C359 H345 0.960 . S
C359 H346 0.961 . S
C359 H347 0.959 . S
C359 C357 1.561 . S
C360 C357 1.526 . S
C360 C361 1.396 . S
C360 C365 1.390 . S
C361 C355 1.465 . S
C361 C360 1.396 . S
C361 C362 1.399 . S
C362 H348 0.929 . S
C362 C361 1.399 . S
C362 C363 1.385 . S
C363 H349 0.931 . S
C363 C362 1.385 . S
C363 C364 1.389 . S
C364 C363 1.389 . S
C364 C365 1.387 . S
C365 H350 0.930 . S
C365 C360 1.390 . S
C365 C364 1.387 . S
H366 C378 0.930 . S
H367 C380 0.930 . S
H368 C381 0.930 . S
H369 C385 0.959 . S
H370 C385 0.959 . S
H371 C385 0.961 . S
H372 C386 0.960 . S
H373 C386 0.961 . S
H374 C386 0.959 . S
H375 C389 0.929 . S
H376 C390 0.931 . S
H377 C392 0.930 . S
C378 H366 0.930 . S
C378 C379 1.399 . S
C378 C383 1.399 . S
C379 C378 1.399 . S
C379 C380 1.376 . S
C380 H367 0.930 . S
C380 C379 1.376 . S
C380 C381 1.388 . S
C381 H368 0.930 . S
C381 C380 1.388 . S
C381 C382 1.390 . S
C382 C381 1.390 . S
C382 C383 1.394 . S
C382 C388 1.465 . S
C383 C378 1.399 . S
C383 C382 1.394 . S
C383 C384 1.516 . S
C384 C383 1.516 . S
C384 C385 1.502 . S
C384 C386 1.561 . S
C384 C387 1.526 . S
C385 H369 0.959 . S
C385 H370 0.959 . S
C385 H371 0.961 . S
C385 C384 1.502 . S
C386 H372 0.960 . S
C386 H373 0.961 . S
C386 H374 0.959 . S
C386 C384 1.561 . S
C387 C384 1.526 . S
C387 C388 1.396 . S
C387 C392 1.390 1_545 S
C388 C382 1.465 . S
C388 C387 1.396 . S
C388 C389 1.399 1_545 S
C389 H375 0.929 . S
C389 C388 1.399 1_565 S
C389 C390 1.385 . S
C390 H376 0.931 . S
C390 C389 1.385 . S
C390 C391 1.389 . S
C391 C390 1.389 . S
C391 C392 1.387 . S
C392 H377 0.930 . S
C392 C387 1.390 1_565 S
C392 C391 1.387 . S
H393 C405 0.930 . S
H394 C407 0.930 . S
H395 C408 0.930 . S
H396 C412 0.959 . S
H397 C412 0.959 . S
H398 C412 0.961 . S
H399 C413 0.960 . S
H400 C413 0.961 . S
H401 C413 0.959 . S
H402 C416 0.929 . S
H403 C417 0.931 . S
H404 C419 0.930 . S
C405 H393 0.930 . S
C405 C406 1.399 . S
C405 C410 1.399 . S
C406 C405 1.399 . S
C406 C407 1.376 . S
C407 H394 0.930 . S
C407 C406 1.376 . S
C407 C408 1.388 . S
C408 H395 0.930 . S
C408 C407 1.388 . S
C408 C409 1.390 . S
C409 C408 1.390 . S
C409 C410 1.394 . S
C409 C415 1.465 . S
C410 C405 1.399 . S
C410 C409 1.394 . S
C410 C411 1.516 . S
C411 C410 1.516 . S
C411 C412 1.502 . S
C411 C413 1.561 . S
C411 C414 1.526 . S
C412 H396 0.959 . S
C412 H397 0.959 . S
C412 H398 0.961 . S
C412 C411 1.502 . S
C413 H399 0.960 . S
C413 H400 0.961 . S
C413 H401 0.959 . S
C413 C411 1.561 . S
C414 C411 1.526 . S
C414 C415 1.396 . S
C414 C419 1.390 . S
C415 C409 1.465 . S
C415 C414 1.396 . S
C415 C416 1.399 . S
C416 H402 0.929 . S
C416 C415 1.399 . S
C416 C417 1.385 . S
C417 H403 0.931 . S
C417 C416 1.385 . S
C417 C418 1.389 . S
C418 C417 1.389 . S
C418 C419 1.387 . S
C419 H404 0.930 . S
C419 C414 1.390 . S
C419 C418 1.387 . S
H420 C432 0.930 . S
H421 C434 0.930 . S
H422 C435 0.930 1_455 S
H423 C439 0.959 . S
H424 C439 0.959 . S
H425 C439 0.961 1_655 S
H426 C440 0.960 . S
H427 C440 0.961 . S
H428 C440 0.959 . S
H429 C443 0.929 . S
H430 C444 0.931 . S
H431 C446 0.930 . S
C432 H420 0.930 . S
C432 C433 1.399 . S
C432 C437 1.399 1_655 S
C433 C432 1.399 . S
C433 C434 1.376 . S
C434 H421 0.930 . S
C434 C433 1.376 . S
C434 C435 1.388 . S
C435 H422 0.930 1_655 S
C435 C434 1.388 . S
C435 C436 1.390 1_655 S
C436 C435 1.390 1_455 S
C436 C437 1.394 . S
C436 C442 1.465 . S
C437 C432 1.399 1_455 S
C437 C436 1.394 . S
C437 C438 1.516 . S
C438 C437 1.516 . S
C438 C439 1.502 . S
C438 C440 1.561 . S
C438 C441 1.526 . S
C439 H423 0.959 . S
C439 H424 0.959 . S
C439 H425 0.961 1_455 S
C439 C438 1.502 . S
C440 H426 0.960 . S
C440 H427 0.961 . S
C440 H428 0.959 . S
C440 C438 1.561 . S
C441 C438 1.526 . S
C441 C442 1.396 . S
C441 C446 1.390 . S
C442 C436 1.465 . S
C442 C441 1.396 . S
C442 C443 1.399 . S
C443 H429 0.929 . S
C443 C442 1.399 . S
C443 C444 1.385 . S
C444 H430 0.931 . S
C444 C443 1.385 . S
C444 C445 1.389 . S
C445 C444 1.389 . S
C445 C446 1.387 . S
C446 H431 0.930 . S
C446 C441 1.390 . S
C446 C445 1.387 . S
H447 C459 0.930 . S
H448 C461 0.930 . S
H449 C462 0.930 . S
H450 C466 0.959 . S
H451 C466 0.959 . S
H452 C466 0.961 . S
H453 C467 0.960 . S
H454 C467 0.961 . S
H455 C467 0.959 . S
H456 C470 0.929 . S
H457 C471 0.931 . S
H458 C473 0.930 . S
C459 H447 0.930 . S
C459 C460 1.399 . S
C459 C464 1.399 1_565 S
C460 C459 1.399 . S
C460 C461 1.376 1_554 S
C461 H448 0.930 . S
C461 C460 1.376 1_556 S
C461 C462 1.388 . S
C462 H449 0.930 . S
C462 C461 1.388 . S
C462 C463 1.390 1_565 S
C463 C462 1.390 1_545 S
C463 C464 1.394 1_556 S
C463 C469 1.465 . S
C464 C459 1.399 1_545 S
C464 C463 1.394 1_554 S
C464 C465 1.516 . S
C465 C464 1.516 . S
C465 C466 1.502 . S
C465 C467 1.561 . S
C465 C468 1.526 . S
C466 H450 0.959 . S
C466 H451 0.959 . S
C466 H452 0.961 . S
C466 C465 1.502 . S
C467 H453 0.960 . S
C467 H454 0.961 . S
C467 H455 0.959 . S
C467 C465 1.561 . S
C468 C465 1.526 . S
C468 C469 1.396 1_554 S
C468 C473 1.390 . S
C469 C463 1.465 . S
C469 C468 1.396 1_556 S
C469 C470 1.399 . S
C470 H456 0.929 . S
C470 C469 1.399 . S
C470 C471 1.385 . S
C471 H457 0.931 . S
C471 C470 1.385 . S
C471 C472 1.389 . S
C472 C471 1.389 . S
C472 C473 1.387 1_556 S
C473 H458 0.930 . S
C473 C468 1.390 . S
C473 C472 1.387 1_554 S
H474 C486 0.930 . S
H475 C488 0.930 . S
H476 C489 0.930 . S
H477 C493 0.959 . S
H478 C493 0.959 . S
H479 C493 0.961 . S
H480 C494 0.960 . S
H481 C494 0.961 . S
H482 C494 0.959 . S
H483 C497 0.929 . S
H484 C498 0.931 . S
H485 C500 0.930 . S
C486 H474 0.930 . S
C486 C487 1.399 . S
C486 C491 1.399 . S
C487 C486 1.399 . S
C487 C488 1.376 . S
C488 H475 0.930 . S
C488 C487 1.376 . S
C488 C489 1.388 . S
C489 H476 0.930 . S
C489 C488 1.388 . S
C489 C490 1.390 . S
C490 C489 1.390 . S
C490 C491 1.394 . S
C490 C496 1.465 . S
C491 C486 1.399 . S
C491 C490 1.394 . S
C491 C492 1.516 . S
C492 C491 1.516 . S
C492 C493 1.502 . S
C492 C494 1.561 . S
C492 C495 1.526 . S
C493 H477 0.959 . S
C493 H478 0.959 . S
C493 H479 0.961 . S
C493 C492 1.502 . S
C494 H480 0.960 . S
C494 H481 0.961 . S
C494 H482 0.959 . S
C494 C492 1.561 . S
C495 C492 1.526 . S
C495 C496 1.396 . S
C495 C500 1.390 . S
C496 C490 1.465 . S
C496 C495 1.396 . S
C496 C497 1.399 . S
C497 H483 0.929 . S
C497 C496 1.399 . S
C497 C498 1.385 . S
C498 H484 0.931 . S
C498 C497 1.385 . S
C498 C499 1.389 . S
C499 C498 1.389 . S
C499 C500 1.387 . S
C500 H485 0.930 . S
C500 C495 1.390 . S
C500 C499 1.387 . S
H501 C513 0.930 . S
H502 C515 0.930 . S
H503 C516 0.930 . S
H504 C520 0.959 . S
H505 C520 0.959 . S
H506 C520 0.961 . S
H507 C521 0.960 . S
H508 C521 0.961 . S
H509 C521 0.959 . S
H510 C524 0.929 . S
H511 C525 0.931 . S
H512 C527 0.930 . S
C513 H501 0.930 . S
C513 C514 1.399 . S
C513 C518 1.399 1_655 S
C514 C513 1.399 . S
C514 C515 1.376 . S
C515 H502 0.930 . S
C515 C514 1.376 . S
C515 C516 1.388 . S
C516 H503 0.930 . S
C516 C515 1.388 . S
C516 C517 1.390 1_655 S
C517 C516 1.390 1_455 S
C517 C518 1.394 . S
C517 C523 1.465 . S
C518 C513 1.399 1_455 S
C518 C517 1.394 . S
C518 C519 1.516 . S
C519 C518 1.516 . S
C519 C520 1.502 . S
C519 C521 1.561 . S
C519 C522 1.526 . S
C520 H504 0.959 . S
C520 H505 0.959 . S
C520 H506 0.961 . S
C520 C519 1.502 . S
C521 H507 0.960 . S
C521 H508 0.961 . S
C521 H509 0.959 . S
C521 C519 1.561 . S
C522 C519 1.526 . S
C522 C523 1.396 . S
C522 C527 1.390 . S
C523 C517 1.465 . S
C523 C522 1.396 . S
C523 C524 1.399 . S
C524 H510 0.929 . S
C524 C523 1.399 . S
C524 C525 1.385 . S
C525 H511 0.931 . S
C525 C524 1.385 . S
C525 C526 1.389 . S
C526 C525 1.389 . S
C526 C527 1.387 . S
C527 H512 0.930 . S
C527 C522 1.390 . S
C527 C526 1.387 . S
H528 C540 0.930 . S
H529 C542 0.930 . S
H530 C543 0.930 . S
H531 C547 0.959 . S
H532 C547 0.959 . S
H533 C547 0.961 . S
H534 C548 0.960 . S
H535 C548 0.961 . S
H536 C548 0.959 . S
H537 C551 0.929 . S
H538 C552 0.931 . S
H539 C554 0.930 . S
C540 H528 0.930 . S
C540 C541 1.399 . S
C540 C545 1.399 . S
C541 C540 1.399 . S
C541 C542 1.376 . S
C542 H529 0.930 . S
C542 C541 1.376 . S
C542 C543 1.388 . S
C543 H530 0.930 . S
C543 C542 1.388 . S
C543 C544 1.390 . S
C544 C543 1.390 . S
C544 C545 1.394 . S
C544 C550 1.465 . S
C545 C540 1.399 . S
C545 C544 1.394 . S
C545 C546 1.516 . S
C546 C545 1.516 . S
C546 C547 1.502 . S
C546 C548 1.561 . S
C546 C549 1.526 . S
C547 H531 0.959 . S
C547 H532 0.959 . S
C547 H533 0.961 . S
C547 C546 1.502 . S
C548 H534 0.960 . S
C548 H535 0.961 . S
C548 H536 0.959 . S
C548 C546 1.561 . S
C549 C546 1.526 . S
C549 C550 1.396 . S
C549 C554 1.390 . S
C550 C544 1.465 . S
C550 C549 1.396 . S
C550 C551 1.399 . S
C551 H537 0.929 . S
C551 C550 1.399 . S
C551 C552 1.385 . S
C552 H538 0.931 . S
C552 C551 1.385 . S
C552 C553 1.389 . S
C553 C552 1.389 . S
C553 C554 1.387 . S
C554 H539 0.930 . S
C554 C549 1.390 . S
C554 C553 1.387 . S
H555 C567 0.930 . S
H556 C569 0.930 . S
H557 C570 0.930 . S
H558 C574 0.959 . S
H559 C574 0.959 . S
H560 C574 0.961 . S
H561 C575 0.960 . S
H562 C575 0.961 . S
H563 C575 0.959 . S
H564 C578 0.929 . S
H565 C579 0.931 . S
H566 C581 0.930 . S
C567 H555 0.930 . S
C567 C568 1.399 . S
C567 C572 1.399 . S
C568 C567 1.399 . S
C568 C569 1.376 . S
C569 H556 0.930 . S
C569 C568 1.376 . S
C569 C570 1.388 . S
C570 H557 0.930 . S
C570 C569 1.388 . S
C570 C571 1.390 . S
C571 C570 1.390 . S
C571 C572 1.394 . S
C571 C577 1.465 . S
C572 C567 1.399 . S
C572 C571 1.394 . S
C572 C573 1.516 . S
C573 C572 1.516 . S
C573 C574 1.502 . S
C573 C575 1.561 . S
C573 C576 1.526 . S
C574 H558 0.959 . S
C574 H559 0.959 . S
C574 H560 0.961 . S
C574 C573 1.502 . S
C575 H561 0.960 . S
C575 H562 0.961 . S
C575 H563 0.959 . S
C575 C573 1.561 . S
C576 C573 1.526 . S
C576 C577 1.396 . S
C576 C581 1.390 . S
C577 C571 1.465 . S
C577 C576 1.396 . S
C577 C578 1.399 . S
C578 H564 0.929 . S
C578 C577 1.399 . S
C578 C579 1.385 . S
C579 H565 0.931 . S
C579 C578 1.385 . S
C579 C580 1.389 . S
C580 C579 1.389 . S
C580 C581 1.387 . S
C581 H566 0.930 . S
C581 C576 1.390 . S
C581 C580 1.387 . S
H582 C594 0.930 . S
H583 C596 0.930 . S
H584 C597 0.930 . S
H585 C601 0.959 . S
H586 C601 0.959 . S
H587 C601 0.961 . S
H588 C602 0.960 . S
H589 C602 0.961 . S
H590 C602 0.959 . S
H591 C605 0.929 . S
H592 C606 0.931 . S
H593 C608 0.930 . S
C594 H582 0.930 . S
C594 C595 1.399 . S
C594 C599 1.399 . S
C595 C594 1.399 . S
C595 C596 1.376 . S
C596 H583 0.930 . S
C596 C595 1.376 . S
C596 C597 1.388 . S
C597 H584 0.930 . S
C597 C596 1.388 . S
C597 C598 1.390 . S
C598 C597 1.390 . S
C598 C599 1.394 . S
C598 C604 1.465 . S
C599 C594 1.399 . S
C599 C598 1.394 . S
C599 C600 1.516 . S
C600 C599 1.516 . S
C600 C601 1.502 . S
C600 C602 1.561 . S
C600 C603 1.526 . S
C601 H585 0.959 . S
C601 H586 0.959 . S
C601 H587 0.961 . S
C601 C600 1.502 . S
C602 H588 0.960 . S
C602 H589 0.961 . S
C602 H590 0.959 . S
C602 C600 1.561 . S
C603 C600 1.526 . S
C603 C604 1.396 . S
C603 C608 1.390 . S
C604 C598 1.465 . S
C604 C603 1.396 . S
C604 C605 1.399 . S
C605 H591 0.929 . S
C605 C604 1.399 . S
C605 C606 1.385 . S
C606 H592 0.931 . S
C606 C605 1.385 . S
C606 C607 1.389 . S
C607 C606 1.389 . S
C607 C608 1.387 . S
C608 H593 0.930 . S
C608 C603 1.390 . S
C608 C607 1.387 . S
H609 C621 0.930 . S
H610 C623 0.930 . S
H611 C624 0.930 . S
H612 C628 0.959 . S
H613 C628 0.959 1_554 S
H614 C628 0.961 1_554 S
H615 C629 0.960 . S
H616 C629 0.961 . S
H617 C629 0.959 . S
H618 C632 0.929 . S
H619 C633 0.931 . S
H620 C635 0.930 . S
C621 H609 0.930 . S
C621 C622 1.397 1_554 S
C621 C626 1.399 1_554 S
C622 C621 1.397 1_556 S
C622 C623 1.383 . S
C623 H610 0.930 . S
C623 C622 1.383 . S
C623 C624 1.388 . S
C624 H611 0.930 . S
C624 C623 1.388 . S
C624 C625 1.390 . S
C625 C624 1.390 . S
C625 C626 1.394 . S
C625 C631 1.465 . S
C626 C621 1.399 1_556 S
C626 C625 1.394 . S
C626 C627 1.516 . S
C627 C626 1.516 . S
C627 C628 1.502 . S
C627 C629 1.561 1_556 S
C627 C630 1.526 . S
C628 H612 0.959 . S
C628 H613 0.959 1_556 S
C628 H614 0.961 1_556 S
C628 C627 1.502 . S
C629 H615 0.960 . S
C629 H616 0.961 . S
C629 H617 0.959 . S
C629 C627 1.561 1_554 S
C630 C627 1.526 . S
C630 C631 1.396 . S
C630 C635 1.390 . S
C631 C625 1.465 . S
C631 C630 1.396 . S
C631 C632 1.399 . S
C632 H618 0.929 . S
C632 C631 1.399 . S
C632 C633 1.385 . S
C633 H619 0.931 . S
C633 C632 1.385 . S
C633 C634 1.389 . S
C634 C633 1.389 . S
C634 C635 1.387 . S
C635 H620 0.930 . S
C635 C630 1.390 . S
C635 C634 1.387 . S
H636 C648 0.930 . S
H637 C650 0.930 . S
H638 C651 0.930 . S
H639 C655 0.959 . S
H640 C655 0.959 . S
H641 C655 0.961 . S
H642 C656 0.960 . S
H643 C656 0.961 . S
H644 C656 0.959 . S
H645 C659 0.929 . S
H646 C660 0.931 . S
H647 C662 0.930 . S
C648 H636 0.930 . S
C648 C649 1.399 . S
C648 C653 1.399 . S
C649 C648 1.399 . S
C649 C650 1.376 . S
C650 H637 0.930 . S
C650 C649 1.376 . S
C650 C651 1.388 . S
C651 H638 0.930 . S
C651 C650 1.388 . S
C651 C652 1.390 . S
C652 C651 1.390 . S
C652 C653 1.394 . S
C652 C658 1.465 . S
C653 C648 1.399 . S
C653 C652 1.394 . S
C653 C654 1.516 . S
C654 C653 1.516 . S
C654 C655 1.502 . S
C654 C656 1.561 . S
C654 C657 1.526 . S
C655 H639 0.959 . S
C655 H640 0.959 . S
C655 H641 0.961 . S
C655 C654 1.502 . S
C656 H642 0.960 . S
C656 H643 0.961 . S
C656 H644 0.959 . S
C656 C654 1.561 . S
C657 C654 1.526 . S
C657 C658 1.396 . S
C657 C662 1.390 . S
C658 C652 1.465 . S
C658 C657 1.396 . S
C658 C659 1.399 1_554 S
C659 H645 0.929 . S
C659 C658 1.399 1_556 S
C659 C660 1.385 . S
C660 H646 0.931 . S
C660 C659 1.385 . S
C660 C661 1.389 . S
C661 C660 1.389 . S
C661 C662 1.387 1_556 S
C662 H647 0.930 . S
C662 C657 1.390 . S
C662 C661 1.387 1_554 S
H663 C675 0.930 . S
H664 C677 0.930 . S
H665 C678 0.930 . S
H666 C682 0.959 . S
H667 C682 0.959 . S
H668 C682 0.961 . S
H669 C683 0.960 . S
H670 C683 0.961 . S
H671 C683 0.959 . S
H672 C686 0.929 . S
H673 C687 0.931 . S
H674 C689 0.930 . S
C675 H663 0.930 . S
C675 C676 1.399 . S
C675 C680 1.399 . S
C676 C675 1.399 . S
C676 C677 1.376 . S
C677 H664 0.930 . S
C677 C676 1.376 . S
C677 C678 1.388 . S
C678 H665 0.930 . S
C678 C677 1.388 . S
C678 C679 1.390 . S
C679 C678 1.390 . S
C679 C680 1.394 . S
C679 C685 1.465 . S
C680 C675 1.399 . S
C680 C679 1.394 . S
C680 C681 1.516 . S
C681 C680 1.516 . S
C681 C682 1.502 . S
C681 C683 1.561 . S
C681 C684 1.526 . S
C682 H666 0.959 . S
C682 H667 0.959 . S
C682 H668 0.961 . S
C682 C681 1.502 . S
C683 H669 0.960 . S
C683 H670 0.961 . S
C683 H671 0.959 . S
C683 C681 1.561 . S
C684 C681 1.526 . S
C684 C685 1.396 . S
C684 C689 1.390 . S
C685 C679 1.465 . S
C685 C684 1.396 . S
C685 C686 1.399 . S
C686 H672 0.929 . S
C686 C685 1.399 . S
C686 C687 1.385 . S
C687 H673 0.931 . S
C687 C686 1.385 . S
C687 C688 1.389 . S
C688 C687 1.389 . S
C688 C689 1.387 . S
C689 H674 0.930 . S
C689 C684 1.390 . S
C689 C688 1.387 . S
C217 C0 0.972 . S
C229 C29 0.967 . S
C244 C63 0.972 . S
C256 C34 0.968 . S
C271 C97 0.969 . S
C283 C68 0.969 . S
C298 C102 0.968 . S
C310 C131 0.972 . S
C325 C165 0.972 . S
C337 C136 0.968 . S
C352 C199 0.970 . S
C364 C170 0.970 . S
C379 C13 1.720 . S
C391 C183 1.691 . S
C406 C8 1.767 . S
C418 C42 1.787 . S
C433 C81 1.765 . S
C445 C47 1.737 . S
C460 C110 1.784 . S
C472 C76 1.825 . S
C487 C149 1.690 . S
C499 C115 1.721 . S
C514 C144 1.764 . S
C526 C178 1.795 . S
C541 C4 1.916 . S
C553 C153 2.029 . S
C568 C51 2.019 . S
C580 C174 1.924 . S
C595 C72 1.940 . S
C607 C17 2.022 . S
C622 C119 2.013 1_556 S
C634 C38 1.929 . S
C649 C140 1.942 . S
C661 C85 2.022 . S
C676 C106 1.938 . S
C688 C187 2.023 . S
