# Generated by pormake.
# Topology wlu, (5)-cn, num edge types: 1
# Building blocks:
#     Node 0, Type 0, BuildingBlock: BEQFEK_clean_sbu_0, # of connection points: 5
#     Node 1, Type 0, BuildingBlock: BEQFEK_clean_sbu_0, # of connection points: 5
#     Node 2, Type 0, BuildingBlock: BEQFEK_clean_sbu_0, # of connection points: 5
#     Node 3, Type 0, BuildingBlock: BEQFEK_clean_sbu_0, # of connection points: 5
#     Node 4, Type 0, BuildingBlock: BEQFEK_clean_sbu_0, # of connection points: 5
#     Node 5, Type 0, BuildingBlock: BEQFEK_clean_sbu_0, # of connection points: 5
#     Node 6, Type 0, BuildingBlock: BEQFEK_clean_sbu_0, # of connection points: 5
#     Node 7, Type 0, BuildingBlock: BEQFEK_clean_sbu_0, # of connection points: 5
#     Node 8, Type 0, BuildingBlock: BEQFEK_clean_sbu_0, # of connection points: 5
#     Node 9, Type 0, BuildingBlock: BEQFEK_clean_sbu_0, # of connection points: 5
#     Node 10, Type 0, BuildingBlock: BEQFEK_clean_sbu_0, # of connection points: 5
#     Node 11, Type 0, BuildingBlock: BEQFEK_clean_sbu_0, # of connection points: 5
#     Node 12, Type 0, BuildingBlock: BEQFEK_clean_sbu_0, # of connection points: 5
#     Node 13, Type 0, BuildingBlock: BEQFEK_clean_sbu_0, # of connection points: 5
#     Node 14, Type 0, BuildingBlock: BEQFEK_clean_sbu_0, # of connection points: 5
#     Node 15, Type 0, BuildingBlock: BEQFEK_clean_sbu_0, # of connection points: 5
#     Node 16, Type 0, BuildingBlock: BEQFEK_clean_sbu_0, # of connection points: 5
#     Node 17, Type 0, BuildingBlock: BEQFEK_clean_sbu_0, # of connection points: 5
#     Node 18, Type 0, BuildingBlock: BEQFEK_clean_sbu_0, # of connection points: 5
#     Node 19, Type 0, BuildingBlock: BEQFEK_clean_sbu_0, # of connection points: 5
#     Node 20, Type 0, BuildingBlock: BEQFEK_clean_sbu_0, # of connection points: 5
#     Node 21, Type 0, BuildingBlock: BEQFEK_clean_sbu_0, # of connection points: 5
#     Node 22, Type 0, BuildingBlock: BEQFEK_clean_sbu_0, # of connection points: 5
#     Node 23, Type 0, BuildingBlock: BEQFEK_clean_sbu_0, # of connection points: 5
#     Node 24, Type 0, BuildingBlock: BEQFEK_clean_sbu_0, # of connection points: 5
#     Node 25, Type 0, BuildingBlock: BEQFEK_clean_sbu_0, # of connection points: 5
#     Node 26, Type 0, BuildingBlock: BEQFEK_clean_sbu_0, # of connection points: 5
#     Node 27, Type 0, BuildingBlock: BEQFEK_clean_sbu_0, # of connection points: 5
#     Node 28, Type 0, BuildingBlock: BEQFEK_clean_sbu_0, # of connection points: 5
#     Node 29, Type 0, BuildingBlock: BEQFEK_clean_sbu_0, # of connection points: 5
#     Node 30, Type 0, BuildingBlock: BEQFEK_clean_sbu_0, # of connection points: 5
#     Node 31, Type 0, BuildingBlock: BEQFEK_clean_sbu_0, # of connection points: 5
#     Node 32, Type 0, BuildingBlock: BEQFEK_clean_sbu_0, # of connection points: 5
#     Node 33, Type 0, BuildingBlock: BEQFEK_clean_sbu_0, # of connection points: 5
#     Node 34, Type 0, BuildingBlock: BEQFEK_clean_sbu_0, # of connection points: 5
#     Node 35, Type 0, BuildingBlock: BEQFEK_clean_sbu_0, # of connection points: 5
#     Edge 36, Type (0, 0), BuildingBlock: UVAHIK_clean_linker_0, # of connection points: 2
#     Edge 37, Type (0, 0), BuildingBlock: UVAHIK_clean_linker_0, # of connection points: 2
#     Edge 38, Type (0, 0), BuildingBlock: UVAHIK_clean_linker_0, # of connection points: 2
#     Edge 39, Type (0, 0), BuildingBlock: UVAHIK_clean_linker_0, # of connection points: 2
#     Edge 40, Type (0, 0), BuildingBlock: UVAHIK_clean_linker_0, # of connection points: 2
#     Edge 41, Type (0, 0), BuildingBlock: UVAHIK_clean_linker_0, # of connection points: 2
#     Edge 42, Type (0, 0), BuildingBlock: UVAHIK_clean_linker_0, # of connection points: 2
#     Edge 43, Type (0, 0), BuildingBlock: UVAHIK_clean_linker_0, # of connection points: 2
#     Edge 44, Type (0, 0), BuildingBlock: UVAHIK_clean_linker_0, # of connection points: 2
#     Edge 45, Type (0, 0), BuildingBlock: UVAHIK_clean_linker_0, # of connection points: 2
#     Edge 46, Type (0, 0), BuildingBlock: UVAHIK_clean_linker_0, # of connection points: 2
#     Edge 47, Type (0, 0), BuildingBlock: UVAHIK_clean_linker_0, # of connection points: 2
#     Edge 48, Type (0, 0), BuildingBlock: UVAHIK_clean_linker_0, # of connection points: 2
#     Edge 49, Type (0, 0), BuildingBlock: UVAHIK_clean_linker_0, # of connection points: 2
#     Edge 50, Type (0, 0), BuildingBlock: UVAHIK_clean_linker_0, # of connection points: 2
#     Edge 51, Type (0, 0), BuildingBlock: UVAHIK_clean_linker_0, # of connection points: 2
#     Edge 52, Type (0, 0), BuildingBlock: UVAHIK_clean_linker_0, # of connection points: 2
#     Edge 53, Type (0, 0), BuildingBlock: UVAHIK_clean_linker_0, # of connection points: 2
#     Edge 54, Type (0, 0), BuildingBlock: UVAHIK_clean_linker_0, # of connection points: 2
#     Edge 55, Type (0, 0), BuildingBlock: UVAHIK_clean_linker_0, # of connection points: 2
#     Edge 56, Type (0, 0), BuildingBlock: UVAHIK_clean_linker_0, # of connection points: 2
#     Edge 57, Type (0, 0), BuildingBlock: UVAHIK_clean_linker_0, # of connection points: 2
#     Edge 58, Type (0, 0), BuildingBlock: UVAHIK_clean_linker_0, # of connection points: 2
#     Edge 59, Type (0, 0), BuildingBlock: UVAHIK_clean_linker_0, # of connection points: 2
#     Edge 60, Type (0, 0), BuildingBlock: UVAHIK_clean_linker_0, # of connection points: 2
#     Edge 61, Type (0, 0), BuildingBlock: UVAHIK_clean_linker_0, # of connection points: 2
#     Edge 62, Type (0, 0), BuildingBlock: UVAHIK_clean_linker_0, # of connection points: 2
#     Edge 63, Type (0, 0), BuildingBlock: UVAHIK_clean_linker_0, # of connection points: 2
#     Edge 64, Type (0, 0), BuildingBlock: UVAHIK_clean_linker_0, # of connection points: 2
#     Edge 65, Type (0, 0), BuildingBlock: UVAHIK_clean_linker_0, # of connection points: 2
#     Edge 66, Type (0, 0), BuildingBlock: UVAHIK_clean_linker_0, # of connection points: 2
#     Edge 67, Type (0, 0), BuildingBlock: UVAHIK_clean_linker_0, # of connection points: 2
#     Edge 68, Type (0, 0), BuildingBlock: UVAHIK_clean_linker_0, # of connection points: 2
#     Edge 69, Type (0, 0), BuildingBlock: UVAHIK_clean_linker_0, # of connection points: 2
#     Edge 70, Type (0, 0), BuildingBlock: UVAHIK_clean_linker_0, # of connection points: 2
#     Edge 71, Type (0, 0), BuildingBlock: UVAHIK_clean_linker_0, # of connection points: 2
#     Edge 72, Type (0, 0), BuildingBlock: UVAHIK_clean_linker_0, # of connection points: 2
#     Edge 73, Type (0, 0), BuildingBlock: UVAHIK_clean_linker_0, # of connection points: 2
#     Edge 74, Type (0, 0), BuildingBlock: UVAHIK_clean_linker_0, # of connection points: 2
#     Edge 75, Type (0, 0), BuildingBlock: UVAHIK_clean_linker_0, # of connection points: 2
#     Edge 76, Type (0, 0), BuildingBlock: UVAHIK_clean_linker_0, # of connection points: 2
#     Edge 77, Type (0, 0), BuildingBlock: UVAHIK_clean_linker_0, # of connection points: 2
#     Edge 78, Type (0, 0), BuildingBlock: UVAHIK_clean_linker_0, # of connection points: 2
#     Edge 79, Type (0, 0), BuildingBlock: UVAHIK_clean_linker_0, # of connection points: 2
#     Edge 80, Type (0, 0), BuildingBlock: UVAHIK_clean_linker_0, # of connection points: 2
#     Edge 81, Type (0, 0), BuildingBlock: UVAHIK_clean_linker_0, # of connection points: 2
#     Edge 82, Type (0, 0), BuildingBlock: UVAHIK_clean_linker_0, # of connection points: 2
#     Edge 83, Type (0, 0), BuildingBlock: UVAHIK_clean_linker_0, # of connection points: 2
#     Edge 84, Type (0, 0), BuildingBlock: UVAHIK_clean_linker_0, # of connection points: 2
#     Edge 85, Type (0, 0), BuildingBlock: UVAHIK_clean_linker_0, # of connection points: 2
#     Edge 86, Type (0, 0), BuildingBlock: UVAHIK_clean_linker_0, # of connection points: 2
#     Edge 87, Type (0, 0), BuildingBlock: UVAHIK_clean_linker_0, # of connection points: 2
#     Edge 88, Type (0, 0), BuildingBlock: UVAHIK_clean_linker_0, # of connection points: 2
#     Edge 89, Type (0, 0), BuildingBlock: UVAHIK_clean_linker_0, # of connection points: 2
#     Edge 90, Type (0, 0), BuildingBlock: UVAHIK_clean_linker_0, # of connection points: 2
#     Edge 91, Type (0, 0), BuildingBlock: UVAHIK_clean_linker_0, # of connection points: 2
#     Edge 92, Type (0, 0), BuildingBlock: UVAHIK_clean_linker_0, # of connection points: 2
#     Edge 93, Type (0, 0), BuildingBlock: UVAHIK_clean_linker_0, # of connection points: 2
#     Edge 94, Type (0, 0), BuildingBlock: UVAHIK_clean_linker_0, # of connection points: 2
#     Edge 95, Type (0, 0), BuildingBlock: UVAHIK_clean_linker_0, # of connection points: 2
#     Edge 96, Type (0, 0), BuildingBlock: UVAHIK_clean_linker_0, # of connection points: 2
#     Edge 97, Type (0, 0), BuildingBlock: UVAHIK_clean_linker_0, # of connection points: 2
#     Edge 98, Type (0, 0), BuildingBlock: UVAHIK_clean_linker_0, # of connection points: 2
#     Edge 99, Type (0, 0), BuildingBlock: UVAHIK_clean_linker_0, # of connection points: 2
#     Edge 100, Type (0, 0), BuildingBlock: UVAHIK_clean_linker_0, # of connection points: 2
#     Edge 101, Type (0, 0), BuildingBlock: UVAHIK_clean_linker_0, # of connection points: 2
#     Edge 102, Type (0, 0), BuildingBlock: UVAHIK_clean_linker_0, # of connection points: 2
#     Edge 103, Type (0, 0), BuildingBlock: UVAHIK_clean_linker_0, # of connection points: 2
#     Edge 104, Type (0, 0), BuildingBlock: UVAHIK_clean_linker_0, # of connection points: 2
#     Edge 105, Type (0, 0), BuildingBlock: UVAHIK_clean_linker_0, # of connection points: 2
#     Edge 106, Type (0, 0), BuildingBlock: UVAHIK_clean_linker_0, # of connection points: 2
#     Edge 107, Type (0, 0), BuildingBlock: UVAHIK_clean_linker_0, # of connection points: 2
#     Edge 108, Type (0, 0), BuildingBlock: UVAHIK_clean_linker_0, # of connection points: 2
#     Edge 109, Type (0, 0), BuildingBlock: UVAHIK_clean_linker_0, # of connection points: 2
#     Edge 110, Type (0, 0), BuildingBlock: UVAHIK_clean_linker_0, # of connection points: 2
#     Edge 111, Type (0, 0), BuildingBlock: UVAHIK_clean_linker_0, # of connection points: 2
#     Edge 112, Type (0, 0), BuildingBlock: UVAHIK_clean_linker_0, # of connection points: 2
#     Edge 113, Type (0, 0), BuildingBlock: UVAHIK_clean_linker_0, # of connection points: 2
#     Edge 114, Type (0, 0), BuildingBlock: UVAHIK_clean_linker_0, # of connection points: 2
#     Edge 115, Type (0, 0), BuildingBlock: UVAHIK_clean_linker_0, # of connection points: 2
#     Edge 116, Type (0, 0), BuildingBlock: UVAHIK_clean_linker_0, # of connection points: 2
#     Edge 117, Type (0, 0), BuildingBlock: UVAHIK_clean_linker_0, # of connection points: 2
#     Edge 118, Type (0, 0), BuildingBlock: UVAHIK_clean_linker_0, # of connection points: 2
#     Edge 119, Type (0, 0), BuildingBlock: UVAHIK_clean_linker_0, # of connection points: 2
#     Edge 120, Type (0, 0), BuildingBlock: UVAHIK_clean_linker_0, # of connection points: 2
#     Edge 121, Type (0, 0), BuildingBlock: UVAHIK_clean_linker_0, # of connection points: 2
#     Edge 122, Type (0, 0), BuildingBlock: UVAHIK_clean_linker_0, # of connection points: 2
#     Edge 123, Type (0, 0), BuildingBlock: UVAHIK_clean_linker_0, # of connection points: 2
#     Edge 124, Type (0, 0), BuildingBlock: UVAHIK_clean_linker_0, # of connection points: 2
#     Edge 125, Type (0, 0), BuildingBlock: UVAHIK_clean_linker_0, # of connection points: 2
# Relax obj value: 0.085
# Max RMSD: 0.145
# Mean RMSD: 0.145
data_MOF--net-wlu--node1-BEQFEK_clean_sbu_0--edge1-UVAHIK_clean_linker_0
_symmetry_space_group_name_H-M    P1
_symmetry_Int_Tables_number       1
_symmetry_cell_setting            triclinic
loop_
_symmetry_equiv_pos_as_xyz
'x, y, z'
_cell_length_a     85.274141
_cell_length_b     85.281154
_cell_length_c     73.211051
_cell_angle_alpha  89.985923
_cell_angle_beta   90.015176
_cell_angle_gamma 120.01036
loop_
_atom_site_label
_atom_site_type_symbol
_atom_site_fract_x
_atom_site_fract_y
_atom_site_fract_z
_atom_type_partial_charge
Co0 Co 0.2917 0.20893 0.03843 0.0
Co1 Co 0.26607 0.16736 0.03207 0.0
C2 C 0.29353 0.19083 0.0042 0.0
O3 O 0.29884 0.20496 0.01395 0.0
O4 O 0.28115 0.17536 0.00964 0.0
C5 C 0.32561 0.24226 0.04207 0.0
O6 O 0.3321 0.23429 0.03167 0.0
C7 C 0.25425 0.12961 0.02313 0.0
C8 C 0.22723 0.11511 0.0361 0.0
C9 C 0.23932 0.11251 0.02572 0.0
N10 N 0.25116 0.14171 0.03174 0.0
N11 N 0.23503 0.13297 0.03951 0.0
C12 C 0.27025 0.1349 0.01097 0.0
H13 H 0.26873 0.14153 -0.0014 0.0
H14 H 0.28281 0.14489 0.01811 0.0
H15 H 0.27152 0.12321 0.00648 0.0
C16 C 0.30066 0.19498 0.07159 0.0
N17 N 0.29151 0.19239 0.05584 0.0
N18 N 0.28087 0.17491 0.05317 0.0
C19 C 0.28305 0.16578 0.06705 0.0
C20 C 0.29561 0.17822 0.0792 0.0
C21 C 0.31464 0.21316 0.07863 0.0
H22 H 0.32605 0.21935 0.06882 0.0
H23 H 0.32007 0.21228 0.09211 0.0
H24 H 0.30869 0.22209 0.07971 0.0
O25 O 0.26764 0.20681 0.03654 0.0
O26 O 0.24954 0.17739 0.03184 0.0
H27 H 0.25802 0.1408 0.0688 0.0
H28 H 0.27609 0.14107 0.08183 0.0
C29 C 0.27273 0.14561 0.06896 0.0
H30 H 0.27581 0.13944 0.05716 0.0
H31 H 0.22922 0.13926 0.04689 0.0
O32 O 0.3089 0.23387 0.04622 0.0
C33 C 0.25194 0.19329 0.03372 0.0
Co34 Co 0.78244 0.0796 0.03904 0.0
Co35 Co 0.82388 0.09589 0.03146 0.0
C36 C 0.80031 0.10075 0.0049 0.0
O37 O 0.78634 0.09131 0.01472 0.0
O38 O 0.81597 0.1041 0.00993 0.0
C39 C 0.75039 0.08201 0.0448 0.0
O40 O 0.75935 0.09751 0.03611 0.0
C41 C 0.86185 0.1178 0.01955 0.0
C42 C 0.87583 0.10957 0.03953 0.0
C43 C 0.87879 0.12068 0.0246 0.0
N44 N 0.8495 0.10575 0.03119 0.0
N45 N 0.85794 0.10082 0.04302 0.0
C46 C 0.85711 0.12492 0.00302 0.0
H47 H 0.84619 0.11345 0.99533 0.0
H48 H 0.85197 0.13398 0.0074 0.0
H49 H 0.86879 0.13231 0.9937 0.0
C50 C 0.797 0.10195 0.07243 0.0
N51 N 0.7993 0.09547 0.05649 0.0
N52 N 0.81673 0.10285 0.05313 0.0
C53 C 0.82608 0.11471 0.06656 0.0
C54 C 0.81387 0.11448 0.07926 0.0
C55 C 0.77903 0.09563 0.08138 0.0
H56 H 0.77015 0.08087 0.07927 0.0
H57 H 0.77249 0.10279 0.07518 0.0
H58 H 0.78057 0.09844 0.09626 0.0
O59 O 0.78406 0.05751 0.03654 0.0
O60 O 0.81318 0.06917 0.02991 0.0
H61 H 0.85283 0.11968 0.07169 0.0
H62 H 0.85017 0.13913 0.07522 0.0
C63 C 0.84617 0.1271 0.06645 0.0
H64 H 0.85095 0.13167 0.05233 0.0
H65 H 0.85144 0.09141 0.05346 0.0
O66 O 0.7577 0.07231 0.04711 0.0
C67 C 0.79745 0.05555 0.03236 0.0
Co68 Co 0.9108 0.70093 0.03972 0.0
Co69 Co 0.8956 0.72703 0.03266 0.0
C70 C 0.88971 0.6981 0.0059 0.0
O71 O 0.8984 0.6928 0.01588 0.0
O72 O 0.88745 0.71117 0.01077 0.0
C73 C 0.90949 0.66673 0.04415 0.0
O74 O 0.8948 0.6602 0.03407 0.0
C75 C 0.87025 0.73973 0.02422 0.0
C76 C 0.88472 0.76764 0.03517 0.0
C77 C 0.86918 0.75539 0.02595 0.0
N78 N 0.88568 0.74264 0.03214 0.0
N79 N 0.89421 0.75928 0.03877 0.0
C80 C 0.85821 0.72306 0.01341 0.0
H81 H 0.86473 0.724 5e-05 0.0
H82 H 0.85669 0.71093 0.02064 0.0
H83 H 0.84472 0.72144 0.01075 0.0
C84 C 0.88915 0.69381 0.07348 0.0
N85 N 0.89543 0.70237 0.05742 0.0
N86 N 0.88882 0.71317 0.05447 0.0
C87 C 0.87798 0.71171 0.06855 0.0
C88 C 0.87789 0.69944 0.08108 0.0
C89 C 0.89291 0.67957 0.08068 0.0
H90 H 0.90775 0.68511 0.0815 0.0
H91 H 0.8872 0.66797 0.07108 0.0
H92 H 0.88678 0.67449 0.09428 0.0
O93 O 0.93315 0.72462 0.03668 0.0
O94 O 0.92216 0.74287 0.03115 0.0
H95 H 0.87825 0.7369 0.06899 0.0
H96 H 0.86104 0.71971 0.08333 0.0
C97 C 0.86831 0.72224 0.07014 0.0
H98 H 0.85852 0.7185 0.05872 0.0
H99 H 0.90673 0.76506 0.04539 0.0
O100 O 0.91817 0.68354 0.04785 0.0
C101 C 0.93551 0.74025 0.03303 0.0
Co102 Co 0.20857 0.29417 0.45641 0.0
Co103 Co 0.16693 0.2683 0.46166 0.0
C104 C 0.18865 0.29538 0.48995 0.0
O105 O 0.20304 0.30059 0.48065 0.0
O106 O 0.17335 0.28306 0.48413 0.0
C107 C 0.23884 0.32949 0.45127 0.0
O108 O 0.22703 0.33463 0.45508 0.0
C109 C 0.12861 0.25304 0.47092 0.0
C110 C 0.1156 0.22829 0.45397 0.0
C111 C 0.11205 0.23787 0.46701 0.0
N112 N 0.14142 0.25233 0.46088 0.0
N113 N 0.13356 0.23754 0.45073 0.0
C114 C 0.13213 0.26851 0.48316 0.0
H115 H 0.14291 0.28141 0.47724 0.0
H116 H 0.11972 0.26944 0.48512 0.0
H117 H 0.1368 0.2665 0.49665 0.0
C118 C 0.19542 0.30253 0.42212 0.0
N119 N 0.19256 0.29366 0.4381 0.0
N120 N 0.17501 0.2833 0.44065 0.0
C121 C 0.16614 0.28564 0.42663 0.0
C122 C 0.1788 0.29792 0.41443 0.0
C123 C 0.21364 0.31412 0.41364 0.0
H124 H 0.22299 0.30921 0.41757 0.0
H125 H 0.21928 0.32828 0.4184 0.0
H126 H 0.2126 0.31403 0.39852 0.0
O127 O 0.20733 0.27053 0.45825 0.0
O128 O 0.1779 0.25255 0.46307 0.0
H129 H 0.14012 0.26268 0.4214 0.0
H130 H 0.14185 0.28406 0.41548 0.0
C131 C 0.14597 0.27705 0.42552 0.0
H132 H 0.14045 0.27742 0.43912 0.0
H133 H 0.1405 0.23365 0.44174 0.0
O134 O 0.23375 0.31272 0.4509 0.0
C135 C 0.19381 0.25492 0.46139 0.0
Co136 Co 0.69677 0.91096 0.45723 0.0
Co137 Co 0.72417 0.89725 0.4631 0.0
C138 C 0.69408 0.88807 0.48944 0.0
O139 O 0.6884 0.89688 0.48018 0.0
O140 O 0.70777 0.88702 0.4843 0.0
C141 C 0.66171 0.90735 0.45221 0.0
O142 O 0.65553 0.89073 0.45812 0.0
C143 C 0.7369 0.87187 0.4698 0.0
C144 C 0.76615 0.88843 0.46386 0.0
C145 C 0.75306 0.87158 0.47025 0.0
N146 N 0.74042 0.88818 0.46376 0.0
N147 N 0.75789 0.89799 0.46011 0.0
C148 C 0.71821 0.85692 0.47427 0.0
H149 H 0.70799 0.85879 0.46668 0.0
H150 H 0.71667 0.84355 0.4708 0.0
H151 H 0.71567 0.85725 0.48908 0.0
C152 C 0.69168 0.89187 0.42187 0.0
N153 N 0.69961 0.89735 0.43835 0.0
N154 N 0.71105 0.89143 0.44081 0.0
C155 C 0.71068 0.88187 0.426 0.0
C156 C 0.6984 0.88182 0.41352 0.0
C157 C 0.67706 0.89517 0.41493 0.0
H158 H 0.68134 0.9097 0.41647 0.0
H159 H 0.66468 0.88714 0.42321 0.0
H160 H 0.67363 0.89114 0.40046 0.0
O161 O 0.71983 0.93374 0.46161 0.0
O162 O 0.73899 0.9237 0.46634 0.0
H163 H 0.73641 0.88321 0.42738 0.0
H164 H 0.72183 0.86877 0.40939 0.0
C165 C 0.72222 0.87335 0.42366 0.0
H166 H 0.71732 0.86154 0.43295 0.0
H167 H 0.76424 0.91136 0.45549 0.0
O168 O 0.67867 0.91788 0.45056 0.0
C169 C 0.73564 0.93662 0.46532 0.0
Co170 Co 0.08038 0.78299 0.45509 0.0
Co171 Co 0.09307 0.82384 0.46159 0.0
C172 C 0.10108 0.80205 0.48842 0.0
O173 O 0.09328 0.78785 0.4786 0.0
O174 O 0.10187 0.81673 0.48343 0.0
C175 C 0.08212 0.75012 0.45101 0.0
O176 O 0.09593 0.75773 0.46229 0.0
C177 C 0.1188 0.86172 0.46898 0.0
C178 C 0.10282 0.875 0.4629 0.0
C179 C 0.11957 0.8784 0.46925 0.0
N180 N 0.10236 0.84918 0.46299 0.0
N181 N 0.09286 0.85717 0.45932 0.0
C182 C 0.13348 0.85757 0.47339 0.0
H183 H 0.13108 0.84513 0.46613 0.0
H184 H 0.14693 0.86905 0.46951 0.0
H185 H 0.13338 0.85508 0.48828 0.0
C186 C 0.10161 0.7982 0.42123 0.0
N187 N 0.09498 0.80017 0.43721 0.0
N188 N 0.10036 0.81741 0.43975 0.0
C189 C 0.11056 0.82698 0.42538 0.0
C190 C 0.11167 0.81511 0.41319 0.0
C191 C 0.09941 0.7806 0.41458 0.0
H192 H 0.10474 0.77511 0.42507 0.0
H193 H 0.10676 0.78211 0.40164 0.0
H194 H 0.0848 0.77074 0.41262 0.0
O195 O 0.05738 0.78303 0.45886 0.0
O196 O 0.06644 0.81215 0.46274 0.0
H197 H 0.12303 0.85125 0.40881 0.0
H198 H 0.13036 0.85413 0.43231 0.0
C199 C 0.11854 0.84698 0.42308 0.0
H200 H 0.10841 0.85093 0.42686 0.0
H201 H 0.07952 0.85041 0.45462 0.0
O202 O 0.07385 0.75851 0.44663 0.0
C203 C 0.05387 0.79569 0.46167 0.0
Co204 Co 0.69532 0.78374 0.95692 0.0
Co205 Co 0.72423 0.82463 0.96168 0.0
C206 C 0.69523 0.80442 0.98965 0.0
O207 O 0.68822 0.78992 0.98028 0.0
O208 O 0.7092 0.81872 0.98408 0.0
C209 C 0.65979 0.75231 0.95274 0.0
O210 O 0.65372 0.76275 0.9589 0.0
C211 C 0.73783 0.86284 0.96874 0.0
C212 C 0.76671 0.87524 0.96124 0.0
C213 C 0.75411 0.8792 0.96863 0.0
N214 N 0.74083 0.84993 0.96205 0.0
N215 N 0.75808 0.85741 0.95747 0.0
C216 C 0.71947 0.85934 0.97433 0.0
H217 H 0.70879 0.84736 0.96697 0.0
H218 H 0.71797 0.8713 0.97146 0.0
H219 H 0.71761 0.85637 0.98918 0.0
C220 C 0.68926 0.7979 0.92207 0.0
N221 N 0.69778 0.80024 0.93819 0.0
N222 N 0.70977 0.81752 0.94028 0.0
C223 C 0.7092 0.82675 0.9256 0.0
C224 C 0.69618 0.81463 0.91359 0.0
C225 C 0.6741 0.7801 0.91552 0.0
H226 H 0.66216 0.77596 0.92444 0.0
H227 H 0.67004 0.78078 0.90131 0.0
H228 H 0.67816 0.76964 0.91648 0.0
O229 O 0.7182 0.78344 0.96038 0.0
O230 O 0.73878 0.81256 0.96285 0.0
H231 H 0.72054 0.85081 0.90866 0.0
H232 H 0.71767 0.85419 0.93253 0.0
C233 C 0.72144 0.84665 0.9228 0.0
H234 H 0.73563 0.85027 0.92565 0.0
H235 H 0.76404 0.85026 0.95219 0.0
O236 O 0.67672 0.75875 0.95067 0.0
C237 C 0.73456 0.796 0.96242 0.0
Co238 Co 0.20586 0.90832 0.9555 0.0
Co239 Co 0.16592 0.89879 0.96239 0.0
C240 C 0.18671 0.88989 0.98965 0.0
O241 O 0.20067 0.89635 0.97949 0.0
O242 O 0.17248 0.89004 0.98466 0.0
C243 C 0.24351 0.92016 0.95695 0.0
O244 O 0.24239 0.9262 0.97313 0.0
C245 C 0.12798 0.87532 0.97099 0.0
C246 C 0.11608 0.89259 0.9651 0.0
C247 C 0.11192 0.87576 0.97193 0.0
N248 N 0.14093 0.89118 0.96423 0.0
N249 N 0.13376 0.90144 0.96064 0.0
C250 C 0.13115 0.86002 0.97558 0.0
H251 H 0.14283 0.86124 0.9677 0.0
H252 H 0.11892 0.84679 0.97259 0.0
H253 H 0.13444 0.86062 0.99032 0.0
C254 C 0.18914 0.88664 0.92245 0.0
N255 N 0.18792 0.89394 0.93827 0.0
N256 N 0.17102 0.88982 0.9409 0.0
C257 C 0.16091 0.87979 0.92669 0.0
C258 C 0.17211 0.87751 0.91453 0.0
C259 C 0.2062 0.88769 0.91564 0.0
H260 H 0.21233 0.88366 0.92673 0.0
H261 H 0.20372 0.87874 0.9037 0.0
H262 H 0.21601 0.90189 0.91181 0.0
O263 O 0.20793 0.93238 0.95826 0.0
O264 O 0.1794 0.92552 0.96245 0.0
H265 H 0.13658 0.86859 0.91024 0.0
H266 H 0.13332 0.86188 0.93395 0.0
C267 C 0.14116 0.87327 0.9244 0.0
H268 H 0.13839 0.88432 0.92783 0.0
H269 H 0.14102 0.9146 0.9555 0.0
O270 O 0.22942 0.91211 0.94711 0.0
C271 C 0.19616 0.93716 0.96092 0.0
Co272 Co 0.07917 0.29105 0.95434 0.0
Co273 Co 0.0946 0.26504 0.96107 0.0
C274 C 0.09961 0.29326 0.98848 0.0
O275 O 0.09112 0.29874 0.97843 0.0
O276 O 0.10202 0.28031 0.98346 0.0
C277 C 0.08099 0.3254 0.94891 0.0
O278 O 0.09676 0.33235 0.95713 0.0
C279 C 0.11685 0.24921 0.97229 0.0
C280 C 0.10829 0.22681 0.9525 0.0
C281 C 0.11969 0.23516 0.96719 0.0
N282 N 0.10453 0.24934 0.96094 0.0
N283 N 0.09943 0.23588 0.94919 0.0
C284 C 0.12401 0.26104 0.98881 0.0
H285 H 0.13159 0.27545 0.98452 0.0
H286 H 0.13279 0.25784 -0.00269 0.0
H287 H 0.11238 0.25901 -0.0027 0.0
C288 C 0.1019 0.29954 0.92117 0.0
N289 N 0.09504 0.29027 0.93679 0.0
N290 N 0.10215 0.27993 0.93988 0.0
C291 C 0.11414 0.28265 0.9265 0.0
C292 C 0.11434 0.29516 0.9142 0.0
C293 C 0.09606 0.31176 0.91263 0.0
H294 H 0.08129 0.30602 0.91445 0.0
H295 H 0.10327 0.32519 0.91937 0.0
H296 H 0.09923 0.31359 0.89782 0.0
O297 O 0.057 0.26731 0.95683 0.0
O298 O 0.06793 0.24891 0.9615 0.0
H299 H 0.11838 0.26046 0.9211 0.0
H300 H 0.13811 0.28235 0.91731 0.0
C301 C 0.12617 0.27455 0.92627 0.0
H302 H 0.1309 0.27424 0.9403 0.0
H303 H 0.08979 0.23283 0.93895 0.0
O304 O 0.0716 0.30837 0.94667 0.0
C305 C 0.05458 0.25156 0.95977 0.0
Co306 Co 0.78191 0.69816 0.53788 0.0
Co307 Co 0.82316 0.72506 0.53162 0.0
C308 C 0.80132 0.69638 0.50439 0.0
O309 O 0.78717 0.69065 0.51418 0.0
O310 O 0.81639 0.70967 0.50951 0.0
C311 C 0.75118 0.66293 0.54326 0.0
O312 O 0.7623 0.65726 0.53825 0.0
C313 C 0.86123 0.73848 0.52312 0.0
C314 C 0.87464 0.76586 0.53528 0.0
C315 C 0.87792 0.75404 0.52523 0.0
N316 N 0.84863 0.74105 0.53134 0.0
N317 N 0.85671 0.75743 0.53862 0.0
C318 C 0.85734 0.72105 0.51434 0.0
H319 H 0.84566 0.70948 0.52115 0.0
H320 H 0.86934 0.71924 0.51506 0.0
H321 H 0.85384 0.72123 0.49978 0.0
C322 C 0.79616 0.69199 0.57257 0.0
N323 N 0.79848 0.70004 0.55618 0.0
N324 N 0.8159 0.71092 0.5533 0.0
C325 C 0.82525 0.70982 0.56761 0.0
C326 C 0.81305 0.69784 0.5803 0.0
C327 C 0.77814 0.67837 0.58027 0.0
H328 H 0.76812 0.6828 0.57778 0.0
H329 H 0.77343 0.6652 0.57334 0.0
H330 H 0.77883 0.67625 0.5951 0.0
O331 O 0.78259 0.72151 0.53484 0.0
O332 O 0.81185 0.74039 0.52995 0.0
H333 H 0.84993 0.73519 0.56872 0.0
H334 H 0.85019 0.71773 0.58238 0.0
C335 C 0.84543 0.72056 0.56935 0.0
H336 H 0.85168 0.71734 0.55773 0.0
H337 H 0.84995 0.76291 0.54572 0.0
O338 O 0.75691 0.67982 0.54429 0.0
C339 C 0.79568 0.73733 0.5315 0.0
Co340 Co 0.29263 0.082 0.53933 0.0
Co341 Co 0.26504 0.09511 0.53128 0.0
C342 C 0.29621 0.10423 0.50629 0.0
O343 O 0.30171 0.0957 0.51625 0.0
O344 O 0.28226 0.10522 0.51062 0.0
C345 C 0.32724 0.08414 0.54506 0.0
O346 O 0.33393 0.09859 0.53461 0.0
C347 C 0.25156 0.11976 0.52312 0.0
C348 C 0.22229 0.10261 0.52861 0.0
C349 C 0.23516 0.11958 0.52227 0.0
N350 N 0.24837 0.10363 0.52939 0.0
N351 N 0.23088 0.09346 0.53272 0.0
C352 C 0.27016 0.13504 0.51893 0.0
H353 H 0.28046 0.13339 0.52663 0.0
H354 H 0.27133 0.14824 0.52245 0.0
H355 H 0.27292 0.13491 0.50414 0.0
C356 C 0.29656 0.10182 0.57373 0.0
N357 N 0.28892 0.09582 0.55723 0.0
N358 N 0.27735 0.10144 0.55403 0.0
C359 C 0.27727 0.11125 0.56845 0.0
C360 C 0.28942 0.11177 0.58141 0.0
C361 C 0.31148 0.09925 0.58119 0.0
H362 H 0.32306 0.10528 0.57157 0.0
H363 H 0.31631 0.10575 0.5947 0.0
H364 H 0.30669 0.08457 0.58234 0.0
O365 O 0.26998 0.05899 0.53444 0.0
O366 O 0.25071 0.06858 0.52828 0.0
H367 H 0.26553 0.12442 0.584 0.0
H368 H 0.27067 0.13133 0.56041 0.0
C369 C 0.26557 0.11966 0.5699 0.0
H370 H 0.25151 0.10967 0.56586 0.0
H371 H 0.22476 0.08015 0.5375 0.0
O372 O 0.31036 0.07545 0.54841 0.0
C373 C 0.25426 0.05582 0.52992 0.0
Co374 Co 0.91213 0.21022 0.53666 0.0
Co375 Co 0.89709 0.16879 0.53131 0.0
C376 C 0.89156 0.19063 0.50301 0.0
O377 O 0.90029 0.20497 0.51247 0.0
O378 O 0.88897 0.17543 0.50872 0.0
C379 C 0.90777 0.24105 0.54166 0.0
O380 O 0.89083 0.22978 0.53725 0.0
C381 C 0.87178 0.13075 0.52356 0.0
C382 C 0.88641 0.11738 0.53412 0.0
C383 C 0.87077 0.114 0.52498 0.0
N384 N 0.88734 0.14331 0.53124 0.0
N385 N 0.896 0.13525 0.5376 0.0
C386 C 0.85795 0.13491 0.51598 0.0
H387 H 0.85945 0.14743 0.52226 0.0
H388 H 0.84405 0.12352 0.51852 0.0
H389 H 0.86004 0.13716 0.50105 0.0
C390 C 0.89054 0.19669 0.57087 0.0
N391 N 0.89665 0.194 0.55487 0.0
N392 N 0.88994 0.17649 0.55244 0.0
C393 C 0.87913 0.16747 0.56666 0.0
C394 C 0.8791 0.18 0.57878 0.0
C395 C 0.89655 0.21488 0.57913 0.0
H396 H 0.91088 0.22441 0.57559 0.0
H397 H 0.88802 0.22026 0.57372 0.0
H398 H 0.89513 0.21395 0.59422 0.0
O399 O 0.93459 0.20909 0.53462 0.0
O400 O 0.9238 0.17967 0.53055 0.0
H401 H 0.87799 0.14197 0.56941 0.0
H402 H 0.85913 0.14265 0.57994 0.0
C403 C 0.86851 0.14726 0.56813 0.0
H404 H 0.86048 0.14154 0.55552 0.0
H405 H 0.90862 0.14201 0.54403 0.0
O406 O 0.91898 0.23538 0.54247 0.0
C407 C 0.93709 0.19575 0.532 0.0
Co408 Co 0.96033 0.54317 0.37143 0.0
Co409 Co 0.933 0.50198 0.36565 0.0
C410 C 0.96171 0.52303 0.33829 0.0
O411 O 0.96752 0.53737 0.34782 0.0
O412 O 0.94836 0.5081 0.34359 0.0
C413 C -0.00411 0.5735 0.3773 0.0
O414 O 0.00138 0.56196 0.37345 0.0
C415 C 0.91841 0.46354 0.35784 0.0
C416 C 0.89049 0.45153 0.36845 0.0
C417 C 0.9021 0.44729 0.35923 0.0
N418 N 0.91634 0.47666 0.36559 0.0
N419 N 0.89967 0.4694 0.372 0.0
C420 C 0.93604 0.46668 0.35022 0.0
H421 H 0.94751 0.47868 0.35674 0.0
H422 H 0.9376 0.45466 0.35242 0.0
H423 H 0.93646 0.46936 0.33534 0.0
C424 C 0.96668 0.52908 0.40612 0.0
N425 N 0.95832 0.52669 0.38991 0.0
N426 N 0.94719 0.50928 0.38731 0.0
C427 C 0.94836 0.49999 0.40166 0.0
C428 C 0.96083 0.51227 0.41402 0.0
C429 C 0.97917 0.54714 0.41449 0.0
H430 H 0.97494 0.55705 0.41067 0.0
H431 H 0.99313 0.55205 0.40946 0.0
H432 H 0.97925 0.54615 0.42961 0.0
O433 O 0.93725 0.54301 0.36845 0.0
O434 O 0.91815 0.5138 0.36369 0.0
H435 H 0.92364 0.47479 0.40417 0.0
H436 H 0.94287 0.47493 0.41481 0.0
C437 C 0.93836 0.47977 0.40297 0.0
H438 H 0.94056 0.474 0.39033 0.0
H439 H 0.89445 0.47672 0.37847 0.0
O440 O 0.97905 0.56814 0.37747 0.0
C441 C 0.92138 0.53003 0.36513 0.0
Co442 Co 0.44757 0.41636 0.37185 0.0
Co443 Co 0.48826 0.42812 0.36582 0.0
C444 C 0.46721 0.43702 0.33882 0.0
O445 O 0.45286 0.42948 0.34846 0.0
O446 O 0.48162 0.43732 0.34398 0.0
C447 C 0.41452 0.41805 0.37573 0.0
O448 O 0.42175 0.43154 0.36405 0.0
C449 C 0.5263 0.45313 0.35853 0.0
C450 C 0.53889 0.43645 0.3643 0.0
C451 C 0.54272 0.45335 0.358 0.0
N452 N 0.5135 0.43684 0.36457 0.0
N453 N 0.52108 0.42693 0.36808 0.0
C454 C 0.52264 0.46816 0.35424 0.0
H455 H 0.51044 0.46616 0.36171 0.0
H456 H 0.53443 0.48146 0.35796 0.0
H457 H 0.51996 0.46807 0.3394 0.0
C458 C 0.46282 0.43727 0.40586 0.0
N459 N 0.46475 0.43058 0.38991 0.0
N460 N 0.4819 0.4355 0.38759 0.0
C461 C 0.49146 0.44538 0.4021 0.0
C462 C 0.47967 0.44682 0.41415 0.0
C463 C 0.44538 0.43564 0.41223 0.0
H464 H 0.44001 0.44075 0.4014 0.0
H465 H 0.44708 0.44348 0.42487 0.0
H466 H 0.43534 0.42117 0.41466 0.0
O467 O 0.44707 0.39312 0.36793 0.0
O468 O 0.47608 0.40154 0.36454 0.0
H469 H 0.51548 0.4569 0.41904 0.0
H470 H 0.51893 0.46463 0.39565 0.0
C471 C 0.51134 0.45272 0.40468 0.0
H472 H 0.51489 0.44231 0.40081 0.0
H473 H 0.51403 0.41358 0.37273 0.0
O474 O 0.42318 0.41011 0.3803 0.0
C475 C 0.45951 0.38925 0.36532 0.0
Co476 Co 0.57605 0.03129 0.37246 0.0
Co477 Co 0.56226 0.05853 0.36563 0.0
C478 C 0.55379 0.02811 0.3397 0.0
O479 O 0.56223 0.02238 0.34948 0.0
O480 O 0.55285 0.04201 0.34432 0.0
C481 C 0.57337 0.99662 0.37889 0.0
O482 O 0.55759 0.98973 0.37067 0.0
C483 C 0.53744 0.0717 0.35706 0.0
C484 C 0.5532 0.10036 0.36558 0.0
C485 C 0.53708 0.08783 0.35734 0.0
N486 N 0.55311 0.07472 0.36449 0.0
N487 N 0.56244 0.09184 0.36964 0.0
C488 C 0.52296 0.05342 0.35078 0.0
H489 H 0.52421 0.04262 0.35794 0.0
H490 H 0.50933 0.0516 0.35335 0.0
H491 H 0.52454 0.05206 0.33593 0.0
C492 C 0.55599 0.0261 0.40705 0.0
N493 N 0.56201 0.03421 0.39075 0.0
N494 N 0.55581 0.04537 0.38784 0.0
C495 C 0.54549 0.04458 0.40215 0.0
C496 C 0.54519 0.03223 0.41474 0.0
C497 C 0.56101 0.01318 0.4154 0.0
H498 H 0.5756 0.01811 0.41316 0.0
H499 H 0.55303 -0.00025 0.40879 0.0
H500 H 0.55827 0.01165 0.43029 0.0
O501 O 0.5987 0.05426 0.36774 0.0
O502 O 0.58886 0.07363 0.36346 0.0
H503 H 0.54502 0.0694 0.4028 0.0
H504 H 0.52679 0.05119 0.41551 0.0
C505 C 0.53529 0.05462 0.40308 0.0
H506 H 0.52643 0.05125 0.39094 0.0
H507 H 0.57527 0.09778 0.37561 0.0
O508 O 0.58306 0.01368 0.38067 0.0
C509 C 0.60173 0.07018 0.3644 0.0
Co510 Co 0.87386 0.62747 0.78859 0.0
Co511 Co 0.83283 0.60043 0.79603 0.0
C512 C 0.85558 0.62974 0.82262 0.0
O513 O 0.86953 0.63544 0.81249 0.0
O514 O 0.8404 0.61635 0.81786 0.0
C515 C 0.90637 0.66207 0.78374 0.0
O516 O 0.89831 0.66848 0.79412 0.0
C517 C 0.79465 0.58718 0.80432 0.0
C518 C 0.78156 0.55921 0.79354 0.0
C519 C 0.77801 0.57144 0.80243 0.0
N520 N 0.80738 0.58436 0.79676 0.0
N521 N 0.79948 0.56767 0.79029 0.0
C522 C 0.79901 0.60395 0.81481 0.0
H523 H 0.80885 0.61607 0.807 0.0
H524 H 0.78689 0.60495 0.8181 0.0
H525 H 0.80552 0.6038 0.82785 0.0
C526 C 0.85855 0.6337 0.75491 0.0
N527 N 0.85665 0.62539 0.77106 0.0
N528 N 0.83935 0.61423 0.77417 0.0
C529 C 0.82964 0.61521 0.76013 0.0
C530 C 0.84151 0.62753 0.74744 0.0
C531 C 0.87632 0.64805 0.74737 0.0
H532 H 0.8822 0.6598 0.75679 0.0
H533 H 0.8749 0.65281 0.73372 0.0
H534 H 0.88581 0.64275 0.7465 0.0
O535 O 0.8733 0.60416 0.79163 0.0
O536 O 0.84424 0.58519 0.79734 0.0
H537 H 0.80517 0.58959 0.7599 0.0
H538 H 0.80449 0.60638 0.74545 0.0
C539 C 0.80946 0.60415 0.75865 0.0
H540 H 0.80323 0.60771 0.77003 0.0
H541 H 0.80639 0.56196 0.78388 0.0
O542 O 0.89835 0.64525 0.78011 0.0
C543 C 0.86039 0.58834 0.79533 0.0
Co544 Co 0.36406 0.24563 0.78696 0.0
Co545 Co 0.39036 0.23107 0.79543 0.0
C546 C 0.36049 0.22462 0.82102 0.0
O547 O 0.35561 0.23354 0.81087 0.0
O548 O 0.37357 0.22223 0.81655 0.0
C549 C 0.32977 0.24397 0.78219 0.0
O550 O 0.32355 0.23011 0.79341 0.0
C551 C 0.40237 0.20545 0.80437 0.0
C552 C 0.43174 0.2215 0.79883 0.0
C553 C 0.4184 0.20492 0.80553 0.0
N554 N 0.40623 0.22162 0.79761 0.0
N555 N 0.42377 0.23113 0.79421 0.0
C556 C 0.38353 0.19081 0.80881 0.0
H557 H 0.37352 0.19283 0.80099 0.0
H558 H 0.38174 0.17729 0.80562 0.0
H559 H 0.38094 0.1914 0.82356 0.0
C560 C 0.35815 0.22391 0.75352 0.0
N561 N 0.36631 0.23032 0.76972 0.0
N562 N 0.37744 0.22418 0.77304 0.0
C563 C 0.37671 0.21362 0.75898 0.0
C564 C 0.36448 0.21314 0.74613 0.0
C565 C 0.34358 0.22702 0.74602 0.0
H566 H 0.33223 0.2218 0.75589 0.0
H567 H 0.33822 0.22008 0.73279 0.0
H568 H 0.34896 0.24176 0.74431 0.0
O569 O 0.38737 0.26829 0.79027 0.0
O570 O 0.4057 0.25773 0.79722 0.0
H571 H 0.3876 0.19953 0.74363 0.0
H572 H 0.38253 0.19307 0.76732 0.0
C573 C 0.38788 0.20461 0.75765 0.0
H574 H 0.40208 0.21432 0.76151 0.0
H575 H 0.43035 0.24433 0.78912 0.0
O576 O 0.34646 0.25236 0.77797 0.0
C577 C 0.40293 0.27092 0.79473 0.0
Co578 Co 0.74562 0.11587 0.78727 0.0
Co579 Co 0.76175 0.15715 0.79472 0.0
C580 C 0.76709 0.13408 0.82127 0.0
O581 O 0.75769 0.1202 0.81136 0.0
O582 O 0.77031 0.14972 0.81637 0.0
C583 C 0.74995 0.08533 0.78054 0.0
O584 O 0.76695 0.0966 0.78477 0.0
C585 C 0.78641 0.19513 0.80391 0.0
C586 C 0.77162 0.20828 0.79318 0.0
C587 C 0.787 0.21171 0.80286 0.0
N588 N 0.77129 0.18259 0.79553 0.0
N589 N 0.76255 0.19054 0.78906 0.0
C590 C 0.80024 0.19116 0.81183 0.0
H591 H 0.79958 0.17923 0.805 0.0
H592 H 0.81408 0.20299 0.81028 0.0
H593 H 0.79737 0.18799 0.82657 0.0
C594 C 0.76707 0.13045 0.75315 0.0
N595 N 0.76112 0.13263 0.76946 0.0
N596 N 0.76829 0.15006 0.77278 0.0
C597 C 0.77928 0.15952 0.75882 0.0
C598 C 0.77891 0.14738 0.74595 0.0
C599 C 0.7607 0.11256 0.74402 0.0
H600 H 0.74637 0.10304 0.74758 0.0
H601 H 0.76914 0.1068 0.74867 0.0
H602 H 0.76196 0.11412 0.72895 0.0
O603 O 0.7233 0.11718 0.78998 0.0
O604 O 0.73513 0.14632 0.79656 0.0
H605 H 0.78153 0.18557 0.75705 0.0
H606 H 0.80036 0.18457 0.74691 0.0
C607 C 0.79055 0.17974 0.75837 0.0
H608 H 0.7981 0.18465 0.77137 0.0
H609 H 0.7502 0.18376 0.78214 0.0
O610 O 0.73863 0.09088 0.78046 0.0
C611 C 0.72145 0.13063 0.79423 0.0
Co612 Co 0.36468 0.11796 0.28961 0.0
Co613 Co 0.39158 0.15918 0.29566 0.0
C614 C 0.36284 0.13748 0.32293 0.0
O615 O 0.35709 0.12325 0.31326 0.0
O616 O 0.37615 0.15248 0.31771 0.0
C617 C 0.32955 0.08701 0.28454 0.0
O618 O 0.32376 0.09798 0.28974 0.0
C619 C 0.4041 0.19708 0.30348 0.0
C620 C 0.43199 0.21086 0.29256 0.0
C621 C 0.41954 0.2139 0.30171 0.0
N622 N 0.40733 0.18464 0.29593 0.0
N623 N 0.42401 0.19293 0.28939 0.0
C624 C 0.38619 0.19289 0.31127 0.0
H625 H 0.37507 0.18092 0.30431 0.0
H626 H 0.38406 0.20465 0.3098 0.0
H627 H 0.38585 0.1897 0.326 0.0
C628 C 0.35848 0.13202 0.2548 0.0
N629 N 0.36651 0.13441 0.27121 0.0
N630 N 0.37752 0.15183 0.27394 0.0
C631 C 0.37659 0.16112 0.25948 0.0
C632 C 0.36453 0.14887 0.24688 0.0
C633 C 0.34473 0.11399 0.24725 0.0
H634 H 0.33172 0.10924 0.25452 0.0
H635 H 0.34228 0.11466 0.23249 0.0
H636 H 0.34925 0.104 0.2495 0.0
O637 O 0.38808 0.11874 0.29269 0.0
O638 O 0.40701 0.14801 0.29747 0.0
H639 H 0.40218 0.18561 0.25884 0.0
H640 H 0.38541 0.18586 0.24404 0.0
C641 C 0.38762 0.18125 0.25747 0.0
H642 H 0.38403 0.18777 0.26853 0.0
H643 H 0.42999 0.18633 0.28291 0.0
O644 O 0.34645 0.09292 0.28325 0.0
C645 C 0.40391 0.13183 0.29599 0.0
Co646 Co 0.87421 0.24781 0.28808 0.0
Co647 Co 0.83261 0.23045 0.29475 0.0
C648 C 0.85558 0.22516 0.32142 0.0
O649 O 0.86952 0.23507 0.31179 0.0
O650 O 0.83988 0.22169 0.3164 0.0
C651 C 0.90515 0.2442 0.28218 0.0
O652 O 0.89386 0.22718 0.2863 0.0
C653 C 0.79443 0.20591 0.30381 0.0
C654 C 0.7808 0.21762 0.2878 0.0
C655 C 0.77761 0.20396 0.30005 0.0
N656 N 0.80701 0.22021 0.29441 0.0
N657 N 0.79878 0.22714 0.28484 0.0
C658 C 0.79846 0.19374 0.31515 0.0
H659 H 0.80266 0.19965 0.32901 0.0
H660 H 0.80974 0.19263 0.30897 0.0
H661 H 0.7864 0.18002 0.31635 0.0
C662 C 0.86092 0.22705 0.2535 0.0
N663 N 0.85813 0.23253 0.26982 0.0
N664 N 0.8406 0.22464 0.2729 0.0
C665 C 0.83168 0.21349 0.25884 0.0
C666 C 0.84428 0.21467 0.24608 0.0
C667 C 0.87908 0.23432 0.24466 0.0
H668 H 0.88808 0.24865 0.2486 0.0
H669 H 0.88528 0.22624 0.2492 0.0
H670 H 0.8778 0.23338 0.22956 0.0
O671 O 0.87213 0.26961 0.29116 0.0
O672 O 0.84278 0.25702 0.29724 0.0
H673 H 0.80495 0.20904 0.25489 0.0
H674 H 0.80768 0.1902 0.24803 0.0
C675 C 0.81161 0.20108 0.25831 0.0
H676 H 0.80673 0.19484 0.27192 0.0
H677 H 0.80548 0.23845 0.27637 0.0
O678 O 0.89947 0.25542 0.28181 0.0
C679 C 0.85838 0.27098 0.29531 0.0
Co680 Co 0.7455 0.62589 0.28732 0.0
Co681 Co 0.75933 0.59884 0.29548 0.0
C682 C 0.76698 0.62924 0.32096 0.0
O683 O 0.75841 0.63462 0.31088 0.0
O684 O 0.76852 0.61565 0.3165 0.0
C685 C 0.74652 0.66004 0.28347 0.0
O686 O 0.75922 0.66577 0.29601 0.0
C687 C 0.78484 0.58662 0.30396 0.0
C688 C 0.76862 0.55723 0.29857 0.0
C689 C 0.78535 0.57058 0.30497 0.0
N690 N 0.76855 0.58278 0.29755 0.0
N691 N 0.75893 0.56522 0.29427 0.0
C692 C 0.79961 0.60547 0.30814 0.0
H693 H 0.79752 0.61544 0.30034 0.0
H694 H 0.81306 0.60717 0.30475 0.0
H695 H 0.79926 0.60822 0.32291 0.0
C696 C 0.76649 0.63101 0.25354 0.0
N697 N 0.76017 0.62298 0.26982 0.0
N698 N 0.76602 0.6116 0.27303 0.0
C699 C 0.77627 0.61199 0.25881 0.0
C700 C 0.77686 0.62429 0.246 0.0
C701 C 0.76368 0.64579 0.24613 0.0
H702 H 0.749 0.64047 0.24391 0.0
H703 H 0.76852 0.65689 0.25629 0.0
H704 H 0.77107 0.65144 0.23316 0.0
O705 O 0.72265 0.6028 0.29141 0.0
O706 O 0.73277 0.58396 0.29768 0.0
H707 H 0.77504 0.58638 0.26134 0.0
H708 H 0.7897 0.60055 0.24322 0.0
C709 C 0.7849 0.60049 0.25732 0.0
H710 H 0.79659 0.60571 0.2668 0.0
H711 H 0.74564 0.55866 0.28941 0.0
O712 O 0.73897 0.64367 0.27815 0.0
C713 C 0.71978 0.58712 0.29574 0.0
Co714 Co 0.45071 0.0339 0.8736 0.0
Co715 Co 0.49128 0.06172 0.865 0.0
C716 C 0.46812 0.03247 0.8386 0.0
O717 O 0.45442 0.02644 0.84912 0.0
O718 O 0.48329 0.046 0.84312 0.0
C719 C 0.41686 -0.00013 0.87625 0.0
O720 O 0.42219 0.99506 0.86152 0.0
C721 C 0.52904 0.07545 0.8549 0.0
C722 C 0.54194 0.10399 0.86382 0.0
C723 C 0.5455 0.09164 0.85515 0.0
N724 N 0.51648 0.07828 0.86284 0.0
N725 N 0.52425 0.09533 0.86817 0.0
C726 C 0.52522 0.05728 0.84824 0.0
H727 H 0.51307 0.04635 0.85516 0.0
H728 H 0.53698 0.05536 0.85078 0.0
H729 H 0.52245 0.05625 0.83335 0.0
C730 C 0.4676 0.02697 0.90542 0.0
N731 N 0.4688 0.03608 0.89 0.0
N732 N 0.48592 0.04775 0.88662 0.0
C733 C 0.49622 0.04649 0.89989 0.0
C734 C 0.48491 0.03315 0.91214 0.0
C735 C 0.45009 0.01304 0.91379 0.0
H736 H 0.44082 0.01858 0.91489 0.0
H737 H 0.44363 0.00094 0.90481 0.0
H738 H 0.45207 0.00895 0.9276 0.0
O739 O 0.45052 0.05694 0.87152 0.0
O740 O 0.47925 0.07637 0.86496 0.0
H741 H 0.52108 0.0718 0.89935 0.0
H742 H 0.52213 0.05442 0.91263 0.0
C743 C 0.51647 0.05713 0.90018 0.0
H744 H 0.5218 0.05351 0.88808 0.0
H745 H 0.51743 0.10111 0.87462 0.0
O746 O 0.42679 0.01553 0.88301 0.0
C747 C 0.4631 0.0729 0.86773 0.0
Co748 Co 0.95737 0.4129 0.87363 0.0
Co749 Co 0.93162 0.42829 0.86594 0.0
C750 C 0.9605 0.43399 0.83959 0.0
O751 O 0.96525 0.42487 0.84958 0.0
O752 O 0.94781 0.43685 0.84439 0.0
C753 C 0.99197 0.41562 0.87873 0.0
O754 O -0.00161 0.43196 0.87192 0.0
C755 C 0.91972 0.45418 0.85766 0.0
C756 C 0.89065 0.43861 0.86469 0.0
C757 C 0.90381 0.45498 0.85739 0.0
N758 N 0.91597 0.43807 0.86451 0.0
N759 N 0.8986 0.42885 0.86877 0.0
C760 C 0.93841 0.46854 0.85233 0.0
H761 H 0.94867 0.46651 0.85962 0.0
H762 H 0.94055 0.4822 0.85547 0.0
H763 H 0.94026 0.4676 0.83745 0.0
C764 C 0.96412 0.43452 0.90746 0.0
N765 N 0.95587 0.42837 0.89123 0.0
N766 N 0.94511 0.435 0.88804 0.0
C767 C 0.94631 0.44574 0.90212 0.0
C768 C 0.95839 0.44578 0.91487 0.0
C769 C 0.97804 0.43051 0.91508 0.0
H770 H 0.99052 0.43761 0.90674 0.0
H771 H 0.98163 0.4351 0.9294 0.0
H772 H 0.97298 0.41575 0.9143 0.0
O773 O 0.93378 0.39056 0.8709 0.0
O774 O 0.91585 0.40166 0.86421 0.0
H775 H 0.93669 0.46098 0.91745 0.0
H776 H 0.94087 0.46647 0.89347 0.0
C777 C 0.93568 0.45531 0.90358 0.0
H778 H 0.92125 0.44575 0.90041 0.0
H779 H 0.89212 0.41575 0.87415 0.0
O780 O 0.97499 0.40556 0.88092 0.0
C781 C 0.9183 0.38827 0.86668 0.0
Co782 Co 0.57524 0.5431 0.87192 0.0
Co783 Co 0.56275 0.5024 0.86444 0.0
C784 C 0.55387 0.52438 0.83876 0.0
O785 O 0.56175 0.53842 0.8488 0.0
O786 O 0.55337 0.5097 0.84322 0.0
C787 C 0.57301 0.57555 0.87782 0.0
O788 O 0.55836 0.56769 0.86765 0.0
C789 C 0.53777 0.46445 0.85611 0.0
C790 C 0.55435 0.45177 0.86196 0.0
C791 C 0.53758 0.44805 0.85536 0.0
N792 N 0.55393 0.47715 0.86257 0.0
N793 N 0.56377 0.4695 0.86612 0.0
C794 C 0.5228 0.46816 0.85166 0.0
H795 H 0.52457 0.48014 0.85939 0.0
H796 H 0.50943 0.45625 0.85497 0.0
H797 H 0.52323 0.47121 0.83688 0.0
C798 C 0.55492 0.52716 0.90611 0.0
N799 N 0.56121 0.52555 0.88978 0.0
N800 N 0.55579 0.50837 0.88673 0.0
C801 C 0.54586 0.49847 0.90108 0.0
C802 C 0.54501 0.51007 0.91382 0.0
C803 C 0.55724 0.54459 0.91344 0.0
H804 H 0.55117 0.55 0.9037 0.0
H805 H 0.55064 0.54288 0.92689 0.0
H806 H 0.57189 0.55462 0.91467 0.0
O807 O 0.59827 0.54344 0.86718 0.0
O808 O 0.58935 0.51442 0.86276 0.0
H809 H 0.53289 0.47366 0.91683 0.0
H810 H 0.52623 0.47158 0.89313 0.0
C811 C 0.53777 0.47841 0.90275 0.0
H812 H 0.548 0.47457 0.89901 0.0
H813 H 0.57702 0.47645 0.87108 0.0
O814 O 0.58181 0.56743 0.88093 0.0
C815 C 0.60184 0.5309 0.86386 0.0
Co816 Co 0.62527 0.87515 0.70414 0.0
Co817 Co 0.59702 0.83405 0.69946 0.0
C818 C 0.62571 0.85497 0.67123 0.0
O819 O 0.6326 0.86949 0.68059 0.0
O820 O 0.61195 0.84052 0.67691 0.0
C821 C 0.65984 0.90835 0.70705 0.0
O822 O 0.66609 0.90052 0.69613 0.0
C823 C 0.58425 0.79583 0.69294 0.0
C824 C 0.55574 0.78288 0.70209 0.0
C825 C 0.5684 0.77924 0.69431 0.0
N826 N 0.58107 0.80862 0.69966 0.0
N827 N 0.56408 0.80081 0.70526 0.0
C828 C 0.6015 0.80009 0.68346 0.0
H829 H 0.61308 0.81212 0.68982 0.0
H830 H 0.60409 0.78862 0.68377 0.0
H831 H 0.60057 0.80327 0.66895 0.0
C832 C 0.63277 0.86127 0.73823 0.0
N833 N 0.62355 0.85875 0.72254 0.0
N834 N 0.61175 0.84142 0.72062 0.0
C835 C 0.61307 0.83232 0.73505 0.0
C836 C 0.62642 0.84461 0.74669 0.0
C837 C 0.64821 0.87914 0.74423 0.0
H838 H 0.65882 0.88434 0.73353 0.0
H839 H 0.65433 0.87812 0.7572 0.0
H840 H 0.6434 0.88899 0.74588 0.0
O841 O 0.60197 0.87473 0.70091 0.0
O842 O 0.58186 0.84547 0.69846 0.0
H843 H 0.60307 0.80818 0.75175 0.0
H844 H 0.60484 0.80508 0.72756 0.0
C845 C 0.60135 0.81235 0.73789 0.0
H846 H 0.58695 0.80842 0.73595 0.0
H847 H 0.55804 0.80779 0.71078 0.0
O848 O 0.64324 0.89995 0.71161 0.0
C849 C 0.58571 0.86193 0.69889 0.0
Co850 Co 0.11423 0.74867 0.7051 0.0
Co851 Co 0.15533 0.76236 0.69896 0.0
C852 C 0.13422 0.77102 0.67247 0.0
O853 O 0.11989 0.76231 0.68195 0.0
O854 O 0.1491 0.7723 0.6775 0.0
C855 C 0.08317 0.75287 0.71012 0.0
O856 O 0.09394 0.76955 0.70456 0.0
C857 C 0.19355 0.78736 0.69195 0.0
C858 C 0.206 0.77076 0.69873 0.0
C859 C 0.20993 0.78749 0.69183 0.0
N860 N 0.18065 0.77126 0.69832 0.0
N861 N 0.18817 0.76142 0.70246 0.0
C862 C 0.19 0.80231 0.6869 0.0
H863 H 0.17799 0.80078 0.69438 0.0
H864 H 0.20193 0.81571 0.69006 0.0
H865 H 0.18708 0.80159 0.67206 0.0
C866 C 0.12842 0.76803 0.74022 0.0
N867 N 0.13079 0.76252 0.72374 0.0
N868 N 0.14816 0.7685 0.72116 0.0
C869 C 0.15744 0.77817 0.7359 0.0
C870 C 0.14523 0.77817 0.74846 0.0
C871 C 0.11049 0.76459 0.74729 0.0
H872 H 0.10615 0.77278 0.73928 0.0
H873 H 0.11106 0.76834 0.76184 0.0
H874 H 0.10023 0.75009 0.74553 0.0
O875 O 0.11439 0.72583 0.7012 0.0
O876 O 0.14355 0.7358 0.69617 0.0
H877 H 0.18184 0.79172 0.75227 0.0
H878 H 0.18435 0.79823 0.72848 0.0
C879 C 0.17751 0.78673 0.73813 0.0
H880 H 0.18177 0.77673 0.73479 0.0
H881 H 0.18105 0.74819 0.70744 0.0
O882 O 0.08927 0.74204 0.71162 0.0
C883 C 0.12728 0.72289 0.6975 0.0
Co884 Co 0.24569 0.36741 0.70505 0.0
Co885 Co 0.23029 0.39329 0.69838 0.0
C886 C 0.22334 0.36425 0.67189 0.0
O887 O 0.23271 0.35953 0.6815 0.0
O888 O 0.22081 0.37711 0.67687 0.0
C889 C 0.24069 0.33228 0.7113 0.0
O890 O 0.22369 0.32699 0.70754 0.0
C891 C 0.20544 0.40664 0.69044 0.0
C892 C 0.22094 0.4349 0.70021 0.0
C893 C 0.205 0.42271 0.69147 0.0
N894 N 0.22099 0.4094 0.69795 0.0
N895 N 0.23016 0.42627 0.70384 0.0
C896 C 0.19111 0.38863 0.68339 0.0
H897 H 0.19224 0.37755 0.69005 0.0
H898 H 0.17741 0.38667 0.68593 0.0
H899 H 0.19299 0.38795 0.66848 0.0
C900 C 0.22552 0.36124 0.73982 0.0
N901 N 0.23107 0.36926 0.72341 0.0
N902 N 0.22414 0.37979 0.72049 0.0
C903 C 0.21365 0.37852 0.73485 0.0
C904 C 0.21411 0.36662 0.74752 0.0
C905 C 0.23186 0.3495 0.74852 0.0
H906 H 0.24603 0.35408 0.7445 0.0
H907 H 0.2231 0.33531 0.74396 0.0
H908 H 0.23106 0.34986 0.76364 0.0
O909 O 0.26815 0.3907 0.7017 0.0
O910 O 0.25698 0.40873 0.69582 0.0
H911 H 0.21199 0.40267 0.73653 0.0
H912 H 0.19356 0.38336 0.74783 0.0
C913 C 0.20271 0.38781 0.73584 0.0
H914 H 0.19446 0.38486 0.72329 0.0
H915 H 0.24287 0.43199 0.71004 0.0
O916 O 0.25234 0.34907 0.71136 0.0
C917 C 0.27039 0.40619 0.69763 0.0
Co918 Co 0.54203 0.96259 0.12366 0.0
Co919 Co 0.50067 0.93517 0.12799 0.0
C920 C 0.52141 0.96379 0.156 0.0
O921 O 0.53595 0.97007 0.14677 0.0
O922 O 0.50678 0.95024 0.15039 0.0
C923 C 0.57343 -0.00231 0.11873 0.0
O924 O 0.56252 0.00383 0.12302 0.0
C925 C 0.46265 0.92291 0.13477 0.0
C926 C 0.44923 0.89434 0.1259 0.0
C927 C 0.44588 0.90711 0.13394 0.0
N928 N 0.47519 0.91946 0.12784 0.0
N929 N 0.4671 0.9024 0.12246 0.0
C930 C 0.46688 0.9413 0.14113 0.0
H931 H 0.47931 0.95193 0.13433 0.0
H932 H 0.45543 0.94362 0.13818 0.0
H933 H 0.46938 0.94239 0.15607 0.0
C934 C 0.52917 0.96944 0.08848 0.0
N935 N 0.52618 0.96088 0.10464 0.0
N936 N 0.50869 0.94963 0.10655 0.0
C937 C 0.49997 0.95079 0.0917 0.0
C938 C 0.51268 0.96348 0.07983 0.0
C939 C 0.54752 0.98227 0.0809 0.0
H940 H 0.55723 0.97775 0.08465 0.0
H941 H 0.55233 0.99594 0.08669 0.0
H942 H 0.54711 0.98316 0.0658 0.0
O943 O 0.54118 0.93926 0.12737 0.0
O944 O 0.51176 0.91962 0.12972 0.0
H945 H 0.47506 0.9257 0.08945 0.0
H946 H 0.47549 0.94403 0.07653 0.0
C947 C 0.47983 0.94042 0.08937 0.0
H948 H 0.47339 0.94332 0.10102 0.0
H949 H 0.47384 0.89616 0.11683 0.0
O950 O 0.5673 0.98072 0.11801 0.0
C951 C 0.52813 0.92316 0.12951 0.0
Co952 Co 0.03035 0.5783 0.12193 0.0
Co953 Co 0.05782 0.56488 0.12886 0.0
C954 C 0.0275 0.55601 0.15475 0.0
O955 O 0.02189 0.56458 0.14503 0.0
O956 O 0.04129 0.55493 0.15005 0.0
C957 C -0.00475 0.57445 0.11603 0.0
O958 O 0.98897 0.55773 0.12168 0.0
C959 C 0.07081 0.53974 0.13614 0.0
C960 C 0.09999 0.55635 0.12989 0.0
C961 C 0.08701 0.5395 0.13641 0.0
N962 N 0.07421 0.55598 0.13001 0.0
N963 N 0.09165 0.56584 0.12623 0.0
C964 C 0.05218 0.52474 0.14073 0.0
H965 H 0.04186 0.52661 0.13335 0.0
H966 H 0.05063 0.5114 0.13712 0.0
H967 H 0.04981 0.52501 0.15559 0.0
C968 C 0.02576 0.55883 0.08695 0.0
N969 N 0.03345 0.56451 0.10349 0.0
N970 N 0.04483 0.55858 0.10644 0.0
C971 C 0.0446 0.54877 0.0919 0.0
C972 C 0.03252 0.54861 0.07909 0.0
C973 C 0.01138 0.5622 0.07944 0.0
H974 H -0.00131 0.55398 0.08721 0.0
H975 H 0.00854 0.55844 0.06484 0.0
H976 H 0.01553 0.57669 0.0811 0.0
O977 O 0.05323 0.60118 0.12624 0.0
O978 O 0.07254 0.59145 0.1316 0.0
H979 H 0.05564 0.53512 0.07601 0.0
H980 H 0.0511 0.52856 0.09973 0.0
C981 C 0.05605 0.54011 0.0901 0.0
H982 H 0.07026 0.55003 0.09372 0.0
H983 H 0.0979 0.57915 0.12145 0.0
O984 O 0.01224 0.58505 0.11482 0.0
C985 C 0.06906 0.60427 0.13017 0.0
Co986 Co 0.41509 0.45086 0.1223 0.0
Co987 Co 0.42875 0.49187 0.12895 0.0
C988 C 0.43788 0.47054 0.15473 0.0
O989 O 0.42912 0.45626 0.14519 0.0
O990 O 0.43893 0.48538 0.14999 0.0
C991 C 0.41863 0.41941 0.11645 0.0
O992 O 0.43539 0.42974 0.12202 0.0
C993 C 0.45419 0.53001 0.13586 0.0
C994 C 0.43761 0.5427 0.13002 0.0
C995 C 0.45454 0.5465 0.13624 0.0
N996 N 0.43782 0.51721 0.12998 0.0
N997 N 0.42799 0.52486 0.12643 0.0
C998 C 0.46919 0.52629 0.14016 0.0
H999 H 0.46712 0.51405 0.13275 0.0
H1000 H 0.48251 0.53802 0.13637 0.0
H1001 H 0.46913 0.52368 0.15502 0.0
C1002 C 0.43417 0.46541 0.08713 0.0
N1003 N 0.42869 0.4676 0.10369 0.0
N1004 N 0.43465 0.48493 0.10648 0.0
C1005 C 0.44427 0.49436 0.09179 0.0
C1006 C 0.44428 0.4823 0.07906 0.0
C1007 C 0.43082 0.44759 0.07983 0.0
H1008 H 0.43902 0.44319 0.08775 0.0
H1009 H 0.43461 0.44835 0.06526 0.0
H1010 H 0.41632 0.43727 0.0815 0.0
O1011 O 0.39234 0.45104 0.12682 0.0
O1012 O 0.40223 0.48014 0.13206 0.0
H1013 H 0.45756 0.51887 0.07558 0.0
H1014 H 0.46467 0.52116 0.09914 0.0
C1015 C 0.4529 0.51446 0.08979 0.0
H1016 H 0.44308 0.5188 0.09363 0.0
H1017 H 0.41459 0.51783 0.12188 0.0
O1018 O 0.40812 0.42591 0.11529 0.0
C1019 C 0.38936 0.46385 0.13076 0.0
Co1020 Co 0.03127 0.44962 0.6223 0.0
Co1021 Co 0.0565 0.49087 0.63 0.0
C1022 C 0.02782 0.46728 0.6564 0.0
O1023 O 0.02321 0.45334 0.64652 0.0
O1024 O 0.0403 0.4829 0.65148 0.0
C1025 C -0.00304 0.4173 0.61656 0.0
O1026 O 0.99027 0.42581 0.62583 0.0
C1027 C 0.06873 0.52866 0.63895 0.0
C1028 C 0.0971 0.54234 0.62936 0.0
C1029 C 0.08449 0.54546 0.63814 0.0
N1030 N 0.07204 0.51632 0.63124 0.0
N1031 N 0.08899 0.52457 0.62548 0.0
C1032 C 0.05048 0.52426 0.64595 0.0
H1033 H 0.03971 0.51186 0.63925 0.0
H1034 H 0.048 0.53567 0.64342 0.0
H1035 H 0.04984 0.52168 0.66086 0.0
C1036 C 0.02385 0.46446 0.58882 0.0
N1037 N 0.03244 0.46661 0.60485 0.0
N1038 N 0.04298 0.48401 0.60804 0.0
C1039 C 0.04134 0.49352 0.59418 0.0
C1040 C 0.02906 0.4814 0.5816 0.0
C1041 C 0.01147 0.44651 0.58018 0.0
H1042 H 0.01716 0.4374 0.58176 0.0
H1043 H -0.00188 0.44025 0.5871 0.0
H1044 H 0.0095 0.44794 0.56543 0.0
O1045 O 0.05503 0.45115 0.62508 0.0
O1046 O 0.07247 0.48027 0.6317 0.0
H1047 H 0.06546 0.51943 0.59361 0.0
H1048 H 0.04661 0.51872 0.58148 0.0
C1049 C 0.05058 0.51375 0.59362 0.0
H1050 H 0.04701 0.5187 0.60605 0.0
H1051 H 0.09508 0.51801 0.61913 0.0
O1052 O 0.01394 0.42496 0.61395 0.0
C1053 C 0.07037 0.46456 0.62933 0.0
Co1054 Co 0.54207 0.57835 0.62178 0.0
Co1055 Co 0.50139 0.56649 0.62822 0.0
C1056 C 0.52268 0.55765 0.65494 0.0
O1057 O 0.53691 0.56522 0.64514 0.0
O1058 O 0.50818 0.55728 0.64999 0.0
C1059 C 0.57478 0.5762 0.61757 0.0
O1060 O 0.5672 0.5624 0.62886 0.0
C1061 C 0.46335 0.54174 0.6359 0.0
C1062 C 0.45086 0.55846 0.62982 0.0
C1063 C 0.44699 0.54164 0.63641 0.0
N1064 N 0.47617 0.55789 0.62959 0.0
N1065 N 0.46865 0.56782 0.62589 0.0
C1066 C 0.46691 0.52669 0.64045 0.0
H1067 H 0.47894 0.52841 0.63285 0.0
H1068 H 0.45499 0.51336 0.63708 0.0
H1069 H 0.46984 0.5271 0.65526 0.0
C1070 C 0.52658 0.55756 0.58775 0.0
N1071 N 0.52476 0.56415 0.60381 0.0
N1072 N 0.50761 0.55913 0.60634 0.0
C1073 C 0.49794 0.54927 0.59187 0.0
C1074 C 0.50966 0.54797 0.57961 0.0
C1075 C 0.544 0.55934 0.58111 0.0
H1076 H 0.54939 0.55399 0.59169 0.0
H1077 H 0.54229 0.55177 0.56827 0.0
H1078 H 0.55405 0.57386 0.57896 0.0
O1079 O 0.54263 0.60161 0.62584 0.0
O1080 O 0.51361 0.59308 0.62945 0.0
H1081 H 0.47367 0.53743 0.57526 0.0
H1082 H 0.47057 0.53012 0.5988 0.0
C1083 C 0.47802 0.54186 0.58953 0.0
H1084 H 0.47452 0.55232 0.59327 0.0
H1085 H 0.47573 0.58109 0.62101 0.0
O1086 O 0.56642 0.58451 0.61326 0.0
C1087 C 0.53016 0.6054 0.62856 0.0
Co1088 Co 0.41139 0.95973 0.62258 0.0
Co1089 Co 0.42689 0.93375 0.62916 0.0
C1090 C 0.43306 0.96237 0.65609 0.0
O1091 O 0.42412 0.96746 0.64625 0.0
O1092 O 0.43542 0.94938 0.65116 0.0
C1093 C 0.41553 0.99469 0.61694 0.0
O1094 O 0.43244 0.00042 0.62152 0.0
C1095 C 0.45073 0.91919 0.63826 0.0
C1096 C 0.4389 0.89418 0.62169 0.0
C1097 C 0.45261 0.90437 0.634 0.0
N1098 N 0.43666 0.91792 0.62874 0.0
N1099 N 0.42967 0.90295 0.61885 0.0
C1100 C 0.4607 0.93335 0.65249 0.0
H1101 H 0.45103 0.93174 0.66343 0.0
H1102 H 0.46601 0.94699 0.64638 0.0
H1103 H 0.47189 0.93225 0.65883 0.0
C1104 C 0.43287 0.96722 0.58856 0.0
N1105 N 0.42655 0.95847 0.60453 0.0
N1106 N 0.43365 0.9481 0.60757 0.0
C1107 C 0.44509 0.9503 0.59381 0.0
C1108 C 0.44495 0.9625 0.58134 0.0
C1109 C 0.42683 0.97922 0.5799 0.0
H1110 H 0.41243 0.97435 0.5832 0.0
H1111 H 0.43523 0.9932 0.58518 0.0
H1112 H 0.42846 0.97957 0.56484 0.0
O1113 O 0.3891 0.93616 0.62549 0.0
O1114 O 0.40019 0.91797 0.63093 0.0
H1115 H 0.44852 0.92738 0.58998 0.0
H1116 H 0.46789 0.94858 0.58313 0.0
C1117 C 0.4569 0.94196 0.59338 0.0
H1118 H 0.46302 0.94312 0.60703 0.0
H1119 H 0.41846 0.89865 0.61028 0.0
O1120 O 0.40435 0.97779 0.61622 0.0
C1121 C 0.3868 0.92056 0.62912 0.0
Co1122 Co 0.11583 0.366 0.2055 0.0
Co1123 Co 0.15677 0.39221 0.19727 0.0
C1124 C 0.1335 0.36222 0.17168 0.0
O1125 O 0.11967 0.35708 0.18187 0.0
O1126 O 0.14881 0.37561 0.17607 0.0
C1127 C 0.08373 0.3316 0.21217 0.0
O1128 O 0.09219 0.32468 0.2032 0.0
C1129 C 0.1946 0.4048 0.18819 0.0
C1130 C 0.20795 0.43344 0.19687 0.0
C1131 C 0.21128 0.42073 0.18865 0.0
N1132 N 0.18213 0.40811 0.19558 0.0
N1133 N 0.19018 0.42522 0.20078 0.0
C1134 C 0.19045 0.38642 0.18188 0.0
H1135 H 0.17811 0.37575 0.18877 0.0
H1136 H 0.20198 0.38421 0.18475 0.0
H1137 H 0.18786 0.38526 0.16695 0.0
C1138 C 0.13143 0.36029 0.23931 0.0
N1139 N 0.13319 0.36839 0.22305 0.0
N1140 N 0.1505 0.37921 0.21962 0.0
C1141 C 0.16034 0.37824 0.23356 0.0
C1142 C 0.14853 0.3661 0.24644 0.0
C1143 C 0.11365 0.34773 0.24817 0.0
H1144 H 0.10422 0.35302 0.24642 0.0
H1145 H 0.10766 0.33426 0.24154 0.0
H1146 H 0.11527 0.34616 0.26298 0.0
O1147 O 0.11658 0.3893 0.2016 0.0
O1148 O 0.14562 0.40764 0.19529 0.0
H1149 H 0.18595 0.40274 0.23328 0.0
H1150 H 0.18589 0.38463 0.24625 0.0
C1151 C 0.1806 0.38792 0.23389 0.0
H1152 H 0.18556 0.38404 0.22169 0.0
H1153 H 0.18349 0.43133 0.20681 0.0
O1154 O 0.09137 0.34864 0.21431 0.0
C1155 C 0.12961 0.40486 0.19732 0.0
Co1156 Co 0.62625 0.75035 0.2053 0.0
Co1157 Co 0.59832 0.76354 0.19909 0.0
C1158 C 0.62799 0.7718 0.17219 0.0
O1159 O 0.6341 0.76355 0.18176 0.0
O1160 O 0.61429 0.77287 0.17735 0.0
C1161 C 0.66019 0.75034 0.20721 0.0
O1162 O 0.66551 0.76209 0.19376 0.0
C1163 C 0.58414 0.78785 0.19171 0.0
C1164 C 0.55606 0.77195 0.20202 0.0
C1165 C 0.56802 0.78806 0.19346 0.0
N1166 N 0.58177 0.77235 0.19898 0.0
N1167 N 0.56502 0.76297 0.20524 0.0
C1168 C 0.60082 0.80079 0.18139 0.0
H1169 H 0.60019 0.79514 0.16761 0.0
H1170 H 0.613 0.80223 0.18844 0.0
H1171 H 0.60213 0.81427 0.17965 0.0
C1172 C 0.63261 0.77143 0.23925 0.0
N1173 N 0.62381 0.76481 0.22336 0.0
N1174 N 0.61217 0.77046 0.22088 0.0
C1175 C 0.6132 0.78092 0.23516 0.0
C1176 C 0.62616 0.78183 0.24729 0.0
C1177 C 0.64785 0.76891 0.24578 0.0
H1178 H 0.64268 0.75432 0.24843 0.0
H1179 H 0.65829 0.77335 0.23495 0.0
H1180 H 0.65426 0.77677 0.25835 0.0
O1181 O 0.60318 0.72738 0.20161 0.0
O1182 O 0.58364 0.73695 0.1969 0.0
H1183 H 0.58727 0.7791 0.23566 0.0
H1184 H 0.60365 0.79611 0.25079 0.0
C1185 C 0.60173 0.78954 0.23726 0.0
H1186 H 0.60521 0.79979 0.22635 0.0
H1187 H 0.55959 0.75023 0.21133 0.0
O1188 O 0.64428 0.74384 0.21359 0.0
C1189 C 0.58722 0.72418 0.19814 0.0
Co1190 Co 0.24344 0.87723 0.20617 0.0
Co1191 Co 0.2297 0.83643 0.19801 0.0
C1192 C 0.22081 0.85881 0.17329 0.0
O1193 O 0.22966 0.87284 0.18317 0.0
O1194 O 0.21959 0.84377 0.17755 0.0
C1195 C 0.24155 0.90975 0.21183 0.0
O1196 O 0.22714 0.90196 0.20133 0.0
C1197 C 0.20421 0.79849 0.1902 0.0
C1198 C 0.22086 0.7857 0.19508 0.0
C1199 C 0.20387 0.78202 0.18925 0.0
N1200 N 0.22065 0.81117 0.19605 0.0
N1201 N 0.23053 0.80346 0.19902 0.0
C1202 C 0.18916 0.80227 0.18652 0.0
H1203 H 0.19133 0.81439 0.19428 0.0
H1204 H 0.17589 0.79047 0.19034 0.0
H1205 H 0.18899 0.80514 0.17176 0.0
C1206 C 0.22353 0.86143 0.24057 0.0
N1207 N 0.22947 0.85974 0.22407 0.0
N1208 N 0.22371 0.84253 0.22085 0.0
C1209 C 0.21393 0.83268 0.2353 0.0
C1210 C 0.21351 0.84434 0.24826 0.0
C1211 C 0.22616 0.87895 0.248 0.0
H1212 H 0.2203 0.8846 0.23829 0.0
H1213 H 0.21953 0.8773 0.26143 0.0
H1214 H 0.24086 0.88877 0.24929 0.0
O1215 O 0.26626 0.87717 0.20122 0.0
O1216 O 0.25617 0.84824 0.19486 0.0
H1217 H 0.20122 0.80786 0.25103 0.0
H1218 H 0.19352 0.80596 0.22773 0.0
C1219 C 0.20552 0.81256 0.23682 0.0
H1220 H 0.21532 0.80841 0.23234 0.0
H1221 H 0.24396 0.81039 0.20345 0.0
O1222 O 0.25024 0.90157 0.21527 0.0
C1223 C 0.26913 0.86444 0.19658 0.0
C1224 C 0.34163 0.22533 0.84671 0.0
C1225 C 0.3515 0.21792 0.83887 0.0
C1226 C 0.33433 0.22019 0.86419 0.0
C1227 C 0.3392 0.19919 0.90667 0.0
H1228 H 0.29584 0.2004 0.92021 0.0
C1229 C 0.30141 0.17812 0.97716 0.0
C1230 C 0.30095 0.19268 0.98564 0.0
C1231 C 0.3074 0.17965 0.95912 0.0
C1232 C 0.30793 0.19996 0.91653 0.0
H1233 H 0.36081 0.19871 0.84287 0.0
H1234 H 0.34742 0.18913 0.87311 0.0
H1235 H 0.30538 0.20461 0.88833 0.0
H1236 H 0.30649 0.22024 0.98202 0.0
H1237 H 0.31646 0.22266 0.95031 0.0
H1238 H 0.34129 0.19408 0.93504 0.0
C1239 C 0.34582 0.19939 0.86603 0.0
C1240 C 0.3135 0.20251 0.89833 0.0
C1241 C 0.3534 0.20478 0.84863 0.0
C1242 C 0.30679 0.20884 0.97586 0.0
C1243 C 0.31238 0.21021 0.95774 0.0
C1244 C 0.33337 0.19626 0.92484 0.0
C1245 C 0.33642 0.20723 0.87416 0.0
C1246 C 0.32946 0.2026 0.89321 0.0
C1247 C 0.31262 0.1956 0.94924 0.0
C1248 C 0.31792 0.19702 0.92991 0.0
H1249 H 0.34005 0.2356 0.83962 0.0
H1250 H 0.32755 0.22684 0.87007 0.0
H1251 H 0.35167 0.19941 0.90336 0.0
H1252 H 0.29712 0.16558 0.98445 0.0
H1253 H 0.30754 0.16826 0.95275 0.0
C1254 C 0.78145 0.09705 0.97741 0.0
C1255 C 0.79809 0.10668 0.98661 0.0
C1256 C 0.77979 0.10132 0.95938 0.0
C1257 C 0.79491 0.13576 0.92553 0.0
H1258 H 0.78356 0.09786 0.88995 0.0
C1259 C 0.78709 0.14651 0.84883 0.0
C1260 C 0.77332 0.13169 0.83935 0.0
C1261 C 0.79209 0.14427 0.86642 0.0
C1262 C 0.78648 0.10853 0.89969 0.0
H1263 H 0.82576 0.12887 0.98448 0.0
H1264 H 0.82258 0.13671 0.95298 0.0
H1265 H 0.78763 0.09279 0.92193 0.0
H1266 H 0.75403 0.1029 0.84082 0.0
H1267 H 0.76214 0.09912 0.87155 0.0
H1268 H 0.79283 0.15122 0.90364 0.0
C1269 C 0.81101 0.12569 0.95974 0.0
C1270 C 0.78894 0.10563 0.91796 0.0
C1271 C 0.81281 0.12117 0.97768 0.0
C1272 C 0.76483 0.11457 0.84769 0.0
C1273 C 0.76959 0.11239 0.86533 0.0
C1274 C 0.79208 0.13856 0.90728 0.0
C1275 C 0.79459 0.11554 0.95039 0.0
C1276 C 0.79299 0.11915 0.931 0.0
C1277 C 0.78323 0.12721 0.875 0.0
C1278 C 0.78761 0.12487 0.89415 0.0
H1279 H 0.7699 0.08577 0.98389 0.0
H1280 H 0.76699 0.09339 0.95236 0.0
H1281 H 0.79799 0.14633 0.93546 0.0
H1282 H 0.79399 0.15985 0.84269 0.0
H1283 H 0.80288 0.15594 0.87327 0.0
C1284 C 0.87408 0.65287 0.8463 0.0
C1285 C 0.85741 0.63813 0.84078 0.0
C1286 C 0.87637 0.65969 0.86403 0.0
C1287 C 0.85202 0.66069 0.90528 0.0
H1288 H 0.89587 0.66929 0.92998 0.0
C1289 C 0.87536 0.69646 0.97549 0.0
C1290 C 0.88315 0.68961 0.98777 0.0
C1291 C 0.87074 0.68951 0.95779 0.0
C1292 C 0.88349 0.66681 0.92333 0.0
H1293 H 0.82988 0.61944 0.84947 0.0
H1294 H 0.83391 0.63139 0.88039 0.0
H1295 H 0.89084 0.65925 0.89832 0.0
H1296 H 0.89146 0.66952 0.99127 0.0
H1297 H 0.88334 0.65741 0.96044 0.0
H1298 H 0.84463 0.66812 0.93046 0.0
C1299 C 0.84517 0.63771 0.87094 0.0
C1300 C 0.88072 0.6613 0.90511 0.0
C1301 C 0.84288 0.63083 0.85321 0.0
C1302 C 0.88562 0.67522 0.98215 0.0
C1303 C 0.88105 0.66833 0.96445 0.0
C1304 C 0.85484 0.66632 0.92352 0.0
C1305 C 0.86204 0.65197 0.87663 0.0
C1306 C 0.86498 0.65819 0.89588 0.0
C1307 C 0.87388 0.67562 0.95198 0.0
C1308 C 0.87059 0.66938 0.93273 0.0
H1309 H 0.88553 0.65891 0.83706 0.0
H1310 H 0.88945 0.6709 0.86794 0.0
H1311 H 0.83979 0.65847 0.89847 0.0
H1312 H 0.87332 0.70756 0.97932 0.0
H1313 H 0.86536 0.69549 0.94844 0.0
C1314 C 0.17476 0.30204 0.51689 0.0
C1315 C 0.18999 0.30293 0.50839 0.0
C1316 C 0.1759 0.3082 0.53481 0.0
C1317 C 0.19539 0.31005 0.5774 0.0
H1318 H 0.19752 0.3553 0.58968 0.0
C1319 C 0.22287 0.34474 0.64627 0.0
C1320 C 0.21616 0.35523 0.65413 0.0
C1321 C 0.21718 0.33718 0.62897 0.0
C1322 C 0.19654 0.34243 0.5866 0.0
H1323 H 0.21834 0.31112 0.51192 0.0
H1324 H 0.22011 0.32141 0.5434 0.0
H1325 H 0.19196 0.34456 0.55807 0.0
H1326 H 0.19768 0.36546 0.65028 0.0
H1327 H 0.18725 0.35175 0.62024 0.0
H1328 H 0.19971 0.30758 0.60572 0.0
C1329 C 0.20743 0.31614 0.53604 0.0
C1330 C 0.19347 0.33639 0.5685 0.0
C1331 C 0.20641 0.31033 0.51805 0.0
C1332 C 0.20321 0.35756 0.64452 0.0
C1333 C 0.19731 0.34978 0.62725 0.0
C1334 C 0.19814 0.31589 0.59551 0.0
C1335 C 0.19218 0.315 0.54454 0.0
C1336 C 0.19329 0.32038 0.56378 0.0
C1337 C 0.20441 0.33968 0.61916 0.0
C1338 C 0.19925 0.33241 0.60029 0.0
H1339 H 0.16197 0.29651 0.50972 0.0
H1340 H 0.16401 0.30725 0.54123 0.0
H1341 H 0.19516 0.29758 0.57395 0.0
H1342 H 0.23298 0.34278 0.65323 0.0
H1343 H 0.22328 0.32985 0.62309 0.0
C1344 C 0.6491 0.8706 0.64688 0.0
C1345 C 0.63332 0.85514 0.65301 0.0
C1346 C 0.6556 0.87125 0.62923 0.0
C1347 C 0.64005 0.85182 0.58372 0.0
H1348 H 0.69147 0.87558 0.57322 0.0
C1349 C 0.67025 0.88102 0.51311 0.0
C1350 C 0.68535 0.87996 0.50711 0.0
C1351 C 0.66311 0.87501 0.53054 0.0
C1352 C 0.67705 0.86867 0.57591 0.0
H1353 H 0.61226 0.82805 0.6455 0.0
H1354 H 0.62372 0.82918 0.61475 0.0
H1355 H 0.68117 0.87057 0.60485 0.0
H1356 H 0.70428 0.87098 0.51445 0.0
H1357 H 0.69171 0.8604 0.54483 0.0
H1358 H 0.63594 0.85007 0.55477 0.0
C1359 C 0.63094 0.84085 0.62357 0.0
C1360 C 0.67117 0.86599 0.59403 0.0
C1361 C 0.62446 0.84017 0.64124 0.0
C1362 C 0.69269 0.87209 0.51866 0.0
C1363 C 0.68557 0.86611 0.53611 0.0
C1364 C 0.64593 0.85454 0.56559 0.0
C1365 C 0.64646 0.85648 0.61731 0.0
C1366 C 0.65262 0.85781 0.59813 0.0
C1367 C 0.67091 0.86782 0.54236 0.0
C1368 C 0.66451 0.86326 0.5615 0.0
H1369 H 0.65628 0.88237 0.65558 0.0
H1370 H 0.66748 0.88357 0.62474 0.0
H1371 H 0.62567 0.84559 0.58643 0.0
H1372 H 0.66422 0.88696 0.50456 0.0
H1373 H 0.65192 0.87667 0.53501 0.0
C1374 C 0.11581 0.81616 0.5183 0.0
C1375 C 0.10821 0.80108 0.50656 0.0
C1376 C 0.12071 0.81462 0.53614 0.0
C1377 C 0.10839 0.78037 0.5717 0.0
H1378 H 0.15166 0.81667 0.59644 0.0
C1379 C 0.14797 0.78595 0.64255 0.0
C1380 C 0.1331 0.77847 0.65457 0.0
C1381 C 0.14611 0.79081 0.62478 0.0
C1382 C 0.13955 0.80643 0.58966 0.0
H1383 H 0.10075 0.7728 0.50409 0.0
H1384 H 0.10937 0.77019 0.53514 0.0
H1385 H 0.14702 0.82062 0.5641 0.0
H1386 H 0.10498 0.77136 0.65772 0.0
H1387 H 0.10183 0.77992 0.62683 0.0
H1388 H 0.10093 0.76606 0.59705 0.0
C1389 C 0.11125 0.78312 0.53062 0.0
C1390 C 0.13685 0.80873 0.57123 0.0
C1391 C 0.1064 0.78466 0.51279 0.0
C1392 C 0.11665 0.77687 0.64877 0.0
C1393 C 0.11481 0.78171 0.63103 0.0
C1394 C 0.11102 0.77813 0.59008 0.0
C1395 C 0.11807 0.79796 0.5426 0.0
C1396 C 0.12126 0.79566 0.56206 0.0
C1397 C 0.12936 0.78825 0.61871 0.0
C1398 C 0.12661 0.79112 0.59928 0.0
H1399 H 0.11745 0.82903 0.51392 0.0
H1400 H 0.12586 0.82626 0.54511 0.0
H1401 H 0.09613 0.77019 0.56508 0.0
H1402 H 0.16085 0.78741 0.64661 0.0
H1403 H 0.15754 0.79577 0.61555 0.0
C1404 C 0.67192 0.78875 0.01403 0.0
C1405 C 0.68759 0.8043 0.00784 0.0
C1406 C 0.6655 0.78801 0.03172 0.0
C1407 C 0.68116 0.8074 0.07724 0.0
H1408 H 0.62975 0.78293 0.08795 0.0
C1409 C 0.62862 0.7867 0.14245 0.0
C1410 C 0.63636 0.7794 0.15423 0.0
C1411 C 0.63558 0.79247 0.12492 0.0
C1412 C 0.64416 0.79003 0.08521 0.0
H1413 H 0.70847 0.8315 0.01526 0.0
H1414 H 0.69716 0.83019 0.04616 0.0
H1415 H 0.63992 0.7882 0.0563 0.0
H1416 H 0.65792 0.77304 0.15699 0.0
H1417 H 0.66991 0.78291 0.12635 0.0
H1418 H 0.68538 0.80913 0.10618 0.0
C1419 C 0.68998 0.81852 0.03733 0.0
C1420 C 0.64998 0.79287 0.06707 0.0
C1421 C 0.69639 0.81929 0.01959 0.0
C1422 C 0.6516 0.77857 0.14828 0.0
C1423 C 0.65856 0.78435 0.13074 0.0
C1424 C 0.67534 0.80453 0.0954 0.0
C1425 C 0.67461 0.80278 0.04366 0.0
C1426 C 0.66852 0.80132 0.06288 0.0
C1427 C 0.65044 0.79108 0.11876 0.0
C1428 C 0.65676 0.79557 0.09958 0.0
H1429 H 0.66479 0.77696 0.00535 0.0
H1430 H 0.65374 0.77561 0.03624 0.0
H1431 H 0.69554 0.81382 0.07446 0.0
H1432 H 0.61688 0.78754 0.14654 0.0
H1433 H 0.62917 0.79782 0.11609 0.0
C1434 C 0.20376 0.88461 0.0144 0.0
C1435 C 0.1876 0.88341 0.00816 0.0
C1436 C 0.20537 0.88044 0.03247 0.0
C1437 C 0.20908 0.88495 0.0734 0.0
H1438 H 0.17238 0.84299 0.09949 0.0
C1439 C 0.2152 0.87716 0.15027 0.0
C1440 C 0.21298 0.86039 0.15581 0.0
C1441 C 0.20982 0.87924 0.13286 0.0
C1442 C 0.18273 0.85476 0.09235 0.0
H1443 H 0.16015 0.87601 0.01583 0.0
H1444 H 0.16303 0.86871 0.04747 0.0
H1445 H 0.16778 0.84721 0.06721 0.0
H1446 H 0.2024 0.83237 0.14776 0.0
H1447 H 0.19312 0.83607 0.11732 0.0
H1448 H 0.22419 0.89242 0.09828 0.0
C1449 C 0.17441 0.87289 0.03831 0.0
C1450 C 0.18005 0.85722 0.07395 0.0
C1451 C 0.1728 0.87713 0.02021 0.0
C1452 C 0.20438 0.8455 0.1439 0.0
C1453 C 0.19897 0.84758 0.12649 0.0
C1454 C 0.2117 0.88256 0.09175 0.0
C1455 C 0.19086 0.87492 0.04471 0.0
C1456 C 0.19331 0.87226 0.06427 0.0
C1457 C 0.20208 0.86459 0.12063 0.0
C1458 C 0.19861 0.86741 0.10141 0.0
H1459 H 0.21539 0.88927 0.00549 0.0
H1460 H 0.2181 0.88181 0.03696 0.0
H1461 H 0.21942 0.89681 0.06636 0.0
H1462 H 0.22161 0.88888 0.15915 0.0
H1463 H 0.2121 0.89244 0.12881 0.0
C1464 C 0.11376 0.2947 0.019 0.0
C1465 C 0.10577 0.30142 0.00682 0.0
C1466 C 0.11805 0.30134 0.03683 0.0
C1467 C 0.10483 0.32363 0.07158 0.0
H1468 H 0.14837 0.33164 0.0965 0.0
C1469 C 0.146 0.35988 0.14145 0.0
C1470 C 0.13142 0.3533 0.15379 0.0
C1471 C 0.14352 0.35266 0.12386 0.0
C1472 C 0.13619 0.32952 0.08969 0.0
H1473 H 0.09682 0.32106 0.00365 0.0
H1474 H 0.10451 0.33275 0.03464 0.0
H1475 H 0.14355 0.32204 0.06455 0.0
H1476 H 0.10303 0.33333 0.15759 0.0
H1477 H 0.09881 0.32066 0.12699 0.0
H1478 H 0.0976 0.33143 0.09651 0.0
C1479 C 0.10711 0.32207 0.0305 0.0
C1480 C 0.13336 0.32389 0.07145 0.0
C1481 C 0.1028 0.31542 0.01269 0.0
C1482 C 0.11452 0.33884 0.14839 0.0
C1483 C 0.11206 0.33163 0.13081 0.0
C1484 C 0.10764 0.32922 0.08978 0.0
C1485 C 0.11446 0.31488 0.04287 0.0
C1486 C 0.11767 0.32096 0.06219 0.0
C1487 C 0.12643 0.33872 0.11823 0.0
C1488 C 0.12335 0.33224 0.09904 0.0
H1489 H 0.11629 0.28398 0.01497 0.0
H1490 H 0.12361 0.29544 0.04606 0.0
H1491 H 0.09249 0.32124 0.06492 0.0
H1492 H 0.15921 0.37099 0.14515 0.0
H1493 H 0.15484 0.3585 0.11445 0.0
C1494 C 0.78329 0.67355 0.48034 0.0
C1495 C 0.79985 0.68826 0.48616 0.0
C1496 C 0.78125 0.66707 0.4625 0.0
C1497 C 0.80598 0.66712 0.42112 0.0
H1498 H 0.76202 0.65849 0.39664 0.0
C1499 C 0.78238 0.63159 0.35084 0.0
C1500 C 0.7741 0.63812 0.33881 0.0
C1501 C 0.78731 0.6387 0.36846 0.0
C1502 C 0.77444 0.66101 0.40322 0.0
H1503 H 0.82748 0.70717 0.47795 0.0
H1504 H 0.82385 0.69584 0.44676 0.0
H1505 H 0.76698 0.66814 0.4284 0.0
H1506 H 0.76538 0.65792 0.33556 0.0
H1507 H 0.7741 0.67036 0.36621 0.0
H1508 H 0.81347 0.66011 0.39575 0.0
C1509 C 0.81249 0.6893 0.45607 0.0
C1510 C 0.77717 0.66629 0.42149 0.0
C1511 C 0.81455 0.69582 0.47394 0.0
C1512 C 0.77159 0.65246 0.34451 0.0
C1513 C 0.77649 0.65953 0.36211 0.0
C1514 C 0.80321 0.66174 0.4028 0.0
C1515 C 0.7957 0.67513 0.45006 0.0
C1516 C 0.79293 0.66935 0.43067 0.0
C1517 C 0.78403 0.65246 0.3744 0.0
C1518 C 0.7874 0.65865 0.39367 0.0
H1519 H 0.77173 0.66729 0.48943 0.0
H1520 H 0.76824 0.6559 0.45835 0.0
H1521 H 0.81822 0.66932 0.42787 0.0
H1522 H 0.78455 0.62058 0.34689 0.0
H1523 H 0.793 0.6329 0.37766 0.0
C1524 C 0.32005 0.10994 0.4831 0.0
C1525 C 0.30527 0.11179 0.48861 0.0
C1526 C 0.32715 0.11493 0.46552 0.0
C1527 C 0.32842 0.11219 0.42449 0.0
H1528 H 0.33537 0.15504 0.3989 0.0
C1529 C 0.34024 0.11964 0.34723 0.0
C1530 C 0.35474 0.13621 0.34113 0.0
C1531 C 0.33383 0.11785 0.36508 0.0
C1532 C 0.33355 0.14306 0.40592 0.0
H1533 H 0.28704 0.12134 0.48027 0.0
H1534 H 0.29942 0.12996 0.44953 0.0
H1535 H 0.3264 0.15073 0.43111 0.0
H1536 H 0.37332 0.1641 0.34882 0.0
H1537 H 0.36209 0.16089 0.38001 0.0
H1538 H 0.33565 0.10453 0.39948 0.0
C1539 C 0.30552 0.12468 0.45886 0.0
C1540 C 0.32832 0.14054 0.42429 0.0
C1541 C 0.29839 0.11966 0.47645 0.0
C1542 C 0.36213 0.15115 0.35305 0.0
C1543 C 0.35567 0.14934 0.37092 0.0
C1544 C 0.33354 0.11465 0.40617 0.0
C1545 C 0.31966 0.12192 0.45306 0.0
C1546 C 0.32573 0.12508 0.43376 0.0
C1547 C 0.34173 0.13256 0.37723 0.0
C1548 C 0.3361 0.13007 0.39666 0.0
H1549 H 0.32581 0.10409 0.49215 0.0
H1550 H 0.33828 0.11297 0.46153 0.0
H1551 H 0.32629 0.10001 0.43133 0.0
H1552 H 0.33411 0.1079 0.33838 0.0
H1553 H 0.32284 0.10483 0.36947 0.0
C1554 C 0.87123 0.17675 0.4759 0.0
C1555 C 0.88546 0.19197 0.48451 0.0
C1556 C 0.86627 0.17797 0.45797 0.0
C1557 C 0.88458 0.19947 0.41559 0.0
H1558 H 0.83912 0.19683 0.40315 0.0
C1559 C 0.87511 0.2264 0.34738 0.0
C1560 C 0.85793 0.21837 0.33919 0.0
C1561 C 0.87737 0.22086 0.36461 0.0
C1562 C 0.85171 0.19721 0.40626 0.0
H1563 H 0.90558 0.22036 0.48116 0.0
H1564 H 0.89723 0.22226 0.44966 0.0
H1565 H 0.84464 0.19108 0.43457 0.0
H1566 H 0.82972 0.19778 0.3424 0.0
H1567 H 0.83376 0.18764 0.3723 0.0
H1568 H 0.89173 0.20526 0.38747 0.0
C1569 C 0.88981 0.20953 0.45693 0.0
C1570 C 0.85486 0.19401 0.42426 0.0
C1571 C 0.8945 0.20843 0.47493 0.0
C1572 C 0.8431 0.20434 0.34843 0.0
C1573 C 0.84542 0.19859 0.36561 0.0
C1574 C 0.88133 0.20231 0.39756 0.0
C1575 C 0.87575 0.1943 0.44831 0.0
C1576 C 0.87148 0.19555 0.42908 0.0
C1577 C 0.86257 0.20692 0.374 0.0
C1578 C 0.86506 0.20173 0.39274 0.0
H1579 H 0.86398 0.16393 0.483 0.0
H1580 H 0.85537 0.1661 0.45148 0.0
H1581 H 0.89744 0.20055 0.41908 0.0
H1582 H 0.8868 0.23736 0.34071 0.0
H1583 H 0.89071 0.22792 0.37073 0.0
C1584 C 0.96244 0.50913 0.30831 0.0
C1585 C 0.96983 0.52415 0.32013 0.0
C1586 C 0.9689 0.51083 0.29044 0.0
C1587 C 0.99076 0.54539 0.25508 0.0
H1588 H -0.00181 0.50951 0.23012 0.0
C1589 C 0.02583 0.54077 0.18459 0.0
C1590 C 0.01867 0.54843 0.17252 0.0
C1591 C 0.01882 0.53569 0.20224 0.0
C1592 C -0.00381 0.51964 0.23696 0.0
H1593 H 0.99048 0.55247 0.32273 0.0
H1594 H 0.00173 0.55536 0.29167 0.0
H1595 H 0.9893 0.50518 0.26238 0.0
H1596 H -0.00221 0.55568 0.16914 0.0
H1597 H 0.98556 0.54672 0.19982 0.0
H1598 H -0.00218 0.55998 0.2299 0.0
C1599 C 0.99075 0.54236 0.29613 0.0
C1600 C 0.99101 0.51711 0.25534 0.0
C1601 C 0.98434 0.54066 0.31396 0.0
C1602 C 0.00377 0.55002 0.17814 0.0
C1603 C -0.0032 0.54496 0.19576 0.0
C1604 C -0.00418 0.54785 0.23675 0.0
C1605 C 0.98282 0.52759 0.28405 0.0
C1606 C 0.98836 0.53004 0.2646 0.0
C1607 C 0.00455 0.53819 0.20814 0.0
C1608 C -0.00139 0.53503 0.22748 0.0
H1609 H 0.95127 0.4962 0.31263 0.0
H1610 H 0.96248 0.49923 0.28141 0.0
H1611 H 0.98856 0.55546 0.26177 0.0
H1612 H 0.03727 0.5393 0.18068 0.0
H1613 H 0.02511 0.53057 0.21151 0.0
C1614 C 0.44427 0.453 0.17801 0.0
C1615 C 0.44564 0.46941 0.17242 0.0
C1616 C 0.44927 0.4511 0.19565 0.0
C1617 C 0.47366 0.47563 0.23729 0.0
H1618 H 0.43713 0.43214 0.26153 0.0
C1619 C 0.45047 0.44269 0.31401 0.0
C1620 C 0.46669 0.44431 0.32063 0.0
C1621 C 0.44934 0.44756 0.29608 0.0
C1622 C 0.4474 0.44441 0.255 0.0
H1623 H 0.45448 0.49707 0.18061 0.0
H1624 H 0.46309 0.49366 0.2115 0.0
H1625 H 0.43348 0.43694 0.22944 0.0
H1626 H 0.49473 0.45328 0.31388 0.0
H1627 H 0.49267 0.46177 0.28252 0.0
H1628 H 0.48744 0.48313 0.26309 0.0
C1629 C 0.45818 0.4823 0.20218 0.0
C1630 C 0.44544 0.44704 0.23655 0.0
C1631 C 0.45316 0.48421 0.18451 0.0
C1632 C 0.48201 0.45179 0.3092 0.0
C1633 C 0.48087 0.45673 0.29125 0.0
C1634 C 0.47569 0.47293 0.2558 0.0
C1635 C 0.45576 0.46556 0.20808 0.0
C1636 C 0.45851 0.46268 0.2275 0.0
C1637 C 0.46439 0.45421 0.2844 0.0
C1638 C 0.46248 0.45734 0.26484 0.0
H1639 H 0.43874 0.44138 0.16898 0.0
H1640 H 0.44759 0.43814 0.19973 0.0
H1641 H 0.48396 0.48778 0.23062 0.0
H1642 H 0.43846 0.43713 0.32248 0.0
H1643 H 0.43654 0.44578 0.29124 0.0
C1644 C 0.53828 0.98617 0.18073 0.0
C1645 C 0.52201 0.97154 0.17424 0.0
C1646 C 0.53964 0.99214 0.19868 0.0
C1647 C 0.54222 0.99083 0.23966 0.0
H1648 H 0.50651 -0.00155 0.26473 0.0
C1649 C 0.54722 0.00401 0.31655 0.0
C1650 C 0.54604 0.01919 0.32201 0.0
C1651 C 0.54188 -0.00316 0.29904 0.0
C1652 C 0.51657 0.99636 0.25787 0.0
H1653 H 0.49409 0.95236 0.18129 0.0
H1654 H 0.49653 0.96289 0.21276 0.0
H1655 H 0.50221 0.9898 0.23238 0.0
H1656 H 0.53737 0.0381 0.31366 0.0
H1657 H 0.52813 0.02559 0.28303 0.0
H1658 H 0.55673 -0.00244 0.26488 0.0
C1659 C 0.5082 0.96968 0.20387 0.0
C1660 C 0.51407 0.99133 0.23943 0.0
C1661 C 0.50684 0.96364 0.18586 0.0
C1662 C 0.53851 0.02643 0.30989 0.0
C1663 C 0.53313 0.01922 0.29236 0.0
C1664 C 0.54465 0.9957 0.25804 0.0
C1665 C 0.52476 0.98367 0.21056 0.0
C1666 C 0.52699 0.98871 0.23013 0.0
C1667 C 0.53522 0.00466 0.28661 0.0
C1668 C 0.53192 -0.0014 0.26733 0.0
H1669 H 0.55019 0.99271 0.17211 0.0
H1670 H 0.55248 0.00319 0.2034 0.0
H1671 H 0.55227 0.98864 0.23291 0.0
H1672 H 0.55278 -0.00204 0.32559 0.0
H1673 H 0.54335 0.98541 0.29507 0.0
C1674 C 0.438 0.98597 0.67925 0.0
C1675 C 0.43988 0.97111 0.67405 0.0
C1676 C 0.44279 0.9932 0.6968 0.0
C1677 C 0.46837 0.9949 0.73815 0.0
H1678 H 0.43327 0.00402 0.76238 0.0
C1679 C 0.44921 0.00995 0.81465 0.0
C1680 C 0.46611 0.0242 0.82037 0.0
C1681 C 0.44691 0.0031 0.79695 0.0
C1682 C 0.44313 0.0014 0.75586 0.0
H1683 H 0.44894 0.95272 0.68308 0.0
H1684 H 0.4572 0.9653 0.71374 0.0
H1685 H 0.42818 0.99353 0.73088 0.0
H1686 H 0.49401 0.04197 0.81211 0.0
H1687 H 0.48991 0.03001 0.78115 0.0
H1688 H 0.48318 0.00256 0.76334 0.0
C1689 C 0.45213 0.9714 0.70416 0.0
C1690 C 0.44034 0.99563 0.73773 0.0
C1691 C 0.44733 0.96415 0.68659 0.0
C1692 C 0.4808 0.03101 0.80816 0.0
C1693 C 0.47849 0.02411 0.79044 0.0
C1694 C 0.47121 0.00076 0.75631 0.0
C1695 C 0.44955 0.98576 0.70955 0.0
C1696 C 0.45292 0.99231 0.72868 0.0
C1697 C 0.46144 0.01031 0.78456 0.0
C1698 C 0.45856 0.00399 0.76536 0.0
H1699 H 0.43248 0.99181 0.6699 0.0
H1700 H 0.44096 0.00449 0.70046 0.0
H1701 H 0.47834 0.99252 0.73149 0.0
H1702 H 0.43763 0.00429 0.82372 0.0
H1703 H 0.43368 0.99224 0.79288 0.0
C1704 C 0.01233 0.44841 0.68377 0.0
C1705 C 0.01953 0.46508 0.67459 0.0
C1706 C 0.00624 0.44676 0.70174 0.0
C1707 C 0.98642 0.46128 0.73524 0.0
H1708 H 0.01393 0.45178 0.77135 0.0
C1709 C 0.96749 0.45361 0.8118 0.0
C1710 C 0.96911 0.44029 0.82152 0.0
C1711 C 0.97475 0.45865 0.79424 0.0
C1712 C 0.00593 0.45419 0.76146 0.0
H1713 H 0.02522 0.49281 0.67668 0.0
H1714 H 0.01393 0.48965 0.70807 0.0
H1715 H 0.02321 0.45583 0.7394 0.0
H1716 H 0.97966 0.42184 0.82049 0.0
H1717 H 0.99159 0.43 0.78979 0.0
H1718 H 0.9685 0.45868 0.75693 0.0
C1719 C 0.01334 0.47806 0.70134 0.0
C1720 C 0.01136 0.45664 0.74322 0.0
C1721 C 0.01981 0.47984 0.68347 0.0
C1722 C 0.97833 0.43228 0.81344 0.0
C1723 C 0.9853 0.43708 0.79581 0.0
C1724 C 0.98073 0.45846 0.75345 0.0
C1725 C 0.00688 0.4616 0.71067 0.0
C1726 C 0.00155 0.46003 0.72999 0.0
C1727 C 0.98354 0.45026 0.78591 0.0
C1728 C 0.99029 0.45465 0.76678 0.0
H1729 H 0.01202 0.43683 0.67732 0.0
H1730 H 0.00123 0.43394 0.70876 0.0
H1731 H 0.97867 0.46384 0.72514 0.0
H1732 H 0.96056 0.46011 0.81774 0.0
H1733 H 0.97341 0.46909 0.78719 0.0
C1734 C 0.53896 0.5108 0.8088 0.0
C1735 C 0.54641 0.5256 0.82091 0.0
C1736 C 0.53397 0.5127 0.79111 0.0
C1737 C 0.54635 0.54774 0.75657 0.0
H1738 H 0.50371 0.51175 0.73076 0.0
C1739 C 0.53976 0.55186 0.67927 0.0
C1740 C 0.52348 0.55038 0.67306 0.0
C1741 C 0.54123 0.54702 0.69712 0.0
C1742 C 0.51564 0.52192 0.73784 0.0
H1743 H 0.55338 0.55366 0.82426 0.0
H1744 H 0.54463 0.55689 0.79346 0.0
H1745 H 0.50777 0.50719 0.7631 0.0
H1746 H 0.49564 0.54169 0.68046 0.0
H1747 H 0.49828 0.53324 0.71169 0.0
H1748 H 0.55425 0.56252 0.7315 0.0
C1749 C 0.54293 0.54392 0.79758 0.0
C1750 C 0.518 0.51927 0.75628 0.0
C1751 C 0.54787 0.54204 0.81525 0.0
C1752 C 0.50841 0.54307 0.68482 0.0
C1753 C 0.50988 0.53815 0.70269 0.0
C1754 C 0.54406 0.55032 0.73819 0.0
C1755 C 0.53637 0.52943 0.78519 0.0
C1756 C 0.53338 0.5322 0.76581 0.0
C1757 C 0.52644 0.54053 0.70913 0.0
C1758 C 0.52873 0.53743 0.72861 0.0
H1759 H 0.53759 0.49793 0.81274 0.0
H1760 H 0.52901 0.50131 0.78182 0.0
H1761 H 0.55846 0.55783 0.76348 0.0
H1762 H 0.55159 0.55728 0.67055 0.0
H1763 H 0.55407 0.54868 0.70164 0.0
C1764 C 0.39329 0.38815 0.11086 0.0
C1765 C 0.41198 0.40048 0.111 0.0
C1766 C 0.38671 0.37035 0.10522 0.0
C1767 C 0.39602 0.34281 0.07498 0.0
H1768 H 0.35805 0.30314 0.10254 0.0
C1769 C 0.35659 0.26893 0.04764 0.0
C1770 C 0.33775 0.26013 0.05033 0.0
C1771 C 0.36797 0.2855 0.0562 0.0
C1772 C 0.3686 0.31407 0.09465 0.0
H1773 H 0.43849 0.40393 0.10539 0.0
H1774 H 0.42682 0.37263 0.095 0.0
H1775 H 0.37409 0.33334 0.11593 0.0
H1776 H 0.31606 0.26193 0.0639 0.0
H1777 H 0.33575 0.29079 0.07844 0.0
H1778 H 0.38991 0.32373 0.05331 0.0
C1779 C 0.41737 0.37683 0.09949 0.0
C1780 C 0.37783 0.3313 0.10237 0.0
C1781 C 0.42401 0.39464 0.10548 0.0
C1782 C 0.33052 0.26829 0.06158 0.0
C1783 C 0.34184 0.28478 0.07008 0.0
C1784 C 0.38666 0.32555 0.06717 0.0
C1785 C 0.39865 0.36456 0.09935 0.0
C1786 C 0.39123 0.34592 0.09239 0.0
C1787 C 0.36069 0.29351 0.06763 0.0
C1788 C 0.37245 0.31114 0.07672 0.0
H1789 H 0.3837 0.39226 0.11509 0.0
H1790 H 0.3722 0.3612 0.10502 0.0
H1791 H 0.40626 0.35392 0.067 0.0
H1792 H 0.36257 0.26295 0.03909 0.0
H1793 H 0.38245 0.2919 0.05409 0.0
C1794 C 0.7245 0.08724 0.05167 0.0
C1795 C 0.73268 0.07651 0.05334 0.0
C1796 C 0.70805 0.08217 0.06044 0.0
C1797 C 0.67909 0.05328 0.09807 0.0
H1798 H 0.6395 0.05242 0.07112 0.0
C1799 C 0.60498 0.00405 0.11415 0.0
C1800 C 0.5925 0.01021 0.11389 0.0
C1801 C 0.62286 0.01543 0.10883 0.0
C1802 C 0.65054 0.05293 0.07894 0.0
H1803 H 0.72994 0.05198 0.06536 0.0
H1804 H 0.70134 0.0431 0.08035 0.0
H1805 H 0.6697 0.0664 0.05743 0.0
H1806 H 0.58892 0.03316 0.10803 0.0
H1807 H 0.62036 0.05308 0.09831 0.0
H1808 H 0.65979 0.03911 0.11921 0.0
C1809 C 0.70772 0.05558 0.07257 0.0
C1810 C 0.6678 0.06091 0.07111 0.0
C1811 C 0.72405 0.06059 0.06381 0.0
C1812 C 0.5983 0.02809 0.10841 0.0
C1813 C 0.61621 0.03944 0.1028 0.0
C1814 C 0.66187 0.04526 0.10583 0.0
C1815 C 0.69959 0.06635 0.0711 0.0
C1816 C 0.68209 0.06059 0.08036 0.0
C1817 C 0.62862 0.03316 0.10294 0.0
C1818 C 0.64732 0.04448 0.0961 0.0
H1819 H 0.73085 0.09961 0.04372 0.0
H1820 H 0.70209 0.09073 0.05908 0.0
H1821 H 0.68995 0.05323 0.10571 0.0
H1822 H 0.60092 0.99036 0.11835 0.0
H1823 H 0.63208 0.01015 0.10882 0.0
C1824 C 0.93082 0.66186 0.06336 0.0
C1825 C 0.91518 0.65458 0.05246 0.0
C1826 C 0.93607 0.65056 0.07176 0.0
C1827 C 0.93173 0.60565 0.06876 0.0
H1828 H 0.95364 0.61876 0.11687 0.0
C1829 C 0.9648 0.56886 0.10581 0.0
C1830 C 0.98283 0.58099 0.11079 0.0
C1831 C 0.95342 0.57538 0.10019 0.0
C1832 C 0.94743 0.61487 0.10349 0.0
H1833 H 0.89277 0.6297 0.0418 0.0
H1834 H 0.90199 0.60986 0.05664 0.0
H1835 H 0.93904 0.63464 0.10409 0.0
H1836 H 0.00297 0.60934 0.11425 0.0
H1837 H 0.98307 0.62064 0.10481 0.0
H1838 H 0.94053 0.58608 0.06816 0.0
C1839 C 0.91021 0.62436 0.05854 0.0
C1840 C 0.93917 0.624 0.09613 0.0
C1841 C 0.90493 0.63571 0.05008 0.0
C1842 C 0.98916 0.59967 0.11043 0.0
C1843 C 0.97775 0.60614 0.10516 0.0
C1844 C 0.93989 0.59639 0.07623 0.0
C1845 C 0.92579 0.63169 0.06956 0.0
C1846 C 0.93184 0.61997 0.07841 0.0
C1847 C 0.95983 0.59409 0.09988 0.0
C1848 C 0.94835 0.60139 0.09339 0.0
H1849 H 0.93907 0.67633 0.06544 0.0
H1850 H 0.94839 0.65669 0.07981 0.0
H1851 H 0.92625 0.60227 0.05506 0.0
H1852 H 0.95961 0.55438 0.1059 0.0
H1853 H 0.93964 0.56586 0.09614 0.0
C1854 C 0.27128 0.33843 0.44784 0.0
C1855 C 0.25757 0.34288 0.44618 0.0
C1856 C 0.28887 0.35058 0.44218 0.0
C1857 C 0.31381 0.38538 0.40904 0.0
H1858 H 0.35528 0.39382 0.43822 0.0
C1859 C 0.38717 0.42148 0.38036 0.0
C1860 C 0.39698 0.41273 0.38459 0.0
C1861 C 0.37071 0.4164 0.38913 0.0
C1862 C 0.34385 0.39159 0.42989 0.0
H1863 H 0.25144 0.36353 0.43746 0.0
H1864 H 0.28234 0.38473 0.42706 0.0
H1865 H 0.32514 0.37863 0.45183 0.0
H1866 H 0.39723 0.39182 0.40133 0.0
H1867 H 0.36862 0.38285 0.41624 0.0
H1868 H 0.33237 0.39741 0.3868 0.0
C1869 C 0.27941 0.37189 0.43297 0.0
C1870 C 0.32664 0.38298 0.43771 0.0
C1871 C 0.26181 0.35982 0.43897 0.0
C1872 C 0.39005 0.39888 0.39774 0.0
C1873 C 0.37371 0.39385 0.40646 0.0
C1874 C 0.33105 0.39387 0.40114 0.0
C1875 C 0.29305 0.36732 0.4345 0.0
C1876 C 0.31142 0.37929 0.4272 0.0
C1877 C 0.36386 0.40256 0.40232 0.0
C1878 C 0.34615 0.39648 0.41133 0.0
H1879 H 0.26839 0.32547 0.45339 0.0
H1880 H 0.2991 0.34665 0.4433 0.0
H1881 H 0.30224 0.38259 0.40064 0.0
H1882 H 0.39219 0.43224 0.37033 0.0
H1883 H 0.36344 0.42339 0.38569 0.0
C1884 C 0.6556 0.93243 0.44565 0.0
C1885 C 0.64918 0.91377 0.44697 0.0
C1886 C 0.64406 0.93874 0.44033 0.0
C1887 C 0.60464 0.92747 0.413 0.0
H1888 H 0.60605 0.96792 0.43871 0.0
C1889 C 0.56859 0.96581 0.38664 0.0
C1890 C 0.57936 0.98478 0.38738 0.0
C1891 C 0.57423 0.95484 0.39533 0.0
C1892 C 0.60552 0.95663 0.43136 0.0
H1893 H 0.62565 0.88703 0.44374 0.0
H1894 H 0.60543 0.89819 0.43397 0.0
H1895 H 0.62112 0.95264 0.45179 0.0
H1896 H 0.60458 0.00709 0.39765 0.0
H1897 H 0.61443 0.9881 0.41248 0.0
H1898 H 0.58975 0.93204 0.39212 0.0
C1899 C 0.6194 0.90784 0.43727 0.0
C1900 C 0.61408 0.94787 0.43889 0.0
C1901 C 0.63092 0.9015 0.4429 0.0
C1902 C 0.5959 0.99254 0.39684 0.0
C1903 C 0.60148 0.98164 0.40551 0.0
C1904 C 0.59614 0.93634 0.40537 0.0
C1905 C 0.6259 0.92653 0.43599 0.0
C1906 C 0.61421 0.9336 0.42951 0.0
C1907 C 0.59068 0.96269 0.40499 0.0
C1908 C 0.59704 0.95141 0.41421 0.0
H1909 H 0.66959 0.94221 0.44873 0.0
H1910 H 0.64947 0.95321 0.43922 0.0
H1911 H 0.60463 0.91652 0.40548 0.0
H1912 H 0.55576 0.95943 0.37947 0.0
H1913 H 0.56563 0.94027 0.39472 0.0
C1914 C 0.00401 0.60571 0.38064 0.0
C1915 C 0.00897 0.59236 0.38228 0.0
C1916 C 0.01588 0.62345 0.38607 0.0
C1917 C 0.05109 0.6495 0.41855 0.0
H1918 H 0.05743 0.69016 0.38924 0.0
C1919 C 0.08615 0.72317 0.44628 0.0
C1920 C 0.07688 0.73253 0.44233 0.0
C1921 C 0.08122 0.70668 0.43766 0.0
C1922 C 0.05578 0.67895 0.39761 0.0
H1923 H 0.03025 0.58706 0.39075 0.0
H1924 H 0.05097 0.61824 0.40076 0.0
H1925 H 0.04278 0.65988 0.37596 0.0
H1926 H 0.05519 0.73194 0.42626 0.0
H1927 H 0.04647 0.70326 0.41159 0.0
H1928 H 0.0632 0.6684 0.44051 0.0
C1929 C 0.03794 0.61489 0.39504 0.0
C1930 C 0.04749 0.66167 0.38997 0.0
C1931 C 0.02614 0.59713 0.38927 0.0
C1932 C 0.06264 0.72511 0.42962 0.0
C1933 C 0.05775 0.70873 0.42104 0.0
C1934 C 0.05928 0.66681 0.42626 0.0
C1935 C 0.03285 0.62817 0.39351 0.0
C1936 C 0.04455 0.64671 0.40054 0.0
C1937 C 0.06699 0.69933 0.4249 0.0
C1938 C 0.06113 0.68161 0.41604 0.0
H1939 H 0.99089 0.60243 0.37524 0.0
H1940 H 0.01154 0.63338 0.38496 0.0
H1941 H 0.04888 0.63814 0.427 0.0
H1942 H 0.09723 0.72857 0.45598 0.0
H1943 H 0.08863 0.69977 0.44087 0.0
C1944 C 0.59434 0.60121 0.89762 0.0
C1945 C 0.57866 0.59312 0.88677 0.0
C1946 C 0.59965 0.61755 0.9065 0.0
C1947 C 0.59533 0.65821 0.905 0.0
H1948 H 0.61797 0.66614 0.95267 0.0
C1949 C 0.62906 0.72749 0.94313 0.0
C1950 C 0.64719 0.73334 0.94765 0.0
C1951 C 0.61755 0.70965 0.93742 0.0
C1952 C 0.61155 0.66406 0.93942 0.0
H1953 H 0.5562 0.59587 0.87675 0.0
H1954 H 0.56551 0.62455 0.89245 0.0
H1955 H 0.60315 0.63589 0.93932 0.0
H1956 H 0.66735 0.72506 0.95025 0.0
H1957 H 0.64723 0.69394 0.94066 0.0
H1958 H 0.60413 0.68659 0.90509 0.0
C1959 C 0.57373 0.61822 0.89393 0.0
C1960 C 0.60316 0.6468 0.93173 0.0
C1961 C 0.5684 0.6018 0.88497 0.0
C1962 C 0.65347 0.72096 0.9468 0.0
C1963 C 0.64192 0.70312 0.94144 0.0
C1964 C 0.60361 0.6755 0.91281 0.0
C1965 C 0.58939 0.62621 0.90486 0.0
C1966 C 0.59556 0.64382 0.91414 0.0
C1967 C 0.62392 0.69733 0.93655 0.0
C1968 C 0.61233 0.67866 0.92979 0.0
H1969 H 0.60261 0.59495 0.89926 0.0
H1970 H 0.61202 0.62353 0.91446 0.0
H1971 H 0.58965 0.65638 0.89141 0.0
H1972 H 0.62391 0.73681 0.9436 0.0
H1973 H 0.60371 0.70546 0.93368 0.0
C1974 C 0.26194 0.91566 0.93316 0.0
C1975 C 0.2611 0.9235 0.94976 0.0
C1976 C 0.27863 0.91981 0.92567 0.0
C1977 C 0.32785 0.94141 0.93604 0.0
H1978 H 0.33318 0.95304 0.88437 0.0
C1979 C 0.39552 0.99115 0.90256 0.0
C1980 C 0.39942 0.9873 0.88503 0.0
C1981 C 0.37879 0.97985 0.91067 0.0
C1982 C 0.33185 0.94951 0.89873 0.0
H1983 H 0.27706 0.94133 0.97182 0.0
H1984 H 0.30618 0.94893 0.95854 0.0
H1985 H 0.30336 0.93954 0.8984 0.0
H1986 H 0.38903 0.96833 0.86245 0.0
H1987 H 0.35953 0.94865 0.8766 0.0
H1988 H 0.35657 0.95223 0.93643 0.0
C1989 C 0.29396 0.93932 0.95145 0.0
C1990 C 0.31475 0.94175 0.90679 0.0
C1991 C 0.27726 0.93508 0.95901 0.0
C1992 C 0.38638 0.97166 0.87595 0.0
C1993 C 0.36951 0.96043 0.88401 0.0
C1994 C 0.34498 0.94928 0.92799 0.0
C1995 C 0.29485 0.93197 0.93454 0.0
C1996 C 0.31261 0.93802 0.92563 0.0
C1997 C 0.36552 0.96454 0.90138 0.0
C1998 C 0.34718 0.9538 0.90935 0.0
H1999 H 0.24971 0.90652 0.9258 0.0
H2000 H 0.27883 0.91367 0.91278 0.0
H2001 H 0.32662 0.93836 0.9505 0.0
H2002 H 0.40532 0.00304 0.90997 0.0
H2003 H 0.37601 0.98349 0.92396 0.0
C2004 C 0.05774 0.32935 0.93219 0.0
C2005 C 0.07466 0.33717 0.94091 0.0
C2006 C 0.05184 0.34018 0.92393 0.0
C2007 C 0.05768 0.38575 0.924 0.0
H2008 H 0.03048 0.36867 0.87883 0.0
C2009 C 0.02275 0.42092 0.88719 0.0
C2010 C 0.00423 0.40891 0.88405 0.0
C2011 C 0.03411 0.41433 0.89265 0.0
C2012 C 0.03814 0.37365 0.89139 0.0
H2013 H 0.09864 0.36257 0.94795 0.0
H2014 H 0.08826 0.38162 0.93337 0.0
H2015 H 0.04572 0.35328 0.89121 0.0
H2016 H 0.98315 0.38064 0.88384 0.0
H2017 H 0.00299 0.36919 0.89302 0.0
H2018 H 0.04972 0.40597 0.92421 0.0
C2019 C 0.07957 0.36704 0.93305 0.0
C2020 C 0.04679 0.36482 0.89852 0.0
C2021 C 0.08551 0.35614 0.94136 0.0
C2022 C -0.00265 0.39023 0.8862 0.0
C2023 C 0.00872 0.38366 0.89133 0.0
C2024 C 0.04911 0.39471 0.91675 0.0
C2025 C 0.06273 0.35913 0.92411 0.0
C2026 C 0.0561 0.37035 0.91524 0.0
C2027 C 0.02717 0.39563 0.89466 0.0
C2028 C 0.03877 0.38831 0.90071 0.0
H2029 H 0.04899 0.31478 0.93167 0.0
H2030 H 0.03861 0.33366 0.91755 0.0
H2031 H 0.06472 0.3903 0.93693 0.0
H2032 H 0.02838 0.4354 0.8857 0.0
H2033 H 0.04831 0.42379 0.89516 0.0
C2034 C 0.60168 0.5721 0.61259 0.0
C2035 C 0.59234 0.58144 0.60883 0.0
C2036 C 0.61816 0.57708 0.60392 0.0
C2037 C 0.64591 0.60301 0.56404 0.0
H2038 H 0.68673 0.60947 0.59315 0.0
C2039 C 0.71919 0.65518 0.54769 0.0
C2040 C 0.73237 0.64994 0.54848 0.0
C2041 C 0.70148 0.6433 0.55322 0.0
C2042 C 0.67536 0.60739 0.58479 0.0
H2043 H 0.593 0.60332 0.59305 0.0
H2044 H 0.62166 0.61214 0.57833 0.0
H2045 H 0.65645 0.59494 0.60669 0.0
H2046 H 0.73746 0.62821 0.55562 0.0
H2047 H 0.70635 0.60747 0.56586 0.0
H2048 H 0.665 0.6164 0.54251 0.0
C2049 C 0.61617 0.60075 0.58765 0.0
C2050 C 0.65804 0.59907 0.5925 0.0
C2051 C 0.59979 0.5958 0.59626 0.0
C2052 C 0.7275 0.63252 0.55479 0.0
C2053 C 0.70979 0.62071 0.56069 0.0
C2054 C 0.6632 0.61145 0.55642 0.0
C2055 C 0.62553 0.59144 0.5913 0.0
C2056 C 0.64325 0.59738 0.58239 0.0
C2057 C 0.69667 0.62604 0.55993 0.0
C2058 C 0.67814 0.61423 0.56691 0.0
H2059 H 0.59625 0.56093 0.62218 0.0
H2060 H 0.62504 0.56962 0.60698 0.0
H2061 H 0.6347 0.60147 0.55575 0.0
H2062 H 0.72256 0.66851 0.54284 0.0
H2063 H 0.69165 0.64779 0.55271 0.0
C2064 C 0.42207 0.02534 0.60637 0.0
C2065 C 0.40955 0.00764 0.612 0.0
C2066 C 0.41608 0.0372 0.60091 0.0
C2067 C 0.37802 0.04545 0.60525 0.0
H2068 H 0.38995 0.06529 0.55625 0.0
C2069 C 0.33177 0.06331 0.56543 0.0
C2070 C 0.33922 0.07848 0.55386 0.0
C2071 C 0.34286 0.05789 0.57399 0.0
C2072 C 0.38679 0.06021 0.57011 0.0
H2073 H 0.38111 0.9886 0.61681 0.0
H2074 H 0.37075 0.00935 0.60761 0.0
H2075 H 0.40536 0.05018 0.56921 0.0
H2076 H 0.3642 0.09996 0.54229 0.0
H2077 H 0.38368 0.09043 0.55741 0.0
H2078 H 0.35921 0.05507 0.60613 0.0
C2079 C 0.38513 0.01405 0.60735 0.0
C2080 C 0.3956 0.05155 0.5775 0.0
C2081 C 0.39105 0.00214 0.61249 0.0
C2082 C 0.35806 0.08817 0.55109 0.0
C2083 C 0.3692 0.08271 0.5597 0.0
C2084 C 0.36934 0.05421 0.59796 0.0
C2085 C 0.39755 0.03162 0.60138 0.0
C2086 C 0.3908 0.04356 0.59488 0.0
C2087 C 0.36169 0.06752 0.57129 0.0
C2088 C 0.37313 0.06107 0.58005 0.0
H2089 H 0.43641 0.02988 0.6058 0.0
H2090 H 0.42589 0.05069 0.59633 0.0
H2091 H 0.37431 0.03963 0.61881 0.0
H2092 H 0.31732 0.05551 0.56785 0.0
H2093 H 0.33658 0.04589 0.5825 0.0
C2094 C 0.99228 0.39166 0.59657 0.0
C2095 C 0.98489 0.39967 0.60782 0.0
C2096 C 0.98108 0.37536 0.58771 0.0
C2097 C 0.93664 0.33444 0.59008 0.0
H2098 H 0.94954 0.32745 0.54115 0.0
C2099 C 0.90124 0.26508 0.55249 0.0
C2100 C 0.91372 0.25996 0.54659 0.0
C2101 C 0.90726 0.28286 0.55821 0.0
C2102 C 0.9457 0.32925 0.55477 0.0
H2103 H 0.9599 0.39679 0.61866 0.0
H2104 H 0.94023 0.36807 0.60312 0.0
H2105 H 0.96496 0.35759 0.55477 0.0
H2106 H 0.94213 0.26944 0.54147 0.0
H2107 H 0.95255 0.30041 0.55114 0.0
H2108 H 0.9177 0.30591 0.59017 0.0
C2109 C 0.95474 0.3745 0.60124 0.0
C2110 C 0.95456 0.34645 0.56259 0.0
C2111 C 0.966 0.39092 0.6101 0.0
C2112 C 0.93221 0.27299 0.54601 0.0
C2113 C 0.93816 0.29075 0.55141 0.0
C2114 C 0.92769 0.3172 0.58219 0.0
C2115 C 0.9622 0.36663 0.58985 0.0
C2116 C 0.95061 0.3491 0.58058 0.0
C2117 C 0.92579 0.29582 0.55774 0.0
C2118 C 0.93263 0.31438 0.56472 0.0
H2119 H 0.00677 0.39801 0.59452 0.0
H2120 H 0.98728 0.36946 0.57936 0.0
H2121 H 0.93335 0.33606 0.60399 0.0
H2122 H 0.8869 0.25526 0.55314 0.0
H2123 H 0.89748 0.28648 0.56305 0.0
C2124 C 0.93276 0.69315 0.77781 0.0
C2125 C 0.92399 0.67432 0.77508 0.0
C2126 C 0.94923 0.70458 0.76909 0.0
C2127 C 0.9777 0.70538 0.73042 0.0
H2128 H 0.0178 0.74216 0.75855 0.0
C2129 C 0.05152 0.72814 0.71523 0.0
C2130 C 0.06426 0.74672 0.71523 0.0
C2131 C 0.03371 0.72204 0.72056 0.0
C2132 C 0.00662 0.73218 0.75044 0.0
H2133 H 0.92567 0.65272 0.76117 0.0
H2134 H 0.95431 0.67248 0.74634 0.0
H2135 H 0.98748 0.72622 0.77202 0.0
H2136 H 0.06846 0.77353 0.72076 0.0
H2137 H 0.03716 0.76269 0.73065 0.0
H2138 H -0.00297 0.71065 0.70926 0.0
C2139 C 0.94838 0.67853 0.75487 0.0
C2140 C 0.98929 0.72307 0.75812 0.0
C2141 C 0.93202 0.66716 0.76354 0.0
C2142 C 0.05885 0.75913 0.72057 0.0
C2143 C 0.04103 0.75297 0.72626 0.0
C2144 C -0.005 0.71436 0.72284 0.0
C2145 C 0.95714 0.69737 0.75745 0.0
C2146 C 0.97478 0.70913 0.7484 0.0
C2147 C 0.02834 0.73436 0.72627 0.0
C2148 C 0.0097 0.72741 0.733 0.0
H2149 H 0.92688 0.69907 0.78658 0.0
H2150 H 0.95566 0.71905 0.7713 0.0
H2151 H 0.9667 0.69503 0.72243 0.0
H2152 H 0.0553 0.71828 0.71113 0.0
H2153 H 0.02423 0.7076 0.72068 0.0
C2154 C 0.32417 0.26338 0.76079 0.0
C2155 C 0.31739 0.24918 0.77354 0.0
C2156 C 0.31266 0.26836 0.75238 0.0
C2157 C 0.26961 0.26735 0.75851 0.0
H2158 H 0.27871 0.28418 0.70831 0.0
C2159 C 0.23369 0.30182 0.72291 0.0
C2160 C 0.24627 0.31901 0.71609 0.0
C2161 C 0.2394 0.28974 0.72833 0.0
C2162 C 0.27592 0.27938 0.72229 0.0
H2163 H 0.29316 0.22893 0.78737 0.0
H2164 H 0.27295 0.23768 0.77256 0.0
H2165 H 0.29407 0.26898 0.72094 0.0
H2166 H 0.27446 0.33686 0.70902 0.0
H2167 H 0.28432 0.31569 0.71814 0.0
H2168 H 0.25175 0.27821 0.75987 0.0
C2169 C 0.28723 0.24499 0.7692 0.0
C2170 C 0.28475 0.27077 0.72955 0.0
C2171 C 0.29879 0.23998 0.77764 0.0
C2172 C 0.26449 0.32372 0.7143 0.0
C2173 C 0.27011 0.31157 0.71937 0.0
C2174 C 0.26063 0.27585 0.75116 0.0
C2175 C 0.29407 0.25923 0.75646 0.0
C2176 C 0.28224 0.26531 0.74794 0.0
C2177 C 0.25767 0.29455 0.7266 0.0
C2178 C 0.26425 0.28251 0.73321 0.0
H2179 H 0.33843 0.27077 0.75732 0.0
H2180 H 0.31845 0.27965 0.74294 0.0
H2181 H 0.26744 0.26336 0.77274 0.0
H2182 H 0.21957 0.29791 0.72449 0.0
H2183 H 0.2296 0.27669 0.7339 0.0
C2184 C 0.75648 0.06168 0.76847 0.0
C2185 C 0.74404 0.06653 0.77518 0.0
C2186 C 0.75049 0.04397 0.76255 0.0
C2187 C 0.71309 -0.00265 0.7672 0.0
H2188 H 0.72271 0.99044 0.71694 0.0
C2189 C 0.66519 0.93384 0.72761 0.0
C2190 C 0.67213 0.92617 0.71534 0.0
C2191 C 0.67662 0.95034 0.73601 0.0
C2192 C 0.7202 0.99209 0.73111 0.0
H2193 H 0.71577 0.05665 0.78147 0.0
H2194 H 0.70542 0.02576 0.77148 0.0
H2195 H 0.73853 0.02076 0.73038 0.0
H2196 H 0.69657 0.92985 0.70223 0.0
H2197 H 0.71666 0.95889 0.71704 0.0
H2198 H 0.69451 0.96887 0.76793 0.0
C2199 C 0.71974 0.03561 0.77072 0.0
C2200 C 0.72925 0.00943 0.73878 0.0
C2201 C 0.72564 0.05331 0.7763 0.0
C2202 C 0.69081 0.93545 0.71159 0.0
C2203 C 0.7023 0.95206 0.72004 0.0
C2204 C 0.70418 0.98005 0.75962 0.0
C2205 C 0.73206 0.03081 0.76364 0.0
C2206 C 0.72525 0.01226 0.75667 0.0
C2207 C 0.69531 0.9596 0.73243 0.0
C2208 C 0.70711 0.97734 0.74128 0.0
H2209 H 0.77074 0.07166 0.76739 0.0
H2210 H 0.76022 0.04055 0.75711 0.0
H2211 H 0.71 -0.00081 0.78112 0.0
H2212 H 0.65088 0.92711 0.73079 0.0
H2213 H 0.67073 0.95597 0.74516 0.0
C2214 C 0.29892 0.06283 0.27402 0.0
C2215 C 0.31666 0.06809 0.27957 0.0
C2216 C 0.28714 0.045 0.26846 0.0
C2217 C 0.27909 -0.00123 0.27247 0.0
H2218 H 0.25987 0.99114 0.22322 0.0
C2219 C 0.26214 0.93508 0.23236 0.0
C2220 C 0.24709 0.92734 0.22064 0.0
C2221 C 0.26738 0.95152 0.24099 0.0
C2222 C 0.26477 0.99298 0.23715 0.0
H2223 H 0.33584 0.05885 0.28418 0.0
H2224 H 0.31522 0.02774 0.27485 0.0
H2225 H 0.27462 0.02156 0.23642 0.0
H2226 H 0.22566 0.93078 0.20882 0.0
H2227 H 0.23487 0.95965 0.22404 0.0
H2228 H 0.26967 0.97039 0.27318 0.0
C2229 C 0.31043 0.03736 0.2747 0.0
C2230 C 0.27322 0.01038 0.24467 0.0
C2231 C 0.32227 0.05518 0.27991 0.0
C2232 C 0.23736 0.93643 0.21774 0.0
C2233 C 0.24264 0.95296 0.22642 0.0
C2234 C 0.27054 0.9814 0.26504 0.0
C2235 C 0.29283 0.03215 0.26878 0.0
C2236 C 0.281 0.01348 0.26215 0.0
C2237 C 0.25769 0.96064 0.23818 0.0
C2238 C 0.26391 0.97843 0.24705 0.0
H2239 H 0.2943 0.07257 0.27356 0.0
H2240 H 0.27362 0.04126 0.2639 0.0
H2241 H 0.28478 0.00083 0.28609 0.0
H2242 H 0.26997 0.92847 0.23488 0.0
H2243 H 0.27929 0.95725 0.24964 0.0
C2244 C 0.05707 0.30086 0.21879 0.0
C2245 C 0.06597 0.31979 0.2208 0.0
C2246 C 0.04035 0.28989 0.22727 0.0
C2247 C 0.01106 0.29064 0.26423 0.0
H2248 H 0.97143 0.25374 0.23573 0.0
C2249 C 0.93708 0.26874 0.27778 0.0
C2250 C 0.92412 0.25023 0.27738 0.0
C2251 C 0.95496 0.27468 0.27286 0.0
C2252 C 0.98245 0.26376 0.24397 0.0
H2253 H 0.06432 0.34201 0.23329 0.0
H2254 H 0.03527 0.32302 0.24775 0.0
H2255 H 0.00211 0.26891 0.22317 0.0
H2256 H 0.91966 0.22336 0.27155 0.0
H2257 H 0.95108 0.23389 0.26252 0.0
H2258 H 0.99127 0.28612 0.28464 0.0
C2259 C 0.04126 0.31657 0.23993 0.0
C2260 C -0.0 0.27243 0.2368 0.0
C2261 C 0.05787 0.32749 0.23146 0.0
C2262 C 0.92941 0.23772 0.27204 0.0
C2263 C 0.94731 0.24371 0.26683 0.0
C2264 C 0.99355 0.28208 0.27132 0.0
C2265 C 0.03232 0.29766 0.23798 0.0
C2266 C 0.01437 0.28639 0.24662 0.0
C2267 C 0.96022 0.26225 0.26722 0.0
C2268 C 0.97901 0.26898 0.26102 0.0
H2269 H 0.06301 0.29453 0.2107 0.0
H2270 H 0.03378 0.27534 0.22558 0.0
H2271 H 0.02194 0.30104 0.27231 0.0
H2272 H 0.93341 0.27869 0.28187 0.0
H2273 H 0.9646 0.28907 0.27304 0.0
C2274 C 0.72973 0.66707 0.25994 0.0
C2275 C 0.74135 0.67258 0.27513 0.0
C2276 C 0.72451 0.67868 0.25216 0.0
C2277 C 0.7179 0.71656 0.26364 0.0
H2278 H 0.71209 0.71814 0.21123 0.0
C2279 C 0.66771 0.73445 0.23131 0.0
C2280 C 0.67263 0.74488 0.21526 0.0
C2281 C 0.67909 0.7288 0.23879 0.0
C2282 C 0.71389 0.71809 0.22587 0.0
H2283 H 0.75691 0.69473 0.29387 0.0
H2284 H 0.74765 0.71505 0.2803 0.0
H2285 H 0.72715 0.70249 0.22353 0.0
H2286 H 0.69355 0.75792 0.19468 0.0
H2287 H 0.71346 0.74786 0.20775 0.0
H2288 H 0.70431 0.73183 0.266 0.0
C2289 C 0.74256 0.70168 0.27449 0.0
C2290 C 0.72235 0.70898 0.23291 0.0
C2291 C 0.74788 0.69007 0.28221 0.0
C2292 C 0.68935 0.74983 0.20702 0.0
C2293 C 0.70073 0.74405 0.21446 0.0
C2294 C 0.70939 0.7256 0.2566 0.0
C2295 C 0.73074 0.69606 0.25944 0.0
C2296 C 0.72402 0.70773 0.25188 0.0
C2297 C 0.69564 0.73339 0.23037 0.0
C2298 C 0.70688 0.72606 0.23767 0.0
H2299 H 0.72452 0.6537 0.25409 0.0
H2300 H 0.71518 0.67386 0.24074 0.0
H2301 H 0.71893 0.71576 0.27832 0.0
H2302 H 0.65495 0.73048 0.23806 0.0
H2303 H 0.67467 0.72038 0.2509 0.0
C2304 C 0.30062 0.182 0.11281 0.0
C2305 C 0.30226 0.17456 0.09634 0.0
C2306 C 0.30763 0.17925 0.12895 0.0
C2307 C 0.32234 0.14956 0.1503 0.0
H2308 H 0.3482 0.19014 0.18332 0.0
C2309 C 0.36111 0.14565 0.21303 0.0
C2310 C 0.35878 0.15285 0.22934 0.0
C2311 C 0.35483 0.14868 0.19654 0.0
C2312 C 0.34087 0.17864 0.17432 0.0
H2313 H 0.31217 0.1583 0.08361 0.0
H2314 H 0.32453 0.15346 0.11187 0.0
H2315 H 0.3356 0.19429 0.15505 0.0
H2316 H 0.34856 0.16912 0.24142 0.0
H2317 H 0.33749 0.17446 0.21258 0.0
H2318 H 0.32758 0.1339 0.16961 0.0
C2319 C 0.31771 0.16129 0.11239 0.0
C2320 C 0.33364 0.18101 0.15814 0.0
C2321 C 0.3107 0.16406 0.09624 0.0
C2322 C 0.35051 0.1635 0.22893 0.0
C2323 C 0.34425 0.16657 0.21244 0.0
C2324 C 0.32958 0.14719 0.16649 0.0
C2325 C 0.31638 0.16898 0.1289 0.0
C2326 C 0.32423 0.16648 0.14599 0.0
C2327 C 0.34618 0.15904 0.19609 0.0
C2328 C 0.33888 0.16169 0.1787 0.0
H2329 H 0.29397 0.18999 0.11315 0.0
H2330 H 0.3061 0.18509 0.14149 0.0
H2331 H 0.31496 0.13805 0.14134 0.0
H2332 H 0.3677 0.1376 0.21309 0.0
H2333 H 0.35679 0.14296 0.18413 0.0
C2334 C 0.80831 0.13489 0.09926 0.0
C2335 C 0.81775 0.12563 0.09589 0.0
C2336 C 0.81142 0.14491 0.11527 0.0
C2337 C 0.84454 0.16709 0.1524 0.0
H2338 H 0.80322 0.16321 0.17862 0.0
C2339 C 0.85071 0.19561 0.22501 0.0
C2340 C 0.84098 0.20447 0.22886 0.0
C2341 C 0.84793 0.18619 0.20864 0.0
C2342 C 0.81491 0.16461 0.17135 0.0
H2343 H 0.83789 0.11961 0.10634 0.0
H2344 H 0.8434 0.13715 0.13444 0.0
H2345 H 0.79849 0.14653 0.1502 0.0
H2346 H 0.82082 0.21063 0.21876 0.0
H2347 H 0.81588 0.19415 0.19 0.0
H2348 H 0.86096 0.18515 0.17357 0.0
C2349 C 0.83371 0.13682 0.12465 0.0
C2350 C 0.81221 0.15505 0.15507 0.0
C2351 C 0.83057 0.12678 0.10861 0.0
C2352 C 0.82833 0.20371 0.21613 0.0
C2353 C 0.82552 0.19428 0.19973 0.0
C2354 C 0.84725 0.17666 0.16868 0.0
C2355 C 0.82406 0.14589 0.1282 0.0
C2356 C 0.82699 0.15616 0.14543 0.0
C2357 C 0.83533 0.18546 0.19578 0.0
C2358 C 0.83246 0.17549 0.17835 0.0
H2359 H 0.79856 0.13443 0.08948 0.0
H2360 H 0.804 0.152 0.11745 0.0
H2361 H 0.85622 0.16843 0.14515 0.0
H2362 H 0.86037 0.19581 0.23476 0.0
H2363 H 0.85547 0.17929 0.20616 0.0
C2364 C 0.7782 0.62927 0.21236 0.0
C2365 C 0.78708 0.62994 0.22871 0.0
C2366 C 0.78806 0.63622 0.19627 0.0
C2367 C 0.83357 0.66945 0.18039 0.0
H2368 H 0.8164 0.64551 0.13364 0.0
C2369 C 0.87655 0.69424 0.11468 0.0
C2370 C 0.86757 0.69304 0.09826 0.0
C2371 C 0.86672 0.68682 0.1307 0.0
C2372 C 0.82125 0.65249 0.14655 0.0
H2373 H 0.81296 0.63773 0.24119 0.0
H2374 H 0.83033 0.64979 0.21295 0.0
H2375 H 0.79935 0.63104 0.16131 0.0
H2376 H 0.84148 0.68378 0.08557 0.0
H2377 H 0.82416 0.67111 0.1137 0.0
H2378 H 0.85538 0.69096 0.16565 0.0
C2379 C 0.81578 0.64411 0.21259 0.0
C2380 C 0.81152 0.64416 0.1624 0.0
C2381 C 0.80588 0.63708 0.22867 0.0
C2382 C 0.84864 0.68484 0.09815 0.0
C2383 C 0.83878 0.67745 0.11418 0.0
C2384 C 0.84327 0.6778 0.16453 0.0
C2385 C 0.807 0.64399 0.19628 0.0
C2386 C 0.81757 0.65255 0.17949 0.0
C2387 C 0.8477 0.67813 0.13059 0.0
C2388 C 0.83722 0.66942 0.14743 0.0
H2389 H 0.76366 0.62373 0.21215 0.0
H2390 H 0.78092 0.63605 0.18397 0.0
H2391 H 0.8384 0.6764 0.19332 0.0
H2392 H 0.89118 0.70061 0.11503 0.0
H2393 H 0.87401 0.68745 0.14305 0.0
C2394 C 0.16373 0.29312 0.38401 0.0
C2395 C 0.17554 0.30498 0.3973 0.0
C2396 C 0.16106 0.29989 0.36763 0.0
C2397 C 0.18202 0.34054 0.33803 0.0
H2398 H 0.13396 0.31883 0.31687 0.0
C2399 C 0.16408 0.3717 0.27673 0.0
C2400 C 0.15289 0.35953 0.26328 0.0
C2401 C 0.16733 0.36524 0.29303 0.0
C2402 C 0.14749 0.32493 0.32252 0.0
H2403 H 0.19356 0.3331 0.40425 0.0
H2404 H 0.18879 0.34501 0.37577 0.0
H2405 H 0.13845 0.30712 0.34556 0.0
H2406 H 0.13665 0.33125 0.25592 0.0
H2407 H 0.14224 0.31991 0.28439 0.0
H2408 H 0.19099 0.35845 0.315 0.0
C2409 C 0.18185 0.33048 0.37775 0.0
C2410 C 0.15007 0.3182 0.33895 0.0
C2411 C 0.18454 0.3237 0.39407 0.0
C2412 C 0.1452 0.34086 0.26622 0.0
C2413 C 0.14835 0.3344 0.2825 0.0
C2414 C 0.17942 0.34732 0.32163 0.0
C2415 C 0.17012 0.31866 0.3643 0.0
C2416 C 0.16737 0.32589 0.34687 0.0
C2417 C 0.15933 0.34651 0.29615 0.0
C2418 C 0.16214 0.33953 0.31367 0.0
H2419 H 0.15682 0.27861 0.38615 0.0
H2420 H 0.15214 0.2904 0.35746 0.0
H2421 H 0.19557 0.34661 0.34362 0.0
H2422 H 0.16997 0.38616 0.2748 0.0
H2423 H 0.17571 0.37489 0.30338 0.0
C2424 C 0.69324 0.88107 0.37989 0.0
C2425 C 0.69248 0.87192 0.39607 0.0
C2426 C 0.68635 0.87148 0.36363 0.0
C2427 C 0.65395 0.8257 0.34686 0.0
H2428 H 0.67792 0.84443 0.30039 0.0
C2429 C 0.63233 0.78333 0.28069 0.0
C2430 C 0.63239 0.79213 0.26449 0.0
C2431 C 0.63929 0.79319 0.29679 0.0
C2432 C 0.67096 0.83914 0.31324 0.0
H2433 H 0.68463 0.84583 0.40805 0.0
H2434 H 0.67286 0.82897 0.37955 0.0
H2435 H 0.69161 0.86139 0.32834 0.0
H2436 H 0.6394 0.81791 0.25224 0.0
H2437 H 0.65142 0.83525 0.28049 0.0
H2438 H 0.63335 0.80342 0.33178 0.0
C2439 C 0.67842 0.8435 0.37944 0.0
C2440 C 0.67881 0.84883 0.32925 0.0
C2441 C 0.6853 0.85312 0.39569 0.0
C2442 C 0.63917 0.81087 0.26465 0.0
C2443 C 0.64619 0.82077 0.28074 0.0
C2444 C 0.64612 0.816 0.33087 0.0
C2445 C 0.67863 0.85254 0.36328 0.0
C2446 C 0.67042 0.84221 0.34625 0.0
C2447 C 0.64646 0.81205 0.29695 0.0
C2448 C 0.65455 0.82259 0.31389 0.0
H2449 H 0.69891 0.89563 0.37991 0.0
H2450 H 0.68662 0.87883 0.35147 0.0
H2451 H 0.64696 0.82039 0.35969 0.0
H2452 H 0.62711 0.76885 0.28082 0.0
H2453 H 0.63946 0.7861 0.309 0.0
C2454 C 0.14061 0.83173 0.39581 0.0
C2455 C 0.12195 0.81941 0.39596 0.0
C2456 C 0.15063 0.83457 0.37981 0.0
C2457 C 0.14912 0.81221 0.3362 0.0
H2458 H 0.18766 0.85991 0.32217 0.0
C2459 C 0.1848 0.82757 0.26598 0.0
C2460 C 0.20351 0.8397 0.26569 0.0
C2461 C 0.17502 0.82453 0.28218 0.0
C2462 C 0.17708 0.84647 0.32603 0.0
H2463 H 0.09884 0.80102 0.37964 0.0
H2464 H 0.11624 0.80609 0.35155 0.0
H2465 H 0.17 0.85643 0.34961 0.0
H2466 H 0.22694 0.85748 0.28197 0.0
H2467 H 0.20991 0.85214 0.31039 0.0
H2468 H 0.15616 0.80228 0.31256 0.0
C2469 C 0.12327 0.81327 0.36381 0.0
C2470 C 0.16695 0.84448 0.34174 0.0
C2471 C 0.11329 0.81044 0.37981 0.0
C2472 C 0.21244 0.84823 0.28191 0.0
C2473 C 0.2027 0.84524 0.29809 0.0
C2474 C 0.15923 0.8142 0.32048 0.0
C2475 C 0.1421 0.82515 0.3637 0.0
C2476 C 0.15283 0.82734 0.34698 0.0
C2477 C 0.18383 0.83358 0.29834 0.0
C2478 C 0.17331 0.83135 0.31523 0.0
H2479 H 0.14753 0.83871 0.4082 0.0
H2480 H 0.16512 0.8437 0.38022 0.0
H2481 H 0.13855 0.79877 0.34005 0.0
H2482 H 0.17765 0.82095 0.25356 0.0
H2483 H 0.16049 0.81559 0.2819 0.0
C2484 C 0.63331 0.85003 0.77994 0.0
C2485 C 0.63291 0.84086 0.76391 0.0
C2486 C 0.64028 0.84718 0.79607 0.0
C2487 C 0.65116 0.8151 0.81872 0.0
H2488 H 0.68239 0.85669 0.84873 0.0
C2489 C 0.69062 0.80981 0.88005 0.0
C2490 C 0.69038 0.81867 0.89609 0.0
C2491 C 0.68415 0.81286 0.86369 0.0
C2492 C 0.67356 0.84493 0.84058 0.0
H2493 H 0.63913 0.82141 0.75197 0.0
H2494 H 0.6514 0.81638 0.78017 0.0
H2495 H 0.66952 0.86095 0.82069 0.0
H2496 H 0.68376 0.83794 0.90774 0.0
H2497 H 0.67239 0.84334 0.87911 0.0
H2498 H 0.65521 0.79908 0.83862 0.0
C2499 C 0.6462 0.82565 0.78039 0.0
C2500 C 0.66617 0.84736 0.82454 0.0
C2501 C 0.63923 0.82853 0.76426 0.0
C2502 C 0.68409 0.83102 0.89547 0.0
C2503 C 0.67764 0.83411 0.8791 0.0
C2504 C 0.65857 0.81268 0.83475 0.0
C2505 C 0.64695 0.83508 0.79644 0.0
C2506 C 0.65484 0.83247 0.81345 0.0
C2507 C 0.67742 0.8249 0.86308 0.0
C2508 C 0.66983 0.82756 0.84588 0.0
H2509 H 0.6283 0.85947 0.77997 0.0
H2510 H 0.64036 0.85441 0.80827 0.0
H2511 H 0.64229 0.80333 0.81061 0.0
H2512 H 0.6957 0.80043 0.88023 0.0
H2513 H 0.68446 0.80581 0.85151 0.0
C2514 C 0.1544 0.84916 0.89645 0.0
C2515 C 0.16732 0.86765 0.89705 0.0
C2516 C 0.15151 0.83939 0.88026 0.0
C2517 C 0.17486 0.84129 0.83712 0.0
H2518 H 0.12746 0.80294 0.82204 0.0
C2519 C 0.16077 0.80679 0.76642 0.0
C2520 C 0.14922 0.78798 0.76596 0.0
C2521 C 0.16332 0.81634 0.78268 0.0
C2522 C 0.14081 0.81349 0.8262 0.0
H2523 H 0.18662 0.89077 0.88132 0.0
H2524 H 0.18133 0.8739 0.85288 0.0
H2525 H 0.13037 0.82029 0.8496 0.0
H2526 H 0.13199 0.76416 0.78202 0.0
H2527 H 0.13632 0.78085 0.81054 0.0
H2528 H 0.18526 0.83461 0.8136 0.0
C2529 C 0.17377 0.86675 0.86494 0.0
C2530 C 0.14247 0.82343 0.84197 0.0
C2531 C 0.17671 0.87645 0.88113 0.0
C2532 C 0.14074 0.77874 0.78207 0.0
C2533 C 0.14318 0.78827 0.79831 0.0
C2534 C 0.17318 0.83143 0.82131 0.0
C2535 C 0.16144 0.84802 0.86441 0.0
C2536 C 0.15952 0.83748 0.84759 0.0
C2537 C 0.15431 0.8072 0.79872 0.0
C2538 C 0.15614 0.81744 0.81568 0.0
H2539 H 0.1471 0.84215 0.90868 0.0
H2540 H 0.14201 0.82497 0.88037 0.0
H2541 H 0.18825 0.85176 0.84126 0.0
H2542 H 0.16738 0.81416 0.75408 0.0
H2543 H 0.17189 0.83093 0.78257 0.0
C2544 C 0.20451 0.37198 0.77813 0.0
C2545 C 0.20386 0.35992 0.76474 0.0
C2546 C 0.19527 0.36541 0.79466 0.0
C2547 C 0.17621 0.32518 0.82452 0.0
H2548 H 0.14842 0.34543 0.84538 0.0
C2549 C 0.12649 0.29139 0.88448 0.0
C2550 C 0.12574 0.3028 0.89779 0.0
C2551 C 0.13666 0.29868 0.86858 0.0
C2552 C 0.15631 0.33979 0.83986 0.0
H2553 H 0.19293 0.33167 0.75778 0.0
H2554 H 0.1768 0.32015 0.78658 0.0
H2555 H 0.16496 0.3578 0.81694 0.0
H2556 H 0.13536 0.33068 0.90541 0.0
H2557 H 0.15327 0.3435 0.87773 0.0
H2558 H 0.16757 0.30716 0.8474 0.0
C2559 C 0.1846 0.33466 0.78451 0.0
C2560 C 0.16577 0.34687 0.82356 0.0
C2561 C 0.19377 0.34123 0.76802 0.0
C2562 C 0.13556 0.32161 0.89517 0.0
C2563 C 0.14574 0.32892 0.87932 0.0
C2564 C 0.16678 0.31813 0.84083 0.0
C2565 C 0.18532 0.34666 0.79806 0.0
C2566 C 0.17572 0.33956 0.81566 0.0
C2567 C 0.1463 0.31753 0.86577 0.0
C2568 C 0.15665 0.32528 0.84864 0.0
H2569 H 0.21241 0.38647 0.77595 0.0
H2570 H 0.19621 0.375 0.80492 0.0
H2571 H 0.184 0.31946 0.81891 0.0
H2572 H 0.11888 0.27682 0.88618 0.0
H2573 H 0.13662 0.28952 0.85831 0.0
C2574 C 0.8446 0.63154 0.7137 0.0
C2575 C 0.83717 0.63329 0.73011 0.0
C2576 C 0.84169 0.63826 0.69744 0.0
C2577 C 0.81226 0.65332 0.6758 0.0
H2578 H 0.85327 0.67924 0.64329 0.0
C2579 C 0.81005 0.69419 0.61414 0.0
C2580 C 0.81704 0.69185 0.59769 0.0
C2581 C 0.81278 0.68739 0.63044 0.0
C2582 C 0.84166 0.6719 0.65215 0.0
H2583 H 0.82058 0.64293 0.74261 0.0
H2584 H 0.81549 0.65483 0.71418 0.0
H2585 H 0.85688 0.66601 0.67138 0.0
H2586 H 0.8327 0.68113 0.58519 0.0
H2587 H 0.83759 0.66923 0.61373 0.0
H2588 H 0.79707 0.65931 0.65658 0.0
C2589 C 0.82343 0.64814 0.71376 0.0
C2590 C 0.8437 0.66428 0.66822 0.0
C2591 C 0.82634 0.64138 0.73002 0.0
C2592 C 0.82726 0.68311 0.59779 0.0
C2593 C 0.83005 0.67635 0.6141 0.0
C2594 C 0.81023 0.66098 0.65975 0.0
C2595 C 0.83128 0.64686 0.69733 0.0
C2596 C 0.82902 0.65487 0.68021 0.0
C2597 C 0.82265 0.67822 0.63057 0.0
C2598 C 0.8249 0.67033 0.64774 0.0
H2599 H 0.85287 0.62518 0.71351 0.0
H2600 H 0.84763 0.63675 0.68497 0.0
H2601 H 0.80062 0.64595 0.68463 0.0
H2602 H 0.80232 0.70112 0.61433 0.0
H2603 H 0.80717 0.68931 0.64295 0.0
C2604 C 0.35117 0.18395 0.72898 0.0
C2605 C 0.35862 0.2028 0.72891 0.0
C2606 C 0.3438 0.17397 0.71299 0.0
C2607 C 0.32409 0.17657 0.6691 0.0
H2608 H 0.33041 0.13613 0.65556 0.0
C2609 C 0.30188 0.14053 0.59914 0.0
C2610 C 0.29478 0.12174 0.59885 0.0
C2611 C 0.3089 0.15026 0.61532 0.0
C2612 C 0.32831 0.14723 0.65929 0.0
H2613 H 0.36521 0.22621 0.71217 0.0
H2614 H 0.35249 0.20883 0.68413 0.0
H2615 H 0.34519 0.15358 0.68294 0.0
H2616 H 0.28847 0.09814 0.61514 0.0
H2617 H 0.30052 0.11505 0.64356 0.0
H2618 H 0.30721 0.17023 0.64547 0.0
C2619 C 0.35194 0.20168 0.69655 0.0
C2620 C 0.33682 0.15725 0.67495 0.0
C2621 C 0.35931 0.21163 0.71252 0.0
C2622 C 0.29407 0.11269 0.61509 0.0
C2623 C 0.30107 0.12238 0.63127 0.0
C2624 C 0.31556 0.16654 0.65345 0.0
C2625 C 0.3438 0.18271 0.69668 0.0
C2626 C 0.33485 0.17206 0.68001 0.0
C2627 C 0.30889 0.14132 0.6315 0.0
C2628 C 0.31759 0.15177 0.64835 0.0
H2629 H 0.35044 0.1769 0.74154 0.0
H2630 H 0.33753 0.15936 0.71357 0.0
H2631 H 0.32204 0.18771 0.67281 0.0
H2632 H 0.30264 0.14776 0.5867 0.0
H2633 H 0.31495 0.16485 0.615 0.0
C2634 C 0.86957 0.16534 0.60949 0.0
C2635 C 0.8688 0.17656 0.59595 0.0
C2636 C 0.85988 0.16229 0.62575 0.0
C2637 C 0.83866 0.18164 0.65504 0.0
H2638 H 0.8121 0.13305 0.67495 0.0
C2639 C 0.78921 0.16316 0.71584 0.0
C2640 C 0.78948 0.15129 0.72892 0.0
C2641 C 0.79894 0.16642 0.69956 0.0
C2642 C 0.81961 0.14674 0.66969 0.0
H2643 H 0.85743 0.1934 0.58858 0.0
H2644 H 0.84049 0.18813 0.617 0.0
H2645 H 0.82917 0.13841 0.6467 0.0
H2646 H 0.80017 0.1337 0.73559 0.0
H2647 H 0.81729 0.13946 0.70727 0.0
H2648 H 0.82917 0.18998 0.67806 0.0
C2649 C 0.84867 0.1818 0.61518 0.0
C2650 C 0.82939 0.1498 0.6535 0.0
C2651 C 0.85831 0.18479 0.59892 0.0
C2652 C 0.79964 0.14278 0.72557 0.0
C2653 C 0.80938 0.14605 0.70935 0.0
C2654 C 0.82892 0.17859 0.67126 0.0
C2655 C 0.84933 0.1705 0.62877 0.0
C2656 C 0.83902 0.16728 0.64601 0.0
C2657 C 0.80909 0.15785 0.69611 0.0
C2658 C 0.8193 0.1611 0.67878 0.0
H2659 H 0.87783 0.1591 0.60758 0.0
H2660 H 0.86086 0.15372 0.63607 0.0
H2661 H 0.84614 0.1953 0.64972 0.0
H2662 H 0.78126 0.16968 0.71808 0.0
H2663 H 0.79825 0.1754 0.68954 0.0
C2664 C 0.03396 0.49649 0.55119 0.0
C2665 C 0.02208 0.48537 0.56484 0.0
C2666 C 0.02718 0.49959 0.53504 0.0
C2667 C 0.98602 0.48003 0.5065 0.0
H2668 H 0.00889 0.52785 0.48465 0.0
C2669 C 0.95526 0.49766 0.44481 0.0
C2670 C 0.96742 0.50854 0.4312 0.0
C2671 C 0.96172 0.49474 0.46127 0.0
C2672 C 0.00246 0.51437 0.49049 0.0
H2673 H 0.99395 0.46899 0.5727 0.0
H2674 H 0.98202 0.47446 0.54456 0.0
H2675 H 0.02071 0.52316 0.51321 0.0
H2676 H -0.00429 0.52468 0.42381 0.0
H2677 H 0.00705 0.51958 0.4525 0.0
H2678 H 0.96779 0.47124 0.48376 0.0
C2679 C -0.00345 0.48059 0.54613 0.0
C2680 C 0.00924 0.51169 0.50684 0.0
C2681 C 0.00335 0.47752 0.56224 0.0
C2682 C 0.9861 0.51637 0.43422 0.0
C2683 C 0.99256 0.51349 0.45064 0.0
C2684 C 0.97924 0.48271 0.49015 0.0
C2685 C 0.00838 0.49158 0.5323 0.0
C2686 C 0.00111 0.49448 0.51501 0.0
C2687 C 0.98046 0.50272 0.4644 0.0
C2688 C 0.98743 0.4999 0.48193 0.0
H2689 H 0.04847 0.50249 0.55286 0.0
H2690 H 0.03664 0.50794 0.52455 0.0
H2691 H 0.97962 0.46655 0.5123 0.0
H2692 H 0.9408 0.49169 0.44283 0.0
H2693 H 0.95206 0.48654 0.47169 0.0
C2694 C 0.49225 0.51952 0.56164 0.0
C2695 C 0.50521 0.538 0.56219 0.0
C2696 C 0.4892 0.50973 0.54545 0.0
C2697 C 0.51185 0.51069 0.50238 0.0
H2698 H 0.46363 0.47448 0.48688 0.0
C2699 C 0.49703 0.47532 0.43206 0.0
C2700 C 0.48399 0.45686 0.43151 0.0
C2701 C 0.5 0.48518 0.44818 0.0
C2702 C 0.4772 0.48439 0.49115 0.0
H2703 H 0.52454 0.56105 0.54638 0.0
H2704 H 0.51919 0.54402 0.51798 0.0
H2705 H 0.46742 0.49206 0.51446 0.0
H2706 H 0.46442 0.43393 0.44729 0.0
H2707 H 0.46966 0.45107 0.47559 0.0
H2708 H 0.52163 0.503 0.4791 0.0
C2709 C 0.51163 0.53697 0.53007 0.0
C2710 C 0.47936 0.49448 0.50693 0.0
C2711 C 0.51463 0.54673 0.54624 0.0
C2712 C 0.47439 0.44823 0.44742 0.0
C2713 C 0.47734 0.45805 0.46353 0.0
C2714 C 0.50969 0.5006 0.48662 0.0
C2715 C 0.49908 0.51831 0.52957 0.0
C2716 C 0.49671 0.50774 0.5127 0.0
C2717 C 0.48998 0.4767 0.46402 0.0
C2718 C 0.49234 0.48733 0.48084 0.0
H2719 H 0.48492 0.51253 0.57386 0.0
H2720 H 0.47955 0.49534 0.54553 0.0
H2721 H 0.52542 0.52061 0.50666 0.0
H2722 H 0.5045 0.48223 0.41987 0.0
H2723 H 0.50973 0.49955 0.44808 0.0
C2724 C 0.53597 0.03779 0.44543 0.0
C2725 C 0.53456 0.02566 0.43174 0.0
C2726 C 0.52644 0.0313 0.46182 0.0
C2727 C 0.50549 0.99071 0.49089 0.0
H2728 H 0.47937 0.01256 0.51223 0.0
C2729 C 0.45612 0.95816 0.55128 0.0
C2730 C 0.45596 0.96982 0.56467 0.0
C2731 C 0.46609 0.96519 0.53524 0.0
C2732 C 0.4868 0.00646 0.50659 0.0
H2733 H 0.52196 -0.00259 0.42405 0.0
H2734 H 0.50536 0.98602 0.45267 0.0
H2735 H 0.49612 0.02472 0.48386 0.0
H2736 H 0.46631 -0.00217 0.57223 0.0
H2737 H 0.48395 0.01021 0.54435 0.0
H2738 H 0.4963 0.97252 0.51362 0.0
C2739 C 0.51394 0.0005 0.4509 0.0
C2740 C 0.49636 0.01342 0.49032 0.0
C2741 C 0.52337 0.00699 0.43454 0.0
C2742 C 0.46608 0.98859 0.56194 0.0
C2743 C 0.47611 0.99564 0.54597 0.0
C2744 C 0.496 0.98381 0.50719 0.0
C2745 C 0.51547 0.01257 0.46476 0.0
C2746 C 0.50571 0.00554 0.48226 0.0
C2747 C 0.47614 0.98403 0.53236 0.0
C2748 C 0.48647 0.99154 0.51518 0.0
H2749 H 0.54471 0.05225 0.4436 0.0
H2750 H 0.52799 0.0409 0.47233 0.0
H2751 H 0.51281 0.98454 0.48513 0.0
H2752 H 0.44825 0.94361 0.55307 0.0
H2753 H 0.46563 0.95586 0.52493 0.0
C2754 C 0.51691 0.98873 0.05959 0.0
C2755 C 0.50964 0.97009 0.06232 0.0
C2756 C 0.51481 0.99526 0.04285 0.0
C2757 C 0.48685 0.98149 0.00117 0.0
H2758 H 0.52717 0.02522 0.98112 0.0
C2759 C 0.48384 0.00759 0.92956 0.0
C2760 C 0.48992 0.02616 0.92818 0.0
C2761 C 0.48717 0.00056 0.94535 0.0
C2762 C 0.51576 0.01307 0.98661 0.0
H2763 H 0.49468 0.94359 0.04988 0.0
H2764 H 0.49096 0.95497 0.02042 0.0
H2765 H 0.53088 0.01304 0.00992 0.0
H2766 H 0.50447 0.05208 0.94181 0.0
H2767 H 0.51042 0.03984 0.96955 0.0
H2768 H 0.47172 0.98156 0.9779 0.0
C2769 C 0.49806 0.96454 0.0313 0.0
C2770 C 0.51786 0.0061 0.00311 0.0
C2771 C 0.50016 0.95802 0.0481 0.0
C2772 C 0.49983 0.03772 0.94258 0.0
C2773 C 0.50322 0.03071 0.95839 0.0
C2774 C 0.48477 0.98844 0.98465 0.0
C2775 C 0.50545 0.98326 0.02847 0.0
C2776 C 0.50339 0.9903 0.01063 0.0
C2777 C 0.49668 0.012 0.96004 0.0
C2778 C 0.49916 0.00435 0.97725 0.0
H2779 H 0.52419 -0.00175 0.07046 0.0
H2780 H 0.52039 0.00971 0.04122 0.0
H2781 H 0.47537 0.96945 0.00672 0.0
H2782 H 0.47626 -0.00153 0.91851 0.0
H2783 H 0.48221 0.98614 0.9461 0.0
C2784 C 0.97307 0.47532 0.93136 0.0
C2785 C 0.96477 0.45639 0.93188 0.0
C2786 C 0.98041 0.48549 0.94723 0.0
C2787 C -0.00178 0.48288 0.99224 0.0
H2788 H 0.99291 0.52436 0.00371 0.0
C2789 C 0.01899 0.51958 0.06182 0.0
C2790 C 0.02676 0.53846 0.06179 0.0
C2791 C 0.01212 0.50975 0.04568 0.0
C2792 C 0.99473 0.51297 0.00057 0.0
H2793 H 0.95675 0.43307 0.94925 0.0
H2794 H 0.96954 0.4508 0.97711 0.0
H2795 H 0.97876 0.50672 0.97625 0.0
H2796 H 0.03436 0.56208 0.04503 0.0
H2797 H 0.02251 0.54497 0.01666 0.0
H2798 H 0.01421 0.48912 0.01653 0.0
C2799 C 0.97072 0.45785 0.96442 0.0
C2800 C 0.98658 0.50284 0.98486 0.0
C2801 C 0.96335 0.44771 0.94855 0.0
C2802 C 0.02818 0.54747 0.04533 0.0
C2803 C 0.02133 0.53767 0.02917 0.0
C2804 C 0.0064 0.49302 0.00792 0.0
C2805 C 0.97955 0.47686 0.96389 0.0
C2806 C 0.98819 0.48765 0.98056 0.0
C2807 C 0.01298 0.51867 0.02922 0.0
C2808 C 0.00471 0.50815 0.0123 0.0
H2809 H 0.97432 0.48225 0.91857 0.0
H2810 H 0.98724 0.50012 0.94636 0.0
H2811 H -3e-05 0.47143 0.98912 0.0
H2812 H 0.01773 0.5124 0.07444 0.0
H2813 H 0.00563 0.49513 0.04622 0.0
C2814 C 0.44519 0.47845 0.04539 0.0
C2815 C 0.45428 0.48652 0.06168 0.0
C2816 C 0.45489 0.4811 0.02923 0.0
C2817 C 0.49886 0.51089 0.00718 0.0
H2818 H 0.4864 0.4686 0.97742 0.0
C2819 C 0.54383 0.51374 0.94744 0.0
C2820 C 0.53491 0.5054 0.93116 0.0
C2821 C 0.53402 0.51082 0.96355 0.0
C2822 C 0.48993 0.48056 0.98548 0.0
H2823 H 0.48038 0.50415 0.074 0.0
H2824 H 0.49747 0.50893 0.04572 0.0
H2825 H 0.46892 0.46552 0.00491 0.0
H2826 H 0.50905 0.48704 0.91881 0.0
H2827 H 0.49173 0.48191 0.94701 0.0
H2828 H 0.51982 0.52596 0.98776 0.0
C2829 C 0.48286 0.50058 0.04535 0.0
C2830 C 0.4799 0.47881 0.0012 0.0
C2831 C 0.47313 0.49786 0.06152 0.0
C2832 C 0.51615 0.49352 0.9313 0.0
C2833 C 0.5063 0.49061 0.94742 0.0
C2834 C 0.50886 0.51265 0.99145 0.0
C2835 C 0.47386 0.49199 0.02911 0.0
C2836 C 0.48428 0.49395 0.01223 0.0
C2837 C 0.5151 0.4995 0.96365 0.0
C2838 C 0.50454 0.4975 0.98045 0.0
H2839 H 0.43059 0.46984 0.04524 0.0
H2840 H 0.44757 0.47458 0.01686 0.0
H2841 H 0.5024 0.52284 0.01528 0.0
H2842 H 0.55835 0.52281 0.94759 0.0
H2843 H 0.54123 0.51757 0.9759 0.0
C2844 C 0.2491 0.08992 0.01905 0.0
C2845 C 0.23588 0.09508 0.01811 0.0
C2846 C 0.24588 0.07358 0.01139 0.0
C2847 C 0.21574 0.03806 0.97853 0.0
H2848 H 0.23282 0.0093 0.00344 0.0
C2849 C 0.18938 0.96239 0.96406 0.0
C2850 C 0.20212 0.95651 0.96373 0.0
C2851 C 0.19468 0.98023 0.9687 0.0
C2852 C 0.22819 0.01731 0.9962 0.0
H2853 H 0.20857 0.08689 0.00945 0.0
H2854 H 0.20262 0.05804 0.99656 0.0
H2855 H 0.23942 0.03833 0.01624 0.0
H2856 H 0.23053 0.96493 0.96734 0.0
H2857 H 0.2397 0.99609 0.97561 0.0
H2858 H 0.20399 0.01664 0.95883 0.0
C2859 C 0.21577 0.06689 0.00254 0.0
C2860 C 0.23198 0.03396 0.00351 0.0
C2861 C 0.21908 0.0833 0.01009 0.0
C2862 C 0.22038 0.96903 0.96748 0.0
C2863 C 0.22563 0.98683 0.97232 0.0
C2864 C 0.21181 0.02133 0.97132 0.0
C2865 C 0.2292 0.06191 0.00295 0.0
C2866 C 0.22568 0.04448 0.99484 0.0
C2867 C 0.21277 0.9925 0.97328 0.0
C2868 C 0.21791 0.01076 0.98015 0.0
H2869 H 0.26192 0.09846 0.02581 0.0
H2870 H 0.25652 0.07018 0.01195 0.0
H2871 H 0.21099 0.04598 0.97131 0.0
H2872 H 0.17522 0.95309 0.96117 0.0
H2873 H 0.18447 0.98423 0.96945 0.0
C2874 C 0.90929 0.12721 0.01406 0.0
C2875 C 0.89654 0.13289 0.01622 0.0
C2876 C 0.92614 0.13874 0.00617 0.0
C2877 C 0.94996 0.17933 0.97708 0.0
H2878 H 0.99329 0.18413 -0.00036 0.0
C2879 C 0.0212 0.23934 0.96273 0.0
C2880 C 0.03595 0.23629 0.96257 0.0
C2881 C 0.00388 0.2254 0.96723 0.0
C2882 C 0.98132 0.18272 0.99296 0.0
H2883 H 0.89176 0.15542 0.01302 0.0
H2884 H 0.9211 0.17552 -0.00094 0.0
H2885 H 0.96367 0.16232 0.01182 0.0
H2886 H 0.04387 0.21593 0.96615 0.0
H2887 H 0.01355 0.19153 0.97376 0.0
H2888 H 0.9676 0.19987 0.95834 0.0
C2889 C 0.91789 0.16197 0.00292 0.0
C2890 C 0.96435 0.17025 -3e-05 0.0
C2891 C 0.90109 0.15046 0.01085 0.0
C2892 C 0.03284 0.21878 0.96628 0.0
C2893 C 0.01549 0.20482 0.97075 0.0
C2894 C 0.96692 0.19176 0.97002 0.0
C2895 C 0.93057 0.15621 0.00043 0.0
C2896 C 0.94851 0.16861 0.99227 0.0
C2897 C 0.00088 0.20806 0.97161 0.0
C2898 C 0.98281 0.19378 0.97804 0.0
H2899 H 0.90613 0.11376 0.01826 0.0
H2900 H 0.93562 0.13391 0.00439 0.0
H2901 H 0.93796 0.17814 0.97066 0.0
H2902 H 0.0231 0.25265 0.95996 0.0
H2903 H 0.99298 0.22842 0.96797 0.0
C2904 C 0.74425 0.77365 0.97072 0.0
C2905 C 0.74883 0.79128 0.96547 0.0
C2906 C 0.75775 0.76966 0.97542 0.0
C2907 C 0.80521 0.7924 0.99137 0.0
H2908 H 0.80045 0.74538 0.98246 0.0
C2909 C 0.86132 0.77581 0.00898 0.0
C2910 C 0.85562 0.75941 0.01822 0.0
C2911 C 0.84864 0.77976 0.00149 0.0
C2912 C 0.80188 0.75854 0.98509 0.0
H2913 H 0.77116 0.81831 0.96002 0.0
H2914 H 0.79471 0.81121 0.96764 0.0
H2915 H 0.77789 0.75213 0.97007 0.0
H2916 H 0.83229 0.7349 0.02813 0.0
H2917 H 0.81005 0.74153 0.01453 0.0
H2918 H 0.82931 0.79881 0.00624 0.0
C2919 C 0.78069 0.80059 0.96871 0.0
C2920 C 0.78897 0.76241 0.97805 0.0
C2921 C 0.76719 0.80464 0.96423 0.0
C2922 C 0.83703 0.74724 0.02032 0.0
C2923 C 0.82433 0.7511 0.01268 0.0
C2924 C 0.81821 0.78859 -0.00177 0.0
C2925 C 0.77612 0.78316 0.97476 0.0
C2926 C 0.79038 0.77933 0.98125 0.0
C2927 C 0.83003 0.76737 0.00316 0.0
C2928 C 0.81657 0.77158 0.99531 0.0
H2929 H 0.73022 0.76307 0.97188 0.0
H2930 H 0.7537 0.75615 0.98021 0.0
H2931 H 0.80657 0.80544 0.99443 0.0
H2932 H 0.87561 0.78548 0.00734 0.0
H2933 H 0.85338 0.7924 0.9942 0.0
C2934 C 0.95901 0.18462 0.52744 0.0
C2935 C 0.95572 0.19913 0.52929 0.0
C2936 C 0.97631 0.18779 0.52308 0.0
C2937 C 0.02466 0.22393 0.52037 0.0
H2938 H 0.02703 0.19266 0.48335 0.0
C2939 C 0.09282 0.23394 0.4943 0.0
C2940 C 0.09429 0.23223 0.4754 0.0
C2941 C 0.07602 0.22873 0.5022 0.0
C2942 C 0.0266 0.20158 0.49362 0.0
H2943 H 0.9682 0.22841 0.52863 0.0
H2944 H -0.00181 0.23391 0.52068 0.0
H2945 H -0.00226 0.18611 0.49529 0.0
H2946 H 0.07943 0.22318 0.44999 0.0
H2947 H 0.05005 0.21443 0.46366 0.0
H2948 H 0.05346 0.23988 0.51807 0.0
C2949 C 0.98751 0.22008 0.52287 0.0
C2950 C 0.00982 0.19767 0.50067 0.0
C2951 C 0.97025 0.21691 0.52734 0.0
C2952 C 0.07862 0.22473 0.46459 0.0
C2953 C 0.06182 0.21962 0.47246 0.0
C2954 C 0.04144 0.22789 0.51323 0.0
C2955 C 0.99068 0.20555 0.52038 0.0
C2956 C 0.00863 0.20892 0.51398 0.0
C2957 C 0.06034 0.22168 0.49135 0.0
C2958 C 0.04259 0.21688 0.49962 0.0
H2959 H 0.94815 0.17075 0.52901 0.0
H2960 H 0.97837 0.17632 0.52159 0.0
H2961 H 0.02425 0.23274 0.53077 0.0
H2962 H 0.10462 0.2391 0.50304 0.0
H2963 H 0.07531 0.23009 0.51684 0.0
C2964 C 0.80456 0.76782 0.51872 0.0
C2965 C 0.7919 0.75219 0.52809 0.0
C2966 C 0.80038 0.78115 0.51393 0.0
C2967 C 0.76088 0.78753 0.50687 0.0
H2968 H 0.79803 0.83815 0.50375 0.0
C2969 C 0.74634 0.84562 0.49134 0.0
C2970 C 0.75671 0.85738 0.47716 0.0
C2971 C 0.75045 0.83281 0.49818 0.0
C2972 C 0.78756 0.82404 0.5045 0.0
H2973 H 0.76527 0.73867 0.54056 0.0
H2974 H 0.75823 0.76227 0.53285 0.0
H2975 H 0.80567 0.81617 0.51587 0.0
H2976 H 0.77992 0.8653 0.45952 0.0
H2977 H 0.78732 0.84315 0.47183 0.0
H2978 H 0.74273 0.79563 0.49586 0.0
C2979 C 0.77116 0.76397 0.52863 0.0
C2980 C 0.79192 0.81142 0.51138 0.0
C2981 C 0.77524 0.75049 0.53319 0.0
C2982 C 0.77156 0.85633 0.47032 0.0
C2983 C 0.77584 0.84371 0.47737 0.0
C2984 C 0.75648 0.80021 0.50028 0.0
C2985 C 0.78355 0.77931 0.51863 0.0
C2986 C 0.77869 0.79295 0.51245 0.0
C2987 C 0.76528 0.83182 0.49133 0.0
C2988 C 0.76983 0.81852 0.49884 0.0
H2989 H 0.81748 0.76949 0.51448 0.0
H2990 H 0.81016 0.7926 0.50599 0.0
H2991 H 0.7504 0.77342 0.50715 0.0
H2992 H 0.73542 0.84659 0.49766 0.0
H2993 H 0.74232 0.82399 0.50919 0.0
C2994 C 0.22482 0.0341 0.5152 0.0
C2995 C 0.2401 0.03714 0.52533 0.0
C2996 C 0.21209 0.01666 0.50958 0.0
C2997 C 0.19302 0.96885 0.51959 0.0
H2998 H 0.18069 0.96191 0.4681 0.0
C2999 C 0.14639 0.89784 0.48934 0.0
C3000 C 0.13434 0.89629 0.47542 0.0
C3001 C 0.15984 0.91485 0.49538 0.0
C3002 C 0.18375 0.96362 0.48256 0.0
H3003 H 0.25369 0.02417 0.53802 0.0
H3004 H 0.23109 0.99352 0.52846 0.0
H3005 H 0.20264 0.99192 0.47932 0.0
H3006 H 0.12657 0.91143 0.45742 0.0
H3007 H 0.14949 0.94104 0.4684 0.0
H3008 H 0.17374 0.94076 0.52305 0.0
C3009 C 0.22916 0.00475 0.52479 0.0
C3010 C 0.19639 0.9808 0.48894 0.0
C3011 C 0.24208 0.02227 0.53019 0.0
C3012 C 0.13579 0.91215 0.468 0.0
C3013 C 0.14907 0.92915 0.47419 0.0
C3014 C 0.18015 0.9517 0.51327 0.0
C3015 C 0.21423 0.00187 0.51419 0.0
C3016 C 0.20108 0.98357 0.50751 0.0
C3017 C 0.16131 0.93073 0.48793 0.0
C3018 C 0.17531 0.94887 0.49466 0.0
H3019 H 0.2229 0.04526 0.5112 0.0
H3020 H 0.20058 0.01473 0.50155 0.0
H3021 H 0.19635 0.97071 0.534 0.0
H3022 H 0.14524 0.88602 0.49601 0.0
H3023 H 0.16906 0.9155 0.50591 0.0
C3024 C 0.80665 0.03467 0.01824 0.0
C3025 C 0.79435 0.03715 0.02886 0.0
C3026 C 0.80273 0.0173 0.01314 0.0
C3027 C 0.76359 0.9709 0.00775 0.0
H3028 H 0.80113 0.95848 0.00048 0.0
C3029 C 0.74881 0.89858 0.99088 0.0
C3030 C 0.75828 0.8971 0.97587 0.0
C3031 C 0.75332 0.91553 -0.00207 0.0
C3032 C 0.79055 0.96184 0.00238 0.0
H3033 H 0.76876 0.02332 0.04335 0.0
H3034 H 0.76224 0.993 0.03509 0.0
H3035 H 0.80908 0.98808 0.01298 0.0
H3036 H 0.78039 0.91228 0.95697 0.0
H3037 H 0.78849 0.94194 0.96957 0.0
H3038 H 0.74506 0.94444 -0.00253 0.0
C3039 C 0.77463 0.00447 0.03012 0.0
C3040 C 0.79508 0.97879 0.00948 0.0
C3041 C 0.77843 0.02186 0.03499 0.0
C3042 C 0.77271 0.91297 0.96842 0.0
C3043 C 0.77739 0.92992 0.97565 0.0
C3044 C 0.75905 0.95387 0.0009 0.0
C3045 C 0.78653 0.00198 0.01877 0.0
C3046 C 0.78167 0.98361 0.01212 0.0
C3047 C 0.76768 0.93134 0.99041 0.0
C3048 C 0.7725 0.94925 -0.00199 0.0
H3049 H 0.81899 0.04619 0.01321 0.0
H3050 H 0.81212 0.01598 0.00421 0.0
H3051 H 0.75295 0.97421 0.00921 0.0
H3052 H 0.73829 0.88671 -0.00236 0.0
H3053 H 0.74586 0.91626 0.00956 0.0
C3054 C 0.96921 0.75421 0.03503 0.0
C3055 C 0.95403 0.75541 0.02968 0.0
C3056 C 0.98666 0.76798 0.03057 0.0
C3057 C 0.01257 0.81542 0.0131 0.0
H3058 H 0.04696 0.80066 -0.00162 0.0
C3059 C 0.07819 0.86107 0.97254 0.0
C3060 C 0.09409 0.86207 0.97933 0.0
C3061 C 0.0613 0.84854 0.9797 0.0
C3062 C 0.03752 0.80497 0.00259 0.0
H3063 H 0.94525 0.77213 0.01571 0.0
H3064 H 0.97552 0.79576 0.00738 0.0
H3065 H 0.01716 0.77801 0.0094 0.0
H3066 H 0.10464 0.85151 1e-05 0.0
H3067 H 0.07517 0.82909 0.01176 0.0
H3068 H 0.03288 0.84233 0.00554 0.0
C3069 C 0.97409 0.78447 0.01545 0.0
C3070 C 0.02047 0.79203 0.00903 0.0
C3071 C 0.95667 0.77084 0.02014 0.0
C3072 C 0.09273 0.85053 0.99372 0.0
C3073 C 0.07584 0.83783 0.00068 0.0
C3074 C 0.02953 0.82831 0.00639 0.0
C3075 C 0.98931 0.78313 0.02041 0.0
C3076 C 0.00774 0.79707 0.01432 0.0
C3077 C 0.05998 0.83672 0.99373 0.0
C3078 C 0.04212 0.82317 0.00105 0.0
H3079 H 0.96762 0.74255 0.04254 0.0
H3080 H -0.00193 0.76666 0.03498 0.0
H3081 H 0.00327 0.81988 0.01737 0.0
H3082 H 0.07879 0.86991 0.9616 0.0
H3083 H 0.04923 0.8479 0.97409 0.0
C3084 C 0.21892 0.18166 0.02807 0.0
C3085 C 0.23645 0.19632 0.03111 0.0
C3086 C 0.20471 0.18466 0.0236 0.0
C3087 C 0.19128 0.21992 0.02269 0.0
H3088 H 0.16117 0.19183 0.98201 0.0
C3089 C 0.1498 0.24286 0.98011 0.0
C3090 C 0.13203 0.22975 0.97548 0.0
C3091 C 0.16136 0.23778 0.9883 0.0
C3092 C 0.16929 0.19961 0.99354 0.0
H3093 H 0.2526 0.22564 0.03256 0.0
H3094 H 0.22795 0.23085 0.0245 0.0
H3095 H 0.18321 0.18462 0.99478 0.0
H3096 H 0.11257 0.20103 0.97489 0.0
H3097 H 0.13285 0.19205 0.98922 0.0
H3098 H 0.17767 0.23522 0.02108 0.0
C3099 C 0.22509 0.21702 0.02579 0.0
C3100 C 0.18189 0.19546 0.00091 0.0
C3101 C 0.23927 0.21402 0.03032 0.0
C3102 C 0.12619 0.21139 0.97852 0.0
C3103 C 0.13778 0.20628 0.98668 0.0
C3104 C 0.17874 0.22412 0.01527 0.0
C3105 C 0.20773 0.20239 0.02203 0.0
C3106 C 0.19321 0.20574 0.01539 0.0
C3107 C 0.15543 0.21945 0.9918 0.0
C3108 C 0.16782 0.21418 0.00045 0.0
H3109 H 0.21624 0.16784 0.02871 0.0
H3110 H 0.19142 0.1731 0.02109 0.0
H3111 H 0.19958 0.2279 0.03405 0.0
H3112 H 0.15483 0.25706 0.97725 0.0
H3113 H 0.17504 0.24819 0.99165 0.0
C3114 C 0.91134 0.76755 0.52814 0.0
C3115 C 0.89556 0.75806 0.51765 0.0
C3116 C 0.92813 0.77165 0.52093 0.0
C3117 C 0.94902 0.75869 0.48378 0.0
H3118 H 0.99161 0.80423 0.49644 0.0
C3119 C 0.02156 0.77331 0.46906 0.0
C3120 C 0.03496 0.79116 0.46495 0.0
C3121 C 0.00413 0.76934 0.47394 0.0
C3122 C 0.97984 0.79156 0.49253 0.0
H3123 H 0.88498 0.74628 0.4911 0.0
H3124 H 0.91425 0.75358 0.47839 0.0
H3125 H 0.96217 0.79753 0.50791 0.0
H3126 H 0.04031 0.81871 0.46182 0.0
H3127 H 0.00976 0.81171 0.46979 0.0
H3128 H 0.96663 0.75295 0.46796 0.0
C3129 C 0.91366 0.75731 0.49241 0.0
C3130 C 0.96297 0.78758 0.49937 0.0
C3131 C 0.89687 0.75307 0.4997 0.0
C3132 C 0.03034 0.80484 0.4651 0.0
C3133 C 0.01286 0.80084 0.46979 0.0
C3134 C 0.96588 0.76273 0.4768 0.0
C3135 C 0.9295 0.7666 0.50295 0.0
C3136 C 0.94737 0.77103 0.49523 0.0
C3137 C -0.00036 0.78311 0.47464 0.0
C3138 C 0.98152 0.77915 0.48122 0.0
H3139 H 0.91066 0.7716 0.54201 0.0
H3140 H 0.94 0.77859 0.52953 0.0
H3141 H 0.93733 0.74573 0.48044 0.0
H3142 H 0.0247 0.76247 0.46915 0.0
H3143 H 0.99438 0.75558 0.47781 0.0
C3144 C 0.2416 0.14581 0.50165 0.0
C3145 C 0.23115 0.13357 0.51545 0.0
C3146 C 0.2372 0.15849 0.49501 0.0
C3147 C 0.20993 0.18021 0.50629 0.0
H3148 H 0.21777 0.19403 0.45517 0.0
C3149 C 0.18354 0.22386 0.47353 0.0
C3150 C 0.19683 0.23952 0.46464 0.0
C3151 C 0.18711 0.21016 0.47853 0.0
C3152 C 0.21557 0.19029 0.46947 0.0
H3153 H 0.20741 0.12458 0.53255 0.0
H3154 H 0.19931 0.14614 0.52052 0.0
H3155 H 0.22512 0.17155 0.46654 0.0
H3156 H 0.22393 0.25264 0.45319 0.0
H3157 H 0.22999 0.22844 0.46166 0.0
H3158 H 0.19998 0.19869 0.50903 0.0
C3159 C 0.21136 0.14648 0.51529 0.0
C3160 C 0.21988 0.17752 0.47605 0.0
C3161 C 0.21591 0.13399 0.5221 0.0
C3162 C 0.21345 0.24079 0.46009 0.0
C3163 C 0.2169 0.22693 0.46486 0.0
C3164 C 0.20538 0.19275 0.49964 0.0
C3165 C 0.222 0.15897 0.50172 0.0
C3166 C 0.2172 0.17238 0.49458 0.0
C3167 C 0.20391 0.2117 0.47449 0.0
C3168 C 0.20822 0.19795 0.48121 0.0
H3169 H 0.25291 0.14541 0.49554 0.0
H3170 H 0.24579 0.16793 0.48464 0.0
H3171 H 0.20803 0.17691 0.52069 0.0
H3172 H 0.1706 0.22246 0.47724 0.0
H3173 H 0.17682 0.19845 0.48581 0.0
C3174 C 0.74903 0.97027 0.46361 0.0
C3175 C 0.75023 0.95521 0.46943 0.0
C3176 C 0.76256 0.98779 0.46821 0.0
C3177 C 0.80958 0.01375 0.48692 0.0
H3178 H 0.79531 0.0493 0.49818 0.0
C3179 C 0.85418 0.08023 0.52659 0.0
C3180 C 0.85679 0.09609 0.51797 0.0
C3181 C 0.84147 0.06321 0.51986 0.0
C3182 C 0.79945 0.0395 0.49497 0.0
H3183 H 0.76648 0.94666 0.48464 0.0
H3184 H 0.78959 0.97701 0.49332 0.0
H3185 H 0.77256 0.01922 0.48779 0.0
H3186 H 0.84886 0.10629 0.49461 0.0
H3187 H 0.82596 0.07666 0.48362 0.0
H3188 H 0.83637 0.03398 0.49496 0.0
C3189 C 0.7786 0.97547 0.48469 0.0
C3190 C 0.78648 0.02231 0.48888 0.0
C3191 C 0.76526 0.95801 0.4798 0.0
C3192 C 0.8466 0.09452 0.50226 0.0
C3193 C 0.83365 0.07752 0.49574 0.0
C3194 C 0.82246 0.03083 0.49335 0.0
C3195 C 0.77742 0.99061 0.47902 0.0
C3196 C 0.79136 0.00917 0.48482 0.0
C3197 C 0.83103 0.06176 0.50447 0.0
C3198 C 0.81747 0.0438 0.49745 0.0
H3199 H 0.73766 0.96851 0.45546 0.0
H3200 H 0.76135 -0.0009 0.46326 0.0
H3201 H 0.81397 0.00419 0.48355 0.0
H3202 H 0.86192 0.08095 0.53861 0.0
H3203 H 0.83964 0.05119 0.5268 0.0
C3204 C 0.84813 0.29071 0.31016 0.0
C3205 C 0.86082 0.28905 0.29931 0.0
C3206 C 0.85136 0.30776 0.31561 0.0
C3207 C 0.87616 0.3559 0.30495 0.0
H3208 H 0.87591 0.36307 0.35723 0.0
C3209 C 0.90505 0.42709 0.33607 0.0
C3210 C 0.89704 0.42914 0.35198 0.0
C3211 C 0.89986 0.40989 0.32925 0.0
C3212 C 0.87572 0.36128 0.34258 0.0
H3213 H 0.88641 0.30394 0.28495 0.0
H3214 H 0.8918 0.33381 0.29416 0.0
H3215 H 0.86743 0.33319 0.34537 0.0
H3216 H 0.87658 0.41469 0.37265 0.0
H3217 H 0.86696 0.38474 0.36034 0.0
H3218 H 0.884 0.3838 0.302 0.0
C3219 C 0.87948 0.32187 0.29856 0.0
C3220 C 0.87093 0.34416 0.33582 0.0
C3221 C 0.87642 0.3048 0.29336 0.0
C3222 C 0.88325 0.41358 0.36053 0.0
C3223 C 0.87784 0.39638 0.35354 0.0
C3224 C 0.88065 0.37297 0.31168 0.0
C3225 C 0.86716 0.32345 0.31003 0.0
C3226 C 0.87128 0.34138 0.31698 0.0
C3227 C 0.88617 0.39428 0.33787 0.0
C3228 C 0.88068 0.37594 0.33061 0.0
H3229 H 0.83601 0.27883 0.31499 0.0
H3230 H 0.84162 0.30869 0.32438 0.0
H3231 H 0.87638 0.354 0.29034 0.0
H3232 H 0.91505 0.43868 0.32855 0.0
H3233 H 0.9067 0.40887 0.31724 0.0
C3234 C 0.57645 0.46864 0.35845 0.0
C3235 C 0.56066 0.46768 0.35144 0.0
C3236 C 0.59347 0.48147 0.35186 0.0
C3237 C 0.61581 0.51221 0.31244 0.0
H3238 H 0.65666 0.53428 0.34569 0.0
C3239 C 0.68612 0.57439 0.29527 0.0
C3240 C 0.70114 0.57258 0.29992 0.0
C3241 C 0.66868 0.56119 0.30056 0.0
C3242 C 0.64536 0.52813 0.33625 0.0
H3243 H 0.55049 0.47892 0.33111 0.0
H3244 H 0.58003 0.50201 0.32055 0.0
H3245 H 0.62678 0.51256 0.35735 0.0
H3246 H 0.70957 0.5553 0.31341 0.0
H3247 H 0.67917 0.53252 0.32286 0.0
H3248 H 0.63453 0.52834 0.29147 0.0
C3249 C 0.57931 0.49274 0.33107 0.0
C3250 C 0.62826 0.51562 0.34289 0.0
C3251 C 0.56229 0.47973 0.33749 0.0
C3252 C 0.69831 0.55712 0.30959 0.0
C3253 C 0.68093 0.54412 0.3151 0.0
C3254 C 0.6329 0.52495 0.30586 0.0
C3255 C 0.59513 0.49375 0.33812 0.0
C3256 C 0.61327 0.50738 0.33106 0.0
C3257 C 0.66601 0.54614 0.31082 0.0
C3258 C 0.64783 0.53289 0.3177 0.0
H3259 H 0.57567 0.45938 0.36902 0.0
H3260 H 0.60529 0.48154 0.35735 0.0
H3261 H 0.60468 0.50594 0.30286 0.0
H3262 H 0.68787 0.58611 0.28778 0.0
H3263 H 0.65734 0.56304 0.29715 0.0
C3264 C 0.41733 0.11166 0.29364 0.0
C3265 C 0.41877 0.12804 0.29937 0.0
C3266 C 0.43083 0.10758 0.29805 0.0
C3267 C 0.47794 0.12807 0.31637 0.0
H3268 H 0.46238 0.07831 0.32941 0.0
C3269 C 0.52158 0.10609 0.35755 0.0
C3270 C 0.52334 0.09191 0.34994 0.0
C3271 C 0.50922 0.11064 0.35031 0.0
C3272 C 0.46689 0.09222 0.32568 0.0
H3273 H 0.43558 0.15311 0.31398 0.0
H3274 H 0.4587 0.14573 0.32229 0.0
H3275 H 0.4402 0.08612 0.31838 0.0
H3276 H 0.51421 0.07225 0.32787 0.0
H3277 H 0.49195 0.0795 0.31601 0.0
H3278 H 0.50455 0.13414 0.32453 0.0
C3279 C 0.44748 0.13621 0.31393 0.0
C3280 C 0.45424 0.09672 0.31923 0.0
C3281 C 0.43414 0.14042 0.30925 0.0
C3282 C 0.51262 0.08256 0.33475 0.0
C3283 C 0.50003 0.08689 0.32773 0.0
C3284 C 0.49052 0.1236 0.32313 0.0
C3285 C 0.44592 0.11965 0.30855 0.0
C3286 C 0.45958 0.11472 0.31456 0.0
C3287 C 0.49828 0.10099 0.33542 0.0
C3288 C 0.48507 0.10566 0.3279 0.0
H3289 H 0.40571 0.10193 0.28585 0.0
H3290 H 0.42935 0.09488 0.2933 0.0
H3291 H 0.48265 0.14199 0.31257 0.0
H3292 H 0.52975 0.11369 0.36914 0.0
H3293 H 0.50805 0.12155 0.35649 0.0
C3294 C 0.62562 0.52212 0.86066 0.0
C3295 C 0.62071 0.53558 0.86018 0.0
C3296 C 0.64308 0.5262 0.85579 0.0
C3297 C 0.68961 0.56455 0.8471 0.0
H3298 H 0.69377 0.52851 0.8185 0.0
C3299 C 0.75395 0.57975 0.80677 0.0
C3300 C 0.76016 0.56746 0.80934 0.0
C3301 C 0.73713 0.57594 0.81365 0.0
C3302 C 0.69281 0.53863 0.8266 0.0
H3303 H 0.63035 0.56394 0.85459 0.0
H3304 H 0.66063 0.57093 0.84555 0.0
H3305 H 0.66422 0.52189 0.82977 0.0
H3306 H 0.75338 0.54117 0.82016 0.0
H3307 H 0.72378 0.53433 0.83194 0.0
H3308 H 0.71824 0.58145 0.84336 0.0
C3309 C 0.65116 0.55732 0.85008 0.0
C3310 C 0.67591 0.53483 0.83316 0.0
C3311 C 0.63376 0.5533 0.85519 0.0
C3312 C 0.74896 0.55095 0.8182 0.0
C3313 C 0.73206 0.54704 0.8249 0.0
C3314 C 0.70649 0.56842 0.84034 0.0
C3315 C 0.65597 0.54376 0.85008 0.0
C3316 C 0.67408 0.54773 0.84351 0.0
C3317 C 0.72607 0.55958 0.82283 0.0
C3318 C 0.70823 0.55549 0.83004 0.0
H3319 H 0.61591 0.50838 0.86464 0.0
H3320 H 0.64642 0.51552 0.85638 0.0
H3321 H 0.68877 0.57469 0.85526 0.0
H3322 H 0.76196 0.59219 0.79921 0.0
H3323 H 0.73263 0.58564 0.81151 0.0
C3324 C 0.41091 0.17911 0.82722 0.0
C3325 C 0.42174 0.19075 0.81317 0.0
C3326 C 0.41488 0.16645 0.8348 0.0
C3327 C 0.45215 0.15844 0.84355 0.0
H3328 H 0.41596 0.10742 0.84499 0.0
C3329 C 0.4711 0.10362 0.85636 0.0
C3330 C 0.45868 0.08745 0.86512 0.0
C3331 C 0.4664 0.1167 0.85218 0.0
C3332 C 0.42614 0.12165 0.84508 0.0
H3333 H 0.44553 0.19851 0.79646 0.0
H3334 H 0.45267 0.17669 0.81006 0.0
H3335 H 0.40785 0.12923 0.83333 0.0
H3336 H 0.4319 0.07271 0.87719 0.0
H3337 H 0.42391 0.09585 0.87046 0.0
H3338 H 0.4704 0.15109 0.85554 0.0
C3339 C 0.44096 0.17724 0.81495 0.0
C3340 C 0.42149 0.13409 0.83828 0.0
C3341 C 0.43683 0.18967 0.80716 0.0
C3342 C 0.44172 0.08497 0.87029 0.0
C3343 C 0.4371 0.09819 0.86631 0.0
C3344 C 0.45673 0.14606 0.85062 0.0
C3345 C 0.43002 0.16553 0.82883 0.0
C3346 C 0.43456 0.15253 0.83714 0.0
C3347 C 0.44926 0.11407 0.8569 0.0
C3348 C 0.44389 0.12745 0.85113 0.0
H3349 H 0.39975 0.18007 0.83291 0.0
H3350 H 0.40642 0.15773 0.8457 0.0
H3351 H 0.46237 0.17266 0.84306 0.0
H3352 H 0.48425 0.10594 0.85209 0.0
H3353 H 0.47603 0.12858 0.84465 0.0
C3354 C 0.80284 0.24549 0.80262 0.0
C3355 C 0.80024 0.22945 0.81081 0.0
C3356 C 0.81476 0.26232 0.81028 0.0
C3357 C 0.85515 0.28565 0.83787 0.0
H3358 H 0.83958 0.32052 0.84736 0.0
C3359 C 0.90377 0.35468 0.87023 0.0
C3360 C 0.90318 0.36975 0.86337 0.0
C3361 C 0.89018 0.33715 0.86579 0.0
C3362 C 0.84424 0.31105 0.8446 0.0
H3363 H 0.80729 0.21866 0.83433 0.0
H3364 H 0.82884 0.24804 0.84701 0.0
H3365 H 0.81809 0.29081 0.83497 0.0
H3366 H 0.88775 0.37832 0.84677 0.0
H3367 H 0.86451 0.34789 0.8384 0.0
H3368 H 0.88145 0.30595 0.8466 0.0
C3369 C 0.82177 0.24748 0.83451 0.0
C3370 C 0.8319 0.29403 0.83759 0.0
C3371 C 0.80961 0.23064 0.82704 0.0
C3372 C 0.88852 0.36696 0.85236 0.0
C3373 C 0.87511 0.34945 0.84766 0.0
C3374 C 0.86759 0.30277 0.84457 0.0
C3375 C 0.82441 0.26344 0.82621 0.0
C3376 C 0.83729 0.28125 0.8341 0.0
C3377 C 0.87588 0.33431 0.85411 0.0
C3378 C 0.86234 0.31574 0.84794 0.0
H3379 H 0.7957 0.24504 0.79021 0.0
H3380 H 0.81664 0.27449 0.80361 0.0
H3381 H 0.85963 0.27602 0.83514 0.0
H3382 H 0.91482 0.35642 0.87891 0.0
H3383 H 0.89101 0.32583 0.87139 0.0
C3384 C 0.417 0.23265 0.32647 0.0
C3385 C 0.42288 0.23144 0.3089 0.0
C3386 C 0.42068 0.24937 0.33348 0.0
C3387 C 0.4216 0.28464 0.34131 0.0
H3388 H 0.46797 0.32711 0.3308 0.0
C3389 C 0.43687 0.35733 0.35689 0.0
C3390 C 0.45463 0.37028 0.3619 0.0
C3391 C 0.43274 0.3399 0.35174 0.0
C3392 C 0.45504 0.31537 0.3341 0.0
H3393 H 0.43735 0.24661 0.28491 0.0
H3394 H 0.44341 0.27585 0.2969 0.0
H3395 H 0.46149 0.29781 0.31918 0.0
H3396 H 0.48174 0.37484 0.36646 0.0
H3397 H 0.47441 0.34431 0.35806 0.0
H3398 H 0.41539 0.30215 0.35673 0.0
C3399 C 0.43618 0.26395 0.30542 0.0
C3400 C 0.4512 0.29859 0.32715 0.0
C3401 C 0.43263 0.24723 0.29849 0.0
C3402 C 0.46797 0.36522 0.36245 0.0
C3403 C 0.4638 0.34775 0.35751 0.0
C3404 C 0.4255 0.30142 0.34839 0.0
C3405 C 0.4303 0.26522 0.32303 0.0
C3406 C 0.4344 0.28304 0.33058 0.0
C3407 C 0.44624 0.33501 0.35169 0.0
C3408 C 0.44224 0.317 0.3448 0.0
H3409 H 0.40998 0.22076 0.33503 0.0
H3410 H 0.41631 0.2499 0.34724 0.0
H3411 H 0.40844 0.27297 0.34407 0.0
H3412 H 0.42631 0.36083 0.35625 0.0
H3413 H 0.41912 0.33051 0.34716 0.0
C3414 C 0.74444 0.18297 0.29651 0.0
C3415 C 0.75984 0.19073 0.3077 0.0
C3416 C 0.72755 0.1705 0.30369 0.0
C3417 C 0.69199 0.15227 0.3242 0.0
H3418 H 0.68874 0.11699 0.35967 0.0
C3419 C 0.62443 0.10281 0.35879 0.0
C3420 C 0.62043 0.08477 0.36053 0.0
C3421 C 0.64178 0.11639 0.35381 0.0
C3422 C 0.6894 0.12668 0.3497 0.0
H3423 H 0.7696 0.19248 0.33539 0.0
H3424 H 0.74013 0.17082 0.34801 0.0
H3425 H 0.71817 0.13911 0.34742 0.0
H3426 H 0.63165 0.0669 0.35879 0.0
H3427 H 0.66177 0.09049 0.34973 0.0
H3428 H 0.66317 0.13941 0.32591 0.0
C3429 C 0.74114 0.17384 0.33355 0.0
C3430 C 0.7063 0.13951 0.34284 0.0
C3431 C 0.75803 0.18621 0.32632 0.0
C3432 C 0.63429 0.08068 0.35764 0.0
C3433 C 0.6516 0.09423 0.35252 0.0
C3434 C 0.67509 0.13938 0.33098 0.0
C3435 C 0.72571 0.16576 0.3223 0.0
C3436 C 0.70778 0.1524 0.32993 0.0
C3437 C 0.6555 0.11221 0.35033 0.0
C3438 C 0.67357 0.12637 0.34374 0.0
H3439 H 0.7455 0.18632 0.28212 0.0
H3440 H 0.71599 0.16437 0.2946 0.0
H3441 H 0.69267 0.16216 0.31446 0.0
H3442 H 0.6141 0.10645 0.36107 0.0
H3443 H 0.64442 0.13015 0.35258 0.0
C3444 C 0.81168 0.57814 0.32591 0.0
C3445 C 0.79975 0.56731 0.31204 0.0
C3446 C 0.82473 0.5744 0.33282 0.0
C3447 C 0.83409 0.53773 0.33993 0.0
H3448 H 0.88469 0.57512 0.34104 0.0
C3449 C 0.89072 0.52116 0.3528 0.0
C3450 C 0.90658 0.53394 0.36177 0.0
C3451 C 0.87731 0.52529 0.34827 0.0
C3452 C 0.8706 0.56459 0.3412 0.0
H3453 H 0.79184 0.54369 0.29502 0.0
H3454 H 0.81439 0.53694 0.30745 0.0
H3455 H 0.86206 0.58239 0.33012 0.0
H3456 H 0.92048 0.56081 0.3737 0.0
H3457 H 0.89676 0.5678 0.3664 0.0
H3458 H 0.84239 0.51998 0.35132 0.0
C3459 C 0.81376 0.54849 0.31271 0.0
C3460 C 0.85767 0.56876 0.33482 0.0
C3461 C 0.80091 0.55239 0.30559 0.0
C3462 C 0.90848 0.55073 0.36665 0.0
C3463 C 0.89492 0.55478 0.36234 0.0
C3464 C 0.84695 0.53362 0.34657 0.0
C3465 C 0.8258 0.55949 0.32635 0.0
C3466 C 0.83936 0.5553 0.3339 0.0
C3467 C 0.87929 0.54222 0.35283 0.0
C3468 C 0.86542 0.54692 0.34703 0.0
H3469 H 0.81067 0.58916 0.33192 0.0
H3470 H 0.83368 0.58289 0.34358 0.0
H3471 H 0.81998 0.5272 0.33958 0.0
H3472 H 0.88889 0.50813 0.34873 0.0
H3473 H 0.86565 0.51538 0.34066 0.0
C3474 C 0.57925 0.10973 0.8558 0.0
C3475 C 0.56339 0.09577 0.84788 0.0
C3476 C 0.59624 0.1141 0.849 0.0
C3477 C 0.61893 0.10782 0.80845 0.0
H3478 H 0.65847 0.12205 0.84272 0.0
C3479 C 0.68762 0.11179 0.79223 0.0
C3480 C 0.70316 0.12778 0.79785 0.0
C3481 C 0.67038 0.10856 0.79703 0.0
C3482 C 0.64756 0.11821 0.833 0.0
H3483 H 0.55309 0.07635 0.82562 0.0
H3484 H 0.58257 0.08299 0.81464 0.0
H3485 H 0.62869 0.11463 0.85398 0.0
H3486 H 0.71279 0.1531 0.81252 0.0
H3487 H 0.6827 0.14721 0.82117 0.0
H3488 H 0.6379 0.11079 0.78758 0.0
C3489 C 0.58193 0.09072 0.82605 0.0
C3490 C 0.6305 0.11405 0.83941 0.0
C3491 C 0.56493 0.08656 0.83269 0.0
C3492 C 0.7011 0.14065 0.80796 0.0
C3493 C 0.68391 0.13727 0.81299 0.0
C3494 C 0.63595 0.11169 0.80208 0.0
C3495 C 0.59782 0.10453 0.83414 0.0
C3496 C 0.61597 0.10888 0.82722 0.0
C3497 C 0.66844 0.12111 0.80776 0.0
C3498 C 0.6504 0.11701 0.81431 0.0
H3499 H 0.57855 0.1173 0.86735 0.0
H3500 H 0.60813 0.12513 0.85532 0.0
H3501 H 0.60818 0.1042 0.79861 0.0
H3502 H 0.68877 0.10165 0.78438 0.0
H3503 H 0.65861 0.09597 0.7929 0.0
C3504 C 0.88103 0.57542 0.79321 0.0
C3505 C 0.8644 0.57361 0.79861 0.0
C3506 C 0.88532 0.56206 0.79763 0.0
C3507 C 0.86508 0.51471 0.81511 0.0
H3508 H 0.9145 0.53079 0.83 0.0
C3509 C 0.88581 0.47074 0.85706 0.0
C3510 C 0.90038 0.46923 0.85014 0.0
C3511 C 0.88161 0.48329 0.84971 0.0
C3512 C 0.90069 0.52613 0.82574 0.0
H3513 H 0.8391 0.55623 0.81263 0.0
H3514 H 0.84678 0.53334 0.82089 0.0
H3515 H 0.9066 0.55282 0.8186 0.0
H3516 H 0.92131 0.47924 0.82927 0.0
H3517 H 0.91456 0.50178 0.81722 0.0
H3518 H 0.85914 0.4881 0.82306 0.0
C3519 C 0.85637 0.54478 0.8128 0.0
C3520 C 0.89615 0.5387 0.81909 0.0
C3521 C 0.85198 0.55799 0.80815 0.0
C3522 C 0.9106 0.48055 0.83563 0.0
C3523 C 0.90658 0.49332 0.82849 0.0
C3524 C 0.86957 0.50221 0.82204 0.0
C3525 C 0.87318 0.54672 0.80778 0.0
C3526 C 0.87825 0.53318 0.81381 0.0
C3527 C 0.89197 0.49469 0.83538 0.0
C3528 C 0.88738 0.50785 0.82752 0.0
H3529 H 0.89082 0.58724 0.7857 0.0
H3530 H 0.89823 0.56384 0.79318 0.0
H3531 H 0.85125 0.50987 0.81082 0.0
H3532 H 0.87758 0.46215 0.86814 0.0
H3533 H 0.87031 0.48418 0.85531 0.0
C3534 C 0.41636 0.30457 0.79263 0.0
C3535 C 0.4178 0.28957 0.79821 0.0
C3536 C 0.42986 0.32213 0.79712 0.0
C3537 C 0.47713 0.34873 0.81481 0.0
H3538 H 0.46168 0.3827 0.82913 0.0
C3539 C 0.52236 0.41431 0.85516 0.0
C3540 C 0.52342 0.43023 0.84835 0.0
C3541 C 0.50971 0.39742 0.84812 0.0
C3542 C 0.46618 0.37338 0.82502 0.0
H3543 H 0.43469 0.28127 0.81263 0.0
H3544 H 0.45786 0.31174 0.82096 0.0
H3545 H 0.43935 0.35273 0.8181 0.0
H3546 H 0.51262 0.44077 0.82792 0.0
H3547 H 0.49001 0.41127 0.81634 0.0
H3548 H 0.50389 0.3693 0.82243 0.0
C3549 C 0.44657 0.31006 0.81272 0.0
C3550 C 0.45343 0.35624 0.81859 0.0
C3551 C 0.43321 0.29254 0.80803 0.0
C3552 C 0.51165 0.42886 0.83419 0.0
C3553 C 0.49883 0.41194 0.82733 0.0
C3554 C 0.48982 0.36577 0.82148 0.0
C3555 C 0.44499 0.32509 0.8075 0.0
C3556 C 0.45872 0.34365 0.81349 0.0
C3557 C 0.49781 0.39609 0.83418 0.0
C3558 C 0.48444 0.3782 0.82673 0.0
H3559 H 0.40472 0.30274 0.78491 0.0
H3560 H 0.42836 0.33338 0.79253 0.0
H3561 H 0.48178 0.33955 0.81066 0.0
H3562 H 0.53132 0.41489 0.86597 0.0
H3563 H 0.50913 0.38536 0.85369 0.0
C3564 C 0.55239 0.63707 0.63808 0.0
C3565 C 0.53496 0.62433 0.63201 0.0
C3566 C 0.55629 0.65439 0.64336 0.0
C3567 C 0.53297 0.67872 0.65899 0.0
H3568 H 0.58049 0.72114 0.65297 0.0
C3569 C 0.54885 0.75118 0.67666 0.0
C3570 C 0.56457 0.76157 0.68702 0.0
C3571 C 0.54525 0.73461 0.6693 0.0
C3572 C 0.56719 0.70935 0.6548 0.0
H3573 H 0.50826 0.62004 0.62561 0.0
H3574 H 0.51524 0.65044 0.63411 0.0
H3575 H 0.57434 0.69226 0.63993 0.0
H3576 H 0.58803 0.76217 0.69917 0.0
H3577 H 0.58212 0.73347 0.6857 0.0
H3578 H 0.5258 0.69597 0.6736 0.0
C3579 C 0.52574 0.6469 0.63547 0.0
C3580 C 0.56366 0.69281 0.64739 0.0
C3581 C 0.52176 0.62951 0.63046 0.0
C3582 C 0.57632 0.75485 0.69045 0.0
C3583 C 0.57284 0.73838 0.68291 0.0
C3584 C 0.53644 0.69529 0.66618 0.0
C3585 C 0.54291 0.65941 0.64242 0.0
C3586 C 0.54653 0.67725 0.6495 0.0
C3587 C 0.55732 0.72817 0.6722 0.0
C3588 C 0.5536 0.71072 0.66426 0.0
H3589 H 0.56281 0.63343 0.63951 0.0
H3590 H 0.5696 0.66357 0.64883 0.0
H3591 H 0.51975 0.66697 0.66126 0.0
H3592 H 0.5395 0.75602 0.67397 0.0
H3593 H 0.53319 0.72697 0.66108 0.0
C3594 C 0.35314 0.90665 0.62704 0.0
C3595 C 0.36828 0.90547 0.63264 0.0
C3596 C 0.33568 0.89317 0.63185 0.0
C3597 C 0.30943 0.84647 0.65108 0.0
H3598 H 0.27575 0.86251 0.66472 0.0
C3599 C 0.24368 0.80254 0.692 0.0
C3600 C 0.22786 0.80142 0.68482 0.0
C3601 C 0.26066 0.81492 0.68491 0.0
C3602 C 0.285 0.85785 0.66083 0.0
H3603 H 0.37697 0.88904 0.64731 0.0
H3604 H 0.34665 0.86588 0.65623 0.0
H3605 H 0.30562 0.88442 0.65318 0.0
H3606 H 0.21759 0.81181 0.66368 0.0
H3607 H 0.2472 0.83399 0.65203 0.0
H3608 H 0.28885 0.81997 0.65945 0.0
C3609 C 0.34813 0.87694 0.64774 0.0
C3610 C 0.30207 0.87035 0.65409 0.0
C3611 C 0.36557 0.89029 0.64269 0.0
C3612 C 0.22941 0.81286 0.67024 0.0
C3613 C 0.2464 0.82542 0.66334 0.0
C3614 C 0.29243 0.83403 0.65808 0.0
C3615 C 0.33297 0.87834 0.64261 0.0
C3616 C 0.31454 0.86484 0.64914 0.0
C3617 C 0.26215 0.8265 0.67056 0.0
C3618 C 0.2801 0.83962 0.66304 0.0
H3619 H 0.35479 0.9181 0.61911 0.0
H3620 H 0.32433 0.89449 0.62727 0.0
H3621 H 0.31852 0.84165 0.64711 0.0
H3622 H 0.24295 0.79381 0.70311 0.0
H3623 H 0.27264 0.81556 0.69075 0.0
C3624 C 0.10052 0.47423 0.64345 0.0
C3625 C 0.08572 0.46158 0.63303 0.0
C3626 C 0.11414 0.47063 0.64869 0.0
C3627 C 0.13641 0.44496 0.638 0.0
H3628 H 0.1451 0.44641 0.69014 0.0
C3629 C 0.18088 0.41833 0.66882 0.0
C3630 C 0.1913 0.42701 0.68436 0.0
C3631 C 0.16828 0.4228 0.66215 0.0
C3632 C 0.14313 0.44624 0.67552 0.0
H3633 H 0.07403 0.43564 0.61919 0.0
H3634 H 0.09819 0.42958 0.62804 0.0
H3635 H 0.1233 0.45446 0.67852 0.0
H3636 H 0.19731 0.4479 0.70451 0.0
H3637 H 0.17597 0.4563 0.69244 0.0
H3638 H 0.15657 0.43728 0.63481 0.0
C3639 C 0.09905 0.44216 0.63227 0.0
C3640 C 0.13057 0.45077 0.6689 0.0
C3641 C 0.08523 0.44561 0.62728 0.0
C3642 C 0.18928 0.44073 0.69268 0.0
C3643 C 0.1769 0.44543 0.68584 0.0
C3644 C 0.14924 0.44074 0.64457 0.0
C3645 C 0.11339 0.45447 0.64334 0.0
C3646 C 0.12705 0.45009 0.65012 0.0
C3647 C 0.16612 0.43643 0.67056 0.0
C3648 C 0.1527 0.44123 0.66344 0.0
H3649 H 0.1013 0.48665 0.64813 0.0
H3650 H 0.12516 0.48037 0.65713 0.0
H3651 H 0.13397 0.44446 0.62343 0.0
H3652 H 0.18263 0.40835 0.66145 0.0
H3653 H 0.16019 0.41548 0.65043 0.0
C3654 C 0.29048 0.85643 0.1816 0.0
C3655 C 0.28772 0.8686 0.19213 0.0
C3656 C 0.3079 0.86071 0.17635 0.0
C3657 C 0.3544 0.89991 0.17108 0.0
H3658 H 0.36654 0.86202 0.16505 0.0
C3659 C 0.42667 0.91287 0.15605 0.0
C3660 C 0.42805 0.9035 0.14088 0.0
C3661 C 0.40974 0.90889 0.16273 0.0
C3662 C 0.36326 0.8727 0.16662 0.0
H3663 H 0.3011 0.89455 0.20595 0.0
H3664 H 0.33162 0.90175 0.19743 0.0
H3665 H 0.33692 0.85446 0.17708 0.0
H3666 H 0.41266 0.88211 0.12133 0.0
H3667 H 0.38305 0.87484 0.13339 0.0
H3668 H 0.38109 0.91817 0.16106 0.0
C3669 C 0.32029 0.88913 0.1927 0.0
C3670 C 0.34628 0.8684 0.17343 0.0
C3671 C 0.3028 0.88496 0.19771 0.0
C3672 C 0.41208 0.8897 0.13291 0.0
C3673 C 0.39515 0.88551 0.13981 0.0
C3674 C 0.3715 0.90424 0.16457 0.0
C3675 C 0.32305 0.87714 0.18176 0.0
C3676 C 0.34153 0.88191 0.17553 0.0
C3677 C 0.39386 0.89513 0.15472 0.0
C3678 C 0.37597 0.89064 0.16209 0.0
H3679 H 0.27913 0.84377 0.17693 0.0
H3680 H 0.30939 0.85128 0.16763 0.0
H3681 H 0.35117 0.91064 0.1722 0.0
H3682 H 0.43855 0.92287 0.16322 0.0
H3683 H 0.40905 0.91624 0.17449 0.0
C3684 C 0.08053 0.51326 0.15699 0.0
C3685 C 0.09073 0.52522 0.1429 0.0
C3686 C 0.08465 0.5003 0.16333 0.0
C3687 C 0.11051 0.47733 0.151 0.0
H3688 H 0.10469 0.46477 0.20246 0.0
C3689 C 0.13858 0.43501 0.18353 0.0
C3690 C 0.1259 0.4197 0.19334 0.0
C3691 C 0.13448 0.44825 0.17819 0.0
C3692 C 0.10629 0.46813 0.18805 0.0
H3693 H 0.11374 0.5334 0.12492 0.0
H3694 H 0.1214 0.51133 0.13643 0.0
H3695 H 0.09726 0.48725 0.19129 0.0
H3696 H 0.09929 0.40667 0.2059 0.0
H3697 H 0.0923 0.43012 0.19683 0.0
H3698 H 0.12003 0.45852 0.14796 0.0
C3699 C 0.10973 0.51143 0.14212 0.0
C3700 C 0.10194 0.48091 0.1816 0.0
C3701 C 0.10544 0.52422 0.13562 0.0
C3702 C 0.10931 0.41828 0.1983 0.0
C3703 C 0.10533 0.43169 0.19318 0.0
C3704 C 0.11511 0.46478 0.15751 0.0
C3705 C 0.09935 0.49925 0.15602 0.0
C3706 C 0.10396 0.48565 0.16296 0.0
C3707 C 0.11775 0.4466 0.18278 0.0
C3708 C 0.11302 0.46006 0.17607 0.0
H3709 H 0.06964 0.51411 0.16356 0.0
H3710 H 0.07627 0.4911 0.17397 0.0
H3711 H 0.11188 0.48032 0.13652 0.0
H3712 H 0.15149 0.43652 0.17947 0.0
H3713 H 0.14434 0.45973 0.17031 0.0
C3714 C 0.55712 0.70235 0.1847 0.0
C3715 C 0.57283 0.70546 0.19405 0.0
C3716 C 0.5443 0.6849 0.17917 0.0
C3717 C 0.52607 0.63697 0.18801 0.0
H3718 H 0.51336 0.63084 0.13661 0.0
C3719 C 0.48114 0.56623 0.15646 0.0
C3720 C 0.46894 0.56449 0.14263 0.0
C3721 C 0.49415 0.58331 0.1628 0.0
C3722 C 0.5165 0.63231 0.15105 0.0
H3723 H 0.58702 0.6926 0.20561 0.0
H3724 H 0.56426 0.66194 0.19626 0.0
H3725 H 0.53476 0.66081 0.14832 0.0
H3726 H 0.46043 0.57936 0.12511 0.0
H3727 H 0.48254 0.60905 0.13665 0.0
H3728 H 0.50742 0.60865 0.19098 0.0
C3729 C 0.56207 0.67312 0.19309 0.0
C3730 C 0.52883 0.64947 0.15771 0.0
C3731 C 0.57509 0.69064 0.19838 0.0
C3732 C 0.46979 0.58023 0.1356 0.0
C3733 C 0.48261 0.59729 0.14212 0.0
C3734 C 0.51349 0.61982 0.18142 0.0
C3735 C 0.54677 0.67018 0.18314 0.0
C3736 C 0.53371 0.65194 0.17624 0.0
C3737 C 0.495 0.59907 0.15578 0.0
C3738 C 0.50854 0.61726 0.16283 0.0
H3739 H 0.55498 0.71346 0.18113 0.0
H3740 H 0.5325 0.68292 0.17165 0.0
H3741 H 0.52955 0.6386 0.20239 0.0
H3742 H 0.48045 0.5545 0.16286 0.0
H3743 H 0.50351 0.58411 0.17325 0.0
C3744 C 0.1354 0.70117 0.68365 0.0
C3745 C 0.1232 0.70421 0.69377 0.0
C3746 C 0.13113 0.6836 0.67904 0.0
C3747 C 0.09185 0.63703 0.6748 0.0
H3748 H 0.12968 0.62471 0.66953 0.0
C3749 C 0.07903 0.56458 0.66066 0.0
C3750 C 0.08817 0.56324 0.64528 0.0
C3751 C 0.08304 0.58151 0.6674 0.0
C3752 C 0.11902 0.62803 0.67093 0.0
H3753 H 0.09724 0.69125 0.7076 0.0
H3754 H 0.09009 0.6605 0.70024 0.0
H3755 H 0.1373 0.65457 0.68091 0.0
H3756 H 0.10919 0.57869 0.62538 0.0
H3757 H 0.11653 0.60824 0.63754 0.0
H3758 H 0.07356 0.61016 0.66523 0.0
C3759 C 0.1027 0.67169 0.6953 0.0
C3760 C 0.12336 0.64514 0.67734 0.0
C3761 C 0.10685 0.68931 0.69964 0.0
C3762 C 0.10179 0.57923 0.63715 0.0
C3763 C 0.10602 0.59613 0.64409 0.0
C3764 C 0.08749 0.6198 0.6687 0.0
C3765 C 0.11469 0.66862 0.68472 0.0
C3766 C 0.10988 0.64997 0.6791 0.0
C3767 C 0.09661 0.59739 0.65921 0.0
C3768 C 0.10108 0.61528 0.66648 0.0
H3769 H 0.14805 0.71239 0.67879 0.0
H3770 H 0.14056 0.68186 0.67058 0.0
H3771 H 0.08114 0.64031 0.67565 0.0
H3772 H 0.06917 0.55269 0.66792 0.0
H3773 H 0.07584 0.5822 0.67929 0.0
C3774 C 0.30409 0.42018 0.69932 0.0
C3775 C 0.28886 0.42126 0.69387 0.0
C3776 C 0.3215 0.43382 0.69456 0.0
C3777 C 0.34732 0.48085 0.67621 0.0
H3778 H 0.38168 0.46582 0.66215 0.0
C3779 C 0.41323 0.52642 0.63624 0.0
C3780 C 0.42909 0.52753 0.6433 0.0
C3781 C 0.39627 0.51375 0.64312 0.0
C3782 C 0.37225 0.4702 0.66617 0.0
H3783 H 0.27995 0.43762 0.6794 0.0
H3784 H 0.31019 0.46105 0.67057 0.0
H3785 H 0.35182 0.44334 0.67324 0.0
H3786 H 0.43946 0.51684 0.66403 0.0
H3787 H 0.40987 0.49419 0.67533 0.0
H3788 H 0.36771 0.50766 0.66846 0.0
C3789 C 0.3088 0.44995 0.67892 0.0
C3790 C 0.35517 0.45737 0.67264 0.0
C3791 C 0.29142 0.43644 0.68391 0.0
C3792 C 0.4276 0.51583 0.65757 0.0
C3793 C 0.41063 0.50298 0.66426 0.0
C3794 C 0.36432 0.49363 0.66949 0.0
C3795 C 0.32406 0.44871 0.684 0.0
C3796 C 0.34246 0.46252 0.67772 0.0
C3797 C 0.39484 0.50187 0.65714 0.0
C3798 C 0.3769 0.4884 0.66439 0.0
H3799 H 0.30257 0.40873 0.70716 0.0
H3800 H 0.33294 0.4326 0.69908 0.0
H3801 H 0.33804 0.48539 0.6803 0.0
H3802 H 0.41392 0.53535 0.62535 0.0
H3803 H 0.38426 0.5131 0.63735 0.0
C3804 C 0.55297 0.85237 0.69482 0.0
C3805 C 0.57117 0.86626 0.69565 0.0
C3806 C 0.53942 0.85621 0.68993 0.0
C3807 C 0.52969 0.89376 0.68401 0.0
H3808 H 0.49379 0.86073 0.64954 0.0
C3809 C 0.48425 0.91267 0.64238 0.0
C3810 C 0.4658 0.89961 0.64131 0.0
C3811 C 0.4966 0.90825 0.64986 0.0
C3812 C 0.5036 0.86997 0.65932 0.0
H3813 H 0.58931 0.89518 0.69258 0.0
H3814 H 0.56574 0.90182 0.68375 0.0
H3815 H 0.51611 0.85375 0.66195 0.0
H3816 H 0.44585 0.87152 0.64624 0.0
H3817 H 0.46749 0.86369 0.65927 0.0
H3818 H 0.51735 0.91016 0.68102 0.0
C3819 C 0.56188 0.88798 0.68712 0.0
C3820 C 0.51636 0.86596 0.66649 0.0
C3821 C 0.57542 0.88416 0.69212 0.0
C3822 C 0.46001 0.88185 0.6471 0.0
C3823 C 0.47237 0.87739 0.65451 0.0
C3824 C 0.51699 0.89782 0.67676 0.0
C3825 C 0.54376 0.874 0.68566 0.0
C3826 C 0.52963 0.87786 0.67883 0.0
C3827 C 0.49077 0.89061 0.65614 0.0
C3828 C 0.50389 0.88602 0.66424 0.0
H3829 H 0.5492 0.83844 0.69762 0.0
H3830 H 0.52555 0.84518 0.68929 0.0
H3831 H 0.53955 0.90308 0.6937 0.0
H3832 H 0.48914 0.92628 0.63733 0.0
H3833 H 0.51076 0.9186 0.65052 0.0
C3834 C 0.24504 0.43838 0.18977 0.0
C3835 C 0.22916 0.42442 0.18181 0.0
C3836 C 0.26203 0.44259 0.18311 0.0
C3837 C 0.28615 0.42378 0.15964 0.0
H3838 H 0.32081 0.47349 0.14695 0.0
C3839 C 0.3558 0.44317 0.12896 0.0
C3840 C 0.37066 0.45964 0.13466 0.0
C3841 C 0.33816 0.43895 0.13334 0.0
C3842 C 0.31142 0.45958 0.15066 0.0
H3843 H 0.2189 0.40474 0.15974 0.0
H3844 H 0.24858 0.41144 0.14886 0.0
H3845 H 0.29082 0.46585 0.15792 0.0
H3846 H 0.37875 0.4846 0.1494 0.0
H3847 H 0.34817 0.47699 0.15764 0.0
H3848 H 0.30682 0.41751 0.15319 0.0
C3849 C 0.24773 0.41892 0.16042 0.0
C3850 C 0.29423 0.45523 0.15684 0.0
C3851 C 0.23071 0.41491 0.16687 0.0
C3852 C 0.36755 0.47186 0.14468 0.0
C3853 C 0.34997 0.46752 0.14931 0.0
C3854 C 0.30345 0.42817 0.15376 0.0
C3855 C 0.2635 0.43284 0.16844 0.0
C3856 C 0.2815 0.43732 0.16144 0.0
C3857 C 0.33503 0.45098 0.14376 0.0
C3858 C 0.31635 0.44615 0.14928 0.0
H3859 H 0.24434 0.44606 0.20121 0.0
H3860 H 0.27405 0.45336 0.18954 0.0
H3861 H 0.27656 0.40988 0.16325 0.0
H3862 H 0.35777 0.43355 0.12109 0.0
H3863 H 0.327 0.42625 0.12851 0.0
C3864 C 0.57503 0.82001 0.18891 0.0
C3865 C 0.56341 0.80139 0.18624 0.0
C3866 C 0.57086 0.83252 0.1814 0.0
C3867 C 0.53349 0.83833 0.16626 0.0
H3868 H 0.57003 0.87828 0.13779 0.0
C3869 C 0.51837 0.89023 0.13219 0.0
C3870 C 0.53215 0.90846 0.13301 0.0
C3871 C 0.52196 0.87644 0.13688 0.0
C3872 C 0.55973 0.86734 0.14587 0.0
H3873 H 0.53779 0.78112 0.17471 0.0
H3874 H 0.53026 0.80306 0.16189 0.0
H3875 H 0.57665 0.85577 0.15045 0.0
H3876 H 0.56057 0.92651 0.1391 0.0
H3877 H 0.56667 0.90263 0.14781 0.0
H3878 H 0.51678 0.85014 0.16238 0.0
C3879 C 0.54277 0.80795 0.16945 0.0
C3880 C 0.56352 0.85443 0.15305 0.0
C3881 C 0.54708 0.79544 0.17676 0.0
C3882 C 0.54967 0.9126 0.1382 0.0
C3883 C 0.55319 0.89885 0.14311 0.0
C3884 C 0.52977 0.85137 0.15931 0.0
C3885 C 0.55476 0.8266 0.17149 0.0
C3886 C 0.55049 0.8399 0.16341 0.0
C3887 C 0.53934 0.88061 0.14271 0.0
C3888 C 0.5429 0.86613 0.14914 0.0
H3889 H 0.58724 0.8249 0.19698 0.0
H3890 H 0.58009 0.84684 0.18355 0.0
H3891 H 0.52327 0.8273 0.17434 0.0
H3892 H 0.50476 0.8866 0.12809 0.0
H3893 H 0.51105 0.86253 0.13605 0.0
C3894 C 0.09929 0.62626 0.14327 0.0
C3895 C 0.08351 0.62302 0.13402 0.0
C3896 C 0.11244 0.64384 0.14803 0.0
C3897 C 0.11859 0.68964 0.15501 0.0
H3898 H 0.1694 0.70356 0.15638 0.0
C3899 C 0.177 0.76266 0.16918 0.0
C3900 C 0.18936 0.76415 0.18274 0.0
C3901 C 0.16393 0.74568 0.16268 0.0
C3902 C 0.15524 0.69979 0.15612 0.0
H3903 H 0.06945 0.63576 0.12192 0.0
H3904 H 0.09272 0.66654 0.12965 0.0
H3905 H 0.1472 0.67371 0.14495 0.0
H3906 H 0.19797 0.74898 0.19972 0.0
H3907 H 0.17536 0.71935 0.18804 0.0
H3908 H 0.12686 0.716 0.16586 0.0
C3909 C 0.0947 0.65544 0.13373 0.0
C3910 C 0.1425 0.68269 0.14965 0.0
C3911 C 0.0814 0.63781 0.12918 0.0
C3912 C 0.18857 0.7483 0.18936 0.0
C3913 C 0.17568 0.73135 0.18267 0.0
C3914 C 0.13139 0.70685 0.16123 0.0
C3915 C 0.11028 0.65866 0.14343 0.0
C3916 C 0.12397 0.67729 0.14924 0.0
C3917 C 0.16325 0.72991 0.16928 0.0
C3918 C 0.14978 0.71197 0.16205 0.0
H3919 H 0.10127 0.61515 0.14732 0.0
H3920 H 0.12408 0.64572 0.15578 0.0
H3921 H 0.10444 0.68588 0.15519 0.0
H3922 H 0.1777 0.77451 0.16307 0.0
H3923 H 0.15466 0.7449 0.15212 0.0
loop_
_geom_bond_atom_site_label_1
_geom_bond_atom_site_label_2
_geom_bond_distance
_geom_bond_site_symmetry_2
_ccdc_geom_bond_type
Co0 O3 1.970 . S
Co0 N17 1.989 . S
Co0 O25 1.967 . S
Co0 O32 1.920 . S
Co1 O4 1.966 . S
Co1 N10 2.022 . S
Co1 N18 1.993 . S
Co1 O26 1.941 . S
C2 O3 1.258 . S
C2 O4 1.263 . S
O3 Co0 1.970 . S
O3 C2 1.258 . S
O4 Co1 1.966 . S
O4 C2 1.263 . S
C5 O6 1.235 . S
C5 O32 1.289 . S
O6 C5 1.235 . S
C7 C9 1.400 . S
C7 N10 1.351 . S
C7 C12 1.501 . S
C8 C9 1.387 . S
C8 N11 1.341 . S
C9 C7 1.400 . S
C9 C8 1.387 . S
N10 Co1 2.022 . S
N10 C7 1.351 . S
N10 N11 1.365 . S
N11 C8 1.341 . S
N11 N10 1.365 . S
N11 H31 0.862 . S
C12 C7 1.501 . S
C12 H13 0.961 . S
C12 H14 0.961 . S
C12 H15 0.960 1_554 S
H13 C12 0.961 . S
H14 C12 0.961 . S
H15 C12 0.960 1_556 S
C16 N17 1.342 . S
C16 C20 1.401 . S
C16 C21 1.499 . S
N17 Co0 1.989 . S
N17 C16 1.342 . S
N17 N18 1.388 . S
N18 Co1 1.993 . S
N18 N17 1.388 . S
N18 C19 1.346 . S
C19 N18 1.346 . S
C19 C20 1.396 . S
C19 C29 1.510 . S
C20 C16 1.401 . S
C20 C19 1.396 . S
C21 C16 1.499 . S
C21 H22 0.959 . S
C21 H23 0.960 . S
C21 H24 0.961 . S
H22 C21 0.959 . S
H23 C21 0.960 . S
H24 C21 0.961 . S
O25 Co0 1.967 . S
O25 C33 1.258 . S
O26 Co1 1.941 . S
O26 C33 1.266 . S
H27 C29 0.959 . S
H28 C29 0.961 . S
C29 C19 1.510 . S
C29 H27 0.959 . S
C29 H28 0.961 . S
C29 H30 0.960 . S
H30 C29 0.960 . S
H31 N11 0.862 . S
O32 Co0 1.920 . S
O32 C5 1.289 . S
C33 O25 1.258 . S
C33 O26 1.266 . S
Co34 O37 1.970 . S
Co34 N51 1.989 . S
Co34 O59 1.967 . S
Co34 O66 1.920 . S
Co35 O38 1.966 . S
Co35 N44 2.022 . S
Co35 N52 1.993 . S
Co35 O60 1.941 . S
C36 O37 1.258 . S
C36 O38 1.263 . S
O37 Co34 1.970 . S
O37 C36 1.258 . S
O38 Co35 1.966 . S
O38 C36 1.263 . S
C39 O40 1.235 . S
C39 O66 1.289 . S
O40 C39 1.235 . S
C41 C43 1.400 . S
C41 N44 1.351 . S
C41 C46 1.501 . S
C42 C43 1.387 . S
C42 N45 1.341 . S
C43 C41 1.400 . S
C43 C42 1.387 . S
N44 Co35 2.022 . S
N44 C41 1.351 . S
N44 N45 1.365 . S
N45 C42 1.341 . S
N45 N44 1.365 . S
N45 H65 0.862 . S
C46 C41 1.501 . S
C46 H47 0.961 . S
C46 H48 0.961 . S
C46 H49 0.960 1_554 S
H47 C46 0.961 . S
H48 C46 0.961 . S
H49 C46 0.960 1_556 S
C50 N51 1.342 . S
C50 C54 1.401 . S
C50 C55 1.499 . S
N51 Co34 1.989 . S
N51 C50 1.342 . S
N51 N52 1.388 . S
N52 Co35 1.993 . S
N52 N51 1.388 . S
N52 C53 1.346 . S
C53 N52 1.346 . S
C53 C54 1.396 . S
C53 C63 1.510 . S
C54 C50 1.401 . S
C54 C53 1.396 . S
C55 C50 1.499 . S
C55 H56 0.959 . S
C55 H57 0.960 . S
C55 H58 0.961 . S
H56 C55 0.959 . S
H57 C55 0.960 . S
H58 C55 0.961 . S
O59 Co34 1.967 . S
O59 C67 1.258 . S
O60 Co35 1.941 . S
O60 C67 1.266 . S
H61 C63 0.959 . S
H62 C63 0.961 . S
C63 C53 1.510 . S
C63 H61 0.959 . S
C63 H62 0.961 . S
C63 H64 0.960 . S
H64 C63 0.960 . S
H65 N45 0.862 . S
O66 Co34 1.920 . S
O66 C39 1.289 . S
C67 O59 1.258 . S
C67 O60 1.266 . S
Co68 O71 1.970 . S
Co68 N85 1.989 . S
Co68 O93 1.967 . S
Co68 O100 1.920 . S
Co69 O72 1.966 . S
Co69 N78 2.022 . S
Co69 N86 1.993 . S
Co69 O94 1.941 . S
C70 O71 1.258 . S
C70 O72 1.263 . S
O71 Co68 1.970 . S
O71 C70 1.258 . S
O72 Co69 1.966 . S
O72 C70 1.263 . S
C73 O74 1.235 . S
C73 O100 1.289 . S
O74 C73 1.235 . S
C75 C77 1.400 . S
C75 N78 1.351 . S
C75 C80 1.501 . S
C76 C77 1.387 . S
C76 N79 1.341 . S
C77 C75 1.400 . S
C77 C76 1.387 . S
N78 Co69 2.022 . S
N78 C75 1.351 . S
N78 N79 1.365 . S
N79 C76 1.341 . S
N79 N78 1.365 . S
N79 H99 0.862 . S
C80 C75 1.501 . S
C80 H81 0.961 . S
C80 H82 0.961 . S
C80 H83 0.960 1_554 S
H81 C80 0.961 . S
H82 C80 0.961 . S
H83 C80 0.960 1_556 S
C84 N85 1.342 . S
C84 C88 1.401 . S
C84 C89 1.499 . S
N85 Co68 1.989 . S
N85 C84 1.342 . S
N85 N86 1.388 . S
N86 Co69 1.993 . S
N86 N85 1.388 . S
N86 C87 1.346 . S
C87 N86 1.346 . S
C87 C88 1.396 . S
C87 C97 1.510 . S
C88 C84 1.401 . S
C88 C87 1.396 . S
C89 C84 1.499 . S
C89 H90 0.959 . S
C89 H91 0.960 . S
C89 H92 0.961 . S
H90 C89 0.959 . S
H91 C89 0.960 . S
H92 C89 0.961 . S
O93 Co68 1.967 . S
O93 C101 1.258 . S
O94 Co69 1.941 . S
O94 C101 1.266 . S
H95 C97 0.959 . S
H96 C97 0.961 . S
C97 C87 1.510 . S
C97 H95 0.959 . S
C97 H96 0.961 . S
C97 H98 0.960 . S
H98 C97 0.960 . S
H99 N79 0.862 . S
O100 Co68 1.920 . S
O100 C73 1.289 . S
C101 O93 1.258 . S
C101 O94 1.266 . S
Co102 O105 1.970 . S
Co102 N119 1.989 . S
Co102 O127 1.967 . S
Co102 O134 1.920 . S
Co103 O106 1.966 . S
Co103 N112 2.022 . S
Co103 N120 1.993 . S
Co103 O128 1.941 . S
C104 O105 1.258 . S
C104 O106 1.263 . S
O105 Co102 1.970 . S
O105 C104 1.258 . S
O106 Co103 1.966 . S
O106 C104 1.263 . S
C107 O108 1.235 . S
C107 O134 1.289 . S
O108 C107 1.235 . S
C109 C111 1.400 . S
C109 N112 1.351 . S
C109 C114 1.501 . S
C110 C111 1.387 . S
C110 N113 1.341 . S
C111 C109 1.400 . S
C111 C110 1.387 . S
N112 Co103 2.022 . S
N112 C109 1.351 . S
N112 N113 1.365 . S
N113 C110 1.341 . S
N113 N112 1.365 . S
N113 H133 0.862 . S
C114 C109 1.501 . S
C114 H115 0.961 . S
C114 H116 0.961 . S
C114 H117 0.960 . S
H115 C114 0.961 . S
H116 C114 0.961 . S
H117 C114 0.960 . S
C118 N119 1.342 . S
C118 C122 1.401 . S
C118 C123 1.499 . S
N119 Co102 1.989 . S
N119 C118 1.342 . S
N119 N120 1.388 . S
N120 Co103 1.993 . S
N120 N119 1.388 . S
N120 C121 1.346 . S
C121 N120 1.346 . S
C121 C122 1.396 . S
C121 C131 1.510 . S
C122 C118 1.401 . S
C122 C121 1.396 . S
C123 C118 1.499 . S
C123 H124 0.959 . S
C123 H125 0.960 . S
C123 H126 0.961 . S
H124 C123 0.959 . S
H125 C123 0.960 . S
H126 C123 0.961 . S
O127 Co102 1.967 . S
O127 C135 1.258 . S
O128 Co103 1.941 . S
O128 C135 1.266 . S
H129 C131 0.959 . S
H130 C131 0.961 . S
C131 C121 1.510 . S
C131 H129 0.959 . S
C131 H130 0.961 . S
C131 H132 0.960 . S
H132 C131 0.960 . S
H133 N113 0.862 . S
O134 Co102 1.920 . S
O134 C107 1.289 . S
C135 O127 1.258 . S
C135 O128 1.266 . S
Co136 O139 1.970 . S
Co136 N153 1.989 . S
Co136 O161 1.967 . S
Co136 O168 1.920 . S
Co137 O140 1.966 . S
Co137 N146 2.022 . S
Co137 N154 1.993 . S
Co137 O162 1.941 . S
C138 O139 1.258 . S
C138 O140 1.263 . S
O139 Co136 1.970 . S
O139 C138 1.258 . S
O140 Co137 1.966 . S
O140 C138 1.263 . S
C141 O142 1.235 . S
C141 O168 1.289 . S
O142 C141 1.235 . S
C143 C145 1.400 . S
C143 N146 1.351 . S
C143 C148 1.501 . S
C144 C145 1.387 . S
C144 N147 1.341 . S
C145 C143 1.400 . S
C145 C144 1.387 . S
N146 Co137 2.022 . S
N146 C143 1.351 . S
N146 N147 1.365 . S
N147 C144 1.341 . S
N147 N146 1.365 . S
N147 H167 0.862 . S
C148 C143 1.501 . S
C148 H149 0.961 . S
C148 H150 0.961 . S
C148 H151 0.960 . S
H149 C148 0.961 . S
H150 C148 0.961 . S
H151 C148 0.960 . S
C152 N153 1.342 . S
C152 C156 1.401 . S
C152 C157 1.499 . S
N153 Co136 1.989 . S
N153 C152 1.342 . S
N153 N154 1.388 . S
N154 Co137 1.993 . S
N154 N153 1.388 . S
N154 C155 1.346 . S
C155 N154 1.346 . S
C155 C156 1.396 . S
C155 C165 1.510 . S
C156 C152 1.401 . S
C156 C155 1.396 . S
C157 C152 1.499 . S
C157 H158 0.959 . S
C157 H159 0.960 . S
C157 H160 0.961 . S
H158 C157 0.959 . S
H159 C157 0.960 . S
H160 C157 0.961 . S
O161 Co136 1.967 . S
O161 C169 1.258 . S
O162 Co137 1.941 . S
O162 C169 1.266 . S
H163 C165 0.959 . S
H164 C165 0.961 . S
C165 C155 1.510 . S
C165 H163 0.959 . S
C165 H164 0.961 . S
C165 H166 0.960 . S
H166 C165 0.960 . S
H167 N147 0.862 . S
O168 Co136 1.920 . S
O168 C141 1.289 . S
C169 O161 1.258 . S
C169 O162 1.266 . S
Co170 O173 1.970 . S
Co170 N187 1.989 . S
Co170 O195 1.967 . S
Co170 O202 1.920 . S
Co171 O174 1.966 . S
Co171 N180 2.022 . S
Co171 N188 1.993 . S
Co171 O196 1.941 . S
C172 O173 1.258 . S
C172 O174 1.263 . S
O173 Co170 1.970 . S
O173 C172 1.258 . S
O174 Co171 1.966 . S
O174 C172 1.263 . S
C175 O176 1.235 . S
C175 O202 1.289 . S
O176 C175 1.235 . S
C177 C179 1.400 . S
C177 N180 1.351 . S
C177 C182 1.501 . S
C178 C179 1.387 . S
C178 N181 1.341 . S
C179 C177 1.400 . S
C179 C178 1.387 . S
N180 Co171 2.022 . S
N180 C177 1.351 . S
N180 N181 1.365 . S
N181 C178 1.341 . S
N181 N180 1.365 . S
N181 H201 0.862 . S
C182 C177 1.501 . S
C182 H183 0.961 . S
C182 H184 0.961 . S
C182 H185 0.960 . S
H183 C182 0.961 . S
H184 C182 0.961 . S
H185 C182 0.960 . S
C186 N187 1.342 . S
C186 C190 1.401 . S
C186 C191 1.499 . S
N187 Co170 1.989 . S
N187 C186 1.342 . S
N187 N188 1.388 . S
N188 Co171 1.993 . S
N188 N187 1.388 . S
N188 C189 1.346 . S
C189 N188 1.346 . S
C189 C190 1.396 . S
C189 C199 1.510 . S
C190 C186 1.401 . S
C190 C189 1.396 . S
C191 C186 1.499 . S
C191 H192 0.959 . S
C191 H193 0.960 . S
C191 H194 0.961 . S
H192 C191 0.959 . S
H193 C191 0.960 . S
H194 C191 0.961 . S
O195 Co170 1.967 . S
O195 C203 1.258 . S
O196 Co171 1.941 . S
O196 C203 1.266 . S
H197 C199 0.959 . S
H198 C199 0.961 . S
C199 C189 1.510 . S
C199 H197 0.959 . S
C199 H198 0.961 . S
C199 H200 0.960 . S
H200 C199 0.960 . S
H201 N181 0.862 . S
O202 Co170 1.920 . S
O202 C175 1.289 . S
C203 O195 1.258 . S
C203 O196 1.266 . S
Co204 O207 1.970 . S
Co204 N221 1.989 . S
Co204 O229 1.967 . S
Co204 O236 1.920 . S
Co205 O208 1.966 . S
Co205 N214 2.022 . S
Co205 N222 1.993 . S
Co205 O230 1.941 . S
C206 O207 1.258 . S
C206 O208 1.263 . S
O207 Co204 1.970 . S
O207 C206 1.258 . S
O208 Co205 1.966 . S
O208 C206 1.263 . S
C209 O210 1.235 . S
C209 O236 1.289 . S
O210 C209 1.235 . S
C211 C213 1.400 . S
C211 N214 1.351 . S
C211 C216 1.501 . S
C212 C213 1.387 . S
C212 N215 1.341 . S
C213 C211 1.400 . S
C213 C212 1.387 . S
N214 Co205 2.022 . S
N214 C211 1.351 . S
N214 N215 1.365 . S
N215 C212 1.341 . S
N215 N214 1.365 . S
N215 H235 0.862 . S
C216 C211 1.501 . S
C216 H217 0.961 . S
C216 H218 0.961 . S
C216 H219 0.960 1_556 S
H217 C216 0.961 . S
H218 C216 0.961 . S
H219 C216 0.960 1_554 S
C220 N221 1.342 . S
C220 C224 1.401 . S
C220 C225 1.499 . S
N221 Co204 1.989 . S
N221 C220 1.342 . S
N221 N222 1.388 . S
N222 Co205 1.993 . S
N222 N221 1.388 . S
N222 C223 1.346 . S
C223 N222 1.346 . S
C223 C224 1.396 . S
C223 C233 1.510 . S
C224 C220 1.401 . S
C224 C223 1.396 . S
C225 C220 1.499 . S
C225 H226 0.959 . S
C225 H227 0.960 . S
C225 H228 0.961 . S
H226 C225 0.959 . S
H227 C225 0.960 . S
H228 C225 0.961 . S
O229 Co204 1.967 . S
O229 C237 1.258 . S
O230 Co205 1.941 . S
O230 C237 1.266 . S
H231 C233 0.959 . S
H232 C233 0.961 . S
C233 C223 1.510 . S
C233 H231 0.959 . S
C233 H232 0.961 . S
C233 H234 0.960 . S
H234 C233 0.960 . S
H235 N215 0.862 . S
O236 Co204 1.920 . S
O236 C209 1.289 . S
C237 O229 1.258 . S
C237 O230 1.266 . S
Co238 O241 1.970 . S
Co238 N255 1.989 . S
Co238 O263 1.967 . S
Co238 O270 1.920 . S
Co239 O242 1.966 . S
Co239 N248 2.022 . S
Co239 N256 1.993 . S
Co239 O264 1.941 . S
C240 O241 1.258 . S
C240 O242 1.263 . S
O241 Co238 1.970 . S
O241 C240 1.258 . S
O242 Co239 1.966 . S
O242 C240 1.263 . S
C243 O244 1.235 . S
C243 O270 1.289 . S
O244 C243 1.235 . S
C245 C247 1.400 . S
C245 N248 1.351 . S
C245 C250 1.501 . S
C246 C247 1.387 . S
C246 N249 1.341 . S
C247 C245 1.400 . S
C247 C246 1.387 . S
N248 Co239 2.022 . S
N248 C245 1.351 . S
N248 N249 1.365 . S
N249 C246 1.341 . S
N249 N248 1.365 . S
N249 H269 0.862 . S
C250 C245 1.501 . S
C250 H251 0.961 . S
C250 H252 0.961 . S
C250 H253 0.960 1_556 S
H251 C250 0.961 . S
H252 C250 0.961 . S
H253 C250 0.960 1_554 S
C254 N255 1.342 . S
C254 C258 1.401 . S
C254 C259 1.499 . S
N255 Co238 1.989 . S
N255 C254 1.342 . S
N255 N256 1.388 . S
N256 Co239 1.993 . S
N256 N255 1.388 . S
N256 C257 1.346 . S
C257 N256 1.346 . S
C257 C258 1.396 . S
C257 C267 1.510 . S
C258 C254 1.401 . S
C258 C257 1.396 . S
C259 C254 1.499 . S
C259 H260 0.959 . S
C259 H261 0.960 . S
C259 H262 0.961 . S
H260 C259 0.959 . S
H261 C259 0.960 . S
H262 C259 0.961 . S
O263 Co238 1.967 . S
O263 C271 1.258 . S
O264 Co239 1.941 . S
O264 C271 1.266 . S
H265 C267 0.959 . S
H266 C267 0.961 . S
C267 C257 1.510 . S
C267 H265 0.959 . S
C267 H266 0.961 . S
C267 H268 0.960 . S
H268 C267 0.960 . S
H269 N249 0.862 . S
O270 Co238 1.920 . S
O270 C243 1.289 . S
C271 O263 1.258 . S
C271 O264 1.266 . S
Co272 O275 1.970 . S
Co272 N289 1.989 . S
Co272 O297 1.967 . S
Co272 O304 1.920 . S
Co273 O276 1.966 . S
Co273 N282 2.022 . S
Co273 N290 1.993 . S
Co273 O298 1.941 . S
C274 O275 1.258 . S
C274 O276 1.263 . S
O275 Co272 1.970 . S
O275 C274 1.258 . S
O276 Co273 1.966 . S
O276 C274 1.263 . S
C277 O278 1.235 . S
C277 O304 1.289 . S
O278 C277 1.235 . S
C279 C281 1.400 . S
C279 N282 1.351 . S
C279 C284 1.501 . S
C280 C281 1.387 . S
C280 N283 1.341 . S
C281 C279 1.400 . S
C281 C280 1.387 . S
N282 Co273 2.022 . S
N282 C279 1.351 . S
N282 N283 1.365 . S
N283 C280 1.341 . S
N283 N282 1.365 . S
N283 H303 0.862 . S
C284 C279 1.501 . S
C284 H285 0.961 . S
C284 H286 0.961 . S
C284 H287 0.960 1_556 S
H285 C284 0.961 . S
H286 C284 0.961 . S
H287 C284 0.960 1_554 S
C288 N289 1.342 . S
C288 C292 1.401 . S
C288 C293 1.499 . S
N289 Co272 1.989 . S
N289 C288 1.342 . S
N289 N290 1.388 . S
N290 Co273 1.993 . S
N290 N289 1.388 . S
N290 C291 1.346 . S
C291 N290 1.346 . S
C291 C292 1.396 . S
C291 C301 1.510 . S
C292 C288 1.401 . S
C292 C291 1.396 . S
C293 C288 1.499 . S
C293 H294 0.959 . S
C293 H295 0.960 . S
C293 H296 0.961 . S
H294 C293 0.959 . S
H295 C293 0.960 . S
H296 C293 0.961 . S
O297 Co272 1.967 . S
O297 C305 1.258 . S
O298 Co273 1.941 . S
O298 C305 1.266 . S
H299 C301 0.959 . S
H300 C301 0.961 . S
C301 C291 1.510 . S
C301 H299 0.959 . S
C301 H300 0.961 . S
C301 H302 0.960 . S
H302 C301 0.960 . S
H303 N283 0.862 . S
O304 Co272 1.920 . S
O304 C277 1.289 . S
C305 O297 1.258 . S
C305 O298 1.266 . S
Co306 O309 1.970 . S
Co306 N323 1.989 . S
Co306 O331 1.967 . S
Co306 O338 1.920 . S
Co307 O310 1.966 . S
Co307 N316 2.022 . S
Co307 N324 1.993 . S
Co307 O332 1.941 . S
C308 O309 1.258 . S
C308 O310 1.263 . S
O309 Co306 1.970 . S
O309 C308 1.258 . S
O310 Co307 1.966 . S
O310 C308 1.263 . S
C311 O312 1.235 . S
C311 O338 1.289 . S
O312 C311 1.235 . S
C313 C315 1.400 . S
C313 N316 1.351 . S
C313 C318 1.501 . S
C314 C315 1.387 . S
C314 N317 1.341 . S
C315 C313 1.400 . S
C315 C314 1.387 . S
N316 Co307 2.022 . S
N316 C313 1.351 . S
N316 N317 1.365 . S
N317 C314 1.341 . S
N317 N316 1.365 . S
N317 H337 0.862 . S
C318 C313 1.501 . S
C318 H319 0.961 . S
C318 H320 0.961 . S
C318 H321 0.960 . S
H319 C318 0.961 . S
H320 C318 0.961 . S
H321 C318 0.960 . S
C322 N323 1.342 . S
C322 C326 1.401 . S
C322 C327 1.499 . S
N323 Co306 1.989 . S
N323 C322 1.342 . S
N323 N324 1.388 . S
N324 Co307 1.993 . S
N324 N323 1.388 . S
N324 C325 1.346 . S
C325 N324 1.346 . S
C325 C326 1.396 . S
C325 C335 1.510 . S
C326 C322 1.401 . S
C326 C325 1.396 . S
C327 C322 1.499 . S
C327 H328 0.959 . S
C327 H329 0.960 . S
C327 H330 0.961 . S
H328 C327 0.959 . S
H329 C327 0.960 . S
H330 C327 0.961 . S
O331 Co306 1.967 . S
O331 C339 1.258 . S
O332 Co307 1.941 . S
O332 C339 1.266 . S
H333 C335 0.959 . S
H334 C335 0.961 . S
C335 C325 1.510 . S
C335 H333 0.959 . S
C335 H334 0.961 . S
C335 H336 0.960 . S
H336 C335 0.960 . S
H337 N317 0.862 . S
O338 Co306 1.920 . S
O338 C311 1.289 . S
C339 O331 1.258 . S
C339 O332 1.266 . S
Co340 O343 1.970 . S
Co340 N357 1.989 . S
Co340 O365 1.967 . S
Co340 O372 1.920 . S
Co341 O344 1.966 . S
Co341 N350 2.022 . S
Co341 N358 1.993 . S
Co341 O366 1.941 . S
C342 O343 1.258 . S
C342 O344 1.263 . S
O343 Co340 1.970 . S
O343 C342 1.258 . S
O344 Co341 1.966 . S
O344 C342 1.263 . S
C345 O346 1.235 . S
C345 O372 1.289 . S
O346 C345 1.235 . S
C347 C349 1.400 . S
C347 N350 1.351 . S
C347 C352 1.501 . S
C348 C349 1.387 . S
C348 N351 1.341 . S
C349 C347 1.400 . S
C349 C348 1.387 . S
N350 Co341 2.022 . S
N350 C347 1.351 . S
N350 N351 1.365 . S
N351 C348 1.341 . S
N351 N350 1.365 . S
N351 H371 0.862 . S
C352 C347 1.501 . S
C352 H353 0.961 . S
C352 H354 0.961 . S
C352 H355 0.960 . S
H353 C352 0.961 . S
H354 C352 0.961 . S
H355 C352 0.960 . S
C356 N357 1.342 . S
C356 C360 1.401 . S
C356 C361 1.499 . S
N357 Co340 1.989 . S
N357 C356 1.342 . S
N357 N358 1.388 . S
N358 Co341 1.993 . S
N358 N357 1.388 . S
N358 C359 1.346 . S
C359 N358 1.346 . S
C359 C360 1.396 . S
C359 C369 1.510 . S
C360 C356 1.401 . S
C360 C359 1.396 . S
C361 C356 1.499 . S
C361 H362 0.959 . S
C361 H363 0.960 . S
C361 H364 0.961 . S
H362 C361 0.959 . S
H363 C361 0.960 . S
H364 C361 0.961 . S
O365 Co340 1.967 . S
O365 C373 1.258 . S
O366 Co341 1.941 . S
O366 C373 1.266 . S
H367 C369 0.959 . S
H368 C369 0.961 . S
C369 C359 1.510 . S
C369 H367 0.959 . S
C369 H368 0.961 . S
C369 H370 0.960 . S
H370 C369 0.960 . S
H371 N351 0.862 . S
O372 Co340 1.920 . S
O372 C345 1.289 . S
C373 O365 1.258 . S
C373 O366 1.266 . S
Co374 O377 1.970 . S
Co374 N391 1.989 . S
Co374 O399 1.967 . S
Co374 O406 1.920 . S
Co375 O378 1.966 . S
Co375 N384 2.022 . S
Co375 N392 1.993 . S
Co375 O400 1.941 . S
C376 O377 1.258 . S
C376 O378 1.263 . S
O377 Co374 1.970 . S
O377 C376 1.258 . S
O378 Co375 1.966 . S
O378 C376 1.263 . S
C379 O380 1.235 . S
C379 O406 1.289 . S
O380 C379 1.235 . S
C381 C383 1.400 . S
C381 N384 1.351 . S
C381 C386 1.501 . S
C382 C383 1.387 . S
C382 N385 1.341 . S
C383 C381 1.400 . S
C383 C382 1.387 . S
N384 Co375 2.022 . S
N384 C381 1.351 . S
N384 N385 1.365 . S
N385 C382 1.341 . S
N385 N384 1.365 . S
N385 H405 0.862 . S
C386 C381 1.501 . S
C386 H387 0.961 . S
C386 H388 0.961 . S
C386 H389 0.960 . S
H387 C386 0.961 . S
H388 C386 0.961 . S
H389 C386 0.960 . S
C390 N391 1.342 . S
C390 C394 1.401 . S
C390 C395 1.499 . S
N391 Co374 1.989 . S
N391 C390 1.342 . S
N391 N392 1.388 . S
N392 Co375 1.993 . S
N392 N391 1.388 . S
N392 C393 1.346 . S
C393 N392 1.346 . S
C393 C394 1.396 . S
C393 C403 1.510 . S
C394 C390 1.401 . S
C394 C393 1.396 . S
C395 C390 1.499 . S
C395 H396 0.959 . S
C395 H397 0.960 . S
C395 H398 0.961 . S
H396 C395 0.959 . S
H397 C395 0.960 . S
H398 C395 0.961 . S
O399 Co374 1.967 . S
O399 C407 1.258 . S
O400 Co375 1.941 . S
O400 C407 1.266 . S
H401 C403 0.959 . S
H402 C403 0.961 . S
C403 C393 1.510 . S
C403 H401 0.959 . S
C403 H402 0.961 . S
C403 H404 0.960 . S
H404 C403 0.960 . S
H405 N385 0.862 . S
O406 Co374 1.920 . S
O406 C379 1.289 . S
C407 O399 1.258 . S
C407 O400 1.266 . S
Co408 O411 1.970 . S
Co408 N425 1.989 . S
Co408 O433 1.967 . S
Co408 O440 1.920 . S
Co409 O412 1.966 . S
Co409 N418 2.022 . S
Co409 N426 1.993 . S
Co409 O434 1.941 . S
C410 O411 1.258 . S
C410 O412 1.263 . S
O411 Co408 1.970 . S
O411 C410 1.258 . S
O412 Co409 1.966 . S
O412 C410 1.263 . S
C413 O414 1.181 1_655 S
C413 O440 1.289 . S
O414 C413 1.181 1_455 S
C415 C417 1.400 . S
C415 N418 1.351 . S
C415 C420 1.501 . S
C416 C417 1.387 . S
C416 N419 1.341 . S
C417 C415 1.400 . S
C417 C416 1.387 . S
N418 Co409 2.022 . S
N418 C415 1.351 . S
N418 N419 1.365 . S
N419 C416 1.341 . S
N419 N418 1.365 . S
N419 H439 0.862 . S
C420 C415 1.501 . S
C420 H421 0.961 . S
C420 H422 0.961 . S
C420 H423 0.960 . S
H421 C420 0.961 . S
H422 C420 0.961 . S
H423 C420 0.960 . S
C424 N425 1.342 . S
C424 C428 1.401 . S
C424 C429 1.499 . S
N425 Co408 1.989 . S
N425 C424 1.342 . S
N425 N426 1.388 . S
N426 Co409 1.993 . S
N426 N425 1.388 . S
N426 C427 1.346 . S
C427 N426 1.346 . S
C427 C428 1.396 . S
C427 C437 1.510 . S
C428 C424 1.401 . S
C428 C427 1.396 . S
C429 C424 1.499 . S
C429 H430 0.959 . S
C429 H431 0.960 . S
C429 H432 0.961 . S
H430 C429 0.959 . S
H431 C429 0.960 . S
H432 C429 0.961 . S
O433 Co408 1.967 . S
O433 C441 1.258 . S
O434 Co409 1.941 . S
O434 C441 1.266 . S
H435 C437 0.959 . S
H436 C437 0.961 . S
C437 C427 1.510 . S
C437 H435 0.959 . S
C437 H436 0.961 . S
C437 H438 0.960 . S
H438 C437 0.960 . S
H439 N419 0.862 . S
O440 Co408 1.920 . S
O440 C413 1.289 . S
C441 O433 1.258 . S
C441 O434 1.266 . S
Co442 O445 1.970 . S
Co442 N459 1.989 . S
Co442 O467 1.967 . S
Co442 O474 1.920 . S
Co443 O446 1.966 . S
Co443 N452 2.022 . S
Co443 N460 1.993 . S
Co443 O468 1.941 . S
C444 O445 1.258 . S
C444 O446 1.263 . S
O445 Co442 1.970 . S
O445 C444 1.258 . S
O446 Co443 1.966 . S
O446 C444 1.263 . S
C447 O448 1.235 . S
C447 O474 1.289 . S
O448 C447 1.235 . S
C449 C451 1.400 . S
C449 N452 1.351 . S
C449 C454 1.501 . S
C450 C451 1.387 . S
C450 N453 1.341 . S
C451 C449 1.400 . S
C451 C450 1.387 . S
N452 Co443 2.022 . S
N452 C449 1.351 . S
N452 N453 1.365 . S
N453 C450 1.341 . S
N453 N452 1.365 . S
N453 H473 0.862 . S
C454 C449 1.501 . S
C454 H455 0.961 . S
C454 H456 0.961 . S
C454 H457 0.960 . S
H455 C454 0.961 . S
H456 C454 0.961 . S
H457 C454 0.960 . S
C458 N459 1.342 . S
C458 C462 1.401 . S
C458 C463 1.499 . S
N459 Co442 1.989 . S
N459 C458 1.342 . S
N459 N460 1.388 . S
N460 Co443 1.993 . S
N460 N459 1.388 . S
N460 C461 1.346 . S
C461 N460 1.346 . S
C461 C462 1.396 . S
C461 C471 1.510 . S
C462 C458 1.401 . S
C462 C461 1.396 . S
C463 C458 1.499 . S
C463 H464 0.959 . S
C463 H465 0.960 . S
C463 H466 0.961 . S
H464 C463 0.959 . S
H465 C463 0.960 . S
H466 C463 0.961 . S
O467 Co442 1.967 . S
O467 C475 1.258 . S
O468 Co443 1.941 . S
O468 C475 1.266 . S
H469 C471 0.959 . S
H470 C471 0.961 . S
C471 C461 1.510 . S
C471 H469 0.959 . S
C471 H470 0.961 . S
C471 H472 0.960 . S
H472 C471 0.960 . S
H473 N453 0.862 . S
O474 Co442 1.920 . S
O474 C447 1.289 . S
C475 O467 1.258 . S
C475 O468 1.266 . S
Co476 O479 1.970 . S
Co476 N493 1.989 . S
Co476 O501 1.967 . S
Co476 O508 1.920 . S
Co477 O480 1.966 . S
Co477 N486 2.022 . S
Co477 N494 1.993 . S
Co477 O502 1.941 . S
C478 O479 1.258 . S
C478 O480 1.263 . S
O479 Co476 1.970 . S
O479 C478 1.258 . S
O480 Co477 1.966 . S
O480 C478 1.263 . S
C481 O482 1.228 1_545 S
C481 O508 1.289 . S
O482 C481 1.228 1_565 S
C483 C485 1.400 . S
C483 N486 1.351 . S
C483 C488 1.501 . S
C484 C485 1.387 . S
C484 N487 1.341 . S
C485 C483 1.400 . S
C485 C484 1.387 . S
N486 Co477 2.022 . S
N486 C483 1.351 . S
N486 N487 1.365 . S
N487 C484 1.341 . S
N487 N486 1.365 . S
N487 H507 0.862 . S
C488 C483 1.501 . S
C488 H489 0.961 . S
C488 H490 0.961 . S
C488 H491 0.960 . S
H489 C488 0.961 . S
H490 C488 0.961 . S
H491 C488 0.960 . S
C492 N493 1.342 . S
C492 C496 1.401 . S
C492 C497 1.499 . S
N493 Co476 1.989 . S
N493 C492 1.342 . S
N493 N494 1.388 . S
N494 Co477 1.993 . S
N494 N493 1.388 . S
N494 C495 1.346 . S
C495 N494 1.346 . S
C495 C496 1.396 . S
C495 C505 1.510 . S
C496 C492 1.401 . S
C496 C495 1.396 . S
C497 C492 1.499 . S
C497 H498 0.959 . S
C497 H499 0.960 . S
C497 H500 0.961 . S
H498 C497 0.959 . S
H499 C497 0.960 . S
H500 C497 0.961 . S
O501 Co476 1.967 . S
O501 C509 1.258 . S
O502 Co477 1.941 . S
O502 C509 1.266 . S
H503 C505 0.959 . S
H504 C505 0.961 . S
C505 C495 1.510 . S
C505 H503 0.959 . S
C505 H504 0.961 . S
C505 H506 0.960 . S
H506 C505 0.960 . S
H507 N487 0.862 . S
O508 Co476 1.920 . S
O508 C481 1.289 . S
C509 O501 1.258 . S
C509 O502 1.266 . S
Co510 O513 1.970 . S
Co510 N527 1.989 . S
Co510 O535 1.967 . S
Co510 O542 1.920 . S
Co511 O514 1.966 . S
Co511 N520 2.022 . S
Co511 N528 1.993 . S
Co511 O536 1.941 . S
C512 O513 1.258 . S
C512 O514 1.263 . S
O513 Co510 1.970 . S
O513 C512 1.258 . S
O514 Co511 1.966 . S
O514 C512 1.263 . S
C515 O516 1.235 . S
C515 O542 1.289 . S
O516 C515 1.235 . S
C517 C519 1.400 . S
C517 N520 1.351 . S
C517 C522 1.501 . S
C518 C519 1.387 . S
C518 N521 1.341 . S
C519 C517 1.400 . S
C519 C518 1.387 . S
N520 Co511 2.022 . S
N520 C517 1.351 . S
N520 N521 1.365 . S
N521 C518 1.341 . S
N521 N520 1.365 . S
N521 H541 0.862 . S
C522 C517 1.501 . S
C522 H523 0.961 . S
C522 H524 0.961 . S
C522 H525 0.960 . S
H523 C522 0.961 . S
H524 C522 0.961 . S
H525 C522 0.960 . S
C526 N527 1.342 . S
C526 C530 1.401 . S
C526 C531 1.499 . S
N527 Co510 1.989 . S
N527 C526 1.342 . S
N527 N528 1.388 . S
N528 Co511 1.993 . S
N528 N527 1.388 . S
N528 C529 1.346 . S
C529 N528 1.346 . S
C529 C530 1.396 . S
C529 C539 1.510 . S
C530 C526 1.401 . S
C530 C529 1.396 . S
C531 C526 1.499 . S
C531 H532 0.959 . S
C531 H533 0.960 . S
C531 H534 0.961 . S
H532 C531 0.959 . S
H533 C531 0.960 . S
H534 C531 0.961 . S
O535 Co510 1.967 . S
O535 C543 1.258 . S
O536 Co511 1.941 . S
O536 C543 1.266 . S
H537 C539 0.959 . S
H538 C539 0.961 . S
C539 C529 1.510 . S
C539 H537 0.959 . S
C539 H538 0.961 . S
C539 H540 0.960 . S
H540 C539 0.960 . S
H541 N521 0.862 . S
O542 Co510 1.920 . S
O542 C515 1.289 . S
C543 O535 1.258 . S
C543 O536 1.266 . S
Co544 O547 1.970 . S
Co544 N561 1.989 . S
Co544 O569 1.967 . S
Co544 O576 1.920 . S
Co545 O548 1.966 . S
Co545 N554 2.022 . S
Co545 N562 1.993 . S
Co545 O570 1.941 . S
C546 O547 1.258 . S
C546 O548 1.263 . S
O547 Co544 1.970 . S
O547 C546 1.258 . S
O548 Co545 1.966 . S
O548 C546 1.263 . S
C549 O550 1.235 . S
C549 O576 1.289 . S
O550 C549 1.235 . S
C551 C553 1.400 . S
C551 N554 1.351 . S
C551 C556 1.501 . S
C552 C553 1.387 . S
C552 N555 1.341 . S
C553 C551 1.400 . S
C553 C552 1.387 . S
N554 Co545 2.022 . S
N554 C551 1.351 . S
N554 N555 1.365 . S
N555 C552 1.341 . S
N555 N554 1.365 . S
N555 H575 0.862 . S
C556 C551 1.501 . S
C556 H557 0.961 . S
C556 H558 0.961 . S
C556 H559 0.960 . S
H557 C556 0.961 . S
H558 C556 0.961 . S
H559 C556 0.960 . S
C560 N561 1.342 . S
C560 C564 1.401 . S
C560 C565 1.499 . S
N561 Co544 1.989 . S
N561 C560 1.342 . S
N561 N562 1.388 . S
N562 Co545 1.993 . S
N562 N561 1.388 . S
N562 C563 1.346 . S
C563 N562 1.346 . S
C563 C564 1.396 . S
C563 C573 1.510 . S
C564 C560 1.401 . S
C564 C563 1.396 . S
C565 C560 1.499 . S
C565 H566 0.959 . S
C565 H567 0.960 . S
C565 H568 0.961 . S
H566 C565 0.959 . S
H567 C565 0.960 . S
H568 C565 0.961 . S
O569 Co544 1.967 . S
O569 C577 1.258 . S
O570 Co545 1.941 . S
O570 C577 1.266 . S
H571 C573 0.959 . S
H572 C573 0.961 . S
C573 C563 1.510 . S
C573 H571 0.959 . S
C573 H572 0.961 . S
C573 H574 0.960 . S
H574 C573 0.960 . S
H575 N555 0.862 . S
O576 Co544 1.920 . S
O576 C549 1.289 . S
C577 O569 1.258 . S
C577 O570 1.266 . S
Co578 O581 1.970 . S
Co578 N595 1.989 . S
Co578 O603 1.967 . S
Co578 O610 1.920 . S
Co579 O582 1.966 . S
Co579 N588 2.022 . S
Co579 N596 1.993 . S
Co579 O604 1.941 . S
C580 O581 1.258 . S
C580 O582 1.263 . S
O581 Co578 1.970 . S
O581 C580 1.258 . S
O582 Co579 1.966 . S
O582 C580 1.263 . S
C583 O584 1.235 . S
C583 O610 1.289 . S
O584 C583 1.235 . S
C585 C587 1.400 . S
C585 N588 1.351 . S
C585 C590 1.501 . S
C586 C587 1.387 . S
C586 N589 1.341 . S
C587 C585 1.400 . S
C587 C586 1.387 . S
N588 Co579 2.022 . S
N588 C585 1.351 . S
N588 N589 1.365 . S
N589 C586 1.341 . S
N589 N588 1.365 . S
N589 H609 0.862 . S
C590 C585 1.501 . S
C590 H591 0.961 . S
C590 H592 0.961 . S
C590 H593 0.960 . S
H591 C590 0.961 . S
H592 C590 0.961 . S
H593 C590 0.960 . S
C594 N595 1.342 . S
C594 C598 1.401 . S
C594 C599 1.499 . S
N595 Co578 1.989 . S
N595 C594 1.342 . S
N595 N596 1.388 . S
N596 Co579 1.993 . S
N596 N595 1.388 . S
N596 C597 1.346 . S
C597 N596 1.346 . S
C597 C598 1.396 . S
C597 C607 1.510 . S
C598 C594 1.401 . S
C598 C597 1.396 . S
C599 C594 1.499 . S
C599 H600 0.959 . S
C599 H601 0.960 . S
C599 H602 0.961 . S
H600 C599 0.959 . S
H601 C599 0.960 . S
H602 C599 0.961 . S
O603 Co578 1.967 . S
O603 C611 1.258 . S
O604 Co579 1.941 . S
O604 C611 1.266 . S
H605 C607 0.959 . S
H606 C607 0.961 . S
C607 C597 1.510 . S
C607 H605 0.959 . S
C607 H606 0.961 . S
C607 H608 0.960 . S
H608 C607 0.960 . S
H609 N589 0.862 . S
O610 Co578 1.920 . S
O610 C583 1.289 . S
C611 O603 1.258 . S
C611 O604 1.266 . S
Co612 O615 1.970 . S
Co612 N629 1.989 . S
Co612 O637 1.967 . S
Co612 O644 1.920 . S
Co613 O616 1.966 . S
Co613 N622 2.022 . S
Co613 N630 1.993 . S
Co613 O638 1.941 . S
C614 O615 1.258 . S
C614 O616 1.263 . S
O615 Co612 1.970 . S
O615 C614 1.258 . S
O616 Co613 1.966 . S
O616 C614 1.263 . S
C617 O618 1.235 . S
C617 O644 1.289 . S
O618 C617 1.235 . S
C619 C621 1.400 . S
C619 N622 1.351 . S
C619 C624 1.501 . S
C620 C621 1.387 . S
C620 N623 1.341 . S
C621 C619 1.400 . S
C621 C620 1.387 . S
N622 Co613 2.022 . S
N622 C619 1.351 . S
N622 N623 1.365 . S
N623 C620 1.341 . S
N623 N622 1.365 . S
N623 H643 0.862 . S
C624 C619 1.501 . S
C624 H625 0.961 . S
C624 H626 0.961 . S
C624 H627 0.960 . S
H625 C624 0.961 . S
H626 C624 0.961 . S
H627 C624 0.960 . S
C628 N629 1.342 . S
C628 C632 1.401 . S
C628 C633 1.499 . S
N629 Co612 1.989 . S
N629 C628 1.342 . S
N629 N630 1.388 . S
N630 Co613 1.993 . S
N630 N629 1.388 . S
N630 C631 1.346 . S
C631 N630 1.346 . S
C631 C632 1.396 . S
C631 C641 1.510 . S
C632 C628 1.401 . S
C632 C631 1.396 . S
C633 C628 1.499 . S
C633 H634 0.959 . S
C633 H635 0.960 . S
C633 H636 0.961 . S
H634 C633 0.959 . S
H635 C633 0.960 . S
H636 C633 0.961 . S
O637 Co612 1.967 . S
O637 C645 1.258 . S
O638 Co613 1.941 . S
O638 C645 1.266 . S
H639 C641 0.959 . S
H640 C641 0.961 . S
C641 C631 1.510 . S
C641 H639 0.959 . S
C641 H640 0.961 . S
C641 H642 0.960 . S
H642 C641 0.960 . S
H643 N623 0.862 . S
O644 Co612 1.920 . S
O644 C617 1.289 . S
C645 O637 1.258 . S
C645 O638 1.266 . S
Co646 O649 1.970 . S
Co646 N663 1.989 . S
Co646 O671 1.967 . S
Co646 O678 1.920 . S
Co647 O650 1.966 . S
Co647 N656 2.022 . S
Co647 N664 1.993 . S
Co647 O672 1.941 . S
C648 O649 1.258 . S
C648 O650 1.263 . S
O649 Co646 1.970 . S
O649 C648 1.258 . S
O650 Co647 1.966 . S
O650 C648 1.263 . S
C651 O652 1.235 . S
C651 O678 1.289 . S
O652 C651 1.235 . S
C653 C655 1.400 . S
C653 N656 1.351 . S
C653 C658 1.501 . S
C654 C655 1.387 . S
C654 N657 1.341 . S
C655 C653 1.400 . S
C655 C654 1.387 . S
N656 Co647 2.022 . S
N656 C653 1.351 . S
N656 N657 1.365 . S
N657 C654 1.341 . S
N657 N656 1.365 . S
N657 H677 0.862 . S
C658 C653 1.501 . S
C658 H659 0.961 . S
C658 H660 0.961 . S
C658 H661 0.960 . S
H659 C658 0.961 . S
H660 C658 0.961 . S
H661 C658 0.960 . S
C662 N663 1.342 . S
C662 C666 1.401 . S
C662 C667 1.499 . S
N663 Co646 1.989 . S
N663 C662 1.342 . S
N663 N664 1.388 . S
N664 Co647 1.993 . S
N664 N663 1.388 . S
N664 C665 1.346 . S
C665 N664 1.346 . S
C665 C666 1.396 . S
C665 C675 1.510 . S
C666 C662 1.401 . S
C666 C665 1.396 . S
C667 C662 1.499 . S
C667 H668 0.959 . S
C667 H669 0.960 . S
C667 H670 0.961 . S
H668 C667 0.959 . S
H669 C667 0.960 . S
H670 C667 0.961 . S
O671 Co646 1.967 . S
O671 C679 1.258 . S
O672 Co647 1.941 . S
O672 C679 1.266 . S
H673 C675 0.959 . S
H674 C675 0.961 . S
C675 C665 1.510 . S
C675 H673 0.959 . S
C675 H674 0.961 . S
C675 H676 0.960 . S
H676 C675 0.960 . S
H677 N657 0.862 . S
O678 Co646 1.920 . S
O678 C651 1.289 . S
C679 O671 1.258 . S
C679 O672 1.266 . S
Co680 O683 1.970 . S
Co680 N697 1.989 . S
Co680 O705 1.967 . S
Co680 O712 1.920 . S
Co681 O684 1.966 . S
Co681 N690 2.022 . S
Co681 N698 1.993 . S
Co681 O706 1.941 . S
C682 O683 1.258 . S
C682 O684 1.263 . S
O683 Co680 1.970 . S
O683 C682 1.258 . S
O684 Co681 1.966 . S
O684 C682 1.263 . S
C685 O686 1.235 . S
C685 O712 1.289 . S
O686 C685 1.235 . S
C687 C689 1.400 . S
C687 N690 1.351 . S
C687 C692 1.501 . S
C688 C689 1.387 . S
C688 N691 1.341 . S
C689 C687 1.400 . S
C689 C688 1.387 . S
N690 Co681 2.022 . S
N690 C687 1.351 . S
N690 N691 1.365 . S
N691 C688 1.341 . S
N691 N690 1.365 . S
N691 H711 0.862 . S
C692 C687 1.501 . S
C692 H693 0.961 . S
C692 H694 0.961 . S
C692 H695 0.960 . S
H693 C692 0.961 . S
H694 C692 0.961 . S
H695 C692 0.960 . S
C696 N697 1.342 . S
C696 C700 1.401 . S
C696 C701 1.499 . S
N697 Co680 1.989 . S
N697 C696 1.342 . S
N697 N698 1.388 . S
N698 Co681 1.993 . S
N698 N697 1.388 . S
N698 C699 1.346 . S
C699 N698 1.346 . S
C699 C700 1.396 . S
C699 C709 1.510 . S
C700 C696 1.401 . S
C700 C699 1.396 . S
C701 C696 1.499 . S
C701 H702 0.959 . S
C701 H703 0.960 . S
C701 H704 0.961 . S
H702 C701 0.959 . S
H703 C701 0.960 . S
H704 C701 0.961 . S
O705 Co680 1.967 . S
O705 C713 1.258 . S
O706 Co681 1.941 . S
O706 C713 1.266 . S
H707 C709 0.959 . S
H708 C709 0.961 . S
C709 C699 1.510 . S
C709 H707 0.959 . S
C709 H708 0.961 . S
C709 H710 0.960 . S
H710 C709 0.960 . S
H711 N691 0.862 . S
O712 Co680 1.920 . S
O712 C685 1.289 . S
C713 O705 1.258 . S
C713 O706 1.266 . S
Co714 O717 1.970 . S
Co714 N731 1.989 . S
Co714 O739 1.967 . S
Co714 O746 1.920 . S
Co715 O718 1.966 . S
Co715 N724 2.022 . S
Co715 N732 1.993 . S
Co715 O740 1.941 . S
C716 O717 1.258 . S
C716 O718 1.263 . S
O717 Co714 1.970 . S
O717 C716 1.258 . S
O718 Co715 1.966 . S
O718 C716 1.263 . S
C719 O720 1.181 1_545 S
C719 O746 1.289 . S
O720 C719 1.181 1_565 S
C721 C723 1.400 . S
C721 N724 1.351 . S
C721 C726 1.501 . S
C722 C723 1.387 . S
C722 N725 1.341 . S
C723 C721 1.400 . S
C723 C722 1.387 . S
N724 Co715 2.022 . S
N724 C721 1.351 . S
N724 N725 1.365 . S
N725 C722 1.341 . S
N725 N724 1.365 . S
N725 H745 0.862 . S
C726 C721 1.501 . S
C726 H727 0.961 . S
C726 H728 0.961 . S
C726 H729 0.960 . S
H727 C726 0.961 . S
H728 C726 0.961 . S
H729 C726 0.960 . S
C730 N731 1.342 . S
C730 C734 1.401 . S
C730 C735 1.499 . S
N731 Co714 1.989 . S
N731 C730 1.342 . S
N731 N732 1.388 . S
N732 Co715 1.993 . S
N732 N731 1.388 . S
N732 C733 1.346 . S
C733 N732 1.346 . S
C733 C734 1.396 . S
C733 C743 1.510 . S
C734 C730 1.401 . S
C734 C733 1.396 . S
C735 C730 1.499 . S
C735 H736 0.959 . S
C735 H737 0.960 . S
C735 H738 0.961 . S
H736 C735 0.959 . S
H737 C735 0.960 . S
H738 C735 0.961 . S
O739 Co714 1.967 . S
O739 C747 1.258 . S
O740 Co715 1.941 . S
O740 C747 1.266 . S
H741 C743 0.959 . S
H742 C743 0.961 . S
C743 C733 1.510 . S
C743 H741 0.959 . S
C743 H742 0.961 . S
C743 H744 0.960 . S
H744 C743 0.960 . S
H745 N725 0.862 . S
O746 Co714 1.920 . S
O746 C719 1.289 . S
C747 O739 1.258 . S
C747 O740 1.266 . S
Co748 O751 1.970 . S
Co748 N765 1.989 . S
Co748 O773 1.967 . S
Co748 O780 1.920 . S
Co749 O752 1.966 . S
Co749 N758 2.022 . S
Co749 N766 1.993 . S
Co749 O774 1.941 . S
C750 O751 1.258 . S
C750 O752 1.263 . S
O751 Co748 1.970 . S
O751 C750 1.258 . S
O752 Co749 1.966 . S
O752 C750 1.263 . S
C753 O754 1.228 1_655 S
C753 O780 1.289 . S
O754 C753 1.228 1_455 S
C755 C757 1.400 . S
C755 N758 1.351 . S
C755 C760 1.501 . S
C756 C757 1.387 . S
C756 N759 1.341 . S
C757 C755 1.400 . S
C757 C756 1.387 . S
N758 Co749 2.022 . S
N758 C755 1.351 . S
N758 N759 1.365 . S
N759 C756 1.341 . S
N759 N758 1.365 . S
N759 H779 0.862 . S
C760 C755 1.501 . S
C760 H761 0.961 . S
C760 H762 0.961 . S
C760 H763 0.960 . S
H761 C760 0.961 . S
H762 C760 0.961 . S
H763 C760 0.960 . S
C764 N765 1.342 . S
C764 C768 1.401 . S
C764 C769 1.499 . S
N765 Co748 1.989 . S
N765 C764 1.342 . S
N765 N766 1.388 . S
N766 Co749 1.993 . S
N766 N765 1.388 . S
N766 C767 1.346 . S
C767 N766 1.346 . S
C767 C768 1.396 . S
C767 C777 1.510 . S
C768 C764 1.401 . S
C768 C767 1.396 . S
C769 C764 1.499 . S
C769 H770 0.959 . S
C769 H771 0.960 . S
C769 H772 0.961 . S
H770 C769 0.959 . S
H771 C769 0.960 . S
H772 C769 0.961 . S
O773 Co748 1.967 . S
O773 C781 1.258 . S
O774 Co749 1.941 . S
O774 C781 1.266 . S
H775 C777 0.959 . S
H776 C777 0.961 . S
C777 C767 1.510 . S
C777 H775 0.959 . S
C777 H776 0.961 . S
C777 H778 0.960 . S
H778 C777 0.960 . S
H779 N759 0.862 . S
O780 Co748 1.920 . S
O780 C753 1.289 . S
C781 O773 1.258 . S
C781 O774 1.266 . S
Co782 O785 1.970 . S
Co782 N799 1.989 . S
Co782 O807 1.967 . S
Co782 O814 1.920 . S
Co783 O786 1.966 . S
Co783 N792 2.022 . S
Co783 N800 1.993 . S
Co783 O808 1.941 . S
C784 O785 1.258 . S
C784 O786 1.263 . S
O785 Co782 1.970 . S
O785 C784 1.258 . S
O786 Co783 1.966 . S
O786 C784 1.263 . S
C787 O788 1.235 . S
C787 O814 1.289 . S
O788 C787 1.235 . S
C789 C791 1.400 . S
C789 N792 1.351 . S
C789 C794 1.501 . S
C790 C791 1.387 . S
C790 N793 1.341 . S
C791 C789 1.400 . S
C791 C790 1.387 . S
N792 Co783 2.022 . S
N792 C789 1.351 . S
N792 N793 1.365 . S
N793 C790 1.341 . S
N793 N792 1.365 . S
N793 H813 0.862 . S
C794 C789 1.501 . S
C794 H795 0.961 . S
C794 H796 0.961 . S
C794 H797 0.960 . S
H795 C794 0.961 . S
H796 C794 0.961 . S
H797 C794 0.960 . S
C798 N799 1.342 . S
C798 C802 1.401 . S
C798 C803 1.499 . S
N799 Co782 1.989 . S
N799 C798 1.342 . S
N799 N800 1.388 . S
N800 Co783 1.993 . S
N800 N799 1.388 . S
N800 C801 1.346 . S
C801 N800 1.346 . S
C801 C802 1.396 . S
C801 C811 1.510 . S
C802 C798 1.401 . S
C802 C801 1.396 . S
C803 C798 1.499 . S
C803 H804 0.959 . S
C803 H805 0.960 . S
C803 H806 0.961 . S
H804 C803 0.959 . S
H805 C803 0.960 . S
H806 C803 0.961 . S
O807 Co782 1.967 . S
O807 C815 1.258 . S
O808 Co783 1.941 . S
O808 C815 1.266 . S
H809 C811 0.959 . S
H810 C811 0.961 . S
C811 C801 1.510 . S
C811 H809 0.959 . S
C811 H810 0.961 . S
C811 H812 0.960 . S
H812 C811 0.960 . S
H813 N793 0.862 . S
O814 Co782 1.920 . S
O814 C787 1.289 . S
C815 O807 1.258 . S
C815 O808 1.266 . S
Co816 O819 1.970 . S
Co816 N833 1.989 . S
Co816 O841 1.967 . S
Co816 O848 1.920 . S
Co817 O820 1.966 . S
Co817 N826 2.022 . S
Co817 N834 1.993 . S
Co817 O842 1.941 . S
C818 O819 1.258 . S
C818 O820 1.263 . S
O819 Co816 1.970 . S
O819 C818 1.258 . S
O820 Co817 1.966 . S
O820 C818 1.263 . S
C821 O822 1.235 . S
C821 O848 1.289 . S
O822 C821 1.235 . S
C823 C825 1.400 . S
C823 N826 1.351 . S
C823 C828 1.501 . S
C824 C825 1.387 . S
C824 N827 1.341 . S
C825 C823 1.400 . S
C825 C824 1.387 . S
N826 Co817 2.022 . S
N826 C823 1.351 . S
N826 N827 1.365 . S
N827 C824 1.341 . S
N827 N826 1.365 . S
N827 H847 0.862 . S
C828 C823 1.501 . S
C828 H829 0.961 . S
C828 H830 0.961 . S
C828 H831 0.960 . S
H829 C828 0.961 . S
H830 C828 0.961 . S
H831 C828 0.960 . S
C832 N833 1.342 . S
C832 C836 1.401 . S
C832 C837 1.499 . S
N833 Co816 1.989 . S
N833 C832 1.342 . S
N833 N834 1.388 . S
N834 Co817 1.993 . S
N834 N833 1.388 . S
N834 C835 1.346 . S
C835 N834 1.346 . S
C835 C836 1.396 . S
C835 C845 1.510 . S
C836 C832 1.401 . S
C836 C835 1.396 . S
C837 C832 1.499 . S
C837 H838 0.959 . S
C837 H839 0.960 . S
C837 H840 0.961 . S
H838 C837 0.959 . S
H839 C837 0.960 . S
H840 C837 0.961 . S
O841 Co816 1.967 . S
O841 C849 1.258 . S
O842 Co817 1.941 . S
O842 C849 1.266 . S
H843 C845 0.959 . S
H844 C845 0.961 . S
C845 C835 1.510 . S
C845 H843 0.959 . S
C845 H844 0.961 . S
C845 H846 0.960 . S
H846 C845 0.960 . S
H847 N827 0.862 . S
O848 Co816 1.920 . S
O848 C821 1.289 . S
C849 O841 1.258 . S
C849 O842 1.266 . S
Co850 O853 1.970 . S
Co850 N867 1.989 . S
Co850 O875 1.967 . S
Co850 O882 1.920 . S
Co851 O854 1.966 . S
Co851 N860 2.022 . S
Co851 N868 1.993 . S
Co851 O876 1.941 . S
C852 O853 1.258 . S
C852 O854 1.263 . S
O853 Co850 1.970 . S
O853 C852 1.258 . S
O854 Co851 1.966 . S
O854 C852 1.263 . S
C855 O856 1.235 . S
C855 O882 1.289 . S
O856 C855 1.235 . S
C857 C859 1.400 . S
C857 N860 1.351 . S
C857 C862 1.501 . S
C858 C859 1.387 . S
C858 N861 1.341 . S
C859 C857 1.400 . S
C859 C858 1.387 . S
N860 Co851 2.022 . S
N860 C857 1.351 . S
N860 N861 1.365 . S
N861 C858 1.341 . S
N861 N860 1.365 . S
N861 H881 0.862 . S
C862 C857 1.501 . S
C862 H863 0.961 . S
C862 H864 0.961 . S
C862 H865 0.960 . S
H863 C862 0.961 . S
H864 C862 0.961 . S
H865 C862 0.960 . S
C866 N867 1.342 . S
C866 C870 1.401 . S
C866 C871 1.499 . S
N867 Co850 1.989 . S
N867 C866 1.342 . S
N867 N868 1.388 . S
N868 Co851 1.993 . S
N868 N867 1.388 . S
N868 C869 1.346 . S
C869 N868 1.346 . S
C869 C870 1.396 . S
C869 C879 1.510 . S
C870 C866 1.401 . S
C870 C869 1.396 . S
C871 C866 1.499 . S
C871 H872 0.959 . S
C871 H873 0.960 . S
C871 H874 0.961 . S
H872 C871 0.959 . S
H873 C871 0.960 . S
H874 C871 0.961 . S
O875 Co850 1.967 . S
O875 C883 1.258 . S
O876 Co851 1.941 . S
O876 C883 1.266 . S
H877 C879 0.959 . S
H878 C879 0.961 . S
C879 C869 1.510 . S
C879 H877 0.959 . S
C879 H878 0.961 . S
C879 H880 0.960 . S
H880 C879 0.960 . S
H881 N861 0.862 . S
O882 Co850 1.920 . S
O882 C855 1.289 . S
C883 O875 1.258 . S
C883 O876 1.266 . S
Co884 O887 1.970 . S
Co884 N901 1.989 . S
Co884 O909 1.967 . S
Co884 O916 1.920 . S
Co885 O888 1.966 . S
Co885 N894 2.022 . S
Co885 N902 1.993 . S
Co885 O910 1.941 . S
C886 O887 1.258 . S
C886 O888 1.263 . S
O887 Co884 1.970 . S
O887 C886 1.258 . S
O888 Co885 1.966 . S
O888 C886 1.263 . S
C889 O890 1.235 . S
C889 O916 1.289 . S
O890 C889 1.235 . S
C891 C893 1.400 . S
C891 N894 1.351 . S
C891 C896 1.501 . S
C892 C893 1.387 . S
C892 N895 1.341 . S
C893 C891 1.400 . S
C893 C892 1.387 . S
N894 Co885 2.022 . S
N894 C891 1.351 . S
N894 N895 1.365 . S
N895 C892 1.341 . S
N895 N894 1.365 . S
N895 H915 0.862 . S
C896 C891 1.501 . S
C896 H897 0.961 . S
C896 H898 0.961 . S
C896 H899 0.960 . S
H897 C896 0.961 . S
H898 C896 0.961 . S
H899 C896 0.960 . S
C900 N901 1.342 . S
C900 C904 1.401 . S
C900 C905 1.499 . S
N901 Co884 1.989 . S
N901 C900 1.342 . S
N901 N902 1.388 . S
N902 Co885 1.993 . S
N902 N901 1.388 . S
N902 C903 1.346 . S
C903 N902 1.346 . S
C903 C904 1.396 . S
C903 C913 1.510 . S
C904 C900 1.401 . S
C904 C903 1.396 . S
C905 C900 1.499 . S
C905 H906 0.959 . S
C905 H907 0.960 . S
C905 H908 0.961 . S
H906 C905 0.959 . S
H907 C905 0.960 . S
H908 C905 0.961 . S
O909 Co884 1.967 . S
O909 C917 1.258 . S
O910 Co885 1.941 . S
O910 C917 1.266 . S
H911 C913 0.959 . S
H912 C913 0.961 . S
C913 C903 1.510 . S
C913 H911 0.959 . S
C913 H912 0.961 . S
C913 H914 0.960 . S
H914 C913 0.960 . S
H915 N895 0.862 . S
O916 Co884 1.920 . S
O916 C889 1.289 . S
C917 O909 1.258 . S
C917 O910 1.266 . S
Co918 O921 1.970 . S
Co918 N935 1.989 . S
Co918 O943 1.967 . S
Co918 O950 1.920 . S
Co919 O922 1.966 . S
Co919 N928 2.022 . S
Co919 N936 1.993 . S
Co919 O944 1.941 . S
C920 O921 1.258 . S
C920 O922 1.263 . S
O921 Co918 1.970 . S
O921 C920 1.258 . S
O922 Co919 1.966 . S
O922 C920 1.263 . S
C923 O924 1.181 1_565 S
C923 O950 1.289 . S
O924 C923 1.181 1_545 S
C925 C927 1.400 . S
C925 N928 1.351 . S
C925 C930 1.501 . S
C926 C927 1.387 . S
C926 N929 1.341 . S
C927 C925 1.400 . S
C927 C926 1.387 . S
N928 Co919 2.022 . S
N928 C925 1.351 . S
N928 N929 1.365 . S
N929 C926 1.341 . S
N929 N928 1.365 . S
N929 H949 0.862 . S
C930 C925 1.501 . S
C930 H931 0.961 . S
C930 H932 0.961 . S
C930 H933 0.960 . S
H931 C930 0.961 . S
H932 C930 0.961 . S
H933 C930 0.960 . S
C934 N935 1.342 . S
C934 C938 1.401 . S
C934 C939 1.499 . S
N935 Co918 1.989 . S
N935 C934 1.342 . S
N935 N936 1.388 . S
N936 Co919 1.993 . S
N936 N935 1.388 . S
N936 C937 1.346 . S
C937 N936 1.346 . S
C937 C938 1.396 . S
C937 C947 1.510 . S
C938 C934 1.401 . S
C938 C937 1.396 . S
C939 C934 1.499 . S
C939 H940 0.959 . S
C939 H941 0.960 . S
C939 H942 0.961 . S
H940 C939 0.959 . S
H941 C939 0.960 . S
H942 C939 0.961 . S
O943 Co918 1.967 . S
O943 C951 1.258 . S
O944 Co919 1.941 . S
O944 C951 1.266 . S
H945 C947 0.959 . S
H946 C947 0.961 . S
C947 C937 1.510 . S
C947 H945 0.959 . S
C947 H946 0.961 . S
C947 H948 0.960 . S
H948 C947 0.960 . S
H949 N929 0.862 . S
O950 Co918 1.920 . S
O950 C923 1.289 . S
C951 O943 1.258 . S
C951 O944 1.266 . S
Co952 O955 1.970 . S
Co952 N969 1.989 . S
Co952 O977 1.967 . S
Co952 O984 1.920 . S
Co953 O956 1.966 . S
Co953 N962 2.022 . S
Co953 N970 1.993 . S
Co953 O978 1.941 . S
C954 O955 1.258 . S
C954 O956 1.263 . S
O955 Co952 1.970 . S
O955 C954 1.258 . S
O956 Co953 1.966 . S
O956 C954 1.263 . S
C957 O958 1.228 1_455 S
C957 O984 1.289 . S
O958 C957 1.228 1_655 S
C959 C961 1.400 . S
C959 N962 1.351 . S
C959 C964 1.501 . S
C960 C961 1.387 . S
C960 N963 1.341 . S
C961 C959 1.400 . S
C961 C960 1.387 . S
N962 Co953 2.022 . S
N962 C959 1.351 . S
N962 N963 1.365 . S
N963 C960 1.341 . S
N963 N962 1.365 . S
N963 H983 0.862 . S
C964 C959 1.501 . S
C964 H965 0.961 . S
C964 H966 0.961 . S
C964 H967 0.960 . S
H965 C964 0.961 . S
H966 C964 0.961 . S
H967 C964 0.960 . S
C968 N969 1.342 . S
C968 C972 1.401 . S
C968 C973 1.499 . S
N969 Co952 1.989 . S
N969 C968 1.342 . S
N969 N970 1.388 . S
N970 Co953 1.993 . S
N970 N969 1.388 . S
N970 C971 1.346 . S
C971 N970 1.346 . S
C971 C972 1.396 . S
C971 C981 1.510 . S
C972 C968 1.401 . S
C972 C971 1.396 . S
C973 C968 1.499 . S
C973 H974 0.959 . S
C973 H975 0.960 . S
C973 H976 0.961 . S
H974 C973 0.959 . S
H975 C973 0.960 . S
H976 C973 0.961 . S
O977 Co952 1.967 . S
O977 C985 1.258 . S
O978 Co953 1.941 . S
O978 C985 1.266 . S
H979 C981 0.959 . S
H980 C981 0.961 . S
C981 C971 1.510 . S
C981 H979 0.959 . S
C981 H980 0.961 . S
C981 H982 0.960 . S
H982 C981 0.960 . S
H983 N963 0.862 . S
O984 Co952 1.920 . S
O984 C957 1.289 . S
C985 O977 1.258 . S
C985 O978 1.266 . S
Co986 O989 1.970 . S
Co986 N1003 1.989 . S
Co986 O1011 1.967 . S
Co986 O1018 1.920 . S
Co987 O990 1.966 . S
Co987 N996 2.022 . S
Co987 N1004 1.993 . S
Co987 O1012 1.941 . S
C988 O989 1.258 . S
C988 O990 1.263 . S
O989 Co986 1.970 . S
O989 C988 1.258 . S
O990 Co987 1.966 . S
O990 C988 1.263 . S
C991 O992 1.235 . S
C991 O1018 1.289 . S
O992 C991 1.235 . S
C993 C995 1.400 . S
C993 N996 1.351 . S
C993 C998 1.501 . S
C994 C995 1.387 . S
C994 N997 1.341 . S
C995 C993 1.400 . S
C995 C994 1.387 . S
N996 Co987 2.022 . S
N996 C993 1.351 . S
N996 N997 1.365 . S
N997 C994 1.341 . S
N997 N996 1.365 . S
N997 H1017 0.862 . S
C998 C993 1.501 . S
C998 H999 0.961 . S
C998 H1000 0.961 . S
C998 H1001 0.960 . S
H999 C998 0.961 . S
H1000 C998 0.961 . S
H1001 C998 0.960 . S
C1002 N1003 1.342 . S
C1002 C1006 1.401 . S
C1002 C1007 1.499 . S
N1003 Co986 1.989 . S
N1003 C1002 1.342 . S
N1003 N1004 1.388 . S
N1004 Co987 1.993 . S
N1004 N1003 1.388 . S
N1004 C1005 1.346 . S
C1005 N1004 1.346 . S
C1005 C1006 1.396 . S
C1005 C1015 1.510 . S
C1006 C1002 1.401 . S
C1006 C1005 1.396 . S
C1007 C1002 1.499 . S
C1007 H1008 0.959 . S
C1007 H1009 0.960 . S
C1007 H1010 0.961 . S
H1008 C1007 0.959 . S
H1009 C1007 0.960 . S
H1010 C1007 0.961 . S
O1011 Co986 1.967 . S
O1011 C1019 1.258 . S
O1012 Co987 1.941 . S
O1012 C1019 1.266 . S
H1013 C1015 0.959 . S
H1014 C1015 0.961 . S
C1015 C1005 1.510 . S
C1015 H1013 0.959 . S
C1015 H1014 0.961 . S
C1015 H1016 0.960 . S
H1016 C1015 0.960 . S
H1017 N997 0.862 . S
O1018 Co986 1.920 . S
O1018 C991 1.289 . S
C1019 O1011 1.258 . S
C1019 O1012 1.266 . S
Co1020 O1023 1.970 . S
Co1020 N1037 1.989 . S
Co1020 O1045 1.967 . S
Co1020 O1052 1.920 . S
Co1021 O1024 1.966 . S
Co1021 N1030 2.022 . S
Co1021 N1038 1.993 . S
Co1021 O1046 1.941 . S
C1022 O1023 1.258 . S
C1022 O1024 1.263 . S
O1023 Co1020 1.970 . S
O1023 C1022 1.258 . S
O1024 Co1021 1.966 . S
O1024 C1022 1.263 . S
C1025 O1026 1.181 1_455 S
C1025 O1052 1.289 . S
O1026 C1025 1.181 1_655 S
C1027 C1029 1.400 . S
C1027 N1030 1.351 . S
C1027 C1032 1.501 . S
C1028 C1029 1.387 . S
C1028 N1031 1.341 . S
C1029 C1027 1.400 . S
C1029 C1028 1.387 . S
N1030 Co1021 2.022 . S
N1030 C1027 1.351 . S
N1030 N1031 1.365 . S
N1031 C1028 1.341 . S
N1031 N1030 1.365 . S
N1031 H1051 0.862 . S
C1032 C1027 1.501 . S
C1032 H1033 0.961 . S
C1032 H1034 0.961 . S
C1032 H1035 0.960 . S
H1033 C1032 0.961 . S
H1034 C1032 0.961 . S
H1035 C1032 0.960 . S
C1036 N1037 1.342 . S
C1036 C1040 1.401 . S
C1036 C1041 1.499 . S
N1037 Co1020 1.989 . S
N1037 C1036 1.342 . S
N1037 N1038 1.388 . S
N1038 Co1021 1.993 . S
N1038 N1037 1.388 . S
N1038 C1039 1.346 . S
C1039 N1038 1.346 . S
C1039 C1040 1.396 . S
C1039 C1049 1.510 . S
C1040 C1036 1.401 . S
C1040 C1039 1.396 . S
C1041 C1036 1.499 . S
C1041 H1042 0.959 . S
C1041 H1043 0.960 . S
C1041 H1044 0.961 . S
H1042 C1041 0.959 . S
H1043 C1041 0.960 . S
H1044 C1041 0.961 . S
O1045 Co1020 1.967 . S
O1045 C1053 1.258 . S
O1046 Co1021 1.941 . S
O1046 C1053 1.266 . S
H1047 C1049 0.959 . S
H1048 C1049 0.961 . S
C1049 C1039 1.510 . S
C1049 H1047 0.959 . S
C1049 H1048 0.961 . S
C1049 H1050 0.960 . S
H1050 C1049 0.960 . S
H1051 N1031 0.862 . S
O1052 Co1020 1.920 . S
O1052 C1025 1.289 . S
C1053 O1045 1.258 . S
C1053 O1046 1.266 . S
Co1054 O1057 1.970 . S
Co1054 N1071 1.989 . S
Co1054 O1079 1.967 . S
Co1054 O1086 1.920 . S
Co1055 O1058 1.966 . S
Co1055 N1064 2.022 . S
Co1055 N1072 1.993 . S
Co1055 O1080 1.941 . S
C1056 O1057 1.258 . S
C1056 O1058 1.263 . S
O1057 Co1054 1.970 . S
O1057 C1056 1.258 . S
O1058 Co1055 1.966 . S
O1058 C1056 1.263 . S
C1059 O1060 1.235 . S
C1059 O1086 1.289 . S
O1060 C1059 1.235 . S
C1061 C1063 1.400 . S
C1061 N1064 1.351 . S
C1061 C1066 1.501 . S
C1062 C1063 1.387 . S
C1062 N1065 1.341 . S
C1063 C1061 1.400 . S
C1063 C1062 1.387 . S
N1064 Co1055 2.022 . S
N1064 C1061 1.351 . S
N1064 N1065 1.365 . S
N1065 C1062 1.341 . S
N1065 N1064 1.365 . S
N1065 H1085 0.862 . S
C1066 C1061 1.501 . S
C1066 H1067 0.961 . S
C1066 H1068 0.961 . S
C1066 H1069 0.960 . S
H1067 C1066 0.961 . S
H1068 C1066 0.961 . S
H1069 C1066 0.960 . S
C1070 N1071 1.342 . S
C1070 C1074 1.401 . S
C1070 C1075 1.499 . S
N1071 Co1054 1.989 . S
N1071 C1070 1.342 . S
N1071 N1072 1.388 . S
N1072 Co1055 1.993 . S
N1072 N1071 1.388 . S
N1072 C1073 1.346 . S
C1073 N1072 1.346 . S
C1073 C1074 1.396 . S
C1073 C1083 1.510 . S
C1074 C1070 1.401 . S
C1074 C1073 1.396 . S
C1075 C1070 1.499 . S
C1075 H1076 0.959 . S
C1075 H1077 0.960 . S
C1075 H1078 0.961 . S
H1076 C1075 0.959 . S
H1077 C1075 0.960 . S
H1078 C1075 0.961 . S
O1079 Co1054 1.967 . S
O1079 C1087 1.258 . S
O1080 Co1055 1.941 . S
O1080 C1087 1.266 . S
H1081 C1083 0.959 . S
H1082 C1083 0.961 . S
C1083 C1073 1.510 . S
C1083 H1081 0.959 . S
C1083 H1082 0.961 . S
C1083 H1084 0.960 . S
H1084 C1083 0.960 . S
H1085 N1065 0.862 . S
O1086 Co1054 1.920 . S
O1086 C1059 1.289 . S
C1087 O1079 1.258 . S
C1087 O1080 1.266 . S
Co1088 O1091 1.970 . S
Co1088 N1105 1.989 . S
Co1088 O1113 1.967 . S
Co1088 O1120 1.920 . S
Co1089 O1092 1.966 . S
Co1089 N1098 2.022 . S
Co1089 N1106 1.993 . S
Co1089 O1114 1.941 . S
C1090 O1091 1.258 . S
C1090 O1092 1.263 . S
O1091 Co1088 1.970 . S
O1091 C1090 1.258 . S
O1092 Co1089 1.966 . S
O1092 C1090 1.263 . S
C1093 O1094 1.228 1_565 S
C1093 O1120 1.289 . S
O1094 C1093 1.228 1_545 S
C1095 C1097 1.400 . S
C1095 N1098 1.351 . S
C1095 C1100 1.501 . S
C1096 C1097 1.387 . S
C1096 N1099 1.341 . S
C1097 C1095 1.400 . S
C1097 C1096 1.387 . S
N1098 Co1089 2.022 . S
N1098 C1095 1.351 . S
N1098 N1099 1.365 . S
N1099 C1096 1.341 . S
N1099 N1098 1.365 . S
N1099 H1119 0.862 . S
C1100 C1095 1.501 . S
C1100 H1101 0.961 . S
C1100 H1102 0.961 . S
C1100 H1103 0.960 . S
H1101 C1100 0.961 . S
H1102 C1100 0.961 . S
H1103 C1100 0.960 . S
C1104 N1105 1.342 . S
C1104 C1108 1.401 . S
C1104 C1109 1.499 . S
N1105 Co1088 1.989 . S
N1105 C1104 1.342 . S
N1105 N1106 1.388 . S
N1106 Co1089 1.993 . S
N1106 N1105 1.388 . S
N1106 C1107 1.346 . S
C1107 N1106 1.346 . S
C1107 C1108 1.396 . S
C1107 C1117 1.510 . S
C1108 C1104 1.401 . S
C1108 C1107 1.396 . S
C1109 C1104 1.499 . S
C1109 H1110 0.959 . S
C1109 H1111 0.960 . S
C1109 H1112 0.961 . S
H1110 C1109 0.959 . S
H1111 C1109 0.960 . S
H1112 C1109 0.961 . S
O1113 Co1088 1.967 . S
O1113 C1121 1.258 . S
O1114 Co1089 1.941 . S
O1114 C1121 1.266 . S
H1115 C1117 0.959 . S
H1116 C1117 0.961 . S
C1117 C1107 1.510 . S
C1117 H1115 0.959 . S
C1117 H1116 0.961 . S
C1117 H1118 0.960 . S
H1118 C1117 0.960 . S
H1119 N1099 0.862 . S
O1120 Co1088 1.920 . S
O1120 C1093 1.289 . S
C1121 O1113 1.258 . S
C1121 O1114 1.266 . S
Co1122 O1125 1.970 . S
Co1122 N1139 1.989 . S
Co1122 O1147 1.967 . S
Co1122 O1154 1.920 . S
Co1123 O1126 1.966 . S
Co1123 N1132 2.022 . S
Co1123 N1140 1.993 . S
Co1123 O1148 1.941 . S
C1124 O1125 1.258 . S
C1124 O1126 1.263 . S
O1125 Co1122 1.970 . S
O1125 C1124 1.258 . S
O1126 Co1123 1.966 . S
O1126 C1124 1.263 . S
C1127 O1128 1.235 . S
C1127 O1154 1.289 . S
O1128 C1127 1.235 . S
C1129 C1131 1.400 . S
C1129 N1132 1.351 . S
C1129 C1134 1.501 . S
C1130 C1131 1.387 . S
C1130 N1133 1.341 . S
C1131 C1129 1.400 . S
C1131 C1130 1.387 . S
N1132 Co1123 2.022 . S
N1132 C1129 1.351 . S
N1132 N1133 1.365 . S
N1133 C1130 1.341 . S
N1133 N1132 1.365 . S
N1133 H1153 0.862 . S
C1134 C1129 1.501 . S
C1134 H1135 0.961 . S
C1134 H1136 0.961 . S
C1134 H1137 0.960 . S
H1135 C1134 0.961 . S
H1136 C1134 0.961 . S
H1137 C1134 0.960 . S
C1138 N1139 1.342 . S
C1138 C1142 1.401 . S
C1138 C1143 1.499 . S
N1139 Co1122 1.989 . S
N1139 C1138 1.342 . S
N1139 N1140 1.388 . S
N1140 Co1123 1.993 . S
N1140 N1139 1.388 . S
N1140 C1141 1.346 . S
C1141 N1140 1.346 . S
C1141 C1142 1.396 . S
C1141 C1151 1.510 . S
C1142 C1138 1.401 . S
C1142 C1141 1.396 . S
C1143 C1138 1.499 . S
C1143 H1144 0.959 . S
C1143 H1145 0.960 . S
C1143 H1146 0.961 . S
H1144 C1143 0.959 . S
H1145 C1143 0.960 . S
H1146 C1143 0.961 . S
O1147 Co1122 1.967 . S
O1147 C1155 1.258 . S
O1148 Co1123 1.941 . S
O1148 C1155 1.266 . S
H1149 C1151 0.959 . S
H1150 C1151 0.961 . S
C1151 C1141 1.510 . S
C1151 H1149 0.959 . S
C1151 H1150 0.961 . S
C1151 H1152 0.960 . S
H1152 C1151 0.960 . S
H1153 N1133 0.862 . S
O1154 Co1122 1.920 . S
O1154 C1127 1.289 . S
C1155 O1147 1.258 . S
C1155 O1148 1.266 . S
Co1156 O1159 1.970 . S
Co1156 N1173 1.989 . S
Co1156 O1181 1.967 . S
Co1156 O1188 1.920 . S
Co1157 O1160 1.966 . S
Co1157 N1166 2.022 . S
Co1157 N1174 1.993 . S
Co1157 O1182 1.941 . S
C1158 O1159 1.258 . S
C1158 O1160 1.263 . S
O1159 Co1156 1.970 . S
O1159 C1158 1.258 . S
O1160 Co1157 1.966 . S
O1160 C1158 1.263 . S
C1161 O1162 1.235 . S
C1161 O1188 1.289 . S
O1162 C1161 1.235 . S
C1163 C1165 1.400 . S
C1163 N1166 1.351 . S
C1163 C1168 1.501 . S
C1164 C1165 1.387 . S
C1164 N1167 1.341 . S
C1165 C1163 1.400 . S
C1165 C1164 1.387 . S
N1166 Co1157 2.022 . S
N1166 C1163 1.351 . S
N1166 N1167 1.365 . S
N1167 C1164 1.341 . S
N1167 N1166 1.365 . S
N1167 H1187 0.862 . S
C1168 C1163 1.501 . S
C1168 H1169 0.961 . S
C1168 H1170 0.961 . S
C1168 H1171 0.960 . S
H1169 C1168 0.961 . S
H1170 C1168 0.961 . S
H1171 C1168 0.960 . S
C1172 N1173 1.342 . S
C1172 C1176 1.401 . S
C1172 C1177 1.499 . S
N1173 Co1156 1.989 . S
N1173 C1172 1.342 . S
N1173 N1174 1.388 . S
N1174 Co1157 1.993 . S
N1174 N1173 1.388 . S
N1174 C1175 1.346 . S
C1175 N1174 1.346 . S
C1175 C1176 1.396 . S
C1175 C1185 1.510 . S
C1176 C1172 1.401 . S
C1176 C1175 1.396 . S
C1177 C1172 1.499 . S
C1177 H1178 0.959 . S
C1177 H1179 0.960 . S
C1177 H1180 0.961 . S
H1178 C1177 0.959 . S
H1179 C1177 0.960 . S
H1180 C1177 0.961 . S
O1181 Co1156 1.967 . S
O1181 C1189 1.258 . S
O1182 Co1157 1.941 . S
O1182 C1189 1.266 . S
H1183 C1185 0.959 . S
H1184 C1185 0.961 . S
C1185 C1175 1.510 . S
C1185 H1183 0.959 . S
C1185 H1184 0.961 . S
C1185 H1186 0.960 . S
H1186 C1185 0.960 . S
H1187 N1167 0.862 . S
O1188 Co1156 1.920 . S
O1188 C1161 1.289 . S
C1189 O1181 1.258 . S
C1189 O1182 1.266 . S
Co1190 O1193 1.970 . S
Co1190 N1207 1.989 . S
Co1190 O1215 1.967 . S
Co1190 O1222 1.920 . S
Co1191 O1194 1.966 . S
Co1191 N1200 2.022 . S
Co1191 N1208 1.993 . S
Co1191 O1216 1.941 . S
C1192 O1193 1.258 . S
C1192 O1194 1.263 . S
O1193 Co1190 1.970 . S
O1193 C1192 1.258 . S
O1194 Co1191 1.966 . S
O1194 C1192 1.263 . S
C1195 O1196 1.235 . S
C1195 O1222 1.289 . S
O1196 C1195 1.235 . S
C1197 C1199 1.400 . S
C1197 N1200 1.351 . S
C1197 C1202 1.501 . S
C1198 C1199 1.387 . S
C1198 N1201 1.341 . S
C1199 C1197 1.400 . S
C1199 C1198 1.387 . S
N1200 Co1191 2.022 . S
N1200 C1197 1.351 . S
N1200 N1201 1.365 . S
N1201 C1198 1.341 . S
N1201 N1200 1.365 . S
N1201 H1221 0.862 . S
C1202 C1197 1.501 . S
C1202 H1203 0.961 . S
C1202 H1204 0.961 . S
C1202 H1205 0.960 . S
H1203 C1202 0.961 . S
H1204 C1202 0.961 . S
H1205 C1202 0.960 . S
C1206 N1207 1.342 . S
C1206 C1210 1.401 . S
C1206 C1211 1.499 . S
N1207 Co1190 1.989 . S
N1207 C1206 1.342 . S
N1207 N1208 1.388 . S
N1208 Co1191 1.993 . S
N1208 N1207 1.388 . S
N1208 C1209 1.346 . S
C1209 N1208 1.346 . S
C1209 C1210 1.396 . S
C1209 C1219 1.510 . S
C1210 C1206 1.401 . S
C1210 C1209 1.396 . S
C1211 C1206 1.499 . S
C1211 H1212 0.959 . S
C1211 H1213 0.960 . S
C1211 H1214 0.961 . S
H1212 C1211 0.959 . S
H1213 C1211 0.960 . S
H1214 C1211 0.961 . S
O1215 Co1190 1.967 . S
O1215 C1223 1.258 . S
O1216 Co1191 1.941 . S
O1216 C1223 1.266 . S
H1217 C1219 0.959 . S
H1218 C1219 0.961 . S
C1219 C1209 1.510 . S
C1219 H1217 0.959 . S
C1219 H1218 0.961 . S
C1219 H1220 0.960 . S
H1220 C1219 0.960 . S
H1221 N1201 0.862 . S
O1222 Co1190 1.920 . S
O1222 C1195 1.289 . S
C1223 O1215 1.258 . S
C1223 O1216 1.266 . S
C1224 C1225 1.349 . S
C1224 C1226 1.327 . S
C1224 H1249 0.950 . S
C1225 C1224 1.349 . S
C1225 C1241 1.349 . S
C1226 C1224 1.327 . S
C1226 C1245 1.429 . S
C1226 H1250 0.950 . S
C1227 C1244 1.574 . S
C1227 C1246 1.368 . S
C1227 H1251 0.949 . S
H1228 C1232 0.949 . S
C1229 C1230 1.349 . S
C1229 C1231 1.327 . S
C1229 H1252 0.950 . S
C1230 C1229 1.349 . S
C1230 C1242 1.349 . S
C1231 C1229 1.327 . S
C1231 C1247 1.429 . S
C1231 H1253 0.950 . S
C1232 H1228 0.949 . S
C1232 C1240 1.574 . S
C1232 C1248 1.368 . S
H1233 C1241 0.950 . S
H1234 C1239 0.950 . S
H1235 C1240 0.949 . S
H1236 C1242 0.950 . S
H1237 C1243 0.950 . S
H1238 C1244 0.949 . S
C1239 H1234 0.950 . S
C1239 C1241 1.327 . S
C1239 C1245 1.429 . S
C1240 C1232 1.574 . S
C1240 H1235 0.949 . S
C1240 C1246 1.368 . S
C1241 C1225 1.349 . S
C1241 H1233 0.950 . S
C1241 C1239 1.327 . S
C1242 C1230 1.349 . S
C1242 H1236 0.950 . S
C1242 C1243 1.327 . S
C1243 H1237 0.950 . S
C1243 C1242 1.327 . S
C1243 C1247 1.429 . S
C1244 C1227 1.574 . S
C1244 H1238 0.949 . S
C1244 C1248 1.368 . S
C1245 C1226 1.429 . S
C1245 C1239 1.429 . S
C1245 C1246 1.523 . S
C1246 C1227 1.368 . S
C1246 C1240 1.368 . S
C1246 C1245 1.523 . S
C1247 C1231 1.429 . S
C1247 C1243 1.429 . S
C1247 C1248 1.523 . S
C1248 C1232 1.368 . S
C1248 C1244 1.368 . S
C1248 C1247 1.523 . S
H1249 C1224 0.950 . S
H1250 C1226 0.950 . S
H1251 C1227 0.949 . S
H1252 C1229 0.950 . S
H1253 C1231 0.950 . S
C1254 C1255 1.349 . S
C1254 C1256 1.327 . S
C1254 H1279 0.950 . S
C1255 C1254 1.349 . S
C1255 C1271 1.349 . S
C1256 C1254 1.327 . S
C1256 C1275 1.429 . S
C1256 H1280 0.950 . S
C1257 C1274 1.574 . S
C1257 C1276 1.368 . S
C1257 H1281 0.949 . S
H1258 C1262 0.949 . S
C1259 C1260 1.349 . S
C1259 C1261 1.327 . S
C1259 H1282 0.950 . S
C1260 C1259 1.349 . S
C1260 C1272 1.349 . S
C1261 C1259 1.327 . S
C1261 C1277 1.429 . S
C1261 H1283 0.950 . S
C1262 H1258 0.949 . S
C1262 C1270 1.574 . S
C1262 C1278 1.368 . S
H1263 C1271 0.950 . S
H1264 C1269 0.950 . S
H1265 C1270 0.949 . S
H1266 C1272 0.950 . S
H1267 C1273 0.950 . S
H1268 C1274 0.949 . S
C1269 H1264 0.950 . S
C1269 C1271 1.327 . S
C1269 C1275 1.429 . S
C1270 C1262 1.574 . S
C1270 H1265 0.949 . S
C1270 C1276 1.368 . S
C1271 C1255 1.349 . S
C1271 H1263 0.950 . S
C1271 C1269 1.327 . S
C1272 C1260 1.349 . S
C1272 H1266 0.950 . S
C1272 C1273 1.327 . S
C1273 H1267 0.950 . S
C1273 C1272 1.327 . S
C1273 C1277 1.429 . S
C1274 C1257 1.574 . S
C1274 H1268 0.949 . S
C1274 C1278 1.368 . S
C1275 C1256 1.429 . S
C1275 C1269 1.429 . S
C1275 C1276 1.523 . S
C1276 C1257 1.368 . S
C1276 C1270 1.368 . S
C1276 C1275 1.523 . S
C1277 C1261 1.429 . S
C1277 C1273 1.429 . S
C1277 C1278 1.523 . S
C1278 C1262 1.368 . S
C1278 C1274 1.368 . S
C1278 C1277 1.523 . S
H1279 C1254 0.950 . S
H1280 C1256 0.950 . S
H1281 C1257 0.949 . S
H1282 C1259 0.950 . S
H1283 C1261 0.950 . S
C1284 C1285 1.349 . S
C1284 C1286 1.327 . S
C1284 H1309 0.950 . S
C1285 C1284 1.349 . S
C1285 C1301 1.349 . S
C1286 C1284 1.327 . S
C1286 C1305 1.429 . S
C1286 H1310 0.950 . S
C1287 C1304 1.574 . S
C1287 C1306 1.368 . S
C1287 H1311 0.949 . S
H1288 C1292 0.949 . S
C1289 C1290 1.349 . S
C1289 C1291 1.327 . S
C1289 H1312 0.950 . S
C1290 C1289 1.349 . S
C1290 C1302 1.349 . S
C1291 C1289 1.327 . S
C1291 C1307 1.429 . S
C1291 H1313 0.950 . S
C1292 H1288 0.949 . S
C1292 C1300 1.574 . S
C1292 C1308 1.368 . S
H1293 C1301 0.950 . S
H1294 C1299 0.950 . S
H1295 C1300 0.949 . S
H1296 C1302 0.950 . S
H1297 C1303 0.950 . S
H1298 C1304 0.949 . S
C1299 H1294 0.950 . S
C1299 C1301 1.327 . S
C1299 C1305 1.429 . S
C1300 C1292 1.574 . S
C1300 H1295 0.949 . S
C1300 C1306 1.368 . S
C1301 C1285 1.349 . S
C1301 H1293 0.950 . S
C1301 C1299 1.327 . S
C1302 C1290 1.349 . S
C1302 H1296 0.950 . S
C1302 C1303 1.327 . S
C1303 H1297 0.950 . S
C1303 C1302 1.327 . S
C1303 C1307 1.429 . S
C1304 C1287 1.574 . S
C1304 H1298 0.949 . S
C1304 C1308 1.368 . S
C1305 C1286 1.429 . S
C1305 C1299 1.429 . S
C1305 C1306 1.523 . S
C1306 C1287 1.368 . S
C1306 C1300 1.368 . S
C1306 C1305 1.523 . S
C1307 C1291 1.429 . S
C1307 C1303 1.429 . S
C1307 C1308 1.523 . S
C1308 C1292 1.368 . S
C1308 C1304 1.368 . S
C1308 C1307 1.523 . S
H1309 C1284 0.950 . S
H1310 C1286 0.950 . S
H1311 C1287 0.949 . S
H1312 C1289 0.950 . S
H1313 C1291 0.950 . S
C1314 C1315 1.349 . S
C1314 C1316 1.327 . S
C1314 H1339 0.950 . S
C1315 C1314 1.349 . S
C1315 C1331 1.349 . S
C1316 C1314 1.327 . S
C1316 C1335 1.429 . S
C1316 H1340 0.950 . S
C1317 C1334 1.574 . S
C1317 C1336 1.368 . S
C1317 H1341 0.949 . S
H1318 C1322 0.949 . S
C1319 C1320 1.349 . S
C1319 C1321 1.327 . S
C1319 H1342 0.950 . S
C1320 C1319 1.349 . S
C1320 C1332 1.349 . S
C1321 C1319 1.327 . S
C1321 C1337 1.429 . S
C1321 H1343 0.950 . S
C1322 H1318 0.949 . S
C1322 C1330 1.574 . S
C1322 C1338 1.368 . S
H1323 C1331 0.950 . S
H1324 C1329 0.950 . S
H1325 C1330 0.949 . S
H1326 C1332 0.950 . S
H1327 C1333 0.950 . S
H1328 C1334 0.949 . S
C1329 H1324 0.950 . S
C1329 C1331 1.327 . S
C1329 C1335 1.429 . S
C1330 C1322 1.574 . S
C1330 H1325 0.949 . S
C1330 C1336 1.368 . S
C1331 C1315 1.349 . S
C1331 H1323 0.950 . S
C1331 C1329 1.327 . S
C1332 C1320 1.349 . S
C1332 H1326 0.950 . S
C1332 C1333 1.327 . S
C1333 H1327 0.950 . S
C1333 C1332 1.327 . S
C1333 C1337 1.429 . S
C1334 C1317 1.574 . S
C1334 H1328 0.949 . S
C1334 C1338 1.368 . S
C1335 C1316 1.429 . S
C1335 C1329 1.429 . S
C1335 C1336 1.523 . S
C1336 C1317 1.368 . S
C1336 C1330 1.368 . S
C1336 C1335 1.523 . S
C1337 C1321 1.429 . S
C1337 C1333 1.429 . S
C1337 C1338 1.523 . S
C1338 C1322 1.368 . S
C1338 C1334 1.368 . S
C1338 C1337 1.523 . S
H1339 C1314 0.950 . S
H1340 C1316 0.950 . S
H1341 C1317 0.949 . S
H1342 C1319 0.950 . S
H1343 C1321 0.950 . S
C1344 C1345 1.349 . S
C1344 C1346 1.327 . S
C1344 H1369 0.950 . S
C1345 C1344 1.349 . S
C1345 C1361 1.349 . S
C1346 C1344 1.327 . S
C1346 C1365 1.429 . S
C1346 H1370 0.950 . S
C1347 C1364 1.574 . S
C1347 C1366 1.368 . S
C1347 H1371 0.949 . S
H1348 C1352 0.949 . S
C1349 C1350 1.349 . S
C1349 C1351 1.327 . S
C1349 H1372 0.950 . S
C1350 C1349 1.349 . S
C1350 C1362 1.349 . S
C1351 C1349 1.327 . S
C1351 C1367 1.429 . S
C1351 H1373 0.950 . S
C1352 H1348 0.949 . S
C1352 C1360 1.574 . S
C1352 C1368 1.368 . S
H1353 C1361 0.950 . S
H1354 C1359 0.950 . S
H1355 C1360 0.949 . S
H1356 C1362 0.950 . S
H1357 C1363 0.950 . S
H1358 C1364 0.949 . S
C1359 H1354 0.950 . S
C1359 C1361 1.327 . S
C1359 C1365 1.429 . S
C1360 C1352 1.574 . S
C1360 H1355 0.949 . S
C1360 C1366 1.368 . S
C1361 C1345 1.349 . S
C1361 H1353 0.950 . S
C1361 C1359 1.327 . S
C1362 C1350 1.349 . S
C1362 H1356 0.950 . S
C1362 C1363 1.327 . S
C1363 H1357 0.950 . S
C1363 C1362 1.327 . S
C1363 C1367 1.429 . S
C1364 C1347 1.574 . S
C1364 H1358 0.949 . S
C1364 C1368 1.368 . S
C1365 C1346 1.429 . S
C1365 C1359 1.429 . S
C1365 C1366 1.523 . S
C1366 C1347 1.368 . S
C1366 C1360 1.368 . S
C1366 C1365 1.523 . S
C1367 C1351 1.429 . S
C1367 C1363 1.429 . S
C1367 C1368 1.523 . S
C1368 C1352 1.368 . S
C1368 C1364 1.368 . S
C1368 C1367 1.523 . S
H1369 C1344 0.950 . S
H1370 C1346 0.950 . S
H1371 C1347 0.949 . S
H1372 C1349 0.950 . S
H1373 C1351 0.950 . S
C1374 C1375 1.349 . S
C1374 C1376 1.327 . S
C1374 H1399 0.950 . S
C1375 C1374 1.349 . S
C1375 C1391 1.349 . S
C1376 C1374 1.327 . S
C1376 C1395 1.429 . S
C1376 H1400 0.950 . S
C1377 C1394 1.574 . S
C1377 C1396 1.368 . S
C1377 H1401 0.949 . S
H1378 C1382 0.949 . S
C1379 C1380 1.349 . S
C1379 C1381 1.327 . S
C1379 H1402 0.950 . S
C1380 C1379 1.349 . S
C1380 C1392 1.349 . S
C1381 C1379 1.327 . S
C1381 C1397 1.429 . S
C1381 H1403 0.950 . S
C1382 H1378 0.949 . S
C1382 C1390 1.574 . S
C1382 C1398 1.368 . S
H1383 C1391 0.950 . S
H1384 C1389 0.950 . S
H1385 C1390 0.949 . S
H1386 C1392 0.950 . S
H1387 C1393 0.950 . S
H1388 C1394 0.949 . S
C1389 H1384 0.950 . S
C1389 C1391 1.327 . S
C1389 C1395 1.429 . S
C1390 C1382 1.574 . S
C1390 H1385 0.949 . S
C1390 C1396 1.368 . S
C1391 C1375 1.349 . S
C1391 H1383 0.950 . S
C1391 C1389 1.327 . S
C1392 C1380 1.349 . S
C1392 H1386 0.950 . S
C1392 C1393 1.327 . S
C1393 H1387 0.950 . S
C1393 C1392 1.327 . S
C1393 C1397 1.429 . S
C1394 C1377 1.574 . S
C1394 H1388 0.949 . S
C1394 C1398 1.368 . S
C1395 C1376 1.429 . S
C1395 C1389 1.429 . S
C1395 C1396 1.523 . S
C1396 C1377 1.368 . S
C1396 C1390 1.368 . S
C1396 C1395 1.523 . S
C1397 C1381 1.429 . S
C1397 C1393 1.429 . S
C1397 C1398 1.523 . S
C1398 C1382 1.368 . S
C1398 C1394 1.368 . S
C1398 C1397 1.523 . S
H1399 C1374 0.950 . S
H1400 C1376 0.950 . S
H1401 C1377 0.949 . S
H1402 C1379 0.950 . S
H1403 C1381 0.950 . S
C1404 C1405 1.349 . S
C1404 C1406 1.327 . S
C1404 H1429 0.950 . S
C1405 C1404 1.349 . S
C1405 C1421 1.349 . S
C1406 C1404 1.327 . S
C1406 C1425 1.429 . S
C1406 H1430 0.950 . S
C1407 C1424 1.574 . S
C1407 C1426 1.368 . S
C1407 H1431 0.949 . S
H1408 C1412 0.949 . S
C1409 C1410 1.349 . S
C1409 C1411 1.327 . S
C1409 H1432 0.950 . S
C1410 C1409 1.349 . S
C1410 C1422 1.349 . S
C1411 C1409 1.327 . S
C1411 C1427 1.429 . S
C1411 H1433 0.950 . S
C1412 H1408 0.949 . S
C1412 C1420 1.574 . S
C1412 C1428 1.368 . S
H1413 C1421 0.950 . S
H1414 C1419 0.950 . S
H1415 C1420 0.949 . S
H1416 C1422 0.950 . S
H1417 C1423 0.950 . S
H1418 C1424 0.949 . S
C1419 H1414 0.950 . S
C1419 C1421 1.327 . S
C1419 C1425 1.429 . S
C1420 C1412 1.574 . S
C1420 H1415 0.949 . S
C1420 C1426 1.368 . S
C1421 C1405 1.349 . S
C1421 H1413 0.950 . S
C1421 C1419 1.327 . S
C1422 C1410 1.349 . S
C1422 H1416 0.950 . S
C1422 C1423 1.327 . S
C1423 H1417 0.950 . S
C1423 C1422 1.327 . S
C1423 C1427 1.429 . S
C1424 C1407 1.574 . S
C1424 H1418 0.949 . S
C1424 C1428 1.368 . S
C1425 C1406 1.429 . S
C1425 C1419 1.429 . S
C1425 C1426 1.523 . S
C1426 C1407 1.368 . S
C1426 C1420 1.368 . S
C1426 C1425 1.523 . S
C1427 C1411 1.429 . S
C1427 C1423 1.429 . S
C1427 C1428 1.523 . S
C1428 C1412 1.368 . S
C1428 C1424 1.368 . S
C1428 C1427 1.523 . S
H1429 C1404 0.950 . S
H1430 C1406 0.950 . S
H1431 C1407 0.949 . S
H1432 C1409 0.950 . S
H1433 C1411 0.950 . S
C1434 C1435 1.349 . S
C1434 C1436 1.327 . S
C1434 H1459 0.950 . S
C1435 C1434 1.349 . S
C1435 C1451 1.349 . S
C1436 C1434 1.327 . S
C1436 C1455 1.429 . S
C1436 H1460 0.950 . S
C1437 C1454 1.574 . S
C1437 C1456 1.368 . S
C1437 H1461 0.949 . S
H1438 C1442 0.949 . S
C1439 C1440 1.349 . S
C1439 C1441 1.327 . S
C1439 H1462 0.950 . S
C1440 C1439 1.349 . S
C1440 C1452 1.349 . S
C1441 C1439 1.327 . S
C1441 C1457 1.429 . S
C1441 H1463 0.950 . S
C1442 H1438 0.949 . S
C1442 C1450 1.574 . S
C1442 C1458 1.368 . S
H1443 C1451 0.950 . S
H1444 C1449 0.950 . S
H1445 C1450 0.949 . S
H1446 C1452 0.950 . S
H1447 C1453 0.950 . S
H1448 C1454 0.949 . S
C1449 H1444 0.950 . S
C1449 C1451 1.327 . S
C1449 C1455 1.429 . S
C1450 C1442 1.574 . S
C1450 H1445 0.949 . S
C1450 C1456 1.368 . S
C1451 C1435 1.349 . S
C1451 H1443 0.950 . S
C1451 C1449 1.327 . S
C1452 C1440 1.349 . S
C1452 H1446 0.950 . S
C1452 C1453 1.327 . S
C1453 H1447 0.950 . S
C1453 C1452 1.327 . S
C1453 C1457 1.429 . S
C1454 C1437 1.574 . S
C1454 H1448 0.949 . S
C1454 C1458 1.368 . S
C1455 C1436 1.429 . S
C1455 C1449 1.429 . S
C1455 C1456 1.523 . S
C1456 C1437 1.368 . S
C1456 C1450 1.368 . S
C1456 C1455 1.523 . S
C1457 C1441 1.429 . S
C1457 C1453 1.429 . S
C1457 C1458 1.523 . S
C1458 C1442 1.368 . S
C1458 C1454 1.368 . S
C1458 C1457 1.523 . S
H1459 C1434 0.950 . S
H1460 C1436 0.950 . S
H1461 C1437 0.949 . S
H1462 C1439 0.950 . S
H1463 C1441 0.950 . S
C1464 C1465 1.349 . S
C1464 C1466 1.327 . S
C1464 H1489 0.950 . S
C1465 C1464 1.349 . S
C1465 C1481 1.349 . S
C1466 C1464 1.327 . S
C1466 C1485 1.429 . S
C1466 H1490 0.950 . S
C1467 C1484 1.574 . S
C1467 C1486 1.368 . S
C1467 H1491 0.949 . S
H1468 C1472 0.949 . S
C1469 C1470 1.349 . S
C1469 C1471 1.327 . S
C1469 H1492 0.950 . S
C1470 C1469 1.349 . S
C1470 C1482 1.349 . S
C1471 C1469 1.327 . S
C1471 C1487 1.429 . S
C1471 H1493 0.950 . S
C1472 H1468 0.949 . S
C1472 C1480 1.574 . S
C1472 C1488 1.368 . S
H1473 C1481 0.950 . S
H1474 C1479 0.950 . S
H1475 C1480 0.949 . S
H1476 C1482 0.950 . S
H1477 C1483 0.950 . S
H1478 C1484 0.949 . S
C1479 H1474 0.950 . S
C1479 C1481 1.327 . S
C1479 C1485 1.429 . S
C1480 C1472 1.574 . S
C1480 H1475 0.949 . S
C1480 C1486 1.368 . S
C1481 C1465 1.349 . S
C1481 H1473 0.950 . S
C1481 C1479 1.327 . S
C1482 C1470 1.349 . S
C1482 H1476 0.950 . S
C1482 C1483 1.327 . S
C1483 H1477 0.950 . S
C1483 C1482 1.327 . S
C1483 C1487 1.429 . S
C1484 C1467 1.574 . S
C1484 H1478 0.949 . S
C1484 C1488 1.368 . S
C1485 C1466 1.429 . S
C1485 C1479 1.429 . S
C1485 C1486 1.523 . S
C1486 C1467 1.368 . S
C1486 C1480 1.368 . S
C1486 C1485 1.523 . S
C1487 C1471 1.429 . S
C1487 C1483 1.429 . S
C1487 C1488 1.523 . S
C1488 C1472 1.368 . S
C1488 C1484 1.368 . S
C1488 C1487 1.523 . S
H1489 C1464 0.950 . S
H1490 C1466 0.950 . S
H1491 C1467 0.949 . S
H1492 C1469 0.950 . S
H1493 C1471 0.950 . S
C1494 C1495 1.349 . S
C1494 C1496 1.327 . S
C1494 H1519 0.950 . S
C1495 C1494 1.349 . S
C1495 C1511 1.349 . S
C1496 C1494 1.327 . S
C1496 C1515 1.429 . S
C1496 H1520 0.950 . S
C1497 C1514 1.574 . S
C1497 C1516 1.368 . S
C1497 H1521 0.949 . S
H1498 C1502 0.949 . S
C1499 C1500 1.349 . S
C1499 C1501 1.327 . S
C1499 H1522 0.950 . S
C1500 C1499 1.349 . S
C1500 C1512 1.349 . S
C1501 C1499 1.327 . S
C1501 C1517 1.429 . S
C1501 H1523 0.950 . S
C1502 H1498 0.949 . S
C1502 C1510 1.574 . S
C1502 C1518 1.368 . S
H1503 C1511 0.950 . S
H1504 C1509 0.950 . S
H1505 C1510 0.949 . S
H1506 C1512 0.950 . S
H1507 C1513 0.950 . S
H1508 C1514 0.949 . S
C1509 H1504 0.950 . S
C1509 C1511 1.327 . S
C1509 C1515 1.429 . S
C1510 C1502 1.574 . S
C1510 H1505 0.949 . S
C1510 C1516 1.368 . S
C1511 C1495 1.349 . S
C1511 H1503 0.950 . S
C1511 C1509 1.327 . S
C1512 C1500 1.349 . S
C1512 H1506 0.950 . S
C1512 C1513 1.327 . S
C1513 H1507 0.950 . S
C1513 C1512 1.327 . S
C1513 C1517 1.429 . S
C1514 C1497 1.574 . S
C1514 H1508 0.949 . S
C1514 C1518 1.368 . S
C1515 C1496 1.429 . S
C1515 C1509 1.429 . S
C1515 C1516 1.523 . S
C1516 C1497 1.368 . S
C1516 C1510 1.368 . S
C1516 C1515 1.523 . S
C1517 C1501 1.429 . S
C1517 C1513 1.429 . S
C1517 C1518 1.523 . S
C1518 C1502 1.368 . S
C1518 C1514 1.368 . S
C1518 C1517 1.523 . S
H1519 C1494 0.950 . S
H1520 C1496 0.950 . S
H1521 C1497 0.949 . S
H1522 C1499 0.950 . S
H1523 C1501 0.950 . S
C1524 C1525 1.349 . S
C1524 C1526 1.327 . S
C1524 H1549 0.950 . S
C1525 C1524 1.349 . S
C1525 C1541 1.349 . S
C1526 C1524 1.327 . S
C1526 C1545 1.429 . S
C1526 H1550 0.950 . S
C1527 C1544 1.574 . S
C1527 C1546 1.368 . S
C1527 H1551 0.949 . S
H1528 C1532 0.949 . S
C1529 C1530 1.349 . S
C1529 C1531 1.327 . S
C1529 H1552 0.950 . S
C1530 C1529 1.349 . S
C1530 C1542 1.349 . S
C1531 C1529 1.327 . S
C1531 C1547 1.429 . S
C1531 H1553 0.950 . S
C1532 H1528 0.949 . S
C1532 C1540 1.574 . S
C1532 C1548 1.368 . S
H1533 C1541 0.950 . S
H1534 C1539 0.950 . S
H1535 C1540 0.949 . S
H1536 C1542 0.950 . S
H1537 C1543 0.950 . S
H1538 C1544 0.949 . S
C1539 H1534 0.950 . S
C1539 C1541 1.327 . S
C1539 C1545 1.429 . S
C1540 C1532 1.574 . S
C1540 H1535 0.949 . S
C1540 C1546 1.368 . S
C1541 C1525 1.349 . S
C1541 H1533 0.950 . S
C1541 C1539 1.327 . S
C1542 C1530 1.349 . S
C1542 H1536 0.950 . S
C1542 C1543 1.327 . S
C1543 H1537 0.950 . S
C1543 C1542 1.327 . S
C1543 C1547 1.429 . S
C1544 C1527 1.574 . S
C1544 H1538 0.949 . S
C1544 C1548 1.368 . S
C1545 C1526 1.429 . S
C1545 C1539 1.429 . S
C1545 C1546 1.523 . S
C1546 C1527 1.368 . S
C1546 C1540 1.368 . S
C1546 C1545 1.523 . S
C1547 C1531 1.429 . S
C1547 C1543 1.429 . S
C1547 C1548 1.523 . S
C1548 C1532 1.368 . S
C1548 C1544 1.368 . S
C1548 C1547 1.523 . S
H1549 C1524 0.950 . S
H1550 C1526 0.950 . S
H1551 C1527 0.949 . S
H1552 C1529 0.950 . S
H1553 C1531 0.950 . S
C1554 C1555 1.349 . S
C1554 C1556 1.327 . S
C1554 H1579 0.950 . S
C1555 C1554 1.349 . S
C1555 C1571 1.349 . S
C1556 C1554 1.327 . S
C1556 C1575 1.429 . S
C1556 H1580 0.950 . S
C1557 C1574 1.574 . S
C1557 C1576 1.368 . S
C1557 H1581 0.949 . S
H1558 C1562 0.949 . S
C1559 C1560 1.349 . S
C1559 C1561 1.327 . S
C1559 H1582 0.950 . S
C1560 C1559 1.349 . S
C1560 C1572 1.349 . S
C1561 C1559 1.327 . S
C1561 C1577 1.429 . S
C1561 H1583 0.950 . S
C1562 H1558 0.949 . S
C1562 C1570 1.574 . S
C1562 C1578 1.368 . S
H1563 C1571 0.950 . S
H1564 C1569 0.950 . S
H1565 C1570 0.949 . S
H1566 C1572 0.950 . S
H1567 C1573 0.950 . S
H1568 C1574 0.949 . S
C1569 H1564 0.950 . S
C1569 C1571 1.327 . S
C1569 C1575 1.429 . S
C1570 C1562 1.574 . S
C1570 H1565 0.949 . S
C1570 C1576 1.368 . S
C1571 C1555 1.349 . S
C1571 H1563 0.950 . S
C1571 C1569 1.327 . S
C1572 C1560 1.349 . S
C1572 H1566 0.950 . S
C1572 C1573 1.327 . S
C1573 H1567 0.950 . S
C1573 C1572 1.327 . S
C1573 C1577 1.429 . S
C1574 C1557 1.574 . S
C1574 H1568 0.949 . S
C1574 C1578 1.368 . S
C1575 C1556 1.429 . S
C1575 C1569 1.429 . S
C1575 C1576 1.523 . S
C1576 C1557 1.368 . S
C1576 C1570 1.368 . S
C1576 C1575 1.523 . S
C1577 C1561 1.429 . S
C1577 C1573 1.429 . S
C1577 C1578 1.523 . S
C1578 C1562 1.368 . S
C1578 C1574 1.368 . S
C1578 C1577 1.523 . S
H1579 C1554 0.950 . S
H1580 C1556 0.950 . S
H1581 C1557 0.949 . S
H1582 C1559 0.950 . S
H1583 C1561 0.950 . S
C1584 C1585 1.349 . S
C1584 C1586 1.327 . S
C1584 H1609 0.950 . S
C1585 C1584 1.349 . S
C1585 C1601 1.349 . S
C1586 C1584 1.327 . S
C1586 C1605 1.429 . S
C1586 H1610 0.950 . S
C1587 C1604 1.574 . S
C1587 C1606 1.368 1_455 S
C1587 H1611 0.949 . S
H1588 C1592 0.949 . S
C1589 C1590 1.349 . S
C1589 C1591 1.327 . S
C1589 H1612 0.950 . S
C1590 C1589 1.349 . S
C1590 C1602 1.349 . S
C1591 C1589 1.327 . S
C1591 C1607 1.429 . S
C1591 H1613 0.950 . S
C1592 H1588 0.949 . S
C1592 C1600 1.574 . S
C1592 C1608 1.368 1_655 S
H1593 C1601 0.950 . S
H1594 C1599 0.950 1_455 S
H1595 C1600 0.949 . S
H1596 C1602 0.950 . S
H1597 C1603 0.950 1_655 S
H1598 C1604 0.949 . S
C1599 H1594 0.950 1_655 S
C1599 C1601 1.327 . S
C1599 C1605 1.429 . S
C1600 C1592 1.574 . S
C1600 H1595 0.949 . S
C1600 C1606 1.368 . S
C1601 C1585 1.349 . S
C1601 H1593 0.950 . S
C1601 C1599 1.327 . S
C1602 C1590 1.349 . S
C1602 H1596 0.950 . S
C1602 C1603 1.327 . S
C1603 H1597 0.950 1_455 S
C1603 C1602 1.327 . S
C1603 C1607 1.429 . S
C1604 C1587 1.574 . S
C1604 H1598 0.949 . S
C1604 C1608 1.368 . S
C1605 C1586 1.429 . S
C1605 C1599 1.429 . S
C1605 C1606 1.523 . S
C1606 C1587 1.368 1_655 S
C1606 C1600 1.368 . S
C1606 C1605 1.523 . S
C1607 C1591 1.429 . S
C1607 C1603 1.429 . S
C1607 C1608 1.523 . S
C1608 C1592 1.368 1_455 S
C1608 C1604 1.368 . S
C1608 C1607 1.523 . S
H1609 C1584 0.950 . S
H1610 C1586 0.950 . S
H1611 C1587 0.949 . S
H1612 C1589 0.950 . S
H1613 C1591 0.950 . S
C1614 C1615 1.349 . S
C1614 C1616 1.327 . S
C1614 H1639 0.950 . S
C1615 C1614 1.349 . S
C1615 C1631 1.349 . S
C1616 C1614 1.327 . S
C1616 C1635 1.429 . S
C1616 H1640 0.950 . S
C1617 C1634 1.574 . S
C1617 C1636 1.368 . S
C1617 H1641 0.949 . S
H1618 C1622 0.949 . S
C1619 C1620 1.349 . S
C1619 C1621 1.327 . S
C1619 H1642 0.950 . S
C1620 C1619 1.349 . S
C1620 C1632 1.349 . S
C1621 C1619 1.327 . S
C1621 C1637 1.429 . S
C1621 H1643 0.950 . S
C1622 H1618 0.949 . S
C1622 C1630 1.574 . S
C1622 C1638 1.368 . S
H1623 C1631 0.950 . S
H1624 C1629 0.950 . S
H1625 C1630 0.949 . S
H1626 C1632 0.950 . S
H1627 C1633 0.950 . S
H1628 C1634 0.949 . S
C1629 H1624 0.950 . S
C1629 C1631 1.327 . S
C1629 C1635 1.429 . S
C1630 C1622 1.574 . S
C1630 H1625 0.949 . S
C1630 C1636 1.368 . S
C1631 C1615 1.349 . S
C1631 H1623 0.950 . S
C1631 C1629 1.327 . S
C1632 C1620 1.349 . S
C1632 H1626 0.950 . S
C1632 C1633 1.327 . S
C1633 H1627 0.950 . S
C1633 C1632 1.327 . S
C1633 C1637 1.429 . S
C1634 C1617 1.574 . S
C1634 H1628 0.949 . S
C1634 C1638 1.368 . S
C1635 C1616 1.429 . S
C1635 C1629 1.429 . S
C1635 C1636 1.523 . S
C1636 C1617 1.368 . S
C1636 C1630 1.368 . S
C1636 C1635 1.523 . S
C1637 C1621 1.429 . S
C1637 C1633 1.429 . S
C1637 C1638 1.523 . S
C1638 C1622 1.368 . S
C1638 C1634 1.368 . S
C1638 C1637 1.523 . S
H1639 C1614 0.950 . S
H1640 C1616 0.950 . S
H1641 C1617 0.949 . S
H1642 C1619 0.950 . S
H1643 C1621 0.950 . S
C1644 C1645 1.349 . S
C1644 C1646 1.327 . S
C1644 H1669 0.950 . S
C1645 C1644 1.349 . S
C1645 C1661 1.349 . S
C1646 C1644 1.327 . S
C1646 C1665 1.429 . S
C1646 H1670 0.950 1_565 S
C1647 C1664 1.574 . S
C1647 C1666 1.368 . S
C1647 H1671 0.949 . S
H1648 C1652 0.949 . S
C1649 C1650 1.349 . S
C1649 C1651 1.327 . S
C1649 H1672 0.950 . S
C1650 C1649 1.349 . S
C1650 C1662 1.349 . S
C1651 C1649 1.327 . S
C1651 C1667 1.429 . S
C1651 H1673 0.950 1_545 S
C1652 H1648 0.949 . S
C1652 C1660 1.574 . S
C1652 C1668 1.368 . S
H1653 C1661 0.950 . S
H1654 C1659 0.950 . S
H1655 C1660 0.949 . S
H1656 C1662 0.950 . S
H1657 C1663 0.950 . S
H1658 C1664 0.949 . S
C1659 H1654 0.950 . S
C1659 C1661 1.327 . S
C1659 C1665 1.429 . S
C1660 C1652 1.574 . S
C1660 H1655 0.949 . S
C1660 C1666 1.368 1_545 S
C1661 C1645 1.349 . S
C1661 H1653 0.950 . S
C1661 C1659 1.327 . S
C1662 C1650 1.349 . S
C1662 H1656 0.950 . S
C1662 C1663 1.327 . S
C1663 H1657 0.950 . S
C1663 C1662 1.327 . S
C1663 C1667 1.429 . S
C1664 C1647 1.574 . S
C1664 H1658 0.949 . S
C1664 C1668 1.368 1_565 S
C1665 C1646 1.429 . S
C1665 C1659 1.429 . S
C1665 C1666 1.523 . S
C1666 C1647 1.368 . S
C1666 C1660 1.368 1_565 S
C1666 C1665 1.523 . S
C1667 C1651 1.429 . S
C1667 C1663 1.429 . S
C1667 C1668 1.523 . S
C1668 C1652 1.368 . S
C1668 C1664 1.368 1_545 S
C1668 C1667 1.523 . S
H1669 C1644 0.950 . S
H1670 C1646 0.950 1_545 S
H1671 C1647 0.949 . S
H1672 C1649 0.950 . S
H1673 C1651 0.950 1_565 S
C1674 C1675 1.349 . S
C1674 C1676 1.327 . S
C1674 H1699 0.950 . S
C1675 C1674 1.349 . S
C1675 C1691 1.349 . S
C1676 C1674 1.327 . S
C1676 C1695 1.429 . S
C1676 H1700 0.950 1_565 S
C1677 C1694 1.574 . S
C1677 C1696 1.368 . S
C1677 H1701 0.949 . S
H1678 C1682 0.949 . S
C1679 C1680 1.349 . S
C1679 C1681 1.327 . S
C1679 H1702 0.950 . S
C1680 C1679 1.349 . S
C1680 C1692 1.349 . S
C1681 C1679 1.327 . S
C1681 C1697 1.429 . S
C1681 H1703 0.950 1_545 S
C1682 H1678 0.949 . S
C1682 C1690 1.574 . S
C1682 C1698 1.368 . S
H1683 C1691 0.950 . S
H1684 C1689 0.950 . S
H1685 C1690 0.949 . S
H1686 C1692 0.950 . S
H1687 C1693 0.950 . S
H1688 C1694 0.949 . S
C1689 H1684 0.950 . S
C1689 C1691 1.327 . S
C1689 C1695 1.429 . S
C1690 C1682 1.574 . S
C1690 H1685 0.949 . S
C1690 C1696 1.368 1_545 S
C1691 C1675 1.349 . S
C1691 H1683 0.950 . S
C1691 C1689 1.327 . S
C1692 C1680 1.349 . S
C1692 H1686 0.950 . S
C1692 C1693 1.327 . S
C1693 H1687 0.950 . S
C1693 C1692 1.327 . S
C1693 C1697 1.429 . S
C1694 C1677 1.574 . S
C1694 H1688 0.949 . S
C1694 C1698 1.368 1_565 S
C1695 C1676 1.429 . S
C1695 C1689 1.429 . S
C1695 C1696 1.523 . S
C1696 C1677 1.368 . S
C1696 C1690 1.368 1_565 S
C1696 C1695 1.523 . S
C1697 C1681 1.429 . S
C1697 C1693 1.429 . S
C1697 C1698 1.523 . S
C1698 C1682 1.368 . S
C1698 C1694 1.368 1_545 S
C1698 C1697 1.523 . S
H1699 C1674 0.950 . S
H1700 C1676 0.950 1_545 S
H1701 C1677 0.949 . S
H1702 C1679 0.950 . S
H1703 C1681 0.950 1_565 S
C1704 C1705 1.349 . S
C1704 C1706 1.327 . S
C1704 H1729 0.950 . S
C1705 C1704 1.349 . S
C1705 C1721 1.349 . S
C1706 C1704 1.327 . S
C1706 C1725 1.429 . S
C1706 H1730 0.950 . S
C1707 C1724 1.582 . S
C1707 C1726 1.368 . S
C1707 H1731 0.949 . S
H1708 C1712 0.949 . S
C1709 C1710 1.349 . S
C1709 C1711 1.327 . S
C1709 H1732 0.950 . S
C1710 C1709 1.349 . S
C1710 C1722 1.349 . S
C1711 C1709 1.327 . S
C1711 C1727 1.429 . S
C1711 H1733 0.950 . S
C1712 H1708 0.949 . S
C1712 C1720 1.582 . S
C1712 C1728 1.368 . S
H1713 C1721 0.950 . S
H1714 C1719 0.950 . S
H1715 C1720 0.952 . S
H1716 C1722 0.950 . S
H1717 C1723 0.950 . S
H1718 C1724 0.952 . S
C1719 H1714 0.950 . S
C1719 C1721 1.327 . S
C1719 C1725 1.429 . S
C1720 C1712 1.582 . S
C1720 H1715 0.952 . S
C1720 C1726 1.372 1_655 S
C1721 C1705 1.349 . S
C1721 H1713 0.950 . S
C1721 C1719 1.327 . S
C1722 C1710 1.349 . S
C1722 H1716 0.950 . S
C1722 C1723 1.327 . S
C1723 H1717 0.950 . S
C1723 C1722 1.327 . S
C1723 C1727 1.429 . S
C1724 C1707 1.582 . S
C1724 H1718 0.952 . S
C1724 C1728 1.371 1_455 S
C1725 C1706 1.429 . S
C1725 C1719 1.429 . S
C1725 C1726 1.523 . S
C1726 C1707 1.368 . S
C1726 C1720 1.372 1_455 S
C1726 C1725 1.523 . S
C1727 C1711 1.429 . S
C1727 C1723 1.429 . S
C1727 C1728 1.523 . S
C1728 C1712 1.368 . S
C1728 C1724 1.371 1_655 S
C1728 C1727 1.523 . S
H1729 C1704 0.950 . S
H1730 C1706 0.950 . S
H1731 C1707 0.949 . S
H1732 C1709 0.950 . S
H1733 C1711 0.950 . S
C1734 C1735 1.349 . S
C1734 C1736 1.327 . S
C1734 H1759 0.950 . S
C1735 C1734 1.349 . S
C1735 C1751 1.349 . S
C1736 C1734 1.327 . S
C1736 C1755 1.429 . S
C1736 H1760 0.950 . S
C1737 C1754 1.574 . S
C1737 C1756 1.368 . S
C1737 H1761 0.949 . S
H1738 C1742 0.949 . S
C1739 C1740 1.349 . S
C1739 C1741 1.327 . S
C1739 H1762 0.950 . S
C1740 C1739 1.349 . S
C1740 C1752 1.349 . S
C1741 C1739 1.327 . S
C1741 C1757 1.429 . S
C1741 H1763 0.950 . S
C1742 H1738 0.949 . S
C1742 C1750 1.574 . S
C1742 C1758 1.368 . S
H1743 C1751 0.950 . S
H1744 C1749 0.950 . S
H1745 C1750 0.949 . S
H1746 C1752 0.950 . S
H1747 C1753 0.950 . S
H1748 C1754 0.949 . S
C1749 H1744 0.950 . S
C1749 C1751 1.327 . S
C1749 C1755 1.429 . S
C1750 C1742 1.574 . S
C1750 H1745 0.949 . S
C1750 C1756 1.368 . S
C1751 C1735 1.349 . S
C1751 H1743 0.950 . S
C1751 C1749 1.327 . S
C1752 C1740 1.349 . S
C1752 H1746 0.950 . S
C1752 C1753 1.327 . S
C1753 H1747 0.950 . S
C1753 C1752 1.327 . S
C1753 C1757 1.429 . S
C1754 C1737 1.574 . S
C1754 H1748 0.949 . S
C1754 C1758 1.368 . S
C1755 C1736 1.429 . S
C1755 C1749 1.429 . S
C1755 C1756 1.523 . S
C1756 C1737 1.368 . S
C1756 C1750 1.368 . S
C1756 C1755 1.523 . S
C1757 C1741 1.429 . S
C1757 C1753 1.429 . S
C1757 C1758 1.523 . S
C1758 C1742 1.368 . S
C1758 C1754 1.368 . S
C1758 C1757 1.523 . S
H1759 C1734 0.950 . S
H1760 C1736 0.950 . S
H1761 C1737 0.949 . S
H1762 C1739 0.950 . S
H1763 C1741 0.950 . S
C1764 C1765 1.349 . S
C1764 C1766 1.327 . S
C1764 H1789 0.950 . S
C1765 C1764 1.349 . S
C1765 C1781 1.349 . S
C1766 C1764 1.327 . S
C1766 C1785 1.429 . S
C1766 H1790 0.950 . S
C1767 C1784 1.574 . S
C1767 C1786 1.368 . S
C1767 H1791 0.949 . S
H1768 C1772 0.949 . S
C1769 C1770 1.349 . S
C1769 C1771 1.327 . S
C1769 H1792 0.950 . S
C1770 C1769 1.349 . S
C1770 C1782 1.349 . S
C1771 C1769 1.327 . S
C1771 C1787 1.429 . S
C1771 H1793 0.950 . S
C1772 H1768 0.949 . S
C1772 C1780 1.574 . S
C1772 C1788 1.368 . S
H1773 C1781 0.950 . S
H1774 C1779 0.950 . S
H1775 C1780 0.949 . S
H1776 C1782 0.950 . S
H1777 C1783 0.950 . S
H1778 C1784 0.949 . S
C1779 H1774 0.950 . S
C1779 C1781 1.327 . S
C1779 C1785 1.429 . S
C1780 C1772 1.574 . S
C1780 H1775 0.949 . S
C1780 C1786 1.368 . S
C1781 C1765 1.349 . S
C1781 H1773 0.950 . S
C1781 C1779 1.327 . S
C1782 C1770 1.349 . S
C1782 H1776 0.950 . S
C1782 C1783 1.327 . S
C1783 H1777 0.950 . S
C1783 C1782 1.327 . S
C1783 C1787 1.429 . S
C1784 C1767 1.574 . S
C1784 H1778 0.949 . S
C1784 C1788 1.368 . S
C1785 C1766 1.429 . S
C1785 C1779 1.429 . S
C1785 C1786 1.523 . S
C1786 C1767 1.368 . S
C1786 C1780 1.368 . S
C1786 C1785 1.523 . S
C1787 C1771 1.429 . S
C1787 C1783 1.429 . S
C1787 C1788 1.523 . S
C1788 C1772 1.368 . S
C1788 C1784 1.368 . S
C1788 C1787 1.523 . S
H1789 C1764 0.950 . S
H1790 C1766 0.950 . S
H1791 C1767 0.949 . S
H1792 C1769 0.950 . S
H1793 C1771 0.950 . S
C1794 C1795 1.349 . S
C1794 C1796 1.327 . S
C1794 H1819 0.950 . S
C1795 C1794 1.349 . S
C1795 C1811 1.349 . S
C1796 C1794 1.327 . S
C1796 C1815 1.429 . S
C1796 H1820 0.950 . S
C1797 C1814 1.574 . S
C1797 C1816 1.368 . S
C1797 H1821 0.949 . S
H1798 C1802 0.949 . S
C1799 C1800 1.349 . S
C1799 C1801 1.327 . S
C1799 H1822 0.950 . S
C1800 C1799 1.349 . S
C1800 C1812 1.349 1_565 S
C1801 C1799 1.327 . S
C1801 C1817 1.429 1_565 S
C1801 H1823 0.950 . S
C1802 H1798 0.949 . S
C1802 C1810 1.574 . S
C1802 C1818 1.368 . S
H1803 C1811 0.950 . S
H1804 C1809 0.950 . S
H1805 C1810 0.949 . S
H1806 C1812 0.950 . S
H1807 C1813 0.950 . S
H1808 C1814 0.949 . S
C1809 H1804 0.950 . S
C1809 C1811 1.327 . S
C1809 C1815 1.429 . S
C1810 C1802 1.574 . S
C1810 H1805 0.949 . S
C1810 C1816 1.368 . S
C1811 C1795 1.349 . S
C1811 H1803 0.950 . S
C1811 C1809 1.327 . S
C1812 C1800 1.349 1_545 S
C1812 H1806 0.950 . S
C1812 C1813 1.327 . S
C1813 H1807 0.950 . S
C1813 C1812 1.327 . S
C1813 C1817 1.429 . S
C1814 C1797 1.574 . S
C1814 H1808 0.949 . S
C1814 C1818 1.368 . S
C1815 C1796 1.429 . S
C1815 C1809 1.429 . S
C1815 C1816 1.523 . S
C1816 C1797 1.368 . S
C1816 C1810 1.368 . S
C1816 C1815 1.523 . S
C1817 C1801 1.429 1_545 S
C1817 C1813 1.429 . S
C1817 C1818 1.523 . S
C1818 C1802 1.368 . S
C1818 C1814 1.368 . S
C1818 C1817 1.523 . S
H1819 C1794 0.950 . S
H1820 C1796 0.950 . S
H1821 C1797 0.949 . S
H1822 C1799 0.950 . S
H1823 C1801 0.950 . S
C1824 C1825 1.349 . S
C1824 C1826 1.327 . S
C1824 H1849 0.950 . S
C1825 C1824 1.349 . S
C1825 C1841 1.349 . S
C1826 C1824 1.327 . S
C1826 C1845 1.429 . S
C1826 H1850 0.950 . S
C1827 C1844 1.574 . S
C1827 C1846 1.368 . S
C1827 H1851 0.949 . S
H1828 C1832 0.949 . S
C1829 C1830 1.349 1_655 S
C1829 C1831 1.327 . S
C1829 H1852 0.950 . S
C1830 C1829 1.349 1_455 S
C1830 C1842 1.349 . S
C1831 C1829 1.327 . S
C1831 C1847 1.429 . S
C1831 H1853 0.950 . S
C1832 H1828 0.949 . S
C1832 C1840 1.574 . S
C1832 C1848 1.368 . S
H1833 C1841 0.950 . S
H1834 C1839 0.950 . S
H1835 C1840 0.949 . S
H1836 C1842 0.950 . S
H1837 C1843 0.950 . S
H1838 C1844 0.949 . S
C1839 H1834 0.950 . S
C1839 C1841 1.327 . S
C1839 C1845 1.429 . S
C1840 C1832 1.574 . S
C1840 H1835 0.949 . S
C1840 C1846 1.368 . S
C1841 C1825 1.349 . S
C1841 H1833 0.950 . S
C1841 C1839 1.327 . S
C1842 C1830 1.349 . S
C1842 H1836 0.950 . S
C1842 C1843 1.327 . S
C1843 H1837 0.950 . S
C1843 C1842 1.327 . S
C1843 C1847 1.429 1_455 S
C1844 C1827 1.574 . S
C1844 H1838 0.949 . S
C1844 C1848 1.368 . S
C1845 C1826 1.429 . S
C1845 C1839 1.429 . S
C1845 C1846 1.523 . S
C1846 C1827 1.368 . S
C1846 C1840 1.368 . S
C1846 C1845 1.523 . S
C1847 C1831 1.429 . S
C1847 C1843 1.429 1_655 S
C1847 C1848 1.523 . S
C1848 C1832 1.368 . S
C1848 C1844 1.368 . S
C1848 C1847 1.523 . S
H1849 C1824 0.950 . S
H1850 C1826 0.950 . S
H1851 C1827 0.949 . S
H1852 C1829 0.950 . S
H1853 C1831 0.950 . S
C1854 C1855 1.349 . S
C1854 C1856 1.327 . S
C1854 H1879 0.950 . S
C1855 C1854 1.349 . S
C1855 C1871 1.349 . S
C1856 C1854 1.327 . S
C1856 C1875 1.429 . S
C1856 H1880 0.950 . S
C1857 C1874 1.574 . S
C1857 C1876 1.368 . S
C1857 H1881 0.949 . S
H1858 C1862 0.949 . S
C1859 C1860 1.349 . S
C1859 C1861 1.327 . S
C1859 H1882 0.950 . S
C1860 C1859 1.349 . S
C1860 C1872 1.349 . S
C1861 C1859 1.327 . S
C1861 C1877 1.429 . S
C1861 H1883 0.950 . S
C1862 H1858 0.949 . S
C1862 C1870 1.574 . S
C1862 C1878 1.368 . S
H1863 C1871 0.950 . S
H1864 C1869 0.950 . S
H1865 C1870 0.949 . S
H1866 C1872 0.950 . S
H1867 C1873 0.950 . S
H1868 C1874 0.949 . S
C1869 H1864 0.950 . S
C1869 C1871 1.327 . S
C1869 C1875 1.429 . S
C1870 C1862 1.574 . S
C1870 H1865 0.949 . S
C1870 C1876 1.368 . S
C1871 C1855 1.349 . S
C1871 H1863 0.950 . S
C1871 C1869 1.327 . S
C1872 C1860 1.349 . S
C1872 H1866 0.950 . S
C1872 C1873 1.327 . S
C1873 H1867 0.950 . S
C1873 C1872 1.327 . S
C1873 C1877 1.429 . S
C1874 C1857 1.574 . S
C1874 H1868 0.949 . S
C1874 C1878 1.368 . S
C1875 C1856 1.429 . S
C1875 C1869 1.429 . S
C1875 C1876 1.523 . S
C1876 C1857 1.368 . S
C1876 C1870 1.368 . S
C1876 C1875 1.523 . S
C1877 C1861 1.429 . S
C1877 C1873 1.429 . S
C1877 C1878 1.523 . S
C1878 C1862 1.368 . S
C1878 C1874 1.368 . S
C1878 C1877 1.523 . S
H1879 C1854 0.950 . S
H1880 C1856 0.950 . S
H1881 C1857 0.949 . S
H1882 C1859 0.950 . S
H1883 C1861 0.950 . S
C1884 C1885 1.349 . S
C1884 C1886 1.327 . S
C1884 H1909 0.950 . S
C1885 C1884 1.349 . S
C1885 C1901 1.349 . S
C1886 C1884 1.327 . S
C1886 C1905 1.429 . S
C1886 H1910 0.950 . S
C1887 C1904 1.574 . S
C1887 C1906 1.368 . S
C1887 H1911 0.949 . S
H1888 C1892 0.973 . S
C1889 C1890 1.349 1_565 S
C1889 C1891 1.327 . S
C1889 H1912 0.950 . S
C1890 C1889 1.349 1_545 S
C1890 C1902 1.349 . S
C1891 C1889 1.327 . S
C1891 C1907 1.429 . S
C1891 H1913 0.950 . S
C1892 H1888 0.973 . S
C1892 C1900 1.574 . S
C1892 C1908 1.368 . S
H1893 C1901 0.950 . S
H1894 C1899 0.950 . S
H1895 C1900 0.949 . S
H1896 C1902 0.950 . S
H1897 C1903 0.950 . S
H1898 C1904 0.949 . S
C1899 H1894 0.950 . S
C1899 C1901 1.327 . S
C1899 C1905 1.429 . S
C1900 C1892 1.574 . S
C1900 H1895 0.949 . S
C1900 C1906 1.368 . S
C1901 C1885 1.349 . S
C1901 H1893 0.950 . S
C1901 C1899 1.327 . S
C1902 C1890 1.349 . S
C1902 H1896 0.950 . S
C1902 C1903 1.327 . S
C1903 H1897 0.950 . S
C1903 C1902 1.327 . S
C1903 C1907 1.429 1_545 S
C1904 C1887 1.574 . S
C1904 H1898 0.949 . S
C1904 C1908 1.368 . S
C1905 C1886 1.429 . S
C1905 C1899 1.429 . S
C1905 C1906 1.523 . S
C1906 C1887 1.368 . S
C1906 C1900 1.368 . S
C1906 C1905 1.523 . S
C1907 C1891 1.429 . S
C1907 C1903 1.429 1_565 S
C1907 C1908 1.523 . S
C1908 C1892 1.368 . S
C1908 C1904 1.368 . S
C1908 C1907 1.523 . S
H1909 C1884 0.950 . S
H1910 C1886 0.950 . S
H1911 C1887 0.949 . S
H1912 C1889 0.950 . S
H1913 C1891 0.950 . S
C1914 C1915 1.349 . S
C1914 C1916 1.327 1_655 S
C1914 H1939 0.950 . S
C1915 C1914 1.349 . S
C1915 C1931 1.349 1_655 S
C1916 C1914 1.327 1_455 S
C1916 C1935 1.429 . S
C1916 H1940 0.950 . S
C1917 C1934 1.574 . S
C1917 C1936 1.368 . S
C1917 H1941 0.949 . S
H1918 C1922 0.949 . S
C1919 C1920 1.349 . S
C1919 C1921 1.327 . S
C1919 H1942 0.950 . S
C1920 C1919 1.349 . S
C1920 C1932 1.349 . S
C1921 C1919 1.327 . S
C1921 C1937 1.429 . S
C1921 H1943 0.950 . S
C1922 H1918 0.949 . S
C1922 C1930 1.574 . S
C1922 C1938 1.368 . S
H1923 C1931 0.950 . S
H1924 C1929 0.950 . S
H1925 C1930 0.949 . S
H1926 C1932 0.950 . S
H1927 C1933 0.950 . S
H1928 C1934 0.949 . S
C1929 H1924 0.950 . S
C1929 C1931 1.327 . S
C1929 C1935 1.429 . S
C1930 C1922 1.574 . S
C1930 H1925 0.949 . S
C1930 C1936 1.368 . S
C1931 C1915 1.349 1_455 S
C1931 H1923 0.950 . S
C1931 C1929 1.327 . S
C1932 C1920 1.349 . S
C1932 H1926 0.950 . S
C1932 C1933 1.327 . S
C1933 H1927 0.950 . S
C1933 C1932 1.327 . S
C1933 C1937 1.429 . S
C1934 C1917 1.574 . S
C1934 H1928 0.949 . S
C1934 C1938 1.368 . S
C1935 C1916 1.429 . S
C1935 C1929 1.429 . S
C1935 C1936 1.523 . S
C1936 C1917 1.368 . S
C1936 C1930 1.368 . S
C1936 C1935 1.523 . S
C1937 C1921 1.429 . S
C1937 C1933 1.429 . S
C1937 C1938 1.523 . S
C1938 C1922 1.368 . S
C1938 C1934 1.368 . S
C1938 C1937 1.523 . S
H1939 C1914 0.950 . S
H1940 C1916 0.950 . S
H1941 C1917 0.949 . S
H1942 C1919 0.950 . S
H1943 C1921 0.950 . S
C1944 C1945 1.349 . S
C1944 C1946 1.327 . S
C1944 H1969 0.950 . S
C1945 C1944 1.349 . S
C1945 C1961 1.349 . S
C1946 C1944 1.327 . S
C1946 C1965 1.429 . S
C1946 H1970 0.950 . S
C1947 C1964 1.574 . S
C1947 C1966 1.368 . S
C1947 H1971 0.949 . S
H1948 C1952 0.949 . S
C1949 C1950 1.349 . S
C1949 C1951 1.327 . S
C1949 H1972 0.950 . S
C1950 C1949 1.349 . S
C1950 C1962 1.349 . S
C1951 C1949 1.327 . S
C1951 C1967 1.429 . S
C1951 H1973 0.950 . S
C1952 H1948 0.949 . S
C1952 C1960 1.574 . S
C1952 C1968 1.368 . S
H1953 C1961 0.950 . S
H1954 C1959 0.950 . S
H1955 C1960 0.949 . S
H1956 C1962 0.950 . S
H1957 C1963 0.950 . S
H1958 C1964 0.949 . S
C1959 H1954 0.950 . S
C1959 C1961 1.327 . S
C1959 C1965 1.429 . S
C1960 C1952 1.574 . S
C1960 H1955 0.949 . S
C1960 C1966 1.368 . S
C1961 C1945 1.349 . S
C1961 H1953 0.950 . S
C1961 C1959 1.327 . S
C1962 C1950 1.349 . S
C1962 H1956 0.950 . S
C1962 C1963 1.327 . S
C1963 H1957 0.950 . S
C1963 C1962 1.327 . S
C1963 C1967 1.429 . S
C1964 C1947 1.574 . S
C1964 H1958 0.949 . S
C1964 C1968 1.368 . S
C1965 C1946 1.429 . S
C1965 C1959 1.429 . S
C1965 C1966 1.523 . S
C1966 C1947 1.368 . S
C1966 C1960 1.368 . S
C1966 C1965 1.523 . S
C1967 C1951 1.429 . S
C1967 C1963 1.429 . S
C1967 C1968 1.523 . S
C1968 C1952 1.368 . S
C1968 C1964 1.368 . S
C1968 C1967 1.523 . S
H1969 C1944 0.950 . S
H1970 C1946 0.950 . S
H1971 C1947 0.949 . S
H1972 C1949 0.950 . S
H1973 C1951 0.950 . S
C1974 C1975 1.349 . S
C1974 C1976 1.327 . S
C1974 H1999 0.950 . S
C1975 C1974 1.349 . S
C1975 C1991 1.349 . S
C1976 C1974 1.327 . S
C1976 C1995 1.429 . S
C1976 H2000 0.950 . S
C1977 C1994 1.574 . S
C1977 C1996 1.368 . S
C1977 H2001 0.949 . S
H1978 C1982 0.949 . S
C1979 C1980 1.349 . S
C1979 C1981 1.327 1_545 S
C1979 H2002 0.950 . S
C1980 C1979 1.349 . S
C1980 C1992 1.349 1_545 S
C1981 C1979 1.327 1_565 S
C1981 C1997 1.429 . S
C1981 H2003 0.950 . S
C1982 H1978 0.949 . S
C1982 C1990 1.574 . S
C1982 C1998 1.368 . S
H1983 C1991 0.950 . S
H1984 C1989 0.950 . S
H1985 C1990 0.949 . S
H1986 C1992 0.950 . S
H1987 C1993 0.950 . S
H1988 C1994 0.949 . S
C1989 H1984 0.950 . S
C1989 C1991 1.327 . S
C1989 C1995 1.429 . S
C1990 C1982 1.574 . S
C1990 H1985 0.949 . S
C1990 C1996 1.368 . S
C1991 C1975 1.349 . S
C1991 H1983 0.950 . S
C1991 C1989 1.327 . S
C1992 C1980 1.349 1_565 S
C1992 H1986 0.950 . S
C1992 C1993 1.327 . S
C1993 H1987 0.950 . S
C1993 C1992 1.327 . S
C1993 C1997 1.429 . S
C1994 C1977 1.574 . S
C1994 H1988 0.949 . S
C1994 C1998 1.368 . S
C1995 C1976 1.429 . S
C1995 C1989 1.429 . S
C1995 C1996 1.523 . S
C1996 C1977 1.368 . S
C1996 C1990 1.368 . S
C1996 C1995 1.523 . S
C1997 C1981 1.429 . S
C1997 C1993 1.429 . S
C1997 C1998 1.523 . S
C1998 C1982 1.368 . S
C1998 C1994 1.368 . S
C1998 C1997 1.523 . S
H1999 C1974 0.950 . S
H2000 C1976 0.950 . S
H2001 C1977 0.949 . S
H2002 C1979 0.950 . S
H2003 C1981 0.950 . S
C2004 C2005 1.349 . S
C2004 C2006 1.327 . S
C2004 H2029 0.950 . S
C2005 C2004 1.349 . S
C2005 C2021 1.349 . S
C2006 C2004 1.327 . S
C2006 C2025 1.429 . S
C2006 H2030 0.950 . S
C2007 C2024 1.574 . S
C2007 C2026 1.368 . S
C2007 H2031 0.949 . S
H2008 C2012 0.949 . S
C2009 C2010 1.349 1_455 S
C2009 C2011 1.327 . S
C2009 H2032 0.950 . S
C2010 C2009 1.349 1_655 S
C2010 C2022 1.349 . S
C2011 C2009 1.327 . S
C2011 C2027 1.429 . S
C2011 H2033 0.950 . S
C2012 H2008 0.949 . S
C2012 C2020 1.574 . S
C2012 C2028 1.368 . S
H2013 C2021 0.950 . S
H2014 C2019 0.950 . S
H2015 C2020 0.949 . S
H2016 C2022 0.950 . S
H2017 C2023 0.950 . S
H2018 C2024 0.949 . S
C2019 H2014 0.950 . S
C2019 C2021 1.327 . S
C2019 C2025 1.429 . S
C2020 C2012 1.574 . S
C2020 H2015 0.949 . S
C2020 C2026 1.368 . S
C2021 C2005 1.349 . S
C2021 H2013 0.950 . S
C2021 C2019 1.327 . S
C2022 C2010 1.349 . S
C2022 H2016 0.950 . S
C2022 C2023 1.327 . S
C2023 H2017 0.950 . S
C2023 C2022 1.327 . S
C2023 C2027 1.429 1_655 S
C2024 C2007 1.574 . S
C2024 H2018 0.949 . S
C2024 C2028 1.368 . S
C2025 C2006 1.429 . S
C2025 C2019 1.429 . S
C2025 C2026 1.523 . S
C2026 C2007 1.368 . S
C2026 C2020 1.368 . S
C2026 C2025 1.523 . S
C2027 C2011 1.429 . S
C2027 C2023 1.429 1_455 S
C2027 C2028 1.523 . S
C2028 C2012 1.368 . S
C2028 C2024 1.368 . S
C2028 C2027 1.523 . S
H2029 C2004 0.950 . S
H2030 C2006 0.950 . S
H2031 C2007 0.949 . S
H2032 C2009 0.950 . S
H2033 C2011 0.950 . S
C2034 C2035 1.349 . S
C2034 C2036 1.327 . S
C2034 H2059 0.950 . S
C2035 C2034 1.349 . S
C2035 C2051 1.349 . S
C2036 C2034 1.327 . S
C2036 C2055 1.429 . S
C2036 H2060 0.950 . S
C2037 C2054 1.574 . S
C2037 C2056 1.368 . S
C2037 H2061 0.949 . S
H2038 C2042 0.949 . S
C2039 C2040 1.349 . S
C2039 C2041 1.327 . S
C2039 H2062 0.950 . S
C2040 C2039 1.349 . S
C2040 C2052 1.349 . S
C2041 C2039 1.327 . S
C2041 C2057 1.429 . S
C2041 H2063 0.950 . S
C2042 H2038 0.949 . S
C2042 C2050 1.574 . S
C2042 C2058 1.368 . S
H2043 C2051 0.950 . S
H2044 C2049 0.950 . S
H2045 C2050 0.949 . S
H2046 C2052 0.950 . S
H2047 C2053 0.950 . S
H2048 C2054 0.949 . S
C2049 H2044 0.950 . S
C2049 C2051 1.327 . S
C2049 C2055 1.429 . S
C2050 C2042 1.574 . S
C2050 H2045 0.949 . S
C2050 C2056 1.368 . S
C2051 C2035 1.349 . S
C2051 H2043 0.950 . S
C2051 C2049 1.327 . S
C2052 C2040 1.349 . S
C2052 H2046 0.950 . S
C2052 C2053 1.327 . S
C2053 H2047 0.950 . S
C2053 C2052 1.327 . S
C2053 C2057 1.429 . S
C2054 C2037 1.574 . S
C2054 H2048 0.949 . S
C2054 C2058 1.368 . S
C2055 C2036 1.429 . S
C2055 C2049 1.429 . S
C2055 C2056 1.523 . S
C2056 C2037 1.368 . S
C2056 C2050 1.368 . S
C2056 C2055 1.523 . S
C2057 C2041 1.429 . S
C2057 C2053 1.429 . S
C2057 C2058 1.523 . S
C2058 C2042 1.368 . S
C2058 C2054 1.368 . S
C2058 C2057 1.523 . S
H2059 C2034 0.950 . S
H2060 C2036 0.950 . S
H2061 C2037 0.949 . S
H2062 C2039 0.950 . S
H2063 C2041 0.950 . S
C2064 C2065 1.349 1_545 S
C2064 C2066 1.327 . S
C2064 H2089 0.950 . S
C2065 C2064 1.349 1_565 S
C2065 C2081 1.349 . S
C2066 C2064 1.327 . S
C2066 C2085 1.429 . S
C2066 H2090 0.950 . S
C2067 C2084 1.574 . S
C2067 C2086 1.368 . S
C2067 H2091 0.949 . S
H2068 C2072 0.949 . S
C2069 C2070 1.349 . S
C2069 C2071 1.327 . S
C2069 H2092 0.950 . S
C2070 C2069 1.349 . S
C2070 C2082 1.349 . S
C2071 C2069 1.327 . S
C2071 C2087 1.429 . S
C2071 H2093 0.950 . S
C2072 H2068 0.949 . S
C2072 C2080 1.574 . S
C2072 C2088 1.368 . S
H2073 C2081 0.950 . S
H2074 C2079 0.950 . S
H2075 C2080 0.949 . S
H2076 C2082 0.950 . S
H2077 C2083 0.950 . S
H2078 C2084 0.949 . S
C2079 H2074 0.950 . S
C2079 C2081 1.327 . S
C2079 C2085 1.429 1_565 S
C2080 C2072 1.574 . S
C2080 H2075 0.949 . S
C2080 C2086 1.368 . S
C2081 C2065 1.349 . S
C2081 H2073 0.950 . S
C2081 C2079 1.327 . S
C2082 C2070 1.349 . S
C2082 H2076 0.950 . S
C2082 C2083 1.327 . S
C2083 H2077 0.950 . S
C2083 C2082 1.327 . S
C2083 C2087 1.429 . S
C2084 C2067 1.574 . S
C2084 H2078 0.949 . S
C2084 C2088 1.368 . S
C2085 C2066 1.429 . S
C2085 C2079 1.429 1_545 S
C2085 C2086 1.523 . S
C2086 C2067 1.368 . S
C2086 C2080 1.368 . S
C2086 C2085 1.523 . S
C2087 C2071 1.429 . S
C2087 C2083 1.429 . S
C2087 C2088 1.523 . S
C2088 C2072 1.368 . S
C2088 C2084 1.368 . S
C2088 C2087 1.523 . S
H2089 C2064 0.950 . S
H2090 C2066 0.950 . S
H2091 C2067 0.949 . S
H2092 C2069 0.950 . S
H2093 C2071 0.950 . S
C2094 C2095 1.349 . S
C2094 C2096 1.329 1_455 S
C2094 H2119 0.950 . S
C2095 C2094 1.349 . S
C2095 C2111 1.349 1_455 S
C2096 C2094 1.329 1_655 S
C2096 C2115 1.454 . S
C2096 H2120 0.926 1_655 S
C2097 C2114 1.574 . S
C2097 C2116 1.368 . S
C2097 H2121 0.949 . S
H2098 C2102 0.949 . S
C2099 C2100 1.349 . S
C2099 C2101 1.327 . S
C2099 H2122 0.950 . S
C2100 C2099 1.349 . S
C2100 C2112 1.349 . S
C2101 C2099 1.327 . S
C2101 C2117 1.429 . S
C2101 H2123 0.950 . S
C2102 H2098 0.949 . S
C2102 C2110 1.574 . S
C2102 C2118 1.368 . S
H2103 C2111 0.950 . S
H2104 C2109 0.950 . S
H2105 C2110 0.949 . S
H2106 C2112 0.950 . S
H2107 C2113 0.950 . S
H2108 C2114 0.949 . S
C2109 H2104 0.950 . S
C2109 C2111 1.327 . S
C2109 C2115 1.429 . S
C2110 C2102 1.574 . S
C2110 H2105 0.949 . S
C2110 C2116 1.368 . S
C2111 C2095 1.349 1_655 S
C2111 H2103 0.950 . S
C2111 C2109 1.327 . S
C2112 C2100 1.349 . S
C2112 H2106 0.950 . S
C2112 C2113 1.327 . S
C2113 H2107 0.950 . S
C2113 C2112 1.327 . S
C2113 C2117 1.429 . S
C2114 C2097 1.574 . S
C2114 H2108 0.949 . S
C2114 C2118 1.368 . S
C2115 C2096 1.454 . S
C2115 C2109 1.429 . S
C2115 C2116 1.523 . S
C2116 C2097 1.368 . S
C2116 C2110 1.368 . S
C2116 C2115 1.523 . S
C2117 C2101 1.429 . S
C2117 C2113 1.429 . S
C2117 C2118 1.523 . S
C2118 C2102 1.368 . S
C2118 C2114 1.368 . S
C2118 C2117 1.523 . S
H2119 C2094 0.950 . S
H2120 C2096 0.926 1_455 S
H2121 C2097 0.949 . S
H2122 C2099 0.950 . S
H2123 C2101 0.950 . S
C2124 C2125 1.349 . S
C2124 C2126 1.327 . S
C2124 H2149 0.950 . S
C2125 C2124 1.349 . S
C2125 C2141 1.349 . S
C2126 C2124 1.327 . S
C2126 C2145 1.429 . S
C2126 H2150 0.950 . S
C2127 C2144 1.574 1_655 S
C2127 C2146 1.368 . S
C2127 H2151 0.949 . S
H2128 C2132 0.949 . S
C2129 C2130 1.349 . S
C2129 C2131 1.327 . S
C2129 H2152 0.950 . S
C2130 C2129 1.349 . S
C2130 C2142 1.349 . S
C2131 C2129 1.327 . S
C2131 C2147 1.429 . S
C2131 H2153 0.950 . S
C2132 H2128 0.949 . S
C2132 C2140 1.574 1_455 S
C2132 C2148 1.368 . S
H2133 C2141 0.950 . S
H2134 C2139 0.950 . S
H2135 C2140 0.949 . S
H2136 C2142 0.950 . S
H2137 C2143 0.950 . S
H2138 C2144 0.949 . S
C2139 H2134 0.950 . S
C2139 C2141 1.327 . S
C2139 C2145 1.429 . S
C2140 C2132 1.574 1_655 S
C2140 H2135 0.949 . S
C2140 C2146 1.368 . S
C2141 C2125 1.349 . S
C2141 H2133 0.950 . S
C2141 C2139 1.327 . S
C2142 C2130 1.349 . S
C2142 H2136 0.950 . S
C2142 C2143 1.327 . S
C2143 H2137 0.950 . S
C2143 C2142 1.327 . S
C2143 C2147 1.429 . S
C2144 C2127 1.574 1_455 S
C2144 H2138 0.949 . S
C2144 C2148 1.368 . S
C2145 C2126 1.429 . S
C2145 C2139 1.429 . S
C2145 C2146 1.523 . S
C2146 C2127 1.368 . S
C2146 C2140 1.368 . S
C2146 C2145 1.523 . S
C2147 C2131 1.429 . S
C2147 C2143 1.429 . S
C2147 C2148 1.523 . S
C2148 C2132 1.368 . S
C2148 C2144 1.368 . S
C2148 C2147 1.523 . S
H2149 C2124 0.950 . S
H2150 C2126 0.950 . S
H2151 C2127 0.949 . S
H2152 C2129 0.950 . S
H2153 C2131 0.950 . S
C2154 C2155 1.349 . S
C2154 C2156 1.327 . S
C2154 H2179 0.950 . S
C2155 C2154 1.349 . S
C2155 C2171 1.349 . S
C2156 C2154 1.327 . S
C2156 C2175 1.429 . S
C2156 H2180 0.950 . S
C2157 C2174 1.574 . S
C2157 C2176 1.368 . S
C2157 H2181 0.949 . S
H2158 C2162 0.949 . S
C2159 C2160 1.349 . S
C2159 C2161 1.327 . S
C2159 H2182 0.950 . S
C2160 C2159 1.349 . S
C2160 C2172 1.349 . S
C2161 C2159 1.327 . S
C2161 C2177 1.429 . S
C2161 H2183 0.950 . S
C2162 H2158 0.949 . S
C2162 C2170 1.574 . S
C2162 C2178 1.368 . S
H2163 C2171 0.950 . S
H2164 C2169 0.950 . S
H2165 C2170 0.949 . S
H2166 C2172 0.950 . S
H2167 C2173 0.950 . S
H2168 C2174 0.949 . S
C2169 H2164 0.950 . S
C2169 C2171 1.327 . S
C2169 C2175 1.429 . S
C2170 C2162 1.574 . S
C2170 H2165 0.949 . S
C2170 C2176 1.368 . S
C2171 C2155 1.349 . S
C2171 H2163 0.950 . S
C2171 C2169 1.327 . S
C2172 C2160 1.349 . S
C2172 H2166 0.950 . S
C2172 C2173 1.327 . S
C2173 H2167 0.950 . S
C2173 C2172 1.327 . S
C2173 C2177 1.429 . S
C2174 C2157 1.574 . S
C2174 H2168 0.949 . S
C2174 C2178 1.368 . S
C2175 C2156 1.429 . S
C2175 C2169 1.429 . S
C2175 C2176 1.523 . S
C2176 C2157 1.368 . S
C2176 C2170 1.368 . S
C2176 C2175 1.523 . S
C2177 C2161 1.429 . S
C2177 C2173 1.429 . S
C2177 C2178 1.523 . S
C2178 C2162 1.368 . S
C2178 C2174 1.368 . S
C2178 C2177 1.523 . S
H2179 C2154 0.950 . S
H2180 C2156 0.950 . S
H2181 C2157 0.949 . S
H2182 C2159 0.950 . S
H2183 C2161 0.950 . S
C2184 C2185 1.349 . S
C2184 C2186 1.327 . S
C2184 H2209 0.950 . S
C2185 C2184 1.349 . S
C2185 C2201 1.349 . S
C2186 C2184 1.327 . S
C2186 C2205 1.429 . S
C2186 H2210 0.950 . S
C2187 C2204 1.574 1_545 S
C2187 C2206 1.368 . S
C2187 H2211 0.949 . S
H2188 C2192 0.949 . S
C2189 C2190 1.349 . S
C2189 C2191 1.327 . S
C2189 H2212 0.950 . S
C2190 C2189 1.349 . S
C2190 C2202 1.349 . S
C2191 C2189 1.327 . S
C2191 C2207 1.429 . S
C2191 H2213 0.950 . S
C2192 H2188 0.949 . S
C2192 C2200 1.574 1_565 S
C2192 C2208 1.368 . S
H2193 C2201 0.950 . S
H2194 C2199 0.950 . S
H2195 C2200 0.949 . S
H2196 C2202 0.950 . S
H2197 C2203 0.950 . S
H2198 C2204 0.949 . S
C2199 H2194 0.950 . S
C2199 C2201 1.327 . S
C2199 C2205 1.429 . S
C2200 C2192 1.574 1_545 S
C2200 H2195 0.949 . S
C2200 C2206 1.368 . S
C2201 C2185 1.349 . S
C2201 H2193 0.950 . S
C2201 C2199 1.327 . S
C2202 C2190 1.349 . S
C2202 H2196 0.950 . S
C2202 C2203 1.327 . S
C2203 H2197 0.950 . S
C2203 C2202 1.327 . S
C2203 C2207 1.429 . S
C2204 C2187 1.574 1_565 S
C2204 H2198 0.949 . S
C2204 C2208 1.368 . S
C2205 C2186 1.429 . S
C2205 C2199 1.429 . S
C2205 C2206 1.523 . S
C2206 C2187 1.368 . S
C2206 C2200 1.368 . S
C2206 C2205 1.523 . S
C2207 C2191 1.429 . S
C2207 C2203 1.429 . S
C2207 C2208 1.523 . S
C2208 C2192 1.368 . S
C2208 C2204 1.368 . S
C2208 C2207 1.523 . S
H2209 C2184 0.950 . S
H2210 C2186 0.950 . S
H2211 C2187 0.949 . S
H2212 C2189 0.950 . S
H2213 C2191 0.950 . S
C2214 C2215 1.349 . S
C2214 C2216 1.327 . S
C2214 H2239 0.950 . S
C2215 C2214 1.349 . S
C2215 C2231 1.349 . S
C2216 C2214 1.327 . S
C2216 C2235 1.429 . S
C2216 H2240 0.950 . S
C2217 C2234 1.574 1_545 S
C2217 C2236 1.368 . S
C2217 H2241 0.949 . S
H2218 C2222 0.949 . S
C2219 C2220 1.349 . S
C2219 C2221 1.327 . S
C2219 H2242 0.950 . S
C2220 C2219 1.349 . S
C2220 C2232 1.349 . S
C2221 C2219 1.327 . S
C2221 C2237 1.429 . S
C2221 H2243 0.950 . S
C2222 H2218 0.949 . S
C2222 C2230 1.574 1_565 S
C2222 C2238 1.368 . S
H2223 C2231 0.950 . S
H2224 C2229 0.950 . S
H2225 C2230 0.949 . S
H2226 C2232 0.950 . S
H2227 C2233 0.950 . S
H2228 C2234 0.949 . S
C2229 H2224 0.950 . S
C2229 C2231 1.327 . S
C2229 C2235 1.429 . S
C2230 C2222 1.574 1_545 S
C2230 H2225 0.949 . S
C2230 C2236 1.368 . S
C2231 C2215 1.349 . S
C2231 H2223 0.950 . S
C2231 C2229 1.327 . S
C2232 C2220 1.349 . S
C2232 H2226 0.950 . S
C2232 C2233 1.327 . S
C2233 H2227 0.950 . S
C2233 C2232 1.327 . S
C2233 C2237 1.429 . S
C2234 C2217 1.574 1_565 S
C2234 H2228 0.949 . S
C2234 C2238 1.368 . S
C2235 C2216 1.429 . S
C2235 C2229 1.429 . S
C2235 C2236 1.523 . S
C2236 C2217 1.368 . S
C2236 C2230 1.368 . S
C2236 C2235 1.523 . S
C2237 C2221 1.429 . S
C2237 C2233 1.429 . S
C2237 C2238 1.523 . S
C2238 C2222 1.368 . S
C2238 C2234 1.368 . S
C2238 C2237 1.523 . S
H2239 C2214 0.950 . S
H2240 C2216 0.950 . S
H2241 C2217 0.949 . S
H2242 C2219 0.950 . S
H2243 C2221 0.950 . S
C2244 C2245 1.349 . S
C2244 C2246 1.327 . S
C2244 H2269 0.950 . S
C2245 C2244 1.349 . S
C2245 C2261 1.349 . S
C2246 C2244 1.327 . S
C2246 C2265 1.429 . S
C2246 H2270 0.950 . S
C2247 C2264 1.574 1_455 S
C2247 C2266 1.368 . S
C2247 H2271 0.949 . S
H2248 C2252 0.949 . S
C2249 C2250 1.349 . S
C2249 C2251 1.327 . S
C2249 H2272 0.950 . S
C2250 C2249 1.349 . S
C2250 C2262 1.349 . S
C2251 C2249 1.327 . S
C2251 C2267 1.429 . S
C2251 H2273 0.950 . S
C2252 H2248 0.949 . S
C2252 C2260 1.574 1_655 S
C2252 C2268 1.368 . S
H2253 C2261 0.950 . S
H2254 C2259 0.950 . S
H2255 C2260 0.949 . S
H2256 C2262 0.950 . S
H2257 C2263 0.950 . S
H2258 C2264 0.949 . S
C2259 H2254 0.950 . S
C2259 C2261 1.327 . S
C2259 C2265 1.429 . S
C2260 C2252 1.574 1_455 S
C2260 H2255 0.949 . S
C2260 C2266 1.368 . S
C2261 C2245 1.349 . S
C2261 H2253 0.950 . S
C2261 C2259 1.327 . S
C2262 C2250 1.349 . S
C2262 H2256 0.950 . S
C2262 C2263 1.327 . S
C2263 H2257 0.950 . S
C2263 C2262 1.327 . S
C2263 C2267 1.429 . S
C2264 C2247 1.574 1_655 S
C2264 H2258 0.949 . S
C2264 C2268 1.368 . S
C2265 C2246 1.429 . S
C2265 C2259 1.429 . S
C2265 C2266 1.523 . S
C2266 C2247 1.368 . S
C2266 C2260 1.368 . S
C2266 C2265 1.523 . S
C2267 C2251 1.429 . S
C2267 C2263 1.429 . S
C2267 C2268 1.523 . S
C2268 C2252 1.368 . S
C2268 C2264 1.368 . S
C2268 C2267 1.523 . S
H2269 C2244 0.950 . S
H2270 C2246 0.950 . S
H2271 C2247 0.949 . S
H2272 C2249 0.950 . S
H2273 C2251 0.950 . S
C2274 C2275 1.349 . S
C2274 C2276 1.327 . S
C2274 H2299 0.950 . S
C2275 C2274 1.349 . S
C2275 C2291 1.349 . S
C2276 C2274 1.327 . S
C2276 C2295 1.429 . S
C2276 H2300 0.950 . S
C2277 C2294 1.574 . S
C2277 C2296 1.368 . S
C2277 H2301 0.949 . S
H2278 C2282 0.949 . S
C2279 C2280 1.349 . S
C2279 C2281 1.327 . S
C2279 H2302 0.950 . S
C2280 C2279 1.349 . S
C2280 C2292 1.349 . S
C2281 C2279 1.327 . S
C2281 C2297 1.429 . S
C2281 H2303 0.950 . S
C2282 H2278 0.949 . S
C2282 C2290 1.574 . S
C2282 C2298 1.368 . S
H2283 C2291 0.950 . S
H2284 C2289 0.950 . S
H2285 C2290 0.949 . S
H2286 C2292 0.950 . S
H2287 C2293 0.950 . S
H2288 C2294 0.949 . S
C2289 H2284 0.950 . S
C2289 C2291 1.327 . S
C2289 C2295 1.429 . S
C2290 C2282 1.574 . S
C2290 H2285 0.949 . S
C2290 C2296 1.368 . S
C2291 C2275 1.349 . S
C2291 H2283 0.950 . S
C2291 C2289 1.327 . S
C2292 C2280 1.349 . S
C2292 H2286 0.950 . S
C2292 C2293 1.327 . S
C2293 H2287 0.950 . S
C2293 C2292 1.327 . S
C2293 C2297 1.429 . S
C2294 C2277 1.574 . S
C2294 H2288 0.949 . S
C2294 C2298 1.368 . S
C2295 C2276 1.429 . S
C2295 C2289 1.429 . S
C2295 C2296 1.523 . S
C2296 C2277 1.368 . S
C2296 C2290 1.368 . S
C2296 C2295 1.523 . S
C2297 C2281 1.429 . S
C2297 C2293 1.429 . S
C2297 C2298 1.523 . S
C2298 C2282 1.368 . S
C2298 C2294 1.368 . S
C2298 C2297 1.523 . S
H2299 C2274 0.950 . S
H2300 C2276 0.950 . S
H2301 C2277 0.949 . S
H2302 C2279 0.950 . S
H2303 C2281 0.950 . S
C2304 C2305 1.349 . S
C2304 C2306 1.327 . S
C2304 H2329 0.950 . S
C2305 C2304 1.349 . S
C2305 C2321 1.349 . S
C2306 C2304 1.327 . S
C2306 C2325 1.429 . S
C2306 H2330 0.950 . S
C2307 C2324 1.574 . S
C2307 C2326 1.368 . S
C2307 H2331 0.949 . S
H2308 C2312 0.949 . S
C2309 C2310 1.349 . S
C2309 C2311 1.327 . S
C2309 H2332 0.950 . S
C2310 C2309 1.349 . S
C2310 C2322 1.349 . S
C2311 C2309 1.327 . S
C2311 C2327 1.429 . S
C2311 H2333 0.950 . S
C2312 H2308 0.949 . S
C2312 C2320 1.574 . S
C2312 C2328 1.368 . S
H2313 C2321 0.950 . S
H2314 C2319 0.950 . S
H2315 C2320 0.949 . S
H2316 C2322 0.950 . S
H2317 C2323 0.950 . S
H2318 C2324 0.949 . S
C2319 H2314 0.950 . S
C2319 C2321 1.327 . S
C2319 C2325 1.429 . S
C2320 C2312 1.574 . S
C2320 H2315 0.949 . S
C2320 C2326 1.368 . S
C2321 C2305 1.349 . S
C2321 H2313 0.950 . S
C2321 C2319 1.327 . S
C2322 C2310 1.349 . S
C2322 H2316 0.950 . S
C2322 C2323 1.327 . S
C2323 H2317 0.950 . S
C2323 C2322 1.327 . S
C2323 C2327 1.429 . S
C2324 C2307 1.574 . S
C2324 H2318 0.949 . S
C2324 C2328 1.368 . S
C2325 C2306 1.429 . S
C2325 C2319 1.429 . S
C2325 C2326 1.523 . S
C2326 C2307 1.368 . S
C2326 C2320 1.368 . S
C2326 C2325 1.523 . S
C2327 C2311 1.429 . S
C2327 C2323 1.429 . S
C2327 C2328 1.523 . S
C2328 C2312 1.368 . S
C2328 C2324 1.368 . S
C2328 C2327 1.523 . S
H2329 C2304 0.950 . S
H2330 C2306 0.950 . S
H2331 C2307 0.949 . S
H2332 C2309 0.950 . S
H2333 C2311 0.950 . S
C2334 C2335 1.349 . S
C2334 C2336 1.327 . S
C2334 H2359 0.950 . S
C2335 C2334 1.349 . S
C2335 C2351 1.349 . S
C2336 C2334 1.327 . S
C2336 C2355 1.429 . S
C2336 H2360 0.950 . S
C2337 C2354 1.574 . S
C2337 C2356 1.368 . S
C2337 H2361 0.949 . S
H2338 C2342 0.949 . S
C2339 C2340 1.349 . S
C2339 C2341 1.327 . S
C2339 H2362 0.950 . S
C2340 C2339 1.349 . S
C2340 C2352 1.349 . S
C2341 C2339 1.327 . S
C2341 C2357 1.429 . S
C2341 H2363 0.950 . S
C2342 H2338 0.949 . S
C2342 C2350 1.574 . S
C2342 C2358 1.368 . S
H2343 C2351 0.950 . S
H2344 C2349 0.950 . S
H2345 C2350 0.949 . S
H2346 C2352 0.950 . S
H2347 C2353 0.950 . S
H2348 C2354 0.949 . S
C2349 H2344 0.950 . S
C2349 C2351 1.327 . S
C2349 C2355 1.429 . S
C2350 C2342 1.574 . S
C2350 H2345 0.949 . S
C2350 C2356 1.368 . S
C2351 C2335 1.349 . S
C2351 H2343 0.950 . S
C2351 C2349 1.327 . S
C2352 C2340 1.349 . S
C2352 H2346 0.950 . S
C2352 C2353 1.327 . S
C2353 H2347 0.950 . S
C2353 C2352 1.327 . S
C2353 C2357 1.429 . S
C2354 C2337 1.574 . S
C2354 H2348 0.949 . S
C2354 C2358 1.368 . S
C2355 C2336 1.429 . S
C2355 C2349 1.429 . S
C2355 C2356 1.523 . S
C2356 C2337 1.368 . S
C2356 C2350 1.368 . S
C2356 C2355 1.523 . S
C2357 C2341 1.429 . S
C2357 C2353 1.429 . S
C2357 C2358 1.523 . S
C2358 C2342 1.368 . S
C2358 C2354 1.368 . S
C2358 C2357 1.523 . S
H2359 C2334 0.950 . S
H2360 C2336 0.950 . S
H2361 C2337 0.949 . S
H2362 C2339 0.950 . S
H2363 C2341 0.950 . S
C2364 C2365 1.349 . S
C2364 C2366 1.327 . S
C2364 H2389 0.950 . S
C2365 C2364 1.349 . S
C2365 C2381 1.349 . S
C2366 C2364 1.327 . S
C2366 C2385 1.429 . S
C2366 H2390 0.950 . S
C2367 C2384 1.574 . S
C2367 C2386 1.368 . S
C2367 H2391 0.949 . S
H2368 C2372 0.949 . S
C2369 C2370 1.349 . S
C2369 C2371 1.327 . S
C2369 H2392 0.950 . S
C2370 C2369 1.349 . S
C2370 C2382 1.349 . S
C2371 C2369 1.327 . S
C2371 C2387 1.429 . S
C2371 H2393 0.950 . S
C2372 H2368 0.949 . S
C2372 C2380 1.574 . S
C2372 C2388 1.368 . S
H2373 C2381 0.950 . S
H2374 C2379 0.950 . S
H2375 C2380 0.949 . S
H2376 C2382 0.950 . S
H2377 C2383 0.950 . S
H2378 C2384 0.949 . S
C2379 H2374 0.950 . S
C2379 C2381 1.327 . S
C2379 C2385 1.429 . S
C2380 C2372 1.574 . S
C2380 H2375 0.949 . S
C2380 C2386 1.368 . S
C2381 C2365 1.349 . S
C2381 H2373 0.950 . S
C2381 C2379 1.327 . S
C2382 C2370 1.349 . S
C2382 H2376 0.950 . S
C2382 C2383 1.327 . S
C2383 H2377 0.950 . S
C2383 C2382 1.327 . S
C2383 C2387 1.429 . S
C2384 C2367 1.574 . S
C2384 H2378 0.949 . S
C2384 C2388 1.368 . S
C2385 C2366 1.429 . S
C2385 C2379 1.429 . S
C2385 C2386 1.523 . S
C2386 C2367 1.368 . S
C2386 C2380 1.368 . S
C2386 C2385 1.523 . S
C2387 C2371 1.429 . S
C2387 C2383 1.429 . S
C2387 C2388 1.523 . S
C2388 C2372 1.368 . S
C2388 C2384 1.368 . S
C2388 C2387 1.523 . S
H2389 C2364 0.950 . S
H2390 C2366 0.950 . S
H2391 C2367 0.949 . S
H2392 C2369 0.950 . S
H2393 C2371 0.950 . S
C2394 C2395 1.349 . S
C2394 C2396 1.327 . S
C2394 H2419 0.950 . S
C2395 C2394 1.349 . S
C2395 C2411 1.349 . S
C2396 C2394 1.327 . S
C2396 C2415 1.429 . S
C2396 H2420 0.950 . S
C2397 C2414 1.574 . S
C2397 C2416 1.368 . S
C2397 H2421 0.949 . S
H2398 C2402 0.949 . S
C2399 C2400 1.349 . S
C2399 C2401 1.327 . S
C2399 H2422 0.950 . S
C2400 C2399 1.349 . S
C2400 C2412 1.349 . S
C2401 C2399 1.327 . S
C2401 C2417 1.429 . S
C2401 H2423 0.950 . S
C2402 H2398 0.949 . S
C2402 C2410 1.574 . S
C2402 C2418 1.368 . S
H2403 C2411 0.950 . S
H2404 C2409 0.950 . S
H2405 C2410 0.949 . S
H2406 C2412 0.950 . S
H2407 C2413 0.950 . S
H2408 C2414 0.949 . S
C2409 H2404 0.950 . S
C2409 C2411 1.327 . S
C2409 C2415 1.429 . S
C2410 C2402 1.574 . S
C2410 H2405 0.949 . S
C2410 C2416 1.368 . S
C2411 C2395 1.349 . S
C2411 H2403 0.950 . S
C2411 C2409 1.327 . S
C2412 C2400 1.349 . S
C2412 H2406 0.950 . S
C2412 C2413 1.327 . S
C2413 H2407 0.950 . S
C2413 C2412 1.327 . S
C2413 C2417 1.429 . S
C2414 C2397 1.574 . S
C2414 H2408 0.949 . S
C2414 C2418 1.368 . S
C2415 C2396 1.429 . S
C2415 C2409 1.429 . S
C2415 C2416 1.523 . S
C2416 C2397 1.368 . S
C2416 C2410 1.368 . S
C2416 C2415 1.523 . S
C2417 C2401 1.429 . S
C2417 C2413 1.429 . S
C2417 C2418 1.523 . S
C2418 C2402 1.368 . S
C2418 C2414 1.368 . S
C2418 C2417 1.523 . S
H2419 C2394 0.950 . S
H2420 C2396 0.950 . S
H2421 C2397 0.949 . S
H2422 C2399 0.950 . S
H2423 C2401 0.950 . S
C2424 C2425 1.349 . S
C2424 C2426 1.327 . S
C2424 H2449 0.950 . S
C2425 C2424 1.349 . S
C2425 C2441 1.349 . S
C2426 C2424 1.327 . S
C2426 C2445 1.429 . S
C2426 H2450 0.950 . S
C2427 C2444 1.574 . S
C2427 C2446 1.368 . S
C2427 H2451 0.949 . S
H2428 C2432 0.949 . S
C2429 C2430 1.349 . S
C2429 C2431 1.327 . S
C2429 H2452 0.950 . S
C2430 C2429 1.349 . S
C2430 C2442 1.349 . S
C2431 C2429 1.327 . S
C2431 C2447 1.429 . S
C2431 H2453 0.950 . S
C2432 H2428 0.949 . S
C2432 C2440 1.574 . S
C2432 C2448 1.368 . S
H2433 C2441 0.950 . S
H2434 C2439 0.950 . S
H2435 C2440 0.949 . S
H2436 C2442 0.950 . S
H2437 C2443 0.950 . S
H2438 C2444 0.949 . S
C2439 H2434 0.950 . S
C2439 C2441 1.327 . S
C2439 C2445 1.429 . S
C2440 C2432 1.574 . S
C2440 H2435 0.949 . S
C2440 C2446 1.368 . S
C2441 C2425 1.349 . S
C2441 H2433 0.950 . S
C2441 C2439 1.327 . S
C2442 C2430 1.349 . S
C2442 H2436 0.950 . S
C2442 C2443 1.327 . S
C2443 H2437 0.950 . S
C2443 C2442 1.327 . S
C2443 C2447 1.429 . S
C2444 C2427 1.574 . S
C2444 H2438 0.949 . S
C2444 C2448 1.368 . S
C2445 C2426 1.429 . S
C2445 C2439 1.429 . S
C2445 C2446 1.523 . S
C2446 C2427 1.368 . S
C2446 C2440 1.368 . S
C2446 C2445 1.523 . S
C2447 C2431 1.429 . S
C2447 C2443 1.429 . S
C2447 C2448 1.523 . S
C2448 C2432 1.368 . S
C2448 C2444 1.368 . S
C2448 C2447 1.523 . S
H2449 C2424 0.950 . S
H2450 C2426 0.950 . S
H2451 C2427 0.949 . S
H2452 C2429 0.950 . S
H2453 C2431 0.950 . S
C2454 C2455 1.349 . S
C2454 C2456 1.327 . S
C2454 H2479 0.950 . S
C2455 C2454 1.349 . S
C2455 C2471 1.349 . S
C2456 C2454 1.327 . S
C2456 C2475 1.429 . S
C2456 H2480 0.950 . S
C2457 C2474 1.574 . S
C2457 C2476 1.368 . S
C2457 H2481 0.949 . S
H2458 C2462 0.949 . S
C2459 C2460 1.349 . S
C2459 C2461 1.327 . S
C2459 H2482 0.950 . S
C2460 C2459 1.349 . S
C2460 C2472 1.349 . S
C2461 C2459 1.327 . S
C2461 C2477 1.429 . S
C2461 H2483 0.950 . S
C2462 H2458 0.949 . S
C2462 C2470 1.574 . S
C2462 C2478 1.368 . S
H2463 C2471 0.950 . S
H2464 C2469 0.950 . S
H2465 C2470 0.949 . S
H2466 C2472 0.950 . S
H2467 C2473 0.950 . S
H2468 C2474 0.949 . S
C2469 H2464 0.950 . S
C2469 C2471 1.327 . S
C2469 C2475 1.429 . S
C2470 C2462 1.574 . S
C2470 H2465 0.949 . S
C2470 C2476 1.368 . S
C2471 C2455 1.349 . S
C2471 H2463 0.950 . S
C2471 C2469 1.327 . S
C2472 C2460 1.349 . S
C2472 H2466 0.950 . S
C2472 C2473 1.327 . S
C2473 H2467 0.950 . S
C2473 C2472 1.327 . S
C2473 C2477 1.429 . S
C2474 C2457 1.574 . S
C2474 H2468 0.949 . S
C2474 C2478 1.368 . S
C2475 C2456 1.429 . S
C2475 C2469 1.429 . S
C2475 C2476 1.523 . S
C2476 C2457 1.368 . S
C2476 C2470 1.368 . S
C2476 C2475 1.523 . S
C2477 C2461 1.429 . S
C2477 C2473 1.429 . S
C2477 C2478 1.523 . S
C2478 C2462 1.368 . S
C2478 C2474 1.368 . S
C2478 C2477 1.523 . S
H2479 C2454 0.950 . S
H2480 C2456 0.950 . S
H2481 C2457 0.949 . S
H2482 C2459 0.950 . S
H2483 C2461 0.950 . S
C2484 C2485 1.349 . S
C2484 C2486 1.327 . S
C2484 H2509 0.950 . S
C2485 C2484 1.349 . S
C2485 C2501 1.349 . S
C2486 C2484 1.327 . S
C2486 C2505 1.429 . S
C2486 H2510 0.950 . S
C2487 C2504 1.574 . S
C2487 C2506 1.368 . S
C2487 H2511 0.949 . S
H2488 C2492 0.949 . S
C2489 C2490 1.349 . S
C2489 C2491 1.327 . S
C2489 H2512 0.950 . S
C2490 C2489 1.349 . S
C2490 C2502 1.349 . S
C2491 C2489 1.327 . S
C2491 C2507 1.429 . S
C2491 H2513 0.950 . S
C2492 H2488 0.949 . S
C2492 C2500 1.574 . S
C2492 C2508 1.368 . S
H2493 C2501 0.950 . S
H2494 C2499 0.950 . S
H2495 C2500 0.949 . S
H2496 C2502 0.950 . S
H2497 C2503 0.950 . S
H2498 C2504 0.949 . S
C2499 H2494 0.950 . S
C2499 C2501 1.327 . S
C2499 C2505 1.429 . S
C2500 C2492 1.574 . S
C2500 H2495 0.949 . S
C2500 C2506 1.368 . S
C2501 C2485 1.349 . S
C2501 H2493 0.950 . S
C2501 C2499 1.327 . S
C2502 C2490 1.349 . S
C2502 H2496 0.950 . S
C2502 C2503 1.327 . S
C2503 H2497 0.950 . S
C2503 C2502 1.327 . S
C2503 C2507 1.429 . S
C2504 C2487 1.574 . S
C2504 H2498 0.949 . S
C2504 C2508 1.368 . S
C2505 C2486 1.429 . S
C2505 C2499 1.429 . S
C2505 C2506 1.523 . S
C2506 C2487 1.368 . S
C2506 C2500 1.368 . S
C2506 C2505 1.523 . S
C2507 C2491 1.429 . S
C2507 C2503 1.429 . S
C2507 C2508 1.523 . S
C2508 C2492 1.368 . S
C2508 C2504 1.368 . S
C2508 C2507 1.523 . S
H2509 C2484 0.950 . S
H2510 C2486 0.950 . S
H2511 C2487 0.949 . S
H2512 C2489 0.950 . S
H2513 C2491 0.950 . S
C2514 C2515 1.349 . S
C2514 C2516 1.327 . S
C2514 H2539 0.950 . S
C2515 C2514 1.349 . S
C2515 C2531 1.349 . S
C2516 C2514 1.327 . S
C2516 C2535 1.429 . S
C2516 H2540 0.950 . S
C2517 C2534 1.574 . S
C2517 C2536 1.368 . S
C2517 H2541 0.949 . S
H2518 C2522 0.949 . S
C2519 C2520 1.349 . S
C2519 C2521 1.327 . S
C2519 H2542 0.950 . S
C2520 C2519 1.349 . S
C2520 C2532 1.349 . S
C2521 C2519 1.327 . S
C2521 C2537 1.429 . S
C2521 H2543 0.950 . S
C2522 H2518 0.949 . S
C2522 C2530 1.574 . S
C2522 C2538 1.368 . S
H2523 C2531 0.950 . S
H2524 C2529 0.950 . S
H2525 C2530 0.949 . S
H2526 C2532 0.950 . S
H2527 C2533 0.950 . S
H2528 C2534 0.949 . S
C2529 H2524 0.950 . S
C2529 C2531 1.327 . S
C2529 C2535 1.429 . S
C2530 C2522 1.574 . S
C2530 H2525 0.949 . S
C2530 C2536 1.368 . S
C2531 C2515 1.349 . S
C2531 H2523 0.950 . S
C2531 C2529 1.327 . S
C2532 C2520 1.349 . S
C2532 H2526 0.950 . S
C2532 C2533 1.327 . S
C2533 H2527 0.950 . S
C2533 C2532 1.327 . S
C2533 C2537 1.429 . S
C2534 C2517 1.574 . S
C2534 H2528 0.949 . S
C2534 C2538 1.368 . S
C2535 C2516 1.429 . S
C2535 C2529 1.429 . S
C2535 C2536 1.523 . S
C2536 C2517 1.368 . S
C2536 C2530 1.368 . S
C2536 C2535 1.523 . S
C2537 C2521 1.429 . S
C2537 C2533 1.429 . S
C2537 C2538 1.523 . S
C2538 C2522 1.368 . S
C2538 C2534 1.368 . S
C2538 C2537 1.523 . S
H2539 C2514 0.950 . S
H2540 C2516 0.950 . S
H2541 C2517 0.949 . S
H2542 C2519 0.950 . S
H2543 C2521 0.950 . S
C2544 C2545 1.349 . S
C2544 C2546 1.327 . S
C2544 H2569 0.950 . S
C2545 C2544 1.349 . S
C2545 C2561 1.349 . S
C2546 C2544 1.327 . S
C2546 C2565 1.429 . S
C2546 H2570 0.950 . S
C2547 C2564 1.574 . S
C2547 C2566 1.368 . S
C2547 H2571 0.949 . S
H2548 C2552 0.949 . S
C2549 C2550 1.349 . S
C2549 C2551 1.327 . S
C2549 H2572 0.950 . S
C2550 C2549 1.349 . S
C2550 C2562 1.349 . S
C2551 C2549 1.327 . S
C2551 C2567 1.429 . S
C2551 H2573 0.950 . S
C2552 H2548 0.949 . S
C2552 C2560 1.574 . S
C2552 C2568 1.368 . S
H2553 C2561 0.950 . S
H2554 C2559 0.950 . S
H2555 C2560 0.949 . S
H2556 C2562 0.950 . S
H2557 C2563 0.950 . S
H2558 C2564 0.949 . S
C2559 H2554 0.950 . S
C2559 C2561 1.327 . S
C2559 C2565 1.429 . S
C2560 C2552 1.574 . S
C2560 H2555 0.949 . S
C2560 C2566 1.368 . S
C2561 C2545 1.349 . S
C2561 H2553 0.950 . S
C2561 C2559 1.327 . S
C2562 C2550 1.349 . S
C2562 H2556 0.950 . S
C2562 C2563 1.327 . S
C2563 H2557 0.950 . S
C2563 C2562 1.327 . S
C2563 C2567 1.429 . S
C2564 C2547 1.574 . S
C2564 H2558 0.949 . S
C2564 C2568 1.368 . S
C2565 C2546 1.429 . S
C2565 C2559 1.429 . S
C2565 C2566 1.523 . S
C2566 C2547 1.368 . S
C2566 C2560 1.368 . S
C2566 C2565 1.523 . S
C2567 C2551 1.429 . S
C2567 C2563 1.429 . S
C2567 C2568 1.523 . S
C2568 C2552 1.368 . S
C2568 C2564 1.368 . S
C2568 C2567 1.523 . S
H2569 C2544 0.950 . S
H2570 C2546 0.950 . S
H2571 C2547 0.949 . S
H2572 C2549 0.950 . S
H2573 C2551 0.950 . S
C2574 C2575 1.349 . S
C2574 C2576 1.327 . S
C2574 H2599 0.950 . S
C2575 C2574 1.349 . S
C2575 C2591 1.349 . S
C2576 C2574 1.327 . S
C2576 C2595 1.429 . S
C2576 H2600 0.950 . S
C2577 C2594 1.574 . S
C2577 C2596 1.368 . S
C2577 H2601 0.949 . S
H2578 C2582 0.949 . S
C2579 C2580 1.349 . S
C2579 C2581 1.327 . S
C2579 H2602 0.950 . S
C2580 C2579 1.349 . S
C2580 C2592 1.349 . S
C2581 C2579 1.327 . S
C2581 C2597 1.429 . S
C2581 H2603 0.950 . S
C2582 H2578 0.949 . S
C2582 C2590 1.574 . S
C2582 C2598 1.368 . S
H2583 C2591 0.950 . S
H2584 C2589 0.950 . S
H2585 C2590 0.949 . S
H2586 C2592 0.950 . S
H2587 C2593 0.950 . S
H2588 C2594 0.949 . S
C2589 H2584 0.950 . S
C2589 C2591 1.327 . S
C2589 C2595 1.429 . S
C2590 C2582 1.574 . S
C2590 H2585 0.949 . S
C2590 C2596 1.368 . S
C2591 C2575 1.349 . S
C2591 H2583 0.950 . S
C2591 C2589 1.327 . S
C2592 C2580 1.349 . S
C2592 H2586 0.950 . S
C2592 C2593 1.327 . S
C2593 H2587 0.950 . S
C2593 C2592 1.327 . S
C2593 C2597 1.429 . S
C2594 C2577 1.574 . S
C2594 H2588 0.949 . S
C2594 C2598 1.368 . S
C2595 C2576 1.429 . S
C2595 C2589 1.429 . S
C2595 C2596 1.523 . S
C2596 C2577 1.368 . S
C2596 C2590 1.368 . S
C2596 C2595 1.523 . S
C2597 C2581 1.429 . S
C2597 C2593 1.429 . S
C2597 C2598 1.523 . S
C2598 C2582 1.368 . S
C2598 C2594 1.368 . S
C2598 C2597 1.523 . S
H2599 C2574 0.950 . S
H2600 C2576 0.950 . S
H2601 C2577 0.949 . S
H2602 C2579 0.950 . S
H2603 C2581 0.950 . S
C2604 C2605 1.349 . S
C2604 C2606 1.327 . S
C2604 H2629 0.950 . S
C2605 C2604 1.349 . S
C2605 C2621 1.349 . S
C2606 C2604 1.327 . S
C2606 C2625 1.429 . S
C2606 H2630 0.950 . S
C2607 C2624 1.574 . S
C2607 C2626 1.368 . S
C2607 H2631 0.949 . S
H2608 C2612 0.949 . S
C2609 C2610 1.349 . S
C2609 C2611 1.327 . S
C2609 H2632 0.950 . S
C2610 C2609 1.349 . S
C2610 C2622 1.349 . S
C2611 C2609 1.327 . S
C2611 C2627 1.429 . S
C2611 H2633 0.950 . S
C2612 H2608 0.949 . S
C2612 C2620 1.574 . S
C2612 C2628 1.368 . S
H2613 C2621 0.950 . S
H2614 C2619 0.950 . S
H2615 C2620 0.949 . S
H2616 C2622 0.950 . S
H2617 C2623 0.950 . S
H2618 C2624 0.949 . S
C2619 H2614 0.950 . S
C2619 C2621 1.327 . S
C2619 C2625 1.429 . S
C2620 C2612 1.574 . S
C2620 H2615 0.949 . S
C2620 C2626 1.368 . S
C2621 C2605 1.349 . S
C2621 H2613 0.950 . S
C2621 C2619 1.327 . S
C2622 C2610 1.349 . S
C2622 H2616 0.950 . S
C2622 C2623 1.327 . S
C2623 H2617 0.950 . S
C2623 C2622 1.327 . S
C2623 C2627 1.429 . S
C2624 C2607 1.574 . S
C2624 H2618 0.949 . S
C2624 C2628 1.368 . S
C2625 C2606 1.429 . S
C2625 C2619 1.429 . S
C2625 C2626 1.523 . S
C2626 C2607 1.368 . S
C2626 C2620 1.368 . S
C2626 C2625 1.523 . S
C2627 C2611 1.429 . S
C2627 C2623 1.429 . S
C2627 C2628 1.523 . S
C2628 C2612 1.368 . S
C2628 C2624 1.368 . S
C2628 C2627 1.523 . S
H2629 C2604 0.950 . S
H2630 C2606 0.950 . S
H2631 C2607 0.949 . S
H2632 C2609 0.950 . S
H2633 C2611 0.950 . S
C2634 C2635 1.349 . S
C2634 C2636 1.327 . S
C2634 H2659 0.950 . S
C2635 C2634 1.349 . S
C2635 C2651 1.349 . S
C2636 C2634 1.327 . S
C2636 C2655 1.429 . S
C2636 H2660 0.950 . S
C2637 C2654 1.574 . S
C2637 C2656 1.368 . S
C2637 H2661 0.949 . S
H2638 C2642 0.949 . S
C2639 C2640 1.349 . S
C2639 C2641 1.327 . S
C2639 H2662 0.950 . S
C2640 C2639 1.349 . S
C2640 C2652 1.349 . S
C2641 C2639 1.327 . S
C2641 C2657 1.429 . S
C2641 H2663 0.950 . S
C2642 H2638 0.949 . S
C2642 C2650 1.574 . S
C2642 C2658 1.368 . S
H2643 C2651 0.950 . S
H2644 C2649 0.950 . S
H2645 C2650 0.949 . S
H2646 C2652 0.950 . S
H2647 C2653 0.950 . S
H2648 C2654 0.949 . S
C2649 H2644 0.950 . S
C2649 C2651 1.327 . S
C2649 C2655 1.429 . S
C2650 C2642 1.574 . S
C2650 H2645 0.949 . S
C2650 C2656 1.368 . S
C2651 C2635 1.349 . S
C2651 H2643 0.950 . S
C2651 C2649 1.327 . S
C2652 C2640 1.349 . S
C2652 H2646 0.950 . S
C2652 C2653 1.327 . S
C2653 H2647 0.950 . S
C2653 C2652 1.327 . S
C2653 C2657 1.429 . S
C2654 C2637 1.574 . S
C2654 H2648 0.949 . S
C2654 C2658 1.368 . S
C2655 C2636 1.429 . S
C2655 C2649 1.429 . S
C2655 C2656 1.523 . S
C2656 C2637 1.368 . S
C2656 C2650 1.368 . S
C2656 C2655 1.523 . S
C2657 C2641 1.429 . S
C2657 C2653 1.429 . S
C2657 C2658 1.523 . S
C2658 C2642 1.368 . S
C2658 C2654 1.368 . S
C2658 C2657 1.523 . S
H2659 C2634 0.950 . S
H2660 C2636 0.950 . S
H2661 C2637 0.949 . S
H2662 C2639 0.950 . S
H2663 C2641 0.950 . S
C2664 C2665 1.349 . S
C2664 C2666 1.327 . S
C2664 H2689 0.950 . S
C2665 C2664 1.349 . S
C2665 C2681 1.349 . S
C2666 C2664 1.327 . S
C2666 C2685 1.429 . S
C2666 H2690 0.950 . S
C2667 C2684 1.574 . S
C2667 C2686 1.368 1_655 S
C2667 H2691 0.949 . S
H2668 C2672 0.949 . S
C2669 C2670 1.349 . S
C2669 C2671 1.327 . S
C2669 H2692 0.950 . S
C2670 C2669 1.349 . S
C2670 C2682 1.349 . S
C2671 C2669 1.327 . S
C2671 C2687 1.429 . S
C2671 H2693 0.950 . S
C2672 H2668 0.949 . S
C2672 C2680 1.574 . S
C2672 C2688 1.368 1_455 S
H2673 C2681 0.950 . S
H2674 C2679 0.950 1_655 S
H2675 C2680 0.949 . S
H2676 C2682 0.950 . S
H2677 C2683 0.950 1_455 S
H2678 C2684 0.949 . S
C2679 H2674 0.950 1_455 S
C2679 C2681 1.327 . S
C2679 C2685 1.429 . S
C2680 C2672 1.574 . S
C2680 H2675 0.949 . S
C2680 C2686 1.368 . S
C2681 C2665 1.349 . S
C2681 H2673 0.950 . S
C2681 C2679 1.327 . S
C2682 C2670 1.349 . S
C2682 H2676 0.950 . S
C2682 C2683 1.327 . S
C2683 H2677 0.950 1_655 S
C2683 C2682 1.327 . S
C2683 C2687 1.429 . S
C2684 C2667 1.574 . S
C2684 H2678 0.949 . S
C2684 C2688 1.368 . S
C2685 C2666 1.429 . S
C2685 C2679 1.429 . S
C2685 C2686 1.523 . S
C2686 C2667 1.368 1_455 S
C2686 C2680 1.368 . S
C2686 C2685 1.523 . S
C2687 C2671 1.429 . S
C2687 C2683 1.429 . S
C2687 C2688 1.523 . S
C2688 C2672 1.368 1_655 S
C2688 C2684 1.368 . S
C2688 C2687 1.523 . S
H2689 C2664 0.950 . S
H2690 C2666 0.950 . S
H2691 C2667 0.949 . S
H2692 C2669 0.950 . S
H2693 C2671 0.950 . S
C2694 C2695 1.349 . S
C2694 C2696 1.327 . S
C2694 H2719 0.950 . S
C2695 C2694 1.349 . S
C2695 C2711 1.349 . S
C2696 C2694 1.327 . S
C2696 C2715 1.429 . S
C2696 H2720 0.950 . S
C2697 C2714 1.574 . S
C2697 C2716 1.368 . S
C2697 H2721 0.949 . S
H2698 C2702 0.949 . S
C2699 C2700 1.349 . S
C2699 C2701 1.327 . S
C2699 H2722 0.950 . S
C2700 C2699 1.349 . S
C2700 C2712 1.349 . S
C2701 C2699 1.327 . S
C2701 C2717 1.429 . S
C2701 H2723 0.950 . S
C2702 H2698 0.949 . S
C2702 C2710 1.574 . S
C2702 C2718 1.368 . S
H2703 C2711 0.950 . S
H2704 C2709 0.950 . S
H2705 C2710 0.949 . S
H2706 C2712 0.950 . S
H2707 C2713 0.950 . S
H2708 C2714 0.949 . S
C2709 H2704 0.950 . S
C2709 C2711 1.327 . S
C2709 C2715 1.429 . S
C2710 C2702 1.574 . S
C2710 H2705 0.949 . S
C2710 C2716 1.368 . S
C2711 C2695 1.349 . S
C2711 H2703 0.950 . S
C2711 C2709 1.327 . S
C2712 C2700 1.349 . S
C2712 H2706 0.950 . S
C2712 C2713 1.327 . S
C2713 H2707 0.950 . S
C2713 C2712 1.327 . S
C2713 C2717 1.429 . S
C2714 C2697 1.574 . S
C2714 H2708 0.949 . S
C2714 C2718 1.368 . S
C2715 C2696 1.429 . S
C2715 C2709 1.429 . S
C2715 C2716 1.523 . S
C2716 C2697 1.368 . S
C2716 C2710 1.368 . S
C2716 C2715 1.523 . S
C2717 C2701 1.429 . S
C2717 C2713 1.429 . S
C2717 C2718 1.523 . S
C2718 C2702 1.368 . S
C2718 C2714 1.368 . S
C2718 C2717 1.523 . S
H2719 C2694 0.950 . S
H2720 C2696 0.950 . S
H2721 C2697 0.949 . S
H2722 C2699 0.950 . S
H2723 C2701 0.950 . S
C2724 C2725 1.349 . S
C2724 C2726 1.327 . S
C2724 H2749 0.950 . S
C2725 C2724 1.349 . S
C2725 C2741 1.349 . S
C2726 C2724 1.327 . S
C2726 C2745 1.429 . S
C2726 H2750 0.950 . S
C2727 C2744 1.574 . S
C2727 C2746 1.368 1_565 S
C2727 H2751 0.949 . S
H2728 C2732 0.949 . S
C2729 C2730 1.349 . S
C2729 C2731 1.327 . S
C2729 H2752 0.950 . S
C2730 C2729 1.349 . S
C2730 C2742 1.349 . S
C2731 C2729 1.327 . S
C2731 C2747 1.429 . S
C2731 H2753 0.950 . S
C2732 H2728 0.949 . S
C2732 C2740 1.574 . S
C2732 C2748 1.368 1_545 S
H2733 C2741 0.950 . S
H2734 C2739 0.950 1_565 S
H2735 C2740 0.949 . S
H2736 C2742 0.950 . S
H2737 C2743 0.950 1_545 S
H2738 C2744 0.949 . S
C2739 H2734 0.950 1_545 S
C2739 C2741 1.327 . S
C2739 C2745 1.429 . S
C2740 C2732 1.574 . S
C2740 H2735 0.949 . S
C2740 C2746 1.368 . S
C2741 C2725 1.349 . S
C2741 H2733 0.950 . S
C2741 C2739 1.327 . S
C2742 C2730 1.349 . S
C2742 H2736 0.950 . S
C2742 C2743 1.327 . S
C2743 H2737 0.950 1_565 S
C2743 C2742 1.327 . S
C2743 C2747 1.429 . S
C2744 C2727 1.574 . S
C2744 H2738 0.949 . S
C2744 C2748 1.368 . S
C2745 C2726 1.429 . S
C2745 C2739 1.429 . S
C2745 C2746 1.523 . S
C2746 C2727 1.368 1_545 S
C2746 C2740 1.368 . S
C2746 C2745 1.523 . S
C2747 C2731 1.429 . S
C2747 C2743 1.429 . S
C2747 C2748 1.523 . S
C2748 C2732 1.368 1_565 S
C2748 C2744 1.368 . S
C2748 C2747 1.523 . S
H2749 C2724 0.950 . S
H2750 C2726 0.950 . S
H2751 C2727 0.949 . S
H2752 C2729 0.950 . S
H2753 C2731 0.950 . S
C2754 C2755 1.349 . S
C2754 C2756 1.327 . S
C2754 H2779 0.950 . S
C2755 C2754 1.349 . S
C2755 C2771 1.349 . S
C2756 C2754 1.327 . S
C2756 C2775 1.429 . S
C2756 H2780 0.950 1_565 S
C2757 C2774 1.574 1_554 S
C2757 C2776 1.368 . S
C2757 H2781 0.949 . S
H2758 C2762 0.949 . S
C2759 C2760 1.349 . S
C2759 C2761 1.327 . S
C2759 H2782 0.950 . S
C2760 C2759 1.349 . S
C2760 C2772 1.349 . S
C2761 C2759 1.327 . S
C2761 C2777 1.429 . S
C2761 H2783 0.950 1_545 S
C2762 H2758 0.949 . S
C2762 C2770 1.574 1_556 S
C2762 C2778 1.368 . S
H2763 C2771 0.950 . S
H2764 C2769 0.950 . S
H2765 C2770 0.949 . S
H2766 C2772 0.950 . S
H2767 C2773 0.950 . S
H2768 C2774 0.949 . S
C2769 H2764 0.950 . S
C2769 C2771 1.327 . S
C2769 C2775 1.429 . S
C2770 C2762 1.574 1_554 S
C2770 H2765 0.949 . S
C2770 C2776 1.368 1_545 S
C2771 C2755 1.349 . S
C2771 H2763 0.950 . S
C2771 C2769 1.327 . S
C2772 C2760 1.349 . S
C2772 H2766 0.950 . S
C2772 C2773 1.327 . S
C2773 H2767 0.950 . S
C2773 C2772 1.327 . S
C2773 C2777 1.429 . S
C2774 C2757 1.574 1_556 S
C2774 H2768 0.949 . S
C2774 C2778 1.368 1_565 S
C2775 C2756 1.429 . S
C2775 C2769 1.429 . S
C2775 C2776 1.523 . S
C2776 C2757 1.368 . S
C2776 C2770 1.368 1_565 S
C2776 C2775 1.523 . S
C2777 C2761 1.429 . S
C2777 C2773 1.429 . S
C2777 C2778 1.523 . S
C2778 C2762 1.368 . S
C2778 C2774 1.368 1_545 S
C2778 C2777 1.523 . S
H2779 C2754 0.950 . S
H2780 C2756 0.950 1_545 S
H2781 C2757 0.949 . S
H2782 C2759 0.950 . S
H2783 C2761 0.950 1_565 S
C2784 C2785 1.349 . S
C2784 C2786 1.327 . S
C2784 H2809 0.950 . S
C2785 C2784 1.349 . S
C2785 C2801 1.349 . S
C2786 C2784 1.327 . S
C2786 C2805 1.429 . S
C2786 H2810 0.950 . S
C2787 C2804 1.574 1_656 S
C2787 C2806 1.368 . S
C2787 H2811 0.949 . S
H2788 C2792 0.949 . S
C2789 C2790 1.349 . S
C2789 C2791 1.327 . S
C2789 H2812 0.950 . S
C2790 C2789 1.349 . S
C2790 C2802 1.349 . S
C2791 C2789 1.327 . S
C2791 C2807 1.429 . S
C2791 H2813 0.950 . S
C2792 H2788 0.949 . S
C2792 C2800 1.574 1_454 S
C2792 C2808 1.368 . S
H2793 C2801 0.950 . S
H2794 C2799 0.950 . S
H2795 C2800 0.949 . S
H2796 C2802 0.950 . S
H2797 C2803 0.950 . S
H2798 C2804 0.949 . S
C2799 H2794 0.950 . S
C2799 C2801 1.327 . S
C2799 C2805 1.429 . S
C2800 C2792 1.574 1_656 S
C2800 H2795 0.949 . S
C2800 C2806 1.368 . S
C2801 C2785 1.349 . S
C2801 H2793 0.950 . S
C2801 C2799 1.327 . S
C2802 C2790 1.349 . S
C2802 H2796 0.950 . S
C2802 C2803 1.327 . S
C2803 H2797 0.950 . S
C2803 C2802 1.327 . S
C2803 C2807 1.429 . S
C2804 C2787 1.574 1_454 S
C2804 H2798 0.949 . S
C2804 C2808 1.368 . S
C2805 C2786 1.429 . S
C2805 C2799 1.429 . S
C2805 C2806 1.523 . S
C2806 C2787 1.368 . S
C2806 C2800 1.368 . S
C2806 C2805 1.523 . S
C2807 C2791 1.429 . S
C2807 C2803 1.429 . S
C2807 C2808 1.523 . S
C2808 C2792 1.368 . S
C2808 C2804 1.368 . S
C2808 C2807 1.523 . S
H2809 C2784 0.950 . S
H2810 C2786 0.950 . S
H2811 C2787 0.949 . S
H2812 C2789 0.950 . S
H2813 C2791 0.950 . S
C2814 C2815 1.349 . S
C2814 C2816 1.327 . S
C2814 H2839 0.950 . S
C2815 C2814 1.349 . S
C2815 C2831 1.349 . S
C2816 C2814 1.327 . S
C2816 C2835 1.429 . S
C2816 H2840 0.950 . S
C2817 C2834 1.574 1_554 S
C2817 C2836 1.368 . S
C2817 H2841 0.949 . S
H2818 C2822 0.949 . S
C2819 C2820 1.349 . S
C2819 C2821 1.327 . S
C2819 H2842 0.950 . S
C2820 C2819 1.349 . S
C2820 C2832 1.349 . S
C2821 C2819 1.327 . S
C2821 C2837 1.429 . S
C2821 H2843 0.950 . S
C2822 H2818 0.949 . S
C2822 C2830 1.574 1_556 S
C2822 C2838 1.368 . S
H2823 C2831 0.950 . S
H2824 C2829 0.950 . S
H2825 C2830 0.949 . S
H2826 C2832 0.950 . S
H2827 C2833 0.950 . S
H2828 C2834 0.949 . S
C2829 H2824 0.950 . S
C2829 C2831 1.327 . S
C2829 C2835 1.429 . S
C2830 C2822 1.574 1_554 S
C2830 H2825 0.949 . S
C2830 C2836 1.368 . S
C2831 C2815 1.349 . S
C2831 H2823 0.950 . S
C2831 C2829 1.327 . S
C2832 C2820 1.349 . S
C2832 H2826 0.950 . S
C2832 C2833 1.327 . S
C2833 H2827 0.950 . S
C2833 C2832 1.327 . S
C2833 C2837 1.429 . S
C2834 C2817 1.574 1_556 S
C2834 H2828 0.949 . S
C2834 C2838 1.368 . S
C2835 C2816 1.429 . S
C2835 C2829 1.429 . S
C2835 C2836 1.523 . S
C2836 C2817 1.368 . S
C2836 C2830 1.368 . S
C2836 C2835 1.523 . S
C2837 C2821 1.429 . S
C2837 C2833 1.429 . S
C2837 C2838 1.523 . S
C2838 C2822 1.368 . S
C2838 C2834 1.368 . S
C2838 C2837 1.523 . S
H2839 C2814 0.950 . S
H2840 C2816 0.950 . S
H2841 C2817 0.949 . S
H2842 C2819 0.950 . S
H2843 C2821 0.950 . S
C2844 C2845 1.349 . S
C2844 C2846 1.327 . S
C2844 H2869 0.950 . S
C2845 C2844 1.349 . S
C2845 C2861 1.349 . S
C2846 C2844 1.327 . S
C2846 C2865 1.429 . S
C2846 H2870 0.950 1_554 S
C2847 C2864 1.574 . S
C2847 C2866 1.368 . S
C2847 H2871 0.949 . S
H2848 C2852 0.949 . S
C2849 C2850 1.349 . S
C2849 C2851 1.327 . S
C2849 H2872 0.950 . S
C2850 C2849 1.349 . S
C2850 C2862 1.349 . S
C2851 C2849 1.327 . S
C2851 C2867 1.429 . S
C2851 H2873 0.950 . S
C2852 H2848 0.949 . S
C2852 C2860 1.574 . S
C2852 C2868 1.368 . S
H2853 C2861 0.950 . S
H2854 C2859 0.950 . S
H2855 C2860 0.949 . S
H2856 C2862 0.950 . S
H2857 C2863 0.950 . S
H2858 C2864 0.949 . S
C2859 H2854 0.950 . S
C2859 C2861 1.327 . S
C2859 C2865 1.429 . S
C2860 C2852 1.574 . S
C2860 H2855 0.949 . S
C2860 C2866 1.368 1_556 S
C2861 C2845 1.349 . S
C2861 H2853 0.950 . S
C2861 C2859 1.327 . S
C2862 C2850 1.349 . S
C2862 H2856 0.950 . S
C2862 C2863 1.327 . S
C2863 H2857 0.950 . S
C2863 C2862 1.327 . S
C2863 C2867 1.429 . S
C2864 C2847 1.574 . S
C2864 H2858 0.949 . S
C2864 C2868 1.368 1_554 S
C2865 C2846 1.429 . S
C2865 C2859 1.429 . S
C2865 C2866 1.523 . S
C2866 C2847 1.368 . S
C2866 C2860 1.368 1_554 S
C2866 C2865 1.523 . S
C2867 C2851 1.429 . S
C2867 C2863 1.429 . S
C2867 C2868 1.523 1_565 S
C2868 C2852 1.368 . S
C2868 C2864 1.368 1_556 S
C2868 C2867 1.523 1_545 S
H2869 C2844 0.950 . S
H2870 C2846 0.950 1_556 S
H2871 C2847 0.949 . S
H2872 C2849 0.950 . S
H2873 C2851 0.950 . S
C2874 C2875 1.349 . S
C2874 C2876 1.327 . S
C2874 H2899 0.950 . S
C2875 C2874 1.349 . S
C2875 C2891 1.349 . S
C2876 C2874 1.327 . S
C2876 C2895 1.429 . S
C2876 H2900 0.950 . S
C2877 C2894 1.574 . S
C2877 C2896 1.368 1_556 S
C2877 H2901 0.949 . S
H2878 C2882 0.949 . S
C2879 C2880 1.349 . S
C2879 C2881 1.327 . S
C2879 H2902 0.950 . S
C2880 C2879 1.349 . S
C2880 C2892 1.349 . S
C2881 C2879 1.327 . S
C2881 C2897 1.429 . S
C2881 H2903 0.950 . S
C2882 H2878 0.949 . S
C2882 C2890 1.574 1_556 S
C2882 C2898 1.368 . S
H2883 C2891 0.950 . S
H2884 C2889 0.950 . S
H2885 C2890 0.949 . S
H2886 C2892 0.950 . S
H2887 C2893 0.950 . S
H2888 C2894 0.949 . S
C2889 H2884 0.950 . S
C2889 C2891 1.327 . S
C2889 C2895 1.429 . S
C2890 C2882 1.574 1_554 S
C2890 H2885 0.949 . S
C2890 C2896 1.368 . S
C2891 C2875 1.349 . S
C2891 H2883 0.950 . S
C2891 C2889 1.327 . S
C2892 C2880 1.349 . S
C2892 H2886 0.950 . S
C2892 C2893 1.327 . S
C2893 H2887 0.950 . S
C2893 C2892 1.327 . S
C2893 C2897 1.429 . S
C2894 C2877 1.574 . S
C2894 H2888 0.949 . S
C2894 C2898 1.368 . S
C2895 C2876 1.429 . S
C2895 C2889 1.429 . S
C2895 C2896 1.523 . S
C2896 C2877 1.368 1_554 S
C2896 C2890 1.368 . S
C2896 C2895 1.523 . S
C2897 C2881 1.429 . S
C2897 C2893 1.429 . S
C2897 C2898 1.523 1_455 S
C2898 C2882 1.368 . S
C2898 C2894 1.368 . S
C2898 C2897 1.523 1_655 S
H2899 C2874 0.950 . S
H2900 C2876 0.950 . S
H2901 C2877 0.949 . S
H2902 C2879 0.950 . S
H2903 C2881 0.950 . S
C2904 C2905 1.349 . S
C2904 C2906 1.327 . S
C2904 H2929 0.950 . S
C2905 C2904 1.349 . S
C2905 C2921 1.349 . S
C2906 C2904 1.327 . S
C2906 C2925 1.429 . S
C2906 H2930 0.950 . S
C2907 C2924 1.574 . S
C2907 C2926 1.368 . S
C2907 H2931 0.949 . S
H2908 C2912 0.949 . S
C2909 C2910 1.349 . S
C2909 C2911 1.327 . S
C2909 H2932 0.950 . S
C2910 C2909 1.349 . S
C2910 C2922 1.349 . S
C2911 C2909 1.327 . S
C2911 C2927 1.429 . S
C2911 H2933 0.950 1_554 S
C2912 H2908 0.949 . S
C2912 C2920 1.572 . S
C2912 C2928 1.368 . S
H2913 C2921 0.950 . S
H2914 C2919 0.950 . S
H2915 C2920 0.948 . S
H2916 C2922 0.950 . S
H2917 C2923 0.950 . S
H2918 C2924 0.949 . S
C2919 H2914 0.950 . S
C2919 C2921 1.327 . S
C2919 C2925 1.429 . S
C2920 C2912 1.572 . S
C2920 H2915 0.948 . S
C2920 C2926 1.371 1_554 S
C2921 C2905 1.349 . S
C2921 H2913 0.950 . S
C2921 C2919 1.327 . S
C2922 C2910 1.349 . S
C2922 H2916 0.950 . S
C2922 C2923 1.327 . S
C2923 H2917 0.950 . S
C2923 C2922 1.327 . S
C2923 C2927 1.429 . S
C2924 C2907 1.574 . S
C2924 H2918 0.949 . S
C2924 C2928 1.368 1_556 S
C2925 C2906 1.429 . S
C2925 C2919 1.429 . S
C2925 C2926 1.523 . S
C2926 C2907 1.368 . S
C2926 C2920 1.371 1_556 S
C2926 C2925 1.523 . S
C2927 C2911 1.429 . S
C2927 C2923 1.429 . S
C2927 C2928 1.523 . S
C2928 C2912 1.368 . S
C2928 C2924 1.368 1_554 S
C2928 C2927 1.523 . S
H2929 C2904 0.950 . S
H2930 C2906 0.950 . S
H2931 C2907 0.949 . S
H2932 C2909 0.950 . S
H2933 C2911 0.950 1_556 S
C2934 C2935 1.349 . S
C2934 C2936 1.327 . S
C2934 H2959 0.950 . S
C2935 C2934 1.349 . S
C2935 C2951 1.349 . S
C2936 C2934 1.327 . S
C2936 C2955 1.429 . S
C2936 H2960 0.950 . S
C2937 C2954 1.574 . S
C2937 C2956 1.368 . S
C2937 H2961 0.949 . S
H2938 C2942 0.949 . S
C2939 C2940 1.349 . S
C2939 C2941 1.327 . S
C2939 H2962 0.950 . S
C2940 C2939 1.349 . S
C2940 C2952 1.349 . S
C2941 C2939 1.327 . S
C2941 C2957 1.429 . S
C2941 H2963 0.950 . S
C2942 H2938 0.949 . S
C2942 C2950 1.574 . S
C2942 C2958 1.368 . S
H2943 C2951 0.950 . S
H2944 C2949 0.950 . S
H2945 C2950 0.983 . S
H2946 C2952 0.950 . S
H2947 C2953 0.950 . S
H2948 C2954 0.949 . S
C2949 H2944 0.950 . S
C2949 C2951 1.327 . S
C2949 C2955 1.429 . S
C2950 C2942 1.574 . S
C2950 H2945 0.983 . S
C2950 C2956 1.368 . S
C2951 C2935 1.349 . S
C2951 H2943 0.950 . S
C2951 C2949 1.327 . S
C2952 C2940 1.349 . S
C2952 H2946 0.950 . S
C2952 C2953 1.327 . S
C2953 H2947 0.950 . S
C2953 C2952 1.327 . S
C2953 C2957 1.429 . S
C2954 C2937 1.574 . S
C2954 H2948 0.949 . S
C2954 C2958 1.368 . S
C2955 C2936 1.429 . S
C2955 C2949 1.429 . S
C2955 C2956 1.523 1_655 S
C2956 C2937 1.368 . S
C2956 C2950 1.368 . S
C2956 C2955 1.523 1_455 S
C2957 C2941 1.429 . S
C2957 C2953 1.429 . S
C2957 C2958 1.523 . S
C2958 C2942 1.368 . S
C2958 C2954 1.368 . S
C2958 C2957 1.523 . S
H2959 C2934 0.950 . S
H2960 C2936 0.950 . S
H2961 C2937 0.949 . S
H2962 C2939 0.950 . S
H2963 C2941 0.950 . S
C2964 C2965 1.349 . S
C2964 C2966 1.327 . S
C2964 H2989 0.950 . S
C2965 C2964 1.349 . S
C2965 C2981 1.349 . S
C2966 C2964 1.327 . S
C2966 C2985 1.429 . S
C2966 H2990 0.950 . S
C2967 C2984 1.574 . S
C2967 C2986 1.368 . S
C2967 H2991 0.949 . S
H2968 C2972 0.949 . S
C2969 C2970 1.349 . S
C2969 C2971 1.327 . S
C2969 H2992 0.950 . S
C2970 C2969 1.349 . S
C2970 C2982 1.349 . S
C2971 C2969 1.327 . S
C2971 C2987 1.429 . S
C2971 H2993 0.950 . S
C2972 H2968 0.949 . S
C2972 C2980 1.574 . S
C2972 C2988 1.368 . S
H2973 C2981 0.950 . S
H2974 C2979 0.950 . S
H2975 C2980 0.949 . S
H2976 C2982 0.950 . S
H2977 C2983 0.950 . S
H2978 C2984 0.949 . S
C2979 H2974 0.950 . S
C2979 C2981 1.327 . S
C2979 C2985 1.429 . S
C2980 C2972 1.574 . S
C2980 H2975 0.949 . S
C2980 C2986 1.368 . S
C2981 C2965 1.349 . S
C2981 H2973 0.950 . S
C2981 C2979 1.327 . S
C2982 C2970 1.349 . S
C2982 H2976 0.950 . S
C2982 C2983 1.327 . S
C2983 H2977 0.950 . S
C2983 C2982 1.327 . S
C2983 C2987 1.429 . S
C2984 C2967 1.574 . S
C2984 H2978 0.949 . S
C2984 C2988 1.368 . S
C2985 C2966 1.429 . S
C2985 C2979 1.429 . S
C2985 C2986 1.523 . S
C2986 C2967 1.368 . S
C2986 C2980 1.368 . S
C2986 C2985 1.523 . S
C2987 C2971 1.429 . S
C2987 C2983 1.429 . S
C2987 C2988 1.523 . S
C2988 C2972 1.368 . S
C2988 C2984 1.368 . S
C2988 C2987 1.523 . S
H2989 C2964 0.950 . S
H2990 C2966 0.950 . S
H2991 C2967 0.949 . S
H2992 C2969 0.950 . S
H2993 C2971 0.950 . S
C2994 C2995 1.349 . S
C2994 C2996 1.327 . S
C2994 H3019 0.950 . S
C2995 C2994 1.349 . S
C2995 C3011 1.349 . S
C2996 C2994 1.327 . S
C2996 C3015 1.429 . S
C2996 H3020 0.950 . S
C2997 C3014 1.574 . S
C2997 C3016 1.368 . S
C2997 H3021 0.949 . S
H2998 C3002 0.949 . S
C2999 C3000 1.349 . S
C2999 C3001 1.327 . S
C2999 H3022 0.950 . S
C3000 C2999 1.349 . S
C3000 C3012 1.349 . S
C3001 C2999 1.327 . S
C3001 C3017 1.429 . S
C3001 H3023 0.950 . S
C3002 H2998 0.949 . S
C3002 C3010 1.574 . S
C3002 C3018 1.368 . S
H3003 C3011 0.950 . S
H3004 C3009 0.950 . S
H3005 C3010 0.949 . S
H3006 C3012 0.950 . S
H3007 C3013 0.950 . S
H3008 C3014 0.949 . S
C3009 H3004 0.950 . S
C3009 C3011 1.327 . S
C3009 C3015 1.429 . S
C3010 C3002 1.574 . S
C3010 H3005 0.949 . S
C3010 C3016 1.368 . S
C3011 C2995 1.349 . S
C3011 H3003 0.950 . S
C3011 C3009 1.327 . S
C3012 C3000 1.349 . S
C3012 H3006 0.950 . S
C3012 C3013 1.327 . S
C3013 H3007 0.950 . S
C3013 C3012 1.327 . S
C3013 C3017 1.429 . S
C3014 C2997 1.574 . S
C3014 H3008 0.949 . S
C3014 C3018 1.368 . S
C3015 C2996 1.429 . S
C3015 C3009 1.429 . S
C3015 C3016 1.523 1_545 S
C3016 C2997 1.368 . S
C3016 C3010 1.368 . S
C3016 C3015 1.523 1_565 S
C3017 C3001 1.429 . S
C3017 C3013 1.429 . S
C3017 C3018 1.523 . S
C3018 C3002 1.368 . S
C3018 C3014 1.368 . S
C3018 C3017 1.523 . S
H3019 C2994 0.950 . S
H3020 C2996 0.950 . S
H3021 C2997 0.949 . S
H3022 C2999 0.950 . S
H3023 C3001 0.950 . S
C3024 C3025 1.349 . S
C3024 C3026 1.327 . S
C3024 H3049 0.950 . S
C3025 C3024 1.349 . S
C3025 C3041 1.349 . S
C3026 C3024 1.327 . S
C3026 C3045 1.429 . S
C3026 H3050 0.950 1_554 S
C3027 C3044 1.574 . S
C3027 C3046 1.368 . S
C3027 H3051 0.949 . S
H3028 C3032 0.949 . S
C3029 C3030 1.349 . S
C3029 C3031 1.327 1_556 S
C3029 H3052 0.950 1_556 S
C3030 C3029 1.349 . S
C3030 C3042 1.349 . S
C3031 C3029 1.327 1_554 S
C3031 C3047 1.429 1_554 S
C3031 H3053 0.950 . S
C3032 H3028 0.949 . S
C3032 C3040 1.574 . S
C3032 C3048 1.368 . S
H3033 C3041 0.950 . S
H3034 C3039 0.950 . S
H3035 C3040 0.957 . S
H3036 C3042 0.950 . S
H3037 C3043 0.950 . S
H3038 C3044 0.949 . S
C3039 H3034 0.950 . S
C3039 C3041 1.327 . S
C3039 C3045 1.429 . S
C3040 C3032 1.574 . S
C3040 H3035 0.957 . S
C3040 C3046 1.368 1_556 S
C3041 C3025 1.349 . S
C3041 H3033 0.950 . S
C3041 C3039 1.327 . S
C3042 C3030 1.349 . S
C3042 H3036 0.950 . S
C3042 C3043 1.327 . S
C3043 H3037 0.950 . S
C3043 C3042 1.327 . S
C3043 C3047 1.429 . S
C3044 C3027 1.574 . S
C3044 H3038 0.949 . S
C3044 C3048 1.368 1_554 S
C3045 C3026 1.429 . S
C3045 C3039 1.429 . S
C3045 C3046 1.523 1_545 S
C3046 C3027 1.368 . S
C3046 C3040 1.368 1_554 S
C3046 C3045 1.523 1_565 S
C3047 C3031 1.429 1_556 S
C3047 C3043 1.429 . S
C3047 C3048 1.523 . S
C3048 C3032 1.368 . S
C3048 C3044 1.368 1_556 S
C3048 C3047 1.523 . S
H3049 C3024 0.950 . S
H3050 C3026 0.950 1_556 S
H3051 C3027 0.949 . S
H3052 C3029 0.950 1_554 S
H3053 C3031 0.950 . S
C3054 C3055 1.349 . S
C3054 C3056 1.327 . S
C3054 H3079 0.950 . S
C3055 C3054 1.349 . S
C3055 C3071 1.349 . S
C3056 C3054 1.327 . S
C3056 C3075 1.429 . S
C3056 H3080 0.950 . S
C3057 C3074 1.574 . S
C3057 C3076 1.368 1_556 S
C3057 H3081 0.961 . S
H3058 C3062 0.949 . S
C3059 C3060 1.349 . S
C3059 C3061 1.327 . S
C3059 H3082 0.950 . S
C3060 C3059 1.349 . S
C3060 C3072 1.349 . S
C3061 C3059 1.327 . S
C3061 C3077 1.429 . S
C3061 H3083 0.950 . S
C3062 H3058 0.949 . S
C3062 C3070 1.574 . S
C3062 C3078 1.368 1_554 S
H3063 C3071 0.950 . S
H3064 C3069 0.950 1_556 S
H3065 C3070 0.949 . S
H3066 C3072 0.950 1_554 S
H3067 C3073 0.950 . S
H3068 C3074 0.949 . S
C3069 H3064 0.950 1_554 S
C3069 C3071 1.327 . S
C3069 C3075 1.429 . S
C3070 C3062 1.574 . S
C3070 H3065 0.949 . S
C3070 C3076 1.368 . S
C3071 C3055 1.349 . S
C3071 H3063 0.950 . S
C3071 C3069 1.327 . S
C3072 C3060 1.349 . S
C3072 H3066 0.950 1_556 S
C3072 C3073 1.327 1_556 S
C3073 H3067 0.950 . S
C3073 C3072 1.327 1_554 S
C3073 C3077 1.429 1_554 S
C3074 C3057 1.574 . S
C3074 H3068 0.949 . S
C3074 C3078 1.368 . S
C3075 C3056 1.429 . S
C3075 C3069 1.429 . S
C3075 C3076 1.523 1_655 S
C3076 C3057 1.368 1_554 S
C3076 C3070 1.368 . S
C3076 C3075 1.523 1_455 S
C3077 C3061 1.429 . S
C3077 C3073 1.429 1_556 S
C3077 C3078 1.523 . S
C3078 C3062 1.368 1_556 S
C3078 C3074 1.368 . S
C3078 C3077 1.523 . S
H3079 C3054 0.950 . S
H3080 C3056 0.950 . S
H3081 C3057 0.961 . S
H3082 C3059 0.950 . S
H3083 C3061 0.950 . S
C3084 C3085 1.349 . S
C3084 C3086 1.327 . S
C3084 H3109 0.950 . S
C3085 C3084 1.349 . S
C3085 C3101 1.349 . S
C3086 C3084 1.327 . S
C3086 C3105 1.429 . S
C3086 H3110 0.950 . S
C3087 C3104 1.565 1_554 S
C3087 C3106 1.368 . S
C3087 H3111 0.949 . S
H3088 C3092 0.949 . S
C3089 C3090 1.349 . S
C3089 C3091 1.327 . S
C3089 H3112 0.950 . S
C3090 C3089 1.349 . S
C3090 C3102 1.349 . S
C3091 C3089 1.327 . S
C3091 C3107 1.429 . S
C3091 H3113 0.950 . S
C3092 H3088 0.949 . S
C3092 C3100 1.574 . S
C3092 C3108 1.368 1_554 S
H3093 C3101 0.950 . S
H3094 C3099 0.950 . S
H3095 C3100 0.949 . S
H3096 C3102 0.950 . S
H3097 C3103 0.950 . S
H3098 C3104 0.956 . S
C3099 H3094 0.950 . S
C3099 C3101 1.327 . S
C3099 C3105 1.429 . S
C3100 C3092 1.574 . S
C3100 H3095 0.949 . S
C3100 C3106 1.368 . S
C3101 C3085 1.349 . S
C3101 H3093 0.950 . S
C3101 C3099 1.327 . S
C3102 C3090 1.349 . S
C3102 H3096 0.950 . S
C3102 C3103 1.327 . S
C3103 H3097 0.950 . S
C3103 C3102 1.327 . S
C3103 C3107 1.429 . S
C3104 C3087 1.565 1_556 S
C3104 H3098 0.956 . S
C3104 C3108 1.369 . S
C3105 C3086 1.429 . S
C3105 C3099 1.429 . S
C3105 C3106 1.523 . S
C3106 C3087 1.368 . S
C3106 C3100 1.368 . S
C3106 C3105 1.523 . S
C3107 C3091 1.429 . S
C3107 C3103 1.429 . S
C3107 C3108 1.523 . S
C3108 C3092 1.368 1_556 S
C3108 C3104 1.369 . S
C3108 C3107 1.523 . S
H3109 C3084 0.950 . S
H3110 C3086 0.950 . S
H3111 C3087 0.949 . S
H3112 C3089 0.950 . S
H3113 C3091 0.950 . S
C3114 C3115 1.349 . S
C3114 C3116 1.327 . S
C3114 H3139 0.950 . S
C3115 C3114 1.349 . S
C3115 C3131 1.349 . S
C3116 C3114 1.327 . S
C3116 C3135 1.429 . S
C3116 H3140 0.950 . S
C3117 C3134 1.574 . S
C3117 C3136 1.368 . S
C3117 H3141 0.949 . S
H3118 C3122 0.979 . S
C3119 C3120 1.349 . S
C3119 C3121 1.327 . S
C3119 H3142 0.950 . S
C3120 C3119 1.349 . S
C3120 C3132 1.349 . S
C3121 C3119 1.327 . S
C3121 C3137 1.429 . S
C3121 H3143 0.950 . S
C3122 H3118 0.979 . S
C3122 C3130 1.574 . S
C3122 C3138 1.368 . S
H3123 C3131 0.950 . S
H3124 C3129 0.950 . S
H3125 C3130 0.949 . S
H3126 C3132 0.950 . S
H3127 C3133 0.950 . S
H3128 C3134 0.949 . S
C3129 H3124 0.950 . S
C3129 C3131 1.327 . S
C3129 C3135 1.429 . S
C3130 C3122 1.574 . S
C3130 H3125 0.949 . S
C3130 C3136 1.368 . S
C3131 C3115 1.349 . S
C3131 H3123 0.950 . S
C3131 C3129 1.327 . S
C3132 C3120 1.349 . S
C3132 H3126 0.950 . S
C3132 C3133 1.327 . S
C3133 H3127 0.950 . S
C3133 C3132 1.327 . S
C3133 C3137 1.429 . S
C3134 C3117 1.574 . S
C3134 H3128 0.949 . S
C3134 C3138 1.368 . S
C3135 C3116 1.429 . S
C3135 C3129 1.429 . S
C3135 C3136 1.523 . S
C3136 C3117 1.368 . S
C3136 C3130 1.368 . S
C3136 C3135 1.523 . S
C3137 C3121 1.429 . S
C3137 C3133 1.429 . S
C3137 C3138 1.523 1_455 S
C3138 C3122 1.368 . S
C3138 C3134 1.368 . S
C3138 C3137 1.523 1_655 S
H3139 C3114 0.950 . S
H3140 C3116 0.950 . S
H3141 C3117 0.949 . S
H3142 C3119 0.950 . S
H3143 C3121 0.950 . S
C3144 C3145 1.349 . S
C3144 C3146 1.327 . S
C3144 H3169 0.950 . S
C3145 C3144 1.349 . S
C3145 C3161 1.349 . S
C3146 C3144 1.327 . S
C3146 C3165 1.429 . S
C3146 H3170 0.950 . S
C3147 C3164 1.574 . S
C3147 C3166 1.368 . S
C3147 H3171 0.949 . S
H3148 C3152 0.949 . S
C3149 C3150 1.349 . S
C3149 C3151 1.327 . S
C3149 H3172 0.950 . S
C3150 C3149 1.349 . S
C3150 C3162 1.349 . S
C3151 C3149 1.327 . S
C3151 C3167 1.429 . S
C3151 H3173 0.950 . S
C3152 H3148 0.949 . S
C3152 C3160 1.574 . S
C3152 C3168 1.368 . S
H3153 C3161 0.950 . S
H3154 C3159 0.950 . S
H3155 C3160 0.949 . S
H3156 C3162 0.950 . S
H3157 C3163 0.950 . S
H3158 C3164 0.949 . S
C3159 H3154 0.950 . S
C3159 C3161 1.327 . S
C3159 C3165 1.429 . S
C3160 C3152 1.574 . S
C3160 H3155 0.949 . S
C3160 C3166 1.368 . S
C3161 C3145 1.349 . S
C3161 H3153 0.950 . S
C3161 C3159 1.327 . S
C3162 C3150 1.349 . S
C3162 H3156 0.950 . S
C3162 C3163 1.327 . S
C3163 H3157 0.950 . S
C3163 C3162 1.327 . S
C3163 C3167 1.429 . S
C3164 C3147 1.574 . S
C3164 H3158 0.949 . S
C3164 C3168 1.368 . S
C3165 C3146 1.429 . S
C3165 C3159 1.429 . S
C3165 C3166 1.523 . S
C3166 C3147 1.368 . S
C3166 C3160 1.368 . S
C3166 C3165 1.523 . S
C3167 C3151 1.429 . S
C3167 C3163 1.429 . S
C3167 C3168 1.523 . S
C3168 C3152 1.368 . S
C3168 C3164 1.368 . S
C3168 C3167 1.523 . S
H3169 C3144 0.950 . S
H3170 C3146 0.950 . S
H3171 C3147 0.949 . S
H3172 C3149 0.950 . S
H3173 C3151 0.950 . S
C3174 C3175 1.349 . S
C3174 C3176 1.327 . S
C3174 H3199 0.950 . S
C3175 C3174 1.349 . S
C3175 C3191 1.349 . S
C3176 C3174 1.327 . S
C3176 C3195 1.429 . S
C3176 H3200 0.950 . S
C3177 C3194 1.574 . S
C3177 C3196 1.368 . S
C3177 H3201 0.976 . S
H3178 C3182 0.949 . S
C3179 C3180 1.349 . S
C3179 C3181 1.327 . S
C3179 H3202 0.950 . S
C3180 C3179 1.349 . S
C3180 C3192 1.349 . S
C3181 C3179 1.327 . S
C3181 C3197 1.429 . S
C3181 H3203 0.950 . S
C3182 H3178 0.949 . S
C3182 C3190 1.574 . S
C3182 C3198 1.368 . S
H3183 C3191 0.950 . S
H3184 C3189 0.950 . S
H3185 C3190 0.949 . S
H3186 C3192 0.950 . S
H3187 C3193 0.950 . S
H3188 C3194 0.949 . S
C3189 H3184 0.950 . S
C3189 C3191 1.327 . S
C3189 C3195 1.429 . S
C3190 C3182 1.574 . S
C3190 H3185 0.949 . S
C3190 C3196 1.368 . S
C3191 C3175 1.349 . S
C3191 H3183 0.950 . S
C3191 C3189 1.327 . S
C3192 C3180 1.349 . S
C3192 H3186 0.950 . S
C3192 C3193 1.327 . S
C3193 H3187 0.950 . S
C3193 C3192 1.327 . S
C3193 C3197 1.429 . S
C3194 C3177 1.574 . S
C3194 H3188 0.949 . S
C3194 C3198 1.368 . S
C3195 C3176 1.429 . S
C3195 C3189 1.429 . S
C3195 C3196 1.523 1_565 S
C3196 C3177 1.368 . S
C3196 C3190 1.368 . S
C3196 C3195 1.523 1_545 S
C3197 C3181 1.429 . S
C3197 C3193 1.429 . S
C3197 C3198 1.523 . S
C3198 C3182 1.368 . S
C3198 C3194 1.368 . S
C3198 C3197 1.523 . S
H3199 C3174 0.950 . S
H3200 C3176 0.950 . S
H3201 C3177 0.976 . S
H3202 C3179 0.950 . S
H3203 C3181 0.950 . S
C3204 C3205 1.349 . S
C3204 C3206 1.327 . S
C3204 H3229 0.950 . S
C3205 C3204 1.349 . S
C3205 C3221 1.349 . S
C3206 C3204 1.327 . S
C3206 C3225 1.429 . S
C3206 H3230 0.950 . S
C3207 C3224 1.574 . S
C3207 C3226 1.368 . S
C3207 H3231 0.949 . S
H3208 C3212 0.949 . S
C3209 C3210 1.349 . S
C3209 C3211 1.327 . S
C3209 H3232 0.950 . S
C3210 C3209 1.349 . S
C3210 C3222 1.349 . S
C3211 C3209 1.327 . S
C3211 C3227 1.429 . S
C3211 H3233 0.950 . S
C3212 H3208 0.949 . S
C3212 C3220 1.574 . S
C3212 C3228 1.368 . S
H3213 C3221 0.950 . S
H3214 C3219 0.950 . S
H3215 C3220 0.949 . S
H3216 C3222 0.950 . S
H3217 C3223 0.950 . S
H3218 C3224 0.949 . S
C3219 H3214 0.950 . S
C3219 C3221 1.327 . S
C3219 C3225 1.429 . S
C3220 C3212 1.574 . S
C3220 H3215 0.949 . S
C3220 C3226 1.368 . S
C3221 C3205 1.349 . S
C3221 H3213 0.950 . S
C3221 C3219 1.327 . S
C3222 C3210 1.349 . S
C3222 H3216 0.950 . S
C3222 C3223 1.327 . S
C3223 H3217 0.950 . S
C3223 C3222 1.327 . S
C3223 C3227 1.429 . S
C3224 C3207 1.574 . S
C3224 H3218 0.949 . S
C3224 C3228 1.368 . S
C3225 C3206 1.429 . S
C3225 C3219 1.429 . S
C3225 C3226 1.523 . S
C3226 C3207 1.368 . S
C3226 C3220 1.368 . S
C3226 C3225 1.523 . S
C3227 C3211 1.429 . S
C3227 C3223 1.429 . S
C3227 C3228 1.523 . S
C3228 C3212 1.368 . S
C3228 C3224 1.368 . S
C3228 C3227 1.523 . S
H3229 C3204 0.950 . S
H3230 C3206 0.950 . S
H3231 C3207 0.949 . S
H3232 C3209 0.950 . S
H3233 C3211 0.950 . S
C3234 C3235 1.349 . S
C3234 C3236 1.327 . S
C3234 H3259 0.950 . S
C3235 C3234 1.349 . S
C3235 C3251 1.349 . S
C3236 C3234 1.327 . S
C3236 C3255 1.429 . S
C3236 H3260 0.950 . S
C3237 C3254 1.574 . S
C3237 C3256 1.368 . S
C3237 H3261 0.949 . S
H3238 C3242 0.949 . S
C3239 C3240 1.349 . S
C3239 C3241 1.327 . S
C3239 H3262 0.950 . S
C3240 C3239 1.349 . S
C3240 C3252 1.349 . S
C3241 C3239 1.327 . S
C3241 C3257 1.429 . S
C3241 H3263 0.950 . S
C3242 H3238 0.949 . S
C3242 C3250 1.574 . S
C3242 C3258 1.368 . S
H3243 C3251 0.950 . S
H3244 C3249 0.950 . S
H3245 C3250 0.949 . S
H3246 C3252 0.950 . S
H3247 C3253 0.950 . S
H3248 C3254 0.949 . S
C3249 H3244 0.950 . S
C3249 C3251 1.327 . S
C3249 C3255 1.429 . S
C3250 C3242 1.574 . S
C3250 H3245 0.949 . S
C3250 C3256 1.368 . S
C3251 C3235 1.349 . S
C3251 H3243 0.950 . S
C3251 C3249 1.327 . S
C3252 C3240 1.349 . S
C3252 H3246 0.950 . S
C3252 C3253 1.327 . S
C3253 H3247 0.950 . S
C3253 C3252 1.327 . S
C3253 C3257 1.429 . S
C3254 C3237 1.574 . S
C3254 H3248 0.949 . S
C3254 C3258 1.368 . S
C3255 C3236 1.429 . S
C3255 C3249 1.429 . S
C3255 C3256 1.523 . S
C3256 C3237 1.368 . S
C3256 C3250 1.368 . S
C3256 C3255 1.523 . S
C3257 C3241 1.429 . S
C3257 C3253 1.429 . S
C3257 C3258 1.523 . S
C3258 C3242 1.368 . S
C3258 C3254 1.368 . S
C3258 C3257 1.523 . S
H3259 C3234 0.950 . S
H3260 C3236 0.950 . S
H3261 C3237 0.949 . S
H3262 C3239 0.950 . S
H3263 C3241 0.950 . S
C3264 C3265 1.349 . S
C3264 C3266 1.327 . S
C3264 H3289 0.950 . S
C3265 C3264 1.349 . S
C3265 C3281 1.349 . S
C3266 C3264 1.327 . S
C3266 C3285 1.429 . S
C3266 H3290 0.950 . S
C3267 C3284 1.574 . S
C3267 C3286 1.368 . S
C3267 H3291 0.949 . S
H3268 C3272 0.949 . S
C3269 C3270 1.349 . S
C3269 C3271 1.327 . S
C3269 H3292 0.950 . S
C3270 C3269 1.349 . S
C3270 C3282 1.349 . S
C3271 C3269 1.327 . S
C3271 C3287 1.429 . S
C3271 H3293 0.950 . S
C3272 H3268 0.949 . S
C3272 C3280 1.574 . S
C3272 C3288 1.368 . S
H3273 C3281 0.950 . S
H3274 C3279 0.950 . S
H3275 C3280 0.949 . S
H3276 C3282 0.950 . S
H3277 C3283 0.950 . S
H3278 C3284 0.949 . S
C3279 H3274 0.950 . S
C3279 C3281 1.327 . S
C3279 C3285 1.429 . S
C3280 C3272 1.574 . S
C3280 H3275 0.949 . S
C3280 C3286 1.368 . S
C3281 C3265 1.349 . S
C3281 H3273 0.950 . S
C3281 C3279 1.327 . S
C3282 C3270 1.349 . S
C3282 H3276 0.950 . S
C3282 C3283 1.327 . S
C3283 H3277 0.950 . S
C3283 C3282 1.327 . S
C3283 C3287 1.429 . S
C3284 C3267 1.574 . S
C3284 H3278 0.949 . S
C3284 C3288 1.368 . S
C3285 C3266 1.429 . S
C3285 C3279 1.429 . S
C3285 C3286 1.523 . S
C3286 C3267 1.368 . S
C3286 C3280 1.368 . S
C3286 C3285 1.523 . S
C3287 C3271 1.429 . S
C3287 C3283 1.429 . S
C3287 C3288 1.523 . S
C3288 C3272 1.368 . S
C3288 C3284 1.368 . S
C3288 C3287 1.523 . S
H3289 C3264 0.950 . S
H3290 C3266 0.950 . S
H3291 C3267 0.949 . S
H3292 C3269 0.950 . S
H3293 C3271 0.950 . S
C3294 C3295 1.349 . S
C3294 C3296 1.327 . S
C3294 H3319 0.950 . S
C3295 C3294 1.349 . S
C3295 C3311 1.349 . S
C3296 C3294 1.327 . S
C3296 C3315 1.429 . S
C3296 H3320 0.950 . S
C3297 C3314 1.574 . S
C3297 C3316 1.368 . S
C3297 H3321 0.949 . S
H3298 C3302 0.949 . S
C3299 C3300 1.349 . S
C3299 C3301 1.327 . S
C3299 H3322 0.950 . S
C3300 C3299 1.349 . S
C3300 C3312 1.349 . S
C3301 C3299 1.327 . S
C3301 C3317 1.429 . S
C3301 H3323 0.950 . S
C3302 H3298 0.949 . S
C3302 C3310 1.574 . S
C3302 C3318 1.368 . S
H3303 C3311 0.950 . S
H3304 C3309 0.950 . S
H3305 C3310 0.949 . S
H3306 C3312 0.950 . S
H3307 C3313 0.950 . S
H3308 C3314 0.949 . S
C3309 H3304 0.950 . S
C3309 C3311 1.327 . S
C3309 C3315 1.429 . S
C3310 C3302 1.574 . S
C3310 H3305 0.949 . S
C3310 C3316 1.368 . S
C3311 C3295 1.349 . S
C3311 H3303 0.950 . S
C3311 C3309 1.327 . S
C3312 C3300 1.349 . S
C3312 H3306 0.950 . S
C3312 C3313 1.327 . S
C3313 H3307 0.950 . S
C3313 C3312 1.327 . S
C3313 C3317 1.429 . S
C3314 C3297 1.574 . S
C3314 H3308 0.949 . S
C3314 C3318 1.368 . S
C3315 C3296 1.429 . S
C3315 C3309 1.429 . S
C3315 C3316 1.523 . S
C3316 C3297 1.368 . S
C3316 C3310 1.368 . S
C3316 C3315 1.523 . S
C3317 C3301 1.429 . S
C3317 C3313 1.429 . S
C3317 C3318 1.523 . S
C3318 C3302 1.368 . S
C3318 C3314 1.368 . S
C3318 C3317 1.523 . S
H3319 C3294 0.950 . S
H3320 C3296 0.950 . S
H3321 C3297 0.949 . S
H3322 C3299 0.950 . S
H3323 C3301 0.950 . S
C3324 C3325 1.349 . S
C3324 C3326 1.327 . S
C3324 H3349 0.950 . S
C3325 C3324 1.349 . S
C3325 C3341 1.349 . S
C3326 C3324 1.327 . S
C3326 C3345 1.429 . S
C3326 H3350 0.950 . S
C3327 C3344 1.574 . S
C3327 C3346 1.368 . S
C3327 H3351 0.949 . S
H3328 C3332 0.949 . S
C3329 C3330 1.349 . S
C3329 C3331 1.327 . S
C3329 H3352 0.950 . S
C3330 C3329 1.349 . S
C3330 C3342 1.349 . S
C3331 C3329 1.327 . S
C3331 C3347 1.429 . S
C3331 H3353 0.950 . S
C3332 H3328 0.949 . S
C3332 C3340 1.574 . S
C3332 C3348 1.368 . S
H3333 C3341 0.950 . S
H3334 C3339 0.950 . S
H3335 C3340 0.949 . S
H3336 C3342 0.950 . S
H3337 C3343 0.950 . S
H3338 C3344 0.949 . S
C3339 H3334 0.950 . S
C3339 C3341 1.327 . S
C3339 C3345 1.429 . S
C3340 C3332 1.574 . S
C3340 H3335 0.949 . S
C3340 C3346 1.368 . S
C3341 C3325 1.349 . S
C3341 H3333 0.950 . S
C3341 C3339 1.327 . S
C3342 C3330 1.349 . S
C3342 H3336 0.950 . S
C3342 C3343 1.327 . S
C3343 H3337 0.950 . S
C3343 C3342 1.327 . S
C3343 C3347 1.429 . S
C3344 C3327 1.574 . S
C3344 H3338 0.949 . S
C3344 C3348 1.368 . S
C3345 C3326 1.429 . S
C3345 C3339 1.429 . S
C3345 C3346 1.523 . S
C3346 C3327 1.368 . S
C3346 C3340 1.368 . S
C3346 C3345 1.523 . S
C3347 C3331 1.429 . S
C3347 C3343 1.429 . S
C3347 C3348 1.523 . S
C3348 C3332 1.368 . S
C3348 C3344 1.368 . S
C3348 C3347 1.523 . S
H3349 C3324 0.950 . S
H3350 C3326 0.950 . S
H3351 C3327 0.949 . S
H3352 C3329 0.950 . S
H3353 C3331 0.950 . S
C3354 C3355 1.349 . S
C3354 C3356 1.327 . S
C3354 H3379 0.950 . S
C3355 C3354 1.349 . S
C3355 C3371 1.349 . S
C3356 C3354 1.327 . S
C3356 C3375 1.429 . S
C3356 H3380 0.950 . S
C3357 C3374 1.574 . S
C3357 C3376 1.368 . S
C3357 H3381 0.949 . S
H3358 C3362 0.949 . S
C3359 C3360 1.349 . S
C3359 C3361 1.327 . S
C3359 H3382 0.950 . S
C3360 C3359 1.349 . S
C3360 C3372 1.349 . S
C3361 C3359 1.327 . S
C3361 C3377 1.429 . S
C3361 H3383 0.950 . S
C3362 H3358 0.949 . S
C3362 C3370 1.574 . S
C3362 C3378 1.368 . S
H3363 C3371 0.950 . S
H3364 C3369 0.950 . S
H3365 C3370 0.949 . S
H3366 C3372 0.950 . S
H3367 C3373 0.950 . S
H3368 C3374 0.949 . S
C3369 H3364 0.950 . S
C3369 C3371 1.327 . S
C3369 C3375 1.429 . S
C3370 C3362 1.574 . S
C3370 H3365 0.949 . S
C3370 C3376 1.368 . S
C3371 C3355 1.349 . S
C3371 H3363 0.950 . S
C3371 C3369 1.327 . S
C3372 C3360 1.349 . S
C3372 H3366 0.950 . S
C3372 C3373 1.327 . S
C3373 H3367 0.950 . S
C3373 C3372 1.327 . S
C3373 C3377 1.429 . S
C3374 C3357 1.574 . S
C3374 H3368 0.949 . S
C3374 C3378 1.368 . S
C3375 C3356 1.429 . S
C3375 C3369 1.429 . S
C3375 C3376 1.523 . S
C3376 C3357 1.368 . S
C3376 C3370 1.368 . S
C3376 C3375 1.523 . S
C3377 C3361 1.429 . S
C3377 C3373 1.429 . S
C3377 C3378 1.523 . S
C3378 C3362 1.368 . S
C3378 C3374 1.368 . S
C3378 C3377 1.523 . S
H3379 C3354 0.950 . S
H3380 C3356 0.950 . S
H3381 C3357 0.949 . S
H3382 C3359 0.950 . S
H3383 C3361 0.950 . S
C3384 C3385 1.349 . S
C3384 C3386 1.327 . S
C3384 H3409 0.950 . S
C3385 C3384 1.349 . S
C3385 C3401 1.349 . S
C3386 C3384 1.327 . S
C3386 C3405 1.429 . S
C3386 H3410 0.950 . S
C3387 C3404 1.574 . S
C3387 C3406 1.368 . S
C3387 H3411 0.949 . S
H3388 C3392 0.949 . S
C3389 C3390 1.349 . S
C3389 C3391 1.327 . S
C3389 H3412 0.950 . S
C3390 C3389 1.349 . S
C3390 C3402 1.349 . S
C3391 C3389 1.327 . S
C3391 C3407 1.429 . S
C3391 H3413 0.950 . S
C3392 H3388 0.949 . S
C3392 C3400 1.574 . S
C3392 C3408 1.368 . S
H3393 C3401 0.950 . S
H3394 C3399 0.950 . S
H3395 C3400 0.949 . S
H3396 C3402 0.950 . S
H3397 C3403 0.950 . S
H3398 C3404 0.949 . S
C3399 H3394 0.950 . S
C3399 C3401 1.327 . S
C3399 C3405 1.429 . S
C3400 C3392 1.574 . S
C3400 H3395 0.949 . S
C3400 C3406 1.368 . S
C3401 C3385 1.349 . S
C3401 H3393 0.950 . S
C3401 C3399 1.327 . S
C3402 C3390 1.349 . S
C3402 H3396 0.950 . S
C3402 C3403 1.327 . S
C3403 H3397 0.950 . S
C3403 C3402 1.327 . S
C3403 C3407 1.429 . S
C3404 C3387 1.574 . S
C3404 H3398 0.949 . S
C3404 C3408 1.368 . S
C3405 C3386 1.429 . S
C3405 C3399 1.429 . S
C3405 C3406 1.523 . S
C3406 C3387 1.368 . S
C3406 C3400 1.368 . S
C3406 C3405 1.523 . S
C3407 C3391 1.429 . S
C3407 C3403 1.429 . S
C3407 C3408 1.523 . S
C3408 C3392 1.368 . S
C3408 C3404 1.368 . S
C3408 C3407 1.523 . S
H3409 C3384 0.950 . S
H3410 C3386 0.950 . S
H3411 C3387 0.949 . S
H3412 C3389 0.950 . S
H3413 C3391 0.950 . S
C3414 C3415 1.349 . S
C3414 C3416 1.327 . S
C3414 H3439 0.950 . S
C3415 C3414 1.349 . S
C3415 C3431 1.349 . S
C3416 C3414 1.327 . S
C3416 C3435 1.429 . S
C3416 H3440 0.950 . S
C3417 C3434 1.574 . S
C3417 C3436 1.368 . S
C3417 H3441 0.949 . S
H3418 C3422 0.949 . S
C3419 C3420 1.349 . S
C3419 C3421 1.327 . S
C3419 H3442 0.950 . S
C3420 C3419 1.349 . S
C3420 C3432 1.349 . S
C3421 C3419 1.327 . S
C3421 C3437 1.429 . S
C3421 H3443 0.950 . S
C3422 H3418 0.949 . S
C3422 C3430 1.574 . S
C3422 C3438 1.368 . S
H3423 C3431 0.950 . S
H3424 C3429 0.950 . S
H3425 C3430 0.949 . S
H3426 C3432 0.950 . S
H3427 C3433 0.950 . S
H3428 C3434 0.949 . S
C3429 H3424 0.950 . S
C3429 C3431 1.327 . S
C3429 C3435 1.429 . S
C3430 C3422 1.574 . S
C3430 H3425 0.949 . S
C3430 C3436 1.368 . S
C3431 C3415 1.349 . S
C3431 H3423 0.950 . S
C3431 C3429 1.327 . S
C3432 C3420 1.349 . S
C3432 H3426 0.950 . S
C3432 C3433 1.327 . S
C3433 H3427 0.950 . S
C3433 C3432 1.327 . S
C3433 C3437 1.429 . S
C3434 C3417 1.574 . S
C3434 H3428 0.949 . S
C3434 C3438 1.368 . S
C3435 C3416 1.429 . S
C3435 C3429 1.429 . S
C3435 C3436 1.523 . S
C3436 C3417 1.368 . S
C3436 C3430 1.368 . S
C3436 C3435 1.523 . S
C3437 C3421 1.429 . S
C3437 C3433 1.429 . S
C3437 C3438 1.523 . S
C3438 C3422 1.368 . S
C3438 C3434 1.368 . S
C3438 C3437 1.523 . S
H3439 C3414 0.950 . S
H3440 C3416 0.950 . S
H3441 C3417 0.949 . S
H3442 C3419 0.950 . S
H3443 C3421 0.950 . S
C3444 C3445 1.349 . S
C3444 C3446 1.327 . S
C3444 H3469 0.950 . S
C3445 C3444 1.349 . S
C3445 C3461 1.349 . S
C3446 C3444 1.327 . S
C3446 C3465 1.429 . S
C3446 H3470 0.950 . S
C3447 C3464 1.574 . S
C3447 C3466 1.368 . S
C3447 H3471 0.949 . S
H3448 C3452 0.949 . S
C3449 C3450 1.349 . S
C3449 C3451 1.327 . S
C3449 H3472 0.950 . S
C3450 C3449 1.349 . S
C3450 C3462 1.349 . S
C3451 C3449 1.327 . S
C3451 C3467 1.429 . S
C3451 H3473 0.950 . S
C3452 H3448 0.949 . S
C3452 C3460 1.574 . S
C3452 C3468 1.368 . S
H3453 C3461 0.950 . S
H3454 C3459 0.950 . S
H3455 C3460 0.949 . S
H3456 C3462 0.950 . S
H3457 C3463 0.950 . S
H3458 C3464 0.949 . S
C3459 H3454 0.950 . S
C3459 C3461 1.327 . S
C3459 C3465 1.429 . S
C3460 C3452 1.574 . S
C3460 H3455 0.949 . S
C3460 C3466 1.368 . S
C3461 C3445 1.349 . S
C3461 H3453 0.950 . S
C3461 C3459 1.327 . S
C3462 C3450 1.349 . S
C3462 H3456 0.950 . S
C3462 C3463 1.327 . S
C3463 H3457 0.950 . S
C3463 C3462 1.327 . S
C3463 C3467 1.429 . S
C3464 C3447 1.574 . S
C3464 H3458 0.949 . S
C3464 C3468 1.368 . S
C3465 C3446 1.429 . S
C3465 C3459 1.429 . S
C3465 C3466 1.523 . S
C3466 C3447 1.368 . S
C3466 C3460 1.368 . S
C3466 C3465 1.523 . S
C3467 C3451 1.429 . S
C3467 C3463 1.429 . S
C3467 C3468 1.523 . S
C3468 C3452 1.368 . S
C3468 C3464 1.368 . S
C3468 C3467 1.523 . S
H3469 C3444 0.950 . S
H3470 C3446 0.950 . S
H3471 C3447 0.949 . S
H3472 C3449 0.950 . S
H3473 C3451 0.950 . S
C3474 C3475 1.349 . S
C3474 C3476 1.327 . S
C3474 H3499 0.950 . S
C3475 C3474 1.349 . S
C3475 C3491 1.349 . S
C3476 C3474 1.327 . S
C3476 C3495 1.429 . S
C3476 H3500 0.950 . S
C3477 C3494 1.574 . S
C3477 C3496 1.368 . S
C3477 H3501 0.949 . S
H3478 C3482 0.949 . S
C3479 C3480 1.349 . S
C3479 C3481 1.327 . S
C3479 H3502 0.950 . S
C3480 C3479 1.349 . S
C3480 C3492 1.349 . S
C3481 C3479 1.327 . S
C3481 C3497 1.429 . S
C3481 H3503 0.950 . S
C3482 H3478 0.949 . S
C3482 C3490 1.574 . S
C3482 C3498 1.368 . S
H3483 C3491 0.950 . S
H3484 C3489 0.950 . S
H3485 C3490 0.949 . S
H3486 C3492 0.950 . S
H3487 C3493 0.950 . S
H3488 C3494 0.949 . S
C3489 H3484 0.950 . S
C3489 C3491 1.327 . S
C3489 C3495 1.429 . S
C3490 C3482 1.574 . S
C3490 H3485 0.949 . S
C3490 C3496 1.368 . S
C3491 C3475 1.349 . S
C3491 H3483 0.950 . S
C3491 C3489 1.327 . S
C3492 C3480 1.349 . S
C3492 H3486 0.950 . S
C3492 C3493 1.327 . S
C3493 H3487 0.950 . S
C3493 C3492 1.327 . S
C3493 C3497 1.429 . S
C3494 C3477 1.574 . S
C3494 H3488 0.949 . S
C3494 C3498 1.368 . S
C3495 C3476 1.429 . S
C3495 C3489 1.429 . S
C3495 C3496 1.523 . S
C3496 C3477 1.368 . S
C3496 C3490 1.368 . S
C3496 C3495 1.523 . S
C3497 C3481 1.429 . S
C3497 C3493 1.429 . S
C3497 C3498 1.523 . S
C3498 C3482 1.368 . S
C3498 C3494 1.368 . S
C3498 C3497 1.523 . S
H3499 C3474 0.950 . S
H3500 C3476 0.950 . S
H3501 C3477 0.949 . S
H3502 C3479 0.950 . S
H3503 C3481 0.950 . S
C3504 C3505 1.349 . S
C3504 C3506 1.327 . S
C3504 H3529 0.950 . S
C3505 C3504 1.349 . S
C3505 C3521 1.349 . S
C3506 C3504 1.327 . S
C3506 C3525 1.429 . S
C3506 H3530 0.950 . S
C3507 C3524 1.574 . S
C3507 C3526 1.368 . S
C3507 H3531 0.949 . S
H3508 C3512 0.949 . S
C3509 C3510 1.349 . S
C3509 C3511 1.327 . S
C3509 H3532 0.950 . S
C3510 C3509 1.349 . S
C3510 C3522 1.349 . S
C3511 C3509 1.327 . S
C3511 C3527 1.429 . S
C3511 H3533 0.950 . S
C3512 H3508 0.949 . S
C3512 C3520 1.574 . S
C3512 C3528 1.368 . S
H3513 C3521 0.950 . S
H3514 C3519 0.950 . S
H3515 C3520 0.949 . S
H3516 C3522 0.950 . S
H3517 C3523 0.950 . S
H3518 C3524 0.949 . S
C3519 H3514 0.950 . S
C3519 C3521 1.327 . S
C3519 C3525 1.429 . S
C3520 C3512 1.574 . S
C3520 H3515 0.949 . S
C3520 C3526 1.368 . S
C3521 C3505 1.349 . S
C3521 H3513 0.950 . S
C3521 C3519 1.327 . S
C3522 C3510 1.349 . S
C3522 H3516 0.950 . S
C3522 C3523 1.327 . S
C3523 H3517 0.950 . S
C3523 C3522 1.327 . S
C3523 C3527 1.429 . S
C3524 C3507 1.574 . S
C3524 H3518 0.949 . S
C3524 C3528 1.368 . S
C3525 C3506 1.429 . S
C3525 C3519 1.429 . S
C3525 C3526 1.523 . S
C3526 C3507 1.368 . S
C3526 C3520 1.368 . S
C3526 C3525 1.523 . S
C3527 C3511 1.429 . S
C3527 C3523 1.429 . S
C3527 C3528 1.523 . S
C3528 C3512 1.368 . S
C3528 C3524 1.368 . S
C3528 C3527 1.523 . S
H3529 C3504 0.950 . S
H3530 C3506 0.950 . S
H3531 C3507 0.949 . S
H3532 C3509 0.950 . S
H3533 C3511 0.950 . S
C3534 C3535 1.349 . S
C3534 C3536 1.327 . S
C3534 H3559 0.950 . S
C3535 C3534 1.349 . S
C3535 C3551 1.349 . S
C3536 C3534 1.327 . S
C3536 C3555 1.429 . S
C3536 H3560 0.950 . S
C3537 C3554 1.574 . S
C3537 C3556 1.368 . S
C3537 H3561 0.949 . S
H3538 C3542 0.949 . S
C3539 C3540 1.349 . S
C3539 C3541 1.327 . S
C3539 H3562 0.950 . S
C3540 C3539 1.349 . S
C3540 C3552 1.349 . S
C3541 C3539 1.327 . S
C3541 C3557 1.429 . S
C3541 H3563 0.950 . S
C3542 H3538 0.949 . S
C3542 C3550 1.574 . S
C3542 C3558 1.368 . S
H3543 C3551 0.950 . S
H3544 C3549 0.950 . S
H3545 C3550 0.949 . S
H3546 C3552 0.950 . S
H3547 C3553 0.950 . S
H3548 C3554 0.949 . S
C3549 H3544 0.950 . S
C3549 C3551 1.327 . S
C3549 C3555 1.429 . S
C3550 C3542 1.574 . S
C3550 H3545 0.949 . S
C3550 C3556 1.368 . S
C3551 C3535 1.349 . S
C3551 H3543 0.950 . S
C3551 C3549 1.327 . S
C3552 C3540 1.349 . S
C3552 H3546 0.950 . S
C3552 C3553 1.327 . S
C3553 H3547 0.950 . S
C3553 C3552 1.327 . S
C3553 C3557 1.429 . S
C3554 C3537 1.574 . S
C3554 H3548 0.949 . S
C3554 C3558 1.368 . S
C3555 C3536 1.429 . S
C3555 C3549 1.429 . S
C3555 C3556 1.523 . S
C3556 C3537 1.368 . S
C3556 C3550 1.368 . S
C3556 C3555 1.523 . S
C3557 C3541 1.429 . S
C3557 C3553 1.429 . S
C3557 C3558 1.523 . S
C3558 C3542 1.368 . S
C3558 C3554 1.368 . S
C3558 C3557 1.523 . S
H3559 C3534 0.950 . S
H3560 C3536 0.950 . S
H3561 C3537 0.949 . S
H3562 C3539 0.950 . S
H3563 C3541 0.950 . S
C3564 C3565 1.349 . S
C3564 C3566 1.327 . S
C3564 H3589 0.950 . S
C3565 C3564 1.349 . S
C3565 C3581 1.349 . S
C3566 C3564 1.327 . S
C3566 C3585 1.429 . S
C3566 H3590 0.950 . S
C3567 C3584 1.574 . S
C3567 C3586 1.368 . S
C3567 H3591 0.949 . S
H3568 C3572 0.949 . S
C3569 C3570 1.349 . S
C3569 C3571 1.327 . S
C3569 H3592 0.950 . S
C3570 C3569 1.349 . S
C3570 C3582 1.349 . S
C3571 C3569 1.327 . S
C3571 C3587 1.429 . S
C3571 H3593 0.950 . S
C3572 H3568 0.949 . S
C3572 C3580 1.574 . S
C3572 C3588 1.368 . S
H3573 C3581 0.950 . S
H3574 C3579 0.950 . S
H3575 C3580 0.949 . S
H3576 C3582 0.950 . S
H3577 C3583 0.950 . S
H3578 C3584 0.949 . S
C3579 H3574 0.950 . S
C3579 C3581 1.327 . S
C3579 C3585 1.429 . S
C3580 C3572 1.574 . S
C3580 H3575 0.949 . S
C3580 C3586 1.368 . S
C3581 C3565 1.349 . S
C3581 H3573 0.950 . S
C3581 C3579 1.327 . S
C3582 C3570 1.349 . S
C3582 H3576 0.950 . S
C3582 C3583 1.327 . S
C3583 H3577 0.950 . S
C3583 C3582 1.327 . S
C3583 C3587 1.429 . S
C3584 C3567 1.574 . S
C3584 H3578 0.949 . S
C3584 C3588 1.368 . S
C3585 C3566 1.429 . S
C3585 C3579 1.429 . S
C3585 C3586 1.523 . S
C3586 C3567 1.368 . S
C3586 C3580 1.368 . S
C3586 C3585 1.523 . S
C3587 C3571 1.429 . S
C3587 C3583 1.429 . S
C3587 C3588 1.523 . S
C3588 C3572 1.368 . S
C3588 C3584 1.368 . S
C3588 C3587 1.523 . S
H3589 C3564 0.950 . S
H3590 C3566 0.950 . S
H3591 C3567 0.949 . S
H3592 C3569 0.950 . S
H3593 C3571 0.950 . S
C3594 C3595 1.349 . S
C3594 C3596 1.327 . S
C3594 H3619 0.950 . S
C3595 C3594 1.349 . S
C3595 C3611 1.349 . S
C3596 C3594 1.327 . S
C3596 C3615 1.429 . S
C3596 H3620 0.950 . S
C3597 C3614 1.574 . S
C3597 C3616 1.368 . S
C3597 H3621 0.949 . S
H3598 C3602 0.949 . S
C3599 C3600 1.349 . S
C3599 C3601 1.327 . S
C3599 H3622 0.950 . S
C3600 C3599 1.349 . S
C3600 C3612 1.349 . S
C3601 C3599 1.327 . S
C3601 C3617 1.429 . S
C3601 H3623 0.950 . S
C3602 H3598 0.949 . S
C3602 C3610 1.574 . S
C3602 C3618 1.368 . S
H3603 C3611 0.950 . S
H3604 C3609 0.950 . S
H3605 C3610 0.949 . S
H3606 C3612 0.950 . S
H3607 C3613 0.950 . S
H3608 C3614 0.949 . S
C3609 H3604 0.950 . S
C3609 C3611 1.327 . S
C3609 C3615 1.429 . S
C3610 C3602 1.574 . S
C3610 H3605 0.949 . S
C3610 C3616 1.368 . S
C3611 C3595 1.349 . S
C3611 H3603 0.950 . S
C3611 C3609 1.327 . S
C3612 C3600 1.349 . S
C3612 H3606 0.950 . S
C3612 C3613 1.327 . S
C3613 H3607 0.950 . S
C3613 C3612 1.327 . S
C3613 C3617 1.429 . S
C3614 C3597 1.574 . S
C3614 H3608 0.949 . S
C3614 C3618 1.368 . S
C3615 C3596 1.429 . S
C3615 C3609 1.429 . S
C3615 C3616 1.523 . S
C3616 C3597 1.368 . S
C3616 C3610 1.368 . S
C3616 C3615 1.523 . S
C3617 C3601 1.429 . S
C3617 C3613 1.429 . S
C3617 C3618 1.523 . S
C3618 C3602 1.368 . S
C3618 C3614 1.368 . S
C3618 C3617 1.523 . S
H3619 C3594 0.950 . S
H3620 C3596 0.950 . S
H3621 C3597 0.949 . S
H3622 C3599 0.950 . S
H3623 C3601 0.950 . S
C3624 C3625 1.349 . S
C3624 C3626 1.327 . S
C3624 H3649 0.950 . S
C3625 C3624 1.349 . S
C3625 C3641 1.349 . S
C3626 C3624 1.327 . S
C3626 C3645 1.429 . S
C3626 H3650 0.950 . S
C3627 C3644 1.574 . S
C3627 C3646 1.368 . S
C3627 H3651 0.949 . S
H3628 C3632 0.949 . S
C3629 C3630 1.349 . S
C3629 C3631 1.327 . S
C3629 H3652 0.950 . S
C3630 C3629 1.349 . S
C3630 C3642 1.349 . S
C3631 C3629 1.327 . S
C3631 C3647 1.429 . S
C3631 H3653 0.950 . S
C3632 H3628 0.949 . S
C3632 C3640 1.574 . S
C3632 C3648 1.368 . S
H3633 C3641 0.950 . S
H3634 C3639 0.950 . S
H3635 C3640 0.949 . S
H3636 C3642 0.950 . S
H3637 C3643 0.950 . S
H3638 C3644 0.949 . S
C3639 H3634 0.950 . S
C3639 C3641 1.327 . S
C3639 C3645 1.429 . S
C3640 C3632 1.574 . S
C3640 H3635 0.949 . S
C3640 C3646 1.368 . S
C3641 C3625 1.349 . S
C3641 H3633 0.950 . S
C3641 C3639 1.327 . S
C3642 C3630 1.349 . S
C3642 H3636 0.950 . S
C3642 C3643 1.327 . S
C3643 H3637 0.950 . S
C3643 C3642 1.327 . S
C3643 C3647 1.429 . S
C3644 C3627 1.574 . S
C3644 H3638 0.949 . S
C3644 C3648 1.368 . S
C3645 C3626 1.429 . S
C3645 C3639 1.429 . S
C3645 C3646 1.523 . S
C3646 C3627 1.368 . S
C3646 C3640 1.368 . S
C3646 C3645 1.523 . S
C3647 C3631 1.429 . S
C3647 C3643 1.429 . S
C3647 C3648 1.523 . S
C3648 C3632 1.368 . S
C3648 C3644 1.368 . S
C3648 C3647 1.523 . S
H3649 C3624 0.950 . S
H3650 C3626 0.950 . S
H3651 C3627 0.949 . S
H3652 C3629 0.950 . S
H3653 C3631 0.950 . S
C3654 C3655 1.349 . S
C3654 C3656 1.327 . S
C3654 H3679 0.950 . S
C3655 C3654 1.349 . S
C3655 C3671 1.349 . S
C3656 C3654 1.327 . S
C3656 C3675 1.429 . S
C3656 H3680 0.950 . S
C3657 C3674 1.574 . S
C3657 C3676 1.368 . S
C3657 H3681 0.949 . S
H3658 C3662 0.949 . S
C3659 C3660 1.349 . S
C3659 C3661 1.327 . S
C3659 H3682 0.950 . S
C3660 C3659 1.349 . S
C3660 C3672 1.349 . S
C3661 C3659 1.327 . S
C3661 C3677 1.429 . S
C3661 H3683 0.950 . S
C3662 H3658 0.949 . S
C3662 C3670 1.574 . S
C3662 C3678 1.368 . S
H3663 C3671 0.950 . S
H3664 C3669 0.950 . S
H3665 C3670 0.949 . S
H3666 C3672 0.950 . S
H3667 C3673 0.950 . S
H3668 C3674 0.949 . S
C3669 H3664 0.950 . S
C3669 C3671 1.327 . S
C3669 C3675 1.429 . S
C3670 C3662 1.574 . S
C3670 H3665 0.949 . S
C3670 C3676 1.368 . S
C3671 C3655 1.349 . S
C3671 H3663 0.950 . S
C3671 C3669 1.327 . S
C3672 C3660 1.349 . S
C3672 H3666 0.950 . S
C3672 C3673 1.327 . S
C3673 H3667 0.950 . S
C3673 C3672 1.327 . S
C3673 C3677 1.429 . S
C3674 C3657 1.574 . S
C3674 H3668 0.949 . S
C3674 C3678 1.368 . S
C3675 C3656 1.429 . S
C3675 C3669 1.429 . S
C3675 C3676 1.523 . S
C3676 C3657 1.368 . S
C3676 C3670 1.368 . S
C3676 C3675 1.523 . S
C3677 C3661 1.429 . S
C3677 C3673 1.429 . S
C3677 C3678 1.523 . S
C3678 C3662 1.368 . S
C3678 C3674 1.368 . S
C3678 C3677 1.523 . S
H3679 C3654 0.950 . S
H3680 C3656 0.950 . S
H3681 C3657 0.949 . S
H3682 C3659 0.950 . S
H3683 C3661 0.950 . S
C3684 C3685 1.349 . S
C3684 C3686 1.327 . S
C3684 H3709 0.950 . S
C3685 C3684 1.349 . S
C3685 C3701 1.349 . S
C3686 C3684 1.327 . S
C3686 C3705 1.429 . S
C3686 H3710 0.950 . S
C3687 C3704 1.574 . S
C3687 C3706 1.368 . S
C3687 H3711 0.949 . S
H3688 C3692 0.949 . S
C3689 C3690 1.349 . S
C3689 C3691 1.327 . S
C3689 H3712 0.950 . S
C3690 C3689 1.349 . S
C3690 C3702 1.349 . S
C3691 C3689 1.327 . S
C3691 C3707 1.429 . S
C3691 H3713 0.950 . S
C3692 H3688 0.949 . S
C3692 C3700 1.574 . S
C3692 C3708 1.368 . S
H3693 C3701 0.950 . S
H3694 C3699 0.950 . S
H3695 C3700 0.949 . S
H3696 C3702 0.950 . S
H3697 C3703 0.950 . S
H3698 C3704 0.949 . S
C3699 H3694 0.950 . S
C3699 C3701 1.327 . S
C3699 C3705 1.429 . S
C3700 C3692 1.574 . S
C3700 H3695 0.949 . S
C3700 C3706 1.368 . S
C3701 C3685 1.349 . S
C3701 H3693 0.950 . S
C3701 C3699 1.327 . S
C3702 C3690 1.349 . S
C3702 H3696 0.950 . S
C3702 C3703 1.327 . S
C3703 H3697 0.950 . S
C3703 C3702 1.327 . S
C3703 C3707 1.429 . S
C3704 C3687 1.574 . S
C3704 H3698 0.949 . S
C3704 C3708 1.368 . S
C3705 C3686 1.429 . S
C3705 C3699 1.429 . S
C3705 C3706 1.523 . S
C3706 C3687 1.368 . S
C3706 C3700 1.368 . S
C3706 C3705 1.523 . S
C3707 C3691 1.429 . S
C3707 C3703 1.429 . S
C3707 C3708 1.523 . S
C3708 C3692 1.368 . S
C3708 C3704 1.368 . S
C3708 C3707 1.523 . S
H3709 C3684 0.950 . S
H3710 C3686 0.950 . S
H3711 C3687 0.949 . S
H3712 C3689 0.950 . S
H3713 C3691 0.950 . S
C3714 C3715 1.349 . S
C3714 C3716 1.327 . S
C3714 H3739 0.950 . S
C3715 C3714 1.349 . S
C3715 C3731 1.349 . S
C3716 C3714 1.327 . S
C3716 C3735 1.429 . S
C3716 H3740 0.950 . S
C3717 C3734 1.574 . S
C3717 C3736 1.368 . S
C3717 H3741 0.949 . S
H3718 C3722 0.949 . S
C3719 C3720 1.349 . S
C3719 C3721 1.327 . S
C3719 H3742 0.950 . S
C3720 C3719 1.349 . S
C3720 C3732 1.349 . S
C3721 C3719 1.327 . S
C3721 C3737 1.429 . S
C3721 H3743 0.950 . S
C3722 H3718 0.949 . S
C3722 C3730 1.574 . S
C3722 C3738 1.368 . S
H3723 C3731 0.950 . S
H3724 C3729 0.950 . S
H3725 C3730 0.949 . S
H3726 C3732 0.950 . S
H3727 C3733 0.950 . S
H3728 C3734 0.949 . S
C3729 H3724 0.950 . S
C3729 C3731 1.327 . S
C3729 C3735 1.429 . S
C3730 C3722 1.574 . S
C3730 H3725 0.949 . S
C3730 C3736 1.368 . S
C3731 C3715 1.349 . S
C3731 H3723 0.950 . S
C3731 C3729 1.327 . S
C3732 C3720 1.349 . S
C3732 H3726 0.950 . S
C3732 C3733 1.327 . S
C3733 H3727 0.950 . S
C3733 C3732 1.327 . S
C3733 C3737 1.429 . S
C3734 C3717 1.574 . S
C3734 H3728 0.949 . S
C3734 C3738 1.368 . S
C3735 C3716 1.429 . S
C3735 C3729 1.429 . S
C3735 C3736 1.523 . S
C3736 C3717 1.368 . S
C3736 C3730 1.368 . S
C3736 C3735 1.523 . S
C3737 C3721 1.429 . S
C3737 C3733 1.429 . S
C3737 C3738 1.523 . S
C3738 C3722 1.368 . S
C3738 C3734 1.368 . S
C3738 C3737 1.523 . S
H3739 C3714 0.950 . S
H3740 C3716 0.950 . S
H3741 C3717 0.949 . S
H3742 C3719 0.950 . S
H3743 C3721 0.950 . S
C3744 C3745 1.349 . S
C3744 C3746 1.327 . S
C3744 H3769 0.950 . S
C3745 C3744 1.349 . S
C3745 C3761 1.349 . S
C3746 C3744 1.327 . S
C3746 C3765 1.429 . S
C3746 H3770 0.950 . S
C3747 C3764 1.574 . S
C3747 C3766 1.368 . S
C3747 H3771 0.949 . S
H3748 C3752 0.949 . S
C3749 C3750 1.349 . S
C3749 C3751 1.327 . S
C3749 H3772 0.950 . S
C3750 C3749 1.349 . S
C3750 C3762 1.349 . S
C3751 C3749 1.327 . S
C3751 C3767 1.429 . S
C3751 H3773 0.950 . S
C3752 H3748 0.949 . S
C3752 C3760 1.574 . S
C3752 C3768 1.368 . S
H3753 C3761 0.950 . S
H3754 C3759 0.950 . S
H3755 C3760 0.949 . S
H3756 C3762 0.950 . S
H3757 C3763 0.950 . S
H3758 C3764 0.949 . S
C3759 H3754 0.950 . S
C3759 C3761 1.327 . S
C3759 C3765 1.429 . S
C3760 C3752 1.574 . S
C3760 H3755 0.949 . S
C3760 C3766 1.368 . S
C3761 C3745 1.349 . S
C3761 H3753 0.950 . S
C3761 C3759 1.327 . S
C3762 C3750 1.349 . S
C3762 H3756 0.950 . S
C3762 C3763 1.327 . S
C3763 H3757 0.950 . S
C3763 C3762 1.327 . S
C3763 C3767 1.429 . S
C3764 C3747 1.574 . S
C3764 H3758 0.949 . S
C3764 C3768 1.368 . S
C3765 C3746 1.429 . S
C3765 C3759 1.429 . S
C3765 C3766 1.523 . S
C3766 C3747 1.368 . S
C3766 C3760 1.368 . S
C3766 C3765 1.523 . S
C3767 C3751 1.429 . S
C3767 C3763 1.429 . S
C3767 C3768 1.523 . S
C3768 C3752 1.368 . S
C3768 C3764 1.368 . S
C3768 C3767 1.523 . S
H3769 C3744 0.950 . S
H3770 C3746 0.950 . S
H3771 C3747 0.949 . S
H3772 C3749 0.950 . S
H3773 C3751 0.950 . S
C3774 C3775 1.349 . S
C3774 C3776 1.327 . S
C3774 H3799 0.950 . S
C3775 C3774 1.349 . S
C3775 C3791 1.349 . S
C3776 C3774 1.327 . S
C3776 C3795 1.429 . S
C3776 H3800 0.950 . S
C3777 C3794 1.574 . S
C3777 C3796 1.368 . S
C3777 H3801 0.949 . S
H3778 C3782 0.949 . S
C3779 C3780 1.349 . S
C3779 C3781 1.327 . S
C3779 H3802 0.950 . S
C3780 C3779 1.349 . S
C3780 C3792 1.349 . S
C3781 C3779 1.327 . S
C3781 C3797 1.429 . S
C3781 H3803 0.950 . S
C3782 H3778 0.949 . S
C3782 C3790 1.574 . S
C3782 C3798 1.368 . S
H3783 C3791 0.950 . S
H3784 C3789 0.950 . S
H3785 C3790 0.949 . S
H3786 C3792 0.950 . S
H3787 C3793 0.950 . S
H3788 C3794 0.949 . S
C3789 H3784 0.950 . S
C3789 C3791 1.327 . S
C3789 C3795 1.429 . S
C3790 C3782 1.574 . S
C3790 H3785 0.949 . S
C3790 C3796 1.368 . S
C3791 C3775 1.349 . S
C3791 H3783 0.950 . S
C3791 C3789 1.327 . S
C3792 C3780 1.349 . S
C3792 H3786 0.950 . S
C3792 C3793 1.327 . S
C3793 H3787 0.950 . S
C3793 C3792 1.327 . S
C3793 C3797 1.429 . S
C3794 C3777 1.574 . S
C3794 H3788 0.949 . S
C3794 C3798 1.368 . S
C3795 C3776 1.429 . S
C3795 C3789 1.429 . S
C3795 C3796 1.523 . S
C3796 C3777 1.368 . S
C3796 C3790 1.368 . S
C3796 C3795 1.523 . S
C3797 C3781 1.429 . S
C3797 C3793 1.429 . S
C3797 C3798 1.523 . S
C3798 C3782 1.368 . S
C3798 C3794 1.368 . S
C3798 C3797 1.523 . S
H3799 C3774 0.950 . S
H3800 C3776 0.950 . S
H3801 C3777 0.949 . S
H3802 C3779 0.950 . S
H3803 C3781 0.950 . S
C3804 C3805 1.349 . S
C3804 C3806 1.327 . S
C3804 H3829 0.950 . S
C3805 C3804 1.349 . S
C3805 C3821 1.349 . S
C3806 C3804 1.327 . S
C3806 C3825 1.429 . S
C3806 H3830 0.950 . S
C3807 C3824 1.574 . S
C3807 C3826 1.368 . S
C3807 H3831 0.949 . S
H3808 C3812 0.949 . S
C3809 C3810 1.349 . S
C3809 C3811 1.327 . S
C3809 H3832 0.950 . S
C3810 C3809 1.349 . S
C3810 C3822 1.349 . S
C3811 C3809 1.327 . S
C3811 C3827 1.429 . S
C3811 H3833 0.950 . S
C3812 H3808 0.949 . S
C3812 C3820 1.574 . S
C3812 C3828 1.368 . S
H3813 C3821 0.950 . S
H3814 C3819 0.950 . S
H3815 C3820 0.949 . S
H3816 C3822 0.950 . S
H3817 C3823 0.950 . S
H3818 C3824 0.949 . S
C3819 H3814 0.950 . S
C3819 C3821 1.327 . S
C3819 C3825 1.429 . S
C3820 C3812 1.574 . S
C3820 H3815 0.949 . S
C3820 C3826 1.368 . S
C3821 C3805 1.349 . S
C3821 H3813 0.950 . S
C3821 C3819 1.327 . S
C3822 C3810 1.349 . S
C3822 H3816 0.950 . S
C3822 C3823 1.327 . S
C3823 H3817 0.950 . S
C3823 C3822 1.327 . S
C3823 C3827 1.429 . S
C3824 C3807 1.574 . S
C3824 H3818 0.949 . S
C3824 C3828 1.368 . S
C3825 C3806 1.429 . S
C3825 C3819 1.429 . S
C3825 C3826 1.523 . S
C3826 C3807 1.368 . S
C3826 C3820 1.368 . S
C3826 C3825 1.523 . S
C3827 C3811 1.429 . S
C3827 C3823 1.429 . S
C3827 C3828 1.523 . S
C3828 C3812 1.368 . S
C3828 C3824 1.368 . S
C3828 C3827 1.523 . S
H3829 C3804 0.950 . S
H3830 C3806 0.950 . S
H3831 C3807 0.949 . S
H3832 C3809 0.950 . S
H3833 C3811 0.950 . S
C3834 C3835 1.349 . S
C3834 C3836 1.327 . S
C3834 H3859 0.950 . S
C3835 C3834 1.349 . S
C3835 C3851 1.349 . S
C3836 C3834 1.327 . S
C3836 C3855 1.429 . S
C3836 H3860 0.950 . S
C3837 C3854 1.574 . S
C3837 C3856 1.368 . S
C3837 H3861 0.949 . S
H3838 C3842 0.949 . S
C3839 C3840 1.349 . S
C3839 C3841 1.327 . S
C3839 H3862 0.950 . S
C3840 C3839 1.349 . S
C3840 C3852 1.349 . S
C3841 C3839 1.327 . S
C3841 C3857 1.429 . S
C3841 H3863 0.950 . S
C3842 H3838 0.949 . S
C3842 C3850 1.574 . S
C3842 C3858 1.368 . S
H3843 C3851 0.950 . S
H3844 C3849 0.950 . S
H3845 C3850 0.949 . S
H3846 C3852 0.950 . S
H3847 C3853 0.950 . S
H3848 C3854 0.949 . S
C3849 H3844 0.950 . S
C3849 C3851 1.327 . S
C3849 C3855 1.429 . S
C3850 C3842 1.574 . S
C3850 H3845 0.949 . S
C3850 C3856 1.368 . S
C3851 C3835 1.349 . S
C3851 H3843 0.950 . S
C3851 C3849 1.327 . S
C3852 C3840 1.349 . S
C3852 H3846 0.950 . S
C3852 C3853 1.327 . S
C3853 H3847 0.950 . S
C3853 C3852 1.327 . S
C3853 C3857 1.429 . S
C3854 C3837 1.574 . S
C3854 H3848 0.949 . S
C3854 C3858 1.368 . S
C3855 C3836 1.429 . S
C3855 C3849 1.429 . S
C3855 C3856 1.523 . S
C3856 C3837 1.368 . S
C3856 C3850 1.368 . S
C3856 C3855 1.523 . S
C3857 C3841 1.429 . S
C3857 C3853 1.429 . S
C3857 C3858 1.523 . S
C3858 C3842 1.368 . S
C3858 C3854 1.368 . S
C3858 C3857 1.523 . S
H3859 C3834 0.950 . S
H3860 C3836 0.950 . S
H3861 C3837 0.949 . S
H3862 C3839 0.950 . S
H3863 C3841 0.950 . S
C3864 C3865 1.349 . S
C3864 C3866 1.327 . S
C3864 H3889 0.950 . S
C3865 C3864 1.349 . S
C3865 C3881 1.349 . S
C3866 C3864 1.327 . S
C3866 C3885 1.429 . S
C3866 H3890 0.950 . S
C3867 C3884 1.574 . S
C3867 C3886 1.368 . S
C3867 H3891 0.949 . S
H3868 C3872 0.949 . S
C3869 C3870 1.349 . S
C3869 C3871 1.327 . S
C3869 H3892 0.950 . S
C3870 C3869 1.349 . S
C3870 C3882 1.349 . S
C3871 C3869 1.327 . S
C3871 C3887 1.429 . S
C3871 H3893 0.950 . S
C3872 H3868 0.949 . S
C3872 C3880 1.574 . S
C3872 C3888 1.368 . S
H3873 C3881 0.950 . S
H3874 C3879 0.950 . S
H3875 C3880 0.949 . S
H3876 C3882 0.950 . S
H3877 C3883 0.950 . S
H3878 C3884 0.949 . S
C3879 H3874 0.950 . S
C3879 C3881 1.327 . S
C3879 C3885 1.429 . S
C3880 C3872 1.574 . S
C3880 H3875 0.949 . S
C3880 C3886 1.368 . S
C3881 C3865 1.349 . S
C3881 H3873 0.950 . S
C3881 C3879 1.327 . S
C3882 C3870 1.349 . S
C3882 H3876 0.950 . S
C3882 C3883 1.327 . S
C3883 H3877 0.950 . S
C3883 C3882 1.327 . S
C3883 C3887 1.429 . S
C3884 C3867 1.574 . S
C3884 H3878 0.949 . S
C3884 C3888 1.368 . S
C3885 C3866 1.429 . S
C3885 C3879 1.429 . S
C3885 C3886 1.523 . S
C3886 C3867 1.368 . S
C3886 C3880 1.368 . S
C3886 C3885 1.523 . S
C3887 C3871 1.429 . S
C3887 C3883 1.429 . S
C3887 C3888 1.523 . S
C3888 C3872 1.368 . S
C3888 C3884 1.368 . S
C3888 C3887 1.523 . S
H3889 C3864 0.950 . S
H3890 C3866 0.950 . S
H3891 C3867 0.949 . S
H3892 C3869 0.950 . S
H3893 C3871 0.950 . S
C3894 C3895 1.349 . S
C3894 C3896 1.327 . S
C3894 H3919 0.950 . S
C3895 C3894 1.349 . S
C3895 C3911 1.349 . S
C3896 C3894 1.327 . S
C3896 C3915 1.429 . S
C3896 H3920 0.950 . S
C3897 C3914 1.574 . S
C3897 C3916 1.368 . S
C3897 H3921 0.949 . S
H3898 C3902 0.949 . S
C3899 C3900 1.349 . S
C3899 C3901 1.327 . S
C3899 H3922 0.950 . S
C3900 C3899 1.349 . S
C3900 C3912 1.349 . S
C3901 C3899 1.327 . S
C3901 C3917 1.429 . S
C3901 H3923 0.950 . S
C3902 H3898 0.949 . S
C3902 C3910 1.574 . S
C3902 C3918 1.368 . S
H3903 C3911 0.950 . S
H3904 C3909 0.950 . S
H3905 C3910 0.949 . S
H3906 C3912 0.950 . S
H3907 C3913 0.950 . S
H3908 C3914 0.949 . S
C3909 H3904 0.950 . S
C3909 C3911 1.327 . S
C3909 C3915 1.429 . S
C3910 C3902 1.574 . S
C3910 H3905 0.949 . S
C3910 C3916 1.368 . S
C3911 C3895 1.349 . S
C3911 H3903 0.950 . S
C3911 C3909 1.327 . S
C3912 C3900 1.349 . S
C3912 H3906 0.950 . S
C3912 C3913 1.327 . S
C3913 H3907 0.950 . S
C3913 C3912 1.327 . S
C3913 C3917 1.429 . S
C3914 C3897 1.574 . S
C3914 H3908 0.949 . S
C3914 C3918 1.368 . S
C3915 C3896 1.429 . S
C3915 C3909 1.429 . S
C3915 C3916 1.523 . S
C3916 C3897 1.368 . S
C3916 C3910 1.368 . S
C3916 C3915 1.523 . S
C3917 C3901 1.429 . S
C3917 C3913 1.429 . S
C3917 C3918 1.523 . S
C3918 C3902 1.368 . S
C3918 C3914 1.368 . S
C3918 C3917 1.523 . S
H3919 C3894 0.950 . S
H3920 C3896 0.950 . S
H3921 C3897 0.949 . S
H3922 C3899 0.950 . S
H3923 C3901 0.950 . S
C1225 C546 1.374 . S
C1230 C2 1.374 1_556 S
C1255 C36 1.374 1_556 S
C1260 C580 1.374 . S
C1285 C512 1.374 . S
C1290 C70 1.374 1_556 S
C1315 C104 1.374 . S
C1320 C886 1.374 . S
C1345 C818 1.374 . S
C1350 C138 1.374 . S
C1375 C172 1.374 . S
C1380 C852 1.374 . S
C1405 C206 1.374 1_554 S
C1410 C1158 1.374 . S
C1435 C240 1.374 1_554 S
C1440 C1192 1.374 . S
C1465 C274 1.374 1_554 S
C1470 C1124 1.374 . S
C1495 C308 1.374 . S
C1500 C682 1.374 . S
C1525 C342 1.374 . S
C1530 C614 1.374 . S
C1555 C376 1.374 . S
C1560 C648 1.374 . S
C1585 C410 1.374 . S
C1590 C954 1.374 . S
C1615 C988 1.374 . S
C1620 C444 1.374 . S
C1645 C920 1.374 . S
C1650 C478 1.374 . S
C1675 C1090 1.374 . S
C1680 C716 1.374 . S
C1705 C1022 1.374 . S
C1710 C750 1.374 . S
C1735 C784 1.374 . S
C1740 C1056 1.374 . S
C1765 C991 1.285 . S
C1770 C5 1.285 . S
C1795 C39 1.285 . S
C1800 C923 1.285 . S
C1825 C73 1.285 . S
C1830 C957 1.285 . S
C1855 C107 1.285 . S
C1860 C447 1.285 . S
C1885 C141 1.285 . S
C1890 C481 1.285 . S
C1915 C413 1.285 . S
C1920 C175 1.285 . S
C1945 C787 1.285 . S
C1950 C209 1.285 . S
C1975 C243 1.285 . S
C1980 C719 1.285 . S
C2005 C277 1.285 . S
C2010 C753 1.285 . S
C2035 C1059 1.285 . S
C2040 C311 1.285 . S
C2065 C1093 1.285 . S
C2070 C345 1.285 . S
C2095 C1025 1.285 . S
C2100 C379 1.285 . S
C2125 C515 1.285 . S
C2130 C855 1.285 . S
C2155 C549 1.285 . S
C2160 C889 1.285 . S
C2185 C583 1.285 . S
C2190 C821 1.285 . S
C2215 C617 1.285 . S
C2220 C1195 1.285 . S
C2245 C1127 1.285 . S
C2250 C651 1.285 . S
C2275 C685 1.285 . S
C2280 C1161 1.285 . S
C2305 C20 1.590 . S
C2310 C632 1.590 . S
C2335 C54 1.590 . S
C2340 C666 1.590 . S
C2365 C700 1.591 . S
C2370 C88 1.591 . S
C2395 C122 1.590 . S
C2400 C1142 1.590 . S
C2425 C156 1.591 . S
C2430 C1176 1.591 . S
C2455 C190 1.590 . S
C2460 C1210 1.590 . S
C2485 C836 1.590 . S
C2490 C224 1.590 . S
C2515 C258 1.590 . S
C2520 C870 1.590 . S
C2545 C904 1.591 . S
C2550 C292 1.591 . S
C2575 C530 1.590 . S
C2580 C326 1.590 . S
C2605 C564 1.591 . S
C2610 C360 1.591 . S
C2635 C394 1.590 . S
C2640 C598 1.590 . S
C2665 C1040 1.590 . S
C2670 C428 1.590 . S
C2695 C1074 1.591 . S
C2700 C462 1.591 . S
C2725 C496 1.591 . S
C2730 C1108 1.591 . S
C2755 C938 1.590 . S
C2760 C734 1.590 . S
C2785 C768 1.591 . S
C2790 C972 1.591 . S
C2815 C1006 1.591 . S
C2820 C802 1.591 . S
C2845 C9 1.261 . S
C2850 C271 1.296 . S
C2875 C43 1.261 . S
C2880 C305 1.296 . S
C2905 C237 1.295 . S
C2910 C77 1.261 . S
C2935 C407 1.296 . S
C2940 C111 1.261 . S
C2965 C339 1.295 . S
C2970 C145 1.261 . S
C2995 C373 1.296 . S
C3000 C179 1.261 . S
C3025 C67 1.296 . S
C3030 C213 1.261 . S
C3055 C101 1.296 . S
C3060 C247 1.261 . S
C3085 C33 1.295 . S
C3090 C281 1.261 . S
C3115 C315 1.261 . S
C3120 C203 1.296 . S
C3145 C349 1.261 . S
C3150 C135 1.295 . S
C3175 C169 1.296 . S
C3180 C383 1.261 . S
C3205 C679 1.296 . S
C3210 C417 1.261 . S
C3235 C451 1.261 . S
C3240 C713 1.296 . S
C3265 C645 1.295 . S
C3270 C485 1.261 . S
C3295 C815 1.296 . S
C3300 C519 1.261 . S
C3325 C553 1.261 . S
C3330 C747 1.295 . S
C3355 C587 1.261 . S
C3360 C781 1.296 . S
C3385 C621 1.261 . S
C3390 C475 1.296 . S
C3415 C655 1.261 . S
C3420 C509 1.296 . S
C3445 C689 1.261 . S
C3450 C441 1.295 . S
C3475 C723 1.261 . S
C3480 C611 1.296 . S
C3505 C543 1.295 . S
C3510 C757 1.261 . S
C3535 C577 1.296 . S
C3540 C791 1.261 . S
C3565 C1087 1.296 . S
C3570 C825 1.261 . S
C3595 C1121 1.296 . S
C3600 C859 1.261 . S
C3625 C1053 1.295 . S
C3630 C893 1.261 . S
C3655 C1223 1.296 . S
C3660 C927 1.261 . S
C3685 C961 1.261 . S
C3690 C1155 1.295 . S
C3715 C1189 1.296 . S
C3720 C995 1.261 . S
C3745 C883 1.296 . S
C3750 C1029 1.261 . S
C3775 C917 1.296 . S
C3780 C1063 1.261 . S
C3805 C849 1.295 . S
C3810 C1097 1.261 . S
C3835 C1131 1.261 . S
C3840 C1019 1.296 . S
C3865 C1165 1.261 . S
C3870 C951 1.295 . S
C3895 C985 1.296 . S
C3900 C1199 1.261 . S
