# Generated by pormake.
# Topology vch, (7)-cn, num edge types: 1
# Building blocks:
#     Node 0, Type 0, BuildingBlock: HICVOG_clean_sbu_0, # of connection points: 7
#     Node 1, Type 0, BuildingBlock: HICVOG_clean_sbu_0, # of connection points: 7
#     Node 2, Type 0, BuildingBlock: HICVOG_clean_sbu_0, # of connection points: 7
#     Node 3, Type 0, BuildingBlock: HICVOG_clean_sbu_0, # of connection points: 7
#     Node 4, Type 0, BuildingBlock: HICVOG_clean_sbu_0, # of connection points: 7
#     Node 5, Type 0, BuildingBlock: HICVOG_clean_sbu_0, # of connection points: 7
#     Node 6, Type 0, BuildingBlock: HICVOG_clean_sbu_0, # of connection points: 7
#     Node 7, Type 0, BuildingBlock: HICVOG_clean_sbu_0, # of connection points: 7
#     Node 8, Type 0, BuildingBlock: HICVOG_clean_sbu_0, # of connection points: 7
#     Node 9, Type 0, BuildingBlock: HICVOG_clean_sbu_0, # of connection points: 7
#     Node 10, Type 0, BuildingBlock: HICVOG_clean_sbu_0, # of connection points: 7
#     Node 11, Type 0, BuildingBlock: HICVOG_clean_sbu_0, # of connection points: 7
#     Node 12, Type 0, BuildingBlock: HICVOG_clean_sbu_0, # of connection points: 7
#     Node 13, Type 0, BuildingBlock: HICVOG_clean_sbu_0, # of connection points: 7
#     Node 14, Type 0, BuildingBlock: HICVOG_clean_sbu_0, # of connection points: 7
#     Node 15, Type 0, BuildingBlock: HICVOG_clean_sbu_0, # of connection points: 7
#     Edge 16, Type (0, 0), BuildingBlock: XIVTED_clean_linker_0, # of connection points: 2
#     Edge 17, Type (0, 0), BuildingBlock: XIVTED_clean_linker_0, # of connection points: 2
#     Edge 18, Type (0, 0), BuildingBlock: XIVTED_clean_linker_0, # of connection points: 2
#     Edge 19, Type (0, 0), BuildingBlock: XIVTED_clean_linker_0, # of connection points: 2
#     Edge 20, Type (0, 0), BuildingBlock: XIVTED_clean_linker_0, # of connection points: 2
#     Edge 21, Type (0, 0), BuildingBlock: XIVTED_clean_linker_0, # of connection points: 2
#     Edge 22, Type (0, 0), BuildingBlock: XIVTED_clean_linker_0, # of connection points: 2
#     Edge 23, Type (0, 0), BuildingBlock: XIVTED_clean_linker_0, # of connection points: 2
#     Edge 24, Type (0, 0), BuildingBlock: XIVTED_clean_linker_0, # of connection points: 2
#     Edge 25, Type (0, 0), BuildingBlock: XIVTED_clean_linker_0, # of connection points: 2
#     Edge 26, Type (0, 0), BuildingBlock: XIVTED_clean_linker_0, # of connection points: 2
#     Edge 27, Type (0, 0), BuildingBlock: XIVTED_clean_linker_0, # of connection points: 2
#     Edge 28, Type (0, 0), BuildingBlock: XIVTED_clean_linker_0, # of connection points: 2
#     Edge 29, Type (0, 0), BuildingBlock: XIVTED_clean_linker_0, # of connection points: 2
#     Edge 30, Type (0, 0), BuildingBlock: XIVTED_clean_linker_0, # of connection points: 2
#     Edge 31, Type (0, 0), BuildingBlock: XIVTED_clean_linker_0, # of connection points: 2
#     Edge 32, Type (0, 0), BuildingBlock: XIVTED_clean_linker_0, # of connection points: 2
#     Edge 33, Type (0, 0), BuildingBlock: XIVTED_clean_linker_0, # of connection points: 2
#     Edge 34, Type (0, 0), BuildingBlock: XIVTED_clean_linker_0, # of connection points: 2
#     Edge 35, Type (0, 0), BuildingBlock: XIVTED_clean_linker_0, # of connection points: 2
#     Edge 36, Type (0, 0), BuildingBlock: XIVTED_clean_linker_0, # of connection points: 2
#     Edge 37, Type (0, 0), BuildingBlock: XIVTED_clean_linker_0, # of connection points: 2
#     Edge 38, Type (0, 0), BuildingBlock: XIVTED_clean_linker_0, # of connection points: 2
#     Edge 39, Type (0, 0), BuildingBlock: XIVTED_clean_linker_0, # of connection points: 2
#     Edge 40, Type (0, 0), BuildingBlock: XIVTED_clean_linker_0, # of connection points: 2
#     Edge 41, Type (0, 0), BuildingBlock: XIVTED_clean_linker_0, # of connection points: 2
#     Edge 42, Type (0, 0), BuildingBlock: XIVTED_clean_linker_0, # of connection points: 2
#     Edge 43, Type (0, 0), BuildingBlock: XIVTED_clean_linker_0, # of connection points: 2
#     Edge 44, Type (0, 0), BuildingBlock: XIVTED_clean_linker_0, # of connection points: 2
#     Edge 45, Type (0, 0), BuildingBlock: XIVTED_clean_linker_0, # of connection points: 2
#     Edge 46, Type (0, 0), BuildingBlock: XIVTED_clean_linker_0, # of connection points: 2
#     Edge 47, Type (0, 0), BuildingBlock: XIVTED_clean_linker_0, # of connection points: 2
#     Edge 48, Type (0, 0), BuildingBlock: XIVTED_clean_linker_0, # of connection points: 2
#     Edge 49, Type (0, 0), BuildingBlock: XIVTED_clean_linker_0, # of connection points: 2
#     Edge 50, Type (0, 0), BuildingBlock: XIVTED_clean_linker_0, # of connection points: 2
#     Edge 51, Type (0, 0), BuildingBlock: XIVTED_clean_linker_0, # of connection points: 2
#     Edge 52, Type (0, 0), BuildingBlock: XIVTED_clean_linker_0, # of connection points: 2
#     Edge 53, Type (0, 0), BuildingBlock: XIVTED_clean_linker_0, # of connection points: 2
#     Edge 54, Type (0, 0), BuildingBlock: XIVTED_clean_linker_0, # of connection points: 2
#     Edge 55, Type (0, 0), BuildingBlock: XIVTED_clean_linker_0, # of connection points: 2
#     Edge 56, Type (0, 0), BuildingBlock: XIVTED_clean_linker_0, # of connection points: 2
#     Edge 57, Type (0, 0), BuildingBlock: XIVTED_clean_linker_0, # of connection points: 2
#     Edge 58, Type (0, 0), BuildingBlock: XIVTED_clean_linker_0, # of connection points: 2
#     Edge 59, Type (0, 0), BuildingBlock: XIVTED_clean_linker_0, # of connection points: 2
#     Edge 60, Type (0, 0), BuildingBlock: XIVTED_clean_linker_0, # of connection points: 2
#     Edge 61, Type (0, 0), BuildingBlock: XIVTED_clean_linker_0, # of connection points: 2
#     Edge 62, Type (0, 0), BuildingBlock: XIVTED_clean_linker_0, # of connection points: 2
#     Edge 63, Type (0, 0), BuildingBlock: XIVTED_clean_linker_0, # of connection points: 2
#     Edge 64, Type (0, 0), BuildingBlock: XIVTED_clean_linker_0, # of connection points: 2
#     Edge 65, Type (0, 0), BuildingBlock: XIVTED_clean_linker_0, # of connection points: 2
#     Edge 66, Type (0, 0), BuildingBlock: XIVTED_clean_linker_0, # of connection points: 2
#     Edge 67, Type (0, 0), BuildingBlock: XIVTED_clean_linker_0, # of connection points: 2
#     Edge 68, Type (0, 0), BuildingBlock: XIVTED_clean_linker_0, # of connection points: 2
#     Edge 69, Type (0, 0), BuildingBlock: XIVTED_clean_linker_0, # of connection points: 2
#     Edge 70, Type (0, 0), BuildingBlock: XIVTED_clean_linker_0, # of connection points: 2
#     Edge 71, Type (0, 0), BuildingBlock: XIVTED_clean_linker_0, # of connection points: 2
# Relax obj value: 0.109
# Max RMSD: 0.194
# Mean RMSD: 0.194
data_MOF--net-vch--node1-HICVOG_clean_sbu_0--edge1-XIVTED_clean_linker_0
_symmetry_space_group_name_H-M    P1
_symmetry_Int_Tables_number       1
_symmetry_cell_setting            triclinic
loop_
_symmetry_equiv_pos_as_xyz
'x, y, z'
_cell_length_a     18.267974
_cell_length_b     78.903156
_cell_length_c     52.535548
_cell_angle_alpha  90.168502
_cell_angle_beta   90.045051
_cell_angle_gamma 90.002205
loop_
_atom_site_label
_atom_site_type_symbol
_atom_site_fract_x
_atom_site_fract_y
_atom_site_fract_z
_atom_type_partial_charge
Zn0 Zn 0.95692 0.1552 0.12504 0.0
C1 C 0.10073 0.14385 0.0744 0.0
N2 N 0.0497 0.14969 0.05834 0.0
C3 C 0.98857 0.14962 0.07246 0.0
N4 N 0.00245 0.14424 0.09638 0.0
N5 N 0.07253 0.1401 0.09743 0.0
C6 C 0.26023 0.14058 0.12003 0.0
O7 O 0.22322 0.15479 0.1184 0.0
O8 O 0.84773 0.15813 0.11888 0.0
Zn9 Zn 0.11389 0.12596 0.12413 0.0
N10 N 0.01089 0.17635 0.12981 0.0
C11 C 0.12786 0.18612 0.14337 0.0
C12 C 0.07926 0.173 0.13864 0.0
C13 C 0.98899 0.19262 0.1252 0.0
N14 N 0.10645 0.20223 0.13895 0.0
C15 C 0.03855 0.20609 0.12997 0.0
O16 O 0.07859 0.13081 0.16067 0.0
C17 C 0.01937 0.13578 0.1713 0.0
O18 O 0.96855 0.14304 0.15875 0.0
H19 H 0.0961 0.16011 0.14184 0.0
H20 H 0.93412 0.19494 0.11832 0.0
C21 C 0.12269 0.08912 0.11834 0.0
C22 C 0.09142 0.07298 0.1141 0.0
C23 C 0.97587 0.08607 0.10733 0.0
C24 C 0.00681 0.10189 0.11186 0.0
N25 N 0.07945 0.10317 0.11707 0.0
N26 N 0.0186 0.07206 0.10866 0.0
H27 H 0.17977 0.09057 0.12335 0.0
C28 C 0.81037 0.14472 0.12252 0.0
O29 O 0.84481 0.13084 0.12938 0.0
O30 O 0.22547 0.1267 0.12264 0.0
H31 H 0.97291 0.11308 0.11166 0.0
H32 H 0.18235 0.18354 0.15045 0.0
H33 H 0.91811 0.0849 0.10313 0.0
Zn34 Zn 0.34989 0.90921 0.13251 0.0
C35 C 0.49361 0.90144 0.07889 0.0
N36 N 0.4413 0.90856 0.06455 0.0
C37 C 0.38212 0.90789 0.07959 0.0
N38 N 0.39844 0.901 0.10234 0.0
N39 N 0.46789 0.89635 0.10167 0.0
C40 C 0.6552 0.89134 0.1213 0.0
O41 O 0.62042 0.90576 0.12455 0.0
O42 O 0.23923 0.90744 0.12857 0.0
Zn43 Zn 0.50852 0.88045 0.12586 0.0
N44 N 0.37949 0.93274 0.13426 0.0
C45 C 0.48168 0.95091 0.14063 0.0
C46 C 0.4518 0.93474 0.13948 0.0
C47 C 0.33526 0.94635 0.13 0.0
N48 N 0.43796 0.9645 0.13648 0.0
C49 C 0.36526 0.96285 0.13121 0.0
O50 O 0.49557 0.88827 0.16223 0.0
C51 C 0.44422 0.89414 0.17611 0.0
O52 O 0.38482 0.89988 0.16663 0.0
H53 H 0.48611 0.92376 0.14252 0.0
H54 H 0.27835 0.94425 0.12528 0.0
C55 C 0.47955 0.84327 0.11958 0.0
C56 C 0.42992 0.82947 0.11803 0.0
C57 C 0.33076 0.8488 0.12229 0.0
C58 C 0.37964 0.86218 0.12431 0.0
N59 N 0.45279 0.85934 0.1226 0.0
N60 N 0.35692 0.83288 0.11929 0.0
H61 H 0.53805 0.84139 0.11835 0.0
C62 C 0.20268 0.89499 0.13723 0.0
O63 O 0.23692 0.88307 0.14994 0.0
O64 O 0.61814 0.87767 0.12047 0.0
H65 H 0.35945 0.87484 0.12741 0.0
H66 H 0.53923 0.95269 0.14472 0.0
H67 H 0.27239 0.85099 0.1234 0.0
Zn68 Zn 0.62388 0.89865 0.41318 0.0
C69 C 0.49518 0.87023 0.45784 0.0
N70 N 0.55637 0.86742 0.47127 0.0
C71 C 0.60871 0.87458 0.45702 0.0
N72 N 0.58106 0.8817 0.43576 0.0
N73 N 0.51021 0.87833 0.43589 0.0
C74 C 0.3185 0.87935 0.40851 0.0
O75 O 0.35176 0.89375 0.40369 0.0
O76 O 0.73461 0.89638 0.41308 0.0
Zn77 Zn 0.46627 0.86973 0.40566 0.0
N78 N 0.59889 0.92094 0.42698 0.0
C79 C 0.51867 0.93755 0.45257 0.0
C80 C 0.54022 0.92193 0.44281 0.0
C81 C 0.63737 0.93512 0.42056 0.0
N82 N 0.55664 0.95166 0.44614 0.0
C83 C 0.61583 0.95104 0.43043 0.0
O84 O 0.47809 0.8848 0.3753 0.0
C85 C 0.52645 0.894 0.36474 0.0
O86 O 0.58524 0.89837 0.37625 0.0
H87 H 0.50998 0.9107 0.44778 0.0
H88 H 0.68299 0.93396 0.40757 0.0
C89 C 0.50357 0.83321 0.40529 0.0
C90 C 0.55174 0.8197 0.39945 0.0
C91 C 0.63056 0.83908 0.37842 0.0
C92 C 0.58327 0.85228 0.38427 0.0
N93 N 0.52061 0.84919 0.39741 0.0
N94 N 0.6138 0.82321 0.38613 0.0
H95 H 0.45455 0.83122 0.4164 0.0
C96 C 0.76832 0.88228 0.41191 0.0
O97 O 0.73042 0.86818 0.41023 0.0
O98 O 0.35706 0.86598 0.41067 0.0
H99 H 0.59747 0.86501 0.37884 0.0
H100 H 0.47193 0.93849 0.46513 0.0
H101 H 0.68067 0.84143 0.36805 0.0
Zn102 Zn 0.02157 0.14578 0.41283 0.0
C103 C 0.90664 0.11495 0.45818 0.0
N104 N 0.9639 0.11657 0.47391 0.0
C105 C 0.01246 0.12505 0.45974 0.0
N106 N 0.98624 0.12871 0.43633 0.0
N107 N 0.91974 0.12203 0.43531 0.0
C108 C 0.71896 0.13114 0.40518 0.0
O109 O 0.75362 0.14412 0.39528 0.0
O110 O 0.13166 0.14872 0.41737 0.0
Zn111 Zn 0.86523 0.11577 0.40505 0.0
N112 N 0.9655 0.16653 0.41964 0.0
C113 C 0.84547 0.17676 0.42834 0.0
C114 C 0.89315 0.16346 0.42347 0.0
C115 C 0.99208 0.18273 0.41994 0.0
N116 N 0.87155 0.19281 0.42869 0.0
C117 C 0.94343 0.19642 0.4245 0.0
O118 O 0.89609 0.12694 0.37153 0.0
C119 C 0.95259 0.13399 0.36192 0.0
O120 O 0.00427 0.1398 0.37575 0.0
H121 H 0.87229 0.15072 0.42253 0.0
H122 H 0.04985 0.1848 0.41679 0.0
C123 C 0.8484 0.07843 0.40474 0.0
C124 C 0.87595 0.06195 0.39992 0.0
C125 C 0.98714 0.0742 0.38516 0.0
C126 C 0.9598 0.09031 0.38997 0.0
N127 N 0.89116 0.09217 0.39948 0.0
N128 N 0.94485 0.06052 0.39021 0.0
H129 H 0.7948 0.08042 0.4129 0.0
C130 C 0.16952 0.13549 0.41284 0.0
O131 O 0.13533 0.12153 0.40608 0.0
O132 O 0.75502 0.11783 0.41071 0.0
H133 H 0.99325 0.10134 0.38631 0.0
H134 H 0.78788 0.17439 0.43156 0.0
H135 H 0.04169 0.07254 0.37756 0.0
Zn136 Zn 0.86936 0.89743 0.91316 0.0
C137 C 0.99857 0.87096 0.96068 0.0
N138 N 0.9366 0.86863 0.97388 0.0
C139 C 0.88512 0.87517 0.95859 0.0
N140 N 0.91402 0.88155 0.93705 0.0
N141 N 0.98491 0.87822 0.93795 0.0
C142 C 0.17245 0.88054 0.90789 0.0
O143 O 0.13163 0.89364 0.90185 0.0
O144 O 0.75967 0.89325 0.91382 0.0
Zn145 Zn 0.02993 0.86796 0.9091 0.0
N146 N 0.89125 0.92048 0.92532 0.0
C147 C 0.97158 0.93769 0.95005 0.0
C148 C 0.95118 0.92193 0.94054 0.0
C149 C 0.851 0.93446 0.91897 0.0
N150 N 0.9318 0.95154 0.94377 0.0
C151 C 0.87192 0.9506 0.92837 0.0
O152 O 0.01153 0.88072 0.87677 0.0
C153 C 0.96529 0.88999 0.86526 0.0
O154 O 0.90813 0.89576 0.87632 0.0
H155 H 0.98317 0.91093 0.94533 0.0
H156 H 0.80332 0.93293 0.90701 0.0
C157 C 0.0006 0.8306 0.91194 0.0
C158 C 0.95265 0.81669 0.90806 0.0
C159 C 0.86576 0.83537 0.88942 0.0
C160 C 0.91268 0.84893 0.89339 0.0
N161 N 0.97922 0.8464 0.90433 0.0
N162 N 0.88674 0.8197 0.89681 0.0
H163 H 0.05284 0.82908 0.92134 0.0
C164 C 0.71655 0.89876 0.89676 0.0
O165 O 0.74359 0.90755 0.87775 0.0
O166 O 0.14088 0.8666 0.91329 0.0
H167 H 0.89551 0.86154 0.88817 0.0
H168 H 0.01899 0.93893 0.96227 0.0
H169 H 0.81269 0.83727 0.88074 0.0
Zn170 Zn 0.63939 0.11647 0.89844 0.0
C171 C 0.49605 0.11631 0.95423 0.0
N172 N 0.5517 0.10873 0.96642 0.0
C173 C 0.60976 0.11187 0.95151 0.0
N174 N 0.5893 0.12031 0.93038 0.0
N175 N 0.51884 0.12386 0.93253 0.0
C176 C 0.33852 0.12952 0.90534 0.0
O177 O 0.38278 0.11898 0.89355 0.0
O178 O 0.74873 0.11957 0.9032 0.0
Zn179 Zn 0.47696 0.1434 0.91536 0.0
N180 N 0.61698 0.09307 0.88895 0.0
C181 C 0.53096 0.0756 0.86724 0.0
C182 C 0.55411 0.0915 0.87532 0.0
C183 C 0.65743 0.07913 0.89534 0.0
N184 N 0.57123 0.06177 0.87333 0.0
C185 C 0.63398 0.06287 0.88726 0.0
O186 O 0.50067 0.1442 0.87763 0.0
C187 C 0.54934 0.1397 0.86161 0.0
O188 O 0.60386 0.13056 0.86811 0.0
H189 H 0.52199 0.1026 0.87079 0.0
H190 H 0.70721 0.0808 0.90621 0.0
C191 C 0.50457 0.18 0.923 0.0
C192 C 0.53799 0.19398 0.93543 0.0
C193 C 0.59359 0.1749 0.9646 0.0
C194 C 0.56085 0.16129 0.95229 0.0
N195 N 0.51685 0.16395 0.93177 0.0
N196 N 0.58148 0.19079 0.95594 0.0
H197 H 0.46904 0.1817 0.90675 0.0
C198 C 0.79453 0.11383 0.88715 0.0
O199 O 0.7702 0.10573 0.86696 0.0
O200 O 0.36612 0.14202 0.91732 0.0
H201 H 0.5704 0.14867 0.95933 0.0
H202 H 0.48117 0.07421 0.85627 0.0
H203 H 0.62854 0.17288 0.98095 0.0
Zn204 Zn 0.37102 0.12176 0.63653 0.0
C205 C 0.51603 0.11795 0.58407 0.0
N206 N 0.46155 0.10977 0.57215 0.0
C207 C 0.40188 0.11461 0.58514 0.0
N208 N 0.41964 0.12504 0.60457 0.0
N209 N 0.491 0.12762 0.60344 0.0
C210 C 0.67336 0.13315 0.6282 0.0
O211 O 0.63004 0.12295 0.64096 0.0
O212 O 0.26156 0.12418 0.63175 0.0
Zn213 Zn 0.53491 0.1472 0.6194 0.0
N214 N 0.3969 0.09875 0.64636 0.0
C215 C 0.48507 0.08192 0.668 0.0
C216 C 0.45877 0.09767 0.66064 0.0
C217 C 0.36052 0.08451 0.63869 0.0
N218 N 0.44873 0.06777 0.66064 0.0
C219 C 0.38693 0.06841 0.64615 0.0
O220 O 0.51336 0.1485 0.65738 0.0
C221 C 0.46298 0.14471 0.67318 0.0
O222 O 0.40646 0.1363 0.66644 0.0
H223 H 0.48821 0.109 0.666 0.0
H224 H 0.31297 0.08582 0.6266 0.0
C225 C 0.50414 0.18343 0.61151 0.0
C226 C 0.47202 0.19722 0.59835 0.0
C227 C 0.42664 0.17789 0.5673 0.0
C228 C 0.45804 0.16445 0.58034 0.0
N229 N 0.49626 0.16736 0.60216 0.0
N230 N 0.4343 0.19381 0.57656 0.0
H231 H 0.53531 0.18528 0.62878 0.0
C232 C 0.21667 0.11755 0.64727 0.0
O233 O 0.24221 0.10908 0.66686 0.0
O234 O 0.64495 0.14542 0.61604 0.0
H235 H 0.4517 0.15177 0.57296 0.0
H236 H 0.53428 0.0809 0.67936 0.0
H237 H 0.39617 0.1757 0.54993 0.0
Zn238 Zn 0.1457 0.90207 0.63288 0.0
C239 C 0.99964 0.89493 0.58017 0.0
N240 N 0.05141 0.90227 0.56588 0.0
C241 C 0.11137 0.9011 0.58047 0.0
N242 N 0.09618 0.89371 0.60294 0.0
N243 N 0.02652 0.88919 0.60244 0.0
C244 C 0.84411 0.88561 0.62766 0.0
O245 O 0.88617 0.89828 0.63475 0.0
O246 O 0.25539 0.89825 0.6295 0.0
Zn247 Zn 0.98534 0.87312 0.62623 0.0
N248 N 0.1199 0.92598 0.63342 0.0
C249 C 0.01645 0.94406 0.63758 0.0
C250 C 0.04685 0.92795 0.6372 0.0
C251 C 0.16457 0.93966 0.63 0.0
N252 N 0.06049 0.95768 0.63436 0.0
C253 C 0.13399 0.95614 0.63064 0.0
O254 O -1e-05 0.88068 0.66257 0.0
C255 C 0.04919 0.88736 0.67656 0.0
O256 O 0.10747 0.89376 0.66724 0.0
H257 H 0.01239 0.91695 0.63974 0.0
H258 H 0.22224 0.93766 0.62652 0.0
C259 C 0.01393 0.83564 0.62031 0.0
C260 C 0.06393 0.82186 0.61998 0.0
C261 C 0.16242 0.84135 0.62439 0.0
C262 C 0.11327 0.85473 0.62529 0.0
N263 N 0.04022 0.8518 0.62296 0.0
N264 N 0.13672 0.82536 0.6219 0.0
H265 H 0.95548 0.83357 0.61931 0.0
C266 C 0.30144 0.90479 0.64478 0.0
O267 O 0.27751 0.91442 0.66345 0.0
O268 O 0.87454 0.87166 0.62143 0.0
H269 H 0.13334 0.86743 0.62835 0.0
H270 H 0.95829 0.94576 0.64048 0.0
H271 H 0.22063 0.84361 0.62611 0.0
Zn272 Zn 0.4653 0.65464 0.12917 0.0
C273 C 0.60778 0.64814 0.07671 0.0
N274 N 0.55513 0.65501 0.06223 0.0
C275 C 0.49435 0.65302 0.07623 0.0
N276 N 0.51023 0.64583 0.09886 0.0
N277 N 0.58077 0.64206 0.09881 0.0
C278 C 0.76694 0.6412 0.12288 0.0
O279 O 0.72899 0.65533 0.12365 0.0
O280 O 0.35565 0.65783 0.12401 0.0
Zn281 Zn 0.62233 0.62499 0.12157 0.0
N282 N 0.5171 0.67569 0.13715 0.0
C283 C 0.62575 0.68624 0.15651 0.0
C284 C 0.58023 0.67281 0.15013 0.0
C285 C 0.4979 0.69172 0.12989 0.0
N286 N 0.60682 0.70213 0.14948 0.0
C287 C 0.54433 0.70551 0.13627 0.0
O288 O 0.5826 0.62513 0.15821 0.0
C289 C 0.5256 0.63001 0.17028 0.0
O290 O 0.47837 0.63978 0.16017 0.0
H291 H 0.59579 0.66007 0.15516 0.0
H292 H 0.44844 0.69351 0.11892 0.0
C293 C 0.63337 0.58838 0.11399 0.0
C294 C 0.61118 0.57262 0.10362 0.0
C295 C 0.51647 0.58677 0.081 0.0
C296 C 0.53834 0.60217 0.0914 0.0
N297 N 0.59622 0.60277 0.10764 0.0
N298 N 0.55313 0.57246 0.08733 0.0
H299 H 0.67979 0.58938 0.12667 0.0
C300 C 0.31731 0.6445 0.12709 0.0
O301 O 0.35082 0.63029 0.13287 0.0
O302 O 0.7332 0.62708 0.12226 0.0
H303 H 0.50938 0.61356 0.08642 0.0
H304 H 0.67616 0.68407 0.16681 0.0
H305 H 0.47058 0.58616 0.068 0.0
Zn306 Zn 0.85204 0.40808 0.13112 0.0
C307 C 0.99411 0.40305 0.07474 0.0
N308 N 0.94069 0.41052 0.06134 0.0
C309 C 0.8825 0.40962 0.07686 0.0
N310 N 0.90111 0.40252 0.09933 0.0
N311 N 0.97024 0.39768 0.09764 0.0
C312 C 0.15772 0.39157 0.11623 0.0
O313 O 0.12303 0.4059 0.12038 0.0
O314 O 0.74157 0.40643 0.12685 0.0
Zn315 Zn 0.01091 0.38049 0.11985 0.0
N316 N 0.87931 0.43147 0.13773 0.0
C317 C 0.9755 0.4493 0.15244 0.0
C318 C 0.94886 0.43327 0.1465 0.0
C319 C 0.83526 0.44522 0.13409 0.0
N320 N 0.93178 0.46298 0.14907 0.0
C321 C 0.86226 0.46156 0.13993 0.0
O322 O 0.99849 0.38571 0.15708 0.0
C323 C 0.94655 0.38982 0.17202 0.0
O324 O 0.88613 0.39583 0.1637 0.0
H325 H 0.98338 0.42226 0.14888 0.0
H326 H 0.7801 0.44337 0.12712 0.0
C327 C 0.983 0.34375 0.11092 0.0
C328 C 0.93425 0.33 0.10734 0.0
C329 C 0.83396 0.34906 0.10953 0.0
C330 C 0.8819 0.3624 0.11394 0.0
N331 N 0.95532 0.3597 0.11388 0.0
N332 N 0.86111 0.33324 0.10645 0.0
H333 H 0.04162 0.34184 0.11152 0.0
C334 C 0.70498 0.39345 0.13353 0.0
O335 O 0.73919 0.38068 0.14423 0.0
O336 O 0.12054 0.37796 0.1144 0.0
H337 H 0.86065 0.37485 0.11779 0.0
H338 H 0.03062 0.45089 0.1596 0.0
H339 H 0.77545 0.35119 0.10915 0.0
Zn340 Zn 0.13979 0.40002 0.40276 0.0
C341 C 0.99674 0.39503 0.45789 0.0
N342 N 0.04921 0.4029 0.47131 0.0
C343 C 0.10808 0.40166 0.4562 0.0
N344 N 0.09124 0.3938 0.43412 0.0
N345 N 0.02205 0.38897 0.43551 0.0
C346 C 0.83455 0.38299 0.41639 0.0
O347 O 0.8691 0.39729 0.41201 0.0
O348 O 0.25039 0.39843 0.40712 0.0
Zn349 Zn 0.98128 0.37221 0.41232 0.0
N350 N 0.1109 0.42342 0.39764 0.0
C351 C 0.01094 0.44112 0.38606 0.0
C352 C 0.0396 0.42511 0.39073 0.0
C353 C 0.15492 0.43726 0.40061 0.0
N354 N 0.05456 0.45489 0.38877 0.0
C355 C 0.12591 0.45357 0.39605 0.0
O356 O 0.99188 0.37893 0.37548 0.0
C357 C 0.0441 0.38332 0.36084 0.0
O358 O 0.10545 0.38856 0.36958 0.0
H359 H 0.00523 0.41403 0.38886 0.0
H360 H 0.21149 0.4355 0.40609 0.0
C361 C 0.01123 0.33501 0.41715 0.0
C362 C 0.061 0.32123 0.41789 0.0
C363 C 0.1601 0.34071 0.41704 0.0
C364 C 0.11118 0.35412 0.41568 0.0
N365 N 0.03789 0.3512 0.41605 0.0
N366 N 0.13401 0.32469 0.41796 0.0
H367 H 0.95272 0.33294 0.41657 0.0
C368 C 0.28709 0.3856 0.39978 0.0
O369 O 0.25307 0.37313 0.38814 0.0
O370 O 0.87187 0.3694 0.41821 0.0
H371 H 0.13171 0.36682 0.41375 0.0
H372 H 0.95437 0.44261 0.38039 0.0
H373 H 0.21851 0.34297 0.41688 0.0
Zn374 Zn 0.54317 0.64464 0.40185 0.0
C375 C 0.40014 0.64022 0.45262 0.0
N376 N 0.45286 0.64705 0.46716 0.0
C377 C 0.51414 0.64387 0.45394 0.0
N378 N 0.49895 0.63583 0.43186 0.0
N379 N 0.42768 0.63293 0.43143 0.0
C380 C 0.22962 0.61415 0.39307 0.0
O381 O 0.25719 0.60502 0.37445 0.0
O382 O 0.65383 0.64623 0.40589 0.0
Zn383 Zn 0.38222 0.61654 0.40855 0.0
N384 N 0.49258 0.66598 0.39608 0.0
C385 C 0.37827 0.6769 0.38183 0.0
C386 C 0.42555 0.66338 0.3855 0.0
C387 C 0.51418 0.6818 0.40354 0.0
N388 N 0.39939 0.69259 0.38916 0.0
C389 C 0.46588 0.69561 0.4 0.0
O390 O 0.4174 0.61738 0.37124 0.0
C391 C 0.47472 0.62214 0.35928 0.0
O392 O 0.5242 0.63101 0.36998 0.0
H393 H 0.40802 0.65075 0.38053 0.0
H394 H 0.56673 0.68343 0.41273 0.0
C395 C 0.36501 0.57999 0.41717 0.0
C396 C 0.38854 0.56406 0.42635 0.0
C397 C 0.49446 0.57725 0.44368 0.0
C398 C 0.47156 0.5928 0.43425 0.0
N399 N 0.40728 0.594 0.42133 0.0
N400 N 0.45277 0.56333 0.43948 0.0
H401 H 0.31395 0.58136 0.40702 0.0
C402 C 0.6853 0.63209 0.40159 0.0
O403 O 0.64445 0.61882 0.39637 0.0
O404 O 0.27245 0.62028 0.40979 0.0
H405 H 0.5053 0.60381 0.43715 0.0
H406 H 0.32475 0.67493 0.37349 0.0
H407 H 0.54539 0.5762 0.45408 0.0
Zn408 Zn 0.53829 0.36871 0.90325 0.0
C409 C 0.39496 0.37439 0.95623 0.0
N410 N 0.44781 0.36744 0.97054 0.0
C411 C 0.50843 0.36948 0.95646 0.0
N412 N 0.49216 0.37673 0.93391 0.0
N413 N 0.42169 0.38056 0.93414 0.0
C414 C 0.23589 0.38212 0.91032 0.0
O415 O 0.2736 0.36799 0.90858 0.0
O416 O 0.64785 0.36594 0.90841 0.0
Zn417 Zn 0.38051 0.39796 0.91194 0.0
N418 N 0.48999 0.34742 0.89423 0.0
C419 C 0.38473 0.3361 0.87356 0.0
C420 C 0.42582 0.34991 0.88167 0.0
C421 C 0.51416 0.33143 0.89959 0.0
N422 N 0.4088 0.32024 0.8786 0.0
C423 C 0.47219 0.31731 0.89152 0.0
O424 O 0.41784 0.39777 0.87508 0.0
C425 C 0.47462 0.39318 0.86266 0.0
O426 O 0.52354 0.38374 0.87251 0.0
H427 H 0.40654 0.3626 0.87802 0.0
H428 H 0.5653 0.3298 0.90968 0.0
C429 C 0.3735 0.43465 0.91937 0.0
C430 C 0.39639 0.45027 0.93006 0.0
C431 C 0.48726 0.43554 0.95371 0.0
C432 C 0.46462 0.42028 0.94304 0.0
N433 N 0.40836 0.42004 0.9261 0.0
N434 N 0.45285 0.45007 0.94701 0.0
H435 H 0.32817 0.43394 0.90618 0.0
C436 C 0.68603 0.37928 0.9054 0.0
O437 O 0.65252 0.39349 0.89958 0.0
O438 O 0.26981 0.39618 0.91166 0.0
H439 H 0.49154 0.4087 0.94843 0.0
H440 H 0.3338 0.33796 0.86342 0.0
H441 H 0.53188 0.43586 0.96726 0.0
Zn442 Zn 0.9902 0.6426 0.91329 0.0
C443 C 0.11929 0.61341 0.95576 0.0
N444 N 0.06096 0.61222 0.97118 0.0
C445 C 0.00742 0.61972 0.95785 0.0
N446 N 0.03153 0.62541 0.93516 0.0
N447 N 0.10076 0.62069 0.93344 0.0
C448 C 0.30721 0.61391 0.89046 0.0
O449 O 0.28433 0.60545 0.8704 0.0
O450 O 0.87975 0.64384 0.9181 0.0
Zn451 Zn 0.15143 0.61548 0.9019 0.0
N452 N 0.04568 0.66348 0.91898 0.0
C453 C 0.168 0.67385 0.91938 0.0
C454 C 0.11869 0.66064 0.91649 0.0
C455 C 0.01946 0.67946 0.92334 0.0
N456 N 0.14239 0.68967 0.92365 0.0
C457 C 0.06954 0.69315 0.9255 0.0
O458 O 0.1149 0.62698 0.86908 0.0
C459 C 0.05441 0.63306 0.86099 0.0
O460 O 0.00353 0.63749 0.87612 0.0
H461 H 0.1386 0.64816 0.91182 0.0
H462 H 0.96104 0.68135 0.92484 0.0
C463 C 0.17488 0.57816 0.89947 0.0
C464 C 0.15015 0.5617 0.89309 0.0
C465 C 0.03642 0.57336 0.87985 0.0
C466 C 0.06089 0.58949 0.88618 0.0
N467 N 0.12963 0.59168 0.89553 0.0
N468 N 0.08144 0.55993 0.88335 0.0
H469 H 0.22928 0.58025 0.90699 0.0
C470 C 0.85023 0.63003 0.91078 0.0
O471 O 0.89309 0.6177 0.90294 0.0
O472 O 0.26045 0.61937 0.90638 0.0
H473 H 0.02532 0.60029 0.8836 0.0
H474 H 0.22625 0.67163 0.91769 0.0
H475 H 0.98199 0.57148 0.87221 0.0
Zn476 Zn 0.86261 0.6169 0.63134 0.0
C477 C 0.0059 0.62193 0.57586 0.0
N478 N 0.95436 0.61342 0.5629 0.0
C479 C 0.89557 0.6145 0.57807 0.0
N480 N 0.91177 0.6228 0.59985 0.0
N481 N 0.98015 0.62822 0.59804 0.0
C482 C 0.16747 0.63517 0.61733 0.0
O483 O 0.13338 0.62098 0.62282 0.0
O484 O 0.752 0.61889 0.62754 0.0
Zn485 Zn 0.0199 0.64608 0.61968 0.0
N486 N 0.88811 0.59324 0.63679 0.0
C487 C 0.98449 0.57497 0.64988 0.0
C488 C 0.95836 0.59113 0.64466 0.0
C489 C 0.84269 0.57966 0.63343 0.0
N490 N 0.93946 0.56147 0.64683 0.0
C491 C 0.86908 0.56317 0.63864 0.0
O492 O 0.00721 0.64098 0.65697 0.0
C493 C 0.95823 0.63549 0.6721 0.0
O494 O 0.89974 0.62839 0.66403 0.0
H495 H 0.99376 0.60201 0.64693 0.0
H496 H 0.78694 0.58173 0.62723 0.0
C497 C 0.99298 0.68315 0.61201 0.0
C498 C 0.94484 0.69706 0.60836 0.0
C499 C 0.84456 0.67787 0.60706 0.0
C500 C 0.89176 0.66439 0.61127 0.0
N501 N 0.96497 0.66708 0.61321 0.0
N502 N 0.87203 0.69377 0.60578 0.0
H503 H 0.05137 0.68498 0.61396 0.0
C504 C 0.71555 0.6322 0.63281 0.0
O505 O 0.75001 0.64555 0.6418 0.0
O506 O 0.12965 0.64856 0.61415 0.0
H507 H 0.86993 0.65182 0.61344 0.0
H508 H 0.04019 0.57314 0.65631 0.0
H509 H 0.78626 0.67577 0.60527 0.0
Zn510 Zn 0.61598 0.40042 0.62416 0.0
C511 C 0.48819 0.37097 0.58018 0.0
N512 N 0.54943 0.36836 0.56668 0.0
C513 C 0.60138 0.37592 0.58072 0.0
N514 N 0.57349 0.38309 0.60197 0.0
N515 N 0.50295 0.37932 0.60207 0.0
C516 C 0.31025 0.38226 0.62889 0.0
O517 O 0.34401 0.39673 0.63293 0.0
O518 O 0.7264 0.39842 0.62387 0.0
Zn519 Zn 0.45728 0.37172 0.63285 0.0
N520 N 0.5899 0.42261 0.61031 0.0
C521 C 0.50881 0.43869 0.58445 0.0
C522 C 0.53056 0.42329 0.59474 0.0
C523 C 0.62863 0.43692 0.61609 0.0
N524 N 0.54701 0.45292 0.59022 0.0
C525 C 0.60657 0.45269 0.60585 0.0
O526 O 0.47155 0.38708 0.66334 0.0
C527 C 0.52181 0.39606 0.67342 0.0
O528 O 0.57956 0.4002 0.6612 0.0
H529 H 0.50029 0.41194 0.59029 0.0
H530 H 0.67612 0.43583 0.62824 0.0
C531 C 0.48188 0.33458 0.63659 0.0
C532 C 0.52339 0.32049 0.64488 0.0
C533 C 0.6098 0.3393 0.66353 0.0
C534 C 0.5692 0.35308 0.65518 0.0
N535 N 0.50569 0.35057 0.64221 0.0
N536 N 0.58602 0.32342 0.65825 0.0
H537 H 0.43136 0.33292 0.62612 0.0
C538 C 0.76044 0.38443 0.62601 0.0
O539 O 0.72293 0.37037 0.62898 0.0
O540 O 0.34813 0.36875 0.62767 0.0
H541 H 0.58841 0.36576 0.65898 0.0
H542 H 0.46174 0.43937 0.57198 0.0
H543 H 0.66017 0.34117 0.67401 0.0
H544 H 0.71682 0.17139 0.1129 0.0
H545 H 0.35557 0.11373 0.12283 0.0
H546 H 0.71942 0.11739 0.12578 0.0
H547 H 0.34998 0.16806 0.11373 0.0
H548 H 0.4893 0.11472 0.12145 0.0
H549 H 0.58273 0.17036 0.11054 0.0
C550 C 0.68932 0.15932 0.11512 0.0
C551 C 0.72952 0.14448 0.11974 0.0
C552 C 0.45885 0.12644 0.11972 0.0
C553 C 0.57617 0.1432 0.11707 0.0
C554 C 0.3824 0.12587 0.12052 0.0
C555 C 0.34135 0.14084 0.1186 0.0
C556 C 0.49479 0.14209 0.11695 0.0
C557 C 0.37929 0.1562 0.11546 0.0
C558 C 0.61276 0.15874 0.11381 0.0
C559 C 0.69087 0.12919 0.12239 0.0
N560 N 0.45374 0.15643 0.11481 0.0
N561 N 0.61659 0.12896 0.1211 0.0
H562 H 0.1118 0.86829 0.14775 0.0
H563 H 0.74569 0.9181 0.11205 0.0
H564 H 0.11088 0.91877 0.11632 0.0
H565 H 0.74953 0.86448 0.12781 0.0
H566 H 0.87922 0.91858 0.11371 0.0
H567 H 0.97947 0.86666 0.14114 0.0
C568 C 0.08384 0.87904 0.13946 0.0
C569 C 0.12259 0.89375 0.13278 0.0
C570 C 0.85104 0.90667 0.11664 0.0
C571 C 0.97072 0.89195 0.12516 0.0
C572 C 0.77467 0.90639 0.11575 0.0
C573 C 0.73627 0.89124 0.12 0.0
C574 C 0.88966 0.89173 0.12214 0.0
C575 C 0.77687 0.87644 0.12446 0.0
C576 C 0.00823 0.87806 0.13559 0.0
C577 C 0.08333 0.90721 0.12189 0.0
N578 N 0.85133 0.87708 0.12568 0.0
N579 N 0.00959 0.90603 0.11859 0.0
H580 H 0.86349 0.90902 0.4153 0.0
H581 H 0.22666 0.85173 0.41283 0.0
H582 H 0.85831 0.85439 0.41092 0.0
H583 H 0.22588 0.90639 0.41003 0.0
H584 H 0.09234 0.85211 0.41506 0.0
H585 H 0.99693 0.90799 0.41622 0.0
C586 C 0.89037 0.89679 0.41453 0.0
C587 C 0.84946 0.88177 0.41285 0.0
C588 C 0.12173 0.86401 0.41401 0.0
C589 C 0.00288 0.88049 0.41396 0.0
C590 C 0.19837 0.86379 0.41279 0.0
C591 C 0.23765 0.87904 0.41106 0.0
C592 C 0.08426 0.87958 0.41363 0.0
C593 C 0.19808 0.8943 0.41114 0.0
C594 C 0.96673 0.89621 0.41506 0.0
C595 C 0.88756 0.8663 0.41208 0.0
N596 N 0.12384 0.89417 0.41234 0.0
N597 N 0.96208 0.86605 0.41259 0.0
H598 H 0.62593 0.10539 0.41896 0.0
H599 H 0.26316 0.16283 0.41554 0.0
H600 H 0.62829 0.15866 0.40056 0.0
H601 H 0.26084 0.10815 0.41458 0.0
H602 H 0.39761 0.16211 0.41601 0.0
H603 H 0.49265 0.10677 0.42337 0.0
C604 C 0.59854 0.1174 0.41595 0.0
C605 C 0.63847 0.1319 0.40914 0.0
C606 C 0.36754 0.15029 0.41578 0.0
C607 C 0.48564 0.13358 0.4143 0.0
C608 C 0.29084 0.15069 0.4156 0.0
C609 C 0.25063 0.13554 0.41477 0.0
C610 C 0.40427 0.13461 0.41544 0.0
C611 C 0.28948 0.12016 0.41493 0.0
C612 C 0.52237 0.11817 0.41843 0.0
C613 C 0.59982 0.14712 0.40561 0.0
N614 N 0.3639 0.1201 0.41522 0.0
N615 N 0.52568 0.14756 0.4082 0.0
H616 H 0.27844 0.85936 0.92803 0.0
H617 H 0.60803 0.91264 0.86775 0.0
H618 H 0.25075 0.90576 0.88581 0.0
H619 H 0.64276 0.87756 0.92949 0.0
H620 H 0.47666 0.90757 0.87073 0.0
H621 H 0.4122 0.86326 0.92572 0.0
C622 C 0.30037 0.87031 0.91827 0.0
C623 C 0.25329 0.88225 0.90712 0.0
C624 C 0.51292 0.90097 0.88366 0.0
C625 C 0.40547 0.88668 0.90422 0.0
C626 C 0.58809 0.90382 0.88191 0.0
C627 C 0.63664 0.89554 0.8984 0.0
C628 C 0.48562 0.8896 0.90188 0.0
C629 C 0.6073 0.88426 0.91641 0.0
C630 C 0.37653 0.87255 0.91703 0.0
C631 C 0.28468 0.89625 0.89479 0.0
N632 N 0.53366 0.88157 0.91762 0.0
N633 N 0.35847 0.89801 0.89357 0.0
H634 H 0.26503 0.10653 0.87615 0.0
H635 H 0.86451 0.13254 0.92419 0.0
H636 H 0.22883 0.14655 0.9309 0.0
H637 H 0.90661 0.10048 0.8591 0.0
H638 H 0.99689 0.13634 0.92968 0.0
H639 H 0.1333 0.10257 0.87262 0.0
C640 C 0.22938 0.11449 0.88751 0.0
C641 C 0.25821 0.12696 0.90377 0.0
C642 C 0.97701 0.1285 0.9142 0.0
C643 C 0.1064 0.12244 0.89979 0.0
C644 C 0.90148 0.12629 0.91107 0.0
C645 C 0.87429 0.11621 0.89108 0.0
C646 C 0.0257 0.12045 0.89736 0.0
C647 C 0.92486 0.10841 0.87471 0.0
C648 C 0.15394 0.11224 0.88542 0.0
C649 C 0.209 0.13685 0.91801 0.0
N650 N 0.99789 0.11068 0.87824 0.0
N651 N 0.13542 0.13438 0.91571 0.0
H652 H 0.78072 0.15008 0.60161 0.0
H653 H 0.10678 0.10284 0.67468 0.0
H654 H 0.74918 0.11037 0.65688 0.0
H655 H 0.14396 0.13639 0.61123 0.0
H656 H 0.97525 0.10624 0.66885 0.0
H657 H 0.9136 0.14599 0.60508 0.0
C658 C 0.80165 0.1405 0.61442 0.0
C659 C 0.7537 0.13061 0.62907 0.0
C660 C 0.01204 0.11285 0.65613 0.0
C661 C 0.90538 0.12592 0.63319 0.0
C662 C 0.08733 0.11093 0.6595 0.0
C663 C 0.13664 0.11939 0.6435 0.0
C664 C 0.98542 0.12339 0.6367 0.0
C665 C 0.10796 0.12966 0.62406 0.0
C666 C 0.87746 0.13815 0.61636 0.0
C667 C 0.78389 0.11832 0.64524 0.0
N668 N 0.03423 0.13143 0.62127 0.0
N669 N 0.85757 0.1164 0.64695 0.0
H670 H 0.41412 0.92047 0.66957 0.0
H671 H 0.7355 0.86441 0.60891 0.0
H672 H 0.37068 0.88212 0.61278 0.0
H673 H 0.76846 0.91182 0.64848 0.0
H674 H 0.60213 0.86875 0.61217 0.0
H675 H 0.54486 0.91544 0.66452 0.0
C676 C 0.43202 0.91096 0.65604 0.0
C677 C 0.38114 0.90172 0.6416 0.0
C678 C 0.63886 0.87818 0.62004 0.0
C679 C 0.53168 0.89581 0.63573 0.0
C680 C 0.71484 0.87569 0.61825 0.0
C681 C 0.76336 0.88773 0.6285 0.0
C682 C 0.61154 0.89269 0.63244 0.0
C683 C 0.7335 0.90216 0.64027 0.0
C684 C 0.50689 0.90811 0.6531 0.0
C685 C 0.40796 0.88957 0.62429 0.0
N686 N 0.65993 0.90417 0.64203 0.0
N687 N 0.48143 0.8869 0.62191 0.0
H688 H 0.86233 0.61442 0.12149 0.0
H689 H 0.22512 0.67188 0.12071 0.0
H690 H 0.85685 0.66911 0.12246 0.0
H691 H 0.2249 0.61738 0.1276 0.0
H692 H 0.09083 0.67134 0.11838 0.0
H693 H 0.99582 0.61546 0.12087 0.0
C694 C 0.88915 0.62666 0.12158 0.0
C695 C 0.84813 0.6417 0.12221 0.0
C696 C 0.12033 0.65952 0.12035 0.0
C697 C 0.0016 0.643 0.12142 0.0
C698 C 0.19697 0.65982 0.12163 0.0
C699 C 0.23642 0.64467 0.12452 0.0
C700 C 0.083 0.64395 0.12184 0.0
C701 C 0.19697 0.6294 0.12556 0.0
C702 C 0.96553 0.62725 0.12122 0.0
C703 C 0.88616 0.65719 0.12213 0.0
N704 N 0.12273 0.62945 0.12427 0.0
N705 N 0.96069 0.65744 0.12179 0.0
H706 H 0.24923 0.41861 0.11059 0.0
H707 H 0.61355 0.36626 0.14003 0.0
H708 H 0.25112 0.36429 0.11969 0.0
H709 H 0.6139 0.41853 0.11606 0.0
H710 H 0.48122 0.36521 0.13306 0.0
H711 H 0.38269 0.41876 0.11257 0.0
C712 C 0.27775 0.40668 0.11288 0.0
C713 C 0.23881 0.39142 0.11517 0.0
C714 C 0.51027 0.37689 0.12923 0.0
C715 C 0.39215 0.39152 0.11768 0.0
C716 C 0.58586 0.37753 0.1333 0.0
C717 C 0.62495 0.39256 0.12883 0.0
C718 C 0.47316 0.39142 0.12081 0.0
C719 C 0.58608 0.4067 0.1199 0.0
C720 C 0.35409 0.40677 0.11397 0.0
C721 C 0.27887 0.37634 0.11789 0.0
N722 N 0.51238 0.40581 0.11635 0.0
N723 N 0.35332 0.37679 0.11932 0.0
H724 H 0.74364 0.41002 0.42325 0.0
H725 H 0.37823 0.3585 0.39193 0.0
H726 H 0.74057 0.35582 0.41226 0.0
H727 H 0.37857 0.41031 0.41851 0.0
H728 H 0.51053 0.35723 0.39881 0.0
H729 H 0.61014 0.41033 0.42149 0.0
C730 C 0.71484 0.39815 0.42059 0.0
C731 C 0.75346 0.38288 0.4177 0.0
C732 C 0.48165 0.36886 0.40324 0.0
C733 C 0.60006 0.38317 0.41544 0.0
C734 C 0.40606 0.36963 0.39922 0.0
C735 C 0.36714 0.38459 0.40445 0.0
C736 C 0.51899 0.3832 0.41236 0.0
C737 C 0.40624 0.39854 0.41408 0.0
C738 C 0.63848 0.39834 0.41964 0.0
C739 C 0.71306 0.36788 0.41455 0.0
N740 N 0.47996 0.39754 0.41755 0.0
N741 N 0.63859 0.36842 0.41323 0.0
H742 H 0.12195 0.59887 0.36522 0.0
H743 H 0.79053 0.65405 0.42035 0.0
H744 H 0.15482 0.63625 0.4243 0.0
H745 H 0.76416 0.60595 0.38208 0.0
H746 H 0.92431 0.6501 0.41887 0.0
H747 H 0.99037 0.60376 0.36771 0.0
C748 C 0.10154 0.60814 0.3787 0.0
C749 C 0.1496 0.61714 0.39457 0.0
C750 C 0.88893 0.64044 0.41087 0.0
C751 C 0.99843 0.62289 0.39746 0.0
C752 C 0.81277 0.64271 0.41163 0.0
C753 C 0.76608 0.63032 0.40132 0.0
C754 C 0.91825 0.62582 0.39937 0.0
C755 C 0.79781 0.61583 0.39035 0.0
C756 C 0.02627 0.6109 0.38017 0.0
C757 C 0.11971 0.629 0.41172 0.0
N758 N 0.87163 0.61405 0.38955 0.0
N759 N 0.04599 0.63159 0.41265 0.0
H760 H 0.14115 0.40896 0.91315 0.0
H761 H 0.77766 0.35185 0.9116 0.0
H762 H 0.14554 0.3543 0.90955 0.0
H763 H 0.77863 0.40639 0.9055 0.0
H764 H 0.91181 0.35227 0.91427 0.0
H765 H 0.00765 0.40805 0.91371 0.0
C766 C 0.11409 0.39675 0.91248 0.0
C767 C 0.15477 0.38169 0.9111 0.0
C768 C 0.88252 0.36413 0.91239 0.0
C769 C 0.00138 0.38054 0.91183 0.0
C770 C 0.80596 0.3639 0.91092 0.0
C771 C 0.76679 0.37909 0.90815 0.0
C772 C 0.92004 0.37968 0.91123 0.0
C773 C 0.80639 0.39434 0.90743 0.0
C774 C 0.03772 0.39623 0.9128 0.0
C775 C 0.11647 0.36624 0.91046 0.0
N776 N 0.88061 0.39423 0.90893 0.0
N777 N 0.04196 0.36606 0.91078 0.0
H778 H 0.37403 0.63475 0.92566 0.0
H779 H 0.77637 0.60439 0.88766 0.0
H780 H 0.42149 0.59968 0.86466 0.0
H781 H 0.74033 0.65045 0.93039 0.0
H782 H 0.64492 0.60073 0.88362 0.0
H783 H 0.50613 0.6391 0.93175 0.0
C784 C 0.4121 0.62796 0.91357 0.0
C785 C 0.38657 0.61683 0.89457 0.0
C786 C 0.66548 0.61166 0.89388 0.0
C787 C 0.53737 0.62167 0.90161 0.0
C788 C 0.7408 0.61375 0.89631 0.0
C789 C 0.76969 0.62781 0.9093 0.0
C790 C 0.61787 0.62362 0.90469 0.0
C791 C 0.72042 0.63948 0.92008 0.0
C792 C 0.48739 0.6305 0.91702 0.0
C793 C 0.43843 0.60841 0.87947 0.0
N794 N 0.64672 0.63711 0.91758 0.0
N795 N 0.5111 0.61095 0.88339 0.0
H796 H 0.62502 0.60625 0.61796 0.0
H797 H 0.25975 0.66279 0.61734 0.0
H798 H 0.62301 0.65947 0.63715 0.0
H799 H 0.26031 0.60811 0.61508 0.0
H800 H 0.39405 0.66243 0.61911 0.0
H801 H 0.49253 0.60733 0.61156 0.0
C802 C 0.5968 0.61818 0.6208 0.0
C803 C 0.63529 0.63275 0.62835 0.0
C804 C 0.36468 0.65053 0.61812 0.0
C805 C 0.48325 0.63411 0.62087 0.0
C806 C 0.28805 0.65073 0.61699 0.0
C807 C 0.24863 0.63545 0.61627 0.0
C808 C 0.40215 0.63496 0.61828 0.0
C809 C 0.28828 0.6202 0.61586 0.0
C810 C 0.52106 0.61878 0.61715 0.0
C811 C 0.59562 0.64788 0.63156 0.0
N812 N 0.36263 0.62034 0.61691 0.0
N813 N 0.52186 0.64816 0.62783 0.0
H814 H 0.21888 0.35457 0.62576 0.0
H815 H 0.85447 0.41119 0.62052 0.0
H816 H 0.21734 0.40927 0.62624 0.0
H817 H 0.85132 0.35676 0.62856 0.0
H818 H 0.98792 0.41038 0.61939 0.0
H819 H 0.08474 0.35477 0.62353 0.0
C820 C 0.19044 0.36661 0.62529 0.0
C821 C 0.22946 0.38192 0.62636 0.0
C822 C 0.95814 0.3986 0.62139 0.0
C823 C 0.07616 0.38225 0.6238 0.0
C824 C 0.8818 0.39905 0.62204 0.0
C825 C 0.84149 0.38403 0.62483 0.0
C826 C 0.99482 0.38301 0.62348 0.0
C827 C 0.88011 0.36867 0.62655 0.0
C828 C 0.11388 0.36671 0.62407 0.0
C829 C 0.18969 0.39714 0.62564 0.0
N830 N 0.9546 0.36855 0.6259 0.0
N831 N 0.11543 0.39691 0.62445 0.0
H832 H 0.20083 0.16556 0.05661 0.0
H833 H 0.41543 0.09351 0.97993 0.0
H834 H 0.15948 0.11238 0.06762 0.0
H835 H 0.42702 0.14674 0.96266 0.0
H836 H 0.32631 0.0997 1.01345 0.0
H837 H 0.29643 0.15856 0.0259 0.0
C838 C 0.21417 0.15236 0.05322 0.0
C839 C 0.17344 0.1395 0.0648 0.0
C840 C 0.34744 0.11001 1.00205 0.0
C841 C 0.27954 0.13134 0.0287 0.0
C842 C 0.39737 0.10647 0.98268 0.0
C843 C 0.4277 0.11962 0.96819 0.0
C844 C 0.32862 0.1269 1.00723 0.0
C845 C 0.40412 0.1362 0.97293 0.0
C846 C 0.26763 0.14836 0.03534 0.0
C847 C 0.19101 0.1226 0.05938 0.0
N848 N 0.35643 0.1394 0.99219 0.0
N849 N 0.24234 0.11898 0.0414 0.0
H850 H 0.32846 0.92676 0.04078 0.0
H851 H 0.04605 0.85368 1.00209 0.0
H852 H 0.27666 0.88429 0.08894 0.0
H853 H 0.10139 0.89568 0.95342 0.0
H854 H 0.13146 0.86449 0.03406 0.0
H855 H 0.23777 0.9168 1.00997 0.0
C856 C 0.29572 0.91573 0.04534 0.0
C857 C 0.30979 0.90639 0.06748 0.0
C858 C 0.12585 0.87121 1.01622 0.0
C859 C 0.20864 0.89445 0.03187 0.0
C860 C 0.07813 0.86487 0.99779 0.0
C861 C 0.0669 0.87374 0.97502 0.0
C862 C 0.16234 0.88659 1.01188 0.0
C863 C 0.10904 0.88829 0.97052 0.0
C864 C 0.24506 0.90984 0.02753 0.0
C865 C 0.26681 0.89202 0.07232 0.0
N866 N 0.15424 0.89438 0.98894 0.0
N867 N 0.21899 0.88632 0.05443 0.0
H868 H 0.67614 0.90489 0.46543 0.0
H869 H 0.94073 0.86392 0.5702 0.0
H870 H 0.69855 0.85109 0.47658 0.0
H871 H 0.90389 0.91754 0.56205 0.0
H872 H 0.8504 0.85861 0.53648 0.0
H873 H 0.76791 0.90974 0.49863 0.0
C874 C 0.70283 0.89411 0.47411 0.0
C875 C 0.68078 0.8776 0.46822 0.0
C876 C 0.86092 0.87153 0.54244 0.0
C877 C 0.78206 0.88292 0.50704 0.0
C878 C 0.91105 0.8745 0.56206 0.0
C879 C 0.92837 0.89115 0.56899 0.0
C880 C 0.82915 0.88537 0.52967 0.0
C881 C 0.89081 0.90451 0.55734 0.0
C882 C 0.75385 0.89684 0.49349 0.0
C883 C 0.71504 0.86402 0.48056 0.0
N884 N 0.84356 0.90136 0.53801 0.0
N885 N 0.7634 0.86696 0.49965 0.0
H886 H 0.86354 0.08762 0.48509 0.0
H887 H 0.57938 0.14529 0.56128 0.0
H888 H 0.79159 0.13653 0.45891 0.0
H889 H 0.60897 0.09213 0.57638 0.0
H890 H 0.66791 0.14318 0.52639 0.0
H891 H 0.77205 0.08877 0.51898 0.0
C892 C 0.8259 0.09823 0.48578 0.0
C893 C 0.83413 0.11187 0.46905 0.0
C894 C 0.65603 0.13204 0.53765 0.0
C895 C 0.73293 0.11385 0.50864 0.0
C896 C 0.60688 0.13336 0.55794 0.0
C897 C 0.58786 0.11891 0.57184 0.0
C898 C 0.68603 0.11616 0.53139 0.0
C899 C 0.62338 0.10361 0.56628 0.0
C900 C 0.77485 0.09908 0.50545 0.0
C901 C 0.78576 0.1256 0.47115 0.0
N902 N 0.67034 0.10258 0.54634 0.0
N903 N 0.73809 0.12642 0.49098 0.0
H904 H 0.79072 0.85223 0.9771 0.0
H905 H 0.59357 0.92317 0.06106 0.0
H906 H 0.82084 0.90584 0.96623 0.0
H907 H 0.54574 0.86995 0.06801 0.0
H908 H 0.68326 0.91672 0.028 0.0
H909 H 0.69795 0.85818 1.00941 0.0
C910 C 0.77527 0.86527 0.9808 0.0
C911 C 0.81227 0.87859 0.96882 0.0
C912 C 0.65425 0.90639 0.037 0.0
C913 C 0.70981 0.88553 1.00663 0.0
C914 C 0.60433 0.91004 0.05621 0.0
C915 C 0.56369 0.89702 0.0674 0.0
C916 C 0.66264 0.88958 0.02871 0.0
C917 C 0.57751 0.88026 0.06011 0.0
C918 C 0.7235 0.86867 0.99957 0.0
C919 C 0.79225 0.89526 0.97467 0.0
N920 N 0.6255 0.877 0.04093 0.0
N921 N 0.74301 0.89828 0.99351 0.0
H922 H 0.70601 0.13792 0.94359 0.0
H923 H 0.88635 0.12506 0.08089 0.0
H924 H 0.66989 0.09385 0.99032 0.0
H925 H 0.93723 0.16711 0.03186 0.0
H926 H 0.79922 0.11466 0.04929 0.0
H927 H 0.79293 0.14857 0.975 0.0
C928 C 0.7187 0.13008 0.95989 0.0
C929 C 0.68087 0.11486 0.9642 0.0
C930 C 0.82833 0.12635 0.04561 0.0
C931 C 0.77739 0.12751 1.00105 0.0
C932 C 0.87668 0.13256 0.06402 0.0
C933 C 0.91821 0.14715 0.0592 0.0
C934 C 0.82196 0.13473 0.02213 0.0
C935 C 0.90557 0.15592 0.03642 0.0
C936 C 0.76711 0.1364 0.97819 0.0
C937 C 0.69809 0.1056 0.98619 0.0
N938 N 0.85927 0.14948 0.01859 0.0
N939 N 0.74418 0.11218 1.00397 0.0
H940 H 0.04478 0.15078 0.49197 0.0
H941 H 0.34591 0.09067 0.55382 0.0
H942 H 0.13607 0.1069 0.45501 0.0
H943 H 0.30251 0.14066 0.58353 0.0
H944 H 0.25838 0.09581 0.51963 0.0
H945 H 0.13712 0.14824 0.52569 0.0
C946 C 0.08699 0.1412 0.49023 0.0
C947 C 0.08412 0.12927 0.47042 0.0
C948 C 0.26715 0.1056 0.53379 0.0
C949 C 0.18616 0.12554 0.50962 0.0
C950 C 0.31595 0.10252 0.55361 0.0
C951 C 0.33134 0.11522 0.57154 0.0
C952 C 0.23322 0.12152 0.53185 0.0
C953 C 0.29162 0.13044 0.57025 0.0
C954 C 0.13848 0.13949 0.50978 0.0
C955 C 0.13778 0.11662 0.46959 0.0
N956 N 0.24485 0.13326 0.55051 0.0
N957 N 0.18577 0.11489 0.48916 0.0
H958 H 0.3936 0.89534 0.45192 0.0
H959 H 0.22006 0.87806 0.58895 0.0
H960 H 0.4454 0.85169 0.4977 0.0
H961 H 0.16122 0.92057 0.54175 0.0
H962 H 0.31114 0.86962 0.55743 0.0
H963 H 0.30678 0.9046 0.48422 0.0
C964 C 0.38452 0.88731 0.46825 0.0
C965 C 0.42624 0.8726 0.47196 0.0
C966 C 0.27932 0.88099 0.55416 0.0
C967 C 0.33008 0.88367 0.50984 0.0
C968 C 0.22854 0.88607 0.57249 0.0
C969 C 0.18325 0.90009 0.56796 0.0
C970 C 0.28432 0.88996 0.53115 0.0
C971 C 0.19527 0.90969 0.54593 0.0
C972 C 0.33619 0.89284 0.48706 0.0
C973 C 0.41393 0.86306 0.49404 0.0
N974 N 0.24384 0.9043 0.52813 0.0
N975 N 0.36765 0.86886 0.51231 0.0
H976 H 0.67832 0.61759 0.07327 0.0
H977 H 0.94865 0.65129 0.96448 0.0
H978 H 0.69449 0.67011 0.05199 0.0
H979 H 0.91748 0.59857 0.98255 0.0
H980 H 0.85632 0.65879 0.99655 0.0
H981 H 0.77439 0.61071 0.04259 0.0
C982 C 0.7041 0.62775 0.06286 0.0
C983 C 0.67941 0.64444 0.06537 0.0
C984 C 0.86875 0.64556 0.99319 0.0
C985 C 0.7863 0.63667 0.02927 0.0
C986 C 0.92018 0.6413 0.97453 0.0
C987 C 0.9389 0.6243 0.97057 0.0
C988 C 0.83715 0.63269 1.00812 0.0
C989 C 0.90322 0.61181 0.98484 0.0
C990 C 0.7579 0.62381 0.04492 0.0
C991 C 0.71286 0.65708 0.05071 0.0
N992 N 0.8544 0.61625 1.0031 0.0
N993 N 0.76413 0.65294 0.03309 0.0
H994 H 0.60867 0.39462 0.9478 0.0
H995 H 0.77954 0.3854 0.087 0.0
H996 H 0.56027 0.3531 0.9982 0.0
H997 H 0.82579 0.42733 0.0372 0.0
H998 H 0.69227 0.37449 0.05608 0.0
H999 H 0.692 0.40624 0.97959 0.0
C1000 C 0.61783 0.38753 0.96509 0.0
C1001 C 0.57764 0.37277 0.97022 0.0
C1002 C 0.72033 0.38627 0.05208 0.0
C1003 C 0.67008 0.38654 1.00743 0.0
C1004 C 0.76894 0.39278 0.07014 0.0
C1005 C 0.80999 0.40738 0.06483 0.0
C1006 C 0.71316 0.39435 0.02841 0.0
C1007 C 0.7951 0.41606 0.04211 0.0
C1008 C 0.66413 0.39443 0.98357 0.0
C1009 C 0.5904 0.36447 0.99341 0.0
N1010 N 0.74894 0.40926 0.02453 0.0
N1011 N 0.63468 0.37158 1.01129 0.0
H1012 H 0.16304 0.4227 0.49233 0.0
H1013 H 0.4373 0.35097 0.54196 0.0
H1014 H 0.21241 0.3772 0.45012 0.0
H1015 H 0.3874 0.39652 0.58397 0.0
H1016 H 0.35284 0.35999 0.50851 0.0
H1017 H 0.25189 0.41427 0.52471 0.0
C1018 C 0.19495 0.41128 0.48935 0.0
C1019 C 0.18055 0.40069 0.46846 0.0
C1020 C 0.35935 0.36789 0.52525 0.0
C1021 C 0.2796 0.39051 0.50601 0.0
C1022 C 0.40644 0.36258 0.54459 0.0
C1023 C 0.41905 0.37293 0.56591 0.0
C1024 C 0.32481 0.38374 0.5272 0.0
C1025 C 0.37863 0.38799 0.56813 0.0
C1026 C 0.24452 0.40629 0.50811 0.0
C1027 C 0.22242 0.38588 0.46572 0.0
N1028 N 0.33406 0.39304 0.54886 0.0
N1029 N 0.26915 0.38108 0.48453 0.0
H1030 H 0.06003 0.65305 0.56315 0.0
H1031 H 0.3287 0.61041 0.46072 0.0
H1032 H 0.10262 0.59948 0.55782 0.0
H1033 H 0.31215 0.66439 0.4717 0.0
H1034 H 0.23433 0.60632 0.49321 0.0
H1035 H 0.15003 0.65795 0.52917 0.0
C1036 C 0.09067 0.64244 0.55552 0.0
C1037 C 0.07541 0.6259 0.56345 0.0
C1038 C 0.25021 0.6191 0.48815 0.0
C1039 C 0.17431 0.63116 0.52385 0.0
C1040 C 0.30272 0.6214 0.46917 0.0
C1041 C 0.32706 0.63775 0.46338 0.0
C1042 C 0.2227 0.63325 0.50146 0.0
C1043 C 0.2938 0.65159 0.47553 0.0
C1044 C 0.1407 0.64515 0.53579 0.0
C1045 C 0.1141 0.61245 0.55238 0.0
N1046 N 0.24384 0.64905 0.49423 0.0
N1047 N 0.16123 0.61534 0.53296 0.0
H1048 H 0.05043 0.37131 0.0675 0.0
H1049 H 0.32516 0.40501 0.96006 0.0
H1050 H 0.0861 0.42405 0.05069 0.0
H1051 H 0.30813 0.35245 0.98102 0.0
H1052 H 0.22879 0.41188 0.99061 0.0
H1053 H 0.14336 0.36373 0.03564 0.0
C1054 C 0.07994 0.38127 0.05775 0.0
C1055 C 0.06242 0.39831 0.06202 0.0
C1056 C 0.24518 0.39878 0.98824 0.0
C1057 C 0.16489 0.38986 0.02475 0.0
C1058 C 0.29917 0.39485 0.97038 0.0
C1059 C 0.32361 0.37814 0.96777 0.0
C1060 C 0.21628 0.38589 1.00374 0.0
C1061 C 0.28992 0.36549 0.98235 0.0
C1062 C 0.13177 0.37698 0.03924 0.0
C1063 C 0.09945 0.41078 0.04816 0.0
N1064 N 0.23838 0.36962 0.99989 0.0
N1065 N 0.14862 0.40632 0.03003 0.0
H1066 H 0.22095 0.63795 0.94592 0.0
H1067 H 0.39345 0.62801 0.08479 0.0
H1068 H 0.17661 0.59559 0.9952 0.0
H1069 H 0.44309 0.66955 0.03455 0.0
H1070 H 0.30956 0.61662 0.05301 0.0
H1071 H 0.30849 0.64875 0.97689 0.0
C1072 C 0.23205 0.63046 0.96269 0.0
C1073 C 0.19157 0.61575 0.96785 0.0
C1074 C 0.33784 0.62838 0.04906 0.0
C1075 C 0.2886 0.62866 1.00427 0.0
C1076 C 0.38449 0.63515 0.06754 0.0
C1077 C 0.42515 0.64984 0.06244 0.0
C1078 C 0.33201 0.63634 0.02525 0.0
C1079 C 0.41259 0.65822 0.0393 0.0
C1080 C 0.28079 0.63691 0.98076 0.0
C1081 C 0.20691 0.60694 0.99042 0.0
N1082 N 0.36793 0.65124 0.02143 0.0
N1083 N 0.25321 0.61368 1.008 0.0
H1084 H 0.78745 0.63783 0.58541 0.0
H1085 H 0.61683 0.61878 0.44828 0.0
H1086 H 0.84381 0.59389 0.54064 0.0
H1087 H 0.5631 0.66262 0.49376 0.0
H1088 H 0.70205 0.6096 0.4813 0.0
H1089 H 0.69682 0.64564 0.55368 0.0
C1090 C 0.77834 0.62934 0.56955 0.0
C1091 C 0.82294 0.61508 0.56584 0.0
C1092 C 0.6724 0.62136 0.48391 0.0
C1093 C 0.72253 0.6246 0.52838 0.0
C1094 C 0.62491 0.62682 0.46476 0.0
C1095 C 0.58289 0.64153 0.46824 0.0
C1096 C 0.6776 0.63067 0.5067 0.0
C1097 C 0.59456 0.65121 0.49032 0.0
C1098 C 0.72784 0.63408 0.55098 0.0
C1099 C 0.81025 0.60495 0.54428 0.0
N1100 N 0.64008 0.64551 0.50884 0.0
N1101 N 0.76216 0.61006 0.5261 0.0
H1102 H 0.6679 0.40627 0.57157 0.0
H1103 H 0.93876 0.36411 0.46932 0.0
H1104 H 0.69237 0.35236 0.56181 0.0
H1105 H 0.90218 0.41783 0.47646 0.0
H1106 H 0.84753 0.35923 0.50285 0.0
H1107 H 0.76166 0.41078 0.53897 0.0
C1108 C 0.69535 0.39541 0.56332 0.0
C1109 C 0.67349 0.37894 0.56949 0.0
C1110 C 0.85842 0.37208 0.49674 0.0
C1111 C 0.77722 0.38388 0.53134 0.0
C1112 C 0.90916 0.37479 0.47725 0.0
C1113 C 0.92649 0.39135 0.46997 0.0
C1114 C 0.82603 0.38607 0.50907 0.0
C1115 C 0.88907 0.40486 0.48141 0.0
C1116 C 0.74759 0.39794 0.5443 0.0
C1117 C 0.7087 0.36525 0.55764 0.0
N1118 N 0.84109 0.40195 0.50057 0.0
N1119 N 0.75829 0.368 0.53891 0.0
H1120 H 0.24013 0.06742 0.10664 0.0
H1121 H 0.21576 0.96814 0.13757 0.0
H1122 H 0.03896 0.04161 0.12568 0.0
H1123 H 0.41529 0.99367 0.11574 0.0
H1124 H 0.14962 0.99479 0.13253 0.0
H1125 H 0.30517 0.0405 0.10993 0.0
C1126 C 0.20957 0.0562 0.1118 0.0
C1127 C 0.13377 0.05693 0.11618 0.0
C1128 C 0.20784 0.99451 0.1287 0.0
C1129 C 0.20811 0.02589 0.1195 0.0
C1130 C 0.24571 0.97921 0.13135 0.0
C1131 C 0.32152 0.97851 0.12692 0.0
C1132 C 0.24589 1.00927 0.12166 0.0
C1133 C 0.35706 0.99353 0.11952 0.0
C1134 C 0.24678 0.04075 0.11344 0.0
C1135 C 0.09729 0.04174 0.12208 0.0
N1136 N 0.31909 1.00824 0.11719 0.0
N1137 N 0.13472 0.0269 0.12363 0.0
H1138 H 0.72529 0.05707 0.40655 0.0
H1139 H 0.76181 0.95606 0.41799 0.0
H1140 H 0.93103 0.02999 0.40455 0.0
H1141 H 0.55878 0.983 0.42976 0.0
H1142 H 0.82302 0.98306 0.41037 0.0
H1143 H 0.6622 0.03018 0.41339 0.0
C1144 C 0.75763 0.04563 0.40781 0.0
C1145 C 0.83424 0.04602 0.4051 0.0
C1146 C 0.76496 0.98306 0.41451 0.0
C1147 C 0.76142 0.015 0.4124 0.0
C1148 C 0.72968 0.96757 0.41862 0.0
C1149 C 0.6546 0.96714 0.42433 0.0
C1150 C 0.7251 0.99829 0.41607 0.0
C1151 C 0.61674 0.98266 0.4255 0.0
C1152 C 0.72123 0.03019 0.41153 0.0
C1153 C 0.87207 0.03049 0.40638 0.0
N1154 N 0.65226 0.99755 0.4214 0.0
N1155 N 0.83542 0.01571 0.40987 0.0
H1156 H 0.78169 0.95818 0.887 0.0
H1157 H 0.72763 0.05561 0.92772 0.0
H1158 H 0.87373 0.98026 0.95526 0.0
H1159 H 0.62987 0.03311 0.86078 0.0
H1160 H 0.78421 0.02832 0.93752 0.0
H1161 H 0.72567 0.98548 0.87711 0.0
C1162 C 0.7895 0.96859 0.90015 0.0
C1163 C 0.83247 0.96669 0.92218 0.0
C1164 C 0.7506 0.0294 0.92062 0.0
C1165 C 0.76933 0.9983 0.91052 0.0
C1166 C 0.71874 0.04509 0.91484 0.0
C1167 C 0.67396 0.04684 0.89323 0.0
C1168 C 0.73775 0.0153 0.90474 0.0
C1169 C 0.66353 0.03245 0.87772 0.0
C1170 C 0.7579 0.9843 0.89432 0.0
C1171 C 0.8415 0.981 0.938 0.0
N1172 N 0.69497 0.01737 0.88376 0.0
N1173 N 0.81046 0.99611 0.93187 0.0
H1174 H 0.28187 0.96173 0.64068 0.0
H1175 H 0.24246 0.06234 0.63146 0.0
H1176 H 0.08543 0.9871 0.61527 0.0
H1177 H 0.44815 0.03688 0.64535 0.0
H1178 H 0.18552 0.03488 0.62365 0.0
H1179 H 0.34544 0.98896 0.64054 0.0
C1180 C 0.25225 0.97288 0.63461 0.0
C1181 C 0.17777 0.97199 0.62801 0.0
C1182 C 0.24333 0.03534 0.62816 0.0
C1183 C 0.25022 1.00338 0.62841 0.0
C1184 C 0.27624 0.05111 0.63247 0.0
C1185 C 0.3507 0.05211 0.63909 0.0
C1186 C 0.28476 0.0204 0.63068 0.0
C1187 C 0.3905 0.03685 0.64057 0.0
C1188 C 0.28859 0.98851 0.63473 0.0
C1189 C 0.14252 0.9871 0.6208 0.0
N1190 N 0.35705 0.02169 0.63659 0.0
N1191 N 0.17875 1.00212 0.62139 0.0
H1192 H 0.87272 0.49093 0.16701 0.0
H1193 H 0.60442 0.54319 0.07627 0.0
H1194 H 0.75465 0.4685 0.10416 0.0
H1195 H 0.70097 0.56401 0.14471 0.0
H1196 H 0.66005 0.51596 0.08596 0.0
H1197 H 0.81095 0.51778 0.15899 0.0
C1198 C 0.83335 0.49159 0.15162 0.0
C1199 C 0.81881 0.47733 0.13633 0.0
C1200 C 0.66918 0.5265 0.09884 0.0
C1201 C 0.74811 0.50826 0.12688 0.0
C1202 C 0.6374 0.54214 0.09334 0.0
C1203 C 0.64817 0.55619 0.10949 0.0
C1204 C 0.7125 0.52471 0.1207 0.0
C1205 C 0.69188 0.55384 0.13126 0.0
C1206 C 0.79803 0.50697 0.14707 0.0
C1207 C 0.76699 0.47901 0.11672 0.0
N1208 N 0.72241 0.53844 0.13616 0.0
N1209 N 0.73394 0.49421 0.11247 0.0
H1210 H 0.10786 0.48319 0.37038 0.0
H1211 H 0.39893 0.53482 0.45365 0.0
H1212 H 0.24087 0.46042 0.42902 0.0
H1213 H 0.2856 0.55607 0.38893 0.0
H1214 H 0.33888 0.5078 0.44563 0.0
H1215 H 0.17048 0.51008 0.37745 0.0
C1216 C 0.15064 0.48379 0.38465 0.0
C1217 C 0.16922 0.46941 0.39901 0.0
C1218 C 0.32695 0.51839 0.43324 0.0
C1219 C 0.24095 0.50037 0.40737 0.0
C1220 C 0.36121 0.5339 0.43779 0.0
C1221 C 0.34732 0.54797 0.42211 0.0
C1222 C 0.27806 0.51678 0.4128 0.0
C1223 C 0.29744 0.54584 0.40194 0.0
C1224 C 0.1864 0.49919 0.38865 0.0
C1225 C 0.22531 0.47102 0.41717 0.0
N1226 N 0.26475 0.53056 0.39789 0.0
N1227 N 0.25884 0.48624 0.42091 0.0
H1228 H 0.40252 0.47953 0.95787 0.0
H1229 H 0.14604 0.53292 0.86456 0.0
H1230 H 0.31227 0.4595 0.88789 0.0
H1231 H 0.25439 0.55464 0.93002 0.0
H1232 H 0.20789 0.50611 0.8726 0.0
H1233 H 0.34955 0.50702 0.9479 0.0
C1234 C 0.37151 0.48081 0.94041 0.0
C1235 C 0.36154 0.4669 0.92392 0.0
C1236 C 0.21874 0.51675 0.8851 0.0
C1237 C 0.30036 0.49867 0.91239 0.0
C1238 C 0.18339 0.53211 0.88054 0.0
C1239 C 0.19494 0.54614 0.8966 0.0
C1240 C 0.26573 0.51523 0.90609 0.0
C1241 C 0.24433 0.54429 0.91691 0.0
C1242 C 0.34126 0.4966 0.93475 0.0
C1243 C 0.32049 0.46955 0.90161 0.0
N1244 N 0.27742 0.52908 0.92119 0.0
N1245 N 0.29141 0.48508 0.89658 0.0
H1246 H 0.88081 0.53378 0.66534 0.0
H1247 H 0.59754 0.48216 0.57879 0.0
H1248 H 0.75642 0.55655 0.60448 0.0
H1249 H 0.70245 0.4612 0.64544 0.0
H1250 H 0.65595 0.50926 0.58763 0.0
H1251 H 0.8164 0.50714 0.65814 0.0
C1252 C 0.83953 0.53324 0.65054 0.0
C1253 C 0.82407 0.54755 0.63557 0.0
C1254 C 0.66629 0.49872 0.60029 0.0
C1255 C 0.75017 0.51681 0.62706 0.0
C1256 C 0.63292 0.48314 0.59528 0.0
C1257 C 0.64515 0.46907 0.61117 0.0
C1258 C 0.71273 0.50043 0.6214 0.0
C1259 C 0.69198 0.47137 0.63219 0.0
C1260 C 0.80269 0.51797 0.64647 0.0
C1261 C 0.76968 0.546 0.61677 0.0
N1262 N 0.72399 0.4867 0.63662 0.0
N1263 N 0.73512 0.53089 0.61295 0.0
H1264 H 0.10341 0.23311 0.15283 0.0
H1265 H 0.86827 0.30395 0.08206 0.0
H1266 H 0.93601 0.22102 0.09751 0.0
H1267 H 0.05174 0.31478 0.13132 0.0
H1268 H 0.89349 0.27369 0.08625 0.0
H1269 H 0.08442 0.263 0.14468 0.0
C1270 C 0.06234 0.23668 0.13896 0.0
C1271 C 0.02116 0.22433 0.12592 0.0
C1272 C 0.92879 0.28269 0.09588 0.0
C1273 C 0.99918 0.25895 0.11646 0.0
C1274 C 0.91462 0.29999 0.09346 0.0
C1275 C 0.95801 0.31201 0.10632 0.0
C1276 C 0.98639 0.27727 0.11151 0.0
C1277 C 0.01733 0.30609 0.12076 0.0
C1278 C 0.05169 0.25385 0.1343 0.0
C1279 C 0.96841 0.22995 0.10836 0.0
N1280 N 0.02926 0.28915 0.12315 0.0
N1281 N 0.95897 0.24686 0.10415 0.0
H1282 H 0.34788 0.80296 0.10071 0.0
H1283 H 0.64195 0.73167 0.13497 0.0
H1284 H 0.56238 0.8141 0.13122 0.0
H1285 H 0.41265 0.72106 0.12216 0.0
H1286 H 0.61838 0.76156 0.12751 0.0
H1287 H 0.3765 0.77286 0.10217 0.0
C1288 C 0.40139 0.79917 0.10753 0.0
C1289 C 0.45254 0.81132 0.11595 0.0
C1290 C 0.57332 0.75268 0.12618 0.0
C1291 C 0.48558 0.77653 0.11758 0.0
C1292 C 0.58653 0.73551 0.13046 0.0
C1293 C 0.52927 0.72356 0.12934 0.0
C1294 C 0.50223 0.75816 0.12057 0.0
C1295 C 0.45901 0.72955 0.12306 0.0
C1296 C 0.41751 0.7819 0.10835 0.0
C1297 C 0.52114 0.80542 0.12427 0.0
N1298 N 0.44754 0.74641 0.11902 0.0
N1299 N 0.5354 0.78846 0.12499 0.0
H1300 H 0.60114 0.71159 0.40243 0.0
H1301 H 0.41962 0.80338 0.40871 0.0
H1302 H 0.37 0.72032 0.41369 0.0
H1303 H 0.65318 0.79487 0.40636 0.0
H1304 H 0.40145 0.77305 0.41508 0.0
H1305 H 0.6229 0.74193 0.40839 0.0
C1306 C 0.55514 0.71977 0.40668 0.0
C1307 C 0.4835 0.71335 0.40734 0.0
C1308 C 0.45676 0.77786 0.4135 0.0
C1309 C 0.50788 0.74818 0.41365 0.0
C1310 C 0.46722 0.79527 0.41004 0.0
C1311 C 0.53812 0.80179 0.40681 0.0
C1312 C 0.51745 0.76688 0.41354 0.0
C1313 C 0.59739 0.79044 0.40834 0.0
C1314 C 0.56753 0.73715 0.4099 0.0
C1315 C 0.42607 0.7247 0.41259 0.0
N1316 N 0.58572 0.77357 0.41132 0.0
N1317 N 0.43938 0.74153 0.41526 0.0
H1318 H 0.93504 0.30629 0.43745 0.0
H1319 H 0.06361 0.21183 0.40136 0.0
H1320 H 0.13702 0.29455 0.39856 0.0
H1321 H 0.87245 0.22298 0.44684 0.0
H1322 H 0.09004 0.24213 0.39943 0.0
H1323 H 0.90769 0.27588 0.4393 0.0
C1324 C 0.97316 0.29741 0.42901 0.0
C1325 C 0.03845 0.30308 0.4178 0.0
C1326 C 0.04249 0.23791 0.40995 0.0
C1327 C 0.00803 0.2682 0.42021 0.0
C1328 C 0.0277 0.22051 0.41129 0.0
C1329 C 0.96577 0.21463 0.42444 0.0
C1330 C 0.99498 0.24959 0.4217 0.0
C1331 C 0.92065 0.22679 0.43634 0.0
C1332 C 0.95787 0.28001 0.43028 0.0
C1333 C 0.08627 0.29083 0.40759 0.0
N1334 N 0.93598 0.2436 0.43463 0.0
N1335 N 0.07018 0.27406 0.40905 0.0
H1336 H 0.85537 0.79106 0.91592 0.0
H1337 H 0.15571 0.7196 0.94056 0.0
H1338 H 0.0879 0.80122 0.91704 0.0
H1339 H 0.93442 0.7087 0.91622 0.0
H1340 H 0.12753 0.7497 0.93972 0.0
H1341 H 0.8805 0.76128 0.92369 0.0
C1342 C 0.91188 0.78713 0.91794 0.0
C1343 C 0.96954 0.79888 0.9156 0.0
C1344 C 0.08503 0.7407 0.93478 0.0
C1345 C 0.99838 0.76447 0.92474 0.0
C1346 C 0.10084 0.72342 0.93526 0.0
C1347 C 0.04766 0.71132 0.92829 0.0
C1348 C 0.01518 0.74612 0.92749 0.0
C1349 C 0.97745 0.7173 0.92195 0.0
C1350 C 0.92597 0.77004 0.9224 0.0
C1351 C 0.04136 0.79285 0.91884 0.0
N1352 N 0.96349 0.73426 0.92159 0.0
N1353 N 0.05368 0.77605 0.92313 0.0
H1354 H 0.4879 0.20735 0.88918 0.0
H1355 H 0.54846 0.30403 0.93257 0.0
H1356 H 0.56833 0.22235 0.96335 0.0
H1357 H 0.43996 0.28951 0.8628 0.0
H1358 H 0.56732 0.27401 0.94224 0.0
H1359 H 0.47787 0.23722 0.8778 0.0
C1360 C 0.50277 0.21677 0.90325 0.0
C1361 C 0.52841 0.21206 0.92748 0.0
C1362 C 0.53986 0.27742 0.92471 0.0
C1363 C 0.51854 0.24652 0.91414 0.0
C1364 C 0.52978 0.2946 0.91904 0.0
C1365 C 0.49265 0.29939 0.89678 0.0
C1366 C 0.51286 0.2649 0.908 0.0
C1367 C 0.46843 0.28646 0.88028 0.0
C1368 C 0.49758 0.23392 0.89659 0.0
C1369 C 0.54841 0.22516 0.94442 0.0
N1370 N 0.47875 0.26988 0.88623 0.0
N1371 N 0.54308 0.24168 0.93745 0.0
H1372 H 0.51161 0.21067 0.6459 0.0
H1373 H 0.45174 0.30719 0.60278 0.0
H1374 H 0.44226 0.22555 0.57045 0.0
H1375 H 0.55209 0.29278 0.67392 0.0
H1376 H 0.43471 0.27715 0.59256 0.0
H1377 H 0.51675 0.2405 0.65794 0.0
C1378 C 0.49814 0.22004 0.6317 0.0
C1379 C 0.47732 0.21531 0.60688 0.0
C1380 C 0.4599 0.28058 0.61051 0.0
C1381 C 0.48149 0.24974 0.62098 0.0
C1382 C 0.46891 0.29777 0.61648 0.0
C1383 C 0.50335 0.30258 0.63929 0.0
C1384 C 0.48527 0.2681 0.62747 0.0
C1385 C 0.52574 0.28969 0.65603 0.0
C1386 C 0.5005 0.23718 0.63874 0.0
C1387 C 0.45867 0.22837 0.5898 0.0
N1388 N 0.51656 0.2731 0.64977 0.0
N1389 N 0.46126 0.24488 0.59714 0.0
H1390 H 0.06842 0.71206 0.63003 0.0
H1391 H 0.93945 0.80716 0.5983 0.0
H1392 H 0.87357 0.72387 0.58693 0.0
H1393 H 0.13963 0.79469 0.63785 0.0
H1394 H 0.91275 0.77678 0.5945 0.0
H1395 H 0.09596 0.74231 0.63252 0.0
C1396 C 0.03197 0.72088 0.62069 0.0
C1397 C 0.96856 0.71521 0.60813 0.0
C1398 C 0.96243 0.78074 0.60406 0.0
C1399 C 0.99906 0.75013 0.61152 0.0
C1400 C 0.97738 0.79814 0.60645 0.0
C1401 C 0.04191 0.80364 0.61849 0.0
C1402 C 0.01218 0.76875 0.61381 0.0
C1403 C 0.08944 0.79117 0.62822 0.0
C1404 C 0.04738 0.73826 0.62237 0.0
C1405 C 0.92289 0.72753 0.59697 0.0
N1406 N 0.07368 0.77443 0.62568 0.0
N1407 N 0.93882 0.74432 0.599 0.0
H1408 H 0.84668 0.12918 0.32533 0.0
H1409 H 0.12561 0.13068 0.20773 0.0
H1410 H 0.0774 0.13948 0.33401 0.0
H1411 H 0.89257 0.13756 0.19905 0.0
H1412 H 0.10936 0.13017 0.25408 0.0
H1413 H 0.86283 0.12887 0.27902 0.0
C1414 C 0.9007 0.13141 0.31754 0.0
C1415 C 0.96066 0.13444 0.3337 0.0
C1416 C 0.06182 0.13174 0.24199 0.0
C1417 C 0.9797 0.13384 0.28058 0.0
C1418 C 0.07098 0.13192 0.21551 0.0
C1419 C 0.01042 0.1342 0.19938 0.0
C1420 C 0.99147 0.13361 0.25249 0.0
C1421 C 0.94096 0.13586 0.21067 0.0
C1422 C 0.90985 0.13124 0.29108 0.0
C1423 C 0.0294 0.13723 0.32238 0.0
N1424 N 0.93341 0.13548 0.23644 0.0
N1425 N 0.03709 0.13676 0.2966 0.0
H1426 H 0.34263 0.90102 0.21324 0.0
H1427 H 0.63181 0.89954 0.32825 0.0
H1428 H 0.57226 0.89007 0.20283 0.0
H1429 H 0.39798 0.8962 0.33859 0.0
H1430 H 0.61259 0.90086 0.282 0.0
H1431 H 0.36365 0.90347 0.25908 0.0
C1432 C 0.39746 0.89911 0.22055 0.0
C1433 C 0.45561 0.8952 0.20408 0.0
C1434 C 0.56555 0.9 0.29445 0.0
C1435 C 0.48022 0.89822 0.25665 0.0
C1436 C 0.57646 0.89943 0.32084 0.0
C1437 C 0.51644 0.89768 0.3373 0.0
C1438 C 0.49411 0.89903 0.28452 0.0
C1439 C 0.44589 0.89741 0.32661 0.0
C1440 C 0.40943 0.90053 0.24675 0.0
C1441 C 0.52557 0.89294 0.21477 0.0
N1442 N 0.43673 0.89802 0.30097 0.0
N1443 N 0.53592 0.89451 0.24033 0.0
H1444 H 0.92012 0.8826 0.70219 0.0
H1445 H 0.09551 0.89102 0.84028 0.0
H1446 H 0.14737 0.89525 0.71451 0.0
H1447 H 0.86282 0.89465 0.82738 0.0
H1448 H 0.11571 0.89158 0.79438 0.0
H1449 H 0.89825 0.88544 0.74792 0.0
C1450 C 0.9656 0.88589 0.71449 0.0
C1451 C 0.03594 0.88858 0.70442 0.0
C1452 C 0.06025 0.89244 0.80153 0.0
C1453 C 0.0109 0.8919 0.75691 0.0
C1454 C 0.04861 0.89212 0.82775 0.0
C1455 C 0.97729 0.89275 0.83768 0.0
C1456 C 0.00011 0.89308 0.78493 0.0
C1457 C 0.91868 0.89423 0.82054 0.0
C1458 C 0.95282 0.88764 0.7406 0.0
C1459 C 0.09235 0.89301 0.72136 0.0
N1460 N 0.93131 0.89411 0.79496 0.0
N1461 N 0.07871 0.89441 0.74675 0.0
H1462 H 0.4232 0.15026 0.83808 0.0
H1463 H 0.59261 0.15179 0.6975 0.0
H1464 H 0.64881 0.13792 0.82224 0.0
H1465 H 0.36258 0.14416 0.71224 0.0
H1466 H 0.61499 0.15279 0.74345 0.0
H1467 H 0.40194 0.15399 0.79244 0.0
C1468 C 0.46864 0.14856 0.82509 0.0
C1469 C 0.53801 0.14371 0.83415 0.0
C1470 C 0.55955 0.15108 0.7366 0.0
C1471 C 0.51372 0.14804 0.78168 0.0
C1472 C 0.54651 0.15064 0.71034 0.0
C1473 C 0.47547 0.14786 0.70085 0.0
C1474 C 0.5011 0.14897 0.75365 0.0
C1475 C 0.41824 0.14629 0.71858 0.0
C1476 C 0.45622 0.15061 0.79899 0.0
C1477 C 0.59441 0.14159 0.81622 0.0
N1478 N 0.43229 0.14685 0.74406 0.0
N1479 N 0.58106 0.14377 0.79089 0.0
H1480 H 0.39939 0.63095 0.19838 0.0
H1481 H 0.60049 0.62068 0.33134 0.0
H1482 H 0.6288 0.61855 0.2044 0.0
H1483 H 0.3659 0.61701 0.32373 0.0
H1484 H 0.61202 0.61966 0.28503 0.0
H1485 H 0.38558 0.62583 0.244 0.0
C1486 C 0.44685 0.62702 0.20924 0.0
C1487 C 0.51556 0.62529 0.19747 0.0
C1488 C 0.55804 0.61885 0.29344 0.0
C1489 C 0.50005 0.61956 0.24997 0.0
C1490 C 0.55135 0.61945 0.31992 0.0
C1491 C 0.48203 0.619 0.33149 0.0
C1492 C 0.49491 0.61812 0.27822 0.0
C1493 C 0.4204 0.61734 0.31567 0.0
C1494 C 0.43878 0.62404 0.23532 0.0
C1495 C 0.57482 0.62005 0.21259 0.0
N1496 N 0.42821 0.61722 0.28985 0.0
N1497 N 0.56591 0.61759 0.23807 0.0
H1498 H 0.84559 0.39199 0.21096 0.0
H1499 H 0.14484 0.38674 0.3222 0.0
H1500 H 0.07586 0.38398 0.19697 0.0
H1501 H 0.91345 0.38009 0.33546 0.0
H1502 H 0.12063 0.38782 0.27636 0.0
H1503 H 0.86914 0.38977 0.25682 0.0
C1504 C 0.90101 0.38975 0.21747 0.0
C1505 C 0.9587 0.38814 0.19995 0.0
C1506 C 0.07521 0.38605 0.28931 0.0
C1507 C 0.98616 0.38575 0.25251 0.0
C1508 C 0.089 0.38545 0.31552 0.0
C1509 C 0.03122 0.38327 0.33283 0.0
C1510 C 0.00297 0.3847 0.28025 0.0
C1511 C 0.95991 0.38169 0.32292 0.0
C1512 C 0.9144 0.38844 0.24366 0.0
C1513 C 0.02945 0.38523 0.20964 0.0
N1514 N 0.94781 0.38254 0.29738 0.0
N1515 N 0.04116 0.38423 0.23517 0.0
H1516 H 0.63181 0.40361 0.70743 0.0
H1517 H 0.36702 0.40333 0.82933 0.0
H1518 H 0.39773 0.39699 0.70261 0.0
H1519 H 0.59853 0.39276 0.83329 0.0
H1520 H 0.37859 0.40723 0.78319 0.0
H1521 H 0.62111 0.40594 0.75387 0.0
C1522 C 0.57805 0.40295 0.71605 0.0
C1523 C 0.51565 0.39998 0.70106 0.0
C1524 C 0.42692 0.40422 0.79424 0.0
C1525 C 0.50307 0.40262 0.75421 0.0
C1526 C 0.42045 0.40208 0.8206 0.0
C1527 C 0.48176 0.39757 0.83525 0.0
C1528 C 0.49537 0.40207 0.78243 0.0
C1529 C 0.54959 0.39606 0.82278 0.0
C1530 C 0.57206 0.40416 0.74258 0.0
C1531 C 0.44743 0.39912 0.71339 0.0
N1532 N 0.55451 0.39826 0.79715 0.0
N1533 N 0.44301 0.40038 0.73919 0.0
H1534 H 0.08848 0.64177 0.69635 0.0
H1535 H 0.92315 0.63778 0.83692 0.0
H1536 H 0.86104 0.63097 0.71157 0.0
H1537 H 0.15338 0.63105 0.82139 0.0
H1538 H 0.89951 0.63905 0.79123 0.0
H1539 H 0.11273 0.64168 0.74213 0.0
C1540 C 0.0434 0.63951 0.70928 0.0
C1541 C 0.97243 0.63638 0.69998 0.0
C1542 C 0.9552 0.63732 0.7978 0.0
C1543 C 0.0002 0.63629 0.75258 0.0
C1544 C 0.96896 0.63667 0.82394 0.0
C1545 C 0.04056 0.63432 0.83314 0.0
C1546 C 0.01344 0.63583 0.78055 0.0
C1547 C 0.09736 0.63285 0.81524 0.0
C1548 C 0.05752 0.63936 0.73544 0.0
C1549 C 0.91657 0.63341 0.71779 0.0
N1550 N 0.08262 0.6337 0.78983 0.0
N1551 N 0.93159 0.6335 0.74319 0.0
loop_
_geom_bond_atom_site_label_1
_geom_bond_atom_site_label_2
_geom_bond_distance
_geom_bond_site_symmetry_2
_ccdc_geom_bond_type
Zn0 N4 2.020 1_655 S
Zn0 O8 2.019 . S
Zn0 N10 2.119 1_655 S
Zn0 O18 1.975 1_655 S
C1 N2 1.334 . S
C1 N5 1.336 . S
N2 C1 1.334 . S
N2 C3 1.334 . S
C3 N2 1.334 . S
C3 N4 1.336 . S
N4 Zn0 2.020 1_455 S
N4 C3 1.336 . S
N4 N5 1.354 . S
N5 C1 1.336 . S
N5 N4 1.354 . S
N5 Zn9 2.020 . S
C6 O7 1.244 . S
C6 O30 1.257 . S
O7 C6 1.244 . S
O8 Zn0 2.019 . S
O8 C28 1.257 . S
Zn9 N5 2.020 . S
Zn9 O16 1.975 . S
Zn9 N25 2.119 . S
Zn9 O30 2.019 . S
N10 Zn0 2.119 1_455 S
N10 C12 1.334 . S
N10 C13 1.328 1_455 S
C11 C12 1.391 . S
C11 N14 1.329 . S
C11 H32 0.930 . S
C12 N10 1.334 . S
C12 C11 1.391 . S
C12 H19 0.930 . S
C13 N10 1.328 1_655 S
C13 C15 1.392 . S
C13 H20 0.930 . S
N14 C11 1.329 . S
N14 C15 1.331 1_455 S
C15 C13 1.392 . S
C15 N14 1.331 1_655 S
O16 Zn9 1.975 . S
O16 C17 1.252 . S
C17 O16 1.252 . S
C17 O18 1.252 . S
O18 Zn0 1.975 1_455 S
O18 C17 1.252 . S
H19 C12 0.930 . S
H20 C13 0.930 . S
C21 C22 1.392 . S
C21 N25 1.328 . S
C21 H27 0.930 . S
C22 C21 1.392 . S
C22 N26 1.331 . S
C23 C24 1.391 . S
C23 N26 1.329 . S
C23 H33 0.930 . S
C24 C23 1.391 . S
C24 N25 1.334 . S
C24 H31 0.930 . S
N25 Zn9 2.119 . S
N25 C21 1.328 . S
N25 C24 1.334 . S
N26 C22 1.331 . S
N26 C23 1.329 . S
H27 C21 0.930 . S
C28 O8 1.257 . S
C28 O29 1.244 . S
O29 C28 1.244 . S
O30 C6 1.257 . S
O30 Zn9 2.019 . S
H31 C24 0.930 . S
H32 C11 0.930 . S
H33 C23 0.930 . S
Zn34 N38 2.020 . S
Zn34 O42 2.019 . S
Zn34 N44 2.119 . S
Zn34 O52 1.975 . S
C35 N36 1.334 . S
C35 N39 1.336 . S
N36 C35 1.334 . S
N36 C37 1.334 . S
C37 N36 1.334 . S
C37 N38 1.336 . S
N38 Zn34 2.020 . S
N38 C37 1.336 . S
N38 N39 1.354 . S
N39 C35 1.336 . S
N39 N38 1.354 . S
N39 Zn43 2.020 . S
C40 O41 1.244 . S
C40 O64 1.257 . S
O41 C40 1.244 . S
O42 Zn34 2.019 . S
O42 C62 1.257 . S
Zn43 N39 2.020 . S
Zn43 O50 1.975 . S
Zn43 N59 2.119 . S
Zn43 O64 2.019 . S
N44 Zn34 2.119 . S
N44 C46 1.334 . S
N44 C47 1.328 . S
C45 C46 1.391 . S
C45 N48 1.329 . S
C45 H66 0.930 . S
C46 N44 1.334 . S
C46 C45 1.391 . S
C46 H53 0.930 . S
C47 N44 1.328 . S
C47 C49 1.392 . S
C47 H54 0.930 . S
N48 C45 1.329 . S
N48 C49 1.331 . S
C49 C47 1.392 . S
C49 N48 1.331 . S
O50 Zn43 1.975 . S
O50 C51 1.252 . S
C51 O50 1.252 . S
C51 O52 1.252 . S
O52 Zn34 1.975 . S
O52 C51 1.252 . S
H53 C46 0.930 . S
H54 C47 0.930 . S
C55 C56 1.392 . S
C55 N59 1.328 . S
C55 H61 0.930 . S
C56 C55 1.392 . S
C56 N60 1.331 . S
C57 C58 1.391 . S
C57 N60 1.329 . S
C57 H67 0.930 . S
C58 C57 1.391 . S
C58 N59 1.334 . S
C58 H65 0.930 . S
N59 Zn43 2.119 . S
N59 C55 1.328 . S
N59 C58 1.334 . S
N60 C56 1.331 . S
N60 C57 1.329 . S
H61 C55 0.930 . S
C62 O42 1.257 . S
C62 O63 1.244 . S
O63 C62 1.244 . S
O64 C40 1.257 . S
O64 Zn43 2.019 . S
H65 C58 0.930 . S
H66 C45 0.930 . S
H67 C57 0.930 . S
Zn68 N72 2.020 . S
Zn68 O76 2.019 . S
Zn68 N78 2.119 . S
Zn68 O86 1.975 . S
C69 N70 1.334 . S
C69 N73 1.336 . S
N70 C69 1.334 . S
N70 C71 1.334 . S
C71 N70 1.334 . S
C71 N72 1.336 . S
N72 Zn68 2.020 . S
N72 C71 1.336 . S
N72 N73 1.354 . S
N73 C69 1.336 . S
N73 N72 1.354 . S
N73 Zn77 2.020 . S
C74 O75 1.244 . S
C74 O98 1.257 . S
O75 C74 1.244 . S
O76 Zn68 2.019 . S
O76 C96 1.257 . S
Zn77 N73 2.020 . S
Zn77 O84 1.975 . S
Zn77 N93 2.119 . S
Zn77 O98 2.019 . S
N78 Zn68 2.119 . S
N78 C80 1.334 . S
N78 C81 1.328 . S
C79 C80 1.391 . S
C79 N82 1.329 . S
C79 H100 0.930 . S
C80 N78 1.334 . S
C80 C79 1.391 . S
C80 H87 0.930 . S
C81 N78 1.328 . S
C81 C83 1.392 . S
C81 H88 0.930 . S
N82 C79 1.329 . S
N82 C83 1.331 . S
C83 C81 1.392 . S
C83 N82 1.331 . S
O84 Zn77 1.975 . S
O84 C85 1.252 . S
C85 O84 1.252 . S
C85 O86 1.252 . S
O86 Zn68 1.975 . S
O86 C85 1.252 . S
H87 C80 0.930 . S
H88 C81 0.930 . S
C89 C90 1.392 . S
C89 N93 1.328 . S
C89 H95 0.930 . S
C90 C89 1.392 . S
C90 N94 1.331 . S
C91 C92 1.391 . S
C91 N94 1.329 . S
C91 H101 0.930 . S
C92 C91 1.391 . S
C92 N93 1.334 . S
C92 H99 0.930 . S
N93 Zn77 2.119 . S
N93 C89 1.328 . S
N93 C92 1.334 . S
N94 C90 1.331 . S
N94 C91 1.329 . S
H95 C89 0.930 . S
C96 O76 1.257 . S
C96 O97 1.244 . S
O97 C96 1.244 . S
O98 C74 1.257 . S
O98 Zn77 2.019 . S
H99 C92 0.930 . S
H100 C79 0.930 . S
H101 C91 0.930 . S
Zn102 N106 2.020 1_455 S
Zn102 O110 2.019 . S
Zn102 N112 2.119 1_455 S
Zn102 O120 1.975 1_455 S
C103 N104 1.334 . S
C103 N107 1.336 . S
N104 C103 1.334 . S
N104 C105 1.334 . S
C105 N104 1.334 . S
C105 N106 1.336 . S
N106 Zn102 2.020 1_655 S
N106 C105 1.336 . S
N106 N107 1.354 . S
N107 C103 1.336 . S
N107 N106 1.354 . S
N107 Zn111 2.020 . S
C108 O109 1.244 . S
C108 O132 1.257 . S
O109 C108 1.244 . S
O110 Zn102 2.019 . S
O110 C130 1.257 . S
Zn111 N107 2.020 . S
Zn111 O118 1.975 . S
Zn111 N127 2.119 . S
Zn111 O132 2.019 . S
N112 Zn102 2.119 1_655 S
N112 C114 1.334 . S
N112 C115 1.328 1_655 S
C113 C114 1.391 . S
C113 N116 1.329 . S
C113 H134 0.930 . S
C114 N112 1.334 . S
C114 C113 1.391 . S
C114 H121 0.930 . S
C115 N112 1.328 1_455 S
C115 C117 1.392 . S
C115 H122 0.930 . S
N116 C113 1.329 . S
N116 C117 1.331 1_655 S
C117 C115 1.392 . S
C117 N116 1.331 1_455 S
O118 Zn111 1.975 . S
O118 C119 1.252 . S
C119 O118 1.252 . S
C119 O120 1.252 . S
O120 Zn102 1.975 1_655 S
O120 C119 1.252 . S
H121 C114 0.930 . S
H122 C115 0.930 . S
C123 C124 1.392 . S
C123 N127 1.328 . S
C123 H129 0.930 . S
C124 C123 1.392 . S
C124 N128 1.331 . S
C125 C126 1.391 . S
C125 N128 1.329 . S
C125 H135 0.930 . S
C126 C125 1.391 . S
C126 N127 1.334 . S
C126 H133 0.930 . S
N127 Zn111 2.119 . S
N127 C123 1.328 . S
N127 C126 1.334 . S
N128 C124 1.331 . S
N128 C125 1.329 . S
H129 C123 0.930 . S
C130 O110 1.257 . S
C130 O131 1.244 . S
O131 C130 1.244 . S
O132 C108 1.257 . S
O132 Zn111 2.019 . S
H133 C126 0.930 . S
H134 C113 0.930 . S
H135 C125 0.930 . S
Zn136 N140 2.020 . S
Zn136 O144 2.019 . S
Zn136 N146 2.119 . S
Zn136 O154 1.975 . S
C137 N138 1.334 . S
C137 N141 1.336 . S
N138 C137 1.334 . S
N138 C139 1.334 . S
C139 N138 1.334 . S
C139 N140 1.336 . S
N140 Zn136 2.020 . S
N140 C139 1.336 . S
N140 N141 1.354 . S
N141 C137 1.336 . S
N141 N140 1.354 . S
N141 Zn145 2.020 1_655 S
C142 O143 1.244 . S
C142 O166 1.257 . S
O143 C142 1.244 . S
O144 Zn136 2.019 . S
O144 C164 1.257 . S
Zn145 N141 2.020 1_455 S
Zn145 O152 1.975 1_455 S
Zn145 N161 2.119 1_455 S
Zn145 O166 2.019 . S
N146 Zn136 2.119 . S
N146 C148 1.334 . S
N146 C149 1.328 . S
C147 C148 1.391 . S
C147 N150 1.329 . S
C147 H168 0.930 . S
C148 N146 1.334 . S
C148 C147 1.391 . S
C148 H155 0.930 . S
C149 N146 1.328 . S
C149 C151 1.392 . S
C149 H156 0.930 . S
N150 C147 1.329 . S
N150 C151 1.331 . S
C151 C149 1.392 . S
C151 N150 1.331 . S
O152 Zn145 1.975 1_655 S
O152 C153 1.252 . S
C153 O152 1.252 . S
C153 O154 1.252 . S
O154 Zn136 1.975 . S
O154 C153 1.252 . S
H155 C148 0.930 . S
H156 C149 0.930 . S
C157 C158 1.392 . S
C157 N161 1.328 1_455 S
C157 H163 0.930 . S
C158 C157 1.392 . S
C158 N162 1.331 1_455 S
C159 C160 1.391 . S
C159 N162 1.329 . S
C159 H169 0.930 . S
C160 C159 1.391 . S
C160 N161 1.334 . S
C160 H167 0.930 . S
N161 Zn145 2.119 1_655 S
N161 C157 1.328 1_655 S
N161 C160 1.334 . S
N162 C158 1.331 1_655 S
N162 C159 1.329 . S
H163 C157 0.930 . S
C164 O144 1.257 . S
C164 O165 1.244 . S
O165 C164 1.244 . S
O166 C142 1.257 . S
O166 Zn145 2.019 . S
H167 C160 0.930 . S
H168 C147 0.930 . S
H169 C159 0.930 . S
Zn170 N174 2.020 . S
Zn170 O178 2.019 . S
Zn170 N180 2.119 . S
Zn170 O188 1.975 . S
C171 N172 1.334 . S
C171 N175 1.336 . S
N172 C171 1.334 . S
N172 C173 1.334 . S
C173 N172 1.334 . S
C173 N174 1.336 . S
N174 Zn170 2.020 . S
N174 C173 1.336 . S
N174 N175 1.354 . S
N175 C171 1.336 . S
N175 N174 1.354 . S
N175 Zn179 2.020 . S
C176 O177 1.244 . S
C176 O200 1.257 . S
O177 C176 1.244 . S
O178 Zn170 2.019 . S
O178 C198 1.257 . S
Zn179 N175 2.020 . S
Zn179 O186 1.975 . S
Zn179 N195 2.119 . S
Zn179 O200 2.019 . S
N180 Zn170 2.119 . S
N180 C182 1.334 . S
N180 C183 1.328 . S
C181 C182 1.391 . S
C181 N184 1.329 . S
C181 H202 0.930 . S
C182 N180 1.334 . S
C182 C181 1.391 . S
C182 H189 0.930 . S
C183 N180 1.328 . S
C183 C185 1.392 . S
C183 H190 0.930 . S
N184 C181 1.329 . S
N184 C185 1.331 . S
C185 C183 1.392 . S
C185 N184 1.331 . S
O186 Zn179 1.975 . S
O186 C187 1.252 . S
C187 O186 1.252 . S
C187 O188 1.252 . S
O188 Zn170 1.975 . S
O188 C187 1.252 . S
H189 C182 0.930 . S
H190 C183 0.930 . S
C191 C192 1.392 . S
C191 N195 1.328 . S
C191 H197 0.930 . S
C192 C191 1.392 . S
C192 N196 1.331 . S
C193 C194 1.391 . S
C193 N196 1.329 . S
C193 H203 0.930 . S
C194 C193 1.391 . S
C194 N195 1.334 . S
C194 H201 0.930 . S
N195 Zn179 2.119 . S
N195 C191 1.328 . S
N195 C194 1.334 . S
N196 C192 1.331 . S
N196 C193 1.329 . S
H197 C191 0.930 . S
C198 O178 1.257 . S
C198 O199 1.244 . S
O199 C198 1.244 . S
O200 C176 1.257 . S
O200 Zn179 2.019 . S
H201 C194 0.930 . S
H202 C181 0.930 . S
H203 C193 0.930 . S
Zn204 N208 2.020 . S
Zn204 O212 2.019 . S
Zn204 N214 2.119 . S
Zn204 O222 1.975 . S
C205 N206 1.334 . S
C205 N209 1.336 . S
N206 C205 1.334 . S
N206 C207 1.334 . S
C207 N206 1.334 . S
C207 N208 1.336 . S
N208 Zn204 2.020 . S
N208 C207 1.336 . S
N208 N209 1.354 . S
N209 C205 1.336 . S
N209 N208 1.354 . S
N209 Zn213 2.020 . S
C210 O211 1.244 . S
C210 O234 1.257 . S
O211 C210 1.244 . S
O212 Zn204 2.019 . S
O212 C232 1.257 . S
Zn213 N209 2.020 . S
Zn213 O220 1.975 . S
Zn213 N229 2.119 . S
Zn213 O234 2.019 . S
N214 Zn204 2.119 . S
N214 C216 1.334 . S
N214 C217 1.328 . S
C215 C216 1.391 . S
C215 N218 1.329 . S
C215 H236 0.930 . S
C216 N214 1.334 . S
C216 C215 1.391 . S
C216 H223 0.930 . S
C217 N214 1.328 . S
C217 C219 1.392 . S
C217 H224 0.930 . S
N218 C215 1.329 . S
N218 C219 1.331 . S
C219 C217 1.392 . S
C219 N218 1.331 . S
O220 Zn213 1.975 . S
O220 C221 1.252 . S
C221 O220 1.252 . S
C221 O222 1.252 . S
O222 Zn204 1.975 . S
O222 C221 1.252 . S
H223 C216 0.930 . S
H224 C217 0.930 . S
C225 C226 1.392 . S
C225 N229 1.328 . S
C225 H231 0.930 . S
C226 C225 1.392 . S
C226 N230 1.331 . S
C227 C228 1.391 . S
C227 N230 1.329 . S
C227 H237 0.930 . S
C228 C227 1.391 . S
C228 N229 1.334 . S
C228 H235 0.930 . S
N229 Zn213 2.119 . S
N229 C225 1.328 . S
N229 C228 1.334 . S
N230 C226 1.331 . S
N230 C227 1.329 . S
H231 C225 0.930 . S
C232 O212 1.257 . S
C232 O233 1.244 . S
O233 C232 1.244 . S
O234 C210 1.257 . S
O234 Zn213 2.019 . S
H235 C228 0.930 . S
H236 C215 0.930 . S
H237 C227 0.930 . S
Zn238 N242 2.020 . S
Zn238 O246 2.019 . S
Zn238 N248 2.119 . S
Zn238 O256 1.975 . S
C239 N240 1.334 . S
C239 N243 1.336 . S
N240 C239 1.334 . S
N240 C241 1.334 . S
C241 N240 1.334 . S
C241 N242 1.336 . S
N242 Zn238 2.020 . S
N242 C241 1.336 . S
N242 N243 1.354 . S
N243 C239 1.336 . S
N243 N242 1.354 . S
N243 Zn247 2.020 1_455 S
C244 O245 1.244 . S
C244 O268 1.257 . S
O245 C244 1.244 . S
O246 Zn238 2.019 . S
O246 C266 1.257 . S
Zn247 N243 2.020 1_655 S
Zn247 O254 1.975 1_655 S
Zn247 N263 2.119 1_655 S
Zn247 O268 2.019 . S
N248 Zn238 2.119 . S
N248 C250 1.334 . S
N248 C251 1.328 . S
C249 C250 1.391 . S
C249 N252 1.329 . S
C249 H270 0.930 . S
C250 N248 1.334 . S
C250 C249 1.391 . S
C250 H257 0.930 . S
C251 N248 1.328 . S
C251 C253 1.392 . S
C251 H258 0.930 . S
N252 C249 1.329 . S
N252 C253 1.331 . S
C253 C251 1.392 . S
C253 N252 1.331 . S
O254 Zn247 1.975 1_455 S
O254 C255 1.252 . S
C255 O254 1.252 . S
C255 O256 1.252 . S
O256 Zn238 1.975 . S
O256 C255 1.252 . S
H257 C250 0.930 . S
H258 C251 0.930 . S
C259 C260 1.392 . S
C259 N263 1.328 1_655 S
C259 H265 0.930 . S
C260 C259 1.392 . S
C260 N264 1.331 1_655 S
C261 C262 1.391 . S
C261 N264 1.329 . S
C261 H271 0.930 . S
C262 C261 1.391 . S
C262 N263 1.334 . S
C262 H269 0.930 . S
N263 Zn247 2.119 1_455 S
N263 C259 1.328 1_455 S
N263 C262 1.334 . S
N264 C260 1.331 1_455 S
N264 C261 1.329 . S
H265 C259 0.930 . S
C266 O246 1.257 . S
C266 O267 1.244 . S
O267 C266 1.244 . S
O268 C244 1.257 . S
O268 Zn247 2.019 . S
H269 C262 0.930 . S
H270 C249 0.930 . S
H271 C261 0.930 . S
Zn272 N276 2.020 . S
Zn272 O280 2.019 . S
Zn272 N282 2.119 . S
Zn272 O290 1.975 . S
C273 N274 1.334 . S
C273 N277 1.336 . S
N274 C273 1.334 . S
N274 C275 1.334 . S
C275 N274 1.334 . S
C275 N276 1.336 . S
N276 Zn272 2.020 . S
N276 C275 1.336 . S
N276 N277 1.354 . S
N277 C273 1.336 . S
N277 N276 1.354 . S
N277 Zn281 2.020 . S
C278 O279 1.244 . S
C278 O302 1.257 . S
O279 C278 1.244 . S
O280 Zn272 2.019 . S
O280 C300 1.257 . S
Zn281 N277 2.020 . S
Zn281 O288 1.975 . S
Zn281 N297 2.119 . S
Zn281 O302 2.019 . S
N282 Zn272 2.119 . S
N282 C284 1.334 . S
N282 C285 1.328 . S
C283 C284 1.391 . S
C283 N286 1.329 . S
C283 H304 0.930 . S
C284 N282 1.334 . S
C284 C283 1.391 . S
C284 H291 0.930 . S
C285 N282 1.328 . S
C285 C287 1.392 . S
C285 H292 0.930 . S
N286 C283 1.329 . S
N286 C287 1.331 . S
C287 C285 1.392 . S
C287 N286 1.331 . S
O288 Zn281 1.975 . S
O288 C289 1.252 . S
C289 O288 1.252 . S
C289 O290 1.252 . S
O290 Zn272 1.975 . S
O290 C289 1.252 . S
H291 C284 0.930 . S
H292 C285 0.930 . S
C293 C294 1.392 . S
C293 N297 1.328 . S
C293 H299 0.930 . S
C294 C293 1.392 . S
C294 N298 1.331 . S
C295 C296 1.391 . S
C295 N298 1.329 . S
C295 H305 0.930 . S
C296 C295 1.391 . S
C296 N297 1.334 . S
C296 H303 0.930 . S
N297 Zn281 2.119 . S
N297 C293 1.328 . S
N297 C296 1.334 . S
N298 C294 1.331 . S
N298 C295 1.329 . S
H299 C293 0.930 . S
C300 O280 1.257 . S
C300 O301 1.244 . S
O301 C300 1.244 . S
O302 C278 1.257 . S
O302 Zn281 2.019 . S
H303 C296 0.930 . S
H304 C283 0.930 . S
H305 C295 0.930 . S
Zn306 N310 2.020 . S
Zn306 O314 2.019 . S
Zn306 N316 2.119 . S
Zn306 O324 1.975 . S
C307 N308 1.334 . S
C307 N311 1.336 . S
N308 C307 1.334 . S
N308 C309 1.334 . S
C309 N308 1.334 . S
C309 N310 1.336 . S
N310 Zn306 2.020 . S
N310 C309 1.336 . S
N310 N311 1.354 . S
N311 C307 1.336 . S
N311 N310 1.354 . S
N311 Zn315 2.020 1_655 S
C312 O313 1.244 . S
C312 O336 1.257 . S
O313 C312 1.244 . S
O314 Zn306 2.019 . S
O314 C334 1.257 . S
Zn315 N311 2.020 1_455 S
Zn315 O322 1.975 1_455 S
Zn315 N331 2.119 1_455 S
Zn315 O336 2.019 . S
N316 Zn306 2.119 . S
N316 C318 1.334 . S
N316 C319 1.328 . S
C317 C318 1.391 . S
C317 N320 1.329 . S
C317 H338 0.930 . S
C318 N316 1.334 . S
C318 C317 1.391 . S
C318 H325 0.930 . S
C319 N316 1.328 . S
C319 C321 1.392 . S
C319 H326 0.930 . S
N320 C317 1.329 . S
N320 C321 1.331 . S
C321 C319 1.392 . S
C321 N320 1.331 . S
O322 Zn315 1.975 1_655 S
O322 C323 1.252 . S
C323 O322 1.252 . S
C323 O324 1.252 . S
O324 Zn306 1.975 . S
O324 C323 1.252 . S
H325 C318 0.930 . S
H326 C319 0.930 . S
C327 C328 1.392 . S
C327 N331 1.328 1_455 S
C327 H333 0.930 . S
C328 C327 1.392 . S
C328 N332 1.331 1_455 S
C329 C330 1.391 . S
C329 N332 1.329 . S
C329 H339 0.930 . S
C330 C329 1.391 . S
C330 N331 1.334 . S
C330 H337 0.930 . S
N331 Zn315 2.119 1_655 S
N331 C327 1.328 1_655 S
N331 C330 1.334 . S
N332 C328 1.331 1_655 S
N332 C329 1.329 . S
H333 C327 0.930 . S
C334 O314 1.257 . S
C334 O335 1.244 . S
O335 C334 1.244 . S
O336 C312 1.257 . S
O336 Zn315 2.019 . S
H337 C330 0.930 . S
H338 C317 0.930 . S
H339 C329 0.930 . S
Zn340 N344 2.020 . S
Zn340 O348 2.019 . S
Zn340 N350 2.119 . S
Zn340 O358 1.975 . S
C341 N342 1.334 . S
C341 N345 1.336 . S
N342 C341 1.334 . S
N342 C343 1.334 . S
C343 N342 1.334 . S
C343 N344 1.336 . S
N344 Zn340 2.020 . S
N344 C343 1.336 . S
N344 N345 1.354 . S
N345 C341 1.336 . S
N345 N344 1.354 . S
N345 Zn349 2.020 1_455 S
C346 O347 1.244 . S
C346 O370 1.257 . S
O347 C346 1.244 . S
O348 Zn340 2.019 . S
O348 C368 1.257 . S
Zn349 N345 2.020 1_655 S
Zn349 O356 1.975 1_655 S
Zn349 N365 2.119 1_655 S
Zn349 O370 2.019 . S
N350 Zn340 2.119 . S
N350 C352 1.334 . S
N350 C353 1.328 . S
C351 C352 1.391 . S
C351 N354 1.329 . S
C351 H372 0.930 . S
C352 N350 1.334 . S
C352 C351 1.391 . S
C352 H359 0.930 . S
C353 N350 1.328 . S
C353 C355 1.392 . S
C353 H360 0.930 . S
N354 C351 1.329 . S
N354 C355 1.331 . S
C355 C353 1.392 . S
C355 N354 1.331 . S
O356 Zn349 1.975 1_455 S
O356 C357 1.252 . S
C357 O356 1.252 . S
C357 O358 1.252 . S
O358 Zn340 1.975 . S
O358 C357 1.252 . S
H359 C352 0.930 . S
H360 C353 0.930 . S
C361 C362 1.392 . S
C361 N365 1.328 1_655 S
C361 H367 0.930 . S
C362 C361 1.392 . S
C362 N366 1.331 1_655 S
C363 C364 1.391 . S
C363 N366 1.329 . S
C363 H373 0.930 . S
C364 C363 1.391 . S
C364 N365 1.334 . S
C364 H371 0.930 . S
N365 Zn349 2.119 1_455 S
N365 C361 1.328 1_455 S
N365 C364 1.334 . S
N366 C362 1.331 1_455 S
N366 C363 1.329 . S
H367 C361 0.930 . S
C368 O348 1.257 . S
C368 O369 1.244 . S
O369 C368 1.244 . S
O370 C346 1.257 . S
O370 Zn349 2.019 . S
H371 C364 0.930 . S
H372 C351 0.930 . S
H373 C363 0.930 . S
Zn374 N378 2.020 . S
Zn374 O382 2.019 . S
Zn374 N384 2.119 . S
Zn374 O392 1.975 . S
C375 N376 1.334 . S
C375 N379 1.336 . S
N376 C375 1.334 . S
N376 C377 1.334 . S
C377 N376 1.334 . S
C377 N378 1.336 . S
N378 Zn374 2.020 . S
N378 C377 1.336 . S
N378 N379 1.354 . S
N379 C375 1.336 . S
N379 N378 1.354 . S
N379 Zn383 2.020 . S
C380 O381 1.244 . S
C380 O404 1.257 . S
O381 C380 1.244 . S
O382 Zn374 2.019 . S
O382 C402 1.257 . S
Zn383 N379 2.020 . S
Zn383 O390 1.975 . S
Zn383 N399 2.119 . S
Zn383 O404 2.019 . S
N384 Zn374 2.119 . S
N384 C386 1.334 . S
N384 C387 1.328 . S
C385 C386 1.391 . S
C385 N388 1.329 . S
C385 H406 0.930 . S
C386 N384 1.334 . S
C386 C385 1.391 . S
C386 H393 0.930 . S
C387 N384 1.328 . S
C387 C389 1.392 . S
C387 H394 0.930 . S
N388 C385 1.329 . S
N388 C389 1.331 . S
C389 C387 1.392 . S
C389 N388 1.331 . S
O390 Zn383 1.975 . S
O390 C391 1.252 . S
C391 O390 1.252 . S
C391 O392 1.252 . S
O392 Zn374 1.975 . S
O392 C391 1.252 . S
H393 C386 0.930 . S
H394 C387 0.930 . S
C395 C396 1.392 . S
C395 N399 1.328 . S
C395 H401 0.930 . S
C396 C395 1.392 . S
C396 N400 1.331 . S
C397 C398 1.391 . S
C397 N400 1.329 . S
C397 H407 0.930 . S
C398 C397 1.391 . S
C398 N399 1.334 . S
C398 H405 0.930 . S
N399 Zn383 2.119 . S
N399 C395 1.328 . S
N399 C398 1.334 . S
N400 C396 1.331 . S
N400 C397 1.329 . S
H401 C395 0.930 . S
C402 O382 1.257 . S
C402 O403 1.244 . S
O403 C402 1.244 . S
O404 C380 1.257 . S
O404 Zn383 2.019 . S
H405 C398 0.930 . S
H406 C385 0.930 . S
H407 C397 0.930 . S
Zn408 N412 2.020 . S
Zn408 O416 2.019 . S
Zn408 N418 2.119 . S
Zn408 O426 1.975 . S
C409 N410 1.334 . S
C409 N413 1.336 . S
N410 C409 1.334 . S
N410 C411 1.334 . S
C411 N410 1.334 . S
C411 N412 1.336 . S
N412 Zn408 2.020 . S
N412 C411 1.336 . S
N412 N413 1.354 . S
N413 C409 1.336 . S
N413 N412 1.354 . S
N413 Zn417 2.020 . S
C414 O415 1.244 . S
C414 O438 1.257 . S
O415 C414 1.244 . S
O416 Zn408 2.019 . S
O416 C436 1.257 . S
Zn417 N413 2.020 . S
Zn417 O424 1.975 . S
Zn417 N433 2.119 . S
Zn417 O438 2.019 . S
N418 Zn408 2.119 . S
N418 C420 1.334 . S
N418 C421 1.328 . S
C419 C420 1.391 . S
C419 N422 1.329 . S
C419 H440 0.930 . S
C420 N418 1.334 . S
C420 C419 1.391 . S
C420 H427 0.930 . S
C421 N418 1.328 . S
C421 C423 1.392 . S
C421 H428 0.930 . S
N422 C419 1.329 . S
N422 C423 1.331 . S
C423 C421 1.392 . S
C423 N422 1.331 . S
O424 Zn417 1.975 . S
O424 C425 1.252 . S
C425 O424 1.252 . S
C425 O426 1.252 . S
O426 Zn408 1.975 . S
O426 C425 1.252 . S
H427 C420 0.930 . S
H428 C421 0.930 . S
C429 C430 1.392 . S
C429 N433 1.328 . S
C429 H435 0.930 . S
C430 C429 1.392 . S
C430 N434 1.331 . S
C431 C432 1.391 . S
C431 N434 1.329 . S
C431 H441 0.930 . S
C432 C431 1.391 . S
C432 N433 1.334 . S
C432 H439 0.930 . S
N433 Zn417 2.119 . S
N433 C429 1.328 . S
N433 C432 1.334 . S
N434 C430 1.331 . S
N434 C431 1.329 . S
H435 C429 0.930 . S
C436 O416 1.257 . S
C436 O437 1.244 . S
O437 C436 1.244 . S
O438 C414 1.257 . S
O438 Zn417 2.019 . S
H439 C432 0.930 . S
H440 C419 0.930 . S
H441 C431 0.930 . S
Zn442 N446 2.020 1_655 S
Zn442 O450 2.019 . S
Zn442 N452 2.119 1_655 S
Zn442 O460 1.975 1_655 S
C443 N444 1.334 . S
C443 N447 1.336 . S
N444 C443 1.334 . S
N444 C445 1.334 . S
C445 N444 1.334 . S
C445 N446 1.336 . S
N446 Zn442 2.020 1_455 S
N446 C445 1.336 . S
N446 N447 1.354 . S
N447 C443 1.336 . S
N447 N446 1.354 . S
N447 Zn451 2.020 . S
C448 O449 1.244 . S
C448 O472 1.257 . S
O449 C448 1.244 . S
O450 Zn442 2.019 . S
O450 C470 1.257 . S
Zn451 N447 2.020 . S
Zn451 O458 1.975 . S
Zn451 N467 2.119 . S
Zn451 O472 2.019 . S
N452 Zn442 2.119 1_455 S
N452 C454 1.334 . S
N452 C455 1.328 1_455 S
C453 C454 1.391 . S
C453 N456 1.329 . S
C453 H474 0.930 . S
C454 N452 1.334 . S
C454 C453 1.391 . S
C454 H461 0.930 . S
C455 N452 1.328 1_655 S
C455 C457 1.392 . S
C455 H462 0.930 . S
N456 C453 1.329 . S
N456 C457 1.331 1_455 S
C457 C455 1.392 . S
C457 N456 1.331 1_655 S
O458 Zn451 1.975 . S
O458 C459 1.252 . S
C459 O458 1.252 . S
C459 O460 1.252 . S
O460 Zn442 1.975 1_455 S
O460 C459 1.252 . S
H461 C454 0.930 . S
H462 C455 0.930 . S
C463 C464 1.392 . S
C463 N467 1.328 . S
C463 H469 0.930 . S
C464 C463 1.392 . S
C464 N468 1.331 . S
C465 C466 1.391 . S
C465 N468 1.329 . S
C465 H475 0.930 . S
C466 C465 1.391 . S
C466 N467 1.334 . S
C466 H473 0.930 . S
N467 Zn451 2.119 . S
N467 C463 1.328 . S
N467 C466 1.334 . S
N468 C464 1.331 . S
N468 C465 1.329 . S
H469 C463 0.930 . S
C470 O450 1.257 . S
C470 O471 1.244 . S
O471 C470 1.244 . S
O472 C448 1.257 . S
O472 Zn451 2.019 . S
H473 C466 0.930 . S
H474 C453 0.930 . S
H475 C465 0.930 . S
Zn476 N480 2.020 . S
Zn476 O484 2.019 . S
Zn476 N486 2.119 . S
Zn476 O494 1.975 . S
C477 N478 1.334 . S
C477 N481 1.336 . S
N478 C477 1.334 . S
N478 C479 1.334 . S
C479 N478 1.334 . S
C479 N480 1.336 . S
N480 Zn476 2.020 . S
N480 C479 1.336 . S
N480 N481 1.354 . S
N481 C477 1.336 . S
N481 N480 1.354 . S
N481 Zn485 2.020 1_655 S
C482 O483 1.244 . S
C482 O506 1.257 . S
O483 C482 1.244 . S
O484 Zn476 2.019 . S
O484 C504 1.257 . S
Zn485 N481 2.020 1_455 S
Zn485 O492 1.975 1_455 S
Zn485 N501 2.119 1_455 S
Zn485 O506 2.019 . S
N486 Zn476 2.119 . S
N486 C488 1.334 . S
N486 C489 1.328 . S
C487 C488 1.391 . S
C487 N490 1.329 . S
C487 H508 0.930 . S
C488 N486 1.334 . S
C488 C487 1.391 . S
C488 H495 0.930 . S
C489 N486 1.328 . S
C489 C491 1.392 . S
C489 H496 0.930 . S
N490 C487 1.329 . S
N490 C491 1.331 . S
C491 C489 1.392 . S
C491 N490 1.331 . S
O492 Zn485 1.975 1_655 S
O492 C493 1.252 . S
C493 O492 1.252 . S
C493 O494 1.252 . S
O494 Zn476 1.975 . S
O494 C493 1.252 . S
H495 C488 0.930 . S
H496 C489 0.930 . S
C497 C498 1.392 . S
C497 N501 1.328 1_455 S
C497 H503 0.930 . S
C498 C497 1.392 . S
C498 N502 1.331 1_455 S
C499 C500 1.391 . S
C499 N502 1.329 . S
C499 H509 0.930 . S
C500 C499 1.391 . S
C500 N501 1.334 . S
C500 H507 0.930 . S
N501 Zn485 2.119 1_655 S
N501 C497 1.328 1_655 S
N501 C500 1.334 . S
N502 C498 1.331 1_655 S
N502 C499 1.329 . S
H503 C497 0.930 . S
C504 O484 1.257 . S
C504 O505 1.244 . S
O505 C504 1.244 . S
O506 C482 1.257 . S
O506 Zn485 2.019 . S
H507 C500 0.930 . S
H508 C487 0.930 . S
H509 C499 0.930 . S
Zn510 N514 2.020 . S
Zn510 O518 2.019 . S
Zn510 N520 2.119 . S
Zn510 O528 1.975 . S
C511 N512 1.334 . S
C511 N515 1.336 . S
N512 C511 1.334 . S
N512 C513 1.334 . S
C513 N512 1.334 . S
C513 N514 1.336 . S
N514 Zn510 2.020 . S
N514 C513 1.336 . S
N514 N515 1.354 . S
N515 C511 1.336 . S
N515 N514 1.354 . S
N515 Zn519 2.020 . S
C516 O517 1.244 . S
C516 O540 1.257 . S
O517 C516 1.244 . S
O518 Zn510 2.019 . S
O518 C538 1.257 . S
Zn519 N515 2.020 . S
Zn519 O526 1.975 . S
Zn519 N535 2.119 . S
Zn519 O540 2.019 . S
N520 Zn510 2.119 . S
N520 C522 1.334 . S
N520 C523 1.328 . S
C521 C522 1.391 . S
C521 N524 1.329 . S
C521 H542 0.930 . S
C522 N520 1.334 . S
C522 C521 1.391 . S
C522 H529 0.930 . S
C523 N520 1.328 . S
C523 C525 1.392 . S
C523 H530 0.930 . S
N524 C521 1.329 . S
N524 C525 1.331 . S
C525 C523 1.392 . S
C525 N524 1.331 . S
O526 Zn519 1.975 . S
O526 C527 1.252 . S
C527 O526 1.252 . S
C527 O528 1.252 . S
O528 Zn510 1.975 . S
O528 C527 1.252 . S
H529 C522 0.930 . S
H530 C523 0.930 . S
C531 C532 1.392 . S
C531 N535 1.328 . S
C531 H537 0.930 . S
C532 C531 1.392 . S
C532 N536 1.331 . S
C533 C534 1.391 . S
C533 N536 1.329 . S
C533 H543 0.930 . S
C534 C533 1.391 . S
C534 N535 1.334 . S
C534 H541 0.930 . S
N535 Zn519 2.119 . S
N535 C531 1.328 . S
N535 C534 1.334 . S
N536 C532 1.331 . S
N536 C533 1.329 . S
H537 C531 0.930 . S
C538 O518 1.257 . S
C538 O539 1.244 . S
O539 C538 1.244 . S
O540 C516 1.257 . S
O540 Zn519 2.019 . S
H541 C534 0.930 . S
H542 C521 0.930 . S
H543 C533 0.930 . S
H544 C550 0.930 . S
H545 C554 0.930 . S
H546 C559 0.929 . S
H547 C557 0.929 . S
H548 C552 0.929 . S
H549 C558 0.929 . S
C550 H544 0.930 . S
C550 C551 1.367 . S
C550 C558 1.378 . S
C551 C550 1.367 . S
C551 C559 1.433 . S
C552 H548 0.929 . S
C552 C554 1.378 . S
C552 C556 1.350 . S
C553 C556 1.463 . S
C553 C558 1.350 . S
C553 N561 1.427 . S
C554 H545 0.930 . S
C554 C552 1.378 . S
C554 C555 1.367 . S
C555 C554 1.367 . S
C555 C557 1.433 . S
C556 C552 1.350 . S
C556 C553 1.463 . S
C556 N560 1.427 . S
C557 H547 0.929 . S
C557 C555 1.433 . S
C557 N560 1.384 . S
C558 H549 0.929 . S
C558 C550 1.378 . S
C558 C553 1.350 . S
C559 H546 0.929 . S
C559 C551 1.433 . S
C559 N561 1.384 . S
N560 C556 1.427 . S
N560 C557 1.384 . S
N561 C553 1.427 . S
N561 C559 1.384 . S
H562 C568 0.930 . S
H563 C572 0.930 . S
H564 C577 0.929 . S
H565 C575 0.929 . S
H566 C570 0.929 . S
H567 C576 0.929 . S
C568 H562 0.930 . S
C568 C569 1.367 . S
C568 C576 1.378 1_455 S
C569 C568 1.367 . S
C569 C577 1.433 . S
C570 H566 0.929 . S
C570 C572 1.378 . S
C570 C574 1.350 . S
C571 C574 1.463 . S
C571 C576 1.350 . S
C571 N579 1.427 . S
C572 H563 0.930 . S
C572 C570 1.378 . S
C572 C573 1.367 . S
C573 C572 1.367 . S
C573 C575 1.433 . S
C574 C570 1.350 . S
C574 C571 1.463 . S
C574 N578 1.427 . S
C575 H565 0.929 . S
C575 C573 1.433 . S
C575 N578 1.384 . S
C576 H567 0.929 . S
C576 C568 1.378 1_655 S
C576 C571 1.350 . S
C577 H564 0.929 . S
C577 C569 1.433 . S
C577 N579 1.384 1_455 S
N578 C574 1.427 . S
N578 C575 1.384 . S
N579 C571 1.427 . S
N579 C577 1.384 1_655 S
H580 C586 0.930 . S
H581 C590 0.930 . S
H582 C595 0.929 . S
H583 C593 0.929 . S
H584 C588 0.929 . S
H585 C594 0.929 . S
C586 H580 0.930 . S
C586 C587 1.367 . S
C586 C594 1.378 1_655 S
C587 C586 1.367 . S
C587 C595 1.433 . S
C588 H584 0.929 . S
C588 C590 1.378 . S
C588 C592 1.350 . S
C589 C592 1.463 . S
C589 C594 1.350 . S
C589 N597 1.427 . S
C590 H581 0.930 . S
C590 C588 1.378 . S
C590 C591 1.367 . S
C591 C590 1.367 . S
C591 C593 1.433 . S
C592 C588 1.350 . S
C592 C589 1.463 . S
C592 N596 1.427 . S
C593 H583 0.929 . S
C593 C591 1.433 . S
C593 N596 1.384 . S
C594 H585 0.929 . S
C594 C586 1.378 1_455 S
C594 C589 1.350 . S
C595 H582 0.929 . S
C595 C587 1.433 . S
C595 N597 1.384 1_655 S
N596 C592 1.427 . S
N596 C593 1.384 . S
N597 C589 1.427 . S
N597 C595 1.384 1_455 S
H598 C604 0.930 . S
H599 C608 0.930 . S
H600 C613 0.929 . S
H601 C611 0.929 . S
H602 C606 0.929 . S
H603 C612 0.929 . S
C604 H598 0.930 . S
C604 C605 1.367 . S
C604 C612 1.378 . S
C605 C604 1.367 . S
C605 C613 1.433 . S
C606 H602 0.929 . S
C606 C608 1.378 . S
C606 C610 1.350 . S
C607 C610 1.463 . S
C607 C612 1.350 . S
C607 N615 1.427 . S
C608 H599 0.930 . S
C608 C606 1.378 . S
C608 C609 1.367 . S
C609 C608 1.367 . S
C609 C611 1.433 . S
C610 C606 1.350 . S
C610 C607 1.463 . S
C610 N614 1.427 . S
C611 H601 0.929 . S
C611 C609 1.433 . S
C611 N614 1.384 . S
C612 H603 0.929 . S
C612 C604 1.378 . S
C612 C607 1.350 . S
C613 H600 0.929 . S
C613 C605 1.433 . S
C613 N615 1.384 . S
N614 C610 1.427 . S
N614 C611 1.384 . S
N615 C607 1.427 . S
N615 C613 1.384 . S
H616 C622 0.930 . S
H617 C626 0.930 . S
H618 C631 0.929 . S
H619 C629 0.929 . S
H620 C624 0.929 . S
H621 C630 0.929 . S
C622 H616 0.930 . S
C622 C623 1.367 . S
C622 C630 1.378 . S
C623 C622 1.367 . S
C623 C631 1.433 . S
C624 H620 0.929 . S
C624 C626 1.378 . S
C624 C628 1.350 . S
C625 C628 1.463 . S
C625 C630 1.350 . S
C625 N633 1.427 . S
C626 H617 0.930 . S
C626 C624 1.378 . S
C626 C627 1.367 . S
C627 C626 1.367 . S
C627 C629 1.433 . S
C628 C624 1.350 . S
C628 C625 1.463 . S
C628 N632 1.427 . S
C629 H619 0.929 . S
C629 C627 1.433 . S
C629 N632 1.384 . S
C630 H621 0.929 . S
C630 C622 1.378 . S
C630 C625 1.350 . S
C631 H618 0.929 . S
C631 C623 1.433 . S
C631 N633 1.384 . S
N632 C628 1.427 . S
N632 C629 1.384 . S
N633 C625 1.427 . S
N633 C631 1.384 . S
H634 C640 0.930 . S
H635 C644 0.930 . S
H636 C649 0.929 . S
H637 C647 0.929 . S
H638 C642 0.929 . S
H639 C648 0.929 . S
C640 H634 0.930 . S
C640 C641 1.367 . S
C640 C648 1.378 . S
C641 C640 1.367 . S
C641 C649 1.433 . S
C642 H638 0.929 . S
C642 C644 1.378 1_455 S
C642 C646 1.350 . S
C643 C646 1.463 . S
C643 C648 1.350 . S
C643 N651 1.427 . S
C644 H635 0.930 . S
C644 C642 1.378 1_655 S
C644 C645 1.367 . S
C645 C644 1.367 . S
C645 C647 1.433 . S
C646 C642 1.350 . S
C646 C643 1.463 . S
C646 N650 1.427 . S
C647 H637 0.929 . S
C647 C645 1.433 . S
C647 N650 1.384 1_655 S
C648 H639 0.929 . S
C648 C640 1.378 . S
C648 C643 1.350 . S
C649 H636 0.929 . S
C649 C641 1.433 . S
C649 N651 1.384 . S
N650 C646 1.427 . S
N650 C647 1.384 1_455 S
N651 C643 1.427 . S
N651 C649 1.384 . S
H652 C658 0.930 . S
H653 C662 0.930 . S
H654 C667 0.929 . S
H655 C665 0.929 . S
H656 C660 0.929 . S
H657 C666 0.929 . S
C658 H652 0.930 . S
C658 C659 1.367 . S
C658 C666 1.378 . S
C659 C658 1.367 . S
C659 C667 1.433 . S
C660 H656 0.929 . S
C660 C662 1.378 1_655 S
C660 C664 1.350 . S
C661 C664 1.463 . S
C661 C666 1.350 . S
C661 N669 1.427 . S
C662 H653 0.930 . S
C662 C660 1.378 1_455 S
C662 C663 1.367 . S
C663 C662 1.367 . S
C663 C665 1.433 . S
C664 C660 1.350 . S
C664 C661 1.463 . S
C664 N668 1.427 . S
C665 H655 0.929 . S
C665 C663 1.433 . S
C665 N668 1.384 1_455 S
C666 H657 0.929 . S
C666 C658 1.378 . S
C666 C661 1.350 . S
C667 H654 0.929 . S
C667 C659 1.433 . S
C667 N669 1.384 . S
N668 C664 1.427 . S
N668 C665 1.384 1_655 S
N669 C661 1.427 . S
N669 C667 1.384 . S
H670 C676 0.930 . S
H671 C680 0.930 . S
H672 C685 0.929 . S
H673 C683 0.929 . S
H674 C678 0.929 . S
H675 C684 0.929 . S
C676 H670 0.930 . S
C676 C677 1.367 . S
C676 C684 1.378 . S
C677 C676 1.367 . S
C677 C685 1.433 . S
C678 H674 0.929 . S
C678 C680 1.378 . S
C678 C682 1.350 . S
C679 C682 1.463 . S
C679 C684 1.350 . S
C679 N687 1.427 . S
C680 H671 0.930 . S
C680 C678 1.378 . S
C680 C681 1.367 . S
C681 C680 1.367 . S
C681 C683 1.433 . S
C682 C678 1.350 . S
C682 C679 1.463 . S
C682 N686 1.427 . S
C683 H673 0.929 . S
C683 C681 1.433 . S
C683 N686 1.384 . S
C684 H675 0.929 . S
C684 C676 1.378 . S
C684 C679 1.350 . S
C685 H672 0.929 . S
C685 C677 1.433 . S
C685 N687 1.384 . S
N686 C682 1.427 . S
N686 C683 1.384 . S
N687 C679 1.427 . S
N687 C685 1.384 . S
H688 C694 0.930 . S
H689 C698 0.930 . S
H690 C703 0.929 . S
H691 C701 0.929 . S
H692 C696 0.929 . S
H693 C702 0.929 . S
C694 H688 0.930 . S
C694 C695 1.367 . S
C694 C702 1.378 1_655 S
C695 C694 1.367 . S
C695 C703 1.433 . S
C696 H692 0.929 . S
C696 C698 1.378 . S
C696 C700 1.350 . S
C697 C700 1.463 . S
C697 C702 1.350 . S
C697 N705 1.427 . S
C698 H689 0.930 . S
C698 C696 1.378 . S
C698 C699 1.367 . S
C699 C698 1.367 . S
C699 C701 1.433 . S
C700 C696 1.350 . S
C700 C697 1.463 . S
C700 N704 1.427 . S
C701 H691 0.929 . S
C701 C699 1.433 . S
C701 N704 1.384 . S
C702 H693 0.929 . S
C702 C694 1.378 1_455 S
C702 C697 1.350 . S
C703 H690 0.929 . S
C703 C695 1.433 . S
C703 N705 1.384 1_655 S
N704 C700 1.427 . S
N704 C701 1.384 . S
N705 C697 1.427 . S
N705 C703 1.384 1_455 S
H706 C712 0.930 . S
H707 C716 0.930 . S
H708 C721 0.929 . S
H709 C719 0.929 . S
H710 C714 0.929 . S
H711 C720 0.929 . S
C712 H706 0.930 . S
C712 C713 1.367 . S
C712 C720 1.378 . S
C713 C712 1.367 . S
C713 C721 1.433 . S
C714 H710 0.929 . S
C714 C716 1.378 . S
C714 C718 1.350 . S
C715 C718 1.463 . S
C715 C720 1.350 . S
C715 N723 1.427 . S
C716 H707 0.930 . S
C716 C714 1.378 . S
C716 C717 1.367 . S
C717 C716 1.367 . S
C717 C719 1.433 . S
C718 C714 1.350 . S
C718 C715 1.463 . S
C718 N722 1.427 . S
C719 H709 0.929 . S
C719 C717 1.433 . S
C719 N722 1.384 . S
C720 H711 0.929 . S
C720 C712 1.378 . S
C720 C715 1.350 . S
C721 H708 0.929 . S
C721 C713 1.433 . S
C721 N723 1.384 . S
N722 C718 1.427 . S
N722 C719 1.384 . S
N723 C715 1.427 . S
N723 C721 1.384 . S
H724 C730 0.930 . S
H725 C734 0.930 . S
H726 C739 0.929 . S
H727 C737 0.929 . S
H728 C732 0.929 . S
H729 C738 0.929 . S
C730 H724 0.930 . S
C730 C731 1.367 . S
C730 C738 1.378 . S
C731 C730 1.367 . S
C731 C739 1.433 . S
C732 H728 0.929 . S
C732 C734 1.378 . S
C732 C736 1.350 . S
C733 C736 1.463 . S
C733 C738 1.350 . S
C733 N741 1.427 . S
C734 H725 0.930 . S
C734 C732 1.378 . S
C734 C735 1.367 . S
C735 C734 1.367 . S
C735 C737 1.433 . S
C736 C732 1.350 . S
C736 C733 1.463 . S
C736 N740 1.427 . S
C737 H727 0.929 . S
C737 C735 1.433 . S
C737 N740 1.384 . S
C738 H729 0.929 . S
C738 C730 1.378 . S
C738 C733 1.350 . S
C739 H726 0.929 . S
C739 C731 1.433 . S
C739 N741 1.384 . S
N740 C736 1.427 . S
N740 C737 1.384 . S
N741 C733 1.427 . S
N741 C739 1.384 . S
H742 C748 0.930 . S
H743 C752 0.930 . S
H744 C757 0.929 . S
H745 C755 0.929 . S
H746 C750 0.929 . S
H747 C756 0.929 . S
C748 H742 0.930 . S
C748 C749 1.367 . S
C748 C756 1.378 1_455 S
C749 C748 1.367 . S
C749 C757 1.433 . S
C750 H746 0.929 . S
C750 C752 1.378 . S
C750 C754 1.350 . S
C751 C754 1.463 . S
C751 C756 1.350 . S
C751 N759 1.427 . S
C752 H743 0.930 . S
C752 C750 1.378 . S
C752 C753 1.367 . S
C753 C752 1.367 . S
C753 C755 1.433 . S
C754 C750 1.350 . S
C754 C751 1.463 . S
C754 N758 1.427 . S
C755 H745 0.929 . S
C755 C753 1.433 . S
C755 N758 1.384 . S
C756 H747 0.929 . S
C756 C748 1.378 1_655 S
C756 C751 1.350 . S
C757 H744 0.929 . S
C757 C749 1.433 . S
C757 N759 1.384 1_455 S
N758 C754 1.427 . S
N758 C755 1.384 . S
N759 C751 1.427 . S
N759 C757 1.384 1_655 S
H760 C766 0.930 . S
H761 C770 0.930 . S
H762 C775 0.929 . S
H763 C773 0.929 . S
H764 C768 0.929 . S
H765 C774 0.929 . S
C766 H760 0.930 . S
C766 C767 1.367 . S
C766 C774 1.378 1_455 S
C767 C766 1.367 . S
C767 C775 1.433 . S
C768 H764 0.929 . S
C768 C770 1.378 . S
C768 C772 1.350 . S
C769 C772 1.463 . S
C769 C774 1.350 . S
C769 N777 1.427 . S
C770 H761 0.930 . S
C770 C768 1.378 . S
C770 C771 1.367 . S
C771 C770 1.367 . S
C771 C773 1.433 . S
C772 C768 1.350 . S
C772 C769 1.463 . S
C772 N776 1.427 . S
C773 H763 0.929 . S
C773 C771 1.433 . S
C773 N776 1.384 . S
C774 H765 0.929 . S
C774 C766 1.378 1_655 S
C774 C769 1.350 . S
C775 H762 0.929 . S
C775 C767 1.433 . S
C775 N777 1.384 1_455 S
N776 C772 1.427 . S
N776 C773 1.384 . S
N777 C769 1.427 . S
N777 C775 1.384 1_655 S
H778 C784 0.930 . S
H779 C788 0.930 . S
H780 C793 0.929 . S
H781 C791 0.929 . S
H782 C786 0.929 . S
H783 C792 0.929 . S
C784 H778 0.930 . S
C784 C785 1.367 . S
C784 C792 1.378 . S
C785 C784 1.367 . S
C785 C793 1.433 . S
C786 H782 0.929 . S
C786 C788 1.378 . S
C786 C790 1.350 . S
C787 C790 1.463 . S
C787 C792 1.350 . S
C787 N795 1.427 . S
C788 H779 0.930 . S
C788 C786 1.378 . S
C788 C789 1.367 . S
C789 C788 1.367 . S
C789 C791 1.433 . S
C790 C786 1.350 . S
C790 C787 1.463 . S
C790 N794 1.427 . S
C791 H781 0.929 . S
C791 C789 1.433 . S
C791 N794 1.384 . S
C792 H783 0.929 . S
C792 C784 1.378 . S
C792 C787 1.350 . S
C793 H780 0.929 . S
C793 C785 1.433 . S
C793 N795 1.384 . S
N794 C790 1.427 . S
N794 C791 1.384 . S
N795 C787 1.427 . S
N795 C793 1.384 . S
H796 C802 0.930 . S
H797 C806 0.930 . S
H798 C811 0.929 . S
H799 C809 0.929 . S
H800 C804 0.929 . S
H801 C810 0.929 . S
C802 H796 0.930 . S
C802 C803 1.367 . S
C802 C810 1.378 . S
C803 C802 1.367 . S
C803 C811 1.433 . S
C804 H800 0.929 . S
C804 C806 1.378 . S
C804 C808 1.350 . S
C805 C808 1.463 . S
C805 C810 1.350 . S
C805 N813 1.427 . S
C806 H797 0.930 . S
C806 C804 1.378 . S
C806 C807 1.367 . S
C807 C806 1.367 . S
C807 C809 1.433 . S
C808 C804 1.350 . S
C808 C805 1.463 . S
C808 N812 1.427 . S
C809 H799 0.929 . S
C809 C807 1.433 . S
C809 N812 1.384 . S
C810 H801 0.929 . S
C810 C802 1.378 . S
C810 C805 1.350 . S
C811 H798 0.929 . S
C811 C803 1.433 . S
C811 N813 1.384 . S
N812 C808 1.427 . S
N812 C809 1.384 . S
N813 C805 1.427 . S
N813 C811 1.384 . S
H814 C820 0.930 . S
H815 C824 0.930 . S
H816 C829 0.929 . S
H817 C827 0.929 . S
H818 C822 0.929 . S
H819 C828 0.929 . S
C820 H814 0.930 . S
C820 C821 1.367 . S
C820 C828 1.378 . S
C821 C820 1.367 . S
C821 C829 1.433 . S
C822 H818 0.929 . S
C822 C824 1.378 1_455 S
C822 C826 1.350 . S
C823 C826 1.463 . S
C823 C828 1.350 . S
C823 N831 1.427 . S
C824 H815 0.930 . S
C824 C822 1.378 1_655 S
C824 C825 1.367 . S
C825 C824 1.367 . S
C825 C827 1.433 . S
C826 C822 1.350 . S
C826 C823 1.463 . S
C826 N830 1.427 . S
C827 H817 0.929 . S
C827 C825 1.433 . S
C827 N830 1.384 1_655 S
C828 H819 0.929 . S
C828 C820 1.378 . S
C828 C823 1.350 . S
C829 H816 0.929 . S
C829 C821 1.433 . S
C829 N831 1.384 . S
N830 C826 1.427 . S
N830 C827 1.384 1_455 S
N831 C823 1.427 . S
N831 C829 1.384 . S
H832 C838 0.930 . S
H833 C842 0.930 . S
H834 C847 0.929 . S
H835 C845 0.929 . S
H836 C840 0.929 . S
H837 C846 0.929 . S
C838 H832 0.930 . S
C838 C839 1.367 . S
C838 C846 1.378 . S
C839 C838 1.367 . S
C839 C847 1.433 . S
C840 H836 0.929 . S
C840 C842 1.378 . S
C840 C844 1.350 . S
C841 C844 1.463 1_554 S
C841 C846 1.350 . S
C841 N849 1.427 . S
C842 H833 0.930 . S
C842 C840 1.378 . S
C842 C843 1.367 . S
C843 C842 1.367 . S
C843 C845 1.433 . S
C844 C840 1.350 . S
C844 C841 1.463 1_556 S
C844 N848 1.427 . S
C845 H835 0.929 . S
C845 C843 1.433 . S
C845 N848 1.384 . S
C846 H837 0.929 . S
C846 C838 1.378 . S
C846 C841 1.350 . S
C847 H834 0.929 . S
C847 C839 1.433 . S
C847 N849 1.384 . S
N848 C844 1.427 . S
N848 C845 1.384 . S
N849 C841 1.427 . S
N849 C847 1.384 . S
H850 C856 0.930 . S
H851 C860 0.930 . S
H852 C865 0.929 . S
H853 C863 0.929 . S
H854 C858 0.929 1_554 S
H855 C864 0.929 1_556 S
C856 H850 0.930 . S
C856 C857 1.367 . S
C856 C864 1.378 . S
C857 C856 1.367 . S
C857 C865 1.433 . S
C858 H854 0.929 1_556 S
C858 C860 1.378 . S
C858 C862 1.350 . S
C859 C862 1.463 1_554 S
C859 C864 1.350 . S
C859 N867 1.427 . S
C860 H851 0.930 . S
C860 C858 1.378 . S
C860 C861 1.367 . S
C861 C860 1.367 . S
C861 C863 1.433 . S
C862 C858 1.350 . S
C862 C859 1.463 1_556 S
C862 N866 1.427 . S
C863 H853 0.929 . S
C863 C861 1.433 . S
C863 N866 1.384 . S
C864 H855 0.929 1_554 S
C864 C856 1.378 . S
C864 C859 1.350 . S
C865 H852 0.929 . S
C865 C857 1.433 . S
C865 N867 1.384 . S
N866 C862 1.427 . S
N866 C863 1.384 . S
N867 C859 1.427 . S
N867 C865 1.384 . S
H868 C874 0.930 . S
H869 C878 0.930 . S
H870 C883 0.929 . S
H871 C881 0.929 . S
H872 C876 0.929 . S
H873 C882 0.929 . S
C874 H868 0.930 . S
C874 C875 1.367 . S
C874 C882 1.378 . S
C875 C874 1.367 . S
C875 C883 1.433 . S
C876 H872 0.929 . S
C876 C878 1.378 . S
C876 C880 1.350 . S
C877 C880 1.463 . S
C877 C882 1.350 . S
C877 N885 1.427 . S
C878 H869 0.930 . S
C878 C876 1.378 . S
C878 C879 1.367 . S
C879 C878 1.367 . S
C879 C881 1.433 . S
C880 C876 1.350 . S
C880 C877 1.463 . S
C880 N884 1.427 . S
C881 H871 0.929 . S
C881 C879 1.433 . S
C881 N884 1.384 . S
C882 H873 0.929 . S
C882 C874 1.378 . S
C882 C877 1.350 . S
C883 H870 0.929 . S
C883 C875 1.433 . S
C883 N885 1.384 . S
N884 C880 1.427 . S
N884 C881 1.384 . S
N885 C877 1.427 . S
N885 C883 1.384 . S
H886 C892 0.930 . S
H887 C896 0.930 . S
H888 C901 0.929 . S
H889 C899 0.929 . S
H890 C894 0.929 . S
H891 C900 0.929 . S
C892 H886 0.930 . S
C892 C893 1.367 . S
C892 C900 1.378 . S
C893 C892 1.367 . S
C893 C901 1.433 . S
C894 H890 0.929 . S
C894 C896 1.378 . S
C894 C898 1.350 . S
C895 C898 1.463 . S
C895 C900 1.350 . S
C895 N903 1.427 . S
C896 H887 0.930 . S
C896 C894 1.378 . S
C896 C897 1.367 . S
C897 C896 1.367 . S
C897 C899 1.433 . S
C898 C894 1.350 . S
C898 C895 1.463 . S
C898 N902 1.427 . S
C899 H889 0.929 . S
C899 C897 1.433 . S
C899 N902 1.384 . S
C900 H891 0.929 . S
C900 C892 1.378 . S
C900 C895 1.350 . S
C901 H888 0.929 . S
C901 C893 1.433 . S
C901 N903 1.384 . S
N902 C898 1.427 . S
N902 C899 1.384 . S
N903 C895 1.427 . S
N903 C901 1.384 . S
H904 C910 0.930 . S
H905 C914 0.930 . S
H906 C919 0.929 . S
H907 C917 0.929 . S
H908 C912 0.929 1_556 S
H909 C918 0.929 1_554 S
C910 H904 0.930 . S
C910 C911 1.367 . S
C910 C918 1.378 . S
C911 C910 1.367 . S
C911 C919 1.433 . S
C912 H908 0.929 1_554 S
C912 C914 1.378 . S
C912 C916 1.350 . S
C913 C916 1.463 1_556 S
C913 C918 1.350 . S
C913 N921 1.427 . S
C914 H905 0.930 . S
C914 C912 1.378 . S
C914 C915 1.367 . S
C915 C914 1.367 . S
C915 C917 1.433 . S
C916 C912 1.350 . S
C916 C913 1.463 1_554 S
C916 N920 1.427 . S
C917 H907 0.929 . S
C917 C915 1.433 . S
C917 N920 1.384 . S
C918 H909 0.929 1_556 S
C918 C910 1.378 . S
C918 C913 1.350 . S
C919 H906 0.929 . S
C919 C911 1.433 . S
C919 N921 1.384 . S
N920 C916 1.427 . S
N920 C917 1.384 . S
N921 C913 1.427 . S
N921 C919 1.384 . S
H922 C928 0.930 . S
H923 C932 0.930 1_455 S
H924 C937 0.929 . S
H925 C935 0.929 . S
H926 C930 0.955 . S
H927 C936 0.929 . S
C928 H922 0.930 . S
C928 C929 1.367 . S
C928 C936 1.378 . S
C929 C928 1.367 . S
C929 C937 1.433 . S
C930 H926 0.955 . S
C930 C932 1.378 . S
C930 C934 1.350 . S
C931 C934 1.463 1_556 S
C931 C936 1.350 . S
C931 N939 1.427 . S
C932 H923 0.930 1_655 S
C932 C930 1.378 . S
C932 C933 1.367 . S
C933 C932 1.367 . S
C933 C935 1.433 . S
C934 C930 1.350 . S
C934 C931 1.463 1_554 S
C934 N938 1.427 . S
C935 H925 0.929 . S
C935 C933 1.433 . S
C935 N938 1.384 . S
C936 H927 0.929 . S
C936 C928 1.378 . S
C936 C931 1.350 . S
C937 H924 0.929 . S
C937 C929 1.433 . S
C937 N939 1.384 . S
N938 C934 1.427 . S
N938 C935 1.384 . S
N939 C931 1.427 . S
N939 C937 1.384 . S
H940 C946 0.930 . S
H941 C950 0.930 . S
H942 C955 0.929 . S
H943 C953 0.929 . S
H944 C948 0.929 . S
H945 C954 0.929 . S
C946 H940 0.930 . S
C946 C947 1.367 . S
C946 C954 1.378 . S
C947 C946 1.367 . S
C947 C955 1.433 . S
C948 H944 0.929 . S
C948 C950 1.378 . S
C948 C952 1.350 . S
C949 C952 1.463 . S
C949 C954 1.350 . S
C949 N957 1.427 . S
C950 H941 0.930 . S
C950 C948 1.378 . S
C950 C951 1.367 . S
C951 C950 1.367 . S
C951 C953 1.433 . S
C952 C948 1.350 . S
C952 C949 1.463 . S
C952 N956 1.427 . S
C953 H943 0.929 . S
C953 C951 1.433 . S
C953 N956 1.384 . S
C954 H945 0.929 . S
C954 C946 1.378 . S
C954 C949 1.350 . S
C955 H942 0.929 . S
C955 C947 1.433 . S
C955 N957 1.384 . S
N956 C952 1.427 . S
N956 C953 1.384 . S
N957 C949 1.427 . S
N957 C955 1.384 . S
H958 C964 0.930 . S
H959 C968 0.930 . S
H960 C973 0.929 . S
H961 C971 0.929 . S
H962 C966 0.929 . S
H963 C972 0.929 . S
C964 H958 0.930 . S
C964 C965 1.367 . S
C964 C972 1.378 . S
C965 C964 1.367 . S
C965 C973 1.433 . S
C966 H962 0.929 . S
C966 C968 1.378 . S
C966 C970 1.350 . S
C967 C970 1.463 . S
C967 C972 1.350 . S
C967 N975 1.427 . S
C968 H959 0.930 . S
C968 C966 1.378 . S
C968 C969 1.367 . S
C969 C968 1.367 . S
C969 C971 1.433 . S
C970 C966 1.350 . S
C970 C967 1.463 . S
C970 N974 1.427 . S
C971 H961 0.929 . S
C971 C969 1.433 . S
C971 N974 1.384 . S
C972 H963 0.929 . S
C972 C964 1.378 . S
C972 C967 1.350 . S
C973 H960 0.929 . S
C973 C965 1.433 . S
C973 N975 1.384 . S
N974 C970 1.427 . S
N974 C971 1.384 . S
N975 C967 1.427 . S
N975 C973 1.384 . S
H976 C982 0.930 . S
H977 C986 0.930 1_455 S
H978 C991 0.929 . S
H979 C989 0.929 . S
H980 C984 0.929 1_554 S
H981 C990 0.929 1_556 S
C982 H976 0.930 . S
C982 C983 1.367 . S
C982 C990 1.378 . S
C983 C982 1.367 . S
C983 C991 1.433 . S
C984 H980 0.929 1_556 S
C984 C986 1.378 . S
C984 C988 1.350 . S
C985 C988 1.463 1_554 S
C985 C990 1.350 . S
C985 N993 1.427 . S
C986 H977 0.930 1_655 S
C986 C984 1.378 . S
C986 C987 1.367 . S
C987 C986 1.367 . S
C987 C989 1.433 . S
C988 C984 1.350 . S
C988 C985 1.463 1_556 S
C988 N992 1.427 . S
C989 H979 0.929 . S
C989 C987 1.433 . S
C989 N992 1.384 . S
C990 H981 0.929 1_554 S
C990 C982 1.378 . S
C990 C985 1.350 . S
C991 H978 0.929 . S
C991 C983 1.433 . S
C991 N993 1.384 . S
N992 C988 1.427 . S
N992 C989 1.384 . S
N993 C985 1.427 . S
N993 C991 1.384 . S
H994 C1000 0.930 . S
H995 C1004 0.930 . S
H996 C1009 0.929 . S
H997 C1007 0.929 . S
H998 C1002 0.929 . S
H999 C1008 0.931 . S
C1000 H994 0.930 . S
C1000 C1001 1.367 . S
C1000 C1008 1.378 . S
C1001 C1000 1.367 . S
C1001 C1009 1.433 . S
C1002 H998 0.929 . S
C1002 C1004 1.378 . S
C1002 C1006 1.350 . S
C1003 C1006 1.463 1_556 S
C1003 C1008 1.350 . S
C1003 N1011 1.427 . S
C1004 H995 0.930 . S
C1004 C1002 1.378 . S
C1004 C1005 1.367 . S
C1005 C1004 1.367 . S
C1005 C1007 1.433 . S
C1006 C1002 1.350 . S
C1006 C1003 1.463 1_554 S
C1006 N1010 1.427 . S
C1007 H997 0.929 . S
C1007 C1005 1.433 . S
C1007 N1010 1.384 . S
C1008 H999 0.931 . S
C1008 C1000 1.378 . S
C1008 C1003 1.350 . S
C1009 H996 0.929 . S
C1009 C1001 1.433 . S
C1009 N1011 1.384 . S
N1010 C1006 1.427 . S
N1010 C1007 1.384 . S
N1011 C1003 1.427 . S
N1011 C1009 1.384 . S
H1012 C1018 0.930 . S
H1013 C1022 0.930 . S
H1014 C1027 0.929 . S
H1015 C1025 0.929 . S
H1016 C1020 0.929 . S
H1017 C1026 0.929 . S
C1018 H1012 0.930 . S
C1018 C1019 1.367 . S
C1018 C1026 1.378 . S
C1019 C1018 1.367 . S
C1019 C1027 1.433 . S
C1020 H1016 0.929 . S
C1020 C1022 1.378 . S
C1020 C1024 1.350 . S
C1021 C1024 1.463 . S
C1021 C1026 1.350 . S
C1021 N1029 1.427 . S
C1022 H1013 0.930 . S
C1022 C1020 1.378 . S
C1022 C1023 1.367 . S
C1023 C1022 1.367 . S
C1023 C1025 1.433 . S
C1024 C1020 1.350 . S
C1024 C1021 1.463 . S
C1024 N1028 1.427 . S
C1025 H1015 0.929 . S
C1025 C1023 1.433 . S
C1025 N1028 1.384 . S
C1026 H1017 0.929 . S
C1026 C1018 1.378 . S
C1026 C1021 1.350 . S
C1027 H1014 0.929 . S
C1027 C1019 1.433 . S
C1027 N1029 1.384 . S
N1028 C1024 1.427 . S
N1028 C1025 1.384 . S
N1029 C1021 1.427 . S
N1029 C1027 1.384 . S
H1030 C1036 0.930 . S
H1031 C1040 0.930 . S
H1032 C1045 0.929 . S
H1033 C1043 0.929 . S
H1034 C1038 0.929 . S
H1035 C1044 0.929 . S
C1036 H1030 0.930 . S
C1036 C1037 1.367 . S
C1036 C1044 1.378 . S
C1037 C1036 1.367 . S
C1037 C1045 1.433 . S
C1038 H1034 0.929 . S
C1038 C1040 1.378 . S
C1038 C1042 1.350 . S
C1039 C1042 1.463 . S
C1039 C1044 1.350 . S
C1039 N1047 1.427 . S
C1040 H1031 0.930 . S
C1040 C1038 1.378 . S
C1040 C1041 1.367 . S
C1041 C1040 1.367 . S
C1041 C1043 1.433 . S
C1042 C1038 1.350 . S
C1042 C1039 1.463 . S
C1042 N1046 1.427 . S
C1043 H1033 0.929 . S
C1043 C1041 1.433 . S
C1043 N1046 1.384 . S
C1044 H1035 0.929 . S
C1044 C1036 1.378 . S
C1044 C1039 1.350 . S
C1045 H1032 0.929 . S
C1045 C1037 1.433 . S
C1045 N1047 1.384 . S
N1046 C1042 1.427 . S
N1046 C1043 1.384 . S
N1047 C1039 1.427 . S
N1047 C1045 1.384 . S
H1048 C1054 0.930 . S
H1049 C1058 0.930 . S
H1050 C1063 0.929 . S
H1051 C1061 0.929 . S
H1052 C1056 0.929 1_554 S
H1053 C1062 0.929 1_556 S
C1054 H1048 0.930 . S
C1054 C1055 1.367 . S
C1054 C1062 1.378 . S
C1055 C1054 1.367 . S
C1055 C1063 1.433 . S
C1056 H1052 0.929 1_556 S
C1056 C1058 1.378 . S
C1056 C1060 1.350 . S
C1057 C1060 1.463 1_554 S
C1057 C1062 1.350 . S
C1057 N1065 1.427 . S
C1058 H1049 0.930 . S
C1058 C1056 1.378 . S
C1058 C1059 1.367 . S
C1059 C1058 1.367 . S
C1059 C1061 1.433 . S
C1060 C1056 1.350 . S
C1060 C1057 1.463 1_556 S
C1060 N1064 1.427 . S
C1061 H1051 0.929 . S
C1061 C1059 1.433 . S
C1061 N1064 1.384 . S
C1062 H1053 0.929 1_554 S
C1062 C1054 1.378 . S
C1062 C1057 1.350 . S
C1063 H1050 0.929 . S
C1063 C1055 1.433 . S
C1063 N1065 1.384 . S
N1064 C1060 1.427 . S
N1064 C1061 1.384 . S
N1065 C1057 1.427 . S
N1065 C1063 1.384 . S
H1066 C1072 0.930 . S
H1067 C1076 0.930 . S
H1068 C1081 0.929 . S
H1069 C1079 0.929 . S
H1070 C1074 0.927 1_556 S
H1071 C1080 0.929 . S
C1072 H1066 0.930 . S
C1072 C1073 1.367 . S
C1072 C1080 1.378 . S
C1073 C1072 1.367 . S
C1073 C1081 1.433 . S
C1074 H1070 0.927 1_554 S
C1074 C1076 1.378 . S
C1074 C1078 1.350 . S
C1075 C1078 1.463 1_556 S
C1075 C1080 1.350 . S
C1075 N1083 1.427 . S
C1076 H1067 0.930 . S
C1076 C1074 1.378 . S
C1076 C1077 1.367 . S
C1077 C1076 1.367 . S
C1077 C1079 1.433 . S
C1078 C1074 1.350 . S
C1078 C1075 1.463 1_554 S
C1078 N1082 1.427 . S
C1079 H1069 0.929 . S
C1079 C1077 1.433 . S
C1079 N1082 1.384 . S
C1080 H1071 0.929 . S
C1080 C1072 1.378 . S
C1080 C1075 1.350 . S
C1081 H1068 0.929 . S
C1081 C1073 1.433 . S
C1081 N1083 1.384 . S
N1082 C1078 1.427 . S
N1082 C1079 1.384 . S
N1083 C1075 1.427 . S
N1083 C1081 1.384 . S
H1084 C1090 0.930 . S
H1085 C1094 0.930 . S
H1086 C1099 0.929 . S
H1087 C1097 0.929 . S
H1088 C1092 0.929 . S
H1089 C1098 0.929 . S
C1090 H1084 0.930 . S
C1090 C1091 1.367 . S
C1090 C1098 1.378 . S
C1091 C1090 1.367 . S
C1091 C1099 1.433 . S
C1092 H1088 0.929 . S
C1092 C1094 1.378 . S
C1092 C1096 1.350 . S
C1093 C1096 1.463 . S
C1093 C1098 1.350 . S
C1093 N1101 1.427 . S
C1094 H1085 0.930 . S
C1094 C1092 1.378 . S
C1094 C1095 1.367 . S
C1095 C1094 1.367 . S
C1095 C1097 1.433 . S
C1096 C1092 1.350 . S
C1096 C1093 1.463 . S
C1096 N1100 1.427 . S
C1097 H1087 0.929 . S
C1097 C1095 1.433 . S
C1097 N1100 1.384 . S
C1098 H1089 0.929 . S
C1098 C1090 1.378 . S
C1098 C1093 1.350 . S
C1099 H1086 0.929 . S
C1099 C1091 1.433 . S
C1099 N1101 1.384 . S
N1100 C1096 1.427 . S
N1100 C1097 1.384 . S
N1101 C1093 1.427 . S
N1101 C1099 1.384 . S
H1102 C1108 0.930 . S
H1103 C1112 0.930 . S
H1104 C1117 0.929 . S
H1105 C1115 0.929 . S
H1106 C1110 0.929 . S
H1107 C1116 0.929 . S
C1108 H1102 0.930 . S
C1108 C1109 1.367 . S
C1108 C1116 1.378 . S
C1109 C1108 1.367 . S
C1109 C1117 1.433 . S
C1110 H1106 0.929 . S
C1110 C1112 1.378 . S
C1110 C1114 1.350 . S
C1111 C1114 1.463 . S
C1111 C1116 1.350 . S
C1111 N1119 1.427 . S
C1112 H1103 0.930 . S
C1112 C1110 1.378 . S
C1112 C1113 1.367 . S
C1113 C1112 1.367 . S
C1113 C1115 1.433 . S
C1114 C1110 1.350 . S
C1114 C1111 1.463 . S
C1114 N1118 1.427 . S
C1115 H1105 0.929 . S
C1115 C1113 1.433 . S
C1115 N1118 1.384 . S
C1116 H1107 0.929 . S
C1116 C1108 1.378 . S
C1116 C1111 1.350 . S
C1117 H1104 0.929 . S
C1117 C1109 1.433 . S
C1117 N1119 1.384 . S
N1118 C1114 1.427 . S
N1118 C1115 1.384 . S
N1119 C1111 1.427 . S
N1119 C1117 1.384 . S
H1120 C1126 0.930 . S
H1121 C1130 0.930 . S
H1122 C1135 0.929 . S
H1123 C1133 0.929 . S
H1124 C1128 0.929 . S
H1125 C1134 0.929 . S
C1126 H1120 0.930 . S
C1126 C1127 1.367 . S
C1126 C1134 1.378 . S
C1127 C1126 1.367 . S
C1127 C1135 1.433 . S
C1128 H1124 0.929 . S
C1128 C1130 1.378 . S
C1128 C1132 1.350 . S
C1129 C1132 1.463 1_545 S
C1129 C1134 1.350 . S
C1129 N1137 1.427 . S
C1130 H1121 0.930 . S
C1130 C1128 1.378 . S
C1130 C1131 1.367 . S
C1131 C1130 1.367 . S
C1131 C1133 1.433 . S
C1132 C1128 1.350 . S
C1132 C1129 1.463 1_565 S
C1132 N1136 1.427 . S
C1133 H1123 0.929 . S
C1133 C1131 1.433 . S
C1133 N1136 1.384 . S
C1134 H1125 0.929 . S
C1134 C1126 1.378 . S
C1134 C1129 1.350 . S
C1135 H1122 0.929 . S
C1135 C1127 1.433 . S
C1135 N1137 1.384 . S
N1136 C1132 1.427 . S
N1136 C1133 1.384 . S
N1137 C1129 1.427 . S
N1137 C1135 1.384 . S
H1138 C1144 0.930 . S
H1139 C1148 0.930 . S
H1140 C1153 0.929 . S
H1141 C1151 0.929 . S
H1142 C1146 0.929 . S
H1143 C1152 0.929 . S
C1144 H1138 0.930 . S
C1144 C1145 1.367 . S
C1144 C1152 1.378 . S
C1145 C1144 1.367 . S
C1145 C1153 1.433 . S
C1146 H1142 0.929 . S
C1146 C1148 1.378 . S
C1146 C1150 1.350 . S
C1147 C1150 1.463 1_545 S
C1147 C1152 1.350 . S
C1147 N1155 1.427 . S
C1148 H1139 0.930 . S
C1148 C1146 1.378 . S
C1148 C1149 1.367 . S
C1149 C1148 1.367 . S
C1149 C1151 1.433 . S
C1150 C1146 1.350 . S
C1150 C1147 1.463 1_565 S
C1150 N1154 1.427 . S
C1151 H1141 0.929 . S
C1151 C1149 1.433 . S
C1151 N1154 1.384 . S
C1152 H1143 0.929 . S
C1152 C1144 1.378 . S
C1152 C1147 1.350 . S
C1153 H1140 0.929 . S
C1153 C1145 1.433 . S
C1153 N1155 1.384 . S
N1154 C1150 1.427 . S
N1154 C1151 1.384 . S
N1155 C1147 1.427 . S
N1155 C1153 1.384 . S
H1156 C1162 0.930 . S
H1157 C1166 0.930 . S
H1158 C1171 0.929 . S
H1159 C1169 0.929 . S
H1160 C1164 0.929 . S
H1161 C1170 0.929 . S
C1162 H1156 0.930 . S
C1162 C1163 1.367 . S
C1162 C1170 1.378 . S
C1163 C1162 1.367 . S
C1163 C1171 1.433 . S
C1164 H1160 0.929 . S
C1164 C1166 1.378 . S
C1164 C1168 1.350 . S
C1165 C1168 1.463 1_565 S
C1165 C1170 1.350 . S
C1165 N1173 1.427 . S
C1166 H1157 0.930 . S
C1166 C1164 1.378 . S
C1166 C1167 1.367 . S
C1167 C1166 1.367 . S
C1167 C1169 1.433 . S
C1168 C1164 1.350 . S
C1168 C1165 1.463 1_545 S
C1168 N1172 1.427 . S
C1169 H1159 0.929 . S
C1169 C1167 1.433 . S
C1169 N1172 1.384 . S
C1170 H1161 0.929 . S
C1170 C1162 1.378 . S
C1170 C1165 1.350 . S
C1171 H1158 0.929 . S
C1171 C1163 1.433 . S
C1171 N1173 1.384 . S
N1172 C1168 1.427 . S
N1172 C1169 1.384 . S
N1173 C1165 1.427 . S
N1173 C1171 1.384 . S
H1174 C1180 0.930 . S
H1175 C1184 0.930 . S
H1176 C1189 0.929 . S
H1177 C1187 0.929 . S
H1178 C1182 0.929 . S
H1179 C1188 0.929 . S
C1180 H1174 0.930 . S
C1180 C1181 1.367 . S
C1180 C1188 1.378 . S
C1181 C1180 1.367 . S
C1181 C1189 1.433 . S
C1182 H1178 0.929 . S
C1182 C1184 1.378 . S
C1182 C1186 1.350 . S
C1183 C1186 1.463 1_565 S
C1183 C1188 1.350 . S
C1183 N1191 1.427 . S
C1184 H1175 0.930 . S
C1184 C1182 1.378 . S
C1184 C1185 1.367 . S
C1185 C1184 1.367 . S
C1185 C1187 1.433 . S
C1186 C1182 1.350 . S
C1186 C1183 1.463 1_545 S
C1186 N1190 1.427 . S
C1187 H1177 0.929 . S
C1187 C1185 1.433 . S
C1187 N1190 1.384 . S
C1188 H1179 0.929 . S
C1188 C1180 1.378 . S
C1188 C1183 1.350 . S
C1189 H1176 0.929 . S
C1189 C1181 1.433 . S
C1189 N1191 1.384 . S
N1190 C1186 1.427 . S
N1190 C1187 1.384 . S
N1191 C1183 1.427 . S
N1191 C1189 1.384 . S
H1192 C1198 0.930 . S
H1193 C1202 0.930 . S
H1194 C1207 0.929 . S
H1195 C1205 0.929 . S
H1196 C1200 0.929 . S
H1197 C1206 0.929 . S
C1198 H1192 0.930 . S
C1198 C1199 1.367 . S
C1198 C1206 1.378 . S
C1199 C1198 1.367 . S
C1199 C1207 1.433 . S
C1200 H1196 0.929 . S
C1200 C1202 1.378 . S
C1200 C1204 1.350 . S
C1201 C1204 1.463 . S
C1201 C1206 1.350 . S
C1201 N1209 1.427 . S
C1202 H1193 0.930 . S
C1202 C1200 1.378 . S
C1202 C1203 1.367 . S
C1203 C1202 1.367 . S
C1203 C1205 1.433 . S
C1204 C1200 1.350 . S
C1204 C1201 1.463 . S
C1204 N1208 1.427 . S
C1205 H1195 0.929 . S
C1205 C1203 1.433 . S
C1205 N1208 1.384 . S
C1206 H1197 0.929 . S
C1206 C1198 1.378 . S
C1206 C1201 1.350 . S
C1207 H1194 0.929 . S
C1207 C1199 1.433 . S
C1207 N1209 1.384 . S
N1208 C1204 1.427 . S
N1208 C1205 1.384 . S
N1209 C1201 1.427 . S
N1209 C1207 1.384 . S
H1210 C1216 0.930 . S
H1211 C1220 0.930 . S
H1212 C1225 0.929 . S
H1213 C1223 0.929 . S
H1214 C1218 0.929 . S
H1215 C1224 0.929 . S
C1216 H1210 0.930 . S
C1216 C1217 1.367 . S
C1216 C1224 1.378 . S
C1217 C1216 1.367 . S
C1217 C1225 1.433 . S
C1218 H1214 0.929 . S
C1218 C1220 1.378 . S
C1218 C1222 1.350 . S
C1219 C1222 1.463 . S
C1219 C1224 1.350 . S
C1219 N1227 1.427 . S
C1220 H1211 0.930 . S
C1220 C1218 1.378 . S
C1220 C1221 1.367 . S
C1221 C1220 1.367 . S
C1221 C1223 1.433 . S
C1222 C1218 1.350 . S
C1222 C1219 1.463 . S
C1222 N1226 1.427 . S
C1223 H1213 0.929 . S
C1223 C1221 1.433 . S
C1223 N1226 1.384 . S
C1224 H1215 0.929 . S
C1224 C1216 1.378 . S
C1224 C1219 1.350 . S
C1225 H1212 0.929 . S
C1225 C1217 1.433 . S
C1225 N1227 1.384 . S
N1226 C1222 1.427 . S
N1226 C1223 1.384 . S
N1227 C1219 1.427 . S
N1227 C1225 1.384 . S
H1228 C1234 0.930 . S
H1229 C1238 0.930 . S
H1230 C1243 0.929 . S
H1231 C1241 0.929 . S
H1232 C1236 0.929 . S
H1233 C1242 0.929 . S
C1234 H1228 0.930 . S
C1234 C1235 1.367 . S
C1234 C1242 1.378 . S
C1235 C1234 1.367 . S
C1235 C1243 1.433 . S
C1236 H1232 0.929 . S
C1236 C1238 1.378 . S
C1236 C1240 1.350 . S
C1237 C1240 1.463 . S
C1237 C1242 1.350 . S
C1237 N1245 1.427 . S
C1238 H1229 0.930 . S
C1238 C1236 1.378 . S
C1238 C1239 1.367 . S
C1239 C1238 1.367 . S
C1239 C1241 1.433 . S
C1240 C1236 1.350 . S
C1240 C1237 1.463 . S
C1240 N1244 1.427 . S
C1241 H1231 0.929 . S
C1241 C1239 1.433 . S
C1241 N1244 1.384 . S
C1242 H1233 0.929 . S
C1242 C1234 1.378 . S
C1242 C1237 1.350 . S
C1243 H1230 0.929 . S
C1243 C1235 1.433 . S
C1243 N1245 1.384 . S
N1244 C1240 1.427 . S
N1244 C1241 1.384 . S
N1245 C1237 1.427 . S
N1245 C1243 1.384 . S
H1246 C1252 0.930 . S
H1247 C1256 0.930 . S
H1248 C1261 0.929 . S
H1249 C1259 0.929 . S
H1250 C1254 0.929 . S
H1251 C1260 0.929 . S
C1252 H1246 0.930 . S
C1252 C1253 1.367 . S
C1252 C1260 1.378 . S
C1253 C1252 1.367 . S
C1253 C1261 1.433 . S
C1254 H1250 0.929 . S
C1254 C1256 1.378 . S
C1254 C1258 1.350 . S
C1255 C1258 1.463 . S
C1255 C1260 1.350 . S
C1255 N1263 1.427 . S
C1256 H1247 0.930 . S
C1256 C1254 1.378 . S
C1256 C1257 1.367 . S
C1257 C1256 1.367 . S
C1257 C1259 1.433 . S
C1258 C1254 1.350 . S
C1258 C1255 1.463 . S
C1258 N1262 1.427 . S
C1259 H1249 0.929 . S
C1259 C1257 1.433 . S
C1259 N1262 1.384 . S
C1260 H1251 0.929 . S
C1260 C1252 1.378 . S
C1260 C1255 1.350 . S
C1261 H1248 0.929 . S
C1261 C1253 1.433 . S
C1261 N1263 1.384 . S
N1262 C1258 1.427 . S
N1262 C1259 1.384 . S
N1263 C1255 1.427 . S
N1263 C1261 1.384 . S
H1264 C1270 0.930 . S
H1265 C1274 0.930 . S
H1266 C1279 0.929 . S
H1267 C1277 0.929 . S
H1268 C1272 0.929 . S
H1269 C1278 0.929 . S
C1270 H1264 0.930 . S
C1270 C1271 1.367 1_455 S
C1270 C1278 1.378 . S
C1271 C1270 1.367 1_655 S
C1271 C1279 1.433 . S
C1272 H1268 0.929 . S
C1272 C1274 1.378 . S
C1272 C1276 1.350 1_655 S
C1273 C1276 1.463 1_655 S
C1273 C1278 1.350 1_655 S
C1273 N1281 1.427 . S
C1274 H1265 0.930 . S
C1274 C1272 1.378 . S
C1274 C1275 1.367 1_655 S
C1275 C1274 1.367 1_455 S
C1275 C1277 1.433 . S
C1276 C1272 1.350 1_455 S
C1276 C1273 1.463 1_455 S
C1276 N1280 1.427 . S
C1277 H1267 0.929 . S
C1277 C1275 1.433 . S
C1277 N1280 1.384 . S
C1278 H1269 0.929 . S
C1278 C1270 1.378 . S
C1278 C1273 1.350 1_455 S
C1279 H1266 0.929 . S
C1279 C1271 1.433 . S
C1279 N1281 1.384 . S
N1280 C1276 1.427 . S
N1280 C1277 1.384 . S
N1281 C1273 1.427 . S
N1281 C1279 1.384 . S
H1282 C1288 0.930 . S
H1283 C1292 0.930 . S
H1284 C1297 0.929 . S
H1285 C1295 0.929 . S
H1286 C1290 0.929 . S
H1287 C1296 0.929 . S
C1288 H1282 0.930 . S
C1288 C1289 1.367 . S
C1288 C1296 1.378 . S
C1289 C1288 1.367 . S
C1289 C1297 1.433 . S
C1290 H1286 0.929 . S
C1290 C1292 1.378 . S
C1290 C1294 1.350 . S
C1291 C1294 1.463 . S
C1291 C1296 1.350 . S
C1291 N1299 1.427 . S
C1292 H1283 0.930 . S
C1292 C1290 1.378 . S
C1292 C1293 1.367 . S
C1293 C1292 1.367 . S
C1293 C1295 1.433 . S
C1294 C1290 1.350 . S
C1294 C1291 1.463 . S
C1294 N1298 1.427 . S
C1295 H1285 0.929 . S
C1295 C1293 1.433 . S
C1295 N1298 1.384 . S
C1296 H1287 0.929 . S
C1296 C1288 1.378 . S
C1296 C1291 1.350 . S
C1297 H1284 0.929 . S
C1297 C1289 1.433 . S
C1297 N1299 1.384 . S
N1298 C1294 1.427 . S
N1298 C1295 1.384 . S
N1299 C1291 1.427 . S
N1299 C1297 1.384 . S
H1300 C1306 0.930 . S
H1301 C1310 0.930 . S
H1302 C1315 0.929 . S
H1303 C1313 0.929 . S
H1304 C1308 0.929 . S
H1305 C1314 0.929 . S
C1306 H1300 0.930 . S
C1306 C1307 1.367 . S
C1306 C1314 1.378 . S
C1307 C1306 1.367 . S
C1307 C1315 1.433 . S
C1308 H1304 0.929 . S
C1308 C1310 1.378 . S
C1308 C1312 1.350 . S
C1309 C1312 1.463 . S
C1309 C1314 1.350 . S
C1309 N1317 1.427 . S
C1310 H1301 0.930 . S
C1310 C1308 1.378 . S
C1310 C1311 1.367 . S
C1311 C1310 1.367 . S
C1311 C1313 1.433 . S
C1312 C1308 1.350 . S
C1312 C1309 1.463 . S
C1312 N1316 1.427 . S
C1313 H1303 0.929 . S
C1313 C1311 1.433 . S
C1313 N1316 1.384 . S
C1314 H1305 0.929 . S
C1314 C1306 1.378 . S
C1314 C1309 1.350 . S
C1315 H1302 0.929 . S
C1315 C1307 1.433 . S
C1315 N1317 1.384 . S
N1316 C1312 1.427 . S
N1316 C1313 1.384 . S
N1317 C1309 1.427 . S
N1317 C1315 1.384 . S
H1318 C1324 0.930 . S
H1319 C1328 0.930 . S
H1320 C1333 0.929 . S
H1321 C1331 0.929 . S
H1322 C1326 0.929 . S
H1323 C1332 0.929 . S
C1324 H1318 0.930 . S
C1324 C1325 1.367 . S
C1324 C1332 1.378 . S
C1325 C1324 1.367 . S
C1325 C1333 1.433 1_655 S
C1326 H1322 0.929 . S
C1326 C1328 1.378 . S
C1326 C1330 1.350 . S
C1327 C1330 1.463 1_655 S
C1327 C1332 1.350 . S
C1327 N1335 1.427 1_655 S
C1328 H1319 0.930 . S
C1328 C1326 1.378 . S
C1328 C1329 1.367 . S
C1329 C1328 1.367 . S
C1329 C1331 1.433 1_455 S
C1330 C1326 1.350 . S
C1330 C1327 1.463 1_455 S
C1330 N1334 1.427 1_455 S
C1331 H1321 0.929 . S
C1331 C1329 1.433 1_655 S
C1331 N1334 1.384 . S
C1332 H1323 0.929 . S
C1332 C1324 1.378 . S
C1332 C1327 1.350 . S
C1333 H1320 0.929 . S
C1333 C1325 1.433 1_455 S
C1333 N1335 1.384 . S
N1334 C1330 1.427 1_655 S
N1334 C1331 1.384 . S
N1335 C1327 1.427 1_455 S
N1335 C1333 1.384 . S
H1336 C1342 0.930 . S
H1337 C1346 0.930 . S
H1338 C1351 0.929 . S
H1339 C1349 0.929 . S
H1340 C1344 0.931 . S
H1341 C1350 0.931 . S
C1342 H1336 0.930 . S
C1342 C1343 1.367 . S
C1342 C1350 1.377 1_455 S
C1343 C1342 1.367 . S
C1343 C1351 1.433 . S
C1344 H1340 0.931 . S
C1344 C1346 1.377 1_455 S
C1344 C1348 1.349 1_455 S
C1345 C1348 1.463 1_455 S
C1345 C1350 1.349 1_455 S
C1345 N1353 1.427 . S
C1346 H1337 0.930 . S
C1346 C1344 1.377 1_655 S
C1346 C1347 1.367 . S
C1347 C1346 1.367 . S
C1347 C1349 1.433 . S
C1348 C1344 1.349 1_655 S
C1348 C1345 1.463 1_655 S
C1348 N1352 1.427 . S
C1349 H1339 0.929 . S
C1349 C1347 1.433 . S
C1349 N1352 1.384 . S
C1350 H1341 0.931 . S
C1350 C1342 1.377 1_655 S
C1350 C1345 1.349 1_655 S
C1351 H1338 0.929 . S
C1351 C1343 1.433 . S
C1351 N1353 1.384 . S
N1352 C1348 1.427 . S
N1352 C1349 1.384 . S
N1353 C1345 1.427 . S
N1353 C1351 1.384 . S
H1354 C1360 0.930 . S
H1355 C1364 0.930 . S
H1356 C1369 0.929 . S
H1357 C1367 0.929 . S
H1358 C1362 0.929 . S
H1359 C1368 0.929 . S
C1360 H1354 0.930 . S
C1360 C1361 1.367 . S
C1360 C1368 1.378 . S
C1361 C1360 1.367 . S
C1361 C1369 1.433 . S
C1362 H1358 0.929 . S
C1362 C1364 1.378 . S
C1362 C1366 1.350 . S
C1363 C1366 1.463 . S
C1363 C1368 1.350 . S
C1363 N1371 1.427 . S
C1364 H1355 0.930 . S
C1364 C1362 1.378 . S
C1364 C1365 1.367 . S
C1365 C1364 1.367 . S
C1365 C1367 1.433 . S
C1366 C1362 1.350 . S
C1366 C1363 1.463 . S
C1366 N1370 1.427 . S
C1367 H1357 0.929 . S
C1367 C1365 1.433 . S
C1367 N1370 1.384 . S
C1368 H1359 0.929 . S
C1368 C1360 1.378 . S
C1368 C1363 1.350 . S
C1369 H1356 0.929 . S
C1369 C1361 1.433 . S
C1369 N1371 1.384 . S
N1370 C1366 1.427 . S
N1370 C1367 1.384 . S
N1371 C1363 1.427 . S
N1371 C1369 1.384 . S
H1372 C1378 0.930 . S
H1373 C1382 0.930 . S
H1374 C1387 0.929 . S
H1375 C1385 0.929 . S
H1376 C1380 0.929 . S
H1377 C1386 0.929 . S
C1378 H1372 0.930 . S
C1378 C1379 1.367 . S
C1378 C1386 1.378 . S
C1379 C1378 1.367 . S
C1379 C1387 1.433 . S
C1380 H1376 0.929 . S
C1380 C1382 1.378 . S
C1380 C1384 1.350 . S
C1381 C1384 1.463 . S
C1381 C1386 1.350 . S
C1381 N1389 1.427 . S
C1382 H1373 0.930 . S
C1382 C1380 1.378 . S
C1382 C1383 1.367 . S
C1383 C1382 1.367 . S
C1383 C1385 1.433 . S
C1384 C1380 1.350 . S
C1384 C1381 1.463 . S
C1384 N1388 1.427 . S
C1385 H1375 0.929 . S
C1385 C1383 1.433 . S
C1385 N1388 1.384 . S
C1386 H1377 0.929 . S
C1386 C1378 1.378 . S
C1386 C1381 1.350 . S
C1387 H1374 0.929 . S
C1387 C1379 1.433 . S
C1387 N1389 1.384 . S
N1388 C1384 1.427 . S
N1388 C1385 1.384 . S
N1389 C1381 1.427 . S
N1389 C1387 1.384 . S
H1390 C1396 0.930 . S
H1391 C1400 0.930 . S
H1392 C1405 0.929 . S
H1393 C1403 0.929 . S
H1394 C1398 0.929 . S
H1395 C1404 0.929 . S
C1396 H1390 0.930 . S
C1396 C1397 1.367 . S
C1396 C1404 1.378 . S
C1397 C1396 1.367 . S
C1397 C1405 1.433 . S
C1398 H1394 0.929 . S
C1398 C1400 1.378 . S
C1398 C1402 1.350 . S
C1399 C1402 1.463 1_455 S
C1399 C1404 1.350 . S
C1399 N1407 1.427 . S
C1400 H1391 0.930 . S
C1400 C1398 1.378 . S
C1400 C1401 1.367 . S
C1401 C1400 1.367 . S
C1401 C1403 1.433 . S
C1402 C1398 1.350 . S
C1402 C1399 1.463 1_655 S
C1402 N1406 1.427 . S
C1403 H1393 0.929 . S
C1403 C1401 1.433 . S
C1403 N1406 1.384 . S
C1404 H1395 0.929 . S
C1404 C1396 1.378 . S
C1404 C1399 1.350 . S
C1405 H1392 0.929 . S
C1405 C1397 1.433 . S
C1405 N1407 1.384 . S
N1406 C1402 1.427 . S
N1406 C1403 1.384 . S
N1407 C1399 1.427 . S
N1407 C1405 1.384 . S
H1408 C1414 0.930 . S
H1409 C1418 0.930 . S
H1410 C1423 0.928 1_455 S
H1411 C1421 0.928 1_655 S
H1412 C1416 0.929 . S
H1413 C1422 0.929 . S
C1414 H1408 0.930 . S
C1414 C1415 1.367 . S
C1414 C1422 1.378 . S
C1415 C1414 1.367 . S
C1415 C1423 1.433 . S
C1416 H1412 0.929 . S
C1416 C1418 1.378 . S
C1416 C1420 1.350 . S
C1417 C1420 1.463 1_655 S
C1417 C1422 1.350 . S
C1417 N1425 1.427 1_655 S
C1418 H1409 0.930 . S
C1418 C1416 1.378 . S
C1418 C1419 1.367 . S
C1419 C1418 1.367 . S
C1419 C1421 1.433 . S
C1420 C1416 1.350 . S
C1420 C1417 1.463 1_455 S
C1420 N1424 1.427 1_455 S
C1421 H1411 0.928 1_455 S
C1421 C1419 1.433 . S
C1421 N1424 1.384 1_455 S
C1422 H1413 0.929 . S
C1422 C1414 1.378 . S
C1422 C1417 1.350 . S
C1423 H1410 0.928 1_655 S
C1423 C1415 1.433 . S
C1423 N1425 1.384 1_655 S
N1424 C1420 1.427 1_655 S
N1424 C1421 1.384 1_655 S
N1425 C1417 1.427 1_455 S
N1425 C1423 1.384 1_455 S
H1426 C1432 0.930 . S
H1427 C1436 0.930 . S
H1428 C1441 0.929 . S
H1429 C1439 0.929 . S
H1430 C1434 0.929 . S
H1431 C1440 0.929 . S
C1432 H1426 0.930 . S
C1432 C1433 1.367 . S
C1432 C1440 1.378 . S
C1433 C1432 1.367 . S
C1433 C1441 1.433 . S
C1434 H1430 0.929 . S
C1434 C1436 1.378 . S
C1434 C1438 1.350 . S
C1435 C1438 1.463 . S
C1435 C1440 1.350 . S
C1435 N1443 1.427 . S
C1436 H1427 0.930 . S
C1436 C1434 1.378 . S
C1436 C1437 1.367 . S
C1437 C1436 1.367 . S
C1437 C1439 1.433 . S
C1438 C1434 1.350 . S
C1438 C1435 1.463 . S
C1438 N1442 1.427 . S
C1439 H1429 0.929 . S
C1439 C1437 1.433 . S
C1439 N1442 1.384 . S
C1440 H1431 0.929 . S
C1440 C1432 1.378 . S
C1440 C1435 1.350 . S
C1441 H1428 0.929 . S
C1441 C1433 1.433 . S
C1441 N1443 1.384 . S
N1442 C1438 1.427 . S
N1442 C1439 1.384 . S
N1443 C1435 1.427 . S
N1443 C1441 1.384 . S
H1444 C1450 0.930 . S
H1445 C1454 0.930 . S
H1446 C1459 0.929 . S
H1447 C1457 0.929 . S
H1448 C1452 0.929 . S
H1449 C1458 0.929 . S
C1450 H1444 0.930 . S
C1450 C1451 1.367 1_655 S
C1450 C1458 1.378 . S
C1451 C1450 1.367 1_455 S
C1451 C1459 1.433 . S
C1452 H1448 0.929 . S
C1452 C1454 1.378 . S
C1452 C1456 1.350 1_455 S
C1453 C1456 1.463 1_455 S
C1453 C1458 1.350 1_455 S
C1453 N1461 1.427 . S
C1454 H1445 0.930 . S
C1454 C1452 1.378 . S
C1454 C1455 1.367 1_455 S
C1455 C1454 1.367 1_655 S
C1455 C1457 1.433 . S
C1456 C1452 1.350 1_655 S
C1456 C1453 1.463 1_655 S
C1456 N1460 1.427 . S
C1457 H1447 0.929 . S
C1457 C1455 1.433 . S
C1457 N1460 1.384 . S
C1458 H1449 0.929 . S
C1458 C1450 1.378 . S
C1458 C1453 1.350 1_655 S
C1459 H1446 0.929 . S
C1459 C1451 1.433 . S
C1459 N1461 1.384 . S
N1460 C1456 1.427 . S
N1460 C1457 1.384 . S
N1461 C1453 1.427 . S
N1461 C1459 1.384 . S
H1462 C1468 0.930 . S
H1463 C1472 0.930 . S
H1464 C1477 0.929 . S
H1465 C1475 0.929 . S
H1466 C1470 0.929 . S
H1467 C1476 0.929 . S
C1468 H1462 0.930 . S
C1468 C1469 1.367 . S
C1468 C1476 1.378 . S
C1469 C1468 1.367 . S
C1469 C1477 1.433 . S
C1470 H1466 0.929 . S
C1470 C1472 1.378 . S
C1470 C1474 1.350 . S
C1471 C1474 1.463 . S
C1471 C1476 1.350 . S
C1471 N1479 1.427 . S
C1472 H1463 0.930 . S
C1472 C1470 1.378 . S
C1472 C1473 1.367 . S
C1473 C1472 1.367 . S
C1473 C1475 1.433 . S
C1474 C1470 1.350 . S
C1474 C1471 1.463 . S
C1474 N1478 1.427 . S
C1475 H1465 0.929 . S
C1475 C1473 1.433 . S
C1475 N1478 1.384 . S
C1476 H1467 0.929 . S
C1476 C1468 1.378 . S
C1476 C1471 1.350 . S
C1477 H1464 0.929 . S
C1477 C1469 1.433 . S
C1477 N1479 1.384 . S
N1478 C1474 1.427 . S
N1478 C1475 1.384 . S
N1479 C1471 1.427 . S
N1479 C1477 1.384 . S
H1480 C1486 0.930 . S
H1481 C1490 0.930 . S
H1482 C1495 0.929 . S
H1483 C1493 0.929 . S
H1484 C1488 0.929 . S
H1485 C1494 0.929 . S
C1486 H1480 0.930 . S
C1486 C1487 1.367 . S
C1486 C1494 1.378 . S
C1487 C1486 1.367 . S
C1487 C1495 1.433 . S
C1488 H1484 0.929 . S
C1488 C1490 1.378 . S
C1488 C1492 1.350 . S
C1489 C1492 1.463 . S
C1489 C1494 1.350 . S
C1489 N1497 1.427 . S
C1490 H1481 0.930 . S
C1490 C1488 1.378 . S
C1490 C1491 1.367 . S
C1491 C1490 1.367 . S
C1491 C1493 1.433 . S
C1492 C1488 1.350 . S
C1492 C1489 1.463 . S
C1492 N1496 1.427 . S
C1493 H1483 0.929 . S
C1493 C1491 1.433 . S
C1493 N1496 1.384 . S
C1494 H1485 0.929 . S
C1494 C1486 1.378 . S
C1494 C1489 1.350 . S
C1495 H1482 0.929 . S
C1495 C1487 1.433 . S
C1495 N1497 1.384 . S
N1496 C1492 1.427 . S
N1496 C1493 1.384 . S
N1497 C1489 1.427 . S
N1497 C1495 1.384 . S
H1498 C1504 0.930 . S
H1499 C1508 0.930 . S
H1500 C1513 0.929 . S
H1501 C1511 0.929 . S
H1502 C1506 0.929 . S
H1503 C1512 0.929 . S
C1504 H1498 0.930 . S
C1504 C1505 1.367 . S
C1504 C1512 1.378 . S
C1505 C1504 1.367 . S
C1505 C1513 1.433 1_655 S
C1506 H1502 0.929 . S
C1506 C1508 1.378 . S
C1506 C1510 1.350 . S
C1507 C1510 1.463 1_655 S
C1507 C1512 1.350 . S
C1507 N1515 1.427 1_655 S
C1508 H1499 0.930 . S
C1508 C1506 1.378 . S
C1508 C1509 1.367 . S
C1509 C1508 1.367 . S
C1509 C1511 1.433 1_455 S
C1510 C1506 1.350 . S
C1510 C1507 1.463 1_455 S
C1510 N1514 1.427 1_455 S
C1511 H1501 0.929 . S
C1511 C1509 1.433 1_655 S
C1511 N1514 1.384 . S
C1512 H1503 0.929 . S
C1512 C1504 1.378 . S
C1512 C1507 1.350 . S
C1513 H1500 0.929 . S
C1513 C1505 1.433 1_455 S
C1513 N1515 1.384 . S
N1514 C1510 1.427 1_655 S
N1514 C1511 1.384 . S
N1515 C1507 1.427 1_455 S
N1515 C1513 1.384 . S
H1516 C1522 0.930 . S
H1517 C1526 0.930 . S
H1518 C1531 0.929 . S
H1519 C1529 0.929 . S
H1520 C1524 0.929 . S
H1521 C1530 0.929 . S
C1522 H1516 0.930 . S
C1522 C1523 1.367 . S
C1522 C1530 1.378 . S
C1523 C1522 1.367 . S
C1523 C1531 1.433 . S
C1524 H1520 0.929 . S
C1524 C1526 1.378 . S
C1524 C1528 1.350 . S
C1525 C1528 1.463 . S
C1525 C1530 1.350 . S
C1525 N1533 1.427 . S
C1526 H1517 0.930 . S
C1526 C1524 1.378 . S
C1526 C1527 1.367 . S
C1527 C1526 1.367 . S
C1527 C1529 1.433 . S
C1528 C1524 1.350 . S
C1528 C1525 1.463 . S
C1528 N1532 1.427 . S
C1529 H1519 0.929 . S
C1529 C1527 1.433 . S
C1529 N1532 1.384 . S
C1530 H1521 0.929 . S
C1530 C1522 1.378 . S
C1530 C1525 1.350 . S
C1531 H1518 0.929 . S
C1531 C1523 1.433 . S
C1531 N1533 1.384 . S
N1532 C1528 1.427 . S
N1532 C1529 1.384 . S
N1533 C1525 1.427 . S
N1533 C1531 1.384 . S
H1534 C1540 0.930 . S
H1535 C1544 0.930 . S
H1536 C1549 0.929 . S
H1537 C1547 0.929 . S
H1538 C1542 0.929 . S
H1539 C1548 0.929 . S
C1540 H1534 0.930 . S
C1540 C1541 1.367 . S
C1540 C1548 1.378 1_655 S
C1541 C1540 1.367 . S
C1541 C1549 1.433 . S
C1542 H1538 0.929 . S
C1542 C1544 1.378 1_655 S
C1542 C1546 1.350 1_655 S
C1543 C1546 1.463 1_655 S
C1543 C1548 1.350 1_655 S
C1543 N1551 1.427 . S
C1544 H1535 0.930 . S
C1544 C1542 1.378 1_455 S
C1544 C1545 1.367 . S
C1545 C1544 1.367 . S
C1545 C1547 1.433 . S
C1546 C1542 1.350 1_455 S
C1546 C1543 1.463 1_455 S
C1546 N1550 1.427 . S
C1547 H1537 0.929 . S
C1547 C1545 1.433 . S
C1547 N1550 1.384 . S
C1548 H1539 0.929 . S
C1548 C1540 1.378 1_455 S
C1548 C1543 1.350 1_455 S
C1549 H1536 0.929 . S
C1549 C1541 1.433 . S
C1549 N1551 1.384 . S
N1550 C1546 1.427 . S
N1550 C1547 1.384 . S
N1551 C1543 1.427 . S
N1551 C1549 1.384 . S
C551 C28 1.464 . S
C555 C6 1.459 . S
C569 C62 1.460 . S
C573 C40 1.465 . S
C587 C96 1.461 . S
C591 C74 1.464 . S
C605 C108 1.460 . S
C609 C130 1.464 . S
C623 C142 1.464 . S
C627 C164 1.461 . S
C641 C176 1.465 . S
C645 C198 1.457 . S
C659 C210 1.464 . S
C663 C232 1.461 . S
C677 C266 1.461 . S
C681 C244 1.464 . S
C695 C278 1.460 . S
C699 C300 1.464 . S
C713 C312 1.465 . S
C717 C334 1.460 . S
C731 C346 1.464 . S
C735 C368 1.461 . S
C749 C380 1.461 . S
C753 C402 1.464 . S
C767 C414 1.458 . S
C771 C436 1.464 . S
C785 C448 1.456 . S
C789 C470 1.465 . S
C803 C504 1.458 . S
C807 C482 1.464 . S
C821 C516 1.464 . S
C825 C538 1.457 . S
C839 C1 1.798 . S
C843 C171 1.812 . S
C857 C37 1.793 . S
C861 C137 1.808 1_455 S
C875 C71 1.797 . S
C879 C239 1.811 1_655 S
C893 C103 1.787 . S
C897 C205 1.802 . S
C911 C139 1.783 . S
C915 C35 1.798 . S
C929 C173 1.783 . S
C933 C3 1.797 1_655 S
C947 C105 1.807 1_455 S
C951 C207 1.792 . S
C965 C69 1.798 . S
C969 C241 1.783 . S
C983 C273 1.789 . S
C987 C445 1.804 1_655 S
C1001 C411 1.797 . S
C1005 C309 1.783 . S
C1019 C343 1.793 . S
C1023 C511 1.808 . S
C1037 C477 1.811 1_455 S
C1041 C375 1.797 . S
C1055 C307 1.808 1_455 S
C1059 C409 1.793 . S
C1073 C443 1.783 . S
C1077 C275 1.797 . S
C1091 C479 1.785 . S
C1095 C377 1.799 . S
C1109 C513 1.793 . S
C1113 C341 1.807 1_655 S
C1127 C22 1.503 . S
C1131 C49 1.504 . S
C1145 C124 1.506 . S
C1149 C83 1.505 . S
C1163 C151 1.503 . S
C1167 C185 1.502 . S
C1181 C253 1.504 . S
C1185 C219 1.503 . S
C1199 C321 1.495 . S
C1203 C294 1.494 . S
C1217 C355 1.495 . S
C1221 C396 1.494 . S
C1235 C430 1.491 . S
C1239 C464 1.491 . S
C1253 C491 1.495 . S
C1257 C525 1.493 . S
C1271 C15 1.725 . S
C1275 C328 1.724 . S
C1289 C56 1.726 . S
C1293 C287 1.726 . S
C1307 C389 1.738 . S
C1311 C90 1.738 . S
C1325 C362 1.738 . S
C1329 C117 1.738 . S
C1343 C158 1.729 . S
C1347 C457 1.729 . S
C1361 C192 1.735 . S
C1365 C423 1.735 . S
C1379 C226 1.736 . S
C1383 C532 1.735 . S
C1397 C498 1.733 . S
C1401 C260 1.733 . S
C1415 C119 1.638 . S
C1419 C17 1.637 . S
C1433 C51 1.638 . S
C1437 C85 1.638 . S
C1451 C255 1.632 . S
C1455 C153 1.632 . S
C1469 C187 1.634 . S
C1473 C221 1.633 . S
C1487 C289 1.633 . S
C1491 C391 1.633 . S
C1505 C323 1.639 . S
C1509 C357 1.639 . S
C1523 C527 1.638 . S
C1527 C425 1.639 . S
C1541 C493 1.634 . S
C1545 C459 1.634 . S
