# Generated by pormake.
# Topology twt, (3)-cn, num edge types: 1
# Building blocks:
#     Node 0, Type 0, BuildingBlock: WUSLED_clean_sbu_0, # of connection points: 3
#     Node 1, Type 0, BuildingBlock: WUSLED_clean_sbu_0, # of connection points: 3
#     Node 2, Type 0, BuildingBlock: WUSLED_clean_sbu_0, # of connection points: 3
#     Node 3, Type 0, BuildingBlock: WUSLED_clean_sbu_0, # of connection points: 3
#     Node 4, Type 0, BuildingBlock: WUSLED_clean_sbu_0, # of connection points: 3
#     Node 5, Type 0, BuildingBlock: WUSLED_clean_sbu_0, # of connection points: 3
#     Edge 6, Type (0, 0), BuildingBlock: MIFKUJ_clean_linker_0, # of connection points: 2
#     Edge 7, Type (0, 0), BuildingBlock: MIFKUJ_clean_linker_0, # of connection points: 2
#     Edge 8, Type (0, 0), BuildingBlock: MIFKUJ_clean_linker_0, # of connection points: 2
#     Edge 9, Type (0, 0), BuildingBlock: MIFKUJ_clean_linker_0, # of connection points: 2
#     Edge 10, Type (0, 0), BuildingBlock: MIFKUJ_clean_linker_0, # of connection points: 2
#     Edge 11, Type (0, 0), BuildingBlock: MIFKUJ_clean_linker_0, # of connection points: 2
#     Edge 12, Type (0, 0), BuildingBlock: MIFKUJ_clean_linker_0, # of connection points: 2
#     Edge 13, Type (0, 0), BuildingBlock: MIFKUJ_clean_linker_0, # of connection points: 2
#     Edge 14, Type (0, 0), BuildingBlock: MIFKUJ_clean_linker_0, # of connection points: 2
# Relax obj value: 0.000
# Max RMSD: 0.005
# Mean RMSD: 0.005
data_MOF--net-twt--node1-WUSLED_clean_sbu_0--edge1-MIFKUJ_clean_linker_0
_symmetry_space_group_name_H-M    P1
_symmetry_Int_Tables_number       1
_symmetry_cell_setting            triclinic
loop_
_symmetry_equiv_pos_as_xyz
'x, y, z'
_cell_length_a     81.812124
_cell_length_b     82.230817
_cell_length_c     20.921554
_cell_angle_alpha  89.89926
_cell_angle_beta   90.03355
_cell_angle_gamma 119.65835
loop_
_atom_site_label
_atom_site_type_symbol
_atom_site_fract_x
_atom_site_fract_y
_atom_site_fract_z
_atom_type_partial_charge
C0 C 0.65967 0.27203 0.30619 0.0
C1 C 0.67154 0.28185 0.3577 0.0
C2 C 0.6652 0.30787 0.34294 0.0
C3 C 0.67427 0.29952 0.3758 0.0
C4 C 0.6536 0.29806 0.29077 0.0
C5 C 0.65089 0.28045 0.2728 0.0
U6 U 0.67027 0.23119 0.27088 0.0
O7 O 0.65344 0.20144 0.29885 0.0
O8 O 0.65741 0.20912 0.19744 0.0
C9 C 0.64958 0.1955 0.23952 0.0
C10 C 0.65491 0.25254 0.28912 0.0
C11 C 0.63032 0.17991 0.22545 0.0
C12 C 0.59652 0.16685 0.2086 0.0
C13 C 0.61437 0.18217 0.22329 0.0
C14 C 0.61035 0.14694 0.19833 0.0
C15 C 0.59426 0.14899 0.19541 0.0
C16 C 0.62805 0.16215 0.21306 0.0
C17 C 0.72288 0.2419 0.28248 0.0
C18 C 0.73883 0.22578 0.23957 0.0
C19 C 0.75472 0.25061 0.31666 0.0
C20 C 0.7389 0.25296 0.31956 0.0
C21 C 0.75503 0.23701 0.27658 0.0
C22 C 0.72293 0.2282 0.24246 0.0
C23 C 0.70702 0.24591 0.28474 0.0
O24 O 0.66044 0.25001 0.23284 0.0
O25 O 0.65649 0.24223 0.33415 0.0
O26 O 0.695 0.23856 0.33213 0.0
O27 O 0.69893 0.24589 0.23041 0.0
H28 H 0.67852 0.27577 0.38457 0.0
H29 H 0.68351 0.30664 0.41562 0.0
H30 H 0.6461 0.30372 0.26468 0.0
H31 H 0.6415 0.27316 0.2334 0.0
H32 H 0.58455 0.16908 0.2065 0.0
H33 H 0.61574 0.19574 0.23258 0.0
H34 H 0.60928 0.13346 0.18989 0.0
H35 H 0.64008 0.15999 0.21467 0.0
H36 H 0.73835 0.21502 0.20861 0.0
H37 H 0.7669 0.25982 0.34498 0.0
H38 H 0.73932 0.26376 0.3503 0.0
H39 H 0.71078 0.21948 0.21318 0.0
C40 C 0.6217 0.55136 0.65914 0.0
C41 C 0.62367 0.56251 0.71273 0.0
C42 C 0.59142 0.55686 0.69935 0.0
C43 C 0.60872 0.56523 0.73253 0.0
C44 C 0.58971 0.54593 0.64525 0.0
C45 C 0.6046 0.54324 0.62558 0.0
U46 U 0.67295 0.56105 0.62126 0.0
O47 O 0.68497 0.54281 0.64276 0.0
O48 O 0.68191 0.54911 0.54311 0.0
C49 C 0.68671 0.53965 0.5822 0.0
C50 C 0.63639 0.54658 0.63978 0.0
C51 C 0.68177 0.52025 0.56288 0.0
C52 C 0.66891 0.48688 0.58534 0.0
C53 C 0.67142 0.50455 0.6024 0.0
C54 C 0.6868 0.50017 0.48875 0.0
C55 C 0.67673 0.48441 0.52845 0.0
C56 C 0.68927 0.51775 0.50574 0.0
C57 C 0.71557 0.61263 0.63988 0.0
C58 C 0.74608 0.63102 0.5873 0.0
C59 C 0.73972 0.64209 0.68597 0.0
C60 C 0.72175 0.62623 0.68817 0.0
C61 C 0.75219 0.64489 0.63529 0.0
C62 C 0.72799 0.61511 0.58949 0.0
C63 C 0.69563 0.59718 0.64118 0.0
O64 O 0.64458 0.55285 0.58411 0.0
O65 O 0.64808 0.54712 0.68399 0.0
O66 O 0.69079 0.58443 0.68618 0.0
O67 O 0.68733 0.59018 0.58623 0.0
H68 H 0.63664 0.56894 0.73982 0.0
H69 H 0.61077 0.57394 0.77386 0.0
H70 H 0.57664 0.53894 0.61885 0.0
H71 H 0.60257 0.53439 0.58462 0.0
H72 H 0.66085 0.47514 0.61695 0.0
H73 H 0.66552 0.50595 0.64698 0.0
H74 H 0.69337 0.49911 0.44522 0.0
H75 H 0.69756 0.5296 0.47474 0.0
H76 H 0.75526 0.63244 0.54787 0.0
H77 H 0.74356 0.65245 0.72329 0.0
H78 H 0.71241 0.62484 0.72712 0.0
H79 H 0.72364 0.60492 0.55134 0.0
C80 C 0.30502 0.51182 0.00898 0.0
C81 C 0.29028 0.5148 0.02862 0.0
C82 C 0.26937 0.48097 0.04355 0.0
C83 C 0.27263 0.49954 0.0456 0.0
C84 C 0.28425 0.47823 0.02333 0.0
C85 C 0.30176 0.4934 0.00641 0.0
U86 U 0.34452 0.56396 0.97544 0.0
O87 O 0.37469 0.5766 -0.00117 0.0
O88 O 0.3659 0.57384 0.89864 0.0
C89 C 0.37996 0.57867 0.93859 0.0
C90 C 0.32399 0.52731 0.99108 0.0
C91 C 0.39478 0.57396 0.92016 0.0
C92 C 0.41511 0.56061 0.94279 0.0
C93 C 0.39978 0.56312 0.95908 0.0
C94 C 0.42059 0.57949 0.84816 0.0
C95 C 0.42588 0.56888 0.88723 0.0
C96 C 0.40532 0.58198 0.86441 0.0
C97 C 0.33283 0.60497 0.99493 0.0
C98 C 0.35068 0.63793 0.96376 0.0
C99 C 0.32127 0.62645 0.02053 0.0
C100 C 0.31931 0.60853 0.02264 0.0
C101 C 0.33688 0.64145 0.9906 0.0
C102 C 0.34864 0.61986 0.96567 0.0
C103 C 0.32938 0.58542 -0.00426 0.0
O104 O 0.32555 0.53582 0.93633 0.0
O105 O 0.33425 0.53886 0.03661 0.0
O106 O 0.33768 0.5809 0.04062 0.0
O107 O 0.32887 0.57765 0.94037 0.0
H108 H 0.29244 0.52889 0.03109 0.0
H109 H 0.26164 0.50231 0.06131 0.0
H110 H 0.28234 0.46426 0.01972 0.0
H111 H 0.31285 0.4907 0.99115 0.0
H112 H 0.41849 0.55215 0.97385 0.0
H113 H 0.39204 0.55679 0.00257 0.0
H114 H 0.42859 0.58641 0.80569 0.0
H115 H 0.40202 0.59063 0.83391 0.0
H116 H 0.36284 0.64904 0.93998 0.0
H117 H 0.31051 0.62855 0.04282 0.0
H118 H 0.30701 0.59732 0.0456 0.0
H119 H 0.35926 0.61747 0.94375 0.0
C120 C 0.02528 0.19386 0.31704 0.0
C121 C 1.00767 0.17765 0.30914 0.0
C122 C 0.02014 0.15801 0.35113 0.0
C123 C 1.00512 0.15992 0.32622 0.0
C124 C 0.03761 0.1744 0.35964 0.0
C125 C 0.0401 0.192 0.34288 0.0
U126 U 0.01327 0.23329 0.26982 0.0
O127 O 0.02727 0.25505 0.19582 0.0
O128 O 0.02913 0.26323 0.29635 0.0
C129 C 0.03422 0.26888 0.23721 0.0
C130 C 0.02913 0.21281 0.29684 0.0
C131 C 0.05372 0.28454 0.2265 0.0
C132 C 0.08619 0.29737 0.18965 0.0
C133 C 0.06838 0.28187 0.20351 0.0
C134 C 0.07498 0.31833 0.22204 0.0
C135 C 0.08967 0.31587 0.19788 0.0
C136 C 0.05733 0.30292 0.23611 0.0
C137 C 0.96084 0.22302 0.26748 0.0
C138 C 0.94418 0.23964 0.29838 0.0
C139 C 0.92951 0.21361 0.22521 0.0
C140 C 0.9454 0.21133 0.22872 0.0
C141 C 0.92848 0.22763 0.26066 0.0
C142 C 0.96012 0.23737 0.30181 0.0
C143 C 0.97635 0.21858 0.2761 0.0
O144 O 0.02388 0.21455 0.23899 0.0
O145 O 0.02642 0.22298 0.3394 0.0
O146 O 0.98765 0.22603 0.32529 0.0
O147 O 0.98519 0.21796 0.22451 0.0
H148 H 0.99599 0.17866 0.28915 0.0
H149 H 0.99148 0.14769 0.31854 0.0
H150 H 0.04944 0.17367 0.37972 0.0
H151 H 0.05381 0.20425 0.34959 0.0
H152 H 0.09707 0.29486 0.17086 0.0
H153 H 0.066 0.26786 0.19534 0.0
H154 H 0.0771 0.33224 0.23022 0.0
H155 H 0.0463 0.30541 0.2537 0.0
H156 H 0.94413 0.2508 0.32567 0.0
H157 H 0.91773 0.20388 0.19631 0.0
H158 H 0.94539 0.19999 0.20238 0.0
H159 H 0.9717 0.24662 0.33235 0.0
C160 C 0.06135 0.91356 0.66057 0.0
C161 C 0.06076 0.90508 0.71975 0.0
C162 C 0.09185 0.90831 0.70063 0.0
C163 C 0.07578 0.9025 0.73945 0.0
C164 C 0.09218 0.91648 0.64099 0.0
C165 C 0.0772 0.91908 0.62143 0.0
U166 U 1.01013 0.90352 0.6216 0.0
O167 O 0.99735 0.92101 0.64435 0.0
O168 O 1.00098 0.91559 0.54433 0.0
C169 C 0.99527 0.92412 0.58404 0.0
C170 C 0.04671 0.91844 0.6409 0.0
C171 C 0.99897 0.94319 0.56623 0.0
C172 C 0.01902 0.97714 0.55751 0.0
C173 C 0.01657 0.9594 0.57392 0.0
C174 C 0.98641 0.96265 0.52545 0.0
C175 C 1.0039 0.97905 0.53346 0.0
C176 C 0.98402 0.94505 0.54158 0.0
C177 C 0.96819 0.85159 0.63914 0.0
C178 C 0.93727 0.83379 0.58887 0.0
C179 C 0.94452 0.8215 0.68305 0.0
C180 C 0.96248 0.83737 0.68519 0.0
C181 C 0.93159 0.81933 0.63469 0.0
C182 C 0.95536 0.84971 0.591 0.0
C183 C 0.98803 0.86722 0.64051 0.0
O184 O 0.0387 0.91239 0.58487 0.0
O185 O 0.03485 0.91771 0.68476 0.0
O186 O 0.99269 0.87978 0.68592 0.0
O187 O 0.99622 0.87452 0.58562 0.0
H188 H 0.04882 0.90071 0.75137 0.0
H189 H 0.07479 0.89593 0.78527 0.0
H190 H 0.10431 0.92144 0.60995 0.0
H191 H 0.07824 0.92588 0.57603 0.0
H192 H 0.03268 0.98938 0.5648 0.0
H193 H 0.02834 0.95836 0.59292 0.0
H194 H 0.97451 0.96335 0.50601 0.0
H195 H 0.97032 0.93279 0.53493 0.0
H196 H 0.92773 0.83284 0.5513 0.0
H197 H 0.94101 0.81068 0.71857 0.0
H198 H 0.97214 0.83832 0.72236 0.0
H199 H 0.95936 0.86041 0.55465 0.0
C200 C 0.37843 0.95296 0.01331 0.0
C201 C 0.39457 0.95103 0.01311 0.0
C202 C 0.4142 0.98371 0.04753 0.0
C203 C 0.41225 0.96623 0.03001 0.0
C204 C 0.39787 0.98539 0.04765 0.0
C205 C 0.38031 0.97027 0.03093 0.0
U206 U 0.33881 0.90113 0.97678 0.0
O207 O 0.30857 0.88862 -0.00141 0.0
O208 O 0.31779 0.89158 0.89885 0.0
C209 C 0.30354 0.88655 0.93813 0.0
C210 C 0.35953 0.9377 0.99351 0.0
C211 C 0.28863 0.89103 0.91896 0.0
C212 C 0.27035 0.90696 0.93428 0.0
C213 C 0.28565 0.9044 0.95083 0.0
C214 C 0.26088 0.88298 0.85358 0.0
C215 C 0.25762 0.89619 0.88554 0.0
C216 C 0.27613 0.88049 0.87001 0.0
C217 C 0.34942 0.85946 -0.00144 0.0
C218 C 0.33651 0.82847 0.94992 0.0
C219 C 0.35677 0.83625 0.04225 0.0
C220 C 0.35843 0.85405 0.04412 0.0
C221 C 0.34601 0.82322 0.99464 0.0
C222 C 0.33826 0.84641 0.95167 0.0
C223 C 0.35335 0.87921 -0.00114 0.0
O224 O 0.35831 0.92929 0.93888 0.0
O225 O 0.34873 0.92611 0.03819 0.0
O226 O 0.34515 0.884 0.04321 0.0
O227 O 0.35435 0.88719 0.94337 0.0
H228 H 0.39353 0.93783 -0.00031 0.0
H229 H 0.42437 0.96422 0.02985 0.0
H230 H 0.39866 0.99858 0.05944 0.0
H231 H 0.36813 0.9722 0.031 0.0
H232 H 0.26856 0.91743 0.95966 0.0
H233 H 0.295 0.91272 0.98896 0.0
H234 H 0.25134 0.87412 0.81676 0.0
H235 H 0.2779 0.86991 0.84516 0.0
H236 H 0.32817 0.81892 0.91233 0.0
H237 H 0.36402 0.83271 0.07825 0.0
H238 H 0.36715 0.86381 0.08071 0.0
H239 H 0.33121 0.85019 0.91567 0.0
H240 H 0.66818 0.32175 0.46529 0.0
H241 H 0.67072 0.35142 0.49826 0.0
H242 H 0.66903 0.36571 0.30098 0.0
H243 H 0.66725 0.33642 0.26751 0.0
H244 H 0.69411 0.39572 0.36172 0.0
H245 H 0.62995 0.34941 0.40403 0.0
H246 H 0.60433 0.32039 0.45064 0.0
H247 H 0.62447 0.34095 0.63948 0.0
H248 H 0.65037 0.37 0.59393 0.0
H249 H 0.67248 0.46864 0.40878 0.0
H250 H 0.67116 0.43925 0.38006 0.0
H251 H 0.67515 0.42797 0.57895 0.0
H252 H 0.67679 0.45754 0.6082 0.0
H253 H 0.64946 0.39659 0.52007 0.0
H254 H 0.71319 0.44325 0.47754 0.0
H255 H 0.73876 0.47226 0.43073 0.0
H256 H 0.71936 0.45104 0.24196 0.0
H257 H 0.6935 0.42199 0.28768 0.0
C258 C 0.66859 0.33126 0.42867 0.0
C259 C 0.66739 0.32643 0.36349 0.0
C260 C 0.66982 0.34822 0.44776 0.0
C261 C 0.66975 0.36086 0.40236 0.0
C262 C 0.669 0.35628 0.33727 0.0
C263 C 0.6678 0.33934 0.31814 0.0
C264 C 0.67042 0.37877 0.42241 0.0
C265 C 0.68416 0.39582 0.39574 0.0
C266 C 0.6578 0.3792 0.46804 0.0
C267 C 0.64221 0.36179 0.49555 0.0
C268 C 0.629 0.34768 0.45548 0.0
C269 C 0.61441 0.33124 0.48171 0.0
C270 C 0.6128 0.32881 0.54797 0.0
C271 C 0.62575 0.34284 0.58816 0.0
C272 C 0.64038 0.3593 0.56216 0.0
C273 C 0.67327 0.46007 0.44665 0.0
C274 C 0.6749 0.46577 0.51103 0.0
C275 C 0.67246 0.44314 0.43001 0.0
C276 C 0.67332 0.43135 0.47709 0.0
C277 C 0.67447 0.43672 0.54149 0.0
C278 C 0.67532 0.45369 0.55821 0.0
C279 C 0.67306 0.4135 0.45907 0.0
C280 C 0.65941 0.39648 0.48612 0.0
C281 C 0.68575 0.41309 0.41372 0.0
C282 C 0.70129 0.43053 0.38606 0.0
C283 C 0.71428 0.44483 0.42606 0.0
C284 C 0.72884 0.46127 0.39972 0.0
C285 C 0.73065 0.46351 0.33342 0.0
C286 C 0.71792 0.44929 0.29331 0.0
C287 C 0.70332 0.43284 0.31941 0.0
H288 H 0.74194 0.47624 0.31312 0.0
H289 H 0.6015 0.31607 0.56819 0.0
H290 H 0.58031 0.55869 0.82282 0.0
H291 H 0.55318 0.56132 0.85769 0.0
H292 H 0.53766 0.56196 0.66116 0.0
H293 H 0.56517 0.56018 0.62593 0.0
H294 H 0.53267 0.58645 0.72491 0.0
H295 H 0.51485 0.52199 0.76159 0.0
H296 H 0.51822 0.49602 0.80615 0.0
H297 H 0.51722 0.51495 -0.00349 0.0
H298 H 0.51409 0.54119 0.95303 0.0
H299 H 0.43819 0.56541 0.76788 0.0
H300 H 0.4664 0.56393 0.74016 0.0
H301 H 0.48026 0.56608 0.93984 0.0
H302 H 0.45213 0.56783 0.96812 0.0
H303 H 0.48669 0.54094 0.87907 0.0
H304 H 0.50356 0.60476 0.84283 0.0
H305 H 0.50018 0.63077 0.7987 0.0
H306 H 0.50311 0.61316 0.608 0.0
H307 H 0.50623 0.58687 0.651 0.0
C308 C 0.57131 0.55964 0.78682 0.0
C309 C 0.57507 0.55909 0.72129 0.0
C310 C 0.55557 0.5609 0.80697 0.0
C311 C 0.54299 0.56151 0.76228 0.0
C312 C 0.54695 0.5614 0.69692 0.0
C313 C 0.56269 0.56019 0.67675 0.0
C314 C 0.52577 0.56229 0.78318 0.0
C315 C 0.52253 0.57632 0.758 0.0
C316 C 0.51262 0.54946 0.82781 0.0
C317 C 0.51443 0.53366 0.85403 0.0
C318 C 0.51548 0.52069 0.81294 0.0
C319 C 0.51733 0.50591 0.838 0.0
C320 C 0.51799 0.50386 0.90412 0.0
C321 C 0.51674 0.51657 0.94531 0.0
C322 C 0.51492 0.53139 0.92049 0.0
C323 C 0.44726 0.56574 0.80615 0.0
C324 C 0.44276 0.56692 0.87044 0.0
C325 C 0.46347 0.56485 0.7901 0.0
C326 C 0.47578 0.56518 0.83769 0.0
C327 C 0.4711 0.56583 0.90199 0.0
C328 C 0.45488 0.56675 0.91815 0.0
C329 C 0.49352 0.56496 0.82018 0.0
C330 C 0.49686 0.55108 0.84605 0.0
C331 C 0.50678 0.57793 0.7762 0.0
C332 C 0.50495 0.59374 0.75015 0.0
C333 C 0.50333 0.60635 0.79147 0.0
C334 C 0.50149 0.62116 0.76667 0.0
C335 C 0.50138 0.62359 0.70058 0.0
C336 C 0.50317 0.61124 0.65917 0.0
C337 C 0.50499 0.59639 0.68374 0.0
H338 H 0.49996 0.63507 0.68147 0.0
H339 H 0.51941 0.49241 0.92343 0.0
H340 H 0.23353 0.47514 0.02074 0.0
H341 H 0.20334 0.44762 0.04734 0.0
H342 H 0.23243 0.42162 0.13449 0.0
H343 H 0.26258 0.44905 0.10851 0.0
H344 H 0.20474 0.39677 0.06266 0.0
H345 H 0.20963 0.44051 0.22394 0.0
H346 H 0.21375 0.47041 0.26491 0.0
H347 H 0.16476 0.46188 0.16157 0.0
H348 H 0.16049 0.43202 0.11931 0.0
H349 H 0.12549 0.32143 0.21778 0.0
H350 H 0.15565 0.34918 0.19246 0.0
H351 H 0.12638 0.37606 0.11315 0.0
H352 H 0.09629 0.34851 0.13892 0.0
H353 H 0.15421 0.40057 0.18071 0.0
H354 H 0.1492 0.35719 0.01865 0.0
H355 H 0.14498 0.32743 0.97581 0.0
H356 H 0.19395 0.3354 0.07786 0.0
H357 H 0.19833 0.3651 0.12198 0.0
C358 C 0.23356 0.4637 0.04631 0.0
C359 C 0.25069 0.46447 0.0621 0.0
C360 C 0.2162 0.44787 0.06148 0.0
C361 C 0.21542 0.4324 0.09342 0.0
C362 C 0.23249 0.4332 0.10956 0.0
C363 C 0.24982 0.44898 0.0944 0.0
C364 C 0.19695 0.41528 0.10918 0.0
C365 C 0.19381 0.39762 0.08925 0.0
C366 C 0.18234 0.41621 0.14249 0.0
C367 C 0.18485 0.43413 0.16796 0.0
C368 C 0.19982 0.44508 0.20957 0.0
C369 C 0.20217 0.46201 0.23309 0.0
C370 C 0.18955 0.46807 0.21572 0.0
C371 C 0.17454 0.45718 0.17492 0.0
C372 C 0.17214 0.44025 0.15121 0.0
C373 C 0.12545 0.33316 0.19439 0.0
C374 C 0.10831 0.3326 0.18066 0.0
C375 C 0.14278 0.34911 0.17981 0.0
C376 C 0.14351 0.36486 0.15012 0.0
C377 C 0.1264 0.36427 0.13624 0.0
C378 C 0.1091 0.34842 0.15119 0.0
C379 C 0.16197 0.38202 0.13421 0.0
C380 C 0.16512 0.39969 0.15411 0.0
C381 C 0.17656 0.38111 0.1006 0.0
C382 C 0.17398 0.36327 0.07412 0.0
C383 C 0.15899 0.35252 0.03233 0.0
C384 C 0.15658 0.33568 0.00776 0.0
C385 C 0.16916 0.3295 0.02424 0.0
C386 C 0.1842 0.34018 0.06521 0.0
C387 C 0.18666 0.35703 0.08997 0.0
H388 H 0.16727 0.31646 0.00516 0.0
H389 H 0.19139 0.48118 0.23398 0.0
H390 H 0.97871 0.9916 0.55317 0.0
H391 H 0.9814 0.02143 0.52199 0.0
H392 H 0.03663 0.03945 0.44507 0.0
H393 H 0.03403 0.0095 0.47626 0.0
H394 H 0.03679 0.06761 0.50712 0.0
H395 H 0.99667 0.02445 0.34777 0.0
H396 H 0.96935 0.99569 0.30723 0.0
H397 H 0.93187 0.0113 0.39639 0.0
H398 H 0.95898 0.04004 0.43822 0.0
H399 H 0.04527 0.1454 0.33172 0.0
H400 H 0.04241 0.11546 0.36244 0.0
H401 H 0.98712 0.09753 0.43872 0.0
H402 H 0.98988 0.12757 0.40781 0.0
H403 H 0.98693 0.06931 0.37708 0.0
H404 H 0.02695 0.11237 0.53662 0.0
H405 H 0.05421 0.1412 0.57704 0.0
H406 H 0.0918 0.12576 0.48774 0.0
H407 H 0.06475 0.09695 0.44603 0.0
C408 C 0.99141 1.00179 0.52913 0.0
C409 C 1.00607 0.99787 0.51678 0.0
C410 C 0.99293 0.01895 0.51123 0.0
C411 C 1.00908 0.03275 0.47986 0.0
C412 C 0.02396 0.02911 0.46893 0.0
C413 C 0.02248 0.01193 0.48705 0.0
C414 C 1.01042 0.0509 0.45878 0.0
C415 C 0.02599 0.06792 0.4779 0.0
C416 C 0.99618 0.05156 0.42189 0.0
C417 C 0.97986 0.03431 0.39664 0.0
C418 C 0.9826 0.02168 0.35913 0.0
C419 C 0.96716 1.00539 0.33586 0.0
C420 C 0.94889 1.00164 0.34937 0.0
C421 C 0.94603 0.01421 0.38604 0.0
C422 C 0.96143 0.03051 0.4095 0.0
C423 C 0.03252 0.1352 0.35553 0.0
C424 C 0.0179 0.13916 0.3678 0.0
C425 C 0.0309 0.11798 0.37315 0.0
C426 C 0.01469 0.10418 0.40425 0.0
C427 C 0.99984 0.10786 0.41508 0.0
C428 C 1.00141 0.1251 0.39716 0.0
C429 C 0.0133 0.08601 0.42539 0.0
C430 C 0.99772 0.06899 0.4063 0.0
C431 C 0.02753 0.08535 0.46236 0.0
C432 C 0.04382 0.10259 0.48772 0.0
C433 C 0.04103 0.11519 0.52524 0.0
C434 C 0.05644 0.13152 0.54843 0.0
C435 C 0.07472 0.13533 0.53484 0.0
C436 C 0.07763 0.1228 0.49817 0.0
C437 C 0.06226 0.10646 0.47479 0.0
H438 H 0.08664 0.14798 0.55283 0.0
H439 H 0.93695 0.98903 0.3313 0.0
H440 H 0.10675 0.91266 0.82214 0.0
H441 H 0.13407 0.91028 0.8565 0.0
H442 H 0.14236 0.89777 0.66322 0.0
H443 H 0.11467 0.89944 0.62893 0.0
H444 H 0.14788 0.87599 0.74267 0.0
H445 H 0.16992 0.94208 0.73327 0.0
H446 H 0.16965 0.97121 0.75893 0.0
H447 H 0.1763 0.9634 0.95829 0.0
H448 H 0.17636 0.93408 0.93388 0.0
H449 H 0.24175 0.89361 0.76683 0.0
H450 H 0.21359 0.89526 0.7399 0.0
H451 H 0.20704 0.90563 0.93745 0.0
H452 H 0.23511 0.90367 0.96522 0.0
H453 H 0.20017 0.92802 0.86059 0.0
H454 H 0.17905 0.86257 0.87045 0.0
H455 H 0.17917 0.83332 0.8458 0.0
H456 H 0.17053 0.83968 0.64693 0.0
H457 H 0.17063 0.86913 0.67028 0.0
C458 C 0.1142 0.90917 0.78689 0.0
C459 C 0.10836 0.90634 0.72244 0.0
C460 C 0.13005 0.90803 0.80659 0.0
C461 C 0.14064 0.90414 0.76246 0.0
C462 C 0.13462 0.90091 0.69843 0.0
C463 C 0.11878 0.90203 0.67869 0.0
C464 C 0.15795 0.90342 0.78267 0.0
C465 C 0.15939 0.8875 0.76771 0.0
C466 C 0.17291 0.91814 0.81706 0.0
C467 C 0.17295 0.93579 0.83181 0.0
C468 C 0.17118 0.94651 0.78263 0.0
C469 C 0.17109 0.96306 0.79694 0.0
C470 C 0.17291 0.96913 0.86022 0.0
C471 C 0.17487 0.95867 0.90931 0.0
C472 C 0.17495 0.94209 0.89526 0.0
C473 C 0.2343 0.89606 0.80496 0.0
C474 C 0.24082 0.89831 0.86855 0.0
C475 C 0.21812 0.89705 0.7893 0.0
C476 C 0.20787 0.9003 0.83662 0.0
C477 C 0.21459 0.90308 0.89985 0.0
C478 C 0.23078 0.90203 0.91566 0.0
C479 C 0.19016 0.90068 0.81994 0.0
C480 C 0.18864 0.91651 0.83563 0.0
C481 C 0.1751 0.88586 0.78631 0.0
C482 C 0.17503 0.86816 0.77204 0.0
C483 C 0.17733 0.85782 0.82138 0.0
C484 C 0.17733 0.84119 0.80766 0.0
C485 C 0.17491 0.83467 0.74481 0.0
C486 C 0.17243 0.84476 0.69558 0.0
C487 C 0.17244 0.86141 0.70903 0.0
H488 H 0.1749 0.82179 0.73429 0.0
H489 H 0.17283 0.98195 0.8712 0.0
H490 H 0.42216 0.01085 0.13868 0.0
H491 H 0.45224 0.03856 0.16269 0.0
H492 H 0.47945 0.02202 0.02138 0.0
H493 H 0.44927 0.9943 -0.00376 0.0
H494 H 0.50094 0.03473 0.12717 0.0
H495 H 0.4692 0.05728 0.9918 0.0
H496 H 0.44301 0.062 0.95731 0.0
H497 H 0.44704 0.09104 0.13211 0.0
H498 H 0.47309 0.08626 0.16807 0.0
H499 H 0.58631 0.12126 0.10704 0.0
H500 H 0.55617 0.0936 0.08338 0.0
H501 H 0.52891 0.11126 0.22081 0.0
H502 H 0.55917 0.13908 0.24498 0.0
H503 H 0.50734 0.09791 0.11753 0.0
H504 H 0.53908 0.07545 0.25305 0.0
H505 H 0.56515 0.07061 0.28804 0.0
H506 H 0.56104 0.04129 0.11382 0.0
H507 H 0.53511 0.04619 0.07737 0.0
C508 C 0.43445 0.0131 0.11204 0.0
C509 C 0.43302 1.00023 0.06481 0.0
C510 C 0.45175 0.02904 0.12606 0.0
C511 C 0.46823 0.03271 0.09328 0.0
C512 C 0.46702 0.01964 0.04742 0.0
C513 C 0.44967 1.00368 0.03324 0.0
C514 C 0.48663 0.05015 0.10669 0.0
C515 C 0.50237 0.04855 0.12414 0.0
C516 C 0.48858 0.06829 0.10447 0.0
C517 C 0.47297 0.07125 0.08289 0.0
C518 C 0.4644 0.06455 0.02311 0.0
C519 C 0.4496 0.06725 0.00326 0.0
C520 C 0.44333 0.07677 0.04257 0.0
C521 C 0.45189 0.08365 0.10175 0.0
C522 C 0.46668 0.08096 0.12187 0.0
C523 C 0.57398 0.11927 0.13283 0.0
C524 C 0.5754 0.13247 0.17866 0.0
C525 C 0.55664 0.10335 0.1191 0.0
C526 C 0.54013 0.09998 0.15103 0.0
C527 C 0.54136 0.11338 0.19549 0.0
C528 C 0.55874 0.12938 0.20918 0.0
C529 C 0.52169 0.08251 0.13801 0.0
C530 C 0.50593 0.08411 0.12062 0.0
C531 C 0.51972 0.06436 0.14037 0.0
C532 C 0.53527 0.06135 0.16221 0.0
C533 C 0.54383 0.0681 0.22198 0.0
C534 C 0.55857 0.06532 0.24211 0.0
C535 C 0.56478 0.0557 0.20311 0.0
C536 C 0.55623 0.04878 0.14395 0.0
C537 C 0.5415 0.05153 0.12354 0.0
H538 H 0.57619 0.05356 0.21879 0.0
H539 H 0.43187 0.07886 0.02711 0.0
H540 H 0.90468 0.22247 0.15939 0.0
H541 H 0.87533 0.2235 0.15985 0.0
H542 H 0.88297 0.23781 0.3599 0.0
H543 H 0.91199 0.23615 0.36041 0.0
H544 H 0.84755 0.21205 0.33892 0.0
H545 H 0.89064 0.27053 0.2387 0.0
H546 H 0.91406 0.29088 0.15889 0.0
H547 H 0.87433 0.26282 0.00806 0.0
H548 H 0.85074 0.24213 0.08694 0.0
H549 H 0.7793 0.24053 0.37397 0.0
H550 H 0.80819 0.2389 0.36806 0.0
H551 H 0.79891 0.2263 0.16698 0.0
H552 H 0.77032 0.22881 0.17183 0.0
H553 H 0.83471 0.25035 0.18525 0.0
H554 H 0.79149 0.19225 0.28359 0.0
H555 H 0.76783 0.17147 0.36203 0.0
H556 H 0.80743 0.19803 0.5144 0.0
H557 H 0.83127 0.21914 0.43693 0.0
C558 C 0.90013 0.22576 0.2037 0.0
C559 C 0.91091 0.22924 0.25987 0.0
C560 C 0.88335 0.22654 0.20371 0.0
C561 C 0.87686 0.23094 0.25977 0.0
C562 C 0.88758 0.23443 0.31586 0.0
C563 C 0.90436 0.23366 0.3159 0.0
C564 C 0.85875 0.2315 0.26049 0.0
C565 C 0.84489 0.22065 0.30581 0.0
C566 C 0.85483 0.24221 0.21615 0.0
C567 C 0.86899 0.25466 0.16869 0.0
C568 C 0.88695 0.2686 0.18848 0.0
C569 C 0.90024 0.28022 0.14341 0.0
C570 C 0.89571 0.27811 0.07843 0.0
C571 C 0.87784 0.26442 0.0584 0.0
C572 C 0.86449 0.25275 0.10327 0.0
C573 C 0.78339 0.23756 0.32817 0.0
C574 C 0.77229 0.23487 0.27334 0.0
C575 C 0.79991 0.23639 0.32505 0.0
C576 C 0.8058 0.23221 0.26723 0.0
C577 C 0.79476 0.22947 0.21235 0.0
C578 C 0.77823 0.23072 0.21536 0.0
C579 C 0.82356 0.23102 0.26409 0.0
C580 C 0.83734 0.24173 0.21829 0.0
C581 C 0.82739 0.2201 0.30779 0.0
C582 C 0.81311 0.20739 0.35449 0.0
C583 C 0.79511 0.19375 0.33387 0.0
C584 C 0.78167 0.1819 0.37815 0.0
C585 C 0.78611 0.18346 0.44317 0.0
C586 C 0.80401 0.19685 0.46403 0.0
C587 C 0.8175 0.20875 0.41995 0.0
H588 H 0.77568 0.17428 0.47738 0.0
H589 H 0.90602 0.28712 0.04362 0.0
H590 H 0.77172 0.66541 0.52902 0.0
H591 H 0.80183 0.69463 0.5253 0.0
H592 H 0.80583 0.69389 0.73054 0.0
H593 H 0.77601 0.66453 0.73473 0.0
H594 H 0.81404 0.7282 0.68931 0.0
H595 H 0.83311 0.68331 0.6328 0.0
H596 H 0.8324 0.65763 0.56993 0.0
H597 H 0.84634 0.69124 0.39993 0.0
H598 H 0.84689 0.71704 0.46167 0.0
H599 H 0.90872 0.79868 0.7348 0.0
H600 H 0.87882 0.76954 0.73084 0.0
H601 H 0.88047 0.77123 0.52489 0.0
H602 H 0.91098 0.80002 0.52843 0.0
H603 H 0.86883 0.73682 0.56162 0.0
H604 H 0.8505 0.78185 0.61574 0.0
H605 H 0.85083 0.80772 0.67616 0.0
H606 H 0.8348 0.77429 0.84688 0.0
H607 H 0.83462 0.74829 0.78765 0.0
C608 C 0.7791 0.67123 0.57344 0.0
C609 C 0.77118 0.66241 0.63223 0.0
C610 C 0.79637 0.68807 0.5712 0.0
C611 C 0.80628 0.69659 0.62764 0.0
C612 C 0.7985 0.68777 0.68625 0.0
C613 C 0.78131 0.67092 0.68853 0.0
C614 C 0.8245 0.71483 0.62607 0.0
C615 C 0.82609 0.72998 0.66198 0.0
C616 C 0.84015 0.71752 0.58889 0.0
C617 C 0.83984 0.70203 0.55174 0.0
C618 C 0.83587 0.68517 0.58191 0.0
C619 C 0.83553 0.6706 0.5465 0.0
C620 C 0.83927 0.67278 0.48094 0.0
C621 C 0.84341 0.68955 0.45069 0.0
C622 C 0.84376 0.70416 0.48588 0.0
C623 C 0.90289 0.79287 0.68845 0.0
C624 C 0.91253 0.80191 0.63193 0.0
C625 C 0.88554 0.7762 0.68627 0.0
C626 C 0.87704 0.76811 0.62754 0.0
C627 C 0.88656 0.77709 0.57096 0.0
C628 C 0.90401 0.79376 0.57309 0.0
C629 C 0.85846 0.75019 0.62543 0.0
C630 C 0.85679 0.73509 0.58881 0.0
C631 C 0.84265 0.74758 0.66157 0.0
C632 C 0.84272 0.76318 0.69736 0.0
C633 C 0.84718 0.78006 0.66627 0.0
C634 C 0.84732 0.79474 0.70029 0.0
C635 C 0.84288 0.79267 0.76535 0.0
C636 C 0.83825 0.77588 0.7965 0.0
C637 C 0.83812 0.76116 0.76271 0.0
H638 H 0.84299 0.80405 0.7916 0.0
H639 H 0.839 0.66149 0.45361 0.0
H640 H 0.30878 0.64993 0.96848 0.0
H641 H 0.31081 0.68056 0.96732 0.0
H642 H 0.37045 0.70707 0.00248 0.0
H643 H 0.36844 0.67629 0.00525 0.0
H644 H 0.35461 0.72236 0.0768 0.0
H645 H 0.35284 0.70843 0.85374 0.0
H646 H 0.34031 0.68945 0.75617 0.0
H647 H 0.28846 0.69008 0.77851 0.0
H648 H 0.30059 0.70887 0.87675 0.0
H649 H 0.37462 0.81534 0.01408 0.0
H650 H 0.37334 0.78506 0.01128 0.0
H651 H 0.31432 0.75812 0.96467 0.0
H652 H 0.31557 0.78852 0.96685 0.0
H653 H 0.33013 0.74306 0.89575 0.0
H654 H 0.33123 0.75628 0.11896 0.0
H655 H 0.34317 0.77485 0.21764 0.0
H656 H 0.39547 0.77504 0.19674 0.0
H657 H 0.38393 0.75667 0.09741 0.0
C658 C 0.32236 0.66222 0.97634 0.0
C659 C 0.33844 0.66047 0.98717 0.0
C660 C 0.32353 0.67984 0.97502 0.0
C661 C 0.34082 0.69632 0.9842 0.0
C662 C 0.35692 0.69465 0.99508 0.0
C663 C 0.35578 0.677 -0.00387 0.0
C664 C 0.34198 0.71516 0.98346 0.0
C665 C 0.34952 0.72698 0.03671 0.0
C666 C 0.33487 0.72115 0.93212 0.0
C667 C 0.32757 0.70991 0.87294 0.0
C668 C 0.33872 0.7044 0.83812 0.0
C669 C 0.3317 0.6937 0.78265 0.0
C670 C 0.31359 0.68852 0.76124 0.0
C671 C 0.30248 0.69409 0.79519 0.0
C672 C 0.30943 0.70478 0.85073 0.0
C673 C 0.36128 0.80298 0.00379 0.0
C674 C 0.34515 0.80451 0.99136 0.0
C675 C 0.36057 0.78557 0.00221 0.0
C676 C 0.34364 0.76904 0.98895 0.0
C677 C 0.32758 0.77054 0.97522 0.0
C678 C 0.32832 0.78801 0.97637 0.0
C679 C 0.34277 0.7503 0.98917 0.0
C680 C 0.33525 0.73848 0.93584 0.0
C681 C 0.34981 0.74426 0.04061 0.0
C682 C 0.35678 0.75526 0.1004 0.0
C683 C 0.34533 0.7604 0.13515 0.0
C684 C 0.35202 0.77087 0.19124 0.0
C685 C 0.37009 0.77616 0.21335 0.0
C686 C 0.38149 0.77095 0.1795 0.0
C687 C 0.37488 0.7605 0.12333 0.0
H688 H 0.37524 0.78427 0.2568 0.0
H689 H 0.30818 0.68023 0.71828 0.0
loop_
_geom_bond_atom_site_label_1
_geom_bond_atom_site_label_2
_geom_bond_distance
_geom_bond_site_symmetry_2
_ccdc_geom_bond_type
C0 C1 1.264 . S
C0 C5 1.479 . S
C0 C10 1.465 . S
C1 C0 1.264 . S
C1 C3 1.339 . S
C1 H28 0.931 . S
C2 C3 1.395 . S
C2 C4 1.320 . S
C3 C1 1.339 . S
C3 C2 1.395 . S
C3 H29 0.929 . S
C4 C2 1.320 . S
C4 C5 1.405 . S
C4 H30 0.930 . S
C5 C0 1.479 . S
C5 C4 1.405 . S
C5 H31 0.931 . S
U6 O7 2.454 . S
U6 O8 2.458 . S
U6 C9 2.984 . S
U6 C10 2.847 . S
U6 C23 2.882 . S
U6 O24 2.441 . S
U6 O25 2.420 . S
U6 O26 2.455 . S
U6 O27 2.449 . S
O7 U6 2.454 . S
O7 C9 1.353 . S
O8 U6 2.458 . S
O8 C9 1.286 . S
C9 U6 2.984 . S
C9 O7 1.353 . S
C9 O8 1.286 . S
C9 C11 1.363 . S
C10 C0 1.465 . S
C10 U6 2.847 . S
C10 O24 1.249 . S
C10 O25 1.202 . S
C11 C9 1.363 . S
C11 C13 1.408 . S
C11 C16 1.342 . S
C12 C13 1.310 . S
C12 C15 1.461 . S
C12 H32 0.932 . S
C13 C11 1.408 . S
C13 C12 1.310 . S
C13 H33 0.930 . S
C14 C15 1.474 . S
C14 C16 1.285 . S
C14 H34 0.929 . S
C15 C12 1.461 . S
C15 C14 1.474 . S
C16 C11 1.342 . S
C16 C14 1.285 . S
C16 H35 0.930 . S
C17 C20 1.424 . S
C17 C22 1.245 . S
C17 C23 1.428 . S
C18 C21 1.260 . S
C18 C22 1.477 . S
C18 H36 0.932 . S
C19 C20 1.384 . S
C19 C21 1.479 . S
C19 H37 0.929 . S
C20 C17 1.424 . S
C20 C19 1.384 . S
C20 H38 0.928 . S
C21 C18 1.260 . S
C21 C19 1.479 . S
C22 C17 1.245 . S
C22 C18 1.477 . S
C22 H39 0.932 . S
C23 U6 2.882 . S
C23 C17 1.428 . S
C23 O26 1.301 . S
C23 O27 1.282 . S
O24 U6 2.441 . S
O24 C10 1.249 . S
O25 U6 2.420 . S
O25 C10 1.202 . S
O26 U6 2.455 . S
O26 C23 1.301 . S
O27 U6 2.449 . S
O27 C23 1.282 . S
H28 C1 0.931 . S
H29 C3 0.929 . S
H30 C4 0.930 . S
H31 C5 0.931 . S
H32 C12 0.932 . S
H33 C13 0.930 . S
H34 C14 0.929 . S
H35 C16 0.930 . S
H36 C18 0.932 . S
H37 C19 0.929 . S
H38 C20 0.928 . S
H39 C22 0.932 . S
C40 C41 1.264 . S
C40 C45 1.479 . S
C40 C50 1.465 . S
C41 C40 1.264 . S
C41 C43 1.339 . S
C41 H68 0.931 . S
C42 C43 1.395 . S
C42 C44 1.320 . S
C43 C41 1.339 . S
C43 C42 1.395 . S
C43 H69 0.929 . S
C44 C42 1.320 . S
C44 C45 1.405 . S
C44 H70 0.930 . S
C45 C40 1.479 . S
C45 C44 1.405 . S
C45 H71 0.931 . S
U46 O47 2.454 . S
U46 O48 2.458 . S
U46 C49 2.984 . S
U46 C50 2.847 . S
U46 C63 2.882 . S
U46 O64 2.441 . S
U46 O65 2.420 . S
U46 O66 2.455 . S
U46 O67 2.449 . S
O47 U46 2.454 . S
O47 C49 1.353 . S
O48 U46 2.458 . S
O48 C49 1.286 . S
C49 U46 2.984 . S
C49 O47 1.353 . S
C49 O48 1.286 . S
C49 C51 1.363 . S
C50 C40 1.465 . S
C50 U46 2.847 . S
C50 O64 1.249 . S
C50 O65 1.202 . S
C51 C49 1.363 . S
C51 C53 1.408 . S
C51 C56 1.342 . S
C52 C53 1.310 . S
C52 C55 1.461 . S
C52 H72 0.932 . S
C53 C51 1.408 . S
C53 C52 1.310 . S
C53 H73 0.930 . S
C54 C55 1.474 . S
C54 C56 1.285 . S
C54 H74 0.929 . S
C55 C52 1.461 . S
C55 C54 1.474 . S
C56 C51 1.342 . S
C56 C54 1.285 . S
C56 H75 0.930 . S
C57 C60 1.424 . S
C57 C62 1.245 . S
C57 C63 1.428 . S
C58 C61 1.260 . S
C58 C62 1.477 . S
C58 H76 0.932 . S
C59 C60 1.384 . S
C59 C61 1.479 . S
C59 H77 0.929 . S
C60 C57 1.424 . S
C60 C59 1.384 . S
C60 H78 0.928 . S
C61 C58 1.260 . S
C61 C59 1.479 . S
C62 C57 1.245 . S
C62 C58 1.477 . S
C62 H79 0.932 . S
C63 U46 2.882 . S
C63 C57 1.428 . S
C63 O66 1.301 . S
C63 O67 1.282 . S
O64 U46 2.441 . S
O64 C50 1.249 . S
O65 U46 2.420 . S
O65 C50 1.202 . S
O66 U46 2.455 . S
O66 C63 1.301 . S
O67 U46 2.449 . S
O67 C63 1.282 . S
H68 C41 0.931 . S
H69 C43 0.929 . S
H70 C44 0.930 . S
H71 C45 0.931 . S
H72 C52 0.932 . S
H73 C53 0.930 . S
H74 C54 0.929 . S
H75 C56 0.930 . S
H76 C58 0.932 . S
H77 C59 0.929 . S
H78 C60 0.928 . S
H79 C62 0.932 . S
C80 C81 1.264 . S
C80 C85 1.479 . S
C80 C90 1.465 . S
C81 C80 1.264 . S
C81 C83 1.339 . S
C81 H108 0.931 . S
C82 C83 1.395 . S
C82 C84 1.320 . S
C83 C81 1.339 . S
C83 C82 1.395 . S
C83 H109 0.929 . S
C84 C82 1.320 . S
C84 C85 1.405 . S
C84 H110 0.930 . S
C85 C80 1.479 . S
C85 C84 1.405 . S
C85 H111 0.931 . S
U86 O87 2.454 1_554 S
U86 O88 2.458 1_554 S
U86 C89 2.984 1_554 S
U86 C90 2.847 . S
U86 C103 2.882 . S
U86 O104 2.441 . S
U86 O105 2.420 . S
U86 O106 2.455 . S
U86 O107 2.449 . S
O87 U86 2.454 1_556 S
O87 C89 1.353 . S
O88 U86 2.458 1_556 S
O88 C89 1.286 . S
C89 U86 2.984 1_556 S
C89 O87 1.353 . S
C89 O88 1.286 . S
C89 C91 1.363 . S
C90 C80 1.465 . S
C90 U86 2.847 . S
C90 O104 1.249 . S
C90 O105 1.202 . S
C91 C89 1.363 . S
C91 C93 1.408 . S
C91 C96 1.342 . S
C92 C93 1.310 . S
C92 C95 1.461 . S
C92 H112 0.932 . S
C93 C91 1.408 . S
C93 C92 1.310 . S
C93 H113 0.930 . S
C94 C95 1.474 . S
C94 C96 1.285 . S
C94 H114 0.929 . S
C95 C92 1.461 . S
C95 C94 1.474 . S
C96 C91 1.342 . S
C96 C94 1.285 . S
C96 H115 0.930 . S
C97 C100 1.424 . S
C97 C102 1.245 1_554 S
C97 C103 1.428 . S
C98 C101 1.260 . S
C98 C102 1.477 . S
C98 H116 0.932 . S
C99 C100 1.384 . S
C99 C101 1.479 1_554 S
C99 H117 0.929 . S
C100 C97 1.424 . S
C100 C99 1.384 . S
C100 H118 0.928 . S
C101 C98 1.260 . S
C101 C99 1.479 1_556 S
C102 C97 1.245 1_556 S
C102 C98 1.477 . S
C102 H119 0.932 . S
C103 U86 2.882 . S
C103 C97 1.428 . S
C103 O106 1.301 . S
C103 O107 1.282 . S
O104 U86 2.441 . S
O104 C90 1.249 . S
O105 U86 2.420 . S
O105 C90 1.202 . S
O106 U86 2.455 . S
O106 C103 1.301 . S
O107 U86 2.449 . S
O107 C103 1.282 . S
H108 C81 0.931 . S
H109 C83 0.929 . S
H110 C84 0.930 . S
H111 C85 0.931 . S
H112 C92 0.932 . S
H113 C93 0.930 . S
H114 C94 0.929 . S
H115 C96 0.930 . S
H116 C98 0.932 . S
H117 C99 0.929 . S
H118 C100 0.928 . S
H119 C102 0.932 . S
C120 C121 1.263 1_455 S
C120 C125 1.481 . S
C120 C130 1.464 . S
C121 C120 1.263 1_655 S
C121 C123 1.339 . S
C121 H148 0.931 . S
C122 C123 1.395 . S
C122 C124 1.320 1_655 S
C123 C121 1.339 . S
C123 C122 1.395 . S
C123 H149 0.929 . S
C124 C122 1.320 1_455 S
C124 C125 1.405 . S
C124 H150 0.930 . S
C125 C120 1.481 . S
C125 C124 1.405 . S
C125 H151 0.931 . S
U126 O127 2.454 . S
U126 O128 2.458 . S
U126 C129 2.984 . S
U126 C130 2.847 . S
U126 C143 2.882 1_455 S
U126 O144 2.441 . S
U126 O145 2.420 1_455 S
U126 O146 2.455 1_455 S
U126 O147 2.449 1_455 S
O127 U126 2.454 . S
O127 C129 1.353 . S
O128 U126 2.458 . S
O128 C129 1.286 . S
C129 U126 2.984 . S
C129 O127 1.353 . S
C129 O128 1.286 . S
C129 C131 1.363 . S
C130 C120 1.464 . S
C130 U126 2.847 . S
C130 O144 1.249 . S
C130 O145 1.202 1_455 S
C131 C129 1.363 . S
C131 C133 1.408 . S
C131 C136 1.342 . S
C132 C133 1.310 . S
C132 C135 1.461 . S
C132 H152 0.932 . S
C133 C131 1.408 . S
C133 C132 1.310 . S
C133 H153 0.930 . S
C134 C135 1.474 . S
C134 C136 1.285 . S
C134 H154 0.929 . S
C135 C132 1.461 . S
C135 C134 1.474 . S
C136 C131 1.342 . S
C136 C134 1.285 . S
C136 H155 0.930 . S
C137 C140 1.424 . S
C137 C142 1.245 . S
C137 C143 1.428 . S
C138 C141 1.260 . S
C138 C142 1.477 . S
C138 H156 0.932 . S
C139 C140 1.384 . S
C139 C141 1.479 . S
C139 H157 0.929 . S
C140 C137 1.424 . S
C140 C139 1.384 . S
C140 H158 0.928 . S
C141 C138 1.260 . S
C141 C139 1.479 . S
C142 C137 1.245 . S
C142 C138 1.477 . S
C142 H159 0.932 . S
C143 U126 2.882 1_655 S
C143 C137 1.428 . S
C143 O146 1.301 . S
C143 O147 1.282 . S
O144 U126 2.441 . S
O144 C130 1.249 . S
O145 U126 2.420 1_655 S
O145 C130 1.202 1_655 S
O146 U126 2.455 1_655 S
O146 C143 1.301 . S
O147 U126 2.449 1_655 S
O147 C143 1.282 . S
H148 C121 0.931 . S
H149 C123 0.929 . S
H150 C124 0.930 . S
H151 C125 0.931 . S
H152 C132 0.932 . S
H153 C133 0.930 . S
H154 C134 0.929 . S
H155 C136 0.930 . S
H156 C138 0.932 . S
H157 C139 0.929 . S
H158 C140 0.928 . S
H159 C142 0.932 . S
C160 C161 1.264 . S
C160 C165 1.479 . S
C160 C170 1.465 . S
C161 C160 1.264 . S
C161 C163 1.339 . S
C161 H188 0.931 . S
C162 C163 1.395 . S
C162 C164 1.320 . S
C163 C161 1.339 . S
C163 C162 1.395 . S
C163 H189 0.929 . S
C164 C162 1.320 . S
C164 C165 1.405 . S
C164 H190 0.930 . S
C165 C160 1.479 . S
C165 C164 1.405 . S
C165 H191 0.931 . S
U166 O167 2.454 1_655 S
U166 O168 2.458 . S
U166 C169 2.984 . S
U166 C170 2.847 1_655 S
U166 C183 2.882 . S
U166 O184 2.441 1_655 S
U166 O185 2.420 1_655 S
U166 O186 2.455 . S
U166 O187 2.449 . S
O167 U166 2.454 1_455 S
O167 C169 1.353 1_455 S
O168 U166 2.458 . S
O168 C169 1.286 . S
C169 U166 2.984 . S
C169 O167 1.353 1_655 S
C169 O168 1.286 . S
C169 C171 1.363 . S
C170 C160 1.465 . S
C170 U166 2.847 1_455 S
C170 O184 1.249 . S
C170 O185 1.202 . S
C171 C169 1.363 . S
C171 C173 1.408 1_655 S
C171 C176 1.342 . S
C172 C173 1.310 . S
C172 C175 1.461 1_455 S
C172 H192 0.932 . S
C173 C171 1.408 1_455 S
C173 C172 1.310 . S
C173 H193 0.930 . S
C174 C175 1.474 . S
C174 C176 1.285 . S
C174 H194 0.929 . S
C175 C172 1.461 1_655 S
C175 C174 1.474 . S
C176 C171 1.342 . S
C176 C174 1.285 . S
C176 H195 0.930 . S
C177 C180 1.424 . S
C177 C182 1.245 . S
C177 C183 1.428 . S
C178 C181 1.260 . S
C178 C182 1.477 . S
C178 H196 0.932 . S
C179 C180 1.384 . S
C179 C181 1.479 . S
C179 H197 0.929 . S
C180 C177 1.424 . S
C180 C179 1.384 . S
C180 H198 0.928 . S
C181 C178 1.260 . S
C181 C179 1.479 . S
C182 C177 1.245 . S
C182 C178 1.477 . S
C182 H199 0.932 . S
C183 U166 2.882 . S
C183 C177 1.428 . S
C183 O186 1.301 . S
C183 O187 1.282 . S
O184 U166 2.441 1_455 S
O184 C170 1.249 . S
O185 U166 2.420 1_455 S
O185 C170 1.202 . S
O186 U166 2.455 . S
O186 C183 1.301 . S
O187 U166 2.449 . S
O187 C183 1.282 . S
H188 C161 0.931 . S
H189 C163 0.929 . S
H190 C164 0.930 . S
H191 C165 0.931 . S
H192 C172 0.932 . S
H193 C173 0.930 . S
H194 C174 0.929 . S
H195 C176 0.930 . S
H196 C178 0.932 . S
H197 C179 0.929 . S
H198 C180 0.928 . S
H199 C182 0.932 . S
C200 C201 1.264 . S
C200 C205 1.479 . S
C200 C210 1.465 . S
C201 C200 1.264 . S
C201 C203 1.339 . S
C201 H228 0.931 . S
C202 C203 1.395 . S
C202 C204 1.320 . S
C203 C201 1.339 . S
C203 C202 1.395 . S
C203 H229 0.929 . S
C204 C202 1.320 . S
C204 C205 1.405 . S
C204 H230 0.930 . S
C205 C200 1.479 . S
C205 C204 1.405 . S
C205 H231 0.931 . S
U206 O207 2.454 1_554 S
U206 O208 2.458 1_554 S
U206 C209 2.984 1_554 S
U206 C210 2.847 . S
U206 C223 2.882 . S
U206 O224 2.441 . S
U206 O225 2.420 . S
U206 O226 2.455 . S
U206 O227 2.449 . S
O207 U206 2.454 1_556 S
O207 C209 1.353 . S
O208 U206 2.458 1_556 S
O208 C209 1.286 . S
C209 U206 2.984 1_556 S
C209 O207 1.353 . S
C209 O208 1.286 . S
C209 C211 1.363 . S
C210 C200 1.465 . S
C210 U206 2.847 . S
C210 O224 1.249 . S
C210 O225 1.202 . S
C211 C209 1.363 . S
C211 C213 1.408 . S
C211 C216 1.342 . S
C212 C213 1.310 . S
C212 C215 1.461 . S
C212 H232 0.932 . S
C213 C211 1.408 . S
C213 C212 1.310 . S
C213 H233 0.930 . S
C214 C215 1.474 . S
C214 C216 1.285 . S
C214 H234 0.929 . S
C215 C212 1.461 . S
C215 C214 1.474 . S
C216 C211 1.342 . S
C216 C214 1.285 . S
C216 H235 0.930 . S
C217 C220 1.424 . S
C217 C222 1.245 1_554 S
C217 C223 1.428 . S
C218 C221 1.260 . S
C218 C222 1.477 . S
C218 H236 0.932 . S
C219 C220 1.384 . S
C219 C221 1.479 1_554 S
C219 H237 0.929 . S
C220 C217 1.424 . S
C220 C219 1.384 . S
C220 H238 0.928 . S
C221 C218 1.260 . S
C221 C219 1.479 1_556 S
C222 C217 1.245 1_556 S
C222 C218 1.477 . S
C222 H239 0.932 . S
C223 U206 2.882 . S
C223 C217 1.428 . S
C223 O226 1.301 . S
C223 O227 1.282 . S
O224 U206 2.441 . S
O224 C210 1.249 . S
O225 U206 2.420 . S
O225 C210 1.202 . S
O226 U206 2.455 . S
O226 C223 1.301 . S
O227 U206 2.449 . S
O227 C223 1.282 . S
H228 C201 0.931 . S
H229 C203 0.929 . S
H230 C204 0.930 . S
H231 C205 0.931 . S
H232 C212 0.932 . S
H233 C213 0.930 . S
H234 C214 0.929 . S
H235 C216 0.930 . S
H236 C218 0.932 . S
H237 C219 0.929 . S
H238 C220 0.928 . S
H239 C222 0.932 . S
H240 C258 0.951 . S
H241 C260 0.951 . S
H242 C262 0.950 . S
H243 C263 0.950 . S
H244 C265 0.950 . S
H245 C268 0.950 . S
H246 C269 0.950 . S
H247 C271 0.950 . S
H248 C272 0.950 . S
H249 C273 0.951 . S
H250 C275 0.951 . S
H251 C277 0.950 . S
H252 C278 0.950 . S
H253 C280 0.950 . S
H254 C283 0.950 . S
H255 C284 0.950 . S
H256 C286 0.950 . S
H257 C287 0.950 . S
C258 H240 0.951 . S
C258 C259 1.366 . S
C258 C260 1.388 . S
C259 C258 1.366 . S
C259 C263 1.385 . S
C260 H241 0.951 . S
C260 C258 1.388 . S
C260 C261 1.366 . S
C261 C260 1.366 . S
C261 C262 1.414 . S
C261 C264 1.499 . S
C262 H242 0.950 . S
C262 C261 1.414 . S
C262 C263 1.374 . S
C263 H243 0.950 . S
C263 C259 1.385 . S
C263 C262 1.374 . S
C264 C261 1.499 . S
C264 C265 1.373 . S
C264 C266 1.389 . S
C265 H244 0.950 . S
C265 C264 1.373 . S
C265 C281 1.377 . S
C266 C264 1.389 . S
C266 C267 1.524 . S
C266 C280 1.377 . S
C267 C266 1.524 . S
C267 C268 1.397 . S
C267 C272 1.363 . S
C268 H245 0.950 . S
C268 C267 1.397 . S
C268 C269 1.334 . S
C269 H246 0.950 . S
C269 C268 1.334 . S
C269 C270 1.287 . S
C270 C269 1.287 . S
C270 C271 1.524 . S
C270 H289 0.913 . S
C271 H247 0.950 . S
C271 C270 1.524 . S
C271 C272 1.415 . S
C272 H248 0.950 . S
C272 C267 1.363 . S
C272 C271 1.415 . S
C273 H249 0.951 . S
C273 C274 1.366 . S
C273 C275 1.388 . S
C274 C273 1.366 . S
C274 C278 1.385 . S
C275 H250 0.951 . S
C275 C273 1.388 . S
C275 C276 1.366 . S
C276 C275 1.366 . S
C276 C277 1.414 . S
C276 C279 1.499 . S
C277 H251 0.950 . S
C277 C276 1.414 . S
C277 C278 1.374 . S
C278 H252 0.950 . S
C278 C274 1.385 . S
C278 C277 1.374 . S
C279 C276 1.499 . S
C279 C280 1.373 . S
C279 C281 1.389 . S
C280 H253 0.950 . S
C280 C266 1.377 . S
C280 C279 1.373 . S
C281 C265 1.377 . S
C281 C279 1.389 . S
C281 C282 1.524 . S
C282 C281 1.524 . S
C282 C283 1.397 . S
C282 C287 1.363 . S
C283 H254 0.950 . S
C283 C282 1.397 . S
C283 C284 1.334 . S
C284 H255 0.950 . S
C284 C283 1.334 . S
C284 C285 1.287 . S
C285 C284 1.287 . S
C285 C286 1.524 . S
C285 H288 0.999 . S
C286 H256 0.950 . S
C286 C285 1.524 . S
C286 C287 1.415 . S
C287 H257 0.950 . S
C287 C282 1.363 . S
C287 C286 1.415 . S
H288 C285 0.999 . S
H289 C270 0.913 . S
H290 C308 0.951 . S
H291 C310 0.951 . S
H292 C312 0.950 . S
H293 C313 0.950 . S
H294 C315 0.950 . S
H295 C318 0.950 . S
H296 C319 0.950 . S
H297 C321 0.950 . S
H298 C322 0.950 . S
H299 C323 0.951 . S
H300 C325 0.951 . S
H301 C327 0.950 . S
H302 C328 0.950 . S
H303 C330 0.950 . S
H304 C333 0.950 . S
H305 C334 0.950 . S
H306 C336 0.950 . S
H307 C337 0.950 . S
C308 H290 0.951 . S
C308 C309 1.366 . S
C308 C310 1.388 . S
C309 C308 1.366 . S
C309 C313 1.385 . S
C310 H291 0.951 . S
C310 C308 1.388 . S
C310 C311 1.366 . S
C311 C310 1.366 . S
C311 C312 1.414 . S
C311 C314 1.499 . S
C312 H292 0.950 . S
C312 C311 1.414 . S
C312 C313 1.374 . S
C313 H293 0.950 . S
C313 C309 1.385 . S
C313 C312 1.374 . S
C314 C311 1.499 . S
C314 C315 1.373 . S
C314 C316 1.389 . S
C315 H294 0.950 . S
C315 C314 1.373 . S
C315 C331 1.377 . S
C316 C314 1.389 . S
C316 C317 1.524 . S
C316 C330 1.377 . S
C317 C316 1.524 . S
C317 C318 1.397 . S
C317 C322 1.363 . S
C318 H295 0.950 . S
C318 C317 1.397 . S
C318 C319 1.334 . S
C319 H296 0.950 . S
C319 C318 1.334 . S
C319 C320 1.287 . S
C320 C319 1.287 . S
C320 C321 1.524 . S
C320 H339 0.913 . S
C321 H297 0.950 . S
C321 C320 1.524 . S
C321 C322 1.415 . S
C322 H298 0.950 . S
C322 C317 1.363 . S
C322 C321 1.415 . S
C323 H299 0.951 . S
C323 C324 1.366 . S
C323 C325 1.388 . S
C324 C323 1.366 . S
C324 C328 1.385 . S
C325 H300 0.951 . S
C325 C323 1.388 . S
C325 C326 1.366 . S
C326 C325 1.366 . S
C326 C327 1.414 . S
C326 C329 1.499 . S
C327 H301 0.950 . S
C327 C326 1.414 . S
C327 C328 1.374 . S
C328 H302 0.950 . S
C328 C324 1.385 . S
C328 C327 1.374 . S
C329 C326 1.499 . S
C329 C330 1.373 . S
C329 C331 1.389 . S
C330 H303 0.950 . S
C330 C316 1.377 . S
C330 C329 1.373 . S
C331 C315 1.377 . S
C331 C329 1.389 . S
C331 C332 1.524 . S
C332 C331 1.524 . S
C332 C333 1.397 . S
C332 C337 1.363 . S
C333 H304 0.950 . S
C333 C332 1.397 . S
C333 C334 1.334 . S
C334 H305 0.950 . S
C334 C333 1.334 . S
C334 C335 1.287 . S
C335 C334 1.287 . S
C335 C336 1.524 . S
C335 H338 0.999 . S
C336 H306 0.950 . S
C336 C335 1.524 . S
C336 C337 1.415 . S
C337 H307 0.950 . S
C337 C332 1.363 . S
C337 C336 1.415 . S
H338 C335 0.999 . S
H339 C320 0.913 . S
H340 C358 0.951 . S
H341 C360 0.951 . S
H342 C362 0.950 . S
H343 C363 0.950 . S
H344 C365 0.950 . S
H345 C368 0.950 . S
H346 C369 0.950 . S
H347 C371 0.950 . S
H348 C372 0.950 . S
H349 C373 0.951 . S
H350 C375 0.951 . S
H351 C377 0.950 . S
H352 C378 0.950 . S
H353 C380 0.950 . S
H354 C383 0.950 . S
H355 C384 0.950 . S
H356 C386 0.950 . S
H357 C387 0.950 . S
C358 H340 0.951 . S
C358 C359 1.366 . S
C358 C360 1.388 . S
C359 C358 1.366 . S
C359 C363 1.385 . S
C360 H341 0.951 . S
C360 C358 1.388 . S
C360 C361 1.366 . S
C361 C360 1.366 . S
C361 C362 1.414 . S
C361 C364 1.499 . S
C362 H342 0.950 . S
C362 C361 1.414 . S
C362 C363 1.374 . S
C363 H343 0.950 . S
C363 C359 1.385 . S
C363 C362 1.374 . S
C364 C361 1.499 . S
C364 C365 1.373 . S
C364 C366 1.389 . S
C365 H344 0.950 . S
C365 C364 1.373 . S
C365 C381 1.377 . S
C366 C364 1.389 . S
C366 C367 1.524 . S
C366 C380 1.377 . S
C367 C366 1.524 . S
C367 C368 1.397 . S
C367 C372 1.363 . S
C368 H345 0.950 . S
C368 C367 1.397 . S
C368 C369 1.334 . S
C369 H346 0.950 . S
C369 C368 1.334 . S
C369 C370 1.287 . S
C370 C369 1.287 . S
C370 C371 1.524 . S
C370 H389 0.913 . S
C371 H347 0.950 . S
C371 C370 1.524 . S
C371 C372 1.415 . S
C372 H348 0.950 . S
C372 C367 1.363 . S
C372 C371 1.415 . S
C373 H349 0.951 . S
C373 C374 1.366 . S
C373 C375 1.388 . S
C374 C373 1.366 . S
C374 C378 1.385 . S
C375 H350 0.951 . S
C375 C373 1.388 . S
C375 C376 1.366 . S
C376 C375 1.366 . S
C376 C377 1.414 . S
C376 C379 1.499 . S
C377 H351 0.950 . S
C377 C376 1.414 . S
C377 C378 1.374 . S
C378 H352 0.950 . S
C378 C374 1.385 . S
C378 C377 1.374 . S
C379 C376 1.499 . S
C379 C380 1.373 . S
C379 C381 1.389 . S
C380 H353 0.950 . S
C380 C366 1.377 . S
C380 C379 1.373 . S
C381 C365 1.377 . S
C381 C379 1.389 . S
C381 C382 1.524 . S
C382 C381 1.524 . S
C382 C383 1.397 . S
C382 C387 1.363 . S
C383 H354 0.950 . S
C383 C382 1.397 . S
C383 C384 1.334 1_554 S
C384 H355 0.950 . S
C384 C383 1.334 1_556 S
C384 C385 1.287 1_556 S
C385 C384 1.287 1_554 S
C385 C386 1.524 . S
C385 H388 0.999 1_554 S
C386 H356 0.950 . S
C386 C385 1.524 . S
C386 C387 1.415 . S
C387 H357 0.950 . S
C387 C382 1.363 . S
C387 C386 1.415 . S
H388 C385 0.999 1_556 S
H389 C370 0.913 . S
H390 C408 0.951 . S
H391 C410 0.951 . S
H392 C412 0.950 . S
H393 C413 0.950 . S
H394 C415 0.950 . S
H395 C418 0.950 . S
H396 C419 0.957 . S
H397 C421 0.950 . S
H398 C422 0.950 . S
H399 C423 0.951 . S
H400 C425 0.951 . S
H401 C427 0.950 . S
H402 C428 0.950 . S
H403 C430 0.950 . S
H404 C433 0.950 . S
H405 C434 0.950 . S
H406 C436 0.950 . S
H407 C437 0.950 . S
C408 H390 0.951 . S
C408 C409 1.366 . S
C408 C410 1.388 1_565 S
C409 C408 1.366 . S
C409 C413 1.385 1_665 S
C410 H391 0.951 . S
C410 C408 1.388 1_545 S
C410 C411 1.366 . S
C411 C410 1.366 . S
C411 C412 1.414 1_655 S
C411 C414 1.499 . S
C412 H392 0.950 . S
C412 C411 1.414 1_455 S
C412 C413 1.374 . S
C413 H393 0.950 . S
C413 C409 1.385 1_445 S
C413 C412 1.374 . S
C414 C411 1.499 . S
C414 C415 1.373 1_655 S
C414 C416 1.389 . S
C415 H394 0.950 . S
C415 C414 1.373 1_455 S
C415 C431 1.377 . S
C416 C414 1.389 . S
C416 C417 1.524 . S
C416 C430 1.377 . S
C417 C416 1.524 . S
C417 C418 1.397 . S
C417 C422 1.363 . S
C418 H395 0.950 . S
C418 C417 1.397 . S
C418 C419 1.329 1_545 S
C419 H396 0.957 . S
C419 C418 1.329 1_565 S
C419 C420 1.284 . S
C420 C419 1.284 . S
C420 C421 1.524 1_565 S
C420 H439 0.913 . S
C421 H397 0.950 . S
C421 C420 1.524 1_545 S
C421 C422 1.415 . S
C422 H398 0.950 . S
C422 C417 1.363 . S
C422 C421 1.415 . S
C423 H399 0.951 . S
C423 C424 1.366 1_455 S
C423 C425 1.388 . S
C424 C423 1.366 1_655 S
C424 C428 1.385 . S
C425 H400 0.951 . S
C425 C423 1.388 . S
C425 C426 1.366 1_455 S
C426 C425 1.366 1_655 S
C426 C427 1.414 . S
C426 C429 1.499 . S
C427 H401 0.950 . S
C427 C426 1.414 . S
C427 C428 1.374 . S
C428 H402 0.950 . S
C428 C424 1.385 . S
C428 C427 1.374 . S
C429 C426 1.499 . S
C429 C430 1.373 . S
C429 C431 1.389 1_655 S
C430 H403 0.950 . S
C430 C416 1.377 . S
C430 C429 1.373 . S
C431 C415 1.377 . S
C431 C429 1.389 1_455 S
C431 C432 1.524 . S
C432 C431 1.524 . S
C432 C433 1.397 . S
C432 C437 1.363 . S
C433 H404 0.950 . S
C433 C432 1.397 . S
C433 C434 1.334 . S
C434 H405 0.950 . S
C434 C433 1.334 . S
C434 C435 1.287 . S
C435 C434 1.287 . S
C435 C436 1.524 . S
C435 H438 0.999 . S
C436 H406 0.950 . S
C436 C435 1.524 . S
C436 C437 1.415 . S
C437 H407 0.950 . S
C437 C432 1.363 . S
C437 C436 1.415 . S
H438 C435 0.999 . S
H439 C420 0.913 . S
H440 C458 0.951 . S
H441 C460 0.951 . S
H442 C462 0.950 . S
H443 C463 0.950 . S
H444 C465 0.950 . S
H445 C468 0.950 . S
H446 C469 0.950 . S
H447 C471 0.950 . S
H448 C472 0.950 . S
H449 C473 0.951 . S
H450 C475 0.951 . S
H451 C477 0.950 . S
H452 C478 0.950 . S
H453 C480 0.950 . S
H454 C483 0.950 . S
H455 C484 0.950 . S
H456 C486 0.950 . S
H457 C487 0.950 . S
C458 H440 0.951 . S
C458 C459 1.366 . S
C458 C460 1.388 . S
C459 C458 1.366 . S
C459 C463 1.385 . S
C460 H441 0.951 . S
C460 C458 1.388 . S
C460 C461 1.366 . S
C461 C460 1.366 . S
C461 C462 1.414 . S
C461 C464 1.499 . S
C462 H442 0.950 . S
C462 C461 1.414 . S
C462 C463 1.374 . S
C463 H443 0.950 . S
C463 C459 1.385 . S
C463 C462 1.374 . S
C464 C461 1.499 . S
C464 C465 1.373 . S
C464 C466 1.389 . S
C465 H444 0.950 . S
C465 C464 1.373 . S
C465 C481 1.377 . S
C466 C464 1.389 . S
C466 C467 1.524 . S
C466 C480 1.377 . S
C467 C466 1.524 . S
C467 C468 1.397 . S
C467 C472 1.363 . S
C468 H445 0.950 . S
C468 C467 1.397 . S
C468 C469 1.334 . S
C469 H446 0.950 . S
C469 C468 1.334 . S
C469 C470 1.287 . S
C470 C469 1.287 . S
C470 C471 1.524 . S
C470 H489 0.913 . S
C471 H447 0.950 . S
C471 C470 1.524 . S
C471 C472 1.415 . S
C472 H448 0.950 . S
C472 C467 1.363 . S
C472 C471 1.415 . S
C473 H449 0.951 . S
C473 C474 1.366 . S
C473 C475 1.388 . S
C474 C473 1.366 . S
C474 C478 1.385 . S
C475 H450 0.951 . S
C475 C473 1.388 . S
C475 C476 1.366 . S
C476 C475 1.366 . S
C476 C477 1.414 . S
C476 C479 1.499 . S
C477 H451 0.950 . S
C477 C476 1.414 . S
C477 C478 1.374 . S
C478 H452 0.950 . S
C478 C474 1.385 . S
C478 C477 1.374 . S
C479 C476 1.499 . S
C479 C480 1.373 . S
C479 C481 1.389 . S
C480 H453 0.950 . S
C480 C466 1.377 . S
C480 C479 1.373 . S
C481 C465 1.377 . S
C481 C479 1.389 . S
C481 C482 1.524 . S
C482 C481 1.524 . S
C482 C483 1.397 . S
C482 C487 1.363 . S
C483 H454 0.950 . S
C483 C482 1.397 . S
C483 C484 1.334 . S
C484 H455 0.950 . S
C484 C483 1.334 . S
C484 C485 1.287 . S
C485 C484 1.287 . S
C485 C486 1.524 . S
C485 H488 0.999 . S
C486 H456 0.950 . S
C486 C485 1.524 . S
C486 C487 1.415 . S
C487 H457 0.950 . S
C487 C482 1.363 . S
C487 C486 1.415 . S
H488 C485 0.999 . S
H489 C470 0.913 . S
H490 C508 0.951 . S
H491 C510 0.951 . S
H492 C512 0.950 . S
H493 C513 0.950 . S
H494 C515 0.950 . S
H495 C518 0.950 1_556 S
H496 C519 0.950 . S
H497 C521 0.950 . S
H498 C522 0.950 . S
H499 C523 0.951 . S
H500 C525 0.951 . S
H501 C527 0.950 . S
H502 C528 0.950 . S
H503 C530 0.950 . S
H504 C533 0.950 . S
H505 C534 0.950 . S
H506 C536 0.950 . S
H507 C537 0.950 . S
C508 H490 0.951 . S
C508 C509 1.366 1_545 S
C508 C510 1.388 . S
C509 C508 1.366 1_565 S
C509 C513 1.385 . S
C510 H491 0.951 . S
C510 C508 1.388 . S
C510 C511 1.366 . S
C511 C510 1.366 . S
C511 C512 1.414 . S
C511 C514 1.499 . S
C512 H492 0.950 . S
C512 C511 1.414 . S
C512 C513 1.374 1_545 S
C513 H493 0.950 . S
C513 C509 1.385 . S
C513 C512 1.374 1_565 S
C514 C511 1.499 . S
C514 C515 1.373 . S
C514 C516 1.389 . S
C515 H494 0.950 . S
C515 C514 1.373 . S
C515 C531 1.377 . S
C516 C514 1.389 . S
C516 C517 1.524 . S
C516 C530 1.377 . S
C517 C516 1.524 . S
C517 C518 1.397 . S
C517 C522 1.363 . S
C518 H495 0.950 1_554 S
C518 C517 1.397 . S
C518 C519 1.334 1_554 S
C519 H496 0.950 . S
C519 C518 1.334 1_556 S
C519 C520 1.287 1_556 S
C520 C519 1.287 1_554 S
C520 C521 1.524 . S
C520 H539 0.913 . S
C521 H497 0.950 . S
C521 C520 1.524 . S
C521 C522 1.415 . S
C522 H498 0.950 . S
C522 C517 1.363 . S
C522 C521 1.415 . S
C523 H499 0.951 . S
C523 C524 1.366 . S
C523 C525 1.388 . S
C524 C523 1.366 . S
C524 C528 1.385 . S
C525 H500 0.951 . S
C525 C523 1.388 . S
C525 C526 1.366 . S
C526 C525 1.366 . S
C526 C527 1.414 . S
C526 C529 1.499 . S
C527 H501 0.950 . S
C527 C526 1.414 . S
C527 C528 1.374 . S
C528 H502 0.950 . S
C528 C524 1.385 . S
C528 C527 1.374 . S
C529 C526 1.499 . S
C529 C530 1.373 . S
C529 C531 1.389 . S
C530 H503 0.950 . S
C530 C516 1.377 . S
C530 C529 1.373 . S
C531 C515 1.377 . S
C531 C529 1.389 . S
C531 C532 1.524 . S
C532 C531 1.524 . S
C532 C533 1.397 . S
C532 C537 1.363 . S
C533 H504 0.950 . S
C533 C532 1.397 . S
C533 C534 1.334 . S
C534 H505 0.950 . S
C534 C533 1.334 . S
C534 C535 1.287 . S
C535 C534 1.287 . S
C535 C536 1.524 . S
C535 H538 0.999 . S
C536 H506 0.950 . S
C536 C535 1.524 . S
C536 C537 1.415 . S
C537 H507 0.950 . S
C537 C532 1.363 . S
C537 C536 1.415 . S
H538 C535 0.999 . S
H539 C520 0.913 . S
H540 C558 0.951 . S
H541 C560 0.951 . S
H542 C562 0.950 . S
H543 C563 0.950 . S
H544 C565 0.950 . S
H545 C568 0.950 . S
H546 C569 0.950 . S
H547 C571 0.950 . S
H548 C572 0.950 . S
H549 C573 0.951 . S
H550 C575 0.951 . S
H551 C577 0.950 . S
H552 C578 0.950 . S
H553 C580 0.950 . S
H554 C583 0.950 . S
H555 C584 0.950 . S
H556 C586 0.950 . S
H557 C587 0.950 . S
C558 H540 0.951 . S
C558 C559 1.366 . S
C558 C560 1.388 . S
C559 C558 1.366 . S
C559 C563 1.385 . S
C560 H541 0.951 . S
C560 C558 1.388 . S
C560 C561 1.366 . S
C561 C560 1.366 . S
C561 C562 1.414 . S
C561 C564 1.499 . S
C562 H542 0.950 . S
C562 C561 1.414 . S
C562 C563 1.374 . S
C563 H543 0.950 . S
C563 C559 1.385 . S
C563 C562 1.374 . S
C564 C561 1.499 . S
C564 C565 1.373 . S
C564 C566 1.389 . S
C565 H544 0.950 . S
C565 C564 1.373 . S
C565 C581 1.377 . S
C566 C564 1.389 . S
C566 C567 1.524 . S
C566 C580 1.377 . S
C567 C566 1.524 . S
C567 C568 1.397 . S
C567 C572 1.363 . S
C568 H545 0.950 . S
C568 C567 1.397 . S
C568 C569 1.334 . S
C569 H546 0.950 . S
C569 C568 1.334 . S
C569 C570 1.287 . S
C570 C569 1.287 . S
C570 C571 1.524 . S
C570 H589 0.913 . S
C571 H547 0.950 . S
C571 C570 1.524 . S
C571 C572 1.415 . S
C572 H548 0.950 . S
C572 C567 1.363 . S
C572 C571 1.415 . S
C573 H549 0.951 . S
C573 C574 1.366 . S
C573 C575 1.388 . S
C574 C573 1.366 . S
C574 C578 1.385 . S
C575 H550 0.951 . S
C575 C573 1.388 . S
C575 C576 1.366 . S
C576 C575 1.366 . S
C576 C577 1.414 . S
C576 C579 1.499 . S
C577 H551 0.950 . S
C577 C576 1.414 . S
C577 C578 1.374 . S
C578 H552 0.950 . S
C578 C574 1.385 . S
C578 C577 1.374 . S
C579 C576 1.499 . S
C579 C580 1.373 . S
C579 C581 1.389 . S
C580 H553 0.950 . S
C580 C566 1.377 . S
C580 C579 1.373 . S
C581 C565 1.377 . S
C581 C579 1.389 . S
C581 C582 1.524 . S
C582 C581 1.524 . S
C582 C583 1.397 . S
C582 C587 1.363 . S
C583 H554 0.950 . S
C583 C582 1.397 . S
C583 C584 1.334 . S
C584 H555 0.950 . S
C584 C583 1.334 . S
C584 C585 1.287 . S
C585 C584 1.287 . S
C585 C586 1.524 . S
C585 H588 0.999 . S
C586 H556 0.950 . S
C586 C585 1.524 . S
C586 C587 1.415 . S
C587 H557 0.950 . S
C587 C582 1.363 . S
C587 C586 1.415 . S
H588 C585 0.999 . S
H589 C570 0.913 . S
H590 C608 0.951 . S
H591 C610 0.951 . S
H592 C612 0.950 . S
H593 C613 0.950 . S
H594 C615 0.950 . S
H595 C618 0.950 . S
H596 C619 0.950 . S
H597 C621 0.950 . S
H598 C622 0.950 . S
H599 C623 0.951 . S
H600 C625 0.951 . S
H601 C627 0.950 . S
H602 C628 0.950 . S
H603 C630 0.950 . S
H604 C633 0.950 . S
H605 C634 0.950 . S
H606 C636 0.950 . S
H607 C637 0.950 . S
C608 H590 0.951 . S
C608 C609 1.366 . S
C608 C610 1.388 . S
C609 C608 1.366 . S
C609 C613 1.385 . S
C610 H591 0.951 . S
C610 C608 1.388 . S
C610 C611 1.366 . S
C611 C610 1.366 . S
C611 C612 1.414 . S
C611 C614 1.499 . S
C612 H592 0.950 . S
C612 C611 1.414 . S
C612 C613 1.374 . S
C613 H593 0.950 . S
C613 C609 1.385 . S
C613 C612 1.374 . S
C614 C611 1.499 . S
C614 C615 1.373 . S
C614 C616 1.389 . S
C615 H594 0.950 . S
C615 C614 1.373 . S
C615 C631 1.377 . S
C616 C614 1.389 . S
C616 C617 1.524 . S
C616 C630 1.377 . S
C617 C616 1.524 . S
C617 C618 1.397 . S
C617 C622 1.363 . S
C618 H595 0.950 . S
C618 C617 1.397 . S
C618 C619 1.334 . S
C619 H596 0.950 . S
C619 C618 1.334 . S
C619 C620 1.287 . S
C620 C619 1.287 . S
C620 C621 1.524 . S
C620 H639 0.913 . S
C621 H597 0.950 . S
C621 C620 1.524 . S
C621 C622 1.415 . S
C622 H598 0.950 . S
C622 C617 1.363 . S
C622 C621 1.415 . S
C623 H599 0.951 . S
C623 C624 1.366 . S
C623 C625 1.388 . S
C624 C623 1.366 . S
C624 C628 1.385 . S
C625 H600 0.951 . S
C625 C623 1.388 . S
C625 C626 1.366 . S
C626 C625 1.366 . S
C626 C627 1.414 . S
C626 C629 1.499 . S
C627 H601 0.950 . S
C627 C626 1.414 . S
C627 C628 1.374 . S
C628 H602 0.950 . S
C628 C624 1.385 . S
C628 C627 1.374 . S
C629 C626 1.499 . S
C629 C630 1.373 . S
C629 C631 1.389 . S
C630 H603 0.950 . S
C630 C616 1.377 . S
C630 C629 1.373 . S
C631 C615 1.377 . S
C631 C629 1.389 . S
C631 C632 1.524 . S
C632 C631 1.524 . S
C632 C633 1.397 . S
C632 C637 1.363 . S
C633 H604 0.950 . S
C633 C632 1.397 . S
C633 C634 1.334 . S
C634 H605 0.950 . S
C634 C633 1.334 . S
C634 C635 1.287 . S
C635 C634 1.287 . S
C635 C636 1.524 . S
C635 H638 0.999 . S
C636 H606 0.950 . S
C636 C635 1.524 . S
C636 C637 1.415 . S
C637 H607 0.950 . S
C637 C632 1.363 . S
C637 C636 1.415 . S
H638 C635 0.999 . S
H639 C620 0.913 . S
H640 C658 0.951 . S
H641 C660 0.951 . S
H642 C662 0.950 1_554 S
H643 C663 0.950 1_554 S
H644 C665 0.950 . S
H645 C668 0.950 . S
H646 C669 0.950 . S
H647 C671 0.950 . S
H648 C672 0.950 . S
H649 C673 0.951 1_554 S
H650 C675 0.949 1_554 S
H651 C677 0.950 . S
H652 C678 0.950 . S
H653 C680 0.950 . S
H654 C683 0.950 . S
H655 C684 0.950 . S
H656 C686 0.950 . S
H657 C687 0.950 . S
C658 H640 0.951 . S
C658 C659 1.366 . S
C658 C660 1.388 . S
C659 C658 1.366 . S
C659 C663 1.385 . S
C660 H641 0.951 . S
C660 C658 1.388 . S
C660 C661 1.366 . S
C661 C660 1.366 . S
C661 C662 1.414 . S
C661 C664 1.499 . S
C662 H642 0.950 1_556 S
C662 C661 1.414 . S
C662 C663 1.374 . S
C663 H643 0.950 1_556 S
C663 C659 1.385 . S
C663 C662 1.374 . S
C664 C661 1.499 . S
C664 C665 1.373 1_556 S
C664 C666 1.389 . S
C665 H644 0.950 . S
C665 C664 1.373 1_554 S
C665 C681 1.377 . S
C666 C664 1.389 . S
C666 C667 1.524 . S
C666 C680 1.377 . S
C667 C666 1.524 . S
C667 C668 1.397 . S
C667 C672 1.363 . S
C668 H645 0.950 . S
C668 C667 1.397 . S
C668 C669 1.334 . S
C669 H646 0.950 . S
C669 C668 1.334 . S
C669 C670 1.287 . S
C670 C669 1.287 . S
C670 C671 1.524 . S
C670 H689 0.913 . S
C671 H647 0.950 . S
C671 C670 1.524 . S
C671 C672 1.415 . S
C672 H648 0.950 . S
C672 C667 1.363 . S
C672 C671 1.415 . S
C673 H649 0.951 1_556 S
C673 C674 1.366 . S
C673 C675 1.388 . S
C674 C673 1.366 . S
C674 C678 1.385 . S
C675 H650 0.949 1_556 S
C675 C673 1.388 . S
C675 C676 1.367 . S
C676 C675 1.367 . S
C676 C677 1.414 . S
C676 C679 1.499 . S
C677 H651 0.950 . S
C677 C676 1.414 . S
C677 C678 1.374 . S
C678 H652 0.950 . S
C678 C674 1.385 . S
C678 C677 1.374 . S
C679 C676 1.499 . S
C679 C680 1.373 . S
C679 C681 1.389 1_556 S
C680 H653 0.950 . S
C680 C666 1.377 . S
C680 C679 1.373 . S
C681 C665 1.377 . S
C681 C679 1.389 1_554 S
C681 C682 1.524 . S
C682 C681 1.524 . S
C682 C683 1.397 . S
C682 C687 1.363 . S
C683 H654 0.950 . S
C683 C682 1.397 . S
C683 C684 1.334 . S
C684 H655 0.950 . S
C684 C683 1.334 . S
C684 C685 1.287 . S
C685 C684 1.287 . S
C685 C686 1.524 . S
C685 H688 0.999 . S
C686 H656 0.950 . S
C686 C685 1.524 . S
C686 C687 1.415 . S
C687 H657 0.950 . S
C687 C682 1.363 . S
C687 C686 1.415 . S
H688 C685 0.999 . S
H689 C670 0.913 . S
C259 C2 1.487 . S
C274 C55 1.503 . S
C309 C42 1.490 . S
C324 C95 1.503 . S
C359 C82 1.497 . S
C374 C135 1.506 . S
C409 C175 1.503 . S
C424 C122 1.487 . S
C459 C162 1.489 . S
C474 C215 1.503 . S
C509 C202 1.497 . S
C524 C15 1.506 . S
C559 C141 1.490 . S
C574 C21 1.490 . S
C609 C61 1.486 . S
C624 C181 1.486 . S
C659 C101 1.494 . S
C674 C221 1.495 . S
