# Generated by pormake.
# Topology unf, (4)-cn, num edge types: 1
# Building blocks:
#     Node 0, Type 0, BuildingBlock: GALJAG_clean_sbu_0, # of connection points: 4
#     Node 1, Type 0, BuildingBlock: GALJAG_clean_sbu_0, # of connection points: 4
#     Node 2, Type 0, BuildingBlock: GALJAG_clean_sbu_0, # of connection points: 4
#     Node 3, Type 0, BuildingBlock: GALJAG_clean_sbu_0, # of connection points: 4
#     Node 4, Type 0, BuildingBlock: GALJAG_clean_sbu_0, # of connection points: 4
#     Node 5, Type 0, BuildingBlock: GALJAG_clean_sbu_0, # of connection points: 4
#     Node 6, Type 0, BuildingBlock: GALJAG_clean_sbu_0, # of connection points: 4
#     Node 7, Type 0, BuildingBlock: GALJAG_clean_sbu_0, # of connection points: 4
#     Node 8, Type 0, BuildingBlock: GALJAG_clean_sbu_0, # of connection points: 4
#     Node 9, Type 0, BuildingBlock: GALJAG_clean_sbu_0, # of connection points: 4
#     Node 10, Type 0, BuildingBlock: GALJAG_clean_sbu_0, # of connection points: 4
#     Node 11, Type 0, BuildingBlock: GALJAG_clean_sbu_0, # of connection points: 4
#     Edge 12, Type (0, 0), BuildingBlock: TEMPAE_clean_linker_10, # of connection points: 2
#     Edge 13, Type (0, 0), BuildingBlock: TEMPAE_clean_linker_10, # of connection points: 2
#     Edge 14, Type (0, 0), BuildingBlock: TEMPAE_clean_linker_10, # of connection points: 2
#     Edge 15, Type (0, 0), BuildingBlock: TEMPAE_clean_linker_10, # of connection points: 2
#     Edge 16, Type (0, 0), BuildingBlock: TEMPAE_clean_linker_10, # of connection points: 2
#     Edge 17, Type (0, 0), BuildingBlock: TEMPAE_clean_linker_10, # of connection points: 2
#     Edge 18, Type (0, 0), BuildingBlock: TEMPAE_clean_linker_10, # of connection points: 2
#     Edge 19, Type (0, 0), BuildingBlock: TEMPAE_clean_linker_10, # of connection points: 2
#     Edge 20, Type (0, 0), BuildingBlock: TEMPAE_clean_linker_10, # of connection points: 2
#     Edge 21, Type (0, 0), BuildingBlock: TEMPAE_clean_linker_10, # of connection points: 2
#     Edge 22, Type (0, 0), BuildingBlock: TEMPAE_clean_linker_10, # of connection points: 2
#     Edge 23, Type (0, 0), BuildingBlock: TEMPAE_clean_linker_10, # of connection points: 2
#     Edge 24, Type (0, 0), BuildingBlock: TEMPAE_clean_linker_10, # of connection points: 2
#     Edge 25, Type (0, 0), BuildingBlock: TEMPAE_clean_linker_10, # of connection points: 2
#     Edge 26, Type (0, 0), BuildingBlock: TEMPAE_clean_linker_10, # of connection points: 2
#     Edge 27, Type (0, 0), BuildingBlock: TEMPAE_clean_linker_10, # of connection points: 2
#     Edge 28, Type (0, 0), BuildingBlock: TEMPAE_clean_linker_10, # of connection points: 2
#     Edge 29, Type (0, 0), BuildingBlock: TEMPAE_clean_linker_10, # of connection points: 2
#     Edge 30, Type (0, 0), BuildingBlock: TEMPAE_clean_linker_10, # of connection points: 2
#     Edge 31, Type (0, 0), BuildingBlock: TEMPAE_clean_linker_10, # of connection points: 2
#     Edge 32, Type (0, 0), BuildingBlock: TEMPAE_clean_linker_10, # of connection points: 2
#     Edge 33, Type (0, 0), BuildingBlock: TEMPAE_clean_linker_10, # of connection points: 2
#     Edge 34, Type (0, 0), BuildingBlock: TEMPAE_clean_linker_10, # of connection points: 2
#     Edge 35, Type (0, 0), BuildingBlock: TEMPAE_clean_linker_10, # of connection points: 2
# Relax obj value: 0.104
# Max RMSD: 0.121
# Mean RMSD: 0.121
data_MOF--net-unf--node1-GALJAG_clean_sbu_0--edge1-TEMPAE_clean_linker_10
_symmetry_space_group_name_H-M    P1
_symmetry_Int_Tables_number       1
_symmetry_cell_setting            triclinic
loop_
_symmetry_equiv_pos_as_xyz
'x, y, z'
_cell_length_a     40.215578
_cell_length_b     40.218098
_cell_length_c     35.336052
_cell_angle_alpha  90.005075
_cell_angle_beta   90.019546
_cell_angle_gamma 119.99491
loop_
_atom_site_label
_atom_site_type_symbol
_atom_site_fract_x
_atom_site_fract_y
_atom_site_fract_z
_atom_type_partial_charge
In0 In 0.09156 0.4111 0.06601 0.0
O1 O 0.09495 0.38966 0.12499 0.0
O2 O 0.14536 0.43703 0.10256 0.0
C3 C 0.02088 0.35416 0.04865 0.0
C4 C 0.13377 0.4002 0.01367 0.0
C5 C 0.07481 0.46803 0.06651 0.0
O6 O 0.03824 0.35328 0.07817 0.0
O7 O 0.03948 0.38339 0.02802 0.0
O8 O 0.09491 0.46481 0.04096 0.0
O9 O 0.06546 0.44408 0.09308 0.0
C10 C 0.13011 0.4137 0.12948 0.0
O11 O 0.14269 0.4332 0.02565 0.0
O12 O 0.1036 0.3731 0.02776 0.0
In13 In 0.60909 0.70892 0.08842 0.0
O14 O 0.62446 0.7296 0.1494 0.0
O15 O 0.57315 0.72424 0.12623 0.0
C16 C 0.66548 0.69677 0.06543 0.0
C17 C 0.62812 0.77035 0.04472 0.0
C18 C 0.55476 0.63488 0.08182 0.0
O19 O 0.66357 0.70594 0.09934 0.0
O20 O 0.63932 0.69423 0.04381 0.0
O21 O 0.55526 0.6606 0.06082 0.0
O22 O 0.58014 0.64704 0.1073 0.0
C23 C 0.5955 0.73357 0.15425 0.0
O24 O 0.59465 0.74136 0.04422 0.0
O25 O 0.65115 0.76825 0.06749 0.0
In26 In 0.29026 0.89716 0.04657 0.0
O27 O 0.25878 0.85309 0.00025 0.0
O28 O 0.22595 0.8681 0.03634 0.0
C29 C 0.36183 0.91761 0.02404 0.0
C30 C 0.27797 0.85944 0.11251 0.0
C31 C 0.29393 0.96562 0.03841 0.0
O32 O 0.33317 0.90191 0.00238 0.0
O33 O 0.35421 0.92117 0.0579 0.0
O34 O 0.28722 0.94882 0.06995 0.0
O35 O 0.2978 0.94751 0.01136 0.0
C36 C 0.22625 0.84842 0.00867 0.0
O37 O 0.28531 0.89379 0.11049 0.0
O38 O 0.27807 0.84436 0.08117 0.0
In39 In 0.59833 0.90425 0.45504 0.0
O40 O 0.58153 0.85071 0.49064 0.0
O41 O 0.64071 0.88828 0.47946 0.0
C42 C 0.5439 0.92054 0.4771 0.0
C43 C 0.58176 0.86851 0.3875 0.0
C44 C 0.6608 0.9743 0.4616 0.0
O45 O 0.5612 0.91015 0.49968 0.0
O46 O 0.55253 0.92088 0.44273 0.0
O47 O 0.65356 0.95475 0.43163 0.0
O48 O 0.63669 0.95838 0.48783 0.0
C49 C 0.61559 0.85771 0.49484 0.0
O50 O 0.60514 0.90399 0.39109 0.0
O51 O 0.56551 0.8515 0.41776 0.0
In52 In 0.10492 0.69917 0.41423 0.0
O53 O 0.11153 0.72211 0.35453 0.0
O54 O 0.15428 0.71006 0.37496 0.0
C55 C 0.03929 0.69794 0.43249 0.0
C56 C 0.15212 0.75358 0.46319 0.0
C57 C 0.08146 0.6238 0.41627 0.0
O58 O 0.05321 0.70625 0.39953 0.0
O59 O 0.05886 0.69121 0.45581 0.0
O60 O 0.11072 0.64832 0.43414 0.0
O61 O 0.06543 0.63763 0.3962 0.0
C62 C 0.14245 0.72215 0.34806 0.0
O63 O 0.13536 0.71834 0.47132 0.0
O64 O 0.14577 0.76119 0.43029 0.0
In65 In 0.29054 0.3724 0.42021 0.0
O66 O 0.26841 0.35644 0.35975 0.0
O67 O 0.28442 0.41256 0.3794 0.0
C68 C 0.28494 0.30688 0.44588 0.0
C69 C 0.23622 0.37273 0.464 0.0
C70 C 0.36721 0.41756 0.42331 0.0
O71 O 0.27891 0.31097 0.41152 0.0
O72 O 0.29274 0.33527 0.46674 0.0
O73 O 0.34474 0.42658 0.43933 0.0
O74 O 0.35088 0.3869 0.4044 0.0
C75 C 0.27076 0.38839 0.35283 0.0
O76 O 0.27148 0.39287 0.47193 0.0
O77 O 0.22875 0.35287 0.43429 0.0
In78 In 0.89832 0.61081 0.91269 0.0
O79 O 0.84619 0.59661 0.94895 0.0
O80 O 0.88306 0.65497 0.93369 0.0
C81 C 0.91716 0.57181 0.96157 0.0
C82 C 0.8619 0.58533 0.84564 0.0
C83 C 0.97201 0.66346 0.90084 0.0
O84 O 0.91786 0.60258 0.97009 0.0
O85 O 0.9047 0.55926 0.9287 0.0
O86 O 0.95935 0.62794 0.89672 0.0
O87 O 0.94695 0.67258 0.90871 0.0
C88 C 0.8534 0.63089 0.95123 0.0
O89 O 0.89169 0.61755 0.84984 0.0
O90 O 0.85078 0.5651 0.8752 0.0
In91 In 0.3731 0.29992 0.94672 0.0
O92 O 0.36696 0.28697 0.88371 0.0
O93 O 0.41461 0.28912 0.91213 0.0
C94 C 0.31466 0.31402 0.94267 0.0
C95 C 0.35143 0.23254 0.98107 0.0
C96 C 0.42133 0.36533 0.98339 0.0
O97 O 0.34069 0.32618 0.9178 0.0
O98 O 0.31763 0.29385 0.9683 0.0
O99 O 0.39498 0.33632 -0.00023 0.0
O100 O 0.42496 0.36075 0.94862 0.0
C101 C 0.39603 0.28286 0.88165 0.0
O102 O 0.38439 0.26148 0.98568 0.0
O103 O 0.32947 0.23789 0.9596 0.0
In104 In 0.70671 0.09192 0.91233 0.0
O105 O 0.72397 0.09792 0.85033 0.0
O106 O 0.7095 0.13801 0.87312 0.0
C107 C 0.70432 0.02691 0.93369 0.0
C108 C 0.76945 0.14326 0.95005 0.0
C109 C 0.632 0.06354 0.92657 0.0
O110 O 0.70706 0.0365 0.89922 0.0
O111 O 0.70456 0.05093 0.95684 0.0
O112 O 0.65747 0.09326 0.94321 0.0
O113 O 0.64423 0.05016 0.9014 0.0
C114 C 0.72102 0.12738 0.84489 0.0
O115 O 0.73671 0.13933 0.95635 0.0
O116 O 0.77016 0.12122 0.92505 0.0
In117 In 0.35128 0.06657 0.60751 0.0
O118 O 0.36234 0.10804 0.55908 0.0
O119 O 0.30915 0.0852 0.58871 0.0
C120 C 0.39927 0.04439 0.57933 0.0
C121 C 0.37572 0.1111 0.67017 0.0
C122 C 0.29207 0.99419 0.60704 0.0
O123 O 0.39353 0.06875 0.56251 0.0
O124 O 0.3829 0.03341 0.6109 0.0
O125 O 0.31838 0.006 0.63153 0.0
O126 O 0.29448 0.01943 0.58425 0.0
C127 C 0.3305 0.10691 0.56267 0.0
O128 O 0.34284 0.08183 0.66754 0.0
O129 O 0.39677 0.11732 0.64164 0.0
In130 In 0.9207 0.29817 0.56603 0.0
O131 O 0.87575 0.26285 0.52179 0.0
O132 O 0.90305 0.23658 0.55065 0.0
C133 C 0.94 0.35913 0.52143 0.0
C134 C 0.87704 0.28389 0.62858 0.0
C135 C 0.99328 0.31624 0.58102 0.0
O136 O 0.94263 0.33056 0.51093 0.0
O137 O 0.926 0.35627 0.5541 0.0
O138 O 0.98106 0.33918 0.58715 0.0
O139 O 0.96833 0.28354 0.56904 0.0
C140 C 0.87845 0.2332 0.52646 0.0
O141 O 0.91025 0.28813 0.6294 0.0
O142 O 0.86647 0.2886 0.59646 0.0
In143 In 0.70502 0.60209 0.54753 0.0
O144 O 0.71511 0.60718 0.61096 0.0
O145 O 0.71666 0.56131 0.58261 0.0
C146 C 0.68942 0.65975 0.54604 0.0
C147 C 0.77383 0.62767 0.5144 0.0
C148 C 0.63853 0.54893 0.51575 0.0
O149 O 0.68783 0.64225 0.57625 0.0
O150 O 0.69957 0.64862 0.5172 0.0
O151 O 0.6681 0.57028 0.49668 0.0
O152 O 0.64302 0.55294 0.5511 0.0
C153 C 0.72023 0.57875 0.61339 0.0
O154 O 0.74634 0.59386 0.50994 0.0
O155 O 0.76652 0.6485 0.5355 0.0
C156 C 0.19876 0.41806 0.98988 0.0
C157 C 0.15906 0.39286 0.98931 0.0
C158 C 0.22394 0.40702 0.97456 0.0
C159 C 0.20877 0.37032 0.95765 0.0
C160 C 0.16861 0.34671 0.95325 0.0
C161 C 0.14414 0.35805 0.96967 0.0
C162 C 0.26659 0.43288 0.98016 0.0
C163 C 0.15137 0.30792 0.93435 0.0
C164 C 0.27998 0.34525 0.91424 0.0
C165 C 0.28524 0.32559 0.94432 0.0
C166 C 0.25415 0.35904 0.91747 0.0
C167 C 0.23404 0.35372 0.95186 0.0
C168 C 0.23881 0.33324 0.98196 0.0
C169 C 0.26402 0.3191 0.97763 0.0
C170 C 0.24901 0.37992 0.88453 0.0
C171 C 0.21819 0.32723 0.01929 0.0
H172 H 0.21029 0.44504 0.00505 0.0
H173 H 0.11333 0.33879 0.96876 0.0
H174 H 0.2766 0.42091 0.00289 0.0
H175 H 0.28255 0.4344 0.95405 0.0
H176 H 0.27394 0.46245 0.98839 0.0
H177 H 0.12092 0.2969 0.9263 0.0
H178 H 0.16789 0.30929 0.90868 0.0
H179 H 0.1525 0.28706 0.95412 0.0
H180 H 0.29634 0.35021 0.88841 0.0
H181 H 0.2681 0.30403 0.00101 0.0
H182 H 0.26158 0.41076 0.89162 0.0
H183 H 0.21804 0.36841 0.87869 0.0
H184 H 0.26305 0.37754 0.85841 0.0
H185 H 0.22581 0.3554 0.03201 0.0
H186 H 0.22542 0.31095 0.03991 0.0
H187 H 0.18668 0.31134 0.01474 0.0
C188 C 0.61237 0.81245 0.0057 0.0
C189 C 0.63981 0.80479 0.02141 0.0
C190 C 0.62366 0.84737 0.98717 0.0
C191 C 0.66326 0.87476 0.98394 0.0
C192 C 0.69103 0.86602 0.99768 0.0
C193 C 0.67894 0.83123 0.01654 0.0
C194 C 0.59324 0.85588 0.9731 0.0
C195 C 0.7335 0.89425 0.99429 0.0
C196 C 0.69357 0.96117 0.91998 0.0
C197 C 0.69711 0.98891 0.94622 0.0
C198 C 0.68296 0.92381 0.93178 0.0
C199 C 0.67553 0.91417 0.97059 0.0
C200 C 0.67981 0.94233 0.9972 0.0
C201 C 0.69072 0.97938 0.98469 0.0
C202 C 0.67908 0.89452 0.90277 0.0
C203 C 0.67213 0.93316 0.03886 0.0
H204 H 0.5821 0.79193 0.00938 0.0
H205 H 0.70024 0.82509 0.02822 0.0
H206 H 0.59348 0.87884 0.99072 0.0
H207 H 0.59936 0.86656 0.94355 0.0
H208 H 0.56404 0.83022 0.97426 0.0
H209 H 0.75123 0.88118 0.00202 0.0
H210 H 0.74081 0.90553 0.965 0.0
H211 H 0.74134 0.91906 0.0133 0.0
H212 H 0.69838 0.96845 0.89019 0.0
H213 H 0.69333 0.0007 0.0051 0.0
H214 H 0.6489 0.87066 0.90177 0.0
H215 H 0.69711 0.88195 0.9109 0.0
H216 H 0.68758 0.90708 0.87399 0.0
H217 H 0.64209 0.90974 0.04303 0.0
H218 H 0.67676 0.95839 0.0558 0.0
H219 H 0.69119 0.92289 0.05003 0.0
C220 C 0.15554 0.80586 0.00605 0.0
C221 C 0.19118 0.82184 0.98795 0.0
C222 C 0.12183 0.78006 0.98703 0.0
C223 C 0.12381 0.77105 0.94864 0.0
C224 C 0.15973 0.78763 0.93001 0.0
C225 C 0.19318 0.81248 0.95014 0.0
C226 C 0.08413 0.76216 0.00817 0.0
C227 C 0.16272 0.7794 0.88886 0.0
C228 C 0.03791 0.67806 0.91687 0.0
C229 C 0.01329 0.69103 0.90435 0.0
C230 C 0.07503 0.70403 0.92954 0.0
C231 C 0.08804 0.74386 0.92851 0.0
C232 C 0.0645 0.75716 0.91257 0.0
C233 C 0.02703 0.73047 0.90122 0.0
C234 C 0.09884 0.68862 0.94718 0.0
C235 C 0.07788 0.79948 0.90995 0.0
H236 H 0.15412 0.81295 0.03539 0.0
H237 H 0.22083 0.82515 0.93612 0.0
H238 H 0.06438 0.77032 0.99456 0.0
H239 H 0.07013 0.73039 0.00703 0.0
H240 H 0.08781 0.77118 0.03831 0.0
H241 H 0.19275 0.79539 0.87832 0.0
H242 H 0.15153 0.74824 0.88472 0.0
H243 H 0.1448 0.7873 0.87136 0.0
H244 H 0.02716 0.6475 0.91964 0.0
H245 H 0.00797 0.74044 0.89139 0.0
H246 H 0.10037 0.69333 0.97824 0.0
H247 H 0.12864 0.70406 0.93619 0.0
H248 H 0.08649 0.6574 0.94188 0.0
H249 H 0.0779 0.81081 0.93858 0.0
H250 H 0.05898 0.80516 0.89136 0.0
H251 H 0.10768 0.81558 0.89895 0.0
C252 C 0.67551 0.70352 0.50843 0.0
C253 C 0.67882 0.68988 0.54389 0.0
C254 C 0.66438 0.73126 0.50528 0.0
C255 C 0.65677 0.74604 0.53846 0.0
C256 C 0.66034 0.73264 0.57443 0.0
C257 C 0.67116 0.70446 0.57673 0.0
C258 C 0.66062 0.74462 0.46635 0.0
C259 C 0.6528 0.74811 0.61034 0.0
C260 C 0.66368 0.84173 0.52006 0.0
C261 C 0.62525 0.83051 0.51269 0.0
C262 C 0.67413 0.81483 0.53138 0.0
C263 C 0.64544 0.77577 0.5349 0.0
C264 C 0.60632 0.76472 0.52987 0.0
C265 C 0.59664 0.79236 0.519 0.0
C266 C 0.7161 0.82779 0.53703 0.0
C267 C 0.57494 0.7233 0.53319 0.0
H268 H 0.68121 0.69218 0.48296 0.0
H269 H 0.67372 0.69393 0.60419 0.0
H270 H 0.63108 0.73953 0.46224 0.0
H271 H 0.6806 0.77595 0.46355 0.0
H272 H 0.66693 0.72969 0.44341 0.0
H273 H 0.65706 0.73482 0.63609 0.0
H274 H 0.67222 0.77964 0.61187 0.0
H275 H 0.62295 0.74281 0.61032 0.0
H276 H 0.68583 0.87134 0.51558 0.0
H277 H 0.56687 0.78363 0.51339 0.0
H278 H 0.72645 0.81758 0.51305 0.0
H279 H 0.72032 0.81525 0.5633 0.0
H280 H 0.73406 0.85956 0.53861 0.0
H281 H 0.57675 0.70679 0.50889 0.0
H282 H 0.5459 0.7202 0.53332 0.0
H283 H 0.57854 0.71023 0.55938 0.0
C284 C 0.16481 0.77852 0.52926 0.0
C285 C 0.17463 0.78397 0.49082 0.0
C286 C 0.1823 0.80923 0.5549 0.0
C287 C 0.21083 0.8457 0.54172 0.0
C288 C 0.22245 0.85055 0.50331 0.0
C289 C 0.20372 0.81972 0.47819 0.0
C290 C 0.16875 0.8032 0.59546 0.0
C291 C 0.25362 0.88873 0.48838 0.0
C292 C 0.23117 0.94105 0.58138 0.0
C293 C 0.26624 0.95318 0.59962 0.0
C294 C 0.21075 0.90426 0.5655 0.0
C295 C 0.22666 0.87981 0.56682 0.0
C296 C 0.26076 0.891 0.58757 0.0
C297 C 0.27992 0.92751 0.60427 0.0
C298 C 0.17383 0.89289 0.54461 0.0
C299 C 0.27916 0.86623 0.58894 0.0
H300 H 0.14201 0.75083 0.53888 0.0
H301 H 0.21142 0.82374 0.44845 0.0
H302 H 0.19353 0.81503 0.61517 0.0
H303 H 0.153 0.81886 0.60072 0.0
H304 H 0.14941 0.77237 0.60214 0.0
H305 H 0.2619 0.8866 0.45887 0.0
H306 H 0.24353 0.90985 0.48898 0.0
H307 H 0.27953 0.90011 0.50658 0.0
H308 H 0.22067 0.96101 0.5779 0.0
H309 H 0.30737 0.93715 0.618 0.0
H310 H 0.15175 0.86294 0.55162 0.0
H311 H 0.17906 0.89422 0.51367 0.0
H312 H 0.16228 0.91217 0.5514 0.0
H313 H 0.25738 0.83569 0.59377 0.0
H314 H 0.30138 0.87569 0.61143 0.0
H315 H 0.2931 0.86801 0.56132 0.0
C316 C 0.04652 0.30179 0.57771 0.0
C317 C 0.03453 0.32895 0.58019 0.0
C318 C 0.08406 0.31274 0.56661 0.0
C319 C 0.10968 0.35154 0.55699 0.0
C320 C 0.09886 0.37961 0.5632 0.0
C321 C 0.06136 0.36796 0.57513 0.0
C322 C 0.09489 0.2821 0.56139 0.0
C323 C 0.12522 0.42123 0.55316 0.0
C324 C 0.21082 0.37837 0.5268 0.0
C325 C 0.20553 0.37124 0.48781 0.0
C326 C 0.18009 0.37298 0.54996 0.0
C327 C 0.14376 0.36093 0.53339 0.0
C328 C 0.13899 0.35557 0.49372 0.0
C329 C 0.16984 0.36037 0.47151 0.0
C330 C 0.18605 0.37848 0.59216 0.0
C331 C 0.10093 0.34362 0.47474 0.0
H332 H 0.02589 0.27166 0.58211 0.0
H333 H 0.05218 0.38907 0.57713 0.0
H334 H 0.094 0.27537 0.53081 0.0
H335 H 0.12454 0.29228 0.57158 0.0
H336 H 0.07491 0.25522 0.57658 0.0
H337 H 0.11595 0.44022 0.56667 0.0
H338 H 0.15521 0.43084 0.56173 0.0
H339 H 0.12499 0.42471 0.52202 0.0
H340 H 0.23848 0.38662 0.53937 0.0
H341 H 0.16591 0.35526 0.44127 0.0
H342 H 0.17074 0.35011 0.60637 0.0
H343 H 0.17385 0.39592 0.60324 0.0
H344 H 0.21691 0.3926 0.59999 0.0
H345 H 0.07924 0.31437 0.48423 0.0
H346 H 0.10289 0.34343 0.44339 0.0
H347 H 0.09038 0.36336 0.48289 0.0
C348 C 0.69484 0.67849 0.0136 0.0
C349 C 0.69542 0.68889 0.05156 0.0
C350 C 0.72222 0.66997 -0.00045 0.0
C351 C 0.75094 0.67193 0.02407 0.0
C352 C 0.75195 0.68269 0.0624 0.0
C353 C 0.72405 0.69107 0.07576 0.0
C354 C 0.72018 0.65856 0.95849 0.0
C355 C 0.78228 0.68508 0.08923 0.0
C356 C 0.79579 0.61381 0.99087 0.0
C357 C 0.82877 0.64186 0.97236 0.0
C358 C 0.771 0.62352 0.00936 0.0
C359 C 0.77947 0.66216 0.00926 0.0
C360 C 0.81344 0.69082 0.99178 0.0
C361 C 0.83773 0.68029 0.97349 0.0
C362 C 0.73498 0.59219 0.02769 0.0
C363 C 0.82335 0.73232 0.9911 0.0
H364 H 0.67276 0.67677 0.99475 0.0
H365 H 0.72454 0.6991 0.10512 0.0
H366 H 0.74748 0.67842 0.94395 0.0
H367 H 0.71632 0.6293 0.95649 0.0
H368 H 0.6962 0.65882 0.94313 0.0
H369 H 0.77949 0.69456 0.118 0.0
H370 H 0.78024 0.6566 0.09149 0.0
H371 H 0.81128 0.70544 0.0781 0.0
H372 H 0.78892 0.58409 0.99026 0.0
H373 H 0.86335 0.7021 0.9594 0.0
H374 H 0.70944 0.58846 0.01198 0.0
H375 H 0.73253 0.60022 0.05716 0.0
H376 H 0.73428 0.56422 0.02812 0.0
H377 H 0.80208 0.73526 0.97354 0.0
H378 H 0.85245 0.75152 0.97936 0.0
H379 H 0.82193 0.74218 0.02007 0.0
C380 C 0.30271 0.16393 0.99223 0.0
C381 C 0.34029 0.19448 0.99694 0.0
C382 C 0.29273 0.12655 0.00302 0.0
C383 C 0.32114 0.11965 0.01858 0.0
C384 C 0.35864 0.1507 0.02517 0.0
C385 C 0.36775 0.18786 0.01436 0.0
C386 C 0.25236 0.09419 0.99587 0.0
C387 C 0.38973 0.14439 0.04154 0.0
C388 C 0.29275 0.02323 0.06349 0.0
C389 C 0.29908 0.00431 0.03345 0.0
C390 C 0.29933 0.06075 0.05906 0.0
C391 C 0.31287 0.07966 0.02391 0.0
C392 C 0.319 0.0605 0.99345 0.0
C393 C 0.31184 0.023 -0.00144 0.0
C394 C 0.29215 0.08027 0.09195 0.0
C395 C 0.33364 0.0798 0.95557 0.0
H396 H 0.28131 0.169 0.97902 0.0
H397 H 0.39682 0.21145 0.01812 0.0
H398 H 0.25261 0.07579 0.97261 0.0
H399 H 0.2408 0.07584 0.02138 0.0
H400 H 0.23263 0.10487 0.98786 0.0
H401 H 0.41618 0.17184 0.04838 0.0
H402 H 0.37943 0.12675 0.06761 0.0
H403 H 0.39722 0.12838 0.02089 0.0
H404 H 0.28285 0.00879 0.09049 0.0
H405 H 0.31691 0.00852 0.97528 0.0
H406 H 0.27159 0.08974 0.08356 0.0
H407 H 0.31929 0.10634 0.10019 0.0
H408 H 0.2805 0.06119 0.11702 0.0
H409 H 0.31367 0.08855 0.9436 0.0
H410 H 0.33685 0.06083 0.93482 0.0
H411 H 0.36193 0.10622 0.95917 0.0
C412 C 0.96317 0.2897 0.06009 0.0
C413 C 0.98212 0.32317 0.03825 0.0
C414 C 0.927 0.25952 0.04924 0.0
C415 C 0.90959 0.26309 0.01583 0.0
C416 C 0.9282 0.29726 0.99427 0.0
C417 C 0.96427 0.32689 0.00574 0.0
C418 C 0.90789 0.22345 0.07289 0.0
C419 C 0.91053 0.30215 0.95847 0.0
C420 C 0.83995 0.17496 0.96049 0.0
C421 C 0.80468 0.17221 0.96929 0.0
C422 C 0.87419 0.20371 0.97646 0.0
C423 C 0.8731 0.23033 0.00186 0.0
C424 C 0.83746 0.22703 0.01179 0.0
C425 C 0.80357 0.19793 0.99531 0.0
C426 C 0.91167 0.20634 0.96515 0.0
C427 C 0.83529 0.25493 0.03885 0.0
H428 H 0.97687 0.28681 0.08532 0.0
H429 H 0.97872 0.35283 0.98889 0.0
H430 H 0.87827 0.21633 0.08039 0.0
H431 H 0.90564 0.19898 0.05631 0.0
H432 H 0.924 0.22623 0.09936 0.0
H433 H 0.9278 0.33129 0.94609 0.0
H434 H 0.9079 0.28074 0.9371 0.0
H435 H 0.88117 0.29686 0.96425 0.0
H436 H 0.84094 0.15503 0.94049 0.0
H437 H 0.77632 0.19581 0.00225 0.0
H438 H 0.92793 0.20673 0.99068 0.0
H439 H 0.9297 0.23357 0.94966 0.0
H440 H 0.90733 0.18207 0.94679 0.0
H441 H 0.85071 0.25668 0.06548 0.0
H442 H 0.8052 0.2467 0.04582 0.0
H443 H 0.84964 0.28406 0.02617 0.0
C444 C 0.28269 0.12545 0.54193 0.0
C445 C 0.31983 0.13074 0.53965 0.0
C446 C 0.27323 0.15033 0.52318 0.0
C447 C 0.30177 0.18147 0.50214 0.0
C448 C 0.33882 0.18588 0.49834 0.0
C449 C 0.34735 0.16028 0.517 0.0
C450 C 0.23327 0.14443 0.52746 0.0
C451 C 0.37013 0.21895 0.47642 0.0
C452 C 0.27745 0.24162 0.43711 0.0
C453 C 0.28593 0.27303 0.46052 0.0
C454 C 0.28136 0.21085 0.45054 0.0
C455 C 0.29445 0.21196 0.48798 0.0
C456 C 0.30217 0.24323 0.5119 0.0
C457 C 0.2976 0.27324 0.49793 0.0
C458 C 0.27235 0.17765 0.42449 0.0
C459 C 0.3164 0.2456 0.55196 0.0
H460 H 0.26122 0.10238 0.55914 0.0
H461 H 0.37607 0.16438 0.5151 0.0
H462 H 0.23429 0.16741 0.54565 0.0
H463 H 0.2217 0.14636 0.49955 0.0
H464 H 0.21316 0.11623 0.54044 0.0
H465 H 0.39623 0.21635 0.47334 0.0
H466 H 0.35975 0.22073 0.44783 0.0
H467 H 0.37823 0.24631 0.49122 0.0
H468 H 0.26833 0.24135 0.40819 0.0
H469 H 0.3042 0.29745 0.51617 0.0
H470 H 0.25205 0.15009 0.43837 0.0
H471 H 0.29899 0.17685 0.41836 0.0
H472 H 0.25968 0.17972 0.39726 0.0
H473 H 0.29589 0.21982 0.5682 0.0
H474 H 0.32027 0.27151 0.5671 0.0
H475 H 0.34431 0.24625 0.55165 0.0
C476 C 0.82242 0.19321 0.48479 0.0
C477 C 0.85205 0.19632 0.5081 0.0
C478 C 0.79345 0.15729 0.47206 0.0
C479 C 0.79432 0.12386 0.4829 0.0
C480 C 0.82565 0.12713 0.50415 0.0
C481 C 0.85419 0.16341 0.51657 0.0
C482 C 0.76052 0.15495 0.44935 0.0
C483 C 0.82768 0.09212 0.51601 0.0
C484 C 0.69872 0.03392 0.49896 0.0
C485 C 0.69487 0.01266 0.46622 0.0
C486 C 0.7309 0.07023 0.50448 0.0
C487 C 0.76008 0.08555 0.47664 0.0
C488 C 0.75641 0.0643 0.44343 0.0
C489 C 0.72365 0.02801 0.43852 0.0
C490 C 0.73366 0.09213 0.54022 0.0
C491 C 0.78713 0.07979 0.41331 0.0
H492 H 0.82082 0.21865 0.47795 0.0
H493 H 0.87725 0.16575 0.53434 0.0
H494 H 0.75401 0.13558 0.4247 0.0
H495 H 0.73438 0.14276 0.46727 0.0
H496 H 0.76666 0.18356 0.43903 0.0
H497 H 0.85623 0.09979 0.52786 0.0
H498 H 0.80558 0.07615 0.53791 0.0
H499 H 0.82151 0.07246 0.49166 0.0
H500 H 0.67646 0.0222 0.52039 0.0
H501 H 0.72074 0.01155 0.4132 0.0
H502 H 0.73643 0.12025 0.53297 0.0
H503 H 0.7597 0.09801 0.5564 0.0
H504 H 0.70822 0.07625 0.55883 0.0
H505 H 0.79162 0.1077 0.40269 0.0
H506 H 0.77975 0.05979 0.389 0.0
H507 H 0.81478 0.08515 0.42555 0.0
C508 C 0.98719 0.68112 0.47933 0.0
C509 C 0.00168 0.69338 0.44277 0.0
C510 C 0.95016 0.67302 0.48904 0.0
C511 C 0.92713 0.67757 0.46158 0.0
C512 C 0.94205 0.69128 0.425 0.0
C513 C 0.97923 0.69893 0.41594 0.0
C514 C 0.93525 0.65837 0.52836 0.0
C515 C 0.91837 0.69683 0.3952 0.0
C516 C 0.8203 0.61571 0.4787 0.0
C517 C 0.8121 0.64136 0.49766 0.0
C518 C 0.85741 0.62758 0.4654 0.0
C519 C 0.88685 0.66608 0.47099 0.0
C520 C 0.87833 0.69251 0.48865 0.0
C521 C 0.84101 0.67978 0.50195 0.0
C522 C 0.86549 0.5985 0.44687 0.0
C523 C 0.90893 0.73384 0.49485 0.0
H524 H 0.00446 0.67685 0.50021 0.0
H525 H 0.9904 0.70848 0.38767 0.0
H526 H 0.92526 0.67667 0.54199 0.0
H527 H 0.91021 0.62885 0.52662 0.0
H528 H 0.95735 0.65779 0.54678 0.0
H529 H 0.93515 0.71043 0.36913 0.0
H530 H 0.89333 0.66864 0.38753 0.0
H531 H 0.90698 0.71494 0.40642 0.0
H532 H 0.79798 0.58601 0.47525 0.0
H533 H 0.83469 0.69977 0.51637 0.0
H534 H 0.88522 0.59368 0.465 0.0
H535 H 0.87996 0.60946 0.41925 0.0
H536 H 0.83892 0.57049 0.44221 0.0
H537 H 0.93014 0.73524 0.51581 0.0
H538 H 0.89681 0.75159 0.50541 0.0
H539 H 0.92468 0.74658 0.46814 0.0
C540 C 0.24362 0.3698 0.28763 0.0
C541 C 0.25499 0.39556 0.31804 0.0
C542 C 0.22516 0.37436 0.256 0.0
C543 C 0.21739 0.40503 0.25515 0.0
C544 C 0.22965 0.43165 0.28539 0.0
C545 C 0.24859 0.42675 0.31636 0.0
C546 C 0.2131 0.3458 0.22394 0.0
C547 C 0.22152 0.46447 0.28567 0.0
C548 C 0.19258 0.43318 0.16128 0.0
C549 C 0.15233 0.41304 0.16243 0.0
C550 C 0.21419 0.43085 0.19127 0.0
C551 C 0.19504 0.40835 0.22336 0.0
C552 C 0.15441 0.38864 0.22501 0.0
C553 C 0.13351 0.39097 0.19433 0.0
C554 C 0.25743 0.45185 0.1883 0.0
C555 C 0.13301 0.36484 0.25905 0.0
H556 H 0.24862 0.34572 0.28882 0.0
H557 H 0.25716 0.44663 0.33992 0.0
H558 H 0.18132 0.32938 0.22191 0.0
H559 H 0.22417 0.36102 0.19665 0.0
H560 H 0.22359 0.32517 0.22778 0.0
H561 H 0.23431 0.48351 0.31063 0.0
H562 H 0.23293 0.48194 0.25962 0.0
H563 H 0.19004 0.45296 0.28596 0.0
H564 H 0.20722 0.45006 0.1365 0.0
H565 H 0.1024 0.37543 0.1953 0.0
H566 H 0.26785 0.43102 0.18984 0.0
H567 H 0.27038 0.47195 0.21243 0.0
H568 H 0.2679 0.46835 0.16152 0.0
H569 H 0.13916 0.34105 0.2628 0.0
H570 H 0.10146 0.3524 0.25643 0.0
H571 H 0.14292 0.38271 0.28503 0.0
C572 C 0.61493 0.76021 0.2195 0.0
C573 C 0.58931 0.75005 0.18908 0.0
C574 C 0.6108 0.77824 0.25169 0.0
C575 C 0.5804 0.7864 0.25335 0.0
C576 C 0.55398 0.77549 0.22305 0.0
C577 C 0.55872 0.75736 0.19127 0.0
C578 C 0.63942 0.78927 0.28359 0.0
C579 C 0.52127 0.78377 0.22382 0.0
C580 C 0.55598 0.80749 0.35086 0.0
C581 C 0.57726 0.84772 0.3517 0.0
C582 C 0.55574 0.78709 0.31855 0.0
C583 C 0.57715 0.80747 0.28636 0.0
C584 C 0.59724 0.84812 0.28646 0.0
C585 C 0.59712 0.86778 0.3192 0.0
C586 C 0.53393 0.74375 0.31946 0.0
C587 C 0.62012 0.87085 0.25252 0.0
H588 H 0.63859 0.75458 0.21794 0.0
H589 H 0.53884 0.74959 0.16779 0.0
H590 H 0.65529 0.82092 0.28715 0.0
H591 H 0.62426 0.77663 0.31058 0.0
H592 H 0.66053 0.77959 0.27851 0.0
H593 H 0.50228 0.77198 0.19868 0.0
H594 H 0.50373 0.77141 0.2497 0.0
H595 H 0.53284 0.81525 0.2248 0.0
H596 H 0.54061 0.79185 0.37594 0.0
H597 H 0.61355 0.89888 0.3197 0.0
H598 H 0.55443 0.73293 0.31794 0.0
H599 H 0.51467 0.73218 0.29454 0.0
H600 H 0.51645 0.73228 0.34557 0.0
H601 H 0.64436 0.86559 0.24763 0.0
H602 H 0.63192 0.90221 0.25621 0.0
H603 H 0.60193 0.86136 0.22674 0.0
C604 C 0.2485 0.79738 0.14788 0.0
C605 C 0.26579 0.83751 0.14821 0.0
C606 C 0.23112 0.77582 0.18058 0.0
C607 C 0.23133 0.79497 0.21428 0.0
C608 C 0.25098 0.83558 0.21533 0.0
C609 C 0.26788 0.85637 0.18222 0.0
C610 C 0.2105 0.73255 0.17841 0.0
C611 C 0.25219 0.85708 0.25084 0.0
C612 C 0.14812 0.74776 0.28282 0.0
C613 C 0.16417 0.73745 0.31257 0.0
C614 C 0.16933 0.76526 0.25008 0.0
C615 C 0.20761 0.77283 0.24716 0.0
C616 C 0.2236 0.76138 0.2766 0.0
C617 C 0.20159 0.74368 0.309 0.0
C618 C 0.15114 0.77677 0.21915 0.0
C619 C 0.26434 0.76908 0.27446 0.0
H620 H 0.24686 0.78268 0.12163 0.0
H621 H 0.28148 0.88742 0.18265 0.0
H622 H 0.21833 0.7205 0.20282 0.0
H623 H 0.17905 0.72108 0.17976 0.0
H624 H 0.21709 0.72227 0.15182 0.0
H625 H 0.27198 0.8885 0.2481 0.0
H626 H 0.223 0.85204 0.25714 0.0
H627 H 0.26138 0.84641 0.27538 0.0
H628 H 0.11912 0.7428 0.28538 0.0
H629 H 0.2141 0.73574 0.33199 0.0
H630 H 0.15342 0.76486 0.19158 0.0
H631 H 0.16664 0.8085 0.21637 0.0
H632 H 0.12038 0.76675 0.22481 0.0
H633 H 0.26918 0.75827 0.24733 0.0
H634 H 0.27137 0.75551 0.29817 0.0
H635 H 0.28456 0.80049 0.27529 0.0
C636 C 0.85576 0.59713 0.77765 0.0
C637 C 0.83983 0.57449 0.80998 0.0
C638 C 0.83356 0.59138 0.74518 0.0
C639 C 0.79439 0.56239 0.74513 0.0
C640 C 0.77874 0.53788 0.77686 0.0
C641 C 0.80175 0.54419 0.809 0.0
C642 C 0.85149 0.61789 0.71176 0.0
C643 C 0.73717 0.50656 0.77775 0.0
C644 C 0.73518 0.58886 0.68221 0.0
C645 C 0.73338 0.56938 0.64873 0.0
C646 C 0.75288 0.58483 0.71466 0.0
C647 C 0.76934 0.56088 0.71349 0.0
C648 C 0.76549 0.53927 0.6805 0.0
C649 C 0.74745 0.54374 0.64843 0.0
C650 C 0.75604 0.60809 0.74943 0.0
C651 C 0.7825 0.51331 0.67826 0.0
H652 H 0.88531 0.62037 0.77818 0.0
H653 H 0.78935 0.52659 0.83396 0.0
H654 H 0.84566 0.60107 0.68526 0.0
H655 H 0.83857 0.6365 0.70863 0.0
H656 H 0.88305 0.63656 0.71496 0.0
H657 H 0.73097 0.48657 0.80187 0.0
H658 H 0.71866 0.51964 0.78045 0.0
H659 H 0.72912 0.48986 0.75101 0.0
H660 H 0.72402 0.60844 0.68267 0.0
H661 H 0.74601 0.52851 0.62261 0.0
H662 H 0.78645 0.63063 0.75374 0.0
H663 H 0.74679 0.58956 0.77495 0.0
H664 H 0.73844 0.62224 0.74706 0.0
H665 H 0.81424 0.53105 0.67661 0.0
H666 H 0.77212 0.49428 0.65304 0.0
H667 H 0.77547 0.49528 0.70403 0.0
C668 C 0.38405 0.26236 0.81418 0.0
C669 C 0.40396 0.2663 0.84793 0.0
C670 C 0.38553 0.24033 0.7842 0.0
C671 C 0.40709 0.22148 0.78833 0.0
C672 C 0.42934 0.22749 0.82134 0.0
C673 C 0.42765 0.25006 0.85077 0.0
C674 C 0.36193 0.23516 0.74913 0.0
C675 C 0.45268 0.2079 0.82679 0.0
C676 C 0.36413 0.1274 0.73497 0.0
C677 C 0.38702 0.13789 0.70243 0.0
C678 C 0.37162 0.15397 0.76399 0.0
C679 C 0.40249 0.19208 0.76012 0.0
C680 C 0.42674 0.2024 0.72807 0.0
C681 C 0.4188 0.17506 0.6996 0.0
C682 C 0.34544 0.14167 0.79806 0.0
C683 C 0.45982 0.24276 0.72293 0.0
H684 H 0.36595 0.27515 0.81179 0.0
H685 H 0.44311 0.25303 0.87685 0.0
H686 H 0.37939 0.23974 0.72331 0.0
H687 H 0.33738 0.20533 0.7481 0.0
H688 H 0.35047 0.2552 0.74848 0.0
H689 H 0.47261 0.21987 0.85124 0.0
H690 H 0.43305 0.17682 0.83184 0.0
H691 H 0.46958 0.21061 0.801 0.0
H692 H 0.3397 0.09862 0.73734 0.0
H693 H 0.43654 0.18328 0.67441 0.0
H694 H 0.32906 0.15716 0.79836 0.0
H695 H 0.36255 0.14921 0.82452 0.0
H696 H 0.32467 0.11032 0.79814 0.0
H697 H 0.44851 0.26249 0.71774 0.0
H698 H 0.47849 0.245 0.69876 0.0
H699 H 0.47757 0.25277 0.74897 0.0
C700 C 0.74682 0.1371 0.77928 0.0
C701 C 0.73483 0.15047 0.81001 0.0
C702 C 0.76592 0.16113 0.74853 0.0
C703 C 0.77341 0.19949 0.74877 0.0
C704 C 0.7592 0.21238 0.77857 0.0
C705 C 0.73993 0.1876 0.80887 0.0
C706 C 0.78011 0.14614 0.71692 0.0
C707 C 0.76652 0.25302 0.77973 0.0
C708 C 0.86492 0.26627 0.69666 0.0
C709 C 0.85078 0.2688 0.66121 0.0
C710 C 0.83984 0.24567 0.72623 0.0
C711 C 0.7997 0.2269 0.72 0.0
C712 C 0.78527 0.23145 0.68504 0.0
C713 C 0.81107 0.25254 0.656 0.0
C714 C 0.85636 0.24201 0.76337 0.0
C715 C 0.74267 0.21194 0.6774 0.0
H716 H 0.74265 0.10831 0.77993 0.0
H717 H 0.7306 0.19804 0.83257 0.0
H718 H 0.77185 0.15248 0.68904 0.0
H719 H 0.81193 0.16078 0.71777 0.0
H720 H 0.76859 0.11469 0.71906 0.0
H721 H 0.74896 0.25683 0.80171 0.0
H722 H 0.79728 0.27296 0.78605 0.0
H723 H 0.76027 0.26139 0.75187 0.0
H724 H 0.89562 0.27905 0.70083 0.0
H725 H 0.80003 0.25442 0.62858 0.0
H726 H 0.85003 0.21199 0.76702 0.0
H727 H 0.84287 0.24867 0.78737 0.0
H728 H 0.88795 0.26136 0.7649 0.0
H729 H 0.73112 0.18062 0.67408 0.0
H730 H 0.73613 0.22292 0.65125 0.0
H731 H 0.72739 0.21597 0.70152 0.0
C732 C 0.0678 0.51771 0.03117 0.0
C733 C 0.05662 0.49171 0.06132 0.0
C734 C 0.04509 0.53343 0.02008 0.0
C735 C 0.01023 0.5224 0.03936 0.0
C736 C 0.00037 0.49852 0.07164 0.0
C737 C 0.02389 0.48363 0.08243 0.0
C738 C 0.05705 0.55965 0.98606 0.0
C739 C 0.96349 0.48624 0.09297 0.0
C740 C 0.96011 0.57816 0.01514 0.0
C741 C 0.93591 0.55595 0.98552 0.0
C742 C 0.98362 0.56698 0.03398 0.0
C743 C 0.98243 0.53256 0.02322 0.0
C744 C 0.95634 0.50888 0.9949 0.0
C745 C 0.93355 0.52103 0.97615 0.0
C746 C 0.0113 0.59314 0.06375 0.0
C747 C 0.95382 0.47157 0.98314 0.0
H748 H 0.09323 0.5242 0.01496 0.0
H749 H 0.01512 0.46351 0.10579 0.0
H750 H 0.03752 0.54444 0.96202 0.0
H751 H 0.05477 0.58548 0.99224 0.0
H752 H 0.08693 0.56901 0.9771 0.0
H753 H 0.96259 0.47204 0.12022 0.0
H754 H 0.95968 0.51124 0.09877 0.0
H755 H 0.93882 0.46575 0.07538 0.0
H756 H 0.96221 0.60535 0.02233 0.0
H757 H 0.91483 0.50382 0.95332 0.0
H758 H 0.04101 0.60676 0.05252 0.0
H759 H 0.01018 0.57659 0.08929 0.0
H760 H 0.00526 0.61621 0.07221 0.0
H761 H 0.98109 0.47758 0.96942 0.0
H762 H 0.92988 0.45503 0.96301 0.0
H763 H 0.94972 0.45343 0.00832 0.0
C764 C 0.50132 0.58057 0.04666 0.0
C765 C 0.5308 0.59356 0.07353 0.0
C766 C 0.48226 0.54218 0.03461 0.0
C767 C 0.4936 0.51658 0.0493 0.0
C768 C 0.52241 0.52925 0.07743 0.0
C769 C 0.54042 0.56754 0.08949 0.0
C770 C 0.45098 0.52937 0.00519 0.0
C771 C 0.53559 0.50292 0.09341 0.0
C772 C 0.4274 0.40969 0.03537 0.0
C773 C 0.44235 0.40297 0.00225 0.0
C774 C 0.44392 0.44652 0.05119 0.0
C775 C 0.47663 0.47708 0.03389 0.0
C776 C 0.49278 0.47012 0.00131 0.0
C777 C 0.47513 0.43315 0.98559 0.0
C778 C 0.42555 0.45299 0.08557 0.0
C779 C 0.52822 0.5019 0.9826 0.0
H780 H 0.4938 0.60063 0.03434 0.0
H781 H 0.5634 0.57752 0.11012 0.0
H782 H 0.46054 0.52226 0.97848 0.0
H783 H 0.42482 0.50298 0.01476 0.0
H784 H 0.44332 0.55183 -0.0009 0.0
H785 H 0.55678 0.51662 0.11665 0.0
H786 H 0.51075 0.47616 0.10432 0.0
H787 H 0.54898 0.49457 0.07064 0.0
H788 H 0.40177 0.38646 0.0481 0.0
H789 H 0.4867 0.42795 0.95999 0.0
H790 H 0.41521 0.47314 0.07838 0.0
H791 H 0.44694 0.4664 0.10861 0.0
H792 H 0.40092 0.4259 0.09633 0.0
H793 H 0.52201 0.52404 0.97151 0.0
H794 H 0.53845 0.49124 0.95885 0.0
H795 H 0.55172 0.51614 0.00362 0.0
C796 C 0.43225 0.94581 0.03429 0.0
C797 C 0.40136 0.93544 0.0096 0.0
C798 C 0.47018 0.96612 0.02102 0.0
C799 C 0.47711 0.97713 0.98247 0.0
C800 C 0.44593 0.96643 0.95743 0.0
C801 C 0.40838 0.94522 0.97122 0.0
C802 C 0.50279 0.97607 0.04824 0.0
C803 C 0.45223 0.97829 0.9163 0.0
C804 C 0.57459 0.06123 0.95631 0.0
C805 C 0.59193 0.0423 0.93938 0.0
C806 C 0.53688 0.04035 0.97013 0.0
C807 C 0.51694 -0.00029 0.96811 0.0
C808 C 0.53474 0.98055 0.95158 0.0
C809 C 0.57182 0.00216 0.93682 0.0
C810 C 0.51829 0.06171 0.98665 0.0
C811 C 0.51486 0.93725 0.94998 0.0
H812 H 0.42675 0.93823 0.06398 0.0
H813 H 0.38449 0.9376 0.95217 0.0
H814 H 0.52161 0.96545 0.03716 0.0
H815 H 0.52068 0.00769 0.05104 0.0
H816 H 0.49245 0.96361 0.07679 0.0
H817 H 0.42482 0.96816 0.90075 0.0
H818 H 0.46935 0.01005 0.91417 0.0
H819 H 0.46884 0.96666 0.90209 0.0
H820 H 0.59035 0.09229 0.95836 0.0
H821 H 0.58562 0.98751 0.92435 0.0
H822 H 0.51061 0.05343 0.01668 0.0
H823 H 0.49126 0.05378 0.97126 0.0
H824 H 0.53732 0.09335 0.98514 0.0
H825 H 0.50604 0.92512 0.97885 0.0
H826 H 0.53347 0.92685 0.93777 0.0
H827 H 0.4884 0.92586 0.93263 0.0
C828 C 0.49315 0.93818 0.46644 0.0
C829 C 0.51961 0.93593 0.49055 0.0
C830 C 0.47181 0.95511 0.4788 0.0
C831 C 0.47817 0.97116 0.5156 0.0
C832 C 0.50504 0.96906 0.53989 0.0
C833 C 0.525 0.95095 0.52725 0.0
C834 C 0.44249 0.95577 0.45262 0.0
C835 C 0.51323 0.98653 0.57903 0.0
C836 C 0.45147 0.04709 0.53887 0.0
C837 C 0.41923 0.02616 0.56178 0.0
C838 C 0.47079 0.02941 0.52306 0.0
C839 C 0.45647 0.9897 0.52929 0.0
C840 C 0.42281 0.9682 0.55103 0.0
C841 C 0.40501 0.98688 0.5676 0.0
C842 C 0.5072 0.05343 0.50086 0.0
C843 C 0.40588 0.9256 0.5573 0.0
H844 H 0.48903 0.92656 0.43804 0.0
H845 H 0.54585 0.9497 0.54576 0.0
H846 H 0.41393 0.94191 0.46654 0.0
H847 H 0.45036 0.98586 0.44639 0.0
H848 H 0.44 0.94079 0.42545 0.0
H849 H 0.53616 0.98379 0.59375 0.0
H850 H 0.52214 0.01743 0.57722 0.0
H851 H 0.48683 0.97237 0.59653 0.0
H852 H 0.46222 0.07744 0.53434 0.0
H853 H 0.3795 0.97059 0.58474 0.0
H854 H 0.50483 0.04093 0.47234 0.0
H855 H 0.53166 0.05343 0.51542 0.0
H856 H 0.51383 0.08361 0.49761 0.0
H857 H 0.40262 0.91078 0.5299 0.0
H858 H 0.37742 0.91246 0.57144 0.0
H859 H 0.42554 0.92041 0.57514 0.0
C860 C 0.95414 0.42639 0.51237 0.0
C861 C 0.95673 0.39492 0.49925 0.0
C862 C 0.9743 0.46214 0.4944 0.0
C863 C -0.0023 0.46642 0.46273 0.0
C864 C -0.00084 0.43435 0.4484 0.0
C865 C 0.97852 0.39887 0.46682 0.0
C866 C 0.97175 0.49569 0.51022 0.0
C867 C 0.02379 0.43788 0.41469 0.0
C868 C 0.02833 0.55686 0.40593 0.0
C869 C 0.06368 0.58216 0.42287 0.0
C870 C 0.00728 0.51838 0.41725 0.0
C871 C 0.02208 0.50501 0.44605 0.0
C872 C 0.05895 0.52974 0.46137 0.0
C873 C 0.07935 0.56814 0.44959 0.0
C874 C 0.96818 0.49276 0.40011 0.0
C875 C 0.07583 0.5163 0.49187 0.0
H876 H 0.93726 0.42339 0.53739 0.0
H877 H 0.98066 0.37459 0.45662 0.0
H878 H 0.00025 0.51771 0.52112 0.0
H879 H 0.96356 0.50936 0.4876 0.0
H880 H 0.95053 0.48703 0.53359 0.0
H881 H 0.01904 0.40954 0.40502 0.0
H882 H 0.01784 0.45203 0.39079 0.0
H883 H 0.05453 0.45617 0.42223 0.0
H884 H 0.01616 0.56756 0.38513 0.0
H885 H 0.10673 0.58758 0.46263 0.0
H886 H 0.94568 0.48679 0.42151 0.0
H887 H 0.96505 0.46478 0.39161 0.0
H888 H 0.96286 0.50608 0.375 0.0
H889 H 0.0589 0.51063 0.51827 0.0
H890 H 0.10622 0.53786 0.4981 0.0
H891 H 0.0743 0.48901 0.4834 0.0
C892 C 0.43047 0.4205 0.4218 0.0
C893 C 0.40895 0.43828 0.43017 0.0
C894 C 0.46897 0.43713 0.43294 0.0
C895 C 0.48643 0.47266 0.4523 0.0
C896 C 0.46537 0.49167 0.45914 0.0
C897 C 0.42669 0.47404 0.44826 0.0
C898 C 0.49038 0.41582 0.42557 0.0
C899 C 0.48332 0.53 0.47908 0.0
C900 C 0.56918 0.49941 0.5199 0.0
C901 C 0.60054 0.52543 0.4981 0.0
C902 C 0.53196 0.48084 0.50477 0.0
C903 C 0.52605 0.48909 0.46722 0.0
C904 C 0.5578 0.51434 0.44468 0.0
C905 C 0.59478 0.53199 0.46032 0.0
C906 C 0.49882 0.45343 0.5294 0.0
C907 C 0.55254 0.52413 0.40468 0.0
H908 H 0.41676 0.3927 0.408 0.0
H909 H 0.41011 0.48786 0.45466 0.0
H910 H 0.51795 0.43474 0.41101 0.0
H911 H 0.49737 0.40714 0.4529 0.0
H912 H 0.47345 0.38968 0.40809 0.0
H913 H 0.46402 0.54233 0.47954 0.0
H914 H 0.49035 0.52665 0.50869 0.0
H915 H 0.5106 0.5507 0.465 0.0
H916 H 0.57362 0.49425 0.54909 0.0
H917 H 0.61897 0.55232 0.44346 0.0
H918 H 0.48133 0.42567 0.51454 0.0
H919 H 0.47983 0.46548 0.5352 0.0
H920 H 0.5086 0.44786 0.55687 0.0
H921 H 0.53551 0.49758 0.38788 0.0
H922 H 0.58037 0.54235 0.39013 0.0
H923 H 0.53626 0.53972 0.40509 0.0
loop_
_geom_bond_atom_site_label_1
_geom_bond_atom_site_label_2
_geom_bond_distance
_geom_bond_site_symmetry_2
_ccdc_geom_bond_type
In0 O1 2.294 . S
In0 O2 2.326 . S
In0 O6 2.266 . S
In0 O7 2.326 . S
In0 O8 2.266 . S
In0 O9 2.326 . S
In0 O11 2.294 . S
In0 O12 2.326 . S
O1 In0 2.294 . S
O1 C10 1.240 . S
O2 In0 2.326 . S
O2 C10 1.252 . S
C3 O6 1.252 . S
C3 O7 1.260 . S
C4 O11 1.240 . S
C4 O12 1.252 . S
C5 O8 1.252 . S
C5 O9 1.260 . S
O6 In0 2.266 . S
O6 C3 1.252 . S
O7 In0 2.326 . S
O7 C3 1.260 . S
O8 In0 2.266 . S
O8 C5 1.252 . S
O9 In0 2.326 . S
O9 C5 1.260 . S
C10 O1 1.240 . S
C10 O2 1.252 . S
O11 In0 2.294 . S
O11 C4 1.240 . S
O12 In0 2.326 . S
O12 C4 1.252 . S
In13 O14 2.294 . S
In13 O15 2.326 . S
In13 O19 2.266 . S
In13 O20 2.326 . S
In13 O21 2.266 . S
In13 O22 2.326 . S
In13 O24 2.294 . S
In13 O25 2.326 . S
O14 In13 2.294 . S
O14 C23 1.240 . S
O15 In13 2.326 . S
O15 C23 1.252 . S
C16 O19 1.252 . S
C16 O20 1.260 . S
C17 O24 1.240 . S
C17 O25 1.252 . S
C18 O21 1.252 . S
C18 O22 1.260 . S
O19 In13 2.266 . S
O19 C16 1.252 . S
O20 In13 2.326 . S
O20 C16 1.260 . S
O21 In13 2.266 . S
O21 C18 1.252 . S
O22 In13 2.326 . S
O22 C18 1.260 . S
C23 O14 1.240 . S
C23 O15 1.252 . S
O24 In13 2.294 . S
O24 C17 1.240 . S
O25 In13 2.326 . S
O25 C17 1.252 . S
In26 O27 2.294 . S
In26 O28 2.326 . S
In26 O32 2.266 . S
In26 O33 2.326 . S
In26 O34 2.266 . S
In26 O35 2.326 . S
In26 O37 2.294 . S
In26 O38 2.326 . S
O27 In26 2.294 . S
O27 C36 1.240 . S
O28 In26 2.326 . S
O28 C36 1.252 . S
C29 O32 1.252 . S
C29 O33 1.260 . S
C30 O37 1.240 . S
C30 O38 1.252 . S
C31 O34 1.252 . S
C31 O35 1.260 . S
O32 In26 2.266 . S
O32 C29 1.252 . S
O33 In26 2.326 . S
O33 C29 1.260 . S
O34 In26 2.266 . S
O34 C31 1.252 . S
O35 In26 2.326 . S
O35 C31 1.260 . S
C36 O27 1.240 . S
C36 O28 1.252 . S
O37 In26 2.294 . S
O37 C30 1.240 . S
O38 In26 2.326 . S
O38 C30 1.252 . S
In39 O40 2.294 . S
In39 O41 2.326 . S
In39 O45 2.266 . S
In39 O46 2.326 . S
In39 O47 2.266 . S
In39 O48 2.326 . S
In39 O50 2.294 . S
In39 O51 2.326 . S
O40 In39 2.294 . S
O40 C49 1.240 . S
O41 In39 2.326 . S
O41 C49 1.252 . S
C42 O45 1.252 . S
C42 O46 1.260 . S
C43 O50 1.240 . S
C43 O51 1.252 . S
C44 O47 1.252 . S
C44 O48 1.260 . S
O45 In39 2.266 . S
O45 C42 1.252 . S
O46 In39 2.326 . S
O46 C42 1.260 . S
O47 In39 2.266 . S
O47 C44 1.252 . S
O48 In39 2.326 . S
O48 C44 1.260 . S
C49 O40 1.240 . S
C49 O41 1.252 . S
O50 In39 2.294 . S
O50 C43 1.240 . S
O51 In39 2.326 . S
O51 C43 1.252 . S
In52 O53 2.294 . S
In52 O54 2.326 . S
In52 O58 2.266 . S
In52 O59 2.326 . S
In52 O60 2.266 . S
In52 O61 2.326 . S
In52 O63 2.294 . S
In52 O64 2.326 . S
O53 In52 2.294 . S
O53 C62 1.240 . S
O54 In52 2.326 . S
O54 C62 1.252 . S
C55 O58 1.252 . S
C55 O59 1.260 . S
C56 O63 1.240 . S
C56 O64 1.252 . S
C57 O60 1.252 . S
C57 O61 1.260 . S
O58 In52 2.266 . S
O58 C55 1.252 . S
O59 In52 2.326 . S
O59 C55 1.260 . S
O60 In52 2.266 . S
O60 C57 1.252 . S
O61 In52 2.326 . S
O61 C57 1.260 . S
C62 O53 1.240 . S
C62 O54 1.252 . S
O63 In52 2.294 . S
O63 C56 1.240 . S
O64 In52 2.326 . S
O64 C56 1.252 . S
In65 O66 2.294 . S
In65 O67 2.326 . S
In65 O71 2.266 . S
In65 O72 2.326 . S
In65 O73 2.266 . S
In65 O74 2.326 . S
In65 O76 2.294 . S
In65 O77 2.326 . S
O66 In65 2.294 . S
O66 C75 1.240 . S
O67 In65 2.326 . S
O67 C75 1.252 . S
C68 O71 1.252 . S
C68 O72 1.260 . S
C69 O76 1.240 . S
C69 O77 1.252 . S
C70 O73 1.252 . S
C70 O74 1.260 . S
O71 In65 2.266 . S
O71 C68 1.252 . S
O72 In65 2.326 . S
O72 C68 1.260 . S
O73 In65 2.266 . S
O73 C70 1.252 . S
O74 In65 2.326 . S
O74 C70 1.260 . S
C75 O66 1.240 . S
C75 O67 1.252 . S
O76 In65 2.294 . S
O76 C69 1.240 . S
O77 In65 2.326 . S
O77 C69 1.252 . S
In78 O79 2.294 . S
In78 O80 2.326 . S
In78 O84 2.266 . S
In78 O85 2.326 . S
In78 O86 2.266 . S
In78 O87 2.326 . S
In78 O89 2.294 . S
In78 O90 2.326 . S
O79 In78 2.294 . S
O79 C88 1.240 . S
O80 In78 2.326 . S
O80 C88 1.252 . S
C81 O84 1.252 . S
C81 O85 1.260 . S
C82 O89 1.240 . S
C82 O90 1.252 . S
C83 O86 1.252 . S
C83 O87 1.260 . S
O84 In78 2.266 . S
O84 C81 1.252 . S
O85 In78 2.326 . S
O85 C81 1.260 . S
O86 In78 2.266 . S
O86 C83 1.252 . S
O87 In78 2.326 . S
O87 C83 1.260 . S
C88 O79 1.240 . S
C88 O80 1.252 . S
O89 In78 2.294 . S
O89 C82 1.240 . S
O90 In78 2.326 . S
O90 C82 1.252 . S
In91 O92 2.294 . S
In91 O93 2.326 . S
In91 O97 2.266 . S
In91 O98 2.326 . S
In91 O99 2.266 . S
In91 O100 2.326 . S
In91 O102 2.294 . S
In91 O103 2.326 . S
O92 In91 2.294 . S
O92 C101 1.240 . S
O93 In91 2.326 . S
O93 C101 1.252 . S
C94 O97 1.252 . S
C94 O98 1.260 . S
C95 O102 1.240 . S
C95 O103 1.252 . S
C96 O99 1.252 . S
C96 O100 1.260 . S
O97 In91 2.266 . S
O97 C94 1.252 . S
O98 In91 2.326 . S
O98 C94 1.260 . S
O99 In91 2.266 . S
O99 C96 1.252 . S
O100 In91 2.326 . S
O100 C96 1.260 . S
C101 O92 1.240 . S
C101 O93 1.252 . S
O102 In91 2.294 . S
O102 C95 1.240 . S
O103 In91 2.326 . S
O103 C95 1.252 . S
In104 O105 2.294 . S
In104 O106 2.326 . S
In104 O110 2.266 . S
In104 O111 2.326 . S
In104 O112 2.266 . S
In104 O113 2.326 . S
In104 O115 2.294 . S
In104 O116 2.326 . S
O105 In104 2.294 . S
O105 C114 1.240 . S
O106 In104 2.326 . S
O106 C114 1.252 . S
C107 O110 1.252 . S
C107 O111 1.260 . S
C108 O115 1.240 . S
C108 O116 1.252 . S
C109 O112 1.252 . S
C109 O113 1.260 . S
O110 In104 2.266 . S
O110 C107 1.252 . S
O111 In104 2.326 . S
O111 C107 1.260 . S
O112 In104 2.266 . S
O112 C109 1.252 . S
O113 In104 2.326 . S
O113 C109 1.260 . S
C114 O105 1.240 . S
C114 O106 1.252 . S
O115 In104 2.294 . S
O115 C108 1.240 . S
O116 In104 2.326 . S
O116 C108 1.252 . S
In117 O118 2.294 . S
In117 O119 2.326 . S
In117 O123 2.266 . S
In117 O124 2.326 . S
In117 O125 2.266 . S
In117 O126 2.326 . S
In117 O128 2.294 . S
In117 O129 2.326 . S
O118 In117 2.294 . S
O118 C127 1.240 . S
O119 In117 2.326 . S
O119 C127 1.252 . S
C120 O123 1.252 . S
C120 O124 1.260 . S
C121 O128 1.240 . S
C121 O129 1.252 . S
C122 O125 1.252 . S
C122 O126 1.260 . S
O123 In117 2.266 . S
O123 C120 1.252 . S
O124 In117 2.326 . S
O124 C120 1.260 . S
O125 In117 2.266 . S
O125 C122 1.252 . S
O126 In117 2.326 . S
O126 C122 1.260 . S
C127 O118 1.240 . S
C127 O119 1.252 . S
O128 In117 2.294 . S
O128 C121 1.240 . S
O129 In117 2.326 . S
O129 C121 1.252 . S
In130 O131 2.294 . S
In130 O132 2.326 . S
In130 O136 2.266 . S
In130 O137 2.326 . S
In130 O138 2.266 . S
In130 O139 2.326 . S
In130 O141 2.294 . S
In130 O142 2.326 . S
O131 In130 2.294 . S
O131 C140 1.240 . S
O132 In130 2.326 . S
O132 C140 1.252 . S
C133 O136 1.252 . S
C133 O137 1.260 . S
C134 O141 1.240 . S
C134 O142 1.252 . S
C135 O138 1.252 . S
C135 O139 1.260 . S
O136 In130 2.266 . S
O136 C133 1.252 . S
O137 In130 2.326 . S
O137 C133 1.260 . S
O138 In130 2.266 . S
O138 C135 1.252 . S
O139 In130 2.326 . S
O139 C135 1.260 . S
C140 O131 1.240 . S
C140 O132 1.252 . S
O141 In130 2.294 . S
O141 C134 1.240 . S
O142 In130 2.326 . S
O142 C134 1.252 . S
In143 O144 2.294 . S
In143 O145 2.326 . S
In143 O149 2.266 . S
In143 O150 2.326 . S
In143 O151 2.266 . S
In143 O152 2.326 . S
In143 O154 2.294 . S
In143 O155 2.326 . S
O144 In143 2.294 . S
O144 C153 1.240 . S
O145 In143 2.326 . S
O145 C153 1.252 . S
C146 O149 1.252 . S
C146 O150 1.260 . S
C147 O154 1.240 . S
C147 O155 1.252 . S
C148 O151 1.252 . S
C148 O152 1.260 . S
O149 In143 2.266 . S
O149 C146 1.252 . S
O150 In143 2.326 . S
O150 C146 1.260 . S
O151 In143 2.266 . S
O151 C148 1.252 . S
O152 In143 2.326 . S
O152 C148 1.260 . S
C153 O144 1.240 . S
C153 O145 1.252 . S
O154 In143 2.294 . S
O154 C147 1.240 . S
O155 In143 2.326 . S
O155 C147 1.252 . S
C156 C157 1.391 . S
C156 C158 1.394 . S
C156 H172 0.931 . S
C157 C156 1.391 . S
C157 C161 1.381 . S
C158 C156 1.394 . S
C158 C159 1.369 . S
C158 C162 1.531 . S
C159 C158 1.369 . S
C159 C160 1.410 1_554 S
C159 C167 1.503 1_554 S
C160 C159 1.410 1_556 S
C160 C161 1.391 1_556 S
C160 C163 1.511 . S
C161 C157 1.381 . S
C161 C160 1.391 1_554 S
C161 H173 0.925 1_554 S
C162 C158 1.531 . S
C162 H174 0.960 . S
C162 H175 0.962 . S
C162 H176 0.960 . S
C163 C160 1.511 . S
C163 H177 0.961 . S
C163 H178 0.961 . S
C163 H179 0.961 . S
C164 C165 1.370 . S
C164 C166 1.363 . S
C164 H180 0.931 . S
C165 C164 1.370 . S
C165 C169 1.408 1_556 S
C166 C164 1.363 . S
C166 C167 1.370 . S
C166 C170 1.524 . S
C167 C159 1.503 1_556 S
C167 C166 1.370 . S
C167 C168 1.403 1_556 S
C168 C167 1.403 1_554 S
C168 C169 1.404 . S
C168 C171 1.539 . S
C169 C165 1.408 1_554 S
C169 C168 1.404 . S
C169 H181 0.930 . S
C170 C166 1.524 . S
C170 H182 0.956 . S
C170 H183 0.961 . S
C170 H184 0.961 . S
C171 C168 1.539 . S
C171 H185 0.958 . S
C171 H186 0.961 . S
C171 H187 0.960 . S
H172 C156 0.931 . S
H173 C161 0.925 1_556 S
H174 C162 0.960 . S
H175 C162 0.962 . S
H176 C162 0.960 . S
H177 C163 0.961 . S
H178 C163 0.961 . S
H179 C163 0.961 . S
H180 C164 0.931 . S
H181 C169 0.930 . S
H182 C170 0.956 . S
H183 C170 0.961 . S
H184 C170 0.961 . S
H185 C171 0.958 . S
H186 C171 0.961 . S
H187 C171 0.960 . S
C188 C189 1.391 . S
C188 C190 1.394 . S
C188 H204 0.931 . S
C189 C188 1.391 . S
C189 C193 1.376 . S
C190 C188 1.394 . S
C190 C191 1.369 . S
C190 C194 1.531 . S
C191 C190 1.369 . S
C191 C192 1.410 . S
C191 C199 1.499 1_554 S
C192 C191 1.410 . S
C192 C193 1.392 . S
C192 C195 1.511 1_554 S
C193 C189 1.376 . S
C193 C192 1.392 . S
C193 H205 0.929 . S
C194 C190 1.531 . S
C194 H206 0.960 . S
C194 H207 0.962 . S
C194 H208 0.960 . S
C195 C192 1.511 1_556 S
C195 H209 0.961 . S
C195 H210 0.961 . S
C195 H211 0.961 . S
C196 C197 1.370 . S
C196 C198 1.363 . S
C196 H212 0.931 . S
C197 C196 1.370 . S
C197 C201 1.408 1_556 S
C198 C196 1.363 . S
C198 C199 1.383 . S
C198 C202 1.524 . S
C199 C191 1.499 1_556 S
C199 C198 1.383 . S
C199 C200 1.395 1_556 S
C200 C199 1.395 1_554 S
C200 C201 1.404 . S
C200 C203 1.539 . S
C201 C197 1.408 1_554 S
C201 C200 1.404 . S
C201 H213 0.930 1_565 S
C202 C198 1.524 . S
C202 H214 0.956 . S
C202 H215 0.961 . S
C202 H216 0.961 . S
C203 C200 1.539 . S
C203 H217 0.958 . S
C203 H218 0.961 . S
C203 H219 0.960 . S
H204 C188 0.931 . S
H205 C193 0.929 . S
H206 C194 0.960 . S
H207 C194 0.962 . S
H208 C194 0.960 . S
H209 C195 0.961 . S
H210 C195 0.961 . S
H211 C195 0.961 . S
H212 C196 0.931 . S
H213 C201 0.930 1_545 S
H214 C202 0.956 . S
H215 C202 0.961 . S
H216 C202 0.961 . S
H217 C203 0.958 . S
H218 C203 0.961 . S
H219 C203 0.960 . S
C220 C221 1.391 . S
C220 C222 1.394 . S
C220 H236 0.931 . S
C221 C220 1.391 . S
C221 C225 1.376 1_554 S
C222 C220 1.394 . S
C222 C223 1.369 . S
C222 C226 1.531 . S
C223 C222 1.369 . S
C223 C224 1.410 1_554 S
C223 C231 1.503 1_554 S
C224 C223 1.410 1_556 S
C224 C225 1.392 . S
C224 C227 1.511 . S
C225 C221 1.376 1_556 S
C225 C224 1.392 . S
C225 H237 0.929 . S
C226 C222 1.531 . S
C226 H238 0.960 . S
C226 H239 0.962 . S
C226 H240 0.960 . S
C227 C224 1.511 . S
C227 H241 0.961 . S
C227 H242 0.961 . S
C227 H243 0.961 . S
C228 C229 1.370 . S
C228 C230 1.363 . S
C228 H244 0.931 . S
C229 C228 1.370 . S
C229 C233 1.408 . S
C230 C228 1.363 . S
C230 C231 1.370 . S
C230 C234 1.524 . S
C231 C223 1.503 1_556 S
C231 C230 1.370 . S
C231 C232 1.403 . S
C232 C231 1.403 . S
C232 C233 1.404 . S
C232 C235 1.539 1_556 S
C233 C229 1.408 . S
C233 C232 1.404 . S
C233 H245 0.930 1_455 S
C234 C230 1.524 . S
C234 H246 0.956 1_556 S
C234 H247 0.961 . S
C234 H248 0.961 . S
C235 C232 1.539 1_554 S
C235 H249 0.958 . S
C235 H250 0.961 1_554 S
C235 H251 0.960 . S
H236 C220 0.931 . S
H237 C225 0.929 . S
H238 C226 0.960 . S
H239 C226 0.962 . S
H240 C226 0.960 . S
H241 C227 0.961 . S
H242 C227 0.961 . S
H243 C227 0.961 . S
H244 C228 0.931 . S
H245 C233 0.930 1_655 S
H246 C234 0.956 1_554 S
H247 C234 0.961 . S
H248 C234 0.961 . S
H249 C235 0.958 . S
H250 C235 0.961 1_556 S
H251 C235 0.960 . S
C252 C253 1.391 . S
C252 C254 1.394 . S
C252 H268 0.931 . S
C253 C252 1.391 . S
C253 C257 1.376 . S
C254 C252 1.394 . S
C254 C255 1.369 . S
C254 C258 1.531 . S
C255 C254 1.369 . S
C255 C256 1.410 . S
C255 C263 1.503 . S
C256 C255 1.410 . S
C256 C257 1.392 . S
C256 C259 1.511 . S
C257 C253 1.376 . S
C257 C256 1.392 . S
C257 H269 0.929 . S
C258 C254 1.531 . S
C258 H270 0.960 . S
C258 H271 0.962 . S
C258 H272 0.960 . S
C259 C256 1.511 . S
C259 H273 0.961 . S
C259 H274 0.961 . S
C259 H275 0.961 . S
C260 C261 1.370 . S
C260 C262 1.363 . S
C260 H276 0.931 . S
C261 C260 1.370 . S
C261 C265 1.408 . S
C262 C260 1.363 . S
C262 C263 1.370 . S
C262 C266 1.524 . S
C263 C255 1.503 . S
C263 C262 1.370 . S
C263 C264 1.403 . S
C264 C263 1.403 . S
C264 C265 1.404 . S
C264 C267 1.539 . S
C265 C261 1.408 . S
C265 C264 1.404 . S
C265 H277 0.930 . S
C266 C262 1.524 . S
C266 H278 0.956 . S
C266 H279 0.961 . S
C266 H280 0.961 . S
C267 C264 1.539 . S
C267 H281 0.958 . S
C267 H282 0.961 . S
C267 H283 0.960 . S
H268 C252 0.931 . S
H269 C257 0.929 . S
H270 C258 0.960 . S
H271 C258 0.962 . S
H272 C258 0.960 . S
H273 C259 0.961 . S
H274 C259 0.961 . S
H275 C259 0.961 . S
H276 C260 0.931 . S
H277 C265 0.930 . S
H278 C266 0.956 . S
H279 C266 0.961 . S
H280 C266 0.961 . S
H281 C267 0.958 . S
H282 C267 0.961 . S
H283 C267 0.960 . S
C284 C285 1.391 . S
C284 C286 1.394 . S
C284 H300 0.931 . S
C285 C284 1.391 . S
C285 C289 1.376 . S
C286 C284 1.394 . S
C286 C287 1.369 . S
C286 C290 1.531 . S
C287 C286 1.369 . S
C287 C288 1.410 . S
C287 C295 1.503 . S
C288 C287 1.410 . S
C288 C289 1.392 . S
C288 C291 1.511 . S
C289 C285 1.376 . S
C289 C288 1.392 . S
C289 H301 0.929 . S
C290 C286 1.531 . S
C290 H302 0.960 . S
C290 H303 0.962 . S
C290 H304 0.960 . S
C291 C288 1.511 . S
C291 H305 0.961 . S
C291 H306 0.961 . S
C291 H307 0.961 . S
C292 C293 1.370 . S
C292 C294 1.363 . S
C292 H308 0.931 1_565 S
C293 C292 1.370 . S
C293 C297 1.408 . S
C294 C292 1.363 . S
C294 C295 1.370 . S
C294 C298 1.524 . S
C295 C287 1.503 . S
C295 C294 1.370 . S
C295 C296 1.403 . S
C296 C295 1.403 . S
C296 C297 1.404 . S
C296 C299 1.539 . S
C297 C293 1.408 . S
C297 C296 1.404 . S
C297 H309 0.930 . S
C298 C294 1.524 . S
C298 H310 0.956 . S
C298 H311 0.961 . S
C298 H312 0.961 . S
C299 C296 1.539 . S
C299 H313 0.958 . S
C299 H314 0.961 . S
C299 H315 0.960 . S
H300 C284 0.931 . S
H301 C289 0.929 . S
H302 C290 0.960 . S
H303 C290 0.962 . S
H304 C290 0.960 . S
H305 C291 0.961 . S
H306 C291 0.961 . S
H307 C291 0.961 . S
H308 C292 0.931 1_545 S
H309 C297 0.930 . S
H310 C298 0.956 . S
H311 C298 0.961 . S
H312 C298 0.961 . S
H313 C299 0.958 . S
H314 C299 0.961 . S
H315 C299 0.960 . S
C316 C317 1.391 . S
C316 C318 1.394 . S
C316 H332 0.931 1_455 S
C317 C316 1.391 . S
C317 C321 1.376 . S
C318 C316 1.394 . S
C318 C319 1.369 . S
C318 C322 1.531 . S
C319 C318 1.369 . S
C319 C320 1.410 . S
C319 C327 1.503 . S
C320 C319 1.410 . S
C320 C321 1.392 . S
C320 C323 1.511 . S
C321 C317 1.376 . S
C321 C320 1.392 . S
C321 H333 0.929 . S
C322 C318 1.531 . S
C322 H334 0.960 . S
C322 H335 0.962 . S
C322 H336 0.960 . S
C323 C320 1.511 . S
C323 H337 0.961 . S
C323 H338 0.961 . S
C323 H339 0.961 . S
C324 C325 1.370 . S
C324 C326 1.363 . S
C324 H340 0.931 . S
C325 C324 1.370 . S
C325 C329 1.408 . S
C326 C324 1.363 . S
C326 C327 1.370 . S
C326 C330 1.524 . S
C327 C319 1.503 . S
C327 C326 1.370 . S
C327 C328 1.403 . S
C328 C327 1.403 . S
C328 C329 1.404 . S
C328 C331 1.539 . S
C329 C325 1.408 . S
C329 C328 1.404 . S
C329 H341 0.930 . S
C330 C326 1.524 . S
C330 H342 0.956 . S
C330 H343 0.961 . S
C330 H344 0.961 . S
C331 C328 1.539 . S
C331 H345 0.958 . S
C331 H346 0.961 . S
C331 H347 0.960 . S
H332 C316 0.931 1_655 S
H333 C321 0.929 . S
H334 C322 0.960 . S
H335 C322 0.962 . S
H336 C322 0.960 . S
H337 C323 0.961 . S
H338 C323 0.961 . S
H339 C323 0.961 . S
H340 C324 0.931 . S
H341 C329 0.930 . S
H342 C330 0.956 . S
H343 C330 0.961 . S
H344 C330 0.961 . S
H345 C331 0.958 . S
H346 C331 0.961 . S
H347 C331 0.960 . S
C348 C349 1.391 1_556 S
C348 C350 1.394 . S
C348 H364 0.931 . S
C349 C348 1.391 1_554 S
C349 C353 1.376 . S
C350 C348 1.394 . S
C350 C351 1.369 1_556 S
C350 C354 1.531 . S
C351 C350 1.369 1_554 S
C351 C352 1.410 . S
C351 C359 1.503 1_554 S
C352 C351 1.410 . S
C352 C353 1.392 . S
C352 C355 1.511 . S
C353 C349 1.376 . S
C353 C352 1.392 . S
C353 H365 0.929 . S
C354 C350 1.531 . S
C354 H366 0.960 . S
C354 H367 0.962 . S
C354 H368 0.960 . S
C355 C352 1.511 . S
C355 H369 0.961 . S
C355 H370 0.961 . S
C355 H371 0.961 . S
C356 C357 1.370 . S
C356 C358 1.363 . S
C356 H372 0.931 . S
C357 C356 1.370 . S
C357 C361 1.408 . S
C358 C356 1.363 . S
C358 C359 1.370 . S
C358 C362 1.524 . S
C359 C351 1.503 1_556 S
C359 C358 1.370 . S
C359 C360 1.403 . S
C360 C359 1.403 . S
C360 C361 1.404 . S
C360 C363 1.539 . S
C361 C357 1.408 . S
C361 C360 1.404 . S
C361 H373 0.930 . S
C362 C358 1.524 . S
C362 H374 0.956 . S
C362 H375 0.961 1_556 S
C362 H376 0.961 . S
C363 C360 1.539 . S
C363 H377 0.958 . S
C363 H378 0.961 1_556 S
C363 H379 0.960 1_556 S
H364 C348 0.931 . S
H365 C353 0.929 . S
H366 C354 0.960 . S
H367 C354 0.962 . S
H368 C354 0.960 . S
H369 C355 0.961 . S
H370 C355 0.961 . S
H371 C355 0.961 . S
H372 C356 0.931 . S
H373 C361 0.930 . S
H374 C362 0.956 . S
H375 C362 0.961 1_554 S
H376 C362 0.961 . S
H377 C363 0.958 . S
H378 C363 0.961 1_554 S
H379 C363 0.960 1_554 S
C380 C381 1.391 . S
C380 C382 1.394 . S
C380 H396 0.931 . S
C381 C380 1.391 . S
C381 C385 1.376 1_556 S
C382 C380 1.394 . S
C382 C383 1.369 . S
C382 C386 1.531 . S
C383 C382 1.369 . S
C383 C384 1.410 1_556 S
C383 C391 1.503 1_556 S
C384 C383 1.410 1_554 S
C384 C385 1.392 . S
C384 C387 1.511 . S
C385 C381 1.376 1_554 S
C385 C384 1.392 . S
C385 H397 0.929 . S
C386 C382 1.531 . S
C386 H398 0.960 . S
C386 H399 0.962 . S
C386 H400 0.960 . S
C387 C384 1.511 . S
C387 H401 0.961 . S
C387 H402 0.961 . S
C387 H403 0.961 . S
C388 C389 1.370 . S
C388 C390 1.363 . S
C388 H404 0.931 . S
C389 C388 1.370 . S
C389 C393 1.408 . S
C390 C388 1.363 . S
C390 C391 1.370 . S
C390 C394 1.524 . S
C391 C383 1.503 1_554 S
C391 C390 1.370 . S
C391 C392 1.403 1_554 S
C392 C391 1.403 1_556 S
C392 C393 1.404 1_556 S
C392 C395 1.539 . S
C393 C389 1.408 . S
C393 C392 1.404 1_554 S
C393 H405 0.930 1_554 S
C394 C390 1.524 . S
C394 H406 0.956 . S
C394 H407 0.961 . S
C394 H408 0.961 . S
C395 C392 1.539 . S
C395 H409 0.958 . S
C395 H410 0.961 . S
C395 H411 0.960 . S
H396 C380 0.931 . S
H397 C385 0.929 . S
H398 C386 0.960 . S
H399 C386 0.962 . S
H400 C386 0.960 . S
H401 C387 0.961 . S
H402 C387 0.961 . S
H403 C387 0.961 . S
H404 C388 0.931 . S
H405 C393 0.930 1_556 S
H406 C394 0.956 . S
H407 C394 0.961 . S
H408 C394 0.961 . S
H409 C395 0.958 . S
H410 C395 0.961 . S
H411 C395 0.960 . S
C412 C413 1.391 . S
C412 C414 1.394 . S
C412 H428 0.931 . S
C413 C412 1.391 . S
C413 C417 1.376 . S
C414 C412 1.394 . S
C414 C415 1.369 . S
C414 C418 1.531 . S
C415 C414 1.369 . S
C415 C416 1.405 1_554 S
C415 C423 1.503 1_554 S
C416 C415 1.405 1_556 S
C416 C417 1.389 1_556 S
C416 C419 1.519 . S
C417 C413 1.376 . S
C417 C416 1.389 1_554 S
C417 H429 0.929 1_554 S
C418 C414 1.531 . S
C418 H430 0.960 . S
C418 H431 0.962 . S
C418 H432 0.960 . S
C419 C416 1.519 . S
C419 H433 0.961 . S
C419 H434 0.961 . S
C419 H435 0.961 . S
C420 C421 1.370 . S
C420 C422 1.363 . S
C420 H436 0.931 . S
C421 C420 1.370 . S
C421 C425 1.408 1_556 S
C422 C420 1.363 . S
C422 C423 1.370 . S
C422 C426 1.524 . S
C423 C415 1.503 1_556 S
C423 C422 1.370 . S
C423 C424 1.403 1_556 S
C424 C423 1.403 1_554 S
C424 C425 1.404 . S
C424 C427 1.539 . S
C425 C421 1.408 1_554 S
C425 C424 1.404 . S
C425 H437 0.930 . S
C426 C422 1.524 . S
C426 H438 0.956 . S
C426 H439 0.961 . S
C426 H440 0.961 . S
C427 C424 1.539 . S
C427 H441 0.958 . S
C427 H442 0.961 . S
C427 H443 0.960 . S
H428 C412 0.931 . S
H429 C417 0.929 1_556 S
H430 C418 0.960 . S
H431 C418 0.962 . S
H432 C418 0.960 . S
H433 C419 0.961 . S
H434 C419 0.961 . S
H435 C419 0.961 . S
H436 C420 0.931 . S
H437 C425 0.930 . S
H438 C426 0.956 . S
H439 C426 0.961 . S
H440 C426 0.961 . S
H441 C427 0.958 . S
H442 C427 0.961 . S
H443 C427 0.960 . S
C444 C445 1.391 . S
C444 C446 1.394 . S
C444 H460 0.931 . S
C445 C444 1.391 . S
C445 C449 1.376 . S
C446 C444 1.394 . S
C446 C447 1.369 . S
C446 C450 1.531 . S
C447 C446 1.369 . S
C447 C448 1.410 . S
C447 C455 1.503 . S
C448 C447 1.410 . S
C448 C449 1.392 . S
C448 C451 1.511 . S
C449 C445 1.376 . S
C449 C448 1.392 . S
C449 H461 0.929 . S
C450 C446 1.531 . S
C450 H462 0.960 . S
C450 H463 0.962 . S
C450 H464 0.960 . S
C451 C448 1.511 . S
C451 H465 0.961 . S
C451 H466 0.961 . S
C451 H467 0.961 . S
C452 C453 1.370 . S
C452 C454 1.363 . S
C452 H468 0.931 . S
C453 C452 1.370 . S
C453 C457 1.408 . S
C454 C452 1.363 . S
C454 C455 1.370 . S
C454 C458 1.524 . S
C455 C447 1.503 . S
C455 C454 1.370 . S
C455 C456 1.403 . S
C456 C455 1.403 . S
C456 C457 1.404 . S
C456 C459 1.539 . S
C457 C453 1.408 . S
C457 C456 1.404 . S
C457 H469 0.930 . S
C458 C454 1.524 . S
C458 H470 0.956 . S
C458 H471 0.961 . S
C458 H472 0.961 . S
C459 C456 1.539 . S
C459 H473 0.958 . S
C459 H474 0.961 . S
C459 H475 0.960 . S
H460 C444 0.931 . S
H461 C449 0.929 . S
H462 C450 0.960 . S
H463 C450 0.962 . S
H464 C450 0.960 . S
H465 C451 0.961 . S
H466 C451 0.961 . S
H467 C451 0.961 . S
H468 C452 0.931 . S
H469 C457 0.930 . S
H470 C458 0.956 . S
H471 C458 0.961 . S
H472 C458 0.961 . S
H473 C459 0.958 . S
H474 C459 0.961 . S
H475 C459 0.960 . S
C476 C477 1.391 . S
C476 C478 1.394 . S
C476 H492 0.931 . S
C477 C476 1.391 . S
C477 C481 1.376 . S
C478 C476 1.394 . S
C478 C479 1.369 . S
C478 C482 1.531 . S
C479 C478 1.369 . S
C479 C480 1.410 . S
C479 C487 1.503 . S
C480 C479 1.410 . S
C480 C481 1.392 . S
C480 C483 1.511 . S
C481 C477 1.376 . S
C481 C480 1.392 . S
C481 H493 0.929 . S
C482 C478 1.531 . S
C482 H494 0.960 . S
C482 H495 0.962 . S
C482 H496 0.960 . S
C483 C480 1.511 . S
C483 H497 0.961 . S
C483 H498 0.961 . S
C483 H499 0.961 . S
C484 C485 1.370 . S
C484 C486 1.363 . S
C484 H500 0.931 . S
C485 C484 1.370 . S
C485 C489 1.408 . S
C486 C484 1.363 . S
C486 C487 1.370 . S
C486 C490 1.524 . S
C487 C479 1.503 . S
C487 C486 1.370 . S
C487 C488 1.403 . S
C488 C487 1.403 . S
C488 C489 1.404 . S
C488 C491 1.539 . S
C489 C485 1.408 . S
C489 C488 1.404 . S
C489 H501 0.930 . S
C490 C486 1.524 . S
C490 H502 0.956 . S
C490 H503 0.961 . S
C490 H504 0.961 . S
C491 C488 1.539 . S
C491 H505 0.958 . S
C491 H506 0.961 . S
C491 H507 0.960 . S
H492 C476 0.931 . S
H493 C481 0.929 . S
H494 C482 0.960 . S
H495 C482 0.962 . S
H496 C482 0.960 . S
H497 C483 0.961 . S
H498 C483 0.961 . S
H499 C483 0.961 . S
H500 C484 0.931 . S
H501 C489 0.930 . S
H502 C490 0.956 . S
H503 C490 0.961 . S
H504 C490 0.961 . S
H505 C491 0.958 . S
H506 C491 0.961 . S
H507 C491 0.960 . S
C508 C509 1.391 . S
C508 C510 1.394 . S
C508 H524 0.931 . S
C509 C508 1.391 . S
C509 C513 1.376 . S
C510 C508 1.394 . S
C510 C511 1.369 . S
C510 C514 1.531 . S
C511 C510 1.369 . S
C511 C512 1.410 . S
C511 C519 1.503 . S
C512 C511 1.410 . S
C512 C513 1.392 . S
C512 C515 1.511 . S
C513 C509 1.376 . S
C513 C512 1.392 . S
C513 H525 0.929 . S
C514 C510 1.531 . S
C514 H526 0.960 . S
C514 H527 0.962 . S
C514 H528 0.960 . S
C515 C512 1.511 . S
C515 H529 0.961 . S
C515 H530 0.961 . S
C515 H531 0.961 . S
C516 C517 1.370 . S
C516 C518 1.363 . S
C516 H532 0.931 . S
C517 C516 1.370 . S
C517 C521 1.408 . S
C518 C516 1.363 . S
C518 C519 1.370 . S
C518 C522 1.524 . S
C519 C511 1.503 . S
C519 C518 1.370 . S
C519 C520 1.403 . S
C520 C519 1.403 . S
C520 C521 1.404 . S
C520 C523 1.539 . S
C521 C517 1.408 . S
C521 C520 1.404 . S
C521 H533 0.930 . S
C522 C518 1.524 . S
C522 H534 0.956 . S
C522 H535 0.961 . S
C522 H536 0.961 . S
C523 C520 1.539 . S
C523 H537 0.958 . S
C523 H538 0.961 . S
C523 H539 0.960 . S
H524 C508 0.931 . S
H525 C513 0.929 . S
H526 C514 0.960 . S
H527 C514 0.962 . S
H528 C514 0.960 . S
H529 C515 0.961 . S
H530 C515 0.961 . S
H531 C515 0.961 . S
H532 C516 0.931 . S
H533 C521 0.930 . S
H534 C522 0.956 . S
H535 C522 0.961 . S
H536 C522 0.961 . S
H537 C523 0.958 . S
H538 C523 0.961 . S
H539 C523 0.960 . S
C540 C541 1.391 . S
C540 C542 1.394 . S
C540 H556 0.931 . S
C541 C540 1.391 . S
C541 C545 1.376 . S
C542 C540 1.394 . S
C542 C543 1.369 . S
C542 C546 1.531 . S
C543 C542 1.369 . S
C543 C544 1.410 . S
C543 C551 1.503 . S
C544 C543 1.410 . S
C544 C545 1.392 . S
C544 C547 1.511 . S
C545 C541 1.376 . S
C545 C544 1.392 . S
C545 H557 0.929 . S
C546 C542 1.531 . S
C546 H558 0.960 . S
C546 H559 0.962 . S
C546 H560 0.960 . S
C547 C544 1.511 . S
C547 H561 0.961 . S
C547 H562 0.961 . S
C547 H563 0.961 . S
C548 C549 1.370 . S
C548 C550 1.363 . S
C548 H564 0.931 . S
C549 C548 1.370 . S
C549 C553 1.408 . S
C550 C548 1.363 . S
C550 C551 1.370 . S
C550 C554 1.524 . S
C551 C543 1.503 . S
C551 C550 1.370 . S
C551 C552 1.403 . S
C552 C551 1.403 . S
C552 C553 1.404 . S
C552 C555 1.539 . S
C553 C549 1.408 . S
C553 C552 1.404 . S
C553 H565 0.930 . S
C554 C550 1.524 . S
C554 H566 0.956 . S
C554 H567 0.961 . S
C554 H568 0.961 . S
C555 C552 1.539 . S
C555 H569 0.958 . S
C555 H570 0.961 . S
C555 H571 0.960 . S
H556 C540 0.931 . S
H557 C545 0.929 . S
H558 C546 0.960 . S
H559 C546 0.962 . S
H560 C546 0.960 . S
H561 C547 0.961 . S
H562 C547 0.961 . S
H563 C547 0.961 . S
H564 C548 0.931 . S
H565 C553 0.930 . S
H566 C554 0.956 . S
H567 C554 0.961 . S
H568 C554 0.961 . S
H569 C555 0.958 . S
H570 C555 0.961 . S
H571 C555 0.960 . S
C572 C573 1.391 . S
C572 C574 1.394 . S
C572 H588 0.931 . S
C573 C572 1.391 . S
C573 C577 1.376 . S
C574 C572 1.394 . S
C574 C575 1.369 . S
C574 C578 1.531 . S
C575 C574 1.369 . S
C575 C576 1.410 . S
C575 C583 1.503 . S
C576 C575 1.410 . S
C576 C577 1.392 . S
C576 C579 1.511 . S
C577 C573 1.376 . S
C577 C576 1.392 . S
C577 H589 0.929 . S
C578 C574 1.531 . S
C578 H590 0.960 . S
C578 H591 0.962 . S
C578 H592 0.960 . S
C579 C576 1.511 . S
C579 H593 0.961 . S
C579 H594 0.961 . S
C579 H595 0.961 . S
C580 C581 1.370 . S
C580 C582 1.363 . S
C580 H596 0.931 . S
C581 C580 1.370 . S
C581 C585 1.408 . S
C582 C580 1.363 . S
C582 C583 1.370 . S
C582 C586 1.524 . S
C583 C575 1.503 . S
C583 C582 1.370 . S
C583 C584 1.403 . S
C584 C583 1.403 . S
C584 C585 1.404 . S
C584 C587 1.539 . S
C585 C581 1.408 . S
C585 C584 1.404 . S
C585 H597 0.930 . S
C586 C582 1.524 . S
C586 H598 0.956 . S
C586 H599 0.961 . S
C586 H600 0.961 . S
C587 C584 1.539 . S
C587 H601 0.958 . S
C587 H602 0.961 . S
C587 H603 0.960 . S
H588 C572 0.931 . S
H589 C577 0.929 . S
H590 C578 0.960 . S
H591 C578 0.962 . S
H592 C578 0.960 . S
H593 C579 0.961 . S
H594 C579 0.961 . S
H595 C579 0.961 . S
H596 C580 0.931 . S
H597 C585 0.930 . S
H598 C586 0.956 . S
H599 C586 0.961 . S
H600 C586 0.961 . S
H601 C587 0.958 . S
H602 C587 0.961 . S
H603 C587 0.960 . S
C604 C605 1.391 . S
C604 C606 1.394 . S
C604 H620 0.931 . S
C605 C604 1.391 . S
C605 C609 1.376 . S
C606 C604 1.394 . S
C606 C607 1.369 . S
C606 C610 1.531 . S
C607 C606 1.369 . S
C607 C608 1.410 . S
C607 C615 1.503 . S
C608 C607 1.410 . S
C608 C609 1.392 . S
C608 C611 1.511 . S
C609 C605 1.376 . S
C609 C608 1.392 . S
C609 H621 0.929 . S
C610 C606 1.531 . S
C610 H622 0.960 . S
C610 H623 0.962 . S
C610 H624 0.960 . S
C611 C608 1.511 . S
C611 H625 0.961 . S
C611 H626 0.961 . S
C611 H627 0.961 . S
C612 C613 1.370 . S
C612 C614 1.363 . S
C612 H628 0.931 . S
C613 C612 1.370 . S
C613 C617 1.408 . S
C614 C612 1.363 . S
C614 C615 1.370 . S
C614 C618 1.524 . S
C615 C607 1.503 . S
C615 C614 1.370 . S
C615 C616 1.403 . S
C616 C615 1.403 . S
C616 C617 1.404 . S
C616 C619 1.539 . S
C617 C613 1.408 . S
C617 C616 1.404 . S
C617 H629 0.930 . S
C618 C614 1.524 . S
C618 H630 0.956 . S
C618 H631 0.961 . S
C618 H632 0.961 . S
C619 C616 1.539 . S
C619 H633 0.958 . S
C619 H634 0.961 . S
C619 H635 0.960 . S
H620 C604 0.931 . S
H621 C609 0.929 . S
H622 C610 0.960 . S
H623 C610 0.962 . S
H624 C610 0.960 . S
H625 C611 0.961 . S
H626 C611 0.961 . S
H627 C611 0.961 . S
H628 C612 0.931 . S
H629 C617 0.930 . S
H630 C618 0.956 . S
H631 C618 0.961 . S
H632 C618 0.961 . S
H633 C619 0.958 . S
H634 C619 0.961 . S
H635 C619 0.960 . S
C636 C637 1.391 . S
C636 C638 1.394 . S
C636 H652 0.931 . S
C637 C636 1.391 . S
C637 C641 1.376 . S
C638 C636 1.394 . S
C638 C639 1.369 . S
C638 C642 1.531 . S
C639 C638 1.369 . S
C639 C640 1.410 . S
C639 C647 1.503 . S
C640 C639 1.410 . S
C640 C641 1.392 . S
C640 C643 1.511 . S
C641 C637 1.376 . S
C641 C640 1.392 . S
C641 H653 0.929 . S
C642 C638 1.531 . S
C642 H654 0.960 . S
C642 H655 0.962 . S
C642 H656 0.960 . S
C643 C640 1.511 . S
C643 H657 0.961 . S
C643 H658 0.961 . S
C643 H659 0.961 . S
C644 C645 1.370 . S
C644 C646 1.363 . S
C644 H660 0.931 . S
C645 C644 1.370 . S
C645 C649 1.408 . S
C646 C644 1.363 . S
C646 C647 1.370 . S
C646 C650 1.524 . S
C647 C639 1.503 . S
C647 C646 1.370 . S
C647 C648 1.403 . S
C648 C647 1.403 . S
C648 C649 1.404 . S
C648 C651 1.539 . S
C649 C645 1.408 . S
C649 C648 1.404 . S
C649 H661 0.930 . S
C650 C646 1.524 . S
C650 H662 0.956 . S
C650 H663 0.961 . S
C650 H664 0.961 . S
C651 C648 1.539 . S
C651 H665 0.958 . S
C651 H666 0.961 . S
C651 H667 0.960 . S
H652 C636 0.931 . S
H653 C641 0.929 . S
H654 C642 0.960 . S
H655 C642 0.962 . S
H656 C642 0.960 . S
H657 C643 0.961 . S
H658 C643 0.961 . S
H659 C643 0.961 . S
H660 C644 0.931 . S
H661 C649 0.930 . S
H662 C650 0.956 . S
H663 C650 0.961 . S
H664 C650 0.961 . S
H665 C651 0.958 . S
H666 C651 0.961 . S
H667 C651 0.960 . S
C668 C669 1.391 . S
C668 C670 1.394 . S
C668 H684 0.931 . S
C669 C668 1.391 . S
C669 C673 1.376 . S
C670 C668 1.394 . S
C670 C671 1.369 . S
C670 C674 1.531 . S
C671 C670 1.369 . S
C671 C672 1.410 . S
C671 C679 1.503 . S
C672 C671 1.410 . S
C672 C673 1.392 . S
C672 C675 1.511 . S
C673 C669 1.376 . S
C673 C672 1.392 . S
C673 H685 0.929 . S
C674 C670 1.531 . S
C674 H686 0.960 . S
C674 H687 0.962 . S
C674 H688 0.960 . S
C675 C672 1.511 . S
C675 H689 0.961 . S
C675 H690 0.961 . S
C675 H691 0.961 . S
C676 C677 1.370 . S
C676 C678 1.363 . S
C676 H692 0.931 . S
C677 C676 1.370 . S
C677 C681 1.408 . S
C678 C676 1.363 . S
C678 C679 1.370 . S
C678 C682 1.524 . S
C679 C671 1.503 . S
C679 C678 1.370 . S
C679 C680 1.403 . S
C680 C679 1.403 . S
C680 C681 1.404 . S
C680 C683 1.539 . S
C681 C677 1.408 . S
C681 C680 1.404 . S
C681 H693 0.930 . S
C682 C678 1.524 . S
C682 H694 0.956 . S
C682 H695 0.961 . S
C682 H696 0.961 . S
C683 C680 1.539 . S
C683 H697 0.958 . S
C683 H698 0.961 . S
C683 H699 0.960 . S
H684 C668 0.931 . S
H685 C673 0.929 . S
H686 C674 0.960 . S
H687 C674 0.962 . S
H688 C674 0.960 . S
H689 C675 0.961 . S
H690 C675 0.961 . S
H691 C675 0.961 . S
H692 C676 0.931 . S
H693 C681 0.930 . S
H694 C682 0.956 . S
H695 C682 0.961 . S
H696 C682 0.961 . S
H697 C683 0.958 . S
H698 C683 0.961 . S
H699 C683 0.960 . S
C700 C701 1.391 . S
C700 C702 1.394 . S
C700 H716 0.931 . S
C701 C700 1.391 . S
C701 C705 1.376 . S
C702 C700 1.394 . S
C702 C703 1.369 . S
C702 C706 1.531 . S
C703 C702 1.369 . S
C703 C704 1.410 . S
C703 C711 1.503 . S
C704 C703 1.410 . S
C704 C705 1.392 . S
C704 C707 1.511 . S
C705 C701 1.376 . S
C705 C704 1.392 . S
C705 H717 0.929 . S
C706 C702 1.531 . S
C706 H718 0.960 . S
C706 H719 0.962 . S
C706 H720 0.960 . S
C707 C704 1.511 . S
C707 H721 0.961 . S
C707 H722 0.961 . S
C707 H723 0.961 . S
C708 C709 1.370 . S
C708 C710 1.363 . S
C708 H724 0.931 . S
C709 C708 1.370 . S
C709 C713 1.408 . S
C710 C708 1.363 . S
C710 C711 1.370 . S
C710 C714 1.524 . S
C711 C703 1.503 . S
C711 C710 1.370 . S
C711 C712 1.403 . S
C712 C711 1.403 . S
C712 C713 1.404 . S
C712 C715 1.539 . S
C713 C709 1.408 . S
C713 C712 1.404 . S
C713 H725 0.930 . S
C714 C710 1.524 . S
C714 H726 0.956 . S
C714 H727 0.961 . S
C714 H728 0.961 . S
C715 C712 1.539 . S
C715 H729 0.958 . S
C715 H730 0.961 . S
C715 H731 0.960 . S
H716 C700 0.931 . S
H717 C705 0.929 . S
H718 C706 0.960 . S
H719 C706 0.962 . S
H720 C706 0.960 . S
H721 C707 0.961 . S
H722 C707 0.961 . S
H723 C707 0.961 . S
H724 C708 0.931 . S
H725 C713 0.930 . S
H726 C714 0.956 . S
H727 C714 0.961 . S
H728 C714 0.961 . S
H729 C715 0.958 . S
H730 C715 0.961 . S
H731 C715 0.960 . S
C732 C733 1.391 . S
C732 C734 1.394 1_554 S
C732 H748 0.931 1_554 S
C733 C732 1.391 . S
C733 C737 1.376 . S
C734 C732 1.394 1_556 S
C734 C735 1.369 1_556 S
C734 C738 1.531 . S
C735 C734 1.369 1_554 S
C735 C736 1.410 1_455 S
C735 C743 1.503 1_454 S
C736 C735 1.410 1_655 S
C736 C737 1.392 1_655 S
C736 C739 1.511 . S
C737 C733 1.376 . S
C737 C736 1.392 1_455 S
C737 H749 0.929 . S
C738 C734 1.531 . S
C738 H750 0.960 . S
C738 H751 0.962 . S
C738 H752 0.960 . S
C739 C736 1.511 . S
C739 H753 0.961 . S
C739 H754 0.961 . S
C739 H755 0.961 . S
C740 C741 1.370 . S
C740 C742 1.352 1_556 S
C740 H756 0.931 . S
C741 C740 1.370 . S
C741 C745 1.408 . S
C742 C740 1.352 1_554 S
C742 C743 1.361 1_554 S
C742 C746 1.545 1_655 S
C743 C735 1.503 1_656 S
C743 C742 1.361 1_556 S
C743 C744 1.403 . S
C744 C743 1.403 . S
C744 C745 1.404 . S
C744 C747 1.539 . S
C745 C741 1.408 . S
C745 C744 1.404 . S
C745 H757 0.930 . S
C746 C742 1.545 1_455 S
C746 H758 0.956 . S
C746 H759 0.961 . S
C746 H760 0.961 . S
C747 C744 1.539 . S
C747 H761 0.958 . S
C747 H762 0.961 . S
C747 H763 0.960 . S
H748 C732 0.931 1_556 S
H749 C737 0.929 . S
H750 C738 0.960 . S
H751 C738 0.962 . S
H752 C738 0.960 . S
H753 C739 0.961 . S
H754 C739 0.961 . S
H755 C739 0.961 . S
H756 C740 0.931 . S
H757 C745 0.930 . S
H758 C746 0.956 . S
H759 C746 0.961 . S
H760 C746 0.961 . S
H761 C747 0.958 . S
H762 C747 0.961 . S
H763 C747 0.960 . S
C764 C765 1.391 . S
C764 C766 1.394 1_554 S
C764 H780 0.931 1_554 S
C765 C764 1.391 . S
C765 C769 1.376 . S
C766 C764 1.394 1_556 S
C766 C767 1.369 1_556 S
C766 C770 1.531 . S
C767 C766 1.369 1_554 S
C767 C768 1.410 . S
C767 C775 1.503 1_554 S
C768 C767 1.410 . S
C768 C769 1.392 . S
C768 C771 1.511 . S
C769 C765 1.376 . S
C769 C768 1.392 . S
C769 H781 0.929 . S
C770 C766 1.531 . S
C770 H782 0.960 . S
C770 H783 0.962 . S
C770 H784 0.960 . S
C771 C768 1.511 . S
C771 H785 0.961 . S
C771 H786 0.961 . S
C771 H787 0.961 . S
C772 C773 1.370 . S
C772 C774 1.363 1_556 S
C772 H788 0.942 . S
C773 C772 1.370 . S
C773 C777 1.408 . S
C774 C772 1.363 1_554 S
C774 C775 1.370 1_554 S
C774 C778 1.524 . S
C775 C767 1.503 1_556 S
C775 C774 1.370 1_556 S
C775 C776 1.403 . S
C776 C775 1.403 . S
C776 C777 1.404 . S
C776 C779 1.539 . S
C777 C773 1.408 . S
C777 C776 1.404 . S
C777 H789 0.930 . S
C778 C774 1.524 . S
C778 H790 0.956 . S
C778 H791 0.961 . S
C778 H792 0.961 . S
C779 C776 1.539 . S
C779 H793 0.958 . S
C779 H794 0.961 . S
C779 H795 0.960 . S
H780 C764 0.931 1_556 S
H781 C769 0.929 . S
H782 C770 0.960 . S
H783 C770 0.962 . S
H784 C770 0.960 . S
H785 C771 0.961 . S
H786 C771 0.961 . S
H787 C771 0.961 . S
H788 C772 0.942 . S
H789 C777 0.930 . S
H790 C778 0.956 . S
H791 C778 0.961 . S
H792 C778 0.961 . S
H793 C779 0.958 . S
H794 C779 0.961 . S
H795 C779 0.960 . S
C796 C797 1.391 . S
C796 C798 1.394 . S
C796 H812 0.931 . S
C797 C796 1.391 . S
C797 C801 1.407 . S
C798 C796 1.394 . S
C798 C799 1.369 . S
C798 C802 1.531 . S
C799 C798 1.369 . S
C799 C800 1.410 1_554 S
C799 C807 1.503 1_564 S
C800 C799 1.410 1_556 S
C800 C801 1.380 1_556 S
C800 C803 1.511 . S
C801 C797 1.407 . S
C801 C800 1.380 1_554 S
C801 H813 0.911 1_554 S
C802 C798 1.531 . S
C802 H814 0.960 . S
C802 H815 0.962 1_565 S
C802 H816 0.960 . S
C803 C800 1.511 . S
C803 H817 0.961 . S
C803 H818 0.961 . S
C803 H819 0.961 . S
C804 C805 1.370 . S
C804 C806 1.363 . S
C804 H820 0.931 . S
C805 C804 1.370 . S
C805 C809 1.408 . S
C806 C804 1.363 . S
C806 C807 1.370 . S
C806 C810 1.524 . S
C807 C799 1.503 1_546 S
C807 C806 1.370 . S
C807 C808 1.403 1_545 S
C808 C807 1.403 1_565 S
C808 C809 1.404 1_565 S
C808 C811 1.539 . S
C809 C805 1.408 . S
C809 C808 1.404 1_545 S
C809 H821 0.930 1_545 S
C810 C806 1.524 . S
C810 H822 0.956 1_556 S
C810 H823 0.961 . S
C810 H824 0.961 . S
C811 C808 1.539 . S
C811 H825 0.958 1_556 S
C811 H826 0.961 . S
C811 H827 0.960 . S
H812 C796 0.931 . S
H813 C801 0.911 1_556 S
H814 C802 0.960 . S
H815 C802 0.962 1_545 S
H816 C802 0.960 . S
H817 C803 0.961 . S
H818 C803 0.961 . S
H819 C803 0.961 . S
H820 C804 0.931 . S
H821 C809 0.930 1_565 S
H822 C810 0.956 1_554 S
H823 C810 0.961 . S
H824 C810 0.961 . S
H825 C811 0.958 1_554 S
H826 C811 0.961 . S
H827 C811 0.960 . S
C828 C829 1.391 . S
C828 C830 1.394 . S
C828 H844 0.931 . S
C829 C828 1.391 . S
C829 C833 1.376 . S
C830 C828 1.394 . S
C830 C831 1.369 . S
C830 C834 1.531 . S
C831 C830 1.369 . S
C831 C832 1.410 . S
C831 C839 1.503 1_565 S
C832 C831 1.410 . S
C832 C833 1.392 . S
C832 C835 1.511 1_565 S
C833 C829 1.376 . S
C833 C832 1.392 . S
C833 H845 0.929 . S
C834 C830 1.531 . S
C834 H846 0.960 . S
C834 H847 0.962 . S
C834 H848 0.960 . S
C835 C832 1.511 1_545 S
C835 H849 0.961 . S
C835 H850 0.961 . S
C835 H851 0.961 1_545 S
C836 C837 1.370 . S
C836 C838 1.363 . S
C836 H852 0.931 . S
C837 C836 1.370 . S
C837 C841 1.408 . S
C838 C836 1.363 . S
C838 C839 1.370 . S
C838 C842 1.524 . S
C839 C831 1.503 1_545 S
C839 C838 1.370 . S
C839 C840 1.403 1_545 S
C840 C839 1.403 1_565 S
C840 C841 1.404 1_565 S
C840 C843 1.539 . S
C841 C837 1.408 . S
C841 C840 1.404 1_545 S
C841 H853 0.930 . S
C842 C838 1.524 . S
C842 H854 0.956 . S
C842 H855 0.961 . S
C842 H856 0.961 . S
C843 C840 1.539 . S
C843 H857 0.958 . S
C843 H858 0.961 . S
C843 H859 0.960 . S
H844 C828 0.931 . S
H845 C833 0.929 . S
H846 C834 0.960 . S
H847 C834 0.962 . S
H848 C834 0.960 . S
H849 C835 0.961 . S
H850 C835 0.961 . S
H851 C835 0.961 1_565 S
H852 C836 0.931 . S
H853 C841 0.930 . S
H854 C842 0.956 . S
H855 C842 0.961 . S
H856 C842 0.961 . S
H857 C843 0.958 . S
H858 C843 0.961 . S
H859 C843 0.960 . S
C860 C861 1.391 . S
C860 C862 1.394 . S
C860 H876 0.931 . S
C861 C860 1.391 . S
C861 C865 1.376 . S
C862 C860 1.394 . S
C862 C863 1.369 . S
C862 C866 1.531 . S
C863 C862 1.369 . S
C863 C864 1.409 . S
C863 C871 1.503 1_655 S
C864 C863 1.409 . S
C864 C865 1.392 . S
C864 C867 1.512 1_655 S
C865 C861 1.376 . S
C865 C864 1.392 . S
C865 H877 0.929 . S
C866 C862 1.531 . S
C866 H878 0.960 . S
C866 H879 0.962 . S
C866 H880 0.960 . S
C867 C864 1.512 1_455 S
C867 H881 0.961 . S
C867 H882 0.961 . S
C867 H883 0.961 . S
C868 C869 1.370 . S
C868 C870 1.363 1_455 S
C868 H884 0.931 . S
C869 C868 1.370 . S
C869 C873 1.408 . S
C870 C868 1.363 1_655 S
C870 C871 1.370 1_655 S
C870 C874 1.524 . S
C871 C863 1.503 1_455 S
C871 C870 1.370 1_455 S
C871 C872 1.403 . S
C872 C871 1.403 . S
C872 C873 1.404 . S
C872 C875 1.539 . S
C873 C869 1.408 . S
C873 C872 1.404 . S
C873 H885 0.930 . S
C874 C870 1.524 . S
C874 H886 0.956 . S
C874 H887 0.961 . S
C874 H888 0.961 . S
C875 C872 1.539 . S
C875 H889 0.958 . S
C875 H890 0.961 . S
C875 H891 0.960 . S
H876 C860 0.931 . S
H877 C865 0.929 . S
H878 C866 0.960 . S
H879 C866 0.962 . S
H880 C866 0.960 . S
H881 C867 0.961 . S
H882 C867 0.961 . S
H883 C867 0.961 . S
H884 C868 0.931 . S
H885 C873 0.930 . S
H886 C874 0.956 . S
H887 C874 0.961 . S
H888 C874 0.961 . S
H889 C875 0.958 . S
H890 C875 0.961 . S
H891 C875 0.960 . S
C892 C893 1.391 . S
C892 C894 1.394 . S
C892 H908 0.931 . S
C893 C892 1.391 . S
C893 C897 1.376 . S
C894 C892 1.394 . S
C894 C895 1.369 . S
C894 C898 1.531 . S
C895 C894 1.369 . S
C895 C896 1.410 . S
C895 C903 1.503 . S
C896 C895 1.410 . S
C896 C897 1.392 . S
C896 C899 1.511 . S
C897 C893 1.376 . S
C897 C896 1.392 . S
C897 H909 0.929 . S
C898 C894 1.531 . S
C898 H910 0.960 . S
C898 H911 0.962 . S
C898 H912 0.960 . S
C899 C896 1.511 . S
C899 H913 0.961 . S
C899 H914 0.961 . S
C899 H915 0.961 . S
C900 C901 1.370 . S
C900 C902 1.363 . S
C900 H916 0.931 . S
C901 C900 1.370 . S
C901 C905 1.408 . S
C902 C900 1.363 . S
C902 C903 1.370 . S
C902 C906 1.524 . S
C903 C895 1.503 . S
C903 C902 1.370 . S
C903 C904 1.403 . S
C904 C903 1.403 . S
C904 C905 1.404 . S
C904 C907 1.539 . S
C905 C901 1.408 . S
C905 C904 1.404 . S
C905 H917 0.930 . S
C906 C902 1.524 . S
C906 H918 0.956 . S
C906 H919 0.961 . S
C906 H920 0.961 . S
C907 C904 1.539 . S
C907 H921 0.958 . S
C907 H922 0.961 . S
C907 H923 0.960 . S
H908 C892 0.931 . S
H909 C897 0.929 . S
H910 C898 0.960 . S
H911 C898 0.962 . S
H912 C898 0.960 . S
H913 C899 0.961 . S
H914 C899 0.961 . S
H915 C899 0.961 . S
H916 C900 0.931 . S
H917 C905 0.930 . S
H918 C906 0.956 . S
H919 C906 0.961 . S
H920 C906 0.961 . S
H921 C907 0.958 . S
H922 C907 0.961 . S
H923 C907 0.960 . S
C157 C4 1.095 . S
C165 C94 1.112 . S
C189 C17 1.093 . S
C197 C107 1.112 1_565 S
C221 C36 1.100 . S
C229 C83 1.111 1_455 S
C253 C146 1.105 . S
C261 C49 1.106 . S
C285 C56 1.110 . S
C293 C122 1.107 1_565 S
C317 C135 1.110 1_455 S
C325 C69 1.103 . S
C349 C16 1.111 . S
C357 C88 1.107 . S
C381 C95 1.100 . S
C389 C31 1.108 1_545 S
C413 C3 1.100 1_655 S
C421 C108 1.112 . S
C445 C127 1.097 . S
C453 C68 1.109 . S
C477 C140 1.113 . S
C485 C44 1.110 1_545 S
C509 C55 1.114 1_655 S
C517 C147 1.104 . S
C541 C75 1.539 . S
C549 C10 1.563 . S
C573 C23 1.539 . S
C581 C43 1.564 . S
C605 C30 1.565 . S
C613 C62 1.553 . S
C637 C82 1.572 . S
C645 C153 1.557 . S
C669 C101 1.571 . S
C677 C121 1.566 . S
C701 C114 1.568 . S
C709 C134 1.555 . S
C733 C5 1.499 . S
C741 C81 1.534 . S
C765 C18 1.499 . S
C773 C96 1.534 . S
C797 C29 1.539 . S
C805 C109 1.519 . S
C829 C42 1.527 . S
C837 C120 1.525 . S
C861 C133 1.516 . S
C869 C57 1.529 . S
C893 C70 1.531 . S
C901 C148 1.519 . S
