# Generated by pormake.
# Topology irl, (4)-cn, num edge types: 1
# Building blocks:
#     Node 0, Type 0, BuildingBlock: ICAMEG_clean_sbu_1, # of connection points: 4
#     Node 1, Type 0, BuildingBlock: ICAMEG_clean_sbu_1, # of connection points: 4
#     Node 2, Type 0, BuildingBlock: ICAMEG_clean_sbu_1, # of connection points: 4
#     Node 3, Type 0, BuildingBlock: ICAMEG_clean_sbu_1, # of connection points: 4
#     Node 4, Type 0, BuildingBlock: ICAMEG_clean_sbu_1, # of connection points: 4
#     Node 5, Type 0, BuildingBlock: ICAMEG_clean_sbu_1, # of connection points: 4
#     Node 6, Type 0, BuildingBlock: ICAMEG_clean_sbu_1, # of connection points: 4
#     Node 7, Type 0, BuildingBlock: ICAMEG_clean_sbu_1, # of connection points: 4
#     Edge 8, Type (0, 0), BuildingBlock: OJICUG_clean_linker_0, # of connection points: 2
#     Edge 9, Type (0, 0), BuildingBlock: OJICUG_clean_linker_0, # of connection points: 2
#     Edge 10, Type (0, 0), BuildingBlock: OJICUG_clean_linker_0, # of connection points: 2
#     Edge 11, Type (0, 0), BuildingBlock: OJICUG_clean_linker_0, # of connection points: 2
#     Edge 12, Type (0, 0), BuildingBlock: OJICUG_clean_linker_0, # of connection points: 2
#     Edge 13, Type (0, 0), BuildingBlock: OJICUG_clean_linker_0, # of connection points: 2
#     Edge 14, Type (0, 0), BuildingBlock: OJICUG_clean_linker_0, # of connection points: 2
#     Edge 15, Type (0, 0), BuildingBlock: OJICUG_clean_linker_0, # of connection points: 2
#     Edge 16, Type (0, 0), BuildingBlock: OJICUG_clean_linker_0, # of connection points: 2
#     Edge 17, Type (0, 0), BuildingBlock: OJICUG_clean_linker_0, # of connection points: 2
#     Edge 18, Type (0, 0), BuildingBlock: OJICUG_clean_linker_0, # of connection points: 2
#     Edge 19, Type (0, 0), BuildingBlock: OJICUG_clean_linker_0, # of connection points: 2
#     Edge 20, Type (0, 0), BuildingBlock: OJICUG_clean_linker_0, # of connection points: 2
#     Edge 21, Type (0, 0), BuildingBlock: OJICUG_clean_linker_0, # of connection points: 2
#     Edge 22, Type (0, 0), BuildingBlock: OJICUG_clean_linker_0, # of connection points: 2
#     Edge 23, Type (0, 0), BuildingBlock: OJICUG_clean_linker_0, # of connection points: 2
# Relax obj value: 0.026
# Max RMSD: 0.073
# Mean RMSD: 0.073
data_MOF--net-irl--node1-ICAMEG_clean_sbu_1--edge1-OJICUG_clean_linker_0
_symmetry_space_group_name_H-M    P1
_symmetry_Int_Tables_number       1
_symmetry_cell_setting            triclinic
loop_
_symmetry_equiv_pos_as_xyz
'x, y, z'
_cell_length_a     26.035343
_cell_length_b     36.695935
_cell_length_c     22.453663
_cell_angle_alpha  89.996042
_cell_angle_beta   89.999057
_cell_angle_gamma 90.04254
loop_
_atom_site_label
_atom_site_type_symbol
_atom_site_fract_x
_atom_site_fract_y
_atom_site_fract_z
_atom_type_partial_charge
Co0 Co 0.01032 0.15431 1.00465 0.0
Co1 Co 0.12749 0.1238 0.0583 0.0
O2 O 0.0855 0.15288 1.00379 0.0
C3 C 0.02808 0.12851 0.88119 0.0
O4 O 0.05507 0.1016 0.90359 0.0
C5 C 0.16638 0.19901 0.07569 0.0
O6 O 0.11846 0.20995 0.07909 0.0
O7 O 0.08709 0.14085 0.12878 0.0
O8 O 0.00907 0.15554 0.09338 0.0
H9 H 0.15671 0.03599 0.22663 0.0
H10 H 0.06807 0.20756 0.93138 0.0
O11 O 0.00928 0.15294 0.91511 0.0
H12 H 0.96867 0.28134 0.07419 0.0
H13 H 0.83735 0.1959 0.93102 0.0
H14 H 0.92863 0.11787 0.07507 0.0
H15 H 0.96177 0.21429 0.07444 0.0
H16 H 0.93205 0.19391 0.93251 0.0
O17 O 0.17648 0.16542 0.06814 0.0
H18 H 0.10479 0.07271 0.15704 0.0
H19 H 0.2404 0.11384 0.07605 0.0
H20 H 0.83393 0.11923 0.07543 0.0
H21 H 0.07586 0.27456 0.9293 0.0
H22 H 0.78765 0.15848 1.00302 0.0
H23 H 0.02603 0.3119 1.0012 0.0
O24 O 0.00598 0.10009 0.00783 0.0
H25 H 0.22163 0.13971 0.86467 0.0
H26 H 0.16611 0.05148 0.01721 0.0
H27 H 0.21361 0.0297 0.92913 0.0
H28 H 0.24183 0.07401 0.85212 0.0
H29 H 0.17348 0.16018 0.95316 0.0
H30 H 0.29378 0.07786 0.14518 0.0
H31 H 0.25191 0.03843 0.22094 0.0
O32 O 0.08047 0.08135 0.04862 0.0
C33 C 0.04041 0.15059 0.13622 0.0
C34 C 0.1754 0.05298 0.1937 0.0
C35 C 0.25233 0.07653 0.14804 0.0
N36 N 0.16952 0.09519 0.11225 0.0
C37 C 0.1462 0.07375 0.15406 0.0
C38 C 0.2219 0.09693 0.10914 0.0
C39 C 0.22881 0.0544 0.19052 0.0
C40 C 0.0459 0.22366 0.96242 0.0
N41 N 0.0143 0.20707 1.00275 0.0
C42 C 0.05063 0.26157 0.9612 0.0
C43 C 0.02271 0.2825 1.00161 0.0
C44 C 0.99054 0.26537 0.0426 0.0
C45 C 0.98687 0.2274 0.04261 0.0
C46 C 0.85707 0.17876 0.96289 0.0
C47 C 0.90878 0.13519 0.04369 0.0
C48 C 0.91069 0.17748 0.96389 0.0
N49 N 0.93585 0.15606 1.00423 0.0
C50 C 0.85515 0.13577 0.04398 0.0
C51 C 0.82921 0.15776 1.00331 0.0
C52 C 0.03572 0.07527 0.02781 0.0
C53 C 0.2095 0.12013 0.89788 0.0
C54 C 0.17776 0.07082 0.98361 0.0
C55 C 0.20491 0.05838 0.93398 0.0
C56 C 0.22078 0.08326 0.89084 0.0
N57 N 0.16674 0.107 0.99015 0.0
C58 C 0.1823 0.13157 0.94812 0.0
Co59 Co 0.99278 0.84685 1.00541 0.0
Co60 Co 0.87575 0.87669 0.06011 0.0
O61 O 0.9176 0.84785 1.0051 0.0
C62 C 0.97435 0.87206 0.88176 0.0
O63 O 0.94732 0.89899 0.90402 0.0
C64 C 0.83676 0.80145 0.07661 0.0
O65 O 0.88468 0.79052 0.08015 0.0
O66 O 0.91617 0.85913 0.1302 0.0
O67 O 0.99457 0.84606 0.09421 0.0
H68 H 0.84676 0.9634 0.23001 0.0
H69 H 0.93532 0.79284 0.93337 0.0
O70 O 0.99333 0.84778 0.91585 0.0
H71 H 0.03658 0.72048 0.07638 0.0
H72 H 0.16594 0.80613 0.93108 0.0
H73 H 0.07431 0.88439 0.07448 0.0
H74 H 0.04256 0.78757 0.07565 0.0
H75 H 0.07122 0.80734 0.93338 0.0
O76 O 0.82666 0.83506 0.06929 0.0
H77 H 0.8986 0.92704 0.15984 0.0
H78 H 0.7629 0.88679 0.07789 0.0
H79 H 0.16902 0.88382 0.07402 0.0
H80 H 0.92844 0.72577 0.93227 0.0
H81 H 0.21548 0.84446 1.00193 0.0
H82 H 0.97921 0.68915 1.00428 0.0
O83 O 0.99637 0.90106 0.00771 0.0
H84 H 0.78099 0.86208 0.86664 0.0
H85 H 0.83805 0.94944 0.01971 0.0
H86 H 0.79055 0.97181 0.93205 0.0
H87 H 0.76155 0.92794 0.85477 0.0
H88 H 0.82914 0.841 0.95474 0.0
H89 H 0.7096 0.92243 0.14757 0.0
H90 H 0.75156 0.96124 0.2241 0.0
O91 O 0.92287 0.91919 0.05128 0.0
C92 C 0.96321 0.85018 0.13727 0.0
C93 C 0.82804 0.94668 0.19674 0.0
C94 C 0.75105 0.92364 0.15052 0.0
N95 N 0.83382 0.90502 0.11454 0.0
C96 C 0.85718 0.92612 0.15678 0.0
C97 C 0.78144 0.90344 0.11131 0.0
C98 C 0.77462 0.94543 0.19344 0.0
C99 C 0.95789 0.77705 0.96445 0.0
N100 N 0.98949 0.79406 1.00429 0.0
C101 C 0.95368 0.7391 0.96379 0.0
C102 C 0.98213 0.71858 1.00426 0.0
C103 C 0.01429 0.73614 0.04475 0.0
C104 C 0.01745 0.77413 0.0442 0.0
C105 C 0.14614 0.82331 0.96282 0.0
C106 C 0.09424 0.86699 0.04328 0.0
C107 C 0.09252 0.82414 0.96428 0.0
N108 N 0.06727 0.84562 1.00446 0.0
C109 C 0.14788 0.86687 0.04309 0.0
C110 C 0.17391 0.84482 1.00259 0.0
C111 C 0.96702 0.92566 0.02909 0.0
C112 C 0.79343 0.88146 0.89999 0.0
C113 C 0.82601 0.93027 0.98605 0.0
C114 C 0.79888 0.94305 0.93663 0.0
C115 C 0.78257 0.91842 0.89333 0.0
N116 N 0.83656 0.894 0.99226 0.0
C117 C 0.82061 0.86968 0.95003 0.0
Co118 Co 0.01363 0.84637 0.50936 0.0
Co119 Co 0.13046 0.87775 0.45598 0.0
O120 O 0.08874 0.84835 0.51035 0.0
C121 C 0.03069 0.87223 0.63295 0.0
O122 O 0.05732 0.89939 0.61072 0.0
C123 C 0.16978 0.8028 0.43805 0.0
O124 O 0.12185 0.79188 0.43431 0.0
O125 O 0.09038 0.86053 0.38531 0.0
O126 O 0.01256 0.84518 0.42063 0.0
H127 H 0.15927 0.96607 0.2882 0.0
H128 H 0.07192 0.79349 0.58261 0.0
O129 O 0.01239 0.84766 0.5989 0.0
H130 H 0.97378 0.7191 0.43935 0.0
H131 H 0.84099 0.80348 0.5823 0.0
H132 H 0.93168 0.88235 0.43884 0.0
H133 H 0.96593 0.78609 0.43933 0.0
H134 H 0.93567 0.80614 0.58114 0.0
O135 O 0.17988 0.83637 0.4461 0.0
H136 H 0.1075 0.92884 0.35729 0.0
H137 H 0.24326 0.88845 0.43874 0.0
H138 H 0.83701 0.88032 0.43816 0.0
H139 H 0.08067 0.72656 0.58446 0.0
H140 H 0.79102 0.84064 0.51027 0.0
H141 H 0.03148 0.68891 0.51232 0.0
O142 O 0.00867 0.90056 0.5063 0.0
H143 H 0.2249 0.86218 0.64945 0.0
H144 H 0.16748 0.95037 0.49788 0.0
H145 H 0.21459 0.97234 0.58615 0.0
H146 H 0.24376 0.92805 0.66267 0.0
H147 H 0.17714 0.84151 0.56078 0.0
H148 H 0.2965 0.92496 0.37012 0.0
H149 H 0.25447 0.96428 0.29439 0.0
O150 O 0.08287 0.91989 0.46553 0.0
C151 C 0.04384 0.8504 0.37782 0.0
C152 C 0.17802 0.94913 0.32112 0.0
C153 C 0.25504 0.92601 0.36704 0.0
N154 N 0.17231 0.9067 0.40228 0.0
C155 C 0.14892 0.92807 0.36048 0.0
C156 C 0.2247 0.90531 0.40565 0.0
C157 C 0.23144 0.94808 0.32458 0.0
C158 C 0.05002 0.77725 0.55148 0.0
N159 N 0.01825 0.79364 0.51115 0.0
C160 C 0.05529 0.73938 0.55257 0.0
C161 C 0.02773 0.71828 0.51202 0.0
C162 C 0.99538 0.73521 0.47104 0.0
C163 C 0.99115 0.77315 0.47118 0.0
C164 C 0.86058 0.8208 0.55056 0.0
C165 C 0.91197 0.86484 0.47009 0.0
C166 C 0.91418 0.82246 0.54975 0.0
N167 N 0.93918 0.84411 0.50956 0.0
C168 C 0.85835 0.86389 0.46962 0.0
C169 C 0.83257 0.84165 0.51013 0.0
C170 C 0.03801 0.92565 0.48629 0.0
C171 C 0.21238 0.88175 0.61644 0.0
C172 C 0.1796 0.93102 0.53123 0.0
C173 C 0.2065 0.94358 0.58098 0.0
C174 C 0.22291 0.91871 0.62386 0.0
N175 N 0.16936 0.89474 0.52429 0.0
C176 C 0.18541 0.8702 0.56608 0.0
Co177 Co 0.99013 0.15376 0.50858 0.0
Co178 Co 0.87347 0.12233 0.45482 0.0
O179 O 0.91501 0.15177 0.5093 0.0
C180 C 0.97253 0.1281 0.63215 0.0
O181 O 0.94589 0.10096 0.60986 0.0
C182 C 0.834 0.19724 0.43686 0.0
O183 O 0.88191 0.20821 0.43317 0.0
O184 O 0.91366 0.13965 0.3843 0.0
O185 O 0.99148 0.15483 0.41984 0.0
H186 H 0.84528 0.034 0.28694 0.0
H187 H 0.93161 0.20675 0.58138 0.0
O188 O 0.99107 0.15259 0.59812 0.0
H189 H 0.03017 0.28093 0.43819 0.0
H190 H 0.16252 0.1968 0.58206 0.0
H191 H 0.07231 0.11763 0.43865 0.0
H192 H 0.03804 0.21394 0.4385 0.0
H193 H 0.06785 0.19413 0.58049 0.0
O194 O 0.82397 0.16365 0.44485 0.0
H195 H 0.89679 0.07131 0.35618 0.0
H196 H 0.76073 0.11149 0.43722 0.0
H197 H 0.16699 0.11966 0.43838 0.0
H198 H 0.92285 0.27369 0.5829 0.0
H199 H 0.21273 0.15949 0.51046 0.0
H200 H 0.97225 0.31122 0.5108 0.0
O201 O 0.9951 0.09957 0.5058 0.0
H202 H 0.77865 0.13772 0.64808 0.0
H203 H 0.83648 0.04966 0.49654 0.0
H204 H 0.78925 0.0276 0.58466 0.0
H205 H 0.75987 0.07182 0.66117 0.0
H206 H 0.82654 0.15847 0.55955 0.0
H207 H 0.70775 0.07491 0.36845 0.0
H208 H 0.75007 0.03565 0.29286 0.0
O209 O 0.92114 0.08023 0.46449 0.0
C210 C 0.96024 0.14971 0.37695 0.0
C211 C 0.82641 0.05091 0.3198 0.0
C212 C 0.74922 0.07392 0.36549 0.0
N213 N 0.83181 0.09335 0.40098 0.0
C214 C 0.85537 0.07202 0.35924 0.0
C215 C 0.77942 0.09466 0.40419 0.0
C216 C 0.77298 0.05188 0.32311 0.0
C217 C 0.9536 0.22294 0.55027 0.0
N218 N 0.9855 0.20649 0.51014 0.0
C219 C 0.94833 0.26081 0.55117 0.0
C220 C 0.976 0.28185 0.51064 0.0
C221 C 0.00848 0.26487 0.46987 0.0
C222 C 0.01271 0.22693 0.47018 0.0
C223 C 0.14303 0.17942 0.55033 0.0
C224 C 0.09192 0.13521 0.46988 0.0
C225 C 0.08944 0.17776 0.54928 0.0
N226 N 0.06457 0.15603 0.5091 0.0
C227 C 0.14554 0.13616 0.46964 0.0
C228 C 0.17118 0.15848 0.51014 0.0
C229 C 0.96588 0.07448 0.48559 0.0
C230 C 0.79126 0.11818 0.61507 0.0
C231 C 0.82428 0.06898 0.52988 0.0
C232 C 0.7973 0.05637 0.57955 0.0
C233 C 0.78078 0.0812 0.62242 0.0
N234 N 0.83448 0.10527 0.52301 0.0
C235 C 0.81831 0.12978 0.56479 0.0
Co236 Co 0.51257 0.65387 1.00309 0.0
Co237 Co 0.62952 0.6228 0.05643 0.0
O238 O 0.58771 0.6522 1.0022 0.0
C239 C 0.53039 0.62835 0.87958 0.0
O240 O 0.5574 0.60143 0.90191 0.0
C241 C 0.6688 0.6978 0.07463 0.0
O242 O 0.62089 0.70874 0.07833 0.0
O243 O 0.58934 0.63985 0.1271 0.0
O244 O 0.5114 0.6549 0.09182 0.0
H245 H 0.65849 0.53441 0.22401 0.0
H246 H 0.57061 0.70714 0.93018 0.0
O247 O 0.51151 0.6527 0.91357 0.0
H248 H 0.47165 0.78083 0.07352 0.0
H249 H 0.33977 0.6961 0.92992 0.0
H250 H 0.43075 0.61743 0.07329 0.0
H251 H 0.46437 0.7138 0.07331 0.0
H252 H 0.43446 0.69387 0.93131 0.0
O253 O 0.67882 0.66424 0.06648 0.0
H254 H 0.60666 0.57158 0.15496 0.0
H255 H 0.74235 0.61231 0.07364 0.0
H256 H 0.33606 0.61903 0.07374 0.0
H257 H 0.57878 0.77413 0.92856 0.0
H258 H 0.28993 0.65859 1.00168 0.0
H259 H 0.52916 0.81142 1.00072 0.0
O260 O 0.5079 0.59966 1.00583 0.0
H261 H 0.72369 0.63891 0.86287 0.0
H262 H 0.66695 0.55037 0.01433 0.0
H263 H 0.71403 0.52865 0.92591 0.0
H264 H 0.74286 0.57312 0.84944 0.0
H265 H 0.67595 0.65932 0.9517 0.0
H266 H 0.79565 0.57588 0.14221 0.0
H267 H 0.75369 0.53642 0.21785 0.0
O268 O 0.58211 0.58055 0.04669 0.0
C269 C 0.54274 0.64978 0.1346 0.0
C270 C 0.67721 0.55141 0.19112 0.0
C271 C 0.75419 0.57473 0.14527 0.0
N272 N 0.67143 0.59388 0.11004 0.0
C273 C 0.64807 0.57244 0.15179 0.0
C274 C 0.72381 0.59539 0.10668 0.0
C275 C 0.73063 0.55258 0.18769 0.0
C276 C 0.54855 0.72322 0.96134 0.0
N277 N 0.51686 0.70662 1.00155 0.0
C278 C 0.55348 0.76112 0.96037 0.0
C279 C 0.52568 0.78202 1.00094 0.0
C280 C 0.49343 0.76488 0.04182 0.0
C281 C 0.48954 0.72691 0.04156 0.0
C282 C 0.35943 0.67883 0.96164 0.0
C283 C 0.41097 0.63491 0.04207 0.0
C284 C 0.41303 0.67741 0.96258 0.0
N285 N 0.43811 0.65582 1.00275 0.0
C286 C 0.35734 0.63561 0.04241 0.0
C287 C 0.33149 0.65778 1.00192 0.0
C288 C 0.53734 0.57466 0.02579 0.0
C289 C 0.71131 0.61926 0.89586 0.0
C290 C 0.67891 0.56979 0.981 0.0
C291 C 0.70581 0.55738 0.93116 0.0
C292 C 0.72202 0.58235 0.88832 0.0
N293 N 0.66848 0.60602 0.98805 0.0
C294 C 0.68436 0.63067 0.9463 0.0
Co295 Co 0.4908 0.34639 1.00279 0.0
Co296 Co 0.37395 0.37745 0.05635 0.0
O297 O 0.41567 0.34807 1.00201 0.0
C298 C 0.473 0.37184 0.87921 0.0
O299 O 0.44615 0.39886 0.90147 0.0
C300 C 0.33451 0.3025 0.07444 0.0
O301 O 0.38238 0.29151 0.0782 0.0
O302 O 0.41411 0.36027 0.12693 0.0
O303 O 0.49208 0.34541 0.09153 0.0
H304 H 0.34523 0.46566 0.22424 0.0
H305 H 0.43264 0.29308 0.9301 0.0
O306 O 0.49178 0.34748 0.91327 0.0
H307 H 0.53176 0.21947 0.07342 0.0
H308 H 0.66351 0.30408 0.92945 0.0
H309 H 0.57271 0.38288 0.07276 0.0
H310 H 0.53907 0.28649 0.07305 0.0
H311 H 0.56882 0.3063 0.931 0.0
O312 O 0.32455 0.33606 0.06629 0.0
H313 H 0.39696 0.42853 0.15504 0.0
H314 H 0.26114 0.38806 0.07364 0.0
H315 H 0.6674 0.38129 0.07305 0.0
H316 H 0.42444 0.22609 0.92864 0.0
H317 H 0.71344 0.34165 1.00101 0.0
H318 H 0.47413 0.18884 1.0008 0.0
O319 O 0.49548 0.40059 1.00543 0.0
H320 H 0.27961 0.36168 0.86284 0.0
H321 H 0.33669 0.44999 0.01446 0.0
H322 H 0.28958 0.47186 0.92615 0.0
H323 H 0.26059 0.42751 0.8496 0.0
H324 H 0.32737 0.34112 0.95155 0.0
H325 H 0.20795 0.42446 0.14236 0.0
H326 H 0.25003 0.46377 0.21812 0.0
O327 O 0.42144 0.41966 0.04674 0.0
C328 C 0.46075 0.35041 0.13436 0.0
C329 C 0.32646 0.44872 0.1913 0.0
C330 C 0.24941 0.42555 0.1454 0.0
N331 N 0.33212 0.40635 0.11007 0.0
C332 C 0.35554 0.42772 0.15189 0.0
C333 C 0.27973 0.40491 0.10673 0.0
C334 C 0.27304 0.44762 0.18789 0.0
C335 C 0.45475 0.27701 0.96125 0.0
N336 N 0.48649 0.29364 1.00138 0.0
C337 C 0.44979 0.23911 0.96038 0.0
C338 C 0.47763 0.21823 1.00094 0.0
C339 C 0.50994 0.2354 0.04172 0.0
C340 C 0.51385 0.27336 0.04137 0.0
C341 C 0.64389 0.32138 0.96116 0.0
C342 C 0.59245 0.36537 0.04155 0.0
C343 C 0.59029 0.32279 0.96219 0.0
N344 N 0.56526 0.34443 1.00234 0.0
C345 C 0.64608 0.36467 0.0418 0.0
C346 C 0.67188 0.34246 1.00133 0.0
C347 C 0.46614 0.42558 0.02563 0.0
C348 C 0.29206 0.38128 0.89586 0.0
C349 C 0.32465 0.43062 0.9811 0.0
C350 C 0.29774 0.44311 0.93132 0.0
C351 C 0.28144 0.41821 0.88843 0.0
N352 N 0.335 0.39437 0.98804 0.0
C353 C 0.31903 0.36979 0.94624 0.0
Co354 Co 0.51042 0.34608 0.50668 0.0
Co355 Co 0.62781 0.37635 0.45328 0.0
O356 O 0.58558 0.34731 0.50763 0.0
C357 C 0.52843 0.37154 0.63021 0.0
O358 O 0.55571 0.39836 0.6079 0.0
C359 C 0.66641 0.30106 0.43598 0.0
O360 O 0.61844 0.29021 0.43235 0.0
O361 O 0.58753 0.35932 0.38267 0.0
O362 O 0.50927 0.34505 0.41794 0.0
H363 H 0.65802 0.46413 0.28509 0.0
H364 H 0.56766 0.29248 0.57968 0.0
O365 O 0.50932 0.34727 0.5962 0.0
H366 H 0.46783 0.21935 0.43625 0.0
H367 H 0.33701 0.30485 0.57973 0.0
H368 H 0.42913 0.38299 0.43642 0.0
H369 H 0.46146 0.28642 0.43644 0.0
H370 H 0.43173 0.30654 0.57841 0.0
O371 O 0.67666 0.33464 0.44363 0.0
H372 H 0.60567 0.42743 0.35436 0.0
H373 H 0.74079 0.38623 0.43614 0.0
H374 H 0.33443 0.38194 0.4359 0.0
H375 H 0.57492 0.22545 0.58132 0.0
H376 H 0.28772 0.34264 0.50793 0.0
H377 H 0.52487 0.18844 0.50911 0.0
O378 O 0.50651 0.40031 0.50387 0.0
H379 H 0.72156 0.36028 0.64709 0.0
H380 H 0.66617 0.44869 0.49486 0.0
H381 H 0.71349 0.4704 0.58315 0.0
H382 H 0.74164 0.42599 0.66 0.0
H383 H 0.67361 0.33989 0.55839 0.0
H384 H 0.7946 0.42219 0.36736 0.0
H385 H 0.75318 0.46166 0.29137 0.0
O386 O 0.5809 0.41889 0.46265 0.0
C387 C 0.54074 0.34981 0.37516 0.0
C388 C 0.6765 0.44713 0.31813 0.0
C389 C 0.75316 0.42354 0.36424 0.0
N390 N 0.67013 0.40491 0.39953 0.0
C391 C 0.64707 0.42636 0.35758 0.0
C392 C 0.72249 0.40315 0.40295 0.0
C393 C 0.7299 0.44569 0.32163 0.0
C394 C 0.5454 0.27652 0.5485 0.0
N395 N 0.51398 0.29331 0.50824 0.0
C396 C 0.54982 0.2386 0.54948 0.0
C397 C 0.52178 0.21785 0.50889 0.0
C398 C 0.4898 0.23518 0.46797 0.0
C399 C 0.48642 0.27316 0.46822 0.0
C400 C 0.35692 0.32201 0.54802 0.0
C401 C 0.4091 0.36563 0.46763 0.0
C402 C 0.41054 0.32312 0.54712 0.0
N403 N 0.43594 0.34457 0.50697 0.0
C404 C 0.35546 0.36524 0.46725 0.0
C405 C 0.32929 0.34321 0.50772 0.0
C406 C 0.53625 0.42509 0.48366 0.0
C407 C 0.70948 0.3799 0.61394 0.0
C408 C 0.67782 0.42931 0.52837 0.0
C409 C 0.70486 0.4417 0.57813 0.0
C410 C 0.72069 0.41677 0.62119 0.0
N411 N 0.66689 0.39312 0.5216 0.0
C412 C 0.6824 0.36851 0.56357 0.0
Co413 Co 0.49317 0.65362 0.50698 0.0
Co414 Co 0.37576 0.62351 0.45351 0.0
O415 O 0.41802 0.65248 0.50793 0.0
C416 C 0.47513 0.62823 0.63055 0.0
O417 O 0.44791 0.60137 0.6083 0.0
C418 C 0.33719 0.69883 0.43655 0.0
O419 O 0.38517 0.70965 0.43286 0.0
O420 O 0.41599 0.64066 0.38293 0.0
O421 O 0.49434 0.65463 0.41824 0.0
H422 H 0.3454 0.53599 0.28501 0.0
H423 H 0.43603 0.70732 0.57989 0.0
O424 O 0.49423 0.65249 0.59649 0.0
H425 H 0.53611 0.78028 0.43643 0.0
H426 H 0.66667 0.69464 0.58006 0.0
H427 H 0.57438 0.61658 0.4368 0.0
H428 H 0.54231 0.7132 0.43669 0.0
H429 H 0.57194 0.6931 0.57869 0.0
O430 O 0.3269 0.66524 0.44409 0.0
H431 H 0.39781 0.5726 0.35434 0.0
H432 H 0.26276 0.61366 0.43648 0.0
H433 H 0.66909 0.61749 0.43634 0.0
H434 H 0.42895 0.77436 0.58146 0.0
H435 H 0.71588 0.65675 0.50835 0.0
H436 H 0.47913 0.81128 0.50923 0.0
O437 O 0.49695 0.59939 0.50425 0.0
H438 H 0.28212 0.63926 0.64747 0.0
H439 H 0.33751 0.55109 0.49489 0.0
H440 H 0.29028 0.52924 0.58315 0.0
H441 H 0.26213 0.57352 0.66018 0.0
H442 H 0.32999 0.6598 0.55879 0.0
H443 H 0.20889 0.5778 0.36763 0.0
H444 H 0.25024 0.53845 0.29143 0.0
O445 O 0.42267 0.58095 0.46264 0.0
C446 C 0.46284 0.65004 0.37545 0.0
C447 C 0.32694 0.55295 0.31814 0.0
C448 C 0.25033 0.57645 0.36445 0.0
N449 N 0.33339 0.59503 0.39969 0.0
C450 C 0.35641 0.57365 0.35763 0.0
C451 C 0.28103 0.59679 0.40319 0.0
C452 C 0.27354 0.55437 0.32172 0.0
C453 C 0.45835 0.72324 0.5487 0.0
N454 N 0.48974 0.7064 0.50848 0.0
C455 C 0.45403 0.76117 0.54964 0.0
C456 C 0.48214 0.78187 0.50904 0.0
C457 C 0.51409 0.76449 0.46816 0.0
C458 C 0.51737 0.7265 0.46844 0.0
C459 C 0.64672 0.6775 0.54836 0.0
C460 C 0.59445 0.63393 0.468 0.0
C461 C 0.5931 0.67648 0.54743 0.0
N462 N 0.56766 0.65505 0.50729 0.0
C463 C 0.64809 0.63424 0.46765 0.0
C464 C 0.67431 0.65624 0.5081 0.0
C465 C 0.46724 0.57467 0.48381 0.0
C466 C 0.2942 0.6197 0.61424 0.0
C467 C 0.32585 0.57043 0.52847 0.0
C468 C 0.29886 0.55795 0.57821 0.0
C469 C 0.28303 0.58281 0.62137 0.0
N470 N 0.33673 0.60663 0.5218 0.0
C471 C 0.32123 0.63118 0.56387 0.0
C472 C 0.94904 0.9927 0.03297 0.0
C473 C 0.98454 0.96397 0.02747 0.0
H474 H 0.93729 0.05042 0.03616 0.0
C475 C 0.03688 0.97228 0.021 0.0
H476 H 0.90847 0.98732 0.03818 0.0
C477 C 0.05341 0.00846 0.02112 0.0
C478 C 0.01789 0.03712 0.02639 0.0
H479 H 0.06522 0.95083 0.01683 0.0
H480 H 0.09402 0.01392 0.01667 0.0
C481 C 0.96549 0.02891 0.03168 0.0
C482 C 0.05456 0.99287 0.48775 0.0
C483 C 0.01949 0.96368 0.48761 0.0
H484 H 0.06519 0.05071 0.48831 0.0
C485 C 0.96667 0.97126 0.48771 0.0
H486 H 0.0955 0.988 0.48774 0.0
C487 C 0.94932 0.00725 0.48679 0.0
C488 C 0.98439 0.03644 0.4872 0.0
H489 H 0.93869 0.9494 0.48731 0.0
H490 H 0.90839 0.01211 0.48603 0.0
C491 C 0.03721 0.02886 0.48825 0.0
C492 C 0.55431 0.50753 0.02373 0.0
C493 C 0.51906 0.53656 0.02418 0.0
H494 H 0.56531 0.44974 0.02272 0.0
C495 C 0.46629 0.52878 0.0241 0.0
H496 H 0.59522 0.51257 0.0237 0.0
C497 C 0.44917 0.49272 0.02478 0.0
C498 C 0.48442 0.46368 0.0241 0.0
H499 H 0.43818 0.55052 0.02472 0.0
H500 H 0.40827 0.48769 0.02561 0.0
C501 C 0.53719 0.47148 0.02299 0.0
C502 C 0.46586 0.47144 0.48511 0.0
C503 C 0.51851 0.46331 0.48512 0.0
H504 H 0.40845 0.51291 0.48353 0.0
C505 C 0.55419 0.49212 0.48556 0.0
H506 H 0.43743 0.44988 0.48448 0.0
C507 C 0.53759 0.52829 0.48629 0.0
C508 C 0.48495 0.53643 0.48515 0.0
H509 H 0.59501 0.48682 0.48565 0.0
H510 H 0.56604 0.54985 0.48661 0.0
C511 C 0.44927 0.50761 0.4844 0.0
C512 C 0.05344 0.15448 0.24701 0.0
C513 C 0.02013 0.15406 0.19782 0.0
H514 H 0.06081 0.15423 0.34176 0.0
C515 C 0.96674 0.15472 0.20819 0.0
H516 H 0.0947 0.15416 0.24078 0.0
C517 C 0.94718 0.15413 0.26621 0.0
C518 C 0.98049 0.15355 0.31539 0.0
H519 H 0.9398 0.1545 0.17147 0.0
H520 H 0.90592 0.15356 0.27245 0.0
C521 C 0.03387 0.15456 0.30504 0.0
C522 C 0.97028 0.84483 0.30596 0.0
C523 C 0.02364 0.84668 0.31621 0.0
H524 H 0.90932 0.84473 0.24187 0.0
C525 C 0.05685 0.84715 0.26693 0.0
H526 H 0.9434 0.84432 0.34273 0.0
C527 C 0.03718 0.84679 0.20894 0.0
C528 C 0.98376 0.84658 0.19873 0.0
H529 H 0.09809 0.84841 0.27306 0.0
H530 H 0.06401 0.84785 0.17214 0.0
C531 C 0.95059 0.8451 0.24799 0.0
C532 C 0.00983 0.90489 0.72746 0.0
C533 C 0.01738 0.87193 0.6969 0.0
H534 H 0.98867 0.93066 0.80952 0.0
C535 C 0.00977 0.83888 0.72727 0.0
H536 H 0.01491 0.93075 0.70492 0.0
C537 C 0.99582 0.83883 0.78751 0.0
C538 C 0.9875 0.87183 0.81777 0.0
H539 H 0.01519 0.8131 0.70461 0.0
H540 H 0.99099 0.81302 0.81028 0.0
C541 C 0.99429 0.90483 0.78707 0.0
C542 C 0.00694 0.16163 0.78675 0.0
C543 C 0.01501 0.12866 0.81718 0.0
H544 H 0.988 0.18729 0.70365 0.0
C545 C 0.00814 0.09563 0.7866 0.0
H546 H 0.01184 0.18747 0.80942 0.0
C547 C 0.99282 0.09552 0.72691 0.0
C548 C 0.98556 0.12845 0.69617 0.0
H549 H 0.01358 0.06982 0.80918 0.0
H550 H 0.9877 0.06964 0.70445 0.0
C551 C 0.99321 0.16153 0.72645 0.0
C552 C 0.46922 0.65456 0.20665 0.0
C553 C 0.52259 0.65344 0.19622 0.0
H554 H 0.40846 0.6541 0.271 0.0
C555 C 0.55595 0.65371 0.24536 0.0
H556 H 0.44224 0.65448 0.16997 0.0
C557 C 0.53645 0.6541 0.30341 0.0
C558 C 0.48307 0.65358 0.31384 0.0
H559 H 0.5972 0.65303 0.23906 0.0
H560 H 0.56343 0.65364 0.34008 0.0
C561 C 0.44971 0.65431 0.26471 0.0
C562 C 0.46712 0.34565 0.30313 0.0
C563 C 0.52051 0.34633 0.31354 0.0
H564 H 0.40635 0.34669 0.23882 0.0
C565 C 0.55385 0.34586 0.26439 0.0
H566 H 0.44016 0.3459 0.33982 0.0
C567 C 0.53433 0.34572 0.20634 0.0
C568 C 0.48095 0.34668 0.19594 0.0
H569 H 0.59511 0.34621 0.27066 0.0
H570 H 0.56129 0.346 0.16964 0.0
C571 C 0.4476 0.34615 0.24509 0.0
C572 C 0.49328 0.40446 0.7845 0.0
C573 C 0.48599 0.37151 0.8152 0.0
H574 H 0.51405 0.4302 0.70225 0.0
C575 C 0.49359 0.33845 0.7849 0.0
H576 H 0.4882 0.43033 0.807 0.0
C577 C 0.50729 0.33838 0.72459 0.0
C578 C 0.51538 0.37136 0.6942 0.0
H579 H 0.48836 0.31268 0.80769 0.0
H580 H 0.51214 0.31255 0.70188 0.0
C581 C 0.50858 0.40438 0.72481 0.0
C582 C 0.5097 0.66158 0.78516 0.0
C583 C 0.51739 0.62857 0.81558 0.0
H584 H 0.49113 0.68734 0.70203 0.0
C585 C 0.51022 0.59557 0.785 0.0
H586 H 0.51483 0.68739 0.80785 0.0
C587 C 0.49496 0.59554 0.7253 0.0
C588 C 0.48809 0.62851 0.69456 0.0
H589 H 0.51538 0.56974 0.8076 0.0
H590 H 0.4896 0.56969 0.70282 0.0
C591 C 0.49604 0.66155 0.72484 0.0
C592 C 0.24029 0.28814 0.07737 0.0
C593 C 0.29159 0.27598 0.07728 0.0
H594 H 0.1606 0.27352 0.07723 0.0
C595 C 0.30123 0.23835 0.07837 0.0
H596 H 0.23145 0.31698 0.07662 0.0
C597 C 0.26054 0.21345 0.07858 0.0
C598 C 0.20924 0.2256 0.07798 0.0
H599 H 0.34021 0.22805 0.07819 0.0
H600 H 0.2694 0.18461 0.07876 0.0
C601 C 0.19959 0.26324 0.07786 0.0
C602 C 0.70195 0.76199 0.07865 0.0
C603 C 0.71166 0.72436 0.07757 0.0
H604 H 0.7337 0.81576 0.07921 0.0
C605 C 0.76298 0.71225 0.07779 0.0
H606 H 0.66295 0.77225 0.07836 0.0
C607 C 0.80364 0.73719 0.07843 0.0
C608 C 0.79393 0.77482 0.07859 0.0
H609 H 0.77187 0.68342 0.07704 0.0
H610 H 0.84264 0.72694 0.07794 0.0
C611 C 0.74261 0.78693 0.07902 0.0
C612 C 0.26392 0.78819 0.43508 0.0
C613 C 0.21253 0.77617 0.43528 0.0
H614 H 0.34351 0.77334 0.43503 0.0
C615 C 0.20262 0.73856 0.4343 0.0
H616 H 0.27298 0.817 0.43575 0.0
C617 C 0.24313 0.71354 0.43404 0.0
C618 C 0.29452 0.72554 0.43447 0.0
H619 H 0.16356 0.72836 0.43458 0.0
H620 H 0.23405 0.68473 0.43392 0.0
C621 C 0.30444 0.76317 0.43453 0.0
C622 C 0.76049 0.28643 0.43321 0.0
C623 C 0.70912 0.27438 0.43369 0.0
H624 H 0.84008 0.27168 0.43357 0.0
C625 C 0.69927 0.23675 0.43362 0.0
H626 H 0.76952 0.31525 0.43318 0.0
C627 C 0.73983 0.21176 0.434 0.0
C628 C 0.7912 0.22382 0.43417 0.0
H629 H 0.66022 0.22654 0.43416 0.0
H630 H 0.73083 0.18294 0.43459 0.0
C631 C 0.80104 0.26145 0.43331 0.0
loop_
_geom_bond_atom_site_label_1
_geom_bond_atom_site_label_2
_geom_bond_distance
_geom_bond_site_symmetry_2
_ccdc_geom_bond_type
Co0 O2 2.142 1_654 S
Co0 O8 2.085 . S
Co0 O11 2.081 1_554 S
Co0 O24 2.097 1_554 S
Co0 N41 2.151 . S
Co0 N49 2.215 . S
Co1 O2 2.160 1_554 S
Co1 O7 2.058 . S
Co1 O17 2.057 . S
Co1 O32 2.037 . S
Co1 N36 2.145 . S
Co1 N57 2.257 1_554 S
O2 Co0 2.142 1_456 S
O2 Co1 2.160 1_556 S
C3 O4 1.278 . S
C3 O11 1.224 1_455 S
O4 C3 1.278 . S
C5 O6 1.245 . S
C5 O17 1.232 . S
O6 C5 1.245 . S
O7 Co1 2.058 . S
O7 C33 1.269 . S
O8 Co0 2.085 . S
O8 C33 1.257 1_655 S
H9 C34 0.930 . S
H10 C40 0.930 . S
O11 Co0 2.081 1_556 S
O11 C3 1.224 1_655 S
H12 C44 0.929 . S
H13 C46 0.930 . S
H14 C47 0.930 . S
H15 C45 0.929 . S
H16 C48 0.928 . S
O17 Co1 2.057 . S
O17 C5 1.232 . S
H18 C37 0.929 . S
H19 C38 0.929 . S
H20 C50 0.931 . S
H21 C42 0.929 . S
H22 C51 0.930 . S
H23 C43 0.931 . S
O24 Co0 2.097 1_556 S
O24 C52 1.214 1_656 S
H25 C53 0.929 . S
H26 C54 0.929 1_554 S
H27 C55 0.930 . S
H28 C56 0.929 . S
H29 C58 0.930 . S
H30 C35 0.930 . S
H31 C39 0.930 . S
O32 Co1 2.037 . S
O32 C52 1.234 . S
C33 O7 1.269 . S
C33 O8 1.257 1_455 S
C34 H9 0.930 . S
C34 C37 1.388 . S
C34 C39 1.418 . S
C35 H30 0.930 . S
C35 C38 1.404 . S
C35 C39 1.353 . S
N36 Co1 2.145 . S
N36 C37 1.397 . S
N36 C38 1.334 . S
C37 H18 0.929 . S
C37 C34 1.388 . S
C37 N36 1.397 . S
C38 H19 0.929 . S
C38 C35 1.404 . S
C38 N36 1.334 . S
C39 H31 0.930 . S
C39 C34 1.418 . S
C39 C35 1.353 . S
C40 H10 0.930 . S
C40 N41 1.330 1_556 S
C40 C42 1.446 . S
N41 Co0 2.151 . S
N41 C40 1.330 1_554 S
N41 C45 1.418 . S
C42 H21 0.929 . S
C42 C40 1.446 . S
C42 C43 1.332 1_556 S
C43 H23 0.931 . S
C43 C42 1.332 1_554 S
C43 C44 1.267 . S
C44 H12 0.929 . S
C44 C43 1.267 . S
C44 C45 1.251 . S
C45 H15 0.929 . S
C45 N41 1.418 . S
C45 C44 1.251 . S
C46 H13 0.930 . S
C46 C48 1.406 . S
C46 C51 1.261 1_556 S
C47 H14 0.930 . S
C47 N49 1.325 . S
C47 C50 1.357 . S
C48 H16 0.928 . S
C48 C46 1.406 . S
C48 N49 1.261 1_556 S
N49 Co0 2.215 . S
N49 C47 1.325 . S
N49 C48 1.261 1_554 S
C50 H20 0.931 . S
C50 C47 1.357 . S
C50 C51 1.312 . S
C51 H22 0.930 . S
C51 C46 1.261 1_554 S
C51 C50 1.312 . S
C52 O24 1.214 1_454 S
C52 O32 1.234 . S
C53 H25 0.929 . S
C53 C56 1.391 . S
C53 C58 1.391 . S
C54 H26 0.929 1_556 S
C54 C55 1.390 . S
C54 N57 1.391 . S
C55 H27 0.930 . S
C55 C54 1.390 . S
C55 C56 1.392 . S
C56 H28 0.929 . S
C56 C53 1.391 . S
C56 C55 1.392 . S
N57 Co1 2.257 1_556 S
N57 C54 1.391 . S
N57 C58 1.388 . S
C58 H29 0.930 . S
C58 C53 1.391 . S
C58 N57 1.388 . S
Co59 O61 2.142 1_454 S
Co59 O67 2.085 . S
Co59 O70 2.081 1_554 S
Co59 O83 2.097 1_554 S
Co59 N100 2.151 . S
Co59 N108 2.215 . S
Co60 O61 2.160 1_554 S
Co60 O66 2.058 . S
Co60 O76 2.057 . S
Co60 O91 2.037 . S
Co60 N95 2.145 . S
Co60 N116 2.257 1_554 S
O61 Co59 2.142 1_656 S
O61 Co60 2.160 1_556 S
C62 O63 1.278 . S
C62 O70 1.224 1_655 S
O63 C62 1.278 . S
C64 O65 1.245 . S
C64 O76 1.232 . S
O65 C64 1.245 . S
O66 Co60 2.058 . S
O66 C92 1.269 . S
O67 Co59 2.085 . S
O67 C92 1.257 1_455 S
H68 C93 0.930 . S
H69 C99 0.930 . S
O70 Co59 2.081 1_556 S
O70 C62 1.224 1_455 S
H71 C103 0.929 . S
H72 C105 0.930 . S
H73 C106 0.930 . S
H74 C104 0.929 . S
H75 C107 0.928 . S
O76 Co60 2.057 . S
O76 C64 1.232 . S
H77 C96 0.929 . S
H78 C97 0.929 . S
H79 C109 0.931 . S
H80 C101 0.929 . S
H81 C110 0.930 . S
H82 C102 0.931 . S
O83 Co59 2.097 1_556 S
O83 C111 1.214 1_456 S
H84 C112 0.929 . S
H85 C113 0.929 1_554 S
H86 C114 0.930 . S
H87 C115 0.929 . S
H88 C117 0.930 . S
H89 C94 0.930 . S
H90 C98 0.930 . S
O91 Co60 2.037 . S
O91 C111 1.234 . S
C92 O66 1.269 . S
C92 O67 1.257 1_655 S
C93 H68 0.930 . S
C93 C96 1.388 . S
C93 C98 1.418 . S
C94 H89 0.930 . S
C94 C97 1.404 . S
C94 C98 1.353 . S
N95 Co60 2.145 . S
N95 C96 1.397 . S
N95 C97 1.334 . S
C96 H77 0.929 . S
C96 C93 1.388 . S
C96 N95 1.397 . S
C97 H78 0.929 . S
C97 C94 1.404 . S
C97 N95 1.334 . S
C98 H90 0.930 . S
C98 C93 1.418 . S
C98 C94 1.353 . S
C99 H69 0.930 . S
C99 N100 1.330 1_556 S
C99 C101 1.446 . S
N100 Co59 2.151 . S
N100 C99 1.330 1_554 S
N100 C104 1.418 . S
C101 H80 0.929 . S
C101 C99 1.446 . S
C101 C102 1.332 1_556 S
C102 H82 0.931 . S
C102 C101 1.332 1_554 S
C102 C103 1.267 . S
C103 H71 0.929 . S
C103 C102 1.267 . S
C103 C104 1.251 . S
C104 H74 0.929 . S
C104 N100 1.418 . S
C104 C103 1.251 . S
C105 H72 0.930 . S
C105 C107 1.406 . S
C105 C110 1.261 1_556 S
C106 H73 0.930 . S
C106 N108 1.325 . S
C106 C109 1.357 . S
C107 H75 0.928 . S
C107 C105 1.406 . S
C107 N108 1.261 1_556 S
N108 Co59 2.215 . S
N108 C106 1.325 . S
N108 C107 1.261 1_554 S
C109 H79 0.931 . S
C109 C106 1.357 . S
C109 C110 1.312 . S
C110 H81 0.930 . S
C110 C105 1.261 1_554 S
C110 C109 1.312 . S
C111 O83 1.214 1_654 S
C111 O91 1.234 . S
C112 H84 0.929 . S
C112 C115 1.391 . S
C112 C117 1.391 . S
C113 H85 0.929 1_556 S
C113 C114 1.390 . S
C113 N116 1.391 . S
C114 H86 0.930 . S
C114 C113 1.390 . S
C114 C115 1.392 . S
C115 H87 0.929 . S
C115 C112 1.391 . S
C115 C114 1.392 . S
N116 Co60 2.257 1_556 S
N116 C113 1.391 . S
N116 C117 1.388 . S
C117 H88 0.930 . S
C117 C112 1.391 . S
C117 N116 1.388 . S
Co118 O120 2.143 1_655 S
Co118 O126 2.074 . S
Co118 O129 2.093 . S
Co118 O142 2.097 . S
Co118 N159 2.151 . S
Co118 N167 2.214 . S
Co119 O120 2.160 . S
Co119 O125 2.058 . S
Co119 O135 2.057 . S
Co119 O150 2.037 . S
Co119 N154 2.145 . S
Co119 N175 2.257 . S
O120 Co118 2.143 1_455 S
O120 Co119 2.160 . S
C121 O122 1.278 . S
C121 O129 1.224 1_455 S
O122 C121 1.278 . S
C123 O124 1.245 . S
C123 O135 1.232 . S
O124 C123 1.245 . S
O125 Co119 2.058 . S
O125 C151 1.269 . S
O126 Co118 2.074 . S
O126 C151 1.257 1_655 S
H127 C152 0.930 . S
H128 C158 0.930 . S
O129 Co118 2.093 . S
O129 C121 1.224 1_655 S
H130 C162 0.929 . S
H131 C164 0.930 . S
H132 C165 0.930 . S
H133 C163 0.929 . S
H134 C166 0.928 . S
O135 Co119 2.057 . S
O135 C123 1.232 . S
H136 C155 0.929 . S
H137 C156 0.929 . S
H138 C168 0.931 . S
H139 C160 0.929 . S
H140 C169 0.930 . S
H141 C161 0.931 . S
O142 Co118 2.097 . S
O142 C170 1.214 1_655 S
H143 C171 0.929 . S
H144 C172 0.929 . S
H145 C173 0.930 . S
H146 C174 0.929 . S
H147 C176 0.930 . S
H148 C153 0.930 . S
H149 C157 0.930 . S
O150 Co119 2.037 . S
O150 C170 1.234 . S
C151 O125 1.269 . S
C151 O126 1.257 1_455 S
C152 H127 0.930 . S
C152 C155 1.388 . S
C152 C157 1.418 . S
C153 H148 0.930 . S
C153 C156 1.404 . S
C153 C157 1.353 . S
N154 Co119 2.145 . S
N154 C155 1.397 . S
N154 C156 1.334 . S
C155 H136 0.929 . S
C155 C152 1.388 . S
C155 N154 1.397 . S
C156 H137 0.929 . S
C156 C153 1.404 . S
C156 N154 1.334 . S
C157 H149 0.930 . S
C157 C152 1.418 . S
C157 C153 1.353 . S
C158 H128 0.930 . S
C158 N159 1.330 . S
C158 C160 1.446 . S
N159 Co118 2.151 . S
N159 C158 1.330 . S
N159 C163 1.418 . S
C160 H139 0.929 . S
C160 C158 1.446 . S
C160 C161 1.332 . S
C161 H141 0.931 . S
C161 C160 1.332 . S
C161 C162 1.267 . S
C162 H130 0.929 . S
C162 C161 1.267 . S
C162 C163 1.251 . S
C163 H133 0.929 . S
C163 N159 1.418 . S
C163 C162 1.251 . S
C164 H131 0.930 . S
C164 C166 1.406 . S
C164 C169 1.261 . S
C165 H132 0.930 . S
C165 N167 1.325 . S
C165 C168 1.357 . S
C166 H134 0.928 . S
C166 C164 1.406 . S
C166 N167 1.261 . S
N167 Co118 2.214 . S
N167 C165 1.325 . S
N167 C166 1.261 . S
C168 H138 0.931 . S
C168 C165 1.357 . S
C168 C169 1.312 . S
C169 H140 0.930 . S
C169 C164 1.261 . S
C169 C168 1.312 . S
C170 O142 1.214 1_455 S
C170 O150 1.234 . S
C171 H143 0.929 . S
C171 C174 1.391 . S
C171 C176 1.391 . S
C172 H144 0.929 . S
C172 C173 1.390 . S
C172 N175 1.391 . S
C173 H145 0.930 . S
C173 C172 1.390 . S
C173 C174 1.392 . S
C174 H146 0.929 . S
C174 C171 1.391 . S
C174 C173 1.392 . S
N175 Co119 2.257 . S
N175 C172 1.391 . S
N175 C176 1.388 . S
C176 H147 0.930 . S
C176 C171 1.391 . S
C176 N175 1.388 . S
Co177 O179 2.143 1_455 S
Co177 O185 2.074 . S
Co177 O188 2.093 . S
Co177 O201 2.097 . S
Co177 N218 2.151 . S
Co177 N226 2.214 . S
Co178 O179 2.160 . S
Co178 O184 2.058 . S
Co178 O194 2.057 . S
Co178 O209 2.037 . S
Co178 N213 2.145 . S
Co178 N234 2.257 . S
O179 Co177 2.143 1_655 S
O179 Co178 2.160 . S
C180 O181 1.278 . S
C180 O188 1.224 1_655 S
O181 C180 1.278 . S
C182 O183 1.245 . S
C182 O194 1.232 . S
O183 C182 1.245 . S
O184 Co178 2.058 . S
O184 C210 1.269 . S
O185 Co177 2.074 . S
O185 C210 1.257 1_455 S
H186 C211 0.930 . S
H187 C217 0.930 . S
O188 Co177 2.093 . S
O188 C180 1.224 1_455 S
H189 C221 0.929 . S
H190 C223 0.930 . S
H191 C224 0.930 . S
H192 C222 0.929 . S
H193 C225 0.928 . S
O194 Co178 2.057 . S
O194 C182 1.232 . S
H195 C214 0.929 . S
H196 C215 0.929 . S
H197 C227 0.931 . S
H198 C219 0.929 . S
H199 C228 0.930 . S
H200 C220 0.931 . S
O201 Co177 2.097 . S
O201 C229 1.214 1_455 S
H202 C230 0.929 . S
H203 C231 0.929 . S
H204 C232 0.930 . S
H205 C233 0.929 . S
H206 C235 0.930 . S
H207 C212 0.930 . S
H208 C216 0.930 . S
O209 Co178 2.037 . S
O209 C229 1.234 . S
C210 O184 1.269 . S
C210 O185 1.257 1_655 S
C211 H186 0.930 . S
C211 C214 1.388 . S
C211 C216 1.418 . S
C212 H207 0.930 . S
C212 C215 1.404 . S
C212 C216 1.353 . S
N213 Co178 2.145 . S
N213 C214 1.397 . S
N213 C215 1.334 . S
C214 H195 0.929 . S
C214 C211 1.388 . S
C214 N213 1.397 . S
C215 H196 0.929 . S
C215 C212 1.404 . S
C215 N213 1.334 . S
C216 H208 0.930 . S
C216 C211 1.418 . S
C216 C212 1.353 . S
C217 H187 0.930 . S
C217 N218 1.330 . S
C217 C219 1.446 . S
N218 Co177 2.151 . S
N218 C217 1.330 . S
N218 C222 1.418 . S
C219 H198 0.929 . S
C219 C217 1.446 . S
C219 C220 1.332 . S
C220 H200 0.931 . S
C220 C219 1.332 . S
C220 C221 1.267 . S
C221 H189 0.929 . S
C221 C220 1.267 . S
C221 C222 1.251 . S
C222 H192 0.929 . S
C222 N218 1.418 . S
C222 C221 1.251 . S
C223 H190 0.930 . S
C223 C225 1.406 . S
C223 C228 1.261 . S
C224 H191 0.930 . S
C224 N226 1.325 . S
C224 C227 1.357 . S
C225 H193 0.928 . S
C225 C223 1.406 . S
C225 N226 1.261 . S
N226 Co177 2.214 . S
N226 C224 1.325 . S
N226 C225 1.261 . S
C227 H197 0.931 . S
C227 C224 1.357 . S
C227 C228 1.312 . S
C228 H199 0.930 . S
C228 C223 1.261 . S
C228 C227 1.312 . S
C229 O201 1.214 1_655 S
C229 O209 1.234 . S
C230 H202 0.929 . S
C230 C233 1.391 . S
C230 C235 1.391 . S
C231 H203 0.929 . S
C231 C232 1.390 . S
C231 N234 1.391 . S
C232 H204 0.930 . S
C232 C231 1.390 . S
C232 C233 1.392 . S
C233 H205 0.929 . S
C233 C230 1.391 . S
C233 C232 1.392 . S
N234 Co178 2.257 . S
N234 C231 1.391 . S
N234 C235 1.388 . S
C235 H206 0.930 . S
C235 C230 1.391 . S
C235 N234 1.388 . S
Co236 O238 2.142 1_554 S
Co236 O244 2.085 . S
Co236 O247 2.081 1_554 S
Co236 O260 2.097 1_554 S
Co236 N277 2.151 . S
Co236 N285 2.215 . S
Co237 O238 2.160 1_554 S
Co237 O243 2.058 . S
Co237 O253 2.057 . S
Co237 O268 2.037 . S
Co237 N272 2.145 . S
Co237 N293 2.257 1_554 S
O238 Co236 2.142 1_556 S
O238 Co237 2.160 1_556 S
C239 O240 1.278 . S
C239 O247 1.224 . S
O240 C239 1.278 . S
C241 O242 1.245 . S
C241 O253 1.232 . S
O242 C241 1.245 . S
O243 Co237 2.058 . S
O243 C269 1.269 . S
O244 Co236 2.085 . S
O244 C269 1.257 . S
H245 C270 0.930 . S
H246 C276 0.930 . S
O247 Co236 2.081 1_556 S
O247 C239 1.224 . S
H248 C280 0.929 . S
H249 C282 0.930 . S
H250 C283 0.930 . S
H251 C281 0.929 . S
H252 C284 0.928 . S
O253 Co237 2.057 . S
O253 C241 1.232 . S
H254 C273 0.929 . S
H255 C274 0.929 . S
H256 C286 0.931 . S
H257 C278 0.929 . S
H258 C287 0.930 . S
H259 C279 0.931 . S
O260 Co236 2.097 1_556 S
O260 C288 1.214 1_556 S
H261 C289 0.929 . S
H262 C290 0.929 1_554 S
H263 C291 0.930 . S
H264 C292 0.929 . S
H265 C294 0.930 . S
H266 C271 0.930 . S
H267 C275 0.930 . S
O268 Co237 2.037 . S
O268 C288 1.234 . S
C269 O243 1.269 . S
C269 O244 1.257 . S
C270 H245 0.930 . S
C270 C273 1.388 . S
C270 C275 1.418 . S
C271 H266 0.930 . S
C271 C274 1.404 . S
C271 C275 1.353 . S
N272 Co237 2.145 . S
N272 C273 1.397 . S
N272 C274 1.334 . S
C273 H254 0.929 . S
C273 C270 1.388 . S
C273 N272 1.397 . S
C274 H255 0.929 . S
C274 C271 1.404 . S
C274 N272 1.334 . S
C275 H267 0.930 . S
C275 C270 1.418 . S
C275 C271 1.353 . S
C276 H246 0.930 . S
C276 N277 1.330 1_556 S
C276 C278 1.446 . S
N277 Co236 2.151 . S
N277 C276 1.330 1_554 S
N277 C281 1.418 . S
C278 H257 0.929 . S
C278 C276 1.446 . S
C278 C279 1.332 1_556 S
C279 H259 0.931 . S
C279 C278 1.332 1_554 S
C279 C280 1.267 . S
C280 H248 0.929 . S
C280 C279 1.267 . S
C280 C281 1.251 . S
C281 H251 0.929 . S
C281 N277 1.418 . S
C281 C280 1.251 . S
C282 H249 0.930 . S
C282 C284 1.406 . S
C282 C287 1.261 1_556 S
C283 H250 0.930 . S
C283 N285 1.325 . S
C283 C286 1.357 . S
C284 H252 0.928 . S
C284 C282 1.406 . S
C284 N285 1.261 1_556 S
N285 Co236 2.215 . S
N285 C283 1.325 . S
N285 C284 1.261 1_554 S
C286 H256 0.931 . S
C286 C283 1.357 . S
C286 C287 1.312 . S
C287 H258 0.930 . S
C287 C282 1.261 1_554 S
C287 C286 1.312 . S
C288 O260 1.214 1_554 S
C288 O268 1.234 . S
C289 H261 0.929 . S
C289 C292 1.391 . S
C289 C294 1.391 . S
C290 H262 0.929 1_556 S
C290 C291 1.390 . S
C290 N293 1.391 . S
C291 H263 0.930 . S
C291 C290 1.390 . S
C291 C292 1.392 . S
C292 H264 0.929 . S
C292 C289 1.391 . S
C292 C291 1.392 . S
N293 Co237 2.257 1_556 S
N293 C290 1.391 . S
N293 C294 1.388 . S
C294 H265 0.930 . S
C294 C289 1.391 . S
C294 N293 1.388 . S
Co295 O297 2.142 1_554 S
Co295 O303 2.085 . S
Co295 O306 2.081 1_554 S
Co295 O319 2.097 1_554 S
Co295 N336 2.151 . S
Co295 N344 2.215 . S
Co296 O297 2.160 1_554 S
Co296 O302 2.058 . S
Co296 O312 2.057 . S
Co296 O327 2.037 . S
Co296 N331 2.145 . S
Co296 N352 2.257 1_554 S
O297 Co295 2.142 1_556 S
O297 Co296 2.160 1_556 S
C298 O299 1.278 . S
C298 O306 1.224 . S
O299 C298 1.278 . S
C300 O301 1.245 . S
C300 O312 1.232 . S
O301 C300 1.245 . S
O302 Co296 2.058 . S
O302 C328 1.269 . S
O303 Co295 2.085 . S
O303 C328 1.257 . S
H304 C329 0.930 . S
H305 C335 0.930 . S
O306 Co295 2.081 1_556 S
O306 C298 1.224 . S
H307 C339 0.929 . S
H308 C341 0.930 . S
H309 C342 0.930 . S
H310 C340 0.929 . S
H311 C343 0.928 . S
O312 Co296 2.057 . S
O312 C300 1.232 . S
H313 C332 0.929 . S
H314 C333 0.929 . S
H315 C345 0.931 . S
H316 C337 0.929 . S
H317 C346 0.930 . S
H318 C338 0.931 . S
O319 Co295 2.097 1_556 S
O319 C347 1.214 1_556 S
H320 C348 0.929 . S
H321 C349 0.929 1_554 S
H322 C350 0.930 . S
H323 C351 0.929 . S
H324 C353 0.930 . S
H325 C330 0.930 . S
H326 C334 0.930 . S
O327 Co296 2.037 . S
O327 C347 1.234 . S
C328 O302 1.269 . S
C328 O303 1.257 . S
C329 H304 0.930 . S
C329 C332 1.388 . S
C329 C334 1.418 . S
C330 H325 0.930 . S
C330 C333 1.404 . S
C330 C334 1.353 . S
N331 Co296 2.145 . S
N331 C332 1.397 . S
N331 C333 1.334 . S
C332 H313 0.929 . S
C332 C329 1.388 . S
C332 N331 1.397 . S
C333 H314 0.929 . S
C333 C330 1.404 . S
C333 N331 1.334 . S
C334 H326 0.930 . S
C334 C329 1.418 . S
C334 C330 1.353 . S
C335 H305 0.930 . S
C335 N336 1.330 1_556 S
C335 C337 1.446 . S
N336 Co295 2.151 . S
N336 C335 1.330 1_554 S
N336 C340 1.418 . S
C337 H316 0.929 . S
C337 C335 1.446 . S
C337 C338 1.332 1_556 S
C338 H318 0.931 . S
C338 C337 1.332 1_554 S
C338 C339 1.267 . S
C339 H307 0.929 . S
C339 C338 1.267 . S
C339 C340 1.251 . S
C340 H310 0.929 . S
C340 N336 1.418 . S
C340 C339 1.251 . S
C341 H308 0.930 . S
C341 C343 1.406 . S
C341 C346 1.261 1_556 S
C342 H309 0.930 . S
C342 N344 1.325 . S
C342 C345 1.357 . S
C343 H311 0.928 . S
C343 C341 1.406 . S
C343 N344 1.261 1_556 S
N344 Co295 2.215 . S
N344 C342 1.325 . S
N344 C343 1.261 1_554 S
C345 H315 0.931 . S
C345 C342 1.357 . S
C345 C346 1.312 . S
C346 H317 0.930 . S
C346 C341 1.261 1_554 S
C346 C345 1.312 . S
C347 O319 1.214 1_554 S
C347 O327 1.234 . S
C348 H320 0.929 . S
C348 C351 1.391 . S
C348 C353 1.391 . S
C349 H321 0.929 1_556 S
C349 C350 1.390 . S
C349 N352 1.391 . S
C350 H322 0.930 . S
C350 C349 1.390 . S
C350 C351 1.392 . S
C351 H323 0.929 . S
C351 C348 1.391 . S
C351 C350 1.392 . S
N352 Co296 2.257 1_556 S
N352 C349 1.391 . S
N352 C353 1.388 . S
C353 H324 0.930 . S
C353 C348 1.391 . S
C353 N352 1.388 . S
Co354 O356 2.143 . S
Co354 O362 2.074 . S
Co354 O365 2.093 . S
Co354 O378 2.097 . S
Co354 N395 2.151 . S
Co354 N403 2.214 . S
Co355 O356 2.160 . S
Co355 O361 2.058 . S
Co355 O371 2.057 . S
Co355 O386 2.037 . S
Co355 N390 2.145 . S
Co355 N411 2.257 . S
O356 Co354 2.143 . S
O356 Co355 2.160 . S
C357 O358 1.278 . S
C357 O365 1.224 . S
O358 C357 1.278 . S
C359 O360 1.245 . S
C359 O371 1.232 . S
O360 C359 1.245 . S
O361 Co355 2.058 . S
O361 C387 1.269 . S
O362 Co354 2.074 . S
O362 C387 1.257 . S
H363 C388 0.930 . S
H364 C394 0.930 . S
O365 Co354 2.093 . S
O365 C357 1.224 . S
H366 C398 0.929 . S
H367 C400 0.930 . S
H368 C401 0.930 . S
H369 C399 0.929 . S
H370 C402 0.928 . S
O371 Co355 2.057 . S
O371 C359 1.232 . S
H372 C391 0.929 . S
H373 C392 0.929 . S
H374 C404 0.931 . S
H375 C396 0.929 . S
H376 C405 0.930 . S
H377 C397 0.931 . S
O378 Co354 2.097 . S
O378 C406 1.214 . S
H379 C407 0.929 . S
H380 C408 0.929 . S
H381 C409 0.930 . S
H382 C410 0.929 . S
H383 C412 0.930 . S
H384 C389 0.930 . S
H385 C393 0.930 . S
O386 Co355 2.037 . S
O386 C406 1.234 . S
C387 O361 1.269 . S
C387 O362 1.257 . S
C388 H363 0.930 . S
C388 C391 1.388 . S
C388 C393 1.418 . S
C389 H384 0.930 . S
C389 C392 1.404 . S
C389 C393 1.353 . S
N390 Co355 2.145 . S
N390 C391 1.397 . S
N390 C392 1.334 . S
C391 H372 0.929 . S
C391 C388 1.388 . S
C391 N390 1.397 . S
C392 H373 0.929 . S
C392 C389 1.404 . S
C392 N390 1.334 . S
C393 H385 0.930 . S
C393 C388 1.418 . S
C393 C389 1.353 . S
C394 H364 0.930 . S
C394 N395 1.330 . S
C394 C396 1.446 . S
N395 Co354 2.151 . S
N395 C394 1.330 . S
N395 C399 1.418 . S
C396 H375 0.929 . S
C396 C394 1.446 . S
C396 C397 1.332 . S
C397 H377 0.931 . S
C397 C396 1.332 . S
C397 C398 1.267 . S
C398 H366 0.929 . S
C398 C397 1.267 . S
C398 C399 1.251 . S
C399 H369 0.929 . S
C399 N395 1.418 . S
C399 C398 1.251 . S
C400 H367 0.930 . S
C400 C402 1.406 . S
C400 C405 1.261 . S
C401 H368 0.930 . S
C401 N403 1.325 . S
C401 C404 1.357 . S
C402 H370 0.928 . S
C402 C400 1.406 . S
C402 N403 1.261 . S
N403 Co354 2.214 . S
N403 C401 1.325 . S
N403 C402 1.261 . S
C404 H374 0.931 . S
C404 C401 1.357 . S
C404 C405 1.312 . S
C405 H376 0.930 . S
C405 C400 1.261 . S
C405 C404 1.312 . S
C406 O378 1.214 . S
C406 O386 1.234 . S
C407 H379 0.929 . S
C407 C410 1.391 . S
C407 C412 1.391 . S
C408 H380 0.929 . S
C408 C409 1.390 . S
C408 N411 1.391 . S
C409 H381 0.930 . S
C409 C408 1.390 . S
C409 C410 1.392 . S
C410 H382 0.929 . S
C410 C407 1.391 . S
C410 C409 1.392 . S
N411 Co355 2.257 . S
N411 C408 1.391 . S
N411 C412 1.388 . S
C412 H383 0.930 . S
C412 C407 1.391 . S
C412 N411 1.388 . S
Co413 O415 2.143 . S
Co413 O421 2.074 . S
Co413 O424 2.093 . S
Co413 O437 2.097 . S
Co413 N454 2.151 . S
Co413 N462 2.214 . S
Co414 O415 2.160 . S
Co414 O420 2.058 . S
Co414 O430 2.057 . S
Co414 O445 2.037 . S
Co414 N449 2.145 . S
Co414 N470 2.257 . S
O415 Co413 2.143 . S
O415 Co414 2.160 . S
C416 O417 1.278 . S
C416 O424 1.224 . S
O417 C416 1.278 . S
C418 O419 1.245 . S
C418 O430 1.232 . S
O419 C418 1.245 . S
O420 Co414 2.058 . S
O420 C446 1.269 . S
O421 Co413 2.074 . S
O421 C446 1.257 . S
H422 C447 0.930 . S
H423 C453 0.930 . S
O424 Co413 2.093 . S
O424 C416 1.224 . S
H425 C457 0.929 . S
H426 C459 0.930 . S
H427 C460 0.930 . S
H428 C458 0.929 . S
H429 C461 0.928 . S
O430 Co414 2.057 . S
O430 C418 1.232 . S
H431 C450 0.929 . S
H432 C451 0.929 . S
H433 C463 0.931 . S
H434 C455 0.929 . S
H435 C464 0.930 . S
H436 C456 0.931 . S
O437 Co413 2.097 . S
O437 C465 1.214 . S
H438 C466 0.929 . S
H439 C467 0.929 . S
H440 C468 0.930 . S
H441 C469 0.929 . S
H442 C471 0.930 . S
H443 C448 0.930 . S
H444 C452 0.930 . S
O445 Co414 2.037 . S
O445 C465 1.234 . S
C446 O420 1.269 . S
C446 O421 1.257 . S
C447 H422 0.930 . S
C447 C450 1.388 . S
C447 C452 1.418 . S
C448 H443 0.930 . S
C448 C451 1.404 . S
C448 C452 1.353 . S
N449 Co414 2.145 . S
N449 C450 1.397 . S
N449 C451 1.334 . S
C450 H431 0.929 . S
C450 C447 1.388 . S
C450 N449 1.397 . S
C451 H432 0.929 . S
C451 C448 1.404 . S
C451 N449 1.334 . S
C452 H444 0.930 . S
C452 C447 1.418 . S
C452 C448 1.353 . S
C453 H423 0.930 . S
C453 N454 1.330 . S
C453 C455 1.446 . S
N454 Co413 2.151 . S
N454 C453 1.330 . S
N454 C458 1.418 . S
C455 H434 0.929 . S
C455 C453 1.446 . S
C455 C456 1.332 . S
C456 H436 0.931 . S
C456 C455 1.332 . S
C456 C457 1.267 . S
C457 H425 0.929 . S
C457 C456 1.267 . S
C457 C458 1.251 . S
C458 H428 0.929 . S
C458 N454 1.418 . S
C458 C457 1.251 . S
C459 H426 0.930 . S
C459 C461 1.406 . S
C459 C464 1.261 . S
C460 H427 0.930 . S
C460 N462 1.325 . S
C460 C463 1.357 . S
C461 H429 0.928 . S
C461 C459 1.406 . S
C461 N462 1.261 . S
N462 Co413 2.214 . S
N462 C460 1.325 . S
N462 C461 1.261 . S
C463 H433 0.931 . S
C463 C460 1.357 . S
C463 C464 1.312 . S
C464 H435 0.930 . S
C464 C459 1.261 . S
C464 C463 1.312 . S
C465 O437 1.214 . S
C465 O445 1.234 . S
C466 H438 0.929 . S
C466 C469 1.391 . S
C466 C471 1.391 . S
C467 H439 0.929 . S
C467 C468 1.390 . S
C467 N470 1.391 . S
C468 H440 0.930 . S
C468 C467 1.390 . S
C468 C469 1.392 . S
C469 H441 0.929 . S
C469 C466 1.391 . S
C469 C468 1.392 . S
N470 Co414 2.257 . S
N470 C467 1.391 . S
N470 C471 1.388 . S
C471 H442 0.930 . S
C471 C466 1.391 . S
C471 N470 1.388 . S
C472 C473 1.387 . S
C472 H476 0.950 . S
C472 C481 1.390 1_665 S
C473 C472 1.387 . S
C473 C475 1.387 1_554 S
H474 C481 0.950 . S
C475 C473 1.387 1_556 S
C475 C477 1.390 1_665 S
C475 H479 0.950 . S
H476 C472 0.950 . S
C477 C475 1.390 1_445 S
C477 C478 1.387 1_556 S
C477 H480 0.950 . S
C478 C477 1.387 1_554 S
C478 C481 1.387 . S
H479 C475 0.950 . S
H480 C477 0.950 . S
C481 C472 1.390 1_445 S
C481 H474 0.950 . S
C481 C478 1.387 . S
C482 C483 1.387 . S
C482 H486 0.950 . S
C482 C491 1.390 1_465 S
C483 C482 1.387 . S
C483 C485 1.387 . S
H484 C491 0.950 . S
C485 C483 1.387 . S
C485 C487 1.390 1_465 S
C485 H489 0.950 . S
H486 C482 0.950 . S
C487 C485 1.390 1_645 S
C487 C488 1.387 . S
C487 H490 0.950 . S
C488 C487 1.387 . S
C488 C491 1.387 . S
H489 C485 0.950 . S
H490 C487 0.950 . S
C491 C482 1.390 1_645 S
C491 H484 0.950 . S
C491 C488 1.387 . S
C492 C493 1.387 1_556 S
C492 H496 0.950 . S
C492 C501 1.390 . S
C493 C492 1.387 1_554 S
C493 C495 1.387 . S
H494 C501 0.950 . S
C495 C493 1.387 . S
C495 C497 1.390 . S
C495 H499 0.950 . S
H496 C492 0.950 . S
C497 C495 1.390 . S
C497 C498 1.387 . S
C497 H500 0.950 . S
C498 C497 1.387 . S
C498 C501 1.387 1_554 S
H499 C495 0.950 . S
H500 C497 0.950 . S
C501 C492 1.390 . S
C501 H494 0.950 . S
C501 C498 1.387 1_556 S
C502 C503 1.387 . S
C502 H506 0.950 . S
C502 C511 1.390 . S
C503 C502 1.387 . S
C503 C505 1.387 . S
H504 C511 0.950 . S
C505 C503 1.387 . S
C505 C507 1.390 . S
C505 H509 0.950 . S
H506 C502 0.950 . S
C507 C505 1.390 . S
C507 C508 1.387 . S
C507 H510 0.950 . S
C508 C507 1.387 . S
C508 C511 1.387 . S
H509 C505 0.950 . S
H510 C507 0.950 . S
C511 C502 1.390 . S
C511 H504 0.950 . S
C511 C508 1.387 . S
C512 C513 1.387 . S
C512 H516 0.950 . S
C512 C521 1.390 1_455 S
C513 C512 1.387 . S
C513 C515 1.387 . S
H514 C521 0.950 . S
C515 C513 1.387 . S
C515 C517 1.390 1_455 S
C515 H519 0.950 . S
H516 C512 0.950 . S
C517 C515 1.390 1_655 S
C517 C518 1.387 . S
C517 H520 0.950 . S
C518 C517 1.387 . S
C518 C521 1.387 . S
H519 C515 0.950 . S
H520 C517 0.950 . S
C521 C512 1.390 1_655 S
C521 H514 0.950 . S
C521 C518 1.387 . S
C522 C523 1.387 . S
C522 H526 0.950 . S
C522 C531 1.390 1_455 S
C523 C522 1.387 . S
C523 C525 1.387 . S
H524 C531 0.950 . S
C525 C523 1.387 . S
C525 C527 1.390 1_455 S
C525 H529 0.950 . S
H526 C522 0.950 . S
C527 C525 1.390 1_655 S
C527 C528 1.387 . S
C527 H530 0.950 . S
C528 C527 1.387 . S
C528 C531 1.387 . S
H529 C525 0.950 . S
H530 C527 0.950 . S
C531 C522 1.390 1_655 S
C531 H524 0.950 . S
C531 C528 1.387 . S
C532 C533 1.387 . S
C532 H536 0.950 . S
C532 C541 1.390 1_455 S
C533 C532 1.387 . S
C533 C535 1.387 . S
H534 C541 0.950 . S
C535 C533 1.387 . S
C535 C537 1.390 1_455 S
C535 H539 0.950 . S
H536 C532 0.950 . S
C537 C535 1.390 1_655 S
C537 C538 1.387 . S
C537 H540 0.950 . S
C538 C537 1.387 . S
C538 C541 1.387 . S
H539 C535 0.950 . S
H540 C537 0.950 . S
C541 C532 1.390 1_655 S
C541 H534 0.950 . S
C541 C538 1.387 . S
C542 C543 1.388 . S
C542 H546 0.950 . S
C542 C551 1.389 1_455 S
C543 C542 1.388 . S
C543 C545 1.388 . S
H544 C551 0.950 . S
C545 C543 1.388 . S
C545 C547 1.389 1_455 S
C545 H549 0.950 . S
H546 C542 0.950 . S
C547 C545 1.389 1_655 S
C547 C548 1.388 . S
C547 H550 0.950 . S
C548 C547 1.388 . S
C548 C551 1.388 . S
H549 C545 0.950 . S
H550 C547 0.950 . S
C551 C542 1.389 1_655 S
C551 H544 0.950 . S
C551 C548 1.388 . S
C552 C553 1.387 . S
C552 H556 0.950 . S
C552 C561 1.390 . S
C553 C552 1.387 . S
C553 C555 1.387 . S
H554 C561 0.950 . S
C555 C553 1.387 . S
C555 C557 1.390 . S
C555 H559 0.950 . S
H556 C552 0.950 . S
C557 C555 1.390 . S
C557 C558 1.387 . S
C557 H560 0.950 . S
C558 C557 1.387 . S
C558 C561 1.387 . S
H559 C555 0.950 . S
H560 C557 0.950 . S
C561 C552 1.390 . S
C561 H554 0.950 . S
C561 C558 1.387 . S
C562 C563 1.387 . S
C562 H566 0.950 . S
C562 C571 1.390 . S
C563 C562 1.387 . S
C563 C565 1.387 . S
H564 C571 0.950 . S
C565 C563 1.387 . S
C565 C567 1.390 . S
C565 H569 0.950 . S
H566 C562 0.950 . S
C567 C565 1.390 . S
C567 C568 1.387 . S
C567 H570 0.950 . S
C568 C567 1.387 . S
C568 C571 1.387 . S
H569 C565 0.950 . S
H570 C567 0.950 . S
C571 C562 1.390 . S
C571 H564 0.950 . S
C571 C568 1.387 . S
C572 C573 1.387 . S
C572 H576 0.950 . S
C572 C581 1.390 . S
C573 C572 1.387 . S
C573 C575 1.387 . S
H574 C581 0.950 . S
C575 C573 1.387 . S
C575 C577 1.390 . S
C575 H579 0.950 . S
H576 C572 0.950 . S
C577 C575 1.390 . S
C577 C578 1.387 . S
C577 H580 0.950 . S
C578 C577 1.387 . S
C578 C581 1.387 . S
H579 C575 0.950 . S
H580 C577 0.950 . S
C581 C572 1.390 . S
C581 H574 0.950 . S
C581 C578 1.387 . S
C582 C583 1.387 . S
C582 H586 0.950 . S
C582 C591 1.390 . S
C583 C582 1.387 . S
C583 C585 1.387 . S
H584 C591 0.950 . S
C585 C583 1.387 . S
C585 C587 1.390 . S
C585 H589 0.950 . S
H586 C582 0.950 . S
C587 C585 1.390 . S
C587 C588 1.387 . S
C587 H590 0.950 . S
C588 C587 1.387 . S
C588 C591 1.387 . S
H589 C585 0.950 . S
H590 C587 0.950 . S
C591 C582 1.390 . S
C591 H584 0.950 . S
C591 C588 1.387 . S
C592 C593 1.387 1_556 S
C592 H596 0.950 . S
C592 C601 1.390 . S
C593 C592 1.387 1_554 S
C593 C595 1.387 . S
H594 C601 0.950 . S
C595 C593 1.387 . S
C595 C597 1.390 . S
C595 H599 0.950 . S
H596 C592 0.950 . S
C597 C595 1.390 . S
C597 C598 1.387 . S
C597 H600 0.950 . S
C598 C597 1.387 . S
C598 C601 1.387 1_554 S
H599 C595 0.950 . S
H600 C597 0.950 . S
C601 C592 1.390 . S
C601 H594 0.950 . S
C601 C598 1.387 1_556 S
C602 C603 1.387 . S
C602 H606 0.950 . S
C602 C611 1.390 . S
C603 C602 1.387 . S
C603 C605 1.387 1_554 S
H604 C611 0.950 . S
C605 C603 1.387 1_556 S
C605 C607 1.390 . S
C605 H609 0.950 . S
H606 C602 0.950 . S
C607 C605 1.390 . S
C607 C608 1.387 1_556 S
C607 H610 0.950 . S
C608 C607 1.387 1_554 S
C608 C611 1.387 . S
H609 C605 0.950 . S
H610 C607 0.950 . S
C611 C602 1.390 . S
C611 H604 0.950 . S
C611 C608 1.387 . S
C612 C613 1.387 . S
C612 H616 0.950 . S
C612 C621 1.390 . S
C613 C612 1.387 . S
C613 C615 1.387 . S
H614 C621 0.950 . S
C615 C613 1.387 . S
C615 C617 1.390 . S
C615 H619 0.950 . S
H616 C612 0.950 . S
C617 C615 1.390 . S
C617 C618 1.387 . S
C617 H620 0.950 . S
C618 C617 1.387 . S
C618 C621 1.387 . S
H619 C615 0.950 . S
H620 C617 0.950 . S
C621 C612 1.390 . S
C621 H614 0.950 . S
C621 C618 1.387 . S
C622 C623 1.387 . S
C622 H626 0.950 . S
C622 C631 1.390 . S
C623 C622 1.387 . S
C623 C625 1.387 . S
H624 C631 0.950 . S
C625 C623 1.387 . S
C625 C627 1.390 . S
C625 H629 0.950 . S
H626 C622 0.950 . S
C627 C625 1.390 . S
C627 C628 1.387 . S
C627 H630 0.950 . S
C628 C627 1.387 . S
C628 C631 1.387 . S
H629 C625 0.950 . S
H630 C627 0.950 . S
C631 C622 1.390 . S
C631 H624 0.950 . S
C631 C628 1.387 . S
C473 C111 1.515 . S
C478 C52 1.515 . S
C483 C170 1.515 . S
C488 C229 1.515 . S
C493 C288 1.515 . S
C498 C347 1.515 . S
C503 C406 1.515 . S
C508 C465 1.515 . S
C513 C33 1.383 . S
C518 C210 1.383 . S
C523 C151 1.383 . S
C528 C92 1.383 . S
C533 C121 1.462 . S
C538 C62 1.462 . S
C543 C3 1.463 . S
C548 C180 1.463 . S
C553 C269 1.383 . S
C558 C446 1.383 . S
C563 C387 1.383 . S
C568 C328 1.383 . S
C573 C298 1.462 . S
C578 C357 1.462 . S
C583 C239 1.463 . S
C588 C416 1.463 . S
C593 C300 1.515 . S
C598 C5 1.515 . S
C603 C241 1.515 . S
C608 C64 1.515 . S
C613 C123 1.515 . S
C618 C418 1.515 . S
C623 C359 1.515 . S
C628 C182 1.515 . S
