# Generated by pormake.
# Topology ana, (4)-cn, num edge types: 1
# Building blocks:
#     Node 0, Type 0, BuildingBlock: QUQFOY_clean_sbu_3, # of connection points: 4
#     Node 1, Type 0, BuildingBlock: QUQFOY_clean_sbu_3, # of connection points: 4
#     Node 2, Type 0, BuildingBlock: QUQFOY_clean_sbu_3, # of connection points: 4
#     Node 3, Type 0, BuildingBlock: QUQFOY_clean_sbu_3, # of connection points: 4
#     Node 4, Type 0, BuildingBlock: QUQFOY_clean_sbu_3, # of connection points: 4
#     Node 5, Type 0, BuildingBlock: QUQFOY_clean_sbu_3, # of connection points: 4
#     Node 6, Type 0, BuildingBlock: QUQFOY_clean_sbu_3, # of connection points: 4
#     Node 7, Type 0, BuildingBlock: QUQFOY_clean_sbu_3, # of connection points: 4
#     Node 8, Type 0, BuildingBlock: QUQFOY_clean_sbu_3, # of connection points: 4
#     Node 9, Type 0, BuildingBlock: QUQFOY_clean_sbu_3, # of connection points: 4
#     Node 10, Type 0, BuildingBlock: QUQFOY_clean_sbu_3, # of connection points: 4
#     Node 11, Type 0, BuildingBlock: QUQFOY_clean_sbu_3, # of connection points: 4
#     Node 12, Type 0, BuildingBlock: QUQFOY_clean_sbu_3, # of connection points: 4
#     Node 13, Type 0, BuildingBlock: QUQFOY_clean_sbu_3, # of connection points: 4
#     Node 14, Type 0, BuildingBlock: QUQFOY_clean_sbu_3, # of connection points: 4
#     Node 15, Type 0, BuildingBlock: QUQFOY_clean_sbu_3, # of connection points: 4
#     Node 16, Type 0, BuildingBlock: QUQFOY_clean_sbu_3, # of connection points: 4
#     Node 17, Type 0, BuildingBlock: QUQFOY_clean_sbu_3, # of connection points: 4
#     Node 18, Type 0, BuildingBlock: QUQFOY_clean_sbu_3, # of connection points: 4
#     Node 19, Type 0, BuildingBlock: QUQFOY_clean_sbu_3, # of connection points: 4
#     Node 20, Type 0, BuildingBlock: QUQFOY_clean_sbu_3, # of connection points: 4
#     Node 21, Type 0, BuildingBlock: QUQFOY_clean_sbu_3, # of connection points: 4
#     Node 22, Type 0, BuildingBlock: QUQFOY_clean_sbu_3, # of connection points: 4
#     Node 23, Type 0, BuildingBlock: QUQFOY_clean_sbu_3, # of connection points: 4
#     Node 24, Type 0, BuildingBlock: QUQFOY_clean_sbu_3, # of connection points: 4
#     Node 25, Type 0, BuildingBlock: QUQFOY_clean_sbu_3, # of connection points: 4
#     Node 26, Type 0, BuildingBlock: QUQFOY_clean_sbu_3, # of connection points: 4
#     Node 27, Type 0, BuildingBlock: QUQFOY_clean_sbu_3, # of connection points: 4
#     Node 28, Type 0, BuildingBlock: QUQFOY_clean_sbu_3, # of connection points: 4
#     Node 29, Type 0, BuildingBlock: QUQFOY_clean_sbu_3, # of connection points: 4
#     Node 30, Type 0, BuildingBlock: QUQFOY_clean_sbu_3, # of connection points: 4
#     Node 31, Type 0, BuildingBlock: QUQFOY_clean_sbu_3, # of connection points: 4
#     Node 32, Type 0, BuildingBlock: QUQFOY_clean_sbu_3, # of connection points: 4
#     Node 33, Type 0, BuildingBlock: QUQFOY_clean_sbu_3, # of connection points: 4
#     Node 34, Type 0, BuildingBlock: QUQFOY_clean_sbu_3, # of connection points: 4
#     Node 35, Type 0, BuildingBlock: QUQFOY_clean_sbu_3, # of connection points: 4
#     Node 36, Type 0, BuildingBlock: QUQFOY_clean_sbu_3, # of connection points: 4
#     Node 37, Type 0, BuildingBlock: QUQFOY_clean_sbu_3, # of connection points: 4
#     Node 38, Type 0, BuildingBlock: QUQFOY_clean_sbu_3, # of connection points: 4
#     Node 39, Type 0, BuildingBlock: QUQFOY_clean_sbu_3, # of connection points: 4
#     Node 40, Type 0, BuildingBlock: QUQFOY_clean_sbu_3, # of connection points: 4
#     Node 41, Type 0, BuildingBlock: QUQFOY_clean_sbu_3, # of connection points: 4
#     Node 42, Type 0, BuildingBlock: QUQFOY_clean_sbu_3, # of connection points: 4
#     Node 43, Type 0, BuildingBlock: QUQFOY_clean_sbu_3, # of connection points: 4
#     Node 44, Type 0, BuildingBlock: QUQFOY_clean_sbu_3, # of connection points: 4
#     Node 45, Type 0, BuildingBlock: QUQFOY_clean_sbu_3, # of connection points: 4
#     Node 46, Type 0, BuildingBlock: QUQFOY_clean_sbu_3, # of connection points: 4
#     Node 47, Type 0, BuildingBlock: QUQFOY_clean_sbu_3, # of connection points: 4
#     Edge 48, Type (0, 0), BuildingBlock: OJICUG_clean_linker_0, # of connection points: 2
#     Edge 49, Type (0, 0), BuildingBlock: OJICUG_clean_linker_0, # of connection points: 2
#     Edge 50, Type (0, 0), BuildingBlock: OJICUG_clean_linker_0, # of connection points: 2
#     Edge 51, Type (0, 0), BuildingBlock: OJICUG_clean_linker_0, # of connection points: 2
#     Edge 52, Type (0, 0), BuildingBlock: OJICUG_clean_linker_0, # of connection points: 2
#     Edge 53, Type (0, 0), BuildingBlock: OJICUG_clean_linker_0, # of connection points: 2
#     Edge 54, Type (0, 0), BuildingBlock: OJICUG_clean_linker_0, # of connection points: 2
#     Edge 55, Type (0, 0), BuildingBlock: OJICUG_clean_linker_0, # of connection points: 2
#     Edge 56, Type (0, 0), BuildingBlock: OJICUG_clean_linker_0, # of connection points: 2
#     Edge 57, Type (0, 0), BuildingBlock: OJICUG_clean_linker_0, # of connection points: 2
#     Edge 58, Type (0, 0), BuildingBlock: OJICUG_clean_linker_0, # of connection points: 2
#     Edge 59, Type (0, 0), BuildingBlock: OJICUG_clean_linker_0, # of connection points: 2
#     Edge 60, Type (0, 0), BuildingBlock: OJICUG_clean_linker_0, # of connection points: 2
#     Edge 61, Type (0, 0), BuildingBlock: OJICUG_clean_linker_0, # of connection points: 2
#     Edge 62, Type (0, 0), BuildingBlock: OJICUG_clean_linker_0, # of connection points: 2
#     Edge 63, Type (0, 0), BuildingBlock: OJICUG_clean_linker_0, # of connection points: 2
#     Edge 64, Type (0, 0), BuildingBlock: OJICUG_clean_linker_0, # of connection points: 2
#     Edge 65, Type (0, 0), BuildingBlock: OJICUG_clean_linker_0, # of connection points: 2
#     Edge 66, Type (0, 0), BuildingBlock: OJICUG_clean_linker_0, # of connection points: 2
#     Edge 67, Type (0, 0), BuildingBlock: OJICUG_clean_linker_0, # of connection points: 2
#     Edge 68, Type (0, 0), BuildingBlock: OJICUG_clean_linker_0, # of connection points: 2
#     Edge 69, Type (0, 0), BuildingBlock: OJICUG_clean_linker_0, # of connection points: 2
#     Edge 70, Type (0, 0), BuildingBlock: OJICUG_clean_linker_0, # of connection points: 2
#     Edge 71, Type (0, 0), BuildingBlock: OJICUG_clean_linker_0, # of connection points: 2
#     Edge 72, Type (0, 0), BuildingBlock: OJICUG_clean_linker_0, # of connection points: 2
#     Edge 73, Type (0, 0), BuildingBlock: OJICUG_clean_linker_0, # of connection points: 2
#     Edge 74, Type (0, 0), BuildingBlock: OJICUG_clean_linker_0, # of connection points: 2
#     Edge 75, Type (0, 0), BuildingBlock: OJICUG_clean_linker_0, # of connection points: 2
#     Edge 76, Type (0, 0), BuildingBlock: OJICUG_clean_linker_0, # of connection points: 2
#     Edge 77, Type (0, 0), BuildingBlock: OJICUG_clean_linker_0, # of connection points: 2
#     Edge 78, Type (0, 0), BuildingBlock: OJICUG_clean_linker_0, # of connection points: 2
#     Edge 79, Type (0, 0), BuildingBlock: OJICUG_clean_linker_0, # of connection points: 2
#     Edge 80, Type (0, 0), BuildingBlock: OJICUG_clean_linker_0, # of connection points: 2
#     Edge 81, Type (0, 0), BuildingBlock: OJICUG_clean_linker_0, # of connection points: 2
#     Edge 82, Type (0, 0), BuildingBlock: OJICUG_clean_linker_0, # of connection points: 2
#     Edge 83, Type (0, 0), BuildingBlock: OJICUG_clean_linker_0, # of connection points: 2
#     Edge 84, Type (0, 0), BuildingBlock: OJICUG_clean_linker_0, # of connection points: 2
#     Edge 85, Type (0, 0), BuildingBlock: OJICUG_clean_linker_0, # of connection points: 2
#     Edge 86, Type (0, 0), BuildingBlock: OJICUG_clean_linker_0, # of connection points: 2
#     Edge 87, Type (0, 0), BuildingBlock: OJICUG_clean_linker_0, # of connection points: 2
#     Edge 88, Type (0, 0), BuildingBlock: OJICUG_clean_linker_0, # of connection points: 2
#     Edge 89, Type (0, 0), BuildingBlock: OJICUG_clean_linker_0, # of connection points: 2
#     Edge 90, Type (0, 0), BuildingBlock: OJICUG_clean_linker_0, # of connection points: 2
#     Edge 91, Type (0, 0), BuildingBlock: OJICUG_clean_linker_0, # of connection points: 2
#     Edge 92, Type (0, 0), BuildingBlock: OJICUG_clean_linker_0, # of connection points: 2
#     Edge 93, Type (0, 0), BuildingBlock: OJICUG_clean_linker_0, # of connection points: 2
#     Edge 94, Type (0, 0), BuildingBlock: OJICUG_clean_linker_0, # of connection points: 2
#     Edge 95, Type (0, 0), BuildingBlock: OJICUG_clean_linker_0, # of connection points: 2
#     Edge 96, Type (0, 0), BuildingBlock: OJICUG_clean_linker_0, # of connection points: 2
#     Edge 97, Type (0, 0), BuildingBlock: OJICUG_clean_linker_0, # of connection points: 2
#     Edge 98, Type (0, 0), BuildingBlock: OJICUG_clean_linker_0, # of connection points: 2
#     Edge 99, Type (0, 0), BuildingBlock: OJICUG_clean_linker_0, # of connection points: 2
#     Edge 100, Type (0, 0), BuildingBlock: OJICUG_clean_linker_0, # of connection points: 2
#     Edge 101, Type (0, 0), BuildingBlock: OJICUG_clean_linker_0, # of connection points: 2
#     Edge 102, Type (0, 0), BuildingBlock: OJICUG_clean_linker_0, # of connection points: 2
#     Edge 103, Type (0, 0), BuildingBlock: OJICUG_clean_linker_0, # of connection points: 2
#     Edge 104, Type (0, 0), BuildingBlock: OJICUG_clean_linker_0, # of connection points: 2
#     Edge 105, Type (0, 0), BuildingBlock: OJICUG_clean_linker_0, # of connection points: 2
#     Edge 106, Type (0, 0), BuildingBlock: OJICUG_clean_linker_0, # of connection points: 2
#     Edge 107, Type (0, 0), BuildingBlock: OJICUG_clean_linker_0, # of connection points: 2
#     Edge 108, Type (0, 0), BuildingBlock: OJICUG_clean_linker_0, # of connection points: 2
#     Edge 109, Type (0, 0), BuildingBlock: OJICUG_clean_linker_0, # of connection points: 2
#     Edge 110, Type (0, 0), BuildingBlock: OJICUG_clean_linker_0, # of connection points: 2
#     Edge 111, Type (0, 0), BuildingBlock: OJICUG_clean_linker_0, # of connection points: 2
#     Edge 112, Type (0, 0), BuildingBlock: OJICUG_clean_linker_0, # of connection points: 2
#     Edge 113, Type (0, 0), BuildingBlock: OJICUG_clean_linker_0, # of connection points: 2
#     Edge 114, Type (0, 0), BuildingBlock: OJICUG_clean_linker_0, # of connection points: 2
#     Edge 115, Type (0, 0), BuildingBlock: OJICUG_clean_linker_0, # of connection points: 2
#     Edge 116, Type (0, 0), BuildingBlock: OJICUG_clean_linker_0, # of connection points: 2
#     Edge 117, Type (0, 0), BuildingBlock: OJICUG_clean_linker_0, # of connection points: 2
#     Edge 118, Type (0, 0), BuildingBlock: OJICUG_clean_linker_0, # of connection points: 2
#     Edge 119, Type (0, 0), BuildingBlock: OJICUG_clean_linker_0, # of connection points: 2
#     Edge 120, Type (0, 0), BuildingBlock: OJICUG_clean_linker_0, # of connection points: 2
#     Edge 121, Type (0, 0), BuildingBlock: OJICUG_clean_linker_0, # of connection points: 2
#     Edge 122, Type (0, 0), BuildingBlock: OJICUG_clean_linker_0, # of connection points: 2
#     Edge 123, Type (0, 0), BuildingBlock: OJICUG_clean_linker_0, # of connection points: 2
#     Edge 124, Type (0, 0), BuildingBlock: OJICUG_clean_linker_0, # of connection points: 2
#     Edge 125, Type (0, 0), BuildingBlock: OJICUG_clean_linker_0, # of connection points: 2
#     Edge 126, Type (0, 0), BuildingBlock: OJICUG_clean_linker_0, # of connection points: 2
#     Edge 127, Type (0, 0), BuildingBlock: OJICUG_clean_linker_0, # of connection points: 2
#     Edge 128, Type (0, 0), BuildingBlock: OJICUG_clean_linker_0, # of connection points: 2
#     Edge 129, Type (0, 0), BuildingBlock: OJICUG_clean_linker_0, # of connection points: 2
#     Edge 130, Type (0, 0), BuildingBlock: OJICUG_clean_linker_0, # of connection points: 2
#     Edge 131, Type (0, 0), BuildingBlock: OJICUG_clean_linker_0, # of connection points: 2
#     Edge 132, Type (0, 0), BuildingBlock: OJICUG_clean_linker_0, # of connection points: 2
#     Edge 133, Type (0, 0), BuildingBlock: OJICUG_clean_linker_0, # of connection points: 2
#     Edge 134, Type (0, 0), BuildingBlock: OJICUG_clean_linker_0, # of connection points: 2
#     Edge 135, Type (0, 0), BuildingBlock: OJICUG_clean_linker_0, # of connection points: 2
#     Edge 136, Type (0, 0), BuildingBlock: OJICUG_clean_linker_0, # of connection points: 2
#     Edge 137, Type (0, 0), BuildingBlock: OJICUG_clean_linker_0, # of connection points: 2
#     Edge 138, Type (0, 0), BuildingBlock: OJICUG_clean_linker_0, # of connection points: 2
#     Edge 139, Type (0, 0), BuildingBlock: OJICUG_clean_linker_0, # of connection points: 2
#     Edge 140, Type (0, 0), BuildingBlock: OJICUG_clean_linker_0, # of connection points: 2
#     Edge 141, Type (0, 0), BuildingBlock: OJICUG_clean_linker_0, # of connection points: 2
#     Edge 142, Type (0, 0), BuildingBlock: OJICUG_clean_linker_0, # of connection points: 2
#     Edge 143, Type (0, 0), BuildingBlock: OJICUG_clean_linker_0, # of connection points: 2
# Relax obj value: 0.103
# Max RMSD: 0.132
# Mean RMSD: 0.114
data_MOF--net-ana--node1-QUQFOY_clean_sbu_3--edge1-OJICUG_clean_linker_0
_symmetry_space_group_name_H-M    P1
_symmetry_Int_Tables_number       1
_symmetry_cell_setting            triclinic
loop_
_symmetry_equiv_pos_as_xyz
'x, y, z'
_cell_length_a     49.053471
_cell_length_b     50.043659
_cell_length_c     50.005665
_cell_angle_alpha  90.243277
_cell_angle_beta   90.610412
_cell_angle_gamma 91.403538
loop_
_atom_site_label
_atom_site_type_symbol
_atom_site_fract_x
_atom_site_fract_y
_atom_site_fract_z
_atom_type_partial_charge
C0 C 0.15462 0.09512 0.34912 0.0
O1 O 0.13696 0.07649 0.35323 0.0
Cd2 Cd 0.08876 0.07698 0.36438 0.0
O3 O 0.14852 0.11971 0.35085 0.0
Cd4 Cd 0.10903 0.14643 0.36215 0.0
C5 C 0.09433 0.11283 0.42247 0.0
O6 O 0.07543 0.1173 0.34611 0.0
O7 O 0.06638 0.15723 0.3356 0.0
O8 O 0.12839 0.18694 0.34305 0.0
C9 C 0.05847 0.13299 0.3363 0.0
O10 O 0.08884 0.09049 0.41099 0.0
C11 C 0.12345 0.20117 0.36355 0.0
O12 O 0.10161 0.13346 0.40914 0.0
O13 O 0.1128 0.18946 0.38356 0.0
C14 C 0.06452 0.8797 0.69767 0.0
O15 O 0.04005 0.88717 0.69516 0.0
Cd16 Cd 0.01297 0.88373 0.65562 0.0
O17 O 0.07696 0.8688 0.67835 0.0
Cd18 Cd 0.06608 0.85482 0.63178 0.0
C19 C 0.05589 0.9189 0.6141 0.0
O20 O 0.02178 0.83857 0.6448 0.0
O21 O 0.02895 0.83595 0.60264 0.0
O22 O 0.09672 0.81811 0.63887 0.0
C23 C 0.01343 0.83076 0.62212 0.0
O24 O 0.0331 0.91747 0.62603 0.0
C25 C 0.10597 0.81842 0.61523 0.0
O26 O 0.07184 0.8993 0.61421 0.0
O27 O 0.09799 0.83694 0.59999 0.0
C28 C 0.30981 0.85882 0.86004 0.0
O29 O 0.32655 0.87855 0.86129 0.0
Cd30 Cd 0.37384 0.87347 0.87377 0.0
O31 O 0.31765 0.83536 0.86514 0.0
Cd32 Cd 0.35926 0.81329 0.87882 0.0
C33 C 0.36586 0.84847 0.93615 0.0
O34 O 0.3935 0.83583 0.85096 0.0
O35 O 0.40799 0.81242 0.88425 0.0
O36 O 0.34901 0.77334 0.85224 0.0
C37 C 0.41343 0.82566 0.86337 0.0
O38 O 0.3745 0.86826 0.92244 0.0
C39 C 0.34811 0.75784 0.87229 0.0
O40 O 0.35734 0.82707 0.92478 0.0
O41 O 0.35184 0.7684 0.89518 0.0
C42 C 0.40255 0.09751 0.2138 0.0
O43 O 0.42556 0.08884 0.20681 0.0
Cd44 Cd 0.44393 0.0895 0.16309 0.0
O45 O 0.38623 0.10765 0.19677 0.0
Cd46 Cd 0.38658 0.11784 0.14804 0.0
C47 C 0.39352 0.05305 0.13022 0.0
O48 O 0.43285 0.13388 0.15172 0.0
O49 O 0.41703 0.13422 0.11165 0.0
O50 O 0.35779 0.15541 0.15793 0.0
C51 C 0.43655 0.13991 0.12759 0.0
O52 O 0.41832 0.05493 0.13796 0.0
C53 C 0.34395 0.15347 0.13635 0.0
O54 O 0.37762 0.0725 0.13306 0.0
O55 O 0.34878 0.13378 0.1212 0.0
C56 C 0.05491 0.87122 0.11426 0.0
O57 O 0.07203 0.86798 0.13311 0.0
Cd58 Cd 0.1156 0.84791 0.12661 0.0
O59 O 0.06045 0.864 0.09058 0.0
Cd60 Cd 0.09813 0.84214 0.06865 0.0
C61 C 0.09159 0.78734 0.10569 0.0
O62 O 0.13807 0.86552 0.08792 0.0
O63 O 0.14451 0.82697 0.06971 0.0
O64 O 0.09349 0.86875 0.02854 0.0
C65 C 0.15465 0.8486 0.07914 0.0
O66 O 0.10695 0.79959 0.12263 0.0
C67 C 0.09173 0.8488 0.01278 0.0
O68 O 0.08235 0.79921 0.08523 0.0
O69 O 0.0915 0.82576 0.02329 0.0
C70 C 0.46126 0.83996 0.30207 0.0
O71 O 0.45581 0.82505 0.28198 0.0
Cd72 Cd 0.41124 0.81426 0.26576 0.0
O73 O 0.44242 0.85038 0.31575 0.0
Cd74 Cd 0.39212 0.85383 0.31578 0.0
C75 C 0.38156 0.78775 0.32315 0.0
O76 O 0.39435 0.85762 0.26874 0.0
O77 O 0.35347 0.85932 0.28333 0.0
O78 O 0.4059 0.89663 0.33466 0.0
C79 C 0.36941 0.86018 0.26358 0.0
O80 O 0.38957 0.78551 0.2991 0.0
C81 C 0.38389 0.90022 0.34712 0.0
O82 O 0.382 0.81026 0.33511 0.0
O83 O 0.36595 0.88151 0.34603 0.0
C84 C 0.39843 0.09862 0.6311 0.0
O85 O 0.38224 0.09878 0.65068 0.0
Cd86 Cd 0.33957 0.12065 0.64452 0.0
O87 O 0.39049 0.10659 0.6083 0.0
Cd88 Cd 0.34938 0.12305 0.58662 0.0
C89 C 0.36291 0.17981 0.61802 0.0
O90 O 0.30969 0.10337 0.6092 0.0
O91 O 0.30514 0.14178 0.58993 0.0
O92 O 0.34807 0.09053 0.55077 0.0
C93 C 0.29401 0.12111 0.60002 0.0
O94 O 0.35351 0.16758 0.63836 0.0
C95 C 0.3506 0.10763 0.53222 0.0
O96 O 0.36485 0.16796 0.59567 0.0
O97 O 0.35373 0.13195 0.53914 0.0
C98 C -0.00404 0.12149 0.81163 0.0
O99 O -0.00344 0.13523 0.79034 0.0
Cd100 Cd 0.03671 0.14655 0.7662 0.0
O101 O 0.01765 0.11221 0.82182 0.0
Cd102 Cd 0.06655 0.11034 0.81088 0.0
C103 C 0.0768 0.17626 0.81597 0.0
O104 O 0.05719 0.10452 0.76359 0.0
O105 O 0.09962 0.10955 0.77402 0.0
O106 O 0.0612 0.06615 0.82955 0.0
C107 C 0.08164 0.1053 0.75603 0.0
O108 O 0.06452 0.17747 0.79344 0.0
C109 C 0.08477 0.06559 0.84018 0.0
O110 O 0.07858 0.15431 0.8285 0.0
O111 O 0.09984 0.08644 0.83799 0.0
C112 C 0.21615 0.41526 0.08788 0.0
O113 O 0.21442 0.43528 0.07247 0.0
Cd114 Cd 0.17284 0.4582 0.06464 0.0
O115 O 0.19547 0.40652 0.10064 0.0
Cd116 Cd 0.1474 0.41805 0.1076 0.0
C117 C 0.13009 0.40621 0.04379 0.0
O118 O 0.15715 0.46582 0.1087 0.0
O119 O 0.11454 0.45444 0.10891 0.0
O120 O 0.15637 0.40342 0.15286 0.0
C121 C 0.13267 0.47288 0.1103 0.0
O122 O 0.14198 0.42852 0.03876 0.0
C123 C 0.13367 0.39107 0.15558 0.0
O124 O 0.13081 0.39629 0.06711 0.0
O125 O 0.11735 0.39095 0.1357 0.0
C126 C 0.68996 0.0685 0.89625 0.0
O127 O 0.68273 0.04573 0.90523 0.0
Cd128 Cd 0.63956 0.0248 0.89657 0.0
O129 O 0.6745 0.0815 0.8806 0.0
Cd130 Cd 0.62964 0.07564 0.85809 0.0
C131 C 0.60006 0.07655 0.91809 0.0
O132 O 0.63655 0.02959 0.84962 0.0
O133 O 0.59555 0.04168 0.84166 0.0
O134 O 0.64982 0.09646 0.81895 0.0
C135 C 0.61312 0.02357 0.84057 0.0
O136 O 0.60801 0.05268 0.92093 0.0
C137 C 0.62888 0.10977 0.81314 0.0
O138 O 0.60637 0.09013 0.89755 0.0
O139 O 0.60914 0.10849 0.82934 0.0
C140 C 0.78309 0.88395 0.38609 0.0
O141 O 0.78748 0.90548 0.39918 0.0
Cd142 Cd 0.83086 0.92698 0.40367 0.0
O143 O 0.80205 0.87248 0.37349 0.0
Cd144 Cd 0.85078 0.87777 0.3619 0.0
C145 C 0.86662 0.87201 0.42691 0.0
O146 O 0.84266 0.9237 0.35864 0.0
O147 O 0.88454 0.91485 0.35166 0.0
O148 O 0.83186 0.85744 0.32181 0.0
C149 C 0.8662 0.93221 0.35298 0.0
O150 O 0.85684 0.8952 0.42971 0.0
C151 C 0.85391 0.84737 0.31407 0.0
O152 O 0.86592 0.85983 0.4045 0.0
O153 O 0.87464 0.85035 0.32937 0.0
C154 C 0.7909 -0.01231 0.12212 0.0
O155 O 0.76828 -0.00794 0.13331 0.0
Cd156 Cd 0.74682 0.03396 0.13795 0.0
O157 O 0.80484 0.00667 0.11149 0.0
Cd158 Cd 0.80025 0.05566 0.10415 0.0
C159 C 0.79888 0.06831 0.17063 0.0
O160 O 0.75221 0.05139 0.09435 0.0
O161 O 0.76756 0.09182 0.09645 0.0
O162 O 0.82538 0.05087 0.0627 0.0
C163 C 0.74744 0.07595 0.09241 0.0
O164 O 0.77455 0.05879 0.17109 0.0
C165 C 0.83911 0.0726 0.06553 0.0
O166 O 0.81275 0.0679 0.14931 0.0
O167 O 0.83547 0.08586 0.08681 0.0
C168 C 0.29495 0.48651 0.61646 0.0
O169 O 0.2725 0.49024 0.62821 0.0
Cd170 Cd 0.25127 0.53213 0.63412 0.0
O171 O 0.30845 0.50597 0.60621 0.0
Cd172 Cd 0.30294 0.55491 0.60053 0.0
C173 C 0.30309 0.566 0.66719 0.0
O174 O 0.25485 0.55004 0.5903 0.0
O175 O 0.26952 0.59065 0.59364 0.0
O176 O 0.32856 0.55178 0.55921 0.0
C177 C 0.24978 0.57456 0.58864 0.0
O178 O 0.2788 0.55643 0.66797 0.0
C179 C 0.34215 0.57345 0.56305 0.0
O180 O 0.31638 0.56609 0.64556 0.0
O181 O 0.33797 0.58598 0.58466 0.0
C182 C 0.14278 0.52462 0.34021 0.0
O183 O 0.1669 0.52934 0.33217 0.0
Cd184 Cd 0.19042 0.57124 0.33559 0.0
O185 O 0.12891 0.5428 0.35123 0.0
Cd186 Cd 0.13599 0.59019 0.36496 0.0
C187 C 0.1451 0.61028 0.30153 0.0
O188 O 0.18071 0.58101 0.3809 0.0
O189 O 0.1713 0.6226 0.38234 0.0
O190 O 0.10695 0.57796 0.40193 0.0
C191 C 0.18774 0.60433 0.38812 0.0
O192 O 0.16867 0.60023 0.30285 0.0
C193 C 0.09652 0.60081 0.40416 0.0
O194 O 0.12863 0.6081 0.32089 0.0
O195 O 0.1029 0.61811 0.38667 0.0
C196 C 0.27745 0.38822 0.88623 0.0
O197 O 0.28312 0.41057 0.89736 0.0
Cd198 Cd 0.32703 0.43121 0.89858 0.0
O199 O 0.29533 0.37533 0.87346 0.0
Cd200 Cd 0.34347 0.37974 0.85921 0.0
C201 C 0.36193 0.37661 0.92361 0.0
O202 O 0.33784 0.4259 0.8535 0.0
O203 O 0.37946 0.41453 0.84926 0.0
O204 O 0.32521 0.36045 0.81819 0.0
C205 C 0.36207 0.43282 0.84852 0.0
O206 O 0.35333 0.40037 0.92549 0.0
C207 C 0.34698 0.34894 0.81179 0.0
O208 O 0.35952 0.36321 0.90198 0.0
O209 O 0.36669 0.35022 0.82849 0.0
C210 C 0.81657 0.85768 0.59543 0.0
O211 O 0.83874 0.87034 0.60075 0.0
Cd212 Cd 0.88355 0.85249 0.59751 0.0
O213 O 0.81645 0.83293 0.58936 0.0
Cd214 Cd 0.84876 0.79643 0.58399 0.0
C215 C 0.87447 0.83072 0.53187 0.0
O216 O 0.88421 0.80905 0.6154 0.0
O217 O 0.89555 0.78155 0.5844 0.0
O218 O 0.82336 0.76822 0.61417 0.0
C219 C 0.90257 0.79515 0.60488 0.0
O220 O 0.88591 0.84579 0.54953 0.0
C221 C 0.8214 0.74821 0.59852 0.0
O222 O 0.85804 0.81169 0.53842 0.0
O223 O 0.83023 0.75145 0.57487 0.0
C224 C 0.86264 0.14727 0.36571 0.0
O225 O 0.87024 0.13338 0.38548 0.0
Cd226 Cd 0.89089 0.0906 0.3788 0.0
O227 O 0.86494 0.13835 0.34206 0.0
Cd228 Cd 0.88045 0.0985 0.31933 0.0
C229 C 0.94417 0.10879 0.3385 0.0
O230 O 0.86594 0.06198 0.34842 0.0
O231 O 0.89848 0.05402 0.32075 0.0
O232 O 0.83984 0.09663 0.29148 0.0
C233 C 0.88114 0.0451 0.33727 0.0
O234 O 0.93614 0.09842 0.36035 0.0
C235 C 0.85251 0.09755 0.26951 0.0
O236 O 0.92733 0.11454 0.32004 0.0
O237 O 0.87834 0.09989 0.27078 0.0
C238 C 0.63729 0.11313 0.08695 0.0
O239 O 0.61735 0.09807 0.09371 0.0
Cd240 Cd 0.57084 0.11016 0.08569 0.0
O241 O 0.63325 0.13622 0.07742 0.0
Cd242 Cd 0.59666 0.16684 0.06702 0.0
C243 C 0.5776 0.12383 0.01842 0.0
O244 O 0.56418 0.15468 0.10091 0.0
O245 O 0.54835 0.17699 0.06752 0.0
O246 O 0.6224 0.19916 0.09309 0.0
C247 C 0.54411 0.16603 0.08996 0.0
O248 O 0.56807 0.1092 0.03708 0.0
C249 C 0.62227 0.21752 0.07568 0.0
O250 O 0.59048 0.14572 0.02361 0.0
O251 O 0.611 0.21188 0.05323 0.0
C252 C 0.61301 0.81592 0.83909 0.0
O253 O 0.61292 0.83137 0.85927 0.0
Cd254 Cd 0.58872 0.87217 0.85854 0.0
O255 O 0.6015 0.82261 0.81726 0.0
Cd256 Cd 0.57828 0.86058 0.79671 0.0
C257 C 0.525 0.84962 0.83618 0.0
O258 O 0.60311 0.89596 0.81977 0.0
O259 O 0.56612 0.9074 0.79938 0.0
O260 O 0.6099 0.85584 0.76087 0.0
C261 C 0.5876 0.91439 0.81214 0.0
O262 O 0.54067 0.85855 0.85482 0.0
C263 C 0.59241 0.8568 0.74208 0.0
O264 O 0.53352 0.84701 0.81238 0.0
O265 O 0.56753 0.85818 0.74872 0.0
C266 C 0.89134 0.10727 0.86015 0.0
O267 O 0.87044 0.10066 0.84623 0.0
Cd268 Cd 0.82565 0.11212 0.85899 0.0
O269 O 0.88896 0.1176 0.8833 0.0
Cd270 Cd 0.85297 0.12936 0.91495 0.0
C271 C 0.84302 0.17888 0.87201 0.0
O272 O 0.8178 0.09709 0.90308 0.0
O273 O 0.80413 0.13348 0.92155 0.0
O274 O 0.87325 0.10034 0.94723 0.0
C275 C 0.7986 0.10989 0.91347 0.0
O276 O 0.83121 0.1606 0.85798 0.0
C277 C 0.8716 0.11625 0.96694 0.0
O278 O 0.8542 0.17352 0.89444 0.0
O279 O 0.86377 0.1398 0.9619 0.0
C280 C 0.61643 0.08552 0.62413 0.0
O281 O 0.63555 0.10307 0.62319 0.0
Cd282 Cd 0.63021 0.14829 0.63909 0.0
O283 O 0.59316 0.09151 0.63296 0.0
Cd284 Cd 0.56843 0.12945 0.65055 0.0
C285 C 0.61156 0.13614 0.70361 0.0
O286 O 0.58744 0.16476 0.62254 0.0
O287 O 0.56333 0.17706 0.65621 0.0
O288 O 0.52854 0.11419 0.62525 0.0
C289 C 0.57706 0.18358 0.63582 0.0
O290 O 0.62994 0.14513 0.68799 0.0
C291 C 0.51342 0.11087 0.64548 0.0
O292 O 0.58845 0.12794 0.69466 0.0
O293 O 0.52384 0.11666 0.6682 0.0
C294 C 0.57403 0.85123 0.33091 0.0
O295 O 0.5927 0.85467 0.31382 0.0
Cd296 Cd 0.6368 0.83797 0.32365 0.0
O297 O 0.57953 0.84235 0.35406 0.0
Cd298 Cd 0.61825 0.82988 0.38204 0.0
C299 C 0.61424 0.77531 0.34502 0.0
O300 O 0.65504 0.85686 0.36412 0.0
O301 O 0.66644 0.8205 0.38447 0.0
O302 O 0.60505 0.86518 0.4111 0.0
C303 C 0.67349 0.84298 0.3748 0.0
O304 O 0.62529 0.7906 0.3277 0.0
C305 C 0.6071 0.85221 0.43272 0.0
O306 O 0.6082 0.78414 0.36808 0.0
O307 O 0.61233 0.82747 0.43077 0.0
C308 C 0.83166 0.8809 0.13003 0.0
O309 O 0.81514 0.86106 0.13243 0.0
Cd310 Cd 0.82611 0.81522 0.14169 0.0
O311 O 0.85729 0.87813 0.13278 0.0
Cd312 Cd 0.88993 0.84302 0.14316 0.0
C313 C 0.85829 0.82569 0.20207 0.0
O314 O 0.86663 0.8093 0.11706 0.0
O315 O 0.90452 0.79702 0.13453 0.0
O316 O 0.92463 0.8654 0.11639 0.0
C317 C 0.88312 0.79071 0.12136 0.0
O318 O 0.83783 0.81584 0.1892 0.0
C319 C 0.94193 0.86731 0.13548 0.0
O320 O 0.87821 0.83691 0.19 0.0
O321 O 0.93457 0.85848 0.15813 0.0
C322 C 0.87578 0.57752 0.8304 0.0
O323 O 0.89373 0.57612 0.84879 0.0
Cd324 Cd 0.88486 0.55846 0.89214 0.0
O325 O 0.85114 0.57027 0.83465 0.0
Cd326 Cd 0.8228 0.55311 0.87155 0.0
C327 C 0.85893 0.49673 0.87269 0.0
O328 O 0.84451 0.57957 0.90675 0.0
O329 O 0.8178 0.54738 0.91975 0.0
O330 O 0.78775 0.58319 0.85684 0.0
C331 C 0.83273 0.56759 0.92581 0.0
O332 O 0.87808 0.51058 0.88377 0.0
C333 C 0.76868 0.56561 0.85575 0.0
O334 O 0.83694 0.5075 0.86513 0.0
O335 O 0.77486 0.54184 0.86172 0.0
C336 C 0.35231 0.85476 0.04996 0.0
O337 O 0.35129 0.83376 0.06407 0.0
Cd338 Cd 0.33223 0.83376 0.1079 0.0
O339 O 0.34512 0.87701 0.05962 0.0
Cd340 Cd 0.32947 0.89557 0.102 0.0
C341 C 0.27062 0.86226 0.09351 0.0
O342 O 0.35245 0.86853 0.13503 0.0
O343 O 0.31723 0.89003 0.14837 0.0
O344 O 0.36524 0.9294 0.1001 0.0
C345 C 0.33771 0.87616 0.15422 0.0
O346 O 0.28409 0.84184 0.10017 0.0
C347 C 0.34964 0.94915 0.10184 0.0
O348 O 0.28229 0.8851 0.09113 0.0
O349 O 0.32415 0.94402 0.10267 0.0
C350 C 0.09984 0.11669 0.53751 0.0
O351 O 0.09976 0.13818 0.55102 0.0
Cd352 Cd 0.1141 0.13698 0.59749 0.0
O353 O 0.1058 0.09489 0.54872 0.0
Cd354 Cd 0.11733 0.07737 0.59247 0.0
C355 C 0.17715 0.10938 0.59335 0.0
O356 O 0.09253 0.10358 0.62557 0.0
O357 O 0.12854 0.08262 0.63865 0.0
O358 O 0.08143 0.04366 0.58928 0.0
C359 C 0.10755 0.09551 0.64471 0.0
O360 O 0.16296 0.12981 0.59807 0.0
C361 C 0.09708 0.02388 0.58976 0.0
O362 O 0.16577 0.08677 0.58826 0.0
O363 O 0.12259 0.02898 0.59094 0.0
C364 C 0.11322 0.86164 0.90087 0.0
O365 O 0.11347 0.84162 0.88522 0.0
Cd366 Cd 0.12907 0.84633 0.84023 0.0
O367 O 0.12089 0.88465 0.89278 0.0
Cd368 Cd 0.13647 0.90694 0.85193 0.0
C369 C 0.19391 0.87269 0.84934 0.0
O370 O 0.10583 0.88347 0.82117 0.0
O371 O 0.1391 0.9059 0.80321 0.0
O372 O 0.10566 0.9419 0.86345 0.0
C373 C 0.11673 0.89296 0.8003 0.0
O374 O 0.17861 0.85303 0.84194 0.0
C375 C 0.12279 0.96109 0.86098 0.0
O376 O 0.18374 0.89481 0.85609 0.0
O377 O 0.14701 0.95506 0.85508 0.0
C378 C 0.61955 0.36225 0.40509 0.0
O379 O 0.61823 0.34199 0.38976 0.0
Cd380 Cd 0.63041 0.34568 0.34351 0.0
O381 O 0.62658 0.38504 0.39594 0.0
Cd382 Cd 0.63841 0.4062 0.35334 0.0
C383 C 0.69565 0.37213 0.34717 0.0
O384 O 0.60682 0.38216 0.32346 0.0
O385 O 0.6402 0.40401 0.30493 0.0
O386 O 0.60697 0.44069 0.36452 0.0
C387 C 0.61775 0.39117 0.30234 0.0
O388 O 0.67983 0.35232 0.34144 0.0
C389 C 0.62359 0.46021 0.36152 0.0
O390 O 0.68606 0.39444 0.35428 0.0
O391 O 0.64792 0.45464 0.35551 0.0
C392 C 0.87255 0.36742 0.64082 0.0
O393 O 0.8939 0.36536 0.62691 0.0
Cd394 Cd 0.8975 0.38719 0.58443 0.0
O395 O 0.85191 0.37912 0.63141 0.0
Cd396 Cd 0.83671 0.39967 0.58993 0.0
C397 C 0.88 0.45062 0.60263 0.0
O398 O 0.85964 0.3738 0.55615 0.0
O399 O 0.84368 0.41191 0.54379 0.0
O400 O 0.79761 0.37028 0.59167 0.0
C401 C 0.85395 0.3898 0.53737 0.0
O402 O 0.89854 0.43495 0.59514 0.0
C403 C 0.78001 0.3884 0.59206 0.0
O404 O 0.85525 0.44255 0.60383 0.0
O405 O 0.7888 0.41252 0.59158 0.0
C406 C 0.59713 0.61863 0.03507 0.0
O407 O 0.59697 0.63957 0.04942 0.0
Cd408 Cd 0.60964 0.63733 0.09615 0.0
O409 O 0.60219 0.59624 0.04554 0.0
Cd410 Cd 0.61226 0.57805 0.08937 0.0
C411 C 0.67229 0.60956 0.09138 0.0
O412 O 0.58755 0.60338 0.12318 0.0
O413 O 0.62415 0.58289 0.13538 0.0
O414 O 0.57698 0.54357 0.08643 0.0
C415 C 0.60286 0.59502 0.14197 0.0
O416 O 0.65846 0.63005 0.09683 0.0
C417 C 0.59321 0.52423 0.08688 0.0
O418 O 0.66059 0.58728 0.0856 0.0
O419 O 0.61858 0.53001 0.08759 0.0
C420 C 0.65733 0.59783 0.84792 0.0
O421 O 0.63764 0.58091 0.84897 0.0
Cd422 Cd 0.59099 0.59203 0.8585 0.0
O423 O 0.65329 0.62258 0.85161 0.0
Cd424 Cd 0.61543 0.65164 0.86189 0.0
C425 C 0.60012 0.62094 0.92014 0.0
O426 O 0.57779 0.63166 0.83537 0.0
O427 O 0.56805 0.66017 0.86618 0.0
O428 O 0.62812 0.68893 0.83321 0.0
C429 C 0.55982 0.64506 0.84726 0.0
O430 O 0.58973 0.60168 0.90639 0.0
C431 C 0.63212 0.70523 0.85251 0.0
O432 O 0.61253 0.64043 0.90891 0.0
O433 O 0.62994 0.69596 0.87599 0.0
C434 C 0.56663 0.37804 0.19911 0.0
O435 O 0.54201 0.38505 0.19654 0.0
Cd436 Cd 0.51503 0.38196 0.15685 0.0
O437 O 0.57956 0.368 0.1796 0.0
Cd438 Cd 0.56971 0.35505 0.13246 0.0
C439 C 0.55673 0.41876 0.11533 0.0
O440 O 0.5257 0.33767 0.14464 0.0
O441 O 0.53339 0.33582 0.10257 0.0
O442 O 0.60144 0.31912 0.13851 0.0
C443 C 0.5176 0.33029 0.12174 0.0
O444 O 0.53405 0.41646 0.12738 0.0
C445 C 0.61052 0.3202 0.11482 0.0
O446 O 0.57353 0.39984 0.11541 0.0
O447 O 0.60205 0.33892 0.10011 0.0
C448 C 0.8118 0.35878 0.35029 0.0
O449 O 0.82867 0.37812 0.34711 0.0
Cd450 Cd 0.8758 0.3762 0.36112 0.0
O451 O 0.8196 0.33676 0.35994 0.0
Cd452 Cd 0.861 0.31618 0.37665 0.0
C453 C 0.8641 0.3611 0.42667 0.0
O454 O 0.89703 0.33523 0.34832 0.0
O455 O 0.90885 0.3172 0.38583 0.0
O456 O 0.85053 0.27415 0.3541 0.0
C457 C 0.91598 0.32813 0.36413 0.0
O458 O 0.8729 0.37811 0.40976 0.0
C459 C 0.85059 0.26022 0.37529 0.0
O460 O 0.85665 0.33758 0.41952 0.0
O461 O 0.85491 0.27254 0.39723 0.0
C462 C 0.90851 0.60194 0.72285 0.0
O463 O 0.93292 0.59672 0.71676 0.0
Cd464 Cd 0.95356 0.5991 0.67398 0.0
O465 O 0.8915 0.60984 0.70524 0.0
Cd466 Cd 0.8918 0.62026 0.65668 0.0
C467 C 0.90824 0.55664 0.64086 0.0
O468 O 0.93669 0.6402 0.65898 0.0
O469 O 0.91993 0.6374 0.61932 0.0
O470 O 0.85989 0.65569 0.66465 0.0
C471 C 0.93966 0.64466 0.63438 0.0
O472 O 0.93251 0.56172 0.64907 0.0
C473 C 0.84587 0.65121 0.6435 0.0
O474 O 0.88971 0.57388 0.64287 0.0
O475 O 0.85203 0.63096 0.62964 0.0
C476 C 0.56223 0.37563 0.61734 0.0
O477 O 0.57873 0.37692 0.63703 0.0
Cd478 Cd 0.62274 0.35765 0.63435 0.0
O479 O 0.56965 0.36587 0.59511 0.0
Cd480 Cd 0.61079 0.34739 0.57521 0.0
C481 C 0.60402 0.29408 0.61471 0.0
O482 O 0.64715 0.3748 0.59618 0.0
O483 O 0.65838 0.33695 0.57901 0.0
O484 O 0.60605 0.37259 0.53399 0.0
C485 C 0.66582 0.35946 0.58864 0.0
O486 O 0.61308 0.30925 0.63347 0.0
C487 C 0.60566 0.35218 0.51881 0.0
O488 O 0.60012 0.30315 0.59135 0.0
O489 O 0.60669 0.32953 0.53003 0.0
C490 C 0.95909 0.32591 0.80844 0.0
O491 O 0.95664 0.30914 0.78934 0.0
Cd492 Cd 0.9152 0.29764 0.76673 0.0
O493 O 0.93853 0.33782 0.81777 0.0
Cd494 Cd 0.88887 0.34145 0.80926 0.0
C495 C 0.87511 0.27609 0.81969 0.0
O496 O 0.90056 0.34183 0.76354 0.0
O497 O 0.85778 0.34685 0.76935 0.0
O498 O 0.90144 0.38429 0.82882 0.0
C499 C 0.87748 0.34544 0.75325 0.0
O500 O 0.88702 0.27175 0.79764 0.0
C501 C 0.87787 0.3895 0.83724 0.0
O502 O 0.87426 0.29945 0.82971 0.0
O503 O 0.85912 0.37196 0.83312 0.0
C504 C 0.88948 0.59718 0.13805 0.0
O505 O 0.87313 0.60394 0.15621 0.0
Cd506 Cd 0.82978 0.62337 0.14522 0.0
O507 O 0.8831 0.60031 0.11362 0.0
Cd508 Cd 0.84546 0.61895 0.08858 0.0
C509 C 0.85416 0.67923 0.11516 0.0
O510 O 0.80394 0.60168 0.10975 0.0
O511 O 0.8012 0.63835 0.08705 0.0
O512 O 0.84482 0.58438 0.05454 0.0
C513 C 0.78914 0.61866 0.09806 0.0
O514 O 0.83911 0.6701 0.13375 0.0
C515 C 0.84922 0.60026 0.03526 0.0
O516 O 0.86295 0.66398 0.09697 0.0
O517 O 0.85328 0.62478 0.04102 0.0
C518 C 0.49182 0.61675 0.30895 0.0
O519 O 0.492 0.62916 0.28685 0.0
Cd520 Cd 0.53138 0.64017 0.26149 0.0
O521 O 0.51377 0.60846 0.31956 0.0
Cd522 Cd 0.56271 0.60649 0.30844 0.0
C523 C 0.57146 0.6729 0.30975 0.0
O524 O 0.55327 0.59894 0.26154 0.0
O525 O 0.59565 0.60507 0.27152 0.0
O526 O 0.55867 0.56277 0.32853 0.0
C527 C 0.57762 0.6002 0.25374 0.0
O528 O 0.55874 0.67263 0.28739 0.0
C529 C 0.58231 0.56318 0.33911 0.0
O530 O 0.57405 0.6517 0.3234 0.0
O531 O 0.59671 0.5844 0.33635 0.0
C532 C 0.71666 0.91364 0.57901 0.0
O533 O 0.71696 0.93403 0.56397 0.0
Cd534 Cd 0.67702 0.95896 0.55432 0.0
O535 O 0.69473 0.90562 0.59015 0.0
Cd536 Cd 0.64686 0.91933 0.5939 0.0
C537 C 0.63397 0.90971 0.52869 0.0
O538 O 0.65961 0.96645 0.59798 0.0
O539 O 0.61643 0.95775 0.59598 0.0
O540 O 0.65245 0.90088 0.63811 0.0
C541 C 0.6356 0.97492 0.59931 0.0
O542 O 0.64726 0.93153 0.52492 0.0
C543 C 0.62874 0.89026 0.63921 0.0
O544 O 0.63223 0.89962 0.55186 0.0
O545 O 0.61323 0.89307 0.61899 0.0
C546 C 0.31899 0.36301 0.09661 0.0
O547 O 0.34116 0.3761 0.10066 0.0
Cd548 Cd 0.38566 0.35814 0.09465 0.0
O549 O 0.31904 0.33838 0.09021 0.0
Cd550 Cd 0.35136 0.30262 0.0822 0.0
C551 C 0.37418 0.33741 0.02928 0.0
O552 O 0.38775 0.31465 0.11293 0.0
O553 O 0.39813 0.28788 0.08088 0.0
O554 O 0.32702 0.27359 0.11241 0.0
C555 C 0.40563 0.30064 0.10174 0.0
O556 O 0.38637 0.35248 0.04645 0.0
C557 C 0.32418 0.25417 0.09614 0.0
O558 O 0.35829 0.31825 0.03651 0.0
O559 O 0.33231 0.25806 0.07235 0.0
C560 C 0.36161 0.64556 0.86006 0.0
O561 O 0.36545 0.63121 0.88054 0.0
Cd562 Cd 0.3909 0.59137 0.87658 0.0
O563 O 0.36849 0.63733 0.83706 0.0
Cd564 Cd 0.38618 0.5974 0.81521 0.0
C565 C 0.44641 0.61468 0.84037 0.0
O566 O 0.37004 0.56203 0.84416 0.0
O567 O 0.40385 0.5527 0.81847 0.0
O568 O 0.34595 0.59551 0.78717 0.0
C569 C 0.38553 0.54461 0.8344 0.0
O570 O 0.43585 0.60714 0.86234 0.0
C571 C 0.35859 0.59545 0.7652 0.0
O572 O 0.43268 0.61416 0.81867 0.0
O573 O 0.38447 0.59736 0.7664 0.0
C574 C 0.13922 0.61017 0.57871 0.0
O575 O 0.11928 0.59412 0.58291 0.0
Cd576 Cd 0.07255 0.60657 0.57663 0.0
O577 O 0.13509 0.63425 0.57214 0.0
Cd578 Cd 0.09731 0.66442 0.56471 0.0
C579 C 0.07616 0.62778 0.51157 0.0
O580 O 0.06556 0.64865 0.59825 0.0
O581 O 0.04926 0.67403 0.56733 0.0
O582 O 0.12122 0.69669 0.59275 0.0
C583 C 0.04564 0.66165 0.5891 0.0
O584 O 0.0673 0.61058 0.52826 0.0
C585 C 0.12086 0.71559 0.57594 0.0
O586 O 0.08931 0.64871 0.51937 0.0
O587 O 0.11053 0.71027 0.55303 0.0
C588 C 0.11344 0.31439 0.35823 0.0
O589 O 0.11213 0.32893 0.37899 0.0
Cd590 Cd 0.09254 0.37215 0.37629 0.0
O591 O 0.10544 0.3231 0.33568 0.0
Cd592 Cd 0.08721 0.36405 0.3161 0.0
C593 C 0.02949 0.35576 0.34944 0.0
O594 O 0.11394 0.39729 0.341 0.0
O595 O 0.07781 0.41144 0.32088 0.0
O596 O 0.11936 0.36028 0.28008 0.0
C597 C 0.10023 0.41683 0.33277 0.0
O598 O 0.04369 0.36351 0.36962 0.0
C599 C 0.10179 0.36163 0.26138 0.0
O600 O 0.04042 0.35281 0.32674 0.0
O601 O 0.07698 0.36304 0.26817 0.0
C602 C 0.38856 0.61175 0.36093 0.0
O603 O 0.36665 0.60705 0.34781 0.0
Cd604 Cd 0.3244 0.6245 0.36163 0.0
O605 O 0.3881 0.62294 0.38384 0.0
Cd606 Cd 0.35577 0.639 0.41729 0.0
C607 C 0.35055 0.68906 0.3744 0.0
O608 O 0.31664 0.61171 0.40629 0.0
O609 O 0.30801 0.64858 0.42667 0.0
O610 O 0.37467 0.60677 0.44691 0.0
C611 C 0.29925 0.62641 0.41719 0.0
O612 O 0.33661 0.67194 0.36074 0.0
C613 C 0.37567 0.62177 0.46741 0.0
O614 O 0.36145 0.68285 0.39674 0.0
O615 O 0.36991 0.64622 0.464 0.0
C616 C 0.10708 0.58399 0.12276 0.0
O617 O 0.12515 0.60223 0.11897 0.0
Cd618 Cd 0.12071 0.64887 0.13049 0.0
O619 O 0.08407 0.58947 0.13268 0.0
Cd620 Cd 0.05745 0.6266 0.14953 0.0
C621 C 0.10707 0.6386 0.19712 0.0
O622 O 0.07505 0.65809 0.11802 0.0
O623 O 0.04487 0.67358 0.14454 0.0
O624 O 0.01827 0.60308 0.13035 0.0
C625 C 0.06197 0.67797 0.12619 0.0
O626 O 0.12341 0.64696 0.17918 0.0
C627 C 0.00395 0.60412 0.15135 0.0
O628 O 0.08309 0.62996 0.19121 0.0
O629 O 0.01479 0.61544 0.17178 0.0
C630 C 0.06805 0.34829 0.84568 0.0
O631 O 0.08702 0.35451 0.82964 0.0
Cd632 Cd 0.13274 0.34245 0.83917 0.0
O633 O 0.07347 0.3392 0.86879 0.0
Cd634 Cd 0.11303 0.33018 0.89748 0.0
C635 C 0.11526 0.27739 0.85796 0.0
O636 O 0.1479 0.36036 0.88086 0.0
O637 O 0.16185 0.3242 0.89981 0.0
O638 O 0.09644 0.36266 0.92798 0.0
C639 C 0.16745 0.3472 0.8905 0.0
O640 O 0.12554 0.29425 0.84166 0.0
C641 C 0.10008 0.34907 0.94901 0.0
O642 O 0.10756 0.28464 0.88109 0.0
O643 O 0.10756 0.32506 0.94596 0.0
C644 C 0.33802 0.38092 0.62378 0.0
O645 O 0.32232 0.36036 0.62412 0.0
Cd646 Cd 0.33599 0.31629 0.63672 0.0
O647 O 0.36316 0.37928 0.62988 0.0
Cd648 Cd 0.39564 0.34547 0.64381 0.0
C649 C 0.36001 0.33068 0.69991 0.0
O650 O 0.37919 0.3081 0.61681 0.0
O651 O 0.40787 0.29919 0.64834 0.0
O652 O 0.4317 0.36338 0.6157 0.0
C653 C 0.39309 0.29084 0.62899 0.0
O654 O 0.34193 0.31894 0.68528 0.0
C655 C 0.44807 0.36871 0.63496 0.0
O656 O 0.3804 0.34297 0.6897 0.0
O657 O 0.43968 0.36376 0.65841 0.0
C658 C 0.3741 0.08513 0.32449 0.0
O659 O 0.39239 0.08629 0.34266 0.0
Cd660 Cd 0.38508 0.07268 0.388 0.0
O661 O 0.34989 0.07739 0.32983 0.0
Cd662 Cd 0.3232 0.06253 0.36841 0.0
C663 C 0.36232 0.00845 0.37506 0.0
O664 O 0.34343 0.09124 0.40292 0.0
O665 O 0.31851 0.05768 0.41612 0.0
O666 O 0.28604 0.09011 0.35388 0.0
C667 C 0.3324 0.0786 0.42207 0.0
O668 O 0.38088 0.02407 0.38468 0.0
C669 C 0.26831 0.07122 0.35291 0.0
O670 O 0.33989 0.01745 0.3663 0.0
O671 O 0.27631 0.04797 0.35874 0.0
C672 C 0.12727 0.2715 0.33732 0.0
C673 C 0.12151 0.28629 0.36045 0.0
H674 H 0.13303 0.23282 0.32028 0.0
C675 C 0.12053 0.27322 0.38523 0.0
H676 H 0.12846 0.28111 0.31798 0.0
C677 C 0.12293 0.24552 0.38651 0.0
C678 C 0.12668 0.23051 0.36308 0.0
H679 H 0.11624 0.28411 0.40341 0.0
H680 H 0.12051 0.23575 0.40565 0.0
C681 C 0.13001 0.24386 0.33865 0.0
C682 C 0.96628 0.82265 0.63864 0.0
C683 C -0.01433 0.81951 0.61844 0.0
H684 H 0.92458 0.81731 0.6501 0.0
C685 C 0.97806 0.80619 0.59469 0.0
H686 H 0.97164 0.83278 0.65721 0.0
C687 C 0.95125 0.79685 0.59088 0.0
C688 C 0.93156 0.80116 0.61057 0.0
H689 H -0.00729 0.80333 0.57894 0.0
H690 H 0.94573 0.78729 0.57205 0.0
C691 C 0.93938 0.81377 0.63463 0.0
C692 C 0.34607 0.71701 0.84349 0.0
C693 C 0.34587 0.7286 0.86909 0.0
H694 H 0.35086 0.68139 0.82053 0.0
C695 C 0.34659 0.712 0.89166 0.0
H696 H 0.34526 0.72929 0.82572 0.0
C697 C 0.34978 0.68453 0.88872 0.0
C698 C 0.35237 0.67323 0.86314 0.0
H699 H 0.34615 0.72036 0.91166 0.0
H700 H 0.35178 0.67246 0.90653 0.0
C701 C 0.3493 0.68955 0.84054 0.0
C702 C 0.4674 0.15802 0.09214 0.0
C703 C 0.46367 0.1487 0.1183 0.0
H704 H 0.496 0.17139 0.06272 0.0
C705 C 0.48635 0.14692 0.13555 0.0
H706 H 0.45021 0.15973 0.07852 0.0
C707 C 0.51245 0.15327 0.12649 0.0
C708 C 0.51632 0.16192 0.10014 0.0
H709 H 0.48409 0.13985 0.15587 0.0
H710 H 0.52965 0.15099 0.13999 0.0
C711 C 0.49354 0.1648 0.08318 0.0
C712 C 0.04976 0.72357 0.1117 0.0
C713 C 0.06979 0.70538 0.11894 0.0
H714 H 0.0413 0.76401 0.10101 0.0
C715 C 0.09711 0.71408 0.1213 0.0
H716 H 0.02855 0.71716 0.11 0.0
C717 C 0.10422 0.74093 0.11723 0.0
C718 C 0.08421 0.75912 0.10986 0.0
H719 H 0.11278 0.70036 0.12724 0.0
H720 H 0.12532 0.74746 0.11968 0.0
C721 C 0.05702 0.7502 0.10664 0.0
C722 C 0.49756 0.85249 0.33546 0.0
C723 C 0.48995 0.84585 0.30909 0.0
H724 H 0.53059 0.85958 0.3631 0.0
C725 C 0.51006 0.84444 0.28939 0.0
H726 H 0.48239 0.85391 0.35095 0.0
C727 C 0.53749 0.84838 0.29617 0.0
C728 C 0.54526 0.85322 0.32286 0.0
H729 H 0.50464 0.83981 0.2688 0.0
H730 H 0.55264 0.84605 0.28078 0.0
C731 C 0.52507 0.85585 0.34236 0.0
C732 C 0.3696 0.22517 0.59838 0.0
C733 C 0.37168 0.20798 0.6204 0.0
H734 H 0.37451 0.26527 0.58401 0.0
C735 C 0.38209 0.21794 0.6448 0.0
H736 H 0.3616 0.21787 0.57934 0.0
C737 C 0.39012 0.24475 0.6472 0.0
C738 C 0.3872 0.26214 0.62545 0.0
H739 H 0.38408 0.20503 0.66194 0.0
H740 H 0.39777 0.25202 0.66635 0.0
C741 C 0.37695 0.25218 0.60098 0.0
C742 C 0.94585 0.11373 0.80822 0.0
C743 C 0.96956 0.1155 0.82413 0.0
H744 H 0.90252 0.10877 0.80718 0.0
C745 C 0.96769 0.11182 0.85187 0.0
H746 H 0.94684 0.11612 0.78673 0.0
C747 C 0.94222 0.10795 0.86368 0.0
C748 C 0.91841 0.107 0.8478 0.0
H749 H -0.01424 0.11298 0.86451 0.0
H750 H 0.94109 0.10635 0.88524 0.0
C751 C 0.92054 0.1092 0.81991 0.0
C752 C 0.36778 0.09724 0.25009 0.0
C753 C 0.39511 0.09608 0.24224 0.0
H754 H 0.33963 0.09461 0.28245 0.0
C755 C 0.41554 0.09308 0.26184 0.0
H756 H 0.35164 0.09963 0.23541 0.0
C757 C 0.40876 0.09063 0.28871 0.0
C758 C 0.38136 0.09072 0.2965 0.0
H759 H 0.43684 0.09243 0.25642 0.0
H760 H 0.42495 0.0878 0.30325 0.0
C761 C 0.36094 0.09436 0.27699 0.0
C762 C 0.08866 0.0913 0.46709 0.0
C763 C 0.09311 0.11455 0.45197 0.0
H764 H 0.08702 0.07388 0.50593 0.0
C765 C 0.0973 0.13913 0.46537 0.0
H766 H 0.08515 0.07207 0.45748 0.0
C767 C 0.09814 0.1402 0.49334 0.0
C768 C 0.09505 0.11668 0.50832 0.0
H769 H 0.10055 0.15747 0.45429 0.0
H770 H 0.10231 0.15923 0.50314 0.0
C771 C 0.08972 0.09234 0.49492 0.0
C772 C 0.07546 0.88482 0.7721 0.0
C773 C 0.10377 0.88917 0.77395 0.0
H774 H 0.04083 0.87888 0.74631 0.0
C775 C 0.11929 0.89024 0.75054 0.0
H776 H 0.06305 0.88404 0.78989 0.0
C777 C 0.10663 0.88675 0.72558 0.0
C778 C 0.07823 0.88289 0.72376 0.0
H779 H 0.14119 0.89352 0.75155 0.0
H780 H 0.11894 0.88753 0.70772 0.0
C781 C 0.06275 0.88203 0.7472 0.0
C782 C 0.36217 0.82674 0.98076 0.0
C783 C 0.36525 0.85016 0.96556 0.0
H784 H 0.3562 0.80979 0.01945 0.0
C785 C 0.36664 0.87502 0.97867 0.0
H786 H 0.36138 0.80725 0.97123 0.0
C787 C 0.36352 0.87648 0.00636 0.0
C788 C 0.3593 0.85308 0.02141 0.0
H789 H 0.36914 0.89338 0.96748 0.0
H790 H 0.3637 0.89598 0.01586 0.0
C791 C 0.35938 0.82817 0.00842 0.0
C792 C 0.33407 0.87199 0.22954 0.0
C793 C 0.35989 0.86218 0.23575 0.0
H794 H 0.30676 0.88431 0.19852 0.0
C795 C 0.37752 0.85537 0.21498 0.0
H796 H 0.32014 0.87735 0.24524 0.0
C797 C 0.36986 0.85907 0.18843 0.0
C798 C 0.34455 0.86995 0.18215 0.0
H799 H 0.39749 0.84751 0.21923 0.0
H800 H 0.38413 0.85413 0.17289 0.0
C801 C 0.3265 0.87602 0.20287 0.0
C802 C 0.35406 0.11808 0.48355 0.0
C803 C 0.34786 0.09977 0.50394 0.0
H804 H 0.35413 0.12563 0.44141 0.0
C805 C 0.33723 0.07431 0.49716 0.0
H806 H 0.36226 0.13786 0.48827 0.0
C807 C 0.33218 0.06752 0.4705 0.0
C808 C 0.33804 0.08591 0.45011 0.0
H809 H 0.33213 0.05984 0.51247 0.0
H810 H 0.32364 0.04784 0.4659 0.0
C811 C 0.34937 0.11112 0.45679 0.0
C812 C 0.06808 0.10731 0.70784 0.0
C813 C 0.08845 0.10409 0.7275 0.0
H814 H 0.05829 0.10764 0.66596 0.0
C815 C 0.11528 0.09953 0.71966 0.0
H816 H 0.04723 0.11108 0.7134 0.0
C817 C 0.12149 0.09734 0.69263 0.0
C818 C 0.10106 0.10009 0.67296 0.0
H819 H 0.13135 0.09706 0.73441 0.0
H820 H 0.14229 0.09324 0.68714 0.0
C821 C 0.07439 0.10554 0.68074 0.0
C822 C 0.09688 0.87778 0.97268 0.0
C823 C 0.09315 0.85218 -0.01642 0.0
H824 H 0.10617 0.90084 0.938 0.0
C825 C 0.09377 0.82974 0.96662 0.0
H826 H 0.09643 0.89546 -0.01477 0.0
C827 C 0.09944 0.8328 0.93949 0.0
C828 C 0.10465 0.85834 0.92889 0.0
H829 H 0.09091 0.80974 0.97447 0.0
H830 H 0.10063 0.81509 0.92706 0.0
C831 C 0.10261 0.88084 0.94562 0.0
C832 C 0.26839 0.36262 0.1013 0.0
C833 C 0.29289 0.37692 0.09677 0.0
H834 H 0.22481 0.36372 0.10235 0.0
C835 C 0.29203 0.40413 0.09018 0.0
H836 H 0.26852 0.3416 0.10639 0.0
C837 C 0.26704 0.4166 0.08721 0.0
C838 C 0.24253 0.40221 0.0914 0.0
H839 H 0.31061 0.41556 0.08636 0.0
H840 H 0.26691 0.43749 0.08163 0.0
C841 C 0.24343 0.37525 0.09895 0.0
C842 C 0.72245 0.10705 0.9032 0.0
C843 C 0.71729 0.07933 0.90282 0.0
H844 H 0.75249 0.13858 0.90763 0.0
C845 C 0.73875 0.06188 0.9076 0.0
H846 H 0.70614 0.12086 0.89969 0.0
C847 C 0.7652 0.07195 0.91155 0.0
C848 C 0.77044 0.09961 0.91147 0.0
H849 H 0.73527 0.04041 0.90731 0.0
H850 H 0.78162 0.0581 0.91438 0.0
C851 C 0.74884 0.11715 0.90787 0.0
C852 C 0.14631 0.52126 0.10965 0.0
C853 C 0.12579 0.50134 0.11204 0.0
H854 H 0.15647 0.56305 0.11079 0.0
C855 C 0.09884 0.50887 0.11643 0.0
H856 H 0.16726 0.51604 0.10607 0.0
C857 C 0.09266 0.53581 0.11919 0.0
C858 C 0.11329 0.55574 0.11743 0.0
H859 H 0.0826 0.49394 0.11825 0.0
H860 H 0.07175 0.54096 0.12311 0.0
C861 C 0.14011 0.54821 0.11221 0.0
C862 C 0.72341 0.83558 0.37822 0.0
C863 C 0.70162 0.8532 0.37714 0.0
H864 H 0.76675 0.83172 0.38151 0.0
C865 C 0.70672 0.88081 0.37938 0.0
H866 H 0.71983 0.81418 0.37658 0.0
C867 C 0.73326 0.89071 0.383 0.0
C868 C 0.75513 0.87317 0.38371 0.0
H869 H 0.69014 0.89472 0.37884 0.0
H870 H 0.73673 0.91212 0.38473 0.0
C871 C 0.7501 0.84556 0.38107 0.0
C872 C 0.79317 0.91267 0.12946 0.0
C873 C 0.82095 0.9079 0.1257 0.0
H874 H 0.76196 0.9416 0.13137 0.0
C875 C 0.8386 0.92944 0.11923 0.0
H876 H 0.77903 0.89653 0.13447 0.0
C877 C 0.82875 0.95534 0.11724 0.0
C878 C 0.80115 0.9602 0.12205 0.0
H879 H 0.86011 0.92638 0.11608 0.0
H880 H 0.84289 0.97161 0.11272 0.0
C881 C 0.78341 0.93855 0.12781 0.0
C882 C 0.17284 0.57368 0.58385 0.0
C883 C 0.16751 0.60098 0.58114 0.0
H884 H 0.2031 0.54392 0.58803 0.0
C885 C 0.18953 0.61951 0.58041 0.0
H886 H 0.15635 0.55891 0.58434 0.0
C887 C 0.21632 0.61094 0.58262 0.0
C888 C 0.22161 0.58366 0.58539 0.0
H889 H 0.18611 0.6407 0.57832 0.0
H890 H 0.23286 0.62567 0.58221 0.0
C891 C 0.19964 0.5651 0.58584 0.0
C892 C 0.09294 0.46603 0.33457 0.0
C893 C 0.1107 0.44445 0.33552 0.0
H894 H 0.08925 0.50864 0.33574 0.0
C895 C 0.13886 0.44943 0.33803 0.0
H896 H 0.07111 0.46262 0.33262 0.0
C897 C 0.1492 0.47557 0.3391 0.0
C898 C 0.13151 0.49719 0.33831 0.0
H899 H 0.15298 0.43312 0.33861 0.0
H900 H 0.17106 0.47884 0.3409 0.0
C901 C 0.10327 0.49226 0.33634 0.0
C902 C 0.35714 0.50746 0.85258 0.0
C903 C 0.38111 0.51604 0.8399 0.0
H904 H 0.33237 0.47439 0.865 0.0
C905 C 0.39981 0.49703 0.83129 0.0
H906 H 0.34238 0.52164 0.85944 0.0
C907 C 0.39418 0.46975 0.83474 0.0
C908 C 0.36963 0.46128 0.84646 0.0
H909 H 0.41852 0.50321 0.82152 0.0
H910 H 0.40855 0.45535 0.82756 0.0
C911 C 0.35137 0.48036 0.85564 0.0
C912 C 0.82488 0.67403 0.60458 0.0
C913 C 0.82825 0.67201 0.63246 0.0
H914 H 0.81957 0.70046 0.57151 0.0
C915 C 0.82078 0.69347 0.64872 0.0
H916 H 0.83013 0.65766 0.59153 0.0
C917 C 0.8143 0.71789 0.63723 0.0
C918 C 0.81576 0.72125 0.60936 0.0
H919 H 0.82269 0.69227 0.67029 0.0
H920 H 0.81138 0.73484 0.65036 0.0
C921 C 0.81884 0.69861 0.59307 0.0
C922 C -0.00796 0.09584 0.34576 0.0
C923 C 0.97346 0.11361 0.33465 0.0
H924 H 0.03371 0.0876 0.35399 0.0
C925 C -0.01683 0.1363 0.32098 0.0
H926 H -0.01504 0.07799 0.35604 0.0
C927 C 0.01118 0.1421 0.32016 0.0
C928 C 0.0297 0.12487 0.33239 0.0
H929 H 0.9691 0.15019 0.31216 0.0
H930 H 0.01826 0.16046 0.31085 0.0
C931 C 0.01993 0.10123 0.34434 0.0
C932 C 0.63662 0.25113 0.11011 0.0
C933 C 0.62984 0.24524 0.0833 0.0
H934 H 0.63616 0.28038 0.14137 0.0
C935 C 0.62475 0.26633 0.06567 0.0
H936 H 0.64127 0.23536 0.12409 0.0
C937 C 0.62227 0.29228 0.07557 0.0
C938 C 0.62449 0.29723 0.10322 0.0
H939 H 0.61996 0.26244 0.04479 0.0
H940 H 0.61548 0.30765 0.06202 0.0
C941 C 0.63379 0.27697 0.12005 0.0
C942 C 0.44858 0.83911 0.82974 0.0
C943 C 0.4419 0.83123 0.85583 0.0
H944 H 0.4805 0.8506 0.80283 0.0
C945 C 0.46275 0.82878 0.87505 0.0
H946 H 0.43284 0.84102 0.81456 0.0
C947 C 0.48975 0.83466 0.86852 0.0
C948 C 0.49651 0.84254 0.84249 0.0
H949 H 0.45817 0.82279 0.89534 0.0
H950 H 0.50536 0.83295 0.88387 0.0
C951 C 0.47578 0.84442 0.82303 0.0
C952 C 0.84301 0.20849 0.83217 0.0
C953 C 0.8471 0.20555 0.85988 0.0
H954 H 0.849 0.23313 0.79782 0.0
C955 C 0.85777 0.22734 0.8748 0.0
H956 H 0.83481 0.19217 0.82 0.0
C957 C 0.86543 0.25116 0.86197 0.0
C958 C 0.86309 0.25317 0.83403 0.0
H959 H 0.86107 0.22569 0.89618 0.0
H960 H 0.87458 0.26737 0.87365 0.0
C961 C 0.85123 0.23191 0.81937 0.0
C962 C 0.44532 0.09358 0.61346 0.0
C963 C 0.42786 0.09465 0.63552 0.0
H964 H 0.48614 0.09784 0.59935 0.0
C965 C 0.43927 0.09706 0.66135 0.0
H966 H 0.43718 0.09148 0.59332 0.0
C967 C 0.4674 0.10095 0.66479 0.0
C968 C 0.48454 0.10233 0.64247 0.0
H969 H 0.42636 0.09794 0.67876 0.0
H970 H 0.4755 0.10429 0.68479 0.0
C971 C 0.47339 0.09738 0.6169 0.0
C972 C 0.60294 0.74216 0.30926 0.0
C973 C 0.6055 0.74809 0.33667 0.0
H974 H 0.58984 0.71391 0.27943 0.0
C975 C 0.59784 0.72854 0.35543 0.0
H976 H 0.60851 0.75679 0.29425 0.0
C977 C 0.5874 0.70363 0.34681 0.0
C978 C 0.58391 0.69826 0.31936 0.0
H979 H 0.5996 0.7326 0.37668 0.0
H980 H 0.58131 0.68892 0.36156 0.0
C981 C 0.59202 0.71765 0.30072 0.0
C982 C 0.01737 0.87746 0.14686 0.0
C983 C 0.02662 0.8784 0.12038 0.0
H984 H -0.01708 0.87336 0.17248 0.0
C985 C 0.00754 0.88132 0.09948 0.0
H986 H 0.03155 0.87549 0.16345 0.0
C987 C 0.97965 0.8801 0.10467 0.0
C988 C 0.97044 0.8759 0.13083 0.0
H989 H 0.01405 0.88252 0.07888 0.0
H990 H 0.96544 0.88042 0.08795 0.0
C991 C -0.01053 0.87613 0.15204 0.0
C992 C 0.5912 0.87327 0.66853 0.0
C993 C 0.6192 0.87701 0.66372 0.0
H994 H 0.56055 0.86369 0.6974 0.0
C995 C 0.63812 0.87017 0.68362 0.0
H996 H 0.57619 0.87826 0.65342 0.0
C997 C 0.62922 0.86156 0.70855 0.0
C998 C 0.60123 0.85993 0.71417 0.0
H999 H 0.65984 0.87249 0.6803 0.0
H1000 H 0.64437 0.85763 0.72387 0.0
C1001 C 0.58225 0.86489 0.69366 0.0
C1002 C 0.89099 0.86241 0.49703 0.0
C1003 C 0.8779 0.83798 0.50348 0.0
H1004 H 0.89766 0.89234 0.46726 0.0
C1005 C 0.86568 0.8225 0.48288 0.0
H1006 H 0.90093 0.87474 0.51228 0.0
C1007 C 0.86449 0.83246 0.4568 0.0
C1008 C 0.87512 0.85811 0.45122 0.0
H1009 H 0.85569 0.80349 0.48718 0.0
H1010 H 0.85326 0.82112 0.44161 0.0
C1011 C 0.8893 0.87252 0.47122 0.0
C1012 C 0.79702 0.07958 0.21936 0.0
C1013 C 0.81179 0.07873 0.19548 0.0
H1014 H 0.79832 0.08659 0.26155 0.0
C1015 C 0.83949 0.08666 0.1958 0.0
H1016 H 0.7756 0.07382 0.21974 0.0
C1017 C 0.8525 0.09395 0.21976 0.0
C1018 C 0.83804 0.09355 0.24381 0.0
H1019 H 0.85143 0.08644 0.1777 0.0
H1020 H 0.87409 0.09905 0.21953 0.0
C1021 C 0.81002 0.08698 0.24331 0.0
C1022 C 0.59126 0.11757 0.9447 0.0
C1023 C 0.58755 0.08986 0.94102 0.0
H1024 H 0.59103 0.15025 0.97241 0.0
C1025 C 0.57585 0.07451 0.96151 0.0
H1026 H 0.60015 0.12993 0.92917 0.0
C1027 C 0.57038 0.08618 -0.01385 0.0
C1028 C 0.57694 0.11332 -0.00917 0.0
H1029 H 0.57247 0.05315 0.95906 0.0
H1030 H 0.5629 0.07344 0.00206 0.0
C1031 C 0.58618 0.1292 0.96951 0.0
C1032 C 0.59969 0.12875 0.77741 0.0
C1033 C 0.6258 0.1223 0.78672 0.0
H1034 H 0.57474 0.13796 0.74356 0.0
C1035 C 0.64793 0.12399 0.76911 0.0
H1036 H 0.58225 0.1277 0.7905 0.0
C1037 C 0.64363 0.13016 0.74219 0.0
C1038 C 0.61711 0.13425 0.73249 0.0
H1039 H 0.6683 0.1192 0.77581 0.0
H1040 H 0.66077 0.1301 0.7287 0.0
C1041 C 0.59534 0.13441 0.75048 0.0
C1042 C 0.61238 0.85285 0.48263 0.0
C1043 C 0.60802 0.86654 0.45857 0.0
H1044 H 0.62375 0.85597 0.52403 0.0
C1045 C 0.60875 0.89467 0.45875 0.0
H1046 H 0.61191 0.8312 0.48309 0.0
C1047 C 0.61606 0.90875 0.48192 0.0
C1048 C 0.62223 0.89504 0.50552 0.0
H1049 H 0.60535 0.90586 0.44058 0.0
H1050 H 0.61783 0.93036 0.48111 0.0
C1051 C 0.61921 0.86703 0.50602 0.0
C1052 C 0.83208 0.82882 0.27259 0.0
C1053 C 0.8559 0.83616 0.28692 0.0
H1054 H 0.81424 0.81928 0.23444 0.0
C1055 C 0.88105 0.83647 0.27378 0.0
H1056 H 0.81244 0.8283 0.28231 0.0
C1057 C 0.88203 0.83176 0.24626 0.0
C1058 C 0.85794 0.82622 0.23157 0.0
H1059 H 0.89971 0.8421 0.28436 0.0
H1060 H 0.90151 0.83353 0.23634 0.0
C1061 C 0.83312 0.82366 0.24518 0.0
C1062 C 0.87243 0.07797 -0.00152 0.0
C1063 C 0.87233 0.1058 -0.00549 0.0
H1064 H 0.86164 0.0455 0.02433 0.0
C1065 C 0.8669 0.12256 0.01631 0.0
H1066 H 0.8768 0.06446 -0.01783 0.0
C1067 C 0.85863 0.11159 0.04068 0.0
C1068 C 0.85528 0.08375 0.04336 0.0
H1069 H 0.86684 0.14407 0.01393 0.0
H1070 H 0.8525 0.12495 0.05649 0.0
C1071 C 0.86364 0.06704 0.0226 0.0
C1072 C 0.71892 0.55384 0.85086 0.0
C1073 C 0.74031 0.57298 0.84975 0.0
H1074 H 0.67571 0.54661 0.8508 0.0
C1075 C 0.73417 0.59979 0.84481 0.0
H1076 H 0.72305 0.53299 0.85446 0.0
C1077 C 0.70714 0.60758 0.84273 0.0
C1078 C 0.68565 0.58874 0.84547 0.0
H1079 H 0.75021 0.61499 0.84359 0.0
H1080 H 0.70312 0.62859 0.83998 0.0
C1081 C 0.6918 0.56164 0.84868 0.0
C1082 C 0.22401 0.88128 0.09091 0.0
C1083 C 0.24103 0.8592 0.08894 0.0
H1084 H 0.18302 0.89514 0.08971 0.0
C1085 C 0.22948 0.83384 0.08329 0.0
H1086 H 0.23241 0.90104 0.09536 0.0
C1087 C 0.20141 0.83055 0.07978 0.0
C1088 C 0.18431 0.85248 0.08228 0.0
H1089 H 0.24214 0.81649 0.08153 0.0
H1090 H 0.19309 0.81072 0.0755 0.0
C1091 C 0.1958 0.87789 0.08783 0.0
C1092 C 0.8896 0.45804 0.86736 0.0
C1093 C 0.86316 0.46822 0.86673 0.0
H1094 H 0.91492 0.42507 0.85844 0.0
C1095 C 0.84121 0.45139 0.85862 0.0
H1096 H 0.90694 0.47047 0.87353 0.0
C1097 C 0.84577 0.42521 0.85028 0.0
C1098 C 0.87241 0.4156 0.84953 0.0
H1099 H 0.82058 0.45863 0.85811 0.0
H1100 H 0.82861 0.41292 0.84334 0.0
C1101 C 0.89419 0.43205 0.85865 0.0
C1102 C 0.22322 0.08949 0.59902 0.0
C1103 C 0.2071 0.11199 0.59498 0.0
H1104 H 0.26362 0.07479 0.60446 0.0
C1105 C 0.21975 0.1374 0.5936 0.0
H1106 H 0.21395 0.06968 0.60043 0.0
C1107 C 0.24798 0.14026 0.59578 0.0
C1108 C 0.26413 0.11782 0.59978 0.0
H1109 H 0.20787 0.15512 0.59057 0.0
H1110 H 0.25716 0.1601 0.59425 0.0
C1111 C 0.25156 0.09241 0.60162 0.0
C1112 C 0.08598 -0.00566 0.86324 0.0
C1113 C 0.1139 -0.01098 0.86158 0.0
H1114 H 0.05485 0.02303 0.85787 0.0
C1115 C 0.13254 0.01027 0.85718 0.0
H1116 H 0.07111 0.97843 0.86687 0.0
C1117 C 0.12318 0.03598 0.85234 0.0
C1118 C 0.09505 0.04064 0.85152 0.0
H1119 H 0.15421 0.00677 0.856 0.0
H1120 H 0.13782 0.0517 0.84739 0.0
C1121 C 0.07663 0.01988 0.85808 0.0
C1122 C 0.76454 0.34017 0.34418 0.0
C1123 C 0.78236 0.36252 0.34591 0.0
H1124 H 0.72322 0.32568 0.34313 0.0
C1125 C 0.77148 0.38822 0.34642 0.0
H1126 H 0.77234 0.3201 0.3437 0.0
C1127 C 0.74326 0.39142 0.34652 0.0
C1128 C 0.72545 0.36899 0.34574 0.0
H1129 H 0.78473 0.40582 0.34791 0.0
H1130 H 0.73543 0.41144 0.34762 0.0
C1131 C 0.73638 0.34337 0.34393 0.0
C1132 C 0.91484 0.48599 0.61498 0.0
C1133 C 0.88739 0.47819 0.61094 0.0
H1134 H 0.943 0.51689 0.62769 0.0
C1135 C 0.86696 0.49674 0.61578 0.0
H1136 H 0.93106 0.47214 0.61143 0.0
C1137 C 0.8738 0.52241 0.62494 0.0
C1138 C 0.90121 0.52999 0.62968 0.0
H1139 H 0.84562 0.49139 0.61272 0.0
H1140 H 0.85753 0.53611 0.6288 0.0
C1141 C 0.92168 0.51161 0.62437 0.0
C1142 C 0.60116 0.47525 0.08927 0.0
C1143 C 0.58298 0.49646 0.08943 0.0
H1144 H 0.60698 0.43384 0.09696 0.0
C1145 C 0.55532 0.49121 0.09487 0.0
H1146 H 0.62255 0.4787 0.08494 0.0
C1147 C 0.54641 0.46556 0.10199 0.0
C1148 C 0.56495 0.44468 0.10356 0.0
H1149 H 0.5408 0.50717 0.09499 0.0
H1150 H 0.52523 0.46237 0.1073 0.0
C1151 C 0.5922 0.44955 0.09614 0.0
C1152 C 0.62965 0.74467 0.82243 0.0
C1153 C 0.63438 0.73427 0.84804 0.0
H1154 H 0.61926 0.77892 0.79946 0.0
C1155 C 0.63664 0.75184 0.86998 0.0
H1156 H 0.62802 0.73164 0.80511 0.0
C1157 C 0.63158 0.77895 0.86677 0.0
C1158 C 0.62408 0.78888 0.84158 0.0
H1159 H 0.64054 0.74441 0.88994 0.0
H1160 H 0.63184 0.79171 0.88433 0.0
C1161 C 0.62448 0.77176 0.81923 0.0
C1162 C 0.47001 0.32341 0.13745 0.0
C1163 C 0.48952 0.32018 0.11738 0.0
H1164 H 0.42796 0.31974 0.14811 0.0
C1165 C 0.48165 0.30826 0.09298 0.0
H1166 H 0.47555 0.3325 0.15651 0.0
C1167 C 0.45448 0.30049 0.0884 0.0
C1168 C 0.43473 0.30502 0.10799 0.0
H1169 H 0.49638 0.30537 0.0773 0.0
H1170 H 0.44877 0.29203 0.06911 0.0
C1171 C 0.44279 0.31612 0.13269 0.0
C1172 C 0.84618 0.19028 0.34733 0.0
C1173 C 0.85422 0.17514 0.36956 0.0
H1174 H 0.83852 0.22912 0.33179 0.0
C1175 C 0.85719 0.1878 0.39459 0.0
H1176 H 0.84335 0.18109 0.32781 0.0
C1177 C 0.85432 0.21544 0.39685 0.0
C1178 C 0.84849 0.2308 0.37412 0.0
H1179 H 0.8632 0.17667 0.41212 0.0
H1180 H 0.85814 0.22489 0.4161 0.0
C1181 C 0.8434 0.21784 0.34958 0.0
C1182 C 0.9692 0.66008 0.59691 0.0
C1183 C 0.96662 0.65153 0.62346 0.0
H1184 H -0.00352 0.67046 0.56528 0.0
C1185 C -0.0098 0.64789 0.6391 0.0
H1186 H 0.95131 0.6631 0.5845 0.0
C1187 C 0.01595 0.65157 0.628 0.0
C1188 C 0.01855 0.65951 0.60128 0.0
H1189 H -0.0112 0.64127 0.65964 0.0
H1190 H 0.03382 0.64793 0.64025 0.0
C1191 C -0.005 0.66431 0.58597 0.0
C1192 C 0.58982 0.25764 0.64585 0.0
C1193 C 0.59745 0.26575 0.62012 0.0
H1194 H 0.57679 0.22526 0.6708 0.0
C1195 C 0.59821 0.24666 0.59945 0.0
H1196 H 0.58891 0.27199 0.66209 0.0
C1197 C 0.59174 0.21983 0.60454 0.0
C1198 C 0.58373 0.21182 0.63019 0.0
H1199 H 0.60411 0.25241 0.57943 0.0
H1200 H 0.59271 0.20542 0.58837 0.0
C1201 C 0.58271 0.23096 0.65077 0.0
C1202 C 0.03453 0.34103 0.80877 0.0
C1203 C 0.0397 0.3467 0.83588 0.0
H1204 H 0.00493 0.32923 0.77911 0.0
C1205 C 0.01787 0.34683 0.85386 0.0
H1206 H 0.051 0.3405 0.79453 0.0
C1207 C -0.00865 0.34069 0.84491 0.0
C1208 C -0.01345 0.33355 0.81808 0.0
H1209 H 0.02141 0.35102 0.8749 0.0
H1210 H 0.9748 0.34058 0.8591 0.0
C1211 C 0.00825 0.33418 0.80003 0.0
C1212 C 0.84128 0.72669 0.11958 0.0
C1213 C 0.86132 0.70783 0.11472 0.0
H1214 H 0.83239 0.76804 0.1244 0.0
C1215 C 0.88828 0.71647 0.11014 0.0
H1216 H 0.82032 0.72036 0.12297 0.0
C1217 C 0.89536 0.74365 0.11172 0.0
C1218 C 0.87535 0.76251 0.11691 0.0
H1219 H 0.90402 0.70215 0.10636 0.0
H1220 H 0.91647 0.74992 0.10919 0.0
C1221 C 0.84815 0.75389 0.1202 0.0
C1222 C 0.43927 0.60845 0.36301 0.0
C1223 C 0.41497 0.60823 0.34786 0.0
H1224 H 0.48294 0.611 0.36242 0.0
C1225 C 0.41631 0.60829 0.31983 0.0
H1226 H 0.43878 0.60837 0.38467 0.0
C1227 C 0.44143 0.61044 0.30721 0.0
C1228 C 0.46566 0.61196 0.32237 0.0
H1229 H 0.39794 0.60824 0.30761 0.0
H1230 H 0.44185 0.6115 0.28558 0.0
C1231 C 0.46448 0.61001 0.35033 0.0
C1232 C 0.86415 0.59011 0.78327 0.0
C1233 C 0.88388 0.58613 0.80338 0.0
H1234 H 0.85645 0.5985 0.74195 0.0
C1235 C 0.91161 0.58907 0.79709 0.0
H1236 H 0.8426 0.58811 0.78756 0.0
C1237 C 0.9195 0.5948 0.77102 0.0
C1238 C 0.89983 0.59796 0.75072 0.0
H1239 H 0.92733 0.58621 0.81211 0.0
H1240 H 0.94108 0.59637 0.76673 0.0
C1241 C 0.87206 0.59612 0.75718 0.0
C1242 C 0.60075 0.64411 -0.00769 0.0
C1243 C 0.5945 0.62019 0.00573 0.0
H1244 H 0.60787 0.663 0.95464 0.0
C1245 C 0.58867 0.59688 -0.00926 0.0
H1246 H 0.6055 0.66232 0.00337 0.0
C1247 C 0.58993 0.59726 0.9629 0.0
C1248 C 0.59743 0.62087 0.94951 0.0
H1249 H 0.58373 0.57815 0.00056 0.0
H1250 H 0.58579 0.57886 0.95195 0.0
C1251 C 0.60239 0.6444 0.96444 0.0
C1252 C 0.56429 0.37966 0.24872 0.0
C1253 C 0.58 0.38086 0.22543 0.0
H1254 H 0.56413 0.38144 0.29147 0.0
C1255 C 0.60836 0.38479 0.22758 0.0
H1256 H 0.54238 0.37642 0.24758 0.0
C1257 C 0.62072 0.38815 0.25268 0.0
C1258 C 0.60496 0.38692 0.27595 0.0
H1259 H 0.62088 0.3858 0.20987 0.0
H1260 H 0.64259 0.39159 0.2539 0.0
C1261 C 0.57671 0.38235 0.2738 0.0
C1262 C 0.8584 0.40252 0.48948 0.0
C1263 C 0.85809 0.38266 0.50923 0.0
H1264 H 0.86089 0.41123 0.4477 0.0
C1265 C 0.86056 0.35578 0.50175 0.0
H1266 H 0.8566 0.42341 0.49478 0.0
C1267 C 0.86254 0.34879 0.47485 0.0
C1268 C 0.86258 0.36862 0.45505 0.0
H1269 H 0.86029 0.3401 0.51661 0.0
H1270 H 0.86405 0.32787 0.46956 0.0
C1271 C 0.8609 0.39557 0.46259 0.0
C1272 C 0.85043 0.35714 0.71238 0.0
C1273 C 0.87448 0.34783 0.72405 0.0
H1274 H 0.83087 0.37052 0.67662 0.0
C1275 C 0.89683 0.3424 0.70769 0.0
H1276 H 0.83289 0.36136 0.72453 0.0
C1277 C 0.89575 0.34757 0.68038 0.0
C1278 C 0.8723 0.35834 0.66885 0.0
H1279 H 0.91557 0.33487 0.7161 0.0
H1280 H 0.91367 0.34402 0.66852 0.0
C1281 C 0.84935 0.36239 0.68496 0.0
C1282 C 0.83056 0.55824 0.97471 0.0
C1283 C 0.83816 0.57539 0.9538 0.0
H1284 H 0.82871 0.55249 0.01699 0.0
C1285 C 0.85093 0.60014 0.95983 0.0
H1286 H 0.82087 0.53896 0.97061 0.0
C1287 C 0.85527 0.60797 -0.01362 0.0
C1288 C 0.84724 0.59102 0.00731 0.0
H1289 H 0.85707 0.61372 0.94406 0.0
H1290 H 0.86454 0.62745 -0.0095 0.0
C1291 C 0.83524 0.56591 0.00124 0.0
C1292 C 0.56346 0.60309 0.20576 0.0
C1293 C 0.58413 0.59991 0.22512 0.0
H1294 H 0.55332 0.60463 0.16398 0.0
C1295 C 0.61106 0.5966 0.21691 0.0
H1296 H 0.54253 0.60593 0.21161 0.0
C1297 C 0.61713 0.59568 0.18978 0.0
C1298 C 0.59644 0.59844 0.17039 0.0
H1299 H 0.62736 0.59422 0.23143 0.0
H1300 H 0.63803 0.59254 0.18399 0.0
C1301 C 0.56962 0.60259 0.17856 0.0
C1302 C 0.60635 0.33184 0.47306 0.0
C1303 C 0.60623 0.35472 0.48945 0.0
H1304 H 0.61057 0.31623 0.43344 0.0
C1305 C 0.60874 0.38005 0.47767 0.0
H1306 H 0.6044 0.31203 0.48159 0.0
C1307 C 0.61244 0.38245 0.45017 0.0
C1308 C 0.61358 0.35956 0.43385 0.0
H1309 H 0.60867 0.39805 0.48977 0.0
H1310 H 0.61492 0.40228 0.4418 0.0
C1311 C 0.60992 0.33424 0.44549 0.0
C1312 C 0.76743 0.91302 0.58219 0.0
C1313 C 0.74214 0.89948 0.58425 0.0
H1314 H 0.81083 0.91052 0.58489 0.0
C1315 C 0.74143 0.87239 0.59155 0.0
H1316 H 0.76854 0.93398 0.57687 0.0
C1317 C 0.76565 0.85885 0.59579 0.0
C1318 C 0.79095 0.87236 0.59347 0.0
H1319 H 0.72218 0.8615 0.59333 0.0
H1320 H 0.7646 0.83779 0.60068 0.0
C1321 C 0.7916 0.89966 0.58705 0.0
C1322 C 0.23421 0.58923 0.39951 0.0
C1323 C 0.21546 0.60998 0.39846 0.0
H1324 H 0.27546 0.5783 0.40644 0.0
C1325 C 0.22389 0.63592 0.40617 0.0
H1326 H 0.22826 0.56896 0.39391 0.0
C1327 C 0.25102 0.64119 0.4137 0.0
C1328 C 0.27001 0.62062 0.41328 0.0
H1329 H 0.20975 0.65221 0.40573 0.0
H1330 H 0.25735 0.6615 0.4187 0.0
C1331 C 0.26125 0.59454 0.4067 0.0
C1332 C 0.59936 0.0389 0.61459 0.0
C1333 C 0.62124 0.05759 0.61606 0.0
H1334 H 0.58671 -0.00187 0.60802 0.0
C1335 C 0.64772 0.04902 0.61089 0.0
H1336 H 0.57866 0.04487 0.61836 0.0
C1337 C 0.6523 0.02218 0.60511 0.0
C1338 C 0.63048 0.00344 0.6042 0.0
H1339 H 0.665 0.0629 0.61186 0.0
H1340 H 0.67301 0.01609 0.60163 0.0
C1341 C 0.60393 0.01211 0.60865 0.0
C1342 C 0.2174 0.33988 0.88841 0.0
C1343 C 0.1956 0.3575 0.88929 0.0
H1344 H 0.26071 0.33595 0.88622 0.0
C1345 C 0.20085 0.38516 0.8892 0.0
H1346 H 0.21374 0.31844 0.88839 0.0
C1347 C 0.22758 0.39511 0.88859 0.0
C1348 C 0.2494 0.37753 0.88738 0.0
H1349 H 0.1843 0.39909 0.88999 0.0
H1350 H 0.23117 0.41656 0.88867 0.0
C1351 C 0.24415 0.34985 0.88708 0.0
C1352 C 0.29856 0.41139 0.62111 0.0
C1353 C 0.32667 0.40746 0.61864 0.0
H1354 H 0.26655 0.43955 0.62253 0.0
C1355 C 0.34403 0.42955 0.61339 0.0
H1356 H 0.28466 0.39478 0.62518 0.0
C1357 C 0.3336 0.45521 0.61162 0.0
C1358 C 0.3057 0.45926 0.61549 0.0
H1359 H 0.36579 0.42711 0.61125 0.0
H1360 H 0.34754 0.47195 0.60823 0.0
C1361 C 0.28822 0.43706 0.61975 0.0
C1362 C 0.69715 0.06741 0.09366 0.0
C1363 C 0.71932 0.08546 0.09069 0.0
H1364 H 0.6538 0.06206 0.09521 0.0
C1365 C 0.71435 0.11268 0.08696 0.0
H1366 H 0.7004 0.04631 0.09673 0.0
C1367 C 0.68766 0.12167 0.086 0.0
C1368 C 0.66546 0.10365 0.08904 0.0
H1369 H 0.73106 0.12701 0.08468 0.0
H1370 H 0.68446 0.14278 0.08292 0.0
C1371 C 0.67047 0.07645 0.09299 0.0
C1372 C 0.5807 -0.01107 0.82143 0.0
C1373 C 0.60617 -0.00414 0.83285 0.0
H1374 H 0.5548 0.95742 0.80566 0.0
C1375 C 0.62536 0.97592 0.83716 0.0
H1376 H 0.56559 0.00398 0.81786 0.0
C1377 C 0.61918 0.94949 0.83043 0.0
C1378 C 0.59377 0.94246 0.81903 0.0
H1379 H 0.64518 0.98065 0.84596 0.0
H1380 H 0.63441 0.93458 0.8341 0.0
C1381 C 0.57457 0.96237 0.81444 0.0
C1382 C 0.89835 -0.0014 0.33373 0.0
C1383 C 0.87878 0.01638 0.34311 0.0
H1384 H 0.90992 0.95768 0.32984 0.0
C1385 C 0.85622 0.00636 0.35715 0.0
H1386 H 0.91605 0.00589 0.32295 0.0
C1387 C 0.85266 0.97897 0.3608 0.0
C1388 C 0.87176 0.96109 0.3508 0.0
H1389 H 0.84087 0.01958 0.36465 0.0
H1390 H 0.83465 0.97179 0.37118 0.0
C1391 C 0.89495 0.9711 0.33772 0.0
C1392 C 0.31926 0.20495 0.08874 0.0
C1393 C 0.31794 0.22701 0.10609 0.0
H1394 H 0.32785 0.16345 0.08508 0.0
C1395 C 0.3172 0.22257 0.13383 0.0
H1396 H 0.31941 0.20769 0.06726 0.0
C1397 C 0.32244 0.1973 0.14406 0.0
C1398 C 0.32798 0.17611 0.12665 0.0
H1399 H 0.31566 0.2391 0.14775 0.0
H1400 H 0.32479 0.19504 0.16549 0.0
C1401 C 0.32408 0.17956 0.09899 0.0
C1402 C 0.51268 0.64552 0.86463 0.0
C1403 C 0.53046 0.63909 0.84385 0.0
H1404 H 0.4722 0.64249 0.87978 0.0
C1405 C 0.52006 0.62588 0.82096 0.0
H1406 H 0.52008 0.65567 0.88256 0.0
C1407 C 0.49231 0.6188 0.81917 0.0
C1408 C 0.47493 0.62425 0.84057 0.0
H1409 H 0.53338 0.62078 0.80467 0.0
H1410 H 0.48467 0.6082 0.8016 0.0
C1411 C 0.48528 0.63789 0.86313 0.0
C1412 C 0.1318 0.74896 0.61173 0.0
C1413 C 0.12711 0.74332 0.58447 0.0
H1414 H 0.12907 0.77792 0.64308 0.0
C1415 C 0.12296 0.76456 0.56675 0.0
H1416 H 0.13558 0.73307 0.62583 0.0
C1417 C 0.11961 0.79038 0.57665 0.0
C1418 C 0.12002 0.79512 0.60438 0.0
H1419 H 0.11977 0.76087 0.54557 0.0
H1420 H 0.11378 0.80587 0.56279 0.0
C1421 C 0.12811 0.77469 0.62165 0.0
C1422 C -0.0098 0.34371 0.37838 0.0
C1423 C 0.00026 0.34926 0.3528 0.0
H1424 H 0.95581 0.33238 0.40183 0.0
C1425 C -0.01772 0.34807 0.33069 0.0
H1426 H 0.00356 0.34434 0.39578 0.0
C1427 C 0.95464 0.34153 0.33421 0.0
C1428 C 0.94481 0.33555 0.35981 0.0
H1429 H -0.01048 0.35235 0.31073 0.0
H1430 H 0.9411 0.34078 0.31696 0.0
C1431 C 0.96285 0.33671 0.38181 0.0
C1432 C 0.37479 0.76096 0.36495 0.0
C1433 C 0.37174 0.7636 0.33711 0.0
H1434 H 0.37072 0.73495 0.3988 0.0
C1435 C 0.36012 0.74239 0.32219 0.0
H1436 H 0.38374 0.7771 0.37686 0.0
C1437 C 0.35226 0.7187 0.33467 0.0
C1438 C 0.35634 0.71544 0.36233 0.0
H1439 H 0.35729 0.74399 0.30074 0.0
H1440 H 0.34384 0.70259 0.32236 0.0
C1441 C 0.36742 0.73689 0.37746 0.0
C1442 C 0.9579 0.60157 0.17234 0.0
C1443 C 0.97498 0.59546 0.15089 0.0
H1444 H 0.91685 0.60631 0.18532 0.0
C1445 C 0.96345 0.58416 0.12752 0.0
H1446 H 0.96626 0.60997 0.19076 0.0
C1447 C 0.93522 0.58194 0.12445 0.0
C1448 C 0.91802 0.59102 0.1447 0.0
H1449 H 0.97613 0.57876 0.11083 0.0
H1450 H 0.9269 0.57506 0.10541 0.0
C1451 C 0.92957 0.59931 0.16929 0.0
C1452 C 0.10864 0.24519 0.82036 0.0
C1453 C 0.10876 0.25013 0.84807 0.0
H1454 H 0.09808 0.21807 0.78864 0.0
C1455 C 0.10012 0.22968 0.86544 0.0
H1456 H 0.11511 0.26047 0.80636 0.0
C1457 C 0.09067 0.20505 0.85514 0.0
C1458 C 0.08918 0.20087 0.82736 0.0
H1459 H 0.10003 0.23292 0.88687 0.0
H1460 H 0.08349 0.18975 0.86881 0.0
C1461 C 0.09869 0.22095 0.81013 0.0
C1462 C 0.51473 0.37947 0.59962 0.0
C1463 C 0.5331 0.38101 0.62137 0.0
H1464 H 0.47317 0.37471 0.58689 0.0
C1465 C 0.5228 0.38337 0.64738 0.0
H1466 H 0.52203 0.37798 0.57931 0.0
C1467 C 0.49477 0.38133 0.65173 0.0
C1468 C 0.47661 0.3771 0.63013 0.0
H1469 H 0.5364 0.38481 0.66456 0.0
H1470 H 0.48751 0.38141 0.67211 0.0
C1471 C 0.48672 0.37759 0.60397 0.0
C1472 C 0.09062 0.3659 0.2127 0.0
C1473 C 0.11019 0.36454 0.23333 0.0
H1474 H 0.08282 0.37508 0.17159 0.0
C1475 C 0.13786 0.36889 0.22734 0.0
H1476 H 0.06916 0.3625 0.21674 0.0
C1477 C 0.14562 0.37636 0.20165 0.0
C1478 C 0.12589 0.37929 0.18141 0.0
H1479 H 0.15344 0.36787 0.24279 0.0
H1480 H 0.16697 0.38076 0.19791 0.0
C1481 C 0.09844 0.37308 0.18688 0.0
C1482 C 0.38514 0.37903 0.96771 0.0
C1483 C 0.37113 0.3637 0.94826 0.0
H1484 H 0.39771 0.38241 0.00848 0.0
C1485 C 0.36177 0.33776 0.95452 0.0
H1486 H 0.39261 0.39906 0.96323 0.0
C1487 C 0.36408 0.32833 0.98072 0.0
C1488 C 0.3762 0.34459 0.00075 0.0
H1489 H 0.35074 0.32566 0.93979 0.0
H1490 H 0.35514 0.30896 -0.01447 0.0
C1491 C 0.38793 0.36946 -0.00635 0.0
C1492 C 0.30224 0.57744 0.71593 0.0
C1493 C 0.31663 0.57606 0.69187 0.0
H1494 H 0.30422 0.58506 0.75799 0.0
C1495 C 0.34452 0.58334 0.69179 0.0
H1496 H 0.28071 0.57217 0.71663 0.0
C1497 C 0.35801 0.59066 0.71549 0.0
C1498 C 0.34385 0.591 0.73969 0.0
H1499 H 0.35619 0.58264 0.67354 0.0
H1500 H 0.37968 0.59533 0.71494 0.0
C1501 C 0.31571 0.58492 0.73961 0.0
C1502 C 0.07007 0.59532 0.47387 0.0
C1503 C 0.07403 0.62184 0.48272 0.0
H1504 H 0.07383 0.56776 0.44139 0.0
C1505 C 0.07936 0.64198 0.46389 0.0
H1506 H 0.06562 0.57939 0.48789 0.0
C1507 C 0.0835 0.63535 0.43714 0.0
C1508 C 0.08288 0.60844 0.42901 0.0
H1509 H 0.08201 0.66266 0.47009 0.0
H1510 H 0.08967 0.65106 0.42348 0.0
C1511 C 0.07467 0.58864 0.44722 0.0
C1512 C 0.14509 0.63516 0.23041 0.0
C1513 C 0.11699 0.63611 0.22489 0.0
H1514 H 0.17611 0.62615 0.25914 0.0
C1515 C 0.09844 0.6318 0.24572 0.0
H1516 H 0.15989 0.63845 0.21476 0.0
C1517 C 0.10774 0.62503 0.27118 0.0
C1518 C 0.13574 0.62206 0.27617 0.0
H1519 H 0.07666 0.63267 0.24211 0.0
H1520 H 0.09286 0.62072 0.28652 0.0
C1521 C 0.15439 0.628 0.25579 0.0
C1522 C 0.10685 0.40456 -0.00061 0.0
C1523 C 0.11696 0.391 0.02171 0.0
H1524 H 0.0923 0.40167 0.95916 0.0
C1525 C 0.11667 0.3629 0.0216 0.0
H1526 H 0.10641 0.4262 -0.00082 0.0
C1527 C 0.10891 0.34873 -0.00154 0.0
C1528 C 0.10091 0.3625 0.97535 0.0
H1529 H 0.12424 0.35198 0.03868 0.0
H1530 H 0.11082 0.32721 -0.00185 0.0
C1531 C 0.09859 0.39043 0.97654 0.0
C1532 C 0.37668 0.33826 0.77339 0.0
C1533 C 0.35052 0.33866 0.78446 0.0
H1534 H 0.40015 0.33581 0.73767 0.0
C1535 C 0.32766 0.33335 0.76794 0.0
H1536 H 0.39465 0.34242 0.78564 0.0
C1537 C 0.33084 0.32925 0.74052 0.0
C1538 C 0.35687 0.33101 0.72916 0.0
H1539 H 0.30726 0.33353 0.77602 0.0
H1540 H 0.31282 0.32624 0.72806 0.0
C1541 C 0.37982 0.33476 0.74591 0.0
C1542 C 0.37607 0.58173 0.49663 0.0
C1543 C 0.37672 0.60976 0.4943 0.0
H1544 H 0.36426 0.5481 0.5205 0.0
C1545 C 0.37191 0.62539 0.51708 0.0
H1546 H 0.38006 0.56908 0.47956 0.0
C1547 C 0.36319 0.61324 0.54072 0.0
C1548 C 0.35888 0.58538 0.5417 0.0
H1549 H 0.37247 0.64701 0.51598 0.0
H1550 H 0.35743 0.62584 0.55729 0.0
C1551 C 0.3669 0.56965 0.52005 0.0
C1552 C 0.20337 0.10856 0.34176 0.0
C1553 C 0.18347 0.08824 0.34539 0.0
H1554 H 0.24584 0.11904 0.34109 0.0
C1555 C 0.19181 0.0617 0.34822 0.0
H1556 H 0.19767 0.12918 0.33926 0.0
C1557 C 0.2195 0.05591 0.34931 0.0
C1558 C 0.23933 0.07652 0.34752 0.0
H1559 H 0.17701 0.04554 0.35089 0.0
H1560 H 0.22532 0.03545 0.35272 0.0
C1561 C 0.23102 0.10275 0.34282 0.0
C1562 C 0.73103 0.40085 0.59625 0.0
C1563 C 0.75071 0.38132 0.59235 0.0
H1564 H 0.68843 0.40913 0.5985 0.0
C1565 C 0.74223 0.3546 0.58825 0.0
H1566 H 0.73705 0.42158 0.59955 0.0
C1567 C 0.71463 0.34757 0.58746 0.0
C1568 C 0.6949 0.36705 0.59103 0.0
H1569 H 0.75691 0.33909 0.5852 0.0
H1570 H 0.70877 0.32684 0.58386 0.0
C1571 C 0.70328 0.39372 0.59576 0.0
C1572 C 0.39989 0.94445 0.36496 0.0
C1573 C 0.37831 0.92631 0.35924 0.0
H1574 H 0.4117 -0.01531 0.37491 0.0
C1575 C 0.35134 0.93463 0.36178 0.0
H1576 H 0.42088 0.93847 0.36323 0.0
C1577 C 0.34605 0.96122 0.36797 0.0
C1578 C 0.36768 0.97974 0.3722 0.0
H1579 H 0.33432 0.92104 0.35741 0.0
H1580 H 0.32508 0.96746 0.36858 0.0
C1581 C 0.39462 0.97089 0.37164 0.0
C1582 C 0.74607 0.59121 0.10036 0.0
C1583 C 0.75926 0.61619 0.09735 0.0
H1584 H 0.70793 0.56941 0.10019 0.0
C1585 C 0.74375 0.63884 0.09223 0.0
H1586 H 0.75766 0.57344 0.10411 0.0
C1587 C 0.71546 0.63662 0.09026 0.0
C1588 C 0.70221 0.61162 0.09285 0.0
H1589 H 0.75347 0.65834 0.08982 0.0
H1590 H 0.70398 0.65445 0.08643 0.0
C1591 C 0.71772 0.58889 0.09785 0.0
C1592 C 0.62174 0.53489 0.35139 0.0
C1593 C 0.59347 0.5388 0.3509 0.0
H1594 H 0.65366 0.5066 0.35515 0.0
C1595 C 0.57574 0.5177 0.35813 0.0
H1596 H 0.63586 0.55087 0.3459 0.0
C1597 C 0.5859 0.49254 0.36366 0.0
C1598 C 0.61395 0.48791 0.36168 0.0
H1599 H 0.55387 0.52026 0.35816 0.0
H1600 H 0.57153 0.47634 0.36782 0.0
C1601 C 0.63192 0.50954 0.35659 0.0
C1602 C 0.23496 0.84423 0.84709 0.0
C1603 C 0.22377 0.86958 0.85038 0.0
H1604 H 0.27091 0.82103 0.84736 0.0
C1605 C 0.24136 0.89177 0.85504 0.0
H1606 H 0.22201 0.82674 0.84334 0.0
C1607 C 0.26952 0.88852 0.85709 0.0
C1608 C 0.28056 0.86299 0.85477 0.0
H1609 H 0.23338 0.91162 0.85744 0.0
H1610 H 0.28252 0.90587 0.86133 0.0
C1611 C 0.26302 0.84096 0.84937 0.0
C1612 C 0.3436 -0.00181 0.1085 0.0
C1613 C 0.36094 0.97653 0.10531 0.0
H1614 H 0.34033 0.0395 0.11867 0.0
C1615 C 0.38927 0.98085 0.10787 0.0
H1616 H 0.32169 -0.00452 0.10653 0.0
C1617 C 0.39996 0.00599 0.115 0.0
C1618 C 0.38255 0.02736 0.11955 0.0
H1619 H 0.40318 0.96456 0.10541 0.0
H1620 H 0.42182 0.00843 0.11771 0.0
C1621 C 0.35431 0.0234 0.11547 0.0
C1622 C 0.09318 0.9489 0.59698 0.0
C1623 C 0.06546 0.94472 0.60303 0.0
H1624 H 0.125 0.97739 0.58805 0.0
C1625 C 0.04775 0.96628 0.60131 0.0
H1626 H 0.10736 0.93267 0.59801 0.0
C1627 C 0.05787 -0.00816 0.59541 0.0
C1628 C 0.08591 -0.00366 0.59138 0.0
H1629 H 0.02626 0.96365 0.60562 0.0
H1630 H 0.04389 0.00826 0.59535 0.0
C1631 C 0.10334 0.97453 0.59134 0.0
loop_
_geom_bond_atom_site_label_1
_geom_bond_atom_site_label_2
_geom_bond_distance
_geom_bond_site_symmetry_2
_ccdc_geom_bond_type
C0 O1 1.306 . S
C0 O3 1.160 . S
O1 C0 1.306 . S
O1 Cd2 2.228 . S
Cd2 O1 2.228 . S
Cd2 O6 2.273 . S
Cd2 O10 2.277 . S
O3 C0 1.160 . S
O3 Cd4 2.203 . S
Cd4 O3 2.203 . S
Cd4 O6 2.411 . S
Cd4 O7 2.333 . S
Cd4 O8 2.352 . S
Cd4 O12 2.277 . S
Cd4 O13 2.356 . S
C5 O10 1.209 . S
C5 O12 1.226 . S
O6 Cd2 2.273 . S
O6 Cd4 2.411 . S
O6 C9 1.320 . S
O7 Cd4 2.333 . S
O7 C9 1.214 . S
O8 Cd4 2.352 . S
O8 C11 1.258 . S
C9 O6 1.320 . S
C9 O7 1.214 . S
O10 Cd2 2.277 . S
O10 C5 1.209 . S
C11 O8 1.258 . S
C11 O13 1.282 . S
O12 Cd4 2.277 . S
O12 C5 1.226 . S
O13 Cd4 2.356 . S
O13 C11 1.282 . S
C14 O15 1.306 . S
C14 O17 1.160 . S
O15 C14 1.306 . S
O15 Cd16 2.228 . S
Cd16 O15 2.228 . S
Cd16 O20 2.273 . S
Cd16 O24 2.277 . S
O17 C14 1.160 . S
O17 Cd18 2.203 . S
Cd18 O17 2.203 . S
Cd18 O20 2.411 . S
Cd18 O21 2.333 . S
Cd18 O22 2.352 . S
Cd18 O26 2.277 . S
Cd18 O27 2.356 . S
C19 O24 1.209 . S
C19 O26 1.226 . S
O20 Cd16 2.273 . S
O20 Cd18 2.411 . S
O20 C23 1.320 . S
O21 Cd18 2.333 . S
O21 C23 1.214 . S
O22 Cd18 2.352 . S
O22 C25 1.258 . S
C23 O20 1.320 . S
C23 O21 1.214 . S
O24 Cd16 2.277 . S
O24 C19 1.209 . S
C25 O22 1.258 . S
C25 O27 1.282 . S
O26 Cd18 2.277 . S
O26 C19 1.226 . S
O27 Cd18 2.356 . S
O27 C25 1.282 . S
C28 O29 1.306 . S
C28 O31 1.160 . S
O29 C28 1.306 . S
O29 Cd30 2.228 . S
Cd30 O29 2.228 . S
Cd30 O34 2.273 . S
Cd30 O38 2.277 . S
O31 C28 1.160 . S
O31 Cd32 2.203 . S
Cd32 O31 2.203 . S
Cd32 O34 2.411 . S
Cd32 O35 2.333 . S
Cd32 O36 2.352 . S
Cd32 O40 2.277 . S
Cd32 O41 2.356 . S
C33 O38 1.209 . S
C33 O40 1.226 . S
O34 Cd30 2.273 . S
O34 Cd32 2.411 . S
O34 C37 1.320 . S
O35 Cd32 2.333 . S
O35 C37 1.214 . S
O36 Cd32 2.352 . S
O36 C39 1.258 . S
C37 O34 1.320 . S
C37 O35 1.214 . S
O38 Cd30 2.277 . S
O38 C33 1.209 . S
C39 O36 1.258 . S
C39 O41 1.282 . S
O40 Cd32 2.277 . S
O40 C33 1.226 . S
O41 Cd32 2.356 . S
O41 C39 1.282 . S
C42 O43 1.306 . S
C42 O45 1.160 . S
O43 C42 1.306 . S
O43 Cd44 2.228 . S
Cd44 O43 2.228 . S
Cd44 O48 2.273 . S
Cd44 O52 2.277 . S
O45 C42 1.160 . S
O45 Cd46 2.203 . S
Cd46 O45 2.203 . S
Cd46 O48 2.411 . S
Cd46 O49 2.333 . S
Cd46 O50 2.352 . S
Cd46 O54 2.277 . S
Cd46 O55 2.356 . S
C47 O52 1.209 . S
C47 O54 1.226 . S
O48 Cd44 2.273 . S
O48 Cd46 2.411 . S
O48 C51 1.320 . S
O49 Cd46 2.333 . S
O49 C51 1.214 . S
O50 Cd46 2.352 . S
O50 C53 1.258 . S
C51 O48 1.320 . S
C51 O49 1.214 . S
O52 Cd44 2.277 . S
O52 C47 1.209 . S
C53 O50 1.258 . S
C53 O55 1.282 . S
O54 Cd46 2.277 . S
O54 C47 1.226 . S
O55 Cd46 2.356 . S
O55 C53 1.282 . S
C56 O57 1.306 . S
C56 O59 1.160 . S
O57 C56 1.306 . S
O57 Cd58 2.228 . S
Cd58 O57 2.228 . S
Cd58 O62 2.273 . S
Cd58 O66 2.277 . S
O59 C56 1.160 . S
O59 Cd60 2.203 . S
Cd60 O59 2.203 . S
Cd60 O62 2.411 . S
Cd60 O63 2.333 . S
Cd60 O64 2.352 . S
Cd60 O68 2.277 . S
Cd60 O69 2.356 . S
C61 O66 1.209 . S
C61 O68 1.226 . S
O62 Cd58 2.273 . S
O62 Cd60 2.411 . S
O62 C65 1.320 . S
O63 Cd60 2.333 . S
O63 C65 1.214 . S
O64 Cd60 2.352 . S
O64 C67 1.258 . S
C65 O62 1.320 . S
C65 O63 1.214 . S
O66 Cd58 2.277 . S
O66 C61 1.209 . S
C67 O64 1.258 . S
C67 O69 1.282 . S
O68 Cd60 2.277 . S
O68 C61 1.226 . S
O69 Cd60 2.356 . S
O69 C67 1.282 . S
C70 O71 1.306 . S
C70 O73 1.160 . S
O71 C70 1.306 . S
O71 Cd72 2.228 . S
Cd72 O71 2.228 . S
Cd72 O76 2.273 . S
Cd72 O80 2.277 . S
O73 C70 1.160 . S
O73 Cd74 2.203 . S
Cd74 O73 2.203 . S
Cd74 O76 2.411 . S
Cd74 O77 2.333 . S
Cd74 O78 2.352 . S
Cd74 O82 2.277 . S
Cd74 O83 2.356 . S
C75 O80 1.209 . S
C75 O82 1.226 . S
O76 Cd72 2.273 . S
O76 Cd74 2.411 . S
O76 C79 1.320 . S
O77 Cd74 2.333 . S
O77 C79 1.214 . S
O78 Cd74 2.352 . S
O78 C81 1.258 . S
C79 O76 1.320 . S
C79 O77 1.214 . S
O80 Cd72 2.277 . S
O80 C75 1.209 . S
C81 O78 1.258 . S
C81 O83 1.282 . S
O82 Cd74 2.277 . S
O82 C75 1.226 . S
O83 Cd74 2.356 . S
O83 C81 1.282 . S
C84 O85 1.306 . S
C84 O87 1.160 . S
O85 C84 1.306 . S
O85 Cd86 2.228 . S
Cd86 O85 2.228 . S
Cd86 O90 2.273 . S
Cd86 O94 2.277 . S
O87 C84 1.160 . S
O87 Cd88 2.203 . S
Cd88 O87 2.203 . S
Cd88 O90 2.411 . S
Cd88 O91 2.333 . S
Cd88 O92 2.352 . S
Cd88 O96 2.277 . S
Cd88 O97 2.356 . S
C89 O94 1.209 . S
C89 O96 1.226 . S
O90 Cd86 2.273 . S
O90 Cd88 2.411 . S
O90 C93 1.320 . S
O91 Cd88 2.333 . S
O91 C93 1.214 . S
O92 Cd88 2.352 . S
O92 C95 1.258 . S
C93 O90 1.320 . S
C93 O91 1.214 . S
O94 Cd86 2.277 . S
O94 C89 1.209 . S
C95 O92 1.258 . S
C95 O97 1.282 . S
O96 Cd88 2.277 . S
O96 C89 1.226 . S
O97 Cd88 2.356 . S
O97 C95 1.282 . S
C98 O99 1.306 . S
C98 O101 1.160 . S
O99 C98 1.306 . S
O99 Cd100 2.228 . S
Cd100 O99 2.228 . S
Cd100 O104 2.273 . S
Cd100 O108 2.277 . S
O101 C98 1.160 . S
O101 Cd102 2.203 . S
Cd102 O101 2.203 . S
Cd102 O104 2.411 . S
Cd102 O105 2.333 . S
Cd102 O106 2.352 . S
Cd102 O110 2.277 . S
Cd102 O111 2.356 . S
C103 O108 1.209 . S
C103 O110 1.226 . S
O104 Cd100 2.273 . S
O104 Cd102 2.411 . S
O104 C107 1.320 . S
O105 Cd102 2.333 . S
O105 C107 1.214 . S
O106 Cd102 2.352 . S
O106 C109 1.258 . S
C107 O104 1.320 . S
C107 O105 1.214 . S
O108 Cd100 2.277 . S
O108 C103 1.209 . S
C109 O106 1.258 . S
C109 O111 1.282 . S
O110 Cd102 2.277 . S
O110 C103 1.226 . S
O111 Cd102 2.356 . S
O111 C109 1.282 . S
C112 O113 1.306 . S
C112 O115 1.160 . S
O113 C112 1.306 . S
O113 Cd114 2.228 . S
Cd114 O113 2.228 . S
Cd114 O118 2.273 . S
Cd114 O122 2.277 . S
O115 C112 1.160 . S
O115 Cd116 2.203 . S
Cd116 O115 2.203 . S
Cd116 O118 2.411 . S
Cd116 O119 2.333 . S
Cd116 O120 2.352 . S
Cd116 O124 2.277 . S
Cd116 O125 2.356 . S
C117 O122 1.209 . S
C117 O124 1.226 . S
O118 Cd114 2.273 . S
O118 Cd116 2.411 . S
O118 C121 1.320 . S
O119 Cd116 2.333 . S
O119 C121 1.214 . S
O120 Cd116 2.352 . S
O120 C123 1.258 . S
C121 O118 1.320 . S
C121 O119 1.214 . S
O122 Cd114 2.277 . S
O122 C117 1.209 . S
C123 O120 1.258 . S
C123 O125 1.282 . S
O124 Cd116 2.277 . S
O124 C117 1.226 . S
O125 Cd116 2.356 . S
O125 C123 1.282 . S
C126 O127 1.306 . S
C126 O129 1.160 . S
O127 C126 1.306 . S
O127 Cd128 2.228 . S
Cd128 O127 2.228 . S
Cd128 O132 2.273 . S
Cd128 O136 2.277 . S
O129 C126 1.160 . S
O129 Cd130 2.203 . S
Cd130 O129 2.203 . S
Cd130 O132 2.411 . S
Cd130 O133 2.333 . S
Cd130 O134 2.352 . S
Cd130 O138 2.277 . S
Cd130 O139 2.356 . S
C131 O136 1.209 . S
C131 O138 1.226 . S
O132 Cd128 2.273 . S
O132 Cd130 2.411 . S
O132 C135 1.320 . S
O133 Cd130 2.333 . S
O133 C135 1.214 . S
O134 Cd130 2.352 . S
O134 C137 1.258 . S
C135 O132 1.320 . S
C135 O133 1.214 . S
O136 Cd128 2.277 . S
O136 C131 1.209 . S
C137 O134 1.258 . S
C137 O139 1.282 . S
O138 Cd130 2.277 . S
O138 C131 1.226 . S
O139 Cd130 2.356 . S
O139 C137 1.282 . S
C140 O141 1.306 . S
C140 O143 1.160 . S
O141 C140 1.306 . S
O141 Cd142 2.228 . S
Cd142 O141 2.228 . S
Cd142 O146 2.273 . S
Cd142 O150 2.277 . S
O143 C140 1.160 . S
O143 Cd144 2.203 . S
Cd144 O143 2.203 . S
Cd144 O146 2.411 . S
Cd144 O147 2.333 . S
Cd144 O148 2.352 . S
Cd144 O152 2.277 . S
Cd144 O153 2.356 . S
C145 O150 1.209 . S
C145 O152 1.226 . S
O146 Cd142 2.273 . S
O146 Cd144 2.411 . S
O146 C149 1.320 . S
O147 Cd144 2.333 . S
O147 C149 1.214 . S
O148 Cd144 2.352 . S
O148 C151 1.258 . S
C149 O146 1.320 . S
C149 O147 1.214 . S
O150 Cd142 2.277 . S
O150 C145 1.209 . S
C151 O148 1.258 . S
C151 O153 1.282 . S
O152 Cd144 2.277 . S
O152 C145 1.226 . S
O153 Cd144 2.356 . S
O153 C151 1.282 . S
C154 O155 1.306 . S
C154 O157 1.160 . S
O155 C154 1.306 . S
O155 Cd156 2.228 . S
Cd156 O155 2.228 . S
Cd156 O160 2.273 . S
Cd156 O164 2.277 . S
O157 C154 1.160 . S
O157 Cd158 2.203 . S
Cd158 O157 2.203 . S
Cd158 O160 2.411 . S
Cd158 O161 2.333 . S
Cd158 O162 2.352 . S
Cd158 O166 2.277 . S
Cd158 O167 2.356 . S
C159 O164 1.209 . S
C159 O166 1.226 . S
O160 Cd156 2.273 . S
O160 Cd158 2.411 . S
O160 C163 1.320 . S
O161 Cd158 2.333 . S
O161 C163 1.214 . S
O162 Cd158 2.352 . S
O162 C165 1.258 . S
C163 O160 1.320 . S
C163 O161 1.214 . S
O164 Cd156 2.277 . S
O164 C159 1.209 . S
C165 O162 1.258 . S
C165 O167 1.282 . S
O166 Cd158 2.277 . S
O166 C159 1.226 . S
O167 Cd158 2.356 . S
O167 C165 1.282 . S
C168 O169 1.306 . S
C168 O171 1.160 . S
O169 C168 1.306 . S
O169 Cd170 2.228 . S
Cd170 O169 2.228 . S
Cd170 O174 2.273 . S
Cd170 O178 2.277 . S
O171 C168 1.160 . S
O171 Cd172 2.203 . S
Cd172 O171 2.203 . S
Cd172 O174 2.411 . S
Cd172 O175 2.333 . S
Cd172 O176 2.352 . S
Cd172 O180 2.277 . S
Cd172 O181 2.356 . S
C173 O178 1.209 . S
C173 O180 1.226 . S
O174 Cd170 2.273 . S
O174 Cd172 2.411 . S
O174 C177 1.320 . S
O175 Cd172 2.333 . S
O175 C177 1.214 . S
O176 Cd172 2.352 . S
O176 C179 1.258 . S
C177 O174 1.320 . S
C177 O175 1.214 . S
O178 Cd170 2.277 . S
O178 C173 1.209 . S
C179 O176 1.258 . S
C179 O181 1.282 . S
O180 Cd172 2.277 . S
O180 C173 1.226 . S
O181 Cd172 2.356 . S
O181 C179 1.282 . S
C182 O183 1.306 . S
C182 O185 1.160 . S
O183 C182 1.306 . S
O183 Cd184 2.228 . S
Cd184 O183 2.228 . S
Cd184 O188 2.273 . S
Cd184 O192 2.277 . S
O185 C182 1.160 . S
O185 Cd186 2.203 . S
Cd186 O185 2.203 . S
Cd186 O188 2.411 . S
Cd186 O189 2.333 . S
Cd186 O190 2.352 . S
Cd186 O194 2.277 . S
Cd186 O195 2.356 . S
C187 O192 1.209 . S
C187 O194 1.226 . S
O188 Cd184 2.273 . S
O188 Cd186 2.411 . S
O188 C191 1.320 . S
O189 Cd186 2.333 . S
O189 C191 1.214 . S
O190 Cd186 2.352 . S
O190 C193 1.258 . S
C191 O188 1.320 . S
C191 O189 1.214 . S
O192 Cd184 2.277 . S
O192 C187 1.209 . S
C193 O190 1.258 . S
C193 O195 1.282 . S
O194 Cd186 2.277 . S
O194 C187 1.226 . S
O195 Cd186 2.356 . S
O195 C193 1.282 . S
C196 O197 1.306 . S
C196 O199 1.160 . S
O197 C196 1.306 . S
O197 Cd198 2.228 . S
Cd198 O197 2.228 . S
Cd198 O202 2.273 . S
Cd198 O206 2.277 . S
O199 C196 1.160 . S
O199 Cd200 2.203 . S
Cd200 O199 2.203 . S
Cd200 O202 2.411 . S
Cd200 O203 2.333 . S
Cd200 O204 2.352 . S
Cd200 O208 2.277 . S
Cd200 O209 2.356 . S
C201 O206 1.209 . S
C201 O208 1.226 . S
O202 Cd198 2.273 . S
O202 Cd200 2.411 . S
O202 C205 1.320 . S
O203 Cd200 2.333 . S
O203 C205 1.214 . S
O204 Cd200 2.352 . S
O204 C207 1.258 . S
C205 O202 1.320 . S
C205 O203 1.214 . S
O206 Cd198 2.277 . S
O206 C201 1.209 . S
C207 O204 1.258 . S
C207 O209 1.282 . S
O208 Cd200 2.277 . S
O208 C201 1.226 . S
O209 Cd200 2.356 . S
O209 C207 1.282 . S
C210 O211 1.306 . S
C210 O213 1.160 . S
O211 C210 1.306 . S
O211 Cd212 2.228 . S
Cd212 O211 2.228 . S
Cd212 O216 2.273 . S
Cd212 O220 2.277 . S
O213 C210 1.160 . S
O213 Cd214 2.203 . S
Cd214 O213 2.203 . S
Cd214 O216 2.411 . S
Cd214 O217 2.333 . S
Cd214 O218 2.352 . S
Cd214 O222 2.277 . S
Cd214 O223 2.356 . S
C215 O220 1.209 . S
C215 O222 1.226 . S
O216 Cd212 2.273 . S
O216 Cd214 2.411 . S
O216 C219 1.320 . S
O217 Cd214 2.333 . S
O217 C219 1.214 . S
O218 Cd214 2.352 . S
O218 C221 1.258 . S
C219 O216 1.320 . S
C219 O217 1.214 . S
O220 Cd212 2.277 . S
O220 C215 1.209 . S
C221 O218 1.258 . S
C221 O223 1.282 . S
O222 Cd214 2.277 . S
O222 C215 1.226 . S
O223 Cd214 2.356 . S
O223 C221 1.282 . S
C224 O225 1.306 . S
C224 O227 1.160 . S
O225 C224 1.306 . S
O225 Cd226 2.228 . S
Cd226 O225 2.228 . S
Cd226 O230 2.273 . S
Cd226 O234 2.277 . S
O227 C224 1.160 . S
O227 Cd228 2.203 . S
Cd228 O227 2.203 . S
Cd228 O230 2.411 . S
Cd228 O231 2.333 . S
Cd228 O232 2.352 . S
Cd228 O236 2.277 . S
Cd228 O237 2.356 . S
C229 O234 1.209 . S
C229 O236 1.226 . S
O230 Cd226 2.273 . S
O230 Cd228 2.411 . S
O230 C233 1.320 . S
O231 Cd228 2.333 . S
O231 C233 1.214 . S
O232 Cd228 2.352 . S
O232 C235 1.258 . S
C233 O230 1.320 . S
C233 O231 1.214 . S
O234 Cd226 2.277 . S
O234 C229 1.209 . S
C235 O232 1.258 . S
C235 O237 1.282 . S
O236 Cd228 2.277 . S
O236 C229 1.226 . S
O237 Cd228 2.356 . S
O237 C235 1.282 . S
C238 O239 1.306 . S
C238 O241 1.160 . S
O239 C238 1.306 . S
O239 Cd240 2.228 . S
Cd240 O239 2.228 . S
Cd240 O244 2.273 . S
Cd240 O248 2.277 . S
O241 C238 1.160 . S
O241 Cd242 2.203 . S
Cd242 O241 2.203 . S
Cd242 O244 2.411 . S
Cd242 O245 2.333 . S
Cd242 O246 2.352 . S
Cd242 O250 2.277 . S
Cd242 O251 2.356 . S
C243 O248 1.209 . S
C243 O250 1.226 . S
O244 Cd240 2.273 . S
O244 Cd242 2.411 . S
O244 C247 1.320 . S
O245 Cd242 2.333 . S
O245 C247 1.214 . S
O246 Cd242 2.352 . S
O246 C249 1.258 . S
C247 O244 1.320 . S
C247 O245 1.214 . S
O248 Cd240 2.277 . S
O248 C243 1.209 . S
C249 O246 1.258 . S
C249 O251 1.282 . S
O250 Cd242 2.277 . S
O250 C243 1.226 . S
O251 Cd242 2.356 . S
O251 C249 1.282 . S
C252 O253 1.306 . S
C252 O255 1.160 . S
O253 C252 1.306 . S
O253 Cd254 2.228 . S
Cd254 O253 2.228 . S
Cd254 O258 2.273 . S
Cd254 O262 2.277 . S
O255 C252 1.160 . S
O255 Cd256 2.203 . S
Cd256 O255 2.203 . S
Cd256 O258 2.411 . S
Cd256 O259 2.333 . S
Cd256 O260 2.352 . S
Cd256 O264 2.277 . S
Cd256 O265 2.356 . S
C257 O262 1.209 . S
C257 O264 1.226 . S
O258 Cd254 2.273 . S
O258 Cd256 2.411 . S
O258 C261 1.320 . S
O259 Cd256 2.333 . S
O259 C261 1.214 . S
O260 Cd256 2.352 . S
O260 C263 1.258 . S
C261 O258 1.320 . S
C261 O259 1.214 . S
O262 Cd254 2.277 . S
O262 C257 1.209 . S
C263 O260 1.258 . S
C263 O265 1.282 . S
O264 Cd256 2.277 . S
O264 C257 1.226 . S
O265 Cd256 2.356 . S
O265 C263 1.282 . S
C266 O267 1.306 . S
C266 O269 1.160 . S
O267 C266 1.306 . S
O267 Cd268 2.228 . S
Cd268 O267 2.228 . S
Cd268 O272 2.273 . S
Cd268 O276 2.277 . S
O269 C266 1.160 . S
O269 Cd270 2.203 . S
Cd270 O269 2.203 . S
Cd270 O272 2.411 . S
Cd270 O273 2.333 . S
Cd270 O274 2.352 . S
Cd270 O278 2.277 . S
Cd270 O279 2.356 . S
C271 O276 1.209 . S
C271 O278 1.226 . S
O272 Cd268 2.273 . S
O272 Cd270 2.411 . S
O272 C275 1.320 . S
O273 Cd270 2.333 . S
O273 C275 1.214 . S
O274 Cd270 2.352 . S
O274 C277 1.258 . S
C275 O272 1.320 . S
C275 O273 1.214 . S
O276 Cd268 2.277 . S
O276 C271 1.209 . S
C277 O274 1.258 . S
C277 O279 1.282 . S
O278 Cd270 2.277 . S
O278 C271 1.226 . S
O279 Cd270 2.356 . S
O279 C277 1.282 . S
C280 O281 1.306 . S
C280 O283 1.160 . S
O281 C280 1.306 . S
O281 Cd282 2.228 . S
Cd282 O281 2.228 . S
Cd282 O286 2.273 . S
Cd282 O290 2.277 . S
O283 C280 1.160 . S
O283 Cd284 2.203 . S
Cd284 O283 2.203 . S
Cd284 O286 2.411 . S
Cd284 O287 2.333 . S
Cd284 O288 2.352 . S
Cd284 O292 2.277 . S
Cd284 O293 2.356 . S
C285 O290 1.209 . S
C285 O292 1.226 . S
O286 Cd282 2.273 . S
O286 Cd284 2.411 . S
O286 C289 1.320 . S
O287 Cd284 2.333 . S
O287 C289 1.214 . S
O288 Cd284 2.352 . S
O288 C291 1.258 . S
C289 O286 1.320 . S
C289 O287 1.214 . S
O290 Cd282 2.277 . S
O290 C285 1.209 . S
C291 O288 1.258 . S
C291 O293 1.282 . S
O292 Cd284 2.277 . S
O292 C285 1.226 . S
O293 Cd284 2.356 . S
O293 C291 1.282 . S
C294 O295 1.306 . S
C294 O297 1.160 . S
O295 C294 1.306 . S
O295 Cd296 2.228 . S
Cd296 O295 2.228 . S
Cd296 O300 2.273 . S
Cd296 O304 2.277 . S
O297 C294 1.160 . S
O297 Cd298 2.203 . S
Cd298 O297 2.203 . S
Cd298 O300 2.411 . S
Cd298 O301 2.333 . S
Cd298 O302 2.352 . S
Cd298 O306 2.277 . S
Cd298 O307 2.356 . S
C299 O304 1.209 . S
C299 O306 1.226 . S
O300 Cd296 2.273 . S
O300 Cd298 2.411 . S
O300 C303 1.320 . S
O301 Cd298 2.333 . S
O301 C303 1.214 . S
O302 Cd298 2.352 . S
O302 C305 1.258 . S
C303 O300 1.320 . S
C303 O301 1.214 . S
O304 Cd296 2.277 . S
O304 C299 1.209 . S
C305 O302 1.258 . S
C305 O307 1.282 . S
O306 Cd298 2.277 . S
O306 C299 1.226 . S
O307 Cd298 2.356 . S
O307 C305 1.282 . S
C308 O309 1.306 . S
C308 O311 1.160 . S
O309 C308 1.306 . S
O309 Cd310 2.228 . S
Cd310 O309 2.228 . S
Cd310 O314 2.273 . S
Cd310 O318 2.277 . S
O311 C308 1.160 . S
O311 Cd312 2.203 . S
Cd312 O311 2.203 . S
Cd312 O314 2.411 . S
Cd312 O315 2.333 . S
Cd312 O316 2.352 . S
Cd312 O320 2.277 . S
Cd312 O321 2.356 . S
C313 O318 1.209 . S
C313 O320 1.226 . S
O314 Cd310 2.273 . S
O314 Cd312 2.411 . S
O314 C317 1.320 . S
O315 Cd312 2.333 . S
O315 C317 1.214 . S
O316 Cd312 2.352 . S
O316 C319 1.258 . S
C317 O314 1.320 . S
C317 O315 1.214 . S
O318 Cd310 2.277 . S
O318 C313 1.209 . S
C319 O316 1.258 . S
C319 O321 1.282 . S
O320 Cd312 2.277 . S
O320 C313 1.226 . S
O321 Cd312 2.356 . S
O321 C319 1.282 . S
C322 O323 1.306 . S
C322 O325 1.160 . S
O323 C322 1.306 . S
O323 Cd324 2.228 . S
Cd324 O323 2.228 . S
Cd324 O328 2.273 . S
Cd324 O332 2.277 . S
O325 C322 1.160 . S
O325 Cd326 2.203 . S
Cd326 O325 2.203 . S
Cd326 O328 2.411 . S
Cd326 O329 2.333 . S
Cd326 O330 2.352 . S
Cd326 O334 2.277 . S
Cd326 O335 2.356 . S
C327 O332 1.209 . S
C327 O334 1.226 . S
O328 Cd324 2.273 . S
O328 Cd326 2.411 . S
O328 C331 1.320 . S
O329 Cd326 2.333 . S
O329 C331 1.214 . S
O330 Cd326 2.352 . S
O330 C333 1.258 . S
C331 O328 1.320 . S
C331 O329 1.214 . S
O332 Cd324 2.277 . S
O332 C327 1.209 . S
C333 O330 1.258 . S
C333 O335 1.282 . S
O334 Cd326 2.277 . S
O334 C327 1.226 . S
O335 Cd326 2.356 . S
O335 C333 1.282 . S
C336 O337 1.306 . S
C336 O339 1.160 . S
O337 C336 1.306 . S
O337 Cd338 2.228 . S
Cd338 O337 2.228 . S
Cd338 O342 2.273 . S
Cd338 O346 2.277 . S
O339 C336 1.160 . S
O339 Cd340 2.203 . S
Cd340 O339 2.203 . S
Cd340 O342 2.411 . S
Cd340 O343 2.333 . S
Cd340 O344 2.352 . S
Cd340 O348 2.277 . S
Cd340 O349 2.356 . S
C341 O346 1.209 . S
C341 O348 1.226 . S
O342 Cd338 2.273 . S
O342 Cd340 2.411 . S
O342 C345 1.320 . S
O343 Cd340 2.333 . S
O343 C345 1.214 . S
O344 Cd340 2.352 . S
O344 C347 1.258 . S
C345 O342 1.320 . S
C345 O343 1.214 . S
O346 Cd338 2.277 . S
O346 C341 1.209 . S
C347 O344 1.258 . S
C347 O349 1.282 . S
O348 Cd340 2.277 . S
O348 C341 1.226 . S
O349 Cd340 2.356 . S
O349 C347 1.282 . S
C350 O351 1.306 . S
C350 O353 1.160 . S
O351 C350 1.306 . S
O351 Cd352 2.228 . S
Cd352 O351 2.228 . S
Cd352 O356 2.273 . S
Cd352 O360 2.277 . S
O353 C350 1.160 . S
O353 Cd354 2.203 . S
Cd354 O353 2.203 . S
Cd354 O356 2.411 . S
Cd354 O357 2.333 . S
Cd354 O358 2.352 . S
Cd354 O362 2.277 . S
Cd354 O363 2.356 . S
C355 O360 1.209 . S
C355 O362 1.226 . S
O356 Cd352 2.273 . S
O356 Cd354 2.411 . S
O356 C359 1.320 . S
O357 Cd354 2.333 . S
O357 C359 1.214 . S
O358 Cd354 2.352 . S
O358 C361 1.258 . S
C359 O356 1.320 . S
C359 O357 1.214 . S
O360 Cd352 2.277 . S
O360 C355 1.209 . S
C361 O358 1.258 . S
C361 O363 1.282 . S
O362 Cd354 2.277 . S
O362 C355 1.226 . S
O363 Cd354 2.356 . S
O363 C361 1.282 . S
C364 O365 1.306 . S
C364 O367 1.160 . S
O365 C364 1.306 . S
O365 Cd366 2.228 . S
Cd366 O365 2.228 . S
Cd366 O370 2.273 . S
Cd366 O374 2.277 . S
O367 C364 1.160 . S
O367 Cd368 2.203 . S
Cd368 O367 2.203 . S
Cd368 O370 2.411 . S
Cd368 O371 2.333 . S
Cd368 O372 2.352 . S
Cd368 O376 2.277 . S
Cd368 O377 2.356 . S
C369 O374 1.209 . S
C369 O376 1.226 . S
O370 Cd366 2.273 . S
O370 Cd368 2.411 . S
O370 C373 1.320 . S
O371 Cd368 2.333 . S
O371 C373 1.214 . S
O372 Cd368 2.352 . S
O372 C375 1.258 . S
C373 O370 1.320 . S
C373 O371 1.214 . S
O374 Cd366 2.277 . S
O374 C369 1.209 . S
C375 O372 1.258 . S
C375 O377 1.282 . S
O376 Cd368 2.277 . S
O376 C369 1.226 . S
O377 Cd368 2.356 . S
O377 C375 1.282 . S
C378 O379 1.306 . S
C378 O381 1.160 . S
O379 C378 1.306 . S
O379 Cd380 2.228 . S
Cd380 O379 2.228 . S
Cd380 O384 2.273 . S
Cd380 O388 2.277 . S
O381 C378 1.160 . S
O381 Cd382 2.203 . S
Cd382 O381 2.203 . S
Cd382 O384 2.411 . S
Cd382 O385 2.333 . S
Cd382 O386 2.352 . S
Cd382 O390 2.277 . S
Cd382 O391 2.356 . S
C383 O388 1.209 . S
C383 O390 1.226 . S
O384 Cd380 2.273 . S
O384 Cd382 2.411 . S
O384 C387 1.320 . S
O385 Cd382 2.333 . S
O385 C387 1.214 . S
O386 Cd382 2.352 . S
O386 C389 1.258 . S
C387 O384 1.320 . S
C387 O385 1.214 . S
O388 Cd380 2.277 . S
O388 C383 1.209 . S
C389 O386 1.258 . S
C389 O391 1.282 . S
O390 Cd382 2.277 . S
O390 C383 1.226 . S
O391 Cd382 2.356 . S
O391 C389 1.282 . S
C392 O393 1.306 . S
C392 O395 1.160 . S
O393 C392 1.306 . S
O393 Cd394 2.228 . S
Cd394 O393 2.228 . S
Cd394 O398 2.273 . S
Cd394 O402 2.277 . S
O395 C392 1.160 . S
O395 Cd396 2.203 . S
Cd396 O395 2.203 . S
Cd396 O398 2.411 . S
Cd396 O399 2.333 . S
Cd396 O400 2.352 . S
Cd396 O404 2.277 . S
Cd396 O405 2.356 . S
C397 O402 1.209 . S
C397 O404 1.226 . S
O398 Cd394 2.273 . S
O398 Cd396 2.411 . S
O398 C401 1.320 . S
O399 Cd396 2.333 . S
O399 C401 1.214 . S
O400 Cd396 2.352 . S
O400 C403 1.258 . S
C401 O398 1.320 . S
C401 O399 1.214 . S
O402 Cd394 2.277 . S
O402 C397 1.209 . S
C403 O400 1.258 . S
C403 O405 1.282 . S
O404 Cd396 2.277 . S
O404 C397 1.226 . S
O405 Cd396 2.356 . S
O405 C403 1.282 . S
C406 O407 1.306 . S
C406 O409 1.160 . S
O407 C406 1.306 . S
O407 Cd408 2.228 . S
Cd408 O407 2.228 . S
Cd408 O412 2.273 . S
Cd408 O416 2.277 . S
O409 C406 1.160 . S
O409 Cd410 2.203 . S
Cd410 O409 2.203 . S
Cd410 O412 2.411 . S
Cd410 O413 2.333 . S
Cd410 O414 2.352 . S
Cd410 O418 2.277 . S
Cd410 O419 2.356 . S
C411 O416 1.209 . S
C411 O418 1.226 . S
O412 Cd408 2.273 . S
O412 Cd410 2.411 . S
O412 C415 1.320 . S
O413 Cd410 2.333 . S
O413 C415 1.214 . S
O414 Cd410 2.352 . S
O414 C417 1.258 . S
C415 O412 1.320 . S
C415 O413 1.214 . S
O416 Cd408 2.277 . S
O416 C411 1.209 . S
C417 O414 1.258 . S
C417 O419 1.282 . S
O418 Cd410 2.277 . S
O418 C411 1.226 . S
O419 Cd410 2.356 . S
O419 C417 1.282 . S
C420 O421 1.306 . S
C420 O423 1.160 . S
O421 C420 1.306 . S
O421 Cd422 2.228 . S
Cd422 O421 2.228 . S
Cd422 O426 2.273 . S
Cd422 O430 2.277 . S
O423 C420 1.160 . S
O423 Cd424 2.203 . S
Cd424 O423 2.203 . S
Cd424 O426 2.411 . S
Cd424 O427 2.333 . S
Cd424 O428 2.352 . S
Cd424 O432 2.277 . S
Cd424 O433 2.356 . S
C425 O430 1.209 . S
C425 O432 1.226 . S
O426 Cd422 2.273 . S
O426 Cd424 2.411 . S
O426 C429 1.320 . S
O427 Cd424 2.333 . S
O427 C429 1.214 . S
O428 Cd424 2.352 . S
O428 C431 1.258 . S
C429 O426 1.320 . S
C429 O427 1.214 . S
O430 Cd422 2.277 . S
O430 C425 1.209 . S
C431 O428 1.258 . S
C431 O433 1.282 . S
O432 Cd424 2.277 . S
O432 C425 1.226 . S
O433 Cd424 2.356 . S
O433 C431 1.282 . S
C434 O435 1.306 . S
C434 O437 1.160 . S
O435 C434 1.306 . S
O435 Cd436 2.228 . S
Cd436 O435 2.228 . S
Cd436 O440 2.273 . S
Cd436 O444 2.277 . S
O437 C434 1.160 . S
O437 Cd438 2.203 . S
Cd438 O437 2.203 . S
Cd438 O440 2.411 . S
Cd438 O441 2.333 . S
Cd438 O442 2.352 . S
Cd438 O446 2.277 . S
Cd438 O447 2.356 . S
C439 O444 1.209 . S
C439 O446 1.226 . S
O440 Cd436 2.273 . S
O440 Cd438 2.411 . S
O440 C443 1.320 . S
O441 Cd438 2.333 . S
O441 C443 1.214 . S
O442 Cd438 2.352 . S
O442 C445 1.258 . S
C443 O440 1.320 . S
C443 O441 1.214 . S
O444 Cd436 2.277 . S
O444 C439 1.209 . S
C445 O442 1.258 . S
C445 O447 1.282 . S
O446 Cd438 2.277 . S
O446 C439 1.226 . S
O447 Cd438 2.356 . S
O447 C445 1.282 . S
C448 O449 1.306 . S
C448 O451 1.160 . S
O449 C448 1.306 . S
O449 Cd450 2.228 . S
Cd450 O449 2.228 . S
Cd450 O454 2.273 . S
Cd450 O458 2.277 . S
O451 C448 1.160 . S
O451 Cd452 2.203 . S
Cd452 O451 2.203 . S
Cd452 O454 2.411 . S
Cd452 O455 2.333 . S
Cd452 O456 2.352 . S
Cd452 O460 2.277 . S
Cd452 O461 2.356 . S
C453 O458 1.209 . S
C453 O460 1.226 . S
O454 Cd450 2.273 . S
O454 Cd452 2.411 . S
O454 C457 1.320 . S
O455 Cd452 2.333 . S
O455 C457 1.214 . S
O456 Cd452 2.352 . S
O456 C459 1.258 . S
C457 O454 1.320 . S
C457 O455 1.214 . S
O458 Cd450 2.277 . S
O458 C453 1.209 . S
C459 O456 1.258 . S
C459 O461 1.282 . S
O460 Cd452 2.277 . S
O460 C453 1.226 . S
O461 Cd452 2.356 . S
O461 C459 1.282 . S
C462 O463 1.306 . S
C462 O465 1.160 . S
O463 C462 1.306 . S
O463 Cd464 2.228 . S
Cd464 O463 2.228 . S
Cd464 O468 2.273 . S
Cd464 O472 2.277 . S
O465 C462 1.160 . S
O465 Cd466 2.203 . S
Cd466 O465 2.203 . S
Cd466 O468 2.411 . S
Cd466 O469 2.333 . S
Cd466 O470 2.352 . S
Cd466 O474 2.277 . S
Cd466 O475 2.356 . S
C467 O472 1.209 . S
C467 O474 1.226 . S
O468 Cd464 2.273 . S
O468 Cd466 2.411 . S
O468 C471 1.320 . S
O469 Cd466 2.333 . S
O469 C471 1.214 . S
O470 Cd466 2.352 . S
O470 C473 1.258 . S
C471 O468 1.320 . S
C471 O469 1.214 . S
O472 Cd464 2.277 . S
O472 C467 1.209 . S
C473 O470 1.258 . S
C473 O475 1.282 . S
O474 Cd466 2.277 . S
O474 C467 1.226 . S
O475 Cd466 2.356 . S
O475 C473 1.282 . S
C476 O477 1.306 . S
C476 O479 1.160 . S
O477 C476 1.306 . S
O477 Cd478 2.228 . S
Cd478 O477 2.228 . S
Cd478 O482 2.273 . S
Cd478 O486 2.277 . S
O479 C476 1.160 . S
O479 Cd480 2.203 . S
Cd480 O479 2.203 . S
Cd480 O482 2.411 . S
Cd480 O483 2.333 . S
Cd480 O484 2.352 . S
Cd480 O488 2.277 . S
Cd480 O489 2.356 . S
C481 O486 1.209 . S
C481 O488 1.226 . S
O482 Cd478 2.273 . S
O482 Cd480 2.411 . S
O482 C485 1.320 . S
O483 Cd480 2.333 . S
O483 C485 1.214 . S
O484 Cd480 2.352 . S
O484 C487 1.258 . S
C485 O482 1.320 . S
C485 O483 1.214 . S
O486 Cd478 2.277 . S
O486 C481 1.209 . S
C487 O484 1.258 . S
C487 O489 1.282 . S
O488 Cd480 2.277 . S
O488 C481 1.226 . S
O489 Cd480 2.356 . S
O489 C487 1.282 . S
C490 O491 1.306 . S
C490 O493 1.160 . S
O491 C490 1.306 . S
O491 Cd492 2.228 . S
Cd492 O491 2.228 . S
Cd492 O496 2.273 . S
Cd492 O500 2.277 . S
O493 C490 1.160 . S
O493 Cd494 2.203 . S
Cd494 O493 2.203 . S
Cd494 O496 2.411 . S
Cd494 O497 2.333 . S
Cd494 O498 2.352 . S
Cd494 O502 2.277 . S
Cd494 O503 2.356 . S
C495 O500 1.209 . S
C495 O502 1.226 . S
O496 Cd492 2.273 . S
O496 Cd494 2.411 . S
O496 C499 1.320 . S
O497 Cd494 2.333 . S
O497 C499 1.214 . S
O498 Cd494 2.352 . S
O498 C501 1.258 . S
C499 O496 1.320 . S
C499 O497 1.214 . S
O500 Cd492 2.277 . S
O500 C495 1.209 . S
C501 O498 1.258 . S
C501 O503 1.282 . S
O502 Cd494 2.277 . S
O502 C495 1.226 . S
O503 Cd494 2.356 . S
O503 C501 1.282 . S
C504 O505 1.306 . S
C504 O507 1.160 . S
O505 C504 1.306 . S
O505 Cd506 2.228 . S
Cd506 O505 2.228 . S
Cd506 O510 2.273 . S
Cd506 O514 2.277 . S
O507 C504 1.160 . S
O507 Cd508 2.203 . S
Cd508 O507 2.203 . S
Cd508 O510 2.411 . S
Cd508 O511 2.333 . S
Cd508 O512 2.352 . S
Cd508 O516 2.277 . S
Cd508 O517 2.356 . S
C509 O514 1.209 . S
C509 O516 1.226 . S
O510 Cd506 2.273 . S
O510 Cd508 2.411 . S
O510 C513 1.320 . S
O511 Cd508 2.333 . S
O511 C513 1.214 . S
O512 Cd508 2.352 . S
O512 C515 1.258 . S
C513 O510 1.320 . S
C513 O511 1.214 . S
O514 Cd506 2.277 . S
O514 C509 1.209 . S
C515 O512 1.258 . S
C515 O517 1.282 . S
O516 Cd508 2.277 . S
O516 C509 1.226 . S
O517 Cd508 2.356 . S
O517 C515 1.282 . S
C518 O519 1.306 . S
C518 O521 1.160 . S
O519 C518 1.306 . S
O519 Cd520 2.228 . S
Cd520 O519 2.228 . S
Cd520 O524 2.273 . S
Cd520 O528 2.277 . S
O521 C518 1.160 . S
O521 Cd522 2.203 . S
Cd522 O521 2.203 . S
Cd522 O524 2.411 . S
Cd522 O525 2.333 . S
Cd522 O526 2.352 . S
Cd522 O530 2.277 . S
Cd522 O531 2.356 . S
C523 O528 1.209 . S
C523 O530 1.226 . S
O524 Cd520 2.273 . S
O524 Cd522 2.411 . S
O524 C527 1.320 . S
O525 Cd522 2.333 . S
O525 C527 1.214 . S
O526 Cd522 2.352 . S
O526 C529 1.258 . S
C527 O524 1.320 . S
C527 O525 1.214 . S
O528 Cd520 2.277 . S
O528 C523 1.209 . S
C529 O526 1.258 . S
C529 O531 1.282 . S
O530 Cd522 2.277 . S
O530 C523 1.226 . S
O531 Cd522 2.356 . S
O531 C529 1.282 . S
C532 O533 1.306 . S
C532 O535 1.160 . S
O533 C532 1.306 . S
O533 Cd534 2.228 . S
Cd534 O533 2.228 . S
Cd534 O538 2.273 . S
Cd534 O542 2.277 . S
O535 C532 1.160 . S
O535 Cd536 2.203 . S
Cd536 O535 2.203 . S
Cd536 O538 2.411 . S
Cd536 O539 2.333 . S
Cd536 O540 2.352 . S
Cd536 O544 2.277 . S
Cd536 O545 2.356 . S
C537 O542 1.209 . S
C537 O544 1.226 . S
O538 Cd534 2.273 . S
O538 Cd536 2.411 . S
O538 C541 1.320 . S
O539 Cd536 2.333 . S
O539 C541 1.214 . S
O540 Cd536 2.352 . S
O540 C543 1.258 . S
C541 O538 1.320 . S
C541 O539 1.214 . S
O542 Cd534 2.277 . S
O542 C537 1.209 . S
C543 O540 1.258 . S
C543 O545 1.282 . S
O544 Cd536 2.277 . S
O544 C537 1.226 . S
O545 Cd536 2.356 . S
O545 C543 1.282 . S
C546 O547 1.306 . S
C546 O549 1.160 . S
O547 C546 1.306 . S
O547 Cd548 2.228 . S
Cd548 O547 2.228 . S
Cd548 O552 2.273 . S
Cd548 O556 2.277 . S
O549 C546 1.160 . S
O549 Cd550 2.203 . S
Cd550 O549 2.203 . S
Cd550 O552 2.411 . S
Cd550 O553 2.333 . S
Cd550 O554 2.352 . S
Cd550 O558 2.277 . S
Cd550 O559 2.356 . S
C551 O556 1.209 . S
C551 O558 1.226 . S
O552 Cd548 2.273 . S
O552 Cd550 2.411 . S
O552 C555 1.320 . S
O553 Cd550 2.333 . S
O553 C555 1.214 . S
O554 Cd550 2.352 . S
O554 C557 1.258 . S
C555 O552 1.320 . S
C555 O553 1.214 . S
O556 Cd548 2.277 . S
O556 C551 1.209 . S
C557 O554 1.258 . S
C557 O559 1.282 . S
O558 Cd550 2.277 . S
O558 C551 1.226 . S
O559 Cd550 2.356 . S
O559 C557 1.282 . S
C560 O561 1.306 . S
C560 O563 1.160 . S
O561 C560 1.306 . S
O561 Cd562 2.228 . S
Cd562 O561 2.228 . S
Cd562 O566 2.273 . S
Cd562 O570 2.277 . S
O563 C560 1.160 . S
O563 Cd564 2.203 . S
Cd564 O563 2.203 . S
Cd564 O566 2.411 . S
Cd564 O567 2.333 . S
Cd564 O568 2.352 . S
Cd564 O572 2.277 . S
Cd564 O573 2.356 . S
C565 O570 1.209 . S
C565 O572 1.226 . S
O566 Cd562 2.273 . S
O566 Cd564 2.411 . S
O566 C569 1.320 . S
O567 Cd564 2.333 . S
O567 C569 1.214 . S
O568 Cd564 2.352 . S
O568 C571 1.258 . S
C569 O566 1.320 . S
C569 O567 1.214 . S
O570 Cd562 2.277 . S
O570 C565 1.209 . S
C571 O568 1.258 . S
C571 O573 1.282 . S
O572 Cd564 2.277 . S
O572 C565 1.226 . S
O573 Cd564 2.356 . S
O573 C571 1.282 . S
C574 O575 1.306 . S
C574 O577 1.160 . S
O575 C574 1.306 . S
O575 Cd576 2.228 . S
Cd576 O575 2.228 . S
Cd576 O580 2.273 . S
Cd576 O584 2.277 . S
O577 C574 1.160 . S
O577 Cd578 2.203 . S
Cd578 O577 2.203 . S
Cd578 O580 2.411 . S
Cd578 O581 2.333 . S
Cd578 O582 2.352 . S
Cd578 O586 2.277 . S
Cd578 O587 2.356 . S
C579 O584 1.209 . S
C579 O586 1.226 . S
O580 Cd576 2.273 . S
O580 Cd578 2.411 . S
O580 C583 1.320 . S
O581 Cd578 2.333 . S
O581 C583 1.214 . S
O582 Cd578 2.352 . S
O582 C585 1.258 . S
C583 O580 1.320 . S
C583 O581 1.214 . S
O584 Cd576 2.277 . S
O584 C579 1.209 . S
C585 O582 1.258 . S
C585 O587 1.282 . S
O586 Cd578 2.277 . S
O586 C579 1.226 . S
O587 Cd578 2.356 . S
O587 C585 1.282 . S
C588 O589 1.306 . S
C588 O591 1.160 . S
O589 C588 1.306 . S
O589 Cd590 2.228 . S
Cd590 O589 2.228 . S
Cd590 O594 2.273 . S
Cd590 O598 2.277 . S
O591 C588 1.160 . S
O591 Cd592 2.203 . S
Cd592 O591 2.203 . S
Cd592 O594 2.411 . S
Cd592 O595 2.333 . S
Cd592 O596 2.352 . S
Cd592 O600 2.277 . S
Cd592 O601 2.356 . S
C593 O598 1.209 . S
C593 O600 1.226 . S
O594 Cd590 2.273 . S
O594 Cd592 2.411 . S
O594 C597 1.320 . S
O595 Cd592 2.333 . S
O595 C597 1.214 . S
O596 Cd592 2.352 . S
O596 C599 1.258 . S
C597 O594 1.320 . S
C597 O595 1.214 . S
O598 Cd590 2.277 . S
O598 C593 1.209 . S
C599 O596 1.258 . S
C599 O601 1.282 . S
O600 Cd592 2.277 . S
O600 C593 1.226 . S
O601 Cd592 2.356 . S
O601 C599 1.282 . S
C602 O603 1.306 . S
C602 O605 1.160 . S
O603 C602 1.306 . S
O603 Cd604 2.228 . S
Cd604 O603 2.228 . S
Cd604 O608 2.273 . S
Cd604 O612 2.277 . S
O605 C602 1.160 . S
O605 Cd606 2.203 . S
Cd606 O605 2.203 . S
Cd606 O608 2.411 . S
Cd606 O609 2.333 . S
Cd606 O610 2.352 . S
Cd606 O614 2.277 . S
Cd606 O615 2.356 . S
C607 O612 1.209 . S
C607 O614 1.226 . S
O608 Cd604 2.273 . S
O608 Cd606 2.411 . S
O608 C611 1.320 . S
O609 Cd606 2.333 . S
O609 C611 1.214 . S
O610 Cd606 2.352 . S
O610 C613 1.258 . S
C611 O608 1.320 . S
C611 O609 1.214 . S
O612 Cd604 2.277 . S
O612 C607 1.209 . S
C613 O610 1.258 . S
C613 O615 1.282 . S
O614 Cd606 2.277 . S
O614 C607 1.226 . S
O615 Cd606 2.356 . S
O615 C613 1.282 . S
C616 O617 1.306 . S
C616 O619 1.160 . S
O617 C616 1.306 . S
O617 Cd618 2.228 . S
Cd618 O617 2.228 . S
Cd618 O622 2.273 . S
Cd618 O626 2.277 . S
O619 C616 1.160 . S
O619 Cd620 2.203 . S
Cd620 O619 2.203 . S
Cd620 O622 2.411 . S
Cd620 O623 2.333 . S
Cd620 O624 2.352 . S
Cd620 O628 2.277 . S
Cd620 O629 2.356 . S
C621 O626 1.209 . S
C621 O628 1.226 . S
O622 Cd618 2.273 . S
O622 Cd620 2.411 . S
O622 C625 1.320 . S
O623 Cd620 2.333 . S
O623 C625 1.214 . S
O624 Cd620 2.352 . S
O624 C627 1.258 . S
C625 O622 1.320 . S
C625 O623 1.214 . S
O626 Cd618 2.277 . S
O626 C621 1.209 . S
C627 O624 1.258 . S
C627 O629 1.282 . S
O628 Cd620 2.277 . S
O628 C621 1.226 . S
O629 Cd620 2.356 . S
O629 C627 1.282 . S
C630 O631 1.306 . S
C630 O633 1.160 . S
O631 C630 1.306 . S
O631 Cd632 2.228 . S
Cd632 O631 2.228 . S
Cd632 O636 2.273 . S
Cd632 O640 2.277 . S
O633 C630 1.160 . S
O633 Cd634 2.203 . S
Cd634 O633 2.203 . S
Cd634 O636 2.411 . S
Cd634 O637 2.333 . S
Cd634 O638 2.352 . S
Cd634 O642 2.277 . S
Cd634 O643 2.356 . S
C635 O640 1.209 . S
C635 O642 1.226 . S
O636 Cd632 2.273 . S
O636 Cd634 2.411 . S
O636 C639 1.320 . S
O637 Cd634 2.333 . S
O637 C639 1.214 . S
O638 Cd634 2.352 . S
O638 C641 1.258 . S
C639 O636 1.320 . S
C639 O637 1.214 . S
O640 Cd632 2.277 . S
O640 C635 1.209 . S
C641 O638 1.258 . S
C641 O643 1.282 . S
O642 Cd634 2.277 . S
O642 C635 1.226 . S
O643 Cd634 2.356 . S
O643 C641 1.282 . S
C644 O645 1.306 . S
C644 O647 1.160 . S
O645 C644 1.306 . S
O645 Cd646 2.228 . S
Cd646 O645 2.228 . S
Cd646 O650 2.273 . S
Cd646 O654 2.277 . S
O647 C644 1.160 . S
O647 Cd648 2.203 . S
Cd648 O647 2.203 . S
Cd648 O650 2.411 . S
Cd648 O651 2.333 . S
Cd648 O652 2.352 . S
Cd648 O656 2.277 . S
Cd648 O657 2.356 . S
C649 O654 1.209 . S
C649 O656 1.226 . S
O650 Cd646 2.273 . S
O650 Cd648 2.411 . S
O650 C653 1.320 . S
O651 Cd648 2.333 . S
O651 C653 1.214 . S
O652 Cd648 2.352 . S
O652 C655 1.258 . S
C653 O650 1.320 . S
C653 O651 1.214 . S
O654 Cd646 2.277 . S
O654 C649 1.209 . S
C655 O652 1.258 . S
C655 O657 1.282 . S
O656 Cd648 2.277 . S
O656 C649 1.226 . S
O657 Cd648 2.356 . S
O657 C655 1.282 . S
C658 O659 1.306 . S
C658 O661 1.160 . S
O659 C658 1.306 . S
O659 Cd660 2.228 . S
Cd660 O659 2.228 . S
Cd660 O664 2.273 . S
Cd660 O668 2.277 . S
O661 C658 1.160 . S
O661 Cd662 2.203 . S
Cd662 O661 2.203 . S
Cd662 O664 2.411 . S
Cd662 O665 2.333 . S
Cd662 O666 2.352 . S
Cd662 O670 2.277 . S
Cd662 O671 2.356 . S
C663 O668 1.209 . S
C663 O670 1.226 . S
O664 Cd660 2.273 . S
O664 Cd662 2.411 . S
O664 C667 1.320 . S
O665 Cd662 2.333 . S
O665 C667 1.214 . S
O666 Cd662 2.352 . S
O666 C669 1.258 . S
C667 O664 1.320 . S
C667 O665 1.214 . S
O668 Cd660 2.277 . S
O668 C663 1.209 . S
C669 O666 1.258 . S
C669 O671 1.282 . S
O670 Cd662 2.277 . S
O670 C663 1.226 . S
O671 Cd662 2.356 . S
O671 C669 1.282 . S
C672 C673 1.387 . S
C672 H676 0.950 . S
C672 C681 1.390 . S
C673 C672 1.387 . S
C673 C675 1.387 . S
H674 C681 0.950 . S
C675 C673 1.387 . S
C675 C677 1.390 . S
C675 H679 0.950 . S
H676 C672 0.950 . S
C677 C675 1.390 . S
C677 C678 1.387 . S
C677 H680 0.950 . S
C678 C677 1.387 . S
C678 C681 1.387 . S
H679 C675 0.950 . S
H680 C677 0.950 . S
C681 C672 1.390 . S
C681 H674 0.950 . S
C681 C678 1.387 . S
C682 C683 1.387 1_655 S
C682 H686 0.950 1_655 S
C682 C691 1.390 . S
C683 C682 1.387 1_455 S
C683 C685 1.387 1_455 S
H684 C691 0.950 . S
C685 C683 1.387 1_655 S
C685 C687 1.390 . S
C685 H689 0.950 1_655 S
H686 C682 0.950 1_455 S
C687 C685 1.390 . S
C687 C688 1.387 . S
C687 H690 0.950 . S
C688 C687 1.387 . S
C688 C691 1.387 . S
H689 C685 0.950 1_455 S
H690 C687 0.950 . S
C691 C682 1.390 . S
C691 H684 0.950 . S
C691 C688 1.387 . S
C692 C693 1.387 . S
C692 H696 0.950 . S
C692 C701 1.390 . S
C693 C692 1.387 . S
C693 C695 1.387 . S
H694 C701 0.950 . S
C695 C693 1.387 . S
C695 C697 1.390 . S
C695 H699 0.950 . S
H696 C692 0.950 . S
C697 C695 1.390 . S
C697 C698 1.387 . S
C697 H700 0.950 . S
C698 C697 1.387 . S
C698 C701 1.387 . S
H699 C695 0.950 . S
H700 C697 0.950 . S
C701 C692 1.390 . S
C701 H694 0.950 . S
C701 C698 1.387 . S
C702 C703 1.387 . S
C702 H706 0.950 . S
C702 C711 1.390 . S
C703 C702 1.387 . S
C703 C705 1.387 . S
H704 C711 0.950 . S
C705 C703 1.387 . S
C705 C707 1.390 . S
C705 H709 0.950 . S
H706 C702 0.950 . S
C707 C705 1.390 . S
C707 C708 1.387 . S
C707 H710 0.950 . S
C708 C707 1.387 . S
C708 C711 1.387 . S
H709 C705 0.950 . S
H710 C707 0.950 . S
C711 C702 1.390 . S
C711 H704 0.950 . S
C711 C708 1.387 . S
C712 C713 1.387 . S
C712 H716 0.950 . S
C712 C721 1.390 . S
C713 C712 1.387 . S
C713 C715 1.387 . S
H714 C721 0.950 . S
C715 C713 1.387 . S
C715 C717 1.390 . S
C715 H719 0.950 . S
H716 C712 0.950 . S
C717 C715 1.390 . S
C717 C718 1.387 . S
C717 H720 0.950 . S
C718 C717 1.387 . S
C718 C721 1.387 . S
H719 C715 0.950 . S
H720 C717 0.950 . S
C721 C712 1.390 . S
C721 H714 0.950 . S
C721 C718 1.387 . S
C722 C723 1.387 . S
C722 H726 0.950 . S
C722 C731 1.390 . S
C723 C722 1.387 . S
C723 C725 1.387 . S
H724 C731 0.950 . S
C725 C723 1.387 . S
C725 C727 1.390 . S
C725 H729 0.950 . S
H726 C722 0.950 . S
C727 C725 1.390 . S
C727 C728 1.387 . S
C727 H730 0.950 . S
C728 C727 1.387 . S
C728 C731 1.387 . S
H729 C725 0.950 . S
H730 C727 0.950 . S
C731 C722 1.390 . S
C731 H724 0.950 . S
C731 C728 1.387 . S
C732 C733 1.387 . S
C732 H736 0.950 . S
C732 C741 1.390 . S
C733 C732 1.387 . S
C733 C735 1.387 . S
H734 C741 0.950 . S
C735 C733 1.387 . S
C735 C737 1.390 . S
C735 H739 0.950 . S
H736 C732 0.950 . S
C737 C735 1.390 . S
C737 C738 1.387 . S
C737 H740 0.950 . S
C738 C737 1.387 . S
C738 C741 1.387 . S
H739 C735 0.950 . S
H740 C737 0.950 . S
C741 C732 1.390 . S
C741 H734 0.950 . S
C741 C738 1.387 . S
C742 C743 1.387 1_655 S
C742 H746 0.950 1_655 S
C742 C751 1.390 . S
C743 C742 1.387 1_455 S
C743 C745 1.368 1_455 S
H744 C751 0.950 . S
C745 C743 1.368 1_655 S
C745 C747 1.429 . S
C745 H749 0.931 1_655 S
H746 C742 0.950 1_455 S
C747 C745 1.429 . S
C747 C748 1.387 . S
C747 H750 0.950 . S
C748 C747 1.387 . S
C748 C751 1.387 . S
H749 C745 0.931 1_455 S
H750 C747 0.950 . S
C751 C742 1.390 . S
C751 H744 0.950 . S
C751 C748 1.387 . S
C752 C753 1.387 . S
C752 H756 0.950 . S
C752 C761 1.390 . S
C753 C752 1.387 . S
C753 C755 1.387 . S
H754 C761 0.950 . S
C755 C753 1.387 . S
C755 C757 1.390 . S
C755 H759 0.950 . S
H756 C752 0.950 . S
C757 C755 1.390 . S
C757 C758 1.387 . S
C757 H760 0.950 . S
C758 C757 1.387 . S
C758 C761 1.387 . S
H759 C755 0.950 . S
H760 C757 0.950 . S
C761 C752 1.390 . S
C761 H754 0.950 . S
C761 C758 1.387 . S
C762 C763 1.387 . S
C762 H766 0.950 . S
C762 C771 1.390 . S
C763 C762 1.387 . S
C763 C765 1.387 . S
H764 C771 0.950 . S
C765 C763 1.387 . S
C765 C767 1.390 . S
C765 H769 0.950 . S
H766 C762 0.950 . S
C767 C765 1.390 . S
C767 C768 1.387 . S
C767 H770 0.950 . S
C768 C767 1.387 . S
C768 C771 1.387 . S
H769 C765 0.950 . S
H770 C767 0.950 . S
C771 C762 1.390 . S
C771 H764 0.950 . S
C771 C768 1.387 . S
C772 C773 1.387 . S
C772 H776 0.950 . S
C772 C781 1.390 . S
C773 C772 1.387 . S
C773 C775 1.387 . S
H774 C781 0.950 . S
C775 C773 1.387 . S
C775 C777 1.390 . S
C775 H779 0.950 . S
H776 C772 0.950 . S
C777 C775 1.390 . S
C777 C778 1.387 . S
C777 H780 0.950 . S
C778 C777 1.387 . S
C778 C781 1.387 . S
H779 C775 0.950 . S
H780 C777 0.950 . S
C781 C772 1.390 . S
C781 H774 0.950 . S
C781 C778 1.387 . S
C782 C783 1.387 1_554 S
C782 H786 0.950 1_554 S
C782 C791 1.390 . S
C783 C782 1.387 1_556 S
C783 C785 1.387 1_556 S
H784 C791 0.950 . S
C785 C783 1.387 1_554 S
C785 C787 1.390 . S
C785 H789 0.950 1_554 S
H786 C782 0.950 1_556 S
C787 C785 1.390 . S
C787 C788 1.387 . S
C787 H790 0.950 . S
C788 C787 1.387 . S
C788 C791 1.387 . S
H789 C785 0.950 1_556 S
H790 C787 0.950 . S
C791 C782 1.390 . S
C791 H784 0.950 . S
C791 C788 1.387 . S
C792 C793 1.387 . S
C792 H796 0.950 . S
C792 C801 1.390 . S
C793 C792 1.387 . S
C793 C795 1.387 . S
H794 C801 0.950 . S
C795 C793 1.387 . S
C795 C797 1.390 . S
C795 H799 0.950 . S
H796 C792 0.950 . S
C797 C795 1.390 . S
C797 C798 1.387 . S
C797 H800 0.950 . S
C798 C797 1.387 . S
C798 C801 1.387 . S
H799 C795 0.950 . S
H800 C797 0.950 . S
C801 C792 1.390 . S
C801 H794 0.950 . S
C801 C798 1.387 . S
C802 C803 1.387 . S
C802 H806 0.950 . S
C802 C811 1.390 . S
C803 C802 1.387 . S
C803 C805 1.387 . S
H804 C811 0.950 . S
C805 C803 1.387 . S
C805 C807 1.390 . S
C805 H809 0.950 . S
H806 C802 0.950 . S
C807 C805 1.390 . S
C807 C808 1.387 . S
C807 H810 0.950 . S
C808 C807 1.387 . S
C808 C811 1.387 . S
H809 C805 0.950 . S
H810 C807 0.950 . S
C811 C802 1.390 . S
C811 H804 0.950 . S
C811 C808 1.387 . S
C812 C813 1.387 . S
C812 H816 0.950 . S
C812 C821 1.390 . S
C813 C812 1.387 . S
C813 C815 1.387 . S
H814 C821 0.950 . S
C815 C813 1.387 . S
C815 C817 1.390 . S
C815 H819 0.950 . S
H816 C812 0.950 . S
C817 C815 1.390 . S
C817 C818 1.387 . S
C817 H820 0.950 . S
C818 C817 1.387 . S
C818 C821 1.387 . S
H819 C815 0.950 . S
H820 C817 0.950 . S
C821 C812 1.390 . S
C821 H814 0.950 . S
C821 C818 1.387 . S
C822 C823 1.387 1_556 S
C822 H826 0.950 1_556 S
C822 C831 1.390 . S
C823 C822 1.387 1_554 S
C823 C825 1.387 1_554 S
H824 C831 0.950 . S
C825 C823 1.387 1_556 S
C825 C827 1.390 . S
C825 H829 0.950 1_556 S
H826 C822 0.950 1_554 S
C827 C825 1.390 . S
C827 C828 1.387 . S
C827 H830 0.950 . S
C828 C827 1.387 . S
C828 C831 1.387 . S
H829 C825 0.950 1_554 S
H830 C827 0.950 . S
C831 C822 1.390 . S
C831 H824 0.950 . S
C831 C828 1.387 . S
C832 C833 1.387 . S
C832 H836 0.950 . S
C832 C841 1.390 . S
C833 C832 1.387 . S
C833 C835 1.387 . S
H834 C841 0.950 . S
C835 C833 1.387 . S
C835 C837 1.390 . S
C835 H839 0.950 . S
H836 C832 0.950 . S
C837 C835 1.390 . S
C837 C838 1.387 . S
C837 H840 0.950 . S
C838 C837 1.387 . S
C838 C841 1.387 . S
H839 C835 0.950 . S
H840 C837 0.950 . S
C841 C832 1.390 . S
C841 H834 0.950 . S
C841 C838 1.387 . S
C842 C843 1.387 . S
C842 H846 0.950 . S
C842 C851 1.390 . S
C843 C842 1.387 . S
C843 C845 1.387 . S
H844 C851 0.950 . S
C845 C843 1.387 . S
C845 C847 1.390 . S
C845 H849 0.950 . S
H846 C842 0.950 . S
C847 C845 1.390 . S
C847 C848 1.387 . S
C847 H850 0.950 . S
C848 C847 1.387 . S
C848 C851 1.387 . S
H849 C845 0.950 . S
H850 C847 0.950 . S
C851 C842 1.390 . S
C851 H844 0.950 . S
C851 C848 1.387 . S
C852 C853 1.387 . S
C852 H856 0.950 . S
C852 C861 1.390 . S
C853 C852 1.387 . S
C853 C855 1.387 . S
H854 C861 0.950 . S
C855 C853 1.387 . S
C855 C857 1.390 . S
C855 H859 0.950 . S
H856 C852 0.950 . S
C857 C855 1.390 . S
C857 C858 1.387 . S
C857 H860 0.950 . S
C858 C857 1.387 . S
C858 C861 1.387 . S
H859 C855 0.950 . S
H860 C857 0.950 . S
C861 C852 1.390 . S
C861 H854 0.950 . S
C861 C858 1.387 . S
C862 C863 1.387 . S
C862 H866 0.950 . S
C862 C871 1.390 . S
C863 C862 1.387 . S
C863 C865 1.387 . S
H864 C871 0.950 . S
C865 C863 1.387 . S
C865 C867 1.390 . S
C865 H869 0.950 . S
H866 C862 0.950 . S
C867 C865 1.390 . S
C867 C868 1.387 . S
C867 H870 0.950 . S
C868 C867 1.387 . S
C868 C871 1.387 . S
H869 C865 0.950 . S
H870 C867 0.950 . S
C871 C862 1.390 . S
C871 H864 0.950 . S
C871 C868 1.387 . S
C872 C873 1.387 . S
C872 H876 0.950 . S
C872 C881 1.390 . S
C873 C872 1.387 . S
C873 C875 1.387 . S
H874 C881 0.950 . S
C875 C873 1.387 . S
C875 C877 1.390 . S
C875 H879 0.950 . S
H876 C872 0.950 . S
C877 C875 1.390 . S
C877 C878 1.387 1_565 S
C877 H880 0.950 1_565 S
C878 C877 1.387 1_545 S
C878 C881 1.387 1_545 S
H879 C875 0.950 . S
H880 C877 0.950 1_545 S
C881 C872 1.390 . S
C881 H874 0.950 . S
C881 C878 1.387 1_565 S
C882 C883 1.387 . S
C882 H886 0.950 . S
C882 C891 1.390 . S
C883 C882 1.387 . S
C883 C885 1.387 . S
H884 C891 0.950 . S
C885 C883 1.387 . S
C885 C887 1.390 . S
C885 H889 0.950 . S
H886 C882 0.950 . S
C887 C885 1.390 . S
C887 C888 1.387 . S
C887 H890 0.950 . S
C888 C887 1.387 . S
C888 C891 1.387 . S
H889 C885 0.950 . S
H890 C887 0.950 . S
C891 C882 1.390 . S
C891 H884 0.950 . S
C891 C888 1.387 . S
C892 C893 1.387 . S
C892 H896 0.950 . S
C892 C901 1.390 . S
C893 C892 1.387 . S
C893 C895 1.387 . S
H894 C901 0.950 . S
C895 C893 1.387 . S
C895 C897 1.390 . S
C895 H899 0.950 . S
H896 C892 0.950 . S
C897 C895 1.390 . S
C897 C898 1.387 . S
C897 H900 0.950 . S
C898 C897 1.387 . S
C898 C901 1.387 . S
H899 C895 0.950 . S
H900 C897 0.950 . S
C901 C892 1.390 . S
C901 H894 0.950 . S
C901 C898 1.387 . S
C902 C903 1.387 . S
C902 H906 0.950 . S
C902 C911 1.390 . S
C903 C902 1.387 . S
C903 C905 1.387 . S
H904 C911 0.950 . S
C905 C903 1.387 . S
C905 C907 1.390 . S
C905 H909 0.950 . S
H906 C902 0.950 . S
C907 C905 1.390 . S
C907 C908 1.387 . S
C907 H910 0.950 . S
C908 C907 1.387 . S
C908 C911 1.387 . S
H909 C905 0.950 . S
H910 C907 0.950 . S
C911 C902 1.390 . S
C911 H904 0.950 . S
C911 C908 1.387 . S
C912 C913 1.387 . S
C912 H916 0.950 . S
C912 C921 1.390 . S
C913 C912 1.387 . S
C913 C915 1.387 . S
H914 C921 0.950 . S
C915 C913 1.387 . S
C915 C917 1.390 . S
C915 H919 0.950 . S
H916 C912 0.950 . S
C917 C915 1.390 . S
C917 C918 1.387 . S
C917 H920 0.950 . S
C918 C917 1.387 . S
C918 C921 1.387 . S
H919 C915 0.950 . S
H920 C917 0.950 . S
C921 C912 1.390 . S
C921 H914 0.950 . S
C921 C918 1.387 . S
C922 C923 1.397 . S
C922 H926 0.957 . S
C922 C931 1.374 1_655 S
C923 C922 1.397 . S
C923 C925 1.387 . S
H924 C931 0.950 . S
C925 C923 1.387 . S
C925 C927 1.390 1_655 S
C925 H929 0.950 . S
H926 C922 0.957 . S
C927 C925 1.390 1_455 S
C927 C928 1.387 . S
C927 H930 0.950 . S
C928 C927 1.387 . S
C928 C931 1.387 . S
H929 C925 0.950 . S
H930 C927 0.950 . S
C931 C922 1.374 1_455 S
C931 H924 0.950 . S
C931 C928 1.387 . S
C932 C933 1.387 . S
C932 H936 0.950 . S
C932 C941 1.390 . S
C933 C932 1.387 . S
C933 C935 1.387 . S
H934 C941 0.950 . S
C935 C933 1.387 . S
C935 C937 1.390 . S
C935 H939 0.950 . S
H936 C932 0.950 . S
C937 C935 1.390 . S
C937 C938 1.387 . S
C937 H940 0.950 . S
C938 C937 1.387 . S
C938 C941 1.387 . S
H939 C935 0.950 . S
H940 C937 0.950 . S
C941 C932 1.390 . S
C941 H934 0.950 . S
C941 C938 1.387 . S
C942 C943 1.387 . S
C942 H946 0.950 . S
C942 C951 1.390 . S
C943 C942 1.387 . S
C943 C945 1.387 . S
H944 C951 0.950 . S
C945 C943 1.387 . S
C945 C947 1.390 . S
C945 H949 0.950 . S
H946 C942 0.950 . S
C947 C945 1.390 . S
C947 C948 1.387 . S
C947 H950 0.950 . S
C948 C947 1.387 . S
C948 C951 1.387 . S
H949 C945 0.950 . S
H950 C947 0.950 . S
C951 C942 1.390 . S
C951 H944 0.950 . S
C951 C948 1.387 . S
C952 C953 1.387 . S
C952 H956 0.950 . S
C952 C961 1.390 . S
C953 C952 1.387 . S
C953 C955 1.387 . S
H954 C961 0.950 . S
C955 C953 1.387 . S
C955 C957 1.390 . S
C955 H959 0.950 . S
H956 C952 0.950 . S
C957 C955 1.390 . S
C957 C958 1.387 . S
C957 H960 0.950 . S
C958 C957 1.387 . S
C958 C961 1.387 . S
H959 C955 0.950 . S
H960 C957 0.950 . S
C961 C952 1.390 . S
C961 H954 0.950 . S
C961 C958 1.387 . S
C962 C963 1.387 . S
C962 H966 0.950 . S
C962 C971 1.390 . S
C963 C962 1.387 . S
C963 C965 1.387 . S
H964 C971 0.950 . S
C965 C963 1.387 . S
C965 C967 1.390 . S
C965 H969 0.950 . S
H966 C962 0.950 . S
C967 C965 1.390 . S
C967 C968 1.387 . S
C967 H970 0.950 . S
C968 C967 1.387 . S
C968 C971 1.387 . S
H969 C965 0.950 . S
H970 C967 0.950 . S
C971 C962 1.390 . S
C971 H964 0.950 . S
C971 C968 1.387 . S
C972 C973 1.387 . S
C972 H976 0.950 . S
C972 C981 1.390 . S
C973 C972 1.387 . S
C973 C975 1.387 . S
H974 C981 0.950 . S
C975 C973 1.387 . S
C975 C977 1.390 . S
C975 H979 0.950 . S
H976 C972 0.950 . S
C977 C975 1.390 . S
C977 C978 1.387 . S
C977 H980 0.950 . S
C978 C977 1.387 . S
C978 C981 1.387 . S
H979 C975 0.950 . S
H980 C977 0.950 . S
C981 C972 1.390 . S
C981 H974 0.950 . S
C981 C978 1.387 . S
C982 C983 1.387 . S
C982 H986 0.950 . S
C982 C991 1.390 . S
C983 C982 1.387 . S
C983 C985 1.387 . S
H984 C991 0.948 1_655 S
C985 C983 1.387 . S
C985 C987 1.390 . S
C985 H989 0.950 . S
H986 C982 0.950 . S
C987 C985 1.390 . S
C987 C988 1.387 1_455 S
C987 H990 0.937 1_455 S
C988 C987 1.387 1_655 S
C988 C991 1.387 1_655 S
H989 C985 0.950 . S
H990 C987 0.937 1_655 S
C991 C982 1.390 . S
C991 H984 0.948 1_455 S
C991 C988 1.387 1_455 S
C992 C993 1.387 . S
C992 H996 0.950 . S
C992 C1001 1.390 . S
C993 C992 1.387 . S
C993 C995 1.387 . S
H994 C1001 0.950 . S
C995 C993 1.387 . S
C995 C997 1.390 . S
C995 H999 0.950 . S
H996 C992 0.950 . S
C997 C995 1.390 . S
C997 C998 1.387 . S
C997 H1000 0.950 . S
C998 C997 1.387 . S
C998 C1001 1.387 . S
H999 C995 0.950 . S
H1000 C997 0.950 . S
C1001 C992 1.390 . S
C1001 H994 0.950 . S
C1001 C998 1.387 . S
C1002 C1003 1.387 . S
C1002 H1006 0.950 . S
C1002 C1011 1.390 . S
C1003 C1002 1.387 . S
C1003 C1005 1.387 . S
H1004 C1011 0.950 . S
C1005 C1003 1.387 . S
C1005 C1007 1.390 . S
C1005 H1009 0.950 . S
H1006 C1002 0.950 . S
C1007 C1005 1.390 . S
C1007 C1008 1.387 . S
C1007 H1010 0.950 . S
C1008 C1007 1.387 . S
C1008 C1011 1.387 . S
H1009 C1005 0.950 . S
H1010 C1007 0.950 . S
C1011 C1002 1.390 . S
C1011 H1004 0.950 . S
C1011 C1008 1.387 . S
C1012 C1013 1.387 . S
C1012 H1016 0.950 . S
C1012 C1021 1.390 . S
C1013 C1012 1.387 . S
C1013 C1015 1.387 . S
H1014 C1021 0.950 . S
C1015 C1013 1.387 . S
C1015 C1017 1.390 . S
C1015 H1019 0.950 . S
H1016 C1012 0.950 . S
C1017 C1015 1.390 . S
C1017 C1018 1.387 . S
C1017 H1020 0.950 . S
C1018 C1017 1.387 . S
C1018 C1021 1.387 . S
H1019 C1015 0.950 . S
H1020 C1017 0.950 . S
C1021 C1012 1.390 . S
C1021 H1014 0.950 . S
C1021 C1018 1.387 . S
C1022 C1023 1.387 . S
C1022 H1026 0.950 . S
C1022 C1031 1.390 . S
C1023 C1022 1.387 . S
C1023 C1025 1.387 . S
H1024 C1031 0.950 1_554 S
C1025 C1023 1.387 . S
C1025 C1027 1.390 1_556 S
C1025 H1029 0.950 . S
H1026 C1022 0.950 . S
C1027 C1025 1.390 1_554 S
C1027 C1028 1.387 . S
C1027 H1030 0.950 . S
C1028 C1027 1.387 . S
C1028 C1031 1.387 1_554 S
H1029 C1025 0.950 . S
H1030 C1027 0.950 . S
C1031 C1022 1.390 . S
C1031 H1024 0.950 1_556 S
C1031 C1028 1.387 1_556 S
C1032 C1033 1.387 . S
C1032 H1036 0.950 . S
C1032 C1041 1.390 . S
C1033 C1032 1.387 . S
C1033 C1035 1.387 . S
H1034 C1041 0.950 . S
C1035 C1033 1.387 . S
C1035 C1037 1.390 . S
C1035 H1039 0.950 . S
H1036 C1032 0.950 . S
C1037 C1035 1.390 . S
C1037 C1038 1.387 . S
C1037 H1040 0.950 . S
C1038 C1037 1.387 . S
C1038 C1041 1.387 . S
H1039 C1035 0.950 . S
H1040 C1037 0.950 . S
C1041 C1032 1.390 . S
C1041 H1034 0.950 . S
C1041 C1038 1.387 . S
C1042 C1043 1.387 . S
C1042 H1046 0.950 . S
C1042 C1051 1.390 . S
C1043 C1042 1.387 . S
C1043 C1045 1.387 . S
H1044 C1051 0.950 . S
C1045 C1043 1.387 . S
C1045 C1047 1.390 . S
C1045 H1049 0.950 . S
H1046 C1042 0.950 . S
C1047 C1045 1.390 . S
C1047 C1048 1.387 . S
C1047 H1050 0.950 . S
C1048 C1047 1.387 . S
C1048 C1051 1.387 . S
H1049 C1045 0.950 . S
H1050 C1047 0.950 . S
C1051 C1042 1.390 . S
C1051 H1044 0.950 . S
C1051 C1048 1.387 . S
C1052 C1053 1.387 . S
C1052 H1056 0.950 . S
C1052 C1061 1.390 . S
C1053 C1052 1.387 . S
C1053 C1055 1.387 . S
H1054 C1061 0.950 . S
C1055 C1053 1.387 . S
C1055 C1057 1.390 . S
C1055 H1059 0.950 . S
H1056 C1052 0.950 . S
C1057 C1055 1.390 . S
C1057 C1058 1.387 . S
C1057 H1060 0.950 . S
C1058 C1057 1.387 . S
C1058 C1061 1.387 . S
H1059 C1055 0.950 . S
H1060 C1057 0.950 . S
C1061 C1052 1.390 . S
C1061 H1054 0.950 . S
C1061 C1058 1.387 . S
C1062 C1063 1.387 . S
C1062 H1066 0.950 . S
C1062 C1071 1.390 1_556 S
C1063 C1062 1.387 . S
C1063 C1065 1.387 1_556 S
H1064 C1071 0.950 . S
C1065 C1063 1.387 1_554 S
C1065 C1067 1.390 . S
C1065 H1069 0.950 1_554 S
H1066 C1062 0.950 . S
C1067 C1065 1.390 . S
C1067 C1068 1.387 . S
C1067 H1070 0.950 . S
C1068 C1067 1.387 . S
C1068 C1071 1.387 . S
H1069 C1065 0.950 1_556 S
H1070 C1067 0.950 . S
C1071 C1062 1.390 1_554 S
C1071 H1064 0.950 . S
C1071 C1068 1.387 . S
C1072 C1073 1.387 . S
C1072 H1076 0.950 . S
C1072 C1081 1.390 . S
C1073 C1072 1.387 . S
C1073 C1075 1.387 . S
H1074 C1081 0.950 . S
C1075 C1073 1.387 . S
C1075 C1077 1.390 . S
C1075 H1079 0.950 . S
H1076 C1072 0.950 . S
C1077 C1075 1.390 . S
C1077 C1078 1.387 . S
C1077 H1080 0.950 . S
C1078 C1077 1.387 . S
C1078 C1081 1.387 . S
H1079 C1075 0.950 . S
H1080 C1077 0.950 . S
C1081 C1072 1.390 . S
C1081 H1074 0.950 . S
C1081 C1078 1.387 . S
C1082 C1083 1.387 . S
C1082 H1086 0.950 . S
C1082 C1091 1.390 . S
C1083 C1082 1.387 . S
C1083 C1085 1.387 . S
H1084 C1091 0.950 . S
C1085 C1083 1.387 . S
C1085 C1087 1.390 . S
C1085 H1089 0.950 . S
H1086 C1082 0.950 . S
C1087 C1085 1.390 . S
C1087 C1088 1.387 . S
C1087 H1090 0.950 . S
C1088 C1087 1.387 . S
C1088 C1091 1.387 . S
H1089 C1085 0.950 . S
H1090 C1087 0.950 . S
C1091 C1082 1.390 . S
C1091 H1084 0.950 . S
C1091 C1088 1.387 . S
C1092 C1093 1.387 . S
C1092 H1096 0.950 . S
C1092 C1101 1.390 . S
C1093 C1092 1.387 . S
C1093 C1095 1.387 . S
H1094 C1101 0.950 . S
C1095 C1093 1.387 . S
C1095 C1097 1.390 . S
C1095 H1099 0.950 . S
H1096 C1092 0.950 . S
C1097 C1095 1.390 . S
C1097 C1098 1.387 . S
C1097 H1100 0.950 . S
C1098 C1097 1.387 . S
C1098 C1101 1.387 . S
H1099 C1095 0.950 . S
H1100 C1097 0.950 . S
C1101 C1092 1.390 . S
C1101 H1094 0.950 . S
C1101 C1098 1.387 . S
C1102 C1103 1.387 . S
C1102 H1106 0.950 . S
C1102 C1111 1.390 . S
C1103 C1102 1.387 . S
C1103 C1105 1.387 . S
H1104 C1111 0.950 . S
C1105 C1103 1.387 . S
C1105 C1107 1.390 . S
C1105 H1109 0.950 . S
H1106 C1102 0.950 . S
C1107 C1105 1.390 . S
C1107 C1108 1.387 . S
C1107 H1110 0.950 . S
C1108 C1107 1.387 . S
C1108 C1111 1.387 . S
H1109 C1105 0.950 . S
H1110 C1107 0.950 . S
C1111 C1102 1.390 . S
C1111 H1104 0.950 . S
C1111 C1108 1.387 . S
C1112 C1113 1.387 1_545 S
C1112 H1116 0.967 . S
C1112 C1121 1.390 . S
C1113 C1112 1.387 1_565 S
C1113 C1115 1.387 1_565 S
H1114 C1121 0.950 . S
C1115 C1113 1.387 1_545 S
C1115 C1117 1.390 . S
C1115 H1119 0.950 1_545 S
H1116 C1112 0.967 . S
C1117 C1115 1.390 . S
C1117 C1118 1.387 . S
C1117 H1120 0.950 . S
C1118 C1117 1.387 . S
C1118 C1121 1.387 . S
H1119 C1115 0.950 1_565 S
H1120 C1117 0.950 . S
C1121 C1112 1.390 . S
C1121 H1114 0.950 . S
C1121 C1118 1.387 . S
C1122 C1123 1.387 . S
C1122 H1126 0.950 . S
C1122 C1131 1.390 . S
C1123 C1122 1.387 . S
C1123 C1125 1.387 . S
H1124 C1131 0.950 . S
C1125 C1123 1.387 . S
C1125 C1127 1.390 . S
C1125 H1129 0.950 . S
H1126 C1122 0.950 . S
C1127 C1125 1.390 . S
C1127 C1128 1.387 . S
C1127 H1130 0.950 . S
C1128 C1127 1.387 . S
C1128 C1131 1.387 . S
H1129 C1125 0.950 . S
H1130 C1127 0.950 . S
C1131 C1122 1.390 . S
C1131 H1124 0.950 . S
C1131 C1128 1.387 . S
C1132 C1133 1.387 . S
C1132 H1136 0.950 . S
C1132 C1141 1.390 . S
C1133 C1132 1.387 . S
C1133 C1135 1.387 . S
H1134 C1141 0.950 . S
C1135 C1133 1.387 . S
C1135 C1137 1.390 . S
C1135 H1139 0.950 . S
H1136 C1132 0.950 . S
C1137 C1135 1.390 . S
C1137 C1138 1.387 . S
C1137 H1140 0.950 . S
C1138 C1137 1.387 . S
C1138 C1141 1.387 . S
H1139 C1135 0.950 . S
H1140 C1137 0.950 . S
C1141 C1132 1.390 . S
C1141 H1134 0.950 . S
C1141 C1138 1.387 . S
C1142 C1143 1.387 . S
C1142 H1146 0.950 . S
C1142 C1151 1.390 . S
C1143 C1142 1.387 . S
C1143 C1145 1.387 . S
H1144 C1151 0.950 . S
C1145 C1143 1.387 . S
C1145 C1147 1.390 . S
C1145 H1149 0.950 . S
H1146 C1142 0.950 . S
C1147 C1145 1.390 . S
C1147 C1148 1.387 . S
C1147 H1150 0.950 . S
C1148 C1147 1.387 . S
C1148 C1151 1.387 . S
H1149 C1145 0.950 . S
H1150 C1147 0.950 . S
C1151 C1142 1.390 . S
C1151 H1144 0.950 . S
C1151 C1148 1.387 . S
C1152 C1153 1.387 . S
C1152 H1156 0.950 . S
C1152 C1161 1.390 . S
C1153 C1152 1.387 . S
C1153 C1155 1.387 . S
H1154 C1161 0.950 . S
C1155 C1153 1.387 . S
C1155 C1157 1.390 . S
C1155 H1159 0.950 . S
H1156 C1152 0.950 . S
C1157 C1155 1.390 . S
C1157 C1158 1.387 . S
C1157 H1160 0.950 . S
C1158 C1157 1.387 . S
C1158 C1161 1.387 . S
H1159 C1155 0.950 . S
H1160 C1157 0.950 . S
C1161 C1152 1.390 . S
C1161 H1154 0.950 . S
C1161 C1158 1.387 . S
C1162 C1163 1.387 . S
C1162 H1166 0.950 . S
C1162 C1171 1.390 . S
C1163 C1162 1.387 . S
C1163 C1165 1.387 . S
H1164 C1171 0.950 . S
C1165 C1163 1.387 . S
C1165 C1167 1.390 . S
C1165 H1169 0.950 . S
H1166 C1162 0.950 . S
C1167 C1165 1.390 . S
C1167 C1168 1.387 . S
C1167 H1170 0.950 . S
C1168 C1167 1.387 . S
C1168 C1171 1.387 . S
H1169 C1165 0.950 . S
H1170 C1167 0.950 . S
C1171 C1162 1.390 . S
C1171 H1164 0.950 . S
C1171 C1168 1.387 . S
C1172 C1173 1.387 . S
C1172 H1176 0.950 . S
C1172 C1181 1.390 . S
C1173 C1172 1.387 . S
C1173 C1175 1.387 . S
H1174 C1181 0.950 . S
C1175 C1173 1.387 . S
C1175 C1177 1.390 . S
C1175 H1179 0.950 . S
H1176 C1172 0.950 . S
C1177 C1175 1.390 . S
C1177 C1178 1.387 . S
C1177 H1180 0.950 . S
C1178 C1177 1.387 . S
C1178 C1181 1.387 . S
H1179 C1175 0.950 . S
H1180 C1177 0.950 . S
C1181 C1172 1.390 . S
C1181 H1174 0.950 . S
C1181 C1178 1.387 . S
C1182 C1183 1.387 1_455 S
C1182 H1186 0.950 1_455 S
C1182 C1191 1.390 . S
C1183 C1182 1.387 1_655 S
C1183 C1185 1.387 1_655 S
H1184 C1191 0.950 . S
C1185 C1183 1.387 1_455 S
C1185 C1187 1.390 . S
C1185 H1189 0.950 1_455 S
H1186 C1182 0.950 1_655 S
C1187 C1185 1.390 . S
C1187 C1188 1.387 . S
C1187 H1190 0.950 . S
C1188 C1187 1.387 . S
C1188 C1191 1.387 . S
H1189 C1185 0.950 1_655 S
H1190 C1187 0.950 . S
C1191 C1182 1.390 . S
C1191 H1184 0.950 . S
C1191 C1188 1.387 . S
C1192 C1193 1.387 . S
C1192 H1196 0.950 . S
C1192 C1201 1.390 . S
C1193 C1192 1.387 . S
C1193 C1195 1.387 . S
H1194 C1201 0.950 . S
C1195 C1193 1.387 . S
C1195 C1197 1.390 . S
C1195 H1199 0.950 . S
H1196 C1192 0.950 . S
C1197 C1195 1.390 . S
C1197 C1198 1.387 . S
C1197 H1200 0.950 . S
C1198 C1197 1.387 . S
C1198 C1201 1.387 . S
H1199 C1195 0.950 . S
H1200 C1197 0.950 . S
C1201 C1192 1.390 . S
C1201 H1194 0.950 . S
C1201 C1198 1.387 . S
C1202 C1203 1.387 . S
C1202 H1206 0.950 . S
C1202 C1211 1.390 . S
C1203 C1202 1.387 . S
C1203 C1205 1.387 . S
H1204 C1211 0.950 1_655 S
C1205 C1203 1.387 . S
C1205 C1207 1.390 . S
C1205 H1209 0.950 . S
H1206 C1202 0.950 . S
C1207 C1205 1.390 . S
C1207 C1208 1.387 1_455 S
C1207 H1210 0.950 1_455 S
C1208 C1207 1.387 1_655 S
C1208 C1211 1.387 1_655 S
H1209 C1205 0.950 . S
H1210 C1207 0.950 1_655 S
C1211 C1202 1.390 . S
C1211 H1204 0.950 1_455 S
C1211 C1208 1.387 1_455 S
C1212 C1213 1.387 . S
C1212 H1216 0.950 . S
C1212 C1221 1.390 . S
C1213 C1212 1.387 . S
C1213 C1215 1.387 . S
H1214 C1221 0.950 . S
C1215 C1213 1.387 . S
C1215 C1217 1.390 . S
C1215 H1219 0.950 . S
H1216 C1212 0.950 . S
C1217 C1215 1.390 . S
C1217 C1218 1.387 . S
C1217 H1220 0.950 . S
C1218 C1217 1.387 . S
C1218 C1221 1.387 . S
H1219 C1215 0.950 . S
H1220 C1217 0.950 . S
C1221 C1212 1.390 . S
C1221 H1214 0.950 . S
C1221 C1218 1.387 . S
C1222 C1223 1.387 . S
C1222 H1226 0.950 . S
C1222 C1231 1.390 . S
C1223 C1222 1.387 . S
C1223 C1225 1.387 . S
H1224 C1231 0.950 . S
C1225 C1223 1.387 . S
C1225 C1227 1.390 . S
C1225 H1229 0.950 . S
H1226 C1222 0.950 . S
C1227 C1225 1.390 . S
C1227 C1228 1.387 . S
C1227 H1230 0.950 . S
C1228 C1227 1.387 . S
C1228 C1231 1.387 . S
H1229 C1225 0.950 . S
H1230 C1227 0.950 . S
C1231 C1222 1.390 . S
C1231 H1224 0.950 . S
C1231 C1228 1.387 . S
C1232 C1233 1.387 . S
C1232 H1236 0.950 . S
C1232 C1241 1.390 . S
C1233 C1232 1.387 . S
C1233 C1235 1.387 . S
H1234 C1241 0.950 . S
C1235 C1233 1.387 . S
C1235 C1237 1.390 . S
C1235 H1239 0.950 . S
H1236 C1232 0.950 . S
C1237 C1235 1.390 . S
C1237 C1238 1.387 . S
C1237 H1240 0.950 . S
C1238 C1237 1.387 . S
C1238 C1241 1.387 . S
H1239 C1235 0.950 . S
H1240 C1237 0.950 . S
C1241 C1232 1.390 . S
C1241 H1234 0.950 . S
C1241 C1238 1.387 . S
C1242 C1243 1.387 . S
C1242 H1246 0.950 . S
C1242 C1251 1.390 . S
C1243 C1242 1.387 . S
C1243 C1245 1.387 . S
H1244 C1251 0.945 1_556 S
C1245 C1243 1.387 . S
C1245 C1247 1.390 . S
C1245 H1249 0.950 . S
H1246 C1242 0.950 . S
C1247 C1245 1.390 . S
C1247 C1248 1.387 1_554 S
C1247 H1250 0.950 1_554 S
C1248 C1247 1.387 1_556 S
C1248 C1251 1.387 1_556 S
H1249 C1245 0.950 . S
H1250 C1247 0.950 1_556 S
C1251 C1242 1.390 . S
C1251 H1244 0.945 1_554 S
C1251 C1248 1.387 1_554 S
C1252 C1253 1.387 . S
C1252 H1256 0.950 . S
C1252 C1261 1.390 . S
C1253 C1252 1.387 . S
C1253 C1255 1.387 . S
H1254 C1261 0.950 . S
C1255 C1253 1.387 . S
C1255 C1257 1.390 . S
C1255 H1259 0.950 . S
H1256 C1252 0.950 . S
C1257 C1255 1.390 . S
C1257 C1258 1.387 . S
C1257 H1260 0.950 . S
C1258 C1257 1.387 . S
C1258 C1261 1.387 . S
H1259 C1255 0.950 . S
H1260 C1257 0.950 . S
C1261 C1252 1.390 . S
C1261 H1254 0.950 . S
C1261 C1258 1.387 . S
C1262 C1263 1.387 . S
C1262 H1266 0.950 . S
C1262 C1271 1.390 . S
C1263 C1262 1.387 . S
C1263 C1265 1.387 . S
H1264 C1271 0.950 . S
C1265 C1263 1.387 . S
C1265 C1267 1.390 . S
C1265 H1269 0.950 . S
H1266 C1262 0.950 . S
C1267 C1265 1.390 . S
C1267 C1268 1.387 . S
C1267 H1270 0.950 . S
C1268 C1267 1.387 . S
C1268 C1271 1.387 . S
H1269 C1265 0.950 . S
H1270 C1267 0.950 . S
C1271 C1262 1.390 . S
C1271 H1264 0.950 . S
C1271 C1268 1.387 . S
C1272 C1273 1.387 . S
C1272 H1276 0.950 . S
C1272 C1281 1.390 . S
C1273 C1272 1.387 . S
C1273 C1275 1.387 . S
H1274 C1281 0.950 . S
C1275 C1273 1.387 . S
C1275 C1277 1.390 . S
C1275 H1279 0.950 . S
H1276 C1272 0.950 . S
C1277 C1275 1.390 . S
C1277 C1278 1.387 . S
C1277 H1280 0.950 . S
C1278 C1277 1.387 . S
C1278 C1281 1.387 . S
H1279 C1275 0.950 . S
H1280 C1277 0.950 . S
C1281 C1272 1.390 . S
C1281 H1274 0.950 . S
C1281 C1278 1.387 . S
C1282 C1283 1.387 . S
C1282 H1286 0.950 . S
C1282 C1291 1.390 . S
C1283 C1282 1.387 . S
C1283 C1285 1.387 . S
H1284 C1291 0.930 1_554 S
C1285 C1283 1.387 . S
C1285 C1287 1.390 . S
C1285 H1289 0.950 . S
H1286 C1282 0.950 . S
C1287 C1285 1.390 . S
C1287 C1288 1.387 1_556 S
C1287 H1290 0.970 . S
C1288 C1287 1.387 1_554 S
C1288 C1291 1.387 1_554 S
H1289 C1285 0.950 . S
H1290 C1287 0.970 . S
C1291 C1282 1.390 . S
C1291 H1284 0.930 1_556 S
C1291 C1288 1.387 1_556 S
C1292 C1293 1.387 . S
C1292 H1296 0.950 . S
C1292 C1301 1.390 . S
C1293 C1292 1.387 . S
C1293 C1295 1.387 . S
H1294 C1301 0.950 . S
C1295 C1293 1.387 . S
C1295 C1297 1.390 . S
C1295 H1299 0.950 . S
H1296 C1292 0.950 . S
C1297 C1295 1.390 . S
C1297 C1298 1.387 . S
C1297 H1300 0.950 . S
C1298 C1297 1.387 . S
C1298 C1301 1.387 . S
H1299 C1295 0.950 . S
H1300 C1297 0.950 . S
C1301 C1292 1.390 . S
C1301 H1294 0.950 . S
C1301 C1298 1.387 . S
C1302 C1303 1.387 . S
C1302 H1306 0.950 . S
C1302 C1311 1.390 . S
C1303 C1302 1.387 . S
C1303 C1305 1.387 . S
H1304 C1311 0.950 . S
C1305 C1303 1.387 . S
C1305 C1307 1.390 . S
C1305 H1309 0.950 . S
H1306 C1302 0.950 . S
C1307 C1305 1.390 . S
C1307 C1308 1.387 . S
C1307 H1310 0.950 . S
C1308 C1307 1.387 . S
C1308 C1311 1.387 . S
H1309 C1305 0.950 . S
H1310 C1307 0.950 . S
C1311 C1302 1.390 . S
C1311 H1304 0.950 . S
C1311 C1308 1.387 . S
C1312 C1313 1.387 . S
C1312 H1316 0.950 . S
C1312 C1321 1.390 . S
C1313 C1312 1.387 . S
C1313 C1315 1.387 . S
H1314 C1321 0.950 . S
C1315 C1313 1.387 . S
C1315 C1317 1.390 . S
C1315 H1319 0.950 . S
H1316 C1312 0.950 . S
C1317 C1315 1.390 . S
C1317 C1318 1.387 . S
C1317 H1320 0.950 . S
C1318 C1317 1.387 . S
C1318 C1321 1.387 . S
H1319 C1315 0.950 . S
H1320 C1317 0.950 . S
C1321 C1312 1.390 . S
C1321 H1314 0.950 . S
C1321 C1318 1.387 . S
C1322 C1323 1.387 . S
C1322 H1326 0.950 . S
C1322 C1331 1.390 . S
C1323 C1322 1.387 . S
C1323 C1325 1.387 . S
H1324 C1331 0.950 . S
C1325 C1323 1.387 . S
C1325 C1327 1.390 . S
C1325 H1329 0.950 . S
H1326 C1322 0.950 . S
C1327 C1325 1.390 . S
C1327 C1328 1.387 . S
C1327 H1330 0.950 . S
C1328 C1327 1.387 . S
C1328 C1331 1.387 . S
H1329 C1325 0.950 . S
H1330 C1327 0.950 . S
C1331 C1322 1.390 . S
C1331 H1324 0.950 . S
C1331 C1328 1.387 . S
C1332 C1333 1.387 . S
C1332 H1336 0.950 . S
C1332 C1341 1.390 . S
C1333 C1332 1.387 . S
C1333 C1335 1.387 . S
H1334 C1341 0.950 1_565 S
C1335 C1333 1.387 . S
C1335 C1337 1.390 . S
C1335 H1339 0.950 . S
H1336 C1332 0.950 . S
C1337 C1335 1.390 . S
C1337 C1338 1.387 1_545 S
C1337 H1340 0.950 1_545 S
C1338 C1337 1.387 1_565 S
C1338 C1341 1.387 1_565 S
H1339 C1335 0.950 . S
H1340 C1337 0.950 1_565 S
C1341 C1332 1.390 . S
C1341 H1334 0.950 1_545 S
C1341 C1338 1.387 1_545 S
C1342 C1343 1.387 . S
C1342 H1346 0.950 . S
C1342 C1351 1.390 . S
C1343 C1342 1.387 . S
C1343 C1345 1.387 . S
H1344 C1351 0.950 . S
C1345 C1343 1.387 . S
C1345 C1347 1.390 . S
C1345 H1349 0.950 . S
H1346 C1342 0.950 . S
C1347 C1345 1.390 . S
C1347 C1348 1.387 . S
C1347 H1350 0.950 . S
C1348 C1347 1.387 . S
C1348 C1351 1.387 . S
H1349 C1345 0.950 . S
H1350 C1347 0.950 . S
C1351 C1342 1.390 . S
C1351 H1344 0.950 . S
C1351 C1348 1.387 . S
C1352 C1353 1.387 . S
C1352 H1356 0.950 . S
C1352 C1361 1.390 . S
C1353 C1352 1.387 . S
C1353 C1355 1.387 . S
H1354 C1361 0.950 . S
C1355 C1353 1.387 . S
C1355 C1357 1.390 . S
C1355 H1359 0.950 . S
H1356 C1352 0.950 . S
C1357 C1355 1.390 . S
C1357 C1358 1.387 . S
C1357 H1360 0.950 . S
C1358 C1357 1.387 . S
C1358 C1361 1.387 . S
H1359 C1355 0.950 . S
H1360 C1357 0.950 . S
C1361 C1352 1.390 . S
C1361 H1354 0.950 . S
C1361 C1358 1.387 . S
C1362 C1363 1.387 . S
C1362 H1366 0.950 . S
C1362 C1371 1.390 . S
C1363 C1362 1.387 . S
C1363 C1365 1.387 . S
H1364 C1371 0.950 . S
C1365 C1363 1.387 . S
C1365 C1367 1.390 . S
C1365 H1369 0.950 . S
H1366 C1362 0.950 . S
C1367 C1365 1.390 . S
C1367 C1368 1.387 . S
C1367 H1370 0.950 . S
C1368 C1367 1.387 . S
C1368 C1371 1.387 . S
H1369 C1365 0.950 . S
H1370 C1367 0.950 . S
C1371 C1362 1.390 . S
C1371 H1364 0.950 . S
C1371 C1368 1.387 . S
C1372 C1373 1.387 . S
C1372 H1376 0.950 . S
C1372 C1381 1.390 1_545 S
C1373 C1372 1.387 . S
C1373 C1375 1.387 . S
H1374 C1381 0.950 . S
C1375 C1373 1.387 . S
C1375 C1377 1.390 1_545 S
C1375 H1379 0.950 . S
H1376 C1372 0.950 . S
C1377 C1375 1.390 1_565 S
C1377 C1378 1.387 . S
C1377 H1380 0.950 . S
C1378 C1377 1.387 . S
C1378 C1381 1.387 . S
H1379 C1375 0.950 . S
H1380 C1377 0.950 . S
C1381 C1372 1.390 1_565 S
C1381 H1374 0.950 . S
C1381 C1378 1.387 . S
C1382 C1383 1.387 . S
C1382 H1386 0.950 . S
C1382 C1391 1.393 1_545 S
C1383 C1382 1.387 . S
C1383 C1385 1.387 . S
H1384 C1391 0.948 . S
C1385 C1383 1.387 . S
C1385 C1387 1.390 . S
C1385 H1389 0.950 . S
H1386 C1382 0.950 . S
C1387 C1385 1.390 . S
C1387 C1388 1.387 1_545 S
C1387 H1390 0.950 1_545 S
C1388 C1387 1.387 1_565 S
C1388 C1391 1.386 . S
H1389 C1385 0.950 . S
H1390 C1387 0.950 1_565 S
C1391 C1382 1.393 1_565 S
C1391 H1384 0.948 . S
C1391 C1388 1.386 . S
C1392 C1393 1.387 . S
C1392 H1396 0.950 . S
C1392 C1401 1.390 . S
C1393 C1392 1.387 . S
C1393 C1395 1.387 . S
H1394 C1401 0.950 . S
C1395 C1393 1.387 . S
C1395 C1397 1.390 . S
C1395 H1399 0.950 . S
H1396 C1392 0.950 . S
C1397 C1395 1.390 . S
C1397 C1398 1.387 . S
C1397 H1400 0.950 . S
C1398 C1397 1.387 . S
C1398 C1401 1.387 . S
H1399 C1395 0.950 . S
H1400 C1397 0.950 . S
C1401 C1392 1.390 . S
C1401 H1394 0.950 . S
C1401 C1398 1.387 . S
C1402 C1403 1.387 . S
C1402 H1406 0.950 . S
C1402 C1411 1.390 . S
C1403 C1402 1.387 . S
C1403 C1405 1.387 . S
H1404 C1411 0.950 . S
C1405 C1403 1.387 . S
C1405 C1407 1.390 . S
C1405 H1409 0.950 . S
H1406 C1402 0.950 . S
C1407 C1405 1.390 . S
C1407 C1408 1.387 . S
C1407 H1410 0.950 . S
C1408 C1407 1.387 . S
C1408 C1411 1.387 . S
H1409 C1405 0.950 . S
H1410 C1407 0.950 . S
C1411 C1402 1.390 . S
C1411 H1404 0.950 . S
C1411 C1408 1.387 . S
C1412 C1413 1.387 . S
C1412 H1416 0.950 . S
C1412 C1421 1.390 . S
C1413 C1412 1.387 . S
C1413 C1415 1.387 . S
H1414 C1421 0.950 . S
C1415 C1413 1.387 . S
C1415 C1417 1.390 . S
C1415 H1419 0.950 . S
H1416 C1412 0.950 . S
C1417 C1415 1.390 . S
C1417 C1418 1.387 . S
C1417 H1420 0.950 . S
C1418 C1417 1.387 . S
C1418 C1421 1.387 . S
H1419 C1415 0.950 . S
H1420 C1417 0.950 . S
C1421 C1412 1.390 . S
C1421 H1414 0.950 . S
C1421 C1418 1.387 . S
C1422 C1423 1.387 1_655 S
C1422 H1426 0.950 1_655 S
C1422 C1431 1.390 . S
C1423 C1422 1.387 1_455 S
C1423 C1425 1.387 1_455 S
H1424 C1431 0.950 . S
C1425 C1423 1.387 1_655 S
C1425 C1427 1.390 . S
C1425 H1429 0.950 1_655 S
H1426 C1422 0.950 1_455 S
C1427 C1425 1.390 . S
C1427 C1428 1.387 . S
C1427 H1430 0.950 . S
C1428 C1427 1.387 . S
C1428 C1431 1.387 . S
H1429 C1425 0.950 1_455 S
H1430 C1427 0.950 . S
C1431 C1422 1.390 . S
C1431 H1424 0.950 . S
C1431 C1428 1.387 . S
C1432 C1433 1.387 . S
C1432 H1436 0.950 . S
C1432 C1441 1.390 . S
C1433 C1432 1.387 . S
C1433 C1435 1.387 . S
H1434 C1441 0.950 . S
C1435 C1433 1.387 . S
C1435 C1437 1.390 . S
C1435 H1439 0.950 . S
H1436 C1432 0.950 . S
C1437 C1435 1.390 . S
C1437 C1438 1.387 . S
C1437 H1440 0.950 . S
C1438 C1437 1.387 . S
C1438 C1441 1.387 . S
H1439 C1435 0.950 . S
H1440 C1437 0.950 . S
C1441 C1432 1.390 . S
C1441 H1434 0.950 . S
C1441 C1438 1.387 . S
C1442 C1443 1.387 1_655 S
C1442 H1446 0.950 1_655 S
C1442 C1451 1.390 . S
C1443 C1442 1.387 1_455 S
C1443 C1445 1.387 1_455 S
H1444 C1451 0.950 . S
C1445 C1443 1.387 1_655 S
C1445 C1447 1.390 . S
C1445 H1449 0.950 1_655 S
H1446 C1442 0.950 1_455 S
C1447 C1445 1.390 . S
C1447 C1448 1.387 . S
C1447 H1450 0.950 . S
C1448 C1447 1.387 . S
C1448 C1451 1.387 . S
H1449 C1445 0.950 1_455 S
H1450 C1447 0.950 . S
C1451 C1442 1.390 . S
C1451 H1444 0.950 . S
C1451 C1448 1.387 . S
C1452 C1453 1.387 . S
C1452 H1456 0.950 . S
C1452 C1461 1.390 . S
C1453 C1452 1.387 . S
C1453 C1455 1.387 . S
H1454 C1461 0.950 . S
C1455 C1453 1.387 . S
C1455 C1457 1.390 . S
C1455 H1459 0.950 . S
H1456 C1452 0.950 . S
C1457 C1455 1.390 . S
C1457 C1458 1.387 . S
C1457 H1460 0.950 . S
C1458 C1457 1.387 . S
C1458 C1461 1.387 . S
H1459 C1455 0.950 . S
H1460 C1457 0.950 . S
C1461 C1452 1.390 . S
C1461 H1454 0.950 . S
C1461 C1458 1.387 . S
C1462 C1463 1.387 . S
C1462 H1466 0.950 . S
C1462 C1471 1.390 . S
C1463 C1462 1.387 . S
C1463 C1465 1.387 . S
H1464 C1471 0.950 . S
C1465 C1463 1.387 . S
C1465 C1467 1.390 . S
C1465 H1469 0.950 . S
H1466 C1462 0.950 . S
C1467 C1465 1.390 . S
C1467 C1468 1.387 . S
C1467 H1470 0.950 . S
C1468 C1467 1.387 . S
C1468 C1471 1.387 . S
H1469 C1465 0.950 . S
H1470 C1467 0.950 . S
C1471 C1462 1.390 . S
C1471 H1464 0.950 . S
C1471 C1468 1.387 . S
C1472 C1473 1.387 . S
C1472 H1476 0.950 . S
C1472 C1481 1.390 . S
C1473 C1472 1.387 . S
C1473 C1475 1.387 . S
H1474 C1481 0.950 . S
C1475 C1473 1.387 . S
C1475 C1477 1.390 . S
C1475 H1479 0.950 . S
H1476 C1472 0.950 . S
C1477 C1475 1.390 . S
C1477 C1478 1.387 . S
C1477 H1480 0.950 . S
C1478 C1477 1.387 . S
C1478 C1481 1.387 . S
H1479 C1475 0.950 . S
H1480 C1477 0.950 . S
C1481 C1472 1.390 . S
C1481 H1474 0.950 . S
C1481 C1478 1.387 . S
C1482 C1483 1.387 . S
C1482 H1486 0.950 . S
C1482 C1491 1.390 1_556 S
C1483 C1482 1.387 . S
C1483 C1485 1.387 . S
H1484 C1491 0.950 . S
C1485 C1483 1.387 . S
C1485 C1487 1.390 . S
C1485 H1489 0.950 . S
H1486 C1482 0.950 . S
C1487 C1485 1.390 . S
C1487 C1488 1.387 1_556 S
C1487 H1490 0.950 1_556 S
C1488 C1487 1.387 1_554 S
C1488 C1491 1.387 . S
H1489 C1485 0.950 . S
H1490 C1487 0.950 1_554 S
C1491 C1482 1.390 1_554 S
C1491 H1484 0.950 . S
C1491 C1488 1.387 . S
C1492 C1493 1.387 . S
C1492 H1496 0.950 . S
C1492 C1501 1.390 . S
C1493 C1492 1.387 . S
C1493 C1495 1.387 . S
H1494 C1501 0.950 . S
C1495 C1493 1.387 . S
C1495 C1497 1.390 . S
C1495 H1499 0.950 . S
H1496 C1492 0.950 . S
C1497 C1495 1.390 . S
C1497 C1498 1.387 . S
C1497 H1500 0.950 . S
C1498 C1497 1.387 . S
C1498 C1501 1.387 . S
H1499 C1495 0.950 . S
H1500 C1497 0.950 . S
C1501 C1492 1.390 . S
C1501 H1494 0.950 . S
C1501 C1498 1.387 . S
C1502 C1503 1.387 . S
C1502 H1506 0.950 . S
C1502 C1511 1.390 . S
C1503 C1502 1.387 . S
C1503 C1505 1.387 . S
H1504 C1511 0.950 . S
C1505 C1503 1.387 . S
C1505 C1507 1.390 . S
C1505 H1509 0.950 . S
H1506 C1502 0.950 . S
C1507 C1505 1.390 . S
C1507 C1508 1.387 . S
C1507 H1510 0.950 . S
C1508 C1507 1.387 . S
C1508 C1511 1.387 . S
H1509 C1505 0.950 . S
H1510 C1507 0.950 . S
C1511 C1502 1.390 . S
C1511 H1504 0.950 . S
C1511 C1508 1.387 . S
C1512 C1513 1.387 . S
C1512 H1516 0.950 . S
C1512 C1521 1.390 . S
C1513 C1512 1.387 . S
C1513 C1515 1.387 . S
H1514 C1521 0.950 . S
C1515 C1513 1.387 . S
C1515 C1517 1.390 . S
C1515 H1519 0.950 . S
H1516 C1512 0.950 . S
C1517 C1515 1.390 . S
C1517 C1518 1.387 . S
C1517 H1520 0.950 . S
C1518 C1517 1.387 . S
C1518 C1521 1.387 . S
H1519 C1515 0.950 . S
H1520 C1517 0.950 . S
C1521 C1512 1.390 . S
C1521 H1514 0.950 . S
C1521 C1518 1.387 . S
C1522 C1523 1.387 . S
C1522 H1526 0.950 . S
C1522 C1531 1.390 1_554 S
C1523 C1522 1.387 . S
C1523 C1525 1.387 . S
H1524 C1531 0.950 . S
C1525 C1523 1.387 . S
C1525 C1527 1.390 . S
C1525 H1529 0.950 . S
H1526 C1522 0.950 . S
C1527 C1525 1.390 . S
C1527 C1528 1.387 1_554 S
C1527 H1530 0.949 1_554 S
C1528 C1527 1.387 1_556 S
C1528 C1531 1.387 . S
H1529 C1525 0.950 . S
H1530 C1527 0.949 1_556 S
C1531 C1522 1.390 1_556 S
C1531 H1524 0.950 . S
C1531 C1528 1.387 . S
C1532 C1533 1.387 . S
C1532 H1536 0.950 . S
C1532 C1541 1.390 . S
C1533 C1532 1.387 . S
C1533 C1535 1.387 . S
H1534 C1541 0.950 . S
C1535 C1533 1.387 . S
C1535 C1537 1.390 . S
C1535 H1539 0.950 . S
H1536 C1532 0.950 . S
C1537 C1535 1.390 . S
C1537 C1538 1.387 . S
C1537 H1540 0.950 . S
C1538 C1537 1.387 . S
C1538 C1541 1.387 . S
H1539 C1535 0.950 . S
H1540 C1537 0.950 . S
C1541 C1532 1.390 . S
C1541 H1534 0.950 . S
C1541 C1538 1.387 . S
C1542 C1543 1.387 . S
C1542 H1546 0.950 . S
C1542 C1551 1.390 . S
C1543 C1542 1.387 . S
C1543 C1545 1.387 . S
H1544 C1551 0.950 . S
C1545 C1543 1.387 . S
C1545 C1547 1.390 . S
C1545 H1549 0.950 . S
H1546 C1542 0.950 . S
C1547 C1545 1.390 . S
C1547 C1548 1.387 . S
C1547 H1550 0.950 . S
C1548 C1547 1.387 . S
C1548 C1551 1.387 . S
H1549 C1545 0.950 . S
H1550 C1547 0.950 . S
C1551 C1542 1.390 . S
C1551 H1544 0.950 . S
C1551 C1548 1.387 . S
C1552 C1553 1.387 . S
C1552 H1556 0.950 . S
C1552 C1561 1.390 . S
C1553 C1552 1.387 . S
C1553 C1555 1.387 . S
H1554 C1561 0.950 . S
C1555 C1553 1.387 . S
C1555 C1557 1.390 . S
C1555 H1559 0.950 . S
H1556 C1552 0.950 . S
C1557 C1555 1.390 . S
C1557 C1558 1.387 . S
C1557 H1560 0.950 . S
C1558 C1557 1.387 . S
C1558 C1561 1.387 . S
H1559 C1555 0.950 . S
H1560 C1557 0.950 . S
C1561 C1552 1.390 . S
C1561 H1554 0.950 . S
C1561 C1558 1.387 . S
C1562 C1563 1.387 . S
C1562 H1566 0.950 . S
C1562 C1571 1.390 . S
C1563 C1562 1.387 . S
C1563 C1565 1.387 . S
H1564 C1571 0.950 . S
C1565 C1563 1.387 . S
C1565 C1567 1.390 . S
C1565 H1569 0.950 . S
H1566 C1562 0.950 . S
C1567 C1565 1.390 . S
C1567 C1568 1.387 . S
C1567 H1570 0.950 . S
C1568 C1567 1.387 . S
C1568 C1571 1.387 . S
H1569 C1565 0.950 . S
H1570 C1567 0.950 . S
C1571 C1562 1.390 . S
C1571 H1564 0.950 . S
C1571 C1568 1.387 . S
C1572 C1573 1.387 . S
C1572 H1576 0.950 . S
C1572 C1581 1.389 . S
C1573 C1572 1.387 . S
C1573 C1575 1.387 . S
H1574 C1581 0.950 1_545 S
C1575 C1573 1.387 . S
C1575 C1577 1.367 1_565 S
C1575 H1579 0.950 . S
H1576 C1572 0.950 . S
C1577 C1575 1.367 1_545 S
C1577 C1578 1.399 . S
C1577 H1580 0.962 . S
C1578 C1577 1.399 . S
C1578 C1581 1.388 1_545 S
H1579 C1575 0.950 . S
H1580 C1577 0.962 . S
C1581 C1572 1.389 . S
C1581 H1574 0.950 1_565 S
C1581 C1578 1.388 1_565 S
C1582 C1583 1.387 . S
C1582 H1586 0.950 . S
C1582 C1591 1.390 . S
C1583 C1582 1.387 . S
C1583 C1585 1.387 . S
H1584 C1591 0.950 . S
C1585 C1583 1.387 . S
C1585 C1587 1.390 . S
C1585 H1589 0.950 . S
H1586 C1582 0.950 . S
C1587 C1585 1.390 . S
C1587 C1588 1.387 . S
C1587 H1590 0.950 . S
C1588 C1587 1.387 . S
C1588 C1591 1.387 . S
H1589 C1585 0.950 . S
H1590 C1587 0.950 . S
C1591 C1582 1.390 . S
C1591 H1584 0.950 . S
C1591 C1588 1.387 . S
C1592 C1593 1.387 . S
C1592 H1596 0.950 . S
C1592 C1601 1.390 . S
C1593 C1592 1.387 . S
C1593 C1595 1.387 . S
H1594 C1601 0.950 . S
C1595 C1593 1.387 . S
C1595 C1597 1.390 . S
C1595 H1599 0.950 . S
H1596 C1592 0.950 . S
C1597 C1595 1.390 . S
C1597 C1598 1.387 . S
C1597 H1600 0.950 . S
C1598 C1597 1.387 . S
C1598 C1601 1.387 . S
H1599 C1595 0.950 . S
H1600 C1597 0.950 . S
C1601 C1592 1.390 . S
C1601 H1594 0.950 . S
C1601 C1598 1.387 . S
C1602 C1603 1.387 . S
C1602 H1606 0.950 . S
C1602 C1611 1.390 . S
C1603 C1602 1.387 . S
C1603 C1605 1.387 . S
H1604 C1611 0.950 . S
C1605 C1603 1.387 . S
C1605 C1607 1.390 . S
C1605 H1609 0.950 . S
H1606 C1602 0.950 . S
C1607 C1605 1.390 . S
C1607 C1608 1.387 . S
C1607 H1610 0.950 . S
C1608 C1607 1.387 . S
C1608 C1611 1.387 . S
H1609 C1605 0.950 . S
H1610 C1607 0.950 . S
C1611 C1602 1.390 . S
C1611 H1604 0.950 . S
C1611 C1608 1.387 . S
C1612 C1613 1.386 . S
C1612 H1616 0.948 . S
C1612 C1621 1.393 1_565 S
C1613 C1612 1.386 . S
C1613 C1615 1.387 1_565 S
H1614 C1621 0.950 . S
C1615 C1613 1.387 1_545 S
C1615 C1617 1.390 . S
C1615 H1619 0.950 1_545 S
H1616 C1612 0.948 . S
C1617 C1615 1.390 . S
C1617 C1618 1.387 . S
C1617 H1620 0.950 . S
C1618 C1617 1.387 . S
C1618 C1621 1.387 . S
H1619 C1615 0.950 1_565 S
H1620 C1617 0.950 . S
C1621 C1612 1.393 1_545 S
C1621 H1614 0.950 . S
C1621 C1618 1.387 . S
C1622 C1623 1.387 . S
C1622 H1626 0.950 . S
C1622 C1631 1.390 1_565 S
C1623 C1622 1.387 . S
C1623 C1625 1.387 . S
H1624 C1631 0.950 . S
C1625 C1623 1.387 . S
C1625 C1627 1.390 . S
C1625 H1629 0.950 . S
H1626 C1622 0.950 . S
C1627 C1625 1.390 . S
C1627 C1628 1.387 1_565 S
C1627 H1630 0.950 1_565 S
C1628 C1627 1.387 1_545 S
C1628 C1631 1.387 . S
H1629 C1625 0.950 . S
H1630 C1627 0.950 1_545 S
C1631 C1622 1.390 1_545 S
C1631 H1624 0.950 . S
C1631 C1628 1.387 . S
C673 C588 1.402 . S
C678 C11 1.404 . S
C683 C23 1.468 . S
C688 C219 1.427 . S
C693 C39 1.425 . S
C698 C560 1.426 . S
C703 C51 1.461 . S
C708 C247 1.415 . S
C713 C625 1.430 . S
C718 C61 1.467 . S
C723 C70 1.446 . S
C728 C294 1.442 . S
C733 C89 1.468 . S
C738 C653 1.431 . S
C743 C98 1.433 . S
C748 C266 1.429 . S
C753 C42 1.438 . S
C758 C658 1.432 . S
C763 C5 1.476 . S
C768 C350 1.464 . S
C773 C373 1.403 . S
C778 C14 1.433 . S
C783 C33 1.472 . S
C788 C336 1.459 . S
C793 C79 1.443 . S
C798 C345 1.402 . S
C803 C95 1.412 . S
C808 C667 1.382 . S
C813 C107 1.451 . S
C818 C359 1.421 . S
C823 C67 1.403 . S
C828 C364 1.393 . S
C833 C546 1.412 . S
C838 C112 1.414 . S
C843 C126 1.474 . S
C848 C275 1.433 . S
C853 C121 1.427 . S
C858 C616 1.418 . S
C863 C303 1.416 . S
C868 C140 1.448 . S
C873 C308 1.429 . S
C878 C154 1.429 . S
C883 C574 1.416 . S
C888 C177 1.435 . S
C893 C597 1.392 . S
C898 C182 1.432 . S
C903 C569 1.407 . S
C908 C205 1.445 . S
C913 C473 1.445 . S
C918 C221 1.434 . S
C923 C229 1.415 . S
C928 C9 1.395 . S
C933 C249 1.407 . S
C938 C445 1.422 . S
C943 C37 1.416 . S
C948 C257 1.436 . S
C953 C271 1.456 . S
C958 C495 1.447 . S
C963 C84 1.385 . S
C968 C291 1.371 . S
C973 C299 1.441 . S
C978 C523 1.430 . S
C983 C56 1.390 . S
C988 C319 1.380 . S
C993 C543 1.364 . S
C998 C263 1.357 . S
C1003 C215 1.481 . S
C1008 C145 1.474 . S
C1013 C159 1.406 . S
C1018 C235 1.402 . S
C1023 C131 1.509 . S
C1028 C243 1.519 . S
C1033 C137 1.454 . S
C1038 C285 1.456 . S
C1043 C305 1.393 . S
C1048 C537 1.392 . S
C1053 C151 1.418 . S
C1058 C313 1.419 . S
C1063 C277 1.357 . S
C1068 C165 1.362 . S
C1073 C333 1.354 . S
C1078 C420 1.362 . S
C1083 C341 1.411 . S
C1088 C65 1.380 . S
C1093 C327 1.399 . S
C1098 C501 1.394 . S
C1103 C355 1.444 . S
C1108 C93 1.417 . S
C1113 C375 1.367 . S
C1118 C109 1.375 . S
C1123 C448 1.430 . S
C1128 C383 1.432 . S
C1133 C397 1.473 . S
C1138 C467 1.461 . S
C1143 C417 1.421 . S
C1148 C439 1.423 . S
C1153 C431 1.412 . S
C1158 C252 1.411 . S
C1163 C443 1.466 . S
C1168 C555 1.421 . S
C1173 C224 1.444 . S
C1178 C459 1.446 . S
C1183 C471 1.456 . S
C1188 C583 1.414 . S
C1193 C481 1.450 . S
C1198 C289 1.411 . S
C1203 C630 1.415 . S
C1208 C490 1.416 . S
C1213 C509 1.466 . S
C1218 C317 1.431 . S
C1223 C602 1.439 . S
C1228 C518 1.444 . S
C1233 C322 1.439 . S
C1238 C462 1.449 . S
C1243 C406 1.461 . S
C1248 C425 1.469 . S
C1253 C434 1.434 . S
C1258 C387 1.406 . S
C1263 C401 1.458 . S
C1268 C453 1.504 . S
C1273 C499 1.442 . S
C1278 C392 1.430 . S
C1283 C331 1.389 . S
C1288 C515 1.420 . S
C1293 C527 1.445 . S
C1298 C415 1.418 . S
C1303 C487 1.381 . S
C1308 C378 1.377 . S
C1313 C532 1.425 . S
C1318 C210 1.422 . S
C1323 C191 1.479 . S
C1328 C611 1.428 . S
C1333 C280 1.424 . S
C1338 C541 1.437 . S
C1343 C639 1.401 . S
C1348 C196 1.433 . S
C1353 C644 1.427 . S
C1358 C168 1.430 . S
C1363 C163 1.432 . S
C1368 C238 1.419 . S
C1373 C135 1.466 . S
C1378 C261 1.419 . S
C1383 C233 1.413 . S
C1388 C149 1.453 . S
C1393 C557 1.409 . S
C1398 C53 1.420 . S
C1403 C429 1.404 . S
C1408 C565 1.424 . S
C1413 C585 1.393 . S
C1418 C25 1.410 . S
C1423 C593 1.412 . S
C1428 C457 1.389 . S
C1433 C75 1.441 . S
C1438 C607 1.451 . S
C1443 C627 1.399 . S
C1448 C504 1.410 . S
C1453 C635 1.446 . S
C1458 C103 1.435 . S
C1463 C476 1.366 . S
C1468 C655 1.356 . S
C1473 C599 1.323 . S
C1478 C123 1.327 . S
C1483 C201 1.473 . S
C1488 C551 1.481 . S
C1493 C173 1.405 . S
C1498 C571 1.403 . S
C1503 C579 1.468 . S
C1508 C193 1.469 . S
C1513 C621 1.493 . S
C1518 C187 1.481 . S
C1523 C117 1.385 . S
C1528 C641 1.382 . S
C1533 C207 1.417 . S
C1538 C649 1.418 . S
C1543 C613 1.394 . S
C1548 C179 1.402 . S
C1553 C0 1.361 . S
C1558 C669 1.350 . S
C1563 C403 1.351 . S
C1568 C485 1.337 . S
C1573 C81 1.416 . S
C1578 C663 1.421 . S
C1583 C513 1.427 . S
C1588 C411 1.454 . S
C1593 C529 1.370 . S
C1598 C389 1.362 . S
C1603 C369 1.412 . S
C1608 C28 1.408 . S
C1613 C347 1.390 . S
C1618 C47 1.391 . S
C1623 C19 1.425 . S
C1628 C361 1.421 . S
