# Generated by pormake.
# Topology utk, (3)-cn, num edge types: 1
# Building blocks:
#     Node 0, Type 0, BuildingBlock: WUSLED_clean_sbu_0, # of connection points: 3
#     Node 1, Type 0, BuildingBlock: WUSLED_clean_sbu_0, # of connection points: 3
#     Node 2, Type 0, BuildingBlock: WUSLED_clean_sbu_0, # of connection points: 3
#     Node 3, Type 0, BuildingBlock: WUSLED_clean_sbu_0, # of connection points: 3
#     Node 4, Type 0, BuildingBlock: WUSLED_clean_sbu_0, # of connection points: 3
#     Node 5, Type 0, BuildingBlock: WUSLED_clean_sbu_0, # of connection points: 3
#     Node 6, Type 0, BuildingBlock: WUSLED_clean_sbu_0, # of connection points: 3
#     Node 7, Type 0, BuildingBlock: WUSLED_clean_sbu_0, # of connection points: 3
#     Edge 8, Type (0, 0), BuildingBlock: UVAHIK_clean_linker_0, # of connection points: 2
#     Edge 9, Type (0, 0), BuildingBlock: UVAHIK_clean_linker_0, # of connection points: 2
#     Edge 10, Type (0, 0), BuildingBlock: UVAHIK_clean_linker_0, # of connection points: 2
#     Edge 11, Type (0, 0), BuildingBlock: UVAHIK_clean_linker_0, # of connection points: 2
#     Edge 12, Type (0, 0), BuildingBlock: UVAHIK_clean_linker_0, # of connection points: 2
#     Edge 13, Type (0, 0), BuildingBlock: UVAHIK_clean_linker_0, # of connection points: 2
#     Edge 14, Type (0, 0), BuildingBlock: UVAHIK_clean_linker_0, # of connection points: 2
#     Edge 15, Type (0, 0), BuildingBlock: UVAHIK_clean_linker_0, # of connection points: 2
#     Edge 16, Type (0, 0), BuildingBlock: UVAHIK_clean_linker_0, # of connection points: 2
#     Edge 17, Type (0, 0), BuildingBlock: UVAHIK_clean_linker_0, # of connection points: 2
#     Edge 18, Type (0, 0), BuildingBlock: UVAHIK_clean_linker_0, # of connection points: 2
#     Edge 19, Type (0, 0), BuildingBlock: UVAHIK_clean_linker_0, # of connection points: 2
# Relax obj value: 0.069
# Max RMSD: 0.071
# Mean RMSD: 0.071
data_MOF--net-utk--node1-WUSLED_clean_sbu_0--edge1-UVAHIK_clean_linker_0
_symmetry_space_group_name_H-M    P1
_symmetry_Int_Tables_number       1
_symmetry_cell_setting            triclinic
loop_
_symmetry_equiv_pos_as_xyz
'x, y, z'
_cell_length_a     56.873439
_cell_length_b     56.810946
_cell_length_c     61.032985
_cell_angle_alpha  89.99808
_cell_angle_beta   90.131891
_cell_angle_gamma 89.925352
loop_
_atom_site_label
_atom_site_type_symbol
_atom_site_fract_x
_atom_site_fract_y
_atom_site_fract_z
_atom_type_partial_charge
C0 C 0.04384 0.23925 0.17093 0.0
C1 C 0.02914 0.25562 0.16045 0.0
C2 C 0.03481 0.23559 0.12555 0.0
C3 C 0.02457 0.25373 0.13802 0.0
C4 C 0.04944 0.21914 0.13621 0.0
C5 C 0.0539 0.22097 0.15871 0.0
U6 U 0.04734 0.27809 0.22086 0.0
O7 O 0.03822 0.27177 0.25546 0.0
O8 O 0.07423 0.28184 0.24647 0.0
C9 C 0.06001 0.27481 0.26212 0.0
C10 C 0.04949 0.24186 0.19434 0.0
C11 C 0.06936 0.25689 0.27731 0.0
C12 C 0.09678 0.2254 0.28623 0.0
C13 C 0.08688 0.24086 0.2709 0.0
C14 C 0.07114 0.24114 0.31428 0.0
C15 C 0.08929 0.22561 0.3082 0.0
C16 C 0.06136 0.25665 0.299 0.0
C17 C 0.02969 0.34254 0.21371 0.0
C18 C 0.02959 0.37035 0.24393 0.0
C19 C 0.0236 0.38415 0.20675 0.0
C20 C 0.02557 0.36106 0.19908 0.0
C21 C 0.02569 0.38911 0.22927 0.0
C22 C 0.03163 0.34725 0.2362 0.0
C23 C 0.03275 0.31858 0.20516 0.0
O24 O 0.06764 0.25543 0.19855 0.0
O25 O 0.03143 0.24602 0.2072 0.0
O26 O 0.01847 0.30256 0.21313 0.0
O27 O 0.05465 0.31137 0.20384 0.0
H28 H 0.02131 0.26996 0.16959 0.0
H29 H 0.01294 0.2665 0.13047 0.0
H30 H 0.05788 0.20514 0.12709 0.0
H31 H 0.06547 0.20832 0.16652 0.0
H32 H 0.11084 0.21384 0.28099 0.0
H33 H 0.09329 0.24065 0.25421 0.0
H34 H 0.06461 0.24147 0.33093 0.0
H35 H 0.04778 0.26879 0.30424 0.0
H36 H 0.03102 0.3735 0.26138 0.0
H37 H 0.02099 0.39816 0.19497 0.0
H38 H 0.02421 0.35772 0.18164 0.0
H39 H 0.03487 0.33309 0.24772 0.0
C40 C 0.78483 0.04629 0.42157 0.0
C41 C 0.76496 0.04161 0.40864 0.0
C42 C 0.78985 0.03485 0.37683 0.0
C43 C 0.76743 0.036 0.3865 0.0
C44 C 0.80974 0.03958 0.3899 0.0
C45 C 0.80723 0.04524 0.41211 0.0
U46 U 0.74475 0.05245 0.47006 0.0
O47 O 0.74904 0.04312 0.50485 0.0
O48 O 0.74168 0.0797 0.49544 0.0
C49 C 0.74688 0.06506 0.51141 0.0
C50 C 0.78202 0.05216 0.44487 0.0
C51 C 0.76473 0.07339 0.527 0.0
C52 C 0.80426 0.08686 0.53544 0.0
C53 C 0.78788 0.07799 0.52039 0.0
C54 C 0.77453 0.08627 0.5638 0.0
C55 C 0.79773 0.09123 0.55732 0.0
C56 C 0.75822 0.07744 0.54878 0.0
C57 C 0.67976 0.03853 0.46044 0.0
C58 C 0.65089 0.03669 0.48966 0.0
C59 C 0.63817 0.03661 0.45173 0.0
C60 C 0.66158 0.03779 0.44496 0.0
C61 C 0.63254 0.03611 0.47416 0.0
C62 C 0.67433 0.038 0.48285 0.0
C63 C 0.70418 0.04033 0.45288 0.0
O64 O 0.76955 0.07121 0.44872 0.0
O65 O 0.7762 0.03436 0.4575 0.0
O66 O 0.71905 0.0251 0.46139 0.0
O67 O 0.71263 0.06181 0.45188 0.0
H68 H 0.74751 0.04237 0.4157 0.0
H69 H 0.75172 0.03284 0.37688 0.0
H70 H 0.82726 0.03859 0.38305 0.0
H71 H 0.82275 0.04874 0.4219 0.0
H72 H 0.82203 0.09026 0.52995 0.0
H73 H 0.79318 0.07492 0.50359 0.0
H74 H 0.76875 0.08978 0.58038 0.0
H75 H 0.74037 0.07408 0.55411 0.0
H76 H 0.6471 0.03658 0.50704 0.0
H77 H 0.62446 0.0359 0.4394 0.0
H78 H 0.66549 0.0382 0.42759 0.0
H79 H 0.6882 0.03873 0.49504 0.0
C80 C 0.97781 0.78522 0.67385 0.0
C81 C 0.99301 0.76916 0.66364 0.0
C82 C 0.98719 0.78879 0.62856 0.0
C83 C 0.99776 0.771 0.64127 0.0
C84 C 0.97212 0.80501 0.63894 0.0
C85 C 0.96748 0.80321 0.6614 0.0
U86 U 0.97318 0.74564 0.72303 0.0
O87 O 0.98174 0.75087 0.75786 0.0
O88 O 0.94573 0.7417 0.74806 0.0
C89 C 0.95987 0.74776 0.76415 0.0
C90 C 0.97174 0.7824 0.69712 0.0
C91 C 0.95054 0.76538 0.77945 0.0
C92 C 0.93743 0.80508 0.78791 0.0
C93 C 0.94678 0.7888 0.77303 0.0
C94 C 0.93567 0.77464 0.81567 0.0
C95 C 0.93174 0.79817 0.80942 0.0
C96 C 0.94499 0.75844 0.80082 0.0
C97 C 0.99057 0.68127 0.71499 0.0
C98 C 0.99133 0.65307 0.74489 0.0
C99 C 0.99592 0.63968 0.70744 0.0
C100 C 0.99396 0.66288 0.70006 0.0
C101 C 0.99456 0.63446 0.72994 0.0
C102 C 0.9893 0.67628 0.73746 0.0
C103 C 0.98772 0.7054 0.70679 0.0
O104 O 0.95339 0.76894 0.70081 0.0
O105 O 0.98953 0.7779 0.7103 0.0
O106 O 1.00199 0.72118 0.71523 0.0
O107 O 0.96587 0.71276 0.70528 0.0
H108 H 1.00104 0.75501 0.67295 0.0
H109 H 1.00972 0.75844 0.63394 0.0
H110 H 0.96343 0.81873 0.62963 0.0
H111 H 0.95552 0.81562 0.66898 0.0
H112 H 0.93482 0.8231 0.78262 0.0
H113 H 0.95101 0.79443 0.75654 0.0
H114 H 0.93112 0.76858 0.83194 0.0
H115 H 0.94768 0.74039 0.806 0.0
H116 H 0.99048 0.64972 0.76234 0.0
H117 H 0.998 0.6258 0.69544 0.0
H118 H 0.99481 0.66644 0.68263 0.0
H119 H 0.98661 0.69032 0.74922 0.0
C120 C 0.23837 0.97599 0.92204 0.0
C121 C 0.25851 0.98048 0.90951 0.0
C122 C 0.23429 0.98697 0.8771 0.0
C123 C 0.2565 0.98585 0.88725 0.0
C124 C 0.21413 0.98244 0.88978 0.0
C125 C 0.21618 0.977 0.91208 0.0
U126 U 0.27698 0.97167 0.97196 0.0
O127 O 0.27101 0.98139 1.00648 0.0
O128 O 0.28007 0.94496 0.99779 0.0
C129 C 0.27349 0.95958 0.01332 0.0
C130 C 0.24064 0.97052 0.94548 0.0
C131 C 0.25537 0.95088 0.02852 0.0
C132 C 0.22251 0.92515 0.03712 0.0
C133 C 0.23823 0.93458 0.02185 0.0
C134 C 0.24024 0.94889 0.06566 0.0
C135 C 0.22355 0.93192 0.0593 0.0
C136 C 0.256 0.95819 0.05043 0.0
C137 C 0.34182 0.98731 0.96454 0.0
C138 C 0.3697 0.98785 0.99474 0.0
C139 C 0.3835 0.99195 0.95739 0.0
C140 C 0.36038 0.9903 0.94978 0.0
C141 C 0.38847 0.99067 0.97996 0.0
C142 C 0.34655 0.98613 0.98708 0.0
C143 C 0.31777 0.98479 0.95609 0.0
O144 O 0.25353 0.95191 0.94998 0.0
O145 O 0.24551 0.98866 0.95806 0.0
O146 O 0.30221 0.99967 0.96395 0.0
O147 O 0.30997 0.96307 0.95501 0.0
H148 H 0.27581 0.97977 0.91696 0.0
H149 H 0.27241 0.98887 0.87795 0.0
H150 H 0.19675 0.98342 0.88255 0.0
H151 H 0.20044 0.97368 0.92157 0.0
H152 H 0.21004 0.912 0.03165 0.0
H153 H 0.23735 0.92873 1.00498 0.0
H154 H 0.24126 0.95487 0.08248 0.0
H155 H 0.26901 0.97085 0.05587 0.0
H156 H 0.37286 0.98706 0.01223 0.0
H157 H 0.39752 0.99372 0.94553 0.0
H158 H 0.357 0.99108 0.93231 0.0
H159 H 0.33238 0.98377 0.9987 0.0
C160 C 0.04383 0.78447 0.35112 0.0
C161 C 0.02893 0.76828 0.36151 0.0
C162 C 0.03293 0.78956 0.39594 0.0
C163 C 0.02344 0.77087 0.38368 0.0
C164 C 0.04789 0.80572 0.38546 0.0
C165 C 0.05325 0.80321 0.3632 0.0
U166 U 0.04996 0.74422 0.30239 0.0
O167 O 0.04165 0.74921 0.26742 0.0
O168 O 0.0777 0.74062 0.27763 0.0
C169 C 0.06369 0.7467 0.26142 0.0
C170 C 0.05028 0.78127 0.32798 0.0
C171 C 0.07284 0.76485 0.24654 0.0
C172 C 0.0929 0.80196 0.24011 0.0
C173 C 0.08329 0.78549 0.2546 0.0
C174 C 0.08113 0.77761 0.20939 0.0
C175 C 0.09208 0.79811 0.21733 0.0
C176 C 0.07164 0.76114 0.22388 0.0
C177 C 0.03384 0.67946 0.31114 0.0
C178 C 0.03143 0.65061 0.28184 0.0
C179 C 0.03136 0.63784 0.31974 0.0
C180 C 0.0329 0.66125 0.32657 0.0
C181 C 0.03067 0.63223 0.2973 0.0
C182 C 0.03311 0.67406 0.28871 0.0
C183 C 0.03615 0.70385 0.31882 0.0
O184 O 0.06893 0.76806 0.32469 0.0
O185 O 0.03275 0.77625 0.3147 0.0
O186 O 0.02164 0.71923 0.31004 0.0
O187 O 0.05783 0.71163 0.32043 0.0
H188 H 0.02173 0.7535 0.35252 0.0
H189 H 0.01216 0.75793 0.39135 0.0
H190 H 0.05535 0.82037 0.39445 0.0
H191 H 0.06488 0.81579 0.35547 0.0
H192 H 0.10097 0.81769 0.24673 0.0
H193 H 0.08423 0.78872 0.27208 0.0
H194 H 0.08046 0.77398 0.19198 0.0
H195 H 0.06366 0.74529 0.21739 0.0
H196 H 0.03117 0.64682 0.26445 0.0
H197 H 0.03052 0.62413 0.33204 0.0
H198 H 0.03347 0.66514 0.34394 0.0
H199 H 0.03401 0.68793 0.27656 0.0
C200 C 0.23965 0.04508 0.60003 0.0
C201 C 0.25979 0.04114 0.61284 0.0
C202 C 0.23548 0.03581 0.64524 0.0
C203 C 0.25773 0.03661 0.63525 0.0
C204 C 0.21532 0.03944 0.63225 0.0
C205 C 0.21741 0.0441 0.60981 0.0
U206 U 0.27823 0.04902 0.55013 0.0
O207 O 0.27198 0.03967 0.51555 0.0
O208 O 0.28131 0.07592 0.52449 0.0
C209 C 0.27462 0.0615 0.50884 0.0
C210 C 0.24197 0.05031 0.57656 0.0
C211 C 0.25623 0.0706 0.49414 0.0
C212 C 0.21884 0.09037 0.48819 0.0
C213 C 0.23534 0.08027 0.50243 0.0
C214 C 0.24363 0.08056 0.45726 0.0
C215 C 0.22293 0.09087 0.46544 0.0
C216 C 0.26013 0.07056 0.4715 0.0
C217 C 0.34311 0.03339 0.55744 0.0
C218 C 0.37086 0.03394 0.52726 0.0
C219 C 0.38482 0.02838 0.56446 0.0
C220 C 0.36173 0.02978 0.5721 0.0
C221 C 0.38971 0.03054 0.54195 0.0
C222 C 0.34775 0.0354 0.53496 0.0
C223 C 0.31911 0.03577 0.56595 0.0
O224 O 0.25485 0.06887 0.57202 0.0
O225 O 0.24685 0.03208 0.56409 0.0
O226 O 0.30356 0.02094 0.55797 0.0
O227 O 0.31123 0.05747 0.5672 0.0
H228 H 0.27711 0.04167 0.60551 0.0
H229 H 0.27357 0.03353 0.64472 0.0
H230 H 0.19796 0.03911 0.6395 0.0
H231 H 0.2017 0.04708 0.60012 0.0
H232 H 0.20295 0.0979 0.49499 0.0
H233 H 0.23201 0.08036 0.5199 0.0
H234 H 0.24748 0.08091 0.43989 0.0
H235 H 0.2762 0.06323 0.46485 0.0
H236 H 0.37396 0.03541 0.50982 0.0
H237 H 0.39889 0.02614 0.57626 0.0
H238 H 0.35843 0.02835 0.58953 0.0
H239 H 0.33352 0.03825 0.52342 0.0
C240 C 0.97854 0.23783 0.84786 0.0
C241 C 0.99391 0.25365 0.8582 0.0
C242 C 0.98959 0.23259 0.89268 0.0
C243 C 0.99949 0.25099 0.88036 0.0
C244 C 0.97421 0.21674 0.88225 0.0
C245 C 0.96877 0.21933 0.85999 0.0
U246 U 0.97175 0.27888 0.79985 0.0
O247 O 0.97935 0.2748 0.76475 0.0
O248 O 0.94345 0.28302 0.77552 0.0
C249 C 0.95721 0.27753 0.75901 0.0
C250 C 0.97174 0.24135 0.82482 0.0
C251 C 0.94778 0.25994 0.74371 0.0
C252 C 0.93939 0.21943 0.73359 0.0
C253 C 0.94868 0.23578 0.74844 0.0
C254 C 0.92819 0.25128 0.70929 0.0
C255 C 0.92903 0.22699 0.71381 0.0
C256 C 0.9375 0.26755 0.72409 0.0
C257 C 0.98823 0.34334 0.80945 0.0
C258 C 0.98974 0.37261 0.78047 0.0
C259 C 0.99148 0.3848 0.8185 0.0
C260 C 0.98998 0.3613 0.82508 0.0
C261 C 0.9913 0.39074 0.79613 0.0
C262 C 0.98811 0.34908 0.78709 0.0
C263 C 0.98598 0.31886 0.81685 0.0
O264 O 0.95307 0.25463 0.82189 0.0
O265 O 0.98906 0.24654 0.81141 0.0
O266 O 1.0003 0.30359 0.80768 0.0
O267 O 0.96431 0.31111 0.81857 0.0
H268 H 1.00137 0.26828 0.84919 0.0
H269 H 0.01109 0.26369 0.88799 0.0
H270 H 0.96643 0.20232 0.89129 0.0
H271 H 0.95675 0.20705 0.85231 0.0
H272 H 0.94052 0.20087 0.73751 0.0
H273 H 0.95654 0.22961 0.76357 0.0
H274 H 0.91997 0.25779 0.69446 0.0
H275 H 0.93654 0.28616 0.72026 0.0
H276 H 0.98931 0.37666 0.76313 0.0
H277 H 0.99294 0.39832 0.83094 0.0
H278 H 0.99008 0.35715 0.84241 0.0
H279 H 0.98658 0.33541 0.7748 0.0
C280 C 0.78422 0.97675 0.09997 0.0
C281 C 0.76432 0.98069 0.11302 0.0
C282 C 0.78919 0.98595 0.14515 0.0
C283 C 0.76677 0.98519 0.13539 0.0
C284 C 0.80913 0.98237 0.13192 0.0
C285 C 0.80664 0.97774 0.10949 0.0
U286 U 0.74407 0.97157 0.05127 0.0
O287 O 0.74838 0.98089 0.01651 0.0
O288 O 0.74068 0.94438 0.02584 0.0
C289 C 0.74603 0.95898 1.00992 0.0
C290 C 0.78139 0.97136 0.07657 0.0
C291 C 0.76382 0.95038 0.99444 0.0
C292 C 0.80427 0.9411 0.985 0.0
C293 C 0.7878 0.95014 0.99983 0.0
C294 C 0.77286 0.93257 0.95932 0.0
C295 C 0.79697 0.9321 0.96457 0.0
C296 C 0.75649 0.94164 0.9741 0.0
C297 C 0.67914 0.98567 0.061 0.0
C298 C 0.64997 0.98666 0.03188 0.0
C299 C 0.63766 0.98829 0.06984 0.0
C300 C 0.66113 0.98718 0.07654 0.0
C301 C 0.63179 0.98796 0.04744 0.0
C302 C 0.67348 0.98543 0.03861 0.0
C303 C 0.70362 0.9838 0.0685 0.0
O304 O 0.76891 0.95242 0.0724 0.0
O305 O 0.77557 0.98938 0.06416 0.0
O306 O 0.71842 0.99899 0.05997 0.0
O307 O 0.71205 0.96229 0.06944 0.0
H308 H 0.74687 0.98014 0.10588 0.0
H309 H 0.7511 0.98824 0.14504 0.0
H310 H 0.82661 0.98268 0.13899 0.0
H311 H 0.82217 0.97475 0.09963 0.0
H312 H 0.8227 0.94122 0.9895 0.0
H313 H 0.79374 0.9568 0.01553 0.0
H314 H 0.76653 0.92541 0.94396 0.0
H315 H 0.738 0.94155 0.96975 0.0
H316 H 0.64599 0.98612 0.01452 0.0
H317 H 0.62409 0.98957 0.08221 0.0
H318 H 0.66523 0.98738 0.09388 0.0
H319 H 0.68721 0.9841 0.02639 0.0
C320 C 1.00838 0.42988 0.22797 0.0
C321 C 0.02442 0.41383 0.23726 0.0
C322 C 1.00795 0.45337 0.23478 0.0
C323 C 0.02549 0.4927 0.28006 0.0
H324 H 0.02253 0.54151 0.2357 0.0
C325 C 0.04334 0.59007 0.3005 0.0
C326 C 0.02942 0.60727 0.29016 0.0
C327 C 0.04201 0.56651 0.29408 0.0
C328 C 0.02303 0.52812 0.24833 0.0
H329 H 0.05255 0.41003 0.26109 0.0
H330 H 0.05161 0.45094 0.27309 0.0
H331 H 0.02103 0.50025 0.22478 0.0
H332 H 1.00307 0.61319 0.26504 0.0
H333 H 1.00054 0.57198 0.25394 0.0
H334 H 0.02742 0.52051 0.30362 0.0
C335 C 0.03922 0.44526 0.26067 0.0
C336 C 0.0222 0.50447 0.24206 0.0
C337 C 0.03973 0.42179 0.25381 0.0
C338 C 0.01422 0.60038 0.27315 0.0
C339 C 0.01279 0.57677 0.26679 0.0
C340 C 0.02622 0.51635 0.28634 0.0
C341 C 0.02346 0.46136 0.25111 0.0
C342 C 0.02357 0.48649 0.25784 0.0
C343 C 0.02664 0.55953 0.27722 0.0
C344 C 0.02517 0.53437 0.27054 0.0
H345 H 0.99607 0.42427 0.21547 0.0
H346 H 0.99536 0.46526 0.22733 0.0
H347 H 0.02622 0.47927 0.29263 0.0
H348 H 0.05552 0.59488 0.31341 0.0
H349 H 0.05328 0.55381 0.30217 0.0
C350 C 0.5906 0.04939 0.47087 0.0
C351 C 0.60759 0.03525 0.48126 0.0
C352 C 0.56709 0.04853 0.47737 0.0
C353 C 0.5239 1.01086 0.50531 0.0
H354 H 0.48872 0.06899 0.51142 0.0
C355 C 0.43082 0.0142 0.54324 0.0
C356 C 0.41441 0.02989 0.53399 0.0
C357 C 0.45429 0.01435 0.53647 0.0
C358 C 0.49817 0.05256 0.5095 0.0
H359 H 0.61318 1.00899 0.50652 0.0
H360 H 0.57205 1.0076 0.518 0.0
H361 H 0.52988 0.07035 0.50053 0.0
H362 H 0.40988 0.0579 0.51018 0.0
H363 H 0.4506 0.0577 0.49796 0.0
H364 H 0.49216 0.99305 0.51414 0.0
C365 C 0.57695 0.01927 0.50474 0.0
C366 C 0.52179 0.05336 0.50331 0.0
C367 C 0.60053 0.02023 0.49832 0.0
C368 C 0.42197 0.04542 0.51752 0.0
C369 C 0.44541 0.04553 0.51072 0.0
C370 C 0.50023 1.01005 0.51142 0.0
C371 C 0.55998 0.03343 0.49434 0.0
C372 C 0.53492 0.03252 0.50113 0.0
C373 C 0.46192 0.03015 0.52025 0.0
C374 C 0.48707 0.0309 0.51358 0.0
H375 H 0.59553 0.06132 0.45782 0.0
H376 H 0.5544 0.05951 0.4689 0.0
H377 H 0.53347 0.99448 0.50349 0.0
H378 H 0.42555 1.00179 0.55576 0.0
H379 H 0.46654 1.00239 0.54429 0.0
C380 C 0.98129 0.60159 0.75458 0.0
C381 C 0.99598 0.60964 0.73766 0.0
C382 C 0.98198 0.57807 0.76125 0.0
C383 C 0.99805 0.51897 0.74175 0.0
H384 H 0.99541 0.50247 0.80334 0.0
C385 C 1.00699 0.42278 0.77184 0.0
C386 C 0.99247 0.41579 0.78926 0.0
C387 C 1.00827 0.44646 0.76565 0.0
C388 C 0.99589 0.50675 0.78606 0.0
H389 H 0.02344 0.5993 0.71497 0.0
H390 H 0.02445 0.5582 0.7265 0.0
H391 H 0.99624 0.54379 0.79259 0.0
H392 H 0.96745 0.42806 0.81346 0.0
H393 H 0.96943 0.46923 0.80253 0.0
H394 H 0.99734 0.48198 0.73517 0.0
C395 C 0.01219 0.57007 0.73439 0.0
C396 C 0.99641 0.53044 0.77991 0.0
C397 C 0.01158 0.59362 0.72778 0.0
C398 C 0.97911 0.43295 0.80022 0.0
C399 C 0.98029 0.45657 0.79397 0.0
C400 C 0.99741 0.49527 0.74789 0.0
C401 C 0.9973 0.562 0.75112 0.0
C402 C 0.9974 0.53682 0.75769 0.0
C403 C 0.99496 0.46365 0.77667 0.0
C404 C 0.99621 0.48886 0.77012 0.0
H405 H 0.9688 0.61333 0.76232 0.0
H406 H 0.97007 0.57232 0.77399 0.0
H407 H 0.99849 0.52332 0.72448 0.0
H408 H 0.01771 0.41001 0.76325 0.0
H409 H 0.01999 0.45132 0.75245 0.0
C410 C 0.59952 1.00293 0.02289 0.0
C411 C 0.60677 0.98862 0.04045 0.0
C412 C 0.57588 1.00366 0.01654 0.0
C413 C 0.52084 0.96965 0.01937 0.0
H414 H 0.49093 0.02945 1.00641 0.0
C415 C 0.4209 0.97688 1.00494 0.0
C416 C 0.41321 0.9917 0.98792 0.0
C417 C 0.44438 0.97709 0.01175 0.0
C418 C 0.49908 0.01258 1.00973 0.0
H419 H 0.59496 0.96356 0.06486 0.0
H420 H 0.55373 0.96497 0.05389 0.0
H421 H 0.53232 0.02848 0.01701 0.0
H422 H 0.42413 0.0189 0.96517 0.0
H423 H 0.46517 0.01883 0.97665 0.0
H424 H 0.48776 0.95367 0.0119 0.0
C425 C 0.56632 0.97557 0.04498 0.0
C426 C 0.52279 0.01204 0.01581 0.0
C427 C 0.58989 0.97495 0.05141 0.0
C428 C 0.42951 1.00702 0.97813 0.0
C429 C 0.45301 1.00719 0.9849 0.0
C430 C 0.49717 0.97017 0.0132 0.0
C431 C 0.55903 0.98995 0.0275 0.0
C432 C 0.53392 0.99057 0.02075 0.0
C433 C 0.46078 0.99209 1.00168 0.0
C434 C 0.48596 0.99164 1.00836 0.0
H435 H 0.61208 0.01379 0.01423 0.0
H436 H 0.57083 0.01476 1.00288 0.0
H437 H 0.529 0.9528 0.02274 0.0
H438 H 0.4089 0.9647 0.01271 0.0
H439 H 0.44968 0.96547 0.02494 0.0
C440 C 0.10816 0.1874 0.31994 0.0
C441 C 0.10103 0.21051 0.32494 0.0
C442 C 0.11995 0.17367 0.33554 0.0
C443 C 0.15534 0.17931 0.38624 0.0
H444 H 0.14305 0.11252 0.39245 0.0
C445 C 0.19666 0.125 0.45607 0.0
C446 C 0.20632 0.10306 0.45035 0.0
C447 C 0.1825 0.13736 0.44127 0.0
C448 C 0.14679 0.13113 0.39079 0.0
H449 H 0.10082 0.23721 0.35038 0.0
H450 H 0.12069 0.21313 0.37764 0.0
H451 H 0.1209 0.1355 0.36555 0.0
H452 H 0.20788 0.0765 0.42487 0.0
H453 H 0.18335 0.09821 0.39892 0.0
H454 H 0.18122 0.17499 0.4114 0.0
C455 C 0.11746 0.20568 0.36158 0.0
C456 C 0.13414 0.14429 0.37536 0.0
C457 C 0.10575 0.2194 0.346 0.0
C458 C 0.20092 0.09348 0.42969 0.0
C459 C 0.18668 0.10581 0.4149 0.0
C460 C 0.16792 0.16619 0.40168 0.0
C461 C 0.12491 0.18272 0.35651 0.0
C462 C 0.13825 0.16856 0.37291 0.0
C463 C 0.17759 0.12807 0.4204 0.0
C464 C 0.1638 0.14195 0.40416 0.0
H465 H 0.10461 0.17989 0.30397 0.0
H466 H 0.1256 0.15612 0.33101 0.0
H467 H 0.15933 0.19785 0.38452 0.0
H468 H 0.20063 0.13299 0.47176 0.0
H469 H 0.17552 0.15432 0.44611 0.0
C470 C 0.8298 0.11996 0.56689 0.0
C471 C 0.81465 0.10165 0.57324 0.0
C472 C 0.84436 0.13099 0.58227 0.0
C473 C 0.84816 0.14283 0.64138 0.0
H474 H 0.91174 0.16259 0.62797 0.0
C475 C 0.90568 0.19041 0.70554 0.0
C476 C 0.91871 0.20982 0.69806 0.0
C477 C 0.89481 0.17513 0.69067 0.0
C478 C 0.89395 0.15736 0.63192 0.0
H479 H 0.80387 0.07981 0.60058 0.0
H480 H 0.82915 0.09913 0.6274 0.0
H481 H 0.88953 0.13968 0.60116 0.0
H482 H 0.93133 0.22774 0.66898 0.0
H483 H 0.91189 0.20157 0.64314 0.0
H484 H 0.85226 0.1609 0.67187 0.0
C485 C 0.82947 0.10522 0.61058 0.0
C486 C 0.88124 0.1442 0.61656 0.0
C487 C 0.81497 0.09416 0.59521 0.0
C488 C 0.92112 0.21319 0.67534 0.0
C489 C 0.91022 0.19797 0.66049 0.0
C490 C 0.86081 0.15604 0.65669 0.0
C491 C 0.84408 0.12399 0.60437 0.0
C492 C 0.85813 0.13693 0.62105 0.0
C493 C 0.89668 0.1789 0.66795 0.0
C494 C 0.8838 0.16366 0.6521 0.0
H495 H 0.82981 0.12637 0.55018 0.0
H496 H 0.85521 0.14556 0.57699 0.0
H497 H 0.83027 0.13783 0.64523 0.0
H498 H 0.90331 0.18735 0.7229 0.0
H499 H 0.8848 0.16044 0.697 0.0
C500 C 0.92783 0.81461 0.84749 0.0
C501 C 0.92125 0.81511 0.82526 0.0
C502 C 0.91677 0.82924 0.86271 0.0
C503 C 0.88001 0.8827 0.86834 0.0
H504 H 0.86009 0.85326 0.92251 0.0
C505 C 0.81165 0.92496 0.92628 0.0
C506 C 0.81417 0.92159 0.949 0.0
C507 C 0.8267 0.91368 0.91154 0.0
C508 C 0.86586 0.86193 0.90767 0.0
H509 H 0.89818 0.83188 0.80159 0.0
H510 H 0.87896 0.85755 0.82817 0.0
H511 H 0.88283 0.8307 0.89611 0.0
H512 H 0.83501 0.9041 0.97399 0.0
H513 H 0.86165 0.88497 0.94833 0.0
H514 H 0.8629 0.91392 0.87987 0.0
C515 C 0.89283 0.84591 0.83377 0.0
C516 C 0.87888 0.84895 0.89249 0.0
C517 C 0.90386 0.8312 0.81852 0.0
C518 C 0.83263 0.90725 0.95663 0.0
C519 C 0.84773 0.89602 0.94188 0.0
C520 C 0.86706 0.89574 0.88358 0.0
C521 C 0.8989 0.84482 0.8561 0.0
C522 C 0.88596 0.85911 0.87257 0.0
C523 C 0.84474 0.8988 0.91913 0.0
C524 C 0.85965 0.88545 0.90337 0.0
H525 H 0.9415 0.80278 0.85317 0.0
H526 H 0.92215 0.82829 0.87972 0.0
H527 H 0.88546 0.89113 0.85326 0.0
H528 H 0.79786 0.93617 0.91982 0.0
H529 H 0.82371 0.91611 0.89416 0.0
C530 C 0.18449 0.91513 0.07097 0.0
C531 C 0.20803 0.92066 0.0759 0.0
C532 C 0.17029 0.90383 0.08642 0.0
C533 C 0.16532 0.89122 0.14576 0.0
H534 H 0.12726 0.83844 0.12676 0.0
C535 C 0.1256 0.82438 0.20651 0.0
C536 C 0.10332 0.81491 0.20187 0.0
C537 C 0.13684 0.83901 0.19139 0.0
C538 C 0.13747 0.85337 0.13232 0.0
H539 H 0.23504 0.91836 0.101 0.0
H540 H 0.21026 0.89893 0.1279 0.0
H541 H 0.14948 0.86091 0.09985 0.0
H542 H 0.07499 0.81414 0.17805 0.0
H543 H 0.09451 0.83982 0.15174 0.0
H544 H 0.15347 0.88361 0.17825 0.0
C545 C 0.20268 0.90363 0.1122 0.0
C546 C 0.15024 0.86624 0.11687 0.0
C547 C 0.21689 0.91482 0.09674 0.0
C548 C 0.09231 0.82086 0.18197 0.0
C549 C 0.10352 0.83555 0.16688 0.0
C550 C 0.1525 0.8784 0.16121 0.0
C551 C 0.17925 0.89788 0.10719 0.0
C552 C 0.16453 0.88514 0.12344 0.0
C553 C 0.12605 0.8446 0.17128 0.0
C554 C 0.13862 0.85914 0.15472 0.0
H555 H 0.17698 0.91965 0.0552 0.0
H556 H 0.15222 0.89988 0.08216 0.0
H557 H 0.17587 0.90593 0.15131 0.0
H558 H 0.13471 0.81989 0.22155 0.0
H559 H 0.15433 0.84535 0.19521 0.0
C560 C 0.02761 0.21228 0.09104 0.0
C561 C 0.03057 0.23416 0.10149 0.0
C562 C 0.02367 0.21106 0.06843 0.0
C563 C 0.03006 0.24591 0.01733 0.0
H564 H 0.98569 0.20062 0.9939 0.0
C565 C 0.01795 0.23346 0.92426 0.0
C566 C 0.99489 0.23044 0.91645 0.0
C567 C 0.02277 0.23259 0.94671 0.0
C568 C 0.99802 0.21349 1.00018 0.0
H569 H 0.03199 0.2719 0.09613 0.0
H570 H 0.02438 0.26981 0.05699 0.0
H571 H 0.99276 0.20223 0.03327 0.0
H572 H 0.9588 0.22405 0.9261 0.0
H573 H 0.96712 0.22283 0.9653 0.0
H574 H 0.03473 0.25774 0.98439 0.0
C575 C 0.02545 0.25354 0.06618 0.0
C576 C 1.0023 0.21421 0.02275 0.0
C577 C 0.02948 0.25476 0.08874 0.0
C578 C 0.9768 0.22615 0.93159 0.0
C579 C 0.9816 0.22542 0.95407 0.0
C580 C 0.02571 0.24525 0.9948 0.0
C581 C 0.02253 0.23169 0.05571 0.0
C582 C 0.01831 0.2305 0.03163 0.0
C583 C 1.00462 0.22883 0.96194 0.0
C584 C 1.00959 0.22908 0.98592 0.0
H585 H 0.02811 0.19607 0.10036 0.0
H586 H 0.02175 0.19391 0.0609 0.0
H587 H 0.04273 0.25847 0.02353 0.0
H588 H 0.03231 0.23645 0.91298 0.0
H589 H 0.04078 0.23482 0.95212 0.0
C590 C 0.77798 1.01142 0.34369 0.0
C591 C 0.79232 0.02881 0.35321 0.0
C592 C 0.77963 1.00626 0.32137 0.0
C593 C 0.79949 0.03153 0.26877 0.0
H594 H 0.7927 0.96725 0.24836 0.0
C595 C 0.80877 1.00564 0.1773 0.0
C596 C 0.79159 0.99018 0.16909 0.0
C597 C 0.81051 1.00999 0.19982 0.0
C598 C 0.79447 0.98531 0.25379 0.0
H599 H 0.8198 0.05427 0.34663 0.0
H600 H 0.82306 0.04487 0.30774 0.0
H601 H 0.79303 0.97538 0.28757 0.0
H602 H 0.76317 0.96673 0.17814 0.0
H603 H 0.76606 0.97446 0.21733 0.0
H604 H 0.80084 0.04142 0.23492 0.0
C605 C 0.81029 0.03545 0.31753 0.0
C606 C 0.79463 0.98999 0.27627 0.0
C607 C 0.80862 0.04064 0.33989 0.0
C608 C 0.77643 0.97893 0.18392 0.0
C609 C 0.77825 0.98316 0.2064 0.0
C610 C 0.79942 0.02683 0.24627 0.0
C611 C 0.79572 0.01828 0.30797 0.0
C612 C 0.79687 0.01318 0.28405 0.0
C613 C 0.79524 0.99882 0.21462 0.0
C614 C 0.79664 1.0037 0.23852 0.0
H615 H 0.76545 1.00174 0.3535 0.0
H616 H 0.76794 0.99312 0.31454 0.0
H617 H 0.80093 0.04963 0.27415 0.0
H618 H 0.82061 0.01469 0.16628 0.0
H619 H 0.8239 0.02201 0.20566 0.0
C620 C 0.99302 0.76927 0.59201 0.0
C621 C 0.99147 0.79001 0.60451 0.0
C622 C 0.99707 0.77026 0.56946 0.0
C623 C 0.01946 0.80945 0.52568 0.0
H624 H 0.9881 0.76463 0.48771 0.0
C625 C 0.0455 0.79667 0.43486 0.0
C626 C 0.02756 0.79178 0.41967 0.0
C627 C 0.04063 0.79761 0.4573 0.0
C628 C 0.99682 0.77747 0.49801 0.0
H629 H 0.99308 0.82812 0.60294 0.0
H630 H 0.99948 0.82988 0.56348 0.0
H631 H 0.97998 0.76435 0.52679 0.0
H632 H 0.99028 0.78489 0.41603 0.0
H633 H 0.98168 0.78687 0.45509 0.0
H634 H 0.03588 0.82293 0.49677 0.0
C635 C 0.99792 0.8128 0.57121 0.0
C636 C 0.9924 0.77708 0.52051 0.0
C637 C 0.99396 0.8118 0.59382 0.0
C638 C 1.00455 0.78834 0.42736 0.0
C639 C 0.99965 0.78942 0.44977 0.0
C640 C 0.0238 0.8099 0.50313 0.0
C641 C 0.99953 0.79203 0.55874 0.0
C642 C 1.00378 0.79296 0.53468 0.0
C643 C 0.01766 0.79381 0.46506 0.0
C644 C 0.01262 0.79383 0.48901 0.0
H645 H 0.99086 0.75218 0.59959 0.0
H646 H 0.99851 0.75389 0.56047 0.0
H647 H 0.02871 0.82179 0.53611 0.0
H648 H 0.06346 0.79912 0.42946 0.0
H649 H 0.05501 0.80069 0.46859 0.0
C650 C 0.21613 0.98101 0.83983 0.0
C651 C 0.23229 0.99284 0.85339 0.0
C652 C 0.21479 0.98613 0.81744 0.0
C653 C 0.2311 0.03144 0.77635 0.0
H654 H 0.22469 0.98002 0.73498 0.0
C655 C 0.24884 0.04254 0.68395 0.0
C656 C 0.23345 0.03141 0.66918 0.0
C657 C 0.24726 0.03823 0.70643 0.0
C658 C 0.22619 0.99461 0.74633 0.0
H659 H 0.2593 0.01976 0.85402 0.0
H660 H 0.2574 0.02822 0.81499 0.0
H661 H 0.2245 0.97183 0.77422 0.0
H662 H 0.20435 1.00698 0.66646 0.0
H663 H 0.20148 0.99954 0.70582 0.0
H664 H 0.23318 0.05416 0.74844 0.0
C665 C 0.24556 0.01517 0.82167 0.0
C666 C 0.22605 0.98992 0.76883 0.0
C667 C 0.24686 1.01009 0.84404 0.0
C668 C 0.21634 0.01595 0.67743 0.0
C669 C 0.21485 1.01153 0.69995 0.0
C670 C 0.23132 0.03611 0.75387 0.0
C671 C 0.22957 1.00319 0.80806 0.0
C672 C 0.22869 1.00826 0.78413 0.0
C673 C 0.23031 0.02261 0.71469 0.0
C674 C 0.22906 0.01773 0.73859 0.0
H675 H 0.20477 0.96749 0.84644 0.0
H676 H 0.2021 0.97675 0.80749 0.0
H677 H 0.23273 0.04605 0.78765 0.0
H678 H 0.26206 0.05474 0.67813 0.0
H679 H 0.25959 0.04687 0.71732 0.0
loop_
_geom_bond_atom_site_label_1
_geom_bond_atom_site_label_2
_geom_bond_distance
_geom_bond_site_symmetry_2
_ccdc_geom_bond_type
C0 C1 1.264 . S
C0 C5 1.479 . S
C0 C10 1.465 . S
C1 C0 1.264 . S
C1 C3 1.339 . S
C1 H28 0.931 . S
C2 C3 1.395 . S
C2 C4 1.320 . S
C3 C1 1.339 . S
C3 C2 1.395 . S
C3 H29 0.929 . S
C4 C2 1.320 . S
C4 C5 1.405 . S
C4 H30 0.930 . S
C5 C0 1.479 . S
C5 C4 1.405 . S
C5 H31 0.931 . S
U6 O7 2.454 1_655 S
U6 O8 2.458 1_655 S
U6 C9 2.984 1_655 S
U6 C10 2.847 . S
U6 C23 2.882 . S
U6 O24 2.441 . S
U6 O25 2.420 . S
U6 O26 2.455 . S
U6 O27 2.449 . S
O7 U6 2.454 1_455 S
O7 C9 1.353 . S
O8 U6 2.458 1_455 S
O8 C9 1.286 . S
C9 U6 2.984 1_455 S
C9 O7 1.353 . S
C9 O8 1.286 . S
C9 C11 1.363 . S
C10 C0 1.465 . S
C10 U6 2.847 . S
C10 O24 1.249 . S
C10 O25 1.202 . S
C11 C9 1.363 . S
C11 C13 1.408 . S
C11 C16 1.342 . S
C12 C13 1.310 . S
C12 C15 1.461 . S
C12 H32 0.932 . S
C13 C11 1.408 . S
C13 C12 1.310 . S
C13 H33 0.930 . S
C14 C15 1.474 . S
C14 C16 1.285 . S
C14 H34 0.929 . S
C15 C12 1.461 . S
C15 C14 1.474 . S
C16 C11 1.342 . S
C16 C14 1.285 . S
C16 H35 0.930 . S
C17 C20 1.424 . S
C17 C22 1.245 . S
C17 C23 1.428 . S
C18 C21 1.260 . S
C18 C22 1.477 . S
C18 H36 0.932 . S
C19 C20 1.384 . S
C19 C21 1.479 . S
C19 H37 0.929 . S
C20 C17 1.424 . S
C20 C19 1.384 . S
C20 H38 0.928 . S
C21 C18 1.260 . S
C21 C19 1.479 . S
C22 C17 1.245 . S
C22 C18 1.477 . S
C22 H39 0.932 . S
C23 U6 2.882 . S
C23 C17 1.428 . S
C23 O26 1.301 . S
C23 O27 1.282 . S
O24 U6 2.441 . S
O24 C10 1.249 . S
O25 U6 2.420 . S
O25 C10 1.202 . S
O26 U6 2.455 . S
O26 C23 1.301 . S
O27 U6 2.449 . S
O27 C23 1.282 . S
H28 C1 0.931 . S
H29 C3 0.929 . S
H30 C4 0.930 . S
H31 C5 0.931 . S
H32 C12 0.932 . S
H33 C13 0.930 . S
H34 C14 0.929 . S
H35 C16 0.930 . S
H36 C18 0.932 . S
H37 C19 0.929 . S
H38 C20 0.928 . S
H39 C22 0.932 . S
C40 C41 1.264 . S
C40 C45 1.479 . S
C40 C50 1.465 . S
C41 C40 1.264 . S
C41 C43 1.339 . S
C41 H68 0.931 . S
C42 C43 1.395 . S
C42 C44 1.320 . S
C43 C41 1.339 . S
C43 C42 1.395 . S
C43 H69 0.929 . S
C44 C42 1.320 . S
C44 C45 1.405 . S
C44 H70 0.930 . S
C45 C40 1.479 . S
C45 C44 1.405 . S
C45 H71 0.931 . S
U46 O47 2.454 1_565 S
U46 O48 2.458 1_565 S
U46 C49 2.984 1_565 S
U46 C50 2.847 . S
U46 C63 2.882 . S
U46 O64 2.441 . S
U46 O65 2.420 . S
U46 O66 2.455 . S
U46 O67 2.449 . S
O47 U46 2.454 1_545 S
O47 C49 1.353 . S
O48 U46 2.458 1_545 S
O48 C49 1.286 . S
C49 U46 2.984 1_545 S
C49 O47 1.353 . S
C49 O48 1.286 . S
C49 C51 1.363 . S
C50 C40 1.465 . S
C50 U46 2.847 . S
C50 O64 1.249 . S
C50 O65 1.202 . S
C51 C49 1.363 . S
C51 C53 1.408 . S
C51 C56 1.342 . S
C52 C53 1.310 . S
C52 C55 1.461 . S
C52 H72 0.932 . S
C53 C51 1.408 . S
C53 C52 1.310 . S
C53 H73 0.930 . S
C54 C55 1.474 . S
C54 C56 1.285 . S
C54 H74 0.929 . S
C55 C52 1.461 . S
C55 C54 1.474 . S
C56 C51 1.342 . S
C56 C54 1.285 . S
C56 H75 0.930 . S
C57 C60 1.424 . S
C57 C62 1.245 . S
C57 C63 1.428 . S
C58 C61 1.260 . S
C58 C62 1.477 . S
C58 H76 0.932 . S
C59 C60 1.384 . S
C59 C61 1.479 . S
C59 H77 0.929 . S
C60 C57 1.424 . S
C60 C59 1.384 . S
C60 H78 0.928 . S
C61 C58 1.260 . S
C61 C59 1.479 . S
C62 C57 1.245 . S
C62 C58 1.477 . S
C62 H79 0.932 . S
C63 U46 2.882 . S
C63 C57 1.428 . S
C63 O66 1.301 . S
C63 O67 1.282 . S
O64 U46 2.441 . S
O64 C50 1.249 . S
O65 U46 2.420 . S
O65 C50 1.202 . S
O66 U46 2.455 . S
O66 C63 1.301 . S
O67 U46 2.449 . S
O67 C63 1.282 . S
H68 C41 0.931 . S
H69 C43 0.929 . S
H70 C44 0.930 . S
H71 C45 0.931 . S
H72 C52 0.932 . S
H73 C53 0.930 . S
H74 C54 0.929 . S
H75 C56 0.930 . S
H76 C58 0.932 . S
H77 C59 0.929 . S
H78 C60 0.928 . S
H79 C62 0.932 . S
C80 C81 1.264 . S
C80 C85 1.479 . S
C80 C90 1.465 . S
C81 C80 1.264 . S
C81 C83 1.339 . S
C81 H108 0.931 . S
C82 C83 1.395 . S
C82 C84 1.320 . S
C83 C81 1.339 . S
C83 C82 1.395 . S
C83 H109 0.929 . S
C84 C82 1.320 . S
C84 C85 1.405 . S
C84 H110 0.930 . S
C85 C80 1.479 . S
C85 C84 1.405 . S
C85 H111 0.931 . S
U86 O87 2.454 1_455 S
U86 O88 2.458 1_455 S
U86 C89 2.984 1_455 S
U86 C90 2.847 . S
U86 C103 2.882 . S
U86 O104 2.441 . S
U86 O105 2.420 . S
U86 O106 2.455 . S
U86 O107 2.449 . S
O87 U86 2.454 1_655 S
O87 C89 1.353 . S
O88 U86 2.458 1_655 S
O88 C89 1.286 . S
C89 U86 2.984 1_655 S
C89 O87 1.353 . S
C89 O88 1.286 . S
C89 C91 1.363 . S
C90 C80 1.465 . S
C90 U86 2.847 . S
C90 O104 1.249 . S
C90 O105 1.202 . S
C91 C89 1.363 . S
C91 C93 1.408 . S
C91 C96 1.342 . S
C92 C93 1.310 . S
C92 C95 1.461 . S
C92 H112 0.932 . S
C93 C91 1.408 . S
C93 C92 1.310 . S
C93 H113 0.930 . S
C94 C95 1.474 . S
C94 C96 1.285 . S
C94 H114 0.929 . S
C95 C92 1.461 . S
C95 C94 1.474 . S
C96 C91 1.342 . S
C96 C94 1.285 . S
C96 H115 0.930 . S
C97 C100 1.424 . S
C97 C102 1.245 . S
C97 C103 1.428 . S
C98 C101 1.260 . S
C98 C102 1.477 . S
C98 H116 0.932 . S
C99 C100 1.384 . S
C99 C101 1.479 . S
C99 H117 0.929 . S
C100 C97 1.424 . S
C100 C99 1.384 . S
C100 H118 0.928 . S
C101 C98 1.260 . S
C101 C99 1.479 . S
C102 C97 1.245 . S
C102 C98 1.477 . S
C102 H119 0.932 . S
C103 U86 2.882 . S
C103 C97 1.428 . S
C103 O106 1.301 . S
C103 O107 1.282 . S
O104 U86 2.441 . S
O104 C90 1.249 . S
O105 U86 2.420 . S
O105 C90 1.202 . S
O106 U86 2.455 . S
O106 C103 1.301 . S
O107 U86 2.449 . S
O107 C103 1.282 . S
H108 C81 0.931 . S
H109 C83 0.929 . S
H110 C84 0.930 . S
H111 C85 0.931 . S
H112 C92 0.932 . S
H113 C93 0.930 . S
H114 C94 0.929 . S
H115 C96 0.930 . S
H116 C98 0.932 . S
H117 C99 0.929 . S
H118 C100 0.928 . S
H119 C102 0.932 . S
C120 C121 1.264 . S
C120 C125 1.479 . S
C120 C130 1.465 . S
C121 C120 1.264 . S
C121 C123 1.339 . S
C121 H148 0.931 . S
C122 C123 1.395 . S
C122 C124 1.320 . S
C123 C121 1.339 . S
C123 C122 1.395 . S
C123 H149 0.929 . S
C124 C122 1.320 . S
C124 C125 1.405 . S
C124 H150 0.930 . S
C125 C120 1.479 . S
C125 C124 1.405 . S
C125 H151 0.931 . S
U126 O127 2.454 1_545 S
U126 O128 2.458 1_546 S
U126 C129 2.984 1_546 S
U126 C130 2.847 . S
U126 C143 2.882 . S
U126 O144 2.441 . S
U126 O145 2.420 . S
U126 O146 2.455 . S
U126 O147 2.449 . S
O127 U126 2.454 1_565 S
O127 C129 1.353 1_556 S
O128 U126 2.458 1_564 S
O128 C129 1.286 . S
C129 U126 2.984 1_564 S
C129 O127 1.353 1_554 S
C129 O128 1.286 . S
C129 C131 1.363 . S
C130 C120 1.465 . S
C130 U126 2.847 . S
C130 O144 1.249 . S
C130 O145 1.202 . S
C131 C129 1.363 . S
C131 C133 1.408 . S
C131 C136 1.342 . S
C132 C133 1.310 . S
C132 C135 1.461 . S
C132 H152 0.932 . S
C133 C131 1.408 . S
C133 C132 1.310 . S
C133 H153 0.930 1_554 S
C134 C135 1.474 . S
C134 C136 1.285 . S
C134 H154 0.929 . S
C135 C132 1.461 . S
C135 C134 1.474 . S
C136 C131 1.342 . S
C136 C134 1.285 . S
C136 H155 0.930 . S
C137 C140 1.424 . S
C137 C142 1.245 1_556 S
C137 C143 1.428 . S
C138 C141 1.232 1_554 S
C138 C142 1.477 . S
C138 H156 0.932 . S
C139 C140 1.384 . S
C139 C141 1.518 . S
C139 H157 0.929 . S
C140 C137 1.424 . S
C140 C139 1.384 . S
C140 H158 0.928 . S
C141 C138 1.232 1_556 S
C141 C139 1.518 . S
C142 C137 1.245 1_554 S
C142 C138 1.477 . S
C142 H159 0.932 . S
C143 U126 2.882 . S
C143 C137 1.428 . S
C143 O146 1.301 . S
C143 O147 1.282 . S
O144 U126 2.441 . S
O144 C130 1.249 . S
O145 U126 2.420 . S
O145 C130 1.202 . S
O146 U126 2.455 . S
O146 C143 1.301 . S
O147 U126 2.449 . S
O147 C143 1.282 . S
H148 C121 0.931 . S
H149 C123 0.929 . S
H150 C124 0.930 . S
H151 C125 0.931 . S
H152 C132 0.932 . S
H153 C133 0.930 1_556 S
H154 C134 0.929 . S
H155 C136 0.930 . S
H156 C138 0.932 . S
H157 C139 0.929 . S
H158 C140 0.928 . S
H159 C142 0.932 . S
C160 C161 1.264 . S
C160 C165 1.479 . S
C160 C170 1.465 . S
C161 C160 1.264 . S
C161 C163 1.339 . S
C161 H188 0.931 . S
C162 C163 1.395 . S
C162 C164 1.320 . S
C163 C161 1.339 . S
C163 C162 1.395 . S
C163 H189 0.929 . S
C164 C162 1.320 . S
C164 C165 1.405 . S
C164 H190 0.930 . S
C165 C160 1.479 . S
C165 C164 1.405 . S
C165 H191 0.931 . S
U166 O167 2.454 1_655 S
U166 O168 2.458 1_655 S
U166 C169 2.984 1_655 S
U166 C170 2.847 . S
U166 C183 2.882 . S
U166 O184 2.441 . S
U166 O185 2.420 . S
U166 O186 2.455 . S
U166 O187 2.449 . S
O167 U166 2.454 1_455 S
O167 C169 1.353 . S
O168 U166 2.458 1_455 S
O168 C169 1.286 . S
C169 U166 2.984 1_455 S
C169 O167 1.353 . S
C169 O168 1.286 . S
C169 C171 1.363 . S
C170 C160 1.465 . S
C170 U166 2.847 . S
C170 O184 1.249 . S
C170 O185 1.202 . S
C171 C169 1.363 . S
C171 C173 1.408 . S
C171 C176 1.342 . S
C172 C173 1.310 . S
C172 C175 1.461 . S
C172 H192 0.932 . S
C173 C171 1.408 . S
C173 C172 1.310 . S
C173 H193 0.930 . S
C174 C175 1.474 . S
C174 C176 1.285 . S
C174 H194 0.929 . S
C175 C172 1.461 . S
C175 C174 1.474 . S
C176 C171 1.342 . S
C176 C174 1.285 . S
C176 H195 0.930 . S
C177 C180 1.424 . S
C177 C182 1.245 . S
C177 C183 1.428 . S
C178 C181 1.260 . S
C178 C182 1.477 . S
C178 H196 0.932 . S
C179 C180 1.384 . S
C179 C181 1.479 . S
C179 H197 0.929 . S
C180 C177 1.424 . S
C180 C179 1.384 . S
C180 H198 0.928 . S
C181 C178 1.260 . S
C181 C179 1.479 . S
C182 C177 1.245 . S
C182 C178 1.477 . S
C182 H199 0.932 . S
C183 U166 2.882 . S
C183 C177 1.428 . S
C183 O186 1.301 . S
C183 O187 1.282 . S
O184 U166 2.441 . S
O184 C170 1.249 . S
O185 U166 2.420 . S
O185 C170 1.202 . S
O186 U166 2.455 . S
O186 C183 1.301 . S
O187 U166 2.449 . S
O187 C183 1.282 . S
H188 C161 0.931 . S
H189 C163 0.929 . S
H190 C164 0.930 . S
H191 C165 0.931 . S
H192 C172 0.932 . S
H193 C173 0.930 . S
H194 C174 0.929 . S
H195 C176 0.930 . S
H196 C178 0.932 . S
H197 C179 0.929 . S
H198 C180 0.928 . S
H199 C182 0.932 . S
C200 C201 1.264 . S
C200 C205 1.479 . S
C200 C210 1.465 . S
C201 C200 1.264 . S
C201 C203 1.339 . S
C201 H228 0.931 . S
C202 C203 1.395 . S
C202 C204 1.320 . S
C203 C201 1.339 . S
C203 C202 1.395 . S
C203 H229 0.929 . S
C204 C202 1.320 . S
C204 C205 1.405 . S
C204 H230 0.930 . S
C205 C200 1.479 . S
C205 C204 1.405 . S
C205 H231 0.931 . S
U206 O207 2.454 1_565 S
U206 O208 2.458 1_565 S
U206 C209 2.984 1_565 S
U206 C210 2.847 . S
U206 C223 2.882 . S
U206 O224 2.441 . S
U206 O225 2.420 . S
U206 O226 2.455 . S
U206 O227 2.449 . S
O207 U206 2.454 1_545 S
O207 C209 1.353 . S
O208 U206 2.458 1_545 S
O208 C209 1.286 . S
C209 U206 2.984 1_545 S
C209 O207 1.353 . S
C209 O208 1.286 . S
C209 C211 1.363 . S
C210 C200 1.465 . S
C210 U206 2.847 . S
C210 O224 1.249 . S
C210 O225 1.202 . S
C211 C209 1.363 . S
C211 C213 1.408 . S
C211 C216 1.342 . S
C212 C213 1.310 . S
C212 C215 1.461 . S
C212 H232 0.932 . S
C213 C211 1.408 . S
C213 C212 1.310 . S
C213 H233 0.930 . S
C214 C215 1.474 . S
C214 C216 1.285 . S
C214 H234 0.929 . S
C215 C212 1.461 . S
C215 C214 1.474 . S
C216 C211 1.342 . S
C216 C214 1.285 . S
C216 H235 0.930 . S
C217 C220 1.424 . S
C217 C222 1.245 . S
C217 C223 1.428 . S
C218 C221 1.260 . S
C218 C222 1.477 . S
C218 H236 0.932 . S
C219 C220 1.384 . S
C219 C221 1.479 . S
C219 H237 0.929 . S
C220 C217 1.424 . S
C220 C219 1.384 . S
C220 H238 0.928 . S
C221 C218 1.260 . S
C221 C219 1.479 . S
C222 C217 1.245 . S
C222 C218 1.477 . S
C222 H239 0.932 . S
C223 U206 2.882 . S
C223 C217 1.428 . S
C223 O226 1.301 . S
C223 O227 1.282 . S
O224 U206 2.441 . S
O224 C210 1.249 . S
O225 U206 2.420 . S
O225 C210 1.202 . S
O226 U206 2.455 . S
O226 C223 1.301 . S
O227 U206 2.449 . S
O227 C223 1.282 . S
H228 C201 0.931 . S
H229 C203 0.929 . S
H230 C204 0.930 . S
H231 C205 0.931 . S
H232 C212 0.932 . S
H233 C213 0.930 . S
H234 C214 0.929 . S
H235 C216 0.930 . S
H236 C218 0.932 . S
H237 C219 0.929 . S
H238 C220 0.928 . S
H239 C222 0.932 . S
C240 C241 1.264 . S
C240 C245 1.479 . S
C240 C250 1.465 . S
C241 C240 1.264 . S
C241 C243 1.339 . S
C241 H268 0.931 . S
C242 C243 1.395 . S
C242 C244 1.320 . S
C243 C241 1.339 . S
C243 C242 1.395 . S
C243 H269 0.929 . S
C244 C242 1.320 . S
C244 C245 1.405 . S
C244 H270 0.930 . S
C245 C240 1.479 . S
C245 C244 1.405 . S
C245 H271 0.931 . S
U246 O247 2.454 1_455 S
U246 O248 2.458 1_455 S
U246 C249 2.984 1_455 S
U246 C250 2.847 . S
U246 C263 2.882 . S
U246 O264 2.441 . S
U246 O265 2.420 . S
U246 O266 2.455 . S
U246 O267 2.449 . S
O247 U246 2.454 1_655 S
O247 C249 1.353 . S
O248 U246 2.458 1_655 S
O248 C249 1.286 . S
C249 U246 2.984 1_655 S
C249 O247 1.353 . S
C249 O248 1.286 . S
C249 C251 1.363 . S
C250 C240 1.465 . S
C250 U246 2.847 . S
C250 O264 1.249 . S
C250 O265 1.202 . S
C251 C249 1.363 . S
C251 C253 1.408 . S
C251 C256 1.342 . S
C252 C253 1.310 . S
C252 C255 1.461 . S
C252 H272 0.932 . S
C253 C251 1.408 . S
C253 C252 1.310 . S
C253 H273 0.930 . S
C254 C255 1.474 . S
C254 C256 1.285 . S
C254 H274 0.929 . S
C255 C252 1.461 . S
C255 C254 1.474 . S
C256 C251 1.342 . S
C256 C254 1.285 . S
C256 H275 0.930 . S
C257 C260 1.424 . S
C257 C262 1.245 . S
C257 C263 1.428 . S
C258 C261 1.260 . S
C258 C262 1.477 . S
C258 H276 0.932 . S
C259 C260 1.384 . S
C259 C261 1.479 . S
C259 H277 0.929 . S
C260 C257 1.424 . S
C260 C259 1.384 . S
C260 H278 0.928 . S
C261 C258 1.260 . S
C261 C259 1.479 . S
C262 C257 1.245 . S
C262 C258 1.477 . S
C262 H279 0.932 . S
C263 U246 2.882 . S
C263 C257 1.428 . S
C263 O266 1.301 . S
C263 O267 1.282 . S
O264 U246 2.441 . S
O264 C250 1.249 . S
O265 U246 2.420 . S
O265 C250 1.202 . S
O266 U246 2.455 . S
O266 C263 1.301 . S
O267 U246 2.449 . S
O267 C263 1.282 . S
H268 C241 0.931 . S
H269 C243 0.929 . S
H270 C244 0.930 . S
H271 C245 0.931 . S
H272 C252 0.932 . S
H273 C253 0.930 . S
H274 C254 0.929 . S
H275 C256 0.930 . S
H276 C258 0.932 . S
H277 C259 0.929 . S
H278 C260 0.928 . S
H279 C262 0.932 . S
C280 C281 1.264 . S
C280 C285 1.479 . S
C280 C290 1.465 . S
C281 C280 1.264 . S
C281 C283 1.339 . S
C281 H308 0.931 . S
C282 C283 1.395 . S
C282 C284 1.320 . S
C283 C281 1.339 . S
C283 C282 1.395 . S
C283 H309 0.929 . S
C284 C282 1.320 . S
C284 C285 1.405 . S
C284 H310 0.930 . S
C285 C280 1.479 . S
C285 C284 1.405 . S
C285 H311 0.931 . S
U286 O287 2.454 1_545 S
U286 O288 2.458 1_544 S
U286 C289 2.984 1_544 S
U286 C290 2.847 . S
U286 C303 2.882 . S
U286 O304 2.441 . S
U286 O305 2.420 . S
U286 O306 2.455 . S
U286 O307 2.449 . S
O287 U286 2.454 1_565 S
O287 C289 1.353 1_554 S
O288 U286 2.458 1_566 S
O288 C289 1.286 . S
C289 U286 2.984 1_566 S
C289 O287 1.353 1_556 S
C289 O288 1.286 . S
C289 C291 1.363 . S
C290 C280 1.465 . S
C290 U286 2.847 . S
C290 O304 1.249 . S
C290 O305 1.202 . S
C291 C289 1.363 . S
C291 C293 1.408 . S
C291 C296 1.342 . S
C292 C293 1.310 . S
C292 C295 1.461 . S
C292 H312 0.932 . S
C293 C291 1.408 . S
C293 C292 1.310 . S
C293 H313 0.930 1_556 S
C294 C295 1.474 . S
C294 C296 1.285 . S
C294 H314 0.929 . S
C295 C292 1.461 . S
C295 C294 1.474 . S
C296 C291 1.342 . S
C296 C294 1.285 . S
C296 H315 0.930 . S
C297 C300 1.424 . S
C297 C302 1.245 1_554 S
C297 C303 1.428 . S
C298 C301 1.232 1_556 S
C298 C302 1.477 . S
C298 H316 0.932 . S
C299 C300 1.384 . S
C299 C301 1.518 . S
C299 H317 0.929 . S
C300 C297 1.424 . S
C300 C299 1.384 . S
C300 H318 0.928 . S
C301 C298 1.232 1_554 S
C301 C299 1.518 . S
C302 C297 1.245 1_556 S
C302 C298 1.477 . S
C302 H319 0.932 . S
C303 U286 2.882 . S
C303 C297 1.428 . S
C303 O306 1.301 . S
C303 O307 1.282 . S
O304 U286 2.441 . S
O304 C290 1.249 . S
O305 U286 2.420 . S
O305 C290 1.202 . S
O306 U286 2.455 . S
O306 C303 1.301 . S
O307 U286 2.449 . S
O307 C303 1.282 . S
H308 C281 0.931 . S
H309 C283 0.929 . S
H310 C284 0.930 . S
H311 C285 0.931 . S
H312 C292 0.932 . S
H313 C293 0.930 1_554 S
H314 C294 0.929 . S
H315 C296 0.930 . S
H316 C298 0.932 . S
H317 C299 0.929 . S
H318 C300 0.928 . S
H319 C302 0.932 . S
C320 C321 1.349 . S
C320 C322 1.327 . S
C320 H345 0.950 . S
C321 C320 1.349 . S
C321 C337 1.349 . S
C322 C320 1.327 . S
C322 C341 1.429 . S
C322 H346 0.950 . S
C323 C340 1.574 . S
C323 C342 1.368 . S
C323 H347 0.949 . S
H324 C328 0.949 . S
C325 C326 1.349 . S
C325 C327 1.327 . S
C325 H348 0.950 . S
C326 C325 1.349 . S
C326 C338 1.349 . S
C327 C325 1.327 . S
C327 C343 1.429 . S
C327 H349 0.950 . S
C328 H324 0.949 . S
C328 C336 1.574 . S
C328 C344 1.368 . S
H329 C337 0.950 . S
H330 C335 0.950 . S
H331 C336 0.949 . S
H332 C338 0.950 . S
H333 C339 0.950 . S
H334 C340 0.949 . S
C335 H330 0.950 . S
C335 C337 1.327 . S
C335 C341 1.429 . S
C336 C328 1.574 . S
C336 H331 0.949 . S
C336 C342 1.368 . S
C337 C321 1.349 . S
C337 H329 0.950 . S
C337 C335 1.327 . S
C338 C326 1.349 . S
C338 H332 0.950 . S
C338 C339 1.327 . S
C339 H333 0.950 . S
C339 C338 1.327 . S
C339 C343 1.429 . S
C340 C323 1.574 . S
C340 H334 0.949 . S
C340 C344 1.368 . S
C341 C322 1.429 . S
C341 C335 1.429 . S
C341 C342 1.523 . S
C342 C323 1.368 . S
C342 C336 1.368 . S
C342 C341 1.523 . S
C343 C327 1.429 . S
C343 C339 1.429 . S
C343 C344 1.523 . S
C344 C328 1.368 . S
C344 C340 1.368 . S
C344 C343 1.523 . S
H345 C320 0.950 . S
H346 C322 0.950 . S
H347 C323 0.949 . S
H348 C325 0.950 . S
H349 C327 0.950 . S
C350 C351 1.349 . S
C350 C352 1.327 . S
C350 H375 0.950 1_565 S
C351 C350 1.349 . S
C351 C367 1.349 . S
C352 C350 1.327 . S
C352 C371 1.429 . S
C352 H376 0.950 1_565 S
C353 C370 1.574 . S
C353 C372 1.368 . S
C353 H377 0.949 . S
H354 C358 0.949 1_545 S
C355 C356 1.349 . S
C355 C357 1.327 . S
C355 H378 0.950 . S
C356 C355 1.349 . S
C356 C368 1.349 . S
C357 C355 1.327 . S
C357 C373 1.429 . S
C357 H379 0.950 . S
C358 H354 0.949 1_565 S
C358 C366 1.574 . S
C358 C374 1.368 . S
H359 C367 0.950 . S
H360 C365 0.950 . S
H361 C366 0.949 1_545 S
H362 C368 0.950 1_545 S
H363 C369 0.950 1_545 S
H364 C370 0.949 . S
C365 H360 0.950 . S
C365 C367 1.327 . S
C365 C371 1.429 . S
C366 C358 1.574 . S
C366 H361 0.949 1_565 S
C366 C372 1.368 . S
C367 C351 1.349 . S
C367 H359 0.950 . S
C367 C365 1.327 . S
C368 C356 1.349 . S
C368 H362 0.950 1_565 S
C368 C369 1.327 . S
C369 H363 0.950 1_565 S
C369 C368 1.327 . S
C369 C373 1.429 . S
C370 C353 1.574 . S
C370 H364 0.949 . S
C370 C374 1.368 . S
C371 C352 1.429 . S
C371 C365 1.429 . S
C371 C372 1.523 . S
C372 C353 1.368 . S
C372 C366 1.368 . S
C372 C371 1.523 . S
C373 C357 1.429 . S
C373 C369 1.429 . S
C373 C374 1.523 . S
C374 C358 1.368 . S
C374 C370 1.368 . S
C374 C373 1.523 . S
H375 C350 0.950 1_545 S
H376 C352 0.950 1_545 S
H377 C353 0.949 . S
H378 C355 0.950 . S
H379 C357 0.950 . S
C380 C381 1.349 . S
C380 C382 1.327 . S
C380 H405 0.950 . S
C381 C380 1.349 . S
C381 C397 1.349 . S
C382 C380 1.327 . S
C382 C401 1.429 . S
C382 H406 0.950 . S
C383 C400 1.574 . S
C383 C402 1.368 . S
C383 H407 0.949 . S
H384 C388 0.949 . S
C385 C386 1.349 . S
C385 C387 1.327 . S
C385 H408 0.950 . S
C386 C385 1.349 . S
C386 C398 1.349 . S
C387 C385 1.327 . S
C387 C403 1.429 . S
C387 H409 0.950 . S
C388 H384 0.949 . S
C388 C396 1.574 . S
C388 C404 1.368 . S
H389 C397 0.950 . S
H390 C395 0.950 . S
H391 C396 0.949 . S
H392 C398 0.950 . S
H393 C399 0.950 . S
H394 C400 0.949 . S
C395 H390 0.950 . S
C395 C397 1.327 . S
C395 C401 1.429 . S
C396 C388 1.574 . S
C396 H391 0.949 . S
C396 C402 1.368 . S
C397 C381 1.349 . S
C397 H389 0.950 . S
C397 C395 1.327 . S
C398 C386 1.349 . S
C398 H392 0.950 . S
C398 C399 1.327 . S
C399 H393 0.950 . S
C399 C398 1.327 . S
C399 C403 1.429 . S
C400 C383 1.574 . S
C400 H394 0.949 . S
C400 C404 1.368 . S
C401 C382 1.429 . S
C401 C395 1.429 . S
C401 C402 1.523 . S
C402 C383 1.368 . S
C402 C396 1.368 . S
C402 C401 1.523 . S
C403 C387 1.429 . S
C403 C399 1.429 . S
C403 C404 1.523 . S
C404 C388 1.368 . S
C404 C400 1.368 . S
C404 C403 1.523 . S
H405 C380 0.950 . S
H406 C382 0.950 . S
H407 C383 0.949 . S
H408 C385 0.950 . S
H409 C387 0.950 . S
C410 C411 1.349 . S
C410 C412 1.327 . S
C410 H435 0.950 . S
C411 C410 1.349 . S
C411 C427 1.349 1_556 S
C412 C410 1.327 . S
C412 C431 1.454 . S
C412 H436 0.950 . S
C413 C430 1.574 . S
C413 C432 1.358 1_554 S
C413 H437 0.949 1_545 S
H414 C418 0.949 . S
C415 C416 1.349 . S
C415 C417 1.327 . S
C415 H438 0.950 1_545 S
C416 C415 1.349 . S
C416 C428 1.349 1_554 S
C417 C415 1.327 . S
C417 C433 1.454 . S
C417 H439 0.950 1_545 S
C418 H414 0.949 . S
C418 C426 1.574 . S
C418 C434 1.358 1_556 S
H419 C427 0.950 1_565 S
H420 C425 0.950 1_565 S
H421 C426 0.949 . S
H422 C428 0.950 . S
H423 C429 0.950 . S
H424 C430 0.949 1_565 S
C425 H420 0.950 1_545 S
C425 C427 1.327 . S
C425 C431 1.405 1_554 S
C426 C418 1.574 . S
C426 H421 0.949 . S
C426 C432 1.379 . S
C427 C411 1.349 1_554 S
C427 H419 0.950 1_545 S
C427 C425 1.327 . S
C428 C416 1.349 1_556 S
C428 H422 0.950 . S
C428 C429 1.327 . S
C429 H423 0.950 . S
C429 C428 1.327 . S
C429 C433 1.405 1_556 S
C430 C413 1.574 . S
C430 H424 0.949 1_545 S
C430 C434 1.379 . S
C431 C412 1.454 . S
C431 C425 1.405 1_556 S
C431 C432 1.523 . S
C432 C413 1.358 1_556 S
C432 C426 1.379 . S
C432 C431 1.523 . S
C433 C417 1.454 . S
C433 C429 1.405 1_554 S
C433 C434 1.523 . S
C434 C418 1.358 1_554 S
C434 C430 1.379 . S
C434 C433 1.523 . S
H435 C410 0.950 . S
H436 C412 0.950 . S
H437 C413 0.949 1_565 S
H438 C415 0.950 1_565 S
H439 C417 0.950 1_565 S
C440 C441 1.349 . S
C440 C442 1.327 . S
C440 H465 0.950 . S
C441 C440 1.349 . S
C441 C457 1.349 . S
C442 C440 1.327 . S
C442 C461 1.429 . S
C442 H466 0.950 . S
C443 C460 1.574 . S
C443 C462 1.368 . S
C443 H467 0.949 . S
H444 C448 0.949 . S
C445 C446 1.349 . S
C445 C447 1.327 . S
C445 H468 0.950 . S
C446 C445 1.349 . S
C446 C458 1.349 . S
C447 C445 1.327 . S
C447 C463 1.429 . S
C447 H469 0.950 . S
C448 H444 0.949 . S
C448 C456 1.574 . S
C448 C464 1.368 . S
H449 C457 0.950 . S
H450 C455 0.950 . S
H451 C456 0.949 . S
H452 C458 0.950 . S
H453 C459 0.950 . S
H454 C460 0.949 . S
C455 H450 0.950 . S
C455 C457 1.327 . S
C455 C461 1.429 . S
C456 C448 1.574 . S
C456 H451 0.949 . S
C456 C462 1.368 . S
C457 C441 1.349 . S
C457 H449 0.950 . S
C457 C455 1.327 . S
C458 C446 1.349 . S
C458 H452 0.950 . S
C458 C459 1.327 . S
C459 H453 0.950 . S
C459 C458 1.327 . S
C459 C463 1.429 . S
C460 C443 1.574 . S
C460 H454 0.949 . S
C460 C464 1.368 . S
C461 C442 1.429 . S
C461 C455 1.429 . S
C461 C462 1.523 . S
C462 C443 1.368 . S
C462 C456 1.368 . S
C462 C461 1.523 . S
C463 C447 1.429 . S
C463 C459 1.429 . S
C463 C464 1.523 . S
C464 C448 1.368 . S
C464 C460 1.368 . S
C464 C463 1.523 . S
H465 C440 0.950 . S
H466 C442 0.950 . S
H467 C443 0.949 . S
H468 C445 0.950 . S
H469 C447 0.950 . S
C470 C471 1.349 . S
C470 C472 1.327 . S
C470 H495 0.950 . S
C471 C470 1.349 . S
C471 C487 1.349 . S
C472 C470 1.327 . S
C472 C491 1.429 . S
C472 H496 0.950 . S
C473 C490 1.574 . S
C473 C492 1.368 . S
C473 H497 0.949 . S
H474 C478 0.949 . S
C475 C476 1.349 . S
C475 C477 1.327 . S
C475 H498 0.950 . S
C476 C475 1.349 . S
C476 C488 1.349 . S
C477 C475 1.327 . S
C477 C493 1.429 . S
C477 H499 0.950 . S
C478 H474 0.949 . S
C478 C486 1.574 . S
C478 C494 1.368 . S
H479 C487 0.950 . S
H480 C485 0.950 . S
H481 C486 0.949 . S
H482 C488 0.950 . S
H483 C489 0.950 . S
H484 C490 0.949 . S
C485 H480 0.950 . S
C485 C487 1.327 . S
C485 C491 1.429 . S
C486 C478 1.574 . S
C486 H481 0.949 . S
C486 C492 1.368 . S
C487 C471 1.349 . S
C487 H479 0.950 . S
C487 C485 1.327 . S
C488 C476 1.349 . S
C488 H482 0.950 . S
C488 C489 1.327 . S
C489 H483 0.950 . S
C489 C488 1.327 . S
C489 C493 1.429 . S
C490 C473 1.574 . S
C490 H484 0.949 . S
C490 C494 1.368 . S
C491 C472 1.429 . S
C491 C485 1.429 . S
C491 C492 1.523 . S
C492 C473 1.368 . S
C492 C486 1.368 . S
C492 C491 1.523 . S
C493 C477 1.429 . S
C493 C489 1.429 . S
C493 C494 1.523 . S
C494 C478 1.368 . S
C494 C490 1.368 . S
C494 C493 1.523 . S
H495 C470 0.950 . S
H496 C472 0.950 . S
H497 C473 0.949 . S
H498 C475 0.950 . S
H499 C477 0.950 . S
C500 C501 1.349 . S
C500 C502 1.327 . S
C500 H525 0.950 . S
C501 C500 1.349 . S
C501 C517 1.349 . S
C502 C500 1.327 . S
C502 C521 1.429 . S
C502 H526 0.950 . S
C503 C520 1.574 . S
C503 C522 1.368 . S
C503 H527 0.949 . S
H504 C508 0.949 . S
C505 C506 1.349 . S
C505 C507 1.327 . S
C505 H528 0.950 . S
C506 C505 1.349 . S
C506 C518 1.349 . S
C507 C505 1.327 . S
C507 C523 1.429 . S
C507 H529 0.950 . S
C508 H504 0.949 . S
C508 C516 1.574 . S
C508 C524 1.368 . S
H509 C517 0.950 . S
H510 C515 0.950 . S
H511 C516 0.949 . S
H512 C518 0.950 . S
H513 C519 0.950 . S
H514 C520 0.949 . S
C515 H510 0.950 . S
C515 C517 1.327 . S
C515 C521 1.429 . S
C516 C508 1.574 . S
C516 H511 0.949 . S
C516 C522 1.368 . S
C517 C501 1.349 . S
C517 H509 0.950 . S
C517 C515 1.327 . S
C518 C506 1.349 . S
C518 H512 0.950 . S
C518 C519 1.327 . S
C519 H513 0.950 . S
C519 C518 1.327 . S
C519 C523 1.429 . S
C520 C503 1.574 . S
C520 H514 0.949 . S
C520 C524 1.368 . S
C521 C502 1.429 . S
C521 C515 1.429 . S
C521 C522 1.523 . S
C522 C503 1.368 . S
C522 C516 1.368 . S
C522 C521 1.523 . S
C523 C507 1.429 . S
C523 C519 1.429 . S
C523 C524 1.523 . S
C524 C508 1.368 . S
C524 C520 1.368 . S
C524 C523 1.523 . S
H525 C500 0.950 . S
H526 C502 0.950 . S
H527 C503 0.949 . S
H528 C505 0.950 . S
H529 C507 0.950 . S
C530 C531 1.349 . S
C530 C532 1.327 . S
C530 H555 0.950 . S
C531 C530 1.349 . S
C531 C547 1.349 . S
C532 C530 1.327 . S
C532 C551 1.429 . S
C532 H556 0.950 . S
C533 C550 1.574 . S
C533 C552 1.368 . S
C533 H557 0.949 . S
H534 C538 0.949 . S
C535 C536 1.349 . S
C535 C537 1.327 . S
C535 H558 0.950 . S
C536 C535 1.349 . S
C536 C548 1.349 . S
C537 C535 1.327 . S
C537 C553 1.429 . S
C537 H559 0.950 . S
C538 H534 0.949 . S
C538 C546 1.574 . S
C538 C554 1.368 . S
H539 C547 0.950 . S
H540 C545 0.950 . S
H541 C546 0.949 . S
H542 C548 0.950 . S
H543 C549 0.950 . S
H544 C550 0.949 . S
C545 H540 0.950 . S
C545 C547 1.327 . S
C545 C551 1.429 . S
C546 C538 1.574 . S
C546 H541 0.949 . S
C546 C552 1.368 . S
C547 C531 1.349 . S
C547 H539 0.950 . S
C547 C545 1.327 . S
C548 C536 1.349 . S
C548 H542 0.950 . S
C548 C549 1.327 . S
C549 H543 0.950 . S
C549 C548 1.327 . S
C549 C553 1.429 . S
C550 C533 1.574 . S
C550 H544 0.949 . S
C550 C554 1.368 . S
C551 C532 1.429 . S
C551 C545 1.429 . S
C551 C552 1.523 . S
C552 C533 1.368 . S
C552 C546 1.368 . S
C552 C551 1.523 . S
C553 C537 1.429 . S
C553 C549 1.429 . S
C553 C554 1.523 . S
C554 C538 1.368 . S
C554 C550 1.368 . S
C554 C553 1.523 . S
H555 C530 0.950 . S
H556 C532 0.950 . S
H557 C533 0.949 . S
H558 C535 0.950 . S
H559 C537 0.950 . S
C560 C561 1.349 . S
C560 C562 1.327 . S
C560 H585 0.950 . S
C561 C560 1.349 . S
C561 C577 1.349 . S
C562 C560 1.327 . S
C562 C581 1.429 . S
C562 H586 0.950 . S
C563 C580 1.574 1_554 S
C563 C582 1.368 1_455 S
C563 H587 0.949 . S
H564 C568 0.949 . S
C565 C566 1.349 . S
C565 C567 1.327 . S
C565 H588 0.950 . S
C566 C565 1.349 . S
C566 C578 1.349 . S
C567 C565 1.327 . S
C567 C583 1.429 . S
C567 H589 0.950 . S
C568 H564 0.949 . S
C568 C576 1.574 1_556 S
C568 C584 1.368 1_655 S
H569 C577 0.950 1_455 S
H570 C575 0.939 1_455 S
H571 C576 0.949 . S
H572 C578 0.932 1_655 S
H573 C579 0.932 1_655 S
H574 C580 0.949 . S
C575 H570 0.939 1_655 S
C575 C577 1.331 . S
C575 C581 1.436 . S
C576 C568 1.574 1_554 S
C576 H571 0.949 . S
C576 C582 1.368 . S
C577 C561 1.349 . S
C577 H569 0.950 1_655 S
C577 C575 1.331 . S
C578 C566 1.349 . S
C578 H572 0.932 1_455 S
C578 C579 1.334 . S
C579 H573 0.932 1_455 S
C579 C578 1.334 . S
C579 C583 1.440 . S
C580 C563 1.574 1_556 S
C580 H574 0.949 . S
C580 C584 1.368 . S
C581 C562 1.429 . S
C581 C575 1.436 . S
C581 C582 1.523 . S
C582 C563 1.368 1_655 S
C582 C576 1.368 . S
C582 C581 1.523 . S
C583 C567 1.429 . S
C583 C579 1.440 . S
C583 C584 1.523 . S
C584 C568 1.368 1_455 S
C584 C580 1.368 . S
C584 C583 1.523 . S
H585 C560 0.950 . S
H586 C562 0.950 . S
H587 C563 0.949 . S
H588 C565 0.950 . S
H589 C567 0.950 . S
C590 C591 1.349 . S
C590 C592 1.327 . S
C590 H615 0.950 . S
C591 C590 1.349 . S
C591 C607 1.348 1_565 S
C592 C590 1.327 . S
C592 C611 1.429 . S
C592 H616 0.950 . S
C593 C610 1.574 . S
C593 C612 1.368 1_545 S
C593 H617 0.949 . S
H594 C598 0.949 . S
C595 C596 1.349 . S
C595 C597 1.327 . S
C595 H618 0.950 . S
C596 C595 1.349 . S
C596 C608 1.348 . S
C597 C595 1.327 . S
C597 C613 1.429 . S
C597 H619 0.950 . S
C598 H594 0.949 . S
C598 C606 1.574 . S
C598 C614 1.368 1_565 S
H599 C607 0.951 . S
H600 C605 0.950 . S
H601 C606 0.949 . S
H602 C608 0.951 1_565 S
H603 C609 0.950 . S
H604 C610 0.949 . S
C605 H600 0.950 . S
C605 C607 1.327 . S
C605 C611 1.429 1_545 S
C606 C598 1.574 . S
C606 H601 0.949 . S
C606 C612 1.368 . S
C607 C591 1.348 1_545 S
C607 H599 0.951 . S
C607 C605 1.327 . S
C608 C596 1.348 . S
C608 H602 0.951 1_545 S
C608 C609 1.327 1_545 S
C609 H603 0.950 . S
C609 C608 1.327 1_565 S
C609 C613 1.429 1_565 S
C610 C593 1.574 . S
C610 H604 0.949 . S
C610 C614 1.368 . S
C611 C592 1.429 . S
C611 C605 1.429 1_565 S
C611 C612 1.523 . S
C612 C593 1.368 1_565 S
C612 C606 1.368 . S
C612 C611 1.523 . S
C613 C597 1.429 . S
C613 C609 1.429 1_545 S
C613 C614 1.523 . S
C614 C598 1.368 1_545 S
C614 C610 1.368 . S
C614 C613 1.523 . S
H615 C590 0.950 . S
H616 C592 0.950 . S
H617 C593 0.949 . S
H618 C595 0.950 . S
H619 C597 0.950 . S
C620 C621 1.349 . S
C620 C622 1.331 . S
C620 H645 0.950 1_455 S
C621 C620 1.349 . S
C621 C637 1.349 . S
C622 C620 1.331 . S
C622 C641 1.436 . S
C622 H646 0.939 1_455 S
C623 C640 1.574 . S
C623 C642 1.368 . S
C623 H647 0.949 . S
H624 C628 0.949 . S
C625 C626 1.349 . S
C625 C627 1.334 . S
C625 H648 0.932 1_655 S
C626 C625 1.349 . S
C626 C638 1.349 . S
C627 C625 1.334 . S
C627 C643 1.440 . S
C627 H649 0.932 1_655 S
C628 H624 0.949 . S
C628 C636 1.574 . S
C628 C644 1.368 . S
H629 C637 0.950 . S
H630 C635 0.950 . S
H631 C636 0.949 . S
H632 C638 0.950 . S
H633 C639 0.950 . S
H634 C640 0.949 . S
C635 H630 0.950 . S
C635 C637 1.327 . S
C635 C641 1.429 . S
C636 C628 1.574 . S
C636 H631 0.949 . S
C636 C642 1.368 1_655 S
C637 C621 1.349 . S
C637 H629 0.950 . S
C637 C635 1.327 . S
C638 C626 1.349 . S
C638 H632 0.950 . S
C638 C639 1.327 . S
C639 H633 0.950 . S
C639 C638 1.327 . S
C639 C643 1.429 . S
C640 C623 1.574 . S
C640 H634 0.949 . S
C640 C644 1.368 1_455 S
C641 C622 1.436 . S
C641 C635 1.429 . S
C641 C642 1.523 . S
C642 C623 1.368 . S
C642 C636 1.368 1_455 S
C642 C641 1.523 . S
C643 C627 1.440 . S
C643 C639 1.429 . S
C643 C644 1.523 . S
C644 C628 1.368 . S
C644 C640 1.368 1_655 S
C644 C643 1.523 . S
H645 C620 0.950 1_655 S
H646 C622 0.939 1_655 S
H647 C623 0.949 . S
H648 C625 0.932 1_455 S
H649 C627 0.932 1_455 S
C650 C651 1.349 1_565 S
C650 C652 1.327 . S
C650 H675 0.950 . S
C651 C650 1.349 1_545 S
C651 C667 1.349 . S
C652 C650 1.327 . S
C652 C671 1.429 1_565 S
C652 H676 0.950 . S
C653 C670 1.574 . S
C653 C672 1.368 . S
C653 H677 0.949 . S
H654 C658 0.949 . S
C655 C656 1.349 1_545 S
C655 C657 1.327 . S
C655 H678 0.950 . S
C656 C655 1.349 1_565 S
C656 C668 1.349 . S
C657 C655 1.327 . S
C657 C673 1.429 1_545 S
C657 H679 0.950 . S
C658 H654 0.949 . S
C658 C666 1.574 . S
C658 C674 1.368 . S
H659 C667 0.950 . S
H660 C665 0.950 . S
H661 C666 0.949 . S
H662 C668 0.950 . S
H663 C669 0.950 . S
H664 C670 0.949 . S
C665 H660 0.950 . S
C665 C667 1.327 . S
C665 C671 1.429 . S
C666 C658 1.574 . S
C666 H661 0.949 . S
C666 C672 1.368 1_565 S
C667 C651 1.349 . S
C667 H659 0.950 . S
C667 C665 1.327 . S
C668 C656 1.349 . S
C668 H662 0.950 . S
C668 C669 1.327 . S
C669 H663 0.950 . S
C669 C668 1.327 . S
C669 C673 1.429 . S
C670 C653 1.574 . S
C670 H664 0.949 . S
C670 C674 1.368 1_545 S
C671 C652 1.429 1_545 S
C671 C665 1.429 . S
C671 C672 1.523 . S
C672 C653 1.368 . S
C672 C666 1.368 1_545 S
C672 C671 1.523 . S
C673 C657 1.429 1_565 S
C673 C669 1.429 . S
C673 C674 1.523 . S
C674 C658 1.368 . S
C674 C670 1.368 1_565 S
C674 C673 1.523 . S
H675 C650 0.950 . S
H676 C652 0.950 . S
H677 C653 0.949 . S
H678 C655 0.950 . S
H679 C657 0.950 . S
C321 C21 1.906 . S
C326 C181 1.906 . S
C351 C61 1.906 . S
C356 C221 1.906 . S
C381 C101 1.906 . S
C386 C261 1.906 . S
C411 C301 1.903 1_556 S
C416 C141 1.903 1_554 S
C441 C15 1.918 . S
C446 C215 1.912 . S
C471 C55 1.918 . S
C476 C255 1.912 . S
C501 C95 1.918 . S
C506 C295 1.912 . S
C531 C135 1.918 . S
C536 C175 1.912 . S
C561 C2 1.464 . S
C566 C242 1.463 . S
C591 C42 1.464 . S
C596 C282 1.463 . S
C621 C82 1.464 . S
C626 C162 1.463 . S
C651 C122 1.464 . S
C656 C202 1.463 . S
