# Generated by pormake.
# Topology wmi, (6)-cn, num edge types: 1
# Building blocks:
#     Node 0, Type 0, BuildingBlock: CUKXOW_clean_sbu_0, # of connection points: 6
#     Node 1, Type 0, BuildingBlock: CUKXOW_clean_sbu_0, # of connection points: 6
#     Node 2, Type 0, BuildingBlock: CUKXOW_clean_sbu_0, # of connection points: 6
#     Node 3, Type 0, BuildingBlock: CUKXOW_clean_sbu_0, # of connection points: 6
#     Node 4, Type 0, BuildingBlock: CUKXOW_clean_sbu_0, # of connection points: 6
#     Node 5, Type 0, BuildingBlock: CUKXOW_clean_sbu_0, # of connection points: 6
#     Node 6, Type 0, BuildingBlock: CUKXOW_clean_sbu_0, # of connection points: 6
#     Node 7, Type 0, BuildingBlock: CUKXOW_clean_sbu_0, # of connection points: 6
#     Node 8, Type 0, BuildingBlock: CUKXOW_clean_sbu_0, # of connection points: 6
#     Node 9, Type 0, BuildingBlock: CUKXOW_clean_sbu_0, # of connection points: 6
#     Node 10, Type 0, BuildingBlock: CUKXOW_clean_sbu_0, # of connection points: 6
#     Node 11, Type 0, BuildingBlock: CUKXOW_clean_sbu_0, # of connection points: 6
#     Node 12, Type 0, BuildingBlock: CUKXOW_clean_sbu_0, # of connection points: 6
#     Node 13, Type 0, BuildingBlock: CUKXOW_clean_sbu_0, # of connection points: 6
#     Node 14, Type 0, BuildingBlock: CUKXOW_clean_sbu_0, # of connection points: 6
#     Node 15, Type 0, BuildingBlock: CUKXOW_clean_sbu_0, # of connection points: 6
#     Node 16, Type 0, BuildingBlock: CUKXOW_clean_sbu_0, # of connection points: 6
#     Node 17, Type 0, BuildingBlock: CUKXOW_clean_sbu_0, # of connection points: 6
#     Edge 18, Type (0, 0), BuildingBlock: OJICUG_clean_linker_0, # of connection points: 2
#     Edge 19, Type (0, 0), BuildingBlock: OJICUG_clean_linker_0, # of connection points: 2
#     Edge 20, Type (0, 0), BuildingBlock: OJICUG_clean_linker_0, # of connection points: 2
#     Edge 21, Type (0, 0), BuildingBlock: OJICUG_clean_linker_0, # of connection points: 2
#     Edge 22, Type (0, 0), BuildingBlock: OJICUG_clean_linker_0, # of connection points: 2
#     Edge 23, Type (0, 0), BuildingBlock: OJICUG_clean_linker_0, # of connection points: 2
#     Edge 24, Type (0, 0), BuildingBlock: OJICUG_clean_linker_0, # of connection points: 2
#     Edge 25, Type (0, 0), BuildingBlock: OJICUG_clean_linker_0, # of connection points: 2
#     Edge 26, Type (0, 0), BuildingBlock: OJICUG_clean_linker_0, # of connection points: 2
#     Edge 27, Type (0, 0), BuildingBlock: OJICUG_clean_linker_0, # of connection points: 2
#     Edge 28, Type (0, 0), BuildingBlock: OJICUG_clean_linker_0, # of connection points: 2
#     Edge 29, Type (0, 0), BuildingBlock: OJICUG_clean_linker_0, # of connection points: 2
#     Edge 30, Type (0, 0), BuildingBlock: OJICUG_clean_linker_0, # of connection points: 2
#     Edge 31, Type (0, 0), BuildingBlock: OJICUG_clean_linker_0, # of connection points: 2
#     Edge 32, Type (0, 0), BuildingBlock: OJICUG_clean_linker_0, # of connection points: 2
#     Edge 33, Type (0, 0), BuildingBlock: OJICUG_clean_linker_0, # of connection points: 2
#     Edge 34, Type (0, 0), BuildingBlock: OJICUG_clean_linker_0, # of connection points: 2
#     Edge 35, Type (0, 0), BuildingBlock: OJICUG_clean_linker_0, # of connection points: 2
#     Edge 36, Type (0, 0), BuildingBlock: OJICUG_clean_linker_0, # of connection points: 2
#     Edge 37, Type (0, 0), BuildingBlock: OJICUG_clean_linker_0, # of connection points: 2
#     Edge 38, Type (0, 0), BuildingBlock: OJICUG_clean_linker_0, # of connection points: 2
#     Edge 39, Type (0, 0), BuildingBlock: OJICUG_clean_linker_0, # of connection points: 2
#     Edge 40, Type (0, 0), BuildingBlock: OJICUG_clean_linker_0, # of connection points: 2
#     Edge 41, Type (0, 0), BuildingBlock: OJICUG_clean_linker_0, # of connection points: 2
#     Edge 42, Type (0, 0), BuildingBlock: OJICUG_clean_linker_0, # of connection points: 2
#     Edge 43, Type (0, 0), BuildingBlock: OJICUG_clean_linker_0, # of connection points: 2
#     Edge 44, Type (0, 0), BuildingBlock: OJICUG_clean_linker_0, # of connection points: 2
#     Edge 45, Type (0, 0), BuildingBlock: OJICUG_clean_linker_0, # of connection points: 2
#     Edge 46, Type (0, 0), BuildingBlock: OJICUG_clean_linker_0, # of connection points: 2
#     Edge 47, Type (0, 0), BuildingBlock: OJICUG_clean_linker_0, # of connection points: 2
#     Edge 48, Type (0, 0), BuildingBlock: OJICUG_clean_linker_0, # of connection points: 2
#     Edge 49, Type (0, 0), BuildingBlock: OJICUG_clean_linker_0, # of connection points: 2
#     Edge 50, Type (0, 0), BuildingBlock: OJICUG_clean_linker_0, # of connection points: 2
#     Edge 51, Type (0, 0), BuildingBlock: OJICUG_clean_linker_0, # of connection points: 2
#     Edge 52, Type (0, 0), BuildingBlock: OJICUG_clean_linker_0, # of connection points: 2
#     Edge 53, Type (0, 0), BuildingBlock: OJICUG_clean_linker_0, # of connection points: 2
#     Edge 54, Type (0, 0), BuildingBlock: OJICUG_clean_linker_0, # of connection points: 2
#     Edge 55, Type (0, 0), BuildingBlock: OJICUG_clean_linker_0, # of connection points: 2
#     Edge 56, Type (0, 0), BuildingBlock: OJICUG_clean_linker_0, # of connection points: 2
#     Edge 57, Type (0, 0), BuildingBlock: OJICUG_clean_linker_0, # of connection points: 2
#     Edge 58, Type (0, 0), BuildingBlock: OJICUG_clean_linker_0, # of connection points: 2
#     Edge 59, Type (0, 0), BuildingBlock: OJICUG_clean_linker_0, # of connection points: 2
#     Edge 60, Type (0, 0), BuildingBlock: OJICUG_clean_linker_0, # of connection points: 2
#     Edge 61, Type (0, 0), BuildingBlock: OJICUG_clean_linker_0, # of connection points: 2
#     Edge 62, Type (0, 0), BuildingBlock: OJICUG_clean_linker_0, # of connection points: 2
#     Edge 63, Type (0, 0), BuildingBlock: OJICUG_clean_linker_0, # of connection points: 2
#     Edge 64, Type (0, 0), BuildingBlock: OJICUG_clean_linker_0, # of connection points: 2
#     Edge 65, Type (0, 0), BuildingBlock: OJICUG_clean_linker_0, # of connection points: 2
#     Edge 66, Type (0, 0), BuildingBlock: OJICUG_clean_linker_0, # of connection points: 2
#     Edge 67, Type (0, 0), BuildingBlock: OJICUG_clean_linker_0, # of connection points: 2
#     Edge 68, Type (0, 0), BuildingBlock: OJICUG_clean_linker_0, # of connection points: 2
#     Edge 69, Type (0, 0), BuildingBlock: OJICUG_clean_linker_0, # of connection points: 2
#     Edge 70, Type (0, 0), BuildingBlock: OJICUG_clean_linker_0, # of connection points: 2
#     Edge 71, Type (0, 0), BuildingBlock: OJICUG_clean_linker_0, # of connection points: 2
# Relax obj value: 0.054
# Max RMSD: 0.155
# Mean RMSD: 0.155
data_MOF--net-wmi--node1-CUKXOW_clean_sbu_0--edge1-OJICUG_clean_linker_0
_symmetry_space_group_name_H-M    P1
_symmetry_Int_Tables_number       1
_symmetry_cell_setting            triclinic
loop_
_symmetry_equiv_pos_as_xyz
'x, y, z'
_cell_length_a     23.796936
_cell_length_b     23.7975
_cell_length_c     62.227112
_cell_angle_alpha  89.999972
_cell_angle_beta   89.998561
_cell_angle_gamma 119.99902
loop_
_atom_site_label
_atom_site_type_symbol
_atom_site_fract_x
_atom_site_fract_y
_atom_site_fract_z
_atom_type_partial_charge
Tb0 Tb 0.50625 0.08655 0.09791 0.0
C1 C 0.46651 1.00341 0.14015 0.0
Tb2 Tb 0.53444 0.97418 0.10089 0.0
O3 O 0.40129 0.02003 0.10212 0.0
O4 O 0.46066 0.98879 0.08846 0.0
O5 O 0.4833 0.06104 0.13169 0.0
C6 C 0.54531 0.86844 0.10474 0.0
O7 O 0.47904 0.96099 0.13047 0.0
C8 C 0.63643 0.09097 0.10025 0.0
C9 C 0.54183 0.03496 0.05561 0.0
O10 O 0.57736 0.92123 0.1159 0.0
O11 O 0.50577 0.87458 0.09188 0.0
O12 O 0.63533 0.03988 0.09265 0.0
O13 O 0.58331 0.07456 0.10961 0.0
O14 O 0.53053 0.98177 0.06616 0.0
O15 O 0.54314 0.08547 0.06543 0.0
C16 C 0.51785 0.20413 0.09585 0.0
O17 O 0.4772 0.15361 0.08483 0.0
O18 O 0.55237 0.18854 0.10794 0.0
C19 C 0.40433 0.97005 0.09517 0.0
Tb20 Tb 0.98926 0.44515 0.09794 0.0
C21 C 0.07244 0.48856 0.14017 0.0
Tb22 Tb 0.10163 0.5857 0.10091 0.0
O23 O 0.05578 0.4067 0.10215 0.0
O24 O 0.08701 0.49731 0.08848 0.0
O25 O 1.01481 0.44772 0.13172 0.0
C26 C 0.20738 0.7023 0.10475 0.0
O27 O 0.11486 0.54351 0.13049 0.0
C28 C 0.98484 0.57091 0.10028 0.0
C29 C 0.04077 0.5323 0.05564 0.0
O30 O 0.15461 0.68157 0.11592 0.0
O31 O 0.20122 0.65663 0.09188 0.0
O32 O 0.03594 0.6209 0.09268 0.0
O33 O 1.00126 0.5342 0.10964 0.0
O34 O 0.09399 0.5742 0.06618 0.0
O35 O 0.99028 0.48312 0.06547 0.0
C36 C 0.8717 0.33915 0.09588 0.0
O37 O 0.92221 0.34906 0.08485 0.0
O38 O 0.88728 0.38924 0.10798 0.0
C39 C 0.10576 0.45972 0.09519 0.0
Tb40 Tb 0.63065 0.56954 0.09793 0.0
C41 C 0.58732 0.60934 0.14017 0.0
Tb42 Tb 0.4901 0.54136 0.10093 0.0
O43 O 0.66911 0.67451 0.10213 0.0
O44 O 0.57847 0.61511 0.08849 0.0
O45 O 0.62815 0.59255 0.13171 0.0
C46 C 0.37351 0.53053 0.10479 0.0
O47 O 0.53234 0.59678 0.13051 0.0
C48 C 0.50489 0.43936 0.10029 0.0
C49 C 0.54341 0.53391 0.05565 0.0
O50 O 0.39424 0.49848 0.11595 0.0
O51 O 0.41918 0.57005 0.09192 0.0
O52 O 0.45488 0.44046 0.0927 0.0
O53 O 0.54162 0.49249 0.10964 0.0
O54 O 0.50153 0.54522 0.06621 0.0
O55 O 0.59263 0.53261 0.06546 0.0
C56 C 0.73663 0.55793 0.09586 0.0
O57 O 0.72674 0.59855 0.08483 0.0
O58 O 0.68654 0.52344 0.10796 0.0
C59 C 0.61607 0.67146 0.09519 0.0
Tb60 Tb 0.09451 0.49786 0.92044 0.0
C61 C 1.01133 0.45815 0.87822 0.0
Tb62 Tb 0.98215 0.52607 0.91749 0.0
O63 O 0.02798 0.39291 0.91623 0.0
O64 O 0.99676 0.45228 0.92991 0.0
O65 O 0.06897 0.47493 0.88666 0.0
C66 C 0.87642 0.53695 0.91365 0.0
O67 O 0.96893 0.47069 0.8879 0.0
C68 C 0.09895 0.62806 0.91813 0.0
C69 C 0.043 0.53348 0.96276 0.0
O70 O 0.9292 0.56899 0.90249 0.0
O71 O 0.88257 0.49742 0.92652 0.0
O72 O 0.04786 0.62695 0.92574 0.0
O73 O 0.08253 0.57495 0.90876 0.0
O74 O 0.98978 0.52217 0.95222 0.0
O75 O 0.09349 0.53478 0.95292 0.0
C76 C 0.21207 0.50942 0.92251 0.0
O77 O 0.16155 0.4688 0.93353 0.0
O78 O 0.19649 0.54394 0.91041 0.0
C79 C 0.978 0.39595 0.92319 0.0
Tb80 Tb 0.5775 0.62228 0.92047 0.0
C81 C 0.61724 0.5789 0.87823 0.0
Tb82 Tb 0.54933 0.48172 0.91749 0.0
O83 O 0.68247 0.66074 0.91626 0.0
O84 O 0.6231 0.57011 0.92991 0.0
O85 O 0.60045 0.61973 0.88669 0.0
C86 C 0.53848 0.36512 0.91363 0.0
O87 O 0.60473 0.52395 0.88791 0.0
C88 C 0.44734 0.49651 0.91813 0.0
C89 C 0.54195 0.53509 0.96277 0.0
O90 O 0.57801 0.41079 0.92649 0.0
O91 O 0.50643 0.38586 0.90247 0.0
O92 O 0.44844 0.44652 0.92573 0.0
O93 O 0.50045 0.53323 0.90878 0.0
O94 O 0.55325 0.4932 0.95221 0.0
O95 O 0.54062 0.58429 0.95295 0.0
C96 C 0.56589 0.72826 0.92254 0.0
O97 O 0.60654 0.71839 0.93356 0.0
O98 O 0.53137 0.67814 0.91045 0.0
C99 C 0.67943 0.60771 0.92321 0.0
Tb100 Tb 0.45312 0.98088 0.92045 0.0
C101 C 0.49643 0.06404 0.87821 0.0
Tb102 Tb 0.59367 0.09326 0.91744 0.0
O103 O 0.41466 0.04739 0.91626 0.0
O104 O 0.50531 0.07864 0.9299 0.0
O105 O 0.4556 1.00642 0.88667 0.0
C106 C 0.71026 0.19902 0.91359 0.0
O107 O 0.55141 0.10645 0.88787 0.0
C108 C 0.57889 0.97647 0.91807 0.0
C109 C 0.54038 0.03246 0.96273 0.0
O110 O 0.68953 0.14625 0.90242 0.0
O111 O 0.66459 0.19285 0.92646 0.0
O112 O 0.6289 0.02758 0.92566 0.0
O113 O 0.54215 0.99287 0.90873 0.0
O114 O 0.58225 0.08566 0.95217 0.0
O115 O 0.49116 0.98195 0.95291 0.0
C116 C 0.34715 0.8633 0.92252 0.0
O117 O 0.35705 0.91381 0.93356 0.0
O118 O 0.39722 0.8789 0.91041 0.0
C119 C 0.4677 0.09738 0.9232 0.0
Tb120 Tb 0.17268 0.41985 0.43128 0.0
C121 C 0.13285 0.33668 0.47351 0.0
Tb122 Tb 0.20086 0.30748 0.43426 0.0
O123 O 0.06771 0.35333 0.43546 0.0
O124 O 0.12711 0.3221 0.42182 0.0
O125 O 0.14964 0.39431 0.46505 0.0
C126 C 0.21169 0.20172 0.43812 0.0
O127 O 0.14541 0.29427 0.46384 0.0
C128 C 0.30286 0.42426 0.43364 0.0
C129 C 0.20836 0.3683 0.38899 0.0
O130 O 0.24373 0.25449 0.44928 0.0
O131 O 0.17219 0.20789 0.42525 0.0
O132 O 0.30177 0.37316 0.42604 0.0
O133 O 0.24973 0.40786 0.44298 0.0
O134 O 0.19704 0.3151 0.39954 0.0
O135 O 0.20965 0.4188 0.39881 0.0
C136 C 0.18427 0.53743 0.4292 0.0
O137 O 0.14367 0.48692 0.41817 0.0
O138 O 0.21875 0.52183 0.44132 0.0
C139 C 0.07076 0.30335 0.42852 0.0
Tb140 Tb 0.65567 0.77845 0.43124 0.0
C141 C 0.73879 0.82181 0.47348 0.0
Tb142 Tb 0.76805 0.91901 0.43423 0.0
O143 O 0.72217 0.73999 0.43544 0.0
O144 O 0.75343 0.83063 0.4218 0.0
O145 O 0.68116 0.78098 0.46502 0.0
C146 C 0.8738 0.0356 0.43809 0.0
O147 O 0.78122 0.87677 0.46381 0.0
C148 C 0.65126 0.90422 0.43359 0.0
C149 C 0.7073 0.86567 0.38895 0.0
O150 O 0.86766 0.98994 0.42523 0.0
O151 O 0.82101 1.01486 0.44925 0.0
O152 O 0.70236 0.95422 0.426 0.0
O153 O 0.66766 0.8675 0.44294 0.0
O154 O 0.76049 0.90755 0.39951 0.0
O155 O 0.65678 0.81646 0.39877 0.0
C156 C 0.53808 0.67248 0.42918 0.0
O157 O 0.58859 0.68235 0.41815 0.0
O158 O 0.55367 0.72259 0.44127 0.0
C159 C 0.77217 0.79303 0.4285 0.0
Tb160 Tb 0.29708 0.90286 0.43127 0.0
C161 C 0.25363 0.94257 0.4735 0.0
Tb162 Tb 0.15652 0.87466 0.43423 0.0
O163 O 0.33551 1.00781 0.43549 0.0
O164 O 0.24492 0.94845 0.42182 0.0
O165 O 0.29448 0.92579 0.46505 0.0
C166 C 0.03991 0.86379 0.43808 0.0
O167 O 0.19869 0.93004 0.46382 0.0
C168 C 0.17132 0.77267 0.43359 0.0
C169 C 0.20996 0.86728 0.38896 0.0
O170 O 0.06064 0.83174 0.44924 0.0
O171 O 0.08559 0.90332 0.42521 0.0
O172 O 0.12134 0.77378 0.42599 0.0
O173 O 0.20802 0.82578 0.44296 0.0
O174 O 0.16805 0.87858 0.3995 0.0
O175 O 0.25914 0.86596 0.3988 0.0
C176 C 0.40308 0.89129 0.42921 0.0
O177 O 0.39319 0.93192 0.41818 0.0
O178 O 0.35297 0.85677 0.44131 0.0
C179 C 0.2825 1.00478 0.42853 0.0
Tb180 Tb 0.76158 0.83137 0.25378 0.0
C181 C 0.67845 0.79159 0.21154 0.0
Tb182 Tb 0.6492 0.85955 0.25079 0.0
O183 O 0.69506 0.7264 0.24958 0.0
O184 O 0.66382 0.78579 0.26322 0.0
O185 O 0.73607 0.80837 0.22 0.0
C186 C 0.54345 0.87039 0.24693 0.0
O187 O 0.63603 0.80415 0.22121 0.0
C188 C 0.76599 0.96155 0.25143 0.0
C189 C 0.70995 0.86697 0.29607 0.0
O190 O 0.59623 0.90245 0.23577 0.0
O191 O 0.5496 0.83087 0.2598 0.0
O192 O 0.71489 0.96045 0.25902 0.0
O193 O 0.7496 0.90843 0.24208 0.0
O194 O 0.65677 0.85567 0.28551 0.0
O195 O 0.76047 0.86828 0.28625 0.0
C196 C 0.87916 0.84297 0.25585 0.0
O197 O 0.82864 0.80234 0.26688 0.0
O198 O 0.86357 0.87747 0.24375 0.0
C199 C 0.64508 0.72945 0.25652 0.0
Tb200 Tb 0.24457 0.95576 0.25378 0.0
C201 C 0.28435 0.91236 0.21155 0.0
Tb202 Tb 0.2164 0.8152 0.25081 0.0
O203 O 0.34954 0.99421 0.24958 0.0
O204 O 0.29016 0.90359 0.26324 0.0
O205 O 0.26756 0.9532 0.22 0.0
C206 C 0.20555 0.69861 0.24696 0.0
O207 O 0.27181 0.85741 0.22123 0.0
C208 C 0.1144 0.82999 0.25144 0.0
C209 C 0.20893 0.86857 0.29608 0.0
O210 O 0.17351 0.71934 0.2358 0.0
O211 O 0.24506 0.74428 0.25983 0.0
O212 O 0.1155 0.78 0.25904 0.0
O213 O 0.16752 0.86671 0.24208 0.0
O214 O 0.22025 0.82669 0.28554 0.0
O215 O 0.20762 0.91777 0.28625 0.0
C216 C 0.23299 0.06175 0.25585 0.0
O217 O 0.27361 0.05185 0.26688 0.0
O218 O 0.1985 1.01166 0.24374 0.0
C219 C 0.3465 0.94118 0.25653 0.0
Tb220 Tb 0.12017 0.31436 0.2538 0.0
C221 C 0.16357 0.39751 0.21157 0.0
Tb222 Tb 0.26072 0.42673 0.25083 0.0
O223 O 0.08172 0.38088 0.24959 0.0
O224 O 0.17233 0.41211 0.26326 0.0
O225 O 0.12273 0.33988 0.22002 0.0
C226 C 0.37733 0.53247 0.24698 0.0
O227 O 0.21852 0.43993 0.22125 0.0
C228 C 0.24593 0.30994 0.25146 0.0
C229 C 0.20732 0.36591 0.2961 0.0
O230 O 0.35659 0.47969 0.23581 0.0
O231 O 0.33166 0.52632 0.25984 0.0
O232 O 0.29592 0.36103 0.25907 0.0
O233 O 0.20922 0.32635 0.24211 0.0
O234 O 0.24922 0.41912 0.28556 0.0
O235 O 0.15813 0.31541 0.28628 0.0
C236 C 1.01418 0.19678 0.25586 0.0
O237 O 1.02406 0.2473 0.26689 0.0
O238 O 0.06429 0.21238 0.24377 0.0
C239 C 0.13474 0.43086 0.25655 0.0
Tb240 Tb 0.83908 0.75319 0.7646 0.0
C241 C 0.79939 0.67005 0.80683 0.0
Tb242 Tb 0.8673 0.64084 0.76756 0.0
O243 O 0.73412 0.68667 0.76881 0.0
O244 O 0.7935 0.65544 0.75515 0.0
O245 O 0.81615 0.72768 0.79838 0.0
C246 C 0.87817 0.5351 0.77141 0.0
O247 O 0.81192 0.62764 0.79715 0.0
C248 C 0.96927 0.75764 0.76692 0.0
C249 C 0.87466 0.70162 0.72229 0.0
O250 O 0.91023 0.58788 0.78257 0.0
O251 O 0.83863 0.54125 0.75855 0.0
O252 O 0.96818 0.70655 0.75932 0.0
O253 O 0.91616 0.74122 0.77628 0.0
O254 O 0.86339 0.64843 0.73284 0.0
O255 O 0.87596 0.75212 0.73212 0.0
C256 C 0.85064 0.87076 0.76253 0.0
O257 O 0.81 0.82023 0.75151 0.0
O258 O 0.88518 0.85518 0.77462 0.0
C259 C 0.73717 0.63669 0.76186 0.0
Tb260 Tb 0.3221 0.1118 0.76461 0.0
C261 C 0.40526 0.15516 0.80684 0.0
Tb262 Tb 0.43447 0.25235 0.76759 0.0
O263 O 0.38862 0.07335 0.76881 0.0
O264 O 0.41985 0.16397 0.75516 0.0
O265 O 0.34763 0.11432 0.79839 0.0
C266 C 0.54022 0.36894 0.77144 0.0
O267 O 0.44767 0.21013 0.79717 0.0
C268 C 0.31768 0.23756 0.76696 0.0
C269 C 0.37368 0.19899 0.72231 0.0
O270 O 0.48744 0.34821 0.78261 0.0
O271 O 0.53407 0.32327 0.75858 0.0
O272 O 0.36878 0.28756 0.75936 0.0
O273 O 0.33408 0.20084 0.77631 0.0
O274 O 0.42687 0.24088 0.73286 0.0
O275 O 0.32317 0.14979 0.73214 0.0
C276 C 0.20452 1.00583 0.76254 0.0
O277 O 0.25503 1.01572 0.75151 0.0
O278 O 0.22011 0.05591 0.77464 0.0
C279 C 0.4386 0.12638 0.76186 0.0
Tb280 Tb 0.96349 0.23619 0.76458 0.0
C281 C 0.92015 0.276 0.80681 0.0
Tb282 Tb 0.82295 0.20804 0.76757 0.0
O283 O 1.00196 0.34116 0.76878 0.0
O284 O 0.91133 0.28178 0.75513 0.0
O285 O 0.96097 0.25918 0.79836 0.0
C286 C 0.70636 0.1972 0.77143 0.0
O287 O 0.86519 0.26347 0.79714 0.0
C288 C 0.83771 0.10602 0.76694 0.0
C289 C 0.87628 0.20054 0.72229 0.0
O290 O 0.7271 0.16517 0.78259 0.0
O291 O 0.75202 0.23671 0.75855 0.0
O292 O 0.78772 0.10713 0.75934 0.0
O293 O 0.87444 0.15915 0.77629 0.0
O294 O 0.83441 0.21187 0.73284 0.0
O295 O 0.92548 0.19923 0.73211 0.0
C296 C 0.06947 0.22458 0.76252 0.0
O297 O 0.05958 0.2652 0.75148 0.0
O298 O 1.01937 0.19009 0.77462 0.0
C299 C 0.94893 0.33812 0.76183 0.0
Tb300 Tb 0.42777 0.16452 0.58714 0.0
C301 C 0.34463 0.12473 0.54491 0.0
Tb302 Tb 0.31538 0.19269 0.58415 0.0
O303 O 0.36126 0.05956 0.58294 0.0
O304 O 0.33001 0.11893 0.59659 0.0
O305 O 0.40225 0.14152 0.55336 0.0
C306 C 0.20963 0.20352 0.58029 0.0
O307 O 0.3022 0.13727 0.55457 0.0
C308 C 0.43217 0.29469 0.58478 0.0
C309 C 0.37617 0.20015 0.62943 0.0
O310 O 0.26241 0.23557 0.56913 0.0
O311 O 0.21578 0.16401 0.59316 0.0
O312 O 0.38107 0.29359 0.59238 0.0
O313 O 0.41577 0.24157 0.57543 0.0
O314 O 0.32297 0.18883 0.61888 0.0
O315 O 0.42669 0.20146 0.61961 0.0
C316 C 0.54535 0.17613 0.58921 0.0
O317 O 0.49484 0.13551 0.60024 0.0
O318 O 0.52975 0.21063 0.57711 0.0
C319 C 0.31127 0.06259 0.58989 0.0
Tb320 Tb 0.91076 0.28891 0.58711 0.0
C321 C 0.95057 0.24555 0.54488 0.0
Tb322 Tb 0.88258 0.14836 0.58413 0.0
O323 O 1.01573 0.32736 0.58292 0.0
O324 O 0.95633 0.23674 0.59657 0.0
O325 O 0.93377 0.28639 0.55334 0.0
C326 C 0.87174 0.03177 0.58028 0.0
O327 O 0.93802 0.19059 0.55456 0.0
C328 C 0.78058 0.16315 0.58476 0.0
C329 C 0.87509 0.20171 0.62941 0.0
O330 O 0.8397 0.05251 0.56911 0.0
O331 O 0.91124 0.07743 0.59315 0.0
O332 O 0.78168 0.11315 0.59236 0.0
O333 O 0.8337 0.19987 0.57541 0.0
O334 O 0.88642 0.15982 0.61886 0.0
O335 O 0.87379 0.25091 0.61958 0.0
C336 C 0.89916 0.39489 0.58918 0.0
O337 O 0.93977 0.38499 0.60022 0.0
O338 O 0.86468 0.34481 0.57707 0.0
C339 C 1.01268 0.27433 0.58987 0.0
Tb340 Tb 0.78636 0.64752 0.58711 0.0
C341 C 0.8298 0.73065 0.54487 0.0
Tb342 Tb 0.92693 0.75988 0.58414 0.0
O343 O 0.74792 0.71404 0.58289 0.0
O344 O 0.83853 0.74527 0.59655 0.0
O345 O 0.78895 0.67303 0.55332 0.0
C346 C 0.04354 0.86562 0.5803 0.0
O347 O 0.88475 0.77307 0.55455 0.0
C348 C 0.91212 0.64308 0.58479 0.0
C349 C 0.8735 0.69911 0.62941 0.0
O350 O 1.02281 0.81284 0.56914 0.0
O351 O 0.99785 0.85948 0.59315 0.0
O352 O 0.96211 0.69418 0.59239 0.0
O353 O 0.87542 0.65949 0.57542 0.0
O354 O 0.9154 0.7523 0.61886 0.0
O355 O 0.82431 0.64859 0.61959 0.0
C356 C 0.68036 0.52995 0.58917 0.0
O357 O 0.69025 0.58047 0.6002 0.0
O358 O 0.73047 0.54553 0.57708 0.0
C359 C 0.80095 0.76402 0.58984 0.0
C360 C 0.52599 0.7635 0.08956 0.0
C361 C 0.5602 0.81545 0.10378 0.0
H362 H 0.51821 0.67795 0.07538 0.0
C363 C 0.61246 0.8193 0.11552 0.0
H364 H 0.4858 0.75968 0.08022 0.0
C365 C 0.63117 0.77264 0.11267 0.0
C366 C 0.59755 0.72137 0.09815 0.0
H367 H 0.63978 0.85911 0.12653 0.0
H368 H 0.67174 0.77659 0.12181 0.0
C369 C 0.54454 0.71686 0.08678 0.0
C370 C 0.35893 0.85312 0.08676 0.0
C371 C 0.35443 0.90162 0.09814 0.0
H372 H 0.31611 0.75156 0.0802 0.0
C373 C 0.30318 0.88397 0.11267 0.0
H374 H 0.39782 0.8657 0.07536 0.0
C375 C 0.25653 0.8186 0.11553 0.0
C376 C 0.26037 0.77018 0.10378 0.0
H377 H 0.29923 0.92058 0.12181 0.0
H378 H 0.21674 0.80611 0.12654 0.0
C379 C 0.3123 0.78792 0.08955 0.0
C380 C 0.2227 0.53127 0.08679 0.0
C381 C 0.17419 0.47825 0.09817 0.0
H382 H 0.32426 0.59001 0.08024 0.0
C383 C 0.19183 0.44466 0.11269 0.0
H384 H 0.21013 0.55758 0.07538 0.0
C385 C 0.2572 0.46339 0.11556 0.0
C386 C 0.30563 0.51565 0.10382 0.0
H387 H 0.15521 0.4041 0.12184 0.0
H388 H 0.26969 0.43609 0.12658 0.0
C389 C 0.28789 0.54983 0.08959 0.0
C390 C 0.77149 0.51764 0.92884 0.0
C391 C 0.82343 0.55184 0.91461 0.0
H392 H 0.68594 0.50986 0.94302 0.0
C393 C 0.82727 0.6041 0.90287 0.0
H394 H 0.76767 0.47746 0.93818 0.0
C395 C 0.78061 0.62281 0.90573 0.0
C396 C 0.72935 0.5892 0.92024 0.0
H397 H 0.86707 0.63141 0.89186 0.0
H398 H 0.78456 0.66337 0.89658 0.0
C399 C 0.72484 0.53619 0.93162 0.0
C400 C 0.53924 0.21431 0.93161 0.0
C401 C 0.48622 0.16581 0.92024 0.0
H402 H 0.59799 0.31587 0.93816 0.0
C403 C 0.45261 0.18346 0.90572 0.0
H404 H 0.56557 0.20174 0.94301 0.0
C405 C 0.47132 0.24882 0.90286 0.0
C406 C 0.52359 0.29725 0.91459 0.0
H407 H 0.41203 0.14684 0.89658 0.0
H408 H 0.44401 0.26131 0.89185 0.0
C409 C 0.5578 0.27951 0.92882 0.0
C410 C 0.79587 0.30393 0.92879 0.0
C411 C 0.77813 0.25201 0.91455 0.0
H412 H 0.87363 0.38943 0.943 0.0
C413 C 0.82656 0.24819 0.90281 0.0
H414 H 0.7595 0.30773 0.93814 0.0
C415 C 0.89193 0.29483 0.90568 0.0
C416 C 0.90957 0.34606 0.92021 0.0
H417 H 0.81408 0.20842 0.89179 0.0
H418 H 0.92855 0.29089 0.89653 0.0
C419 C 0.86106 0.35056 0.93159 0.0
C420 C 0.21096 0.05018 0.42013 0.0
C421 C 0.26396 0.05467 0.4315 0.0
H422 H 0.15223 0.09301 0.41357 0.0
C423 C 0.29754 0.10591 0.44603 0.0
H424 H 0.18466 1.0113 0.40872 0.0
C425 C 0.27882 0.15255 0.4489 0.0
C426 C 0.22657 0.14873 0.43715 0.0
H427 H 0.3381 0.10985 0.45518 0.0
H428 H 0.30611 0.19233 0.45992 0.0
C429 C 0.1924 0.09681 0.42292 0.0
C430 C 0.02537 0.18642 0.42011 0.0
C431 C 1.02086 0.23492 0.43149 0.0
H432 H 0.98255 0.08486 0.41356 0.0
C433 C 0.9696 0.21727 0.44601 0.0
H434 H 0.06427 0.19899 0.40871 0.0
C435 C 0.92295 0.1519 0.44887 0.0
C436 C 0.92679 0.10348 0.43713 0.0
H437 H 0.96564 0.25389 0.45515 0.0
H438 H 0.88315 0.13941 0.45988 0.0
C439 C 0.97873 0.12122 0.4229 0.0
C440 C 0.9236 0.79664 0.44885 0.0
C441 C 0.97203 0.8489 0.43711 0.0
H442 H 0.82162 0.73735 0.45513 0.0
C443 C 0.9543 0.88311 0.42289 0.0
H444 H 0.93609 0.76932 0.45986 0.0
C445 C 0.8891 0.86456 0.4201 0.0
C446 C 0.84059 0.81154 0.43147 0.0
H447 H 0.99066 0.92329 0.41354 0.0
H448 H 0.87653 0.89089 0.4087 0.0
C449 C 0.85824 0.77793 0.44599 0.0
C450 C 0.44764 0.95626 0.23903 0.0
C451 C 0.3964 0.92266 0.25356 0.0
H452 H 0.53408 0.96485 0.22515 0.0
C453 C 0.39189 0.86964 0.26493 0.0
H454 H 0.45159 0.99683 0.22989 0.0
C455 C 0.43853 0.85108 0.26213 0.0
C456 C 0.49046 0.88528 0.2479 0.0
H457 H 0.35301 0.84332 0.27633 0.0
H458 H 0.43472 0.8109 0.27148 0.0
C459 C 0.49429 0.93754 0.23616 0.0
C460 C 0.22484 0.61299 0.26216 0.0
C461 C 0.19066 0.63073 0.24793 0.0
H462 H 0.2326 0.53522 0.27636 0.0
C463 C 0.1384 0.58231 0.23619 0.0
H464 H 0.26502 0.64935 0.27151 0.0
C465 C 0.11968 0.51694 0.23905 0.0
C466 C 0.15327 0.49929 0.25358 0.0
H467 H 0.11111 0.5948 0.22517 0.0
H468 H 0.07912 0.48032 0.2299 0.0
C469 C 0.20628 0.54779 0.26495 0.0
C470 C 0.55899 0.62828 0.23904 0.0
C471 C 0.57665 0.67954 0.25356 0.0
H472 H 0.48113 0.54181 0.22518 0.0
C473 C 0.52815 0.68405 0.26494 0.0
H474 H 0.59561 0.62432 0.2299 0.0
C475 C 0.46295 0.6374 0.26216 0.0
C476 C 0.4452 0.58546 0.24793 0.0
H477 H 0.54072 0.72295 0.27634 0.0
H478 H 0.42659 0.64122 0.2715 0.0
C479 C 0.49362 0.58162 0.23619 0.0
C480 C 0.94533 0.48595 0.78217 0.0
C481 C 0.89306 0.48211 0.77044 0.0
H482 H 1.00461 0.44324 0.78845 0.0
C483 C 0.85885 0.43017 0.75621 0.0
H484 H 0.97265 0.52575 0.79318 0.0
C485 C 0.8774 0.38353 0.75342 0.0
C486 C 0.93042 0.38804 0.76479 0.0
H487 H 0.81867 0.42636 0.74687 0.0
H488 H 0.85107 0.34463 0.74202 0.0
C489 C 0.96404 0.43929 0.77931 0.0
C490 C 0.69178 0.51976 0.75346 0.0
C491 C 0.68727 0.56826 0.76483 0.0
H492 H 0.64895 0.4182 0.7469 0.0
C493 C 0.63603 0.55061 0.77936 0.0
H494 H 0.73066 0.53233 0.74205 0.0
C495 C 0.58938 0.48524 0.78222 0.0
C496 C 0.59321 0.43682 0.77048 0.0
H497 H 0.63209 0.58722 0.78851 0.0
H498 H 0.54959 0.47275 0.79324 0.0
C499 C 0.64514 0.45456 0.75625 0.0
C500 C 0.55553 0.19792 0.75345 0.0
C501 C 0.50703 0.14491 0.76482 0.0
H502 H 0.65709 0.25667 0.74688 0.0
C503 C 0.52469 0.11133 0.77935 0.0
H504 H 0.54295 0.22423 0.74204 0.0
C505 C 0.59006 0.13006 0.78221 0.0
C506 C 0.63848 0.18231 0.77047 0.0
H507 H 0.48808 0.07077 0.7885 0.0
H508 H 0.60256 0.10276 0.79322 0.0
C509 C 0.62073 0.21649 0.75623 0.0
C510 C 0.11383 0.2894 0.57238 0.0
C511 C 0.06258 0.2558 0.5869 0.0
H512 H 0.20028 0.29798 0.5585 0.0
C513 C 0.05806 0.20278 0.59827 0.0
H514 H 0.11779 0.32997 0.56324 0.0
C515 C 0.1047 0.18422 0.59548 0.0
C516 C 0.15664 0.21841 0.58125 0.0
H517 H 1.01917 0.17646 0.60968 0.0
H518 H 0.10088 0.14404 0.60483 0.0
C519 C 0.16048 0.27068 0.56952 0.0
C520 C 0.78589 0.85011 0.57234 0.0
C521 C 0.81947 0.83245 0.58687 0.0
H522 H 0.77731 0.92797 0.55847 0.0
C523 C 0.87247 0.88094 0.59825 0.0
H524 H 0.74533 0.8135 0.56319 0.0
C525 C 0.89103 0.94614 0.59547 0.0
C526 C 0.85685 0.96389 0.58123 0.0
H527 H 0.89878 0.86836 0.60966 0.0
H528 H 0.93119 0.9825 0.60482 0.0
C529 C 0.80461 0.91548 0.56949 0.0
C530 C 0.19433 0.01719 0.59828 0.0
C531 C 0.24285 1.01268 0.58692 0.0
H532 H 0.09276 0.97436 0.60483 0.0
C533 C 0.22521 0.96143 0.5724 0.0
H534 H 0.20689 0.05608 0.60968 0.0
C535 C 0.15985 0.91478 0.56953 0.0
C536 C 0.11141 0.91861 0.58126 0.0
H537 H 0.26184 0.95748 0.56326 0.0
H538 H 0.14737 0.87498 0.55852 0.0
C539 C 0.12913 0.97055 0.59549 0.0
C540 C 0.51715 0.97544 0.0206 0.0
C541 C 0.54584 0.03466 0.03188 0.0
H542 H 0.49224 0.9282 0.98988 0.0
C543 C 0.57526 0.09291 0.02022 0.0
H544 H 0.49367 0.92962 0.02913 0.0
C545 C 0.57535 0.09198 0.99774 0.0
C546 C 0.54479 0.03276 0.98646 0.0
H547 H 0.59781 0.13922 0.02845 0.0
H548 H 0.59764 0.13779 0.98921 0.0
C549 C 0.51602 0.9745 0.99812 0.0
C550 C 0.98358 0.50889 0.99779 0.0
C551 C 0.04276 0.53755 0.98649 0.0
H552 H 0.93643 0.48409 0.02852 0.0
C553 C 0.10106 0.56701 0.99813 0.0
H554 H 0.93774 0.48539 0.98927 0.0
C555 C 0.10019 0.56717 0.02061 0.0
C556 C 0.04101 0.53665 0.03191 0.0
H557 H 0.14734 0.58954 0.98988 0.0
H558 H 0.14603 0.58949 0.02912 0.0
C559 C 0.98271 0.50784 0.02027 0.0
C560 C 0.56667 0.50023 0.99777 0.0
C561 C 0.53795 0.53076 0.9865 0.0
H562 H 0.59159 0.47787 0.02848 0.0
C563 C 0.50852 0.55957 0.99817 0.0
H564 H 0.59016 0.47792 0.98923 0.0
C565 C 0.50843 0.55851 0.02065 0.0
C566 C 0.53901 0.52985 0.03192 0.0
H567 H 0.48595 0.58331 0.98994 0.0
H568 H 0.48613 0.58201 0.02919 0.0
C569 C 0.5678 0.5004 0.02025 0.0
C570 C 0.24197 0.4263 0.3536 0.0
C571 C 0.21248 0.36803 0.36526 0.0
H572 H 0.26451 0.47122 0.3226 0.0
C573 C 0.18382 0.30882 0.35397 0.0
H574 H 0.2645 0.4726 0.36185 0.0
C575 C 0.1828 0.30792 0.33149 0.0
C576 C 0.21164 0.36619 0.31983 0.0
H577 H 0.1603 0.263 0.36249 0.0
H578 H 0.15905 0.26162 0.32325 0.0
C579 C 0.24217 0.4254 0.33112 0.0
C580 C 0.76688 0.90057 0.35395 0.0
C581 C 0.70764 0.87003 0.36522 0.0
H582 H 0.81417 0.92299 0.32324 0.0
C583 C 0.6494 0.84123 0.35355 0.0
H584 H 0.81268 0.92288 0.36249 0.0
C585 C 0.65037 0.84233 0.33107 0.0
C586 C 0.70961 0.871 0.3198 0.0
H587 H 0.60308 0.81747 0.36178 0.0
H588 H 0.60457 0.81883 0.32253 0.0
C589 C 0.76785 0.90044 0.33147 0.0
C590 C 0.23347 0.83366 0.3311 0.0
C591 C 0.20482 0.86421 0.31981 0.0
H592 H 0.25823 0.81124 0.36183 0.0
C593 C 0.17534 0.89301 0.33146 0.0
H594 H 0.25699 0.81135 0.32258 0.0
C595 C 0.17514 0.89192 0.35394 0.0
C596 C 0.20565 0.86323 0.36523 0.0
H597 H 0.15281 0.91677 0.32321 0.0
H598 H 0.1528 0.91541 0.36246 0.0
C599 C 0.23449 0.83379 0.35358 0.0
C600 C 0.85018 0.64211 0.68728 0.0
C601 C 0.87872 0.70133 0.69856 0.0
H602 H 0.82548 0.59486 0.65656 0.0
C603 C 0.90805 0.75959 0.6869 0.0
H604 H 0.82678 0.59629 0.69581 0.0
C605 C 0.90821 0.75865 0.66442 0.0
C606 C 0.87781 0.69943 0.65314 0.0
H607 H 0.93048 0.80589 0.69513 0.0
H608 H 0.93043 0.80446 0.65589 0.0
C609 C 0.84912 0.64117 0.6648 0.0
C610 C 0.43413 0.2337 0.66482 0.0
C611 C 0.37587 0.20423 0.65316 0.0
H612 H 0.47901 0.25619 0.69583 0.0
C613 C 0.31665 0.17557 0.66444 0.0
H614 H 0.48044 0.25623 0.65658 0.0
C615 C 0.31572 0.17452 0.68692 0.0
C616 C 0.37398 0.20334 0.69858 0.0
H617 H 0.27083 0.15206 0.65591 0.0
H618 H 0.26941 0.15076 0.69516 0.0
C619 C 0.4332 0.23387 0.6873 0.0
C620 C 0.89966 0.1668 0.66443 0.0
C621 C 0.871 0.19735 0.65314 0.0
H622 H 0.92448 0.14443 0.69515 0.0
C623 C 0.84155 0.22617 0.66479 0.0
H624 H 0.92316 0.14448 0.6559 0.0
C625 C 0.84139 0.22511 0.68727 0.0
C626 C 0.87192 0.19644 0.69856 0.0
H627 H 0.81901 0.24993 0.65655 0.0
H628 H 0.81907 0.24863 0.69579 0.0
C629 C 0.90073 0.16697 0.68691 0.0
C630 C 0.35213 0.99687 0.18404 0.0
C631 C 0.32818 0.93412 0.1925 0.0
H632 H 0.41528 0.06846 0.16144 0.0
C633 C 0.35221 0.89533 0.18408 0.0
H634 H 0.33557 0.02861 0.19025 0.0
C635 C 0.39867 0.91855 0.16763 0.0
C636 C 0.42269 0.98137 0.1592 0.0
H637 H 0.33566 0.84707 0.19033 0.0
H638 H 0.41522 0.88684 0.16139 0.0
C639 C 0.39873 0.02017 0.16766 0.0
C640 C 0.15733 0.50561 0.16764 0.0
C641 C 0.09451 0.4668 0.15922 0.0
H642 H 0.22884 0.51411 0.19034 0.0
C643 C 0.05573 0.40405 0.16768 0.0
H644 H 0.18904 0.55387 0.1614 0.0
C645 C 0.07905 0.38076 0.18406 0.0
C646 C 0.14179 0.41957 0.19252 0.0
H647 H 1.00743 0.3723 0.16147 0.0
H648 H 0.04731 0.33246 0.19027 0.0
C649 C 0.18058 0.48239 0.18409 0.0
C650 C 0.69519 0.72379 0.18404 0.0
C651 C 0.65639 0.74775 0.1925 0.0
H652 H 0.70361 0.66059 0.16146 0.0
C653 C 0.59357 0.72371 0.18408 0.0
H654 H 0.74349 0.74035 0.19025 0.0
C655 C 0.57032 0.67723 0.16764 0.0
C656 C 0.60911 0.65319 0.15921 0.0
H657 H 0.56186 0.74027 0.19032 0.0
H658 H 0.52205 0.66067 0.1614 0.0
C659 C 0.67187 0.67715 0.16767 0.0
C660 C 0.92643 0.39034 0.85074 0.0
C661 C 0.98925 0.41434 0.85916 0.0
H662 H 0.85492 0.32736 0.82805 0.0
C663 C 0.02803 0.39036 0.8507 0.0
H664 H 0.89474 0.40691 0.85699 0.0
C665 C 1.0047 0.34376 0.83432 0.0
C666 C 0.94195 0.31983 0.82586 0.0
H667 H 0.07632 0.40689 0.85691 0.0
H668 H 0.03642 0.32719 0.8281 0.0
C669 C 0.90318 0.34389 0.83429 0.0
C670 C 0.685 0.66344 0.85073 0.0
C671 C 0.66106 0.60069 0.85918 0.0
H672 H 0.74814 0.73506 0.82814 0.0
C673 C 0.6851 0.56191 0.85075 0.0
H674 H 0.66843 0.69517 0.85694 0.0
C675 C 0.73156 0.58516 0.8343 0.0
C676 C 0.75557 0.64798 0.82588 0.0
H677 H 0.66857 0.51365 0.857 0.0
H678 H 0.74813 0.55346 0.82805 0.0
C679 C 0.73161 0.68677 0.83435 0.0
C680 C 0.38854 0.07063 0.83435 0.0
C681 C 0.42733 0.13338 0.82589 0.0
H682 H 0.38012 0.99902 0.85693 0.0
C683 C 0.49016 0.17216 0.8343 0.0
H684 H 0.34023 0.03889 0.82814 0.0
C685 C 0.51341 0.14892 0.85075 0.0
C686 C 0.47463 0.0861 0.85917 0.0
H687 H 0.52187 0.22043 0.82806 0.0
H688 H 0.56169 0.18063 0.85698 0.0
C689 C 0.41186 0.04731 0.85072 0.0
C690 C 1.01848 0.22855 0.51742 0.0
C691 C 0.99443 0.26734 0.52584 0.0
H692 H 0.08153 0.22009 0.49474 0.0
C693 C 1.01838 0.33009 0.51738 0.0
H694 H 1.00193 0.18029 0.52367 0.0
C695 C 0.06502 0.3534 0.501 0.0
C696 C 0.08899 0.31462 0.49255 0.0
H697 H 1.00182 0.36183 0.52358 0.0
H698 H 0.08157 0.4017 0.49479 0.0
C699 C 0.06496 0.25179 0.50098 0.0
C700 C 0.72201 0.73726 0.50098 0.0
C701 C 0.76083 0.80001 0.49253 0.0
H702 H 0.71355 0.66564 0.52357 0.0
C703 C 0.82365 0.83879 0.50095 0.0
H704 H 0.67372 0.70553 0.49477 0.0
C705 C 0.84686 0.81554 0.5174 0.0
C706 C 0.80805 0.75271 0.52582 0.0
H707 H 0.85537 0.88705 0.49471 0.0
H708 H 0.89513 0.84724 0.52365 0.0
C709 C 0.7453 0.71393 0.51736 0.0
C710 C 0.23657 1.01041 0.50097 0.0
C711 C 0.27537 0.98639 0.49256 0.0
H712 H 0.22806 0.07342 0.52366 0.0
C713 C 0.33811 1.01033 0.50102 0.0
H714 H 0.18831 0.99386 0.49472 0.0
C715 C 0.3614 0.05694 0.51741 0.0
C716 C 0.32259 0.08089 0.52586 0.0
H717 H 0.36987 0.99379 0.49482 0.0
H718 H 0.40969 0.07349 0.52362 0.0
C719 C 0.25978 0.05687 0.51743 0.0
C720 C 0.47468 0.33316 0.0838 0.0
C721 C 0.51384 0.38248 0.09838 0.0
H722 H 0.44581 0.23865 0.0715 0.0
C723 C 0.55764 0.37454 0.11136 0.0
H724 H 0.4407 0.33809 0.07349 0.0
C725 C 0.56062 0.31715 0.11016 0.0
C726 C 0.5198 0.26713 0.09599 0.0
H727 H 0.58783 0.4115 0.12288 0.0
H728 H 0.59355 0.31122 0.12069 0.0
C729 C 0.47765 0.27622 0.08261 0.0
C730 C 0.70126 0.2085 0.11135 0.0
C731 C 0.69334 0.15681 0.09835 0.0
H732 H 0.76458 0.3077 0.12072 0.0
C733 C 0.74267 0.16698 0.08379 0.0
H734 H 0.66429 0.20171 0.12287 0.0
C735 C 0.79962 0.22691 0.08261 0.0
C736 C 0.80869 0.2781 0.09601 0.0
H737 H 0.73775 0.12811 0.07346 0.0
H738 H 0.8372 0.23266 0.0715 0.0
C739 C 0.75866 0.26888 0.11018 0.0
C740 C 0.8489 0.59812 0.0826 0.0
C741 C 0.79769 0.55598 0.09599 0.0
H742 H 0.94772 0.63507 0.07347 0.0
C743 C 0.8069 0.51518 0.11017 0.0
H744 H 0.84316 0.62994 0.07149 0.0
C745 C 0.86728 0.51817 0.11136 0.0
C746 C 0.919 0.56196 0.09837 0.0
H747 H 0.76807 0.48227 0.1207 0.0
H748 H 0.87407 0.488 0.12289 0.0
C749 C 0.90883 0.6011 0.08379 0.0
C750 C 0.3411 0.46628 0.93459 0.0
C751 C 0.39043 0.50544 0.92003 0.0
H752 H 0.24656 0.4374 0.94688 0.0
C753 C 0.38251 0.54922 0.90703 0.0
H754 H 0.34601 0.43231 0.94492 0.0
C755 C 0.3251 0.55219 0.90821 0.0
C756 C 0.27507 0.51137 0.92238 0.0
H757 H 0.41948 0.5794 0.89551 0.0
H758 H 0.31919 0.5851 0.89767 0.0
C759 C 0.28414 0.46924 0.93577 0.0
C760 C 0.6091 0.90048 0.93457 0.0
C761 C 0.56993 0.91063 0.91999 0.0
H762 H 0.63796 0.83484 0.94688 0.0
C763 C 0.52612 0.85889 0.90702 0.0
H764 H 0.64309 0.93939 0.94488 0.0
C765 C 0.52312 0.79851 0.90822 0.0
C766 C 0.56395 0.78932 0.92239 0.0
H767 H 0.49593 0.86566 0.8955 0.0
H768 H 0.49019 0.75965 0.8977 0.0
C769 C 0.60611 0.84055 0.93577 0.0
C770 C 0.27687 0.75028 0.90821 0.0
C771 C 0.2861 0.80029 0.92239 0.0
H772 H 0.2097 0.65593 0.8955 0.0
C773 C 0.2349 0.79121 0.93579 0.0
H774 H 0.3157 0.75621 0.89767 0.0
C775 C 0.17497 0.73426 0.93461 0.0
C776 C 0.16479 0.68495 0.92003 0.0
H777 H 0.24065 0.82877 0.94691 0.0
H778 H 0.1361 0.72933 0.94494 0.0
C779 C 0.21649 0.69288 0.90703 0.0
C780 C 0.22404 0.70784 0.44469 0.0
C781 C 0.18027 0.71578 0.43169 0.0
H782 H 0.25992 0.64452 0.45405 0.0
C783 C 0.14113 0.66646 0.41712 0.0
H784 H 0.2542 0.7448 0.45622 0.0
C785 C 0.14411 0.60951 0.41593 0.0
C786 C 0.18622 0.60043 0.42933 0.0
H787 H 0.10718 0.67139 0.40679 0.0
H788 H 0.11229 0.57195 0.40482 0.0
C789 C 0.22702 0.65045 0.44351 0.0
C790 C 0.42506 0.60222 0.4435 0.0
C791 C 0.47508 0.61142 0.42932 0.0
H792 H 0.33072 0.53507 0.45622 0.0
C793 C 0.466 0.56019 0.41594 0.0
H794 H 0.43098 0.64107 0.45402 0.0
C795 C 0.40905 0.50026 0.41714 0.0
C796 C 0.35974 0.49011 0.43172 0.0
H797 H 0.50356 0.56591 0.40483 0.0
H798 H 0.40413 0.46136 0.40683 0.0
C799 C 0.36767 0.54184 0.4447 0.0
C800 C 0.53372 0.8515 0.44469 0.0
C801 C 0.58543 0.89528 0.43169 0.0
H802 H 0.43451 0.81561 0.45404 0.0
C803 C 0.57526 0.93445 0.41713 0.0
H804 H 0.54051 0.82131 0.4562 0.0
C805 C 0.51533 0.93148 0.41594 0.0
C806 C 0.46413 0.88934 0.42934 0.0
H807 H 0.61415 0.96842 0.4068 0.0
H808 H 0.5096 0.96332 0.40484 0.0
C809 C 0.47334 0.84852 0.4435 0.0
C810 C 0.99219 0.88572 0.24155 0.0
C811 C 0.94216 0.84491 0.25572 0.0
H812 H 0.08654 0.91291 0.22884 0.0
C813 C 0.95124 0.80278 0.26911 0.0
H814 H 0.98627 0.91864 0.23101 0.0
C815 C 1.00819 0.7998 0.26792 0.0
C816 C 0.05751 0.83895 0.25335 0.0
H817 H 0.91367 0.77095 0.28022 0.0
H818 H 1.01311 0.76583 0.27824 0.0
C819 C 0.04958 0.88274 0.24036 0.0
C820 C 0.19024 0.13203 0.24155 0.0
C821 C 0.23105 0.1228 0.25572 0.0
H822 H 0.16305 0.19919 0.22884 0.0
C823 C 0.27317 0.174 0.26912 0.0
H824 H 0.15734 0.0932 0.23101 0.0
C825 C 0.27614 0.23393 0.26793 0.0
C826 C 0.23699 0.2441 0.25336 0.0
H827 H 0.305 0.16826 0.28023 0.0
H828 H 0.3101 0.2728 0.27826 0.0
C829 C 0.19322 0.1924 0.24036 0.0
C830 C 0.84198 0.06775 0.26792 0.0
C831 C 0.83183 0.01844 0.25334 0.0
H832 H 0.90763 0.16226 0.28022 0.0
C833 C 0.88356 0.02637 0.24036 0.0
H834 H 0.80309 0.06282 0.27823 0.0
C835 C 0.94394 0.08376 0.24155 0.0
C836 C 0.95313 0.13378 0.25572 0.0
H837 H 0.87679 0.98941 0.22884 0.0
H838 H 0.98278 0.08969 0.23102 0.0
C839 C 0.90191 0.1247 0.26911 0.0
C840 C 0.89342 0.9838 0.77683 0.0
C841 C 0.85258 0.93376 0.76267 0.0
H842 H 0.92065 0.07817 0.78953 0.0
C843 C 0.81042 0.94282 0.74929 0.0
H844 H 0.92636 0.97788 0.78736 0.0
C845 C 0.80745 0.99978 0.75048 0.0
C846 C 0.84664 0.04911 0.76504 0.0
H847 H 0.77856 0.90524 0.73819 0.0
H848 H 0.77346 1.00469 0.74016 0.0
C849 C 0.89045 0.0412 0.77802 0.0
C850 C 0.13243 0.89359 0.74926 0.0
C851 C 0.14151 0.94478 0.76266 0.0
H852 H 0.07056 0.79479 0.74011 0.0
C853 C 0.09149 0.93555 0.77684 0.0
H854 H 0.17 0.89934 0.73815 0.0
C855 C 0.03409 0.87518 0.77802 0.0
C856 C 0.02616 0.82348 0.76502 0.0
H857 H 0.09741 0.97437 0.78738 0.0
H858 H 0.99713 0.86838 0.78954 0.0
C859 C 0.07548 0.83366 0.75044 0.0
C860 C 0.20011 0.18482 0.77803 0.0
C861 C 0.25184 0.22861 0.76504 0.0
H862 H 0.10089 0.14892 0.78737 0.0
C863 C 0.24168 0.26775 0.75046 0.0
H864 H 0.20689 0.15465 0.78956 0.0
C865 C 0.18174 0.26476 0.74927 0.0
C866 C 0.13053 0.22263 0.76266 0.0
H867 H 0.28057 0.30171 0.74015 0.0
H868 H 0.17601 0.29659 0.73815 0.0
C869 C 0.13973 0.18183 0.77684 0.0
C870 C 0.65837 0.21889 0.57489 0.0
C871 C 0.60836 0.17808 0.58907 0.0
H872 H 0.75271 0.24607 0.56217 0.0
C873 C 0.61744 0.13595 0.60245 0.0
H874 H 0.65244 0.2518 0.56436 0.0
C875 C 0.67439 0.13296 0.60126 0.0
C876 C 0.72369 0.17211 0.58668 0.0
H877 H 0.57988 0.10412 0.61357 0.0
H878 H 0.67931 0.09899 0.61157 0.0
C879 C 0.71576 0.2159 0.57369 0.0
C880 C 0.85642 0.46517 0.57488 0.0
C881 C 0.89721 0.45594 0.58905 0.0
H882 H 0.82923 0.53234 0.56217 0.0
C883 C 0.93933 0.50714 0.60245 0.0
H884 H 0.82352 0.42634 0.56434 0.0
C885 C 0.94231 0.56707 0.60127 0.0
C886 C 0.90317 0.57724 0.58669 0.0
H887 H 0.97115 0.50139 0.61356 0.0
H888 H 0.97626 0.60595 0.61159 0.0
C889 C 0.8594 0.52554 0.57369 0.0
C890 C 0.50817 0.40093 0.60125 0.0
C891 C 0.49801 0.35159 0.58668 0.0
H892 H 0.57382 0.49546 0.61354 0.0
C893 C 0.54972 0.35951 0.57369 0.0
H894 H 0.46928 0.39601 0.61157 0.0
C895 C 0.6101 0.41691 0.57488 0.0
C896 C 0.6193 0.46695 0.58904 0.0
H897 H 0.54294 0.32254 0.56218 0.0
H898 H 0.64893 0.42282 0.56434 0.0
C899 C 0.56809 0.45788 0.60243 0.0
loop_
_geom_bond_atom_site_label_1
_geom_bond_atom_site_label_2
_geom_bond_distance
_geom_bond_site_symmetry_2
_ccdc_geom_bond_type
Tb0 O3 2.453 1_545 S
Tb0 O4 2.596 1_545 S
Tb0 O5 2.374 . S
Tb0 O13 2.343 . S
Tb0 O15 2.353 . S
Tb0 O17 2.427 . S
Tb0 O18 2.513 . S
C1 O5 1.251 1_565 S
C1 O7 1.263 . S
Tb2 O4 2.343 . S
Tb2 O7 2.353 . S
Tb2 O10 2.427 . S
Tb2 O11 2.513 . S
Tb2 O12 2.453 1_565 S
Tb2 O13 2.596 1_565 S
Tb2 O14 2.374 . S
O3 Tb0 2.453 1_565 S
O3 C19 1.245 . S
O4 Tb0 2.596 1_565 S
O4 Tb2 2.343 . S
O4 C19 1.259 . S
O5 Tb0 2.374 . S
O5 C1 1.251 1_545 S
C6 O10 1.275 . S
C6 O11 1.246 . S
O7 C1 1.263 . S
O7 Tb2 2.353 . S
C8 O12 1.245 . S
C8 O13 1.259 . S
C9 O14 1.250 1_545 S
C9 O15 1.263 . S
O10 Tb2 2.427 . S
O10 C6 1.275 . S
O11 Tb2 2.513 . S
O11 C6 1.246 . S
O12 Tb2 2.453 1_545 S
O12 C8 1.245 . S
O13 Tb0 2.343 . S
O13 Tb2 2.596 1_545 S
O13 C8 1.259 . S
O14 Tb2 2.374 . S
O14 C9 1.250 1_565 S
O15 Tb0 2.353 . S
O15 C9 1.263 . S
C16 O17 1.275 . S
C16 O18 1.246 . S
O17 Tb0 2.427 . S
O17 C16 1.275 . S
O18 Tb0 2.513 . S
O18 C16 1.246 . S
C19 O3 1.245 . S
C19 O4 1.259 . S
Tb20 O23 2.453 1_655 S
Tb20 O24 2.596 1_655 S
Tb20 O25 2.374 1_655 S
Tb20 O33 2.343 . S
Tb20 O35 2.353 1_655 S
Tb20 O37 2.427 . S
Tb20 O38 2.513 . S
C21 O25 1.251 . S
C21 O27 1.263 . S
Tb22 O24 2.343 . S
Tb22 O27 2.353 . S
Tb22 O30 2.427 . S
Tb22 O31 2.513 . S
Tb22 O32 2.453 1_455 S
Tb22 O33 2.596 1_455 S
Tb22 O34 2.374 . S
O23 Tb20 2.453 1_455 S
O23 C39 1.245 . S
O24 Tb20 2.596 1_455 S
O24 Tb22 2.343 . S
O24 C39 1.259 . S
O25 Tb20 2.374 1_455 S
O25 C21 1.251 . S
C26 O30 1.275 . S
C26 O31 1.246 . S
O27 C21 1.263 . S
O27 Tb22 2.353 . S
C28 O32 1.245 . S
C28 O33 1.259 . S
C29 O34 1.250 . S
C29 O35 1.263 . S
O30 Tb22 2.427 . S
O30 C26 1.275 . S
O31 Tb22 2.513 . S
O31 C26 1.246 . S
O32 Tb22 2.453 1_655 S
O32 C28 1.245 . S
O33 Tb20 2.343 . S
O33 Tb22 2.596 1_655 S
O33 C28 1.259 . S
O34 Tb22 2.374 . S
O34 C29 1.250 . S
O35 Tb20 2.353 1_455 S
O35 C29 1.263 . S
C36 O37 1.275 . S
C36 O38 1.246 . S
O37 Tb20 2.427 . S
O37 C36 1.275 . S
O38 Tb20 2.513 . S
O38 C36 1.246 . S
C39 O23 1.245 . S
C39 O24 1.259 . S
Tb40 O43 2.453 . S
Tb40 O44 2.596 . S
Tb40 O45 2.374 . S
Tb40 O53 2.343 . S
Tb40 O55 2.353 . S
Tb40 O57 2.427 . S
Tb40 O58 2.513 . S
C41 O45 1.251 . S
C41 O47 1.263 . S
Tb42 O44 2.343 . S
Tb42 O47 2.353 . S
Tb42 O50 2.427 . S
Tb42 O51 2.513 . S
Tb42 O52 2.453 . S
Tb42 O53 2.596 . S
Tb42 O54 2.374 . S
O43 Tb40 2.453 . S
O43 C59 1.245 . S
O44 Tb40 2.596 . S
O44 Tb42 2.343 . S
O44 C59 1.259 . S
O45 Tb40 2.374 . S
O45 C41 1.251 . S
C46 O50 1.275 . S
C46 O51 1.246 . S
O47 C41 1.263 . S
O47 Tb42 2.353 . S
C48 O52 1.245 . S
C48 O53 1.259 . S
C49 O54 1.250 . S
C49 O55 1.263 . S
O50 Tb42 2.427 . S
O50 C46 1.275 . S
O51 Tb42 2.513 . S
O51 C46 1.246 . S
O52 Tb42 2.453 . S
O52 C48 1.245 . S
O53 Tb40 2.343 . S
O53 Tb42 2.596 . S
O53 C48 1.259 . S
O54 Tb42 2.374 . S
O54 C49 1.250 . S
O55 Tb40 2.353 . S
O55 C49 1.263 . S
C56 O57 1.275 . S
C56 O58 1.246 . S
O57 Tb40 2.427 . S
O57 C56 1.275 . S
O58 Tb40 2.513 . S
O58 C56 1.246 . S
C59 O43 1.245 . S
C59 O44 1.259 . S
Tb60 O63 2.453 1_455 S
Tb60 O64 2.596 1_455 S
Tb60 O65 2.374 . S
Tb60 O73 2.343 . S
Tb60 O75 2.353 . S
Tb60 O77 2.427 . S
Tb60 O78 2.513 . S
C61 O65 1.251 1_655 S
C61 O67 1.263 . S
Tb62 O64 2.343 . S
Tb62 O67 2.353 . S
Tb62 O70 2.427 . S
Tb62 O71 2.513 . S
Tb62 O72 2.453 1_655 S
Tb62 O73 2.596 1_655 S
Tb62 O74 2.374 . S
O63 Tb60 2.453 1_655 S
O63 C79 1.245 . S
O64 Tb60 2.596 1_655 S
O64 Tb62 2.343 . S
O64 C79 1.259 . S
O65 Tb60 2.374 . S
O65 C61 1.251 1_455 S
C66 O70 1.275 . S
C66 O71 1.246 . S
O67 C61 1.263 . S
O67 Tb62 2.353 . S
C68 O72 1.245 . S
C68 O73 1.259 . S
C69 O74 1.250 1_455 S
C69 O75 1.263 . S
O70 Tb62 2.427 . S
O70 C66 1.275 . S
O71 Tb62 2.513 . S
O71 C66 1.246 . S
O72 Tb62 2.453 1_455 S
O72 C68 1.245 . S
O73 Tb60 2.343 . S
O73 Tb62 2.596 1_455 S
O73 C68 1.259 . S
O74 Tb62 2.374 . S
O74 C69 1.250 1_655 S
O75 Tb60 2.353 . S
O75 C69 1.263 . S
C76 O77 1.275 . S
C76 O78 1.246 . S
O77 Tb60 2.427 . S
O77 C76 1.275 . S
O78 Tb60 2.513 . S
O78 C76 1.246 . S
C79 O63 1.245 . S
C79 O64 1.259 . S
Tb80 O83 2.453 . S
Tb80 O84 2.596 . S
Tb80 O85 2.374 . S
Tb80 O93 2.343 . S
Tb80 O95 2.353 . S
Tb80 O97 2.427 . S
Tb80 O98 2.513 . S
C81 O85 1.251 . S
C81 O87 1.263 . S
Tb82 O84 2.343 . S
Tb82 O87 2.353 . S
Tb82 O90 2.427 . S
Tb82 O91 2.513 . S
Tb82 O92 2.453 . S
Tb82 O93 2.596 . S
Tb82 O94 2.374 . S
O83 Tb80 2.453 . S
O83 C99 1.245 . S
O84 Tb80 2.596 . S
O84 Tb82 2.343 . S
O84 C99 1.259 . S
O85 Tb80 2.374 . S
O85 C81 1.251 . S
C86 O90 1.275 . S
C86 O91 1.246 . S
O87 C81 1.263 . S
O87 Tb82 2.353 . S
C88 O92 1.245 . S
C88 O93 1.259 . S
C89 O94 1.250 . S
C89 O95 1.263 . S
O90 Tb82 2.427 . S
O90 C86 1.275 . S
O91 Tb82 2.513 . S
O91 C86 1.246 . S
O92 Tb82 2.453 . S
O92 C88 1.245 . S
O93 Tb80 2.343 . S
O93 Tb82 2.596 . S
O93 C88 1.259 . S
O94 Tb82 2.374 . S
O94 C89 1.250 . S
O95 Tb80 2.353 . S
O95 C89 1.263 . S
C96 O97 1.275 . S
C96 O98 1.246 . S
O97 Tb80 2.427 . S
O97 C96 1.275 . S
O98 Tb80 2.513 . S
O98 C96 1.246 . S
C99 O83 1.245 . S
C99 O84 1.259 . S
Tb100 O103 2.453 1_565 S
Tb100 O104 2.596 1_565 S
Tb100 O105 2.374 1_565 S
Tb100 O113 2.343 . S
Tb100 O115 2.353 1_565 S
Tb100 O117 2.427 . S
Tb100 O118 2.513 . S
C101 O105 1.251 . S
C101 O107 1.263 . S
Tb102 O104 2.343 . S
Tb102 O107 2.353 . S
Tb102 O110 2.427 . S
Tb102 O111 2.513 . S
Tb102 O112 2.453 1_545 S
Tb102 O113 2.596 1_545 S
Tb102 O114 2.374 . S
O103 Tb100 2.453 1_545 S
O103 C119 1.245 . S
O104 Tb100 2.596 1_545 S
O104 Tb102 2.343 . S
O104 C119 1.259 . S
O105 Tb100 2.374 1_545 S
O105 C101 1.251 . S
C106 O110 1.275 . S
C106 O111 1.246 . S
O107 C101 1.263 . S
O107 Tb102 2.353 . S
C108 O112 1.245 . S
C108 O113 1.259 . S
C109 O114 1.250 . S
C109 O115 1.263 . S
O110 Tb102 2.427 . S
O110 C106 1.275 . S
O111 Tb102 2.513 . S
O111 C106 1.246 . S
O112 Tb102 2.453 1_565 S
O112 C108 1.245 . S
O113 Tb100 2.343 . S
O113 Tb102 2.596 1_565 S
O113 C108 1.259 . S
O114 Tb102 2.374 . S
O114 C109 1.250 . S
O115 Tb100 2.353 1_545 S
O115 C109 1.263 . S
C116 O117 1.275 . S
C116 O118 1.246 . S
O117 Tb100 2.427 . S
O117 C116 1.275 . S
O118 Tb100 2.513 . S
O118 C116 1.246 . S
C119 O103 1.245 . S
C119 O104 1.259 . S
Tb120 O123 2.453 . S
Tb120 O124 2.596 . S
Tb120 O125 2.374 . S
Tb120 O133 2.343 . S
Tb120 O135 2.353 . S
Tb120 O137 2.427 . S
Tb120 O138 2.513 . S
C121 O125 1.251 . S
C121 O127 1.263 . S
Tb122 O124 2.343 . S
Tb122 O127 2.353 . S
Tb122 O130 2.427 . S
Tb122 O131 2.513 . S
Tb122 O132 2.453 . S
Tb122 O133 2.596 . S
Tb122 O134 2.374 . S
O123 Tb120 2.453 . S
O123 C139 1.245 . S
O124 Tb120 2.596 . S
O124 Tb122 2.343 . S
O124 C139 1.259 . S
O125 Tb120 2.374 . S
O125 C121 1.251 . S
C126 O130 1.275 . S
C126 O131 1.246 . S
O127 C121 1.263 . S
O127 Tb122 2.353 . S
C128 O132 1.245 . S
C128 O133 1.259 . S
C129 O134 1.250 . S
C129 O135 1.263 . S
O130 Tb122 2.427 . S
O130 C126 1.275 . S
O131 Tb122 2.513 . S
O131 C126 1.246 . S
O132 Tb122 2.453 . S
O132 C128 1.245 . S
O133 Tb120 2.343 . S
O133 Tb122 2.596 . S
O133 C128 1.259 . S
O134 Tb122 2.374 . S
O134 C129 1.250 . S
O135 Tb120 2.353 . S
O135 C129 1.263 . S
C136 O137 1.275 . S
C136 O138 1.246 . S
O137 Tb120 2.427 . S
O137 C136 1.275 . S
O138 Tb120 2.513 . S
O138 C136 1.246 . S
C139 O123 1.245 . S
C139 O124 1.259 . S
Tb140 O143 2.453 . S
Tb140 O144 2.596 . S
Tb140 O145 2.374 . S
Tb140 O153 2.343 . S
Tb140 O155 2.353 . S
Tb140 O157 2.427 . S
Tb140 O158 2.513 . S
C141 O145 1.251 . S
C141 O147 1.263 . S
Tb142 O144 2.343 . S
Tb142 O147 2.353 . S
Tb142 O150 2.427 . S
Tb142 O151 2.513 . S
Tb142 O152 2.453 . S
Tb142 O153 2.596 . S
Tb142 O154 2.374 . S
O143 Tb140 2.453 . S
O143 C159 1.245 . S
O144 Tb140 2.596 . S
O144 Tb142 2.343 . S
O144 C159 1.259 . S
O145 Tb140 2.374 . S
O145 C141 1.251 . S
C146 O150 1.275 1_545 S
C146 O151 1.246 1_545 S
O147 C141 1.263 . S
O147 Tb142 2.353 . S
C148 O152 1.245 . S
C148 O153 1.259 . S
C149 O154 1.250 . S
C149 O155 1.263 . S
O150 Tb142 2.427 . S
O150 C146 1.275 1_565 S
O151 Tb142 2.513 . S
O151 C146 1.246 1_565 S
O152 Tb142 2.453 . S
O152 C148 1.245 . S
O153 Tb140 2.343 . S
O153 Tb142 2.596 . S
O153 C148 1.259 . S
O154 Tb142 2.374 . S
O154 C149 1.250 . S
O155 Tb140 2.353 . S
O155 C149 1.263 . S
C156 O157 1.275 . S
C156 O158 1.246 . S
O157 Tb140 2.427 . S
O157 C156 1.275 . S
O158 Tb140 2.513 . S
O158 C156 1.246 . S
C159 O143 1.245 . S
C159 O144 1.259 . S
Tb160 O163 2.453 1_565 S
Tb160 O164 2.596 . S
Tb160 O165 2.374 . S
Tb160 O173 2.343 . S
Tb160 O175 2.353 . S
Tb160 O177 2.427 . S
Tb160 O178 2.513 . S
C161 O165 1.251 . S
C161 O167 1.263 . S
Tb162 O164 2.343 . S
Tb162 O167 2.353 . S
Tb162 O170 2.427 . S
Tb162 O171 2.513 . S
Tb162 O172 2.453 . S
Tb162 O173 2.596 . S
Tb162 O174 2.374 . S
O163 Tb160 2.453 1_545 S
O163 C179 1.245 1_545 S
O164 Tb160 2.596 . S
O164 Tb162 2.343 . S
O164 C179 1.259 . S
O165 Tb160 2.374 . S
O165 C161 1.251 . S
C166 O170 1.275 . S
C166 O171 1.246 . S
O167 C161 1.263 . S
O167 Tb162 2.353 . S
C168 O172 1.245 . S
C168 O173 1.259 . S
C169 O174 1.250 . S
C169 O175 1.263 . S
O170 Tb162 2.427 . S
O170 C166 1.275 . S
O171 Tb162 2.513 . S
O171 C166 1.246 . S
O172 Tb162 2.453 . S
O172 C168 1.245 . S
O173 Tb160 2.343 . S
O173 Tb162 2.596 . S
O173 C168 1.259 . S
O174 Tb162 2.374 . S
O174 C169 1.250 . S
O175 Tb160 2.353 . S
O175 C169 1.263 . S
C176 O177 1.275 . S
C176 O178 1.246 . S
O177 Tb160 2.427 . S
O177 C176 1.275 . S
O178 Tb160 2.513 . S
O178 C176 1.246 . S
C179 O163 1.245 1_565 S
C179 O164 1.259 . S
Tb180 O183 2.453 . S
Tb180 O184 2.596 . S
Tb180 O185 2.374 . S
Tb180 O193 2.343 . S
Tb180 O195 2.353 . S
Tb180 O197 2.427 . S
Tb180 O198 2.513 . S
C181 O185 1.251 . S
C181 O187 1.263 . S
Tb182 O184 2.343 . S
Tb182 O187 2.353 . S
Tb182 O190 2.427 . S
Tb182 O191 2.513 . S
Tb182 O192 2.453 . S
Tb182 O193 2.596 . S
Tb182 O194 2.374 . S
O183 Tb180 2.453 . S
O183 C199 1.245 . S
O184 Tb180 2.596 . S
O184 Tb182 2.343 . S
O184 C199 1.259 . S
O185 Tb180 2.374 . S
O185 C181 1.251 . S
C186 O190 1.275 . S
C186 O191 1.246 . S
O187 C181 1.263 . S
O187 Tb182 2.353 . S
C188 O192 1.245 . S
C188 O193 1.259 . S
C189 O194 1.250 . S
C189 O195 1.263 . S
O190 Tb182 2.427 . S
O190 C186 1.275 . S
O191 Tb182 2.513 . S
O191 C186 1.246 . S
O192 Tb182 2.453 . S
O192 C188 1.245 . S
O193 Tb180 2.343 . S
O193 Tb182 2.596 . S
O193 C188 1.259 . S
O194 Tb182 2.374 . S
O194 C189 1.250 . S
O195 Tb180 2.353 . S
O195 C189 1.263 . S
C196 O197 1.275 . S
C196 O198 1.246 . S
O197 Tb180 2.427 . S
O197 C196 1.275 . S
O198 Tb180 2.513 . S
O198 C196 1.246 . S
C199 O183 1.245 . S
C199 O184 1.259 . S
Tb200 O203 2.453 . S
Tb200 O204 2.596 . S
Tb200 O205 2.374 . S
Tb200 O213 2.343 . S
Tb200 O215 2.353 . S
Tb200 O217 2.427 1_565 S
Tb200 O218 2.513 1_565 S
C201 O205 1.251 . S
C201 O207 1.263 . S
Tb202 O204 2.343 . S
Tb202 O207 2.353 . S
Tb202 O210 2.427 . S
Tb202 O211 2.513 . S
Tb202 O212 2.453 . S
Tb202 O213 2.596 . S
Tb202 O214 2.374 . S
O203 Tb200 2.453 . S
O203 C219 1.245 . S
O204 Tb200 2.596 . S
O204 Tb202 2.343 . S
O204 C219 1.259 . S
O205 Tb200 2.374 . S
O205 C201 1.251 . S
C206 O210 1.275 . S
C206 O211 1.246 . S
O207 C201 1.263 . S
O207 Tb202 2.353 . S
C208 O212 1.245 . S
C208 O213 1.259 . S
C209 O214 1.250 . S
C209 O215 1.263 . S
O210 Tb202 2.427 . S
O210 C206 1.275 . S
O211 Tb202 2.513 . S
O211 C206 1.246 . S
O212 Tb202 2.453 . S
O212 C208 1.245 . S
O213 Tb200 2.343 . S
O213 Tb202 2.596 . S
O213 C208 1.259 . S
O214 Tb202 2.374 . S
O214 C209 1.250 . S
O215 Tb200 2.353 . S
O215 C209 1.263 . S
C216 O217 1.275 . S
C216 O218 1.246 . S
O217 Tb200 2.427 1_545 S
O217 C216 1.275 . S
O218 Tb200 2.513 1_545 S
O218 C216 1.246 . S
C219 O203 1.245 . S
C219 O204 1.259 . S
Tb220 O223 2.453 . S
Tb220 O224 2.596 . S
Tb220 O225 2.374 . S
Tb220 O233 2.343 . S
Tb220 O235 2.353 . S
Tb220 O237 2.427 . S
Tb220 O238 2.513 . S
C221 O225 1.251 . S
C221 O227 1.263 . S
Tb222 O224 2.343 . S
Tb222 O227 2.353 . S
Tb222 O230 2.427 . S
Tb222 O231 2.513 . S
Tb222 O232 2.453 . S
Tb222 O233 2.596 . S
Tb222 O234 2.374 . S
O223 Tb220 2.453 . S
O223 C239 1.245 . S
O224 Tb220 2.596 . S
O224 Tb222 2.343 . S
O224 C239 1.259 . S
O225 Tb220 2.374 . S
O225 C221 1.251 . S
C226 O230 1.275 . S
C226 O231 1.246 . S
O227 C221 1.263 . S
O227 Tb222 2.353 . S
C228 O232 1.245 . S
C228 O233 1.259 . S
C229 O234 1.250 . S
C229 O235 1.263 . S
O230 Tb222 2.427 . S
O230 C226 1.275 . S
O231 Tb222 2.513 . S
O231 C226 1.246 . S
O232 Tb222 2.453 . S
O232 C228 1.245 . S
O233 Tb220 2.343 . S
O233 Tb222 2.596 . S
O233 C228 1.259 . S
O234 Tb222 2.374 . S
O234 C229 1.250 . S
O235 Tb220 2.353 . S
O235 C229 1.263 . S
C236 O237 1.275 . S
C236 O238 1.246 . S
O237 Tb220 2.427 . S
O237 C236 1.275 . S
O238 Tb220 2.513 . S
O238 C236 1.246 . S
C239 O223 1.245 . S
C239 O224 1.259 . S
Tb240 O243 2.453 . S
Tb240 O244 2.596 . S
Tb240 O245 2.374 . S
Tb240 O253 2.343 . S
Tb240 O255 2.353 . S
Tb240 O257 2.427 . S
Tb240 O258 2.513 . S
C241 O245 1.251 . S
C241 O247 1.263 . S
Tb242 O244 2.343 . S
Tb242 O247 2.353 . S
Tb242 O250 2.427 . S
Tb242 O251 2.513 . S
Tb242 O252 2.453 . S
Tb242 O253 2.596 . S
Tb242 O254 2.374 . S
O243 Tb240 2.453 . S
O243 C259 1.245 . S
O244 Tb240 2.596 . S
O244 Tb242 2.343 . S
O244 C259 1.259 . S
O245 Tb240 2.374 . S
O245 C241 1.251 . S
C246 O250 1.275 . S
C246 O251 1.246 . S
O247 C241 1.263 . S
O247 Tb242 2.353 . S
C248 O252 1.245 . S
C248 O253 1.259 . S
C249 O254 1.250 . S
C249 O255 1.263 . S
O250 Tb242 2.427 . S
O250 C246 1.275 . S
O251 Tb242 2.513 . S
O251 C246 1.246 . S
O252 Tb242 2.453 . S
O252 C248 1.245 . S
O253 Tb240 2.343 . S
O253 Tb242 2.596 . S
O253 C248 1.259 . S
O254 Tb242 2.374 . S
O254 C249 1.250 . S
O255 Tb240 2.353 . S
O255 C249 1.263 . S
C256 O257 1.275 . S
C256 O258 1.246 . S
O257 Tb240 2.427 . S
O257 C256 1.275 . S
O258 Tb240 2.513 . S
O258 C256 1.246 . S
C259 O243 1.245 . S
C259 O244 1.259 . S
Tb260 O263 2.453 . S
Tb260 O264 2.596 . S
Tb260 O265 2.374 . S
Tb260 O273 2.343 . S
Tb260 O275 2.353 . S
Tb260 O277 2.427 . S
Tb260 O278 2.513 . S
C261 O265 1.251 . S
C261 O267 1.263 . S
Tb262 O264 2.343 . S
Tb262 O267 2.353 . S
Tb262 O270 2.427 . S
Tb262 O271 2.513 . S
Tb262 O272 2.453 . S
Tb262 O273 2.596 . S
Tb262 O274 2.374 . S
O263 Tb260 2.453 . S
O263 C279 1.245 . S
O264 Tb260 2.596 . S
O264 Tb262 2.343 . S
O264 C279 1.259 . S
O265 Tb260 2.374 . S
O265 C261 1.251 . S
C266 O270 1.275 . S
C266 O271 1.246 . S
O267 C261 1.263 . S
O267 Tb262 2.353 . S
C268 O272 1.245 . S
C268 O273 1.259 . S
C269 O274 1.250 . S
C269 O275 1.263 . S
O270 Tb262 2.427 . S
O270 C266 1.275 . S
O271 Tb262 2.513 . S
O271 C266 1.246 . S
O272 Tb262 2.453 . S
O272 C268 1.245 . S
O273 Tb260 2.343 . S
O273 Tb262 2.596 . S
O273 C268 1.259 . S
O274 Tb262 2.374 . S
O274 C269 1.250 . S
O275 Tb260 2.353 . S
O275 C269 1.263 . S
C276 O277 1.275 . S
C276 O278 1.246 . S
O277 Tb260 2.427 . S
O277 C276 1.275 . S
O278 Tb260 2.513 . S
O278 C276 1.246 . S
C279 O263 1.245 . S
C279 O264 1.259 . S
Tb280 O283 2.453 . S
Tb280 O284 2.596 . S
Tb280 O285 2.374 . S
Tb280 O293 2.343 . S
Tb280 O295 2.353 . S
Tb280 O297 2.427 1_655 S
Tb280 O298 2.513 1_655 S
C281 O285 1.251 . S
C281 O287 1.263 . S
Tb282 O284 2.343 . S
Tb282 O287 2.353 . S
Tb282 O290 2.427 . S
Tb282 O291 2.513 . S
Tb282 O292 2.453 . S
Tb282 O293 2.596 . S
Tb282 O294 2.374 . S
O283 Tb280 2.453 . S
O283 C299 1.245 . S
O284 Tb280 2.596 . S
O284 Tb282 2.343 . S
O284 C299 1.259 . S
O285 Tb280 2.374 . S
O285 C281 1.251 . S
C286 O290 1.275 . S
C286 O291 1.246 . S
O287 C281 1.263 . S
O287 Tb282 2.353 . S
C288 O292 1.245 . S
C288 O293 1.259 . S
C289 O294 1.250 . S
C289 O295 1.263 . S
O290 Tb282 2.427 . S
O290 C286 1.275 . S
O291 Tb282 2.513 . S
O291 C286 1.246 . S
O292 Tb282 2.453 . S
O292 C288 1.245 . S
O293 Tb280 2.343 . S
O293 Tb282 2.596 . S
O293 C288 1.259 . S
O294 Tb282 2.374 . S
O294 C289 1.250 . S
O295 Tb280 2.353 . S
O295 C289 1.263 . S
C296 O297 1.275 . S
C296 O298 1.246 . S
O297 Tb280 2.427 1_455 S
O297 C296 1.275 . S
O298 Tb280 2.513 1_455 S
O298 C296 1.246 . S
C299 O283 1.245 . S
C299 O284 1.259 . S
Tb300 O303 2.453 . S
Tb300 O304 2.596 . S
Tb300 O305 2.374 . S
Tb300 O313 2.343 . S
Tb300 O315 2.353 . S
Tb300 O317 2.427 . S
Tb300 O318 2.513 . S
C301 O305 1.251 . S
C301 O307 1.263 . S
Tb302 O304 2.343 . S
Tb302 O307 2.353 . S
Tb302 O310 2.427 . S
Tb302 O311 2.513 . S
Tb302 O312 2.453 . S
Tb302 O313 2.596 . S
Tb302 O314 2.374 . S
O303 Tb300 2.453 . S
O303 C319 1.245 . S
O304 Tb300 2.596 . S
O304 Tb302 2.343 . S
O304 C319 1.259 . S
O305 Tb300 2.374 . S
O305 C301 1.251 . S
C306 O310 1.275 . S
C306 O311 1.246 . S
O307 C301 1.263 . S
O307 Tb302 2.353 . S
C308 O312 1.245 . S
C308 O313 1.259 . S
C309 O314 1.250 . S
C309 O315 1.263 . S
O310 Tb302 2.427 . S
O310 C306 1.275 . S
O311 Tb302 2.513 . S
O311 C306 1.246 . S
O312 Tb302 2.453 . S
O312 C308 1.245 . S
O313 Tb300 2.343 . S
O313 Tb302 2.596 . S
O313 C308 1.259 . S
O314 Tb302 2.374 . S
O314 C309 1.250 . S
O315 Tb300 2.353 . S
O315 C309 1.263 . S
C316 O317 1.275 . S
C316 O318 1.246 . S
O317 Tb300 2.427 . S
O317 C316 1.275 . S
O318 Tb300 2.513 . S
O318 C316 1.246 . S
C319 O303 1.245 . S
C319 O304 1.259 . S
Tb320 O323 2.453 1_655 S
Tb320 O324 2.596 . S
Tb320 O325 2.374 . S
Tb320 O333 2.343 . S
Tb320 O335 2.353 . S
Tb320 O337 2.427 . S
Tb320 O338 2.513 . S
C321 O325 1.251 . S
C321 O327 1.263 . S
Tb322 O324 2.343 . S
Tb322 O327 2.353 . S
Tb322 O330 2.427 . S
Tb322 O331 2.513 . S
Tb322 O332 2.453 . S
Tb322 O333 2.596 . S
Tb322 O334 2.374 . S
O323 Tb320 2.453 1_455 S
O323 C339 1.245 1_455 S
O324 Tb320 2.596 . S
O324 Tb322 2.343 . S
O324 C339 1.259 . S
O325 Tb320 2.374 . S
O325 C321 1.251 . S
C326 O330 1.275 . S
C326 O331 1.246 . S
O327 C321 1.263 . S
O327 Tb322 2.353 . S
C328 O332 1.245 . S
C328 O333 1.259 . S
C329 O334 1.250 . S
C329 O335 1.263 . S
O330 Tb322 2.427 . S
O330 C326 1.275 . S
O331 Tb322 2.513 . S
O331 C326 1.246 . S
O332 Tb322 2.453 . S
O332 C328 1.245 . S
O333 Tb320 2.343 . S
O333 Tb322 2.596 . S
O333 C328 1.259 . S
O334 Tb322 2.374 . S
O334 C329 1.250 . S
O335 Tb320 2.353 . S
O335 C329 1.263 . S
C336 O337 1.275 . S
C336 O338 1.246 . S
O337 Tb320 2.427 . S
O337 C336 1.275 . S
O338 Tb320 2.513 . S
O338 C336 1.246 . S
C339 O323 1.245 1_655 S
C339 O324 1.259 . S
Tb340 O343 2.453 . S
Tb340 O344 2.596 . S
Tb340 O345 2.374 . S
Tb340 O353 2.343 . S
Tb340 O355 2.353 . S
Tb340 O357 2.427 . S
Tb340 O358 2.513 . S
C341 O345 1.251 . S
C341 O347 1.263 . S
Tb342 O344 2.343 . S
Tb342 O347 2.353 . S
Tb342 O350 2.427 . S
Tb342 O351 2.513 . S
Tb342 O352 2.453 . S
Tb342 O353 2.596 . S
Tb342 O354 2.374 . S
O343 Tb340 2.453 . S
O343 C359 1.245 . S
O344 Tb340 2.596 . S
O344 Tb342 2.343 . S
O344 C359 1.259 . S
O345 Tb340 2.374 . S
O345 C341 1.251 . S
C346 O350 1.275 1_455 S
C346 O351 1.246 1_455 S
O347 C341 1.263 . S
O347 Tb342 2.353 . S
C348 O352 1.245 . S
C348 O353 1.259 . S
C349 O354 1.250 . S
C349 O355 1.263 . S
O350 Tb342 2.427 . S
O350 C346 1.275 1_655 S
O351 Tb342 2.513 . S
O351 C346 1.246 1_655 S
O352 Tb342 2.453 . S
O352 C348 1.245 . S
O353 Tb340 2.343 . S
O353 Tb342 2.596 . S
O353 C348 1.259 . S
O354 Tb342 2.374 . S
O354 C349 1.250 . S
O355 Tb340 2.353 . S
O355 C349 1.263 . S
C356 O357 1.275 . S
C356 O358 1.246 . S
O357 Tb340 2.427 . S
O357 C356 1.275 . S
O358 Tb340 2.513 . S
O358 C356 1.246 . S
C359 O343 1.245 . S
C359 O344 1.259 . S
C360 C361 1.387 . S
C360 H364 0.950 . S
C360 C369 1.390 . S
C361 C360 1.387 . S
C361 C363 1.387 . S
H362 C369 0.950 . S
C363 C361 1.387 . S
C363 C365 1.390 . S
C363 H367 0.950 . S
H364 C360 0.950 . S
C365 C363 1.390 . S
C365 C366 1.387 . S
C365 H368 0.950 . S
C366 C365 1.387 . S
C366 C369 1.387 . S
H367 C363 0.950 . S
H368 C365 0.950 . S
C369 C360 1.390 . S
C369 H362 0.950 . S
C369 C366 1.387 . S
C370 C371 1.387 . S
C370 H374 0.950 . S
C370 C379 1.390 . S
C371 C370 1.387 . S
C371 C373 1.387 . S
H372 C379 0.950 . S
C373 C371 1.387 . S
C373 C375 1.390 . S
C373 H377 0.950 . S
H374 C370 0.950 . S
C375 C373 1.390 . S
C375 C376 1.387 . S
C375 H378 0.950 . S
C376 C375 1.387 . S
C376 C379 1.387 . S
H377 C373 0.950 . S
H378 C375 0.950 . S
C379 C370 1.390 . S
C379 H372 0.950 . S
C379 C376 1.387 . S
C380 C381 1.387 . S
C380 H384 0.950 . S
C380 C389 1.390 . S
C381 C380 1.387 . S
C381 C383 1.387 . S
H382 C389 0.950 . S
C383 C381 1.387 . S
C383 C385 1.390 . S
C383 H387 0.950 . S
H384 C380 0.950 . S
C385 C383 1.390 . S
C385 C386 1.387 . S
C385 H388 0.950 . S
C386 C385 1.387 . S
C386 C389 1.387 . S
H387 C383 0.950 . S
H388 C385 0.950 . S
C389 C380 1.390 . S
C389 H382 0.950 . S
C389 C386 1.387 . S
C390 C391 1.387 . S
C390 H394 0.950 . S
C390 C399 1.390 . S
C391 C390 1.387 . S
C391 C393 1.387 . S
H392 C399 0.950 . S
C393 C391 1.387 . S
C393 C395 1.390 . S
C393 H397 0.950 . S
H394 C390 0.950 . S
C395 C393 1.390 . S
C395 C396 1.387 . S
C395 H398 0.950 . S
C396 C395 1.387 . S
C396 C399 1.387 . S
H397 C393 0.950 . S
H398 C395 0.950 . S
C399 C390 1.390 . S
C399 H392 0.950 . S
C399 C396 1.387 . S
C400 C401 1.387 . S
C400 H404 0.950 . S
C400 C409 1.390 . S
C401 C400 1.387 . S
C401 C403 1.387 . S
H402 C409 0.950 . S
C403 C401 1.387 . S
C403 C405 1.390 . S
C403 H407 0.950 . S
H404 C400 0.950 . S
C405 C403 1.390 . S
C405 C406 1.387 . S
C405 H408 0.950 . S
C406 C405 1.387 . S
C406 C409 1.387 . S
H407 C403 0.950 . S
H408 C405 0.950 . S
C409 C400 1.390 . S
C409 H402 0.950 . S
C409 C406 1.387 . S
C410 C411 1.387 . S
C410 H414 0.950 . S
C410 C419 1.390 . S
C411 C410 1.387 . S
C411 C413 1.387 . S
H412 C419 0.950 . S
C413 C411 1.387 . S
C413 C415 1.390 . S
C413 H417 0.950 . S
H414 C410 0.950 . S
C415 C413 1.390 . S
C415 C416 1.387 . S
C415 H418 0.950 . S
C416 C415 1.387 . S
C416 C419 1.387 . S
H417 C413 0.950 . S
H418 C415 0.950 . S
C419 C410 1.390 . S
C419 H412 0.950 . S
C419 C416 1.387 . S
C420 C421 1.387 . S
C420 H424 0.950 . S
C420 C429 1.390 . S
C421 C420 1.387 . S
C421 C423 1.387 . S
H422 C429 0.950 . S
C423 C421 1.387 . S
C423 C425 1.390 . S
C423 H427 0.950 . S
H424 C420 0.950 . S
C425 C423 1.390 . S
C425 C426 1.387 . S
C425 H428 0.950 . S
C426 C425 1.387 . S
C426 C429 1.387 . S
H427 C423 0.950 . S
H428 C425 0.950 . S
C429 C420 1.390 . S
C429 H422 0.950 . S
C429 C426 1.387 . S
C430 C431 1.387 1_655 S
C430 H434 0.950 1_655 S
C430 C439 1.390 . S
C431 C430 1.387 1_455 S
C431 C433 1.387 1_455 S
H432 C439 0.950 . S
C433 C431 1.387 1_655 S
C433 C435 1.390 . S
C433 H437 0.950 1_655 S
H434 C430 0.950 1_455 S
C435 C433 1.390 . S
C435 C436 1.387 . S
C435 H438 0.950 . S
C436 C435 1.387 . S
C436 C439 1.387 . S
H437 C433 0.950 1_455 S
H438 C435 0.950 . S
C439 C430 1.390 . S
C439 H432 0.950 . S
C439 C436 1.387 . S
C440 C441 1.387 . S
C440 H444 0.950 . S
C440 C449 1.390 . S
C441 C440 1.387 . S
C441 C443 1.387 . S
H442 C449 0.950 . S
C443 C441 1.387 . S
C443 C445 1.390 . S
C443 H447 0.950 . S
H444 C440 0.950 . S
C445 C443 1.390 . S
C445 C446 1.387 . S
C445 H448 0.950 . S
C446 C445 1.387 . S
C446 C449 1.387 . S
H447 C443 0.950 . S
H448 C445 0.950 . S
C449 C440 1.390 . S
C449 H442 0.950 . S
C449 C446 1.387 . S
C450 C451 1.387 . S
C450 H454 0.950 . S
C450 C459 1.390 . S
C451 C450 1.387 . S
C451 C453 1.387 . S
H452 C459 0.950 . S
C453 C451 1.387 . S
C453 C455 1.390 . S
C453 H457 0.950 . S
H454 C450 0.950 . S
C455 C453 1.390 . S
C455 C456 1.387 . S
C455 H458 0.950 . S
C456 C455 1.387 . S
C456 C459 1.387 . S
H457 C453 0.950 . S
H458 C455 0.950 . S
C459 C450 1.390 . S
C459 H452 0.950 . S
C459 C456 1.387 . S
C460 C461 1.387 . S
C460 H464 0.950 . S
C460 C469 1.390 . S
C461 C460 1.387 . S
C461 C463 1.387 . S
H462 C469 0.950 . S
C463 C461 1.387 . S
C463 C465 1.390 . S
C463 H467 0.950 . S
H464 C460 0.950 . S
C465 C463 1.390 . S
C465 C466 1.387 . S
C465 H468 0.950 . S
C466 C465 1.387 . S
C466 C469 1.387 . S
H467 C463 0.950 . S
H468 C465 0.950 . S
C469 C460 1.390 . S
C469 H462 0.950 . S
C469 C466 1.387 . S
C470 C471 1.387 . S
C470 H474 0.950 . S
C470 C479 1.390 . S
C471 C470 1.387 . S
C471 C473 1.387 . S
H472 C479 0.950 . S
C473 C471 1.387 . S
C473 C475 1.390 . S
C473 H477 0.950 . S
H474 C470 0.950 . S
C475 C473 1.390 . S
C475 C476 1.387 . S
C475 H478 0.950 . S
C476 C475 1.387 . S
C476 C479 1.387 . S
H477 C473 0.950 . S
H478 C475 0.950 . S
C479 C470 1.390 . S
C479 H472 0.950 . S
C479 C476 1.387 . S
C480 C481 1.387 . S
C480 H484 0.950 . S
C480 C489 1.390 . S
C481 C480 1.387 . S
C481 C483 1.387 . S
H482 C489 0.950 . S
C483 C481 1.387 . S
C483 C485 1.390 . S
C483 H487 0.950 . S
H484 C480 0.950 . S
C485 C483 1.390 . S
C485 C486 1.387 . S
C485 H488 0.950 . S
C486 C485 1.387 . S
C486 C489 1.387 . S
H487 C483 0.950 . S
H488 C485 0.950 . S
C489 C480 1.390 . S
C489 H482 0.950 . S
C489 C486 1.387 . S
C490 C491 1.387 . S
C490 H494 0.950 . S
C490 C499 1.390 . S
C491 C490 1.387 . S
C491 C493 1.387 . S
H492 C499 0.950 . S
C493 C491 1.387 . S
C493 C495 1.390 . S
C493 H497 0.950 . S
H494 C490 0.950 . S
C495 C493 1.390 . S
C495 C496 1.387 . S
C495 H498 0.950 . S
C496 C495 1.387 . S
C496 C499 1.387 . S
H497 C493 0.950 . S
H498 C495 0.950 . S
C499 C490 1.390 . S
C499 H492 0.950 . S
C499 C496 1.387 . S
C500 C501 1.387 . S
C500 H504 0.950 . S
C500 C509 1.390 . S
C501 C500 1.387 . S
C501 C503 1.387 . S
H502 C509 0.950 . S
C503 C501 1.387 . S
C503 C505 1.390 . S
C503 H507 0.950 . S
H504 C500 0.950 . S
C505 C503 1.390 . S
C505 C506 1.387 . S
C505 H508 0.950 . S
C506 C505 1.387 . S
C506 C509 1.387 . S
H507 C503 0.950 . S
H508 C505 0.950 . S
C509 C500 1.390 . S
C509 H502 0.950 . S
C509 C506 1.387 . S
C510 C511 1.387 . S
C510 H514 0.950 . S
C510 C519 1.390 . S
C511 C510 1.387 . S
C511 C513 1.387 . S
H512 C519 0.950 . S
C513 C511 1.387 . S
C513 C515 1.390 . S
C513 H517 0.950 . S
H514 C510 0.950 . S
C515 C513 1.390 . S
C515 C516 1.387 . S
C515 H518 0.950 . S
C516 C515 1.387 . S
C516 C519 1.387 . S
H517 C513 0.950 . S
H518 C515 0.950 . S
C519 C510 1.390 . S
C519 H512 0.950 . S
C519 C516 1.387 . S
C520 C521 1.387 . S
C520 H524 0.950 . S
C520 C529 1.390 . S
C521 C520 1.387 . S
C521 C523 1.387 . S
H522 C529 0.950 . S
C523 C521 1.387 . S
C523 C525 1.390 . S
C523 H527 0.950 . S
H524 C520 0.950 . S
C525 C523 1.390 . S
C525 C526 1.387 . S
C525 H528 0.950 . S
C526 C525 1.387 . S
C526 C529 1.387 . S
H527 C523 0.950 . S
H528 C525 0.950 . S
C529 C520 1.390 . S
C529 H522 0.950 . S
C529 C526 1.387 . S
C530 C531 1.387 1_565 S
C530 H534 0.950 . S
C530 C539 1.390 . S
C531 C530 1.387 1_545 S
C531 C533 1.387 1_545 S
H532 C539 0.950 . S
C533 C531 1.387 1_565 S
C533 C535 1.390 . S
C533 H537 0.950 1_565 S
H534 C530 0.950 . S
C535 C533 1.390 . S
C535 C536 1.387 . S
C535 H538 0.950 . S
C536 C535 1.387 . S
C536 C539 1.387 . S
H537 C533 0.950 1_545 S
H538 C535 0.950 . S
C539 C530 1.390 . S
C539 H532 0.950 . S
C539 C536 1.387 . S
C540 C541 1.387 . S
C540 H544 0.950 . S
C540 C549 1.390 1_554 S
C541 C540 1.387 . S
C541 C543 1.387 . S
H542 C549 0.950 . S
C543 C541 1.387 . S
C543 C545 1.390 1_554 S
C543 H547 0.950 . S
H544 C540 0.950 . S
C545 C543 1.390 1_556 S
C545 C546 1.387 . S
C545 H548 0.950 . S
C546 C545 1.387 . S
C546 C549 1.387 . S
H547 C543 0.950 . S
H548 C545 0.950 . S
C549 C540 1.390 1_556 S
C549 H542 0.950 . S
C549 C546 1.387 . S
C550 C551 1.387 1_655 S
C550 H554 0.950 . S
C550 C559 1.390 1_556 S
C551 C550 1.387 1_455 S
C551 C553 1.387 . S
H552 C559 0.950 . S
C553 C551 1.387 . S
C553 C555 1.390 1_556 S
C553 H557 0.950 . S
H554 C550 0.950 . S
C555 C553 1.390 1_554 S
C555 C556 1.387 . S
C555 H558 0.950 . S
C556 C555 1.387 . S
C556 C559 1.387 1_455 S
H557 C553 0.950 . S
H558 C555 0.950 . S
C559 C550 1.390 1_554 S
C559 H552 0.950 . S
C559 C556 1.387 1_655 S
C560 C561 1.387 . S
C560 H564 0.950 . S
C560 C569 1.390 1_556 S
C561 C560 1.387 . S
C561 C563 1.387 . S
H562 C569 0.950 . S
C563 C561 1.387 . S
C563 C565 1.390 1_556 S
C563 H567 0.950 . S
H564 C560 0.950 . S
C565 C563 1.390 1_554 S
C565 C566 1.387 . S
C565 H568 0.950 . S
C566 C565 1.387 . S
C566 C569 1.387 . S
H567 C563 0.950 . S
H568 C565 0.950 . S
C569 C560 1.390 1_554 S
C569 H562 0.950 . S
C569 C566 1.387 . S
C570 C571 1.387 . S
C570 H574 0.950 . S
C570 C579 1.390 . S
C571 C570 1.387 . S
C571 C573 1.387 . S
H572 C579 0.950 . S
C573 C571 1.387 . S
C573 C575 1.390 . S
C573 H577 0.950 . S
H574 C570 0.950 . S
C575 C573 1.390 . S
C575 C576 1.387 . S
C575 H578 0.950 . S
C576 C575 1.387 . S
C576 C579 1.387 . S
H577 C573 0.950 . S
H578 C575 0.950 . S
C579 C570 1.390 . S
C579 H572 0.950 . S
C579 C576 1.387 . S
C580 C581 1.387 . S
C580 H584 0.950 . S
C580 C589 1.390 . S
C581 C580 1.387 . S
C581 C583 1.387 . S
H582 C589 0.950 . S
C583 C581 1.387 . S
C583 C585 1.390 . S
C583 H587 0.950 . S
H584 C580 0.950 . S
C585 C583 1.390 . S
C585 C586 1.387 . S
C585 H588 0.950 . S
C586 C585 1.387 . S
C586 C589 1.387 . S
H587 C583 0.950 . S
H588 C585 0.950 . S
C589 C580 1.390 . S
C589 H582 0.950 . S
C589 C586 1.387 . S
C590 C591 1.387 . S
C590 H594 0.950 . S
C590 C599 1.390 . S
C591 C590 1.387 . S
C591 C593 1.387 . S
H592 C599 0.950 . S
C593 C591 1.387 . S
C593 C595 1.390 . S
C593 H597 0.950 . S
H594 C590 0.950 . S
C595 C593 1.390 . S
C595 C596 1.387 . S
C595 H598 0.950 . S
C596 C595 1.387 . S
C596 C599 1.387 . S
H597 C593 0.950 . S
H598 C595 0.950 . S
C599 C590 1.390 . S
C599 H592 0.950 . S
C599 C596 1.387 . S
C600 C601 1.387 . S
C600 H604 0.950 . S
C600 C609 1.390 . S
C601 C600 1.387 . S
C601 C603 1.387 . S
H602 C609 0.950 . S
C603 C601 1.387 . S
C603 C605 1.390 . S
C603 H607 0.950 . S
H604 C600 0.950 . S
C605 C603 1.390 . S
C605 C606 1.387 . S
C605 H608 0.950 . S
C606 C605 1.387 . S
C606 C609 1.387 . S
H607 C603 0.950 . S
H608 C605 0.950 . S
C609 C600 1.390 . S
C609 H602 0.950 . S
C609 C606 1.387 . S
C610 C611 1.387 . S
C610 H614 0.950 . S
C610 C619 1.390 . S
C611 C610 1.387 . S
C611 C613 1.387 . S
H612 C619 0.950 . S
C613 C611 1.387 . S
C613 C615 1.390 . S
C613 H617 0.950 . S
H614 C610 0.950 . S
C615 C613 1.390 . S
C615 C616 1.387 . S
C615 H618 0.950 . S
C616 C615 1.387 . S
C616 C619 1.387 . S
H617 C613 0.950 . S
H618 C615 0.950 . S
C619 C610 1.390 . S
C619 H612 0.950 . S
C619 C616 1.387 . S
C620 C621 1.387 . S
C620 H624 0.950 . S
C620 C629 1.390 . S
C621 C620 1.387 . S
C621 C623 1.387 . S
H622 C629 0.950 . S
C623 C621 1.387 . S
C623 C625 1.390 . S
C623 H627 0.950 . S
H624 C620 0.950 . S
C625 C623 1.390 . S
C625 C626 1.387 . S
C625 H628 0.950 . S
C626 C625 1.387 . S
C626 C629 1.387 . S
H627 C623 0.950 . S
H628 C625 0.950 . S
C629 C620 1.390 . S
C629 H622 0.950 . S
C629 C626 1.387 . S
C630 C631 1.387 . S
C630 H634 0.950 . S
C630 C639 1.390 . S
C631 C630 1.387 . S
C631 C633 1.387 . S
H632 C639 0.950 1_545 S
C633 C631 1.387 . S
C633 C635 1.390 . S
C633 H637 0.950 . S
H634 C630 0.950 . S
C635 C633 1.390 . S
C635 C636 1.387 . S
C635 H638 0.950 . S
C636 C635 1.387 . S
C636 C639 1.387 . S
H637 C633 0.950 . S
H638 C635 0.950 . S
C639 C630 1.390 . S
C639 H632 0.950 1_565 S
C639 C636 1.387 . S
C640 C641 1.387 . S
C640 H644 0.950 . S
C640 C649 1.390 . S
C641 C640 1.387 . S
C641 C643 1.387 . S
H642 C649 0.950 . S
C643 C641 1.387 . S
C643 C645 1.390 . S
C643 H647 0.950 . S
H644 C640 0.950 . S
C645 C643 1.390 . S
C645 C646 1.387 . S
C645 H648 0.950 . S
C646 C645 1.387 . S
C646 C649 1.387 . S
H647 C643 0.950 . S
H648 C645 0.950 . S
C649 C640 1.390 . S
C649 H642 0.950 . S
C649 C646 1.387 . S
C650 C651 1.387 . S
C650 H654 0.950 . S
C650 C659 1.390 . S
C651 C650 1.387 . S
C651 C653 1.387 . S
H652 C659 0.950 . S
C653 C651 1.387 . S
C653 C655 1.390 . S
C653 H657 0.950 . S
H654 C650 0.950 . S
C655 C653 1.390 . S
C655 C656 1.387 . S
C655 H658 0.950 . S
C656 C655 1.387 . S
C656 C659 1.387 . S
H657 C653 0.950 . S
H658 C655 0.950 . S
C659 C650 1.390 . S
C659 H652 0.950 . S
C659 C656 1.387 . S
C660 C661 1.387 . S
C660 H664 0.950 . S
C660 C669 1.390 . S
C661 C660 1.387 . S
C661 C663 1.387 . S
H662 C669 0.950 . S
C663 C661 1.387 . S
C663 C665 1.390 . S
C663 H667 0.950 1_655 S
H664 C660 0.950 . S
C665 C663 1.390 . S
C665 C666 1.387 . S
C665 H668 0.950 . S
C666 C665 1.387 . S
C666 C669 1.387 . S
H667 C663 0.950 1_455 S
H668 C665 0.950 . S
C669 C660 1.390 . S
C669 H662 0.950 . S
C669 C666 1.387 . S
C670 C671 1.387 . S
C670 H674 0.950 . S
C670 C679 1.390 . S
C671 C670 1.387 . S
C671 C673 1.387 . S
H672 C679 0.950 . S
C673 C671 1.387 . S
C673 C675 1.390 . S
C673 H677 0.950 . S
H674 C670 0.950 . S
C675 C673 1.390 . S
C675 C676 1.387 . S
C675 H678 0.950 . S
C676 C675 1.387 . S
C676 C679 1.387 . S
H677 C673 0.950 . S
H678 C675 0.950 . S
C679 C670 1.390 . S
C679 H672 0.950 . S
C679 C676 1.387 . S
C680 C681 1.387 . S
C680 H684 0.950 . S
C680 C689 1.390 . S
C681 C680 1.387 . S
C681 C683 1.387 . S
H682 C689 0.950 . S
C683 C681 1.387 . S
C683 C685 1.390 . S
C683 H687 0.950 . S
H684 C680 0.950 . S
C685 C683 1.390 . S
C685 C686 1.387 . S
C685 H688 0.950 . S
C686 C685 1.387 . S
C686 C689 1.387 . S
H687 C683 0.950 . S
H688 C685 0.950 . S
C689 C680 1.390 . S
C689 H682 0.950 . S
C689 C686 1.387 . S
C690 C691 1.387 . S
C690 H694 0.950 . S
C690 C699 1.390 1_655 S
C691 C690 1.387 . S
C691 C693 1.387 1_655 S
H692 C699 0.950 . S
C693 C691 1.387 1_455 S
C693 C695 1.390 . S
C693 H697 0.950 . S
H694 C690 0.950 . S
C695 C693 1.390 . S
C695 C696 1.387 . S
C695 H698 0.950 . S
C696 C695 1.387 . S
C696 C699 1.387 . S
H697 C693 0.950 . S
H698 C695 0.950 . S
C699 C690 1.390 1_455 S
C699 H692 0.950 . S
C699 C696 1.387 . S
C700 C701 1.387 . S
C700 H704 0.950 . S
C700 C709 1.390 . S
C701 C700 1.387 . S
C701 C703 1.387 . S
H702 C709 0.950 . S
C703 C701 1.387 . S
C703 C705 1.390 . S
C703 H707 0.950 . S
H704 C700 0.950 . S
C705 C703 1.390 . S
C705 C706 1.387 . S
C705 H708 0.950 . S
C706 C705 1.387 . S
C706 C709 1.387 . S
H707 C703 0.950 . S
H708 C705 0.950 . S
C709 C700 1.390 . S
C709 H702 0.950 . S
C709 C706 1.387 . S
C710 C711 1.387 . S
C710 H714 0.950 . S
C710 C719 1.390 1_565 S
C711 C710 1.387 . S
C711 C713 1.387 . S
H712 C719 0.950 . S
C713 C711 1.387 . S
C713 C715 1.390 1_565 S
C713 H717 0.950 . S
H714 C710 0.950 . S
C715 C713 1.390 1_545 S
C715 C716 1.387 . S
C715 H718 0.950 . S
C716 C715 1.387 . S
C716 C719 1.387 . S
H717 C713 0.950 . S
H718 C715 0.950 . S
C719 C710 1.390 1_545 S
C719 H712 0.950 . S
C719 C716 1.387 . S
C720 C721 1.387 . S
C720 H724 0.950 . S
C720 C729 1.390 . S
C721 C720 1.387 . S
C721 C723 1.387 . S
H722 C729 0.950 . S
C723 C721 1.387 . S
C723 C725 1.390 . S
C723 H727 0.950 . S
H724 C720 0.950 . S
C725 C723 1.390 . S
C725 C726 1.387 . S
C725 H728 0.950 . S
C726 C725 1.387 . S
C726 C729 1.387 . S
H727 C723 0.950 . S
H728 C725 0.950 . S
C729 C720 1.390 . S
C729 H722 0.950 . S
C729 C726 1.387 . S
C730 C731 1.387 . S
C730 H734 0.950 . S
C730 C739 1.390 . S
C731 C730 1.387 . S
C731 C733 1.387 . S
H732 C739 0.950 . S
C733 C731 1.387 . S
C733 C735 1.390 . S
C733 H737 0.950 . S
H734 C730 0.950 . S
C735 C733 1.390 . S
C735 C736 1.387 . S
C735 H738 0.950 . S
C736 C735 1.387 . S
C736 C739 1.387 . S
H737 C733 0.950 . S
H738 C735 0.950 . S
C739 C730 1.390 . S
C739 H732 0.950 . S
C739 C736 1.387 . S
C740 C741 1.387 . S
C740 H744 0.950 . S
C740 C749 1.390 . S
C741 C740 1.387 . S
C741 C743 1.387 . S
H742 C749 0.950 . S
C743 C741 1.387 . S
C743 C745 1.390 . S
C743 H747 0.950 . S
H744 C740 0.950 . S
C745 C743 1.390 . S
C745 C746 1.387 . S
C745 H748 0.950 . S
C746 C745 1.387 . S
C746 C749 1.387 . S
H747 C743 0.950 . S
H748 C745 0.950 . S
C749 C740 1.390 . S
C749 H742 0.950 . S
C749 C746 1.387 . S
C750 C751 1.387 . S
C750 H754 0.950 . S
C750 C759 1.390 . S
C751 C750 1.387 . S
C751 C753 1.387 . S
H752 C759 0.950 . S
C753 C751 1.387 . S
C753 C755 1.390 . S
C753 H757 0.950 . S
H754 C750 0.950 . S
C755 C753 1.390 . S
C755 C756 1.387 . S
C755 H758 0.950 . S
C756 C755 1.387 . S
C756 C759 1.387 . S
H757 C753 0.950 . S
H758 C755 0.950 . S
C759 C750 1.390 . S
C759 H752 0.950 . S
C759 C756 1.387 . S
C760 C761 1.387 . S
C760 H764 0.950 . S
C760 C769 1.390 . S
C761 C760 1.387 . S
C761 C763 1.387 . S
H762 C769 0.950 . S
C763 C761 1.387 . S
C763 C765 1.390 . S
C763 H767 0.950 . S
H764 C760 0.950 . S
C765 C763 1.390 . S
C765 C766 1.387 . S
C765 H768 0.950 . S
C766 C765 1.387 . S
C766 C769 1.387 . S
H767 C763 0.950 . S
H768 C765 0.950 . S
C769 C760 1.390 . S
C769 H762 0.950 . S
C769 C766 1.387 . S
C770 C771 1.387 . S
C770 H774 0.950 . S
C770 C779 1.390 . S
C771 C770 1.387 . S
C771 C773 1.387 . S
H772 C779 0.950 . S
C773 C771 1.387 . S
C773 C775 1.390 . S
C773 H777 0.950 . S
H774 C770 0.950 . S
C775 C773 1.390 . S
C775 C776 1.387 . S
C775 H778 0.950 . S
C776 C775 1.387 . S
C776 C779 1.387 . S
H777 C773 0.950 . S
H778 C775 0.950 . S
C779 C770 1.390 . S
C779 H772 0.950 . S
C779 C776 1.387 . S
C780 C781 1.387 . S
C780 H784 0.950 . S
C780 C789 1.390 . S
C781 C780 1.387 . S
C781 C783 1.387 . S
H782 C789 0.950 . S
C783 C781 1.387 . S
C783 C785 1.390 . S
C783 H787 0.950 . S
H784 C780 0.950 . S
C785 C783 1.390 . S
C785 C786 1.387 . S
C785 H788 0.950 . S
C786 C785 1.387 . S
C786 C789 1.387 . S
H787 C783 0.950 . S
H788 C785 0.950 . S
C789 C780 1.390 . S
C789 H782 0.950 . S
C789 C786 1.387 . S
C790 C791 1.387 . S
C790 H794 0.950 . S
C790 C799 1.390 . S
C791 C790 1.387 . S
C791 C793 1.387 . S
H792 C799 0.950 . S
C793 C791 1.387 . S
C793 C795 1.390 . S
C793 H797 0.950 . S
H794 C790 0.950 . S
C795 C793 1.390 . S
C795 C796 1.387 . S
C795 H798 0.950 . S
C796 C795 1.387 . S
C796 C799 1.387 . S
H797 C793 0.950 . S
H798 C795 0.950 . S
C799 C790 1.390 . S
C799 H792 0.950 . S
C799 C796 1.387 . S
C800 C801 1.387 . S
C800 H804 0.950 . S
C800 C809 1.390 . S
C801 C800 1.387 . S
C801 C803 1.387 . S
H802 C809 0.950 . S
C803 C801 1.387 . S
C803 C805 1.390 . S
C803 H807 0.950 . S
H804 C800 0.950 . S
C805 C803 1.390 . S
C805 C806 1.387 . S
C805 H808 0.950 . S
C806 C805 1.387 . S
C806 C809 1.387 . S
H807 C803 0.950 . S
H808 C805 0.950 . S
C809 C800 1.390 . S
C809 H802 0.950 . S
C809 C806 1.387 . S
C810 C811 1.387 . S
C810 H814 0.950 . S
C810 C819 1.390 1_655 S
C811 C810 1.387 . S
C811 C813 1.387 . S
H812 C819 0.950 . S
C813 C811 1.387 . S
C813 C815 1.390 1_655 S
C813 H817 0.950 . S
H814 C810 0.950 . S
C815 C813 1.390 1_455 S
C815 C816 1.387 . S
C815 H818 0.950 . S
C816 C815 1.387 . S
C816 C819 1.387 . S
H817 C813 0.950 . S
H818 C815 0.950 . S
C819 C810 1.390 1_455 S
C819 H812 0.950 . S
C819 C816 1.387 . S
C820 C821 1.387 . S
C820 H824 0.950 . S
C820 C829 1.390 . S
C821 C820 1.387 . S
C821 C823 1.387 . S
H822 C829 0.950 . S
C823 C821 1.387 . S
C823 C825 1.390 . S
C823 H827 0.950 . S
H824 C820 0.950 . S
C825 C823 1.390 . S
C825 C826 1.387 . S
C825 H828 0.950 . S
C826 C825 1.387 . S
C826 C829 1.387 . S
H827 C823 0.950 . S
H828 C825 0.950 . S
C829 C820 1.390 . S
C829 H822 0.950 . S
C829 C826 1.387 . S
C830 C831 1.387 1_545 S
C830 H834 0.950 . S
C830 C839 1.390 . S
C831 C830 1.387 1_565 S
C831 C833 1.387 1_565 S
H832 C839 0.950 . S
C833 C831 1.387 1_545 S
C833 C835 1.390 . S
C833 H837 0.950 . S
H834 C830 0.950 . S
C835 C833 1.390 . S
C835 C836 1.387 . S
C835 H838 0.950 . S
C836 C835 1.387 . S
C836 C839 1.387 . S
H837 C833 0.950 . S
H838 C835 0.950 . S
C839 C830 1.390 . S
C839 H832 0.950 . S
C839 C836 1.387 . S
C840 C841 1.387 . S
C840 H844 0.950 . S
C840 C849 1.390 1_565 S
C841 C840 1.387 . S
C841 C843 1.387 . S
H842 C849 0.950 . S
C843 C841 1.387 . S
C843 C845 1.390 1_565 S
C843 H847 0.950 . S
H844 C840 0.950 . S
C845 C843 1.390 1_545 S
C845 C846 1.387 . S
C845 H848 0.950 . S
C846 C845 1.387 . S
C846 C849 1.387 . S
H847 C843 0.950 . S
H848 C845 0.950 . S
C849 C840 1.390 1_545 S
C849 H842 0.950 . S
C849 C846 1.387 . S
C850 C851 1.387 . S
C850 H854 0.950 . S
C850 C859 1.390 . S
C851 C850 1.387 . S
C851 C853 1.387 . S
H852 C859 0.950 . S
C853 C851 1.387 . S
C853 C855 1.390 . S
C853 H857 0.950 . S
H854 C850 0.950 . S
C855 C853 1.390 . S
C855 C856 1.387 1_455 S
C855 H858 0.950 . S
C856 C855 1.387 1_655 S
C856 C859 1.387 1_655 S
H857 C853 0.950 . S
H858 C855 0.950 . S
C859 C850 1.390 . S
C859 H852 0.950 . S
C859 C856 1.387 1_455 S
C860 C861 1.387 . S
C860 H864 0.950 . S
C860 C869 1.390 . S
C861 C860 1.387 . S
C861 C863 1.387 . S
H862 C869 0.950 . S
C863 C861 1.387 . S
C863 C865 1.390 . S
C863 H867 0.950 . S
H864 C860 0.950 . S
C865 C863 1.390 . S
C865 C866 1.387 . S
C865 H868 0.950 . S
C866 C865 1.387 . S
C866 C869 1.387 . S
H867 C863 0.950 . S
H868 C865 0.950 . S
C869 C860 1.390 . S
C869 H862 0.950 . S
C869 C866 1.387 . S
C870 C871 1.387 . S
C870 H874 0.950 . S
C870 C879 1.390 . S
C871 C870 1.387 . S
C871 C873 1.387 . S
H872 C879 0.950 . S
C873 C871 1.387 . S
C873 C875 1.390 . S
C873 H877 0.950 . S
H874 C870 0.950 . S
C875 C873 1.390 . S
C875 C876 1.387 . S
C875 H878 0.950 . S
C876 C875 1.387 . S
C876 C879 1.387 . S
H877 C873 0.950 . S
H878 C875 0.950 . S
C879 C870 1.390 . S
C879 H872 0.950 . S
C879 C876 1.387 . S
C880 C881 1.387 . S
C880 H884 0.950 . S
C880 C889 1.390 . S
C881 C880 1.387 . S
C881 C883 1.387 . S
H882 C889 0.950 . S
C883 C881 1.387 . S
C883 C885 1.390 . S
C883 H887 0.950 . S
H884 C880 0.950 . S
C885 C883 1.390 . S
C885 C886 1.387 . S
C885 H888 0.950 . S
C886 C885 1.387 . S
C886 C889 1.387 . S
H887 C883 0.950 . S
H888 C885 0.950 . S
C889 C880 1.390 . S
C889 H882 0.950 . S
C889 C886 1.387 . S
C890 C891 1.387 . S
C890 H894 0.950 . S
C890 C899 1.390 . S
C891 C890 1.387 . S
C891 C893 1.387 . S
H892 C899 0.950 . S
C893 C891 1.387 . S
C893 C895 1.390 . S
C893 H897 0.950 . S
H894 C890 0.950 . S
C895 C893 1.390 . S
C895 C896 1.387 . S
C895 H898 0.950 . S
C896 C895 1.387 . S
C896 C899 1.387 . S
H897 C893 0.950 . S
H898 C895 0.950 . S
C899 C890 1.390 . S
C899 H892 0.950 . S
C899 C896 1.387 . S
C361 C6 1.219 . S
C366 C59 1.247 . S
C371 C19 1.247 . S
C376 C26 1.219 . S
C381 C39 1.247 . S
C386 C46 1.219 . S
C391 C66 1.219 . S
C396 C99 1.247 . S
C401 C119 1.249 . S
C406 C86 1.215 . S
C411 C106 1.219 . S
C416 C79 1.247 . S
C421 C179 1.247 1_545 S
C426 C126 1.219 . S
C431 C139 1.249 . S
C436 C146 1.215 . S
C441 C166 1.215 1_655 S
C446 C159 1.249 . S
C451 C219 1.249 . S
C456 C186 1.215 . S
C461 C206 1.219 . S
C466 C239 1.247 . S
C471 C199 1.249 . S
C476 C226 1.215 . S
C481 C246 1.215 . S
C486 C299 1.249 . S
C491 C259 1.247 . S
C496 C266 1.219 . S
C501 C279 1.247 . S
C506 C286 1.219 . S
C511 C339 1.249 1_455 S
C516 C306 1.215 . S
C521 C359 1.249 . S
C526 C326 1.215 1_565 S
C531 C319 1.247 . S
C536 C346 1.219 . S
C541 C9 1.694 . S
C546 C109 1.694 . S
C551 C69 1.691 . S
C556 C29 1.691 . S
C561 C89 1.694 . S
C566 C49 1.694 . S
C571 C129 1.694 . S
C576 C229 1.694 . S
C581 C149 1.694 . S
C586 C189 1.694 . S
C591 C209 1.694 . S
C596 C169 1.693 . S
C601 C249 1.694 . S
C606 C349 1.694 . S
C611 C309 1.694 . S
C616 C269 1.694 . S
C621 C329 1.694 . S
C626 C289 1.693 . S
C631 C201 1.908 . S
C636 C1 1.908 . S
C641 C21 1.906 . S
C646 C221 1.906 . S
C651 C181 1.908 . S
C656 C41 1.908 . S
C661 C61 1.906 . S
C666 C281 1.906 . S
C671 C81 1.908 . S
C676 C241 1.908 . S
C681 C261 1.906 . S
C686 C101 1.907 . S
C691 C321 1.907 . S
C696 C121 1.906 . S
C701 C141 1.908 . S
C706 C341 1.908 . S
C711 C161 1.906 . S
C716 C301 1.906 . S
C721 C48 1.643 . S
C726 C16 1.729 . S
C731 C8 1.647 . S
C736 C36 1.727 . S
C741 C56 1.728 . S
C746 C28 1.643 . S
C751 C88 1.643 . S
C756 C76 1.729 . S
C761 C108 1.643 . S
C766 C96 1.728 . S
C771 C116 1.727 . S
C776 C68 1.646 . S
C781 C168 1.646 . S
C786 C136 1.727 . S
C791 C156 1.727 . S
C796 C128 1.647 . S
C801 C148 1.646 . S
C806 C176 1.727 . S
C811 C196 1.727 . S
C816 C208 1.646 . S
C821 C216 1.727 . S
C826 C228 1.646 . S
C831 C188 1.643 . S
C836 C236 1.729 1_655 S
C841 C256 1.727 . S
C846 C288 1.646 . S
C851 C276 1.729 1_565 S
C856 C248 1.643 . S
C861 C268 1.646 . S
C866 C296 1.727 . S
C871 C316 1.727 . S
C876 C328 1.646 . S
C881 C336 1.727 . S
C886 C348 1.646 . S
C891 C308 1.643 . S
C896 C356 1.729 . S
