# Generated by pormake.
# Topology fnz, (5)-cn, num edge types: 1
# Building blocks:
#     Node 0, Type 0, BuildingBlock: XOMCOT_clean_sbu_0, # of connection points: 5
#     Node 1, Type 0, BuildingBlock: XOMCOT_clean_sbu_0, # of connection points: 5
#     Node 2, Type 0, BuildingBlock: XOMCOT_clean_sbu_0, # of connection points: 5
#     Node 3, Type 0, BuildingBlock: XOMCOT_clean_sbu_0, # of connection points: 5
#     Node 4, Type 0, BuildingBlock: XOMCOT_clean_sbu_0, # of connection points: 5
#     Node 5, Type 0, BuildingBlock: XOMCOT_clean_sbu_0, # of connection points: 5
#     Node 6, Type 0, BuildingBlock: XOMCOT_clean_sbu_0, # of connection points: 5
#     Node 7, Type 0, BuildingBlock: XOMCOT_clean_sbu_0, # of connection points: 5
#     Node 8, Type 0, BuildingBlock: XOMCOT_clean_sbu_0, # of connection points: 5
#     Node 9, Type 0, BuildingBlock: XOMCOT_clean_sbu_0, # of connection points: 5
#     Node 10, Type 0, BuildingBlock: XOMCOT_clean_sbu_0, # of connection points: 5
#     Node 11, Type 0, BuildingBlock: XOMCOT_clean_sbu_0, # of connection points: 5
#     Edge 12, Type (0, 0), BuildingBlock: ZUJKAS_clean_linker_0, # of connection points: 2
#     Edge 13, Type (0, 0), BuildingBlock: ZUJKAS_clean_linker_0, # of connection points: 2
#     Edge 14, Type (0, 0), BuildingBlock: ZUJKAS_clean_linker_0, # of connection points: 2
#     Edge 15, Type (0, 0), BuildingBlock: ZUJKAS_clean_linker_0, # of connection points: 2
#     Edge 16, Type (0, 0), BuildingBlock: ZUJKAS_clean_linker_0, # of connection points: 2
#     Edge 17, Type (0, 0), BuildingBlock: ZUJKAS_clean_linker_0, # of connection points: 2
#     Edge 18, Type (0, 0), BuildingBlock: ZUJKAS_clean_linker_0, # of connection points: 2
#     Edge 19, Type (0, 0), BuildingBlock: ZUJKAS_clean_linker_0, # of connection points: 2
#     Edge 20, Type (0, 0), BuildingBlock: ZUJKAS_clean_linker_0, # of connection points: 2
#     Edge 21, Type (0, 0), BuildingBlock: ZUJKAS_clean_linker_0, # of connection points: 2
#     Edge 22, Type (0, 0), BuildingBlock: ZUJKAS_clean_linker_0, # of connection points: 2
#     Edge 23, Type (0, 0), BuildingBlock: ZUJKAS_clean_linker_0, # of connection points: 2
#     Edge 24, Type (0, 0), BuildingBlock: ZUJKAS_clean_linker_0, # of connection points: 2
#     Edge 25, Type (0, 0), BuildingBlock: ZUJKAS_clean_linker_0, # of connection points: 2
#     Edge 26, Type (0, 0), BuildingBlock: ZUJKAS_clean_linker_0, # of connection points: 2
#     Edge 27, Type (0, 0), BuildingBlock: ZUJKAS_clean_linker_0, # of connection points: 2
#     Edge 28, Type (0, 0), BuildingBlock: ZUJKAS_clean_linker_0, # of connection points: 2
#     Edge 29, Type (0, 0), BuildingBlock: ZUJKAS_clean_linker_0, # of connection points: 2
#     Edge 30, Type (0, 0), BuildingBlock: ZUJKAS_clean_linker_0, # of connection points: 2
#     Edge 31, Type (0, 0), BuildingBlock: ZUJKAS_clean_linker_0, # of connection points: 2
#     Edge 32, Type (0, 0), BuildingBlock: ZUJKAS_clean_linker_0, # of connection points: 2
#     Edge 33, Type (0, 0), BuildingBlock: ZUJKAS_clean_linker_0, # of connection points: 2
#     Edge 34, Type (0, 0), BuildingBlock: ZUJKAS_clean_linker_0, # of connection points: 2
#     Edge 35, Type (0, 0), BuildingBlock: ZUJKAS_clean_linker_0, # of connection points: 2
#     Edge 36, Type (0, 0), BuildingBlock: ZUJKAS_clean_linker_0, # of connection points: 2
#     Edge 37, Type (0, 0), BuildingBlock: ZUJKAS_clean_linker_0, # of connection points: 2
#     Edge 38, Type (0, 0), BuildingBlock: ZUJKAS_clean_linker_0, # of connection points: 2
#     Edge 39, Type (0, 0), BuildingBlock: ZUJKAS_clean_linker_0, # of connection points: 2
#     Edge 40, Type (0, 0), BuildingBlock: ZUJKAS_clean_linker_0, # of connection points: 2
#     Edge 41, Type (0, 0), BuildingBlock: ZUJKAS_clean_linker_0, # of connection points: 2
# Relax obj value: 0.177
# Max RMSD: 0.247
# Mean RMSD: 0.247
data_MOF--net-fnz--node1-XOMCOT_clean_sbu_0--edge1-ZUJKAS_clean_linker_0
_symmetry_space_group_name_H-M    P1
_symmetry_Int_Tables_number       1
_symmetry_cell_setting            triclinic
loop_
_symmetry_equiv_pos_as_xyz
'x, y, z'
_cell_length_a     56.018535
_cell_length_b     56.009826
_cell_length_c     39.070723
_cell_angle_alpha  90.007005
_cell_angle_beta   89.988103
_cell_angle_gamma 120.02646
loop_
_atom_site_label
_atom_site_type_symbol
_atom_site_fract_x
_atom_site_fract_y
_atom_site_fract_z
_atom_type_partial_charge
Co0 Co 0.42029 0.14384 0.03614 0.0
C1 C 0.39214 0.17611 0.0356 0.0
C2 C 0.36427 0.13398 0.04956 0.0
C3 C 0.34961 0.14768 0.04743 0.0
N4 N 0.39083 0.15183 0.04182 0.0
N5 N 0.36724 0.17411 0.03873 0.0
H6 H 0.4107 0.19455 0.02756 0.0
H7 H 0.35598 0.1124 0.05554 0.0
C8 C 0.39238 0.0882 0.00174 0.0
O9 O 0.41227 0.09698 0.97894 0.0
N10 N 0.44994 0.13562 0.03107 0.0
C11 C 0.47596 0.15208 0.01981 0.0
C12 C 0.48992 0.13771 0.02101 0.0
C13 C 0.44897 0.11196 0.0405 0.0
N14 N 0.47286 0.11248 0.03389 0.0
C15 C 0.44593 0.18026 0.97902 0.0
C16 C 0.40338 0.15192 0.93317 0.0
C17 C 0.42722 0.17565 0.92204 0.0
C18 C 0.44849 0.19015 0.94565 0.0
C19 C 0.40171 0.14282 0.96679 0.0
N20 N 0.42351 0.15595 0.98873 0.0
H21 H 0.46163 0.19276 0.99732 0.0
H22 H 0.38243 0.12564 0.97531 0.0
H23 H 0.48486 0.17325 0.01204 0.0
H24 H 0.43093 0.09447 0.05137 0.0
O25 O 0.4456 0.17862 0.05772 0.0
O26 O 0.42077 0.13874 0.08469 0.0
O27 O 0.39243 0.10446 0.02469 0.0
C28 C 0.4384 0.16501 0.08646 0.0
H29 H 0.32771 0.13891 0.05174 0.0
H30 H 0.51112 0.14538 0.01344 0.0
H31 H 0.38581 0.1409 0.91636 0.0
H32 H 0.46695 0.20908 0.93853 0.0
Co33 Co 0.27512 0.41856 0.03854 0.0
C34 C 0.21459 0.38891 0.03744 0.0
C35 C 0.22996 0.36418 0.05968 0.0
C36 C 0.20157 0.34901 0.05918 0.0
N37 N 0.23796 0.38907 0.04591 0.0
N38 N 0.19194 0.36458 0.04508 0.0
H39 H 0.21431 0.40635 0.02599 0.0
H40 H 0.24378 0.35743 0.06908 0.0
C41 C 0.30264 0.39013 0.00534 0.0
O42 O 0.31319 0.4095 0.98185 0.0
N43 N 0.31282 0.44824 0.03196 0.0
C44 C 0.32211 0.47386 0.01941 0.0
C45 C 0.35046 0.48803 0.02011 0.0
C46 C 0.33573 0.44778 0.04165 0.0
N47 N 0.35894 0.47154 0.03398 0.0
C48 C 0.26349 0.4421 0.97971 0.0
C49 C 0.24892 0.39799 0.93631 0.0
C50 C 0.2493 0.42154 0.92349 0.0
C51 C 0.25614 0.44358 0.94593 0.0
C52 C 0.25639 0.39742 0.97024 0.0
N53 N 0.26537 0.42002 0.99091 0.0
H54 H 0.26683 0.45842 0.99707 0.0
H55 H 0.25426 0.37843 0.97999 0.0
H56 H 0.30963 0.48239 0.01112 0.0
H57 H 0.33543 0.43018 0.05352 0.0
O58 O 0.26566 0.44433 0.05889 0.0
O59 O 0.28154 0.42073 0.08703 0.0
O60 O 0.28671 0.39053 0.02845 0.0
C61 C 0.27262 0.43815 0.08797 0.0
H62 H 0.1891 0.32795 0.06789 0.0
H63 H 0.36379 0.50901 0.01157 0.0
H64 H 0.24227 0.37986 0.92051 0.0
H65 H 0.25586 0.46187 0.93756 0.0
Co66 Co 0.85791 0.27874 0.03668 0.0
C67 C 0.82894 0.21699 0.03161 0.0
C68 C 0.86562 0.23388 0.06206 0.0
C69 C 0.85336 0.20559 0.06257 0.0
N70 N 0.85046 0.24111 0.04238 0.0
N71 N 0.83036 0.19507 0.04331 0.0
H72 H 0.81191 0.21501 0.01672 0.0
H73 H 0.88425 0.24828 0.07543 0.0
C74 C 0.90594 0.27741 0.00516 0.0
O75 O 0.88879 0.25336 0.99151 0.0
N76 N 0.86559 0.3161 0.03208 0.0
C77 C 0.84777 0.32452 0.02309 0.0
C78 C 0.86152 0.35293 0.02357 0.0
C79 C 0.88978 0.33923 0.03798 0.0
N80 N 0.88792 0.36208 0.03286 0.0
C81 C 0.81628 0.25673 0.98474 0.0
C82 C 0.85104 0.27838 0.92911 0.0
C83 C 0.82284 0.26043 0.92347 0.0
C84 C 0.80529 0.25023 0.95183 0.0
C85 C 0.86116 0.28426 0.96257 0.0
N86 N 0.84408 0.27186 0.98985 0.0
H87 H 0.8023 0.24903 0.0062 0.0
H88 H 0.88272 0.29895 0.96628 0.0
H89 H 0.82633 0.31095 0.01667 0.0
H90 H 0.9082 0.3393 0.04644 0.0
O91 O 0.82413 0.26924 0.06076 0.0
O92 O 0.86498 0.28426 0.08508 0.0
O93 O 0.8968 0.29066 0.02212 0.0
C94 C 0.83879 0.27548 0.0886 0.0
H95 H 0.86079 0.1937 0.07605 0.0
H96 H 0.85286 0.36582 0.01713 0.0
H97 H 0.86527 0.2874 0.90792 0.0
H98 H 0.78321 0.23732 0.94865 0.0
Co99 Co 0.58058 0.85942 0.0376 0.0
C100 C 0.61325 0.83038 0.03315 0.0
C101 C 0.633 0.867 0.06368 0.0
C102 C 0.64902 0.85471 0.06425 0.0
N103 N 0.61069 0.85193 0.0438 0.0
N104 N 0.63655 0.83176 0.04489 0.0
H105 H 0.59815 0.81326 0.01845 0.0
H106 H 0.63719 0.88558 0.07714 0.0
C107 C 0.63034 0.90851 0.00908 0.0
O108 O 0.6365 0.89159 0.99322 0.0
N109 N 0.55093 0.86708 0.03252 0.0
C110 C 0.52594 0.85047 0.01872 0.0
C111 C 0.51134 0.86426 0.01867 0.0
C112 C 0.55119 0.89047 0.04114 0.0
N113 N 0.52727 0.88934 0.03283 0.0
C114 C 0.5645 0.82094 0.98189 0.0
C115 C 0.57749 0.85878 0.92976 0.0
C116 C 0.5693 0.83142 0.92149 0.0
C117 C 0.56197 0.8122 0.948 0.0
C118 C 0.5801 0.86666 0.9641 0.0
N119 N 0.57572 0.84822 0.98967 0.0
H120 H 0.55757 0.80566 0.00193 0.0
H121 H 0.58554 0.8876 0.96994 0.0
H122 H 0.51899 0.82995 0.00898 0.0
H123 H 0.56878 0.9082 0.05242 0.0
O124 O 0.5555 0.82437 0.05871 0.0
O125 O 0.57997 0.864 0.08627 0.0
O126 O 0.60808 0.89902 0.02641 0.0
C127 C 0.56251 0.83768 0.08766 0.0
H128 H 0.66829 0.86209 0.07782 0.0
H129 H 0.49064 0.85646 0.00901 0.0
H130 H 0.58238 0.87407 0.90994 0.0
H131 H 0.55419 0.79057 0.94257 0.0
Co132 Co 0.72048 0.5812 0.03827 0.0
C133 C 0.7821 0.61189 0.03604 0.0
C134 C 0.76604 0.63687 0.05513 0.0
C135 C 0.7944 0.65251 0.05481 0.0
N136 N 0.75824 0.61165 0.04213 0.0
N137 N 0.80432 0.63664 0.0429 0.0
H138 H 0.78363 0.59446 0.0275 0.0
H139 H 0.75207 0.64343 0.06452 0.0
C140 C 0.71874 0.62886 0.00618 0.0
O141 O 0.74069 0.63412 0.98821 0.0
N142 N 0.68311 0.55118 0.03543 0.0
C143 C 0.67465 0.52568 0.02325 0.0
C144 C 0.64626 0.51101 0.02368 0.0
C145 C 0.66002 0.55169 0.04355 0.0
N146 N 0.63717 0.52741 0.03646 0.0
C147 C 0.74257 0.56473 0.98257 0.0
C148 C 0.71455 0.57387 0.93077 0.0
C149 C 0.73466 0.56701 0.92221 0.0
C150 C 0.74809 0.56151 0.94863 0.0
C151 C 0.7099 0.5771 0.96516 0.0
N152 N 0.72549 0.57474 0.99043 0.0
H153 H 0.75178 0.55873 0.00249 0.0
H154 H 0.6938 0.58163 0.97133 0.0
H155 H 0.68817 0.51849 0.01408 0.0
H156 H 0.65991 0.5697 0.05339 0.0
O157 O 0.7313 0.55704 0.05996 0.0
O158 O 0.7169 0.58233 0.08711 0.0
O159 O 0.70762 0.60798 0.02612 0.0
C160 C 0.7259 0.56498 0.08881 0.0
H161 H 0.80678 0.67363 0.06341 0.0
H162 H 0.63331 0.48997 0.0151 0.0
H163 H 0.70297 0.57732 0.91112 0.0
H164 H 0.7626 0.55457 0.94311 0.0
Co165 Co 0.14067 0.72637 0.04136 0.0
C166 C 0.1742 0.78669 0.0373 0.0
C167 C 0.13282 0.77403 0.05325 0.0
C168 C 0.14711 0.80232 0.0496 0.0
N169 N 0.14981 0.76435 0.04514 0.0
N170 N 0.17305 0.8101 0.03965 0.0
H171 H 0.19204 0.78571 0.02863 0.0
H172 H 0.11142 0.76144 0.06052 0.0
C173 C 0.08506 0.70174 0.00673 0.0
O174 O 0.09336 0.69145 0.9823 0.0
N175 N 0.13152 0.68794 0.03855 0.0
C176 C 0.14931 0.6783 0.0378 0.0
C177 C 0.13477 0.65001 0.03942 0.0
C178 C 0.10646 0.66518 0.04247 0.0
N179 N 0.10775 0.64172 0.04218 0.0
C180 C 0.1714 0.72852 0.98091 0.0
C181 C 0.14909 0.75197 0.93878 0.0
C182 C 0.16899 0.7464 0.92539 0.0
C183 C 0.18027 0.73461 0.94696 0.0
C184 C 0.14074 0.74543 0.97278 0.0
N185 N 0.15113 0.73294 0.99317 0.0
H186 H 0.1817 0.72128 0.99751 0.0
H187 H 0.12609 0.75081 0.98283 0.0
H188 H 0.17151 0.69077 0.03802 0.0
H189 H 0.08768 0.6657 0.04645 0.0
O190 O 0.17599 0.73607 0.0615 0.0
O191 O 0.13714 0.72285 0.09024 0.0
O192 O 0.10127 0.71566 0.03111 0.0
C193 C 0.16333 0.73099 0.09088 0.0
H194 H 0.13907 0.81609 0.05377 0.0
H195 H 0.14361 0.6367 0.03991 0.0
H196 H 0.14002 0.76134 0.92317 0.0
H197 H 0.19647 0.73096 0.93803 0.0
Co198 Co 0.85741 0.57896 0.46247 0.0
C199 C 0.8249 0.60671 0.46373 0.0
C200 C 0.86549 0.63361 0.44393 0.0
C201 C 0.85109 0.64766 0.44442 0.0
N202 N 0.84899 0.60805 0.45623 0.0
N203 N 0.82557 0.63064 0.45687 0.0
H204 H 0.8074 0.58865 0.47455 0.0
H205 H 0.88642 0.64145 0.43518 0.0
C206 C 0.91358 0.6067 0.49524 0.0
O207 O 0.90555 0.58574 0.51627 0.0
N208 N 0.86585 0.54954 0.46806 0.0
C209 C 0.85078 0.5247 0.48319 0.0
C210 C 0.86487 0.51052 0.48099 0.0
C211 C 0.88839 0.54958 0.45571 0.0
N212 N 0.88855 0.52625 0.46385 0.0
C213 C 0.81996 0.55423 0.51869 0.0
C214 C 0.84919 0.59561 0.56564 0.0
C215 C 0.82418 0.57273 0.57578 0.0
C216 C 0.80935 0.55202 0.55159 0.0
C217 C 0.85889 0.59709 0.53237 0.0
N218 N 0.8451 0.57586 0.5098 0.0
H219 H 0.80741 0.53883 0.50004 0.0
H220 H 0.87702 0.61589 0.52468 0.0
H221 H 0.83082 0.51685 0.49476 0.0
H222 H 0.90477 0.56677 0.44201 0.0
O223 O 0.82277 0.55344 0.44077 0.0
O224 O 0.86269 0.5782 0.41397 0.0
O225 O 0.89665 0.60731 0.47386 0.0
C226 C 0.83645 0.56057 0.41209 0.0
H227 H 0.85872 0.66862 0.43587 0.0
H228 H 0.85812 0.49012 0.49106 0.0
H229 H 0.86118 0.61245 0.58311 0.0
H230 H 0.78929 0.5346 0.55763 0.0
Co231 Co 0.27702 0.85544 0.46186 0.0
C232 C 0.2167 0.82294 0.46391 0.0
C233 C 0.23038 0.8627 0.44142 0.0
C234 C 0.20193 0.84842 0.44232 0.0
N235 N 0.23944 0.84664 0.4551 0.0
N236 N 0.19341 0.82346 0.45662 0.0
H237 H 0.21729 0.80564 0.47531 0.0
H238 H 0.24348 0.88336 0.43178 0.0
C239 C 0.30374 0.91128 0.49533 0.0
O240 O 0.31461 0.9027 0.51867 0.0
N241 N 0.31505 0.86438 0.46793 0.0
C242 C 0.32485 0.84842 0.48024 0.0
C243 C 0.35317 0.86308 0.47937 0.0
C244 C 0.33766 0.88805 0.45822 0.0
N245 N 0.36116 0.88801 0.46565 0.0
C246 C 0.2662 0.81981 0.51998 0.0
C247 C 0.25017 0.84778 0.56402 0.0
C248 C 0.25064 0.82446 0.57606 0.0
C249 C 0.25844 0.81019 0.5534 0.0
C250 C 0.25823 0.85672 0.53047 0.0
N251 N 0.2677 0.84376 0.50941 0.0
H252 H 0.26985 0.80727 0.50224 0.0
H253 H 0.256 0.87366 0.52125 0.0
H254 H 0.31274 0.82735 0.48848 0.0
H255 H 0.33695 0.9052 0.44651 0.0
O256 O 0.2683 0.8206 0.44089 0.0
O257 O 0.28315 0.8602 0.41339 0.0
O258 O 0.28773 0.89478 0.47239 0.0
C259 C 0.27478 0.834 0.41197 0.0
H260 H 0.18863 0.85608 0.43374 0.0
H261 H 0.36685 0.8558 0.48769 0.0
H262 H 0.24354 0.85902 0.58031 0.0
H263 H 0.25768 0.79124 0.56108 0.0
Co264 Co 0.41742 0.27582 0.45826 0.0
C265 C 0.39096 0.21547 0.46402 0.0
C266 C 0.36166 0.22782 0.44983 0.0
C267 C 0.3479 0.19957 0.45355 0.0
N268 N 0.38856 0.2377 0.45673 0.0
N269 N 0.3664 0.19194 0.46237 0.0
H270 H 0.41014 0.21656 0.47124 0.0
H271 H 0.3526 0.24023 0.44285 0.0
C272 C 0.38913 0.30315 0.49241 0.0
O273 O 0.41005 0.31575 0.51357 0.0
N274 N 0.44658 0.31434 0.45872 0.0
C275 C 0.47407 0.32456 0.46112 0.0
C276 C 0.48743 0.35273 0.45713 0.0
C277 C 0.4439 0.33646 0.45139 0.0
N278 N 0.46836 0.36017 0.45128 0.0
C279 C 0.44743 0.27374 0.51726 0.0
C280 C 0.4039 0.25561 0.5626 0.0
C281 C 0.42939 0.26021 0.57469 0.0
C282 C 0.45125 0.26902 0.55142 0.0
C283 C 0.40098 0.26048 0.52831 0.0
N284 N 0.42293 0.27074 0.50637 0.0
H285 H 0.46391 0.2788 0.49946 0.0
H286 H 0.38077 0.2554 0.5193 0.0
H287 H 0.48416 0.31258 0.46387 0.0
H288 H 0.42455 0.33526 0.44502 0.0
O289 O 0.44255 0.2658 0.43744 0.0
O290 O 0.41571 0.27783 0.40936 0.0
O291 O 0.38907 0.28677 0.4696 0.0
C292 C 0.43395 0.26995 0.40826 0.0
H293 H 0.32606 0.18566 0.44975 0.0
H294 H 0.50947 0.36663 0.45842 0.0
H295 H 0.38608 0.24755 0.57927 0.0
H296 H 0.4711 0.2721 0.55945 0.0
Co297 Co 0.14277 0.41992 0.45754 0.0
C298 C 0.17473 0.39161 0.46077 0.0
C299 C 0.13542 0.36604 0.43693 0.0
C300 C 0.14941 0.35161 0.43836 0.0
N301 N 0.15137 0.39099 0.45113 0.0
N302 N 0.17407 0.36773 0.4535 0.0
H303 H 0.19187 0.40929 0.47276 0.0
H304 H 0.11502 0.35877 0.42658 0.0
C305 C 0.08649 0.39055 0.48985 0.0
O306 O 0.09474 0.40994 0.51325 0.0
N307 N 0.13401 0.44915 0.46318 0.0
C308 C 0.15033 0.47518 0.47449 0.0
C309 C 0.13603 0.48917 0.47267 0.0
C310 C 0.1105 0.44821 0.45309 0.0
N311 N 0.11098 0.47215 0.4593 0.0
C312 C 0.177 0.44423 0.51705 0.0
C313 C 0.14806 0.39962 0.55995 0.0
C314 C 0.1709 0.42335 0.57303 0.0
C315 C 0.18574 0.4457 0.55088 0.0
C316 C 0.14009 0.39907 0.526 0.0
N317 N 0.15345 0.4218 0.50549 0.0
H318 H 0.18987 0.46074 0.49988 0.0
H319 H 0.12363 0.37991 0.51603 0.0
H320 H 0.17149 0.48415 0.48234 0.0
H321 H 0.09325 0.43026 0.44169 0.0
O322 O 0.17808 0.44606 0.43758 0.0
O323 O 0.13898 0.42169 0.40893 0.0
O324 O 0.10321 0.39131 0.46705 0.0
C325 C 0.16524 0.43945 0.40828 0.0
H326 H 0.14176 0.33071 0.42954 0.0
H327 H 0.14372 0.51045 0.47988 0.0
H328 H 0.13687 0.38128 0.57551 0.0
H329 H 0.20406 0.46415 0.55947 0.0
Co330 Co 0.7228 0.14031 0.464 0.0
C331 C 0.78425 0.1721 0.46782 0.0
C332 C 0.76919 0.13073 0.45051 0.0
C333 C 0.79757 0.14403 0.45135 0.0
N334 N 0.76074 0.14804 0.46204 0.0
N335 N 0.80686 0.17003 0.46212 0.0
H336 H 0.78521 0.19107 0.47519 0.0
H337 H 0.75567 0.10994 0.44157 0.0
C338 C 0.72047 0.09107 0.49807 0.0
O339 O 0.74213 0.10771 0.5165 0.0
N340 N 0.68528 0.13263 0.46509 0.0
C341 C 0.67653 0.14981 0.47583 0.0
C342 C 0.64817 0.13601 0.47461 0.0
C343 C 0.66235 0.10881 0.45703 0.0
N344 N 0.63936 0.11029 0.46279 0.0
C345 C 0.74307 0.18009 0.51823 0.0
C346 C 0.71587 0.14393 0.57122 0.0
C347 C 0.73511 0.17147 0.57886 0.0
C348 C 0.748 0.18983 0.55174 0.0
C349 C 0.71159 0.13509 0.53716 0.0
N350 N 0.72683 0.15266 0.51139 0.0
H351 H 0.75216 0.19482 0.49777 0.0
H352 H 0.69605 0.11407 0.53168 0.0
H353 H 0.68984 0.17072 0.48454 0.0
H354 H 0.66245 0.09054 0.44821 0.0
O355 O 0.73359 0.17482 0.44112 0.0
O356 O 0.72043 0.13485 0.41522 0.0
O357 O 0.70989 0.10088 0.47737 0.0
C358 C 0.72909 0.1611 0.41271 0.0
H359 H 0.81041 0.13557 0.44368 0.0
H360 H 0.63504 0.14418 0.48201 0.0
H361 H 0.70469 0.12921 0.59132 0.0
H362 H 0.76175 0.21161 0.55635 0.0
Co363 Co 0.58118 0.72276 0.46024 0.0
C364 C 0.61206 0.78332 0.46445 0.0
C365 C 0.63474 0.76798 0.43678 0.0
C366 C 0.65012 0.79638 0.43759 0.0
N367 N 0.61099 0.75994 0.45371 0.0
N368 N 0.63583 0.80591 0.45513 0.0
H369 H 0.5956 0.78377 0.47839 0.0
H370 H 0.64042 0.75416 0.42467 0.0
C371 C 0.60899 0.69435 0.49306 0.0
O372 O 0.58884 0.68259 0.51543 0.0
N373 N 0.55106 0.68514 0.46587 0.0
C374 C 0.5248 0.6764 0.4753 0.0
C375 C 0.50984 0.64813 0.47297 0.0
C376 C 0.55127 0.66203 0.4565 0.0
N377 N 0.52655 0.63903 0.46136 0.0
C378 C 0.5569 0.73437 0.51796 0.0
C379 C 0.59973 0.7479 0.5631 0.0
C380 C 0.57657 0.74901 0.5745 0.0
C381 C 0.55514 0.74248 0.55119 0.0
C382 C 0.60077 0.74001 0.5295 0.0
N383 N 0.57888 0.73189 0.50784 0.0
H384 H 0.54107 0.73134 0.49998 0.0
H385 H 0.61966 0.74135 0.52079 0.0
H386 H 0.51637 0.68934 0.48194 0.0
H387 H 0.56925 0.66216 0.44626 0.0
O388 O 0.55617 0.73297 0.43954 0.0
O389 O 0.57955 0.71671 0.41168 0.0
O390 O 0.60899 0.71101 0.47074 0.0
C391 C 0.56243 0.72599 0.41055 0.0
H392 H 0.67039 0.80901 0.42654 0.0
H393 H 0.48808 0.63543 0.47849 0.0
H394 H 0.6171 0.75325 0.57982 0.0
H395 H 0.53748 0.74445 0.55812 0.0
H396 H 0.50528 0.10176 0.99323 0.0
H397 H 0.51352 0.063 0.99769 0.0
H398 H 0.46178 0.03411 0.08745 0.0
H399 H 0.45294 0.07265 0.0825 0.0
H400 H 0.53688 0.04852 0.04645 0.0
H401 H 0.42815 0.96549 0.0297 0.0
H402 H 0.43924 0.00133 0.02232 0.0
H403 H 0.43331 0.98788 0.06522 0.0
C404 C 0.49579 0.08723 0.01402 0.0
C405 C 0.47841 0.09015 0.03746 0.0
C406 C 0.50044 0.06505 0.0165 0.0
C407 C 0.48793 0.04539 0.04258 0.0
C408 C 0.47106 0.0486 0.06657 0.0
H409 H 0.54356 0.92698 0.08373 0.0
H410 H 0.53344 0.96461 0.08908 0.0
C411 C 0.46611 0.07065 0.06382 0.0
C412 C 0.49285 0.02176 0.04445 0.0
H413 H 0.46059 0.95146 0.04246 0.0
C414 C 0.52021 0.02728 0.04564 0.0
C415 C 0.47106 0.99407 0.04297 0.0
C416 C 0.44131 0.98676 0.03965 0.0
C417 C 0.52643 0.00595 0.04492 0.0
C418 C 0.50463 0.97825 0.04413 0.0
C419 C 0.47726 0.9727 0.04337 0.0
C420 C 0.50977 0.95475 0.04217 0.0
C421 C 0.55632 0.0134 0.04365 0.0
C422 C 0.49891 0.93606 0.01482 0.0
C423 C 0.50427 0.91433 0.01208 0.0
C424 C 0.52075 0.91099 0.03653 0.0
C425 C 0.5312 0.9294 0.06424 0.0
C426 C 0.52551 0.95093 0.06724 0.0
H427 H 0.56988 0.03499 0.03497 0.0
H428 H 0.5631 0.01147 0.06967 0.0
H429 H 0.55929 0.99945 0.02621 0.0
H430 H 0.48668 0.93858 0.9952 0.0
H431 H 0.49615 0.90058 0.99033 0.0
H432 H 0.59472 0.49473 0.99485 0.0
H433 H 0.54724 0.48536 0.99879 0.0
H434 H 0.56813 0.53559 0.08976 0.0
H435 H 0.61591 0.54561 0.08529 0.0
H436 H 0.50845 0.46089 0.04639 0.0
H437 H 0.53363 0.56961 0.03229 0.0
H438 H 0.55872 0.55896 0.02509 0.0
H439 H 0.55052 0.56421 0.06797 0.0
C440 C 0.58913 0.50365 0.01577 0.0
C441 C 0.609 0.52104 0.03965 0.0
C442 C 0.56203 0.49834 0.01797 0.0
C443 C 0.55422 0.51017 0.04421 0.0
C444 C 0.57385 0.52687 0.06873 0.0
H445 H 0.3795 0.45348 0.08402 0.0
H446 H 0.42705 0.46289 0.08928 0.0
C447 C 0.60108 0.53251 0.06625 0.0
C448 C 0.52552 0.50492 0.04565 0.0
H449 H 0.48717 0.53683 0.04483 0.0
C450 C 0.50377 0.47749 0.04607 0.0
C451 C 0.51946 0.52661 0.04481 0.0
C452 C 0.54178 0.55649 0.04217 0.0
C453 C 0.47615 0.4711 0.04534 0.0
C454 C 0.4701 0.4928 0.04528 0.0
C455 C 0.49184 0.52023 0.04521 0.0
C456 C 0.44144 0.4876 0.04319 0.0
C457 C 0.45381 0.4412 0.04334 0.0
C458 C 0.43396 0.49916 0.0163 0.0
C459 C 0.40702 0.49421 0.01364 0.0
C460 C 0.38694 0.47745 0.0377 0.0
C461 C 0.39448 0.46613 0.06487 0.0
C462 C 0.42159 0.47141 0.06779 0.0
H463 H 0.46198 0.42787 0.03428 0.0
H464 H 0.44491 0.43397 0.06919 0.0
H465 H 0.43698 0.43844 0.02586 0.0
H466 H 0.44891 0.51173 0.99702 0.0
H467 H 0.40172 0.50294 0.99224 0.0
H468 H 0.10745 0.59544 0.02083 0.0
H469 H 0.06896 0.54821 0.02287 0.0
H470 H 0.01773 0.57658 0.06899 0.0
H471 H 0.05627 0.62393 0.06793 0.0
H472 H 0.03638 0.51751 0.08351 0.0
H473 H 0.97508 0.53156 0.98148 0.0
H474 H 0.01163 0.55486 0.98673 0.0
H475 H 0.98759 0.55635 0.01576 0.0
C476 C 0.08818 0.59175 0.03187 0.0
C477 C 0.08511 0.61369 0.04416 0.0
C478 C 0.06615 0.5647 0.03281 0.0
C479 C 0.04052 0.55903 0.04575 0.0
C480 C 0.03731 0.58067 0.05845 0.0
H481 H 0.88258 0.40597 0.05045 0.0
H482 H 0.91955 0.45398 0.05583 0.0
C483 C 0.0594 0.60776 0.05769 0.0
C484 C 0.01716 0.53039 0.04579 0.0
H485 H 0.95534 0.48786 0.00761 0.0
C486 C 0.0186 0.51096 0.06701 0.0
C487 C 0.99403 0.5221 0.02433 0.0
C488 C 0.99188 0.54217 0.00055 0.0
C489 C 0.99737 0.48332 0.06741 0.0
C490 C 0.97449 0.47482 0.04533 0.0
C491 C 0.97292 0.49441 0.02447 0.0
C492 C 0.95223 0.44563 0.04286 0.0
C493 C 0.99949 0.4636 0.09186 0.0
C494 C 0.9583 0.42507 0.03339 0.0
C495 C 0.93724 0.39765 0.0304 0.0
C496 C 0.90965 0.39032 0.03635 0.0
C497 C 0.9036 0.411 0.04544 0.0
C498 C 0.9247 0.4384 0.04866 0.0
H499 H 0.01337 0.47467 0.1137 0.0
H500 H 0.97894 0.44827 0.10209 0.0
H501 H 0.00819 0.45233 0.07813 0.0
H502 H 0.9793 0.43028 0.02782 0.0
H503 H 0.94251 0.38228 0.02272 0.0
H504 H 0.09998 0.50533 0.49805 0.0
H505 H 0.06171 0.51408 0.49129 0.0
H506 H 0.03411 0.46154 0.40217 0.0
H507 H 0.07217 0.45222 0.40939 0.0
H508 H 0.04787 0.53701 0.44056 0.0
H509 H 0.96491 0.42831 0.45909 0.0
H510 H 0.00068 0.43966 0.46737 0.0
H511 H 0.98782 0.43339 0.4242 0.0
C512 C 0.08586 0.49579 0.47689 0.0
C513 C 0.08896 0.47799 0.45434 0.0
C514 C 0.06397 0.50075 0.47308 0.0
C515 C 0.0448 0.48815 0.44653 0.0
C516 C 0.04825 0.47094 0.42336 0.0
H517 H 0.92368 0.54224 0.40994 0.0
H518 H 0.96146 0.53267 0.4012 0.0
C519 C 0.07001 0.46568 0.42743 0.0
C520 C 0.02117 0.49302 0.44371 0.0
H521 H 0.95093 0.46073 0.44711 0.0
C522 C 0.02664 0.52034 0.4418 0.0
C523 C 0.99352 0.47122 0.44563 0.0
C524 C 0.98628 0.44151 0.4495 0.0
C525 C 0.00529 0.52655 0.4427 0.0
C526 C 0.97764 0.50475 0.44453 0.0
C527 C 0.97214 0.47739 0.44548 0.0
C528 C 0.95423 0.50984 0.44846 0.0
C529 C 0.01266 0.55643 0.44332 0.0
C530 C 0.9371 0.49945 0.47728 0.0
C531 C 0.91537 0.50454 0.48201 0.0
C532 C 0.91038 0.52025 0.45808 0.0
C533 C 0.92732 0.5304 0.42899 0.0
C534 C 0.94892 0.52501 0.42405 0.0
H535 H 0.03464 0.57033 0.45015 0.0
H536 H 0.00919 0.56244 0.41755 0.0
H537 H 0.9996 0.55975 0.46191 0.0
H538 H 0.94083 0.48774 0.49649 0.0
H539 H 0.9029 0.49674 0.50487 0.0
H540 H 0.59644 0.10096 0.50314 0.0
H541 H 0.54896 0.06294 0.49869 0.0
H542 H 0.5709 0.03259 0.40952 0.0
H543 H 0.61873 0.07024 0.41464 0.0
H544 H 0.51089 0.04842 0.45055 0.0
H545 H 0.53518 0.96448 0.46738 0.0
H546 H 0.56042 0.00024 0.47427 0.0
H547 H 0.55243 0.98642 0.43154 0.0
C548 C 0.59109 0.08623 0.48253 0.0
C549 C 0.61125 0.08842 0.45934 0.0
C550 C 0.56398 0.06449 0.48002 0.0
C551 C 0.55644 0.04461 0.45412 0.0
C552 C 0.57639 0.04721 0.43029 0.0
H553 H 0.38121 0.92633 0.41521 0.0
H554 H 0.42872 0.96454 0.40927 0.0
C555 C 0.60365 0.06875 0.43313 0.0
C556 C 0.52768 0.02124 0.4524 0.0
H557 H 0.48891 0.951 0.45435 0.0
C558 C 0.50606 0.0271 0.45134 0.0
C559 C 0.52141 0.99344 0.45382 0.0
C560 C 0.54355 0.98571 0.45715 0.0
C561 C 0.47836 0.00598 0.45219 0.0
C562 C 0.47211 0.97817 0.45297 0.0
C563 C 0.49373 0.97232 0.45347 0.0
C564 C 0.4434 0.95483 0.45558 0.0
C565 C 0.45618 0.01376 0.45365 0.0
C566 C 0.43606 0.93616 0.48287 0.0
C567 C 0.40918 0.91413 0.48589 0.0
C568 C 0.38898 0.9104 0.46181 0.0
C569 C 0.39631 0.92898 0.43435 0.0
C570 C 0.42339 0.95085 0.43105 0.0
H571 H 0.4645 0.03544 0.46215 0.0
H572 H 0.44728 0.01175 0.42773 0.0
H573 H 0.43933 1.00004 0.47133 0.0
H574 H 0.45112 0.93881 0.50213 0.0
H575 H 0.40403 0.90032 0.50751 0.0
H576 H 0.51377 0.40465 0.42545 0.0
H577 H 0.52289 0.45225 0.42358 0.0
H578 H 0.44267 0.42586 0.46681 0.0
H579 H 0.43351 0.37834 0.46915 0.0
H580 H 0.48763 0.47393 0.39169 0.0
H581 H 0.5025 0.48719 0.53273 0.0
H582 H 0.50557 0.46095 0.50951 0.0
H583 H 0.47215 0.45664 0.51797 0.0
C584 C 0.49808 0.40899 0.43451 0.0
C585 C 0.47298 0.38776 0.4476 0.0
C586 C 0.50324 0.43611 0.43322 0.0
C587 C 0.48352 0.44247 0.44531 0.0
C588 C 0.45818 0.42129 0.45753 0.0
H589 H 0.48327 0.59324 0.4889 0.0
H590 H 0.47235 0.54567 0.48206 0.0
C591 C 0.45291 0.39415 0.45862 0.0
C592 C 0.48982 0.47142 0.44644 0.0
H593 H 0.50351 0.52381 0.50183 0.0
C594 C 0.49118 0.48495 0.41569 0.0
C595 C 0.49438 0.48555 0.47784 0.0
C596 C 0.4938 0.47202 0.51147 0.0
C597 C 0.49644 0.51226 0.41559 0.0
C598 C 0.5011 0.52647 0.44705 0.0
C599 C 0.49989 0.51288 0.47775 0.0
C600 C 0.50702 0.55538 0.44899 0.0
C601 C 0.49623 0.52534 0.38192 0.0
C602 C 0.53015 0.57674 0.43261 0.0
C603 C 0.5363 0.60409 0.43605 0.0
C604 C 0.51961 0.6107 0.45634 0.0
C605 C 0.4964 0.58911 0.47261 0.0
C606 C 0.4902 0.56181 0.46896 0.0
H607 H 0.48491 0.50958 0.36187 0.0
H608 H 0.48665 0.53844 0.38467 0.0
H609 H 0.51776 0.53857 0.37298 0.0
H610 H 0.54377 0.57233 0.41765 0.0
H611 H 0.5542 0.61997 0.42288 0.0
H612 H 0.37413 0.05165 0.94813 0.0
H613 H 0.33523 0.00412 0.94832 0.0
H614 H 0.32201 0.01174 0.05562 0.0
H615 H 0.35973 0.0593 0.05516 0.0
H616 H 0.32568 0.95929 0.98069 0.0
H617 H 0.24599 0.98378 0.02099 0.0
H618 H 0.28003 0.01017 0.00817 0.0
H619 H 0.27359 0.99713 0.05142 0.0
C620 C 0.36276 0.04315 0.97165 0.0
C621 C 0.36968 0.05927 0.00149 0.0
C622 C 0.34057 0.01603 0.97175 0.0
C623 C 0.32517 0.00456 0.00177 0.0
C624 C 0.33282 0.0204 0.03183 0.0
H625 H 0.22689 0.83268 0.05528 0.0
H626 H 0.26365 0.87975 0.04282 0.0
C627 C 0.35456 0.04756 0.03159 0.0
C628 C 0.30157 0.97584 0.00222 0.0
H629 H 0.23516 0.93685 0.02982 0.0
C630 C 0.30575 0.9544 0.99099 0.0
C631 C 0.2753 0.9694 0.01482 0.0
C632 C 0.26838 0.9914 0.02413 0.0
C633 C 0.2848 0.92667 0.99342 0.0
C634 C 0.25932 0.92016 0.00877 0.0
C635 C 0.2548 0.94169 0.01862 0.0
C636 C 0.23723 0.89129 0.01557 0.0
C637 C 0.29022 0.90479 0.97912 0.0
C638 C 0.20989 0.88233 0.00572 0.0
C639 C 0.18879 0.85576 0.01385 0.0
C640 C 0.19469 0.83751 0.03155 0.0
C641 C 0.22198 0.84633 0.04121 0.0
C642 C 0.24299 0.87311 0.03378 0.0
H643 H 0.30553 0.91312 0.95798 0.0
H644 H 0.29892 0.89765 -0.00043 0.0
H645 H 0.27104 0.8868 0.96933 0.0
H646 H 0.20484 0.89595 0.99179 0.0
H647 H 0.1679 0.84929 0.00593 0.0
H648 H 0.32203 0.16852 0.00679 0.0
H649 H 0.31115 0.20499 0.99499 0.0
H650 H 0.38616 0.26396 0.04595 0.0
H651 H 0.3976 0.22771 0.05617 0.0
H652 H 0.30033 0.23447 0.03483 0.0
H653 H 0.3933 0.30643 0.96194 0.0
H654 H 0.38562 0.27195 0.97241 0.0
H655 H 0.4026 0.29951 0.00307 0.0
C656 C 0.33618 0.18933 0.01527 0.0
C657 C 0.36068 0.19543 0.03223 0.0
C658 C 0.33004 0.21017 0.00846 0.0
C659 C 0.34811 0.23744 0.0189 0.0
C660 C 0.37236 0.24337 0.03649 0.0
H661 H 0.29961 0.3582 0.05937 0.0
H662 H 0.31033 0.32107 0.06043 0.0
C663 C 0.37879 0.22265 0.04262 0.0
C664 C 0.34084 0.25927 0.01305 0.0
H665 H 0.36657 0.32546 0.9851 0.0
C666 C 0.31474 0.25423 0.02356 0.0
C667 C 0.3593 0.28491 0.99764 0.0
C668 C 0.38662 0.29088 0.98277 0.0
C669 C 0.30695 0.27433 0.02017 0.0
C670 C 0.32623 0.30071 0.00725 0.0
C671 C 0.35195 0.30544 0.99558 0.0
C672 C 0.32036 0.32381 0.0065 0.0
C673 C 0.27797 0.26684 0.03009 0.0
C674 C 0.32374 0.33874 0.97622 0.0
C675 C 0.31831 0.36057 0.97577 0.0
C676 C 0.30915 0.36763 0.00553 0.0
C677 C 0.30617 0.35293 0.03587 0.0
C678 C 0.3121 0.33153 0.03646 0.0
H679 H 0.26353 0.24432 0.02742 0.0
H680 H 0.27772 0.2723 0.05733 0.0
H681 H 0.27023 0.27796 0.01417 0.0
H682 H 0.33034 0.33334 0.95285 0.0
H683 H 0.32084 0.3716 0.95205 0.0
H684 H 0.947 0.32952 0.02077 0.0
H685 H 0.99655 0.3466 0.02251 0.0
H686 H 0.98251 0.26745 0.98785 0.0
H687 H 0.93297 0.25042 0.98521 0.0
H688 H 0.02193 0.32761 0.06271 0.0
H689 H 0.04593 0.31882 0.92739 0.0
H690 H 0.01388 0.31649 0.94027 0.0
H691 H 0.01851 0.28703 0.94407 0.0
C692 C 0.95448 0.31586 0.01299 0.0
C693 C 0.93605 0.28859 0.00285 0.0
C694 C 0.98282 0.32566 0.01402 0.0
C695 C 0.9933 0.30842 0.00498 0.0
C696 C 0.97499 0.28136 0.99416 0.0
H697 H 0.1466 0.32449 0.07744 0.0
H698 H 0.09863 0.31123 0.06682 0.0
C699 C 0.94664 0.2716 0.99283 0.0
C700 C 0.02306 0.31805 0.00953 0.0
H701 H 0.08019 0.32519 0.9687 0.0
C702 C 0.03471 0.32729 0.04206 0.0
C703 C 0.03982 0.31792 0.98251 0.0
C704 C 0.02899 0.3098 0.94652 0.0
C705 C 0.06248 0.33585 0.04853 0.0
C706 C 0.07889 0.33449 0.02193 0.0
C707 C 0.06746 0.32588 0.98917 0.0
C708 C 0.108 0.34199 0.02763 0.0
C709 C 0.07402 0.34662 0.08369 0.0
C710 C 0.12916 0.36306 0.00832 0.0
C711 C 0.15664 0.37041 0.01393 0.0
C712 C 0.16352 0.35678 0.03898 0.0
C713 C 0.14216 0.33536 0.05788 0.0
C714 C 0.11469 0.32796 0.05212 0.0
H715 H 0.06149 0.35382 0.09761 0.0
H716 H 0.07381 0.32979 0.09892 0.0
H717 H 0.09561 0.36393 0.08216 0.0
H718 H 0.12442 0.37399 0.98906 0.0
H719 H 0.1724 0.3866 0.99838 0.0
H720 H 0.81669 0.15239 0.08657 0.0
H721 H 0.78274 0.10386 0.07668 0.0
H722 H 0.76578 0.12421 0.97649 0.0
H723 H 0.79943 0.17285 0.98651 0.0
H724 H 0.71903 0.09031 0.00979 0.0
H725 H 0.79019 0.04887 0.01798 0.0
H726 H 0.79153 0.06797 0.05548 0.0
H727 H 0.80232 0.08531 0.01483 0.0
C728 C 0.80596 0.14646 0.0623 0.0
C729 C 0.81079 0.1664 0.03727 0.0
C730 C 0.78661 0.11871 0.05663 0.0
C731 C 0.77207 0.11031 0.02558 0.0
C732 C 0.77681 0.1302 0.00058 0.0
H733 H 0.67604 0.9366 0.96871 0.0
H734 H 0.70946 0.98603 0.96955 0.0
C735 C 0.79597 0.15799 0.00638 0.0
C736 C 0.75128 0.08091 0.01964 0.0
H737 H 0.74205 0.01588 0.0206 0.0
C738 C 0.7241 0.07404 0.01187 0.0
C739 C 0.758 0.05973 0.02174 0.0
C740 C 0.78716 0.06583 0.0276 0.0
C741 C 0.7033 0.04652 0.00709 0.0
C742 C 0.70972 0.02523 0.01108 0.0
C743 C 0.73705 0.03217 0.0179 0.0
C744 C 0.68839 0.99561 0.00896 0.0
C745 C 0.67477 0.04062 0.99744 0.0
C746 C 0.66539 0.98454 0.03077 0.0
C747 C 0.6461 0.95637 0.03008 0.0
C748 C 0.6497 0.9386 0.00797 0.0
C749 C 0.67267 0.94972 0.98603 0.0
C750 C 0.69181 0.97797 0.9865 0.0
H751 H 0.67539 0.05865 0.98468 0.0
H752 H 0.66443 0.02255 0.98008 0.0
H753 H 0.66212 0.03613 0.02096 0.0
H754 H 0.66267 0.99757 0.04897 0.0
H755 H 0.62878 0.94844 0.04755 0.0
H756 H 0.66585 0.81799 0.0876 0.0
H757 H 0.67982 0.7836 0.07734 0.0
H758 H 0.64174 0.76682 0.97762 0.0
H759 H 0.62746 0.80093 0.98794 0.0
H760 H 0.62806 0.71992 0.0117 0.0
H761 H 0.7412 0.78951 0.01721 0.0
H762 H 0.72396 0.79144 0.05491 0.0
H763 H 0.71737 0.80225 0.01434 0.0
C764 C 0.66077 0.80721 0.06335 0.0
C765 C 0.64559 0.81218 0.03857 0.0
C766 C 0.66881 0.78761 0.05747 0.0
C767 C 0.6622 0.77294 0.02648 0.0
C768 C 0.6471 0.77793 0.00168 0.0
H769 H 0.73521 0.67382 0.96471 0.0
H770 H 0.72001 0.70784 0.96677 0.0
C771 C 0.63888 0.79734 0.00766 0.0
C772 C 0.67015 0.75169 0.02037 0.0
H773 H 0.72515 0.74122 0.01904 0.0
C774 C 0.64931 0.72461 0.01306 0.0
C775 C 0.69792 0.75791 0.02157 0.0
C776 C 0.72143 0.78691 0.02708 0.0
C777 C 0.65541 0.70344 0.00778 0.0
C778 C 0.68303 0.7094 0.01069 0.0
C779 C 0.70394 0.73661 0.01713 0.0
C780 C 0.69073 0.68768 0.00783 0.0
C781 C 0.63222 0.67501 0.99876 0.0
C782 C 0.67924 0.66498 0.03012 0.0
C783 C 0.68769 0.64539 0.0288 0.0
C784 C 0.70814 0.64833 0.00549 0.0
C785 C 0.71942 0.67093 0.98294 0.0
C786 C 0.71079 0.69042 0.98413 0.0
H787 H 0.61458 0.67585 0.98704 0.0
H788 H 0.63922 0.66444 0.98072 0.0
H789 H 0.62465 0.66244 0.02242 0.0
H790 H 0.66423 0.66277 0.04919 0.0
H791 H 0.67872 0.62836 0.04672 0.0
H792 H 0.84481 0.68477 0.01765 0.0
H793 H 0.89265 0.69698 0.00626 0.0
H794 H 0.87587 0.61854 0.04743 0.0
H795 H 0.8278 0.60593 0.05717 0.0
H796 H 0.93278 0.70474 0.045 0.0
H797 H 0.91144 0.61728 0.96049 0.0
H798 H 0.8848 0.62445 0.97358 0.0
H799 H 0.89481 0.60507 0.00104 0.0
C800 C 0.85146 0.67022 0.02416 0.0
C801 C 0.83271 0.64436 0.03798 0.0
C802 C 0.87871 0.67712 0.01759 0.0
C803 C 0.88778 0.6584 0.02514 0.0
C804 C 0.8692 0.63292 0.0401 0.0
H805 H 0.05614 0.7021 0.06236 0.0
H806 H 0.00864 0.69237 0.06452 0.0
C807 C 0.84182 0.6258 0.04597 0.0
C808 C 0.91688 0.66593 0.01859 0.0
H809 H 0.957 0.64183 0.98466 0.0
C810 C 0.93804 0.6911 0.03144 0.0
C811 C 0.92392 0.64853 0.00015 0.0
C812 C 0.90252 0.62251 0.9827 0.0
C813 C 0.9659 0.69888 0.02746 0.0
C814 C 0.97283 0.68045 0.01147 0.0
C815 C 0.95174 0.65577 0.99747 0.0
C816 C 0.00169 0.686 0.00991 0.0
C817 C 0.98753 0.72697 0.0401 0.0
C818 C 0.01331 0.68432 0.97873 0.0
C819 C 0.04035 0.68914 0.97757 0.0
C820 C 0.0563 0.69599 0.00753 0.0
C821 C 0.04453 0.69734 0.03872 0.0
C822 C 0.0174 0.692 0.03996 0.0
H823 H 0.97973 0.74171 0.03976 0.0
H824 H 0.99288 0.72524 0.06698 0.0
H825 H 0.00655 0.73562 0.02434 0.0
H826 H 0.00151 0.67947 0.95523 0.0
H827 H 0.04891 0.68792 0.9532 0.0
H828 H 0.17603 0.78381 0.50555 0.0
H829 H 0.12881 0.74697 0.51614 0.0
H830 H 0.09983 0.77767 0.43441 0.0
H831 H 0.14711 0.81445 0.42328 0.0
H832 H 0.06891 0.76532 0.49685 0.0
H833 H 0.08383 0.67891 0.45424 0.0
H834 H 0.10795 0.70164 0.48565 0.0
H835 H 0.10778 0.71443 0.44356 0.0
C836 C 0.15972 0.78258 0.4895 0.0
C837 C 0.16546 0.802 0.46331 0.0
C838 C 0.13271 0.76152 0.49567 0.0
C839 C 0.11092 0.75939 0.47575 0.0
C840 C 0.11643 0.77895 0.45 0.0
H841 H 0.93597 0.65355 0.4566 0.0
H842 H 0.9838 0.69069 0.45509 0.0
C843 C 0.14344 0.80002 0.44377 0.0
C844 C 0.0823 0.73691 0.48188 0.0
H845 H 0.04037 0.66705 0.47745 0.0
C846 C 0.06264 0.74383 0.49266 0.0
C847 C 0.07429 0.70889 0.47662 0.0
C848 C 0.09445 0.7004 0.46413 0.0
C849 C 0.03508 0.72344 0.49827 0.0
C850 C 0.02692 0.69546 0.49225 0.0
C851 C 0.04671 0.68851 0.48211 0.0
C852 C 0.99768 0.67326 0.49443 0.0
C853 C 0.01502 0.73204 0.51083 0.0
C854 C 0.98966 0.65077 0.51659 0.0
C855 C 0.96222 0.62927 0.51739 0.0
C856 C 0.94241 0.62985 0.49582 0.0
C857 C 0.9506 0.65248 0.47373 0.0
C858 C 0.97795 0.67387 0.47296 0.0
H859 H 0.02581 0.75235 0.52397 0.0
H860 H 0.00374 0.73396 0.48864 0.0
H861 H 0.99972 0.71653 0.52873 0.0
H862 H 0.00466 0.64981 0.53317 0.0
H863 H 0.95664 0.61209 0.53456 0.0
H864 H 0.39793 0.17029 0.44353 0.0
H865 H 0.38738 0.12257 0.45161 0.0
H866 H 0.31282 0.10427 0.50546 0.0
H867 H 0.32275 0.15158 0.49583 0.0
H868 H 0.38156 0.092 0.50469 0.0
H869 H 0.28161 0.04439 0.43641 0.0
H870 H 0.30505 0.08107 0.43631 0.0
H871 H 0.28218 0.06483 0.47202 0.0
C872 C 0.37932 0.15599 0.45707 0.0
C873 C 0.36094 0.16438 0.46868 0.0
C874 C 0.37328 0.12877 0.4617 0.0
C875 C 0.34894 0.10957 0.47844 0.0
C876 C 0.3312 0.11835 0.49139 0.0
H877 H 0.32245 0.9488 0.54781 0.0
H878 H 0.33342 0.99699 0.54552 0.0
C879 C 0.33693 0.14539 0.48608 0.0
C880 C 0.34214 0.0804 0.48214 0.0
H881 H 0.29169 0.01396 0.46717 0.0
C882 C 0.36195 0.07492 0.49634 0.0
C883 C 0.31671 0.05809 0.47078 0.0
C884 C 0.29531 0.06237 0.4527 0.0
C885 C 0.35708 0.04785 0.49948 0.0
C886 C 0.33122 0.02551 0.48936 0.0
C887 C 0.3114 0.03102 0.47528 0.0
C888 C 0.3246 0.9963 0.49141 0.0
C889 C 0.38008 0.04363 0.51248 0.0
C890 C 0.31502 0.97953 0.46216 0.0
C891 C 0.30801 0.95189 0.46368 0.0
C892 C 0.31075 0.94045 0.4944 0.0
C893 C 0.32039 0.95717 0.52372 0.0
C894 C 0.32688 0.98477 0.52234 0.0
H895 H 0.40054 0.06249 0.50919 0.0
H896 H 0.37706 0.0388 0.54022 0.0
H897 H 0.38036 0.02631 0.49901 0.0
H898 H 0.31304 0.98787 0.43799 0.0
H899 H 0.3008 0.93958 0.44059 0.0
H900 H 0.21246 0.38901 0.50395 0.0
H901 H 0.24889 0.37825 0.51557 0.0
H902 H 0.21985 0.31984 0.43239 0.0
H903 H 0.1835 0.33072 0.42024 0.0
H904 H 0.23091 0.30033 0.49514 0.0
H905 H 0.31803 0.40228 0.45525 0.0
H906 H 0.2947 0.40314 0.48616 0.0
H907 H 0.28272 0.39081 0.44363 0.0
C908 C 0.21397 0.37411 0.48783 0.0
C909 C 0.19518 0.36092 0.46091 0.0
C910 C 0.23478 0.36794 0.4946 0.0
C911 C 0.23725 0.34855 0.47454 0.0
C912 C 0.21828 0.33494 0.4481 0.0
H913 H 0.34249 0.27958 0.45341 0.0
H914 H 0.30545 0.29038 0.45284 0.0
C915 C 0.19746 0.3411 0.44128 0.0
C916 C 0.25959 0.34233 0.4811 0.0
H917 H 0.32943 0.37015 0.47759 0.0
C918 C 0.25246 0.31558 0.4914 0.0
C919 C 0.28767 0.36238 0.47643 0.0
C920 C 0.29637 0.39123 0.46452 0.0
C921 C 0.27271 0.30826 0.49697 0.0
C922 C 0.30075 0.32809 0.49141 0.0
C923 C 0.30792 0.35502 0.48188 0.0
C924 C 0.32279 0.32086 0.49317 0.0
C925 C 0.26392 0.27939 0.5089 0.0
C926 C 0.34517 0.33483 0.5156 0.0
C927 C 0.3666 0.3288 0.51588 0.0
C928 C 0.36605 0.30887 0.4935 0.0
C929 C 0.34353 0.29492 0.47115 0.0
C930 C 0.32219 0.30094 0.47092 0.0
H931 H 0.24353 0.26975 0.52185 0.0
H932 H 0.26207 0.26647 0.48641 0.0
H933 H 0.27927 0.27927 0.52677 0.0
H934 H 0.34611 0.35047 0.53277 0.0
H935 H 0.38371 0.34002 0.53327 0.0
H936 H 0.05019 0.37025 0.54345 0.0
H937 H 0.003 0.33092 0.54264 0.0
H938 H 0.01044 0.32084 0.43435 0.0
H939 H 0.05784 0.35902 0.43544 0.0
H940 H 0.95833 0.32207 0.51225 0.0
H941 H 0.98244 0.24386 0.46429 0.0
H942 H 0.00896 0.27758 0.47792 0.0
H943 H 0.99505 0.27231 0.43517 0.0
C944 C 0.04175 0.35947 0.51956 0.0
C945 C 0.05776 0.36745 0.48961 0.0
C946 C 0.0148 0.33701 0.5191 0.0
C947 C 0.00333 0.32238 0.4886 0.0
C948 C 0.01909 0.33102 0.45847 0.0
H949 H 0.82906 0.2235 0.44446 0.0
H950 H 0.8769 0.26015 0.45253 0.0
C951 C 0.04614 0.35303 0.45907 0.0
C952 C 0.97461 0.29871 0.48787 0.0
H953 H 0.93523 0.23277 0.45867 0.0
C954 C 0.95333 0.30242 0.50091 0.0
C955 C 0.96801 0.2728 0.47382 0.0
C956 C 0.98989 0.26631 0.4624 0.0
C957 C 0.92564 0.28134 0.49922 0.0
C958 C 0.91889 0.2562 0.48271 0.0
C959 C 0.94025 0.25217 0.47076 0.0
C960 C 0.88988 0.2339 0.47729 0.0
C961 C 0.90406 0.2862 0.51571 0.0
C962 C 0.88147 0.20661 0.48686 0.0
C963 C 0.85434 0.18553 0.48124 0.0
C964 C 0.83506 0.19142 0.4664 0.0
C965 C 0.84349 0.2186 0.45649 0.0
C966 C 0.87075 0.23955 0.46139 0.0
H967 H 0.91298 0.30139 0.53693 0.0
H968 H 0.89589 0.2948 0.49641 0.0
H969 H 0.88668 0.2668 0.52602 0.0
H970 H 0.89584 0.20163 0.49896 0.0
H971 H 0.84822 0.16472 0.4892 0.0
H972 H 0.68127 0.05176 0.45659 0.0
H973 H 0.66593 0.00267 0.455 0.0
H974 H 0.7189 0.01262 0.54044 0.0
H975 H 0.73505 0.06211 0.54157 0.0
H976 H 0.72487 0.9837 0.49062 0.0
H977 H 0.61348 0.9402 0.51489 0.0
H978 H 0.62494 0.96361 0.47939 0.0
H979 H 0.63824 0.97618 0.5216 0.0
C980 C 0.68944 0.04351 0.47537 0.0
C981 C 0.7094 0.0609 0.49925 0.0
C982 C 0.68047 0.01534 0.47456 0.0
C983 C 0.69088 0.00382 0.49798 0.0
C984 C 0.71047 0.02103 0.52224 0.0
H985 H 0.62248 0.82534 0.51105 0.0
H986 H 0.63675 0.87345 0.52378 0.0
C987 C 0.71965 0.04931 0.52288 0.0
C988 C 0.68271 0.97422 0.49553 0.0
H989 H 0.62689 0.9093 0.49041 0.0
C990 C 0.70346 0.9674 0.49097 0.0
C991 C 0.6548 0.95289 0.49649 0.0
C992 C 0.63163 0.95856 0.50373 0.0
C993 C 0.69703 0.93998 0.48621 0.0
C994 C 0.66904 0.91885 0.48503 0.0
C995 C 0.64834 0.92554 0.49079 0.0
C996 C 0.66078 0.88972 0.47749 0.0
C997 C 0.72034 0.93396 0.48279 0.0
C998 C 0.66925 0.8828 0.44705 0.0
C999 C 0.66126 0.85536 0.43985 0.0
C1000 C 0.64422 0.83422 0.46264 0.0
C1001 C 0.63541 0.84114 0.49285 0.0
C1002 C 0.64363 0.86862 0.50021 0.0
H1003 H 0.73952 0.95032 0.49494 0.0
H1004 H 0.71496 0.91384 0.49458 0.0
H1005 H 0.72476 0.9332 0.45525 0.0
H1006 H 0.68181 0.89861 0.42864 0.0
H1007 H 0.66796 0.85061 0.41612 0.0
H1008 H 0.65381 0.71599 0.45091 0.0
H1009 H 0.68988 0.70382 0.44772 0.0
H1010 H 0.65177 0.64593 0.53043 0.0
H1011 H 0.61538 0.65807 0.53402 0.0
H1012 H 0.71116 0.68102 0.53516 0.0
H1013 H 0.67701 0.62929 0.40895 0.0
H1014 H 0.68191 0.66352 0.41039 0.0
H1015 H 0.65525 0.63667 0.4358 0.0
C1016 C 0.65303 0.7007 0.46855 0.0
C1017 C 0.63155 0.68784 0.49259 0.0
C1018 C 0.67364 0.69371 0.46657 0.0
C1019 C 0.67321 0.67369 0.48846 0.0
C1020 C 0.65232 0.66133 0.51317 0.0
H1021 H 0.77065 0.59413 0.45699 0.0
H1022 H 0.73345 0.60403 0.46711 0.0
C1023 C 0.63157 0.66829 0.51517 0.0
C1024 C 0.69452 0.6656 0.48511 0.0
H1025 H 0.72074 0.63798 0.42889 0.0
C1026 C 0.7132 0.67145 0.51205 0.0
C1027 C 0.69687 0.65284 0.45507 0.0
C1028 C 0.67656 0.64495 0.42598 0.0
C1029 C 0.73472 0.66554 0.50933 0.0
C1030 C 0.73772 0.65379 0.47871 0.0
C1031 C 0.71856 0.64726 0.45218 0.0
C1032 C 0.7605 0.64793 0.47364 0.0
C1033 C 0.75392 0.6717 0.5393 0.0
C1034 C 0.78804 0.6694 0.47357 0.0
C1035 C 0.80941 0.66379 0.46793 0.0
C1036 C 0.8036 0.6366 0.46216 0.0
C1037 C 0.77592 0.61522 0.46193 0.0
C1038 C 0.7546 0.62085 0.46751 0.0
H1039 H 0.74479 0.67393 0.56349 0.0
H1040 H 0.75918 0.65518 0.54268 0.0
H1041 H 0.77333 0.69136 0.53452 0.0
H1042 H 0.79301 0.69052 0.4776 0.0
H1043 H 0.83046 0.68069 0.46849 0.0
H1044 H 0.47908 0.2644 0.39607 0.0
H1045 H 0.49354 0.2546 0.34104 0.0
H1046 H 0.42362 0.25279 0.29197 0.0
H1047 H 0.40998 0.26378 0.34615 0.0
H1048 H 0.46964 0.21174 0.30266 0.0
H1049 H 0.48103 0.29828 0.22441 0.0
H1050 H 0.47777 0.29808 0.27037 0.0
H1051 H 0.44749 0.28192 0.2435 0.0
C1052 C 0.46711 0.26231 0.37335 0.0
C1053 C 0.44353 0.26503 0.37528 0.0
C1054 C 0.47538 0.25675 0.34196 0.0
C1055 C 0.46009 0.25364 0.3121 0.0
C1056 C 0.43643 0.25618 0.31424 0.0
H1057 H 0.41687 0.14435 0.14892 0.0
H1058 H 0.42927 0.16826 0.20355 0.0
C1059 C 0.42846 0.26218 0.34537 0.0
C1060 C 0.46707 0.24526 0.27923 0.0
H1061 H 0.46744 0.25535 0.19315 0.0
C1062 C 0.46983 0.22169 0.27876 0.0
C1063 C 0.46834 0.25865 0.24799 0.0
C1064 C 0.46884 0.28583 0.24671 0.0
C1065 C 0.47132 0.20981 0.2478 0.0
C1066 C 0.46884 0.22117 0.21652 0.0
C1067 C 0.46863 0.24613 0.21703 0.0
C1068 C 0.46337 0.20609 0.18356 0.0
C1069 C 0.47499 0.18492 0.24911 0.0
C1070 C 0.47782 0.21956 0.15366 0.0
C1071 C 0.47019 0.20607 0.122 0.0
C1072 C 0.44813 0.17884 0.11983 0.0
C1073 C 0.43419 0.16521 0.14983 0.0
C1074 C 0.44148 0.17881 0.18124 0.0
H1075 H 0.48788 0.18616 0.2714 0.0
H1076 H 0.45456 0.16607 0.25239 0.0
H1077 H 0.48477 0.18283 0.22544 0.0
H1078 H 0.49462 0.24069 0.15471 0.0
H1079 H 0.48126 0.21706 0.09923 0.0
H1080 H 0.26522 0.48236 0.09932 0.0
H1081 H 0.25585 0.49729 0.1543 0.0
H1082 H 0.25961 0.43078 0.20503 0.0
H1083 H 0.2704 0.41693 0.15096 0.0
H1084 H 0.21452 0.47331 0.19337 0.0
H1085 H 0.30231 0.48904 0.27193 0.0
H1086 H 0.30222 0.4851 0.22609 0.0
H1087 H 0.28735 0.45525 0.2538 0.0
C1088 C 0.2646 0.47136 0.12241 0.0
C1089 C 0.26874 0.44863 0.12094 0.0
C1090 C 0.25925 0.47988 0.1538 0.0
C1091 C 0.25767 0.46562 0.18413 0.0
C1092 C 0.26184 0.44291 0.18244 0.0
H1093 H 0.14634 0.41827 0.34527 0.0
H1094 H 0.1712 0.43171 0.29137 0.0
C1095 C 0.26772 0.43479 0.15133 0.0
C1096 C 0.24882 0.47227 0.21696 0.0
H1097 H 0.25865 0.47286 0.30319 0.0
C1098 C 0.22461 0.47392 0.21731 0.0
C1099 C 0.26231 0.47414 0.24835 0.0
C1100 C 0.29017 0.47614 0.24989 0.0
C1101 C 0.21226 0.47477 0.24819 0.0
C1102 C 0.22372 0.47265 0.27957 0.0
C1103 C 0.24929 0.47367 0.27923 0.0
C1104 C 0.2082 0.46625 0.31236 0.0
C1105 C 0.18677 0.47741 0.24665 0.0
C1106 C 0.22093 0.48048 0.3427 0.0
C1107 C 0.20689 0.47222 0.37402 0.0
C1108 C 0.17984 0.44975 0.3754 0.0
C1109 C 0.16702 0.43593 0.34499 0.0
C1110 C 0.18116 0.44382 0.31397 0.0
H1111 H 0.18781 0.4904 0.22456 0.0
H1112 H 0.16841 0.4567 0.2428 0.0
H1113 H 0.18396 0.48659 0.27042 0.0
H1114 H 0.24187 0.49768 0.34224 0.0
H1115 H 0.21728 0.48319 0.39712 0.0
H1116 H 0.86024 0.27029 0.14849 0.0
H1117 H 0.83696 0.25557 0.20358 0.0
H1118 H 0.76549 0.25508 0.16142 0.0
H1119 H 0.78831 0.26849 0.10548 0.0
H1120 H 0.81665 0.27544 0.24834 0.0
H1121 H 0.73104 0.17781 0.19568 0.0
H1122 H 0.76101 0.20045 0.17075 0.0
H1123 H 0.73391 0.2084 0.17706 0.0
C1124 C 0.83965 0.26728 0.151 0.0
C1125 C 0.82593 0.27021 0.12268 0.0
C1126 C 0.82636 0.25889 0.18253 0.0
C1127 C 0.79923 0.25361 0.18647 0.0
C1128 C 0.78609 0.25819 0.15871 0.0
H1129 H 0.73478 0.21127 0.39739 0.0
H1130 H 0.7481 0.2353 0.34223 0.0
C1131 C 0.79921 0.26606 0.12688 0.0
C1132 C 0.78467 0.24212 0.21931 0.0
H1133 H 0.72993 0.18537 0.25458 0.0
C1134 C 0.79757 0.25583 0.24975 0.0
C1135 C 0.75988 0.2164 0.22104 0.0
C1136 C 0.74574 0.19975 0.18945 0.0
C1137 C 0.78713 0.24401 0.28187 0.0
C1138 C 0.7624 0.21825 0.2836 0.0
C1139 C 0.74881 0.20516 0.25318 0.0
C1140 C 0.7518 0.20312 0.3163 0.0
C1141 C 0.80365 0.2585 0.3134 0.0
C1142 C 0.748 0.17646 0.31955 0.0
C1143 C 0.73967 0.16245 0.35065 0.0
C1144 C 0.73532 0.17497 0.37922 0.0
C1145 C 0.73832 0.20131 0.37579 0.0
C1146 C 0.74613 0.21512 0.3444 0.0
H1147 H 0.82524 0.27421 0.30699 0.0
H1148 H 0.79404 0.26923 0.32634 0.0
H1149 H 0.80412 0.24358 0.3317 0.0
H1150 H 0.75219 0.16674 0.29822 0.0
H1151 H 0.73756 0.14219 0.3526 0.0
H1152 H 0.53263 0.7821 0.09967 0.0
H1153 H 0.52353 0.75901 0.15538 0.0
H1154 H 0.56232 0.83803 0.20602 0.0
H1155 H 0.5717 0.86121 0.15068 0.0
H1156 H 0.58544 0.80471 0.22066 0.0
H1157 H 0.47161 0.74751 0.2378 0.0
H1158 H 0.48406 0.74328 0.19709 0.0
H1159 H 0.48899 0.77642 0.20889 0.0
C1160 C 0.53865 0.7945 0.12273 0.0
C1161 C 0.55309 0.82345 0.12086 0.0
C1162 C 0.53329 0.78128 0.15451 0.0
C1163 C 0.54211 0.79685 0.18475 0.0
C1164 C 0.55526 0.82568 0.18293 0.0
H1165 H 0.53518 0.7543 0.39872 0.0
H1166 H 0.52649 0.76854 0.34292 0.0
C1167 C 0.56066 0.83888 0.15129 0.0
C1168 C 0.54112 0.78356 0.21781 0.0
H1169 H 0.49793 0.7385 0.27816 0.0
C1170 C 0.5663 0.79029 0.23327 0.0
C1171 C 0.51611 0.76485 0.23412 0.0
C1172 C 0.48859 0.75765 0.21886 0.0
C1173 C 0.56722 0.77873 0.26462 0.0
C1174 C 0.54226 0.75959 0.28069 0.0
C1175 C 0.51699 0.753 0.26549 0.0
C1176 C 0.54252 0.74686 0.31365 0.0
C1177 C 0.59494 0.78734 0.28055 0.0
C1178 C 0.55341 0.72917 0.3154 0.0
C1179 C 0.55858 0.72121 0.34708 0.0
C1180 C 0.55274 0.73067 0.37751 0.0
C1181 C 0.53996 0.74677 0.37567 0.0
C1182 C 0.53492 0.75485 0.34388 0.0
H1183 H 0.61172 0.80637 0.2686 0.0
H1184 H 0.59463 0.79097 0.30845 0.0
H1185 H 0.59985 0.7706 0.27704 0.0
H1186 H 0.55916 0.72263 0.29225 0.0
H1187 H 0.56817 0.70855 0.34771 0.0
H1188 H 0.78104 0.53237 0.39893 0.0
H1189 H 0.75888 0.52472 0.3428 0.0
H1190 H 0.83846 0.56097 0.29378 0.0
H1191 H 0.86073 0.56896 0.34961 0.0
H1192 H 0.80826 0.58652 0.27805 0.0
H1193 H 0.74513 0.47307 0.26035 0.0
H1194 H 0.74074 0.48573 0.30079 0.0
H1195 H 0.7734 0.48883 0.2904 0.0
C1196 C 0.79373 0.53807 0.37613 0.0
C1197 C 0.82262 0.55147 0.37862 0.0
C1198 C 0.78103 0.53355 0.34409 0.0
C1199 C 0.79704 0.54215 0.31417 0.0
C1200 C 0.82576 0.55412 0.31659 0.0
H1201 H 0.75181 0.53538 0.10057 0.0
H1202 H 0.7668 0.52696 0.15598 0.0
C1203 C 0.83844 0.55871 0.34852 0.0
C1204 C 0.78448 0.5422 0.28091 0.0
H1205 H 0.73764 0.50106 0.22076 0.0
C1206 C 0.79292 0.56781 0.26545 0.0
C1207 C 0.76455 0.51776 0.26458 0.0
C1208 C 0.75552 0.48973 0.27965 0.0
C1209 C 0.78181 0.56972 0.2342 0.0
C1210 C 0.76136 0.54537 0.21824 0.0
C1211 C 0.75313 0.51966 0.23335 0.0
C1212 C 0.74878 0.54662 0.18556 0.0
C1213 C 0.79227 0.59781 0.21831 0.0
C1214 C 0.73297 0.55964 0.18413 0.0
C1215 C 0.72455 0.56461 0.15264 0.0
C1216 C 0.73167 0.55647 0.12208 0.0
C1217 C 0.7461 0.54196 0.12371 0.0
C1218 C 0.75461 0.53707 0.15529 0.0
H1219 H 0.81211 0.61356 0.2298 0.0
H1220 H 0.79519 0.59711 0.19028 0.0
H1221 H 0.7769 0.6045 0.22248 0.0
H1222 H 0.72803 0.56686 0.20733 0.0
H1223 H 0.71323 0.57561 0.15221 0.0
H1224 H 0.214 0.73612 0.10198 0.0
H1225 H 0.23856 0.7451 0.15671 0.0
H1226 H 0.1709 0.74662 0.20753 0.0
H1227 H 0.14596 0.73635 0.15367 0.0
H1228 H 0.25819 0.78714 0.19582 0.0
H1229 H 0.18285 0.70071 0.27391 0.0
H1230 H 0.17934 0.70125 0.22806 0.0
H1231 H 0.16579 0.7175 0.25575 0.0
C1232 C 0.20427 0.73794 0.12502 0.0
C1233 C 0.17801 0.73534 0.12366 0.0
C1234 C 0.21828 0.74303 0.15625 0.0
C1235 C 0.20633 0.74585 0.18654 0.0
C1236 C 0.18016 0.74343 0.18495 0.0
H1237 H 0.27455 0.85467 0.34936 0.0
H1238 H 0.26267 0.83065 0.29488 0.0
C1239 C 0.166 0.73784 0.15398 0.0
C1240 C 0.22192 0.75385 0.2193 0.0
H1241 H 0.2126 0.7435 0.30543 0.0
C1242 C 0.24846 0.77716 0.21971 0.0
C1243 C 0.20988 0.7404 0.25057 0.0
C1244 C 0.18304 0.71338 0.25192 0.0
C1245 C 0.26209 0.78878 0.25064 0.0
C1246 C 0.24834 0.77749 0.28199 0.0
C1247 C 0.22296 0.75272 0.28151 0.0
C1248 C 0.2582 0.79255 0.31497 0.0
C1249 C 0.29088 0.81335 0.2492 0.0
C1250 C 0.2589 0.77901 0.34496 0.0
C1251 C 0.26498 0.7926 0.3766 0.0
C1252 C 0.27066 0.82 0.37867 0.0
C1253 C 0.27064 0.83368 0.34857 0.0
C1254 C 0.26411 0.82001 0.31721 0.0
H1255 H 0.30232 0.8118 0.22687 0.0
H1256 H 0.28969 0.8324 0.24586 0.0
H1257 H 0.30274 0.81528 0.27282 0.0
H1258 H 0.25416 0.75775 0.34399 0.0
H1259 H 0.26479 0.78154 0.39944 0.0
H1260 H 0.61861 0.78834 0.61367 0.0
H1261 H 0.61621 0.80147 0.67254 0.0
H1262 H 0.52859 0.74447 0.67391 0.0
H1263 H 0.53106 0.72979 0.61589 0.0
H1264 H 0.58952 0.82474 0.70001 0.0
H1265 H 0.55184 0.72216 0.75937 0.0
H1266 H 0.56414 0.72952 0.71586 0.0
H1267 H 0.52958 0.72159 0.72602 0.0
C1268 C 0.59889 0.77813 0.62666 0.0
C1269 C 0.57508 0.75771 0.61006 0.0
C1270 C 0.59752 0.78591 0.66023 0.0
C1271 C 0.57232 0.7736 0.67787 0.0
C1272 C 0.54839 0.75376 0.66113 0.0
H1273 H 0.54637 0.84225 0.86607 0.0
H1274 H 0.54624 0.82829 0.80656 0.0
C1275 C 0.54979 0.74569 0.62771 0.0
C1276 C 0.57111 0.78183 0.7136 0.0
H1277 H 0.55155 0.75663 0.79453 0.0
C1278 C 0.5813 0.80987 0.72073 0.0
C1279 C 0.56073 0.76245 0.74067 0.0
C1280 C 0.55122 0.73231 0.73522 0.0
C1281 C 0.58135 0.81907 0.75415 0.0
C1282 C 0.57005 0.79955 0.781 0.0
C1283 C 0.55992 0.77153 0.77387 0.0
C1284 C 0.56954 0.80776 0.81696 0.0
C1285 C 0.59425 0.84966 0.76042 0.0
C1286 C 0.58178 0.80002 0.84274 0.0
C1287 C 0.58136 0.80747 0.87671 0.0
C1288 C 0.56886 0.82297 0.88553 0.0
C1289 C 0.55644 0.83059 0.85981 0.0
C1290 C 0.5565 0.82276 0.82584 0.0
H1291 H 0.6088 0.8619 0.73963 0.0
H1292 H 0.57781 0.85519 0.76127 0.0
H1293 H 0.60554 0.85568 0.78513 0.0
H1294 H 0.59192 0.78841 0.83651 0.0
H1295 H 0.59128 0.80153 0.89603 0.0
H1296 H 0.82685 0.61448 0.61539 0.0
H1297 H 0.81025 0.61148 0.67384 0.0
H1298 H 0.77824 0.52362 0.67355 0.0
H1299 H 0.79624 0.52662 0.61582 0.0
H1300 H 0.75909 0.58418 0.70007 0.0
H1301 H 0.82368 0.5462 0.75981 0.0
H1302 H 0.82921 0.55923 0.7166 0.0
H1303 H 0.80231 0.52458 0.72576 0.0
C1304 C 0.81674 0.59456 0.62791 0.0
C1305 C 0.81323 0.57084 0.61097 0.0
C1306 C 0.80699 0.59285 0.66122 0.0
C1307 C 0.79343 0.56741 0.67827 0.0
C1308 C 0.78921 0.54357 0.66117 0.0
H1309 H 0.69998 0.54231 0.86784 0.0
H1310 H 0.71291 0.54121 0.80813 0.0
C1311 C 0.7992 0.54529 0.62797 0.0
C1312 C 0.78367 0.56595 0.71387 0.0
H1313 H 0.78958 0.54693 0.79499 0.0
C1314 C 0.76576 0.57606 0.72087 0.0
C1315 C 0.79268 0.55565 0.741 0.0
C1316 C 0.81324 0.54605 0.73556 0.0
C1317 C 0.75664 0.57623 0.75428 0.0
C1318 C 0.76509 0.56527 0.78126 0.0
C1319 C 0.78292 0.55507 0.77422 0.0
C1320 C 0.75688 0.56543 0.81728 0.0
C1321 C 0.73881 0.58897 0.76046 0.0
C1322 C 0.77727 0.57866 0.84238 0.0
C1323 C 0.76995 0.57891 0.87644 0.0
C1324 C 0.74207 0.56604 0.88607 0.0
C1325 C 0.72162 0.55268 0.86099 0.0
C1326 C 0.72898 0.55215 0.82691 0.0
H1327 H 0.74047 0.60291 0.73921 0.0
H1328 H 0.71694 0.57238 0.76229 0.0
H1329 H 0.74452 0.60089 0.78472 0.0
H1330 H 0.79892 0.58903 0.83555 0.0
H1331 H 0.78613 0.5896 0.89519 0.0
H1332 H 0.27545 0.80607 0.62069 0.0
H1333 H 0.26192 0.7904 0.67977 0.0
H1334 H 0.19384 0.80547 0.67114 0.0
H1335 H 0.20688 0.82065 0.61193 0.0
H1336 H 0.25721 0.82145 0.73466 0.0
H1337 H 0.15837 0.72552 0.70798 0.0
H1338 H 0.18451 0.74308 0.67567 0.0
H1339 H 0.16197 0.75588 0.68751 0.0
C1340 C 0.25741 0.80573 0.63127 0.0
C1341 C 0.24223 0.81459 0.61167 0.0
C1342 C 0.24981 0.79692 0.66502 0.0
C1343 C 0.22673 0.79651 0.67962 0.0
C1344 C 0.2115 0.80528 0.66015 0.0
H1345 H 0.18089 0.7935 0.89073 0.0
H1346 H 0.1958 0.80505 0.83122 0.0
C1347 C 0.21915 0.81421 0.62646 0.0
C1348 C 0.21909 0.78782 0.71561 0.0
H1349 H 0.16717 0.74042 0.76599 0.0
C1350 C 0.23761 0.80365 0.74155 0.0
C1351 C 0.19364 0.76442 0.72441 0.0
C1352 C 0.17353 0.74605 0.69747 0.0
C1353 C 0.23099 0.7971 0.77621 0.0
C1354 C 0.2051 0.77431 0.78504 0.0
C1355 C 0.18691 0.75802 0.75908 0.0
C1356 C 0.19631 0.76733 0.82111 0.0
C1357 C 0.25177 0.81456 0.80311 0.0
C1358 C 0.19119 0.74207 0.83489 0.0
C1359 C 0.18251 0.73533 0.86885 0.0
C1360 C 0.17851 0.75363 0.88945 0.0
C1361 C 0.18353 0.77886 0.87543 0.0
C1362 C 0.19231 0.78562 0.84156 0.0
H1363 H 0.27286 0.82675 0.79226 0.0
H1364 H 0.2459 0.82919 0.81402 0.0
H1365 H 0.25219 0.80155 0.82429 0.0
H1366 H 0.19399 0.72762 0.81938 0.0
H1367 H 0.17852 0.71563 0.87882 0.0
H1368 H 0.44787 0.22891 0.90009 0.0
H1369 H 0.4503 0.24502 0.84127 0.0
H1370 H 0.41369 0.16135 0.80468 0.0
H1371 H 0.41139 0.14505 0.86333 0.0
H1372 H 0.47678 0.2383 0.78289 0.0
H1373 H 0.36341 0.18911 0.76595 0.0
H1374 H 0.37933 0.19362 0.80742 0.0
H1375 H 0.37504 0.16606 0.77984 0.0
C1376 C 0.44059 0.21396 0.8795 0.0
C1377 C 0.42932 0.18567 0.88638 0.0
C1378 C 0.4419 0.2232 0.84596 0.0
C1379 C 0.43184 0.20433 0.81878 0.0
C1380 C 0.42107 0.17617 0.82543 0.0
H1381 H 0.45576 0.23401 0.60031 0.0
H1382 H 0.45818 0.22232 0.66009 0.0
C1383 C 0.41974 0.1669 0.85894 0.0
C1384 C 0.43245 0.21406 0.78344 0.0
H1385 H 0.39096 0.20864 0.71647 0.0
C1386 C 0.45805 0.23193 0.76834 0.0
C1387 C 0.40794 0.20594 0.76479 0.0
C1388 C 0.37983 0.18783 0.78035 0.0
C1389 C 0.4598 0.2415 0.73471 0.0
C1390 C 0.4353 0.23268 0.71571 0.0
C1391 C 0.40971 0.2152 0.73106 0.0
C1392 C 0.4356 0.24137 0.67987 0.0
C1393 C 0.48777 0.26125 0.71996 0.0
C1394 C 0.42193 0.25574 0.67121 0.0
C1395 C 0.42048 0.26239 0.63714 0.0
C1396 C 0.43255 0.25466 0.61104 0.0
C1397 C 0.44663 0.24063 0.61987 0.0
C1398 C 0.44803 0.23394 0.654 0.0
H1399 H 0.50356 0.27136 0.74032 0.0
H1400 H 0.49442 0.24973 0.70307 0.0
H1401 H 0.48702 0.27745 0.7044 0.0
H1402 H 0.41217 0.26161 0.69082 0.0
H1403 H 0.40976 0.27348 0.63119 0.0
H1404 H 0.26391 0.40305 0.86692 0.0
H1405 H 0.25154 0.40454 0.80725 0.0
H1406 H 0.2059 0.44416 0.83809 0.0
H1407 H 0.2179 0.4425 0.89791 0.0
H1408 H 0.19853 0.38097 0.77862 0.0
H1409 H 0.25691 0.49467 0.76167 0.0
H1410 H 0.26312 0.4776 0.79689 0.0
H1411 H 0.23402 0.48288 0.79783 0.0
C1412 C 0.25112 0.41197 0.86106 0.0
C1413 C 0.24197 0.42274 0.8872 0.0
C1414 C 0.2442 0.41292 0.82693 0.0
C1415 C 0.22814 0.4248 0.81824 0.0
C1416 C 0.21882 0.43544 0.84421 0.0
H1417 H 0.13805 0.40365 0.62972 0.0
H1418 H 0.15221 0.40391 0.68898 0.0
C1419 C 0.22572 0.43449 0.87838 0.0
C1420 C 0.22049 0.42527 0.78206 0.0
H1421 H 0.22659 0.46842 0.71664 0.0
C1422 C 0.2047 0.40007 0.76502 0.0
C1423 C 0.22887 0.45025 0.76432 0.0
C1424 C 0.24688 0.47792 0.78094 0.0
C1425 C 0.19666 0.39915 0.73081 0.0
C1426 C 0.20434 0.4241 0.71338 0.0
C1427 C 0.22054 0.44933 0.73022 0.0
C1428 C 0.19583 0.4244 0.67758 0.0
C1429 C 0.18033 0.3715 0.71345 0.0
C1430 C 0.21572 0.43641 0.65168 0.0
C1431 C 0.20771 0.43626 0.61775 0.0
C1432 C 0.17963 0.42422 0.60916 0.0
C1433 C 0.15981 0.41264 0.63536 0.0
C1434 C 0.16785 0.41279 0.66924 0.0
H1435 H 0.18193 0.35506 0.72736 0.0
H1436 H 0.15826 0.36566 0.71267 0.0
H1437 H 0.18746 0.37239 0.68671 0.0
H1438 H 0.23744 0.44552 0.65765 0.0
H1439 H 0.22349 0.44507 0.59818 0.0
H1440 H 0.78514 0.20878 0.90186 0.0
H1441 H 0.768 0.1939 0.84372 0.0
H1442 H 0.8187 0.27722 0.80744 0.0
H1443 H 0.83564 0.29247 0.86579 0.0
H1444 H 0.76114 0.2473 0.78258 0.0
H1445 H 0.81775 0.18997 0.7664 0.0
H1446 H 0.79706 0.18212 0.80442 0.0
H1447 H 0.82657 0.21587 0.79907 0.0
C1448 C 0.79239 0.22403 0.88161 0.0
C1449 C 0.8118 0.2518 0.88837 0.0
C1450 C 0.78273 0.21544 0.84841 0.0
C1451 C 0.79232 0.23444 0.8214 0.0
C1452 C 0.81118 0.26228 0.82806 0.0
H1453 H 0.78627 0.20533 0.60481 0.0
H1454 H 0.79878 0.22097 0.66382 0.0
C1455 C 0.82096 0.2709 0.86129 0.0
C1456 C 0.78318 0.22506 0.78602 0.0
H1457 H 0.78733 0.1859 0.72197 0.0
C1458 C 0.7668 0.23386 0.76925 0.0
C1459 C 0.79085 0.20773 0.76881 0.0
C1460 C 0.8092 0.19847 0.78538 0.0
C1461 C 0.75767 0.22555 0.73557 0.0
C1462 C 0.76505 0.20791 0.71855 0.0
C1463 C 0.78157 0.19926 0.7353 0.0
C1464 C 0.7569 0.19907 0.68277 0.0
C1465 C 0.74071 0.23609 0.71817 0.0
C1466 C 0.72917 0.18147 0.67401 0.0
C1467 C 0.72191 0.17251 0.64021 0.0
C1468 C 0.7423 0.18108 0.61472 0.0
C1469 C 0.77004 0.19873 0.62373 0.0
C1470 C 0.77725 0.20755 0.65744 0.0
H1471 H 0.74123 0.25353 0.73238 0.0
H1472 H 0.74822 0.24294 0.69169 0.0
H1473 H 0.71895 0.21918 0.71657 0.0
H1474 H 0.71322 0.17442 0.69338 0.0
H1475 H 0.70037 0.15903 0.634 0.0
loop_
_geom_bond_atom_site_label_1
_geom_bond_atom_site_label_2
_geom_bond_distance
_geom_bond_site_symmetry_2
_ccdc_geom_bond_type
Co0 N4 2.148 . S
Co0 N10 2.128 . S
Co0 N20 2.194 1_554 S
Co0 O25 2.351 . S
Co0 O26 2.155 . S
Co0 O27 2.096 . S
C1 N4 1.301 . S
C1 N5 1.328 . S
C1 H6 0.930 . S
C2 C3 1.333 . S
C2 N4 1.317 . S
C2 H7 0.930 . S
C3 C2 1.333 . S
C3 N5 1.350 . S
C3 H29 0.931 . S
N4 Co0 2.148 . S
N4 C1 1.301 . S
N4 C2 1.317 . S
N5 C1 1.328 . S
N5 C3 1.350 . S
H6 C1 0.930 . S
H7 C2 0.930 . S
C8 O9 1.224 1_554 S
C8 O27 1.247 . S
O9 C8 1.224 1_556 S
N10 Co0 2.128 . S
N10 C11 1.355 . S
N10 C13 1.311 . S
C11 N10 1.355 . S
C11 C12 1.363 . S
C11 H23 0.929 . S
C12 C11 1.363 . S
C12 N14 1.375 . S
C12 H30 0.931 . S
C13 N10 1.311 . S
C13 N14 1.347 . S
C13 H24 0.929 . S
N14 C12 1.375 . S
N14 C13 1.347 . S
C15 C18 1.365 . S
C15 N20 1.328 . S
C15 H21 0.929 1_556 S
C16 C17 1.362 . S
C16 C19 1.378 . S
C16 H31 0.929 . S
C17 C16 1.362 . S
C17 C18 1.366 . S
C18 C15 1.365 . S
C18 C17 1.366 . S
C18 H32 0.930 . S
C19 C16 1.378 . S
C19 N20 1.315 . S
C19 H22 0.930 . S
N20 Co0 2.194 1_556 S
N20 C15 1.328 . S
N20 C19 1.315 . S
H21 C15 0.929 1_554 S
H22 C19 0.930 . S
H23 C11 0.929 . S
H24 C13 0.929 . S
O25 Co0 2.351 . S
O25 C28 1.244 . S
O26 Co0 2.155 . S
O26 C28 1.240 . S
O27 Co0 2.096 . S
O27 C8 1.247 . S
C28 O25 1.244 . S
C28 O26 1.240 . S
H29 C3 0.931 . S
H30 C12 0.931 . S
H31 C16 0.929 . S
H32 C18 0.930 . S
Co33 N37 2.148 . S
Co33 N43 2.128 . S
Co33 N53 2.194 1_554 S
Co33 O58 2.351 . S
Co33 O59 2.155 . S
Co33 O60 2.096 . S
C34 N37 1.301 . S
C34 N38 1.328 . S
C34 H39 0.930 . S
C35 C36 1.333 . S
C35 N37 1.317 . S
C35 H40 0.930 . S
C36 C35 1.333 . S
C36 N38 1.350 . S
C36 H62 0.931 . S
N37 Co33 2.148 . S
N37 C34 1.301 . S
N37 C35 1.317 . S
N38 C34 1.328 . S
N38 C36 1.350 . S
H39 C34 0.930 . S
H40 C35 0.930 . S
C41 O42 1.224 1_554 S
C41 O60 1.247 . S
O42 C41 1.224 1_556 S
N43 Co33 2.128 . S
N43 C44 1.355 . S
N43 C46 1.311 . S
C44 N43 1.355 . S
C44 C45 1.363 . S
C44 H56 0.929 . S
C45 C44 1.363 . S
C45 N47 1.375 . S
C45 H63 0.931 . S
C46 N43 1.311 . S
C46 N47 1.347 . S
C46 H57 0.929 . S
N47 C45 1.375 . S
N47 C46 1.347 . S
C48 C51 1.365 . S
C48 N53 1.328 . S
C48 H54 0.929 1_556 S
C49 C50 1.362 . S
C49 C52 1.378 . S
C49 H64 0.929 . S
C50 C49 1.362 . S
C50 C51 1.366 . S
C51 C48 1.365 . S
C51 C50 1.366 . S
C51 H65 0.930 . S
C52 C49 1.378 . S
C52 N53 1.315 . S
C52 H55 0.930 . S
N53 Co33 2.194 1_556 S
N53 C48 1.328 . S
N53 C52 1.315 . S
H54 C48 0.929 1_554 S
H55 C52 0.930 . S
H56 C44 0.929 . S
H57 C46 0.929 . S
O58 Co33 2.351 . S
O58 C61 1.244 . S
O59 Co33 2.155 . S
O59 C61 1.240 . S
O60 Co33 2.096 . S
O60 C41 1.247 . S
C61 O58 1.244 . S
C61 O59 1.240 . S
H62 C36 0.931 . S
H63 C45 0.931 . S
H64 C49 0.929 . S
H65 C51 0.930 . S
Co66 N70 2.148 . S
Co66 N76 2.128 . S
Co66 N86 2.194 1_554 S
Co66 O91 2.351 . S
Co66 O92 2.155 . S
Co66 O93 2.096 . S
C67 N70 1.301 . S
C67 N71 1.328 . S
C67 H72 0.930 . S
C68 C69 1.333 . S
C68 N70 1.317 . S
C68 H73 0.930 . S
C69 C68 1.333 . S
C69 N71 1.350 . S
C69 H95 0.931 . S
N70 Co66 2.148 . S
N70 C67 1.301 . S
N70 C68 1.317 . S
N71 C67 1.328 . S
N71 C69 1.350 . S
H72 C67 0.930 . S
H73 C68 0.930 . S
C74 O75 1.224 1_554 S
C74 O93 1.247 . S
O75 C74 1.224 1_556 S
N76 Co66 2.128 . S
N76 C77 1.355 . S
N76 C79 1.311 . S
C77 N76 1.355 . S
C77 C78 1.363 . S
C77 H89 0.929 . S
C78 C77 1.363 . S
C78 N80 1.375 . S
C78 H96 0.931 . S
C79 N76 1.311 . S
C79 N80 1.347 . S
C79 H90 0.929 . S
N80 C78 1.375 . S
N80 C79 1.347 . S
C81 C84 1.365 . S
C81 N86 1.328 . S
C81 H87 0.929 1_556 S
C82 C83 1.362 . S
C82 C85 1.378 . S
C82 H97 0.929 . S
C83 C82 1.362 . S
C83 C84 1.366 . S
C84 C81 1.365 . S
C84 C83 1.366 . S
C84 H98 0.930 . S
C85 C82 1.378 . S
C85 N86 1.315 . S
C85 H88 0.930 . S
N86 Co66 2.194 1_556 S
N86 C81 1.328 . S
N86 C85 1.315 . S
H87 C81 0.929 1_554 S
H88 C85 0.930 . S
H89 C77 0.929 . S
H90 C79 0.929 . S
O91 Co66 2.351 . S
O91 C94 1.244 . S
O92 Co66 2.155 . S
O92 C94 1.240 . S
O93 Co66 2.096 . S
O93 C74 1.247 . S
C94 O91 1.244 . S
C94 O92 1.240 . S
H95 C69 0.931 . S
H96 C78 0.931 . S
H97 C82 0.929 . S
H98 C84 0.930 . S
Co99 N103 2.148 . S
Co99 N109 2.128 . S
Co99 N119 2.194 1_554 S
Co99 O124 2.351 . S
Co99 O125 2.155 . S
Co99 O126 2.096 . S
C100 N103 1.301 . S
C100 N104 1.328 . S
C100 H105 0.930 . S
C101 C102 1.333 . S
C101 N103 1.317 . S
C101 H106 0.930 . S
C102 C101 1.333 . S
C102 N104 1.350 . S
C102 H128 0.931 . S
N103 Co99 2.148 . S
N103 C100 1.301 . S
N103 C101 1.317 . S
N104 C100 1.328 . S
N104 C102 1.350 . S
H105 C100 0.930 . S
H106 C101 0.930 . S
C107 O108 1.224 1_554 S
C107 O126 1.247 . S
O108 C107 1.224 1_556 S
N109 Co99 2.128 . S
N109 C110 1.355 . S
N109 C112 1.311 . S
C110 N109 1.355 . S
C110 C111 1.363 . S
C110 H122 0.929 . S
C111 C110 1.363 . S
C111 N113 1.375 . S
C111 H129 0.931 . S
C112 N109 1.311 . S
C112 N113 1.347 . S
C112 H123 0.929 . S
N113 C111 1.375 . S
N113 C112 1.347 . S
C114 C117 1.365 . S
C114 N119 1.328 . S
C114 H120 0.929 1_556 S
C115 C116 1.362 . S
C115 C118 1.378 . S
C115 H130 0.929 . S
C116 C115 1.362 . S
C116 C117 1.366 . S
C117 C114 1.365 . S
C117 C116 1.366 . S
C117 H131 0.930 . S
C118 C115 1.378 . S
C118 N119 1.315 . S
C118 H121 0.930 . S
N119 Co99 2.194 1_556 S
N119 C114 1.328 . S
N119 C118 1.315 . S
H120 C114 0.929 1_554 S
H121 C118 0.930 . S
H122 C110 0.929 . S
H123 C112 0.929 . S
O124 Co99 2.351 . S
O124 C127 1.244 . S
O125 Co99 2.155 . S
O125 C127 1.240 . S
O126 Co99 2.096 . S
O126 C107 1.247 . S
C127 O124 1.244 . S
C127 O125 1.240 . S
H128 C102 0.931 . S
H129 C111 0.931 . S
H130 C115 0.929 . S
H131 C117 0.930 . S
Co132 N136 2.148 . S
Co132 N142 2.128 . S
Co132 N152 2.194 1_554 S
Co132 O157 2.351 . S
Co132 O158 2.155 . S
Co132 O159 2.096 . S
C133 N136 1.301 . S
C133 N137 1.328 . S
C133 H138 0.930 . S
C134 C135 1.333 . S
C134 N136 1.317 . S
C134 H139 0.930 . S
C135 C134 1.333 . S
C135 N137 1.350 . S
C135 H161 0.931 . S
N136 Co132 2.148 . S
N136 C133 1.301 . S
N136 C134 1.317 . S
N137 C133 1.328 . S
N137 C135 1.350 . S
H138 C133 0.930 . S
H139 C134 0.930 . S
C140 O141 1.224 1_554 S
C140 O159 1.247 . S
O141 C140 1.224 1_556 S
N142 Co132 2.128 . S
N142 C143 1.355 . S
N142 C145 1.311 . S
C143 N142 1.355 . S
C143 C144 1.363 . S
C143 H155 0.929 . S
C144 C143 1.363 . S
C144 N146 1.375 . S
C144 H162 0.931 . S
C145 N142 1.311 . S
C145 N146 1.347 . S
C145 H156 0.929 . S
N146 C144 1.375 . S
N146 C145 1.347 . S
C147 C150 1.365 . S
C147 N152 1.328 . S
C147 H153 0.929 1_556 S
C148 C149 1.362 . S
C148 C151 1.378 . S
C148 H163 0.929 . S
C149 C148 1.362 . S
C149 C150 1.366 . S
C150 C147 1.365 . S
C150 C149 1.366 . S
C150 H164 0.930 . S
C151 C148 1.378 . S
C151 N152 1.315 . S
C151 H154 0.930 . S
N152 Co132 2.194 1_556 S
N152 C147 1.328 . S
N152 C151 1.315 . S
H153 C147 0.929 1_554 S
H154 C151 0.930 . S
H155 C143 0.929 . S
H156 C145 0.929 . S
O157 Co132 2.351 . S
O157 C160 1.244 . S
O158 Co132 2.155 . S
O158 C160 1.240 . S
O159 Co132 2.096 . S
O159 C140 1.247 . S
C160 O157 1.244 . S
C160 O158 1.240 . S
H161 C135 0.931 . S
H162 C144 0.931 . S
H163 C148 0.929 . S
H164 C150 0.930 . S
Co165 N169 2.148 . S
Co165 N175 2.128 . S
Co165 N185 2.194 1_554 S
Co165 O190 2.351 . S
Co165 O191 2.155 . S
Co165 O192 2.096 . S
C166 N169 1.301 . S
C166 N170 1.328 . S
C166 H171 0.930 . S
C167 C168 1.333 . S
C167 N169 1.317 . S
C167 H172 0.930 . S
C168 C167 1.333 . S
C168 N170 1.350 . S
C168 H194 0.931 . S
N169 Co165 2.148 . S
N169 C166 1.301 . S
N169 C167 1.317 . S
N170 C166 1.328 . S
N170 C168 1.350 . S
H171 C166 0.930 . S
H172 C167 0.930 . S
C173 O174 1.224 1_554 S
C173 O192 1.247 . S
O174 C173 1.224 1_556 S
N175 Co165 2.128 . S
N175 C176 1.355 . S
N175 C178 1.311 . S
C176 N175 1.355 . S
C176 C177 1.363 . S
C176 H188 0.929 . S
C177 C176 1.363 . S
C177 N179 1.375 . S
C177 H195 0.931 . S
C178 N175 1.311 . S
C178 N179 1.347 . S
C178 H189 0.929 . S
N179 C177 1.375 . S
N179 C178 1.347 . S
C180 C183 1.365 . S
C180 N185 1.328 . S
C180 H186 0.929 1_556 S
C181 C182 1.362 . S
C181 C184 1.378 . S
C181 H196 0.929 . S
C182 C181 1.362 . S
C182 C183 1.366 . S
C183 C180 1.365 . S
C183 C182 1.366 . S
C183 H197 0.930 . S
C184 C181 1.378 . S
C184 N185 1.315 . S
C184 H187 0.930 . S
N185 Co165 2.194 1_556 S
N185 C180 1.328 . S
N185 C184 1.315 . S
H186 C180 0.929 1_554 S
H187 C184 0.930 . S
H188 C176 0.929 . S
H189 C178 0.929 . S
O190 Co165 2.351 . S
O190 C193 1.244 . S
O191 Co165 2.155 . S
O191 C193 1.240 . S
O192 Co165 2.096 . S
O192 C173 1.247 . S
C193 O190 1.244 . S
C193 O191 1.240 . S
H194 C168 0.931 . S
H195 C177 0.931 . S
H196 C181 0.929 . S
H197 C183 0.930 . S
Co198 N202 2.148 . S
Co198 N208 2.128 . S
Co198 N218 2.194 . S
Co198 O223 2.351 . S
Co198 O224 2.155 . S
Co198 O225 2.096 . S
C199 N202 1.301 . S
C199 N203 1.328 . S
C199 H204 0.930 . S
C200 C201 1.333 . S
C200 N202 1.317 . S
C200 H205 0.930 . S
C201 C200 1.333 . S
C201 N203 1.350 . S
C201 H227 0.931 . S
N202 Co198 2.148 . S
N202 C199 1.301 . S
N202 C200 1.317 . S
N203 C199 1.328 . S
N203 C201 1.350 . S
H204 C199 0.930 . S
H205 C200 0.930 . S
C206 O207 1.224 . S
C206 O225 1.247 . S
O207 C206 1.224 . S
N208 Co198 2.128 . S
N208 C209 1.355 . S
N208 C211 1.311 . S
C209 N208 1.355 . S
C209 C210 1.363 . S
C209 H221 0.929 . S
C210 C209 1.363 . S
C210 N212 1.375 . S
C210 H228 0.931 . S
C211 N208 1.311 . S
C211 N212 1.347 . S
C211 H222 0.929 . S
N212 C210 1.375 . S
N212 C211 1.347 . S
C213 C216 1.365 . S
C213 N218 1.328 . S
C213 H219 0.929 . S
C214 C215 1.362 . S
C214 C217 1.378 . S
C214 H229 0.929 . S
C215 C214 1.362 . S
C215 C216 1.366 . S
C216 C213 1.365 . S
C216 C215 1.366 . S
C216 H230 0.930 . S
C217 C214 1.378 . S
C217 N218 1.315 . S
C217 H220 0.930 . S
N218 Co198 2.194 . S
N218 C213 1.328 . S
N218 C217 1.315 . S
H219 C213 0.929 . S
H220 C217 0.930 . S
H221 C209 0.929 . S
H222 C211 0.929 . S
O223 Co198 2.351 . S
O223 C226 1.244 . S
O224 Co198 2.155 . S
O224 C226 1.240 . S
O225 Co198 2.096 . S
O225 C206 1.247 . S
C226 O223 1.244 . S
C226 O224 1.240 . S
H227 C201 0.931 . S
H228 C210 0.931 . S
H229 C214 0.929 . S
H230 C216 0.930 . S
Co231 N235 2.148 . S
Co231 N241 2.128 . S
Co231 N251 2.194 . S
Co231 O256 2.351 . S
Co231 O257 2.155 . S
Co231 O258 2.096 . S
C232 N235 1.301 . S
C232 N236 1.328 . S
C232 H237 0.930 . S
C233 C234 1.333 . S
C233 N235 1.317 . S
C233 H238 0.930 . S
C234 C233 1.333 . S
C234 N236 1.350 . S
C234 H260 0.931 . S
N235 Co231 2.148 . S
N235 C232 1.301 . S
N235 C233 1.317 . S
N236 C232 1.328 . S
N236 C234 1.350 . S
H237 C232 0.930 . S
H238 C233 0.930 . S
C239 O240 1.224 . S
C239 O258 1.247 . S
O240 C239 1.224 . S
N241 Co231 2.128 . S
N241 C242 1.355 . S
N241 C244 1.311 . S
C242 N241 1.355 . S
C242 C243 1.363 . S
C242 H254 0.929 . S
C243 C242 1.363 . S
C243 N245 1.375 . S
C243 H261 0.931 . S
C244 N241 1.311 . S
C244 N245 1.347 . S
C244 H255 0.929 . S
N245 C243 1.375 . S
N245 C244 1.347 . S
C246 C249 1.365 . S
C246 N251 1.328 . S
C246 H252 0.929 . S
C247 C248 1.362 . S
C247 C250 1.378 . S
C247 H262 0.929 . S
C248 C247 1.362 . S
C248 C249 1.366 . S
C249 C246 1.365 . S
C249 C248 1.366 . S
C249 H263 0.930 . S
C250 C247 1.378 . S
C250 N251 1.315 . S
C250 H253 0.930 . S
N251 Co231 2.194 . S
N251 C246 1.328 . S
N251 C250 1.315 . S
H252 C246 0.929 . S
H253 C250 0.930 . S
H254 C242 0.929 . S
H255 C244 0.929 . S
O256 Co231 2.351 . S
O256 C259 1.244 . S
O257 Co231 2.155 . S
O257 C259 1.240 . S
O258 Co231 2.096 . S
O258 C239 1.247 . S
C259 O256 1.244 . S
C259 O257 1.240 . S
H260 C234 0.931 . S
H261 C243 0.931 . S
H262 C247 0.929 . S
H263 C249 0.930 . S
Co264 N268 2.148 . S
Co264 N274 2.128 . S
Co264 N284 2.194 . S
Co264 O289 2.351 . S
Co264 O290 2.155 . S
Co264 O291 2.096 . S
C265 N268 1.301 . S
C265 N269 1.328 . S
C265 H270 0.930 . S
C266 C267 1.333 . S
C266 N268 1.317 . S
C266 H271 0.930 . S
C267 C266 1.333 . S
C267 N269 1.350 . S
C267 H293 0.931 . S
N268 Co264 2.148 . S
N268 C265 1.301 . S
N268 C266 1.317 . S
N269 C265 1.328 . S
N269 C267 1.350 . S
H270 C265 0.930 . S
H271 C266 0.930 . S
C272 O273 1.224 . S
C272 O291 1.247 . S
O273 C272 1.224 . S
N274 Co264 2.128 . S
N274 C275 1.355 . S
N274 C277 1.311 . S
C275 N274 1.355 . S
C275 C276 1.363 . S
C275 H287 0.929 . S
C276 C275 1.363 . S
C276 N278 1.375 . S
C276 H294 0.931 . S
C277 N274 1.311 . S
C277 N278 1.347 . S
C277 H288 0.929 . S
N278 C276 1.375 . S
N278 C277 1.347 . S
C279 C282 1.365 . S
C279 N284 1.328 . S
C279 H285 0.929 . S
C280 C281 1.362 . S
C280 C283 1.378 . S
C280 H295 0.929 . S
C281 C280 1.362 . S
C281 C282 1.366 . S
C282 C279 1.365 . S
C282 C281 1.366 . S
C282 H296 0.930 . S
C283 C280 1.378 . S
C283 N284 1.315 . S
C283 H286 0.930 . S
N284 Co264 2.194 . S
N284 C279 1.328 . S
N284 C283 1.315 . S
H285 C279 0.929 . S
H286 C283 0.930 . S
H287 C275 0.929 . S
H288 C277 0.929 . S
O289 Co264 2.351 . S
O289 C292 1.244 . S
O290 Co264 2.155 . S
O290 C292 1.240 . S
O291 Co264 2.096 . S
O291 C272 1.247 . S
C292 O289 1.244 . S
C292 O290 1.240 . S
H293 C267 0.931 . S
H294 C276 0.931 . S
H295 C280 0.929 . S
H296 C282 0.930 . S
Co297 N301 2.148 . S
Co297 N307 2.128 . S
Co297 N317 2.194 . S
Co297 O322 2.351 . S
Co297 O323 2.155 . S
Co297 O324 2.096 . S
C298 N301 1.301 . S
C298 N302 1.328 . S
C298 H303 0.930 . S
C299 C300 1.333 . S
C299 N301 1.317 . S
C299 H304 0.930 . S
C300 C299 1.333 . S
C300 N302 1.350 . S
C300 H326 0.931 . S
N301 Co297 2.148 . S
N301 C298 1.301 . S
N301 C299 1.317 . S
N302 C298 1.328 . S
N302 C300 1.350 . S
H303 C298 0.930 . S
H304 C299 0.930 . S
C305 O306 1.224 . S
C305 O324 1.247 . S
O306 C305 1.224 . S
N307 Co297 2.128 . S
N307 C308 1.355 . S
N307 C310 1.311 . S
C308 N307 1.355 . S
C308 C309 1.363 . S
C308 H320 0.929 . S
C309 C308 1.363 . S
C309 N311 1.375 . S
C309 H327 0.931 . S
C310 N307 1.311 . S
C310 N311 1.347 . S
C310 H321 0.929 . S
N311 C309 1.375 . S
N311 C310 1.347 . S
C312 C315 1.365 . S
C312 N317 1.328 . S
C312 H318 0.929 . S
C313 C314 1.362 . S
C313 C316 1.378 . S
C313 H328 0.929 . S
C314 C313 1.362 . S
C314 C315 1.366 . S
C315 C312 1.365 . S
C315 C314 1.366 . S
C315 H329 0.930 . S
C316 C313 1.378 . S
C316 N317 1.315 . S
C316 H319 0.930 . S
N317 Co297 2.194 . S
N317 C312 1.328 . S
N317 C316 1.315 . S
H318 C312 0.929 . S
H319 C316 0.930 . S
H320 C308 0.929 . S
H321 C310 0.929 . S
O322 Co297 2.351 . S
O322 C325 1.244 . S
O323 Co297 2.155 . S
O323 C325 1.240 . S
O324 Co297 2.096 . S
O324 C305 1.247 . S
C325 O322 1.244 . S
C325 O323 1.240 . S
H326 C300 0.931 . S
H327 C309 0.931 . S
H328 C313 0.929 . S
H329 C315 0.930 . S
Co330 N334 2.148 . S
Co330 N340 2.128 . S
Co330 N350 2.194 . S
Co330 O355 2.351 . S
Co330 O356 2.155 . S
Co330 O357 2.096 . S
C331 N334 1.301 . S
C331 N335 1.328 . S
C331 H336 0.930 . S
C332 C333 1.333 . S
C332 N334 1.317 . S
C332 H337 0.930 . S
C333 C332 1.333 . S
C333 N335 1.350 . S
C333 H359 0.931 . S
N334 Co330 2.148 . S
N334 C331 1.301 . S
N334 C332 1.317 . S
N335 C331 1.328 . S
N335 C333 1.350 . S
H336 C331 0.930 . S
H337 C332 0.930 . S
C338 O339 1.224 . S
C338 O357 1.247 . S
O339 C338 1.224 . S
N340 Co330 2.128 . S
N340 C341 1.355 . S
N340 C343 1.311 . S
C341 N340 1.355 . S
C341 C342 1.363 . S
C341 H353 0.929 . S
C342 C341 1.363 . S
C342 N344 1.375 . S
C342 H360 0.931 . S
C343 N340 1.311 . S
C343 N344 1.347 . S
C343 H354 0.929 . S
N344 C342 1.375 . S
N344 C343 1.347 . S
C345 C348 1.365 . S
C345 N350 1.328 . S
C345 H351 0.929 . S
C346 C347 1.362 . S
C346 C349 1.378 . S
C346 H361 0.929 . S
C347 C346 1.362 . S
C347 C348 1.366 . S
C348 C345 1.365 . S
C348 C347 1.366 . S
C348 H362 0.930 . S
C349 C346 1.378 . S
C349 N350 1.315 . S
C349 H352 0.930 . S
N350 Co330 2.194 . S
N350 C345 1.328 . S
N350 C349 1.315 . S
H351 C345 0.929 . S
H352 C349 0.930 . S
H353 C341 0.929 . S
H354 C343 0.929 . S
O355 Co330 2.351 . S
O355 C358 1.244 . S
O356 Co330 2.155 . S
O356 C358 1.240 . S
O357 Co330 2.096 . S
O357 C338 1.247 . S
C358 O355 1.244 . S
C358 O356 1.240 . S
H359 C333 0.931 . S
H360 C342 0.931 . S
H361 C346 0.929 . S
H362 C348 0.930 . S
Co363 N367 2.148 . S
Co363 N373 2.128 . S
Co363 N383 2.194 . S
Co363 O388 2.351 . S
Co363 O389 2.155 . S
Co363 O390 2.096 . S
C364 N367 1.301 . S
C364 N368 1.328 . S
C364 H369 0.930 . S
C365 C366 1.333 . S
C365 N367 1.317 . S
C365 H370 0.930 . S
C366 C365 1.333 . S
C366 N368 1.350 . S
C366 H392 0.931 . S
N367 Co363 2.148 . S
N367 C364 1.301 . S
N367 C365 1.317 . S
N368 C364 1.328 . S
N368 C366 1.350 . S
H369 C364 0.930 . S
H370 C365 0.930 . S
C371 O372 1.224 . S
C371 O390 1.247 . S
O372 C371 1.224 . S
N373 Co363 2.128 . S
N373 C374 1.355 . S
N373 C376 1.311 . S
C374 N373 1.355 . S
C374 C375 1.363 . S
C374 H386 0.929 . S
C375 C374 1.363 . S
C375 N377 1.375 . S
C375 H393 0.931 . S
C376 N373 1.311 . S
C376 N377 1.347 . S
C376 H387 0.929 . S
N377 C375 1.375 . S
N377 C376 1.347 . S
C378 C381 1.365 . S
C378 N383 1.328 . S
C378 H384 0.929 . S
C379 C380 1.362 . S
C379 C382 1.378 . S
C379 H394 0.929 . S
C380 C379 1.362 . S
C380 C381 1.366 . S
C381 C378 1.365 . S
C381 C380 1.366 . S
C381 H395 0.930 . S
C382 C379 1.378 . S
C382 N383 1.315 . S
C382 H385 0.930 . S
N383 Co363 2.194 . S
N383 C378 1.328 . S
N383 C382 1.315 . S
H384 C378 0.929 . S
H385 C382 0.930 . S
H386 C374 0.929 . S
H387 C376 0.929 . S
O388 Co363 2.351 . S
O388 C391 1.244 . S
O389 Co363 2.155 . S
O389 C391 1.240 . S
O390 Co363 2.096 . S
O390 C371 1.247 . S
C391 O388 1.244 . S
C391 O389 1.240 . S
H392 C366 0.931 . S
H393 C375 0.931 . S
H394 C379 0.929 . S
H395 C381 0.930 . S
H396 C404 0.929 . S
H397 C406 0.930 . S
H398 C408 0.930 . S
H399 C411 0.929 . S
H400 C414 0.930 . S
H401 C416 0.960 . S
H402 C416 0.960 . S
H403 C416 0.960 . S
C404 H396 0.929 . S
C404 C405 1.377 1_556 S
C404 C406 1.384 . S
C405 C404 1.377 1_554 S
C405 C411 1.390 . S
C406 H397 0.930 . S
C406 C404 1.384 . S
C406 C407 1.372 1_556 S
C407 C406 1.372 1_554 S
C407 C408 1.400 . S
C407 C412 1.490 . S
C408 H398 0.930 . S
C408 C407 1.400 . S
C408 C411 1.386 . S
H409 C425 0.930 . S
H410 C426 0.931 . S
C411 H399 0.929 . S
C411 C405 1.390 . S
C411 C408 1.386 . S
C412 C407 1.490 . S
C412 C414 1.395 . S
C412 C415 1.403 1_545 S
H413 C419 0.930 . S
C414 H400 0.930 . S
C414 C412 1.395 . S
C414 C417 1.403 . S
C415 C412 1.403 1_565 S
C415 C416 1.524 . S
C415 C419 1.400 . S
C416 H401 0.960 . S
C416 H402 0.960 . S
C416 H403 0.960 . S
C416 C415 1.524 . S
C417 C414 1.403 . S
C417 C418 1.392 1_545 S
C417 C421 1.495 . S
C418 C417 1.392 1_565 S
C418 C419 1.385 . S
C418 C420 1.478 . S
C419 H413 0.930 . S
C419 C415 1.400 . S
C419 C418 1.385 . S
C420 C418 1.478 . S
C420 C422 1.381 1_554 S
C420 C426 1.383 . S
C421 C417 1.495 . S
C421 H427 0.959 . S
C421 H428 0.961 . S
C421 H429 0.960 1_554 S
C422 C420 1.381 1_556 S
C422 C423 1.394 . S
C422 H430 0.930 . S
C423 C422 1.394 . S
C423 C424 1.383 1_556 S
C423 H431 0.929 . S
C424 C423 1.383 1_554 S
C424 C425 1.377 . S
C425 H409 0.930 . S
C425 C424 1.377 . S
C425 C426 1.379 . S
C426 H410 0.931 . S
C426 C420 1.383 . S
C426 C425 1.379 . S
H427 C421 0.959 . S
H428 C421 0.961 . S
H429 C421 0.960 1_556 S
H430 C422 0.930 . S
H431 C423 0.929 . S
H432 C440 0.929 . S
H433 C442 0.930 . S
H434 C444 0.930 . S
H435 C447 0.929 . S
H436 C450 0.930 . S
H437 C452 0.960 . S
H438 C452 0.960 . S
H439 C452 0.960 . S
C440 H432 0.929 . S
C440 C441 1.377 1_556 S
C440 C442 1.384 . S
C441 C440 1.377 1_554 S
C441 C447 1.390 . S
C442 H433 0.930 . S
C442 C440 1.384 . S
C442 C443 1.372 1_556 S
C443 C442 1.372 1_554 S
C443 C444 1.400 . S
C443 C448 1.490 . S
C444 H434 0.930 . S
C444 C443 1.400 . S
C444 C447 1.386 . S
H445 C461 0.930 . S
H446 C462 0.931 . S
C447 H435 0.929 . S
C447 C441 1.390 . S
C447 C444 1.386 . S
C448 C443 1.490 . S
C448 C450 1.395 . S
C448 C451 1.403 . S
H449 C455 0.930 . S
C450 H436 0.930 . S
C450 C448 1.395 . S
C450 C453 1.403 . S
C451 C448 1.403 . S
C451 C452 1.524 . S
C451 C455 1.400 . S
C452 H437 0.960 . S
C452 H438 0.960 . S
C452 H439 0.960 . S
C452 C451 1.524 . S
C453 C450 1.403 . S
C453 C454 1.392 . S
C453 C457 1.495 . S
C454 C453 1.392 . S
C454 C455 1.385 . S
C454 C456 1.478 . S
C455 H449 0.930 . S
C455 C451 1.400 . S
C455 C454 1.385 . S
C456 C454 1.478 . S
C456 C458 1.381 1_554 S
C456 C462 1.383 . S
C457 C453 1.495 . S
C457 H463 0.959 . S
C457 H464 0.961 . S
C457 H465 0.960 1_554 S
C458 C456 1.381 1_556 S
C458 C459 1.394 . S
C458 H466 0.930 . S
C459 C458 1.394 . S
C459 C460 1.383 1_556 S
C459 H467 0.929 . S
C460 C459 1.383 1_554 S
C460 C461 1.377 . S
C461 H445 0.930 . S
C461 C460 1.377 . S
C461 C462 1.379 . S
C462 H446 0.931 . S
C462 C456 1.383 . S
C462 C461 1.379 . S
H463 C457 0.959 . S
H464 C457 0.961 . S
H465 C457 0.960 1_556 S
H466 C458 0.930 . S
H467 C459 0.929 . S
H468 C476 0.929 1_556 S
H469 C478 0.930 1_556 S
H470 C480 0.930 . S
H471 C483 0.929 . S
H472 C486 0.930 . S
H473 C488 0.960 1_556 S
H474 C488 0.961 1_556 S
H475 C488 0.959 . S
C476 H468 0.929 1_554 S
C476 C477 1.377 . S
C476 C478 1.384 . S
C477 C476 1.377 . S
C477 C483 1.390 . S
C478 H469 0.930 1_554 S
C478 C476 1.384 . S
C478 C479 1.372 . S
C479 C478 1.372 . S
C479 C480 1.400 . S
C479 C484 1.490 . S
C480 H470 0.930 . S
C480 C479 1.400 . S
C480 C483 1.386 . S
H481 C497 0.930 . S
H482 C498 0.931 . S
C483 H471 0.929 . S
C483 C477 1.390 . S
C483 C480 1.386 . S
C484 C479 1.490 . S
C484 C486 1.395 . S
C484 C487 1.403 1_455 S
H485 C491 0.930 . S
C486 H472 0.930 . S
C486 C484 1.395 . S
C486 C489 1.403 . S
C487 C484 1.403 1_655 S
C487 C488 1.523 . S
C487 C491 1.400 . S
C488 H473 0.960 1_554 S
C488 H474 0.961 1_554 S
C488 H475 0.959 . S
C488 C487 1.523 . S
C489 C486 1.403 . S
C489 C490 1.392 1_455 S
C489 C493 1.495 . S
C490 C489 1.392 1_655 S
C490 C491 1.385 . S
C490 C492 1.478 . S
C491 H485 0.930 . S
C491 C487 1.400 . S
C491 C490 1.385 . S
C492 C490 1.478 . S
C492 C494 1.381 . S
C492 C498 1.383 . S
C493 C489 1.495 . S
C493 H499 0.959 . S
C493 H500 0.961 . S
C493 H501 0.960 . S
C494 C492 1.381 . S
C494 C495 1.394 . S
C494 H502 0.930 1_554 S
C495 C494 1.394 . S
C495 C496 1.383 . S
C495 H503 0.929 1_554 S
C496 C495 1.383 . S
C496 C497 1.377 . S
C497 H481 0.930 . S
C497 C496 1.377 . S
C497 C498 1.379 . S
C498 H482 0.931 . S
C498 C492 1.383 . S
C498 C497 1.379 . S
H499 C493 0.959 . S
H500 C493 0.961 . S
H501 C493 0.960 . S
H502 C494 0.930 1_556 S
H503 C495 0.929 1_556 S
H504 C512 0.929 . S
H505 C514 0.930 . S
H506 C516 0.930 . S
H507 C519 0.929 . S
H508 C522 0.930 . S
H509 C524 0.960 . S
H510 C524 0.960 . S
H511 C524 0.960 . S
C512 H504 0.929 . S
C512 C513 1.377 . S
C512 C514 1.384 . S
C513 C512 1.377 . S
C513 C519 1.390 . S
C514 H505 0.930 . S
C514 C512 1.384 . S
C514 C515 1.372 . S
C515 C514 1.372 . S
C515 C516 1.400 . S
C515 C520 1.490 . S
C516 H506 0.930 . S
C516 C515 1.400 . S
C516 C519 1.386 . S
H517 C533 0.930 . S
H518 C534 0.931 . S
C519 H507 0.929 . S
C519 C513 1.390 . S
C519 C516 1.386 . S
C520 C515 1.490 . S
C520 C522 1.395 . S
C520 C523 1.403 1_455 S
H521 C527 0.930 . S
C522 H508 0.930 . S
C522 C520 1.395 . S
C522 C525 1.403 . S
C523 C520 1.403 1_655 S
C523 C524 1.524 . S
C523 C527 1.400 . S
C524 H509 0.960 . S
C524 H510 0.960 . S
C524 H511 0.960 . S
C524 C523 1.524 . S
C525 C522 1.403 . S
C525 C526 1.392 1_455 S
C525 C529 1.495 . S
C526 C525 1.392 1_655 S
C526 C527 1.385 . S
C526 C528 1.478 . S
C527 H521 0.930 . S
C527 C523 1.400 . S
C527 C526 1.385 . S
C528 C526 1.478 . S
C528 C530 1.381 . S
C528 C534 1.383 . S
C529 C525 1.495 . S
C529 H535 0.959 . S
C529 H536 0.961 . S
C529 H537 0.960 . S
C530 C528 1.381 . S
C530 C531 1.394 . S
C530 H538 0.930 . S
C531 C530 1.394 . S
C531 C532 1.383 . S
C531 H539 0.929 . S
C532 C531 1.383 . S
C532 C533 1.377 . S
C533 H517 0.930 . S
C533 C532 1.377 . S
C533 C534 1.379 . S
C534 H518 0.931 . S
C534 C528 1.383 . S
C534 C533 1.379 . S
H535 C529 0.959 . S
H536 C529 0.961 . S
H537 C529 0.960 . S
H538 C530 0.930 . S
H539 C531 0.929 . S
H540 C548 0.929 . S
H541 C550 0.930 . S
H542 C552 0.930 . S
H543 C555 0.929 . S
H544 C558 0.930 . S
H545 C560 0.960 . S
H546 C560 0.960 . S
H547 C560 0.960 . S
C548 H540 0.929 . S
C548 C549 1.377 . S
C548 C550 1.384 . S
C549 C548 1.377 . S
C549 C555 1.390 . S
C550 H541 0.930 . S
C550 C548 1.384 . S
C550 C551 1.372 . S
C551 C550 1.372 . S
C551 C552 1.400 . S
C551 C556 1.490 . S
C552 H542 0.930 . S
C552 C551 1.400 . S
C552 C555 1.386 . S
H553 C569 0.930 . S
H554 C570 0.931 . S
C555 H543 0.929 . S
C555 C549 1.390 . S
C555 C552 1.386 . S
C556 C551 1.490 . S
C556 C558 1.395 . S
C556 C559 1.403 1_545 S
H557 C563 0.930 . S
C558 H544 0.930 . S
C558 C556 1.395 . S
C558 C561 1.403 . S
C559 C556 1.403 1_565 S
C559 C560 1.524 . S
C559 C563 1.400 . S
C560 H545 0.960 . S
C560 H546 0.960 . S
C560 H547 0.960 . S
C560 C559 1.524 . S
C561 C558 1.403 . S
C561 C562 1.392 1_545 S
C561 C565 1.495 . S
C562 C561 1.392 1_565 S
C562 C563 1.385 . S
C562 C564 1.478 . S
C563 H557 0.930 . S
C563 C559 1.400 . S
C563 C562 1.385 . S
C564 C562 1.478 . S
C564 C566 1.381 . S
C564 C570 1.383 . S
C565 C561 1.495 . S
C565 H571 0.959 . S
C565 H572 0.961 . S
C565 H573 0.960 . S
C566 C564 1.381 . S
C566 C567 1.394 . S
C566 H574 0.930 . S
C567 C566 1.394 . S
C567 C568 1.383 . S
C567 H575 0.929 . S
C568 C567 1.383 . S
C568 C569 1.377 . S
C569 H553 0.930 . S
C569 C568 1.377 . S
C569 C570 1.379 . S
C570 H554 0.931 . S
C570 C564 1.383 . S
C570 C569 1.379 . S
H571 C565 0.959 . S
H572 C565 0.961 . S
H573 C565 0.960 . S
H574 C566 0.930 . S
H575 C567 0.929 . S
H576 C584 0.929 . S
H577 C586 0.930 . S
H578 C588 0.930 . S
H579 C591 0.929 . S
H580 C594 0.930 . S
H581 C596 0.960 . S
H582 C596 0.960 . S
H583 C596 0.960 . S
C584 H576 0.929 . S
C584 C585 1.377 . S
C584 C586 1.384 . S
C585 C584 1.377 . S
C585 C591 1.390 . S
C586 H577 0.930 . S
C586 C584 1.384 . S
C586 C587 1.372 . S
C587 C586 1.372 . S
C587 C588 1.400 . S
C587 C592 1.490 . S
C588 H578 0.930 . S
C588 C587 1.400 . S
C588 C591 1.386 . S
H589 C605 0.930 . S
H590 C606 0.931 . S
C591 H579 0.929 . S
C591 C585 1.390 . S
C591 C588 1.386 . S
C592 C587 1.490 . S
C592 C594 1.395 . S
C592 C595 1.403 . S
H593 C599 0.930 . S
C594 H580 0.930 . S
C594 C592 1.395 . S
C594 C597 1.403 . S
C595 C592 1.403 . S
C595 C596 1.524 . S
C595 C599 1.400 . S
C596 H581 0.960 . S
C596 H582 0.960 . S
C596 H583 0.960 . S
C596 C595 1.524 . S
C597 C594 1.403 . S
C597 C598 1.392 . S
C597 C601 1.495 . S
C598 C597 1.392 . S
C598 C599 1.385 . S
C598 C600 1.478 . S
C599 H593 0.930 . S
C599 C595 1.400 . S
C599 C598 1.385 . S
C600 C598 1.478 . S
C600 C602 1.381 . S
C600 C606 1.383 . S
C601 C597 1.495 . S
C601 H607 0.959 . S
C601 H608 0.961 . S
C601 H609 0.960 . S
C602 C600 1.381 . S
C602 C603 1.394 . S
C602 H610 0.930 . S
C603 C602 1.394 . S
C603 C604 1.383 . S
C603 H611 0.929 . S
C604 C603 1.383 . S
C604 C605 1.377 . S
C605 H589 0.930 . S
C605 C604 1.377 . S
C605 C606 1.379 . S
C606 H590 0.931 . S
C606 C600 1.383 . S
C606 C605 1.379 . S
H607 C601 0.959 . S
H608 C601 0.961 . S
H609 C601 0.960 . S
H610 C602 0.930 . S
H611 C603 0.929 . S
H612 C620 0.929 . S
H613 C622 0.930 . S
H614 C624 0.930 . S
H615 C627 0.929 . S
H616 C630 0.930 1_556 S
H617 C632 0.960 . S
H618 C632 0.961 . S
H619 C632 0.960 . S
C620 H612 0.929 . S
C620 C621 1.377 1_556 S
C620 C622 1.384 . S
C621 C620 1.377 1_554 S
C621 C627 1.390 . S
C622 H613 0.930 . S
C622 C620 1.384 . S
C622 C623 1.372 1_556 S
C623 C622 1.372 1_554 S
C623 C624 1.400 . S
C623 C628 1.490 1_545 S
C624 H614 0.930 . S
C624 C623 1.400 . S
C624 C627 1.386 . S
H625 C641 0.930 . S
H626 C642 0.931 . S
C627 H615 0.929 . S
C627 C621 1.390 . S
C627 C624 1.386 . S
C628 C623 1.490 1_565 S
C628 C630 1.395 . S
C628 C631 1.403 . S
H629 C635 0.930 . S
C630 H616 0.930 1_554 S
C630 C628 1.395 . S
C630 C633 1.403 . S
C631 C628 1.403 . S
C631 C632 1.524 . S
C631 C635 1.400 . S
C632 H617 0.960 . S
C632 H618 0.961 . S
C632 H619 0.960 . S
C632 C631 1.524 . S
C633 C630 1.403 . S
C633 C634 1.392 . S
C633 C637 1.495 1_554 S
C634 C633 1.392 . S
C634 C635 1.385 . S
C634 C636 1.478 . S
C635 H629 0.930 . S
C635 C631 1.400 . S
C635 C634 1.385 . S
C636 C634 1.478 . S
C636 C638 1.381 . S
C636 C642 1.383 . S
C637 C633 1.495 1_556 S
C637 H643 0.959 . S
C637 H644 0.961 1_556 S
C637 H645 0.960 . S
C638 C636 1.381 . S
C638 C639 1.394 . S
C638 H646 0.930 1_554 S
C639 C638 1.394 . S
C639 C640 1.383 . S
C639 H647 0.929 1_554 S
C640 C639 1.383 . S
C640 C641 1.377 . S
C641 H625 0.930 . S
C641 C640 1.377 . S
C641 C642 1.379 . S
C642 H626 0.931 . S
C642 C636 1.383 . S
C642 C641 1.379 . S
H643 C637 0.959 . S
H644 C637 0.961 1_554 S
H645 C637 0.960 . S
H646 C638 0.930 1_556 S
H647 C639 0.929 1_556 S
H648 C656 0.929 1_556 S
H649 C658 0.930 1_556 S
H650 C660 0.930 . S
H651 C663 0.929 . S
H652 C666 0.930 . S
H653 C668 0.960 . S
H654 C668 0.960 . S
H655 C668 0.960 . S
C656 H648 0.929 1_554 S
C656 C657 1.377 . S
C656 C658 1.384 . S
C657 C656 1.377 . S
C657 C663 1.390 . S
C658 H649 0.930 1_554 S
C658 C656 1.384 . S
C658 C659 1.372 . S
C659 C658 1.372 . S
C659 C660 1.400 . S
C659 C664 1.490 . S
C660 H650 0.930 . S
C660 C659 1.400 . S
C660 C663 1.386 . S
H661 C677 0.930 . S
H662 C678 0.931 . S
C663 H651 0.929 . S
C663 C657 1.390 . S
C663 C660 1.386 . S
C664 C659 1.490 . S
C664 C666 1.395 . S
C664 C667 1.403 . S
H665 C671 0.930 . S
C666 H652 0.930 . S
C666 C664 1.395 . S
C666 C669 1.403 . S
C667 C664 1.403 . S
C667 C668 1.524 . S
C667 C671 1.400 . S
C668 H653 0.960 . S
C668 H654 0.960 . S
C668 H655 0.960 . S
C668 C667 1.524 . S
C669 C666 1.403 . S
C669 C670 1.392 . S
C669 C673 1.495 . S
C670 C669 1.392 . S
C670 C671 1.385 . S
C670 C672 1.478 . S
C671 H665 0.930 . S
C671 C667 1.400 . S
C671 C670 1.385 . S
C672 C670 1.478 . S
C672 C674 1.382 1_554 S
C672 C678 1.383 . S
C673 C669 1.495 . S
C673 H679 0.959 . S
C673 H680 0.961 . S
C673 H681 0.960 . S
C674 C672 1.382 1_556 S
C674 C675 1.394 . S
C674 H682 0.930 . S
C675 C674 1.394 . S
C675 C676 1.383 1_556 S
C675 H683 0.929 . S
C676 C675 1.383 1_554 S
C676 C677 1.377 . S
C677 H661 0.930 . S
C677 C676 1.377 . S
C677 C678 1.379 . S
C678 H662 0.931 . S
C678 C672 1.383 . S
C678 C677 1.379 . S
H679 C673 0.959 . S
H680 C673 0.961 . S
H681 C673 0.960 . S
H682 C674 0.930 . S
H683 C675 0.929 . S
H684 C692 0.929 . S
H685 C694 0.930 . S
H686 C696 0.930 . S
H687 C699 0.929 . S
H688 C702 0.930 . S
H689 C704 0.960 . S
H690 C704 0.960 . S
H691 C704 0.982 1_554 S
C692 H684 0.929 . S
C692 C693 1.377 . S
C692 C694 1.384 . S
C693 C692 1.377 . S
C693 C699 1.390 . S
C694 H685 0.930 . S
C694 C692 1.384 . S
C694 C695 1.372 . S
C695 C694 1.372 . S
C695 C696 1.400 . S
C695 C700 1.490 1_655 S
C696 H686 0.930 . S
C696 C695 1.400 . S
C696 C699 1.386 . S
H697 C713 0.930 . S
H698 C714 0.931 . S
C699 H687 0.929 . S
C699 C693 1.390 . S
C699 C696 1.386 . S
C700 C695 1.490 1_455 S
C700 C702 1.395 . S
C700 C703 1.403 . S
H701 C707 0.930 . S
C702 H688 0.930 . S
C702 C700 1.395 . S
C702 C705 1.403 . S
C703 C700 1.403 . S
C703 C704 1.524 1_554 S
C703 C707 1.400 . S
C704 H689 0.960 . S
C704 H690 0.960 . S
C704 H691 0.982 1_556 S
C704 C703 1.524 1_556 S
C705 C702 1.403 . S
C705 C706 1.392 . S
C705 C709 1.495 . S
C706 C705 1.392 . S
C706 C707 1.385 . S
C706 C708 1.478 . S
C707 H701 0.930 . S
C707 C703 1.400 . S
C707 C706 1.385 . S
C708 C706 1.478 . S
C708 C710 1.381 . S
C708 C714 1.383 . S
C709 C705 1.495 . S
C709 H715 0.959 . S
C709 H716 0.961 . S
C709 H717 0.960 . S
C710 C708 1.381 . S
C710 C711 1.394 . S
C710 H718 0.930 . S
C711 C710 1.394 . S
C711 C712 1.383 . S
C711 H719 0.929 . S
C712 C711 1.383 . S
C712 C713 1.377 . S
C713 H697 0.930 . S
C713 C712 1.377 . S
C713 C714 1.379 . S
C714 H698 0.931 . S
C714 C708 1.383 . S
C714 C713 1.379 . S
H715 C709 0.959 . S
H716 C709 0.961 . S
H717 C709 0.960 . S
H718 C710 0.930 . S
H719 C711 0.929 . S
H720 C728 0.929 . S
H721 C730 0.930 . S
H722 C732 0.930 1_556 S
H723 C735 0.929 1_556 S
H724 C738 0.930 . S
H725 C740 0.960 1_556 S
H726 C740 0.960 . S
H727 C740 0.960 1_556 S
C728 H720 0.929 . S
C728 C729 1.377 . S
C728 C730 1.384 . S
C729 C728 1.377 . S
C729 C735 1.390 . S
C730 H721 0.930 . S
C730 C728 1.384 . S
C730 C731 1.372 . S
C731 C730 1.372 . S
C731 C732 1.400 . S
C731 C736 1.490 . S
C732 H722 0.930 1_554 S
C732 C731 1.400 . S
C732 C735 1.386 . S
H733 C749 0.950 . S
H734 C750 0.931 1_556 S
C735 H723 0.929 1_554 S
C735 C729 1.390 . S
C735 C732 1.386 . S
C736 C731 1.490 . S
C736 C738 1.395 . S
C736 C739 1.403 . S
H737 C743 0.930 . S
C738 H724 0.930 . S
C738 C736 1.395 . S
C738 C741 1.403 . S
C739 C736 1.403 . S
C739 C740 1.524 . S
C739 C743 1.400 . S
C740 H725 0.960 1_554 S
C740 H726 0.960 . S
C740 H727 0.960 1_554 S
C740 C739 1.524 . S
C741 C738 1.403 . S
C741 C742 1.392 . S
C741 C745 1.495 . S
C742 C741 1.392 . S
C742 C743 1.385 . S
C742 C744 1.478 1_545 S
C743 H737 0.930 . S
C743 C739 1.400 . S
C743 C742 1.385 . S
C744 C742 1.478 1_565 S
C744 C746 1.381 . S
C744 C750 1.383 . S
C745 C741 1.495 . S
C745 H751 0.959 . S
C745 H752 0.961 . S
C745 H753 0.960 . S
C746 C744 1.381 . S
C746 C747 1.394 . S
C746 H754 0.930 . S
C747 C746 1.394 . S
C747 C748 1.383 . S
C747 H755 0.929 . S
C748 C747 1.383 . S
C748 C749 1.359 1_554 S
C749 H733 0.950 . S
C749 C748 1.359 1_556 S
C749 C750 1.378 1_556 S
C750 H734 0.931 1_554 S
C750 C744 1.383 . S
C750 C749 1.378 1_554 S
H751 C745 0.959 . S
H752 C745 0.961 . S
H753 C745 0.960 . S
H754 C746 0.930 . S
H755 C747 0.929 . S
H756 C764 0.929 . S
H757 C766 0.930 . S
H758 C768 0.930 1_556 S
H759 C771 0.929 1_556 S
H760 C774 0.930 . S
H761 C776 0.960 . S
H762 C776 0.960 1_554 S
H763 C776 0.960 . S
C764 H756 0.929 . S
C764 C765 1.377 . S
C764 C766 1.384 . S
C765 C764 1.377 . S
C765 C771 1.390 . S
C766 H757 0.930 . S
C766 C764 1.384 . S
C766 C767 1.372 . S
C767 C766 1.372 . S
C767 C768 1.400 . S
C767 C772 1.490 . S
C768 H758 0.930 1_554 S
C768 C767 1.400 . S
C768 C771 1.386 . S
H769 C785 0.930 1_556 S
H770 C786 0.931 1_556 S
C771 H759 0.929 1_554 S
C771 C765 1.390 . S
C771 C768 1.386 . S
C772 C767 1.490 . S
C772 C774 1.395 . S
C772 C775 1.403 . S
H773 C779 0.930 . S
C774 H760 0.930 . S
C774 C772 1.395 . S
C774 C777 1.403 . S
C775 C772 1.403 . S
C775 C776 1.524 1_554 S
C775 C779 1.400 . S
C776 H761 0.960 . S
C776 H762 0.960 1_556 S
C776 H763 0.960 . S
C776 C775 1.524 1_556 S
C777 C774 1.403 . S
C777 C778 1.392 . S
C777 C781 1.495 . S
C778 C777 1.392 . S
C778 C779 1.385 . S
C778 C780 1.478 . S
C779 H773 0.930 . S
C779 C775 1.400 . S
C779 C778 1.385 . S
C780 C778 1.478 . S
C780 C782 1.381 . S
C780 C786 1.383 . S
C781 C777 1.495 . S
C781 H787 0.959 . S
C781 H788 0.961 . S
C781 H789 0.960 . S
C782 C780 1.381 . S
C782 C783 1.394 . S
C782 H790 0.930 . S
C783 C782 1.394 . S
C783 C784 1.383 . S
C783 H791 0.929 . S
C784 C783 1.383 . S
C784 C785 1.377 . S
C785 H769 0.930 1_554 S
C785 C784 1.377 . S
C785 C786 1.379 . S
C786 H770 0.931 1_554 S
C786 C780 1.383 . S
C786 C785 1.379 . S
H787 C781 0.959 . S
H788 C781 0.961 . S
H789 C781 0.960 . S
H790 C782 0.930 . S
H791 C783 0.929 . S
H792 C800 0.929 1_556 S
H793 C802 0.930 1_556 S
H794 C804 0.930 . S
H795 C807 0.929 . S
H796 C810 0.930 . S
H797 C812 0.960 . S
H798 C812 0.960 1_556 S
H799 C812 0.960 . S
C800 H792 0.929 1_554 S
C800 C801 1.377 . S
C800 C802 1.384 . S
C801 C800 1.377 . S
C801 C807 1.390 . S
C802 H793 0.930 1_554 S
C802 C800 1.384 . S
C802 C803 1.372 . S
C803 C802 1.372 . S
C803 C804 1.400 . S
C803 C808 1.490 . S
C804 H794 0.930 . S
C804 C803 1.400 . S
C804 C807 1.386 . S
H805 C821 0.930 . S
H806 C822 0.931 . S
C807 H795 0.929 . S
C807 C801 1.390 . S
C807 C804 1.386 . S
C808 C803 1.490 . S
C808 C810 1.395 . S
C808 C811 1.403 . S
H809 C815 0.930 . S
C810 H796 0.930 . S
C810 C808 1.395 . S
C810 C813 1.403 . S
C811 C808 1.403 . S
C811 C812 1.524 . S
C811 C815 1.400 . S
C812 H797 0.960 . S
C812 H798 0.960 1_554 S
C812 H799 0.960 . S
C812 C811 1.524 . S
C813 C810 1.403 . S
C813 C814 1.392 . S
C813 C817 1.495 . S
C814 C813 1.392 . S
C814 C815 1.385 . S
C814 C816 1.478 1_655 S
C815 H809 0.930 . S
C815 C811 1.400 . S
C815 C814 1.385 . S
C816 C814 1.478 1_455 S
C816 C818 1.381 . S
C816 C822 1.383 . S
C817 C813 1.495 . S
C817 H823 0.959 . S
C817 H824 0.961 1_655 S
C817 H825 0.960 1_655 S
C818 C816 1.381 . S
C818 C819 1.394 . S
C818 H826 0.930 1_554 S
C819 C818 1.394 . S
C819 C820 1.383 . S
C819 H827 0.929 1_554 S
C820 C819 1.383 . S
C820 C821 1.377 . S
C821 H805 0.930 . S
C821 C820 1.377 . S
C821 C822 1.379 . S
C822 H806 0.931 . S
C822 C816 1.383 . S
C822 C821 1.379 . S
H823 C817 0.959 . S
H824 C817 0.961 1_455 S
H825 C817 0.960 1_455 S
H826 C818 0.930 1_556 S
H827 C819 0.929 1_556 S
H828 C836 0.929 . S
H829 C838 0.930 . S
H830 C840 0.930 . S
H831 C843 0.929 . S
H832 C846 0.930 . S
H833 C848 0.960 . S
H834 C848 0.960 . S
H835 C848 0.960 . S
C836 H828 0.929 . S
C836 C837 1.377 . S
C836 C838 1.384 . S
C837 C836 1.377 . S
C837 C843 1.390 . S
C838 H829 0.930 . S
C838 C836 1.384 . S
C838 C839 1.372 . S
C839 C838 1.372 . S
C839 C840 1.400 . S
C839 C844 1.490 . S
C840 H830 0.930 . S
C840 C839 1.400 . S
C840 C843 1.386 . S
H841 C857 0.930 . S
H842 C858 0.931 . S
C843 H831 0.929 . S
C843 C837 1.390 . S
C843 C840 1.386 . S
C844 C839 1.490 . S
C844 C846 1.395 . S
C844 C847 1.403 . S
H845 C851 0.930 . S
C846 H832 0.930 . S
C846 C844 1.395 . S
C846 C849 1.403 . S
C847 C844 1.403 . S
C847 C848 1.524 . S
C847 C851 1.400 . S
C848 H833 0.960 . S
C848 H834 0.960 . S
C848 H835 0.960 . S
C848 C847 1.524 . S
C849 C846 1.403 . S
C849 C850 1.392 . S
C849 C853 1.495 . S
C850 C849 1.392 . S
C850 C851 1.385 . S
C850 C852 1.478 1_455 S
C851 H845 0.930 . S
C851 C847 1.400 . S
C851 C850 1.385 . S
C852 C850 1.478 1_655 S
C852 C854 1.381 . S
C852 C858 1.383 . S
C853 C849 1.495 . S
C853 H859 0.959 . S
C853 H860 0.961 1_455 S
C853 H861 0.963 . S
C854 C852 1.381 . S
C854 C855 1.394 . S
C854 H862 0.930 . S
C855 C854 1.394 . S
C855 C856 1.383 . S
C855 H863 0.929 . S
C856 C855 1.383 . S
C856 C857 1.377 . S
C857 H841 0.930 . S
C857 C856 1.377 . S
C857 C858 1.379 . S
C858 H842 0.931 . S
C858 C852 1.383 . S
C858 C857 1.379 . S
H859 C853 0.959 . S
H860 C853 0.961 1_655 S
H861 C853 0.963 . S
H862 C854 0.930 . S
H863 C855 0.929 . S
H864 C872 0.929 . S
H865 C874 0.930 . S
H866 C876 0.930 . S
H867 C879 0.929 . S
H868 C882 0.930 . S
H869 C884 0.960 . S
H870 C884 0.960 . S
H871 C884 0.960 . S
C872 H864 0.929 . S
C872 C873 1.377 . S
C872 C874 1.384 . S
C873 C872 1.377 . S
C873 C879 1.390 . S
C874 H865 0.930 . S
C874 C872 1.384 . S
C874 C875 1.372 . S
C875 C874 1.372 . S
C875 C876 1.400 . S
C875 C880 1.490 . S
C876 H866 0.930 . S
C876 C875 1.400 . S
C876 C879 1.386 . S
H877 C893 0.930 . S
H878 C894 0.931 . S
C879 H867 0.929 . S
C879 C873 1.390 . S
C879 C876 1.386 . S
C880 C875 1.490 . S
C880 C882 1.395 . S
C880 C883 1.403 . S
H881 C887 0.930 . S
C882 H868 0.930 . S
C882 C880 1.395 . S
C882 C885 1.403 . S
C883 C880 1.403 . S
C883 C884 1.524 . S
C883 C887 1.400 . S
C884 H869 0.960 . S
C884 H870 0.960 . S
C884 H871 0.960 . S
C884 C883 1.524 . S
C885 C882 1.403 . S
C885 C886 1.392 . S
C885 C889 1.495 . S
C886 C885 1.392 . S
C886 C887 1.385 . S
C886 C888 1.478 1_545 S
C887 H881 0.930 . S
C887 C883 1.400 . S
C887 C886 1.385 . S
C888 C886 1.478 1_565 S
C888 C890 1.381 . S
C888 C894 1.383 . S
C889 C885 1.495 . S
C889 H895 0.959 . S
C889 H896 0.961 . S
C889 H897 0.960 . S
C890 C888 1.381 . S
C890 C891 1.394 . S
C890 H898 0.930 . S
C891 C890 1.394 . S
C891 C892 1.383 . S
C891 H899 0.929 . S
C892 C891 1.383 . S
C892 C893 1.377 . S
C893 H877 0.930 . S
C893 C892 1.377 . S
C893 C894 1.379 . S
C894 H878 0.931 . S
C894 C888 1.383 . S
C894 C893 1.379 . S
H895 C889 0.959 . S
H896 C889 0.961 . S
H897 C889 0.960 . S
H898 C890 0.930 . S
H899 C891 0.929 . S
H900 C908 0.929 . S
H901 C910 0.930 . S
H902 C912 0.930 . S
H903 C915 0.929 . S
H904 C918 0.930 . S
H905 C920 0.960 . S
H906 C920 0.960 . S
H907 C920 0.960 . S
C908 H900 0.929 . S
C908 C909 1.377 . S
C908 C910 1.384 . S
C909 C908 1.377 . S
C909 C915 1.390 . S
C910 H901 0.930 . S
C910 C908 1.384 . S
C910 C911 1.372 . S
C911 C910 1.372 . S
C911 C912 1.400 . S
C911 C916 1.490 . S
C912 H902 0.930 . S
C912 C911 1.400 . S
C912 C915 1.386 . S
H913 C929 0.930 . S
H914 C930 0.931 . S
C915 H903 0.929 . S
C915 C909 1.390 . S
C915 C912 1.386 . S
C916 C911 1.490 . S
C916 C918 1.395 . S
C916 C919 1.403 . S
H917 C923 0.930 . S
C918 H904 0.930 . S
C918 C916 1.395 . S
C918 C921 1.403 . S
C919 C916 1.403 . S
C919 C920 1.524 . S
C919 C923 1.400 . S
C920 H905 0.960 . S
C920 H906 0.960 . S
C920 H907 0.960 . S
C920 C919 1.524 . S
C921 C918 1.403 . S
C921 C922 1.392 . S
C921 C925 1.495 . S
C922 C921 1.392 . S
C922 C923 1.385 . S
C922 C924 1.478 . S
C923 H917 0.930 . S
C923 C919 1.400 . S
C923 C922 1.385 . S
C924 C922 1.478 . S
C924 C926 1.381 . S
C924 C930 1.383 . S
C925 C921 1.495 . S
C925 H931 0.959 . S
C925 H932 0.961 . S
C925 H933 0.960 . S
C926 C924 1.381 . S
C926 C927 1.394 . S
C926 H934 0.930 . S
C927 C926 1.394 . S
C927 C928 1.383 . S
C927 H935 0.929 . S
C928 C927 1.383 . S
C928 C929 1.377 . S
C929 H913 0.930 . S
C929 C928 1.377 . S
C929 C930 1.379 . S
C930 H914 0.931 . S
C930 C924 1.383 . S
C930 C929 1.379 . S
H931 C925 0.959 . S
H932 C925 0.961 . S
H933 C925 0.960 . S
H934 C926 0.930 . S
H935 C927 0.929 . S
H936 C944 0.929 . S
H937 C946 0.930 . S
H938 C948 0.930 . S
H939 C951 0.929 . S
H940 C954 0.930 . S
H941 C956 0.960 . S
H942 C956 1.002 . S
H943 C956 0.960 . S
C944 H936 0.929 . S
C944 C945 1.377 . S
C944 C946 1.384 . S
C945 C944 1.377 . S
C945 C951 1.390 . S
C946 H937 0.930 . S
C946 C944 1.384 . S
C946 C947 1.372 . S
C947 C946 1.372 . S
C947 C948 1.400 . S
C947 C952 1.490 1_455 S
C948 H938 0.930 . S
C948 C947 1.400 . S
C948 C951 1.386 . S
H949 C965 0.930 . S
H950 C966 0.931 . S
C951 H939 0.929 . S
C951 C945 1.390 . S
C951 C948 1.386 . S
C952 C947 1.490 1_655 S
C952 C954 1.395 . S
C952 C955 1.403 . S
H953 C959 0.930 . S
C954 H940 0.930 . S
C954 C952 1.395 . S
C954 C957 1.403 . S
C955 C952 1.403 . S
C955 C956 1.524 . S
C955 C959 1.400 . S
C956 H941 0.960 . S
C956 H942 1.002 . S
C956 H943 0.960 . S
C956 C955 1.524 . S
C957 C954 1.403 . S
C957 C958 1.392 . S
C957 C961 1.495 . S
C958 C957 1.392 . S
C958 C959 1.385 . S
C958 C960 1.478 . S
C959 H953 0.930 . S
C959 C955 1.400 . S
C959 C958 1.385 . S
C960 C958 1.478 . S
C960 C962 1.381 . S
C960 C966 1.383 . S
C961 C957 1.495 . S
C961 H967 0.959 . S
C961 H968 0.961 . S
C961 H969 0.960 . S
C962 C960 1.381 . S
C962 C963 1.394 . S
C962 H970 0.930 . S
C963 C962 1.394 . S
C963 C964 1.383 . S
C963 H971 0.929 . S
C964 C963 1.383 . S
C964 C965 1.377 . S
C965 H949 0.930 . S
C965 C964 1.377 . S
C965 C966 1.379 . S
C966 H950 0.931 . S
C966 C960 1.383 . S
C966 C965 1.379 . S
H967 C961 0.959 . S
H968 C961 0.961 . S
H969 C961 0.960 . S
H970 C962 0.930 . S
H971 C963 0.929 . S
H972 C980 0.929 . S
H973 C982 0.930 . S
H974 C984 0.930 . S
H975 C987 0.929 . S
H976 C990 0.930 . S
H977 C992 0.960 . S
H978 C992 0.960 . S
H979 C992 0.960 . S
C980 H972 0.929 . S
C980 C981 1.377 . S
C980 C982 1.384 . S
C981 C980 1.377 . S
C981 C987 1.390 . S
C982 H973 0.930 . S
C982 C980 1.384 . S
C982 C983 1.372 . S
C983 C982 1.372 . S
C983 C984 1.400 . S
C983 C988 1.490 1_545 S
C984 H974 0.930 . S
C984 C983 1.400 . S
C984 C987 1.386 . S
H985 C1001 0.930 . S
H986 C1002 0.931 . S
C987 H975 0.929 . S
C987 C981 1.390 . S
C987 C984 1.386 . S
C988 C983 1.490 1_565 S
C988 C990 1.395 . S
C988 C991 1.403 . S
H989 C995 0.930 . S
C990 H976 0.930 . S
C990 C988 1.395 . S
C990 C993 1.403 . S
C991 C988 1.403 . S
C991 C992 1.524 . S
C991 C995 1.400 . S
C992 H977 0.960 . S
C992 H978 0.960 . S
C992 H979 0.960 . S
C992 C991 1.524 . S
C993 C990 1.403 . S
C993 C994 1.392 . S
C993 C997 1.495 . S
C994 C993 1.392 . S
C994 C995 1.385 . S
C994 C996 1.478 . S
C995 H989 0.930 . S
C995 C991 1.400 . S
C995 C994 1.385 . S
C996 C994 1.478 . S
C996 C998 1.381 . S
C996 C1002 1.383 . S
C997 C993 1.495 . S
C997 H1003 0.959 . S
C997 H1004 0.961 . S
C997 H1005 0.960 . S
C998 C996 1.381 . S
C998 C999 1.394 . S
C998 H1006 0.930 . S
C999 C998 1.394 . S
C999 C1000 1.383 . S
C999 H1007 0.929 . S
C1000 C999 1.383 . S
C1000 C1001 1.377 . S
C1001 H985 0.930 . S
C1001 C1000 1.377 . S
C1001 C1002 1.379 . S
C1002 H986 0.931 . S
C1002 C996 1.383 . S
C1002 C1001 1.379 . S
H1003 C997 0.959 . S
H1004 C997 0.961 . S
H1005 C997 0.960 . S
H1006 C998 0.930 . S
H1007 C999 0.929 . S
H1008 C1016 0.929 . S
H1009 C1018 0.930 . S
H1010 C1020 0.930 . S
H1011 C1023 0.929 . S
H1012 C1026 0.930 . S
H1013 C1028 0.960 . S
H1014 C1028 0.960 . S
H1015 C1028 0.960 . S
C1016 H1008 0.929 . S
C1016 C1017 1.377 . S
C1016 C1018 1.384 . S
C1017 C1016 1.377 . S
C1017 C1023 1.390 . S
C1018 H1009 0.930 . S
C1018 C1016 1.384 . S
C1018 C1019 1.372 . S
C1019 C1018 1.372 . S
C1019 C1020 1.400 . S
C1019 C1024 1.490 . S
C1020 H1010 0.930 . S
C1020 C1019 1.400 . S
C1020 C1023 1.386 . S
H1021 C1037 0.930 . S
H1022 C1038 0.931 . S
C1023 H1011 0.929 . S
C1023 C1017 1.390 . S
C1023 C1020 1.386 . S
C1024 C1019 1.490 . S
C1024 C1026 1.395 . S
C1024 C1027 1.403 . S
H1025 C1031 0.930 . S
C1026 H1012 0.930 . S
C1026 C1024 1.395 . S
C1026 C1029 1.403 . S
C1027 C1024 1.403 . S
C1027 C1028 1.524 . S
C1027 C1031 1.400 . S
C1028 H1013 0.960 . S
C1028 H1014 0.960 . S
C1028 H1015 0.960 . S
C1028 C1027 1.524 . S
C1029 C1026 1.403 . S
C1029 C1030 1.392 . S
C1029 C1033 1.495 . S
C1030 C1029 1.392 . S
C1030 C1031 1.385 . S
C1030 C1032 1.478 . S
C1031 H1025 0.930 . S
C1031 C1027 1.400 . S
C1031 C1030 1.385 . S
C1032 C1030 1.478 . S
C1032 C1034 1.381 . S
C1032 C1038 1.383 . S
C1033 C1029 1.495 . S
C1033 H1039 0.959 . S
C1033 H1040 0.961 . S
C1033 H1041 0.960 . S
C1034 C1032 1.381 . S
C1034 C1035 1.394 . S
C1034 H1042 0.930 . S
C1035 C1034 1.394 . S
C1035 C1036 1.383 . S
C1035 H1043 0.929 . S
C1036 C1035 1.383 . S
C1036 C1037 1.377 . S
C1037 H1021 0.930 . S
C1037 C1036 1.377 . S
C1037 C1038 1.379 . S
C1038 H1022 0.931 . S
C1038 C1032 1.383 . S
C1038 C1037 1.379 . S
H1039 C1033 0.959 . S
H1040 C1033 0.961 . S
H1041 C1033 0.960 . S
H1042 C1034 0.930 . S
H1043 C1035 0.929 . S
H1044 C1052 0.929 . S
H1045 C1054 0.930 . S
H1046 C1056 0.930 . S
H1047 C1059 0.929 . S
H1048 C1062 0.930 . S
H1049 C1064 0.960 . S
H1050 C1064 0.960 . S
H1051 C1064 0.960 . S
C1052 H1044 0.929 . S
C1052 C1053 1.377 . S
C1052 C1054 1.384 . S
C1053 C1052 1.377 . S
C1053 C1059 1.390 . S
C1054 H1045 0.930 . S
C1054 C1052 1.384 . S
C1054 C1055 1.372 . S
C1055 C1054 1.372 . S
C1055 C1056 1.400 . S
C1055 C1060 1.490 . S
C1056 H1046 0.930 . S
C1056 C1055 1.400 . S
C1056 C1059 1.386 . S
H1057 C1073 0.930 . S
H1058 C1074 0.931 . S
C1059 H1047 0.929 . S
C1059 C1053 1.390 . S
C1059 C1056 1.386 . S
C1060 C1055 1.490 . S
C1060 C1062 1.395 . S
C1060 C1063 1.403 . S
H1061 C1067 0.930 . S
C1062 H1048 0.930 . S
C1062 C1060 1.395 . S
C1062 C1065 1.403 . S
C1063 C1060 1.403 . S
C1063 C1064 1.524 . S
C1063 C1067 1.400 . S
C1064 H1049 0.960 . S
C1064 H1050 0.960 . S
C1064 H1051 0.960 . S
C1064 C1063 1.524 . S
C1065 C1062 1.403 . S
C1065 C1066 1.392 . S
C1065 C1069 1.495 . S
C1066 C1065 1.392 . S
C1066 C1067 1.385 . S
C1066 C1068 1.478 . S
C1067 H1061 0.930 . S
C1067 C1063 1.400 . S
C1067 C1066 1.385 . S
C1068 C1066 1.478 . S
C1068 C1070 1.381 . S
C1068 C1074 1.383 . S
C1069 C1065 1.495 . S
C1069 H1075 0.959 . S
C1069 H1076 0.961 . S
C1069 H1077 0.960 . S
C1070 C1068 1.381 . S
C1070 C1071 1.394 . S
C1070 H1078 0.930 . S
C1071 C1070 1.394 . S
C1071 C1072 1.383 . S
C1071 H1079 0.929 . S
C1072 C1071 1.383 . S
C1072 C1073 1.377 . S
C1073 H1057 0.930 . S
C1073 C1072 1.377 . S
C1073 C1074 1.379 . S
C1074 H1058 0.931 . S
C1074 C1068 1.383 . S
C1074 C1073 1.379 . S
H1075 C1069 0.959 . S
H1076 C1069 0.961 . S
H1077 C1069 0.960 . S
H1078 C1070 0.930 . S
H1079 C1071 0.929 . S
H1080 C1088 0.929 . S
H1081 C1090 0.930 . S
H1082 C1092 0.930 . S
H1083 C1095 0.929 . S
H1084 C1098 0.930 . S
H1085 C1100 0.960 . S
H1086 C1100 0.960 . S
H1087 C1100 0.960 . S
C1088 H1080 0.929 . S
C1088 C1089 1.377 . S
C1088 C1090 1.384 . S
C1089 C1088 1.377 . S
C1089 C1095 1.390 . S
C1090 H1081 0.930 . S
C1090 C1088 1.384 . S
C1090 C1091 1.372 . S
C1091 C1090 1.372 . S
C1091 C1092 1.400 . S
C1091 C1096 1.490 . S
C1092 H1082 0.930 . S
C1092 C1091 1.400 . S
C1092 C1095 1.386 . S
H1093 C1109 0.930 . S
H1094 C1110 0.931 . S
C1095 H1083 0.929 . S
C1095 C1089 1.390 . S
C1095 C1092 1.386 . S
C1096 C1091 1.490 . S
C1096 C1098 1.395 . S
C1096 C1099 1.403 . S
H1097 C1103 0.930 . S
C1098 H1084 0.930 . S
C1098 C1096 1.395 . S
C1098 C1101 1.403 . S
C1099 C1096 1.403 . S
C1099 C1100 1.524 . S
C1099 C1103 1.400 . S
C1100 H1085 0.960 . S
C1100 H1086 0.960 . S
C1100 H1087 0.960 . S
C1100 C1099 1.524 . S
C1101 C1098 1.403 . S
C1101 C1102 1.392 . S
C1101 C1105 1.495 . S
C1102 C1101 1.392 . S
C1102 C1103 1.385 . S
C1102 C1104 1.478 . S
C1103 H1097 0.930 . S
C1103 C1099 1.400 . S
C1103 C1102 1.385 . S
C1104 C1102 1.478 . S
C1104 C1106 1.381 . S
C1104 C1110 1.383 . S
C1105 C1101 1.495 . S
C1105 H1111 0.959 . S
C1105 H1112 0.961 . S
C1105 H1113 0.960 . S
C1106 C1104 1.381 . S
C1106 C1107 1.394 . S
C1106 H1114 0.930 . S
C1107 C1106 1.394 . S
C1107 C1108 1.383 . S
C1107 H1115 0.929 . S
C1108 C1107 1.383 . S
C1108 C1109 1.377 . S
C1109 H1093 0.930 . S
C1109 C1108 1.377 . S
C1109 C1110 1.379 . S
C1110 H1094 0.931 . S
C1110 C1104 1.383 . S
C1110 C1109 1.379 . S
H1111 C1105 0.959 . S
H1112 C1105 0.961 . S
H1113 C1105 0.960 . S
H1114 C1106 0.930 . S
H1115 C1107 0.929 . S
H1116 C1124 0.929 . S
H1117 C1126 0.930 . S
H1118 C1128 0.930 . S
H1119 C1131 0.929 . S
H1120 C1134 0.930 . S
H1121 C1136 0.960 . S
H1122 C1136 0.960 . S
H1123 C1136 0.960 . S
C1124 H1116 0.929 . S
C1124 C1125 1.377 . S
C1124 C1126 1.384 . S
C1125 C1124 1.377 . S
C1125 C1131 1.390 . S
C1126 H1117 0.930 . S
C1126 C1124 1.384 . S
C1126 C1127 1.372 . S
C1127 C1126 1.372 . S
C1127 C1128 1.400 . S
C1127 C1132 1.490 . S
C1128 H1118 0.930 . S
C1128 C1127 1.400 . S
C1128 C1131 1.386 . S
H1129 C1145 0.930 . S
H1130 C1146 0.931 . S
C1131 H1119 0.929 . S
C1131 C1125 1.390 . S
C1131 C1128 1.386 . S
C1132 C1127 1.490 . S
C1132 C1134 1.395 . S
C1132 C1135 1.403 . S
H1133 C1139 0.930 . S
C1134 H1120 0.930 . S
C1134 C1132 1.395 . S
C1134 C1137 1.403 . S
C1135 C1132 1.403 . S
C1135 C1136 1.524 . S
C1135 C1139 1.400 . S
C1136 H1121 0.960 . S
C1136 H1122 0.960 . S
C1136 H1123 0.960 . S
C1136 C1135 1.524 . S
C1137 C1134 1.403 . S
C1137 C1138 1.392 . S
C1137 C1141 1.495 . S
C1138 C1137 1.392 . S
C1138 C1139 1.385 . S
C1138 C1140 1.478 . S
C1139 H1133 0.930 . S
C1139 C1135 1.400 . S
C1139 C1138 1.385 . S
C1140 C1138 1.478 . S
C1140 C1142 1.381 . S
C1140 C1146 1.383 . S
C1141 C1137 1.495 . S
C1141 H1147 0.959 . S
C1141 H1148 0.961 . S
C1141 H1149 0.960 . S
C1142 C1140 1.381 . S
C1142 C1143 1.394 . S
C1142 H1150 0.930 . S
C1143 C1142 1.394 . S
C1143 C1144 1.383 . S
C1143 H1151 0.929 . S
C1144 C1143 1.383 . S
C1144 C1145 1.377 . S
C1145 H1129 0.930 . S
C1145 C1144 1.377 . S
C1145 C1146 1.379 . S
C1146 H1130 0.931 . S
C1146 C1140 1.383 . S
C1146 C1145 1.379 . S
H1147 C1141 0.959 . S
H1148 C1141 0.961 . S
H1149 C1141 0.960 . S
H1150 C1142 0.930 . S
H1151 C1143 0.929 . S
H1152 C1160 0.929 . S
H1153 C1162 0.930 . S
H1154 C1164 0.930 . S
H1155 C1167 0.929 . S
H1156 C1170 0.930 . S
H1157 C1172 0.960 . S
H1158 C1172 0.960 . S
H1159 C1172 0.960 . S
C1160 H1152 0.929 . S
C1160 C1161 1.377 . S
C1160 C1162 1.384 . S
C1161 C1160 1.377 . S
C1161 C1167 1.390 . S
C1162 H1153 0.930 . S
C1162 C1160 1.384 . S
C1162 C1163 1.372 . S
C1163 C1162 1.372 . S
C1163 C1164 1.400 . S
C1163 C1168 1.490 . S
C1164 H1154 0.930 . S
C1164 C1163 1.400 . S
C1164 C1167 1.386 . S
H1165 C1181 0.930 . S
H1166 C1182 0.931 . S
C1167 H1155 0.929 . S
C1167 C1161 1.390 . S
C1167 C1164 1.386 . S
C1168 C1163 1.490 . S
C1168 C1170 1.395 . S
C1168 C1171 1.403 . S
H1169 C1175 0.930 . S
C1170 H1156 0.930 . S
C1170 C1168 1.395 . S
C1170 C1173 1.403 . S
C1171 C1168 1.403 . S
C1171 C1172 1.524 . S
C1171 C1175 1.400 . S
C1172 H1157 0.960 . S
C1172 H1158 0.960 . S
C1172 H1159 0.960 . S
C1172 C1171 1.524 . S
C1173 C1170 1.403 . S
C1173 C1174 1.392 . S
C1173 C1177 1.495 . S
C1174 C1173 1.392 . S
C1174 C1175 1.385 . S
C1174 C1176 1.478 . S
C1175 H1169 0.930 . S
C1175 C1171 1.400 . S
C1175 C1174 1.385 . S
C1176 C1174 1.478 . S
C1176 C1178 1.381 . S
C1176 C1182 1.383 . S
C1177 C1173 1.495 . S
C1177 H1183 0.959 . S
C1177 H1184 0.961 . S
C1177 H1185 0.960 . S
C1178 C1176 1.381 . S
C1178 C1179 1.394 . S
C1178 H1186 0.930 . S
C1179 C1178 1.394 . S
C1179 C1180 1.383 . S
C1179 H1187 0.929 . S
C1180 C1179 1.383 . S
C1180 C1181 1.377 . S
C1181 H1165 0.930 . S
C1181 C1180 1.377 . S
C1181 C1182 1.379 . S
C1182 H1166 0.931 . S
C1182 C1176 1.383 . S
C1182 C1181 1.379 . S
H1183 C1177 0.959 . S
H1184 C1177 0.961 . S
H1185 C1177 0.960 . S
H1186 C1178 0.930 . S
H1187 C1179 0.929 . S
H1188 C1196 0.929 . S
H1189 C1198 0.930 . S
H1190 C1200 0.930 . S
H1191 C1203 0.929 . S
H1192 C1206 0.930 . S
H1193 C1208 0.960 . S
H1194 C1208 0.960 . S
H1195 C1208 0.960 . S
C1196 H1188 0.929 . S
C1196 C1197 1.377 . S
C1196 C1198 1.384 . S
C1197 C1196 1.377 . S
C1197 C1203 1.390 . S
C1198 H1189 0.930 . S
C1198 C1196 1.384 . S
C1198 C1199 1.372 . S
C1199 C1198 1.372 . S
C1199 C1200 1.400 . S
C1199 C1204 1.490 . S
C1200 H1190 0.930 . S
C1200 C1199 1.400 . S
C1200 C1203 1.386 . S
H1201 C1217 0.930 . S
H1202 C1218 0.931 . S
C1203 H1191 0.929 . S
C1203 C1197 1.390 . S
C1203 C1200 1.386 . S
C1204 C1199 1.490 . S
C1204 C1206 1.395 . S
C1204 C1207 1.403 . S
H1205 C1211 0.930 . S
C1206 H1192 0.930 . S
C1206 C1204 1.395 . S
C1206 C1209 1.403 . S
C1207 C1204 1.403 . S
C1207 C1208 1.524 . S
C1207 C1211 1.400 . S
C1208 H1193 0.960 . S
C1208 H1194 0.960 . S
C1208 H1195 0.960 . S
C1208 C1207 1.524 . S
C1209 C1206 1.403 . S
C1209 C1210 1.392 . S
C1209 C1213 1.495 . S
C1210 C1209 1.392 . S
C1210 C1211 1.385 . S
C1210 C1212 1.478 . S
C1211 H1205 0.930 . S
C1211 C1207 1.400 . S
C1211 C1210 1.385 . S
C1212 C1210 1.478 . S
C1212 C1214 1.381 . S
C1212 C1218 1.383 . S
C1213 C1209 1.495 . S
C1213 H1219 0.959 . S
C1213 H1220 0.961 . S
C1213 H1221 0.960 . S
C1214 C1212 1.381 . S
C1214 C1215 1.394 . S
C1214 H1222 0.930 . S
C1215 C1214 1.394 . S
C1215 C1216 1.383 . S
C1215 H1223 0.929 . S
C1216 C1215 1.383 . S
C1216 C1217 1.377 . S
C1217 H1201 0.930 . S
C1217 C1216 1.377 . S
C1217 C1218 1.379 . S
C1218 H1202 0.931 . S
C1218 C1212 1.383 . S
C1218 C1217 1.379 . S
H1219 C1213 0.959 . S
H1220 C1213 0.961 . S
H1221 C1213 0.960 . S
H1222 C1214 0.930 . S
H1223 C1215 0.929 . S
H1224 C1232 0.929 . S
H1225 C1234 0.930 . S
H1226 C1236 0.930 . S
H1227 C1239 0.929 . S
H1228 C1242 0.930 . S
H1229 C1244 0.960 . S
H1230 C1244 0.960 . S
H1231 C1244 0.960 . S
C1232 H1224 0.929 . S
C1232 C1233 1.377 . S
C1232 C1234 1.384 . S
C1233 C1232 1.377 . S
C1233 C1239 1.390 . S
C1234 H1225 0.930 . S
C1234 C1232 1.384 . S
C1234 C1235 1.372 . S
C1235 C1234 1.372 . S
C1235 C1236 1.400 . S
C1235 C1240 1.490 . S
C1236 H1226 0.930 . S
C1236 C1235 1.400 . S
C1236 C1239 1.386 . S
H1237 C1253 0.930 . S
H1238 C1254 0.931 . S
C1239 H1227 0.929 . S
C1239 C1233 1.390 . S
C1239 C1236 1.386 . S
C1240 C1235 1.490 . S
C1240 C1242 1.395 . S
C1240 C1243 1.403 . S
H1241 C1247 0.930 . S
C1242 H1228 0.930 . S
C1242 C1240 1.395 . S
C1242 C1245 1.403 . S
C1243 C1240 1.403 . S
C1243 C1244 1.524 . S
C1243 C1247 1.400 . S
C1244 H1229 0.960 . S
C1244 H1230 0.960 . S
C1244 H1231 0.960 . S
C1244 C1243 1.524 . S
C1245 C1242 1.403 . S
C1245 C1246 1.392 . S
C1245 C1249 1.495 . S
C1246 C1245 1.392 . S
C1246 C1247 1.385 . S
C1246 C1248 1.478 . S
C1247 H1241 0.930 . S
C1247 C1243 1.400 . S
C1247 C1246 1.385 . S
C1248 C1246 1.478 . S
C1248 C1250 1.381 . S
C1248 C1254 1.383 . S
C1249 C1245 1.495 . S
C1249 H1255 0.959 . S
C1249 H1256 0.961 . S
C1249 H1257 0.960 . S
C1250 C1248 1.381 . S
C1250 C1251 1.394 . S
C1250 H1258 0.930 . S
C1251 C1250 1.394 . S
C1251 C1252 1.383 . S
C1251 H1259 0.929 . S
C1252 C1251 1.383 . S
C1252 C1253 1.377 . S
C1253 H1237 0.930 . S
C1253 C1252 1.377 . S
C1253 C1254 1.379 . S
C1254 H1238 0.931 . S
C1254 C1248 1.383 . S
C1254 C1253 1.379 . S
H1255 C1249 0.959 . S
H1256 C1249 0.961 . S
H1257 C1249 0.960 . S
H1258 C1250 0.930 . S
H1259 C1251 0.929 . S
H1260 C1268 0.929 . S
H1261 C1270 0.930 . S
H1262 C1272 0.930 . S
H1263 C1275 0.929 . S
H1264 C1278 0.930 . S
H1265 C1280 0.960 . S
H1266 C1280 0.960 . S
H1267 C1280 0.960 . S
C1268 H1260 0.929 . S
C1268 C1269 1.377 . S
C1268 C1270 1.384 . S
C1269 C1268 1.377 . S
C1269 C1275 1.390 . S
C1270 H1261 0.930 . S
C1270 C1268 1.384 . S
C1270 C1271 1.372 . S
C1271 C1270 1.372 . S
C1271 C1272 1.400 . S
C1271 C1276 1.490 . S
C1272 H1262 0.930 . S
C1272 C1271 1.400 . S
C1272 C1275 1.386 . S
H1273 C1289 0.930 . S
H1274 C1290 0.931 . S
C1275 H1263 0.929 . S
C1275 C1269 1.390 . S
C1275 C1272 1.386 . S
C1276 C1271 1.490 . S
C1276 C1278 1.395 . S
C1276 C1279 1.403 . S
H1277 C1283 0.930 . S
C1278 H1264 0.930 . S
C1278 C1276 1.395 . S
C1278 C1281 1.403 . S
C1279 C1276 1.403 . S
C1279 C1280 1.524 . S
C1279 C1283 1.400 . S
C1280 H1265 0.960 . S
C1280 H1266 0.960 . S
C1280 H1267 0.960 . S
C1280 C1279 1.524 . S
C1281 C1278 1.403 . S
C1281 C1282 1.392 . S
C1281 C1285 1.495 . S
C1282 C1281 1.392 . S
C1282 C1283 1.385 . S
C1282 C1284 1.478 . S
C1283 H1277 0.930 . S
C1283 C1279 1.400 . S
C1283 C1282 1.385 . S
C1284 C1282 1.478 . S
C1284 C1286 1.381 . S
C1284 C1290 1.383 . S
C1285 C1281 1.495 . S
C1285 H1291 0.959 . S
C1285 H1292 0.961 . S
C1285 H1293 0.960 . S
C1286 C1284 1.381 . S
C1286 C1287 1.394 . S
C1286 H1294 0.930 . S
C1287 C1286 1.394 . S
C1287 C1288 1.383 . S
C1287 H1295 0.929 . S
C1288 C1287 1.383 . S
C1288 C1289 1.377 . S
C1289 H1273 0.930 . S
C1289 C1288 1.377 . S
C1289 C1290 1.379 . S
C1290 H1274 0.931 . S
C1290 C1284 1.383 . S
C1290 C1289 1.379 . S
H1291 C1285 0.959 . S
H1292 C1285 0.961 . S
H1293 C1285 0.960 . S
H1294 C1286 0.930 . S
H1295 C1287 0.929 . S
H1296 C1304 0.929 . S
H1297 C1306 0.930 . S
H1298 C1308 0.930 . S
H1299 C1311 0.929 . S
H1300 C1314 0.930 . S
H1301 C1316 0.960 . S
H1302 C1316 0.960 . S
H1303 C1316 0.960 . S
C1304 H1296 0.929 . S
C1304 C1305 1.377 . S
C1304 C1306 1.384 . S
C1305 C1304 1.377 . S
C1305 C1311 1.390 . S
C1306 H1297 0.930 . S
C1306 C1304 1.384 . S
C1306 C1307 1.372 . S
C1307 C1306 1.372 . S
C1307 C1308 1.400 . S
C1307 C1312 1.490 . S
C1308 H1298 0.930 . S
C1308 C1307 1.400 . S
C1308 C1311 1.386 . S
H1309 C1325 0.930 . S
H1310 C1326 0.931 . S
C1311 H1299 0.929 . S
C1311 C1305 1.390 . S
C1311 C1308 1.386 . S
C1312 C1307 1.490 . S
C1312 C1314 1.395 . S
C1312 C1315 1.403 . S
H1313 C1319 0.930 . S
C1314 H1300 0.930 . S
C1314 C1312 1.395 . S
C1314 C1317 1.403 . S
C1315 C1312 1.403 . S
C1315 C1316 1.524 . S
C1315 C1319 1.400 . S
C1316 H1301 0.960 . S
C1316 H1302 0.960 . S
C1316 H1303 0.960 . S
C1316 C1315 1.524 . S
C1317 C1314 1.403 . S
C1317 C1318 1.392 . S
C1317 C1321 1.495 . S
C1318 C1317 1.392 . S
C1318 C1319 1.385 . S
C1318 C1320 1.478 . S
C1319 H1313 0.930 . S
C1319 C1315 1.400 . S
C1319 C1318 1.385 . S
C1320 C1318 1.478 . S
C1320 C1322 1.381 . S
C1320 C1326 1.383 . S
C1321 C1317 1.495 . S
C1321 H1327 0.959 . S
C1321 H1328 0.961 . S
C1321 H1329 0.960 . S
C1322 C1320 1.381 . S
C1322 C1323 1.394 . S
C1322 H1330 0.930 . S
C1323 C1322 1.394 . S
C1323 C1324 1.383 . S
C1323 H1331 0.929 . S
C1324 C1323 1.383 . S
C1324 C1325 1.377 . S
C1325 H1309 0.930 . S
C1325 C1324 1.377 . S
C1325 C1326 1.379 . S
C1326 H1310 0.931 . S
C1326 C1320 1.383 . S
C1326 C1325 1.379 . S
H1327 C1321 0.959 . S
H1328 C1321 0.961 . S
H1329 C1321 0.960 . S
H1330 C1322 0.930 . S
H1331 C1323 0.929 . S
H1332 C1340 0.929 . S
H1333 C1342 0.930 . S
H1334 C1344 0.930 . S
H1335 C1347 0.929 . S
H1336 C1350 0.930 . S
H1337 C1352 0.960 . S
H1338 C1352 0.960 . S
H1339 C1352 0.960 . S
C1340 H1332 0.929 . S
C1340 C1341 1.377 . S
C1340 C1342 1.384 . S
C1341 C1340 1.377 . S
C1341 C1347 1.390 . S
C1342 H1333 0.930 . S
C1342 C1340 1.384 . S
C1342 C1343 1.372 . S
C1343 C1342 1.372 . S
C1343 C1344 1.400 . S
C1343 C1348 1.490 . S
C1344 H1334 0.930 . S
C1344 C1343 1.400 . S
C1344 C1347 1.386 . S
H1345 C1361 0.930 . S
H1346 C1362 0.931 . S
C1347 H1335 0.929 . S
C1347 C1341 1.390 . S
C1347 C1344 1.386 . S
C1348 C1343 1.490 . S
C1348 C1350 1.395 . S
C1348 C1351 1.403 . S
H1349 C1355 0.930 . S
C1350 H1336 0.930 . S
C1350 C1348 1.395 . S
C1350 C1353 1.403 . S
C1351 C1348 1.403 . S
C1351 C1352 1.524 . S
C1351 C1355 1.400 . S
C1352 H1337 0.960 . S
C1352 H1338 0.960 . S
C1352 H1339 0.960 . S
C1352 C1351 1.524 . S
C1353 C1350 1.403 . S
C1353 C1354 1.392 . S
C1353 C1357 1.495 . S
C1354 C1353 1.392 . S
C1354 C1355 1.385 . S
C1354 C1356 1.478 . S
C1355 H1349 0.930 . S
C1355 C1351 1.400 . S
C1355 C1354 1.385 . S
C1356 C1354 1.478 . S
C1356 C1358 1.381 . S
C1356 C1362 1.383 . S
C1357 C1353 1.495 . S
C1357 H1363 0.959 . S
C1357 H1364 0.961 . S
C1357 H1365 0.960 . S
C1358 C1356 1.381 . S
C1358 C1359 1.394 . S
C1358 H1366 0.930 . S
C1359 C1358 1.394 . S
C1359 C1360 1.383 . S
C1359 H1367 0.929 . S
C1360 C1359 1.383 . S
C1360 C1361 1.377 . S
C1361 H1345 0.930 . S
C1361 C1360 1.377 . S
C1361 C1362 1.379 . S
C1362 H1346 0.931 . S
C1362 C1356 1.383 . S
C1362 C1361 1.379 . S
H1363 C1357 0.959 . S
H1364 C1357 0.961 . S
H1365 C1357 0.960 . S
H1366 C1358 0.930 . S
H1367 C1359 0.929 . S
H1368 C1376 0.929 . S
H1369 C1378 0.930 . S
H1370 C1380 0.930 . S
H1371 C1383 0.929 . S
H1372 C1386 0.930 . S
H1373 C1388 0.960 . S
H1374 C1388 0.960 . S
H1375 C1388 0.960 . S
C1376 H1368 0.929 . S
C1376 C1377 1.377 . S
C1376 C1378 1.384 . S
C1377 C1376 1.377 . S
C1377 C1383 1.390 . S
C1378 H1369 0.930 . S
C1378 C1376 1.384 . S
C1378 C1379 1.372 . S
C1379 C1378 1.372 . S
C1379 C1380 1.400 . S
C1379 C1384 1.490 . S
C1380 H1370 0.930 . S
C1380 C1379 1.400 . S
C1380 C1383 1.386 . S
H1381 C1397 0.930 . S
H1382 C1398 0.931 . S
C1383 H1371 0.929 . S
C1383 C1377 1.390 . S
C1383 C1380 1.386 . S
C1384 C1379 1.490 . S
C1384 C1386 1.395 . S
C1384 C1387 1.403 . S
H1385 C1391 0.930 . S
C1386 H1372 0.930 . S
C1386 C1384 1.395 . S
C1386 C1389 1.403 . S
C1387 C1384 1.403 . S
C1387 C1388 1.524 . S
C1387 C1391 1.400 . S
C1388 H1373 0.960 . S
C1388 H1374 0.960 . S
C1388 H1375 0.960 . S
C1388 C1387 1.524 . S
C1389 C1386 1.403 . S
C1389 C1390 1.392 . S
C1389 C1393 1.495 . S
C1390 C1389 1.392 . S
C1390 C1391 1.385 . S
C1390 C1392 1.478 . S
C1391 H1385 0.930 . S
C1391 C1387 1.400 . S
C1391 C1390 1.385 . S
C1392 C1390 1.478 . S
C1392 C1394 1.381 . S
C1392 C1398 1.383 . S
C1393 C1389 1.495 . S
C1393 H1399 0.959 . S
C1393 H1400 0.961 . S
C1393 H1401 0.960 . S
C1394 C1392 1.381 . S
C1394 C1395 1.394 . S
C1394 H1402 0.930 . S
C1395 C1394 1.394 . S
C1395 C1396 1.383 . S
C1395 H1403 0.929 . S
C1396 C1395 1.383 . S
C1396 C1397 1.377 . S
C1397 H1381 0.930 . S
C1397 C1396 1.377 . S
C1397 C1398 1.379 . S
C1398 H1382 0.931 . S
C1398 C1392 1.383 . S
C1398 C1397 1.379 . S
H1399 C1393 0.959 . S
H1400 C1393 0.961 . S
H1401 C1393 0.960 . S
H1402 C1394 0.930 . S
H1403 C1395 0.929 . S
H1404 C1412 0.929 . S
H1405 C1414 0.930 . S
H1406 C1416 0.930 . S
H1407 C1419 0.929 . S
H1408 C1422 0.930 . S
H1409 C1424 0.960 . S
H1410 C1424 0.960 . S
H1411 C1424 0.960 . S
C1412 H1404 0.929 . S
C1412 C1413 1.377 . S
C1412 C1414 1.384 . S
C1413 C1412 1.377 . S
C1413 C1419 1.390 . S
C1414 H1405 0.930 . S
C1414 C1412 1.384 . S
C1414 C1415 1.372 . S
C1415 C1414 1.372 . S
C1415 C1416 1.400 . S
C1415 C1420 1.490 . S
C1416 H1406 0.930 . S
C1416 C1415 1.400 . S
C1416 C1419 1.386 . S
H1417 C1433 0.930 . S
H1418 C1434 0.931 . S
C1419 H1407 0.929 . S
C1419 C1413 1.390 . S
C1419 C1416 1.386 . S
C1420 C1415 1.490 . S
C1420 C1422 1.395 . S
C1420 C1423 1.403 . S
H1421 C1427 0.930 . S
C1422 H1408 0.930 . S
C1422 C1420 1.395 . S
C1422 C1425 1.403 . S
C1423 C1420 1.403 . S
C1423 C1424 1.524 . S
C1423 C1427 1.400 . S
C1424 H1409 0.960 . S
C1424 H1410 0.960 . S
C1424 H1411 0.960 . S
C1424 C1423 1.524 . S
C1425 C1422 1.403 . S
C1425 C1426 1.392 . S
C1425 C1429 1.495 . S
C1426 C1425 1.392 . S
C1426 C1427 1.385 . S
C1426 C1428 1.478 . S
C1427 H1421 0.930 . S
C1427 C1423 1.400 . S
C1427 C1426 1.385 . S
C1428 C1426 1.478 . S
C1428 C1430 1.381 . S
C1428 C1434 1.383 . S
C1429 C1425 1.495 . S
C1429 H1435 0.959 . S
C1429 H1436 0.961 . S
C1429 H1437 0.960 . S
C1430 C1428 1.381 . S
C1430 C1431 1.394 . S
C1430 H1438 0.930 . S
C1431 C1430 1.394 . S
C1431 C1432 1.383 . S
C1431 H1439 0.929 . S
C1432 C1431 1.383 . S
C1432 C1433 1.377 . S
C1433 H1417 0.930 . S
C1433 C1432 1.377 . S
C1433 C1434 1.379 . S
C1434 H1418 0.931 . S
C1434 C1428 1.383 . S
C1434 C1433 1.379 . S
H1435 C1429 0.959 . S
H1436 C1429 0.961 . S
H1437 C1429 0.960 . S
H1438 C1430 0.930 . S
H1439 C1431 0.929 . S
H1440 C1448 0.929 . S
H1441 C1450 0.930 . S
H1442 C1452 0.930 . S
H1443 C1455 0.929 . S
H1444 C1458 0.930 . S
H1445 C1460 0.960 . S
H1446 C1460 0.960 . S
H1447 C1460 0.960 . S
C1448 H1440 0.929 . S
C1448 C1449 1.377 . S
C1448 C1450 1.384 . S
C1449 C1448 1.377 . S
C1449 C1455 1.390 . S
C1450 H1441 0.930 . S
C1450 C1448 1.384 . S
C1450 C1451 1.372 . S
C1451 C1450 1.372 . S
C1451 C1452 1.400 . S
C1451 C1456 1.490 . S
C1452 H1442 0.930 . S
C1452 C1451 1.400 . S
C1452 C1455 1.386 . S
H1453 C1469 0.930 . S
H1454 C1470 0.931 . S
C1455 H1443 0.929 . S
C1455 C1449 1.390 . S
C1455 C1452 1.386 . S
C1456 C1451 1.490 . S
C1456 C1458 1.395 . S
C1456 C1459 1.403 . S
H1457 C1463 0.930 . S
C1458 H1444 0.930 . S
C1458 C1456 1.395 . S
C1458 C1461 1.403 . S
C1459 C1456 1.403 . S
C1459 C1460 1.524 . S
C1459 C1463 1.400 . S
C1460 H1445 0.960 . S
C1460 H1446 0.960 . S
C1460 H1447 0.960 . S
C1460 C1459 1.524 . S
C1461 C1458 1.403 . S
C1461 C1462 1.392 . S
C1461 C1465 1.495 . S
C1462 C1461 1.392 . S
C1462 C1463 1.385 . S
C1462 C1464 1.478 . S
C1463 H1457 0.930 . S
C1463 C1459 1.400 . S
C1463 C1462 1.385 . S
C1464 C1462 1.478 . S
C1464 C1466 1.381 . S
C1464 C1470 1.383 . S
C1465 C1461 1.495 . S
C1465 H1471 0.959 . S
C1465 H1472 0.961 . S
C1465 H1473 0.960 . S
C1466 C1464 1.381 . S
C1466 C1467 1.394 . S
C1466 H1474 0.930 . S
C1467 C1466 1.394 . S
C1467 C1468 1.383 . S
C1467 H1475 0.929 . S
C1468 C1467 1.383 . S
C1468 C1469 1.377 . S
C1469 H1453 0.930 . S
C1469 C1468 1.377 . S
C1469 C1470 1.379 . S
C1470 H1454 0.931 . S
C1470 C1464 1.383 . S
C1470 C1469 1.379 . S
H1471 C1465 0.959 . S
H1472 C1465 0.961 . S
H1473 C1465 0.960 . S
H1474 C1466 0.930 . S
H1475 C1467 0.929 . S
C405 N14 1.531 . S
C424 N113 1.536 . S
C441 N146 1.531 . S
C460 N47 1.536 . S
C477 N179 1.529 . S
C496 N80 1.535 . S
C513 N311 1.531 . S
C532 N212 1.535 . S
C549 N344 1.531 . S
C568 N245 1.536 . S
C585 N278 1.527 . S
C604 N377 1.522 . S
C621 C8 0.893 . S
C640 N170 0.893 . S
C657 N5 0.891 . S
C676 C41 0.896 . S
C693 C74 0.891 . S
C712 N38 0.902 . S
C729 N71 0.891 . S
C748 C107 0.889 . S
C765 N104 0.890 . S
C784 C140 0.890 . S
C801 N137 0.890 . S
C820 C173 0.896 . S
C837 N236 0.891 . S
C856 C206 0.895 . S
C873 N269 0.892 . S
C892 C239 0.886 . S
C909 N302 0.892 . S
C928 C272 0.894 . S
C945 C305 0.893 . S
C964 N335 0.891 . S
C981 C338 0.892 . S
C1000 N368 0.881 . S
C1017 C371 0.893 . S
C1036 N203 0.881 . S
C1053 C292 1.154 . S
C1072 C28 1.158 . S
C1089 C61 1.158 . S
C1108 C325 1.140 . S
C1125 C94 1.153 . S
C1144 C358 1.149 . S
C1161 C127 1.158 . S
C1180 C391 1.135 . S
C1197 C226 1.158 . S
C1216 C160 1.137 . S
C1233 C193 1.156 . S
C1252 C259 1.148 . S
C1269 C380 1.437 . S
C1288 C116 1.417 . S
C1305 C215 1.437 . S
C1324 C149 1.420 . S
C1341 C248 1.441 . S
C1360 C182 1.418 . S
C1377 C17 1.432 . S
C1396 C281 1.455 . S
C1413 C50 1.440 . S
C1432 C314 1.411 . S
C1449 C83 1.432 . S
C1468 C347 1.455 . S
