# Generated by pormake.
# Topology uof, (4)-cn, num edge types: 1
# Building blocks:
#     Node 0, Type 0, BuildingBlock: ICAMEG_clean_sbu_1, # of connection points: 4
#     Node 1, Type 0, BuildingBlock: ICAMEG_clean_sbu_1, # of connection points: 4
#     Node 2, Type 0, BuildingBlock: ICAMEG_clean_sbu_1, # of connection points: 4
#     Node 3, Type 0, BuildingBlock: ICAMEG_clean_sbu_1, # of connection points: 4
#     Node 4, Type 0, BuildingBlock: ICAMEG_clean_sbu_1, # of connection points: 4
#     Node 5, Type 0, BuildingBlock: ICAMEG_clean_sbu_1, # of connection points: 4
#     Node 6, Type 0, BuildingBlock: ICAMEG_clean_sbu_1, # of connection points: 4
#     Node 7, Type 0, BuildingBlock: ICAMEG_clean_sbu_1, # of connection points: 4
#     Node 8, Type 0, BuildingBlock: ICAMEG_clean_sbu_1, # of connection points: 4
#     Node 9, Type 0, BuildingBlock: ICAMEG_clean_sbu_1, # of connection points: 4
#     Node 10, Type 0, BuildingBlock: ICAMEG_clean_sbu_1, # of connection points: 4
#     Node 11, Type 0, BuildingBlock: ICAMEG_clean_sbu_1, # of connection points: 4
#     Edge 12, Type (0, 0), BuildingBlock: TEMPAE_clean_linker_10, # of connection points: 2
#     Edge 13, Type (0, 0), BuildingBlock: TEMPAE_clean_linker_10, # of connection points: 2
#     Edge 14, Type (0, 0), BuildingBlock: TEMPAE_clean_linker_10, # of connection points: 2
#     Edge 15, Type (0, 0), BuildingBlock: TEMPAE_clean_linker_10, # of connection points: 2
#     Edge 16, Type (0, 0), BuildingBlock: TEMPAE_clean_linker_10, # of connection points: 2
#     Edge 17, Type (0, 0), BuildingBlock: TEMPAE_clean_linker_10, # of connection points: 2
#     Edge 18, Type (0, 0), BuildingBlock: TEMPAE_clean_linker_10, # of connection points: 2
#     Edge 19, Type (0, 0), BuildingBlock: TEMPAE_clean_linker_10, # of connection points: 2
#     Edge 20, Type (0, 0), BuildingBlock: TEMPAE_clean_linker_10, # of connection points: 2
#     Edge 21, Type (0, 0), BuildingBlock: TEMPAE_clean_linker_10, # of connection points: 2
#     Edge 22, Type (0, 0), BuildingBlock: TEMPAE_clean_linker_10, # of connection points: 2
#     Edge 23, Type (0, 0), BuildingBlock: TEMPAE_clean_linker_10, # of connection points: 2
#     Edge 24, Type (0, 0), BuildingBlock: TEMPAE_clean_linker_10, # of connection points: 2
#     Edge 25, Type (0, 0), BuildingBlock: TEMPAE_clean_linker_10, # of connection points: 2
#     Edge 26, Type (0, 0), BuildingBlock: TEMPAE_clean_linker_10, # of connection points: 2
#     Edge 27, Type (0, 0), BuildingBlock: TEMPAE_clean_linker_10, # of connection points: 2
#     Edge 28, Type (0, 0), BuildingBlock: TEMPAE_clean_linker_10, # of connection points: 2
#     Edge 29, Type (0, 0), BuildingBlock: TEMPAE_clean_linker_10, # of connection points: 2
#     Edge 30, Type (0, 0), BuildingBlock: TEMPAE_clean_linker_10, # of connection points: 2
#     Edge 31, Type (0, 0), BuildingBlock: TEMPAE_clean_linker_10, # of connection points: 2
#     Edge 32, Type (0, 0), BuildingBlock: TEMPAE_clean_linker_10, # of connection points: 2
#     Edge 33, Type (0, 0), BuildingBlock: TEMPAE_clean_linker_10, # of connection points: 2
#     Edge 34, Type (0, 0), BuildingBlock: TEMPAE_clean_linker_10, # of connection points: 2
#     Edge 35, Type (0, 0), BuildingBlock: TEMPAE_clean_linker_10, # of connection points: 2
# Relax obj value: 0.218
# Max RMSD: 0.166
# Mean RMSD: 0.166
data_MOF--net-uof--node1-ICAMEG_clean_sbu_1--edge1-TEMPAE_clean_linker_10
_symmetry_space_group_name_H-M    P1
_symmetry_Int_Tables_number       1
_symmetry_cell_setting            triclinic
loop_
_symmetry_equiv_pos_as_xyz
'x, y, z'
_cell_length_a     33.363785
_cell_length_b     33.368175
_cell_length_c     73.191876
_cell_angle_alpha  90.001672
_cell_angle_beta   90.007501
_cell_angle_gamma 120.02936
loop_
_atom_site_label
_atom_site_type_symbol
_atom_site_fract_x
_atom_site_fract_y
_atom_site_fract_z
_atom_type_partial_charge
Co0 Co 0.24866 0.33006 0.21437 0.0
Co1 Co 0.20615 0.22188 0.23258 0.0
O2 O 0.23975 0.28976 0.23542 0.0
C3 C 0.34354 0.37237 0.22991 0.0
O4 O 0.33656 0.33032 0.23211 0.0
C5 C 0.18386 0.24042 0.27063 0.0
O6 O 0.19539 0.28298 0.26625 0.0
O7 O 0.15092 0.22381 0.22341 0.0
O8 O 0.18642 0.28311 0.20386 0.0
H9 H 0.10632 0.0737 0.19845 0.0
H10 H 0.26107 0.37067 0.25127 0.0
O11 O 0.31112 0.37838 0.22382 0.0
H12 H 0.1346 0.3855 0.22333 0.0
H13 H 0.29885 0.48199 0.18275 0.0
H14 H 0.2323 0.31377 0.17458 0.0
H15 H 0.17278 0.35031 0.20617 0.0
H16 H 0.28612 0.43145 0.2093 0.0
O17 O 0.18282 0.21262 0.25846 0.0
H18 H 0.14922 0.15822 0.20284 0.0
H19 H 0.19027 0.14147 0.25593 0.0
H20 H 0.24393 0.36296 0.14768 0.0
H21 H 0.22422 0.40665 0.26888 0.0
H22 H 0.27747 0.44773 0.15168 0.0
H23 H 0.16039 0.4141 0.25491 0.0
O24 O 0.27972 0.30152 0.20096 0.0
H25 H 0.34151 0.26496 0.27445 0.0
H26 H 0.25644 0.17362 0.22046 0.0
H27 H 0.32437 0.17004 0.23153 0.0
H28 H 0.36756 0.21609 0.25865 0.0
H29 H 0.27342 0.26739 0.26299 0.0
H30 H 0.14726 0.0567 0.25219 0.0
H31 H 0.10514 0.02225 0.22323 0.0
O32 O 0.22897 0.22718 0.20692 0.0
C33 C 0.15025 0.24652 0.20947 0.0
C34 C 0.12454 0.08828 0.21114 0.0
C35 C 0.14744 0.07874 0.2413 0.0
N36 N 0.17221 0.15494 0.22965 0.0
C37 C 0.14895 0.13618 0.21371 0.0
C38 C 0.17148 0.12681 0.24339 0.0
C39 C 0.12386 0.05944 0.22505 0.0
C40 C 0.23349 0.37406 0.24508 0.0
N41 N 0.21898 0.35825 0.22776 0.0
C42 C 0.21268 0.39433 0.25513 0.0
C43 C 0.17683 0.39845 0.24729 0.0
C44 C 0.1623 0.38235 0.22958 0.0
C45 C 0.1839 0.36223 0.21996 0.0
C46 C 0.28411 0.44509 0.18084 0.0
C47 C 0.24661 0.35059 0.17644 0.0
C48 C 0.27691 0.41631 0.19581 0.0
N49 N 0.25814 0.36966 0.1935 0.0
C50 C 0.25325 0.37828 0.16115 0.0
C51 C 0.2721 0.42585 0.16341 0.0
C52 C 0.26358 0.25857 0.19829 0.0
C53 C 0.32292 0.24461 0.26264 0.0
C54 C 0.27492 0.19363 0.23232 0.0
C55 C 0.31342 0.19152 0.2385 0.0
C56 C 0.33757 0.21728 0.25375 0.0
N57 N 0.26046 0.22021 0.24119 0.0
C58 C 0.28407 0.24563 0.25614 0.0
Co59 Co 0.92257 0.24196 0.54932 0.0
Co60 Co 0.98965 0.20108 0.56775 0.0
O61 O 0.95457 0.23389 0.57038 0.0
C62 C 0.97517 0.33715 0.56451 0.0
O63 O 0.01029 0.33026 0.56672 0.0
C64 C 0.94759 0.17783 0.60557 0.0
O65 O 0.91601 0.18839 0.60095 0.0
O66 O 0.93315 0.14535 0.55838 0.0
O67 O 0.90749 0.17964 0.53906 0.0
H68 H 0.04105 0.10344 0.53391 0.0
H69 H 0.89501 0.2554 0.5862 0.0
O70 O 0.93665 0.30458 0.55852 0.0
H71 H 0.75349 0.12717 0.55908 0.0
H72 H 0.81923 0.29022 0.51779 0.0
H73 H 0.92157 0.22449 0.50959 0.0
H74 H 0.82647 0.16524 0.54164 0.0
H75 H 0.85803 0.27865 0.54428 0.0
O76 O 0.97508 0.17747 0.59358 0.0
H77 H 0.99815 0.14511 0.5381 0.0
H78 H 0.05422 0.18605 0.59145 0.0
H79 H 0.88303 0.23496 0.48274 0.0
H80 H 0.82257 0.21871 0.60407 0.0
H81 H 0.83146 0.26808 0.48676 0.0
H82 H 0.75118 0.15398 0.59053 0.0
O83 O 0.98176 0.27293 0.53563 0.0
H84 H 0.07933 0.33621 0.61003 0.0
H85 H 0.08863 0.25266 0.55613 0.0
H86 H 0.15934 0.32088 0.56756 0.0
H87 H 0.15497 0.36333 0.59465 0.0
H88 H 0.0096 0.26781 0.59821 0.0
H89 H 0.09718 0.14422 0.58792 0.0
H90 H 0.09104 0.10279 0.55892 0.0
O91 O 0.00777 0.22437 0.5422 0.0
C92 C 0.90904 0.14403 0.54459 0.0
C93 C 0.04402 0.12136 0.54661 0.0
C94 C 0.07545 0.14416 0.57693 0.0
N95 N 0.02351 0.16799 0.56502 0.0
C96 C 0.01983 0.14508 0.54907 0.0
C97 C 0.05074 0.16753 0.5789 0.0
C98 C 0.07203 0.12098 0.56065 0.0
C99 C 0.86399 0.22745 0.58019 0.0
N100 N 0.86502 0.21236 0.56295 0.0
C101 C 0.82312 0.20672 0.59039 0.0
C102 C 0.7831 0.17036 0.58279 0.0
C103 C 0.78439 0.15525 0.56516 0.0
C104 C 0.82589 0.17679 0.55538 0.0
C105 C 0.84154 0.27566 0.51587 0.0
C106 C 0.89892 0.23863 0.51146 0.0
C107 C 0.86367 0.26912 0.53081 0.0
N108 N 0.89173 0.25056 0.52849 0.0
C109 C 0.87731 0.2446 0.4962 0.0
C110 C 0.84841 0.26322 0.49846 0.0
C111 C 0.00943 0.25776 0.53317 0.0
C112 C 0.08173 0.31796 0.59823 0.0
C113 C 0.08641 0.27081 0.56796 0.0
C114 C 0.12659 0.30948 0.57435 0.0
C115 C 0.12413 0.33321 0.58958 0.0
N116 N 0.04497 0.25574 0.57661 0.0
C117 C 0.04233 0.27894 0.59153 0.0
Co118 Co 0.68152 0.92135 0.88106 0.0
Co119 Co 0.78909 0.9871 0.89993 0.0
O120 O 0.72111 0.95218 0.90237 0.0
C121 C 0.63836 0.9729 0.89676 0.0
O122 O 0.68029 0.00797 0.89927 0.0
C123 C 0.76942 0.9449 0.93777 0.0
O124 O 0.72671 0.91455 0.93327 0.0
O125 O 0.78803 0.9307 0.89032 0.0
O126 O 0.72903 0.90686 0.87061 0.0
H127 H 0.93863 0.0386 0.8664 0.0
H128 H 0.63973 0.89161 0.91771 0.0
O129 O 0.63267 0.93478 0.89043 0.0
H130 H 0.62683 0.75173 0.88918 0.0
H131 H 0.53068 0.81992 0.84862 0.0
H132 H 0.69903 0.92279 0.84132 0.0
H133 H 0.66216 0.82572 0.87242 0.0
H134 H 0.58037 0.85707 0.87546 0.0
O135 O 0.79766 0.97168 0.92571 0.0
H136 H 0.85395 0.99612 0.87034 0.0
H137 H 0.86852 0.05063 0.92394 0.0
H138 H 0.65072 0.88593 0.81413 0.0
H139 H 0.60359 0.81814 0.93492 0.0
H140 H 0.56588 0.83409 0.8177 0.0
H141 H 0.59711 0.74757 0.92065 0.0
O142 O 0.71012 0.98138 0.86795 0.0
H143 H 0.74355 0.07637 0.94239 0.0
H144 H 0.83743 0.08636 0.88874 0.0
H145 H 0.84032 0.15703 0.9004 0.0
H146 H 0.793 0.15232 0.92736 0.0
H147 H 0.74183 0.00669 0.93035 0.0
H148 H 0.95342 0.09316 0.92066 0.0
H149 H 0.98904 0.08759 0.89167 0.0
O150 O 0.78448 0.00601 0.87443 0.0
C151 C 0.76574 0.9076 0.87626 0.0
C152 C 0.92353 0.04132 0.8791 0.0
C153 C 0.93183 0.07186 0.90956 0.0
N154 N 0.85614 0.02071 0.89737 0.0
C155 C 0.87554 0.01736 0.88141 0.0
C156 C 0.8837 0.0474 0.91139 0.0
C157 C 0.9518 0.06877 0.89328 0.0
C158 C 0.63678 0.86096 0.9114 0.0
N159 N 0.65322 0.863 0.89414 0.0
C160 C 0.61641 0.8195 0.92121 0.0
C161 C 0.61283 0.77994 0.91321 0.0
C162 C 0.62956 0.78227 0.89556 0.0
C163 C 0.64976 0.82433 0.88617 0.0
C164 C 0.56761 0.84235 0.8469 0.0
C165 C 0.66219 0.90002 0.84299 0.0
C166 C 0.59591 0.86355 0.86203 0.0
N167 N 0.6426 0.89177 0.85996 0.0
C168 C 0.63499 0.87936 0.82754 0.0
C169 C 0.58739 0.85031 0.82955 0.0
C170 C 0.75309 0.00884 0.86563 0.0
C171 C 0.76446 0.07892 0.93066 0.0
C172 C 0.81687 0.08399 0.90053 0.0
C173 C 0.81859 0.12415 0.90705 0.0
C174 C 0.79213 0.1215 0.9222 0.0
N175 N 0.79002 0.04237 0.90899 0.0
C176 C 0.76387 0.03954 0.92383 0.0
Co177 Co 0.76639 0.68459 0.21522 0.0
Co178 Co 0.80865 0.7917 0.23458 0.0
O179 O 0.7751 0.72364 0.2367 0.0
C180 C 0.67141 0.64141 0.23071 0.0
O181 O 0.67842 0.68332 0.23339 0.0
C182 C 0.83067 0.77059 0.27225 0.0
O183 O 0.81854 0.72813 0.26745 0.0
O184 O 0.8639 0.79052 0.22493 0.0
O185 O 0.82867 0.73211 0.20498 0.0
H186 H 0.90819 0.94202 0.20177 0.0
H187 H 0.75353 0.64166 0.25168 0.0
O188 O 0.70384 0.63574 0.22437 0.0
H189 H 0.88038 0.62867 0.22308 0.0
H190 H 0.71644 0.53455 0.1821 0.0
H191 H 0.78306 0.7032 0.17556 0.0
H192 H 0.8424 0.66492 0.20649 0.0
H193 H 0.729 0.58353 0.20916 0.0
O194 O 0.83227 0.79929 0.26038 0.0
H195 H 0.86518 0.85723 0.20528 0.0
H196 H 0.8249 0.87058 0.25898 0.0
H197 H 0.77161 0.6556 0.14815 0.0
H198 H 0.79017 0.60458 0.2687 0.0
H199 H 0.73803 0.57062 0.15133 0.0
H200 H 0.8542 0.59805 0.25441 0.0
O201 O 0.73551 0.71388 0.20224 0.0
H202 H 0.67351 0.74568 0.27691 0.0
H203 H 0.7585 0.84111 0.22373 0.0
H204 H 0.69089 0.84415 0.23549 0.0
H205 H 0.64773 0.79608 0.26222 0.0
H206 H 0.7413 0.7438 0.26478 0.0
H207 H 0.86809 0.95556 0.25613 0.0
H208 H 0.90988 0.99186 0.2273 0.0
O209 O 0.78539 0.78799 0.20909 0.0
C210 C 0.86471 0.76853 0.21078 0.0
C211 C 0.89012 0.92663 0.2144 0.0
C212 C 0.86769 0.93423 0.24491 0.0
N213 N 0.84256 0.8588 0.23234 0.0
C214 C 0.86563 0.87858 0.21647 0.0
C215 C 0.84355 0.88604 0.2465 0.0
C216 C 0.89108 0.95457 0.22873 0.0
C217 C 0.7812 0.63869 0.24535 0.0
N218 N 0.79594 0.65561 0.22817 0.0
C219 C 0.8019 0.61778 0.25506 0.0
C220 C 0.83785 0.61419 0.24704 0.0
C221 C 0.85261 0.63142 0.22948 0.0
C222 C 0.83112 0.65214 0.22019 0.0
C223 C 0.7312 0.57155 0.18054 0.0
C224 C 0.76874 0.66629 0.17706 0.0
C225 C 0.7383 0.59945 0.19581 0.0
N226 N 0.7571 0.64623 0.19395 0.0
C227 C 0.7622 0.6395 0.16149 0.0
C228 C 0.74333 0.59182 0.16328 0.0
C229 C 0.75123 0.75695 0.20013 0.0
C230 C 0.6921 0.76692 0.26528 0.0
C231 C 0.74007 0.8202 0.23542 0.0
C232 C 0.70173 0.82202 0.24199 0.0
C233 C 0.6776 0.79512 0.25702 0.0
N234 N 0.75442 0.79279 0.24369 0.0
C235 C 0.73079 0.76622 0.2584 0.0
Co236 Co 0.08699 0.75963 0.5479 0.0
Co237 Co 0.02079 0.80162 0.56615 0.0
O238 O 0.05576 0.76875 0.56898 0.0
C239 C 0.03501 0.66515 0.56379 0.0
O240 O 0.99993 0.67209 0.56605 0.0
C241 C 0.06292 0.82563 0.60397 0.0
O242 O 0.09392 0.8141 0.59958 0.0
O243 O 0.07729 0.85686 0.55653 0.0
O244 O 0.10173 0.8215 0.53721 0.0
H245 H 0.96945 0.89855 0.53172 0.0
H246 H 0.11593 0.74819 0.58481 0.0
O247 O 0.07331 0.69749 0.55753 0.0
H248 H 0.25647 0.87479 0.55645 0.0
H249 H 0.18903 0.70973 0.51638 0.0
H250 H 0.08641 0.77509 0.50807 0.0
H251 H 0.18283 0.83582 0.53944 0.0
H252 H 0.15134 0.72269 0.54291 0.0
O253 O 0.03574 0.8261 0.59186 0.0
H254 H 0.01217 0.85681 0.53619 0.0
H255 H 0.95664 0.81764 0.58968 0.0
H256 H 0.12384 0.76321 0.48118 0.0
H257 H 0.18904 0.78582 0.60226 0.0
H258 H 0.17554 0.73026 0.48525 0.0
H259 H 0.25994 0.84973 0.58808 0.0
O260 O 0.02722 0.72792 0.53461 0.0
H261 H 0.93117 0.66783 0.60902 0.0
H262 H 0.92176 0.75003 0.5547 0.0
H263 H 0.85097 0.68235 0.56641 0.0
H264 H 0.85541 0.64058 0.59371 0.0
H265 H 1.00093 0.73569 0.59692 0.0
H266 H 0.91384 0.85957 0.58587 0.0
H267 H 0.9198 0.90014 0.55667 0.0
O268 O 1.00234 0.7776 0.54069 0.0
C269 C 0.10077 0.8575 0.54263 0.0
C270 C 0.96656 0.88101 0.54451 0.0
C271 C 0.93543 0.85921 0.57491 0.0
N272 N 0.98708 0.83482 0.5632 0.0
C273 C 0.99066 0.85725 0.54713 0.0
C274 C 0.96004 0.83579 0.57704 0.0
C275 C 0.93874 0.88191 0.55852 0.0
C276 C 0.14673 0.77579 0.57853 0.0
N277 N 0.14507 0.78992 0.56118 0.0
C278 C 0.18798 0.79706 0.58848 0.0
C279 C 0.22773 0.83295 0.58053 0.0
C280 C 0.22579 0.84707 0.56279 0.0
C281 C 0.18392 0.82503 0.55326 0.0
C282 C 0.16666 0.7242 0.51443 0.0
C283 C 0.10912 0.76104 0.50996 0.0
C284 C 0.14514 0.73153 0.5294 0.0
N285 N 0.117 0.74998 0.52705 0.0
C286 C 0.13011 0.75426 0.49468 0.0
C287 C 0.15908 0.73574 0.49697 0.0
C288 C 0.99974 0.74329 0.53204 0.0
C289 C 0.92873 0.6858 0.59713 0.0
C290 C 0.92397 0.73218 0.56662 0.0
C291 C 0.88377 0.69381 0.57317 0.0
C292 C 0.88627 0.67047 0.58852 0.0
N293 N 0.96547 0.74735 0.57524 0.0
C294 C 0.96815 0.72451 0.59027 0.0
Co295 Co 0.32787 0.0856 0.88212 0.0
Co296 Co 0.21949 0.0193 0.90015 0.0
O297 O 0.28738 0.05344 0.90305 0.0
C298 C 0.36978 0.03222 0.89718 0.0
O299 O 0.32766 0.99718 0.8993 0.0
C300 C 0.23796 0.06018 0.93816 0.0
O301 O 0.27999 0.09217 0.93359 0.0
O302 O 0.22153 0.07674 0.89131 0.0
O303 O 0.28113 0.10145 0.87186 0.0
H304 H 0.07146 0.97187 0.86608 0.0
H305 H 0.36831 0.11225 0.91911 0.0
O306 O 0.37598 0.07092 0.89132 0.0
H307 H 0.38374 0.25485 0.89227 0.0
H308 H 0.48014 0.1884 0.85089 0.0
H309 H 0.3119 0.08733 0.84239 0.0
H310 H 0.34844 0.18216 0.87463 0.0
H311 H 0.42935 0.14957 0.87728 0.0
O312 O 0.21028 0.03271 0.92612 0.0
H313 H 0.15598 0.01335 0.87051 0.0
H314 H 0.13896 0.95429 0.92336 0.0
H315 H 0.36134 0.12592 0.81565 0.0
H316 H 0.40443 0.18439 0.93718 0.0
H317 H 0.44613 0.17685 0.81981 0.0
H318 H 0.41216 0.25632 0.92377 0.0
O319 O 0.29927 0.02654 0.86834 0.0
H320 H 0.26193 0.92584 0.94158 0.0
H321 H 0.1712 0.92103 0.88762 0.0
H322 H 0.16736 0.84919 0.89837 0.0
H323 H 0.21314 0.85132 0.92548 0.0
H324 H 0.26455 0.99673 0.93044 0.0
H325 H 0.05419 0.91266 0.91958 0.0
H326 H 0.01988 0.92104 0.89072 0.0
O327 O 0.22485 1.00244 0.8744 0.0
C328 C 0.24443 0.10071 0.87751 0.0
C329 C 0.08598 0.96791 0.87872 0.0
C330 C 0.07629 0.93477 0.90876 0.0
N331 N 0.15256 0.98642 0.8972 0.0
C332 C 0.13388 0.99131 0.88132 0.0
C333 C 0.12436 0.95872 0.91087 0.0
C334 C 0.05706 0.93944 0.89255 0.0
C335 C 0.37186 0.14351 0.91316 0.0
N336 N 0.35614 0.14295 0.89589 0.0
C337 C 0.39219 0.1842 0.92347 0.0
C338 C 0.39646 0.22453 0.91594 0.0
C339 C 0.38046 0.22372 0.89828 0.0
C340 C 0.36027 0.18237 0.88839 0.0
C341 C 0.44324 0.16638 0.8489 0.0
C342 C 0.34872 0.10969 0.84432 0.0
C343 C 0.41432 0.14422 0.86378 0.0
N344 N 0.36766 0.11651 0.86138 0.0
C345 C 0.37656 0.13134 0.82912 0.0
C346 C 0.42413 0.15988 0.83147 0.0
C347 C 0.25633 0.99974 0.86562 0.0
C348 C 0.24175 0.92443 0.92976 0.0
C349 C 0.19111 0.92225 0.89946 0.0
C350 C 0.18884 0.88145 0.90547 0.0
C351 C 0.21444 0.88265 0.92071 0.0
N352 N 0.21768 0.96307 0.90849 0.0
C353 C 0.2429 0.96448 0.92344 0.0
Co354 Co 0.68096 0.75997 0.45836 0.0
Co355 Co 0.78938 0.80062 0.44055 0.0
O356 O 0.72158 0.76819 0.43749 0.0
C357 C 0.63801 0.66508 0.44285 0.0
O358 O 0.67995 0.67169 0.44078 0.0
C359 C 0.77249 0.82463 0.40255 0.0
O360 O 0.73039 0.81475 0.40691 0.0
O361 O 0.78859 0.85644 0.4497 0.0
O362 O 0.72834 0.822 0.4689 0.0
H363 H 0.93735 0.89758 0.47523 0.0
H364 H 0.64138 0.74785 0.42128 0.0
O365 O 0.63225 0.69771 0.44888 0.0
H366 H 0.62828 0.87593 0.44858 0.0
H367 H 0.52867 0.71217 0.48925 0.0
H368 H 0.69638 0.77653 0.49818 0.0
H369 H 0.66205 0.83693 0.46612 0.0
H370 H 0.57968 0.72391 0.46296 0.0
O371 O 0.7996 0.82424 0.41471 0.0
H372 H 0.85294 0.85649 0.47048 0.0
H373 H 0.86973 0.81489 0.41752 0.0
H374 H 0.64672 0.76587 0.52482 0.0
H375 H 0.60679 0.7855 0.4033 0.0
H376 H 0.5622 0.73344 0.52044 0.0
H377 H 0.60023 0.85015 0.41694 0.0
O378 O 0.70832 0.72822 0.47209 0.0
H379 H 0.74491 0.66559 0.39835 0.0
H380 H 0.83538 0.74833 0.45284 0.0
H381 H 0.83777 0.67981 0.4417 0.0
H382 H 0.7921 0.63777 0.41433 0.0
H383 H 0.74374 0.73428 0.40988 0.0
H384 H 0.9544 0.8561 0.42161 0.0
H385 H 0.98876 0.89757 0.45069 0.0
O386 O 0.78311 0.7774 0.46618 0.0
C387 C 0.76562 0.85768 0.46345 0.0
C388 C 0.92281 0.87965 0.46249 0.0
C389 C 0.93238 0.85645 0.43239 0.0
N390 N 0.85626 0.83334 0.44371 0.0
C391 C 0.87498 0.85626 0.45972 0.0
C392 C 0.88438 0.83344 0.4301 0.0
C393 C 0.95163 0.87965 0.44872 0.0
C394 C 0.63834 0.77576 0.42732 0.0
N395 N 0.65386 0.79028 0.44468 0.0
C396 C 0.61887 0.79704 0.41707 0.0
C397 C 0.61526 0.83335 0.42472 0.0
C398 C 0.63104 0.84788 0.44246 0.0
C399 C 0.65036 0.82581 0.4523 0.0
C400 C 0.56545 0.72643 0.49133 0.0
C401 C 0.65968 0.7627 0.49615 0.0
C402 C 0.5945 0.73306 0.4765 0.0
N403 N 0.64101 0.75124 0.47903 0.0
C404 C 0.63172 0.75661 0.51129 0.0
C405 C 0.58429 0.73837 0.50882 0.0
C406 C 0.75108 0.74347 0.47488 0.0
C407 C 0.76505 0.68365 0.41028 0.0
C408 C 0.81555 0.73033 0.44088 0.0
C409 C 0.81698 0.6915 0.43466 0.0
C410 C 0.79145 0.66801 0.41927 0.0
N411 N 0.78992 0.74576 0.43192 0.0
C412 C 0.76474 0.72282 0.41683 0.0
Co413 Co 0.92273 0.68127 0.78987 0.0
Co414 Co 0.99082 0.78959 0.77184 0.0
O415 O 0.9553 0.72175 0.76898 0.0
C416 C 0.97529 0.63866 0.77475 0.0
O417 O 0.01053 0.68068 0.77267 0.0
C418 C 0.94905 0.77193 0.73398 0.0
O419 O 0.91691 0.72993 0.73852 0.0
O420 O 0.93449 0.78918 0.78117 0.0
O421 O 0.90779 0.72853 0.8002 0.0
H422 H 0.04319 0.93822 0.80616 0.0
H423 H 0.89584 0.64112 0.75284 0.0
O424 O 0.93668 0.63271 0.78061 0.0
H425 H 0.75408 0.62804 0.77954 0.0
H426 H 0.81801 0.52909 0.8208 0.0
H427 H 0.9209 0.69692 0.82964 0.0
H428 H 0.82663 0.66222 0.79726 0.0
H429 H 0.85764 0.57998 0.79452 0.0
O430 O 0.97677 0.79934 0.74602 0.0
H431 H 0.99954 0.85373 0.80167 0.0
H432 H 0.05629 0.86944 0.74843 0.0
H433 H 0.88153 0.64738 0.85627 0.0
H434 H 0.82383 0.60609 0.73469 0.0
H435 H 0.82968 0.56281 0.85193 0.0
H436 H 0.75233 0.59955 0.74803 0.0
O437 O 0.98159 0.7089 0.80378 0.0
H438 H 0.08009 0.74401 0.72943 0.0
H439 H 0.08954 0.83582 0.78371 0.0
H440 H 0.16006 0.83782 0.77234 0.0
H441 H 0.15559 0.79151 0.74506 0.0
H442 H 0.01058 0.74318 0.7412 0.0
H443 H 0.10002 0.95417 0.75227 0.0
H444 H 0.09392 0.98911 0.78136 0.0
O445 O 0.00844 0.78372 0.79738 0.0
C446 C 0.90989 0.76606 0.79482 0.0
C447 C 0.04614 0.92342 0.79342 0.0
C448 C 0.07796 0.93237 0.76316 0.0
N449 N 0.02519 0.85651 0.77478 0.0
C450 C 0.02152 0.87554 0.79079 0.0
C451 C 0.05282 0.88434 0.76102 0.0
C452 C 0.07457 0.95195 0.77949 0.0
C453 C 0.86476 0.63808 0.75876 0.0
N454 N 0.86549 0.65385 0.77604 0.0
C455 C 0.82414 0.61836 0.74841 0.0
C456 C 0.78405 0.61476 0.75589 0.0
C457 C 0.78503 0.6308 0.77356 0.0
C458 C 0.8263 0.65036 0.7835 0.0
C459 C 0.84044 0.5659 0.82286 0.0
C460 C 0.89814 0.66019 0.82763 0.0
C461 C 0.86305 0.59488 0.80804 0.0
N462 N 0.89126 0.64142 0.81053 0.0
C463 C 0.87605 0.6323 0.84277 0.0
C464 C 0.84699 0.58484 0.84032 0.0
C465 C 0.00953 0.75166 0.80638 0.0
C466 C 0.08253 0.76444 0.74131 0.0
C467 C 0.08731 0.81568 0.7718 0.0
C468 C 0.12736 0.8169 0.76544 0.0
C469 C 0.12485 0.79101 0.75011 0.0
N470 N 0.04596 0.78987 0.76302 0.0
C471 C 0.04326 0.76433 0.74799 0.0
Co472 Co 0.24813 0.92361 0.12442 0.0
Co473 Co 0.20851 0.992 0.1061 0.0
O474 O 0.24006 0.95574 0.1034 0.0
C475 C 0.34292 0.97533 0.10891 0.0
O476 O 0.3362 0.01056 0.10671 0.0
C477 C 0.18283 0.94872 0.06851 0.0
O478 O 0.19299 0.91685 0.07311 0.0
O479 O 0.15251 0.93651 0.11591 0.0
O480 O 0.18622 0.90935 0.13486 0.0
H481 H 0.11492 0.04769 0.1403 0.0
H482 H 0.26048 0.89555 0.08747 0.0
O483 O 0.31037 0.93698 0.11502 0.0
H484 H 0.13158 0.75497 0.11481 0.0
H485 H 0.29525 0.81905 0.15565 0.0
H486 H 0.23137 0.92285 0.1642 0.0
H487 H 0.17072 0.82796 0.13223 0.0
H488 H 0.28388 0.85825 0.12925 0.0
O489 O 0.18367 0.97691 0.08045 0.0
H490 H 0.15461 1.0029 0.13598 0.0
H491 H 0.19435 0.05697 0.08232 0.0
H492 H 0.24166 0.88393 0.19095 0.0
H493 H 0.22272 0.82308 0.06962 0.0
H494 H 0.27385 0.83161 0.18676 0.0
H495 H 0.15764 0.75217 0.08328 0.0
O496 O 0.27999 0.98278 0.13812 0.0
H497 H 0.34222 0.07802 0.06283 0.0
H498 H 0.26261 0.09115 0.11727 0.0
H499 H 0.33143 0.1606 0.10538 0.0
H500 H 0.37186 0.15429 0.078 0.0
H501 H 0.27337 0.00959 0.07514 0.0
H502 H 0.15448 0.10182 0.08598 0.0
H503 H 0.11468 0.09764 0.1152 0.0
O504 O 0.233 0.01064 0.13145 0.0
C505 C 0.15099 0.91195 0.12958 0.0
C506 C 0.13213 0.0498 0.12751 0.0
C507 C 0.15427 0.08011 0.09701 0.0
N508 N 0.17679 0.02717 0.1089 0.0
C509 C 0.15474 0.02453 0.12498 0.0
C510 C 0.17652 0.05436 0.09497 0.0
C511 C 0.13199 0.0778 0.11341 0.0
C512 C 0.23239 0.86473 0.09353 0.0
N513 N 0.21771 0.86603 0.11082 0.0
C514 C 0.21105 0.82385 0.08335 0.0
C515 C 0.1745 0.78409 0.09101 0.0
C516 C 0.15981 0.78566 0.10869 0.0
C517 C 0.18195 0.82717 0.11845 0.0
C518 C 0.2811 0.84168 0.15765 0.0
C519 C 0.2451 0.89989 0.16226 0.0
C520 C 0.27467 0.86405 0.14276 0.0
N521 N 0.25662 0.89251 0.14518 0.0
C522 C 0.25098 0.87805 0.17746 0.0
C523 C 0.26907 0.84874 0.1751 0.0
C524 C 0.26583 0.01129 0.14053 0.0
C525 C 0.32484 0.08127 0.07474 0.0
C526 C 0.27991 0.08811 0.10533 0.0
C527 C 0.31891 0.12757 0.09867 0.0
C528 C 0.34151 0.12402 0.08328 0.0
N529 N 0.26347 0.04632 0.0968 0.0
C530 C 0.28556 0.04262 0.08172 0.0
Co531 Co 0.32704 0.24157 0.45669 0.0
Co532 Co 0.21866 0.2 0.43873 0.0
O533 O 0.28655 0.23373 0.43582 0.0
C534 C 0.36912 0.33717 0.44191 0.0
O535 O 0.32703 0.33016 0.43981 0.0
C536 C 0.23709 0.17843 0.40057 0.0
O537 O 0.27896 0.18794 0.40516 0.0
O538 O 0.22055 0.14432 0.44733 0.0
O539 O 0.28021 0.17879 0.46678 0.0
H540 H 0.07059 0.09883 0.47268 0.0
H541 H 0.36743 0.25609 0.41966 0.0
O542 O 0.37525 0.30455 0.44766 0.0
H543 H 0.38253 0.12815 0.4459 0.0
H544 H 0.4793 0.29015 0.48778 0.0
H545 H 0.31111 0.22304 0.49638 0.0
H546 H 0.34739 0.16529 0.46379 0.0
H547 H 0.4285 0.27885 0.46146 0.0
O548 O 0.20941 0.178 0.41266 0.0
H549 H 0.15511 0.14186 0.46825 0.0
H550 H 0.13818 0.18516 0.41564 0.0
H551 H 0.36056 0.23322 0.52305 0.0
H552 H 0.40338 0.22033 0.40135 0.0
H553 H 0.44531 0.26704 0.51883 0.0
H554 H 0.41095 0.15576 0.41445 0.0
O555 O 0.29857 0.27183 0.47068 0.0
H556 H 0.26128 0.33685 0.39782 0.0
H557 H 0.17062 0.24989 0.45163 0.0
H558 H 0.16692 0.31819 0.44119 0.0
H559 H 0.21266 0.36236 0.41417 0.0
H560 H 0.26378 0.26829 0.40864 0.0
H561 H 0.05341 0.14205 0.41942 0.0
H562 H 0.01906 0.09872 0.44817 0.0
O563 O 0.22411 0.22167 0.46457 0.0
C564 C 0.24343 0.14296 0.46108 0.0
C565 C 0.08513 0.11757 0.46009 0.0
C566 C 0.07549 0.14175 0.43019 0.0
N567 N 0.15173 0.16597 0.44168 0.0
C568 C 0.13303 0.14207 0.4575 0.0
C569 C 0.12356 0.16584 0.42808 0.0
C570 C 0.05624 0.1175 0.44633 0.0
C571 C 0.3709 0.22821 0.42548 0.0
N572 N 0.35518 0.21269 0.44272 0.0
C573 C 0.39114 0.208 0.41504 0.0
C574 C 0.39532 0.17174 0.42239 0.0
C575 C 0.37932 0.15618 0.44002 0.0
C576 C 0.35923 0.17719 0.45005 0.0
C577 C 0.44241 0.27529 0.48979 0.0
C578 C 0.34792 0.23748 0.49442 0.0
C579 C 0.41348 0.26889 0.47494 0.0
N580 N 0.36684 0.24996 0.47737 0.0
C581 C 0.37576 0.24329 0.50958 0.0
C582 C 0.42331 0.2623 0.5072 0.0
C583 C 0.25565 0.25564 0.47344 0.0
C584 C 0.24112 0.31786 0.4096 0.0
C585 C 0.19053 0.26881 0.43982 0.0
C586 C 0.18833 0.30751 0.43399 0.0
C587 C 0.21391 0.3322 0.4188 0.0
N588 N 0.217 0.25468 0.43066 0.0
C589 C 0.24219 0.27878 0.41575 0.0
Co590 Co 0.08824 0.32866 0.79147 0.0
Co591 Co 0.02083 0.22017 0.77363 0.0
O592 O 0.05584 0.28797 0.77061 0.0
C593 C 0.03552 0.37083 0.77607 0.0
O594 O 1.00038 0.32873 0.77404 0.0
C595 C 0.06169 0.23752 0.73561 0.0
O596 O 0.09358 0.27976 0.73997 0.0
O597 O 0.07768 0.22136 0.78273 0.0
O598 O 0.10345 0.28163 0.80192 0.0
H599 H 0.97061 0.07223 0.80816 0.0
H600 H 0.11517 0.36843 0.75439 0.0
O601 O 0.0741 0.37699 0.78207 0.0
H602 H 0.25714 0.38268 0.78142 0.0
H603 H 0.19221 0.48119 0.82233 0.0
H604 H 0.08995 0.31331 0.83126 0.0
H605 H 0.18447 0.34833 0.79905 0.0
H606 H 0.15291 0.43007 0.79607 0.0
O607 O 0.03436 0.21022 0.74777 0.0
H608 H 0.0135 0.15666 0.8035 0.0
H609 H 0.95517 0.13976 0.75051 0.0
H610 H 0.12899 0.36308 0.85789 0.0
H611 H 0.1873 0.4036 0.73632 0.0
H612 H 0.18052 0.44768 0.8535 0.0
H613 H 0.25891 0.41074 0.74983 0.0
O614 O 0.02924 0.30088 0.8053 0.0
H615 H 0.92946 0.26389 0.73156 0.0
H616 H 0.92251 0.17357 0.78596 0.0
H617 H 0.85133 0.17075 0.77491 0.0
H618 H 0.85455 0.21633 0.74758 0.0
H619 H 0.99962 0.26552 0.74301 0.0
H620 H 0.91214 0.05507 0.75452 0.0
H621 H 0.91944 0.02075 0.78357 0.0
O622 O 1.00381 0.22618 0.79927 0.0
C623 C 0.10197 0.24444 0.79645 0.0
C624 C 0.96714 0.08675 0.79544 0.0
C625 C 0.9344 0.07712 0.76532 0.0
N626 N 0.98702 0.15329 0.77672 0.0
C627 C 0.99134 0.1346 0.79271 0.0
C628 C 0.95913 0.12513 0.76308 0.0
C629 C 0.93846 0.05789 0.78163 0.0
C630 C 0.14629 0.37171 0.76038 0.0
N631 N 0.14556 0.35619 0.7777 0.0
C632 C 0.18698 0.39151 0.75007 0.0
C633 C 0.22713 0.39545 0.75765 0.0
C634 C 0.22614 0.37966 0.77536 0.0
C635 C 0.18481 0.36001 0.78525 0.0
C636 C 0.16992 0.44437 0.82441 0.0
C637 C 0.11258 0.35004 0.82924 0.0
C638 C 0.1475 0.41526 0.8096 0.0
N639 N 0.11947 0.3687 0.81212 0.0
C640 C 0.13448 0.37807 0.84437 0.0
C641 C 0.16335 0.42554 0.8419 0.0
C642 C 1.00191 0.25807 0.80807 0.0
C643 C 0.92756 0.24378 0.74347 0.0
C644 C 0.92417 0.19337 0.77402 0.0
C645 C 0.88376 0.1917 0.76785 0.0
C646 C 0.88557 0.21717 0.75248 0.0
N647 N 0.96519 0.21922 0.76503 0.0
C648 C 0.9672 0.24434 0.74996 0.0
Co649 Co 0.76672 0.08969 0.12309 0.0
Co650 Co 0.80702 0.02106 0.10588 0.0
O651 O 0.77417 0.0559 0.10256 0.0
C652 C 0.67116 0.03589 0.10839 0.0
O653 O 0.67805 1.00066 0.10668 0.0
C654 C 0.83005 0.0604 0.06765 0.0
O655 O 0.82154 0.09354 0.07203 0.0
O656 O 0.86312 0.07842 0.11441 0.0
O657 O 0.82934 0.10554 0.13331 0.0
H658 H 0.90579 0.97274 0.14075 0.0
H659 H 0.75233 0.11404 0.08577 0.0
O660 O 0.70385 0.07489 0.11393 0.0
H661 H 0.88137 0.25777 0.11115 0.0
H662 H 0.71955 0.19583 0.15291 0.0
H663 H 0.78539 0.09416 0.16284 0.0
H664 H 0.84372 0.18636 0.12957 0.0
H665 H 0.73023 0.15466 0.12706 0.0
O666 O 0.82939 0.03289 0.07986 0.0
H667 H 0.86425 0.01548 0.13574 0.0
H668 H 0.8207 0.95388 0.08335 0.0
H669 H 0.77583 0.1351 0.18905 0.0
H670 H 0.78859 0.18487 0.06693 0.0
H671 H 0.74266 0.18634 0.18417 0.0
H672 H 0.85372 0.25736 0.0796 0.0
O673 O 0.73606 0.03168 0.13756 0.0
H674 H 0.67045 0.92728 0.06475 0.0
H675 H 0.75539 0.92361 0.11924 0.0
H676 H 0.68642 0.85188 0.10894 0.0
H677 H 0.64328 0.85346 0.08157 0.0
H678 H 0.73961 0.99803 0.07546 0.0
H679 H 0.86231 0.91095 0.08771 0.0
H680 H 0.905 0.91997 0.11664 0.0
O681 O 0.78497 0.00573 0.1317 0.0
C682 C 0.86481 0.10355 0.12789 0.0
C683 C 0.88733 0.96851 0.12808 0.0
C684 C 0.863 0.93391 0.09831 0.0
N685 N 0.8401 0.98737 0.10924 0.0
C686 C 0.86368 0.99262 0.12516 0.0
C687 C 0.83975 0.95859 0.09586 0.0
C688 C 0.88689 0.93894 0.11455 0.0
C689 C 0.78044 0.14556 0.0914 0.0
N690 N 0.79598 0.14602 0.10871 0.0
C691 C 0.80093 0.1855 0.08066 0.0
C692 C 0.83751 0.22614 0.08777 0.0
C693 C 0.85309 0.22638 0.10546 0.0
C694 C 0.83179 0.18576 0.1158 0.0
C695 C 0.73414 0.17367 0.15521 0.0
C696 C 0.77123 0.11664 0.16059 0.0
C697 C 0.74017 0.1502 0.14063 0.0
N698 N 0.75877 0.12233 0.14342 0.0
C699 C 0.76576 0.13963 0.17549 0.0
C700 C 0.74711 0.16834 0.17274 0.0
C701 C 0.75165 0.00457 0.1406 0.0
C702 C 0.68899 0.9261 0.07669 0.0
C703 C 0.73689 0.92456 0.10729 0.0
C704 C 0.69782 0.88384 0.10154 0.0
C705 C 0.67371 0.88473 0.08615 0.0
N706 N 0.75193 0.96497 0.09787 0.0
C707 C 0.7284 0.96607 0.08277 0.0
C708 C 0.94574 0.12089 0.13573 0.0
C709 C 0.9082 0.12794 0.139 0.0
C710 C 0.98505 0.14061 0.14715 0.0
C711 C 0.98725 0.16832 0.16224 0.0
C712 C 0.94991 0.17627 0.16542 0.0
C713 C 0.91102 0.15607 0.15383 0.0
C714 C 0.024 0.13117 0.14323 0.0
C715 C 0.95071 0.20564 0.18126 0.0
C716 C 0.06871 0.18387 0.20186 0.0
C717 C 0.10723 0.22755 0.19813 0.0
C718 C 0.02952 0.16429 0.19036 0.0
C719 C 0.02848 0.1889 0.17474 0.0
C720 C 0.06689 0.23325 0.17106 0.0
C721 C 0.10562 0.25195 0.18274 0.0
C722 C 0.9894 0.11692 0.19483 0.0
C723 C 0.06736 0.26083 0.15463 0.0
H724 H 0.94409 0.09913 0.12443 0.0
H725 H 0.88243 0.1619 0.15659 0.0
H726 H 0.05687 0.16428 0.14129 0.0
H727 H 0.02897 0.1133 0.15506 0.0
H728 H 0.01736 0.10942 0.13086 0.0
H729 H 0.91933 0.20917 0.18172 0.0
H730 H 0.95322 0.19012 0.19431 0.0
H731 H 0.98167 0.2407 0.18034 0.0
H732 H 0.06942 0.16446 0.2136 0.0
H733 H 0.135 0.28565 0.17962 0.0
H734 H 0.98352 0.09274 0.1834 0.0
H735 H 0.95727 0.1187 0.19646 0.0
H736 H 0.99531 0.10238 0.20753 0.0
H737 H 0.06404 0.24119 0.14194 0.0
H738 H 0.09959 0.29503 0.15377 0.0
H739 H 0.03731 0.26647 0.15513 0.0
C740 C 0.89123 0.06282 0.53701 0.0
C741 C 0.885 0.10073 0.53341 0.0
C742 C 0.87152 0.02337 0.52566 0.0
C743 C 0.84468 0.02143 0.51029 0.0
C744 C 0.83767 0.05923 0.50675 0.0
C745 C 0.85783 0.09823 0.51828 0.0
C746 C 0.87995 0.98395 0.52997 0.0
C747 C 0.80928 0.05874 0.49059 0.0
C748 C 0.82912 0.93878 0.47115 0.0
C749 C 0.78492 0.90085 0.47471 0.0
C750 C 0.84889 0.97813 0.48255 0.0
C751 C 0.82396 0.97997 0.49792 0.0
C752 C 0.77911 0.94216 0.50143 0.0
C753 C 0.76023 0.90323 0.48985 0.0
C754 C 0.89679 0.01758 0.47826 0.0
C755 C 0.75118 0.94254 0.51759 0.0
H756 H 0.91226 0.06422 0.54855 0.0
H757 H 0.85267 0.12712 0.51525 0.0
H758 H 0.84645 0.95147 0.53187 0.0
H759 H 0.89792 0.97831 0.51836 0.0
H760 H 0.9012 0.99049 0.54249 0.0
H761 H 0.80654 0.09054 0.48982 0.0
H762 H 0.82509 0.05555 0.47774 0.0
H763 H 0.77388 0.02826 0.4914 0.0
H764 H 0.84876 0.93746 0.4596 0.0
H765 H 0.72614 0.87433 0.49285 0.0
H766 H 0.92037 0.02324 0.4899 0.0
H767 H 0.89578 0.05004 0.47635 0.0
H768 H 0.91157 0.01107 0.46577 0.0
H769 H 0.7702 0.94578 0.53044 0.0
H770 H 0.71665 0.9107 0.51835 0.0
H771 H 0.7462 0.97297 0.51678 0.0
C772 C 0.82894 0.88949 0.86873 0.0
C773 C 0.78519 0.88404 0.86491 0.0
C774 C 0.84888 0.87016 0.85729 0.0
C775 C 0.82457 0.8445 0.84161 0.0
C776 C 0.78019 0.83833 0.83782 0.0
C777 C 0.76114 0.8581 0.84944 0.0
C778 C 0.89629 0.87769 0.86187 0.0
C779 C 0.75292 0.81121 0.82132 0.0
C780 C 0.89297 0.82988 0.80273 0.0
C781 C 0.88586 0.78527 0.80602 0.0
C782 C 0.87324 0.84949 0.81413 0.0
C783 C 0.84543 0.82397 0.8292 0.0
C784 C 0.83754 0.77871 0.83242 0.0
C785 C 0.85778 0.76002 0.82086 0.0
C786 C 0.88266 0.89786 0.81018 0.0
C787 C 0.80808 0.75012 0.84825 0.0
H788 H 0.84811 0.90959 0.88052 0.0
H789 H 0.7274 0.85356 0.84624 0.0
H790 H 0.89463 0.84385 0.86358 0.0
H791 H 0.92057 0.89601 0.85047 0.0
H792 H 0.91063 0.89823 0.87457 0.0
H793 H 0.7187 0.80914 0.82035 0.0
H794 H 0.77277 0.82757 0.80868 0.0
H795 H 0.74732 0.77554 0.82187 0.0
H796 H 0.91472 0.84996 0.79142 0.0
H797 H 0.85192 0.7256 0.82365 0.0
H798 H 0.90023 0.92069 0.82204 0.0
H799 H 0.84955 0.89751 0.80809 0.0
H800 H 0.90468 0.91308 0.79788 0.0
H801 H 0.82338 0.76829 0.8613 0.0
H802 H 0.80475 0.7153 0.84878 0.0
H803 H 0.77294 0.74578 0.84722 0.0
C804 C 0.9097 0.76424 0.18394 0.0
C805 C 0.90789 0.78798 0.19951 0.0
C806 C 0.94868 0.7833 0.17239 0.0
C807 C 0.98716 0.82738 0.17639 0.0
C808 C 0.9859 0.85136 0.19219 0.0
C809 C 0.94645 0.83141 0.20354 0.0
C810 C 0.94841 0.7564 0.15576 0.0
C811 C 0.02607 0.89842 0.19699 0.0
C812 C 0.10467 0.85988 0.15561 0.0
C813 C 0.10782 0.88832 0.14085 0.0
C814 C 0.06572 0.8398 0.16716 0.0
C815 C 0.02869 0.84827 0.16405 0.0
C816 C 0.03135 0.87655 0.1491 0.0
C817 C 0.07069 0.89607 0.13768 0.0
C818 C 0.06442 0.8098 0.18286 0.0
C819 C 0.9928 0.88663 0.14526 0.0
H820 H 0.8803 0.73074 0.18058 0.0
H821 H 0.94559 0.85033 0.21543 0.0
H822 H 0.95223 0.77669 0.14322 0.0
H823 H 0.97827 0.75046 0.15625 0.0
H824 H 0.91606 0.72237 0.15464 0.0
H825 H 0.01995 0.91249 0.20978 0.0
H826 H 0.05804 0.89635 0.19865 0.0
H827 H 0.0324 0.92314 0.18572 0.0
H828 H 0.13297 0.85354 0.1583 0.0
H829 H 0.07262 0.91813 0.12645 0.0
H830 H 0.03344 0.77481 0.18169 0.0
H831 H 0.06155 0.82482 0.19598 0.0
H832 H 0.09573 0.80617 0.18336 0.0
H833 H 0.95985 0.85379 0.143 0.0
H834 H 0.99997 0.90914 0.1331 0.0
H835 H 0.98763 0.9039 0.15725 0.0
C836 C 0.24927 0.09699 0.48721 0.0
C837 C 0.2244 0.09952 0.47216 0.0
C838 C 0.23049 0.05801 0.49874 0.0
C839 C 0.18554 0.0203 0.4953 0.0
C840 C 0.16048 0.02221 0.47998 0.0
C841 C 0.18019 0.06161 0.46861 0.0
C842 C 0.25859 0.05752 0.51483 0.0
C843 C 0.11246 0.98289 0.47578 0.0
C844 C 0.15125 0.90226 0.516 0.0
C845 C 0.12461 0.90038 0.53121 0.0
C846 C 0.17133 0.94096 0.50431 0.0
C847 C 0.16473 0.97904 0.50777 0.0
C848 C 0.13835 0.97769 0.5232 0.0
C849 C 0.11876 0.93856 0.53472 0.0
C850 C 0.19925 0.94084 0.4881 0.0
C851 C 0.13033 0.01741 0.52742 0.0
H852 H 0.2834 0.12587 0.49018 0.0
H853 H 0.16042 0.06303 0.45712 0.0
H854 H 0.23995 0.05479 0.52773 0.0
H855 H 0.26309 0.02679 0.51406 0.0
H856 H 0.29334 0.08912 0.51545 0.0
H857 H 0.0977 0.98932 0.46325 0.0
H858 H 0.1132 0.95026 0.47396 0.0
H859 H 0.089 0.97759 0.48742 0.0
H860 H 0.1561 0.87314 0.51304 0.0
H861 H 0.09812 0.93764 0.54632 0.0
H862 H 0.2348 0.97113 0.48878 0.0
H863 H 0.18333 0.94399 0.47527 0.0
H864 H 0.20163 0.90884 0.48738 0.0
H865 H 0.16398 0.04976 0.52926 0.0
H866 H 0.1092 0.01122 0.53995 0.0
H867 H 0.11242 0.02309 0.51579 0.0
C868 C 0.18164 0.11944 0.87005 0.0
C869 C 0.22556 0.12516 0.86638 0.0
C870 C 0.16209 0.13931 0.8587 0.0
C871 C 0.18701 0.16586 0.84328 0.0
C872 C 0.23164 0.17246 0.83969 0.0
C873 C 0.25028 0.1521 0.85122 0.0
C874 C 0.1144 0.1313 0.86305 0.0
C875 C 0.25956 0.20055 0.82348 0.0
C876 C 0.11965 0.18108 0.80417 0.0
C877 C 0.12607 0.22535 0.80766 0.0
C878 C 0.13931 0.16142 0.81557 0.0
C879 C 0.16636 0.18656 0.83086 0.0
C880 C 0.17361 0.2315 0.83429 0.0
C881 C 0.15344 0.25025 0.82271 0.0
C882 C 0.1306 0.1134 0.81139 0.0
C883 C 0.20225 0.25965 0.85035 0.0
H884 H 0.16198 0.0986 0.88162 0.0
H885 H 0.28418 0.15689 0.84815 0.0
H886 H 0.11571 0.16495 0.86486 0.0
H887 H 0.09059 0.1132 0.8515 0.0
H888 H 0.09971 0.11033 0.87563 0.0
H889 H 0.29405 0.20316 0.82273 0.0
H890 H 0.24046 0.18458 0.81066 0.0
H891 H 0.26462 0.23601 0.8242 0.0
H892 H 0.09846 0.16127 0.79269 0.0
H893 H 0.15876 0.28441 0.82565 0.0
H894 H 0.11268 0.09002 0.82308 0.0
H895 H 0.16399 0.11422 0.80947 0.0
H896 H 0.10918 0.0985 0.79892 0.0
H897 H 0.18649 0.24095 0.86327 0.0
H898 H 0.20524 0.29431 0.85101 0.0
H899 H 0.23755 0.26434 0.84953 0.0
C900 C 0.6103 0.561 0.22232 0.0
C901 C 0.62429 0.60079 0.23298 0.0
C902 C 0.56454 0.52385 0.22293 0.0
C903 C 0.53216 0.52583 0.23489 0.0
C904 C 0.54662 0.56517 0.24622 0.0
C905 C 0.5923 0.60249 0.24492 0.0
C906 C 0.55043 0.48324 0.21025 0.0
C907 C 0.51366 0.56812 0.25954 0.0
C908 C 0.40455 0.45343 0.22233 0.0
C909 C 0.39063 0.41286 0.23245 0.0
C910 C 0.4503 0.49056 0.22316 0.0
C911 C 0.48274 0.48772 0.2348 0.0
C912 C 0.46834 0.44755 0.24562 0.0
C913 C 0.42267 0.41031 0.2441 0.0
C914 C 0.46434 0.53212 0.21102 0.0
C915 C 0.50138 0.44363 0.25859 0.0
H916 H 0.6347 0.55963 0.21292 0.0
H917 H 0.603 0.63307 0.25325 0.0
H918 H 0.53598 0.45063 0.2182 0.0
H919 H 0.52279 0.48002 0.20089 0.0
H920 H 0.57985 0.48675 0.20192 0.0
H921 H 0.53127 0.59906 0.2685 0.0
H922 H 0.48567 0.56967 0.25197 0.0
H923 H 0.49705 0.53667 0.26824 0.0
H924 H 0.38012 0.45549 0.21316 0.0
H925 H 0.41203 0.37912 0.25202 0.0
H926 H 0.49191 0.53604 0.20147 0.0
H927 H 0.47883 0.56411 0.21936 0.0
H928 H 0.43486 0.52922 0.2029 0.0
H929 H 0.52932 0.44264 0.25075 0.0
H930 H 0.48381 0.41203 0.2672 0.0
H931 H 0.51804 0.47443 0.26764 0.0
C932 C 0.05447 0.60388 0.55599 0.0
C933 C 0.02844 0.61812 0.56636 0.0
C934 C 0.04569 0.5581 0.55682 0.0
C935 C 0.01094 0.52597 0.56872 0.0
C936 C 0.98587 0.54071 0.5798 0.0
C937 C 0.99439 0.58639 0.57826 0.0
C938 C 0.07243 0.54369 0.54442 0.0
C939 C 0.94954 0.50802 0.59306 0.0
C940 C 0.95552 0.39817 0.55651 0.0
C941 C 0.98184 0.38428 0.56686 0.0
C942 C 0.96432 0.44398 0.55714 0.0
C943 C 0.99942 0.4765 0.56883 0.0
C944 C 0.02481 0.46213 0.5799 0.0
C945 C 0.01624 0.4164 0.57856 0.0
C946 C 0.93722 0.45799 0.54475 0.0
C947 C 0.06152 0.49525 0.59294 0.0
H948 H 0.08052 0.62808 0.54662 0.0
H949 H 0.97433 0.59728 0.58637 0.0
H950 H 0.09027 0.52925 0.55257 0.0
H951 H 0.04818 0.51597 0.53504 0.0
H952 H 0.09866 0.57295 0.5361 0.0
H953 H 0.93616 0.52587 0.60185 0.0
H954 H 0.92007 0.48003 0.58545 0.0
H955 H 0.96404 0.4914 0.60193 0.0
H956 H 0.92919 0.37366 0.5473 0.0
H957 H 0.03653 0.40578 0.58666 0.0
H958 H 0.9612 0.48539 0.53521 0.0
H959 H 0.91962 0.47269 0.55289 0.0
H960 H 0.91076 0.42845 0.53661 0.0
H961 H 0.09076 0.52299 0.58515 0.0
H962 H 0.07516 0.47769 0.60176 0.0
H963 H 0.04727 0.51216 0.60179 0.0
C964 C 0.40756 0.99054 0.91104 0.0
C965 C 0.41013 0.02535 0.89952 0.0
C966 C 0.44469 0.98193 0.91239 0.0
C967 C 0.48475 0.00772 0.90151 0.0
C968 C 0.4876 0.04317 0.88997 0.0
C969 C 0.4506 0.05199 0.88933 0.0
C970 C 0.44078 0.9448 0.92526 0.0
C971 C 0.52902 0.07071 0.87777 0.0
C972 C 0.5996 0.01285 0.91126 0.0
C973 C 0.59773 0.97925 0.89922 0.0
C974 C 0.56229 0.02115 0.91273 0.0
C975 C 0.5228 0.99635 0.90145 0.0
C976 C 0.52064 0.96205 0.88941 0.0
C977 C 0.55778 0.95347 0.88865 0.0
C978 C 0.56544 0.05698 0.92614 0.0
C979 C 0.47985 0.93562 0.87679 0.0
H980 H 0.37645 0.97 0.91901 0.0
H981 H 0.45266 0.07863 0.88025 0.0
H982 H 0.43966 0.91592 0.91734 0.0
H983 H 0.47166 0.95882 0.93426 0.0
H984 H 0.40926 0.93072 0.93392 0.0
H985 H 0.52609 0.09734 0.86971 0.0
H986 H 0.56112 0.08817 0.88606 0.0
H987 H 0.53279 0.04706 0.86817 0.0
H988 H 0.63031 0.03272 0.91953 0.0
H989 H 0.55628 0.92776 0.87918 0.0
H990 H 0.53405 0.0421 0.93487 0.0
H991 H 0.56702 0.08663 0.91865 0.0
H992 H 0.59645 0.07019 0.93505 0.0
H993 H 0.44733 0.91746 0.88479 0.0
H994 H 0.4832 0.90971 0.8684 0.0
H995 H 0.4766 0.96012 0.86749 0.0
C996 C 0.59947 0.58629 0.4284 0.0
C997 C 0.59735 0.61814 0.44029 0.0
C998 C 0.56212 0.54069 0.42686 0.0
C999 C 0.52233 0.52613 0.43793 0.0
C1000 C 0.51992 0.55837 0.44983 0.0
C1001 C 0.5571 0.60409 0.45065 0.0
C1002 C 0.56555 0.5079 0.4136 0.0
C1003 C 0.47881 0.54413 0.46225 0.0
C1004 C 0.40726 0.41665 0.42805 0.0
C1005 C 0.40952 0.38443 0.43967 0.0
C1006 C 0.44446 0.4624 0.42677 0.0
C1007 C 0.48422 0.4767 0.43784 0.0
C1008 C 0.48673 0.44411 0.44949 0.0
C1009 C 0.44971 0.39827 0.45006 0.0
C1010 C 0.44094 0.4956 0.41376 0.0
C1011 C 0.5278 0.45803 0.4619 0.0
H1012 H 0.63041 0.59704 0.4203 0.0
H1013 H 0.55542 0.62839 0.46002 0.0
H1014 H 0.56692 0.47987 0.42121 0.0
H1015 H 0.53438 0.49135 0.40474 0.0
H1016 H 0.59678 0.52565 0.40479 0.0
H1017 H 0.482 0.57347 0.47055 0.0
H1018 H 0.4465 0.52974 0.45411 0.0
H1019 H 0.47526 0.51642 0.47164 0.0
H1020 H 0.37636 0.40606 0.41993 0.0
H1021 H 0.4515 0.37369 0.45922 0.0
H1022 H 0.47205 0.51239 0.40487 0.0
H1023 H 0.43967 0.52343 0.42156 0.0
H1024 H 0.40964 0.47813 0.40497 0.0
H1025 H 0.56011 0.47255 0.45376 0.0
H1026 H 0.52457 0.42849 0.47007 0.0
H1027 H 0.53139 0.48555 0.47141 0.0
C1028 C 0.95561 0.55804 0.78288 0.0
C1029 C 0.98194 0.59818 0.77248 0.0
C1030 C 0.96448 0.52108 0.78236 0.0
C1031 C 0.99963 0.5236 0.77072 0.0
C1032 C 0.02501 0.56327 0.7596 0.0
C1033 C 0.0164 0.60041 0.76084 0.0
C1034 C 0.9374 0.48009 0.79481 0.0
C1035 C 0.06176 0.56679 0.74661 0.0
C1036 C 0.05484 0.45158 0.78377 0.0
C1037 C 0.02883 0.41119 0.77346 0.0
C1038 C 0.04598 0.48852 0.78286 0.0
C1039 C 0.01119 0.4857 0.77093 0.0
C1040 C 0.98613 0.44575 0.75992 0.0
C1041 C 0.99471 0.40865 0.76154 0.0
C1042 C 0.07268 0.52981 0.79522 0.0
C1043 C 0.94979 0.4419 0.74662 0.0
H1044 H 0.92925 0.55627 0.79205 0.0
H1045 H 0.0367 0.63127 0.75271 0.0
H1046 H 0.91983 0.44768 0.78672 0.0
H1047 H 0.96139 0.47682 0.80439 0.0
H1048 H 0.91091 0.4832 0.8029 0.0
H1049 H 0.07536 0.59789 0.73772 0.0
H1050 H 0.09102 0.56846 0.75444 0.0
H1051 H 0.04756 0.53552 0.73782 0.0
H1052 H 0.08094 0.45358 0.79314 0.0
H1053 H 0.97467 0.3776 0.75348 0.0
H1054 H 0.0484 0.53335 0.80454 0.0
H1055 H 0.09053 0.56201 0.78701 0.0
H1056 H 0.09889 0.52689 0.80358 0.0
H1057 H 0.92032 0.44048 0.7542 0.0
H1058 H 0.93641 0.41055 0.7379 0.0
H1059 H 0.96427 0.47293 0.73769 0.0
C1060 C 0.40423 0.95612 0.11694 0.0
C1061 C 0.38991 0.98178 0.10639 0.0
C1062 C 0.45004 0.96494 0.11616 0.0
C1063 C 0.48207 0.99931 0.10411 0.0
C1064 C 0.46721 0.02395 0.09284 0.0
C1065 C 0.42154 0.01545 0.09434 0.0
C1066 C 0.4646 0.93871 0.12878 0.0
C1067 C 0.49977 0.05981 0.07941 0.0
C1068 C 0.61004 0.05555 0.11616 0.0
C1069 C 0.62393 0.02893 0.10602 0.0
C1070 C 0.56415 0.04653 0.11553 0.0
C1071 C 0.53156 0.01092 0.10403 0.0
C1072 C 0.54592 0.98519 0.09318 0.0
C1073 C 0.59172 0.99397 0.09453 0.0
C1074 C 0.55016 0.07399 0.12771 0.0
C1075 C 0.51273 0.94794 0.08033 0.0
H1076 H 0.38009 0.93038 0.12642 0.0
H1077 H 0.41056 0.03522 0.08609 0.0
H1078 H 0.47904 0.92064 0.12079 0.0
H1079 H 0.49235 0.96332 0.13806 0.0
H1080 H 0.4354 0.91275 0.1372 0.0
H1081 H 0.4818 0.07279 0.07047 0.0
H1082 H 0.52776 0.0896 0.08688 0.0
H1083 H 0.51641 0.04505 0.07069 0.0
H1084 H 0.63463 0.08231 0.12521 0.0
H1085 H 0.60236 0.97344 0.0866 0.0
H1086 H 0.52281 0.05032 0.13734 0.0
H1087 H 0.53538 0.09129 0.11942 0.0
H1088 H 0.57972 0.10075 0.13575 0.0
H1089 H 0.48509 0.91898 0.08826 0.0
H1090 H 0.53027 0.93401 0.07165 0.0
H1091 H 0.49569 0.96177 0.07134 0.0
C1092 C 0.32762 0.09097 0.14609 0.0
C1093 C 0.29025 0.05027 0.15299 0.0
C1094 C 0.33817 0.13419 0.15322 0.0
C1095 C 0.31156 0.13592 0.16792 0.0
C1096 C 0.27847 0.09434 0.17658 0.0
C1097 C 0.26753 0.0518 0.16874 0.0
C1098 C 0.37379 0.17765 0.14371 0.0
C1099 C 0.2507 0.09474 0.19281 0.0
C1100 C 0.32607 0.24152 0.19275 0.0
C1101 C 0.28729 0.24262 0.18611 0.0
C1102 C 0.33745 0.20914 0.18596 0.0
C1103 C 0.31028 0.1789 0.17177 0.0
C1104 C 0.27516 0.1847 0.16339 0.0
C1105 C 0.26344 0.21598 0.17095 0.0
C1106 C 0.37523 0.20418 0.19515 0.0
C1107 C 0.24657 0.15439 0.14772 0.0
H1108 H 0.34485 0.08932 0.13379 0.0
H1109 H 0.23841 0.0201 0.1739 0.0
H1110 H 0.35664 0.19541 0.13739 0.0
H1111 H 0.39927 0.20197 0.15371 0.0
H1112 H 0.39262 0.17034 0.1329 0.0
H1113 H 0.23093 0.06011 0.19931 0.0
H1114 H 0.27393 0.11991 0.20317 0.0
H1115 H 0.22578 0.10567 0.18839 0.0
H1116 H 0.34407 0.26213 0.20464 0.0
H1117 H 0.23324 0.21686 0.166 0.0
H1118 H 0.40232 0.20977 0.18507 0.0
H1119 H 0.36097 0.16858 0.20061 0.0
H1120 H 0.39173 0.2292 0.20653 0.0
H1121 H 0.26951 0.1535 0.13696 0.0
H1122 H 0.22427 0.16672 0.14152 0.0
H1123 H 0.22396 0.11841 0.15261 0.0
C1124 C 0.08945 0.31871 0.52747 0.0
C1125 C 0.04848 0.28146 0.5207 0.0
C1126 C 0.13243 0.32899 0.52017 0.0
C1127 C 0.13364 0.30232 0.50539 0.0
C1128 C 0.09177 0.26922 0.4969 0.0
C1129 C 0.04949 0.25846 0.50495 0.0
C1130 C 0.17621 0.36444 0.52957 0.0
C1131 C 0.09162 0.24143 0.48058 0.0
C1132 C 0.23845 0.31771 0.47968 0.0
C1133 C 0.23992 0.27888 0.48599 0.0
C1134 C 0.2062 0.32878 0.48687 0.0
C1135 C 0.17657 0.3013 0.50113 0.0
C1136 C 0.18284 0.26612 0.50918 0.0
C1137 C 0.21388 0.25465 0.5012 0.0
C1138 C 0.20062 0.36651 0.47798 0.0
C1139 C 0.15315 0.23717 0.52492 0.0
H1140 H 0.08819 0.33616 0.53978 0.0
H1141 H 0.01757 0.22944 0.49988 0.0
H1142 H 0.20021 0.39011 0.51955 0.0
H1143 H 0.16926 0.38309 0.54057 0.0
H1144 H 0.19418 0.3472 0.53562 0.0
H1145 H 0.05678 0.22174 0.47422 0.0
H1146 H 0.11652 0.26462 0.47014 0.0
H1147 H 0.10258 0.21644 0.48485 0.0
H1148 H 0.2586 0.33602 0.46775 0.0
H1149 H 0.21503 0.2244 0.50589 0.0
H1150 H 0.20593 0.39319 0.48821 0.0
H1151 H 0.16491 0.35198 0.47259 0.0
H1152 H 0.22548 0.38357 0.46659 0.0
H1153 H 0.16646 0.21564 0.53106 0.0
H1154 H 0.11729 0.21377 0.52007 0.0
H1155 H 0.15159 0.2597 0.5357 0.0
C1156 C 0.92257 0.24098 0.81401 0.0
C1157 C 0.96289 0.24287 0.82056 0.0
C1158 C 0.87913 0.20845 0.82105 0.0
C1159 C 0.87684 0.17886 0.83534 0.0
C1160 C 0.91821 0.18574 0.84369 0.0
C1161 C 0.96089 0.21714 0.8359 0.0
C1162 C 0.83589 0.20248 0.81194 0.0
C1163 C 0.91729 0.15617 0.8595 0.0
C1164 C 0.77145 0.08892 0.86056 0.0
C1165 C 0.76898 0.04871 0.85356 0.0
C1166 C 0.80408 0.13255 0.85372 0.0
C1167 C 0.83319 0.13518 0.83917 0.0
C1168 C 0.82583 0.09404 0.83045 0.0
C1169 C 0.79433 0.05113 0.83804 0.0
C1170 C 0.81071 0.17551 0.86328 0.0
C1171 C 0.85472 0.09538 0.81432 0.0
H1172 H 0.92456 0.26095 0.802 0.0
H1173 H 0.99231 0.21863 0.84079 0.0
H1174 H 0.81526 0.16686 0.80639 0.0
H1175 H 0.81395 0.20719 0.82207 0.0
H1176 H 0.8438 0.22755 0.80062 0.0
H1177 H 0.95197 0.16987 0.86586 0.0
H1178 H 0.89262 0.1542 0.8701 0.0
H1179 H 0.90544 0.12043 0.85465 0.0
H1180 H 0.75172 0.08657 0.8727 0.0
H1181 H 0.79235 0.01978 0.83279 0.0
H1182 H 0.80709 0.19861 0.85338 0.0
H1183 H 0.84617 0.19503 0.86906 0.0
H1184 H 0.78532 0.16736 0.87449 0.0
H1185 H 0.85512 0.11944 0.80378 0.0
H1186 H 0.84144 0.0607 0.80802 0.0
H1187 H 0.89099 0.10831 0.81873 0.0
C1188 C 0.68935 0.92581 0.14741 0.0
C1189 C 0.72826 0.9664 0.1535 0.0
C1190 C 0.67853 0.88277 0.15483 0.0
C1191 C 0.70641 0.88121 0.16906 0.0
C1192 C 0.74151 0.92298 0.17694 0.0
C1193 C 0.75268 0.96521 0.16876 0.0
C1194 C 0.64074 0.83908 0.14616 0.0
C1195 C 0.77099 0.92287 0.1926 0.0
C1196 C 0.69054 0.77679 0.19514 0.0
C1197 C 0.72763 0.77328 0.18807 0.0
C1198 C 0.67997 0.80952 0.1881 0.0
C1199 C 0.70616 0.83763 0.17329 0.0
C1200 C 0.73928 0.82927 0.16457 0.0
C1201 C 0.75034 0.79772 0.17236 0.0
C1202 C 0.64462 0.8175 0.19777 0.0
C1203 C 0.76648 0.85707 0.14817 0.0
H1204 H 0.67088 0.92716 0.13545 0.0
H1205 H 0.78301 0.99682 0.17328 0.0
H1206 H 0.65542 0.81815 0.14066 0.0
H1207 H 0.61458 0.81765 0.15655 0.0
H1208 H 0.62303 0.84641 0.13489 0.0
H1209 H 0.79167 0.95773 0.19885 0.0
H1210 H 0.74902 0.89812 0.20333 0.0
H1211 H 0.79525 0.91167 0.18759 0.0
H1212 H 0.67335 0.75775 0.20743 0.0
H1213 H 0.77922 0.79493 0.16707 0.0
H1214 H 0.6187 0.81592 0.1879 0.0
H1215 H 0.66192 0.85261 0.20392 0.0
H1216 H 0.62628 0.79167 0.20874 0.0
H1217 H 0.7426 0.8572 0.13767 0.0
H1218 H 0.78733 0.84307 0.14195 0.0
H1219 H 0.79033 0.89351 0.15226 0.0
C1220 C 0.79198 0.74285 0.50262 0.0
C1221 C 0.76605 0.7193 0.48728 0.0
C1222 C 0.82325 0.73127 0.51032 0.0
C1223 C 0.82978 0.69667 0.50188 0.0
C1224 C 0.79993 0.6695 0.48761 0.0
C1225 C 0.76754 0.68071 0.48067 0.0
C1226 C 0.85296 0.75965 0.52615 0.0
C1227 C 0.80538 0.63198 0.47847 0.0
C1228 C 0.95746 0.74175 0.50439 0.0
C1229 C 0.95998 0.71894 0.51993 0.0
C1230 C 0.9145 0.73025 0.49682 0.0
C1231 C 0.87341 0.6965 0.50559 0.0
C1232 C 0.87614 0.67002 0.52012 0.0
C1233 C 0.91982 0.68111 0.52694 0.0
C1234 C 0.91308 0.75772 0.48069 0.0
C1235 C 0.83321 0.6335 0.52965 0.0
H1236 H 0.79076 0.77286 0.50758 0.0
H1237 H 0.74737 0.66284 0.46868 0.0
H1238 H 0.85394 0.73657 0.53682 0.0
H1239 H 0.88898 0.7828 0.52141 0.0
H1240 H 0.83999 0.78136 0.53239 0.0
H1241 H 0.78056 0.61538 0.46703 0.0
H1242 H 0.8411 0.64649 0.47311 0.0
H1243 H 0.79979 0.60493 0.48856 0.0
H1244 H 0.98878 0.77117 0.49912 0.0
H1245 H 0.92224 0.6638 0.53908 0.0
H1246 H 0.89999 0.78093 0.48507 0.0
H1247 H 0.8891 0.73394 0.47015 0.0
H1248 H 0.94775 0.77925 0.4744 0.0
H1249 H 0.81303 0.64902 0.53513 0.0
H1250 H 0.84147 0.61689 0.54107 0.0
H1251 H 0.8107 0.60631 0.51978 0.0
C1252 C 0.23884 0.92022 0.85971 0.0
C1253 C 0.24051 0.96047 0.85322 0.0
C1254 C 0.20646 0.87676 0.85264 0.0
C1255 C 0.17686 0.87441 0.83833 0.0
C1256 C 0.18335 0.91575 0.8301 0.0
C1257 C 0.21455 0.95842 0.83794 0.0
C1258 C 0.20073 0.83357 0.8617 0.0
C1259 C 0.1538 0.91478 0.81427 0.0
C1260 C 0.08915 0.76968 0.81222 0.0
C1261 C 0.04837 0.76649 0.81893 0.0
C1262 C 0.13226 0.80222 0.8195 0.0
C1263 C 0.13376 0.83046 0.83419 0.0
C1264 C 0.09202 0.82214 0.84266 0.0
C1265 C 0.04964 0.79078 0.83463 0.0
C1266 C 0.1759 0.80992 0.81019 0.0
C1267 C 0.09217 0.85017 0.85889 0.0
H1268 H 0.25896 0.92227 0.87168 0.0
H1269 H 0.21587 0.98979 0.8331 0.0
H1270 H 0.16497 0.81248 0.86705 0.0
H1271 H 0.20611 0.81204 0.85158 0.0
H1272 H 0.22549 0.84155 0.87314 0.0
H1273 H 0.16687 0.94961 0.80815 0.0
H1274 H 0.15281 0.89091 0.8035 0.0
H1275 H 0.11775 0.90185 0.81898 0.0
H1276 H 0.0877 0.75077 0.79995 0.0
H1277 H 0.01787 0.78828 0.83965 0.0
H1278 H 0.19934 0.80741 0.82025 0.0
H1279 H 0.19462 0.84529 0.80429 0.0
H1280 H 0.16867 0.78446 0.79909 0.0
H1281 H 0.11697 0.85182 0.86936 0.0
H1282 H 0.05736 0.83538 0.86524 0.0
H1283 H 0.10343 0.88614 0.85452 0.0
C1284 C 0.18015 0.16956 0.37634 0.0
C1285 C 0.22473 0.17846 0.38103 0.0
C1286 C 0.16967 0.177 0.35852 0.0
C1287 C 0.20442 0.1933 0.34491 0.0
C1288 C 0.24884 0.20019 0.3493 0.0
C1289 C 0.25849 0.19275 0.3673 0.0
C1290 C 0.12186 0.16907 0.35444 0.0
C1291 C 0.2867 0.21702 0.33511 0.0
C1292 C 0.17129 0.18171 0.29464 0.0
C1293 C 0.18249 0.22709 0.29013 0.0
C1294 C 0.17743 0.17002 0.31244 0.0
C1295 C 0.19475 0.20438 0.32622 0.0
C1296 C 0.20394 0.24968 0.32201 0.0
C1297 C 0.19776 0.26052 0.30402 0.0
C1298 C 0.16704 0.12129 0.31633 0.0
C1299 C 0.22191 0.28718 0.33637 0.0
H1300 H 0.1536 0.1581 0.38675 0.0
H1301 H 0.29303 0.19984 0.37074 0.0
H1302 H 0.12416 0.20237 0.35067 0.0
H1303 H 0.10661 0.14539 0.34261 0.0
H1304 H 0.09807 0.15418 0.36629 0.0
H1305 H 0.31846 0.21815 0.3404 0.0
H1306 H 0.27445 0.19418 0.32293 0.0
H1307 H 0.29582 0.25229 0.33054 0.0
H1308 H 0.15902 0.15541 0.2841 0.0
H1309 H 0.20662 0.29568 0.30072 0.0
H1310 H 0.14281 0.10655 0.32802 0.0
H1311 H 0.19941 0.12175 0.32022 0.0
H1312 H 0.15168 0.09806 0.30435 0.0
H1313 H 0.1987 0.27547 0.34845 0.0
H1314 H 0.22485 0.31985 0.3312 0.0
H1315 H 0.25656 0.29452 0.34107 0.0
C1316 C 0.99404 0.16683 0.62991 0.0
C1317 C 0.95932 0.17706 0.62514 0.0
C1318 C 0.01175 0.17381 0.64776 0.0
C1319 C 0.99405 0.191 0.66131 0.0
C1320 C 0.95736 0.19913 0.65686 0.0
C1321 C 0.94047 0.19212 0.63883 0.0
C1322 C 0.05071 0.16453 0.65191 0.0
C1323 C 0.93712 0.21692 0.67099 0.0
C1324 C 0.01465 0.17909 0.71164 0.0
C1325 C 0.04967 0.22417 0.71612 0.0
C1326 C 0.99686 0.16757 0.69383 0.0
C1327 C 0.01478 0.20178 0.68001 0.0
C1328 C 0.05171 0.24672 0.68418 0.0
C1329 C 0.06868 0.2574 0.70218 0.0
C1330 C 0.95763 0.11924 0.68998 0.0
C1331 C 0.07218 0.28404 0.66976 0.0
H1332 H 0.0086 0.15472 0.61953 0.0
H1333 H 0.91375 0.20023 0.63533 0.0
H1334 H 0.08231 0.19741 0.65563 0.0
H1335 H 0.04165 0.14091 0.66379 0.0
H1336 H 0.05897 0.14897 0.64011 0.0
H1337 H 0.90696 0.21888 0.66566 0.0
H1338 H 0.92602 0.19419 0.68321 0.0
H1339 H 0.96392 0.25199 0.67552 0.0
H1340 H 0.99995 0.15294 0.72222 0.0
H1341 H 0.09562 0.29233 0.70545 0.0
H1342 H 0.96653 0.10392 0.67831 0.0
H1343 H 0.9262 0.1206 0.68607 0.0
H1344 H 0.94918 0.09599 0.70199 0.0
H1345 H 0.08316 0.27168 0.65773 0.0
H1346 H 0.10245 0.31633 0.67492 0.0
H1347 H 0.04554 0.29227 0.665 0.0
C1348 C 0.81726 0.0678 0.03424 0.0
C1349 C 0.83025 0.04769 0.04817 0.0
C1350 C 0.81006 0.05059 0.01625 0.0
C1351 C 0.81585 0.01229 0.01209 0.0
C1352 C 0.83085 0.99315 0.02591 0.0
C1353 C 0.83808 0.0112 0.0437 0.0
C1354 C 0.79462 0.07235 1.00184 0.0
C1355 C 0.83757 0.95242 0.02208 0.0
C1356 C 0.74861 0.93907 0.97106 0.0
C1357 C 0.78246 0.95648 0.95731 0.0
C1358 C 0.7593 0.95608 0.98905 0.0
C1359 C 0.80489 0.99141 0.99342 0.0
C1360 C 0.83963 0.00759 0.97981 0.0
C1361 C 0.82807 0.9898 0.96199 0.0
C1362 C 0.72136 0.93747 0.00324 0.0
C1363 C 0.88867 0.04504 0.98387 0.0
H1364 H 0.81101 0.09589 0.03749 0.0
H1365 H 0.84852 0.99559 0.05428 0.0
H1366 H 0.81783 0.08234 0.98978 0.0
H1367 H 0.75925 0.04683 0.99711 0.0
H1368 H 0.79428 0.1035 0.00698 0.0
H1369 H 0.85163 0.94308 0.03407 0.0
H1370 H 0.80396 0.9219 0.01823 0.0
H1371 H 0.86147 0.96017 0.01038 0.0
H1372 H 0.71328 0.91345 0.96763 0.0
H1373 H 0.85467 1.00322 0.95156 0.0
H1374 H 0.7148 0.96542 0.00775 0.0
H1375 H 0.73219 0.92558 0.01546 0.0
H1376 H 0.68846 0.9082 0.99797 0.0
H1377 H 0.88913 0.07751 0.98758 0.0
H1378 H 0.91215 0.05219 0.97203 0.0
H1379 H 0.90249 0.03507 0.99573 0.0
C1380 C 0.81531 0.74833 0.3054 0.0
C1381 C 0.83165 0.78273 0.29187 0.0
C1382 C 0.80851 0.75812 0.32347 0.0
C1383 C 0.81814 0.80333 0.32813 0.0
C1384 C 0.83659 0.83864 0.31474 0.0
C1385 C 0.84337 0.82799 0.29685 0.0
C1386 C 0.78938 0.71963 0.33742 0.0
C1387 C 0.84748 0.8873 0.31912 0.0
C1388 C 0.7528 0.81295 0.36907 0.0
C1389 C 0.78579 0.8259 0.38305 0.0
C1390 C 0.76327 0.80668 0.35104 0.0
C1391 C 0.8077 0.81332 0.34687 0.0
C1392 C 0.84171 0.82829 0.36075 0.0
C1393 C 0.83046 0.83467 0.37859 0.0
C1394 C 0.72622 0.79132 0.33655 0.0
C1395 C 0.88949 0.83585 0.35693 0.0
H1396 H 0.80605 0.71326 0.30175 0.0
H1397 H 0.85648 0.85502 0.2866 0.0
H1398 H 0.8119 0.73026 0.3497 0.0
H1399 H 0.7546 0.71237 0.3419 0.0
H1400 H 0.78633 0.68716 0.33195 0.0
H1401 H 0.86376 0.91131 0.30742 0.0
H1402 H 0.81515 0.8871 0.32286 0.0
H1403 H 0.87108 0.90092 0.33104 0.0
H1404 H 0.71821 0.806 0.37232 0.0
H1405 H 0.85644 0.84515 0.38919 0.0
H1406 H 0.71685 0.75624 0.33164 0.0
H1407 H 0.73939 0.81497 0.32463 0.0
H1408 H 0.69442 0.79034 0.34171 0.0
H1409 H 0.88692 0.80261 0.35285 0.0
H1410 H 0.91268 0.84966 0.369 0.0
H1411 H 0.9056 0.86029 0.34538 0.0
C1412 C 0.01711 0.83856 0.62801 0.0
C1413 C 0.0513 0.82739 0.62348 0.0
C1414 C 0.9994 0.8325 0.64583 0.0
C1415 C 0.01657 0.81531 0.6596 0.0
C1416 C 0.05277 0.80626 0.65538 0.0
C1417 C 0.06966 0.81235 0.63737 0.0
C1418 C 0.96097 0.84274 0.64973 0.0
C1419 C 0.07246 0.78846 0.66974 0.0
C1420 C 0.99636 0.82936 0.70977 0.0
C1421 C 0.96095 0.78462 0.71444 0.0
C1422 C 0.01413 0.84011 0.69193 0.0
C1423 C 0.99578 0.80546 0.67828 0.0
C1424 C 0.9584 0.76091 0.68263 0.0
C1425 C 0.94147 0.751 0.70065 0.0
C1426 C 0.05384 0.88805 0.68789 0.0
C1427 C 0.93745 0.72316 0.66839 0.0
H1428 H 1.00295 0.85068 0.61747 0.0
H1429 H 0.09597 0.80352 0.63406 0.0
H1430 H 0.92904 0.81027 0.65355 0.0
H1431 H 0.97033 0.86679 0.66148 0.0
H1432 H 0.95314 0.85821 0.63779 0.0
H1433 H 0.10232 0.78576 0.66456 0.0
H1434 H 0.08383 0.81162 0.68183 0.0
H1435 H 0.04526 0.75373 0.67441 0.0
H1436 H 0.01141 0.85582 0.72022 0.0
H1437 H 0.91421 0.71633 0.70407 0.0
H1438 H 0.04535 0.9032 0.67605 0.0
H1439 H 0.08501 0.88602 0.68417 0.0
H1440 H 0.06252 0.91178 0.69975 0.0
H1441 H 0.92687 0.73546 0.65623 0.0
H1442 H 0.90682 0.69133 0.67365 0.0
H1443 H 0.96366 0.71415 0.66381 0.0
C1444 C 0.17093 0.99462 0.04421 0.0
C1445 C 0.1812 0.95991 0.04895 0.0
C1446 C 0.17723 0.01189 0.02632 0.0
C1447 C 0.19378 0.99377 0.01268 0.0
C1448 C 0.2019 0.95707 0.01711 0.0
C1449 C 0.19555 0.94059 0.03518 0.0
C1450 C 0.16794 0.05086 0.02219 0.0
C1451 C 0.21904 0.9364 1.00289 0.0
C1452 C 0.1803 0.01351 0.9624 0.0
C1453 C 0.22526 0.0484 0.95771 0.0
C1454 C 0.16933 0.99605 0.98028 0.0
C1455 C 0.20399 0.01413 0.99393 0.0
C1456 C 0.24884 0.0509 0.98953 0.0
C1457 C 0.25896 0.06758 0.97147 0.0
C1458 C 0.12106 0.957 0.98437 0.0
C1459 C 0.28665 0.07151 0.00375 0.0
H1460 H 0.15937 0.00953 0.05466 0.0
H1461 H 0.20369 0.91389 0.03865 0.0
H1462 H 0.20075 0.08233 0.01831 0.0
H1463 H 0.14397 0.04164 0.01042 0.0
H1464 H 0.15279 0.05938 0.03405 0.0
H1465 H 0.22102 0.90626 0.00822 0.0
H1466 H 0.1959 0.92516 0.9908 0.0
H1467 H 0.254 0.963 0.99818 0.0
H1468 H 0.1538 0.99868 0.95196 0.0
H1469 H 0.2938 0.09442 0.96803 0.0
H1470 H 0.1062 0.96619 0.99612 0.0
H1471 H 0.12243 0.92559 0.98829 0.0
H1472 H 0.09742 0.94841 0.97249 0.0
H1473 H 0.27478 0.08286 0.01583 0.0
H1474 H 0.31886 0.10157 0.99843 0.0
H1475 H 0.29486 0.04486 0.00851 0.0
loop_
_geom_bond_atom_site_label_1
_geom_bond_atom_site_label_2
_geom_bond_distance
_geom_bond_site_symmetry_2
_ccdc_geom_bond_type
Co0 O2 2.143 . S
Co0 O8 2.074 . S
Co0 O11 2.093 . S
Co0 O24 2.097 . S
Co0 N41 2.151 . S
Co0 N49 2.214 . S
Co1 O2 2.160 . S
Co1 O7 2.058 . S
Co1 O17 2.057 . S
Co1 O32 2.037 . S
Co1 N36 2.145 . S
Co1 N57 2.257 . S
O2 Co0 2.143 . S
O2 Co1 2.160 . S
C3 O4 1.278 . S
C3 O11 1.224 . S
O4 C3 1.278 . S
C5 O6 1.245 . S
C5 O17 1.232 . S
O6 C5 1.245 . S
O7 Co1 2.058 . S
O7 C33 1.269 . S
O8 Co0 2.074 . S
O8 C33 1.257 . S
H9 C34 0.930 . S
H10 C40 0.930 . S
O11 Co0 2.093 . S
O11 C3 1.224 . S
H12 C44 0.929 . S
H13 C46 0.930 . S
H14 C47 0.930 . S
H15 C45 0.929 . S
H16 C48 0.928 . S
O17 Co1 2.057 . S
O17 C5 1.232 . S
H18 C37 0.929 . S
H19 C38 0.929 . S
H20 C50 0.931 . S
H21 C42 0.929 . S
H22 C51 0.930 . S
H23 C43 0.931 . S
O24 Co0 2.097 . S
O24 C52 1.214 . S
H25 C53 0.929 . S
H26 C54 0.929 . S
H27 C55 0.930 . S
H28 C56 0.929 . S
H29 C58 0.930 . S
H30 C35 0.930 . S
H31 C39 0.930 . S
O32 Co1 2.037 . S
O32 C52 1.234 . S
C33 O7 1.269 . S
C33 O8 1.257 . S
C34 H9 0.930 . S
C34 C37 1.388 . S
C34 C39 1.418 . S
C35 H30 0.930 . S
C35 C38 1.404 . S
C35 C39 1.353 . S
N36 Co1 2.145 . S
N36 C37 1.397 . S
N36 C38 1.334 . S
C37 H18 0.929 . S
C37 C34 1.388 . S
C37 N36 1.397 . S
C38 H19 0.929 . S
C38 C35 1.404 . S
C38 N36 1.334 . S
C39 H31 0.930 . S
C39 C34 1.418 . S
C39 C35 1.353 . S
C40 H10 0.930 . S
C40 N41 1.330 . S
C40 C42 1.446 . S
N41 Co0 2.151 . S
N41 C40 1.330 . S
N41 C45 1.418 . S
C42 H21 0.929 . S
C42 C40 1.446 . S
C42 C43 1.332 . S
C43 H23 0.931 . S
C43 C42 1.332 . S
C43 C44 1.267 . S
C44 H12 0.929 . S
C44 C43 1.267 . S
C44 C45 1.251 . S
C45 H15 0.929 . S
C45 N41 1.418 . S
C45 C44 1.251 . S
C46 H13 0.930 . S
C46 C48 1.406 . S
C46 C51 1.261 . S
C47 H14 0.930 . S
C47 N49 1.325 . S
C47 C50 1.357 . S
C48 H16 0.928 . S
C48 C46 1.406 . S
C48 N49 1.261 . S
N49 Co0 2.214 . S
N49 C47 1.325 . S
N49 C48 1.261 . S
C50 H20 0.931 . S
C50 C47 1.357 . S
C50 C51 1.312 . S
C51 H22 0.930 . S
C51 C46 1.261 . S
C51 C50 1.312 . S
C52 O24 1.214 . S
C52 O32 1.234 . S
C53 H25 0.929 . S
C53 C56 1.391 . S
C53 C58 1.391 . S
C54 H26 0.929 . S
C54 C55 1.390 . S
C54 N57 1.391 . S
C55 H27 0.930 . S
C55 C54 1.390 . S
C55 C56 1.392 . S
C56 H28 0.929 . S
C56 C53 1.391 . S
C56 C55 1.392 . S
N57 Co1 2.257 . S
N57 C54 1.391 . S
N57 C58 1.388 . S
C58 H29 0.930 . S
C58 C53 1.391 . S
C58 N57 1.388 . S
Co59 O61 2.143 . S
Co59 O67 2.074 . S
Co59 O70 2.093 . S
Co59 O83 2.097 1_655 S
Co59 N100 2.151 . S
Co59 N108 2.214 . S
Co60 O61 2.160 1_455 S
Co60 O66 2.058 1_455 S
Co60 O76 2.057 1_455 S
Co60 O91 2.037 . S
Co60 N95 2.145 . S
Co60 N116 2.257 . S
O61 Co59 2.143 . S
O61 Co60 2.160 1_655 S
C62 O63 1.278 1_655 S
C62 O70 1.224 . S
O63 C62 1.278 1_455 S
C64 O65 1.245 . S
C64 O76 1.232 . S
O65 C64 1.245 . S
O66 Co60 2.058 1_655 S
O66 C92 1.269 . S
O67 Co59 2.074 . S
O67 C92 1.257 . S
H68 C93 0.930 . S
H69 C99 0.930 . S
O70 Co59 2.093 . S
O70 C62 1.224 . S
H71 C103 0.929 . S
H72 C105 0.930 . S
H73 C106 0.930 . S
H74 C104 0.929 . S
H75 C107 0.928 . S
O76 Co60 2.057 1_655 S
O76 C64 1.232 . S
H77 C96 0.929 . S
H78 C97 0.929 . S
H79 C109 0.931 . S
H80 C101 0.929 . S
H81 C110 0.930 . S
H82 C102 0.931 . S
O83 Co59 2.097 1_455 S
O83 C111 1.214 . S
H84 C112 0.929 . S
H85 C113 0.929 . S
H86 C114 0.930 . S
H87 C115 0.929 . S
H88 C117 0.930 . S
H89 C94 0.930 . S
H90 C98 0.930 . S
O91 Co60 2.037 . S
O91 C111 1.234 . S
C92 O66 1.269 . S
C92 O67 1.257 . S
C93 H68 0.930 . S
C93 C96 1.388 . S
C93 C98 1.418 . S
C94 H89 0.930 . S
C94 C97 1.404 . S
C94 C98 1.353 . S
N95 Co60 2.145 . S
N95 C96 1.397 . S
N95 C97 1.334 . S
C96 H77 0.929 . S
C96 C93 1.388 . S
C96 N95 1.397 . S
C97 H78 0.929 . S
C97 C94 1.404 . S
C97 N95 1.334 . S
C98 H90 0.930 . S
C98 C93 1.418 . S
C98 C94 1.353 . S
C99 H69 0.930 . S
C99 N100 1.330 . S
C99 C101 1.446 . S
N100 Co59 2.151 . S
N100 C99 1.330 . S
N100 C104 1.418 . S
C101 H80 0.929 . S
C101 C99 1.446 . S
C101 C102 1.332 . S
C102 H82 0.931 . S
C102 C101 1.332 . S
C102 C103 1.267 . S
C103 H71 0.929 . S
C103 C102 1.267 . S
C103 C104 1.251 . S
C104 H74 0.929 . S
C104 N100 1.418 . S
C104 C103 1.251 . S
C105 H72 0.930 . S
C105 C107 1.406 . S
C105 C110 1.261 . S
C106 H73 0.930 . S
C106 N108 1.325 . S
C106 C109 1.357 . S
C107 H75 0.928 . S
C107 C105 1.406 . S
C107 N108 1.261 . S
N108 Co59 2.214 . S
N108 C106 1.325 . S
N108 C107 1.261 . S
C109 H79 0.931 . S
C109 C106 1.357 . S
C109 C110 1.312 . S
C110 H81 0.930 . S
C110 C105 1.261 . S
C110 C109 1.312 . S
C111 O83 1.214 . S
C111 O91 1.234 . S
C112 H84 0.929 . S
C112 C115 1.391 . S
C112 C117 1.391 . S
C113 H85 0.929 . S
C113 C114 1.390 . S
C113 N116 1.391 . S
C114 H86 0.930 . S
C114 C113 1.390 . S
C114 C115 1.392 . S
C115 H87 0.929 . S
C115 C112 1.391 . S
C115 C114 1.392 . S
N116 Co60 2.257 . S
N116 C113 1.391 . S
N116 C117 1.388 . S
C117 H88 0.930 . S
C117 C112 1.391 . S
C117 N116 1.388 . S
Co118 O120 2.143 . S
Co118 O126 2.074 . S
Co118 O129 2.093 . S
Co118 O142 2.097 1_565 S
Co118 N159 2.151 . S
Co118 N167 2.214 . S
Co119 O120 2.160 1_545 S
Co119 O125 2.058 1_545 S
Co119 O135 2.057 1_545 S
Co119 O150 2.037 . S
Co119 N154 2.145 . S
Co119 N175 2.257 . S
O120 Co118 2.143 . S
O120 Co119 2.160 1_565 S
C121 O122 1.278 1_565 S
C121 O129 1.224 . S
O122 C121 1.278 1_545 S
C123 O124 1.245 . S
C123 O135 1.232 . S
O124 C123 1.245 . S
O125 Co119 2.058 1_565 S
O125 C151 1.269 . S
O126 Co118 2.074 . S
O126 C151 1.257 . S
H127 C152 0.930 . S
H128 C158 0.930 . S
O129 Co118 2.093 . S
O129 C121 1.224 . S
H130 C162 0.929 . S
H131 C164 0.930 . S
H132 C165 0.930 . S
H133 C163 0.929 . S
H134 C166 0.928 . S
O135 Co119 2.057 1_565 S
O135 C123 1.232 . S
H136 C155 0.929 . S
H137 C156 0.929 . S
H138 C168 0.931 . S
H139 C160 0.929 . S
H140 C169 0.930 . S
H141 C161 0.931 . S
O142 Co118 2.097 1_545 S
O142 C170 1.214 . S
H143 C171 0.929 . S
H144 C172 0.929 . S
H145 C173 0.930 . S
H146 C174 0.929 . S
H147 C176 0.930 . S
H148 C153 0.930 . S
H149 C157 0.930 . S
O150 Co119 2.037 . S
O150 C170 1.234 . S
C151 O125 1.269 . S
C151 O126 1.257 . S
C152 H127 0.930 . S
C152 C155 1.388 . S
C152 C157 1.418 . S
C153 H148 0.930 . S
C153 C156 1.404 . S
C153 C157 1.353 . S
N154 Co119 2.145 . S
N154 C155 1.397 . S
N154 C156 1.334 . S
C155 H136 0.929 . S
C155 C152 1.388 . S
C155 N154 1.397 . S
C156 H137 0.929 . S
C156 C153 1.404 . S
C156 N154 1.334 . S
C157 H149 0.930 . S
C157 C152 1.418 . S
C157 C153 1.353 . S
C158 H128 0.930 . S
C158 N159 1.330 . S
C158 C160 1.446 . S
N159 Co118 2.151 . S
N159 C158 1.330 . S
N159 C163 1.418 . S
C160 H139 0.929 . S
C160 C158 1.446 . S
C160 C161 1.332 . S
C161 H141 0.931 . S
C161 C160 1.332 . S
C161 C162 1.267 . S
C162 H130 0.929 . S
C162 C161 1.267 . S
C162 C163 1.251 . S
C163 H133 0.929 . S
C163 N159 1.418 . S
C163 C162 1.251 . S
C164 H131 0.930 . S
C164 C166 1.406 . S
C164 C169 1.261 . S
C165 H132 0.930 . S
C165 N167 1.325 . S
C165 C168 1.357 . S
C166 H134 0.928 . S
C166 C164 1.406 . S
C166 N167 1.261 . S
N167 Co118 2.214 . S
N167 C165 1.325 . S
N167 C166 1.261 . S
C168 H138 0.931 . S
C168 C165 1.357 . S
C168 C169 1.312 . S
C169 H140 0.930 . S
C169 C164 1.261 . S
C169 C168 1.312 . S
C170 O142 1.214 . S
C170 O150 1.234 . S
C171 H143 0.929 . S
C171 C174 1.391 . S
C171 C176 1.391 . S
C172 H144 0.929 . S
C172 C173 1.390 . S
C172 N175 1.391 . S
C173 H145 0.930 . S
C173 C172 1.390 . S
C173 C174 1.392 . S
C174 H146 0.929 . S
C174 C171 1.391 . S
C174 C173 1.392 . S
N175 Co119 2.257 . S
N175 C172 1.391 . S
N175 C176 1.388 . S
C176 H147 0.930 . S
C176 C171 1.391 . S
C176 N175 1.388 . S
Co177 O179 2.143 . S
Co177 O185 2.074 . S
Co177 O188 2.093 . S
Co177 O201 2.097 . S
Co177 N218 2.151 . S
Co177 N226 2.214 . S
Co178 O179 2.160 . S
Co178 O184 2.058 . S
Co178 O194 2.057 . S
Co178 O209 2.037 . S
Co178 N213 2.145 . S
Co178 N234 2.257 . S
O179 Co177 2.143 . S
O179 Co178 2.160 . S
C180 O181 1.278 . S
C180 O188 1.224 . S
O181 C180 1.278 . S
C182 O183 1.245 . S
C182 O194 1.232 . S
O183 C182 1.245 . S
O184 Co178 2.058 . S
O184 C210 1.269 . S
O185 Co177 2.074 . S
O185 C210 1.257 . S
H186 C211 0.930 . S
H187 C217 0.930 . S
O188 Co177 2.093 . S
O188 C180 1.224 . S
H189 C221 0.929 . S
H190 C223 0.930 . S
H191 C224 0.930 . S
H192 C222 0.929 . S
H193 C225 0.928 . S
O194 Co178 2.057 . S
O194 C182 1.232 . S
H195 C214 0.929 . S
H196 C215 0.929 . S
H197 C227 0.931 . S
H198 C219 0.929 . S
H199 C228 0.930 . S
H200 C220 0.931 . S
O201 Co177 2.097 . S
O201 C229 1.214 . S
H202 C230 0.929 . S
H203 C231 0.929 . S
H204 C232 0.930 . S
H205 C233 0.929 . S
H206 C235 0.930 . S
H207 C212 0.930 . S
H208 C216 0.930 . S
O209 Co178 2.037 . S
O209 C229 1.234 . S
C210 O184 1.269 . S
C210 O185 1.257 . S
C211 H186 0.930 . S
C211 C214 1.388 . S
C211 C216 1.418 . S
C212 H207 0.930 . S
C212 C215 1.404 . S
C212 C216 1.353 . S
N213 Co178 2.145 . S
N213 C214 1.397 . S
N213 C215 1.334 . S
C214 H195 0.929 . S
C214 C211 1.388 . S
C214 N213 1.397 . S
C215 H196 0.929 . S
C215 C212 1.404 . S
C215 N213 1.334 . S
C216 H208 0.930 . S
C216 C211 1.418 . S
C216 C212 1.353 . S
C217 H187 0.930 . S
C217 N218 1.330 . S
C217 C219 1.446 . S
N218 Co177 2.151 . S
N218 C217 1.330 . S
N218 C222 1.418 . S
C219 H198 0.929 . S
C219 C217 1.446 . S
C219 C220 1.332 . S
C220 H200 0.931 . S
C220 C219 1.332 . S
C220 C221 1.267 . S
C221 H189 0.929 . S
C221 C220 1.267 . S
C221 C222 1.251 . S
C222 H192 0.929 . S
C222 N218 1.418 . S
C222 C221 1.251 . S
C223 H190 0.930 . S
C223 C225 1.406 . S
C223 C228 1.261 . S
C224 H191 0.930 . S
C224 N226 1.325 . S
C224 C227 1.357 . S
C225 H193 0.928 . S
C225 C223 1.406 . S
C225 N226 1.261 . S
N226 Co177 2.214 . S
N226 C224 1.325 . S
N226 C225 1.261 . S
C227 H197 0.931 . S
C227 C224 1.357 . S
C227 C228 1.312 . S
C228 H199 0.930 . S
C228 C223 1.261 . S
C228 C227 1.312 . S
C229 O201 1.214 . S
C229 O209 1.234 . S
C230 H202 0.929 . S
C230 C233 1.391 . S
C230 C235 1.391 . S
C231 H203 0.929 . S
C231 C232 1.390 . S
C231 N234 1.391 . S
C232 H204 0.930 . S
C232 C231 1.390 . S
C232 C233 1.392 . S
C233 H205 0.929 . S
C233 C230 1.391 . S
C233 C232 1.392 . S
N234 Co178 2.257 . S
N234 C231 1.391 . S
N234 C235 1.388 . S
C235 H206 0.930 . S
C235 C230 1.391 . S
C235 N234 1.388 . S
Co236 O238 2.143 . S
Co236 O244 2.074 . S
Co236 O247 2.093 . S
Co236 O260 2.097 1_455 S
Co236 N277 2.151 . S
Co236 N285 2.214 . S
Co237 O238 2.160 1_655 S
Co237 O243 2.058 1_655 S
Co237 O253 2.057 1_655 S
Co237 O268 2.037 . S
Co237 N272 2.145 . S
Co237 N293 2.257 . S
O238 Co236 2.143 . S
O238 Co237 2.160 1_455 S
C239 O240 1.278 1_455 S
C239 O247 1.224 . S
O240 C239 1.278 1_655 S
C241 O242 1.245 . S
C241 O253 1.232 . S
O242 C241 1.245 . S
O243 Co237 2.058 1_455 S
O243 C269 1.269 . S
O244 Co236 2.074 . S
O244 C269 1.257 . S
H245 C270 0.930 . S
H246 C276 0.930 . S
O247 Co236 2.093 . S
O247 C239 1.224 . S
H248 C280 0.929 . S
H249 C282 0.930 . S
H250 C283 0.930 . S
H251 C281 0.929 . S
H252 C284 0.928 . S
O253 Co237 2.057 1_455 S
O253 C241 1.232 . S
H254 C273 0.929 . S
H255 C274 0.929 . S
H256 C286 0.931 . S
H257 C278 0.929 . S
H258 C287 0.930 . S
H259 C279 0.931 . S
O260 Co236 2.097 1_655 S
O260 C288 1.214 . S
H261 C289 0.929 . S
H262 C290 0.929 . S
H263 C291 0.930 . S
H264 C292 0.929 . S
H265 C294 0.930 . S
H266 C271 0.930 . S
H267 C275 0.930 . S
O268 Co237 2.037 . S
O268 C288 1.234 . S
C269 O243 1.269 . S
C269 O244 1.257 . S
C270 H245 0.930 . S
C270 C273 1.388 . S
C270 C275 1.418 . S
C271 H266 0.930 . S
C271 C274 1.404 . S
C271 C275 1.353 . S
N272 Co237 2.145 . S
N272 C273 1.397 . S
N272 C274 1.334 . S
C273 H254 0.929 . S
C273 C270 1.388 . S
C273 N272 1.397 . S
C274 H255 0.929 . S
C274 C271 1.404 . S
C274 N272 1.334 . S
C275 H267 0.930 . S
C275 C270 1.418 . S
C275 C271 1.353 . S
C276 H246 0.930 . S
C276 N277 1.330 . S
C276 C278 1.446 . S
N277 Co236 2.151 . S
N277 C276 1.330 . S
N277 C281 1.418 . S
C278 H257 0.929 . S
C278 C276 1.446 . S
C278 C279 1.332 . S
C279 H259 0.931 . S
C279 C278 1.332 . S
C279 C280 1.267 . S
C280 H248 0.929 . S
C280 C279 1.267 . S
C280 C281 1.251 . S
C281 H251 0.929 . S
C281 N277 1.418 . S
C281 C280 1.251 . S
C282 H249 0.930 . S
C282 C284 1.406 . S
C282 C287 1.261 . S
C283 H250 0.930 . S
C283 N285 1.325 . S
C283 C286 1.357 . S
C284 H252 0.928 . S
C284 C282 1.406 . S
C284 N285 1.261 . S
N285 Co236 2.214 . S
N285 C283 1.325 . S
N285 C284 1.261 . S
C286 H256 0.931 . S
C286 C283 1.357 . S
C286 C287 1.312 . S
C287 H258 0.930 . S
C287 C282 1.261 . S
C287 C286 1.312 . S
C288 O260 1.214 . S
C288 O268 1.234 . S
C289 H261 0.929 . S
C289 C292 1.391 . S
C289 C294 1.391 . S
C290 H262 0.929 . S
C290 C291 1.390 . S
C290 N293 1.391 . S
C291 H263 0.930 . S
C291 C290 1.390 . S
C291 C292 1.392 . S
C292 H264 0.929 . S
C292 C289 1.391 . S
C292 C291 1.392 . S
N293 Co237 2.257 . S
N293 C290 1.391 . S
N293 C294 1.388 . S
C294 H265 0.930 . S
C294 C289 1.391 . S
C294 N293 1.388 . S
Co295 O297 2.143 . S
Co295 O303 2.074 . S
Co295 O306 2.093 . S
Co295 O319 2.097 1_545 S
Co295 N336 2.151 . S
Co295 N344 2.214 . S
Co296 O297 2.161 1_565 S
Co296 O302 2.032 1_565 S
Co296 O312 2.053 1_565 S
Co296 O327 2.047 . S
Co296 N331 2.144 . S
Co296 N352 2.284 . S
O297 Co295 2.143 . S
O297 Co296 2.161 1_545 S
C298 O299 1.278 1_545 S
C298 O306 1.224 . S
O299 C298 1.278 1_565 S
C300 O301 1.245 . S
C300 O312 1.232 . S
O301 C300 1.245 . S
O302 Co296 2.032 1_545 S
O302 C328 1.269 . S
O303 Co295 2.074 . S
O303 C328 1.257 . S
H304 C329 0.930 . S
H305 C335 0.930 . S
O306 Co295 2.093 . S
O306 C298 1.224 . S
H307 C339 0.929 . S
H308 C341 0.930 . S
H309 C342 0.930 . S
H310 C340 0.929 . S
H311 C343 0.928 . S
O312 Co296 2.053 1_545 S
O312 C300 1.232 . S
H313 C332 0.929 . S
H314 C333 0.929 . S
H315 C345 0.931 . S
H316 C337 0.929 . S
H317 C346 0.930 . S
H318 C338 0.931 . S
O319 Co295 2.097 1_565 S
O319 C347 1.214 . S
H320 C348 0.929 . S
H321 C349 0.929 . S
H322 C350 0.930 . S
H323 C351 0.929 . S
H324 C353 0.930 . S
H325 C330 0.930 . S
H326 C334 0.930 . S
O327 Co296 2.047 . S
O327 C347 1.234 . S
C328 O302 1.269 . S
C328 O303 1.257 . S
C329 H304 0.930 . S
C329 C332 1.388 . S
C329 C334 1.418 . S
C330 H325 0.930 . S
C330 C333 1.404 . S
C330 C334 1.353 . S
N331 Co296 2.144 . S
N331 C332 1.397 . S
N331 C333 1.334 . S
C332 H313 0.929 . S
C332 C329 1.388 . S
C332 N331 1.397 . S
C333 H314 0.929 . S
C333 C330 1.404 . S
C333 N331 1.334 . S
C334 H326 0.930 . S
C334 C329 1.418 . S
C334 C330 1.353 . S
C335 H305 0.930 . S
C335 N336 1.330 . S
C335 C337 1.446 . S
N336 Co295 2.151 . S
N336 C335 1.330 . S
N336 C340 1.418 . S
C337 H316 0.929 . S
C337 C335 1.446 . S
C337 C338 1.332 . S
C338 H318 0.931 . S
C338 C337 1.332 . S
C338 C339 1.267 . S
C339 H307 0.929 . S
C339 C338 1.267 . S
C339 C340 1.251 . S
C340 H310 0.929 . S
C340 N336 1.418 . S
C340 C339 1.251 . S
C341 H308 0.930 . S
C341 C343 1.406 . S
C341 C346 1.261 . S
C342 H309 0.930 . S
C342 N344 1.325 . S
C342 C345 1.357 . S
C343 H311 0.928 . S
C343 C341 1.406 . S
C343 N344 1.261 . S
N344 Co295 2.214 . S
N344 C342 1.325 . S
N344 C343 1.261 . S
C345 H315 0.931 . S
C345 C342 1.357 . S
C345 C346 1.312 . S
C346 H317 0.930 . S
C346 C341 1.261 . S
C346 C345 1.312 . S
C347 O319 1.214 . S
C347 O327 1.234 . S
C348 H320 0.929 . S
C348 C351 1.391 . S
C348 C353 1.391 . S
C349 H321 0.929 . S
C349 C350 1.390 . S
C349 N352 1.391 . S
C350 H322 0.930 . S
C350 C349 1.390 . S
C350 C351 1.392 . S
C351 H323 0.929 . S
C351 C348 1.391 . S
C351 C350 1.392 . S
N352 Co296 2.284 . S
N352 C349 1.391 . S
N352 C353 1.388 . S
C353 H324 0.930 . S
C353 C348 1.391 . S
C353 N352 1.388 . S
Co354 O356 2.143 . S
Co354 O362 2.074 . S
Co354 O365 2.093 . S
Co354 O378 2.097 . S
Co354 N395 2.151 . S
Co354 N403 2.214 . S
Co355 O356 2.160 . S
Co355 O361 2.058 . S
Co355 O371 2.057 . S
Co355 O386 2.037 . S
Co355 N390 2.145 . S
Co355 N411 2.257 . S
O356 Co354 2.143 . S
O356 Co355 2.160 . S
C357 O358 1.278 . S
C357 O365 1.224 . S
O358 C357 1.278 . S
C359 O360 1.245 . S
C359 O371 1.232 . S
O360 C359 1.245 . S
O361 Co355 2.058 . S
O361 C387 1.269 . S
O362 Co354 2.074 . S
O362 C387 1.257 . S
H363 C388 0.930 . S
H364 C394 0.930 . S
O365 Co354 2.093 . S
O365 C357 1.224 . S
H366 C398 0.929 . S
H367 C400 0.930 . S
H368 C401 0.930 . S
H369 C399 0.929 . S
H370 C402 0.928 . S
O371 Co355 2.057 . S
O371 C359 1.232 . S
H372 C391 0.929 . S
H373 C392 0.929 . S
H374 C404 0.931 . S
H375 C396 0.929 . S
H376 C405 0.930 . S
H377 C397 0.931 . S
O378 Co354 2.097 . S
O378 C406 1.214 . S
H379 C407 0.929 . S
H380 C408 0.929 . S
H381 C409 0.930 . S
H382 C410 0.929 . S
H383 C412 0.930 . S
H384 C389 0.930 . S
H385 C393 0.930 . S
O386 Co355 2.037 . S
O386 C406 1.234 . S
C387 O361 1.269 . S
C387 O362 1.257 . S
C388 H363 0.930 . S
C388 C391 1.388 . S
C388 C393 1.418 . S
C389 H384 0.930 . S
C389 C392 1.404 . S
C389 C393 1.353 . S
N390 Co355 2.145 . S
N390 C391 1.397 . S
N390 C392 1.334 . S
C391 H372 0.929 . S
C391 C388 1.388 . S
C391 N390 1.397 . S
C392 H373 0.929 . S
C392 C389 1.404 . S
C392 N390 1.334 . S
C393 H385 0.930 . S
C393 C388 1.418 . S
C393 C389 1.353 . S
C394 H364 0.930 . S
C394 N395 1.330 . S
C394 C396 1.446 . S
N395 Co354 2.151 . S
N395 C394 1.330 . S
N395 C399 1.418 . S
C396 H375 0.929 . S
C396 C394 1.446 . S
C396 C397 1.332 . S
C397 H377 0.931 . S
C397 C396 1.332 . S
C397 C398 1.267 . S
C398 H366 0.929 . S
C398 C397 1.267 . S
C398 C399 1.251 . S
C399 H369 0.929 . S
C399 N395 1.418 . S
C399 C398 1.251 . S
C400 H367 0.930 . S
C400 C402 1.406 . S
C400 C405 1.261 . S
C401 H368 0.930 . S
C401 N403 1.325 . S
C401 C404 1.357 . S
C402 H370 0.928 . S
C402 C400 1.406 . S
C402 N403 1.261 . S
N403 Co354 2.214 . S
N403 C401 1.325 . S
N403 C402 1.261 . S
C404 H374 0.931 . S
C404 C401 1.357 . S
C404 C405 1.312 . S
C405 H376 0.930 . S
C405 C400 1.261 . S
C405 C404 1.312 . S
C406 O378 1.214 . S
C406 O386 1.234 . S
C407 H379 0.929 . S
C407 C410 1.391 . S
C407 C412 1.391 . S
C408 H380 0.929 . S
C408 C409 1.390 . S
C408 N411 1.391 . S
C409 H381 0.930 . S
C409 C408 1.390 . S
C409 C410 1.392 . S
C410 H382 0.929 . S
C410 C407 1.391 . S
C410 C409 1.392 . S
N411 Co355 2.257 . S
N411 C408 1.391 . S
N411 C412 1.388 . S
C412 H383 0.930 . S
C412 C407 1.391 . S
C412 N411 1.388 . S
Co413 O415 2.143 . S
Co413 O421 2.074 . S
Co413 O424 2.093 . S
Co413 O437 2.097 1_655 S
Co413 N454 2.151 . S
Co413 N462 2.214 . S
Co414 O415 2.161 1_455 S
Co414 O420 2.032 1_455 S
Co414 O430 2.053 1_455 S
Co414 O445 2.047 . S
Co414 N449 2.144 . S
Co414 N470 2.284 . S
O415 Co413 2.143 . S
O415 Co414 2.161 1_655 S
C416 O417 1.278 1_655 S
C416 O424 1.224 . S
O417 C416 1.278 1_455 S
C418 O419 1.245 . S
C418 O430 1.232 . S
O419 C418 1.245 . S
O420 Co414 2.032 1_655 S
O420 C446 1.269 . S
O421 Co413 2.074 . S
O421 C446 1.257 . S
H422 C447 0.930 . S
H423 C453 0.930 . S
O424 Co413 2.093 . S
O424 C416 1.224 . S
H425 C457 0.929 . S
H426 C459 0.930 . S
H427 C460 0.930 . S
H428 C458 0.929 . S
H429 C461 0.928 . S
O430 Co414 2.053 1_655 S
O430 C418 1.232 . S
H431 C450 0.929 . S
H432 C451 0.929 . S
H433 C463 0.931 . S
H434 C455 0.929 . S
H435 C464 0.930 . S
H436 C456 0.931 . S
O437 Co413 2.097 1_455 S
O437 C465 1.214 . S
H438 C466 0.929 . S
H439 C467 0.929 . S
H440 C468 0.930 . S
H441 C469 0.929 . S
H442 C471 0.930 . S
H443 C448 0.930 . S
H444 C452 0.930 . S
O445 Co414 2.047 . S
O445 C465 1.234 . S
C446 O420 1.269 . S
C446 O421 1.257 . S
C447 H422 0.930 . S
C447 C450 1.388 . S
C447 C452 1.418 . S
C448 H443 0.930 . S
C448 C451 1.404 . S
C448 C452 1.353 . S
N449 Co414 2.144 . S
N449 C450 1.397 . S
N449 C451 1.334 . S
C450 H431 0.929 . S
C450 C447 1.388 . S
C450 N449 1.397 . S
C451 H432 0.929 . S
C451 C448 1.404 . S
C451 N449 1.334 . S
C452 H444 0.930 . S
C452 C447 1.418 . S
C452 C448 1.353 . S
C453 H423 0.930 . S
C453 N454 1.330 . S
C453 C455 1.446 . S
N454 Co413 2.151 . S
N454 C453 1.330 . S
N454 C458 1.418 . S
C455 H434 0.929 . S
C455 C453 1.446 . S
C455 C456 1.332 . S
C456 H436 0.931 . S
C456 C455 1.332 . S
C456 C457 1.267 . S
C457 H425 0.929 . S
C457 C456 1.267 . S
C457 C458 1.251 . S
C458 H428 0.929 . S
C458 N454 1.418 . S
C458 C457 1.251 . S
C459 H426 0.930 . S
C459 C461 1.406 . S
C459 C464 1.261 . S
C460 H427 0.930 . S
C460 N462 1.325 . S
C460 C463 1.357 . S
C461 H429 0.928 . S
C461 C459 1.406 . S
C461 N462 1.261 . S
N462 Co413 2.214 . S
N462 C460 1.325 . S
N462 C461 1.261 . S
C463 H433 0.931 . S
C463 C460 1.357 . S
C463 C464 1.312 . S
C464 H435 0.930 . S
C464 C459 1.261 . S
C464 C463 1.312 . S
C465 O437 1.214 . S
C465 O445 1.234 . S
C466 H438 0.929 . S
C466 C469 1.391 . S
C466 C471 1.391 . S
C467 H439 0.929 . S
C467 C468 1.390 . S
C467 N470 1.391 . S
C468 H440 0.930 . S
C468 C467 1.390 . S
C468 C469 1.392 . S
C469 H441 0.929 . S
C469 C466 1.391 . S
C469 C468 1.392 . S
N470 Co414 2.284 . S
N470 C467 1.391 . S
N470 C471 1.388 . S
C471 H442 0.930 . S
C471 C466 1.391 . S
C471 N470 1.388 . S
Co472 O474 2.143 . S
Co472 O480 2.074 . S
Co472 O483 2.093 . S
Co472 O496 2.097 1_565 S
Co472 N513 2.151 . S
Co472 N521 2.214 . S
Co473 O474 2.160 1_545 S
Co473 O479 2.058 1_545 S
Co473 O489 2.057 1_545 S
Co473 O504 2.037 . S
Co473 N508 2.145 . S
Co473 N529 2.257 . S
O474 Co472 2.143 . S
O474 Co473 2.160 1_565 S
C475 O476 1.278 1_565 S
C475 O483 1.224 . S
O476 C475 1.278 1_545 S
C477 O478 1.245 . S
C477 O489 1.232 . S
O478 C477 1.245 . S
O479 Co473 2.058 1_565 S
O479 C505 1.269 . S
O480 Co472 2.074 . S
O480 C505 1.257 . S
H481 C506 0.930 . S
H482 C512 0.930 . S
O483 Co472 2.093 . S
O483 C475 1.224 . S
H484 C516 0.929 . S
H485 C518 0.930 . S
H486 C519 0.930 . S
H487 C517 0.929 . S
H488 C520 0.928 . S
O489 Co473 2.057 1_565 S
O489 C477 1.232 . S
H490 C509 0.929 . S
H491 C510 0.929 . S
H492 C522 0.931 . S
H493 C514 0.929 . S
H494 C523 0.930 . S
H495 C515 0.931 . S
O496 Co472 2.097 1_545 S
O496 C524 1.214 . S
H497 C525 0.929 . S
H498 C526 0.929 . S
H499 C527 0.930 . S
H500 C528 0.929 . S
H501 C530 0.930 . S
H502 C507 0.930 . S
H503 C511 0.930 . S
O504 Co473 2.037 . S
O504 C524 1.234 . S
C505 O479 1.269 . S
C505 O480 1.257 . S
C506 H481 0.930 . S
C506 C509 1.388 . S
C506 C511 1.418 . S
C507 H502 0.930 . S
C507 C510 1.404 . S
C507 C511 1.353 . S
N508 Co473 2.145 . S
N508 C509 1.397 . S
N508 C510 1.334 . S
C509 H490 0.929 . S
C509 C506 1.388 . S
C509 N508 1.397 . S
C510 H491 0.929 . S
C510 C507 1.404 . S
C510 N508 1.334 . S
C511 H503 0.930 . S
C511 C506 1.418 . S
C511 C507 1.353 . S
C512 H482 0.930 . S
C512 N513 1.330 . S
C512 C514 1.446 . S
N513 Co472 2.151 . S
N513 C512 1.330 . S
N513 C517 1.418 . S
C514 H493 0.929 . S
C514 C512 1.446 . S
C514 C515 1.332 . S
C515 H495 0.931 . S
C515 C514 1.332 . S
C515 C516 1.267 . S
C516 H484 0.929 . S
C516 C515 1.267 . S
C516 C517 1.251 . S
C517 H487 0.929 . S
C517 N513 1.418 . S
C517 C516 1.251 . S
C518 H485 0.930 . S
C518 C520 1.406 . S
C518 C523 1.261 . S
C519 H486 0.930 . S
C519 N521 1.325 . S
C519 C522 1.357 . S
C520 H488 0.928 . S
C520 C518 1.406 . S
C520 N521 1.261 . S
N521 Co472 2.214 . S
N521 C519 1.325 . S
N521 C520 1.261 . S
C522 H492 0.931 . S
C522 C519 1.357 . S
C522 C523 1.312 . S
C523 H494 0.930 . S
C523 C518 1.261 . S
C523 C522 1.312 . S
C524 O496 1.214 . S
C524 O504 1.234 . S
C525 H497 0.929 . S
C525 C528 1.391 . S
C525 C530 1.391 . S
C526 H498 0.929 . S
C526 C527 1.390 . S
C526 N529 1.391 . S
C527 H499 0.930 . S
C527 C526 1.390 . S
C527 C528 1.392 . S
C528 H500 0.929 . S
C528 C525 1.391 . S
C528 C527 1.392 . S
N529 Co473 2.257 . S
N529 C526 1.391 . S
N529 C530 1.388 . S
C530 H501 0.930 . S
C530 C525 1.391 . S
C530 N529 1.388 . S
Co531 O533 2.143 . S
Co531 O539 2.074 . S
Co531 O542 2.093 . S
Co531 O555 2.097 . S
Co531 N572 2.151 . S
Co531 N580 2.214 . S
Co532 O533 2.160 . S
Co532 O538 2.058 . S
Co532 O548 2.057 . S
Co532 O563 2.037 . S
Co532 N567 2.145 . S
Co532 N588 2.257 . S
O533 Co531 2.143 . S
O533 Co532 2.160 . S
C534 O535 1.278 . S
C534 O542 1.224 . S
O535 C534 1.278 . S
C536 O537 1.245 . S
C536 O548 1.232 . S
O537 C536 1.245 . S
O538 Co532 2.058 . S
O538 C564 1.269 . S
O539 Co531 2.074 . S
O539 C564 1.257 . S
H540 C565 0.930 . S
H541 C571 0.930 . S
O542 Co531 2.093 . S
O542 C534 1.224 . S
H543 C575 0.929 . S
H544 C577 0.930 . S
H545 C578 0.930 . S
H546 C576 0.929 . S
H547 C579 0.928 . S
O548 Co532 2.057 . S
O548 C536 1.232 . S
H549 C568 0.929 . S
H550 C569 0.929 . S
H551 C581 0.931 . S
H552 C573 0.929 . S
H553 C582 0.930 . S
H554 C574 0.931 . S
O555 Co531 2.097 . S
O555 C583 1.214 . S
H556 C584 0.929 . S
H557 C585 0.929 . S
H558 C586 0.930 . S
H559 C587 0.929 . S
H560 C589 0.930 . S
H561 C566 0.930 . S
H562 C570 0.930 . S
O563 Co532 2.037 . S
O563 C583 1.234 . S
C564 O538 1.269 . S
C564 O539 1.257 . S
C565 H540 0.930 . S
C565 C568 1.388 . S
C565 C570 1.418 . S
C566 H561 0.930 . S
C566 C569 1.404 . S
C566 C570 1.353 . S
N567 Co532 2.145 . S
N567 C568 1.397 . S
N567 C569 1.334 . S
C568 H549 0.929 . S
C568 C565 1.388 . S
C568 N567 1.397 . S
C569 H550 0.929 . S
C569 C566 1.404 . S
C569 N567 1.334 . S
C570 H562 0.930 . S
C570 C565 1.418 . S
C570 C566 1.353 . S
C571 H541 0.930 . S
C571 N572 1.330 . S
C571 C573 1.446 . S
N572 Co531 2.151 . S
N572 C571 1.330 . S
N572 C576 1.418 . S
C573 H552 0.929 . S
C573 C571 1.446 . S
C573 C574 1.332 . S
C574 H554 0.931 . S
C574 C573 1.332 . S
C574 C575 1.267 . S
C575 H543 0.929 . S
C575 C574 1.267 . S
C575 C576 1.251 . S
C576 H546 0.929 . S
C576 N572 1.418 . S
C576 C575 1.251 . S
C577 H544 0.930 . S
C577 C579 1.406 . S
C577 C582 1.261 . S
C578 H545 0.930 . S
C578 N580 1.325 . S
C578 C581 1.357 . S
C579 H547 0.928 . S
C579 C577 1.406 . S
C579 N580 1.261 . S
N580 Co531 2.214 . S
N580 C578 1.325 . S
N580 C579 1.261 . S
C581 H551 0.931 . S
C581 C578 1.357 . S
C581 C582 1.312 . S
C582 H553 0.930 . S
C582 C577 1.261 . S
C582 C581 1.312 . S
C583 O555 1.214 . S
C583 O563 1.234 . S
C584 H556 0.929 . S
C584 C587 1.391 . S
C584 C589 1.391 . S
C585 H557 0.929 . S
C585 C586 1.390 . S
C585 N588 1.391 . S
C586 H558 0.930 . S
C586 C585 1.390 . S
C586 C587 1.392 . S
C587 H559 0.929 . S
C587 C584 1.391 . S
C587 C586 1.392 . S
N588 Co532 2.257 . S
N588 C585 1.391 . S
N588 C589 1.388 . S
C589 H560 0.930 . S
C589 C584 1.391 . S
C589 N588 1.388 . S
Co590 O592 2.143 . S
Co590 O598 2.074 . S
Co590 O601 2.093 . S
Co590 O614 2.097 1_455 S
Co590 N631 2.151 . S
Co590 N639 2.214 . S
Co591 O592 2.160 1_655 S
Co591 O597 2.058 1_655 S
Co591 O607 2.057 1_655 S
Co591 O622 2.037 . S
Co591 N626 2.145 . S
Co591 N647 2.257 . S
O592 Co590 2.143 . S
O592 Co591 2.160 1_455 S
C593 O594 1.278 1_455 S
C593 O601 1.224 . S
O594 C593 1.278 1_655 S
C595 O596 1.245 . S
C595 O607 1.232 . S
O596 C595 1.245 . S
O597 Co591 2.058 1_455 S
O597 C623 1.269 . S
O598 Co590 2.074 . S
O598 C623 1.257 . S
H599 C624 0.930 . S
H600 C630 0.930 . S
O601 Co590 2.093 . S
O601 C593 1.224 . S
H602 C634 0.929 . S
H603 C636 0.930 . S
H604 C637 0.930 . S
H605 C635 0.929 . S
H606 C638 0.928 . S
O607 Co591 2.057 1_455 S
O607 C595 1.232 . S
H608 C627 0.929 . S
H609 C628 0.929 . S
H610 C640 0.931 . S
H611 C632 0.929 . S
H612 C641 0.930 . S
H613 C633 0.931 . S
O614 Co590 2.097 1_655 S
O614 C642 1.214 . S
H615 C643 0.929 . S
H616 C644 0.929 . S
H617 C645 0.930 . S
H618 C646 0.929 . S
H619 C648 0.930 . S
H620 C625 0.930 . S
H621 C629 0.930 . S
O622 Co591 2.037 . S
O622 C642 1.234 . S
C623 O597 1.269 . S
C623 O598 1.257 . S
C624 H599 0.930 . S
C624 C627 1.388 . S
C624 C629 1.418 . S
C625 H620 0.930 . S
C625 C628 1.404 . S
C625 C629 1.353 . S
N626 Co591 2.145 . S
N626 C627 1.397 . S
N626 C628 1.334 . S
C627 H608 0.929 . S
C627 C624 1.388 . S
C627 N626 1.397 . S
C628 H609 0.929 . S
C628 C625 1.404 . S
C628 N626 1.334 . S
C629 H621 0.930 . S
C629 C624 1.418 . S
C629 C625 1.353 . S
C630 H600 0.930 . S
C630 N631 1.330 . S
C630 C632 1.446 . S
N631 Co590 2.151 . S
N631 C630 1.330 . S
N631 C635 1.418 . S
C632 H611 0.929 . S
C632 C630 1.446 . S
C632 C633 1.332 . S
C633 H613 0.931 . S
C633 C632 1.332 . S
C633 C634 1.267 . S
C634 H602 0.929 . S
C634 C633 1.267 . S
C634 C635 1.251 . S
C635 H605 0.929 . S
C635 N631 1.418 . S
C635 C634 1.251 . S
C636 H603 0.930 . S
C636 C638 1.406 . S
C636 C641 1.261 . S
C637 H604 0.930 . S
C637 N639 1.325 . S
C637 C640 1.357 . S
C638 H606 0.928 . S
C638 C636 1.406 . S
C638 N639 1.261 . S
N639 Co590 2.214 . S
N639 C637 1.325 . S
N639 C638 1.261 . S
C640 H610 0.931 . S
C640 C637 1.357 . S
C640 C641 1.312 . S
C641 H612 0.930 . S
C641 C636 1.261 . S
C641 C640 1.312 . S
C642 O614 1.214 . S
C642 O622 1.234 . S
C643 H615 0.929 . S
C643 C646 1.391 . S
C643 C648 1.391 . S
C644 H616 0.929 . S
C644 C645 1.390 . S
C644 N647 1.391 . S
C645 H617 0.930 . S
C645 C644 1.390 . S
C645 C646 1.392 . S
C646 H618 0.929 . S
C646 C643 1.391 . S
C646 C645 1.392 . S
N647 Co591 2.257 . S
N647 C644 1.391 . S
N647 C648 1.388 . S
C648 H619 0.930 . S
C648 C643 1.391 . S
C648 N647 1.388 . S
Co649 O651 2.143 . S
Co649 O657 2.074 . S
Co649 O660 2.093 . S
Co649 O673 2.097 1_545 S
Co649 N690 2.151 . S
Co649 N698 2.214 . S
Co650 O651 2.160 1_565 S
Co650 O656 2.058 1_565 S
Co650 O666 2.057 1_565 S
Co650 O681 2.037 . S
Co650 N685 2.145 . S
Co650 N706 2.257 . S
O651 Co649 2.143 . S
O651 Co650 2.160 1_545 S
C652 O653 1.278 1_545 S
C652 O660 1.224 . S
O653 C652 1.278 1_565 S
C654 O655 1.245 . S
C654 O666 1.232 . S
O655 C654 1.245 . S
O656 Co650 2.058 1_545 S
O656 C682 1.269 . S
O657 Co649 2.074 . S
O657 C682 1.257 . S
H658 C683 0.930 . S
H659 C689 0.930 . S
O660 Co649 2.093 . S
O660 C652 1.224 . S
H661 C693 0.929 . S
H662 C695 0.930 . S
H663 C696 0.930 . S
H664 C694 0.929 . S
H665 C697 0.928 . S
O666 Co650 2.057 1_545 S
O666 C654 1.232 . S
H667 C686 0.929 . S
H668 C687 0.929 . S
H669 C699 0.931 . S
H670 C691 0.929 . S
H671 C700 0.930 . S
H672 C692 0.931 . S
O673 Co649 2.097 1_565 S
O673 C701 1.214 . S
H674 C702 0.929 . S
H675 C703 0.929 . S
H676 C704 0.930 . S
H677 C705 0.929 . S
H678 C707 0.930 . S
H679 C684 0.930 . S
H680 C688 0.930 . S
O681 Co650 2.037 . S
O681 C701 1.234 . S
C682 O656 1.269 . S
C682 O657 1.257 . S
C683 H658 0.930 . S
C683 C686 1.388 . S
C683 C688 1.418 . S
C684 H679 0.930 . S
C684 C687 1.404 . S
C684 C688 1.353 . S
N685 Co650 2.145 . S
N685 C686 1.397 . S
N685 C687 1.334 . S
C686 H667 0.929 . S
C686 C683 1.388 . S
C686 N685 1.397 . S
C687 H668 0.929 . S
C687 C684 1.404 . S
C687 N685 1.334 . S
C688 H680 0.930 . S
C688 C683 1.418 . S
C688 C684 1.353 . S
C689 H659 0.930 . S
C689 N690 1.330 . S
C689 C691 1.446 . S
N690 Co649 2.151 . S
N690 C689 1.330 . S
N690 C694 1.418 . S
C691 H670 0.929 . S
C691 C689 1.446 . S
C691 C692 1.332 . S
C692 H672 0.931 . S
C692 C691 1.332 . S
C692 C693 1.267 . S
C693 H661 0.929 . S
C693 C692 1.267 . S
C693 C694 1.251 . S
C694 H664 0.929 . S
C694 N690 1.418 . S
C694 C693 1.251 . S
C695 H662 0.930 . S
C695 C697 1.406 . S
C695 C700 1.261 . S
C696 H663 0.930 . S
C696 N698 1.325 . S
C696 C699 1.357 . S
C697 H665 0.928 . S
C697 C695 1.406 . S
C697 N698 1.261 . S
N698 Co649 2.214 . S
N698 C696 1.325 . S
N698 C697 1.261 . S
C699 H669 0.931 . S
C699 C696 1.357 . S
C699 C700 1.312 . S
C700 H671 0.930 . S
C700 C695 1.261 . S
C700 C699 1.312 . S
C701 O673 1.214 . S
C701 O681 1.234 . S
C702 H674 0.929 . S
C702 C705 1.391 . S
C702 C707 1.391 . S
C703 H675 0.929 . S
C703 C704 1.390 . S
C703 N706 1.391 . S
C704 H676 0.930 . S
C704 C703 1.390 . S
C704 C705 1.392 . S
C705 H677 0.929 . S
C705 C702 1.391 . S
C705 C704 1.392 . S
N706 Co650 2.257 . S
N706 C703 1.391 . S
N706 C707 1.388 . S
C707 H678 0.930 . S
C707 C702 1.391 . S
C707 N706 1.388 . S
C708 C709 1.391 . S
C708 C710 1.394 . S
C708 H724 0.931 . S
C709 C708 1.391 . S
C709 C713 1.376 . S
C710 C708 1.394 . S
C710 C711 1.369 . S
C710 C714 1.531 1_655 S
C711 C710 1.369 . S
C711 C712 1.410 . S
C711 C719 1.503 1_655 S
C712 C711 1.410 . S
C712 C713 1.392 . S
C712 C715 1.511 . S
C713 C709 1.376 . S
C713 C712 1.392 . S
C713 H725 0.929 . S
C714 C710 1.531 1_455 S
C714 H726 0.960 . S
C714 H727 0.962 . S
C714 H728 0.960 . S
C715 C712 1.511 . S
C715 H729 0.961 . S
C715 H730 0.961 . S
C715 H731 0.961 . S
C716 C717 1.370 . S
C716 C718 1.363 . S
C716 H732 0.931 . S
C717 C716 1.370 . S
C717 C721 1.408 . S
C718 C716 1.363 . S
C718 C719 1.370 . S
C718 C722 1.524 . S
C719 C711 1.503 1_455 S
C719 C718 1.370 . S
C719 C720 1.403 . S
C720 C719 1.403 . S
C720 C721 1.404 . S
C720 C723 1.539 . S
C721 C717 1.408 . S
C721 C720 1.404 . S
C721 H733 0.930 . S
C722 C718 1.524 . S
C722 H734 0.956 . S
C722 H735 0.961 1_455 S
C722 H736 0.961 . S
C723 C720 1.539 . S
C723 H737 0.958 . S
C723 H738 0.961 . S
C723 H739 0.960 1_455 S
H724 C708 0.931 . S
H725 C713 0.929 . S
H726 C714 0.960 . S
H727 C714 0.962 . S
H728 C714 0.960 . S
H729 C715 0.961 . S
H730 C715 0.961 . S
H731 C715 0.961 . S
H732 C716 0.931 . S
H733 C721 0.930 . S
H734 C722 0.956 . S
H735 C722 0.961 1_655 S
H736 C722 0.961 . S
H737 C723 0.958 . S
H738 C723 0.961 . S
H739 C723 0.960 1_655 S
C740 C741 1.391 . S
C740 C742 1.394 . S
C740 H756 0.931 . S
C741 C740 1.391 . S
C741 C745 1.376 . S
C742 C740 1.394 . S
C742 C743 1.369 . S
C742 C746 1.531 1_545 S
C743 C742 1.369 . S
C743 C744 1.410 . S
C743 C751 1.503 1_545 S
C744 C743 1.410 . S
C744 C745 1.392 . S
C744 C747 1.511 . S
C745 C741 1.376 . S
C745 C744 1.392 . S
C745 H757 0.929 . S
C746 C742 1.531 1_565 S
C746 H758 0.960 . S
C746 H759 0.962 . S
C746 H760 0.960 . S
C747 C744 1.511 . S
C747 H761 0.961 . S
C747 H762 0.961 . S
C747 H763 0.961 . S
C748 C749 1.370 . S
C748 C750 1.363 . S
C748 H764 0.931 . S
C749 C748 1.370 . S
C749 C753 1.408 . S
C750 C748 1.363 . S
C750 C751 1.370 . S
C750 C754 1.524 1_565 S
C751 C743 1.503 1_565 S
C751 C750 1.370 . S
C751 C752 1.403 . S
C752 C751 1.403 . S
C752 C753 1.404 . S
C752 C755 1.539 . S
C753 C749 1.408 . S
C753 C752 1.404 . S
C753 H765 0.930 . S
C754 C750 1.524 1_545 S
C754 H766 0.956 . S
C754 H767 0.961 . S
C754 H768 0.961 . S
C755 C752 1.539 . S
C755 H769 0.958 . S
C755 H770 0.961 . S
C755 H771 0.960 . S
H756 C740 0.931 . S
H757 C745 0.929 . S
H758 C746 0.960 . S
H759 C746 0.962 . S
H760 C746 0.960 . S
H761 C747 0.961 . S
H762 C747 0.961 . S
H763 C747 0.961 . S
H764 C748 0.931 . S
H765 C753 0.930 . S
H766 C754 0.956 . S
H767 C754 0.961 . S
H768 C754 0.961 . S
H769 C755 0.958 . S
H770 C755 0.961 . S
H771 C755 0.960 . S
C772 C773 1.391 . S
C772 C774 1.394 . S
C772 H788 0.931 . S
C773 C772 1.391 . S
C773 C777 1.376 . S
C774 C772 1.394 . S
C774 C775 1.369 . S
C774 C778 1.531 . S
C775 C774 1.369 . S
C775 C776 1.410 . S
C775 C783 1.503 . S
C776 C775 1.410 . S
C776 C777 1.392 . S
C776 C779 1.511 . S
C777 C773 1.376 . S
C777 C776 1.392 . S
C777 H789 0.929 . S
C778 C774 1.531 . S
C778 H790 0.960 . S
C778 H791 0.962 . S
C778 H792 0.960 . S
C779 C776 1.511 . S
C779 H793 0.961 . S
C779 H794 0.961 . S
C779 H795 0.961 . S
C780 C781 1.370 . S
C780 C782 1.363 . S
C780 H796 0.931 . S
C781 C780 1.370 . S
C781 C785 1.408 . S
C782 C780 1.363 . S
C782 C783 1.370 . S
C782 C786 1.524 . S
C783 C775 1.503 . S
C783 C782 1.370 . S
C783 C784 1.403 . S
C784 C783 1.403 . S
C784 C785 1.404 . S
C784 C787 1.539 . S
C785 C781 1.408 . S
C785 C784 1.404 . S
C785 H797 0.930 . S
C786 C782 1.524 . S
C786 H798 0.956 . S
C786 H799 0.961 . S
C786 H800 0.961 . S
C787 C784 1.539 . S
C787 H801 0.958 . S
C787 H802 0.961 . S
C787 H803 0.960 . S
H788 C772 0.931 . S
H789 C777 0.929 . S
H790 C778 0.960 . S
H791 C778 0.962 . S
H792 C778 0.960 . S
H793 C779 0.961 . S
H794 C779 0.961 . S
H795 C779 0.961 . S
H796 C780 0.931 . S
H797 C785 0.930 . S
H798 C786 0.956 . S
H799 C786 0.961 . S
H800 C786 0.961 . S
H801 C787 0.958 . S
H802 C787 0.961 . S
H803 C787 0.960 . S
C804 C805 1.391 . S
C804 C806 1.394 . S
C804 H820 0.931 . S
C805 C804 1.391 . S
C805 C809 1.376 . S
C806 C804 1.394 . S
C806 C807 1.369 . S
C806 C810 1.531 . S
C807 C806 1.369 . S
C807 C808 1.410 . S
C807 C815 1.503 1_655 S
C808 C807 1.410 . S
C808 C809 1.392 . S
C808 C811 1.511 1_655 S
C809 C805 1.376 . S
C809 C808 1.392 . S
C809 H821 0.929 . S
C810 C806 1.531 . S
C810 H822 0.960 . S
C810 H823 0.962 . S
C810 H824 0.960 . S
C811 C808 1.511 1_455 S
C811 H825 0.961 . S
C811 H826 0.961 . S
C811 H827 0.961 . S
C812 C813 1.370 . S
C812 C814 1.363 . S
C812 H828 0.931 . S
C813 C812 1.370 . S
C813 C817 1.408 . S
C814 C812 1.363 . S
C814 C815 1.370 . S
C814 C818 1.524 1_455 S
C815 C807 1.503 1_455 S
C815 C814 1.370 . S
C815 C816 1.403 . S
C816 C815 1.403 . S
C816 C817 1.404 . S
C816 C819 1.539 . S
C817 C813 1.408 . S
C817 C816 1.404 . S
C817 H829 0.930 . S
C818 C814 1.524 1_655 S
C818 H830 0.956 . S
C818 H831 0.961 . S
C818 H832 0.961 1_655 S
C819 C816 1.539 . S
C819 H833 0.958 . S
C819 H834 0.961 . S
C819 H835 0.960 . S
H820 C804 0.931 . S
H821 C809 0.929 . S
H822 C810 0.960 . S
H823 C810 0.962 . S
H824 C810 0.960 . S
H825 C811 0.961 . S
H826 C811 0.961 . S
H827 C811 0.961 . S
H828 C812 0.931 . S
H829 C817 0.930 . S
H830 C818 0.956 . S
H831 C818 0.961 . S
H832 C818 0.961 1_455 S
H833 C819 0.958 . S
H834 C819 0.961 . S
H835 C819 0.960 . S
C836 C837 1.391 . S
C836 C838 1.394 . S
C836 H852 0.931 . S
C837 C836 1.391 . S
C837 C841 1.376 . S
C838 C836 1.394 . S
C838 C839 1.369 . S
C838 C842 1.531 . S
C839 C838 1.369 . S
C839 C840 1.410 . S
C839 C847 1.503 1_545 S
C840 C839 1.410 . S
C840 C841 1.392 . S
C840 C843 1.511 1_545 S
C841 C837 1.376 . S
C841 C840 1.392 . S
C841 H853 0.929 . S
C842 C838 1.531 . S
C842 H854 0.960 . S
C842 H855 0.962 . S
C842 H856 0.960 . S
C843 C840 1.511 1_565 S
C843 H857 0.961 . S
C843 H858 0.961 . S
C843 H859 0.961 . S
C844 C845 1.370 . S
C844 C846 1.363 . S
C844 H860 0.931 . S
C845 C844 1.370 . S
C845 C849 1.408 . S
C846 C844 1.363 . S
C846 C847 1.370 . S
C846 C850 1.524 . S
C847 C839 1.503 1_565 S
C847 C846 1.370 . S
C847 C848 1.403 . S
C848 C847 1.403 . S
C848 C849 1.404 . S
C848 C851 1.539 . S
C849 C845 1.408 . S
C849 C848 1.404 . S
C849 H861 0.930 . S
C850 C846 1.524 . S
C850 H862 0.956 1_565 S
C850 H863 0.961 . S
C850 H864 0.961 . S
C851 C848 1.539 . S
C851 H865 0.958 1_565 S
C851 H866 0.961 . S
C851 H867 0.960 . S
H852 C836 0.931 . S
H853 C841 0.929 . S
H854 C842 0.960 . S
H855 C842 0.962 . S
H856 C842 0.960 . S
H857 C843 0.961 . S
H858 C843 0.961 . S
H859 C843 0.961 . S
H860 C844 0.931 . S
H861 C849 0.930 . S
H862 C850 0.956 1_545 S
H863 C850 0.961 . S
H864 C850 0.961 . S
H865 C851 0.958 1_545 S
H866 C851 0.961 . S
H867 C851 0.960 . S
C868 C869 1.391 . S
C868 C870 1.394 . S
C868 H884 0.931 . S
C869 C868 1.391 . S
C869 C873 1.376 . S
C870 C868 1.394 . S
C870 C871 1.369 . S
C870 C874 1.531 . S
C871 C870 1.369 . S
C871 C872 1.410 . S
C871 C879 1.503 . S
C872 C871 1.410 . S
C872 C873 1.392 . S
C872 C875 1.511 . S
C873 C869 1.376 . S
C873 C872 1.392 . S
C873 H885 0.929 . S
C874 C870 1.531 . S
C874 H886 0.960 . S
C874 H887 0.962 . S
C874 H888 0.960 . S
C875 C872 1.511 . S
C875 H889 0.961 . S
C875 H890 0.961 . S
C875 H891 0.961 . S
C876 C877 1.370 . S
C876 C878 1.363 . S
C876 H892 0.931 . S
C877 C876 1.370 . S
C877 C881 1.408 . S
C878 C876 1.363 . S
C878 C879 1.370 . S
C878 C882 1.524 . S
C879 C871 1.503 . S
C879 C878 1.370 . S
C879 C880 1.403 . S
C880 C879 1.403 . S
C880 C881 1.404 . S
C880 C883 1.539 . S
C881 C877 1.408 . S
C881 C880 1.404 . S
C881 H893 0.930 . S
C882 C878 1.524 . S
C882 H894 0.956 . S
C882 H895 0.961 . S
C882 H896 0.961 . S
C883 C880 1.539 . S
C883 H897 0.958 . S
C883 H898 0.961 . S
C883 H899 0.960 . S
H884 C868 0.931 . S
H885 C873 0.929 . S
H886 C874 0.960 . S
H887 C874 0.962 . S
H888 C874 0.960 . S
H889 C875 0.961 . S
H890 C875 0.961 . S
H891 C875 0.961 . S
H892 C876 0.931 . S
H893 C881 0.930 . S
H894 C882 0.956 . S
H895 C882 0.961 . S
H896 C882 0.961 . S
H897 C883 0.958 . S
H898 C883 0.961 . S
H899 C883 0.960 . S
C900 C901 1.391 . S
C900 C902 1.394 . S
C900 H916 0.931 . S
C901 C900 1.391 . S
C901 C905 1.376 . S
C902 C900 1.394 . S
C902 C903 1.369 . S
C902 C906 1.531 . S
C903 C902 1.369 . S
C903 C904 1.410 . S
C903 C911 1.503 . S
C904 C903 1.410 . S
C904 C905 1.392 . S
C904 C907 1.511 . S
C905 C901 1.376 . S
C905 C904 1.392 . S
C905 H917 0.929 . S
C906 C902 1.531 . S
C906 H918 0.960 . S
C906 H919 0.962 . S
C906 H920 0.960 . S
C907 C904 1.511 . S
C907 H921 0.961 . S
C907 H922 0.961 . S
C907 H923 0.961 . S
C908 C909 1.370 . S
C908 C910 1.363 . S
C908 H924 0.931 . S
C909 C908 1.370 . S
C909 C913 1.408 . S
C910 C908 1.363 . S
C910 C911 1.370 . S
C910 C914 1.524 . S
C911 C903 1.503 . S
C911 C910 1.370 . S
C911 C912 1.403 . S
C912 C911 1.403 . S
C912 C913 1.404 . S
C912 C915 1.539 . S
C913 C909 1.408 . S
C913 C912 1.404 . S
C913 H925 0.930 . S
C914 C910 1.524 . S
C914 H926 0.956 . S
C914 H927 0.961 . S
C914 H928 0.961 . S
C915 C912 1.539 . S
C915 H929 0.958 . S
C915 H930 0.961 . S
C915 H931 0.960 . S
H916 C900 0.931 . S
H917 C905 0.929 . S
H918 C906 0.960 . S
H919 C906 0.962 . S
H920 C906 0.960 . S
H921 C907 0.961 . S
H922 C907 0.961 . S
H923 C907 0.961 . S
H924 C908 0.931 . S
H925 C913 0.930 . S
H926 C914 0.956 . S
H927 C914 0.961 . S
H928 C914 0.961 . S
H929 C915 0.958 . S
H930 C915 0.961 . S
H931 C915 0.960 . S
C932 C933 1.391 . S
C932 C934 1.394 . S
C932 H948 0.931 . S
C933 C932 1.391 . S
C933 C937 1.376 . S
C934 C932 1.394 . S
C934 C935 1.369 . S
C934 C938 1.531 . S
C935 C934 1.369 . S
C935 C936 1.410 . S
C935 C943 1.503 . S
C936 C935 1.410 . S
C936 C937 1.392 . S
C936 C939 1.511 . S
C937 C933 1.376 . S
C937 C936 1.392 . S
C937 H949 0.929 . S
C938 C934 1.531 . S
C938 H950 0.960 . S
C938 H951 0.962 1_455 S
C938 H952 0.960 . S
C939 C936 1.511 . S
C939 H953 0.961 . S
C939 H954 0.961 . S
C939 H955 0.961 . S
C940 C941 1.370 . S
C940 C942 1.363 . S
C940 H956 0.931 . S
C941 C940 1.370 . S
C941 C945 1.408 1_655 S
C942 C940 1.363 . S
C942 C943 1.370 1_655 S
C942 C946 1.524 . S
C943 C935 1.503 . S
C943 C942 1.370 1_455 S
C943 C944 1.403 . S
C944 C943 1.403 . S
C944 C945 1.404 . S
C944 C947 1.539 . S
C945 C941 1.408 1_455 S
C945 C944 1.404 . S
C945 H957 0.930 . S
C946 C942 1.524 . S
C946 H958 0.956 . S
C946 H959 0.961 . S
C946 H960 0.961 . S
C947 C944 1.539 . S
C947 H961 0.958 . S
C947 H962 0.961 . S
C947 H963 0.960 . S
H948 C932 0.931 . S
H949 C937 0.929 . S
H950 C938 0.960 . S
H951 C938 0.962 1_655 S
H952 C938 0.960 . S
H953 C939 0.961 . S
H954 C939 0.961 . S
H955 C939 0.961 . S
H956 C940 0.931 . S
H957 C945 0.930 . S
H958 C946 0.956 . S
H959 C946 0.961 . S
H960 C946 0.961 . S
H961 C947 0.958 . S
H962 C947 0.961 . S
H963 C947 0.960 . S
C964 C965 1.391 1_565 S
C964 C966 1.394 . S
C964 H980 0.931 . S
C965 C964 1.391 1_545 S
C965 C969 1.376 . S
C966 C964 1.394 . S
C966 C967 1.369 1_565 S
C966 C970 1.531 . S
C967 C966 1.369 1_545 S
C967 C968 1.410 . S
C967 C975 1.492 1_545 S
C968 C967 1.410 . S
C968 C969 1.392 . S
C968 C971 1.511 . S
C969 C965 1.376 . S
C969 C968 1.392 . S
C969 H981 0.929 . S
C970 C966 1.531 . S
C970 H982 0.960 . S
C970 H983 0.962 . S
C970 H984 0.960 . S
C971 C968 1.511 . S
C971 H985 0.961 . S
C971 H986 0.961 . S
C971 H987 0.961 . S
C972 C973 1.370 . S
C972 C974 1.363 . S
C972 H988 0.931 . S
C973 C972 1.370 . S
C973 C977 1.408 1_565 S
C974 C972 1.363 . S
C974 C975 1.380 . S
C974 C978 1.524 . S
C975 C967 1.492 1_565 S
C975 C974 1.380 . S
C975 C976 1.405 1_565 S
C976 C975 1.405 1_545 S
C976 C977 1.404 . S
C976 C979 1.539 . S
C977 C973 1.408 1_545 S
C977 C976 1.404 . S
C977 H989 0.930 . S
C978 C974 1.524 . S
C978 H990 0.956 . S
C978 H991 0.990 . S
C978 H992 0.961 . S
C979 C976 1.539 . S
C979 H993 0.958 . S
C979 H994 0.961 . S
C979 H995 0.960 . S
H980 C964 0.931 . S
H981 C969 0.929 . S
H982 C970 0.960 . S
H983 C970 0.962 . S
H984 C970 0.960 . S
H985 C971 0.961 . S
H986 C971 0.961 . S
H987 C971 0.961 . S
H988 C972 0.931 . S
H989 C977 0.930 . S
H990 C978 0.956 . S
H991 C978 0.990 . S
H992 C978 0.961 . S
H993 C979 0.958 . S
H994 C979 0.961 . S
H995 C979 0.960 . S
C996 C997 1.391 . S
C996 C998 1.394 . S
C996 H1012 0.931 . S
C997 C996 1.391 . S
C997 C1001 1.376 . S
C998 C996 1.394 . S
C998 C999 1.369 . S
C998 C1002 1.531 . S
C999 C998 1.369 . S
C999 C1000 1.410 . S
C999 C1007 1.503 . S
C1000 C999 1.410 . S
C1000 C1001 1.392 . S
C1000 C1003 1.511 . S
C1001 C997 1.376 . S
C1001 C1000 1.392 . S
C1001 H1013 0.929 . S
C1002 C998 1.531 . S
C1002 H1014 0.960 . S
C1002 H1015 0.962 . S
C1002 H1016 0.960 . S
C1003 C1000 1.511 . S
C1003 H1017 0.961 . S
C1003 H1018 0.961 . S
C1003 H1019 0.961 . S
C1004 C1005 1.370 . S
C1004 C1006 1.363 . S
C1004 H1020 0.931 . S
C1005 C1004 1.370 . S
C1005 C1009 1.408 . S
C1006 C1004 1.363 . S
C1006 C1007 1.370 . S
C1006 C1010 1.524 . S
C1007 C999 1.503 . S
C1007 C1006 1.370 . S
C1007 C1008 1.403 . S
C1008 C1007 1.403 . S
C1008 C1009 1.404 . S
C1008 C1011 1.539 . S
C1009 C1005 1.408 . S
C1009 C1008 1.404 . S
C1009 H1021 0.930 . S
C1010 C1006 1.524 . S
C1010 H1022 0.956 . S
C1010 H1023 0.961 . S
C1010 H1024 0.961 . S
C1011 C1008 1.539 . S
C1011 H1025 0.958 . S
C1011 H1026 0.961 . S
C1011 H1027 0.960 . S
H1012 C996 0.931 . S
H1013 C1001 0.929 . S
H1014 C1002 0.960 . S
H1015 C1002 0.962 . S
H1016 C1002 0.960 . S
H1017 C1003 0.961 . S
H1018 C1003 0.961 . S
H1019 C1003 0.961 . S
H1020 C1004 0.931 . S
H1021 C1009 0.930 . S
H1022 C1010 0.956 . S
H1023 C1010 0.961 . S
H1024 C1010 0.961 . S
H1025 C1011 0.958 . S
H1026 C1011 0.961 . S
H1027 C1011 0.960 . S
C1028 C1029 1.391 . S
C1028 C1030 1.394 . S
C1028 H1044 0.931 . S
C1029 C1028 1.391 . S
C1029 C1033 1.376 1_655 S
C1030 C1028 1.394 . S
C1030 C1031 1.369 . S
C1030 C1034 1.531 . S
C1031 C1030 1.369 . S
C1031 C1032 1.410 1_655 S
C1031 C1039 1.503 1_655 S
C1032 C1031 1.410 1_455 S
C1032 C1033 1.392 . S
C1032 C1035 1.511 . S
C1033 C1029 1.376 1_455 S
C1033 C1032 1.392 . S
C1033 H1045 0.929 . S
C1034 C1030 1.531 . S
C1034 H1046 0.960 . S
C1034 H1047 0.962 . S
C1034 H1048 0.960 . S
C1035 C1032 1.511 . S
C1035 H1049 0.961 . S
C1035 H1050 0.961 . S
C1035 H1051 0.961 . S
C1036 C1037 1.370 . S
C1036 C1038 1.363 . S
C1036 H1052 0.931 . S
C1037 C1036 1.370 . S
C1037 C1041 1.408 . S
C1038 C1036 1.363 . S
C1038 C1039 1.370 . S
C1038 C1042 1.524 . S
C1039 C1031 1.503 1_455 S
C1039 C1038 1.370 . S
C1039 C1040 1.404 1_455 S
C1040 C1039 1.404 1_655 S
C1040 C1041 1.399 1_655 S
C1040 C1043 1.542 . S
C1041 C1037 1.408 . S
C1041 C1040 1.399 1_455 S
C1041 H1053 0.930 . S
C1042 C1038 1.524 . S
C1042 H1054 0.956 1_455 S
C1042 H1055 0.961 . S
C1042 H1056 0.961 . S
C1043 C1040 1.542 . S
C1043 H1057 0.958 . S
C1043 H1058 0.961 1_655 S
C1043 H1059 0.960 1_655 S
H1044 C1028 0.931 . S
H1045 C1033 0.929 . S
H1046 C1034 0.960 . S
H1047 C1034 0.962 . S
H1048 C1034 0.960 . S
H1049 C1035 0.961 . S
H1050 C1035 0.961 . S
H1051 C1035 0.961 . S
H1052 C1036 0.931 . S
H1053 C1041 0.930 . S
H1054 C1042 0.956 1_655 S
H1055 C1042 0.961 . S
H1056 C1042 0.961 . S
H1057 C1043 0.958 . S
H1058 C1043 0.961 1_455 S
H1059 C1043 0.960 1_455 S
C1060 C1061 1.391 . S
C1060 C1062 1.394 . S
C1060 H1076 0.931 . S
C1061 C1060 1.391 . S
C1061 C1065 1.376 . S
C1062 C1060 1.394 . S
C1062 C1063 1.369 . S
C1062 C1066 1.531 . S
C1063 C1062 1.369 . S
C1063 C1064 1.410 . S
C1063 C1071 1.503 . S
C1064 C1063 1.410 . S
C1064 C1065 1.392 . S
C1064 C1067 1.511 . S
C1065 C1061 1.376 . S
C1065 C1064 1.392 . S
C1065 H1077 0.929 . S
C1066 C1062 1.531 . S
C1066 H1078 0.960 . S
C1066 H1079 0.962 1_565 S
C1066 H1080 0.960 . S
C1067 C1064 1.511 . S
C1067 H1081 0.965 . S
C1067 H1082 0.961 1_565 S
C1067 H1083 0.961 . S
C1068 C1069 1.370 . S
C1068 C1070 1.363 . S
C1068 H1084 0.931 . S
C1069 C1068 1.370 . S
C1069 C1073 1.408 1_545 S
C1070 C1068 1.363 . S
C1070 C1071 1.370 1_545 S
C1070 C1074 1.524 . S
C1071 C1063 1.503 . S
C1071 C1070 1.370 1_565 S
C1071 C1072 1.403 . S
C1072 C1071 1.403 . S
C1072 C1073 1.404 . S
C1072 C1075 1.539 . S
C1073 C1069 1.408 1_565 S
C1073 C1072 1.404 . S
C1073 H1085 0.930 . S
C1074 C1070 1.524 . S
C1074 H1086 0.956 . S
C1074 H1087 0.961 . S
C1074 H1088 0.961 . S
C1075 C1072 1.539 . S
C1075 H1089 0.958 . S
C1075 H1090 0.961 . S
C1075 H1091 0.960 . S
H1076 C1060 0.931 . S
H1077 C1065 0.929 . S
H1078 C1066 0.960 . S
H1079 C1066 0.962 1_545 S
H1080 C1066 0.960 . S
H1081 C1067 0.965 . S
H1082 C1067 0.961 1_545 S
H1083 C1067 0.961 . S
H1084 C1068 0.931 . S
H1085 C1073 0.930 . S
H1086 C1074 0.956 . S
H1087 C1074 0.961 . S
H1088 C1074 0.961 . S
H1089 C1075 0.958 . S
H1090 C1075 0.961 . S
H1091 C1075 0.960 . S
C1092 C1093 1.391 . S
C1092 C1094 1.394 . S
C1092 H1108 0.931 . S
C1093 C1092 1.391 . S
C1093 C1097 1.376 . S
C1094 C1092 1.394 . S
C1094 C1095 1.369 . S
C1094 C1098 1.531 . S
C1095 C1094 1.369 . S
C1095 C1096 1.410 . S
C1095 C1103 1.503 . S
C1096 C1095 1.410 . S
C1096 C1097 1.392 . S
C1096 C1099 1.511 . S
C1097 C1093 1.376 . S
C1097 C1096 1.392 . S
C1097 H1109 0.919 1_545 S
C1098 C1094 1.531 . S
C1098 H1110 0.960 . S
C1098 H1111 0.962 . S
C1098 H1112 0.960 . S
C1099 C1096 1.511 . S
C1099 H1113 0.961 . S
C1099 H1114 0.961 . S
C1099 H1115 0.961 . S
C1100 C1101 1.370 . S
C1100 C1102 1.363 . S
C1100 H1116 0.931 . S
C1101 C1100 1.370 . S
C1101 C1105 1.408 . S
C1102 C1100 1.363 . S
C1102 C1103 1.370 . S
C1102 C1106 1.524 . S
C1103 C1095 1.503 . S
C1103 C1102 1.370 . S
C1103 C1104 1.403 . S
C1104 C1103 1.403 . S
C1104 C1105 1.404 . S
C1104 C1107 1.539 . S
C1105 C1101 1.408 . S
C1105 C1104 1.404 . S
C1105 H1117 0.930 . S
C1106 C1102 1.524 . S
C1106 H1118 0.956 . S
C1106 H1119 0.961 . S
C1106 H1120 0.961 . S
C1107 C1104 1.539 . S
C1107 H1121 0.958 . S
C1107 H1122 0.961 . S
C1107 H1123 0.960 . S
H1108 C1092 0.931 . S
H1109 C1097 0.919 1_565 S
H1110 C1098 0.960 . S
H1111 C1098 0.962 . S
H1112 C1098 0.960 . S
H1113 C1099 0.961 . S
H1114 C1099 0.961 . S
H1115 C1099 0.961 . S
H1116 C1100 0.931 . S
H1117 C1105 0.930 . S
H1118 C1106 0.956 . S
H1119 C1106 0.961 . S
H1120 C1106 0.961 . S
H1121 C1107 0.958 . S
H1122 C1107 0.961 . S
H1123 C1107 0.960 . S
C1124 C1125 1.391 . S
C1124 C1126 1.394 . S
C1124 H1140 0.931 . S
C1125 C1124 1.391 . S
C1125 C1129 1.376 . S
C1126 C1124 1.394 . S
C1126 C1127 1.369 . S
C1126 C1130 1.531 . S
C1127 C1126 1.369 . S
C1127 C1128 1.410 . S
C1127 C1135 1.503 . S
C1128 C1127 1.410 . S
C1128 C1129 1.392 . S
C1128 C1131 1.511 . S
C1129 C1125 1.376 . S
C1129 C1128 1.392 . S
C1129 H1141 0.929 . S
C1130 C1126 1.531 . S
C1130 H1142 0.960 . S
C1130 H1143 0.962 . S
C1130 H1144 0.960 . S
C1131 C1128 1.511 . S
C1131 H1145 0.961 . S
C1131 H1146 0.961 . S
C1131 H1147 0.961 . S
C1132 C1133 1.370 . S
C1132 C1134 1.363 . S
C1132 H1148 0.931 . S
C1133 C1132 1.370 . S
C1133 C1137 1.408 . S
C1134 C1132 1.363 . S
C1134 C1135 1.370 . S
C1134 C1138 1.524 . S
C1135 C1127 1.503 . S
C1135 C1134 1.370 . S
C1135 C1136 1.403 . S
C1136 C1135 1.403 . S
C1136 C1137 1.404 . S
C1136 C1139 1.539 . S
C1137 C1133 1.408 . S
C1137 C1136 1.404 . S
C1137 H1149 0.930 . S
C1138 C1134 1.524 . S
C1138 H1150 0.956 . S
C1138 H1151 0.961 . S
C1138 H1152 0.961 . S
C1139 C1136 1.539 . S
C1139 H1153 0.958 . S
C1139 H1154 0.961 . S
C1139 H1155 0.960 . S
H1140 C1124 0.931 . S
H1141 C1129 0.929 . S
H1142 C1130 0.960 . S
H1143 C1130 0.962 . S
H1144 C1130 0.960 . S
H1145 C1131 0.961 . S
H1146 C1131 0.961 . S
H1147 C1131 0.961 . S
H1148 C1132 0.931 . S
H1149 C1137 0.930 . S
H1150 C1138 0.956 . S
H1151 C1138 0.961 . S
H1152 C1138 0.961 . S
H1153 C1139 0.958 . S
H1154 C1139 0.961 . S
H1155 C1139 0.960 . S
C1156 C1157 1.391 . S
C1156 C1158 1.394 . S
C1156 H1172 0.931 . S
C1157 C1156 1.391 . S
C1157 C1161 1.376 . S
C1158 C1156 1.394 . S
C1158 C1159 1.369 . S
C1158 C1162 1.531 . S
C1159 C1158 1.369 . S
C1159 C1160 1.410 . S
C1159 C1167 1.503 . S
C1160 C1159 1.410 . S
C1160 C1161 1.392 . S
C1160 C1163 1.511 . S
C1161 C1157 1.376 . S
C1161 C1160 1.392 . S
C1161 H1173 0.929 1_655 S
C1162 C1158 1.531 . S
C1162 H1174 0.960 . S
C1162 H1175 0.962 . S
C1162 H1176 0.960 . S
C1163 C1160 1.511 . S
C1163 H1177 0.961 . S
C1163 H1178 0.961 . S
C1163 H1179 0.961 . S
C1164 C1165 1.370 . S
C1164 C1166 1.363 . S
C1164 H1180 0.931 . S
C1165 C1164 1.370 . S
C1165 C1169 1.408 . S
C1166 C1164 1.363 . S
C1166 C1167 1.370 . S
C1166 C1170 1.524 . S
C1167 C1159 1.503 . S
C1167 C1166 1.370 . S
C1167 C1168 1.403 . S
C1168 C1167 1.403 . S
C1168 C1169 1.404 . S
C1168 C1171 1.539 . S
C1169 C1165 1.408 . S
C1169 C1168 1.404 . S
C1169 H1181 0.930 1_545 S
C1170 C1166 1.524 . S
C1170 H1182 0.956 . S
C1170 H1183 0.961 . S
C1170 H1184 0.961 . S
C1171 C1168 1.539 . S
C1171 H1185 0.958 . S
C1171 H1186 0.961 . S
C1171 H1187 0.960 . S
H1172 C1156 0.931 . S
H1173 C1161 0.929 1_455 S
H1174 C1162 0.960 . S
H1175 C1162 0.962 . S
H1176 C1162 0.960 . S
H1177 C1163 0.961 . S
H1178 C1163 0.961 . S
H1179 C1163 0.961 . S
H1180 C1164 0.931 . S
H1181 C1169 0.930 1_565 S
H1182 C1170 0.956 . S
H1183 C1170 0.961 . S
H1184 C1170 0.961 . S
H1185 C1171 0.958 . S
H1186 C1171 0.961 . S
H1187 C1171 0.960 . S
C1188 C1189 1.391 . S
C1188 C1190 1.394 . S
C1188 H1204 0.931 . S
C1189 C1188 1.391 . S
C1189 C1193 1.376 . S
C1190 C1188 1.394 . S
C1190 C1191 1.369 . S
C1190 C1194 1.531 . S
C1191 C1190 1.369 . S
C1191 C1192 1.410 . S
C1191 C1199 1.503 . S
C1192 C1191 1.410 . S
C1192 C1193 1.392 . S
C1192 C1195 1.511 . S
C1193 C1189 1.376 . S
C1193 C1192 1.392 . S
C1193 H1205 0.929 . S
C1194 C1190 1.531 . S
C1194 H1206 0.960 . S
C1194 H1207 0.962 . S
C1194 H1208 0.960 . S
C1195 C1192 1.511 . S
C1195 H1209 0.961 . S
C1195 H1210 0.961 . S
C1195 H1211 0.961 . S
C1196 C1197 1.370 . S
C1196 C1198 1.363 . S
C1196 H1212 0.931 . S
C1197 C1196 1.370 . S
C1197 C1201 1.408 . S
C1198 C1196 1.363 . S
C1198 C1199 1.370 . S
C1198 C1202 1.524 . S
C1199 C1191 1.503 . S
C1199 C1198 1.370 . S
C1199 C1200 1.403 . S
C1200 C1199 1.403 . S
C1200 C1201 1.404 . S
C1200 C1203 1.539 . S
C1201 C1197 1.408 . S
C1201 C1200 1.404 . S
C1201 H1213 0.930 . S
C1202 C1198 1.524 . S
C1202 H1214 0.956 . S
C1202 H1215 0.961 . S
C1202 H1216 0.961 . S
C1203 C1200 1.539 . S
C1203 H1217 0.958 . S
C1203 H1218 0.961 . S
C1203 H1219 0.960 . S
H1204 C1188 0.931 . S
H1205 C1193 0.929 . S
H1206 C1194 0.960 . S
H1207 C1194 0.962 . S
H1208 C1194 0.960 . S
H1209 C1195 0.961 . S
H1210 C1195 0.961 . S
H1211 C1195 0.961 . S
H1212 C1196 0.931 . S
H1213 C1201 0.930 . S
H1214 C1202 0.956 . S
H1215 C1202 0.961 . S
H1216 C1202 0.961 . S
H1217 C1203 0.958 . S
H1218 C1203 0.961 . S
H1219 C1203 0.960 . S
C1220 C1221 1.391 . S
C1220 C1222 1.394 . S
C1220 H1236 0.931 . S
C1221 C1220 1.391 . S
C1221 C1225 1.376 . S
C1222 C1220 1.394 . S
C1222 C1223 1.369 . S
C1222 C1226 1.531 . S
C1223 C1222 1.369 . S
C1223 C1224 1.410 . S
C1223 C1231 1.503 . S
C1224 C1223 1.410 . S
C1224 C1225 1.392 . S
C1224 C1227 1.511 . S
C1225 C1221 1.376 . S
C1225 C1224 1.392 . S
C1225 H1237 0.929 . S
C1226 C1222 1.531 . S
C1226 H1238 0.960 . S
C1226 H1239 0.962 . S
C1226 H1240 0.960 . S
C1227 C1224 1.511 . S
C1227 H1241 0.961 . S
C1227 H1242 0.961 . S
C1227 H1243 0.961 . S
C1228 C1229 1.370 . S
C1228 C1230 1.363 . S
C1228 H1244 0.931 . S
C1229 C1228 1.370 . S
C1229 C1233 1.408 . S
C1230 C1228 1.363 . S
C1230 C1231 1.370 . S
C1230 C1234 1.524 . S
C1231 C1223 1.503 . S
C1231 C1230 1.370 . S
C1231 C1232 1.403 . S
C1232 C1231 1.403 . S
C1232 C1233 1.404 . S
C1232 C1235 1.539 . S
C1233 C1229 1.408 . S
C1233 C1232 1.404 . S
C1233 H1245 0.930 . S
C1234 C1230 1.524 . S
C1234 H1246 0.956 . S
C1234 H1247 0.961 . S
C1234 H1248 0.961 . S
C1235 C1232 1.539 . S
C1235 H1249 0.958 . S
C1235 H1250 0.961 . S
C1235 H1251 0.960 . S
H1236 C1220 0.931 . S
H1237 C1225 0.929 . S
H1238 C1226 0.960 . S
H1239 C1226 0.962 . S
H1240 C1226 0.960 . S
H1241 C1227 0.961 . S
H1242 C1227 0.961 . S
H1243 C1227 0.961 . S
H1244 C1228 0.931 . S
H1245 C1233 0.930 . S
H1246 C1234 0.956 . S
H1247 C1234 0.961 . S
H1248 C1234 0.961 . S
H1249 C1235 0.958 . S
H1250 C1235 0.961 . S
H1251 C1235 0.960 . S
C1252 C1253 1.391 . S
C1252 C1254 1.394 . S
C1252 H1268 0.931 . S
C1253 C1252 1.391 . S
C1253 C1257 1.376 . S
C1254 C1252 1.394 . S
C1254 C1255 1.369 . S
C1254 C1258 1.531 . S
C1255 C1254 1.369 . S
C1255 C1256 1.410 . S
C1255 C1263 1.503 . S
C1256 C1255 1.410 . S
C1256 C1257 1.392 . S
C1256 C1259 1.511 . S
C1257 C1253 1.376 . S
C1257 C1256 1.392 . S
C1257 H1269 0.929 1_565 S
C1258 C1254 1.531 . S
C1258 H1270 0.960 . S
C1258 H1271 0.962 . S
C1258 H1272 0.960 . S
C1259 C1256 1.511 . S
C1259 H1273 0.961 . S
C1259 H1274 0.961 . S
C1259 H1275 0.961 . S
C1260 C1261 1.370 . S
C1260 C1262 1.363 . S
C1260 H1276 0.931 . S
C1261 C1260 1.370 . S
C1261 C1265 1.408 . S
C1262 C1260 1.363 . S
C1262 C1263 1.370 . S
C1262 C1266 1.524 . S
C1263 C1255 1.503 . S
C1263 C1262 1.370 . S
C1263 C1264 1.403 . S
C1264 C1263 1.403 . S
C1264 C1265 1.404 . S
C1264 C1267 1.539 . S
C1265 C1261 1.408 . S
C1265 C1264 1.404 . S
C1265 H1277 0.930 1_455 S
C1266 C1262 1.524 . S
C1266 H1278 0.956 . S
C1266 H1279 0.961 . S
C1266 H1280 0.961 . S
C1267 C1264 1.539 . S
C1267 H1281 0.958 . S
C1267 H1282 0.961 . S
C1267 H1283 0.960 . S
H1268 C1252 0.931 . S
H1269 C1257 0.929 1_545 S
H1270 C1258 0.960 . S
H1271 C1258 0.962 . S
H1272 C1258 0.960 . S
H1273 C1259 0.961 . S
H1274 C1259 0.961 . S
H1275 C1259 0.961 . S
H1276 C1260 0.931 . S
H1277 C1265 0.930 1_655 S
H1278 C1266 0.956 . S
H1279 C1266 0.961 . S
H1280 C1266 0.961 . S
H1281 C1267 0.958 . S
H1282 C1267 0.961 . S
H1283 C1267 0.960 . S
C1284 C1285 1.391 . S
C1284 C1286 1.394 . S
C1284 H1300 0.931 . S
C1285 C1284 1.391 . S
C1285 C1289 1.376 . S
C1286 C1284 1.394 . S
C1286 C1287 1.369 . S
C1286 C1290 1.531 . S
C1287 C1286 1.369 . S
C1287 C1288 1.410 . S
C1287 C1295 1.503 . S
C1288 C1287 1.410 . S
C1288 C1289 1.392 . S
C1288 C1291 1.511 . S
C1289 C1285 1.376 . S
C1289 C1288 1.392 . S
C1289 H1301 0.929 . S
C1290 C1286 1.531 . S
C1290 H1302 0.960 . S
C1290 H1303 0.962 . S
C1290 H1304 0.960 . S
C1291 C1288 1.511 . S
C1291 H1305 0.961 . S
C1291 H1306 0.961 . S
C1291 H1307 0.961 . S
C1292 C1293 1.370 . S
C1292 C1294 1.363 . S
C1292 H1308 0.931 . S
C1293 C1292 1.370 . S
C1293 C1297 1.408 . S
C1294 C1292 1.363 . S
C1294 C1295 1.370 . S
C1294 C1298 1.524 . S
C1295 C1287 1.503 . S
C1295 C1294 1.370 . S
C1295 C1296 1.403 . S
C1296 C1295 1.403 . S
C1296 C1297 1.404 . S
C1296 C1299 1.539 . S
C1297 C1293 1.408 . S
C1297 C1296 1.404 . S
C1297 H1309 0.930 . S
C1298 C1294 1.524 . S
C1298 H1310 0.956 . S
C1298 H1311 0.961 . S
C1298 H1312 0.961 . S
C1299 C1296 1.539 . S
C1299 H1313 0.958 . S
C1299 H1314 0.961 . S
C1299 H1315 0.960 . S
H1300 C1284 0.931 . S
H1301 C1289 0.929 . S
H1302 C1290 0.960 . S
H1303 C1290 0.962 . S
H1304 C1290 0.960 . S
H1305 C1291 0.961 . S
H1306 C1291 0.961 . S
H1307 C1291 0.961 . S
H1308 C1292 0.931 . S
H1309 C1297 0.930 . S
H1310 C1298 0.956 . S
H1311 C1298 0.961 . S
H1312 C1298 0.961 . S
H1313 C1299 0.958 . S
H1314 C1299 0.961 . S
H1315 C1299 0.960 . S
C1316 C1317 1.391 1_455 S
C1316 C1318 1.394 . S
C1316 H1332 0.931 . S
C1317 C1316 1.391 1_655 S
C1317 C1321 1.376 . S
C1318 C1316 1.394 . S
C1318 C1319 1.369 1_455 S
C1318 C1322 1.531 . S
C1319 C1318 1.369 1_655 S
C1319 C1320 1.410 . S
C1319 C1327 1.503 1_655 S
C1320 C1319 1.410 . S
C1320 C1321 1.392 . S
C1320 C1323 1.511 . S
C1321 C1317 1.376 . S
C1321 C1320 1.392 . S
C1321 H1333 0.929 . S
C1322 C1318 1.531 . S
C1322 H1334 0.960 . S
C1322 H1335 0.962 . S
C1322 H1336 0.960 . S
C1323 C1320 1.511 . S
C1323 H1337 0.961 . S
C1323 H1338 0.961 . S
C1323 H1339 0.961 . S
C1324 C1325 1.370 . S
C1324 C1326 1.363 . S
C1324 H1340 0.931 . S
C1325 C1324 1.370 . S
C1325 C1329 1.408 . S
C1326 C1324 1.363 . S
C1326 C1327 1.370 . S
C1326 C1330 1.524 . S
C1327 C1319 1.503 1_455 S
C1327 C1326 1.370 . S
C1327 C1328 1.399 1_455 S
C1328 C1327 1.399 1_655 S
C1328 C1329 1.402 1_655 S
C1328 C1331 1.545 . S
C1329 C1325 1.408 . S
C1329 C1328 1.402 1_455 S
C1329 H1341 0.930 . S
C1330 C1326 1.524 . S
C1330 H1342 0.956 . S
C1330 H1343 0.961 . S
C1330 H1344 0.961 . S
C1331 C1328 1.545 . S
C1331 H1345 0.958 . S
C1331 H1346 0.961 . S
C1331 H1347 0.960 . S
H1332 C1316 0.931 . S
H1333 C1321 0.929 . S
H1334 C1322 0.960 . S
H1335 C1322 0.962 . S
H1336 C1322 0.960 . S
H1337 C1323 0.961 . S
H1338 C1323 0.961 . S
H1339 C1323 0.961 . S
H1340 C1324 0.931 . S
H1341 C1329 0.930 . S
H1342 C1330 0.956 . S
H1343 C1330 0.961 . S
H1344 C1330 0.961 . S
H1345 C1331 0.958 . S
H1346 C1331 0.961 . S
H1347 C1331 0.960 . S
C1348 C1349 1.391 . S
C1348 C1350 1.394 . S
C1348 H1364 0.931 . S
C1349 C1348 1.391 . S
C1349 C1353 1.376 . S
C1350 C1348 1.394 . S
C1350 C1351 1.369 . S
C1350 C1354 1.535 . S
C1351 C1350 1.369 . S
C1351 C1352 1.410 1_545 S
C1351 C1359 1.503 1_544 S
C1352 C1351 1.410 1_565 S
C1352 C1353 1.392 1_565 S
C1352 C1355 1.511 . S
C1353 C1349 1.376 . S
C1353 C1352 1.392 1_545 S
C1353 H1365 0.929 1_545 S
C1354 C1350 1.535 . S
C1354 H1366 0.955 1_554 S
C1354 H1367 0.958 1_554 S
C1354 H1368 0.962 . S
C1355 C1352 1.511 . S
C1355 H1369 0.961 . S
C1355 H1370 0.961 . S
C1355 H1371 0.961 . S
C1356 C1357 1.370 . S
C1356 C1358 1.363 . S
C1356 H1372 0.931 . S
C1357 C1356 1.370 . S
C1357 C1361 1.408 . S
C1358 C1356 1.363 . S
C1358 C1359 1.370 . S
C1358 C1362 1.556 . S
C1359 C1351 1.503 1_566 S
C1359 C1358 1.370 . S
C1359 C1360 1.403 1_565 S
C1360 C1359 1.403 1_545 S
C1360 C1361 1.404 1_545 S
C1360 C1363 1.539 . S
C1361 C1357 1.408 . S
C1361 C1360 1.404 1_565 S
C1361 H1373 0.930 1_565 S
C1362 C1358 1.556 . S
C1362 H1374 0.943 1_556 S
C1362 H1375 0.926 1_556 S
C1362 H1376 0.980 . S
C1363 C1360 1.539 . S
C1363 H1377 0.958 . S
C1363 H1378 0.961 . S
C1363 H1379 0.960 . S
H1364 C1348 0.931 . S
H1365 C1353 0.929 1_565 S
H1366 C1354 0.955 1_556 S
H1367 C1354 0.958 1_556 S
H1368 C1354 0.962 . S
H1369 C1355 0.961 . S
H1370 C1355 0.961 . S
H1371 C1355 0.961 . S
H1372 C1356 0.931 . S
H1373 C1361 0.930 1_545 S
H1374 C1362 0.943 1_554 S
H1375 C1362 0.926 1_554 S
H1376 C1362 0.980 . S
H1377 C1363 0.958 . S
H1378 C1363 0.961 . S
H1379 C1363 0.960 . S
C1380 C1381 1.391 . S
C1380 C1382 1.394 . S
C1380 H1396 0.931 . S
C1381 C1380 1.391 . S
C1381 C1385 1.376 . S
C1382 C1380 1.394 . S
C1382 C1383 1.369 . S
C1382 C1386 1.531 . S
C1383 C1382 1.369 . S
C1383 C1384 1.410 . S
C1383 C1391 1.503 . S
C1384 C1383 1.410 . S
C1384 C1385 1.392 . S
C1384 C1387 1.511 . S
C1385 C1381 1.376 . S
C1385 C1384 1.392 . S
C1385 H1397 0.929 . S
C1386 C1382 1.531 . S
C1386 H1398 0.960 . S
C1386 H1399 0.962 . S
C1386 H1400 0.960 . S
C1387 C1384 1.511 . S
C1387 H1401 0.961 . S
C1387 H1402 0.961 . S
C1387 H1403 0.961 . S
C1388 C1389 1.370 . S
C1388 C1390 1.363 . S
C1388 H1404 0.931 . S
C1389 C1388 1.370 . S
C1389 C1393 1.408 . S
C1390 C1388 1.363 . S
C1390 C1391 1.370 . S
C1390 C1394 1.524 . S
C1391 C1383 1.503 . S
C1391 C1390 1.370 . S
C1391 C1392 1.403 . S
C1392 C1391 1.403 . S
C1392 C1393 1.404 . S
C1392 C1395 1.539 . S
C1393 C1389 1.408 . S
C1393 C1392 1.404 . S
C1393 H1405 0.930 . S
C1394 C1390 1.524 . S
C1394 H1406 0.956 . S
C1394 H1407 0.961 . S
C1394 H1408 0.961 . S
C1395 C1392 1.539 . S
C1395 H1409 0.958 . S
C1395 H1410 0.961 . S
C1395 H1411 0.960 . S
H1396 C1380 0.931 . S
H1397 C1385 0.929 . S
H1398 C1386 0.960 . S
H1399 C1386 0.962 . S
H1400 C1386 0.960 . S
H1401 C1387 0.961 . S
H1402 C1387 0.961 . S
H1403 C1387 0.961 . S
H1404 C1388 0.931 . S
H1405 C1393 0.930 . S
H1406 C1394 0.956 . S
H1407 C1394 0.961 . S
H1408 C1394 0.961 . S
H1409 C1395 0.958 . S
H1410 C1395 0.961 . S
H1411 C1395 0.960 . S
C1412 C1413 1.391 1_655 S
C1412 C1414 1.394 . S
C1412 H1428 0.931 . S
C1413 C1412 1.391 1_455 S
C1413 C1417 1.376 . S
C1414 C1412 1.394 . S
C1414 C1415 1.369 1_655 S
C1414 C1418 1.531 . S
C1415 C1414 1.369 1_455 S
C1415 C1416 1.410 . S
C1415 C1423 1.503 1_455 S
C1416 C1415 1.410 . S
C1416 C1417 1.392 . S
C1416 C1419 1.511 . S
C1417 C1413 1.376 . S
C1417 C1416 1.392 . S
C1417 H1429 0.929 . S
C1418 C1414 1.531 . S
C1418 H1430 0.960 . S
C1418 H1431 0.962 . S
C1418 H1432 0.960 . S
C1419 C1416 1.511 . S
C1419 H1433 0.961 . S
C1419 H1434 0.961 . S
C1419 H1435 0.961 . S
C1420 C1421 1.370 . S
C1420 C1422 1.363 . S
C1420 H1436 0.931 . S
C1421 C1420 1.370 . S
C1421 C1425 1.408 . S
C1422 C1420 1.363 . S
C1422 C1423 1.370 . S
C1422 C1426 1.524 1_655 S
C1423 C1415 1.503 1_655 S
C1423 C1422 1.370 . S
C1423 C1424 1.403 . S
C1424 C1423 1.403 . S
C1424 C1425 1.404 . S
C1424 C1427 1.539 . S
C1425 C1421 1.408 . S
C1425 C1424 1.404 . S
C1425 H1437 0.930 . S
C1426 C1422 1.524 1_455 S
C1426 H1438 0.956 1_455 S
C1426 H1439 0.960 . S
C1426 H1440 0.950 1_455 S
C1427 C1424 1.539 . S
C1427 H1441 0.958 . S
C1427 H1442 0.961 . S
C1427 H1443 0.960 1_655 S
H1428 C1412 0.931 . S
H1429 C1417 0.929 . S
H1430 C1418 0.960 . S
H1431 C1418 0.962 . S
H1432 C1418 0.960 . S
H1433 C1419 0.961 . S
H1434 C1419 0.961 . S
H1435 C1419 0.961 . S
H1436 C1420 0.931 . S
H1437 C1425 0.930 . S
H1438 C1426 0.956 1_655 S
H1439 C1426 0.960 . S
H1440 C1426 0.950 1_655 S
H1441 C1427 0.958 . S
H1442 C1427 0.961 . S
H1443 C1427 0.960 1_455 S
C1444 C1445 1.391 1_545 S
C1444 C1446 1.394 . S
C1444 H1460 0.931 . S
C1445 C1444 1.391 1_565 S
C1445 C1449 1.376 . S
C1446 C1444 1.394 . S
C1446 C1447 1.369 1_545 S
C1446 C1450 1.531 . S
C1447 C1446 1.369 1_565 S
C1447 C1448 1.410 . S
C1447 C1455 1.503 1_564 S
C1448 C1447 1.410 . S
C1448 C1449 1.392 . S
C1448 C1451 1.511 . S
C1449 C1445 1.376 . S
C1449 C1448 1.392 . S
C1449 H1461 0.929 . S
C1450 C1446 1.531 . S
C1450 H1462 0.960 . S
C1450 H1463 0.962 . S
C1450 H1464 0.960 . S
C1451 C1448 1.511 . S
C1451 H1465 0.961 . S
C1451 H1466 0.961 1_554 S
C1451 H1467 0.961 . S
C1452 C1453 1.370 . S
C1452 C1454 1.363 1_545 S
C1452 H1468 0.931 1_545 S
C1453 C1452 1.370 . S
C1453 C1457 1.408 . S
C1454 C1452 1.363 1_565 S
C1454 C1455 1.370 1_565 S
C1454 C1458 1.524 . S
C1455 C1447 1.503 1_546 S
C1455 C1454 1.370 1_545 S
C1455 C1456 1.403 . S
C1456 C1455 1.403 . S
C1456 C1457 1.404 . S
C1456 C1459 1.539 . S
C1457 C1453 1.408 . S
C1457 C1456 1.404 . S
C1457 H1469 0.930 . S
C1458 C1454 1.524 . S
C1458 H1470 0.956 . S
C1458 H1471 0.961 . S
C1458 H1472 0.961 . S
C1459 C1456 1.539 . S
C1459 H1473 0.958 1_556 S
C1459 H1474 0.961 . S
C1459 H1475 0.960 1_556 S
H1460 C1444 0.931 . S
H1461 C1449 0.929 . S
H1462 C1450 0.960 . S
H1463 C1450 0.962 . S
H1464 C1450 0.960 . S
H1465 C1451 0.961 . S
H1466 C1451 0.961 1_556 S
H1467 C1451 0.961 . S
H1468 C1452 0.931 1_565 S
H1469 C1457 0.930 . S
H1470 C1458 0.956 . S
H1471 C1458 0.961 . S
H1472 C1458 0.961 . S
H1473 C1459 0.958 1_554 S
H1474 C1459 0.961 . S
H1475 C1459 0.960 1_554 S
C709 C682 1.867 . S
C717 C33 1.872 . S
C741 C92 1.878 . S
C749 C387 1.868 . S
C773 C151 1.859 . S
C781 C446 1.874 . S
C805 C210 1.860 . S
C813 C505 1.860 . S
C837 C564 1.851 . S
C845 C269 1.863 . S
C869 C328 1.861 . S
C877 C623 1.874 . S
C901 C180 1.399 . S
C909 C3 1.388 . S
C933 C239 1.396 . S
C941 C62 1.386 . S
C965 C298 1.384 . S
C973 C121 1.386 . S
C997 C357 1.378 . S
C1005 C534 1.395 . S
C1029 C416 1.394 . S
C1037 C593 1.393 . S
C1061 C475 1.397 . S
C1069 C652 1.386 . S
C1093 C524 0.192 . S
C1101 C52 0.326 . S
C1125 C111 0.347 . S
C1133 C583 0.261 . S
C1157 C642 0.221 . S
C1165 C170 0.314 . S
C1189 C701 0.190 . S
C1197 C229 0.329 . S
C1221 C406 0.389 . S
C1229 C288 0.247 . S
C1253 C347 0.228 . S
C1261 C465 0.311 . S
C1285 C536 1.621 . S
C1293 C5 1.637 . S
C1317 C64 1.636 . S
C1325 C595 1.630 . S
C1349 C654 1.647 . S
C1357 C123 1.632 . S
C1381 C182 1.651 . S
C1389 C359 1.627 . S
C1413 C241 1.627 . S
C1421 C418 1.634 . S
C1445 C477 1.617 . S
C1453 C300 1.638 . S
