# Generated by pormake.
# Topology xfx, (5)-cn, num edge types: 1
# Building blocks:
#     Node 0, Type 0, BuildingBlock: BEQFEK_clean_sbu_0, # of connection points: 5
#     Node 1, Type 0, BuildingBlock: BEQFEK_clean_sbu_0, # of connection points: 5
#     Node 2, Type 0, BuildingBlock: BEQFEK_clean_sbu_0, # of connection points: 5
#     Node 3, Type 0, BuildingBlock: BEQFEK_clean_sbu_0, # of connection points: 5
#     Node 4, Type 0, BuildingBlock: BEQFEK_clean_sbu_0, # of connection points: 5
#     Node 5, Type 0, BuildingBlock: BEQFEK_clean_sbu_0, # of connection points: 5
#     Node 6, Type 0, BuildingBlock: BEQFEK_clean_sbu_0, # of connection points: 5
#     Node 7, Type 0, BuildingBlock: BEQFEK_clean_sbu_0, # of connection points: 5
#     Edge 8, Type (0, 0), BuildingBlock: ZUJKAS_clean_linker_0, # of connection points: 2
#     Edge 9, Type (0, 0), BuildingBlock: ZUJKAS_clean_linker_0, # of connection points: 2
#     Edge 10, Type (0, 0), BuildingBlock: ZUJKAS_clean_linker_0, # of connection points: 2
#     Edge 11, Type (0, 0), BuildingBlock: ZUJKAS_clean_linker_0, # of connection points: 2
#     Edge 12, Type (0, 0), BuildingBlock: ZUJKAS_clean_linker_0, # of connection points: 2
#     Edge 13, Type (0, 0), BuildingBlock: ZUJKAS_clean_linker_0, # of connection points: 2
#     Edge 14, Type (0, 0), BuildingBlock: ZUJKAS_clean_linker_0, # of connection points: 2
#     Edge 15, Type (0, 0), BuildingBlock: ZUJKAS_clean_linker_0, # of connection points: 2
#     Edge 16, Type (0, 0), BuildingBlock: ZUJKAS_clean_linker_0, # of connection points: 2
#     Edge 17, Type (0, 0), BuildingBlock: ZUJKAS_clean_linker_0, # of connection points: 2
#     Edge 18, Type (0, 0), BuildingBlock: ZUJKAS_clean_linker_0, # of connection points: 2
#     Edge 19, Type (0, 0), BuildingBlock: ZUJKAS_clean_linker_0, # of connection points: 2
#     Edge 20, Type (0, 0), BuildingBlock: ZUJKAS_clean_linker_0, # of connection points: 2
#     Edge 21, Type (0, 0), BuildingBlock: ZUJKAS_clean_linker_0, # of connection points: 2
#     Edge 22, Type (0, 0), BuildingBlock: ZUJKAS_clean_linker_0, # of connection points: 2
#     Edge 23, Type (0, 0), BuildingBlock: ZUJKAS_clean_linker_0, # of connection points: 2
#     Edge 24, Type (0, 0), BuildingBlock: ZUJKAS_clean_linker_0, # of connection points: 2
#     Edge 25, Type (0, 0), BuildingBlock: ZUJKAS_clean_linker_0, # of connection points: 2
#     Edge 26, Type (0, 0), BuildingBlock: ZUJKAS_clean_linker_0, # of connection points: 2
#     Edge 27, Type (0, 0), BuildingBlock: ZUJKAS_clean_linker_0, # of connection points: 2
# Relax obj value: 0.362
# Max RMSD: 0.205
# Mean RMSD: 0.205
data_MOF--net-xfx--node1-BEQFEK_clean_sbu_0--edge1-ZUJKAS_clean_linker_0
_symmetry_space_group_name_H-M    P1
_symmetry_Int_Tables_number       1
_symmetry_cell_setting            triclinic
loop_
_symmetry_equiv_pos_as_xyz
'x, y, z'
_cell_length_a     49.473309
_cell_length_b     49.48368
_cell_length_c     40.829004
_cell_angle_alpha  90.01015
_cell_angle_beta   90.000945
_cell_angle_gamma 80.075389
loop_
_atom_site_label
_atom_site_type_symbol
_atom_site_fract_x
_atom_site_fract_y
_atom_site_fract_z
_atom_type_partial_charge
Co0 Co 0.33574 0.03137 0.418 0.0
Co1 Co 0.32558 0.98048 0.45859 0.0
C2 C 0.34174 0.9754 0.38785 0.0
O3 O 0.3427 0.00087 0.38631 0.0
O4 O 0.33515 0.96461 0.41432 0.0
C5 C 0.32672 0.06744 0.36408 0.0
O6 O 0.31445 0.04787 0.35266 0.0
C7 C 0.29825 0.9345 0.47278 0.0
C8 C 0.3068 0.92652 0.52531 0.0
C9 C 0.2935 0.91761 0.49851 0.0
N10 N 0.31374 0.95233 0.48378 0.0
N11 N 0.31898 0.94739 0.51515 0.0
C12 C 0.28625 0.93561 0.43903 0.0
H13 H 0.28489 0.95649 0.42856 0.0
H14 H 0.26551 0.9299 0.4394 0.0
H15 H 0.29973 0.92096 0.42302 0.0
C16 C 0.27938 0.05295 0.44009 0.0
N17 N 0.30153 0.03295 0.43878 0.0
N18 N 0.29696 0.01187 0.45633 0.0
C19 C 0.27158 0.01798 0.46954 0.0
C20 C 0.25957 0.04408 0.4593 0.0
C21 C 0.27794 0.08075 0.42502 0.0
H22 H 0.29761 0.08815 0.42886 0.0
H23 H 0.27442 0.07928 0.3983 0.0
H24 H 0.26106 0.09586 0.43567 0.0
O25 O 0.3657 0.02673 0.45043 0.0
O26 O 0.35963 0.9899 0.47878 0.0
H27 H 0.27329 0.99146 0.51117 0.0
H28 H 0.23913 0.00932 0.5015 0.0
C29 C 0.25895 0.99908 0.49104 0.0
H30 H 0.25521 0.98121 0.47646 0.0
H31 H 0.3305 0.95852 0.52971 0.0
O32 O 0.33701 0.06512 0.39267 0.0
C33 C 0.37314 0.00912 0.47285 0.0
Co34 Co 0.98892 0.68822 0.57954 0.0
Co35 Co 0.04038 0.6978 0.53938 0.0
C36 C 0.04522 0.67978 0.60941 0.0
O37 O 0.01959 0.67958 0.61075 0.0
O38 O 0.05629 0.6867 0.58328 0.0
C39 C 0.95345 0.69731 0.63394 0.0
O40 O 0.97344 0.70909 0.64516 0.0
C41 C 0.08679 0.72468 0.52455 0.0
C42 C 0.09277 0.71776 0.47137 0.0
C43 C 0.10239 0.73055 0.49808 0.0
N44 N 0.06848 0.70958 0.51387 0.0
N45 N 0.07228 0.70527 0.48211 0.0
C46 C 0.08992 0.73176 0.55988 0.0
H47 H 0.09766 0.71264 0.57353 0.0
H48 H 0.0696 0.74061 0.5703 0.0
H49 H 0.10463 0.74597 0.56366 0.0
C50 C 0.96889 0.7454 0.55952 0.0
N51 N 0.98832 0.72276 0.56001 0.0
N52 N 0.00969 0.72718 0.5429 0.0
C53 C 0.00438 0.75303 0.53092 0.0
C54 C 0.97847 0.76543 0.5414 0.0
C55 C 0.94092 0.74716 0.57425 0.0
H56 H 0.93316 0.72774 0.56999 0.0
H57 H 0.94224 0.75042 0.60104 0.0
H58 H 0.92614 0.76436 0.56366 0.0
O59 O 0.99244 0.65915 0.54611 0.0
O60 O 0.02961 0.66472 0.5181 0.0
H61 H 0.03078 0.7524 0.48929 0.0
H62 H 0.01451 0.78647 0.50162 0.0
C63 C 0.02391 0.76581 0.51051 0.0
H64 H 0.04215 0.76789 0.52541 0.0
H65 H 0.06058 0.69424 0.4677 0.0
O66 O 0.95523 0.68734 0.60518 0.0
C67 C 0.00987 0.65175 0.52348 0.0
Co68 Co 0.6903 0.99117 0.41899 0.0
Co69 Co 0.69659 0.04371 0.45888 0.0
C70 C 0.68171 0.04685 0.38774 0.0
O71 O 0.68267 0.02103 0.38642 0.0
O72 O 0.68656 0.05855 0.41434 0.0
C73 C 0.70218 0.95378 0.36633 0.0
O74 O 0.71454 0.97327 0.35488 0.0
C75 C 0.72093 0.09176 0.47297 0.0
C76 C 0.71303 0.09855 0.52584 0.0
C77 C 0.72544 0.10846 0.49898 0.0
N78 N 0.70648 0.07299 0.48389 0.0
N79 N 0.70153 0.07729 0.51544 0.0
C80 C 0.73267 0.09149 0.43913 0.0
H81 H 0.73505 0.07058 0.42848 0.0
H82 H 0.7529 0.0983 0.43938 0.0
H83 H 0.71845 0.10566 0.42336 0.0
C84 C 0.7465 0.97262 0.44332 0.0
N85 N 0.72375 0.99174 0.44056 0.0
N86 N 0.72681 0.01363 0.45754 0.0
C87 C 0.7519 0.00902 0.47167 0.0
C88 C 0.76525 0.98297 0.46282 0.0
C89 C 0.74921 0.94411 0.4299 0.0
H90 H 0.7296 0.93642 0.43296 0.0
H91 H 0.754 0.94445 0.40338 0.0
H92 H 0.76574 0.9298 0.44238 0.0
O93 O 0.66006 0.99455 0.45101 0.0
O94 O 0.66329 0.0325 0.47887 0.0
H95 H 0.74862 0.03557 0.51338 0.0
H96 H 0.78356 0.02077 0.50272 0.0
C97 C 0.76298 0.02926 0.49284 0.0
H98 H 0.76469 0.04772 0.4782 0.0
H99 H 0.69096 0.06527 0.53003 0.0
O100 O 0.69095 0.95671 0.39439 0.0
C101 C 0.65138 0.01209 0.4731 0.0
Co102 Co 0.03201 0.33876 0.5776 0.0
Co103 Co 0.97999 0.32741 0.53989 0.0
C104 C 0.9764 0.34487 0.60981 0.0
O105 O 0.00185 0.34615 0.60985 0.0
O106 O 0.96482 0.33745 0.5843 0.0
C107 C 0.07161 0.3262 0.62798 0.0
O108 O 0.05665 0.30757 0.63547 0.0
C109 C 0.93323 0.30049 0.52518 0.0
C110 C 0.92922 0.30507 0.47147 0.0
C111 C 0.91848 0.2936 0.49843 0.0
N112 N 0.95216 0.31487 0.51444 0.0
N113 N 0.9495 0.31778 0.48236 0.0
C114 C 0.92872 0.29503 0.56066 0.0
H115 H 0.92208 0.31491 0.57319 0.0
H116 H 0.94833 0.28511 0.57199 0.0
H117 H 0.91264 0.28237 0.56467 0.0
C118 C 0.05406 0.28253 0.55464 0.0
N119 N 0.03363 0.30421 0.55752 0.0
N120 N 0.01169 0.29891 0.54223 0.0
C121 C 0.01743 0.27325 0.52974 0.0
C122 C 0.0444 0.26203 0.53742 0.0
C123 C 0.08312 0.28245 0.56496 0.0
H124 H 0.08795 0.30348 0.5639 0.0
H125 H 0.086 0.27464 0.59041 0.0
H126 H 0.09766 0.26883 0.54894 0.0
O127 O 0.02714 0.36764 0.54415 0.0
O128 O 0.98896 0.36144 0.51859 0.0
H129 H 0.99094 0.2711 0.4888 0.0
H130 H 0.00598 0.23797 0.50525 0.0
C131 C 0.9973 0.25951 0.51156 0.0
H132 H 0.97886 0.25955 0.52694 0.0
H133 H 0.96189 0.32797 0.46782 0.0
O134 O 0.06539 0.34134 0.60303 0.0
C135 C 0.0087 0.37467 0.52258 0.0
Co136 Co 0.83415 0.53247 0.92277 0.0
Co137 Co 0.82644 0.48012 0.96198 0.0
C138 C 0.8428 0.47656 0.8916 0.0
O139 O 0.84266 0.50226 0.89082 0.0
O140 O 0.83655 0.46495 0.91763 0.0
C141 C 0.81995 0.56838 0.87014 0.0
O142 O 0.8055 0.54932 0.86259 0.0
C143 C 0.79996 0.43371 0.97629 0.0
C144 C 0.81194 0.42326 0.0275 0.0
C145 C 0.79665 0.41592 0.00157 0.0
N146 N 0.81615 0.45104 0.98687 0.0
N147 N 0.82342 0.44464 0.01743 0.0
C148 C 0.78955 0.43344 0.94184 0.0
H149 H 0.78516 0.45463 0.93197 0.0
H150 H 0.77103 0.42379 0.93998 0.0
H151 H 0.8058 0.42142 0.92643 0.0
C152 C 0.77757 0.55164 0.94621 0.0
N153 N 0.80018 0.53228 0.94368 0.0
N154 N 0.79653 0.51038 0.96024 0.0
C155 C 0.7712 0.51517 0.97377 0.0
C156 C 0.75831 0.54137 0.96495 0.0
C157 C 0.77535 0.58033 0.93351 0.0
H158 H 0.79546 0.58721 0.93536 0.0
H159 H 0.76902 0.58083 0.90743 0.0
H160 H 0.75987 0.59478 0.94742 0.0
O161 O 0.86397 0.52927 0.9553 0.0
O162 O 0.85963 0.49126 0.9824 0.0
H163 H 0.77416 0.48692 0.0139 0.0
H164 H 0.73955 0.50414 0.00544 0.0
C165 C 0.75945 0.49497 0.9943 0.0
H166 H 0.75597 0.47757 0.97873 0.0
H167 H 0.83603 0.45499 0.03146 0.0
O168 O 0.83365 0.56612 0.89663 0.0
C169 C 0.87206 0.51145 0.97731 0.0
Co170 Co 0.49145 0.18997 0.07807 0.0
Co171 Co 0.54339 0.19773 0.03796 0.0
C172 C 0.54722 0.1834 0.1091 0.0
O173 O 0.52153 0.18358 0.11039 0.0
O174 O 0.5587 0.1885 0.08247 0.0
C175 C 0.45526 0.20385 0.13058 0.0
O176 O 0.47421 0.21833 0.13843 0.0
C177 C 0.59018 0.22354 0.02368 0.0
C178 C 0.59979 0.21253 0.97204 0.0
C179 C 0.60813 0.22671 0.99845 0.0
N180 N 0.57231 0.20805 0.01284 0.0
N181 N 0.57818 0.20136 0.982 0.0
C182 C 0.58826 0.23683 0.05675 0.0
H183 H 0.56696 0.23919 0.06623 0.0
H184 H 0.59466 0.25724 0.05563 0.0
H185 H 0.60196 0.22362 0.07401 0.0
C186 C 0.47059 0.24489 0.05113 0.0
N187 N 0.49076 0.22321 0.05543 0.0
N188 N 0.51258 0.22703 0.0388 0.0
C189 C 0.50697 0.25164 0.02364 0.0
C190 C 0.48023 0.26368 0.03107 0.0
C191 C 0.44245 0.2473 0.06558 0.0
H192 H 0.43483 0.22764 0.06263 0.0
H193 H 0.44351 0.25177 0.0921 0.0
H194 H 0.42771 0.26406 0.05418 0.0
O195 O 0.49577 0.15899 0.04691 0.0
O196 O 0.5331 0.16384 0.01867 0.0
H197 H 0.53395 0.24669 0.98228 0.0
H198 H 0.51566 0.28134 0.98795 0.0
C199 C 0.52603 0.26257 0.00068 0.0
H200 H 0.54373 0.26759 0.01466 0.0
H201 H 0.56728 0.18945 0.96768 0.0
O202 O 0.45768 0.19032 0.10396 0.0
C203 C 0.5135 0.15087 0.0248 0.0
Co204 Co 0.18469 0.49121 0.92333 0.0
Co205 Co 0.19623 0.54357 0.9601 0.0
C206 C 0.17839 0.54661 0.89044 0.0
O207 O 0.17695 0.5212 0.89086 0.0
O208 O 0.18611 0.55841 0.91562 0.0
C209 C 0.19698 0.45153 0.87309 0.0
O210 O 0.21535 0.46667 0.86521 0.0
C211 C 0.22263 0.59072 0.9744 0.0
C212 C 0.21924 0.59408 0.02827 0.0
C213 C 0.22993 0.60527 0.00108 0.0
N214 N 0.20878 0.57145 0.98536 0.0
N215 N 0.20656 0.57373 0.01755 0.0
C216 C 0.2272 0.59573 0.93882 0.0
H217 H 0.20697 0.60221 0.92701 0.0
H218 H 0.23717 0.57638 0.92696 0.0
H219 H 0.23947 0.61211 0.93463 0.0
C220 C 0.2413 0.46966 0.94528 0.0
N221 N 0.21939 0.48987 0.9429 0.0
N222 N 0.22479 0.51197 0.95773 0.0
C223 C 0.25076 0.50658 0.96934 0.0
C224 C 0.26207 0.47965 0.96158 0.0
C225 C 0.24153 0.44053 0.93517 0.0
H226 H 0.22061 0.43546 0.93677 0.0
H227 H 0.24899 0.43764 0.90958 0.0
H228 H 0.25554 0.42617 0.951 0.0
O229 O 0.15608 0.49614 0.95708 0.0
O230 O 0.16225 0.53476 0.98165 0.0
H231 H 0.25383 0.53345 0.00965 0.0
H232 H 0.28655 0.51862 0.99197 0.0
C233 C 0.26478 0.52704 0.98649 0.0
H234 H 0.26406 0.54539 0.97078 0.0
H235 H 0.1969 0.561 0.03226 0.0
O236 O 0.18206 0.45768 0.89824 0.0
C237 C 0.14911 0.51489 0.97827 0.0
Co238 Co 0.53241 0.83406 0.08116 0.0
Co239 Co 0.4808 0.82563 0.04079 0.0
C240 C 0.47618 0.84088 0.11147 0.0
O241 O 0.50175 0.84141 0.11279 0.0
O242 O 0.46506 0.83472 0.08504 0.0
C243 C 0.56823 0.82107 0.13439 0.0
O244 O 0.54933 0.80662 0.14253 0.0
C245 C 0.43403 0.79985 0.02554 0.0
C246 C 0.42684 0.80869 0.97293 0.0
C247 C 0.41731 0.79563 0.99949 0.0
N248 N 0.45243 0.81489 0.01502 0.0
N249 N 0.44795 0.82032 0.9836 0.0
C250 C 0.43442 0.78763 0.05913 0.0
H251 H 0.45533 0.7853 0.06979 0.0
H252 H 0.42776 0.76734 0.05841 0.0
H253 H 0.42013 0.8015 0.07513 0.0
C254 C 0.55341 0.77854 0.05589 0.0
N255 N 0.5333 0.8004 0.05935 0.0
N256 N 0.51165 0.79638 0.0425 0.0
C257 C 0.51728 0.77141 0.02816 0.0
C258 C 0.54387 0.7594 0.03626 0.0
C259 C 0.58137 0.77623 0.07081 0.0
H260 H 0.5891 0.79582 0.0677 0.0
H261 H 0.57997 0.77207 0.09737 0.0
H262 H 0.5962 0.75929 0.05985 0.0
O263 O 0.52898 0.86404 0.04897 0.0
O264 O 0.49111 0.85964 0.02146 0.0
H265 H 0.49102 0.77516 0.98618 0.0
H266 H 0.50858 0.74058 0.99398 0.0
C267 C 0.49833 0.75995 0.00555 0.0
H268 H 0.48025 0.75586 0.01951 0.0
H269 H 0.45961 0.83152 0.96932 0.0
O270 O 0.56587 0.83418 0.10749 0.0
C271 C 0.51116 0.87214 0.02698 0.0
H272 H 0.61214 0.05364 0.49543 0.0
H273 H 0.56527 0.0502 0.51146 0.0
H274 H 0.58509 0.96194 0.50481 0.0
H275 H 0.63153 0.96545 0.48713 0.0
H276 H 0.54326 0.97936 0.46902 0.0
H277 H 0.52349 0.0311 0.58853 0.0
H278 H 0.53628 0.05311 0.55971 0.0
H279 H 0.55772 0.02156 0.57219 0.0
C280 C 0.60669 0.03349 0.49833 0.0
C281 C 0.62537 0.00983 0.4898 0.0
C282 C 0.5799 0.03151 0.50775 0.0
C283 C 0.57158 0.00577 0.50968 0.0
C284 C 0.59095 0.98203 0.50349 0.0
H285 H 0.40463 0.96754 0.50724 0.0
H286 H 0.4526 0.96522 0.52387 0.0
C287 C 0.61749 0.98404 0.49339 0.0
C288 C 0.54202 0.00381 0.5129 0.0
H289 H 0.48323 0.02825 0.55529 0.0
C290 C 0.53034 0.98952 0.4884 0.0
C291 C 0.52497 0.01716 0.53804 0.0
C292 C 0.53637 0.03133 0.56626 0.0
C293 C 0.50209 0.98923 0.48746 0.0
C294 C 0.48495 0.00361 0.51166 0.0
C295 C 0.49652 0.01724 0.53679 0.0
C296 C 0.45477 0.0067 0.50888 0.0
C297 C 0.49053 0.97461 0.45966 0.0
C298 C 0.43995 0.03114 0.49622 0.0
C299 C 0.4127 0.03249 0.48649 0.0
C300 C 0.39974 0.00942 0.48941 0.0
C301 C 0.414 0.98565 0.50461 0.0
C302 C 0.4414 0.98427 0.51413 0.0
H303 H 0.50632 0.96673 0.44105 0.0
H304 H 0.4819 0.957 0.4695 0.0
H305 H 0.47361 0.98865 0.4474 0.0
H306 H 0.44999 0.04863 0.49193 0.0
H307 H 0.40224 0.05119 0.47516 0.0
H308 H 0.96733 0.6232 0.52183 0.0
H309 H 0.96899 0.57589 0.50394 0.0
H310 H 0.05144 0.57335 0.46849 0.0
H311 H 0.05009 0.62083 0.48643 0.0
H312 H 0.98491 0.54354 0.44154 0.0
H313 H 0.05491 0.51825 0.54838 0.0
H314 H 0.03369 0.55152 0.54365 0.0
H315 H 0.06372 0.54217 0.51873 0.0
C316 C 0.98563 0.61287 0.50953 0.0
C317 C 0.00878 0.62565 0.5061 0.0
C318 C 0.98645 0.58585 0.49915 0.0
C319 C 0.01042 0.5711 0.48526 0.0
C320 C 0.03279 0.58444 0.47932 0.0
H321 H 0.05354 0.39435 0.5013 0.0
H322 H 0.05523 0.44089 0.4825 0.0
C323 C 0.03196 0.61157 0.48957 0.0
C324 C 0.01323 0.54097 0.4819 0.0
H325 H 0.04091 0.4818 0.52089 0.0
C326 C 0.99745 0.52989 0.4585 0.0
C327 C 0.02954 0.52333 0.50415 0.0
C328 C 0.04636 0.53426 0.53033 0.0
C329 C 0.99734 0.50149 0.45705 0.0
C330 C 0.01282 0.48394 0.48023 0.0
C331 C 0.02916 0.49512 0.50296 0.0
C332 C 0.01119 0.4543 0.48342 0.0
C333 C 0.98068 0.49067 0.43072 0.0
C334 C 0.98582 0.44585 0.48878 0.0
C335 C 0.98482 0.41897 0.49878 0.0
C336 C 0.0092 0.40038 0.50446 0.0
C337 C 0.03444 0.40834 0.49722 0.0
C338 C 0.03541 0.43494 0.48651 0.0
H339 H 0.97885 0.50402 0.40868 0.0
H340 H 0.98987 0.46947 0.42338 0.0
H341 H 0.95964 0.49053 0.44007 0.0
H342 H 0.96686 0.46046 0.48746 0.0
H343 H 0.96511 0.41344 0.50458 0.0
H344 H 0.90487 0.47044 0.01097 0.0
H345 H 0.95211 0.47016 0.02901 0.0
H346 H 0.94581 0.55475 -9e-05 0.0
H347 H 0.89874 0.55525 0.98171 0.0
H348 H 0.98966 0.48197 0.9794 0.0
H349 H 0.99007 0.54998 0.08739 0.0
H350 H 0.96102 0.53395 0.07685 0.0
H351 H 0.96726 0.56371 0.05488 0.0
C352 C 0.91323 0.48923 0.00932 0.0
C353 C 0.89815 0.51278 0.99453 0.0
C354 C 0.94022 0.48903 0.01969 0.0
C355 C 0.95236 0.51249 0.01602 0.0
C356 C 0.93669 0.53657 0.00348 0.0
H357 H 0.10911 0.55856 0.99198 0.0
H358 H 0.06178 0.55641 0.00802 0.0
C359 C 0.90984 0.53673 0.99281 0.0
C360 C 0.98242 0.51053 0.01943 0.0
H361 H 0.03219 0.539 0.05754 0.0
C362 C 0.99908 0.494 0.99691 0.0
C363 C 0.99444 0.52667 0.04189 0.0
C364 C 0.97734 0.54445 0.06684 0.0
C365 C 0.02734 0.49406 0.99511 0.0
C366 C 0.03953 0.51034 0.01745 0.0
C367 C 0.02291 0.52636 0.04065 0.0
C368 C 0.06907 0.51238 0.01512 0.0
C369 C 0.04345 0.47792 0.96793 0.0
C370 C 0.08922 0.48864 0.01574 0.0
C371 C 0.116 0.48975 0.00579 0.0
C372 C 0.12331 0.51479 0.99629 0.0
C373 C 0.10397 0.53901 0.99927 0.0
C374 C 0.07693 0.53778 0.0084 0.0
H375 H 0.02986 0.47265 0.94811 0.0
H376 H 0.05845 0.48959 0.95695 0.0
H377 H 0.05485 0.45842 0.97798 0.0
H378 H 0.08382 0.46895 0.02189 0.0
H379 H 0.13068 0.47083 0.00402 0.0
H380 H 0.55695 0.89148 0.00803 0.0
H381 H 0.5597 0.93832 0.99093 0.0
H382 H 0.47138 0.95926 0.99388 0.0
H383 H 0.46853 0.91195 0.00912 0.0
H384 H 0.492 0.98804 0.94671 0.0
H385 H 0.54939 0.99415 0.06267 0.0
H386 H 0.5664 0.96873 0.03489 0.0
H387 H 0.53388 0.96489 0.05245 0.0
C388 C 0.53813 0.90593 0.00418 0.0
C389 C 0.51254 0.89829 0.01029 0.0
C390 C 0.53971 0.93271 0.99465 0.0
C391 C 0.5158 0.95254 0.9923 0.0
C392 C 0.49013 0.94437 0.99584 0.0
H393 H 0.4703 0.12334 0.02082 0.0
H394 H 0.47178 0.07568 0.00415 0.0
C395 C 0.4885 0.91734 0.00453 0.0
C396 C 0.51755 0.98213 0.98976 0.0
H397 H 0.54222 0.0335 0.02961 0.0
C398 C 0.50314 0.99795 0.96468 0.0
C399 C 0.53185 0.99515 0.0135 0.0
C400 C 0.54602 0.97995 0.04257 0.0
C401 C 0.5025 0.02644 0.96293 0.0
C402 C 0.51674 0.03926 0.98669 0.0
C403 C 0.53168 0.02341 0.01117 0.0
C404 C 0.51431 0.06938 0.98909 0.0
C405 C 0.48637 0.04278 0.93607 0.0
C406 C 0.5376 0.08176 0.98542 0.0
C407 C 0.5368 0.10908 0.99478 0.0
C408 C 0.51284 0.12422 0.00862 0.0
C409 C 0.48911 0.11219 0.01042 0.0
C410 C 0.48984 0.08502 0.00067 0.0
H411 H 0.48131 0.02942 0.91592 0.0
H412 H 0.46689 0.05407 0.94636 0.0
H413 H 0.49802 0.05814 0.92588 0.0
H414 H 0.55675 0.06987 0.97687 0.0
H415 H 0.55544 0.11772 0.99315 0.0
H416 H 0.05174 0.23894 0.47663 0.0
H417 H 0.08249 0.19629 0.4617 0.0
H418 H 0.10471 0.18263 0.56329 0.0
H419 H 0.07359 0.2248 0.57825 0.0
H420 H 0.13841 0.188 0.47289 0.0
H421 H 0.09269 0.10667 0.53419 0.0
H422 H 0.07367 0.14073 0.52701 0.0
H423 H 0.09711 0.13438 0.56092 0.0
C424 C 0.06263 0.22636 0.49578 0.0
C425 C 0.06025 0.23491 0.52857 0.0
C426 C 0.08025 0.20213 0.48726 0.0
C427 C 0.09558 0.18607 0.51144 0.0
C428 C 0.09262 0.19432 0.54432 0.0
H429 H 0.23875 0.05968 0.51954 0.0
H430 H 0.19648 0.09231 0.53126 0.0
C431 C 0.07506 0.21851 0.55281 0.0
C432 C 0.11682 0.16242 0.5021 0.0
H433 H 0.13932 0.09421 0.51637 0.0
C434 C 0.13841 0.1674 0.48199 0.0
C435 C 0.11689 0.13565 0.51432 0.0
C436 C 0.09371 0.12892 0.53507 0.0
C437 C 0.16054 0.14656 0.47457 0.0
C438 C 0.16079 0.11984 0.48705 0.0
C439 C 0.13902 0.11471 0.50682 0.0
C440 C 0.18401 0.09732 0.48049 0.0
C441 C 0.18397 0.15358 0.4544 0.0
C442 C 0.19036 0.08862 0.44827 0.0
C443 C 0.21439 0.07013 0.44162 0.0
C444 C 0.23222 0.05981 0.46713 0.0
C445 C 0.22509 0.06722 0.49957 0.0
C446 C 0.20107 0.08586 0.50622 0.0
H447 H 0.18368 0.17607 0.45335 0.0
H448 H 0.20405 0.14353 0.46449 0.0
H449 H 0.1823 0.14613 0.42897 0.0
H450 H 0.17723 0.09689 0.42814 0.0
H451 H 0.21956 0.0646 0.41643 0.0
H452 H 0.2894 0.8796 0.45076 0.0
H453 H 0.2583 0.84609 0.44973 0.0
H454 H 0.22899 0.87192 0.54608 0.0
H455 H 0.25964 0.90601 0.54705 0.0
H456 H 0.24918 0.80537 0.52003 0.0
H457 H 0.1653 0.8775 0.45876 0.0
H458 H 0.20074 0.87757 0.44821 0.0
H459 H 0.1881 0.88986 0.48752 0.0
C460 C 0.27612 0.87839 0.47156 0.0
C461 C 0.27636 0.89592 0.49863 0.0
C462 C 0.25863 0.85905 0.47106 0.0
C463 C 0.24134 0.85681 0.49772 0.0
C464 C 0.24223 0.87351 0.52529 0.0
H465 H 0.09885 0.78161 0.5243 0.0
H466 H 0.13387 0.81097 0.52389 0.0
C467 C 0.25972 0.89288 0.5258 0.0
C468 C 0.22154 0.83774 0.49627 0.0
H469 H 0.15656 0.83352 0.47167 0.0
C470 C 0.22894 0.81135 0.50939 0.0
C471 C 0.19527 0.84589 0.48248 0.0
C472 C 0.18662 0.87424 0.46838 0.0
C473 C 0.21041 0.7928 0.50938 0.0
C474 C 0.18405 0.8009 0.49544 0.0
C475 C 0.17681 0.82734 0.4822 0.0
C476 C 0.16318 0.78274 0.49564 0.0
C477 C 0.21892 0.76505 0.52511 0.0
C478 C 0.16786 0.75734 0.4794 0.0
C479 C 0.14801 0.74033 0.48009 0.0
C480 C 0.1233 0.74848 0.49712 0.0
C481 C 0.11825 0.77434 0.51224 0.0
C482 C 0.13808 0.79125 0.51167 0.0
H483 H 0.237 0.76455 0.54139 0.0
H484 H 0.20183 0.75925 0.53964 0.0
H485 H 0.22452 0.74938 0.50571 0.0
H486 H 0.18678 0.75072 0.4661 0.0
H487 H 0.15207 0.72071 0.46765 0.0
H488 H 0.78446 0.97296 0.52501 0.0
H489 H 0.82693 0.94274 0.54154 0.0
H490 H 0.84849 0.92801 0.4399 0.0
H491 H 0.80655 0.95881 0.42347 0.0
H492 H 0.83702 0.88871 0.52625 0.0
H493 H 0.92168 0.93742 0.47843 0.0
H494 H 0.88704 0.95589 0.48277 0.0
H495 H 0.89643 0.93411 0.44783 0.0
C496 C 0.79879 0.96398 0.50633 0.0
C497 C 0.79249 0.96827 0.47303 0.0
C498 C 0.82291 0.94663 0.51573 0.0
C499 C 0.84109 0.9334 0.49197 0.0
C500 C 0.83519 0.9385 0.45869 0.0
H501 H 0.96493 0.78885 0.48187 0.0
H502 H 0.93375 0.83229 0.47131 0.0
C503 C 0.81114 0.95589 0.44931 0.0
C504 C 0.86422 0.91169 0.50169 0.0
H505 H 0.93305 0.88944 0.49171 0.0
C506 C 0.85809 0.88909 0.51917 0.0
C507 C 0.89165 0.9121 0.49213 0.0
C508 C 0.89967 0.93632 0.47452 0.0
C509 C 0.87842 0.86649 0.52643 0.0
C510 C 0.90575 0.86667 0.51638 0.0
C511 C 0.91206 0.88941 0.49936 0.0
C512 C 0.92767 0.84285 0.52254 0.0
C513 C 0.87031 0.84213 0.54376 0.0
C514 C 0.93524 0.83503 0.55472 0.0
C515 C 0.95295 0.81037 0.56071 0.0
C516 C 0.96352 0.79332 0.5346 0.0
C517 C 0.9572 0.80187 0.50232 0.0
C518 C 0.9394 0.82656 0.49631 0.0
H519 H 0.84774 0.84283 0.54354 0.0
H520 H 0.88033 0.82262 0.53225 0.0
H521 H 0.87711 0.842 0.56967 0.0
H522 H 0.92664 0.84751 0.57524 0.0
H523 H 0.95765 0.80412 0.5858 0.0
H524 H 0.72747 0.14841 0.45316 0.0
H525 H 0.75878 0.18183 0.45212 0.0
H526 H 0.79256 0.15145 0.54503 0.0
H527 H 0.76148 0.11779 0.54613 0.0
H528 H 0.76897 0.22199 0.51398 0.0
H529 H 0.85582 0.14544 0.46574 0.0
H530 H 0.82048 0.14305 0.45712 0.0
H531 H 0.83418 0.13512 0.49727 0.0
C532 C 0.74165 0.1488 0.47328 0.0
C533 C 0.7425 0.13018 0.49941 0.0
C534 C 0.7593 0.168 0.47277 0.0
C535 C 0.778 0.16882 0.49837 0.0
C536 C 0.77825 0.15095 0.52504 0.0
H537 H 0.91981 0.24438 0.52883 0.0
H538 H 0.8844 0.21551 0.52845 0.0
C539 C 0.76049 0.13185 0.52566 0.0
C540 C 0.79807 0.18761 0.49667 0.0
H541 H 0.86492 0.18943 0.47816 0.0
C542 C 0.78994 0.21504 0.50603 0.0
C543 C 0.82529 0.17824 0.48638 0.0
C544 C 0.83467 0.14888 0.47589 0.0
C545 C 0.80869 0.23337 0.50607 0.0
C546 C 0.83603 0.22402 0.49572 0.0
C547 C 0.84396 0.19657 0.48601 0.0
C548 C 0.8571 0.242 0.49601 0.0
C549 C 0.79928 0.26227 0.51821 0.0
C550 C 0.85374 0.26624 0.47744 0.0
C551 C 0.87375 0.28306 0.4782 0.0
C552 C 0.89736 0.27587 0.49753 0.0
C553 C 0.90119 0.25105 0.51497 0.0
C554 C 0.88115 0.23438 0.51441 0.0
H555 H 0.7802 0.26402 0.53299 0.0
H556 H 0.81539 0.26931 0.53332 0.0
H557 H 0.79494 0.27626 0.4969 0.0
H558 H 0.83574 0.27208 0.46225 0.0
H559 H 0.87067 0.3018 0.46394 0.0
H560 H 0.53654 0.70817 0.0539 0.0
H561 H 0.56816 0.6649 0.0431 0.0
H562 H 0.61821 0.70869 0.98343 0.0
H563 H 0.58689 0.75177 0.99454 0.0
H564 H 0.59039 0.63652 0.9835 0.0
H565 H 0.66886 0.6746 0.05948 0.0
H566 H 0.63311 0.69033 0.05991 0.0
H567 H 0.65517 0.69771 0.02732 0.0
C568 C 0.55402 0.70827 0.03794 0.0
C569 C 0.55963 0.73303 0.02517 0.0
C570 C 0.57202 0.68369 0.03185 0.0
C571 C 0.59573 0.68378 0.01298 0.0
C572 C 0.60024 0.70832 0.99848 0.0
H573 H 0.71843 0.56553 0.92385 0.0
H574 H 0.67598 0.59632 0.93839 0.0
C575 C 0.58236 0.73281 0.00465 0.0
C576 C 0.6169 0.65884 0.01026 0.0
H577 H 0.68434 0.63507 0.02684 0.0
C578 C 0.61087 0.63599 0.99324 0.0
C579 C 0.64337 0.65803 0.02369 0.0
C580 C 0.65052 0.68136 0.04392 0.0
C581 C 0.63117 0.6128 0.98783 0.0
C582 C 0.65816 0.61277 0.99939 0.0
C583 C 0.66371 0.63513 0.0178 0.0
C584 C 0.68154 0.59094 0.99075 0.0
C585 C 0.62355 0.58866 0.96965 0.0
C586 C 0.6989 0.57775 0.0153 0.0
C587 C 0.72337 0.56045 0.00698 0.0
C588 C 0.73078 0.5561 0.97399 0.0
C589 C 0.71296 0.56847 0.94946 0.0
C590 C 0.6886 0.58583 0.95775 0.0
H591 H 0.60139 0.58777 0.97253 0.0
H592 H 0.62762 0.59085 0.94314 0.0
H593 H 0.63574 0.569 0.97832 0.0
H594 H 0.69402 0.58167 0.04092 0.0
H595 H 0.73708 0.55155 0.02629 0.0
H596 H 0.81089 0.36233 0.01922 0.0
H597 H 0.78122 0.32719 0.01961 0.0
H598 H 0.71304 0.38753 0.98686 0.0
H599 H 0.74242 0.42262 0.98704 0.0
H600 H 0.70146 0.35459 0.04055 0.0
H601 H 0.75167 0.29251 0.93664 0.0
H602 H 0.77391 0.29987 0.96908 0.0
H603 H 0.75644 0.32734 0.94422 0.0
C604 C 0.78957 0.36792 0.01204 0.0
C605 C 0.779 0.39484 0.00221 0.0
C606 C 0.77275 0.34791 0.01209 0.0
C607 C 0.74513 0.35472 0.00263 0.0
C608 C 0.7344 0.38183 0.99381 0.0
H609 H 0.6226 0.25823 0.94905 0.0
H610 H 0.65746 0.28797 0.95046 0.0
C611 C 0.7512 0.40175 0.99364 0.0
C612 C 0.72707 0.33384 0.00244 0.0
H613 H 0.71542 0.27594 0.96334 0.0
C614 C 0.70455 0.3373 0.02381 0.0
C615 C 0.73108 0.31156 0.98026 0.0
C616 C 0.75444 0.30756 0.95602 0.0
C617 C 0.68582 0.31904 0.02359 0.0
C618 C 0.68997 0.29657 0.00167 0.0
C619 C 0.71248 0.29309 0.98027 0.0
C620 C 0.67054 0.27703 -1e-05 0.0
C621 C 0.66134 0.32432 0.04621 0.0
C622 C 0.66703 0.26049 0.027 0.0
C623 C 0.6472 0.24356 0.02624 0.0
C624 C 0.63051 0.24299 0.99849 0.0
C625 C 0.63502 0.25852 0.97086 0.0
C626 C 0.65486 0.27547 0.97164 0.0
H627 H 0.65796 0.34552 0.05622 0.0
H628 H 0.64242 0.321 0.0333 0.0
H629 H 0.66478 0.3098 0.06711 0.0
H630 H 0.67944 0.26091 0.0488 0.0
H631 H 0.64494 0.23098 0.0474 0.0
H632 H 0.43764 0.26939 0.98882 0.0
H633 H 0.40576 0.31167 0.97589 0.0
H634 H 0.4544 0.35815 0.03401 0.0
H635 H 0.48655 0.31567 0.04667 0.0
H636 H 0.37709 0.34305 0.02692 0.0
H637 H 0.436 0.40526 0.94981 0.0
H638 H 0.44593 0.36857 0.95442 0.0
H639 H 0.45225 0.39108 0.98691 0.0
C640 C 0.44182 0.28878 0.99806 0.0
C641 C 0.46432 0.28954 0.01867 0.0
C642 C 0.42365 0.31283 0.99079 0.0
C643 C 0.42777 0.33801 0.00395 0.0
C644 C 0.45108 0.33898 0.02326 0.0
H645 H 0.28759 0.47258 0.02108 0.0
H646 H 0.33067 0.44154 0.03383 0.0
C647 C 0.46936 0.31482 0.03049 0.0
C648 C 0.40604 0.36242 0.00022 0.0
H649 H 0.39091 0.42571 0.96475 0.0
C650 C 0.38013 0.36122 0.01352 0.0
C651 C 0.41017 0.38599 0.9827 0.0
C652 C 0.43751 0.38792 0.96738 0.0
C653 C 0.35798 0.38272 0.00917 0.0
C654 C 0.362 0.40629 0.9915 0.0
C655 C 0.38804 0.40772 0.9786 0.0
C656 C 0.33867 0.42833 0.98368 0.0
C657 C 0.33019 0.37955 0.02237 0.0
C658 C 0.32964 0.43198 0.95117 0.0
C659 C 0.3053 0.44975 0.94391 0.0
C660 C 0.28968 0.46424 0.96901 0.0
C661 C 0.29945 0.46175 0.00133 0.0
C662 C 0.32387 0.44393 0.00861 0.0
H663 H 0.32951 0.3581 0.02992 0.0
H664 H 0.32534 0.39296 0.04412 0.0
H665 H 0.31396 0.38585 0.00375 0.0
H666 H 0.34077 0.42012 0.9316 0.0
H667 H 0.29818 0.45151 0.91878 0.0
H668 H 0.22206 0.65285 0.03603 0.0
H669 H 0.25156 0.68814 0.03683 0.0
H670 H 0.30722 0.64006 0.96931 0.0
H671 H 0.27844 0.60446 0.96924 0.0
H672 H 0.31743 0.67372 0.04863 0.0
H673 H 0.27921 0.72435 0.93162 0.0
H674 H 0.25788 0.70702 0.95741 0.0
H675 H 0.28486 0.68741 0.93373 0.0
C676 C 0.24057 0.64993 0.02135 0.0
C677 C 0.24753 0.62648 0.00166 0.0
C678 C 0.2573 0.67002 0.02179 0.0
C679 C 0.28117 0.66678 0.00265 0.0
C680 C 0.28854 0.64305 0.98371 0.0
H681 H 0.40752 0.75932 0.95285 0.0
H682 H 0.37313 0.72909 0.95434 0.0
C683 C 0.27197 0.62294 0.98344 0.0
C684 C 0.29889 0.68786 0.00274 0.0
H685 H 0.31723 0.73912 0.95643 0.0
C686 C 0.3173 0.68825 0.02871 0.0
C687 C 0.2987 0.70639 0.97645 0.0
C688 C 0.27907 0.70655 0.94816 0.0
C689 C 0.33616 0.70642 0.02872 0.0
C690 C 0.33598 0.72512 0.0024 0.0
C691 C 0.31726 0.72486 0.9766 0.0
C692 C 0.35564 0.74451 0.00073 0.0
C693 C 0.35675 0.70469 0.05625 0.0
C694 C 0.35663 0.76373 0.02578 0.0
C695 C 0.37636 0.78077 0.02508 0.0
C696 C 0.39522 0.77906 0.99913 0.0
C697 C 0.3933 0.76086 0.97322 0.0
C698 C 0.37373 0.74361 0.97408 0.0
H699 H 0.35895 0.68474 0.06935 0.0
H700 H 0.37723 0.70736 0.047 0.0
H701 H 0.34974 0.72121 0.07426 0.0
H702 H 0.34229 0.76539 0.04602 0.0
H703 H 0.37688 0.79527 0.04484 0.0
H704 H 0.3193 0.07177 0.298 0.0
H705 H 0.33318 0.10616 0.26178 0.0
H706 H 0.35696 0.14982 0.3455 0.0
H707 H 0.34389 0.11497 0.38196 0.0
H708 H 0.32082 0.16274 0.25412 0.0
H709 H 0.42856 0.12914 0.29569 0.0
H710 H 0.40143 0.11065 0.30621 0.0
H711 H 0.4046 0.14179 0.32742 0.0
C712 C 0.32712 0.08888 0.30877 0.0
C713 C 0.33104 0.09039 0.34277 0.0
C714 C 0.33496 0.10857 0.28803 0.0
C715 C 0.34663 0.13017 0.30095 0.0
C716 C 0.34859 0.13291 0.33504 0.0
H717 H 0.44658 0.22725 0.19108 0.0
H718 H 0.41542 0.21603 0.23342 0.0
C719 C 0.34107 0.11303 0.3558 0.0
C720 C 0.35914 0.148 0.27853 0.0
H721 H 0.42112 0.1625 0.25464 0.0
C722 C 0.3427 0.16299 0.25442 0.0
C723 C 0.38772 0.14817 0.27896 0.0
C724 C 0.40671 0.13143 0.30324 0.0
C725 C 0.35423 0.17767 0.23023 0.0
C726 C 0.38288 0.17708 0.23012 0.0
C727 C 0.39911 0.16303 0.25499 0.0
C728 C 0.39717 0.18831 0.20285 0.0
C729 C 0.33577 0.19332 0.20474 0.0
C730 C 0.39675 0.17691 0.17143 0.0
C731 C 0.4146 0.18318 0.1472 0.0
C732 C 0.43332 0.2008 0.15413 0.0
C733 C 0.43252 0.21347 0.18502 0.0
C734 C 0.41468 0.20717 0.20923 0.0
H735 H 0.31435 0.19888 0.2138 0.0
H736 H 0.34327 0.21233 0.19735 0.0
H737 H 0.33549 0.18025 0.1827 0.0
H738 H 0.38381 0.16187 0.1662 0.0
H739 H 0.41466 0.17314 0.12362 0.0
H740 H 0.10084 0.67745 0.61742 0.0
H741 H 0.12877 0.6598 0.66481 0.0
H742 H 0.05638 0.64279 0.71396 0.0
H743 H 0.02831 0.66107 0.66746 0.0
H744 H 0.0891 0.66529 0.75509 0.0
H745 H 0.15036 0.579 0.68596 0.0
H746 H 0.15202 0.61259 0.6703 0.0
H747 H 0.1201 0.59991 0.6691 0.0
C748 C 0.09084 0.67016 0.63841 0.0
C749 C 0.06232 0.67055 0.63848 0.0
C750 C 0.10688 0.65988 0.66539 0.0
C751 C 0.09473 0.64952 0.69269 0.0
C752 C 0.06622 0.6506 0.69314 0.0
H753 H 0.15285 0.53 0.8367 0.0
H754 H 0.13553 0.55708 0.78899 0.0
C755 C 0.05019 0.66102 0.66641 0.0
C756 C 0.11142 0.63688 0.7207 0.0
H757 H 0.16026 0.58221 0.74201 0.0
C758 C 0.10485 0.64726 0.75225 0.0
C759 C 0.13178 0.61321 0.71691 0.0
C760 C 0.1389 0.60031 0.68382 0.0
C761 C 0.11739 0.63414 0.78022 0.0
C762 C 0.13763 0.61037 0.77644 0.0
C763 C 0.14485 0.60052 0.74482 0.0
C764 C 0.14969 0.59395 0.80495 0.0
C765 C 0.10777 0.64506 0.81353 0.0
C766 C 0.1639 0.60549 0.82961 0.0
C767 C 0.17359 0.5901 0.85727 0.0
C768 C 0.16962 0.56274 0.86051 0.0
C769 C 0.15626 0.551 0.83513 0.0
C770 C 0.14636 0.56646 0.80774 0.0
H771 H 0.08786 0.65937 0.81219 0.0
H772 H 0.10545 0.62806 0.83047 0.0
H773 H 0.12318 0.65643 0.82408 0.0
H774 H 0.1673 0.62646 0.82761 0.0
H775 H 0.18402 0.5997 0.87612 0.0
H776 H 0.68184 0.90793 0.38395 0.0
H777 H 0.66856 0.87334 0.34741 0.0
H778 H 0.69932 0.91302 0.26468 0.0
H779 H 0.71327 0.94719 0.30106 0.0
H780 H 0.63021 0.88753 0.3021 0.0
H781 H 0.72366 0.83367 0.24067 0.0
H782 H 0.72498 0.8536 0.27754 0.0
H783 H 0.72116 0.87019 0.23813 0.0
C784 C 0.6864 0.90888 0.35807 0.0
C785 C 0.69833 0.93044 0.34532 0.0
C786 C 0.67888 0.88905 0.33725 0.0
C787 C 0.68316 0.89043 0.30335 0.0
C788 C 0.69642 0.9111 0.29081 0.0
H789 H 0.6072 0.85377 0.12804 0.0
H790 H 0.63829 0.86494 0.17052 0.0
C791 C 0.70415 0.93081 0.31165 0.0
C792 C 0.66992 0.87327 0.28074 0.0
H793 H 0.68071 0.83352 0.21201 0.0
C794 C 0.64134 0.87519 0.28287 0.0
C795 C 0.68446 0.85735 0.25554 0.0
C796 C 0.7153 0.85335 0.25303 0.0
C797 C 0.6267 0.86288 0.25949 0.0
C798 C 0.6411 0.84788 0.23354 0.0
C799 C 0.66979 0.84505 0.23199 0.0
C800 C 0.62622 0.83718 0.20644 0.0
C801 C 0.59577 0.86731 0.26175 0.0
C802 C 0.60998 0.81709 0.21227 0.0
C803 C 0.59202 0.81081 0.18816 0.0
C804 C 0.59017 0.82444 0.15781 0.0
C805 C 0.60797 0.84308 0.15126 0.0
C806 C 0.62584 0.84941 0.17544 0.0
H807 H 0.58763 0.88343 0.27987 0.0
H808 H 0.58634 0.87326 0.23756 0.0
H809 H 0.58923 0.84791 0.26941 0.0
H810 H 0.6103 0.8072 0.23597 0.0
H811 H 0.57882 0.79611 0.19382 0.0
H812 H 0.92237 0.3415 0.62211 0.0
H813 H 0.89523 0.35821 0.67037 0.0
H814 H 0.96581 0.38544 0.71259 0.0
H815 H 0.99324 0.36805 0.66517 0.0
H816 H 0.9384 0.36125 0.75773 0.0
H817 H 0.86553 0.43808 0.68774 0.0
H818 H 0.86704 0.40323 0.67463 0.0
H819 H 0.89659 0.41954 0.66986 0.0
C820 C 0.93217 0.35087 0.64173 0.0
C821 C 0.95997 0.35355 0.63958 0.0
C822 C 0.91655 0.36059 0.66924 0.0
C823 C 0.92834 0.37356 0.69483 0.0
C824 C 0.95624 0.37558 0.69311 0.0
H825 H 0.86303 0.49399 0.83468 0.0
H826 H 0.88111 0.46646 0.78763 0.0
C827 C 0.9719 0.36565 0.66588 0.0
C828 C 0.91178 0.38569 0.72323 0.0
H829 H 0.85829 0.43588 0.74455 0.0
C830 C 0.92073 0.37742 0.75489 0.0
C831 C 0.88888 0.40695 0.71943 0.0
C832 C 0.87902 0.4177 0.68613 0.0
C833 C 0.908 0.39038 0.78285 0.0
C834 C 0.88516 0.41172 0.77904 0.0
C835 C 0.87567 0.41939 0.7474 0.0
C836 C 0.87257 0.42818 0.80727 0.0
C837 C 0.92002 0.38204 0.81606 0.0
C838 C 0.86121 0.41594 0.83379 0.0
C839 C 0.85107 0.43165 0.86108 0.0
C840 C 0.85178 0.45995 0.86207 0.0
C841 C 0.86221 0.47225 0.83487 0.0
C842 C 0.87253 0.45654 0.80785 0.0
H843 H 0.94106 0.36989 0.81417 0.0
H844 H 0.92086 0.40032 0.83156 0.0
H845 H 0.90691 0.36917 0.8286 0.0
H846 H 0.86042 0.39421 0.83355 0.0
H847 H 0.84297 0.42157 0.88148 0.0
H848 H 0.67928 0.02871 0.32488 0.0
H849 H 0.66145 0.05523 0.27685 0.0
H850 H 0.64632 0.12884 0.33546 0.0
H851 H 0.66495 0.10254 0.38355 0.0
H852 H 0.6103 0.08103 0.26991 0.0
H853 H 0.68021 0.15641 0.25497 0.0
H854 H 0.68832 0.12665 0.28105 0.0
H855 H 0.66565 0.15676 0.29525 0.0
C856 C 0.67257 0.05062 0.3275 0.0
C857 C 0.67342 0.06349 0.35811 0.0
C858 C 0.66239 0.06577 0.29998 0.0
C859 C 0.65274 0.09409 0.30242 0.0
C860 C 0.65421 0.10715 0.33276 0.0
H861 H 0.52933 0.18003 0.17194 0.0
H862 H 0.55597 0.16059 0.21924 0.0
C863 C 0.6647 0.09204 0.3603 0.0
C864 C 0.63883 0.1092 0.27396 0.0
H865 H 0.63836 0.16492 0.22435 0.0
C866 C 0.61658 0.09928 0.25986 0.0
C867 C 0.64716 0.13287 0.26063 0.0
C868 C 0.67182 0.14367 0.27353 0.0
C869 C 0.60223 0.11247 0.23312 0.0
C870 C 0.60981 0.13678 0.22064 0.0
C871 C 0.63235 0.14651 0.23429 0.0
C872 C 0.59457 0.15201 0.19317 0.0
C873 C 0.57936 0.09992 0.21816 0.0
C874 C 0.60775 0.15508 0.16328 0.0
C875 C 0.59261 0.16655 0.13619 0.0
C876 C 0.56402 0.17501 0.13858 0.0
C877 C 0.55123 0.17333 0.16911 0.0
C878 C 0.5664 0.16213 0.19617 0.0
H879 H 0.58123 0.07783 0.22445 0.0
H880 H 0.55938 0.11066 0.22773 0.0
H881 H 0.57916 0.10197 0.19107 0.0
H882 H 0.62953 0.14757 0.16054 0.0
H883 H 0.60309 0.16767 0.11307 0.0
H884 H 0.08998 0.37422 0.63692 0.0
H885 H 0.12224 0.38454 0.67802 0.0
H886 H 0.13642 0.2999 0.70929 0.0
H887 H 0.10248 0.28993 0.66933 0.0
H888 H 0.12945 0.32883 0.75954 0.0
H889 H 0.20198 0.37506 0.68583 0.0
H890 H 0.16843 0.39325 0.67651 0.0
H891 H 0.17724 0.35711 0.66698 0.0
C892 C 0.10035 0.35769 0.65215 0.0
C893 C 0.09378 0.33128 0.64999 0.0
C894 C 0.11908 0.36354 0.67547 0.0
C895 C 0.13244 0.34288 0.69634 0.0
C896 C 0.12656 0.31618 0.69339 0.0
H897 H 0.23319 0.42062 0.83173 0.0
H898 H 0.22318 0.38657 0.79194 0.0
C899 C 0.1072 0.31048 0.67058 0.0
C900 C 0.14985 0.35016 0.72351 0.0
H901 H 0.19417 0.39355 0.74188 0.0
C902 C 0.14417 0.3424 0.75555 0.0
C903 C 0.16989 0.36702 0.71865 0.0
C904 C 0.17992 0.37323 0.68503 0.0
C905 C 0.15603 0.35307 0.78278 0.0
C906 C 0.17289 0.37311 0.77792 0.0
C907 C 0.18061 0.37883 0.74588 0.0
C908 C 0.18023 0.39048 0.8051 0.0
C909 C 0.14987 0.343 0.81639 0.0
C910 C 0.15962 0.40381 0.82607 0.0
C911 C 0.1655 0.42259 0.84931 0.0
C912 C 0.19189 0.42925 0.85127 0.0
C913 C 0.21265 0.41583 0.83062 0.0
C914 C 0.20693 0.39641 0.80791 0.0
H915 H 0.14806 0.32094 0.81555 0.0
H916 H 0.16601 0.34567 0.83442 0.0
H917 H 0.12985 0.35446 0.82496 0.0
H918 H 0.13862 0.4006 0.82363 0.0
H919 H 0.14901 0.43296 0.8646 0.0
H920 H 0.3615 0.99098 0.32972 0.0
H921 H 0.37782 0.96219 0.28308 0.0
H922 H 0.35635 0.89175 0.33236 0.0
H923 H 0.34055 0.92043 0.37989 0.0
H924 H 0.40677 0.88026 0.3075 0.0
H925 H 0.33764 0.93067 0.21131 0.0
H926 H 0.35421 0.9553 0.23193 0.0
H927 H 0.33122 0.93748 0.2543 0.0
C928 C 0.3599 0.96944 0.33063 0.0
C929 C 0.34967 0.95804 0.35863 0.0
C930 C 0.36905 0.95301 0.30372 0.0
C931 C 0.3678 0.9249 0.30387 0.0
C932 C 0.35729 0.91345 0.33159 0.0
H933 H 0.42144 0.83909 0.12024 0.0
H934 H 0.39309 0.85464 0.16807 0.0
C935 C 0.34826 0.92988 0.35872 0.0
C936 C 0.3795 0.90737 0.27605 0.0
H937 H 0.38103 0.90483 0.19253 0.0
C938 C 0.40079 0.88531 0.28238 0.0
C939 C 0.37134 0.91348 0.24327 0.0
C940 C 0.34713 0.93534 0.23485 0.0
C941 C 0.4153 0.8704 0.25677 0.0
C942 C 0.40883 0.87824 0.22396 0.0
C943 C 0.38635 0.89908 0.21765 0.0
C944 C 0.42628 0.86662 0.19603 0.0
C945 C 0.43763 0.84661 0.26521 0.0
C946 C 0.45432 0.86823 0.19577 0.0
C947 C 0.47058 0.85918 0.16868 0.0
C948 C 0.45907 0.84873 0.14091 0.0
C949 C 0.43098 0.84698 0.14122 0.0
C950 C 0.41474 0.85587 0.16853 0.0
H951 H 0.43332 0.83715 0.28889 0.0
H952 H 0.43998 0.83058 0.2459 0.0
H953 H 0.45739 0.85415 0.26785 0.0
H954 H 0.46356 0.87721 0.21622 0.0
H955 H 0.49207 0.86106 0.16925 0.0
H956 H 0.94999 0.70453 0.7001 0.0
H957 H 0.91606 0.69054 0.73694 0.0
H958 H 0.87122 0.66717 0.65401 0.0
H959 H 0.90558 0.68036 0.61692 0.0
H960 H 0.85947 0.70292 0.74565 0.0
H961 H 0.89268 0.59535 0.7033 0.0
H962 H 0.91104 0.62252 0.69255 0.0
H963 H 0.87964 0.61944 0.67186 0.0
C964 C 0.93271 0.69678 0.68964 0.0
C965 C 0.93073 0.69301 0.65566 0.0
C966 C 0.91329 0.68888 0.71073 0.0
C967 C 0.89149 0.67729 0.6982 0.0
C968 C 0.88827 0.67549 0.66417 0.0
H969 H 0.79605 0.57682 0.80987 0.0
H970 H 0.80679 0.60797 0.76724 0.0
C971 C 0.90788 0.68308 0.64304 0.0
C972 C 0.87397 0.66469 0.72093 0.0
H973 H 0.85991 0.6026 0.74503 0.0
C974 C 0.85926 0.68104 0.74533 0.0
C975 C 0.87384 0.63611 0.72048 0.0
C976 C 0.8903 0.61723 0.69586 0.0
C977 C 0.84491 0.66941 0.76978 0.0
C978 C 0.84557 0.64075 0.76986 0.0
C979 C 0.85932 0.62462 0.74472 0.0
C980 C 0.8347 0.62636 0.79733 0.0
C981 C 0.82953 0.68779 0.79554 0.0
C982 C 0.8464 0.62686 0.82858 0.0
C983 C 0.84039 0.60903 0.85298 0.0
C984 C 0.82276 0.59025 0.8464 0.0
C985 C 0.80984 0.59094 0.81567 0.0
C986 C 0.81587 0.60877 0.79129 0.0
H987 H 0.82374 0.70919 0.78654 0.0
H988 H 0.81068 0.68019 0.80334 0.0
H989 H 0.84291 0.68813 0.8173 0.0
H990 H 0.86143 0.63986 0.83356 0.0
H991 H 0.85064 0.60905 0.87643 0.0
loop_
_geom_bond_atom_site_label_1
_geom_bond_atom_site_label_2
_geom_bond_distance
_geom_bond_site_symmetry_2
_ccdc_geom_bond_type
Co0 O3 1.970 1_545 S
Co0 N17 1.989 . S
Co0 O25 1.967 . S
Co0 O32 1.920 . S
Co1 O4 1.966 . S
Co1 N10 2.022 . S
Co1 N18 1.993 1_565 S
Co1 O26 1.941 . S
C2 O3 1.258 . S
C2 O4 1.263 . S
O3 Co0 1.970 1_565 S
O3 C2 1.258 . S
O4 Co1 1.966 . S
O4 C2 1.263 . S
C5 O6 1.235 . S
C5 O32 1.289 . S
O6 C5 1.235 . S
C7 C9 1.400 . S
C7 N10 1.351 . S
C7 C12 1.501 . S
C8 C9 1.387 . S
C8 N11 1.341 . S
C9 C7 1.400 . S
C9 C8 1.387 . S
N10 Co1 2.022 . S
N10 C7 1.351 . S
N10 N11 1.365 . S
N11 C8 1.341 . S
N11 N10 1.365 . S
N11 H31 0.862 . S
C12 C7 1.501 . S
C12 H13 0.961 . S
C12 H14 0.961 . S
C12 H15 0.960 . S
H13 C12 0.961 . S
H14 C12 0.961 . S
H15 C12 0.960 . S
C16 N17 1.342 . S
C16 C20 1.401 . S
C16 C21 1.499 . S
N17 Co0 1.989 . S
N17 C16 1.342 . S
N17 N18 1.388 . S
N18 Co1 1.993 1_545 S
N18 N17 1.388 . S
N18 C19 1.346 . S
C19 N18 1.346 . S
C19 C20 1.396 . S
C19 C29 1.510 . S
C20 C16 1.401 . S
C20 C19 1.396 . S
C21 C16 1.499 . S
C21 H22 0.959 . S
C21 H23 0.960 . S
C21 H24 0.961 . S
H22 C21 0.959 . S
H23 C21 0.960 . S
H24 C21 0.961 . S
O25 Co0 1.967 . S
O25 C33 1.257 . S
O26 Co1 1.941 . S
O26 C33 1.267 1_565 S
H27 C29 0.959 . S
H28 C29 0.961 . S
C29 C19 1.510 . S
C29 H27 0.959 . S
C29 H28 0.961 . S
C29 H30 0.960 1_545 S
H30 C29 0.960 1_565 S
H31 N11 0.862 . S
O32 Co0 1.920 . S
O32 C5 1.289 . S
C33 O25 1.257 . S
C33 O26 1.267 1_545 S
Co34 O37 1.970 1_655 S
Co34 N51 1.989 . S
Co34 O59 1.967 1_655 S
Co34 O66 1.920 . S
Co35 O38 1.966 . S
Co35 N44 2.022 . S
Co35 N52 1.993 . S
Co35 O60 1.941 . S
C36 O37 1.258 . S
C36 O38 1.263 . S
O37 Co34 1.970 1_455 S
O37 C36 1.258 . S
O38 Co35 1.966 . S
O38 C36 1.263 . S
C39 O40 1.235 . S
C39 O66 1.289 . S
O40 C39 1.235 . S
C41 C43 1.400 . S
C41 N44 1.351 . S
C41 C46 1.501 . S
C42 C43 1.387 . S
C42 N45 1.341 . S
C43 C41 1.400 . S
C43 C42 1.387 . S
N44 Co35 2.022 . S
N44 C41 1.351 . S
N44 N45 1.365 . S
N45 C42 1.341 . S
N45 N44 1.365 . S
N45 H65 0.862 . S
C46 C41 1.501 . S
C46 H47 0.961 . S
C46 H48 0.961 . S
C46 H49 0.960 . S
H47 C46 0.961 . S
H48 C46 0.961 . S
H49 C46 0.960 . S
C50 N51 1.342 . S
C50 C54 1.401 . S
C50 C55 1.499 . S
N51 Co34 1.989 . S
N51 C50 1.342 . S
N51 N52 1.388 1_655 S
N52 Co35 1.993 . S
N52 N51 1.388 1_455 S
N52 C53 1.346 1_455 S
C53 N52 1.346 1_655 S
C53 C54 1.396 . S
C53 C63 1.510 1_655 S
C54 C50 1.401 . S
C54 C53 1.396 . S
C55 C50 1.499 . S
C55 H56 0.959 . S
C55 H57 0.960 . S
C55 H58 0.961 . S
H56 C55 0.959 . S
H57 C55 0.960 . S
H58 C55 0.961 . S
O59 Co34 1.967 1_455 S
O59 C67 1.258 . S
O60 Co35 1.941 . S
O60 C67 1.266 . S
H61 C63 0.962 . S
H62 C63 0.961 . S
C63 C53 1.510 1_455 S
C63 H61 0.962 . S
C63 H62 0.961 . S
C63 H64 0.960 . S
H64 C63 0.960 . S
H65 N45 0.862 . S
O66 Co34 1.920 . S
O66 C39 1.289 . S
C67 O59 1.258 . S
C67 O60 1.266 . S
Co68 O71 1.970 1_565 S
Co68 N85 1.989 . S
Co68 O93 1.967 1_565 S
Co68 O100 1.920 . S
Co69 O72 1.966 . S
Co69 N78 2.022 . S
Co69 N86 1.993 . S
Co69 O94 1.941 . S
C70 O71 1.258 . S
C70 O72 1.263 . S
O71 Co68 1.970 1_545 S
O71 C70 1.258 . S
O72 Co69 1.966 . S
O72 C70 1.263 . S
C73 O74 1.235 . S
C73 O100 1.289 . S
O74 C73 1.235 . S
C75 C77 1.400 . S
C75 N78 1.351 . S
C75 C80 1.501 . S
C76 C77 1.387 . S
C76 N79 1.341 . S
C77 C75 1.400 . S
C77 C76 1.387 . S
N78 Co69 2.022 . S
N78 C75 1.351 . S
N78 N79 1.365 . S
N79 C76 1.341 . S
N79 N78 1.365 . S
N79 H99 0.862 . S
C80 C75 1.501 . S
C80 H81 0.961 . S
C80 H82 0.961 . S
C80 H83 0.960 . S
H81 C80 0.961 . S
H82 C80 0.961 . S
H83 C80 0.960 . S
C84 N85 1.342 . S
C84 C88 1.401 . S
C84 C89 1.499 . S
N85 Co68 1.989 . S
N85 C84 1.342 . S
N85 N86 1.388 1_565 S
N86 Co69 1.993 . S
N86 N85 1.388 1_545 S
N86 C87 1.346 1_545 S
C87 N86 1.346 1_565 S
C87 C88 1.396 . S
C87 C97 1.510 1_565 S
C88 C84 1.401 . S
C88 C87 1.396 . S
C89 C84 1.499 . S
C89 H90 0.959 . S
C89 H91 0.960 . S
C89 H92 0.961 . S
H90 C89 0.959 . S
H91 C89 0.960 . S
H92 C89 0.961 . S
O93 Co68 1.967 1_545 S
O93 C101 1.258 . S
O94 Co69 1.941 . S
O94 C101 1.266 . S
H95 C97 0.962 . S
H96 C97 0.961 . S
C97 C87 1.510 1_545 S
C97 H95 0.962 . S
C97 H96 0.961 . S
C97 H98 0.960 . S
H98 C97 0.960 . S
H99 N79 0.862 . S
O100 Co68 1.920 . S
O100 C73 1.289 . S
C101 O93 1.258 . S
C101 O94 1.266 . S
Co102 O105 1.970 1_455 S
Co102 N119 1.989 . S
Co102 O127 1.967 . S
Co102 O134 1.920 . S
Co103 O106 1.966 . S
Co103 N112 2.022 . S
Co103 N120 1.993 1_655 S
Co103 O128 1.941 . S
C104 O105 1.258 . S
C104 O106 1.263 . S
O105 Co102 1.970 1_655 S
O105 C104 1.258 . S
O106 Co103 1.966 . S
O106 C104 1.263 . S
C107 O108 1.235 . S
C107 O134 1.289 . S
O108 C107 1.235 . S
C109 C111 1.400 . S
C109 N112 1.351 . S
C109 C114 1.501 . S
C110 C111 1.387 . S
C110 N113 1.341 . S
C111 C109 1.400 . S
C111 C110 1.387 . S
N112 Co103 2.022 . S
N112 C109 1.351 . S
N112 N113 1.365 . S
N113 C110 1.341 . S
N113 N112 1.365 . S
N113 H133 0.862 . S
C114 C109 1.501 . S
C114 H115 0.961 . S
C114 H116 0.961 . S
C114 H117 0.960 . S
H115 C114 0.961 . S
H116 C114 0.961 . S
H117 C114 0.960 . S
C118 N119 1.342 . S
C118 C122 1.401 . S
C118 C123 1.499 . S
N119 Co102 1.989 . S
N119 C118 1.342 . S
N119 N120 1.388 . S
N120 Co103 1.993 1_455 S
N120 N119 1.388 . S
N120 C121 1.346 . S
C121 N120 1.346 . S
C121 C122 1.396 . S
C121 C131 1.510 . S
C122 C118 1.401 . S
C122 C121 1.396 . S
C123 C118 1.499 . S
C123 H124 0.959 . S
C123 H125 0.960 . S
C123 H126 0.961 . S
H124 C123 0.959 . S
H125 C123 0.960 . S
H126 C123 0.961 . S
O127 Co102 1.967 . S
O127 C135 1.258 . S
O128 Co103 1.941 . S
O128 C135 1.267 1_655 S
H129 C131 0.959 . S
H130 C131 0.961 . S
C131 C121 1.510 . S
C131 H129 0.959 . S
C131 H130 0.961 . S
C131 H132 0.960 1_455 S
H132 C131 0.960 1_655 S
H133 N113 0.862 . S
O134 Co102 1.920 . S
O134 C107 1.289 . S
C135 O127 1.258 . S
C135 O128 1.267 1_455 S
Co136 O139 1.970 . S
Co136 N153 1.989 . S
Co136 O161 1.967 . S
Co136 O168 1.920 . S
Co137 O140 1.966 . S
Co137 N146 2.022 . S
Co137 N154 1.993 . S
Co137 O162 1.941 . S
C138 O139 1.258 . S
C138 O140 1.263 . S
O139 Co136 1.970 . S
O139 C138 1.258 . S
O140 Co137 1.966 . S
O140 C138 1.263 . S
C141 O142 1.235 . S
C141 O168 1.289 . S
O142 C141 1.235 . S
C143 C145 1.400 . S
C143 N146 1.351 . S
C143 C148 1.501 . S
C144 C145 1.387 1_554 S
C144 N147 1.341 . S
C145 C143 1.400 . S
C145 C144 1.387 1_556 S
N146 Co137 2.022 . S
N146 C143 1.351 . S
N146 N147 1.365 1_556 S
N147 C144 1.341 . S
N147 N146 1.365 1_554 S
N147 H167 0.862 . S
C148 C143 1.501 . S
C148 H149 0.961 . S
C148 H150 0.961 . S
C148 H151 0.960 . S
H149 C148 0.961 . S
H150 C148 0.961 . S
H151 C148 0.960 . S
C152 N153 1.342 . S
C152 C156 1.401 . S
C152 C157 1.499 . S
N153 Co136 1.989 . S
N153 C152 1.342 . S
N153 N154 1.388 . S
N154 Co137 1.993 . S
N154 N153 1.388 . S
N154 C155 1.346 . S
C155 N154 1.346 . S
C155 C156 1.396 . S
C155 C165 1.510 . S
C156 C152 1.401 . S
C156 C155 1.396 . S
C157 C152 1.499 . S
C157 H158 0.959 . S
C157 H159 0.960 . S
C157 H160 0.961 . S
H158 C157 0.959 . S
H159 C157 0.960 . S
H160 C157 0.961 . S
O161 Co136 1.967 . S
O161 C169 1.258 . S
O162 Co137 1.941 . S
O162 C169 1.266 . S
H163 C165 0.959 1_554 S
H164 C165 0.961 . S
C165 C155 1.510 . S
C165 H163 0.959 1_556 S
C165 H164 0.961 . S
C165 H166 0.960 . S
H166 C165 0.960 . S
H167 N147 0.862 . S
O168 Co136 1.920 . S
O168 C141 1.289 . S
C169 O161 1.258 . S
C169 O162 1.266 . S
Co170 O173 1.970 . S
Co170 N187 1.989 . S
Co170 O195 1.967 . S
Co170 O202 1.920 . S
Co171 O174 1.966 . S
Co171 N180 2.022 . S
Co171 N188 1.993 . S
Co171 O196 1.941 . S
C172 O173 1.258 . S
C172 O174 1.263 . S
O173 Co170 1.970 . S
O173 C172 1.258 . S
O174 Co171 1.966 . S
O174 C172 1.263 . S
C175 O176 1.235 . S
C175 O202 1.289 . S
O176 C175 1.235 . S
C177 C179 1.400 . S
C177 N180 1.351 . S
C177 C182 1.501 . S
C178 C179 1.387 1_556 S
C178 N181 1.341 . S
C179 C177 1.400 . S
C179 C178 1.387 1_554 S
N180 Co171 2.022 . S
N180 C177 1.351 . S
N180 N181 1.365 1_554 S
N181 C178 1.341 . S
N181 N180 1.365 1_556 S
N181 H201 0.862 . S
C182 C177 1.501 . S
C182 H183 0.961 . S
C182 H184 0.961 . S
C182 H185 0.960 . S
H183 C182 0.961 . S
H184 C182 0.961 . S
H185 C182 0.960 . S
C186 N187 1.342 . S
C186 C190 1.401 . S
C186 C191 1.499 . S
N187 Co170 1.989 . S
N187 C186 1.342 . S
N187 N188 1.388 . S
N188 Co171 1.993 . S
N188 N187 1.388 . S
N188 C189 1.346 . S
C189 N188 1.346 . S
C189 C190 1.396 . S
C189 C199 1.510 . S
C190 C186 1.401 . S
C190 C189 1.396 . S
C191 C186 1.499 . S
C191 H192 0.959 . S
C191 H193 0.960 . S
C191 H194 0.961 . S
H192 C191 0.959 . S
H193 C191 0.960 . S
H194 C191 0.961 . S
O195 Co170 1.967 . S
O195 C203 1.258 . S
O196 Co171 1.941 . S
O196 C203 1.266 . S
H197 C199 0.959 1_556 S
H198 C199 0.961 . S
C199 C189 1.510 . S
C199 H197 0.959 1_554 S
C199 H198 0.961 . S
C199 H200 0.960 . S
H200 C199 0.960 . S
H201 N181 0.862 . S
O202 Co170 1.920 . S
O202 C175 1.289 . S
C203 O195 1.258 . S
C203 O196 1.266 . S
Co204 O207 1.970 . S
Co204 N221 1.989 . S
Co204 O229 1.967 . S
Co204 O236 1.920 . S
Co205 O208 1.966 . S
Co205 N214 2.022 . S
Co205 N222 1.993 . S
Co205 O230 1.941 . S
C206 O207 1.258 . S
C206 O208 1.263 . S
O207 Co204 1.970 . S
O207 C206 1.258 . S
O208 Co205 1.966 . S
O208 C206 1.263 . S
C209 O210 1.235 . S
C209 O236 1.289 . S
O210 C209 1.235 . S
C211 C213 1.400 . S
C211 N214 1.351 . S
C211 C216 1.501 . S
C212 C213 1.387 1_554 S
C212 N215 1.341 . S
C213 C211 1.400 . S
C213 C212 1.387 1_556 S
N214 Co205 2.022 . S
N214 C211 1.351 . S
N214 N215 1.365 1_556 S
N215 C212 1.341 . S
N215 N214 1.365 1_554 S
N215 H235 0.862 . S
C216 C211 1.501 . S
C216 H217 0.961 . S
C216 H218 0.961 . S
C216 H219 0.960 . S
H217 C216 0.961 . S
H218 C216 0.961 . S
H219 C216 0.960 . S
C220 N221 1.342 . S
C220 C224 1.401 . S
C220 C225 1.499 . S
N221 Co204 1.989 . S
N221 C220 1.342 . S
N221 N222 1.388 . S
N222 Co205 1.993 . S
N222 N221 1.388 . S
N222 C223 1.346 . S
C223 N222 1.346 . S
C223 C224 1.396 . S
C223 C233 1.510 . S
C224 C220 1.401 . S
C224 C223 1.396 . S
C225 C220 1.499 . S
C225 H226 0.959 . S
C225 H227 0.960 . S
C225 H228 0.961 . S
H226 C225 0.959 . S
H227 C225 0.960 . S
H228 C225 0.961 . S
O229 Co204 1.967 . S
O229 C237 1.258 . S
O230 Co205 1.941 . S
O230 C237 1.266 . S
H231 C233 0.959 1_554 S
H232 C233 0.961 . S
C233 C223 1.510 . S
C233 H231 0.959 1_556 S
C233 H232 0.961 . S
C233 H234 0.960 . S
H234 C233 0.960 . S
H235 N215 0.862 . S
O236 Co204 1.920 . S
O236 C209 1.289 . S
C237 O229 1.258 . S
C237 O230 1.266 . S
Co238 O241 1.970 . S
Co238 N255 1.989 . S
Co238 O263 1.967 . S
Co238 O270 1.920 . S
Co239 O242 1.966 . S
Co239 N248 2.022 . S
Co239 N256 1.993 . S
Co239 O264 1.941 . S
C240 O241 1.258 . S
C240 O242 1.263 . S
O241 Co238 1.970 . S
O241 C240 1.258 . S
O242 Co239 1.966 . S
O242 C240 1.263 . S
C243 O244 1.235 . S
C243 O270 1.289 . S
O244 C243 1.235 . S
C245 C247 1.400 . S
C245 N248 1.351 . S
C245 C250 1.501 . S
C246 C247 1.387 1_556 S
C246 N249 1.341 . S
C247 C245 1.400 . S
C247 C246 1.387 1_554 S
N248 Co239 2.022 . S
N248 C245 1.351 . S
N248 N249 1.365 1_554 S
N249 C246 1.341 . S
N249 N248 1.365 1_556 S
N249 H269 0.862 . S
C250 C245 1.501 . S
C250 H251 0.961 . S
C250 H252 0.961 . S
C250 H253 0.960 . S
H251 C250 0.961 . S
H252 C250 0.961 . S
H253 C250 0.960 . S
C254 N255 1.342 . S
C254 C258 1.401 . S
C254 C259 1.499 . S
N255 Co238 1.989 . S
N255 C254 1.342 . S
N255 N256 1.388 . S
N256 Co239 1.993 . S
N256 N255 1.388 . S
N256 C257 1.346 . S
C257 N256 1.346 . S
C257 C258 1.396 . S
C257 C267 1.510 . S
C258 C254 1.401 . S
C258 C257 1.396 . S
C259 C254 1.499 . S
C259 H260 0.959 . S
C259 H261 0.960 . S
C259 H262 0.961 . S
H260 C259 0.959 . S
H261 C259 0.960 . S
H262 C259 0.961 . S
O263 Co238 1.967 . S
O263 C271 1.258 . S
O264 Co239 1.941 . S
O264 C271 1.266 . S
H265 C267 0.959 1_556 S
H266 C267 0.961 . S
C267 C257 1.510 . S
C267 H265 0.959 1_554 S
C267 H266 0.961 . S
C267 H268 0.960 . S
H268 C267 0.960 . S
H269 N249 0.862 . S
O270 Co238 1.920 . S
O270 C243 1.289 . S
C271 O263 1.258 . S
C271 O264 1.266 . S
H272 C280 0.929 . S
H273 C282 0.930 . S
H274 C284 0.930 . S
H275 C287 0.929 . S
H276 C290 0.930 . S
H277 C292 0.960 . S
H278 C292 0.960 . S
H279 C292 0.960 . S
C280 H272 0.929 . S
C280 C281 1.377 . S
C280 C282 1.384 . S
C281 C280 1.377 . S
C281 C287 1.390 . S
C282 H273 0.930 . S
C282 C280 1.384 . S
C282 C283 1.372 . S
C283 C282 1.372 . S
C283 C284 1.400 . S
C283 C288 1.490 . S
C284 H274 0.930 . S
C284 C283 1.400 . S
C284 C287 1.386 . S
H285 C301 0.930 . S
H286 C302 0.931 . S
C287 H275 0.929 . S
C287 C281 1.390 . S
C287 C284 1.386 . S
C288 C283 1.490 . S
C288 C290 1.395 1_545 S
C288 C291 1.403 . S
H289 C295 0.930 . S
C290 H276 0.930 . S
C290 C288 1.395 1_565 S
C290 C293 1.403 . S
C291 C288 1.403 . S
C291 C292 1.524 . S
C291 C295 1.400 . S
C292 H277 0.960 . S
C292 H278 0.960 . S
C292 H279 0.960 . S
C292 C291 1.524 . S
C293 C290 1.403 . S
C293 C294 1.392 1_565 S
C293 C297 1.495 . S
C294 C293 1.392 1_545 S
C294 C295 1.385 . S
C294 C296 1.490 . S
C295 H289 0.930 . S
C295 C291 1.400 . S
C295 C294 1.385 . S
C296 C294 1.490 . S
C296 C298 1.383 . S
C296 C302 1.372 1_545 S
C297 C293 1.495 . S
C297 H303 0.959 . S
C297 H304 0.961 . S
C297 H305 0.960 . S
C298 C296 1.383 . S
C298 C299 1.394 . S
C298 H306 0.930 . S
C299 C298 1.394 . S
C299 C300 1.383 1_545 S
C299 H307 0.929 . S
C300 C299 1.383 1_565 S
C300 C301 1.377 . S
C301 H285 0.930 . S
C301 C300 1.377 . S
C301 C302 1.379 . S
C302 H286 0.931 . S
C302 C296 1.372 1_565 S
C302 C301 1.379 . S
H303 C297 0.959 . S
H304 C297 0.961 . S
H305 C297 0.960 . S
H306 C298 0.930 . S
H307 C299 0.929 . S
H308 C316 0.929 . S
H309 C318 0.952 . S
H310 C320 0.930 . S
H311 C323 0.929 . S
H312 C326 0.930 . S
H313 C328 0.960 . S
H314 C328 0.960 . S
H315 C328 0.960 . S
C316 H308 0.929 . S
C316 C317 1.377 . S
C316 C318 1.384 . S
C317 C316 1.377 . S
C317 C323 1.390 . S
C318 H309 0.952 . S
C318 C316 1.384 . S
C318 C319 1.372 . S
C319 C318 1.372 . S
C319 C320 1.400 . S
C319 C324 1.490 . S
C320 H310 0.930 . S
C320 C319 1.400 . S
C320 C323 1.386 . S
H321 C337 0.930 . S
H322 C338 0.931 . S
C323 H311 0.929 . S
C323 C317 1.390 . S
C323 C320 1.386 . S
C324 C319 1.490 . S
C324 C326 1.395 1_455 S
C324 C327 1.403 . S
H325 C331 0.930 . S
C326 H312 0.930 . S
C326 C324 1.395 1_655 S
C326 C329 1.403 . S
C327 C324 1.403 . S
C327 C328 1.524 . S
C327 C331 1.400 . S
C328 H313 0.960 . S
C328 H314 0.960 . S
C328 H315 0.960 . S
C328 C327 1.524 . S
C329 C326 1.403 . S
C329 C330 1.392 1_655 S
C329 C333 1.495 . S
C330 C329 1.392 1_455 S
C330 C331 1.385 . S
C330 C332 1.478 1_455 S
C331 H325 0.930 . S
C331 C327 1.400 . S
C331 C330 1.385 . S
C332 C330 1.478 1_655 S
C332 C334 1.381 . S
C332 C338 1.383 1_655 S
C333 C329 1.495 . S
C333 H339 0.959 . S
C333 H340 0.961 . S
C333 H341 0.960 . S
C334 C332 1.381 . S
C334 C335 1.394 . S
C334 H342 0.930 . S
C335 C334 1.394 . S
C335 C336 1.383 . S
C335 H343 0.929 . S
C336 C335 1.383 . S
C336 C337 1.377 1_655 S
C337 H321 0.930 . S
C337 C336 1.377 1_455 S
C337 C338 1.379 . S
C338 H322 0.931 . S
C338 C332 1.383 1_455 S
C338 C337 1.379 . S
H339 C333 0.959 . S
H340 C333 0.961 . S
H341 C333 0.960 . S
H342 C334 0.930 . S
H343 C335 0.929 . S
H344 C352 0.929 1_554 S
H345 C354 0.930 1_554 S
H346 C356 0.930 . S
H347 C359 0.929 . S
H348 C362 0.930 1_655 S
H349 C364 0.960 . S
H350 C364 0.960 . S
H351 C364 0.960 . S
C352 H344 0.929 1_556 S
C352 C353 1.377 . S
C352 C354 1.384 . S
C353 C352 1.377 . S
C353 C359 1.390 . S
C354 H345 0.930 1_556 S
C354 C352 1.384 . S
C354 C355 1.372 . S
C355 C354 1.372 . S
C355 C356 1.400 . S
C355 C360 1.490 . S
C356 H346 0.930 . S
C356 C355 1.400 . S
C356 C359 1.386 . S
H357 C373 0.930 . S
H358 C374 0.931 . S
C359 H347 0.929 . S
C359 C353 1.390 . S
C359 C356 1.386 . S
C360 C355 1.490 . S
C360 C362 1.395 1_655 S
C360 C363 1.403 . S
H361 C367 0.930 . S
C362 H348 0.930 1_455 S
C362 C360 1.395 1_455 S
C362 C365 1.403 . S
C363 C360 1.403 . S
C363 C364 1.524 . S
C363 C367 1.400 1_655 S
C364 H349 0.960 . S
C364 H350 0.960 . S
C364 H351 0.960 . S
C364 C363 1.524 . S
C365 C362 1.403 . S
C365 C366 1.392 . S
C365 C369 1.495 . S
C366 C365 1.392 . S
C366 C367 1.385 . S
C366 C368 1.478 . S
C367 H361 0.930 . S
C367 C363 1.400 1_455 S
C367 C366 1.385 . S
C368 C366 1.478 . S
C368 C370 1.381 . S
C368 C374 1.383 . S
C369 C365 1.495 . S
C369 H375 0.959 . S
C369 H376 0.961 . S
C369 H377 0.960 . S
C370 C368 1.381 . S
C370 C371 1.394 . S
C370 H378 0.930 1_556 S
C371 C370 1.394 . S
C371 C372 1.383 . S
C371 H379 0.929 1_556 S
C372 C371 1.383 . S
C372 C373 1.377 . S
C373 H357 0.930 . S
C373 C372 1.377 . S
C373 C374 1.379 . S
C374 H358 0.931 . S
C374 C368 1.383 . S
C374 C373 1.379 . S
H375 C369 0.959 . S
H376 C369 0.961 . S
H377 C369 0.960 . S
H378 C370 0.930 1_554 S
H379 C371 0.929 1_554 S
H380 C388 0.929 1_556 S
H381 C390 0.930 1_556 S
H382 C392 0.930 . S
H383 C395 0.929 . S
H384 C398 0.943 . S
H385 C400 0.960 . S
H386 C400 0.960 . S
H387 C400 0.960 . S
C388 H380 0.929 1_554 S
C388 C389 1.377 . S
C388 C390 1.384 . S
C389 C388 1.377 . S
C389 C395 1.390 . S
C390 H381 0.930 1_554 S
C390 C388 1.384 . S
C390 C391 1.372 . S
C391 C390 1.372 . S
C391 C392 1.400 . S
C391 C396 1.490 . S
C392 H382 0.930 . S
C392 C391 1.400 . S
C392 C395 1.386 . S
H393 C409 0.930 . S
H394 C410 0.931 . S
C395 H383 0.929 . S
C395 C389 1.390 . S
C395 C392 1.386 . S
C396 C391 1.490 . S
C396 C398 1.406 1_554 S
C396 C399 1.403 . S
H397 C403 0.930 . S
C398 H384 0.943 . S
C398 C396 1.406 1_556 S
C398 C401 1.380 1_565 S
C399 C396 1.403 . S
C399 C400 1.524 . S
C399 C403 1.400 1_565 S
C400 H385 0.960 . S
C400 H386 0.960 . S
C400 H387 0.960 . S
C400 C399 1.524 . S
C401 C398 1.380 1_545 S
C401 C402 1.392 1_556 S
C401 C405 1.495 . S
C402 C401 1.392 1_554 S
C402 C403 1.385 . S
C402 C404 1.478 . S
C403 H397 0.930 . S
C403 C399 1.400 1_545 S
C403 C402 1.385 . S
C404 C402 1.478 . S
C404 C406 1.381 . S
C404 C410 1.383 . S
C405 C401 1.495 . S
C405 H411 0.959 . S
C405 H412 0.961 . S
C405 H413 0.960 . S
C406 C404 1.381 . S
C406 C407 1.394 . S
C406 H414 0.930 1_554 S
C407 C406 1.394 . S
C407 C408 1.383 . S
C407 H415 0.929 1_554 S
C408 C407 1.383 . S
C408 C409 1.377 . S
C409 H393 0.930 . S
C409 C408 1.377 . S
C409 C410 1.379 . S
C410 H394 0.931 . S
C410 C404 1.383 . S
C410 C409 1.379 . S
H411 C405 0.959 . S
H412 C405 0.961 . S
H413 C405 0.960 . S
H414 C406 0.930 1_556 S
H415 C407 0.929 1_556 S
H416 C424 0.929 . S
H417 C426 0.930 . S
H418 C428 0.930 . S
H419 C431 0.929 . S
H420 C434 0.930 . S
H421 C436 0.960 . S
H422 C436 0.960 . S
H423 C436 0.960 . S
C424 H416 0.929 . S
C424 C425 1.377 . S
C424 C426 1.384 . S
C425 C424 1.377 . S
C425 C431 1.390 . S
C426 H417 0.930 . S
C426 C424 1.384 . S
C426 C427 1.372 . S
C427 C426 1.372 . S
C427 C428 1.400 . S
C427 C432 1.490 . S
C428 H418 0.930 . S
C428 C427 1.400 . S
C428 C431 1.386 . S
H429 C445 0.930 . S
H430 C446 0.931 . S
C431 H419 0.929 . S
C431 C425 1.390 . S
C431 C428 1.386 . S
C432 C427 1.490 . S
C432 C434 1.395 . S
C432 C435 1.403 . S
H433 C439 0.930 . S
C434 H420 0.930 . S
C434 C432 1.395 . S
C434 C437 1.403 . S
C435 C432 1.403 . S
C435 C436 1.524 . S
C435 C439 1.400 . S
C436 H421 0.960 . S
C436 H422 0.960 . S
C436 H423 0.960 . S
C436 C435 1.524 . S
C437 C434 1.403 . S
C437 C438 1.392 . S
C437 C441 1.495 . S
C438 C437 1.392 . S
C438 C439 1.385 . S
C438 C440 1.478 . S
C439 H433 0.930 . S
C439 C435 1.400 . S
C439 C438 1.385 . S
C440 C438 1.478 . S
C440 C442 1.381 . S
C440 C446 1.383 . S
C441 C437 1.495 . S
C441 H447 0.959 . S
C441 H448 0.961 . S
C441 H449 0.960 . S
C442 C440 1.381 . S
C442 C443 1.394 . S
C442 H450 0.930 . S
C443 C442 1.394 . S
C443 C444 1.383 . S
C443 H451 0.929 . S
C444 C443 1.383 . S
C444 C445 1.377 . S
C445 H429 0.930 . S
C445 C444 1.377 . S
C445 C446 1.379 . S
C446 H430 0.931 . S
C446 C440 1.383 . S
C446 C445 1.379 . S
H447 C441 0.959 . S
H448 C441 0.961 . S
H449 C441 0.960 . S
H450 C442 0.930 . S
H451 C443 0.929 . S
H452 C460 0.929 . S
H453 C462 0.930 . S
H454 C464 0.930 . S
H455 C467 0.929 . S
H456 C470 0.930 . S
H457 C472 0.960 . S
H458 C472 0.960 . S
H459 C472 0.960 . S
C460 H452 0.929 . S
C460 C461 1.377 . S
C460 C462 1.384 . S
C461 C460 1.377 . S
C461 C467 1.390 . S
C462 H453 0.930 . S
C462 C460 1.384 . S
C462 C463 1.372 . S
C463 C462 1.372 . S
C463 C464 1.400 . S
C463 C468 1.490 . S
C464 H454 0.930 . S
C464 C463 1.400 . S
C464 C467 1.386 . S
H465 C481 0.930 . S
H466 C482 0.931 . S
C467 H455 0.929 . S
C467 C461 1.390 . S
C467 C464 1.386 . S
C468 C463 1.490 . S
C468 C470 1.395 . S
C468 C471 1.403 . S
H469 C475 0.930 . S
C470 H456 0.930 . S
C470 C468 1.395 . S
C470 C473 1.403 . S
C471 C468 1.403 . S
C471 C472 1.524 . S
C471 C475 1.400 . S
C472 H457 0.960 . S
C472 H458 0.960 . S
C472 H459 0.960 . S
C472 C471 1.524 . S
C473 C470 1.403 . S
C473 C474 1.392 . S
C473 C477 1.495 . S
C474 C473 1.392 . S
C474 C475 1.385 . S
C474 C476 1.478 . S
C475 H469 0.930 . S
C475 C471 1.400 . S
C475 C474 1.385 . S
C476 C474 1.478 . S
C476 C478 1.381 . S
C476 C482 1.383 . S
C477 C473 1.495 . S
C477 H483 0.959 . S
C477 H484 0.961 . S
C477 H485 0.960 . S
C478 C476 1.381 . S
C478 C479 1.394 . S
C478 H486 0.930 . S
C479 C478 1.394 . S
C479 C480 1.383 . S
C479 H487 0.929 . S
C480 C479 1.383 . S
C480 C481 1.377 . S
C481 H465 0.930 . S
C481 C480 1.377 . S
C481 C482 1.379 . S
C482 H466 0.931 . S
C482 C476 1.383 . S
C482 C481 1.379 . S
H483 C477 0.959 . S
H484 C477 0.961 . S
H485 C477 0.960 . S
H486 C478 0.930 . S
H487 C479 0.929 . S
H488 C496 0.929 . S
H489 C498 0.930 . S
H490 C500 0.930 . S
H491 C503 0.929 . S
H492 C506 0.930 . S
H493 C508 0.960 . S
H494 C508 0.960 . S
H495 C508 0.960 . S
C496 H488 0.929 . S
C496 C497 1.377 . S
C496 C498 1.384 . S
C497 C496 1.377 . S
C497 C503 1.390 . S
C498 H489 0.930 . S
C498 C496 1.384 . S
C498 C499 1.372 . S
C499 C498 1.372 . S
C499 C500 1.400 . S
C499 C504 1.490 . S
C500 H490 0.930 . S
C500 C499 1.400 . S
C500 C503 1.386 . S
H501 C517 0.930 . S
H502 C518 0.931 . S
C503 H491 0.929 . S
C503 C497 1.390 . S
C503 C500 1.386 . S
C504 C499 1.490 . S
C504 C506 1.395 . S
C504 C507 1.403 . S
H505 C511 0.930 . S
C506 H492 0.930 . S
C506 C504 1.395 . S
C506 C509 1.403 . S
C507 C504 1.403 . S
C507 C508 1.524 . S
C507 C511 1.400 . S
C508 H493 0.960 . S
C508 H494 0.960 . S
C508 H495 0.960 . S
C508 C507 1.524 . S
C509 C506 1.403 . S
C509 C510 1.392 . S
C509 C513 1.495 . S
C510 C509 1.392 . S
C510 C511 1.385 . S
C510 C512 1.478 . S
C511 H505 0.930 . S
C511 C507 1.400 . S
C511 C510 1.385 . S
C512 C510 1.478 . S
C512 C514 1.381 . S
C512 C518 1.383 . S
C513 C509 1.495 . S
C513 H519 0.959 . S
C513 H520 0.961 . S
C513 H521 0.960 . S
C514 C512 1.381 . S
C514 C515 1.394 . S
C514 H522 0.930 . S
C515 C514 1.394 . S
C515 C516 1.383 . S
C515 H523 0.929 . S
C516 C515 1.383 . S
C516 C517 1.377 . S
C517 H501 0.930 . S
C517 C516 1.377 . S
C517 C518 1.379 . S
C518 H502 0.931 . S
C518 C512 1.383 . S
C518 C517 1.379 . S
H519 C513 0.959 . S
H520 C513 0.961 . S
H521 C513 0.960 . S
H522 C514 0.930 . S
H523 C515 0.929 . S
H524 C532 0.929 . S
H525 C534 0.930 . S
H526 C536 0.930 . S
H527 C539 0.929 . S
H528 C542 0.930 . S
H529 C544 0.960 . S
H530 C544 0.960 . S
H531 C544 0.960 . S
C532 H524 0.929 . S
C532 C533 1.377 . S
C532 C534 1.384 . S
C533 C532 1.377 . S
C533 C539 1.390 . S
C534 H525 0.930 . S
C534 C532 1.384 . S
C534 C535 1.372 . S
C535 C534 1.372 . S
C535 C536 1.400 . S
C535 C540 1.490 . S
C536 H526 0.930 . S
C536 C535 1.400 . S
C536 C539 1.386 . S
H537 C553 0.930 . S
H538 C554 0.931 . S
C539 H527 0.929 . S
C539 C533 1.390 . S
C539 C536 1.386 . S
C540 C535 1.490 . S
C540 C542 1.395 . S
C540 C543 1.403 . S
H541 C547 0.930 . S
C542 H528 0.930 . S
C542 C540 1.395 . S
C542 C545 1.403 . S
C543 C540 1.403 . S
C543 C544 1.524 . S
C543 C547 1.400 . S
C544 H529 0.960 . S
C544 H530 0.960 . S
C544 H531 0.960 . S
C544 C543 1.524 . S
C545 C542 1.403 . S
C545 C546 1.392 . S
C545 C549 1.495 . S
C546 C545 1.392 . S
C546 C547 1.385 . S
C546 C548 1.478 . S
C547 H541 0.930 . S
C547 C543 1.400 . S
C547 C546 1.385 . S
C548 C546 1.478 . S
C548 C550 1.381 . S
C548 C554 1.383 . S
C549 C545 1.495 . S
C549 H555 0.959 . S
C549 H556 0.961 . S
C549 H557 0.960 . S
C550 C548 1.381 . S
C550 C551 1.394 . S
C550 H558 0.930 . S
C551 C550 1.394 . S
C551 C552 1.383 . S
C551 H559 0.929 . S
C552 C551 1.383 . S
C552 C553 1.377 . S
C553 H537 0.930 . S
C553 C552 1.377 . S
C553 C554 1.379 . S
C554 H538 0.931 . S
C554 C548 1.383 . S
C554 C553 1.379 . S
H555 C549 0.959 . S
H556 C549 0.961 . S
H557 C549 0.960 . S
H558 C550 0.930 . S
H559 C551 0.929 . S
H560 C568 0.929 . S
H561 C570 0.930 . S
H562 C572 0.930 . S
H563 C575 0.929 1_556 S
H564 C578 0.930 . S
H565 C580 0.960 . S
H566 C580 0.960 . S
H567 C580 0.960 1_556 S
C568 H560 0.929 . S
C568 C569 1.377 . S
C568 C570 1.384 . S
C569 C568 1.377 . S
C569 C575 1.390 . S
C570 H561 0.930 . S
C570 C568 1.384 . S
C570 C571 1.372 . S
C571 C570 1.372 . S
C571 C572 1.400 1_554 S
C571 C576 1.490 . S
C572 H562 0.930 . S
C572 C571 1.400 1_556 S
C572 C575 1.386 1_556 S
H573 C589 0.930 . S
H574 C590 0.931 . S
C575 H563 0.929 1_554 S
C575 C569 1.390 . S
C575 C572 1.386 1_554 S
C576 C571 1.490 . S
C576 C578 1.395 . S
C576 C579 1.403 . S
H577 C583 0.930 . S
C578 H564 0.930 . S
C578 C576 1.395 . S
C578 C581 1.403 1_554 S
C579 C576 1.403 . S
C579 C580 1.524 . S
C579 C583 1.400 1_554 S
C580 H565 0.960 . S
C580 H566 0.960 . S
C580 H567 0.960 1_554 S
C580 C579 1.524 . S
C581 C578 1.403 1_556 S
C581 C582 1.392 . S
C581 C585 1.495 . S
C582 C581 1.392 . S
C582 C583 1.385 . S
C582 C584 1.478 . S
C583 H577 0.930 . S
C583 C579 1.400 1_556 S
C583 C582 1.385 . S
C584 C582 1.478 . S
C584 C586 1.381 1_556 S
C584 C590 1.383 . S
C585 C581 1.495 . S
C585 H591 0.959 . S
C585 H592 0.961 . S
C585 H593 0.960 1_556 S
C586 C584 1.381 1_554 S
C586 C587 1.394 1_554 S
C586 H594 0.930 . S
C587 C586 1.394 1_556 S
C587 C588 1.383 . S
C587 H595 0.929 1_556 S
C588 C587 1.383 . S
C588 C589 1.377 . S
C589 H573 0.930 . S
C589 C588 1.377 . S
C589 C590 1.379 . S
C590 H574 0.931 . S
C590 C584 1.383 . S
C590 C589 1.379 . S
H591 C585 0.959 . S
H592 C585 0.961 . S
H593 C585 0.960 1_554 S
H594 C586 0.930 . S
H595 C587 0.929 1_554 S
H596 C604 0.929 . S
H597 C606 0.930 . S
H598 C608 0.930 . S
H599 C611 0.929 . S
H600 C614 0.930 . S
H601 C616 0.960 . S
H602 C616 0.960 . S
H603 C616 0.960 . S
C604 H596 0.929 . S
C604 C605 1.377 1_554 S
C604 C606 1.384 . S
C605 C604 1.377 1_556 S
C605 C611 1.390 . S
C606 H597 0.930 . S
C606 C604 1.384 . S
C606 C607 1.372 1_554 S
C607 C606 1.372 1_556 S
C607 C608 1.400 . S
C607 C612 1.489 1_556 S
C608 H598 0.930 . S
C608 C607 1.400 . S
C608 C611 1.386 . S
H609 C625 0.925 1_556 S
H610 C626 0.931 1_556 S
C611 H599 0.929 . S
C611 C605 1.390 . S
C611 C608 1.386 . S
C612 C607 1.489 1_554 S
C612 C614 1.406 . S
C612 C615 1.393 1_554 S
H613 C619 0.930 . S
C614 H600 0.930 . S
C614 C612 1.406 . S
C614 C617 1.403 . S
C615 C612 1.393 1_556 S
C615 C616 1.524 . S
C615 C619 1.400 . S
C616 H601 0.960 . S
C616 H602 0.960 . S
C616 H603 0.960 . S
C616 C615 1.524 . S
C617 C614 1.403 . S
C617 C618 1.392 . S
C617 C621 1.495 . S
C618 C617 1.392 . S
C618 C619 1.385 1_554 S
C618 C620 1.478 . S
C619 H613 0.930 . S
C619 C615 1.400 . S
C619 C618 1.385 1_556 S
C620 C618 1.478 . S
C620 C622 1.381 . S
C620 C626 1.383 . S
C621 C617 1.495 . S
C621 H627 0.959 . S
C621 H628 0.961 . S
C621 H629 0.960 . S
C622 C620 1.381 . S
C622 C623 1.394 . S
C622 H630 0.930 . S
C623 C622 1.394 . S
C623 C624 1.383 . S
C623 H631 0.929 . S
C624 C623 1.383 . S
C624 C625 1.380 . S
C625 H609 0.925 1_554 S
C625 C624 1.380 . S
C625 C626 1.380 . S
C626 H610 0.931 1_554 S
C626 C620 1.383 . S
C626 C625 1.380 . S
H627 C621 0.959 . S
H628 C621 0.961 . S
H629 C621 0.960 . S
H630 C622 0.930 . S
H631 C623 0.929 . S
H632 C640 0.929 . S
H633 C642 0.930 1_556 S
H634 C644 0.930 . S
H635 C647 0.929 . S
H636 C650 0.930 . S
H637 C652 0.960 . S
H638 C652 0.960 . S
H639 C652 0.960 . S
C640 H632 0.929 . S
C640 C641 1.377 . S
C640 C642 1.384 . S
C641 C640 1.377 . S
C641 C647 1.390 . S
C642 H633 0.930 1_554 S
C642 C640 1.384 . S
C642 C643 1.372 . S
C643 C642 1.372 . S
C643 C644 1.400 . S
C643 C648 1.490 . S
C644 H634 0.930 . S
C644 C643 1.400 . S
C644 C647 1.386 . S
H645 C661 0.930 1_554 S
H646 C662 0.931 . S
C647 H635 0.929 . S
C647 C641 1.390 . S
C647 C644 1.386 . S
C648 C643 1.490 . S
C648 C650 1.395 . S
C648 C651 1.403 1_554 S
H649 C655 0.930 . S
C650 H636 0.930 . S
C650 C648 1.395 . S
C650 C653 1.403 . S
C651 C648 1.403 1_556 S
C651 C652 1.524 . S
C651 C655 1.400 . S
C652 H637 0.960 . S
C652 H638 0.960 . S
C652 H639 0.960 . S
C652 C651 1.524 . S
C653 C650 1.403 . S
C653 C654 1.392 1_554 S
C653 C657 1.495 . S
C654 C653 1.392 1_556 S
C654 C655 1.385 . S
C654 C656 1.478 . S
C655 H649 0.930 . S
C655 C651 1.400 . S
C655 C654 1.385 . S
C656 C654 1.478 . S
C656 C658 1.381 . S
C656 C662 1.383 1_556 S
C657 C653 1.495 . S
C657 H663 0.959 . S
C657 H664 0.961 . S
C657 H665 0.960 . S
C658 C656 1.381 . S
C658 C659 1.394 . S
C658 H666 0.930 . S
C659 C658 1.394 . S
C659 C660 1.383 . S
C659 H667 0.929 . S
C660 C659 1.383 . S
C660 C661 1.377 . S
C661 H645 0.930 1_556 S
C661 C660 1.377 . S
C661 C662 1.379 1_556 S
C662 H646 0.931 . S
C662 C656 1.383 1_554 S
C662 C661 1.379 1_554 S
H663 C657 0.959 . S
H664 C657 0.961 . S
H665 C657 0.960 . S
H666 C658 0.930 . S
H667 C659 0.929 . S
H668 C676 0.929 . S
H669 C678 0.930 . S
H670 C680 0.930 . S
H671 C683 0.929 . S
H672 C686 0.930 . S
H673 C688 0.960 . S
H674 C688 0.960 . S
H675 C688 0.960 . S
C676 H668 0.929 . S
C676 C677 1.377 1_554 S
C676 C678 1.384 . S
C677 C676 1.377 1_556 S
C677 C683 1.390 . S
C678 H669 0.930 . S
C678 C676 1.384 . S
C678 C679 1.372 1_554 S
C679 C678 1.372 1_556 S
C679 C680 1.400 . S
C679 C684 1.490 1_556 S
C680 H670 0.930 . S
C680 C679 1.400 . S
C680 C683 1.386 . S
H681 C697 0.930 . S
H682 C698 0.931 . S
C683 H671 0.929 . S
C683 C677 1.390 . S
C683 C680 1.386 . S
C684 C679 1.490 1_554 S
C684 C686 1.395 . S
C684 C687 1.403 1_554 S
H685 C691 0.930 . S
C686 H672 0.930 . S
C686 C684 1.395 . S
C686 C689 1.403 . S
C687 C684 1.403 1_556 S
C687 C688 1.524 . S
C687 C691 1.400 . S
C688 H673 0.960 . S
C688 H674 0.960 . S
C688 H675 0.960 . S
C688 C687 1.524 . S
C689 C686 1.403 . S
C689 C690 1.392 . S
C689 C693 1.495 . S
C690 C689 1.392 . S
C690 C691 1.385 1_554 S
C690 C692 1.478 . S
C691 H685 0.930 . S
C691 C687 1.400 . S
C691 C690 1.385 1_556 S
C692 C690 1.478 . S
C692 C694 1.381 . S
C692 C698 1.383 1_554 S
C693 C689 1.495 . S
C693 H699 0.959 . S
C693 H700 0.961 . S
C693 H701 0.960 . S
C694 C692 1.381 . S
C694 C695 1.394 . S
C694 H702 0.930 . S
C695 C694 1.394 . S
C695 C696 1.383 . S
C695 H703 0.929 . S
C696 C695 1.383 . S
C696 C697 1.377 1_554 S
C697 H681 0.930 . S
C697 C696 1.377 1_556 S
C697 C698 1.379 . S
C698 H682 0.931 . S
C698 C692 1.383 1_556 S
C698 C697 1.379 . S
H699 C693 0.959 . S
H700 C693 0.961 . S
H701 C693 0.960 . S
H702 C694 0.930 . S
H703 C695 0.929 . S
H704 C712 0.929 . S
H705 C714 0.930 . S
H706 C716 0.930 . S
H707 C719 0.929 . S
H708 C722 0.930 . S
H709 C724 0.960 . S
H710 C724 0.960 . S
H711 C724 0.960 . S
C712 H704 0.929 . S
C712 C713 1.377 . S
C712 C714 1.384 . S
C713 C712 1.377 . S
C713 C719 1.390 . S
C714 H705 0.930 . S
C714 C712 1.384 . S
C714 C715 1.372 . S
C715 C714 1.372 . S
C715 C716 1.400 . S
C715 C720 1.490 . S
C716 H706 0.930 . S
C716 C715 1.400 . S
C716 C719 1.386 . S
H717 C733 0.930 . S
H718 C734 0.931 . S
C719 H707 0.929 . S
C719 C713 1.390 . S
C719 C716 1.386 . S
C720 C715 1.490 . S
C720 C722 1.395 . S
C720 C723 1.403 . S
H721 C727 0.930 . S
C722 H708 0.930 . S
C722 C720 1.395 . S
C722 C725 1.403 . S
C723 C720 1.403 . S
C723 C724 1.524 . S
C723 C727 1.400 . S
C724 H709 0.960 . S
C724 H710 0.960 . S
C724 H711 0.960 . S
C724 C723 1.524 . S
C725 C722 1.403 . S
C725 C726 1.392 . S
C725 C729 1.495 . S
C726 C725 1.392 . S
C726 C727 1.385 . S
C726 C728 1.478 . S
C727 H721 0.930 . S
C727 C723 1.400 . S
C727 C726 1.385 . S
C728 C726 1.478 . S
C728 C730 1.381 . S
C728 C734 1.383 . S
C729 C725 1.495 . S
C729 H735 0.959 . S
C729 H736 0.961 . S
C729 H737 0.960 . S
C730 C728 1.381 . S
C730 C731 1.394 . S
C730 H738 0.930 . S
C731 C730 1.394 . S
C731 C732 1.383 . S
C731 H739 0.929 . S
C732 C731 1.383 . S
C732 C733 1.377 . S
C733 H717 0.930 . S
C733 C732 1.377 . S
C733 C734 1.379 . S
C734 H718 0.931 . S
C734 C728 1.383 . S
C734 C733 1.379 . S
H735 C729 0.959 . S
H736 C729 0.961 . S
H737 C729 0.960 . S
H738 C730 0.930 . S
H739 C731 0.929 . S
H740 C748 0.929 . S
H741 C750 0.930 . S
H742 C752 0.930 . S
H743 C755 0.929 . S
H744 C758 0.930 . S
H745 C760 0.960 . S
H746 C760 0.960 . S
H747 C760 0.960 . S
C748 H740 0.929 . S
C748 C749 1.377 . S
C748 C750 1.384 . S
C749 C748 1.377 . S
C749 C755 1.390 . S
C750 H741 0.930 . S
C750 C748 1.384 . S
C750 C751 1.372 . S
C751 C750 1.372 . S
C751 C752 1.400 . S
C751 C756 1.490 . S
C752 H742 0.930 . S
C752 C751 1.400 . S
C752 C755 1.386 . S
H753 C769 0.930 . S
H754 C770 0.931 . S
C755 H743 0.929 . S
C755 C749 1.390 . S
C755 C752 1.386 . S
C756 C751 1.490 . S
C756 C758 1.395 . S
C756 C759 1.403 . S
H757 C763 0.930 . S
C758 H744 0.930 . S
C758 C756 1.395 . S
C758 C761 1.403 . S
C759 C756 1.403 . S
C759 C760 1.524 . S
C759 C763 1.400 . S
C760 H745 0.960 . S
C760 H746 0.960 . S
C760 H747 0.960 . S
C760 C759 1.524 . S
C761 C758 1.403 . S
C761 C762 1.392 . S
C761 C765 1.495 . S
C762 C761 1.392 . S
C762 C763 1.385 . S
C762 C764 1.478 . S
C763 H757 0.930 . S
C763 C759 1.400 . S
C763 C762 1.385 . S
C764 C762 1.478 . S
C764 C766 1.381 . S
C764 C770 1.383 . S
C765 C761 1.495 . S
C765 H771 0.959 . S
C765 H772 0.961 . S
C765 H773 0.960 . S
C766 C764 1.381 . S
C766 C767 1.394 . S
C766 H774 0.930 . S
C767 C766 1.394 . S
C767 C768 1.383 . S
C767 H775 0.929 . S
C768 C767 1.383 . S
C768 C769 1.377 . S
C769 H753 0.930 . S
C769 C768 1.377 . S
C769 C770 1.379 . S
C770 H754 0.931 . S
C770 C764 1.383 . S
C770 C769 1.379 . S
H771 C765 0.959 . S
H772 C765 0.961 . S
H773 C765 0.960 . S
H774 C766 0.930 . S
H775 C767 0.929 . S
H776 C784 0.929 . S
H777 C786 0.930 . S
H778 C788 0.930 . S
H779 C791 0.929 . S
H780 C794 0.930 . S
H781 C796 0.960 . S
H782 C796 0.960 . S
H783 C796 0.960 . S
C784 H776 0.929 . S
C784 C785 1.377 . S
C784 C786 1.384 . S
C785 C784 1.377 . S
C785 C791 1.390 . S
C786 H777 0.930 . S
C786 C784 1.384 . S
C786 C787 1.372 . S
C787 C786 1.372 . S
C787 C788 1.400 . S
C787 C792 1.490 . S
C788 H778 0.930 . S
C788 C787 1.400 . S
C788 C791 1.386 . S
H789 C805 0.930 . S
H790 C806 0.931 . S
C791 H779 0.929 . S
C791 C785 1.390 . S
C791 C788 1.386 . S
C792 C787 1.490 . S
C792 C794 1.395 . S
C792 C795 1.403 . S
H793 C799 0.930 . S
C794 H780 0.930 . S
C794 C792 1.395 . S
C794 C797 1.403 . S
C795 C792 1.403 . S
C795 C796 1.524 . S
C795 C799 1.400 . S
C796 H781 0.960 . S
C796 H782 0.960 . S
C796 H783 0.960 . S
C796 C795 1.524 . S
C797 C794 1.403 . S
C797 C798 1.392 . S
C797 C801 1.495 . S
C798 C797 1.392 . S
C798 C799 1.385 . S
C798 C800 1.478 . S
C799 H793 0.930 . S
C799 C795 1.400 . S
C799 C798 1.385 . S
C800 C798 1.478 . S
C800 C802 1.381 . S
C800 C806 1.383 . S
C801 C797 1.495 . S
C801 H807 0.959 . S
C801 H808 0.961 . S
C801 H809 0.960 . S
C802 C800 1.381 . S
C802 C803 1.394 . S
C802 H810 0.930 . S
C803 C802 1.394 . S
C803 C804 1.383 . S
C803 H811 0.929 . S
C804 C803 1.383 . S
C804 C805 1.377 . S
C805 H789 0.930 . S
C805 C804 1.377 . S
C805 C806 1.379 . S
C806 H790 0.931 . S
C806 C800 1.383 . S
C806 C805 1.379 . S
H807 C801 0.959 . S
H808 C801 0.961 . S
H809 C801 0.960 . S
H810 C802 0.930 . S
H811 C803 0.929 . S
H812 C820 0.929 . S
H813 C822 0.930 . S
H814 C824 0.930 . S
H815 C827 0.929 . S
H816 C830 0.930 . S
H817 C832 0.960 . S
H818 C832 0.960 . S
H819 C832 0.960 . S
C820 H812 0.929 . S
C820 C821 1.377 . S
C820 C822 1.384 . S
C821 C820 1.377 . S
C821 C827 1.390 . S
C822 H813 0.930 . S
C822 C820 1.384 . S
C822 C823 1.372 . S
C823 C822 1.372 . S
C823 C824 1.400 . S
C823 C828 1.490 . S
C824 H814 0.930 . S
C824 C823 1.400 . S
C824 C827 1.386 . S
H825 C841 0.930 . S
H826 C842 0.931 . S
C827 H815 0.929 . S
C827 C821 1.390 . S
C827 C824 1.386 . S
C828 C823 1.490 . S
C828 C830 1.395 . S
C828 C831 1.403 . S
H829 C835 0.930 . S
C830 H816 0.930 . S
C830 C828 1.395 . S
C830 C833 1.403 . S
C831 C828 1.403 . S
C831 C832 1.524 . S
C831 C835 1.400 . S
C832 H817 0.960 . S
C832 H818 0.960 . S
C832 H819 0.960 . S
C832 C831 1.524 . S
C833 C830 1.403 . S
C833 C834 1.392 . S
C833 C837 1.495 . S
C834 C833 1.392 . S
C834 C835 1.385 . S
C834 C836 1.478 . S
C835 H829 0.930 . S
C835 C831 1.400 . S
C835 C834 1.385 . S
C836 C834 1.478 . S
C836 C838 1.381 . S
C836 C842 1.383 . S
C837 C833 1.495 . S
C837 H843 0.959 . S
C837 H844 0.961 . S
C837 H845 0.960 . S
C838 C836 1.381 . S
C838 C839 1.394 . S
C838 H846 0.930 . S
C839 C838 1.394 . S
C839 C840 1.383 . S
C839 H847 0.929 . S
C840 C839 1.383 . S
C840 C841 1.377 . S
C841 H825 0.930 . S
C841 C840 1.377 . S
C841 C842 1.379 . S
C842 H826 0.931 . S
C842 C836 1.383 . S
C842 C841 1.379 . S
H843 C837 0.959 . S
H844 C837 0.961 . S
H845 C837 0.960 . S
H846 C838 0.930 . S
H847 C839 0.929 . S
H848 C856 0.929 . S
H849 C858 0.930 . S
H850 C860 0.930 . S
H851 C863 0.929 . S
H852 C866 0.930 . S
H853 C868 0.960 . S
H854 C868 0.960 . S
H855 C868 0.960 . S
C856 H848 0.929 . S
C856 C857 1.377 . S
C856 C858 1.384 . S
C857 C856 1.377 . S
C857 C863 1.390 . S
C858 H849 0.930 . S
C858 C856 1.384 . S
C858 C859 1.372 . S
C859 C858 1.372 . S
C859 C860 1.400 . S
C859 C864 1.490 . S
C860 H850 0.930 . S
C860 C859 1.400 . S
C860 C863 1.386 . S
H861 C877 0.930 . S
H862 C878 0.931 . S
C863 H851 0.929 . S
C863 C857 1.390 . S
C863 C860 1.386 . S
C864 C859 1.490 . S
C864 C866 1.395 . S
C864 C867 1.403 . S
H865 C871 0.930 . S
C866 H852 0.930 . S
C866 C864 1.395 . S
C866 C869 1.403 . S
C867 C864 1.403 . S
C867 C868 1.524 . S
C867 C871 1.400 . S
C868 H853 0.960 . S
C868 H854 0.960 . S
C868 H855 0.960 . S
C868 C867 1.524 . S
C869 C866 1.403 . S
C869 C870 1.392 . S
C869 C873 1.495 . S
C870 C869 1.392 . S
C870 C871 1.385 . S
C870 C872 1.478 . S
C871 H865 0.930 . S
C871 C867 1.400 . S
C871 C870 1.385 . S
C872 C870 1.478 . S
C872 C874 1.381 . S
C872 C878 1.383 . S
C873 C869 1.495 . S
C873 H879 0.959 . S
C873 H880 0.961 . S
C873 H881 0.960 . S
C874 C872 1.381 . S
C874 C875 1.394 . S
C874 H882 0.930 . S
C875 C874 1.394 . S
C875 C876 1.383 . S
C875 H883 0.929 . S
C876 C875 1.383 . S
C876 C877 1.377 . S
C877 H861 0.930 . S
C877 C876 1.377 . S
C877 C878 1.379 . S
C878 H862 0.931 . S
C878 C872 1.383 . S
C878 C877 1.379 . S
H879 C873 0.959 . S
H880 C873 0.961 . S
H881 C873 0.960 . S
H882 C874 0.930 . S
H883 C875 0.929 . S
H884 C892 0.929 . S
H885 C894 0.930 . S
H886 C896 0.930 . S
H887 C899 0.929 . S
H888 C902 0.930 . S
H889 C904 0.960 . S
H890 C904 0.960 . S
H891 C904 0.960 . S
C892 H884 0.929 . S
C892 C893 1.377 . S
C892 C894 1.384 . S
C893 C892 1.377 . S
C893 C899 1.390 . S
C894 H885 0.930 . S
C894 C892 1.384 . S
C894 C895 1.372 . S
C895 C894 1.372 . S
C895 C896 1.400 . S
C895 C900 1.490 . S
C896 H886 0.930 . S
C896 C895 1.400 . S
C896 C899 1.386 . S
H897 C913 0.930 . S
H898 C914 0.931 . S
C899 H887 0.929 . S
C899 C893 1.390 . S
C899 C896 1.386 . S
C900 C895 1.490 . S
C900 C902 1.395 . S
C900 C903 1.403 . S
H901 C907 0.930 . S
C902 H888 0.930 . S
C902 C900 1.395 . S
C902 C905 1.403 . S
C903 C900 1.403 . S
C903 C904 1.524 . S
C903 C907 1.400 . S
C904 H889 0.960 . S
C904 H890 0.960 . S
C904 H891 0.960 . S
C904 C903 1.524 . S
C905 C902 1.403 . S
C905 C906 1.392 . S
C905 C909 1.495 . S
C906 C905 1.392 . S
C906 C907 1.385 . S
C906 C908 1.478 . S
C907 H901 0.930 . S
C907 C903 1.400 . S
C907 C906 1.385 . S
C908 C906 1.478 . S
C908 C910 1.381 . S
C908 C914 1.383 . S
C909 C905 1.495 . S
C909 H915 0.959 . S
C909 H916 0.961 . S
C909 H917 0.960 . S
C910 C908 1.381 . S
C910 C911 1.394 . S
C910 H918 0.930 . S
C911 C910 1.394 . S
C911 C912 1.383 . S
C911 H919 0.929 . S
C912 C911 1.383 . S
C912 C913 1.377 . S
C913 H897 0.930 . S
C913 C912 1.377 . S
C913 C914 1.379 . S
C914 H898 0.931 . S
C914 C908 1.383 . S
C914 C913 1.379 . S
H915 C909 0.959 . S
H916 C909 0.961 . S
H917 C909 0.960 . S
H918 C910 0.930 . S
H919 C911 0.929 . S
H920 C928 0.929 . S
H921 C930 0.930 . S
H922 C932 0.930 . S
H923 C935 0.929 . S
H924 C938 0.930 . S
H925 C940 0.960 . S
H926 C940 0.960 . S
H927 C940 0.960 . S
C928 H920 0.929 . S
C928 C929 1.377 . S
C928 C930 1.384 . S
C929 C928 1.377 . S
C929 C935 1.390 . S
C930 H921 0.930 . S
C930 C928 1.384 . S
C930 C931 1.372 . S
C931 C930 1.372 . S
C931 C932 1.400 . S
C931 C936 1.490 . S
C932 H922 0.930 . S
C932 C931 1.400 . S
C932 C935 1.386 . S
H933 C949 0.930 . S
H934 C950 0.931 . S
C935 H923 0.929 . S
C935 C929 1.390 . S
C935 C932 1.386 . S
C936 C931 1.490 . S
C936 C938 1.395 . S
C936 C939 1.403 . S
H937 C943 0.930 . S
C938 H924 0.930 . S
C938 C936 1.395 . S
C938 C941 1.403 . S
C939 C936 1.403 . S
C939 C940 1.524 . S
C939 C943 1.400 . S
C940 H925 0.960 . S
C940 H926 0.960 . S
C940 H927 0.960 . S
C940 C939 1.524 . S
C941 C938 1.403 . S
C941 C942 1.392 . S
C941 C945 1.495 . S
C942 C941 1.392 . S
C942 C943 1.385 . S
C942 C944 1.478 . S
C943 H937 0.930 . S
C943 C939 1.400 . S
C943 C942 1.385 . S
C944 C942 1.478 . S
C944 C946 1.381 . S
C944 C950 1.383 . S
C945 C941 1.495 . S
C945 H951 0.959 . S
C945 H952 0.961 . S
C945 H953 0.960 . S
C946 C944 1.381 . S
C946 C947 1.394 . S
C946 H954 0.930 . S
C947 C946 1.394 . S
C947 C948 1.383 . S
C947 H955 0.929 . S
C948 C947 1.383 . S
C948 C949 1.377 . S
C949 H933 0.930 . S
C949 C948 1.377 . S
C949 C950 1.379 . S
C950 H934 0.931 . S
C950 C944 1.383 . S
C950 C949 1.379 . S
H951 C945 0.959 . S
H952 C945 0.961 . S
H953 C945 0.960 . S
H954 C946 0.930 . S
H955 C947 0.929 . S
H956 C964 0.929 . S
H957 C966 0.930 . S
H958 C968 0.930 . S
H959 C971 0.929 . S
H960 C974 0.930 . S
H961 C976 0.960 . S
H962 C976 0.960 . S
H963 C976 0.960 . S
C964 H956 0.929 . S
C964 C965 1.377 . S
C964 C966 1.384 . S
C965 C964 1.377 . S
C965 C971 1.390 . S
C966 H957 0.930 . S
C966 C964 1.384 . S
C966 C967 1.372 . S
C967 C966 1.372 . S
C967 C968 1.400 . S
C967 C972 1.490 . S
C968 H958 0.930 . S
C968 C967 1.400 . S
C968 C971 1.386 . S
H969 C985 0.930 . S
H970 C986 0.931 . S
C971 H959 0.929 . S
C971 C965 1.390 . S
C971 C968 1.386 . S
C972 C967 1.490 . S
C972 C974 1.395 . S
C972 C975 1.403 . S
H973 C979 0.930 . S
C974 H960 0.930 . S
C974 C972 1.395 . S
C974 C977 1.403 . S
C975 C972 1.403 . S
C975 C976 1.524 . S
C975 C979 1.400 . S
C976 H961 0.960 . S
C976 H962 0.960 . S
C976 H963 0.960 . S
C976 C975 1.524 . S
C977 C974 1.403 . S
C977 C978 1.392 . S
C977 C981 1.495 . S
C978 C977 1.392 . S
C978 C979 1.385 . S
C978 C980 1.478 . S
C979 H973 0.930 . S
C979 C975 1.400 . S
C979 C978 1.385 . S
C980 C978 1.478 . S
C980 C982 1.381 . S
C980 C986 1.383 . S
C981 C977 1.495 . S
C981 H987 0.959 . S
C981 H988 0.961 . S
C981 H989 0.960 . S
C982 C980 1.381 . S
C982 C983 1.394 . S
C982 H990 0.930 . S
C983 C982 1.394 . S
C983 C984 1.383 . S
C983 H991 0.929 . S
C984 C983 1.383 . S
C984 C985 1.377 . S
C985 H969 0.930 . S
C985 C984 1.377 . S
C985 C986 1.379 . S
C986 H970 0.931 . S
C986 C980 1.383 . S
C986 C985 1.379 . S
H987 C981 0.959 . S
H988 C981 0.961 . S
H989 C981 0.960 . S
H990 C982 0.930 . S
H991 C983 0.929 . S
C281 C101 0.748 . S
C300 C33 0.741 1_565 S
C317 C67 0.743 . S
C336 C135 0.768 1_655 S
C353 C169 0.759 . S
C372 C237 0.729 . S
C389 C271 0.747 . S
C408 C203 0.788 . S
C425 C122 1.550 . S
C444 C20 1.544 . S
C461 C9 1.664 . S
C480 C43 1.657 . S
C497 C88 1.551 . S
C516 C54 1.544 . S
C533 C77 1.665 . S
C552 C111 1.658 . S
C569 C258 1.546 . S
C588 C156 1.545 . S
C605 C145 1.664 . S
C624 C179 1.664 . S
C641 C190 1.551 . S
C660 C224 1.548 . S
C677 C213 1.663 . S
C696 C247 1.665 . S
C713 C5 0.406 . S
C732 C175 0.507 . S
C749 C36 1.110 . S
C768 C206 1.129 . S
C785 C73 0.419 . S
C804 C243 0.319 . S
C821 C104 1.111 . S
C840 C138 1.118 . S
C857 C70 1.109 . S
C876 C172 1.082 . S
C893 C107 0.415 . S
C912 C209 0.503 . S
C929 C2 1.101 . S
C948 C240 1.095 . S
C965 C39 0.407 . S
C984 C141 0.507 . S
