# Generated by pormake.
# Topology wfx, (7)-cn, num edge types: 1
# Building blocks:
#     Node 0, Type 0, BuildingBlock: NUHQUE_clean_sbu_2, # of connection points: 7
#     Node 1, Type 0, BuildingBlock: NUHQUE_clean_sbu_2, # of connection points: 7
#     Node 2, Type 0, BuildingBlock: NUHQUE_clean_sbu_2, # of connection points: 7
#     Node 3, Type 0, BuildingBlock: NUHQUE_clean_sbu_2, # of connection points: 7
#     Node 4, Type 0, BuildingBlock: NUHQUE_clean_sbu_2, # of connection points: 7
#     Node 5, Type 0, BuildingBlock: NUHQUE_clean_sbu_2, # of connection points: 7
#     Node 6, Type 0, BuildingBlock: NUHQUE_clean_sbu_2, # of connection points: 7
#     Node 7, Type 0, BuildingBlock: NUHQUE_clean_sbu_2, # of connection points: 7
#     Node 8, Type 0, BuildingBlock: NUHQUE_clean_sbu_2, # of connection points: 7
#     Node 9, Type 0, BuildingBlock: NUHQUE_clean_sbu_2, # of connection points: 7
#     Node 10, Type 0, BuildingBlock: NUHQUE_clean_sbu_2, # of connection points: 7
#     Node 11, Type 0, BuildingBlock: NUHQUE_clean_sbu_2, # of connection points: 7
#     Node 12, Type 0, BuildingBlock: NUHQUE_clean_sbu_2, # of connection points: 7
#     Node 13, Type 0, BuildingBlock: NUHQUE_clean_sbu_2, # of connection points: 7
#     Node 14, Type 0, BuildingBlock: NUHQUE_clean_sbu_2, # of connection points: 7
#     Node 15, Type 0, BuildingBlock: NUHQUE_clean_sbu_2, # of connection points: 7
#     Edge 16, Type (0, 0), None
#     Edge 17, Type (0, 0), None
#     Edge 18, Type (0, 0), None
#     Edge 19, Type (0, 0), None
#     Edge 20, Type (0, 0), None
#     Edge 21, Type (0, 0), None
#     Edge 22, Type (0, 0), None
#     Edge 23, Type (0, 0), None
#     Edge 24, Type (0, 0), None
#     Edge 25, Type (0, 0), None
#     Edge 26, Type (0, 0), None
#     Edge 27, Type (0, 0), None
#     Edge 28, Type (0, 0), None
#     Edge 29, Type (0, 0), None
#     Edge 30, Type (0, 0), None
#     Edge 31, Type (0, 0), None
#     Edge 32, Type (0, 0), None
#     Edge 33, Type (0, 0), None
#     Edge 34, Type (0, 0), None
#     Edge 35, Type (0, 0), None
#     Edge 36, Type (0, 0), None
#     Edge 37, Type (0, 0), None
#     Edge 38, Type (0, 0), None
#     Edge 39, Type (0, 0), None
#     Edge 40, Type (0, 0), None
#     Edge 41, Type (0, 0), None
#     Edge 42, Type (0, 0), None
#     Edge 43, Type (0, 0), None
#     Edge 44, Type (0, 0), None
#     Edge 45, Type (0, 0), None
#     Edge 46, Type (0, 0), None
#     Edge 47, Type (0, 0), None
#     Edge 48, Type (0, 0), None
#     Edge 49, Type (0, 0), None
#     Edge 50, Type (0, 0), None
#     Edge 51, Type (0, 0), None
#     Edge 52, Type (0, 0), None
#     Edge 53, Type (0, 0), None
#     Edge 54, Type (0, 0), None
#     Edge 55, Type (0, 0), None
#     Edge 56, Type (0, 0), None
#     Edge 57, Type (0, 0), None
#     Edge 58, Type (0, 0), None
#     Edge 59, Type (0, 0), None
#     Edge 60, Type (0, 0), None
#     Edge 61, Type (0, 0), None
#     Edge 62, Type (0, 0), None
#     Edge 63, Type (0, 0), None
#     Edge 64, Type (0, 0), None
#     Edge 65, Type (0, 0), None
#     Edge 66, Type (0, 0), None
#     Edge 67, Type (0, 0), None
#     Edge 68, Type (0, 0), None
#     Edge 69, Type (0, 0), None
#     Edge 70, Type (0, 0), None
#     Edge 71, Type (0, 0), None
# Relax obj value: 0.229
# Max RMSD: 0.293
# Mean RMSD: 0.293
data_MOF--net-wfx--node1-NUHQUE_clean_sbu_2--edge1-none
_symmetry_space_group_name_H-M    P1
_symmetry_Int_Tables_number       1
_symmetry_cell_setting            triclinic
loop_
_symmetry_equiv_pos_as_xyz
'x, y, z'
_cell_length_a     23.789062
_cell_length_b     23.789388
_cell_length_c     22.586864
_cell_angle_alpha  89.999998
_cell_angle_beta   90.000073
_cell_angle_gamma 90.000006
loop_
_atom_site_label
_atom_site_type_symbol
_atom_site_fract_x
_atom_site_fract_y
_atom_site_fract_z
_atom_type_partial_charge
O0 O 0.67462 0.2697 0.05268 0.0
Tb1 Tb 0.71599 0.21195 0.11153 0.0
Eu2 Eu 0.78212 0.08563 0.15354 0.0
C3 C 0.66057 0.25233 -5e-05 0.0
O4 O 0.6595 0.1983 0.98863 0.0
C5 C 0.81148 0.15707 0.04317 0.0
O6 O 0.86909 1.04169 0.15072 0.0
C7 C 0.71239 1.02492 0.09211 0.0
C8 C 0.91718 0.06768 0.13688 0.0
O9 O 0.92194 0.12204 0.14559 0.0
C10 C 0.68168 0.15376 0.22168 0.0
C11 C 0.65175 1.0145 0.08156 0.0
C12 C 0.62374 1.04426 0.0361 0.0
C13 C 0.56635 1.03563 0.02287 0.0
C14 C 0.53774 0.99551 0.05949 0.0
C15 C 0.56598 0.963 0.10346 0.0
C16 C 0.62307 0.97283 0.11346 0.0
O17 O 0.75993 0.17498 0.0365 0.0
O18 O 0.82978 0.14501 0.09582 0.0
O19 O 0.73036 0.29171 0.15537 0.0
O20 O 0.7932 0.22891 0.15985 0.0
C21 C 0.78064 0.28032 0.17411 0.0
O22 O 0.73289 0.13124 0.22787 0.0
O23 O 0.66196 0.16444 0.16866 0.0
O24 O 0.73566 1.00687 0.14167 0.0
O25 O 0.73099 0.0743 0.07567 0.0
H26 H 0.64804 0.07413 0.01116 0.0
H27 H 0.49354 0.98789 0.05413 0.0
H28 H 0.64506 0.94831 0.14662 0.0
O29 O 0.33411 0.67462 0.0527 0.0
Tb30 Tb 0.39187 0.716 0.11153 0.0
Eu31 Eu 0.51819 0.78211 0.15353 0.0
C32 C 0.35148 0.66055 -2e-05 0.0
O33 O 0.40552 0.65945 0.98866 0.0
C34 C 0.44676 0.81146 0.04314 0.0
O35 O 0.56213 0.86909 0.15071 0.0
C36 C 0.5789 0.71238 0.09211 0.0
C37 C 0.53613 0.91717 0.13687 0.0
O38 O 0.48178 0.92193 0.14559 0.0
C39 C 0.45006 0.68168 0.22168 0.0
C40 C 0.58932 0.65174 0.08156 0.0
C41 C 0.55956 0.62373 0.0361 0.0
C42 C 0.56819 0.56634 0.02287 0.0
C43 C 0.60831 0.53773 0.0595 0.0
C44 C 0.64082 0.56597 0.10347 0.0
C45 C 0.63098 0.62306 0.11346 0.0
O46 O 0.42884 0.75992 0.03649 0.0
O47 O 0.45883 0.82977 0.09579 0.0
O48 O 0.31212 0.73038 0.15538 0.0
O49 O 0.37492 0.79322 0.15984 0.0
C50 C 0.32352 0.78066 0.17411 0.0
O51 O 0.47257 0.7329 0.22787 0.0
O52 O 0.43937 0.66196 0.16867 0.0
O53 O 0.59695 0.73565 0.14167 0.0
O54 O 0.52952 0.73098 0.07567 0.0
H55 H 0.52969 0.64804 0.01115 0.0
H56 H 0.61592 0.49353 0.05413 0.0
H57 H 0.65551 0.64505 0.14663 0.0
O58 O 0.92919 0.33412 0.05268 0.0
Tb59 Tb 0.88781 0.39187 0.11151 0.0
Eu60 Eu 0.82171 0.51818 0.15353 0.0
C61 C 0.94326 0.35149 -4e-05 0.0
O62 O 0.94435 0.40552 0.98864 0.0
C63 C 0.79236 0.44677 0.04312 0.0
O64 O 0.73473 0.56211 0.15071 0.0
C65 C 0.89144 0.57889 0.09212 0.0
C66 C 0.68665 0.53612 0.13688 0.0
O67 O 0.68188 0.48176 0.14559 0.0
C68 C 0.92213 0.45003 0.22168 0.0
C69 C 0.95208 0.58931 0.08157 0.0
C70 C 0.98009 0.55955 0.03611 0.0
C71 C 1.03748 0.56818 0.02287 0.0
C72 C 0.06609 0.6083 0.0595 0.0
C73 C 1.03785 0.64081 0.10346 0.0
C74 C 0.98076 0.63098 0.11346 0.0
O75 O 0.8439 0.42884 0.03647 0.0
O76 O 0.77404 0.45884 0.09576 0.0
O77 O 0.87345 0.31207 0.1553 0.0
O78 O 0.81057 0.37493 0.15981 0.0
C79 C 0.82317 0.32351 0.17399 0.0
O80 O 0.87091 0.47255 0.22787 0.0
O81 O 0.94185 0.43934 0.16867 0.0
O82 O 0.86817 0.59693 0.14168 0.0
O83 O 0.87284 0.52952 0.07567 0.0
H84 H 0.95578 0.52968 0.01116 0.0
H85 H 0.11029 0.61592 0.05413 0.0
H86 H 0.95877 0.6555 0.14663 0.0
O87 O 0.26969 0.92919 0.05266 0.0
Tb88 Tb 0.21195 0.88781 0.1115 0.0
Eu89 Eu 0.08564 0.8217 0.15353 0.0
C90 C 0.25233 0.94324 -8e-05 0.0
O91 O 0.1983 0.9443 0.98859 0.0
C92 C 0.15706 0.79234 0.04313 0.0
O93 O 1.04171 0.73472 0.15071 0.0
C94 C 1.02493 0.89143 0.09211 0.0
C95 C 0.0677 0.68664 0.13688 0.0
O96 O 0.12206 0.68188 0.14559 0.0
C97 C 0.15378 0.92213 0.22167 0.0
C98 C 1.0145 0.95207 0.08156 0.0
C99 C 1.04426 0.98008 0.0361 0.0
C100 C 1.03563 1.03747 0.02287 0.0
C101 C 0.99551 0.06608 0.0595 0.0
C102 C 0.96301 1.03784 0.10346 0.0
C103 C 0.97284 0.98074 0.11346 0.0
O104 O 0.17498 0.84389 0.03648 0.0
O105 O 0.145 0.77403 0.09578 0.0
O106 O 0.29176 0.87346 0.15527 0.0
O107 O 0.2289 0.81059 0.15981 0.0
C108 C 0.28032 0.82319 0.17398 0.0
O109 O 0.13127 0.87092 0.22786 0.0
O110 O 0.16447 0.94185 0.16865 0.0
O111 O 1.00688 0.86816 0.14167 0.0
O112 O 0.0743 0.87283 0.07566 0.0
H113 H 0.07414 0.95578 0.01115 0.0
H114 H 0.98791 0.11028 0.05414 0.0
H115 H 0.94832 0.95876 0.14662 0.0
O116 O 0.17463 0.83409 0.4419 0.0
Tb117 Tb 0.21599 0.89185 0.38307 0.0
Eu118 Eu 0.28211 1.01818 0.34107 0.0
C119 C 0.16055 0.85146 0.49462 0.0
O120 O 0.15945 0.90549 0.50593 0.0
C121 C 0.31146 0.94675 0.45146 0.0
O122 O 0.36909 0.06212 0.34389 0.0
C123 C 0.21238 0.07889 0.40248 0.0
C124 C 0.41717 1.03612 0.35773 0.0
O125 O 0.42193 0.98177 0.34902 0.0
C126 C 0.18168 0.95005 0.27293 0.0
C127 C 0.15174 0.08931 0.41304 0.0
C128 C 0.12374 0.05955 0.4585 0.0
C129 C 0.06635 0.06818 0.47173 0.0
C130 C 1.03773 0.10831 0.43511 0.0
C131 C 0.06597 0.14081 0.39114 0.0
C132 C 0.12307 0.13098 0.38114 0.0
O133 O 0.25991 0.92882 0.4581 0.0
O134 O 0.32977 0.95881 0.39881 0.0
O135 O 0.23039 0.8121 0.33921 0.0
O136 O 0.29321 0.87491 0.33476 0.0
C137 C 0.28067 0.8235 0.32048 0.0
O138 O 0.2329 0.97256 0.26673 0.0
O139 O 0.16195 0.93935 0.32593 0.0
O140 O 0.23565 0.09694 0.35293 0.0
O141 O 0.23099 1.02952 0.41893 0.0
H142 H 0.14804 1.02968 0.48344 0.0
H143 H 0.99353 0.11592 0.44048 0.0
H144 H 0.14505 0.1555 0.34798 0.0
O145 O 0.76972 0.17461 0.44193 0.0
Tb146 Tb 0.71197 0.21597 0.38308 0.0
Eu147 Eu 0.58563 0.2821 0.34106 0.0
C148 C 0.75235 0.16056 0.49466 0.0
O149 O 0.69832 0.15948 0.50598 0.0
C150 C 0.65708 0.31145 0.45144 0.0
O151 O 0.5417 0.36908 0.34389 0.0
C152 C 0.52492 0.21238 0.40249 0.0
C153 C 0.5677 0.41716 0.35773 0.0
O154 O 0.62205 0.42193 0.34902 0.0
C155 C 0.65376 0.18166 0.27294 0.0
C156 C 0.5145 0.15174 0.41304 0.0
C157 C 0.54426 0.12373 0.4585 0.0
C158 C 0.53563 0.06634 0.47173 0.0
C159 C 0.49551 1.03773 0.43511 0.0
C160 C 0.463 0.06597 0.39115 0.0
C161 C 0.47284 0.12307 0.38115 0.0
O162 O 0.67499 0.25991 0.4581 0.0
O163 O 0.64502 0.32976 0.39879 0.0
O164 O 0.79173 0.23035 0.33924 0.0
O165 O 0.72892 0.29318 0.33476 0.0
C166 C 0.78033 0.28063 0.32049 0.0
O167 O 0.63125 0.23288 0.26674 0.0
O168 O 0.66446 0.16194 0.32595 0.0
O169 O 0.50688 0.23565 0.35294 0.0
O170 O 0.5743 0.23098 0.41894 0.0
H171 H 0.57414 0.14804 0.48345 0.0
H172 H 0.4879 0.99353 0.44047 0.0
H173 H 0.44831 0.14505 0.34798 0.0
O174 O 0.4292 0.7697 0.44195 0.0
Tb175 Tb 0.38783 0.71196 0.3831 0.0
Eu176 Eu 0.32171 0.58563 0.34107 0.0
C177 C 0.44325 0.75234 0.49468 0.0
O178 O 0.44433 0.69831 0.50601 0.0
C179 C 0.29236 0.65706 0.45147 0.0
O180 O 0.23473 0.5417 0.34389 0.0
C181 C 0.39144 0.52492 0.40249 0.0
C182 C 0.18665 0.56769 0.35773 0.0
O183 O 0.18189 0.62205 0.34902 0.0
C184 C 0.42215 0.65377 0.27294 0.0
C185 C 0.45208 0.5145 0.41304 0.0
C186 C 0.48009 0.54426 0.4585 0.0
C187 C 0.53748 0.53563 0.47173 0.0
C188 C 0.56609 0.4955 0.43511 0.0
C189 C 0.53785 0.46299 0.39115 0.0
C190 C 0.48076 0.47283 0.38115 0.0
O191 O 0.34391 0.67497 0.45812 0.0
O192 O 0.27405 0.64499 0.39882 0.0
O193 O 0.37347 0.79176 0.33932 0.0
O194 O 0.31061 0.72889 0.33478 0.0
C195 C 0.3232 0.78031 0.32061 0.0
O196 O 0.37093 0.63126 0.26674 0.0
O197 O 0.44188 0.66448 0.32595 0.0
O198 O 0.36817 0.50688 0.35293 0.0
O199 O 0.37284 0.57429 0.41894 0.0
H200 H 0.45578 0.57413 0.48345 0.0
H201 H 0.61029 0.48789 0.44047 0.0
H202 H 0.45877 0.44831 0.34798 0.0
O203 O 0.83411 0.42918 0.44193 0.0
Tb204 Tb 0.89186 0.38781 0.38309 0.0
Eu205 Eu 1.01819 0.3217 0.34108 0.0
C206 C 0.85148 0.44326 0.49465 0.0
O207 O 0.90551 0.44435 0.50597 0.0
C208 C 0.94677 0.29236 0.45149 0.0
O209 O 0.06212 0.23472 0.34389 0.0
C210 C 0.0789 0.39144 0.40249 0.0
C211 C 1.03612 0.18665 0.35773 0.0
O212 O 0.98177 0.18188 0.34903 0.0
C213 C 0.95004 0.42213 0.27294 0.0
C214 C 0.08932 0.45208 0.41304 0.0
C215 C 0.05956 0.48008 0.4585 0.0
C216 C 0.06819 0.53747 0.47173 0.0
C217 C 0.10831 0.56609 0.43511 0.0
C218 C 0.14082 0.53784 0.39114 0.0
C219 C 0.13099 0.48075 0.38114 0.0
O220 O 0.92885 0.34391 0.45813 0.0
O221 O 0.95884 0.27404 0.39884 0.0
O222 O 0.81207 0.37344 0.33931 0.0
O223 O 0.87494 0.31057 0.33479 0.0
C224 C 0.82352 0.32316 0.32061 0.0
O225 O 0.97256 0.37091 0.26675 0.0
O226 O 0.93933 0.44186 0.32595 0.0
O227 O 0.09694 0.36817 0.35293 0.0
O228 O 1.02953 0.37283 0.41894 0.0
H229 H 1.02969 0.45578 0.48345 0.0
H230 H 0.11592 0.61028 0.44047 0.0
H231 H 0.15551 0.45877 0.34798 0.0
O232 O 0.42922 0.83412 0.94192 0.0
Tb233 Tb 0.38784 0.89186 0.88308 0.0
Eu234 Eu 0.32171 1.01818 0.84106 0.0
C235 C 0.44326 0.85149 0.99466 0.0
O236 O 0.44433 0.90551 0.00599 0.0
C237 C 0.29235 0.94674 0.95144 0.0
O238 O 0.23473 0.06212 0.84389 0.0
C239 C 0.39144 0.07889 0.90249 0.0
C240 C 0.18665 1.03613 0.85772 0.0
O241 O 0.18188 0.98177 0.84901 0.0
C242 C 0.42215 0.95005 0.77292 0.0
C243 C 0.45208 0.08931 0.91304 0.0
C244 C 0.48009 0.05955 0.9585 0.0
C245 C 0.53748 0.06818 0.97173 0.0
C246 C 0.56609 0.10831 0.93511 0.0
C247 C 0.53785 0.14081 0.89114 0.0
C248 C 0.48075 0.13098 0.88114 0.0
O249 O 0.3439 0.92883 0.9581 0.0
O250 O 0.27404 0.95881 0.89879 0.0
O251 O 0.37347 0.8121 0.83924 0.0
O252 O 0.31063 0.8749 0.83476 0.0
C253 C 0.32319 0.82349 0.8205 0.0
O254 O 0.37093 0.97257 0.76673 0.0
O255 O 0.44187 0.93937 0.82594 0.0
O256 O 0.36817 0.09694 0.85294 0.0
O257 O 0.37284 1.02951 0.91893 0.0
H258 H 0.45578 1.02968 0.98344 0.0
H259 H 0.61029 0.11592 0.94047 0.0
H260 H 0.45877 0.1555 0.84798 0.0
O261 O 0.76971 0.4292 0.9419 0.0
Tb262 Tb 0.71195 0.38782 0.88308 0.0
Eu263 Eu 0.58564 0.3217 0.84107 0.0
C264 C 0.75234 0.44327 0.99463 0.0
O265 O 0.69831 0.44436 0.00595 0.0
C266 C 0.65707 0.29235 0.95146 0.0
O267 O 0.5417 0.23472 0.84389 0.0
C268 C 0.52493 0.39144 0.90249 0.0
C269 C 0.56769 0.18664 0.85773 0.0
O270 O 0.62205 0.18188 0.84901 0.0
C271 C 0.65377 0.42212 0.77292 0.0
C272 C 0.51451 0.45207 0.91304 0.0
C273 C 0.54427 0.48008 0.9585 0.0
C274 C 0.53564 0.53747 0.97173 0.0
C275 C 0.49551 0.56608 0.93511 0.0
C276 C 0.46301 0.53784 0.89114 0.0
C277 C 0.47284 0.48075 0.88114 0.0
O278 O 0.67499 0.34389 0.95811 0.0
O279 O 0.645 0.27403 0.89882 0.0
O280 O 0.79171 0.37343 0.83922 0.0
O281 O 0.7289 0.3106 0.83477 0.0
C282 C 0.78031 0.32315 0.82049 0.0
O283 O 0.63126 0.37091 0.76673 0.0
O284 O 0.66445 0.44185 0.82594 0.0
O285 O 0.50688 0.36816 0.85294 0.0
O286 O 0.57431 0.37283 0.91893 0.0
H287 H 0.57414 0.45578 0.98345 0.0
H288 H 0.4879 0.61028 0.94047 0.0
H289 H 0.44832 0.45877 0.84797 0.0
O290 O 0.17463 0.76969 0.94192 0.0
Tb291 Tb 0.21602 0.71195 0.88309 0.0
Eu292 Eu 0.28212 0.58564 0.84108 0.0
C293 C 0.16056 0.75232 0.99465 0.0
O294 O 0.15948 0.69829 0.00598 0.0
C295 C 0.31147 0.65705 0.95149 0.0
O296 O 0.3691 0.5417 0.84389 0.0
C297 C 0.21238 0.52492 0.90248 0.0
C298 C 0.41718 0.56769 0.85772 0.0
O299 O 0.42194 0.62205 0.84901 0.0
C300 C 0.1817 0.65378 0.77293 0.0
C301 C 0.15174 0.5145 0.91303 0.0
C302 C 0.12374 0.54426 0.95849 0.0
C303 C 0.06635 0.53563 0.97173 0.0
C304 C 1.03773 0.49551 0.93511 0.0
C305 C 0.06598 0.463 0.89114 0.0
C306 C 0.12307 0.47284 0.88114 0.0
O307 O 0.25992 0.67497 0.95813 0.0
O308 O 0.32979 0.64497 0.89884 0.0
O309 O 0.23038 0.79174 0.83931 0.0
O310 O 0.29325 0.72888 0.8348 0.0
C311 C 0.28066 0.7803 0.82061 0.0
O312 O 0.23292 0.63127 0.76674 0.0
O313 O 0.16198 0.66447 0.82594 0.0
O314 O 0.23565 0.50688 0.85293 0.0
O315 O 0.23098 0.5743 0.91893 0.0
H316 H 0.14804 0.57413 0.98344 0.0
H317 H 0.99354 0.48789 0.94047 0.0
H318 H 0.14505 0.44831 0.84797 0.0
O319 O 0.83414 0.17461 0.94195 0.0
Tb320 Tb 0.89187 0.21599 0.88311 0.0
Eu321 Eu 1.01819 0.28211 0.84108 0.0
C322 C 0.8515 0.16057 0.99469 0.0
O323 O 0.90553 0.15951 0.00603 0.0
C324 C 0.94676 0.31147 0.95147 0.0
O325 O 0.06212 0.36909 0.84389 0.0
C326 C 0.0789 0.21238 0.90249 0.0
C327 C 1.03613 0.41717 0.85772 0.0
O328 O 0.98177 0.42194 0.84901 0.0
C329 C 0.95004 0.18168 0.77294 0.0
C330 C 0.08932 0.15174 0.91304 0.0
C331 C 0.05956 0.12373 0.9585 0.0
C332 C 0.06819 0.06634 0.97173 0.0
C333 C 0.10831 1.03773 0.93511 0.0
C334 C 0.14082 0.06597 0.89114 0.0
C335 C 0.13099 0.12307 0.88114 0.0
O336 O 0.92885 0.25992 0.95813 0.0
O337 O 0.95884 0.32978 0.89883 0.0
O338 O 0.81207 0.23035 0.83933 0.0
O339 O 0.87493 0.29322 0.8348 0.0
C340 C 0.82351 0.28062 0.82063 0.0
O341 O 0.97256 0.2329 0.76675 0.0
O342 O 0.93936 0.16196 0.82595 0.0
O343 O 0.09694 0.23565 0.85294 0.0
O344 O 1.02952 0.23098 0.91894 0.0
H345 H 1.02969 0.14803 0.98345 0.0
H346 H 0.11593 0.99353 0.94047 0.0
H347 H 0.15551 0.14505 0.84798 0.0
O348 O 0.92921 0.26972 0.55271 0.0
Tb349 Tb 0.88784 0.21196 0.61153 0.0
Eu350 Eu 0.82171 0.08563 0.65354 0.0
C351 C 0.94328 0.25235 0.49998 0.0
O352 O 0.94438 0.19832 0.48866 0.0
C353 C 0.79237 0.15707 0.54315 0.0
O354 O 0.73473 1.04169 0.65072 0.0
C355 C 0.89144 1.02492 0.59212 0.0
C356 C 0.68665 0.06769 0.63688 0.0
O357 O 0.68189 0.12204 0.64559 0.0
C358 C 0.92214 0.15376 0.72168 0.0
C359 C 0.95208 1.0145 0.58157 0.0
C360 C 0.98009 1.04426 0.53611 0.0
C361 C 1.03748 1.03563 0.52288 0.0
C362 C 0.06609 0.9955 0.55949 0.0
C363 C 1.03785 0.963 0.60346 0.0
C364 C 0.98076 0.97283 0.61346 0.0
O365 O 0.84392 0.17499 0.5365 0.0
O366 O 0.77405 0.14499 0.59579 0.0
O367 O 0.87344 0.29171 0.65539 0.0
O368 O 0.81061 0.2289 0.65984 0.0
C369 C 0.82316 0.28031 0.67412 0.0
O370 O 0.87092 0.13125 0.72787 0.0
O371 O 0.94187 0.16446 0.66867 0.0
O372 O 0.86817 1.00688 0.64168 0.0
O373 O 0.87284 0.0743 0.57567 0.0
H374 H 0.95578 0.07413 0.51117 0.0
H375 H 0.11029 0.98789 0.55413 0.0
H376 H 0.95878 0.94831 0.64663 0.0
O377 O 0.33411 0.92921 0.55268 0.0
Tb378 Tb 0.39186 0.88784 0.61152 0.0
Eu379 Eu 0.51819 0.82171 0.65354 0.0
C380 C 0.35148 0.94326 0.49994 0.0
O381 O 0.40551 0.94433 0.48861 0.0
C382 C 0.44674 0.79236 0.54316 0.0
O383 O 0.56212 0.73473 0.65072 0.0
C384 C 0.5789 0.89143 0.59211 0.0
C385 C 0.53613 0.68665 0.63687 0.0
O386 O 0.48177 0.68188 0.64559 0.0
C387 C 0.45007 0.92215 0.72167 0.0
C388 C 0.58932 0.95207 0.58157 0.0
C389 C 0.55956 0.98008 0.53611 0.0
C390 C 0.56819 1.03747 0.52288 0.0
C391 C 0.60832 0.06608 0.55949 0.0
C392 C 0.64082 1.03784 0.60346 0.0
C393 C 0.63099 0.98075 0.61346 0.0
O394 O 0.42883 0.8439 0.5365 0.0
O395 O 0.45881 0.77405 0.59581 0.0
O396 O 0.3121 0.87346 0.65536 0.0
O397 O 0.37491 0.81063 0.65984 0.0
C398 C 0.3235 0.82318 0.67411 0.0
O399 O 0.47257 0.87093 0.72787 0.0
O400 O 0.43936 0.94187 0.66866 0.0
O401 O 0.59695 0.86816 0.64167 0.0
O402 O 0.52952 0.87283 0.57567 0.0
H403 H 0.52969 0.95578 0.51116 0.0
H404 H 0.61593 0.11028 0.55413 0.0
H405 H 0.65551 0.95876 0.64663 0.0
O406 O 0.67462 0.33411 0.55266 0.0
Tb407 Tb 0.71599 0.39185 0.61151 0.0
Eu408 Eu 0.78211 0.51818 0.65354 0.0
C409 C 0.66057 0.35148 0.49992 0.0
O410 O 0.6595 0.40551 0.48859 0.0
C411 C 0.81146 0.44675 0.54314 0.0
O412 O 0.86909 0.56211 0.65072 0.0
C413 C 0.71238 0.57889 0.59212 0.0
C414 C 0.91717 0.53612 0.63688 0.0
O415 O 0.92194 0.48176 0.64559 0.0
C416 C 0.68168 0.45004 0.72166 0.0
C417 C 0.65175 0.58931 0.58157 0.0
C418 C 0.62374 0.55955 0.53611 0.0
C419 C 0.56635 0.56819 0.52288 0.0
C420 C 0.53774 0.60831 0.55949 0.0
C421 C 0.56598 0.64082 0.60346 0.0
C422 C 0.62307 0.63098 0.61346 0.0
O423 O 0.75991 0.42884 0.53648 0.0
O424 O 0.82978 0.45882 0.59578 0.0
O425 O 0.73035 0.31205 0.65528 0.0
O426 O 0.79322 0.37492 0.65982 0.0
C427 C 0.78063 0.3235 0.67399 0.0
O428 O 0.7329 0.47255 0.72786 0.0
O429 O 0.66195 0.43933 0.66866 0.0
O430 O 0.73565 0.59693 0.64168 0.0
O431 O 0.73099 0.52952 0.57567 0.0
H432 H 0.64804 0.52968 0.51116 0.0
H433 H 0.49354 0.61592 0.55413 0.0
H434 H 0.64505 0.6555 0.64663 0.0
O435 O 0.26971 0.67462 0.55268 0.0
Tb436 Tb 0.21196 0.716 0.61151 0.0
Eu437 Eu 0.08564 0.78211 0.65353 0.0
C438 C 0.25234 0.66055 0.49995 0.0
O439 O 0.19831 0.65946 0.48862 0.0
C440 C 0.15706 0.81145 0.54312 0.0
O441 O 1.04171 0.86909 0.65071 0.0
C442 C 1.02492 0.71237 0.59212 0.0
C443 C 0.0677 0.91717 0.63688 0.0
O444 O 0.12206 0.92193 0.64558 0.0
C445 C 0.15378 0.68168 0.72166 0.0
C446 C 1.0145 0.65173 0.58157 0.0
C447 C 1.04426 0.62373 0.53611 0.0
C448 C 1.03563 0.56634 0.52288 0.0
C449 C 0.99551 0.53773 0.5595 0.0
C450 C 0.963 0.56597 0.60346 0.0
C451 C 0.97284 0.62306 0.61346 0.0
O452 O 0.17498 0.7599 0.53647 0.0
O453 O 0.14498 0.82977 0.59576 0.0
O454 O 0.29176 0.73037 0.6553 0.0
O455 O 0.22889 0.79324 0.65981 0.0
C456 C 0.28031 0.78065 0.67399 0.0
O457 O 0.13127 0.7329 0.72786 0.0
O458 O 0.16449 0.66196 0.66866 0.0
O459 O 1.00689 0.73564 0.64168 0.0
O460 O 0.0743 0.73098 0.57567 0.0
H461 H 0.07414 0.64803 0.51116 0.0
H462 H 0.9879 0.49353 0.55413 0.0
H463 H 0.94832 0.64504 0.64663 0.0
loop_
_geom_bond_atom_site_label_1
_geom_bond_atom_site_label_2
_geom_bond_distance
_geom_bond_site_symmetry_2
_ccdc_geom_bond_type
O0 Tb1 2.292 . S
O0 C3 1.255 . S
Tb1 O0 2.292 . S
Tb1 O17 2.326 . S
Tb1 O19 2.500 . S
Tb1 O20 2.473 . S
Tb1 O23 2.324 . S
Eu2 O6 2.292 1_545 S
Eu2 C7 2.852 1_545 S
Eu2 O18 2.324 . S
Eu2 O22 2.326 . S
Eu2 O24 2.500 1_545 S
Eu2 O25 2.473 . S
C3 O0 1.255 . S
C3 O4 1.247 1_554 S
O4 C3 1.247 1_556 S
C5 O17 1.242 . S
C5 O18 1.258 . S
O6 Eu2 2.292 1_565 S
O6 C8 1.256 . S
C7 Eu2 2.852 1_565 S
C7 C11 1.503 . S
C7 O24 1.273 . S
C7 O25 1.257 1_565 S
C8 O6 1.256 . S
C8 O9 1.242 1_565 S
O9 C8 1.242 1_545 S
C10 O22 1.242 . S
C10 O23 1.258 . S
C11 C7 1.503 . S
C11 C12 1.379 . S
C11 C16 1.392 . S
C12 C11 1.379 . S
C12 C13 1.404 . S
C12 H26 0.929 1_565 S
C13 C12 1.404 . S
C13 C14 1.389 . S
C14 C13 1.389 . S
C14 C15 1.399 . S
C14 H27 0.931 . S
C15 C14 1.399 . S
C15 C16 1.390 . S
C16 C11 1.392 . S
C16 C15 1.390 . S
C16 H28 0.929 . S
O17 Tb1 2.326 . S
O17 C5 1.242 . S
O18 Eu2 2.324 . S
O18 C5 1.258 . S
O19 Tb1 2.500 . S
O19 C21 1.273 . S
O20 Tb1 2.473 . S
O20 C21 1.257 . S
C21 O19 1.273 . S
C21 O20 1.257 . S
O22 Eu2 2.326 . S
O22 C10 1.242 . S
O23 Tb1 2.324 . S
O23 C10 1.258 . S
O24 Eu2 2.500 1_565 S
O24 C7 1.273 . S
O25 Eu2 2.473 . S
O25 C7 1.257 1_545 S
H26 C12 0.929 1_545 S
H27 C14 0.931 . S
H28 C16 0.929 . S
O29 Tb30 2.292 . S
O29 C32 1.255 . S
Tb30 O29 2.292 . S
Tb30 O46 2.326 . S
Tb30 O48 2.500 . S
Tb30 O49 2.473 . S
Tb30 O52 2.324 . S
Eu31 O35 2.292 . S
Eu31 C36 2.852 . S
Eu31 O47 2.324 . S
Eu31 O51 2.326 . S
Eu31 O53 2.500 . S
Eu31 O54 2.473 . S
C32 O29 1.255 . S
C32 O33 1.247 1_554 S
O33 C32 1.247 1_556 S
C34 O46 1.242 . S
C34 O47 1.258 . S
O35 Eu31 2.292 . S
O35 C37 1.255 . S
C36 Eu31 2.852 . S
C36 C40 1.503 . S
C36 O53 1.273 . S
C36 O54 1.257 . S
C37 O35 1.255 . S
C37 O38 1.247 . S
O38 C37 1.247 . S
C39 O51 1.242 . S
C39 O52 1.258 . S
C40 C36 1.503 . S
C40 C41 1.379 . S
C40 C45 1.392 . S
C41 C40 1.379 . S
C41 C42 1.404 . S
C41 H55 0.929 . S
C42 C41 1.404 . S
C42 C43 1.389 . S
C43 C42 1.389 . S
C43 C44 1.399 . S
C43 H56 0.931 . S
C44 C43 1.399 . S
C44 C45 1.390 . S
C45 C40 1.392 . S
C45 C44 1.390 . S
C45 H57 0.929 . S
O46 Tb30 2.326 . S
O46 C34 1.242 . S
O47 Eu31 2.324 . S
O47 C34 1.258 . S
O48 Tb30 2.500 . S
O48 C50 1.273 . S
O49 Tb30 2.473 . S
O49 C50 1.257 . S
C50 O48 1.273 . S
C50 O49 1.257 . S
O51 Eu31 2.326 . S
O51 C39 1.242 . S
O52 Tb30 2.324 . S
O52 C39 1.258 . S
O53 Eu31 2.500 . S
O53 C36 1.273 . S
O54 Eu31 2.473 . S
O54 C36 1.257 . S
H55 C41 0.929 . S
H56 C43 0.931 . S
H57 C45 0.929 . S
O58 Tb59 2.292 . S
O58 C61 1.255 . S
Tb59 O58 2.292 . S
Tb59 O75 2.326 . S
Tb59 O77 2.500 . S
Tb59 O78 2.473 . S
Tb59 O81 2.324 . S
Eu60 O64 2.292 . S
Eu60 C65 2.852 . S
Eu60 O76 2.324 . S
Eu60 O80 2.326 . S
Eu60 O82 2.500 . S
Eu60 O83 2.473 . S
C61 O58 1.255 . S
C61 O62 1.247 1_554 S
O62 C61 1.247 1_556 S
C63 O75 1.242 . S
C63 O76 1.258 . S
O64 Eu60 2.292 . S
O64 C66 1.255 . S
C65 Eu60 2.852 . S
C65 C69 1.503 . S
C65 O82 1.273 . S
C65 O83 1.257 . S
C66 O64 1.255 . S
C66 O67 1.247 . S
O67 C66 1.247 . S
C68 O80 1.242 . S
C68 O81 1.258 . S
C69 C65 1.503 . S
C69 C70 1.379 . S
C69 C74 1.392 . S
C70 C69 1.379 . S
C70 C71 1.404 . S
C70 H84 0.929 . S
C71 C70 1.404 . S
C71 C72 1.393 . S
C72 C71 1.393 . S
C72 C73 1.414 . S
C72 H85 0.912 1_655 S
C73 C72 1.414 . S
C73 C74 1.390 . S
C74 C69 1.392 . S
C74 C73 1.390 . S
C74 H86 0.929 . S
O75 Tb59 2.326 . S
O75 C63 1.242 . S
O76 Eu60 2.324 . S
O76 C63 1.258 . S
O77 Tb59 2.500 . S
O77 C79 1.273 . S
O78 Tb59 2.473 . S
O78 C79 1.257 . S
C79 O77 1.273 . S
C79 O78 1.257 . S
O80 Eu60 2.326 . S
O80 C68 1.242 . S
O81 Tb59 2.324 . S
O81 C68 1.258 . S
O82 Eu60 2.500 . S
O82 C65 1.273 . S
O83 Eu60 2.473 . S
O83 C65 1.257 . S
H84 C70 0.929 . S
H85 C72 0.912 1_455 S
H86 C74 0.929 . S
O87 Tb88 2.292 . S
O87 C90 1.255 . S
Tb88 O87 2.292 . S
Tb88 O104 2.326 . S
Tb88 O106 2.500 . S
Tb88 O107 2.473 . S
Tb88 O110 2.324 . S
Eu89 O93 2.292 1_455 S
Eu89 C94 2.852 1_455 S
Eu89 O105 2.324 . S
Eu89 O109 2.326 . S
Eu89 O111 2.500 1_455 S
Eu89 O112 2.473 . S
C90 O87 1.255 . S
C90 O91 1.247 1_554 S
O91 C90 1.247 1_556 S
C92 O104 1.242 . S
C92 O105 1.258 . S
O93 Eu89 2.292 1_655 S
O93 C95 1.256 . S
C94 Eu89 2.852 1_655 S
C94 C98 1.503 . S
C94 O111 1.273 . S
C94 O112 1.257 1_655 S
C95 O93 1.256 . S
C95 O96 1.242 1_655 S
O96 C95 1.242 1_455 S
C97 O109 1.242 . S
C97 O110 1.258 . S
C98 C94 1.503 . S
C98 C99 1.379 . S
C98 C103 1.392 . S
C99 C98 1.379 . S
C99 C100 1.404 . S
C99 H113 0.929 1_655 S
C100 C99 1.404 . S
C100 C101 1.393 . S
C101 C100 1.393 . S
C101 C102 1.414 . S
C101 H114 0.912 1_565 S
C102 C101 1.414 . S
C102 C103 1.390 . S
C103 C98 1.392 . S
C103 C102 1.390 . S
C103 H115 0.929 . S
O104 Tb88 2.326 . S
O104 C92 1.242 . S
O105 Eu89 2.324 . S
O105 C92 1.258 . S
O106 Tb88 2.500 . S
O106 C108 1.273 . S
O107 Tb88 2.473 . S
O107 C108 1.257 . S
C108 O106 1.273 . S
C108 O107 1.257 . S
O109 Eu89 2.326 . S
O109 C97 1.242 . S
O110 Tb88 2.324 . S
O110 C97 1.258 . S
O111 Eu89 2.500 1_655 S
O111 C94 1.273 . S
O112 Eu89 2.473 . S
O112 C94 1.257 1_455 S
H113 C99 0.929 1_455 S
H114 C101 0.912 1_545 S
H115 C103 0.929 . S
O116 Tb117 2.292 . S
O116 C119 1.255 . S
Tb117 O116 2.292 . S
Tb117 O133 2.326 . S
Tb117 O135 2.500 . S
Tb117 O136 2.473 . S
Tb117 O139 2.324 . S
Eu118 O122 2.292 1_565 S
Eu118 C123 2.852 1_565 S
Eu118 O134 2.324 . S
Eu118 O138 2.326 . S
Eu118 O140 2.500 1_565 S
Eu118 O141 2.473 . S
C119 O116 1.255 . S
C119 O120 1.247 . S
O120 C119 1.247 . S
C121 O133 1.242 . S
C121 O134 1.258 . S
O122 Eu118 2.292 1_545 S
O122 C124 1.256 . S
C123 Eu118 2.852 1_545 S
C123 C127 1.503 . S
C123 O140 1.273 . S
C123 O141 1.257 1_545 S
C124 O122 1.256 . S
C124 O125 1.242 1_545 S
O125 C124 1.242 1_565 S
C126 O138 1.242 . S
C126 O139 1.258 . S
C127 C123 1.503 . S
C127 C128 1.379 . S
C127 C132 1.392 . S
C128 C127 1.379 . S
C128 C129 1.404 . S
C128 H142 0.929 1_545 S
C129 C128 1.404 . S
C129 C130 1.393 . S
C130 C129 1.393 . S
C130 C131 1.414 . S
C130 H143 0.912 1_455 S
C131 C130 1.414 . S
C131 C132 1.390 . S
C132 C127 1.392 . S
C132 C131 1.390 . S
C132 H144 0.929 . S
O133 Tb117 2.326 . S
O133 C121 1.242 . S
O134 Eu118 2.324 . S
O134 C121 1.258 . S
O135 Tb117 2.500 . S
O135 C137 1.273 . S
O136 Tb117 2.473 . S
O136 C137 1.257 . S
C137 O135 1.273 . S
C137 O136 1.257 . S
O138 Eu118 2.326 . S
O138 C126 1.242 . S
O139 Tb117 2.324 . S
O139 C126 1.258 . S
O140 Eu118 2.500 1_545 S
O140 C123 1.273 . S
O141 Eu118 2.473 . S
O141 C123 1.257 1_565 S
H142 C128 0.929 1_565 S
H143 C130 0.912 1_655 S
H144 C132 0.929 . S
O145 Tb146 2.292 . S
O145 C148 1.255 . S
Tb146 O145 2.292 . S
Tb146 O162 2.326 . S
Tb146 O164 2.500 . S
Tb146 O165 2.473 . S
Tb146 O168 2.324 . S
Eu147 O151 2.292 . S
Eu147 C152 2.852 . S
Eu147 O163 2.324 . S
Eu147 O167 2.326 . S
Eu147 O169 2.500 . S
Eu147 O170 2.473 . S
C148 O145 1.255 . S
C148 O149 1.247 . S
O149 C148 1.247 . S
C150 O162 1.242 . S
C150 O163 1.258 . S
O151 Eu147 2.292 . S
O151 C153 1.255 . S
C152 Eu147 2.852 . S
C152 C156 1.503 . S
C152 O169 1.273 . S
C152 O170 1.257 . S
C153 O151 1.255 . S
C153 O154 1.247 . S
O154 C153 1.247 . S
C155 O167 1.242 . S
C155 O168 1.258 . S
C156 C152 1.503 . S
C156 C157 1.379 . S
C156 C161 1.392 . S
C157 C156 1.379 . S
C157 C158 1.404 . S
C157 H171 0.929 . S
C158 C157 1.404 . S
C158 C159 1.393 . S
C159 C158 1.393 . S
C159 C160 1.414 . S
C159 H172 0.912 1_545 S
C160 C159 1.414 . S
C160 C161 1.390 . S
C161 C156 1.392 . S
C161 C160 1.390 . S
C161 H173 0.929 . S
O162 Tb146 2.326 . S
O162 C150 1.242 . S
O163 Eu147 2.324 . S
O163 C150 1.258 . S
O164 Tb146 2.500 . S
O164 C166 1.273 . S
O165 Tb146 2.473 . S
O165 C166 1.257 . S
C166 O164 1.273 . S
C166 O165 1.257 . S
O167 Eu147 2.326 . S
O167 C155 1.242 . S
O168 Tb146 2.324 . S
O168 C155 1.258 . S
O169 Eu147 2.500 . S
O169 C152 1.273 . S
O170 Eu147 2.473 . S
O170 C152 1.257 . S
H171 C157 0.929 . S
H172 C159 0.912 1_565 S
H173 C161 0.929 . S
O174 Tb175 2.292 . S
O174 C177 1.255 . S
Tb175 O174 2.292 . S
Tb175 O191 2.326 . S
Tb175 O193 2.500 . S
Tb175 O194 2.473 . S
Tb175 O197 2.324 . S
Eu176 O180 2.292 . S
Eu176 C181 2.852 . S
Eu176 O192 2.324 . S
Eu176 O196 2.326 . S
Eu176 O198 2.500 . S
Eu176 O199 2.473 . S
C177 O174 1.255 . S
C177 O178 1.247 . S
O178 C177 1.247 . S
C179 O191 1.242 . S
C179 O192 1.258 . S
O180 Eu176 2.292 . S
O180 C182 1.255 . S
C181 Eu176 2.852 . S
C181 C185 1.503 . S
C181 O198 1.273 . S
C181 O199 1.257 . S
C182 O180 1.255 . S
C182 O183 1.247 . S
O183 C182 1.247 . S
C184 O196 1.242 . S
C184 O197 1.258 . S
C185 C181 1.503 . S
C185 C186 1.379 . S
C185 C190 1.392 . S
C186 C185 1.379 . S
C186 C187 1.404 . S
C186 H200 0.929 . S
C187 C186 1.404 . S
C187 C188 1.389 . S
C188 C187 1.389 . S
C188 C189 1.399 . S
C188 H201 0.931 . S
C189 C188 1.399 . S
C189 C190 1.390 . S
C190 C185 1.392 . S
C190 C189 1.390 . S
C190 H202 0.929 . S
O191 Tb175 2.326 . S
O191 C179 1.242 . S
O192 Eu176 2.324 . S
O192 C179 1.258 . S
O193 Tb175 2.500 . S
O193 C195 1.273 . S
O194 Tb175 2.473 . S
O194 C195 1.257 . S
C195 O193 1.273 . S
C195 O194 1.257 . S
O196 Eu176 2.326 . S
O196 C184 1.242 . S
O197 Tb175 2.324 . S
O197 C184 1.258 . S
O198 Eu176 2.500 . S
O198 C181 1.273 . S
O199 Eu176 2.473 . S
O199 C181 1.257 . S
H200 C186 0.929 . S
H201 C188 0.931 . S
H202 C190 0.929 . S
O203 Tb204 2.292 . S
O203 C206 1.255 . S
Tb204 O203 2.292 . S
Tb204 O220 2.326 . S
Tb204 O222 2.500 . S
Tb204 O223 2.473 . S
Tb204 O226 2.324 . S
Eu205 O209 2.292 1_655 S
Eu205 C210 2.852 1_655 S
Eu205 O221 2.324 . S
Eu205 O225 2.326 . S
Eu205 O227 2.500 1_655 S
Eu205 O228 2.473 . S
C206 O203 1.255 . S
C206 O207 1.247 . S
O207 C206 1.247 . S
C208 O220 1.242 . S
C208 O221 1.258 . S
O209 Eu205 2.292 1_455 S
O209 C211 1.256 . S
C210 Eu205 2.852 1_455 S
C210 C214 1.503 . S
C210 O227 1.273 . S
C210 O228 1.257 1_455 S
C211 O209 1.256 . S
C211 O212 1.242 1_455 S
O212 C211 1.242 1_655 S
C213 O225 1.242 . S
C213 O226 1.258 . S
C214 C210 1.503 . S
C214 C215 1.379 . S
C214 C219 1.392 . S
C215 C214 1.379 . S
C215 C216 1.404 . S
C215 H229 0.929 1_455 S
C216 C215 1.404 . S
C216 C217 1.389 . S
C217 C216 1.389 . S
C217 C218 1.399 . S
C217 H230 0.931 . S
C218 C217 1.399 . S
C218 C219 1.390 . S
C219 C214 1.392 . S
C219 C218 1.390 . S
C219 H231 0.929 . S
O220 Tb204 2.326 . S
O220 C208 1.242 . S
O221 Eu205 2.324 . S
O221 C208 1.258 . S
O222 Tb204 2.500 . S
O222 C224 1.273 . S
O223 Tb204 2.473 . S
O223 C224 1.257 . S
C224 O222 1.273 . S
C224 O223 1.257 . S
O225 Eu205 2.326 . S
O225 C213 1.242 . S
O226 Tb204 2.324 . S
O226 C213 1.258 . S
O227 Eu205 2.500 1_455 S
O227 C210 1.273 . S
O228 Eu205 2.473 . S
O228 C210 1.257 1_655 S
H229 C215 0.929 1_655 S
H230 C217 0.931 . S
H231 C219 0.929 . S
O232 Tb233 2.292 . S
O232 C235 1.255 . S
Tb233 O232 2.292 . S
Tb233 O249 2.326 . S
Tb233 O251 2.500 . S
Tb233 O252 2.473 . S
Tb233 O255 2.324 . S
Eu234 O238 2.292 1_565 S
Eu234 C239 2.852 1_565 S
Eu234 O250 2.324 . S
Eu234 O254 2.326 . S
Eu234 O256 2.500 1_565 S
Eu234 O257 2.473 . S
C235 O232 1.255 . S
C235 O236 1.247 1_556 S
O236 C235 1.247 1_554 S
C237 O249 1.242 . S
C237 O250 1.258 . S
O238 Eu234 2.292 1_545 S
O238 C240 1.256 . S
C239 Eu234 2.852 1_545 S
C239 C243 1.503 . S
C239 O256 1.273 . S
C239 O257 1.257 1_545 S
C240 O238 1.256 . S
C240 O241 1.242 1_545 S
O241 C240 1.242 1_565 S
C242 O254 1.242 . S
C242 O255 1.258 . S
C243 C239 1.503 . S
C243 C244 1.379 . S
C243 C248 1.392 . S
C244 C243 1.379 . S
C244 C245 1.404 . S
C244 H258 0.929 1_545 S
C245 C244 1.404 . S
C245 C246 1.389 . S
C246 C245 1.389 . S
C246 C247 1.399 . S
C246 H259 0.931 . S
C247 C246 1.399 . S
C247 C248 1.390 . S
C248 C243 1.392 . S
C248 C247 1.390 . S
C248 H260 0.929 . S
O249 Tb233 2.326 . S
O249 C237 1.242 . S
O250 Eu234 2.324 . S
O250 C237 1.258 . S
O251 Tb233 2.500 . S
O251 C253 1.273 . S
O252 Tb233 2.473 . S
O252 C253 1.257 . S
C253 O251 1.273 . S
C253 O252 1.257 . S
O254 Eu234 2.326 . S
O254 C242 1.242 . S
O255 Tb233 2.324 . S
O255 C242 1.258 . S
O256 Eu234 2.500 1_545 S
O256 C239 1.273 . S
O257 Eu234 2.473 . S
O257 C239 1.257 1_565 S
H258 C244 0.929 1_565 S
H259 C246 0.931 . S
H260 C248 0.929 . S
O261 Tb262 2.292 . S
O261 C264 1.255 . S
Tb262 O261 2.292 . S
Tb262 O278 2.326 . S
Tb262 O280 2.500 . S
Tb262 O281 2.473 . S
Tb262 O284 2.324 . S
Eu263 O267 2.292 . S
Eu263 C268 2.852 . S
Eu263 O279 2.324 . S
Eu263 O283 2.326 . S
Eu263 O285 2.500 . S
Eu263 O286 2.473 . S
C264 O261 1.255 . S
C264 O265 1.247 1_556 S
O265 C264 1.247 1_554 S
C266 O278 1.242 . S
C266 O279 1.258 . S
O267 Eu263 2.292 . S
O267 C269 1.255 . S
C268 Eu263 2.852 . S
C268 C272 1.503 . S
C268 O285 1.273 . S
C268 O286 1.257 . S
C269 O267 1.255 . S
C269 O270 1.247 . S
O270 C269 1.247 . S
C271 O283 1.242 . S
C271 O284 1.258 . S
C272 C268 1.503 . S
C272 C273 1.379 . S
C272 C277 1.392 . S
C273 C272 1.379 . S
C273 C274 1.404 . S
C273 H287 0.929 . S
C274 C273 1.404 . S
C274 C275 1.389 . S
C275 C274 1.389 . S
C275 C276 1.399 . S
C275 H288 0.931 . S
C276 C275 1.399 . S
C276 C277 1.390 . S
C277 C272 1.392 . S
C277 C276 1.390 . S
C277 H289 0.929 . S
O278 Tb262 2.326 . S
O278 C266 1.242 . S
O279 Eu263 2.324 . S
O279 C266 1.258 . S
O280 Tb262 2.500 . S
O280 C282 1.273 . S
O281 Tb262 2.473 . S
O281 C282 1.257 . S
C282 O280 1.273 . S
C282 O281 1.257 . S
O283 Eu263 2.326 . S
O283 C271 1.242 . S
O284 Tb262 2.324 . S
O284 C271 1.258 . S
O285 Eu263 2.500 . S
O285 C268 1.273 . S
O286 Eu263 2.473 . S
O286 C268 1.257 . S
H287 C273 0.929 . S
H288 C275 0.931 . S
H289 C277 0.929 . S
O290 Tb291 2.292 . S
O290 C293 1.255 . S
Tb291 O290 2.292 . S
Tb291 O307 2.326 . S
Tb291 O309 2.500 . S
Tb291 O310 2.473 . S
Tb291 O313 2.324 . S
Eu292 O296 2.292 . S
Eu292 C297 2.852 . S
Eu292 O308 2.324 . S
Eu292 O312 2.326 . S
Eu292 O314 2.500 . S
Eu292 O315 2.473 . S
C293 O290 1.255 . S
C293 O294 1.247 1_556 S
O294 C293 1.247 1_554 S
C295 O307 1.242 . S
C295 O308 1.258 . S
O296 Eu292 2.292 . S
O296 C298 1.255 . S
C297 Eu292 2.852 . S
C297 C301 1.503 . S
C297 O314 1.273 . S
C297 O315 1.257 . S
C298 O296 1.255 . S
C298 O299 1.247 . S
O299 C298 1.247 . S
C300 O312 1.242 . S
C300 O313 1.258 . S
C301 C297 1.503 . S
C301 C302 1.379 . S
C301 C306 1.392 . S
C302 C301 1.379 . S
C302 C303 1.404 . S
C302 H316 0.929 . S
C303 C302 1.404 . S
C303 C304 1.393 . S
C304 C303 1.393 . S
C304 C305 1.414 . S
C304 H317 0.912 1_455 S
C305 C304 1.414 . S
C305 C306 1.390 . S
C306 C301 1.392 . S
C306 C305 1.390 . S
C306 H318 0.929 . S
O307 Tb291 2.326 . S
O307 C295 1.242 . S
O308 Eu292 2.324 . S
O308 C295 1.258 . S
O309 Tb291 2.500 . S
O309 C311 1.273 . S
O310 Tb291 2.473 . S
O310 C311 1.257 . S
C311 O309 1.273 . S
C311 O310 1.257 . S
O312 Eu292 2.326 . S
O312 C300 1.242 . S
O313 Tb291 2.324 . S
O313 C300 1.258 . S
O314 Eu292 2.500 . S
O314 C297 1.273 . S
O315 Eu292 2.473 . S
O315 C297 1.257 . S
H316 C302 0.929 . S
H317 C304 0.912 1_655 S
H318 C306 0.929 . S
O319 Tb320 2.292 . S
O319 C322 1.255 . S
Tb320 O319 2.292 . S
Tb320 O336 2.326 . S
Tb320 O338 2.500 . S
Tb320 O339 2.473 . S
Tb320 O342 2.324 . S
Eu321 O325 2.292 1_655 S
Eu321 C326 2.852 1_655 S
Eu321 O337 2.324 . S
Eu321 O341 2.326 . S
Eu321 O343 2.500 1_655 S
Eu321 O344 2.473 . S
C322 O319 1.255 . S
C322 O323 1.247 1_556 S
O323 C322 1.247 1_554 S
C324 O336 1.242 . S
C324 O337 1.258 . S
O325 Eu321 2.292 1_455 S
O325 C327 1.256 . S
C326 Eu321 2.852 1_455 S
C326 C330 1.503 . S
C326 O343 1.273 . S
C326 O344 1.257 1_455 S
C327 O325 1.256 . S
C327 O328 1.242 1_455 S
O328 C327 1.242 1_655 S
C329 O341 1.242 . S
C329 O342 1.258 . S
C330 C326 1.503 . S
C330 C331 1.379 . S
C330 C335 1.392 . S
C331 C330 1.379 . S
C331 C332 1.404 . S
C331 H345 0.929 1_455 S
C332 C331 1.404 . S
C332 C333 1.393 . S
C333 C332 1.393 . S
C333 C334 1.414 . S
C333 H346 0.912 1_545 S
C334 C333 1.414 . S
C334 C335 1.390 . S
C335 C330 1.392 . S
C335 C334 1.390 . S
C335 H347 0.929 . S
O336 Tb320 2.326 . S
O336 C324 1.242 . S
O337 Eu321 2.324 . S
O337 C324 1.258 . S
O338 Tb320 2.500 . S
O338 C340 1.273 . S
O339 Tb320 2.473 . S
O339 C340 1.257 . S
C340 O338 1.273 . S
C340 O339 1.257 . S
O341 Eu321 2.326 . S
O341 C329 1.242 . S
O342 Tb320 2.324 . S
O342 C329 1.258 . S
O343 Eu321 2.500 1_455 S
O343 C326 1.273 . S
O344 Eu321 2.473 . S
O344 C326 1.257 1_655 S
H345 C331 0.929 1_655 S
H346 C333 0.912 1_565 S
H347 C335 0.929 . S
O348 Tb349 2.292 . S
O348 C351 1.255 . S
Tb349 O348 2.292 . S
Tb349 O365 2.326 . S
Tb349 O367 2.500 . S
Tb349 O368 2.473 . S
Tb349 O371 2.324 . S
Eu350 O354 2.292 1_545 S
Eu350 C355 2.852 1_545 S
Eu350 O366 2.324 . S
Eu350 O370 2.326 . S
Eu350 O372 2.500 1_545 S
Eu350 O373 2.473 . S
C351 O348 1.255 . S
C351 O352 1.247 . S
O352 C351 1.247 . S
C353 O365 1.242 . S
C353 O366 1.258 . S
O354 Eu350 2.292 1_565 S
O354 C356 1.256 . S
C355 Eu350 2.852 1_565 S
C355 C359 1.503 . S
C355 O372 1.273 . S
C355 O373 1.257 1_565 S
C356 O354 1.256 . S
C356 O357 1.242 1_565 S
O357 C356 1.242 1_545 S
C358 O370 1.242 . S
C358 O371 1.258 . S
C359 C355 1.503 . S
C359 C360 1.379 . S
C359 C364 1.392 . S
C360 C359 1.379 . S
C360 C361 1.404 . S
C360 H374 0.929 1_565 S
C361 C360 1.404 . S
C361 C362 1.393 . S
C362 C361 1.393 . S
C362 C363 1.414 . S
C362 H375 0.912 1_655 S
C363 C362 1.414 . S
C363 C364 1.390 . S
C364 C359 1.392 . S
C364 C363 1.390 . S
C364 H376 0.929 . S
O365 Tb349 2.326 . S
O365 C353 1.242 . S
O366 Eu350 2.324 . S
O366 C353 1.258 . S
O367 Tb349 2.500 . S
O367 C369 1.273 . S
O368 Tb349 2.473 . S
O368 C369 1.257 . S
C369 O367 1.273 . S
C369 O368 1.257 . S
O370 Eu350 2.326 . S
O370 C358 1.242 . S
O371 Tb349 2.324 . S
O371 C358 1.258 . S
O372 Eu350 2.500 1_565 S
O372 C355 1.273 . S
O373 Eu350 2.473 . S
O373 C355 1.257 1_545 S
H374 C360 0.929 1_545 S
H375 C362 0.912 1_455 S
H376 C364 0.929 . S
O377 Tb378 2.292 . S
O377 C380 1.255 . S
Tb378 O377 2.292 . S
Tb378 O394 2.326 . S
Tb378 O396 2.500 . S
Tb378 O397 2.473 . S
Tb378 O400 2.324 . S
Eu379 O383 2.292 . S
Eu379 C384 2.852 . S
Eu379 O395 2.324 . S
Eu379 O399 2.326 . S
Eu379 O401 2.500 . S
Eu379 O402 2.473 . S
C380 O377 1.255 . S
C380 O381 1.247 . S
O381 C380 1.247 . S
C382 O394 1.242 . S
C382 O395 1.258 . S
O383 Eu379 2.292 . S
O383 C385 1.255 . S
C384 Eu379 2.852 . S
C384 C388 1.503 . S
C384 O401 1.273 . S
C384 O402 1.257 . S
C385 O383 1.255 . S
C385 O386 1.247 . S
O386 C385 1.247 . S
C387 O399 1.242 . S
C387 O400 1.258 . S
C388 C384 1.503 . S
C388 C389 1.379 . S
C388 C393 1.392 . S
C389 C388 1.379 . S
C389 C390 1.404 . S
C389 H403 0.929 . S
C390 C389 1.404 . S
C390 C391 1.393 . S
C391 C390 1.393 . S
C391 C392 1.414 . S
C391 H404 0.912 1_565 S
C392 C391 1.414 . S
C392 C393 1.390 . S
C393 C388 1.392 . S
C393 C392 1.390 . S
C393 H405 0.929 . S
O394 Tb378 2.326 . S
O394 C382 1.242 . S
O395 Eu379 2.324 . S
O395 C382 1.258 . S
O396 Tb378 2.500 . S
O396 C398 1.273 . S
O397 Tb378 2.473 . S
O397 C398 1.257 . S
C398 O396 1.273 . S
C398 O397 1.257 . S
O399 Eu379 2.326 . S
O399 C387 1.242 . S
O400 Tb378 2.324 . S
O400 C387 1.258 . S
O401 Eu379 2.500 . S
O401 C384 1.273 . S
O402 Eu379 2.473 . S
O402 C384 1.257 . S
H403 C389 0.929 . S
H404 C391 0.912 1_545 S
H405 C393 0.929 . S
O406 Tb407 2.292 . S
O406 C409 1.255 . S
Tb407 O406 2.292 . S
Tb407 O423 2.326 . S
Tb407 O425 2.500 . S
Tb407 O426 2.473 . S
Tb407 O429 2.324 . S
Eu408 O412 2.292 . S
Eu408 C413 2.852 . S
Eu408 O424 2.324 . S
Eu408 O428 2.326 . S
Eu408 O430 2.500 . S
Eu408 O431 2.473 . S
C409 O406 1.255 . S
C409 O410 1.247 . S
O410 C409 1.247 . S
C411 O423 1.242 . S
C411 O424 1.258 . S
O412 Eu408 2.292 . S
O412 C414 1.255 . S
C413 Eu408 2.852 . S
C413 C417 1.503 . S
C413 O430 1.273 . S
C413 O431 1.257 . S
C414 O412 1.255 . S
C414 O415 1.247 . S
O415 C414 1.247 . S
C416 O428 1.242 . S
C416 O429 1.258 . S
C417 C413 1.503 . S
C417 C418 1.379 . S
C417 C422 1.392 . S
C418 C417 1.379 . S
C418 C419 1.404 . S
C418 H432 0.929 . S
C419 C418 1.404 . S
C419 C420 1.389 . S
C420 C419 1.389 . S
C420 C421 1.399 . S
C420 H433 0.931 . S
C421 C420 1.399 . S
C421 C422 1.390 . S
C422 C417 1.392 . S
C422 C421 1.390 . S
C422 H434 0.929 . S
O423 Tb407 2.326 . S
O423 C411 1.242 . S
O424 Eu408 2.324 . S
O424 C411 1.258 . S
O425 Tb407 2.500 . S
O425 C427 1.273 . S
O426 Tb407 2.473 . S
O426 C427 1.257 . S
C427 O425 1.273 . S
C427 O426 1.257 . S
O428 Eu408 2.326 . S
O428 C416 1.242 . S
O429 Tb407 2.324 . S
O429 C416 1.258 . S
O430 Eu408 2.500 . S
O430 C413 1.273 . S
O431 Eu408 2.473 . S
O431 C413 1.257 . S
H432 C418 0.929 . S
H433 C420 0.931 . S
H434 C422 0.929 . S
O435 Tb436 2.292 . S
O435 C438 1.255 . S
Tb436 O435 2.292 . S
Tb436 O452 2.326 . S
Tb436 O454 2.500 . S
Tb436 O455 2.473 . S
Tb436 O458 2.324 . S
Eu437 O441 2.292 1_455 S
Eu437 C442 2.852 1_455 S
Eu437 O453 2.324 . S
Eu437 O457 2.326 . S
Eu437 O459 2.500 1_455 S
Eu437 O460 2.473 . S
C438 O435 1.255 . S
C438 O439 1.247 . S
O439 C438 1.247 . S
C440 O452 1.242 . S
C440 O453 1.258 . S
O441 Eu437 2.292 1_655 S
O441 C443 1.256 . S
C442 Eu437 2.852 1_655 S
C442 C446 1.503 . S
C442 O459 1.273 . S
C442 O460 1.257 1_655 S
C443 O441 1.256 . S
C443 O444 1.242 1_655 S
O444 C443 1.242 1_455 S
C445 O457 1.242 . S
C445 O458 1.258 . S
C446 C442 1.503 . S
C446 C447 1.379 . S
C446 C451 1.392 . S
C447 C446 1.379 . S
C447 C448 1.404 . S
C447 H461 0.929 1_655 S
C448 C447 1.404 . S
C448 C449 1.389 . S
C449 C448 1.389 . S
C449 C450 1.399 . S
C449 H462 0.931 . S
C450 C449 1.399 . S
C450 C451 1.390 . S
C451 C446 1.392 . S
C451 C450 1.390 . S
C451 H463 0.929 . S
O452 Tb436 2.326 . S
O452 C440 1.242 . S
O453 Eu437 2.324 . S
O453 C440 1.258 . S
O454 Tb436 2.500 . S
O454 C456 1.273 . S
O455 Tb436 2.473 . S
O455 C456 1.257 . S
C456 O454 1.273 . S
C456 O455 1.257 . S
O457 Eu437 2.326 . S
O457 C445 1.242 . S
O458 Tb436 2.324 . S
O458 C445 1.258 . S
O459 Eu437 2.500 1_655 S
O459 C442 1.273 . S
O460 Eu437 2.473 . S
O460 C442 1.257 1_455 S
H461 C447 0.929 1_455 S
H462 C449 0.931 . S
H463 C451 0.929 . S
C245 C13 3.293 1_546 S
C42 C274 3.293 1_554 S
C303 C71 3.293 1_456 S
C100 C332 3.293 1_664 S
C129 C361 3.293 1_445 S
C158 C390 3.293 1_545 S
C419 C187 3.293 . S
C448 C216 3.293 1_655 S
C15 C37 4.217 . S
C66 C44 4.217 . S
C95 C73 4.218 . S
C8 C102 4.218 . S
C211 C131 4.218 . S
C124 C160 4.218 . S
C189 C153 4.217 . S
C218 C182 4.217 . S
C269 C247 4.217 . S
C276 C298 4.217 . S
C327 C305 4.218 . S
C240 C334 4.218 . S
C443 C363 4.218 . S
C356 C392 4.218 . S
C385 C421 4.217 . S
C414 C450 4.217 . S
C266 C3 1.501 1_556 S
C295 C32 1.501 1_556 S
C324 C61 1.501 1_556 S
C237 C90 1.501 1_556 S
C440 C119 1.501 . S
C353 C148 1.501 . S
C177 C382 1.501 . S
C411 C206 1.501 . S
C235 C34 1.501 1_556 S
C264 C63 1.501 1_556 S
C293 C92 1.501 1_556 S
C5 C322 1.501 1_554 S
C351 C208 1.501 . S
C121 C380 1.501 . S
C409 C150 1.501 . S
C438 C179 1.501 . S
C155 C10 2.730 . S
C184 C39 2.730 . S
C213 C68 2.730 . S
C126 C97 2.730 . S
C387 C242 2.730 . S
C271 C416 2.730 . S
C300 C445 2.730 . S
C329 C358 2.730 . S
C79 C21 0.408 . S
C50 C108 0.408 . S
C195 C137 0.408 . S
C224 C166 0.408 . S
C253 C311 0.408 . S
C340 C282 0.408 . S
C427 C369 0.408 . S
C456 C398 0.408 . S
